drugbank_target|Q05320 Envelope glycoprotein (DB15898; DB15899; DB15900; DB16385)
 OpenBabel12092121283D

  0  0  0     0  0            999 V3000
M  V30 BEGIN CTAB
M  V30 COUNTS 10367 10492 0 0 0
M  V30 BEGIN ATOM
M  V30 1 H -0.908 1.98254 -0.117106 0
M  V30 2 N 0 1.576 0 0
M  V30 3 C 0.933 2.03868 1.02534 0
M  V30 4 C 1.911 0.928543 1.3348 0
M  V30 5 O 3.095 1.19667 1.45644 0
M  V30 6 C 0.222 2.43627 2.35294 0
M  V30 7 C -0.732 3.65373 2.2001 0
M  V30 8 S 0.101 5.13292 1.52614 0
M  V30 9 C 1.257 5.56322 2.86805 0
M  V30 10 H 1.49 2.90518 0.631377 0
M  V30 11 H -0.977 1.52953 0.210867 0
M  V30 12 H 0.981 2.67203 3.11629 0
M  V30 13 H -0.358 1.57376 2.7183 0
M  V30 14 H -1.165 3.90944 3.18086 0
M  V30 15 H -1.563 3.418 1.51819 0
M  V30 16 H 0.729 5.58782 3.83104 0
M  V30 17 H 1.672 6.56266 2.65933 0
M  V30 18 H 2.08 4.83886 2.90714 0
M  V30 19 N 1.4781 -0.272755 1.55222 0
M  V30 20 C 2.7261 -1.00234 1.75492 0
M  V30 21 C 3.0471 -1.8681 0.5592 0
M  V30 22 O 2.3171 -1.91215 -0.425882 0
M  V30 23 H 0.8971 -0.373076 0.647166 0
M  V30 24 H 3.5591 -0.296926 1.92625 0
M  V30 25 H 2.6551 -1.63913 2.65592 0
M  V30 26 N 2.9562 -1.48159 -0.537278 0
M  V30 27 C 4.2022 -1.56035 -1.29541 0
M  V30 28 C 4.5352 -0.230377 -1.92829 0
M  V30 29 O 3.8102 0.762952 -1.78911 0
M  V30 30 C 4.0932 -2.69323 -2.39034 0
M  V30 31 C 3.9462 -4.12002 -1.80485 0
M  V30 32 C 5.2652 -2.78408 -3.40847 0
M  V30 33 H 2.3842 -0.567992 -0.469632 0
M  V30 34 H 5.0262 -1.80302 -0.599277 0
M  V30 35 H 3.1762 -2.48763 -2.98412 0
M  V30 36 H 4.8482 -4.43981 -1.25215 0
M  V30 37 H 3.0912 -4.19344 -1.11055 0
M  V30 38 H 3.7622 -4.87077 -2.59731 0
M  V30 39 H 6.2382 -2.97012 -2.91416 0
M  V30 40 H 5.1142 -3.59416 -4.14863 0
M  V30 41 H 5.3752 -1.86269 -4.00944 0
M  V30 42 N 4.4343 0.785586 -1.36625 0
M  V30 43 C 5.6623 1.57448 -1.3423 0
M  V30 44 C 6.0773 1.88649 0.0755653 0
M  V30 45 O 5.4343 1.50414 1.03354 0
M  V30 46 C 5.4853 2.89316 -2.16745 0
M  V30 47 O 5.2063 2.59459 -3.53005 0
M  V30 48 C 6.7073 3.83606 -2.22174 0
M  V30 49 H 3.9273 0.488226 -0.4603 0
M  V30 50 H 6.4713 0.974733 -1.79775 0
M  V30 51 H 4.6263 3.4575 -1.74745 0
M  V30 52 H 5.0403 3.43804 -3.96105 0
M  V30 53 H 6.5143 4.73181 -2.8426 0
M  V30 54 H 6.9913 4.21734 -1.22627 0
M  V30 55 H 7.5973 3.33104 -2.64427 0
M  V30 56 N 5.9124 1.20967 1.01018 0
M  V30 57 C 7.1604 1.02172 1.74371 0
M  V30 58 C 7.4814 -0.446414 1.89821 0
M  V30 59 O 6.7514 -1.32234 1.44537 0
M  V30 60 H 5.3314 0.375066 0.646014 0
M  V30 61 H 7.9934 1.52187 1.21758 0
M  V30 62 H 7.0894 1.48538 2.74487 0
M  V30 63 N 7.3905 -1.2043 1.01659 0
M  V30 64 C 8.6395 -1.89118 0.701237 0
M  V30 65 C 8.9525 -1.79705 -0.772358 0
M  V30 66 O 10.1585 -2.43528 -1.20026 0
M  V30 67 C 8.6145 -3.39168 1.20388 0
M  V30 68 C 8.2225 -3.57166 2.70438 0
M  V30 69 C 9.9665 -4.1341 0.963953 0
M  V30 70 C 7.8735 -5.01042 3.14183 0
M  V30 71 H 6.8035 -0.708267 0.2586 0
M  V30 72 H 9.4545 -1.36239 1.22927 0
M  V30 73 H 7.8365 -3.91369 0.603824 0
M  V30 74 H 9.0105 -3.15351 3.35992 0
M  V30 75 H 7.3255 -2.96294 2.92572 0
M  V30 76 H 9.9225 -5.19491 1.26621 0
M  V30 77 H 10.2655 -4.16181 -0.099578 0
M  V30 78 H 10.7985 -3.67309 1.52738 0
M  V30 79 H 7.5375 -5.03426 4.19812 0
M  V30 80 H 7.0575 -5.43668 2.53348 0
M  V30 81 H 8.7365 -5.69623 3.0682 0
M  V30 82 N 8.8686 -0.792821 -1.36206 0
M  V30 83 C 9.7986 -0.207853 -2.32573 0
M  V30 84 C 10.7796 0.659055 -1.56813 0
M  V30 85 O 11.9646 0.592176 -1.84951 0
M  V30 86 C 9.0946 0.655449 -3.41059 0
M  V30 87 C 8.0486 -0.111842 -4.27854 0
M  V30 88 C 7.3746 0.872274 -5.27537 0
M  V30 89 C 8.6746 -1.30299 -5.05786 0
M  V30 90 H 10.3686 -1.01294 -2.81744 0
M  V30 91 H 7.9146 -0.48854 -1.3546 0
M  V30 92 H 9.8676 1.07464 -4.07467 0
M  V30 93 H 8.5916 1.49328 -2.90463 0
M  V30 94 H 7.2506 -0.512053 -3.63006 0
M  V30 95 H 6.8986 1.70523 -4.73214 0
M  V30 96 H 6.5986 0.363291 -5.86476 0
M  V30 97 H 8.1226 1.28996 -5.96818 0
M  V30 98 H 9.5366 -0.959379 -5.65216 0
M  V30 99 H 7.9336 -1.7455 -5.74154 0
M  V30 100 H 9.0036 -2.09663 -4.37229 0
M  V30 101 N 10.3467 1.47872 -0.545128 0
M  V30 102 C 11.2787 2.27869 0.246621 0
M  V30 103 C 12.2917 1.36282 0.890561 0
M  V30 104 O 13.4807 1.61207 0.766449 0
M  V30 105 C 10.5807 3.10159 1.36582 0
M  V30 106 C 9.7537 4.29627 0.820954 0
M  V30 107 C 8.8127 4.93607 1.82314 0
M  V30 108 O 7.8387 5.52366 1.37406 0
M  V30 109 N 9.0407 4.87211 3.15603 0
M  V30 110 H 11.8057 2.96459 -0.439539 0
M  V30 111 H 9.3667 1.57367 -0.380421 0
M  V30 112 H 11.3587 3.49829 2.03474 0
M  V30 113 H 9.9287 2.43891 1.9554 0
M  V30 114 H 9.1487 3.94192 -0.0244032 0
M  V30 115 H 10.4367 5.06928 0.436063 0
M  V30 116 H 9.8347 4.40651 3.54744 0
M  V30 117 H 8.3917 5.30937 3.78087 0
M  V30 118 N 11.8248 0.280983 1.55075 0
M  V30 119 C 12.7548 -0.597469 2.25727 0
M  V30 120 C 13.7358 -1.15417 1.24952 0
M  V30 121 O 14.9208 -1.18722 1.53684 0
M  V30 122 C 12.0508 -1.7789 2.98283 0
M  V30 123 C 11.0048 -1.35347 4.06036 0
M  V30 124 C 10.3308 -2.61846 4.66198 0
M  V30 125 C 11.6308 -0.499354 5.19907 0
M  V30 126 H 13.3248 -0.00824265 2.99399 0
M  V30 127 H 10.8708 -0.0025244 1.44 0
M  V30 128 H 12.8238 -2.39937 3.46422 0
M  V30 129 H 11.5478 -2.39405 2.22155 0
M  V30 130 H 10.2068 -0.756156 3.58717 0
M  V30 131 H 9.8548 -3.21632 3.86732 0
M  V30 132 H 9.5548 -2.3409 5.38958 0
M  V30 133 H 11.0788 -3.24732 5.1709 0
M  V30 134 H 12.4928 -1.02498 5.64063 0
M  V30 135 H 10.8898 -0.316424 5.99265 0
M  V30 136 H 11.9598 0.480459 4.82514 0
M  V30 137 N 13.3029 -1.57598 0.00835791 0
M  V30 138 C 14.7139 -1.7892 -0.53333 0
M  V30 139 C 15.0649 -0.916609 -1.73473 0
M  V30 140 O 14.1899 -0.121336 -2.1606 0
M  V30 141 C 14.7849 -3.24488 -0.974313 0
M  V30 142 C 13.3439 -3.46878 -1.46125 0
M  V30 143 C 12.4909 -2.74157 -0.416302 0
M  V30 144 H 15.4419 -1.56958 0.234495 0
M  V30 145 H 15.4629 -3.3306 -1.83988 0
M  V30 146 H 14.9749 -3.87972 -0.099718 0
M  V30 147 H 13.0759 -2.8862 -2.35646 0
M  V30 148 H 13.1889 -4.55572 -1.48295 0
M  V30 149 H 11.5529 -2.39022 -0.87981 0
M  V30 150 H 12.3359 -3.40345 0.44947 0
M  V30 151 N 14.781 0.264519 -1.55364 0
M  V30 152 C 16.197 0.61215 -1.47394 0
M  V30 153 C 16.397 1.89134 -0.695018 0
M  V30 154 O 15.453 2.51563 -0.217275 0
M  V30 155 C 16.766 0.731235 -2.91674 0
M  V30 156 C 18.314 0.82473 -3.01939 0
M  V30 157 C 18.789 0.975522 -4.4749 0
M  V30 158 N 20.28 1.04083 -4.51354 0
M  V30 159 C 21.015 1.17646 -5.61201 0
M  V30 160 N 20.511 1.27874 -6.80896 0
M  V30 161 N 22.304 1.20823 -5.48961 0
M  V30 162 H 14.455 -0.575456 -2.04456 0
M  V30 163 H 16.718 -0.196099 -0.927496 0
M  V30 164 H 16.424 -0.138392 -3.51428 0
M  V30 165 H 16.298 1.60883 -3.41169 0
M  V30 166 H 18.685 1.68482 -2.42276 0
M  V30 167 H 18.766 -0.0776479 -2.55682 0
M  V30 168 H 18.41 0.120058 -5.07758 0
M  V30 169 H 18.34 1.89268 -4.91412 0
M  V30 170 H 20.831 0.973846 -3.65136 0
M  V30 171 H 21.144 1.38081 -7.60364 0
M  V30 172 H 19.489 1.24863 -6.83692 0
M  V30 173 H 22.68 1.12469 -4.54388 0
M  V30 174 H 22.853 1.31049 -6.3461 0
M  V30 175 N 16.2591 1.48442 0.529413 0
M  V30 176 C 17.5361 1.46978 1.29062 0
M  V30 177 C 17.9161 0.181769 2.10316 0
M  V30 178 O 17.2641 -0.836481 2.12639 0
M  V30 179 C 17.4741 2.7321 2.17157 0
M  V30 180 C 18.8221 3.21562 2.77278 0
M  V30 181 O 19.8461 2.74131 2.27444 0
M  V30 182 O 18.7051 4.04094 3.67927 0
M  V30 183 H 15.7991 0.587003 0.582543 0
M  V30 184 H 18.3451 1.60676 0.546021 0
M  V30 185 H 17.1171 3.58465 1.56903 0
M  V30 186 H 16.7401 2.62235 2.98862 0
M  V30 187 N 17.7372 -0.778329 1.37039 0
M  V30 188 C 19.1532 -1.07796 1.17695 0
M  V30 189 C 19.3532 -2.01498 0.00860115 0
M  V30 190 O 18.4092 -2.43901 -0.653352 0
M  V30 191 C 19.7222 -1.68178 2.49272 0
M  V30 192 C 21.2702 -1.80467 2.55735 0
M  V30 193 C 21.7452 -2.44263 3.87427 0
M  V30 194 N 23.2362 -2.51721 3.88833 0
M  V30 195 C 23.9712 -3.01919 4.87476 0
M  V30 196 N 23.4672 -3.5234 5.96513 0
M  V30 197 N 25.2602 -3.00733 4.74885 0
M  V30 198 H 17.4112 -0.156032 2.11826 0
M  V30 199 H 19.6742 -0.131844 0.938787 0
M  V30 200 H 19.3802 -1.06796 3.35093 0
M  V30 201 H 19.2542 -2.67554 2.65885 0
M  V30 202 H 21.6412 -2.40984 1.70325 0
M  V30 203 H 21.7222 -0.798656 2.43013 0
M  V30 204 H 21.3662 -1.84388 4.73248 0
M  V30 205 H 21.2962 -3.45458 3.9745 0
M  V30 206 H 23.7872 -2.1603 3.10063 0
M  V30 207 H 24.1002 -3.89027 6.67741 0
M  V30 208 H 22.4452 -3.50462 6.00168 0
M  V30 209 H 25.6362 -2.60638 3.88826 0
M  V30 210 H 25.8092 -3.39545 5.51918 0
M  V30 211 N 19.2153 -1.21501 -1.00376 0
M  V30 212 C 20.4623 -1.03299 -1.74171 0
M  V30 213 C 20.7903 0.433326 -1.89612 0
M  V30 214 O 20.0453 1.33779 -1.42834 0
M  V30 215 C 20.3443 -1.67673 -3.15627 0
M  V30 216 C 20.0103 -3.17533 -3.2013 0
M  V30 217 C 18.6723 -3.58427 -3.21067 0
M  V30 218 C 21.0243 -4.13504 -3.17275 0
M  V30 219 C 18.3523 -4.93794 -3.16835 0
M  V30 220 C 20.7043 -5.48834 -3.14585 0
M  V30 221 C 19.3683 -5.89123 -3.13831 0
M  V30 222 H 18.6383 -0.377999 -0.637336 0
M  V30 223 H 21.2853 -1.51111 -1.17634 0
M  V30 224 H 19.5903 -1.12158 -3.75404 0
M  V30 225 H 21.2873 -1.51091 -3.71446 0
M  V30 226 H 17.8773 -2.84965 -3.20145 0
M  V30 227 H 22.0613 -3.82936 -3.15711 0
M  V30 228 H 17.3173 -5.24255 -3.1459 0
M  V30 229 H 21.4913 -6.22934 -3.1133 0
M  V30 230 H 19.1183 -6.93984 -3.10307 0
M  V30 231 N 20.6934 1.19889 -1.02296 0
M  V30 232 C 21.6404 2.22901 -0.598651 0
M  V30 233 C 22.6104 1.61588 0.384521 0
M  V30 234 O 23.7954 1.88697 0.282522 0
M  V30 235 C 20.9354 3.45063 0.0504476 0
M  V30 236 C 20.0484 4.20783 -0.978053 0
M  V30 237 C 19.1834 5.30356 -0.299338 0
M  V30 238 C 18.2224 5.97826 -1.31416 0
M  V30 239 N 17.3594 6.98975 -0.661667 0
M  V30 240 H 22.1994 2.58554 -1.48169 0
M  V30 241 H 19.7364 1.27039 -0.741584 0
M  V30 242 H 21.6944 4.14831 0.443971 0
M  V30 243 H 20.3244 3.10084 0.897097 0
M  V30 244 H 19.3764 3.50018 -1.48969 0
M  V30 245 H 20.6884 4.67109 -1.74958 0
M  V30 246 H 19.8424 6.06516 0.149347 0
M  V30 247 H 18.5814 4.85084 0.504445 0
M  V30 248 H 17.5864 5.20422 -1.77317 0
M  V30 249 H 18.8114 6.45183 -2.11933 0
M  V30 250 H 16.7574 6.55886 0.122132 0
M  V30 251 H 16.6744 7.43461 -1.37117 0
M  V30 252 H 17.9424 7.7914 -0.236785 0
M  V30 253 N 22.1715 0.800033 1.35784 0
M  V30 254 C 23.5875 0.482977 1.52117 0
M  V30 255 C 23.7875 -0.996948 1.75109 0
M  V30 256 O 22.8435 -1.78216 1.78872 0
M  V30 257 C 24.1565 1.32264 2.70049 0
M  V30 258 C 25.7045 1.31742 2.83924 0
M  V30 259 C 26.1795 2.14106 4.04874 0
M  V30 260 N 27.6705 2.11607 4.12039 0
M  V30 261 C 28.4055 2.72099 5.04727 0
M  V30 262 N 27.9015 3.41492 6.02789 0
M  V30 263 N 29.6945 2.61776 4.97423 0
M  V30 264 H 21.8455 1.75856 1.19115 0
M  V30 265 H 24.1085 0.748122 0.582252 0
M  V30 266 H 23.8145 2.37261 2.59616 0
M  V30 267 H 23.6885 0.971303 3.6448 0
M  V30 268 H 26.0755 0.275333 2.93813 0
M  V30 269 H 26.1565 1.70859 1.9037 0
M  V30 270 H 25.8005 3.18351 3.95746 0
M  V30 271 H 25.7305 1.72353 4.97596 0
M  V30 272 H 28.2215 1.61112 3.41835 0
M  V30 273 H 28.5345 3.84953 6.70098 0
M  V30 274 H 26.8795 3.45596 6.02983 0
M  V30 275 H 30.0705 2.07157 4.19766 0
M  V30 276 H 30.2435 3.0921 5.69468 0
M  V30 277 N 23.6496 -1.47581 0.552962 0
M  V30 278 C 24.8776 -2.06875 0.0320556 0
M  V30 279 C 25.2926 -1.40625 -1.25976 0
M  V30 280 O 24.6496 -0.501349 -1.75479 0
M  V30 281 C 24.7006 -3.61092 -0.17167 0
M  V30 282 O 24.4216 -4.24858 1.06899 0
M  V30 283 C 25.9226 -4.37242 -0.730344 0
M  V30 284 H 23.1426 -0.669561 0.043915 0
M  V30 285 H 25.6866 -1.89646 0.765163 0
M  V30 286 H 23.8416 -3.7785 -0.854894 0
M  V30 287 H 24.2556 -5.17334 0.864059 0
M  V30 288 H 25.7296 -5.45842 -0.822203 0
M  V30 289 H 26.2066 -4.03235 -1.74064 0
M  V30 290 H 26.8126 -4.25219 -0.0829543 0
M  V30 291 N 25.1277 -0.289203 -1.54924 0
M  V30 292 C 26.3527 0.329299 -2.04769 0
M  V30 293 C 26.7777 1.4763 -1.16564 0
M  V30 294 O 26.1357 1.80527 -0.167186 0
M  V30 295 C 26.1837 0.774438 -3.52186 0
M  V30 296 O 25.2877 1.88038 -3.67036 0
M  V30 297 H 24.6287 0.0659259 -0.660719 0
M  V30 298 H 27.1587 -0.42761 -2.00082 0
M  V30 299 H 27.1687 1.06642 -3.93816 0
M  V30 300 H 25.8437 -0.0646707 -4.1585 0
M  V30 301 H 24.4207 1.58985 -3.3731 0
M  V30 302 N 26.6058 1.57591 -0.0167156 0
M  V30 303 C 27.8528 1.91283 0.664597 0
M  V30 304 C 28.1808 0.891949 1.72842 0
M  V30 305 O 27.4358 -0.100931 1.9544 0
M  V30 306 C 27.7348 3.3172 1.33029 0
M  V30 307 C 27.4008 4.4914 0.398047 0
M  V30 308 C 26.0628 4.80992 0.141421 0
M  V30 309 C 28.4148 5.20634 -0.242825 0
M  V30 310 C 25.7428 5.81703 -0.764092 0
M  V30 311 C 28.0948 6.22311 -1.13632 0
M  V30 312 C 26.7588 6.52611 -1.40196 0
M  V30 313 H 26.0288 0.699956 0.243193 0
M  V30 314 H 28.6758 1.9135 -0.0758267 0
M  V30 315 H 26.9808 3.27856 2.14517 0
M  V30 316 H 28.6778 3.55055 1.86379 0
M  V30 317 H 25.2678 4.24262 0.608238 0
M  V30 318 H 29.4518 4.96267 -0.0576019 0
M  V30 319 H 24.7078 6.03532 -0.977732 0
M  V30 320 H 28.8818 6.76834 -1.63917 0
M  V30 321 H 26.5088 7.30467 -2.10529 0
M  V30 322 N 28.0839 -0.256276 1.55502 0
M  V30 323 C 29.3309 -0.985619 1.76895 0
M  V30 324 C 29.6589 -1.85671 0.579355 0
M  V30 325 O 28.9139 -1.90744 -0.437651 0
M  V30 326 C 29.2129 -1.88432 3.03691 0
M  V30 327 C 28.8789 -1.16936 4.35473 0
M  V30 328 C 27.5409 -0.97173 4.71286 0
M  V30 329 C 29.8929 -0.661889 5.1698 0
M  V30 330 C 27.2209 -0.254179 5.86149 0
M  V30 331 C 29.5729 0.042149 6.32586 0
M  V30 332 C 28.2369 0.25134 6.67027 0
M  V30 333 H 27.5069 -0.360663 0.647304 0
M  V30 334 H 30.1539 -0.256483 1.89775 0
M  V30 335 H 28.4589 -2.68021 2.85783 0
M  V30 336 H 30.1559 -2.45015 3.1744 0
M  V30 337 H 26.7459 -1.33332 4.07333 0
M  V30 338 H 30.9299 -0.802145 4.89775 0
M  V30 339 H 26.1859 -0.0815408 6.11346 0
M  V30 340 H 30.3599 0.443049 6.94989 0
M  V30 341 H 27.9869 0.809314 7.5588 0
M  V30 342 N 29.562 -1.4872 -0.521534 0
M  V30 343 C 30.492 -1.66771 -1.63431 0
M  V30 344 C 31.473 -0.516499 -1.62069 0
M  V30 345 O 32.658 -0.750013 -1.79132 0
M  V30 346 C 29.788 -1.71515 -3.01993 0
M  V30 347 C 28.742 -2.86222 -3.18216 0
M  V30 348 C 28.068 -2.76061 -4.57924 0
M  V30 349 C 29.368 -4.27419 -3.00184 0
M  V30 350 H 31.062 -2.59932 -1.48579 0
M  V30 351 H 28.608 -1.25089 -0.713358 0
M  V30 352 H 30.561 -1.82731 -3.7972 0
M  V30 353 H 29.285 -0.749393 -3.17886 0
M  V30 354 H 27.944 -2.74575 -2.42908 0
M  V30 355 H 27.592 -1.77437 -4.70665 0
M  V30 356 H 27.292 -3.53037 -4.69722 0
M  V30 357 H 28.816 -2.89256 -5.37739 0
M  V30 358 H 30.23 -4.39855 -3.67697 0
M  V30 359 H 28.627 -5.05458 -3.2347 0
M  V30 360 H 29.697 -4.43293 -1.96518 0
M  V30 361 N 31.0401 0.771051 -1.3745 0
M  V30 362 C 32.2861 1.53109 -1.339 0
M  V30 363 C 32.6411 1.9225 0.0758401 0
M  V30 364 O 31.9341 1.61264 1.03463 0
M  V30 365 C 32.1281 2.80676 -2.2126 0
M  V30 366 C 31.9571 2.54003 -3.71096 0
M  V30 367 C 30.7271 2.48097 -4.402 0
M  V30 368 C 32.9251 2.21953 -4.63941 0
M  V30 369 N 30.9071 2.13515 -5.75573 0
M  V30 370 C 32.2781 1.97516 -5.87697 0
M  V30 371 C 34.3331 2.08114 -4.5232 0
M  V30 372 C 33.0361 1.60638 -7.01133 0
M  V30 373 C 35.0621 1.72636 -5.65642 0
M  V30 374 C 34.4241 1.4906 -6.88448 0
M  V30 375 H 30.5231 0.56055 -0.54526 0
M  V30 376 H 33.1071 0.899472 -1.72678 0
M  V30 377 H 31.2781 3.41674 -1.84698 0
M  V30 378 H 33.0101 3.46578 -2.08963 0
M  V30 379 H 29.7651 2.63974 -3.93211 0
M  V30 380 H 30.1891 1.98919 -6.47117 0
M  V30 381 H 34.8311 2.25024 -3.57944 0
M  V30 382 H 32.5491 1.42467 -7.95443 0
M  V30 383 H 36.1351 1.62586 -5.58621 0
M  V30 384 H 35.0151 1.22014 -7.7465 0
M  V30 385 N 32.5182 1.22032 0.997298 0
M  V30 386 C 33.7642 1.04376 1.73878 0
M  V30 387 C 34.0972 -0.420716 1.89588 0
M  V30 388 O 33.3722 -1.31202 1.43583 0
M  V30 389 C 33.6552 1.75047 3.14691 0
M  V30 390 C 33.5082 3.29062 3.06656 0
M  V30 391 C 34.8272 1.49928 4.13775 0
M  V30 392 H 31.9462 0.380578 0.631133 0
M  V30 393 H 34.5882 1.50312 1.16217 0
M  V30 394 H 32.7382 1.35996 3.63919 0
M  V30 395 H 34.4102 3.7753 2.65083 0
M  V30 396 H 32.6532 3.58967 2.43568 0
M  V30 397 H 33.3242 3.73683 4.06282 0
M  V30 398 H 35.8002 1.83842 3.73285 0
M  V30 399 H 34.6762 2.01878 5.10428 0
M  V30 400 H 34.9372 0.430929 4.39995 0
M  V30 401 N 33.9963 -1.19345 1.0293 0
M  V30 402 C 35.2453 -1.88363 0.721256 0
M  V30 403 C 35.5583 -1.80514 -0.753254 0
M  V30 404 O 36.7643 -2.44788 -1.17436 0
M  V30 405 C 35.2203 -3.37872 1.23978 0
M  V30 406 C 34.8283 -3.54278 2.74211 0
M  V30 407 C 36.5723 -4.12365 1.00775 0
M  V30 408 C 34.4793 -4.97682 3.19479 0
M  V30 409 H 33.4093 -0.705484 0.266098 0
M  V30 410 H 36.0603 -1.34928 1.24365 0
M  V30 411 H 34.4423 -3.90707 0.6453 0
M  V30 412 H 35.6163 -3.11769 3.39318 0
M  V30 413 H 33.9313 -2.93174 2.95699 0
M  V30 414 H 36.5283 -5.18119 1.32123 0
M  V30 415 H 36.8713 -4.16263 -0.0554308 0
M  V30 416 H 37.4043 -3.65668 1.56625 0
M  V30 417 H 34.1433 -4.98945 4.25128 0
M  V30 418 H 33.6633 -5.4095 2.591 0
M  V30 419 H 35.3423 -5.66337 3.12845 0
M  V30 420 N 35.4744 -0.807222 -1.35358 0
M  V30 421 C 36.7234 -0.384376 -1.98004 0
M  V30 422 C 37.0364 1.0543 -1.64754 0
M  V30 423 O 38.2424 1.58029 -2.20769 0
M  V30 424 C 36.6984 -0.636326 -3.5423 0
M  V30 425 C 36.3064 -2.08759 -3.96388 0
M  V30 426 C 38.0504 -0.278869 -4.23583 0
M  V30 427 C 35.9574 -2.28525 -5.45463 0
M  V30 428 H 34.8874 -0.139986 -0.740891 0
M  V30 429 H 37.5384 -0.991369 -1.54415 0
M  V30 430 H 35.9204 0.0406256 -3.95979 0
M  V30 431 H 37.0944 -2.8024 -3.6579 0
M  V30 432 H 35.4094 -2.40497 -3.39926 0
M  V30 433 H 38.0064 -0.404599 -5.33167 0
M  V30 434 H 38.3494 0.775012 -4.09022 0
M  V30 435 H 38.8824 -0.909764 -3.87257 0
M  V30 436 H 35.6214 -3.32361 -5.64992 0
M  V30 437 H 35.1414 -1.61569 -5.77629 0
M  V30 438 H 36.8204 -2.10109 -6.11934 0
M  V30 439 N 36.9525 1.47285 -0.560781 0
M  V30 440 C 37.8825 2.32857 0.173105 0
M  V30 441 C 38.8635 1.44009 0.905281 0
M  V30 442 O 40.0485 1.7286 0.885046 0
M  V30 443 C 37.1785 3.25861 1.20133 0
M  V30 444 C 36.1325 4.23978 0.585388 0
M  V30 445 C 35.4585 5.06332 1.7185 0
M  V30 446 C 36.7585 5.20242 -0.463178 0
M  V30 447 H 38.4525 2.94466 -0.541307 0
M  V30 448 H 35.9985 1.41601 -0.261764 0
M  V30 449 H 37.9515 3.84569 1.72293 0
M  V30 450 H 36.6755 2.62315 1.94573 0
M  V30 451 H 35.3345 3.66501 0.085054 0
M  V30 452 H 34.9825 4.39186 2.45203 0
M  V30 453 H 34.6825 5.72762 1.31213 0
M  V30 454 H 36.2065 5.67899 2.24329 0
M  V30 455 H 37.6205 5.73293 -0.027502 0
M  V30 456 H 36.0175 5.94896 -0.788627 0
M  V30 457 H 37.0875 4.65504 -1.35773 0
M  V30 458 N 38.4306 0.297415 1.54768 0
M  V30 459 C 39.6776 -0.312913 2.00068 0
M  V30 460 C 40.0056 -1.54171 1.18582 0
M  V30 461 O 39.2606 -1.94108 0.249133 0
M  V30 462 C 39.5596 -0.717561 3.50123 0
M  V30 463 C 39.2256 0.409095 4.4904 0
M  V30 464 C 37.8876 0.718399 4.75807 0
M  V30 465 C 40.2396 1.16717 5.07963 0
M  V30 466 C 37.5676 1.78896 5.5876 0
M  V30 467 C 39.9196 2.22762 5.92081 0
M  V30 468 C 38.5836 2.54303 6.1716 0
M  V30 469 H 37.8536 -0.114503 0.7321 0
M  V30 470 H 40.5006 0.415767 1.86932 0
M  V30 471 H 38.8056 -1.52627 3.60849 0
M  V30 472 H 40.5026 -1.20091 3.82595 0
M  V30 473 H 37.0926 0.157918 4.28309 0
M  V30 474 H 41.2766 0.941466 4.87289 0
M  V30 475 H 36.5326 2.0381 5.7643 0
M  V30 476 H 40.7066 2.81962 6.36765 0
M  V30 477 H 38.3336 3.3739 6.81229 0
M  V30 478 N 39.9087 -1.5758 0.0250728 0
M  V30 479 C 40.8407 -2.06869 -0.986796 0
M  V30 480 C 41.8537 -0.991332 -1.29137 0
M  V30 481 O 43.0427 -1.26761 -1.25674 0
M  V30 482 C 40.1427 -2.47486 -2.31525 0
M  V30 483 C 39.3157 -3.78253 -2.19643 0
M  V30 484 C 38.3747 -4.05464 -3.35388 0
M  V30 485 O 37.4007 -4.75774 -3.12454 0
M  V30 486 N 38.6027 -3.55321 -4.59051 0
M  V30 487 H 41.3677 -2.94302 -0.566276 0
M  V30 488 H 38.9287 -1.6109 -0.161776 0
M  V30 489 H 40.9207 -2.62785 -3.07776 0
M  V30 490 H 39.4907 -1.65441 -2.65232 0
M  V30 491 H 38.7107 -3.7279 -1.28144 0
M  V30 492 H 39.9987 -4.63936 -2.08903 0
M  V30 493 H 39.3967 -2.98431 -4.80578 0
M  V30 494 H 37.9537 -3.75905 -5.32483 0
M  V30 495 N 41.3868 0.248026 -1.55636 0
M  V30 496 C 42.8028 0.596483 -1.48035 0
M  V30 497 C 43.0028 1.88386 -0.715039 0
M  V30 498 O 42.0588 2.51319 -0.243944 0
M  V30 499 C 43.3718 0.700258 -2.92433 0
M  V30 500 C 44.9198 0.792659 -3.02797 0
M  V30 501 C 45.3948 0.928005 -4.485 0
M  V30 502 N 46.8858 0.992903 -4.52433 0
M  V30 503 C 47.6208 1.11687 -5.62418 0
M  V30 504 N 47.1168 1.20645 -6.82214 0
M  V30 505 N 48.9098 1.14994 -5.50212 0
M  V30 506 H 41.0608 -0.597109 -2.03834 0
M  V30 507 H 43.3238 -0.205925 -0.925364 0
M  V30 508 H 43.0298 -0.175658 -3.51261 0
M  V30 509 H 42.9038 1.57255 -3.42857 0
M  V30 510 H 45.2908 1.65903 -2.4405 0
M  V30 511 H 45.3718 -0.104762 -2.55585 0
M  V30 512 H 45.0158 0.0661971 -5.07857 0
M  V30 513 H 44.9458 1.84045 -4.93391 0
M  V30 514 H 47.4368 0.935064 -3.66149 0
M  V30 515 H 47.7498 1.30008 -7.61786 0
M  V30 516 H 46.0948 1.17605 -6.84977 0
M  V30 517 H 49.2858 1.07643 -4.55555 0
M  V30 518 H 49.4588 1.24311 -6.35965 0
M  V30 519 N 42.8649 1.48995 0.513639 0
M  V30 520 C 44.0929 1.61531 1.29288 0
M  V30 521 C 44.5079 0.281801 1.86685 0
M  V30 522 O 43.8649 -0.731111 1.67215 0
M  V30 523 C 43.9159 2.67449 2.43215 0
M  V30 524 O 43.6369 3.95626 1.88179 0
M  V30 525 C 45.1379 2.90575 3.34785 0
M  V30 526 H 42.3579 0.544165 0.392588 0
M  V30 527 H 44.9019 1.9494 0.617956 0
M  V30 528 H 43.0569 2.36853 3.0656 0
M  V30 529 H 43.4709 4.53868 2.62876 0
M  V30 530 H 44.9449 3.68449 4.11035 0
M  V30 531 H 45.4219 2.00011 3.91015 0
M  V30 532 H 46.0279 3.22538 2.77218 0
M  V30 533 N 44.343 -0.763751 1.37857 0
M  V30 534 C 45.59 -1.52257 1.33506 0
M  V30 535 C 45.918 -1.94343 -0.078022 0
M  V30 536 O 45.173 -1.64958 -1.05297 0
M  V30 537 C 45.472 -2.79499 2.22745 0
M  V30 538 C 45.138 -2.56426 3.70886 0
M  V30 539 C 43.8 -2.49842 4.11257 0
M  V30 540 C 46.152 -2.36008 4.64704 0
M  V30 541 C 43.48 -2.20841 5.43549 0
M  V30 542 C 45.832 -2.0853 5.97242 0
M  V30 543 C 44.496 -2.00396 6.36709 0
M  V30 544 H 43.766 -0.557149 0.488534 0
M  V30 545 H 46.413 -0.879073 1.70131 0
M  V30 546 H 44.718 -3.48447 1.79142 0
M  V30 547 H 46.415 -3.37413 2.16688 0
M  V30 548 H 43.005 -2.62416 3.38874 0
M  V30 549 H 47.189 -2.40079 4.34368 0
M  V30 550 H 42.445 -2.13045 5.73081 0
M  V30 551 H 46.619 -1.91732 6.69486 0
M  V30 552 H 44.246 -1.77688 7.39142 0
M  V30 553 N 45.8211 -1.22559 -0.990812 0
M  V30 554 C 47.0461 -1.07862 -1.77145 0
M  V30 555 C 47.4711 0.366447 -1.84496 0
M  V30 556 O 46.8291 1.26478 -1.29896 0
M  V30 557 C 46.8771 -1.69686 -3.18181 0
M  V30 558 O 45.9811 -0.951946 -4.01263 0
M  V30 559 H 45.3221 -0.378712 -0.545411 0
M  V30 560 H 47.8521 -1.62399 -1.2445 0
M  V30 561 H 47.8621 -1.74496 -3.68802 0
M  V30 562 H 46.5371 -2.74841 -3.12146 0
M  V30 563 H 45.1141 -0.980011 -3.59792 0
M  V30 564 N 47.2992 1.18797 -1.03562 0
M  V30 565 C 48.5482 1.87978 -0.731235 0
M  V30 566 C 48.8612 1.80911 0.743671 0
M  V30 567 O 50.0672 2.45407 1.16137 0
M  V30 568 C 48.5232 3.3721 -1.25768 0
M  V30 569 C 48.1312 3.52818 -2.76085 0
M  V30 570 C 49.8752 4.11825 -1.0296 0
M  V30 571 C 47.7822 4.9598 -3.22114 0
M  V30 572 H 46.7122 0.704063 -0.269835 0
M  V30 573 H 49.3632 1.34266 -1.25079 0
M  V30 574 H 47.7452 3.90359 -0.666011 0
M  V30 575 H 48.9192 3.09965 -3.40966 0
M  V30 576 H 47.2342 2.91602 -2.97249 0
M  V30 577 H 49.8312 5.17411 -1.34869 0
M  V30 578 H 50.1742 4.16287 0.0333546 0
M  V30 579 H 50.7072 3.64833 -1.58562 0
M  V30 580 H 47.4462 4.96684 -4.27768 0
M  V30 581 H 46.9662 5.39569 -2.61965 0
M  V30 582 H 48.6452 5.6467 -3.15844 0
M  V30 583 N 48.7773 0.814389 1.34928 0
M  V30 584 C 50.1883 0.458364 1.80986 0
M  V30 585 C 50.5393 -1.02042 1.67577 0
M  V30 586 O 49.6643 -1.79352 1.21086 0
M  V30 587 C 50.2593 0.825212 3.28597 0
M  V30 588 C 48.8183 0.521677 3.72767 0
M  V30 589 C 47.9653 1.04668 2.56788 0
M  V30 590 H 50.9163 1.00533 1.22795 0
M  V30 591 H 50.9373 0.12571 3.80292 0
M  V30 592 H 50.4493 1.90154 3.38324 0
M  V30 593 H 48.5503 -0.545589 3.68584 0
M  V30 594 H 48.6633 1.05977 4.67232 0
M  V30 595 H 47.0273 0.468622 2.50352 0
M  V30 596 H 47.8103 2.12927 2.6929 0
M  V30 597 N 50.2554 -1.46986 0.568584 0
M  V30 598 C 51.1854 -2.32946 -0.160753 0
M  V30 599 C 52.1664 -1.44487 -0.897631 0
M  V30 600 O 53.3514 -1.73327 -0.875867 0
M  V30 601 C 50.4814 -3.26494 -1.18403 0
M  V30 602 C 49.4354 -4.24282 -0.562895 0
M  V30 603 C 48.7614 -5.07236 -1.69163 0
M  V30 604 C 50.0614 -5.19989 0.490761 0
M  V30 605 H 51.7554 -2.94175 0.556916 0
M  V30 606 H 49.3014 -1.4146 0.26927 0
M  V30 607 H 51.2544 -3.85477 -1.70251 0
M  V30 608 H 49.9784 -2.63343 -1.93179 0
M  V30 609 H 48.6374 -3.66541 -0.0656164 0
M  V30 610 H 48.2854 -4.4048 -2.42871 0
M  V30 611 H 47.9854 -5.7345 -1.28174 0
M  V30 612 H 49.5094 -5.6908 -2.21314 0
M  V30 613 H 50.9234 -5.73271 0.0579047 0
M  V30 614 H 49.3204 -5.94469 0.820165 0
M  V30 615 H 50.3904 -4.64777 1.3824 0
M  V30 616 N 51.7335 -0.305618 -1.54608 0
M  V30 617 C 52.9815 0.301701 -1.99835 0
M  V30 618 C 53.3025 1.54054 -1.19551 0
M  V30 619 O 52.5725 1.93702 -0.292658 0
M  V30 620 H 51.1525 0.114468 -0.738178 0
M  V30 621 H 53.8145 -0.418016 -1.90364 0
M  V30 622 H 52.9105 0.570548 -3.06841 0
M  V30 623 N 53.2116 1.57565 -0.0334293 0
M  V30 624 C 54.4576 1.92262 0.645226 0
M  V30 625 C 54.7906 0.910543 1.71531 0
M  V30 626 O 54.0656 -0.066099 1.94388 0
M  V30 627 C 54.3486 3.37422 1.2577 0
M  V30 628 C 54.2016 4.49369 0.196891 0
M  V30 629 C 55.5206 3.82628 2.17449 0
M  V30 630 H 52.6396 0.699171 0.233085 0
M  V30 631 H 55.2816 1.89779 -0.0915694 0
M  V30 632 H 53.4316 3.39669 1.88566 0
M  V30 633 H 55.1036 4.59254 -0.433962 0
M  V30 634 H 53.3466 4.31168 -0.477137 0
M  V30 635 H 54.0176 5.47978 0.665124 0
M  V30 636 H 56.4936 3.82145 1.64634 0
M  V30 637 H 55.3696 4.84883 2.57254 0
M  V30 638 H 55.6306 3.18376 3.0674 0
M  V30 639 N 54.6897 -0.239769 1.55765 0
M  V30 640 C 55.9387 -0.964754 1.77131 0
M  V30 641 C 56.2517 -1.86213 0.59868 0
M  V30 642 O 57.4577 -2.6244 0.695522 0
M  V30 643 C 55.9137 -1.76552 3.1362 0
M  V30 644 C 55.5217 -0.915185 4.38553 0
M  V30 645 C 57.2657 -2.48281 3.44321 0
M  V30 646 C 55.1727 -1.71225 5.66071 0
M  V30 647 H 54.1027 -0.363953 0.660344 0
M  V30 648 H 56.7537 -0.219181 1.82186 0
M  V30 649 H 55.1357 -2.55331 3.02691 0
M  V30 650 H 56.3097 -0.169217 4.60489 0
M  V30 651 H 54.6247 -0.310889 4.15238 0
M  V30 652 H 57.2217 -3.08382 4.36812 0
M  V30 653 H 57.5647 -3.20256 2.65973 0
M  V30 654 H 58.0977 -1.76507 3.56497 0
M  V30 655 H 54.8367 -1.03612 6.4726 0
M  V30 656 H 54.3567 -2.43331 5.48224 0
M  V30 657 H 56.0357 -2.27758 6.05587 0
M  V30 658 N 56.1678 -1.49265 -0.50573 0
M  V30 659 C 57.1178 -1.6198 -1.60457 0
M  V30 660 C 58.1018 -0.47568 -1.53708 0
M  V30 661 O 59.2938 -0.728392 -1.61318 0
M  V30 662 C 56.4228 -1.68526 -2.99089 0
M  V30 663 C 55.5088 -2.885 -3.10852 0
M  V30 664 N 55.8998 -4.12635 -2.92517 0
M  V30 665 C 54.1978 -2.86338 -3.41945 0
M  V30 666 C 54.8988 -4.93258 -3.08337 0
M  V30 667 N 53.8748 -4.26533 -3.37003 0
M  V30 668 H 57.6768 -2.55681 -1.44928 0
M  V30 669 H 55.1908 -1.45972 -0.711752 0
M  V30 670 H 57.1878 -1.75732 -3.78053 0
M  V30 671 H 55.8478 -0.759584 -3.1569 0
M  V30 672 H 56.8588 -4.42689 -2.68787 0
M  V30 673 H 53.5358 -2.03129 -3.64753 0
M  V30 674 H 54.9258 -6.01856 -2.98695 0
M  V30 675 N 57.6459 0.756429 -1.3826 0
M  V30 676 C 58.5939 1.89149 -1.35372 0
M  V30 677 C 59.5879 1.67691 -0.24004 0
M  V30 678 O 60.7939 1.75294 -0.408919 0
M  V30 679 H 57.1689 0.622271 -0.422236 0
M  V30 680 H 59.1399 1.88701 -2.31159 0
M  V30 681 C 57.8889 3.26599 -1.19284 0
M  V30 682 H 57.2119 3.43695 -2.0424 0
M  V30 683 H 58.6519 4.06274 -1.21316 0
M  V30 684 C 57.1109 3.3675 0.100454 0
M  V30 685 O 57.6409 3.86951 1.07851 0
M  V30 686 N 55.8469 2.90179 0.15633 0
M  V30 687 H 55.3939 2.49517 -0.640253 0
M  V30 688 H 55.3519 2.97352 1.02123 0
M  V30 689 N 59.124 1.23083 0.984299 0
M  V30 690 C 60.349 1.088 1.76571 0
M  V30 691 C 60.774 -0.356657 1.84688 0
M  V30 692 O 60.132 -1.25788 1.30565 0
M  V30 693 C 60.18 1.71371 3.17277 0
M  V30 694 O 59.284 0.973213 4.00752 0
M  V30 695 H 58.625 0.381599 0.543395 0
M  V30 696 H 61.155 1.63057 1.23587 0
M  V30 697 H 61.165 1.76449 3.67872 0
M  V30 698 H 59.84 2.76493 3.10684 0
M  V30 699 H 58.417 0.999078 3.59267 0
M  V30 700 N 60.6021 -1.18246 1.0419 0
M  V30 701 C 61.8301 -1.92195 0.766072 0
M  V30 702 C 62.2451 -1.76247 -0.676933 0
M  V30 703 O 61.6021 -1.09293 -1.46155 0
M  V30 704 C 61.6531 -3.43568 1.12442 0
M  V30 705 O 61.3741 -3.59015 2.51078 0
M  V30 706 C 62.8751 -4.34613 0.873275 0
M  V30 707 H 60.0951 -0.610114 0.279288 0
M  V30 708 H 62.6391 -1.50007 1.38989 0
M  V30 709 H 60.7941 -3.8354 0.545542 0
M  V30 710 H 61.2081 -4.5273 2.64831 0
M  V30 711 H 62.6821 -5.39374 1.17385 0
M  V30 712 H 63.1591 -4.38781 -0.191909 0
M  V30 713 H 63.7651 -4.00341 1.43551 0
M  V30 714 N 62.0802 -0.821533 -1.34494 0
M  V30 715 C 63.0102 -0.257138 -2.3208 0
M  V30 716 C 63.9912 0.625645 -1.58176 0
M  V30 717 O 65.1762 0.552811 -1.86166 0
M  V30 718 C 62.3062 0.582958 -3.42372 0
M  V30 719 C 61.2602 -0.202571 -4.2752 0
M  V30 720 C 60.5862 0.760179 -5.29269 0
M  V30 721 C 61.8862 -1.40998 -5.02908 0
M  V30 722 H 63.5802 -1.07247 -2.79532 0
M  V30 723 H 61.1262 -0.517163 -1.34393 0
M  V30 724 H 63.0792 0.987972 -4.09655 0
M  V30 725 H 61.8032 1.43133 -2.93565 0
M  V30 726 H 60.4622 -0.588936 -3.61838 0
M  V30 727 H 60.1102 1.60447 -4.76724 0
M  V30 728 H 59.8102 0.238809 -5.87115 0
M  V30 729 H 61.3342 1.16308 -5.9942 0
M  V30 730 H 62.7482 -1.07905 -5.63054 0
M  V30 731 H 61.1452 -1.86689 -5.70322 0
M  V30 732 H 62.2152 -2.1889 -4.32684 0
M  V30 733 N 63.5583 1.46682 -0.576371 0
M  V30 734 C 64.4903 2.28341 0.198231 0
M  V30 735 C 65.5033 1.38141 0.861453 0
M  V30 736 O 66.6923 1.62797 0.732082 0
M  V30 737 C 63.7923 3.12986 1.29972 0
M  V30 738 C 62.9653 4.31271 0.729639 0
M  V30 739 C 62.0243 4.97363 1.71803 0
M  V30 740 O 61.0503 5.55156 1.25658 0
M  V30 741 N 62.2523 4.93796 3.05198 0
M  V30 742 H 65.0173 2.9546 -0.502324 0
M  V30 743 H 62.5783 1.56525 -0.413715 0
M  V30 744 H 64.5703 3.54066 1.96008 0
M  V30 745 H 63.1403 2.47984 1.90323 0
M  V30 746 H 62.3603 3.94052 -0.108012 0
M  V30 747 H 63.6483 5.07739 0.328438 0
M  V30 748 H 63.0463 4.48077 3.45317 0
M  V30 749 H 61.6033 5.38837 3.6674 0
M  V30 750 N 65.0364 0.313813 1.54444 0
M  V30 751 C 66.2824 -0.292108 2.00685 0
M  V30 752 C 66.6154 -1.52548 1.20177 0
M  V30 753 O 65.8904 -1.92452 0.281531 0
M  V30 754 C 66.1734 -0.635968 3.5444 0
M  V30 755 C 66.0264 0.607437 4.4568 0
M  V30 756 C 67.3454 -1.45747 4.15266 0
M  V30 757 H 64.4644 -0.104697 0.729526 0
M  V30 758 H 67.1064 0.428457 1.85106 0
M  V30 759 H 65.2564 -1.24986 3.67846 0
M  V30 760 H 66.9284 1.24581 4.44159 0
M  V30 761 H 65.1714 1.23822 4.15753 0
M  V30 762 H 65.8424 0.322515 5.51057 0
M  V30 763 H 68.3184 -0.938645 4.05375 0
M  V30 764 H 67.1944 -1.66683 5.2298 0
M  V30 765 H 67.4554 -2.45063 3.67963 0
M  V30 766 N 66.5145 -1.57545 0.0417849 0
M  V30 767 C 67.7395 -1.97035 -0.647455 0
M  V30 768 C 68.1645 -0.918775 -1.64135 0
M  V30 769 O 67.5225 0.119006 -1.80909 0
M  V30 770 C 67.5705 -3.35609 -1.31905 0
M  V30 771 O 66.6745 -3.3287 -2.43457 0
M  V30 772 H 66.0155 -0.64211 -0.169086 0
M  V30 773 H 68.5455 -2.04318 0.107399 0
M  V30 774 H 68.5555 -3.72126 -1.67291 0
M  V30 775 H 67.2305 -4.11685 -0.590586 0
M  V30 776 H 65.8075 -3.08087 -2.10088 0
M  V30 777 N 67.9926 0.231505 -1.5589 0
M  V30 778 C 69.2696 0.981096 -1.69215 0
M  V30 779 C 69.6496 2.02799 -0.586164 0
M  V30 780 O 68.9976 2.24823 0.408253 0
M  V30 781 C 69.2076 1.60054 -3.10135 0
M  V30 782 C 70.5556 2.09658 -3.69227 0
M  V30 783 O 71.5796 1.69967 -3.13033 0
M  V30 784 O 70.4386 2.8258 -4.67772 0
M  V30 785 H 67.5326 0.457653 -0.688827 0
M  V30 786 H 70.0786 0.224073 -1.68214 0
M  V30 787 H 68.8506 0.844105 -3.82087 0
M  V30 788 H 68.4736 2.42336 -3.15212 0
M  V30 789 N 69.4707 1.49531 0.497807 0
M  V30 790 C 70.7167 1.59415 1.25358 0
M  V30 791 C 71.0497 0.281422 1.9215 0
M  V30 792 O 70.3247 -0.715249 1.80871 0
M  V30 793 C 70.6077 2.75566 2.3181 0
M  V30 794 C 70.4607 4.16642 1.69498 0
M  V30 795 C 71.7797 2.87347 3.33346 0
M  V30 796 H 68.8987 0.580244 0.454408 0
M  V30 797 H 71.5407 1.81827 0.551262 0
M  V30 798 H 69.6907 2.56587 2.91711 0
M  V30 799 H 71.3627 4.47145 1.13399 0
M  V30 800 H 69.6057 4.22141 0.998978 0
M  V30 801 H 70.2767 4.93792 2.46725 0
M  V30 802 H 72.7527 3.04634 2.83438 0
M  V30 803 H 71.6287 3.70289 4.05188 0
M  V30 804 H 71.8897 1.96834 3.95865 0
M  V30 805 N 70.9488 -0.749086 1.3866 0
M  V30 806 C 72.2258 -1.4992 1.25632 0
M  V30 807 C 72.6058 -2.10633 -0.140317 0
M  V30 808 O 71.9538 -1.97437 -1.15025 0
M  V30 809 C 72.1638 -2.56195 2.36992 0
M  V30 810 C 73.5118 -3.22972 2.75634 0
M  V30 811 O 74.5358 -2.66502 2.36337 0
M  V30 812 O 73.3948 -4.25122 3.43415 0
M  V30 813 H 70.4888 -0.665067 0.491544 0
M  V30 814 H 73.0348 -0.784113 1.50498 0
M  V30 815 H 71.8068 -2.09612 3.30422 0
M  V30 816 H 71.4298 -3.35279 2.13714 0
M  V30 817 N 72.4269 -1.23603 -0.977757 0
M  V30 818 C 73.3739 -1.01954 -2.07061 0
M  V30 819 C 74.3439 0.0638697 -1.65977 0
M  V30 820 O 75.5289 -0.0887624 -1.90593 0
M  V30 821 C 72.6689 -0.619658 -3.39491 0
M  V30 822 C 71.7819 -1.77547 -3.93829 0
M  V30 823 C 70.9169 -1.32212 -5.14484 0
M  V30 824 C 69.9559 -2.44852 -5.60994 0
M  V30 825 N 69.0929 -2.00456 -6.72876 0
M  V30 826 H 73.9329 -1.95495 -2.24913 0
M  V30 827 H 71.4699 -0.973861 -1.10247 0
M  V30 828 H 73.4279 -0.368898 -4.15566 0
M  V30 829 H 72.0579 0.278752 -3.21594 0
M  V30 830 H 71.1099 -2.14016 -3.14486 0
M  V30 831 H 72.4219 -2.62219 -4.24314 0
M  V30 832 H 71.5759 -1.02965 -5.97899 0
M  V30 833 H 70.3149 -0.445808 -4.85658 0
M  V30 834 H 69.3199 -2.74871 -4.76157 0
M  V30 835 H 70.5449 -3.33024 -5.91837 0
M  V30 836 H 68.4909 -1.15208 -6.45804 0
M  V30 837 H 68.4079 -2.78687 -7.02759 0
M  V30 838 H 69.6759 -1.7432 -7.59758 0
M  V30 839 N 73.905 1.17692 -1.04816 0
M  V30 840 C 74.835 2.23777 -0.666791 0
M  V30 841 C 75.816 1.66796 0.33361 0
M  V30 842 O 77.001 1.93039 0.212042 0
M  V30 843 C 74.131 3.47281 -0.0367933 0
M  V30 844 C 73.085 4.17059 -0.961546 0
M  V30 845 C 72.411 5.34342 -0.195626 0
M  V30 846 C 73.711 4.69713 -2.28402 0
M  V30 847 H 75.405 2.55933 -1.55367 0
M  V30 848 H 72.951 1.23019 -0.748484 0
M  V30 849 H 74.904 4.20706 0.241775 0
M  V30 850 H 73.628 3.14381 0.885004 0
M  V30 851 H 72.287 3.45541 -1.22462 0
M  V30 852 H 71.935 4.97692 0.728816 0
M  V30 853 H 71.635 5.81966 -0.811775 0
M  V30 854 H 73.159 6.10553 0.0757473 0
M  V30 855 H 74.573 5.34794 -2.06563 0
M  V30 856 H 72.97 5.279 -2.8538 0
M  V30 857 H 74.04 3.86726 -2.92525 0
M  V30 858 N 75.3831 0.828654 1.34056 0
M  V30 859 C 76.6291 0.42008 1.98402 0
M  V30 860 C 76.9621 -1.01564 1.65525 0
M  V30 861 O 76.2371 -1.70834 0.929831 0
M  V30 862 C 76.5201 0.62927 3.54559 0
M  V30 863 C 76.3731 2.11152 3.97159 0
M  V30 864 C 77.6921 0.0688756 4.40046 0
M  V30 865 H 74.8111 0.154104 0.720709 0
M  V30 866 H 77.4531 1.04228 1.5886 0
M  V30 867 H 75.6031 0.0996418 3.88372 0
M  V30 868 H 77.2751 2.70522 3.73651 0
M  V30 869 H 75.5181 2.59985 3.47261 0
M  V30 870 H 76.1891 2.20868 5.05887 0
M  V30 871 H 78.6651 0.521458 4.1282 0
M  V30 872 H 77.5411 0.245006 5.48353 0
M  V30 873 H 77.8021 -1.0266 4.30015 0
M  V30 874 N 76.8612 -1.46375 0.584142 0
M  V30 875 C 78.1012 -2.0427 0.0729695 0
M  V30 876 C 78.4652 -1.44563 -1.26355 0
M  V30 877 O 79.6662 -1.93667 -1.86405 0
M  V30 878 C 77.9372 -3.57399 0.00967464 0
M  V30 879 S 79.4962 -4.36551 -0.443714 0
M  V30 880 H 76.3142 -0.709975 0.0381673 0
M  V30 881 H 78.9162 -1.79398 0.776962 0
M  V30 882 H 77.6202 -3.98372 0.986319 0
M  V30 883 H 77.1512 -3.8681 -0.717044 0
M  V30 884 H 79.1662 -4.66237 -1.69816 0
M  V30 885 N 78.3393 -0.321999 -1.54275 0
M  V30 886 C 79.7553 0.0306999 -1.5957 0
M  V30 887 C 79.9553 1.50614 -1.33857 0
M  V30 888 O 79.0113 2.2619 -1.12223 0
M  V30 889 C 80.3243 -0.386122 -2.98211 0
M  V30 890 C 81.8723 -0.336647 -3.11184 0
M  V30 891 C 82.3473 -0.728607 -4.52167 0
M  V30 892 N 83.8383 -0.681952 -4.58152 0
M  V30 893 C 84.5733 -0.957449 -5.6535 0
M  V30 894 N 84.0693 -1.3 -6.80494 0
M  V30 895 N 85.8623 -0.883113 -5.55119 0
M  V30 896 H 78.0133 -1.28332 -1.69247 0
M  V30 897 H 80.2763 -0.521716 -0.791528 0
M  V30 898 H 79.9823 -1.41404 -3.22022 0
M  V30 899 H 79.8563 0.249662 -3.76373 0
M  V30 900 H 82.2433 0.682058 -2.8711 0
M  V30 901 H 82.3243 -1.00734 -2.3513 0
M  V30 902 H 81.9683 -1.74522 -4.76974 0
M  V30 903 H 81.8983 -0.0356152 -5.26588 0
M  V30 904 H 84.3893 -0.428985 -3.75457 0
M  V30 905 H 84.7023 -1.49563 -7.58189 0
M  V30 906 H 83.0473 -1.33824 -6.81994 0
M  V30 907 H 86.2383 -0.615001 -4.64042 0
M  V30 908 H 86.4113 -1.10118 -6.38575 0
M  V30 909 N 79.8174 1.5752 -0.0501392 0
M  V30 910 C 81.0944 1.83996 0.663685 0
M  V30 911 C 81.4744 0.938339 1.89099 0
M  V30 912 O 80.8224 -0.00087759 2.285 0
M  V30 913 C 81.0324 3.33702 1.02196 0
M  V30 914 C 82.3804 4.00691 1.40469 0
M  V30 915 O 83.4044 3.38321 1.11433 0
M  V30 916 O 82.2634 5.10658 1.94654 0
M  V30 917 H 79.3574 0.759385 0.32751 0
M  V30 918 H 81.9034 1.69514 -0.0794238 0
M  V30 919 H 80.6754 3.91015 0.149364 0
M  V30 920 H 80.2984 3.53368 1.82255 0
M  V30 921 N 81.2955 -0.223234 1.56011 0
M  V30 922 C 82.2425 -1.27664 1.92277 0
M  V30 923 C 83.2125 -1.46659 0.779763 0
M  V30 924 O 84.3975 -1.60256 1.03551 0
M  V30 925 C 81.5375 -2.62234 2.24338 0
M  V30 926 C 80.6505 -2.51051 3.51564 0
M  V30 927 C 79.7855 -3.78133 3.7308 0
M  V30 928 C 78.8245 -3.61665 4.93827 0
M  V30 929 N 77.9615 -4.80693 5.11741 0
M  V30 930 H 82.8015 -0.960358 2.82101 0
M  V30 931 H 80.3385 -0.462901 1.39627 0
M  V30 932 H 82.2965 -3.40596 2.40936 0
M  V30 933 H 80.9265 -2.91961 1.3769 0
M  V30 934 H 79.9785 -1.64132 3.43169 0
M  V30 935 H 81.2905 -2.34803 4.40079 0
M  V30 936 H 80.4445 -4.64938 3.89766 0
M  V30 937 H 79.1835 -3.97304 2.82844 0
M  V30 938 H 78.1885 -2.73244 4.77093 0
M  V30 939 H 79.4135 -3.43966 5.85546 0
M  V30 940 H 77.3595 -5.00181 4.24446 0
M  V30 941 H 77.2765 -4.67165 5.94384 0
M  V30 942 H 78.5445 -5.6893 5.3286 0
M  V30 943 N 82.7736 -1.49793 -0.48987 0
M  V30 944 C 83.7036 -1.70201 -1.59856 0
M  V30 945 C 84.6846 -0.55076 -1.60937 0
M  V30 946 O 85.8696 -0.787841 -1.77501 0
M  V30 947 C 82.9996 -1.77882 -2.98287 0
M  V30 948 C 81.9536 -2.92907 -3.12073 0
M  V30 949 C 81.2796 -2.85712 -4.51965 0
M  V30 950 C 82.5796 -4.3369 -2.91051 0
M  V30 951 H 84.2736 -2.63025 -1.43032 0
M  V30 952 H 81.8196 -1.26574 -0.686664 0
M  V30 953 H 83.7726 -1.90744 -3.75759 0
M  V30 954 H 82.4966 -0.816653 -3.16225 0
M  V30 955 H 81.1556 -2.79665 -2.37029 0
M  V30 956 H 80.8036 -1.8738 -4.66795 0
M  V30 957 H 80.5036 -3.62921 -4.62128 0
M  V30 958 H 82.0276 -3.00598 -5.31482 0
M  V30 959 H 83.4416 -4.47555 -3.58284 0
M  V30 960 H 81.8386 -5.12205 -3.12675 0
M  V30 961 H 82.9086 -4.47362 -1.87071 0
M  V30 962 N 84.2517 0.741722 -1.39055 0
M  V30 963 C 85.4767 1.53607 -1.39354 0
M  V30 964 C 85.9017 1.88096 0.0116905 0
M  V30 965 O 85.2597 1.5143 0.996924 0
M  V30 966 C 85.3077 2.80441 -2.26682 0
M  V30 967 O 84.4117 3.76088 -1.69208 0
M  V30 968 H 83.7527 0.464142 -0.474835 0
M  V30 969 H 86.2827 0.915665 -1.82967 0
M  V30 970 H 86.2927 3.29246 -2.40959 0
M  V30 971 H 84.9677 2.5467 -3.2881 0
M  V30 972 H 83.5447 3.34833 -1.64138 0
M  V30 973 N 85.7298 1.2412 0.971189 0
M  V30 974 C 86.9548 1.10667 1.75407 0
M  V30 975 C 87.3798 -0.337048 1.85056 0
M  V30 976 O 86.7378 -1.24396 1.31892 0
M  V30 977 C 86.7858 1.74726 3.15441 0
M  V30 978 O 85.8898 1.01566 3.99697 0
M  V30 979 H 85.2308 0.387341 0.539317 0
M  V30 980 H 87.7608 1.64358 1.2185 0
M  V30 981 H 87.7708 1.80341 3.6598 0
M  V30 982 H 86.4458 2.79773 3.07734 0
M  V30 983 H 85.0228 1.03713 3.58187 0
M  V30 984 N 87.2079 -1.17134 1.05439 0
M  V30 985 C 88.4359 -1.91372 0.786414 0
M  V30 986 C 88.8509 -1.76955 -0.658202 0
M  V30 987 O 88.2079 -1.10838 -1.44987 0
M  V30 988 C 88.2589 -3.42356 1.1608 0
M  V30 989 O 87.9799 -3.56332 2.54871 0
M  V30 990 C 89.4809 -4.33663 0.919322 0
M  V30 991 H 86.7009 -0.607118 0.285743 0
M  V30 992 H 89.2449 -1.48525 1.40572 0
M  V30 993 H 87.3999 -3.82939 0.586191 0
M  V30 994 H 87.8139 -4.49896 2.69618 0
M  V30 995 H 89.2879 -5.38099 1.231 0
M  V30 996 H 89.7649 -4.38959 -0.145359 0
M  V30 997 H 90.3709 -3.98796 1.47789 0
M  V30 998 N 88.686 -0.835752 -1.33615 0
M  V30 999 C 89.634 -0.255238 -2.31195 0
M  V30 1000 C 90.628 0.61107 -1.57995 0
M  V30 1001 O 91.834 0.500979 -1.72888 0
M  V30 1002 H 88.209 -0.0638085 -0.749288 0
M  V30 1003 H 90.18 -1.09283 -2.77669 0
M  V30 1004 C 88.929 0.55754 -3.43201 0
M  V30 1005 H 88.252 -0.0997553 -3.99676 0
M  V30 1006 H 89.692 0.929622 -4.13683 0
M  V30 1007 C 88.151 1.73515 -2.88781 0
M  V30 1008 O 88.681 2.83376 -2.84712 0
M  V30 1009 N 86.887 1.55603 -2.4543 0
M  V30 1010 H 86.434 0.662354 -2.48939 0
M  V30 1011 H 86.392 2.34545 -2.09371 0
M  V30 1012 N 90.1641 1.46063 -0.591896 0
M  V30 1013 C 91.0961 2.28539 0.174001 0
M  V30 1014 C 92.1091 1.39047 0.846753 0
M  V30 1015 O 93.2981 1.63564 0.714774 0
M  V30 1016 C 90.3981 3.14347 1.26645 0
M  V30 1017 C 89.5711 4.32021 0.683856 0
M  V30 1018 C 88.6301 4.99157 1.66518 0
M  V30 1019 O 87.6561 5.56458 1.19763 0
M  V30 1020 N 88.8581 4.97005 2.99943 0
M  V30 1021 H 91.6231 2.94911 -0.533633 0
M  V30 1022 H 89.1841 1.56077 -0.430294 0
M  V30 1023 H 91.1761 3.56125 1.92242 0
M  V30 1024 H 89.7461 2.49988 1.87682 0
M  V30 1025 H 88.9661 3.93915 -0.1498 0
M  V30 1026 H 90.2541 5.08059 0.274567 0
M  V30 1027 H 89.6521 4.51714 3.40545 0
M  V30 1028 H 88.2091 5.42696 3.61004 0
M  V30 1029 N 91.6422 0.330177 1.54103 0
M  V30 1030 C 92.5722 -0.525353 2.27513 0
M  V30 1031 C 93.5532 -1.11383 1.2856 0
M  V30 1032 O 94.7382 -1.13773 1.57383 0
M  V30 1033 C 91.8682 -1.6831 3.03791 0
M  V30 1034 C 90.8222 -1.2236 4.10137 0
M  V30 1035 C 90.1482 -2.46882 4.74293 0
M  V30 1036 C 91.4482 -0.333697 5.21233 0
M  V30 1037 H 93.1422 0.087013 2.99274 0
M  V30 1038 H 90.6882 0.0432893 1.43935 0
M  V30 1039 H 92.6412 -2.28795 3.5388 0
M  V30 1040 H 91.3652 -2.32216 2.29659 0
M  V30 1041 H 90.0242 -0.64165 3.60941 0
M  V30 1042 H 89.6722 -3.09165 3.96769 0
M  V30 1043 H 89.3722 -2.16825 5.46133 0
M  V30 1044 H 90.8962 -3.08117 5.27159 0
M  V30 1045 H 92.3102 -0.845013 5.67038 0
M  V30 1046 H 90.7072 -0.125612 5.99969 0
M  V30 1047 H 91.7772 0.633724 4.80741 0
M  V30 1048 N 93.1203 -1.57491 0.0584922 0
M  V30 1049 C 94.5363 -1.56792 -0.298091 0
M  V30 1050 C 94.7363 -1.06679 -1.70944 0
M  V30 1051 O 93.7923 -0.726672 -2.41818 0
M  V30 1052 C 95.1053 -3.00461 -0.119879 0
M  V30 1053 C 96.6533 -3.1242 -0.190428 0
M  V30 1054 C 97.1283 -4.57982 -0.0406567 0
M  V30 1055 N 98.6193 -4.63099 -0.0966958 0
M  V30 1056 C 99.3543 -5.734 -0.00502943 0
M  V30 1057 N 98.8503 -6.9266 0.139402 0
M  V30 1058 N 100.643 -5.62067 -0.0611391 0
M  V30 1059 H 92.7943 -1.88386 0.98105 0
M  V30 1060 H 95.0573 -0.867865 0.381463 0
M  V30 1061 H 94.7633 -3.41187 0.85349 0
M  V30 1062 H 94.6373 -3.66843 -0.877833 0
M  V30 1063 H 97.0243 -2.71589 -1.15427 0
M  V30 1064 H 97.1053 -2.48702 0.598405 0
M  V30 1065 H 96.7493 -4.995 0.919897 0
M  V30 1066 H 96.6793 -5.19715 -0.848727 0
M  V30 1067 H 99.1703 -3.77331 -0.207277 0
M  V30 1068 H 99.4833 -7.72536 0.201855 0
M  V30 1069 H 97.8283 -6.94781 0.174586 0
M  V30 1070 H 101.019 -4.67782 -0.172583 0
M  V30 1071 H 101.192 -6.47999 0.0137562 0
M  V30 1072 N 94.5984 0.214957 -1.56127 0
M  V30 1073 C 95.8234 0.95924 -1.83884 0
M  V30 1074 C 96.2484 1.7689 -0.639644 0
M  V30 1075 O 95.6064 1.76566 0.411601 0
M  V30 1076 C 95.6544 1.84723 -3.09693 0
M  V30 1077 O 94.7584 2.94346 -2.8885 0
M  V30 1078 H 94.0994 0.27125 -0.606069 0
M  V30 1079 H 96.6294 0.226276 -2.03345 0
M  V30 1080 H 96.6394 2.25576 -3.39969 0
M  V30 1081 H 95.3144 1.25218 -3.96602 0
M  V30 1082 H 93.8914 2.57391 -2.69823 0
M  V30 1083 N 96.0765 1.50051 0.48192 0
M  V30 1084 C 97.3225 1.60736 1.2366 0
M  V30 1085 C 97.6555 0.301786 1.91841 0
M  V30 1086 O 96.9305 -0.696025 1.8162 0
M  V30 1087 C 97.2135 2.78009 2.28874 0
M  V30 1088 C 97.0665 4.18416 1.65069 0
M  V30 1089 C 98.3855 2.90867 3.30279 0
M  V30 1090 H 95.5045 0.585031 0.448228 0
M  V30 1091 H 98.1465 1.82402 0.531946 0
M  V30 1092 H 96.2965 2.59667 2.88973 0
M  V30 1093 H 97.9685 4.48322 1.0865 0
M  V30 1094 H 96.2115 4.23177 0.954148 0
M  V30 1095 H 96.8825 4.96381 2.41474 0
M  V30 1096 H 99.3585 3.07623 2.80191 0
M  V30 1097 H 98.2345 3.74566 4.01238 0
M  V30 1098 H 98.4955 2.01021 3.93755 0
M  V30 1099 N 97.5546 -0.734337 1.39446 0
M  V30 1100 C 98.8026 -1.49096 1.36436 0
M  V30 1101 C 99.1236 -1.94961 -0.0388255 0
M  V30 1102 O 98.3936 -1.69033 -0.990191 0
M  V30 1103 H 96.9736 -0.5531 0.502085 0
M  V30 1104 H 99.6356 -0.871725 1.74319 0
M  V30 1105 H 98.7316 -2.37276 2.02747 0
M  V30 1106 N 99.0327 -1.24633 -0.964593 0
M  V30 1107 C 99.9627 -1.06611 -2.07741 0
M  V30 1108 C 100.944 0.0218666 -1.70086 0
M  V30 1109 O 102.129 -0.145793 -1.93652 0
M  V30 1110 C 99.2587 -0.673444 -3.40708 0
M  V30 1111 C 98.2127 -1.71054 -3.92332 0
M  V30 1112 C 97.5387 -1.17285 -5.21678 0
M  V30 1113 C 98.8387 -3.10718 -4.19824 0
M  V30 1114 H 100.533 -1.99693 -2.23076 0
M  V30 1115 H 98.0787 -0.96152 -1.07195 0
M  V30 1116 H 100.032 -0.534345 -4.17998 0
M  V30 1117 H 98.7557 0.293073 -3.25282 0
M  V30 1118 H 97.4147 -1.83791 -3.17201 0
M  V30 1119 H 97.0627 -0.196847 -5.02615 0
M  V30 1120 H 96.7627 -1.86592 -5.57187 0
M  V30 1121 H 98.2867 -1.04593 -6.01575 0
M  V30 1122 H 99.7007 -3.01192 -4.87808 0
M  V30 1123 H 98.0977 -3.77406 -4.66567 0
M  V30 1124 H 99.1677 -3.58524 -3.26479 0
M  V30 1125 N 100.511 1.16574 -1.06058 0
M  V30 1126 C 101.459 2.22941 -0.663343 0
M  V30 1127 C 102.453 1.66358 0.319593 0
M  V30 1128 O 103.659 1.7905 0.184713 0
M  V30 1129 H 100.034 0.725907 -0.196376 0
M  V30 1130 H 102.005 2.53736 -1.57037 0
M  V30 1131 C 100.754 3.47642 -0.0632808 0
M  V30 1132 H 100.077 3.91493 -0.810733 0
M  V30 1133 H 101.517 4.2363 0.177177 0
M  V30 1134 C 99.9758 3.1509 1.19248 0
M  V30 1135 O 100.506 3.30673 2.28075 0
M  V30 1136 N 98.7118 2.6924 1.09353 0
M  V30 1137 H 98.2588 2.5676 0.207912 0
M  V30 1138 H 98.2168 2.47833 1.93458 0
M  V30 1139 N 101.989 0.842826 1.3317 0
M  V30 1140 C 102.919 0.294028 2.31641 0
M  V30 1141 C 103.9 -0.600401 1.59151 0
M  V30 1142 O 105.085 -0.523124 1.87022 0
M  V30 1143 C 102.215 -0.528416 3.43257 0
M  V30 1144 C 101.169 0.27056 4.27144 0
M  V30 1145 C 100.495 -0.675881 5.30411 0
M  V30 1146 C 101.795 1.48981 5.00602 0
M  V30 1147 H 103.489 1.11681 2.77791 0
M  V30 1148 H 101.035 0.538478 1.33553 0
M  V30 1149 H 102.988 -0.922674 4.11175 0
M  V30 1150 H 101.712 -1.38445 2.95805 0
M  V30 1151 H 100.371 0.646427 3.60856 0
M  V30 1152 H 100.019 -1.52842 4.79216 0
M  V30 1153 H 99.7189 -0.145374 5.8742 0
M  V30 1154 H 101.243 -1.06757 6.01195 0
M  V30 1155 H 102.657 1.16849 5.61266 0
M  V30 1156 H 101.054 1.95739 5.6728 0
M  V30 1157 H 102.124 2.25746 4.29147 0
M  V30 1158 N 103.467 -1.45747 0.599634 0
M  V30 1159 C 104.377 -2.34262 -0.125888 0
M  V30 1160 C 105.393 -1.50768 -0.868625 0
M  V30 1161 O 106.569 -1.83592 -0.828003 0
M  V30 1162 C 103.634 -3.28252 -1.11587 0
M  V30 1163 C 102.695 -4.27651 -0.375956 0
M  V30 1164 C 101.928 -5.1715 -1.31877 0
M  V30 1165 O 102.151 -5.09916 -2.55621 0
M  V30 1166 O 101.085 -5.96286 -0.820157 0
M  V30 1167 H 104.911 -2.97688 0.601315 0
M  V30 1168 H 102.496 -1.44999 0.359934 0
M  V30 1169 H 104.378 -3.86191 -1.68626 0
M  V30 1170 H 103.053 -2.67401 -1.82424 0
M  V30 1171 H 101.96 -3.7335 0.236698 0
M  V30 1172 H 103.293 -4.91334 0.29177 0
M  V30 1173 N 104.945 -0.338344 -1.53925 0
M  V30 1174 C 106.193 0.259245 -2.0043 0
M  V30 1175 C 106.514 1.51484 -1.22791 0
M  V30 1176 O 105.784 1.93037 -0.33368 0
M  V30 1177 H 104.364 0.0987845 -0.740439 0
M  V30 1178 H 107.026 -0.458302 -1.89435 0
M  V30 1179 H 106.122 0.505334 -3.07982 0
M  V30 1180 N 106.423 1.57458 -0.0668435 0
M  V30 1181 C 107.371 2.13639 0.919851 0
M  V30 1182 C 108.365 1.07204 1.31163 0
M  V30 1183 O 109.571 1.25591 1.28945 0
M  V30 1184 H 105.946 0.683048 0.314562 0
M  V30 1185 H 107.917 2.95415 0.421047 0
M  V30 1186 C 106.666 2.70892 2.17975 0
M  V30 1187 H 105.989 3.5246 1.88711 0
M  V30 1188 H 107.429 3.13803 2.85138 0
M  V30 1189 C 105.888 1.65414 2.93496 0
M  V30 1190 O 106.418 1.07619 3.87015 0
M  V30 1191 N 104.624 1.36564 2.56512 0
M  V30 1192 H 104.171 1.83751 1.80536 0
M  V30 1193 H 104.129 0.66223 3.07347 0
M  V30 1194 N 107.901 -0.206675 1.56239 0
M  V30 1195 C 109.149 -0.927007 1.79586 0
M  V30 1196 C 109.47 -1.8427 0.637929 0
M  V30 1197 O 108.74 -1.92849 -0.344398 0
M  V30 1198 H 107.32 -0.345292 0.662407 0
M  V30 1199 H 109.982 -0.21496 1.93711 0
M  V30 1200 H 109.078 -1.52501 2.72305 0
M  V30 1201 N 109.379 -1.50304 -0.473955 0
M  V30 1202 C 110.625 -1.61389 -1.22806 0
M  V30 1203 C 110.958 -0.311955 -1.91678 0
M  V30 1204 O 110.233 0.686384 -1.81986 0
M  V30 1205 C 110.516 -2.79219 -2.27396 0
M  V30 1206 C 110.369 -4.19286 -1.62848 0
M  V30 1207 C 111.688 -2.92614 -3.28732 0
M  V30 1208 H 108.807 -0.587399 -0.445119 0
M  V30 1209 H 111.449 -1.82681 -0.522265 0
M  V30 1210 H 109.599 -2.61195 -2.87592 0
M  V30 1211 H 111.271 -4.48892 -1.06271 0
M  V30 1212 H 109.514 -4.23677 -0.931693 0
M  V30 1213 H 110.185 -4.97655 -2.38838 0
M  V30 1214 H 112.661 -3.09105 -2.78556 0
M  V30 1215 H 111.537 -3.76688 -3.99246 0
M  V30 1216 H 111.798 -2.03107 -3.92683 0
M  V30 1217 N 110.857 0.726932 -1.39834 0
M  V30 1218 C 111.82 1.82269 -1.38962 0
M  V30 1219 C 112.82 1.58248 -0.285334 0
M  V30 1220 O 114.01 1.65499 -0.54366 0
M  V30 1221 C 111.142 3.20186 -1.17019 0
M  V30 1222 H 112.335 1.84443 -2.36476 0
M  V30 1223 H 109.888 0.931416 -1.25516 0
M  V30 1224 H 110.623 3.23669 -0.202204 0
M  V30 1225 H 110.408 3.3902 -1.96998 0
M  V30 1226 H 111.898 4.00235 -1.1917 0
M  V30 1227 N 112.336 1.25143 0.95797 0
M  V30 1228 C 113.564 1.12424 1.73691 0
M  V30 1229 C 113.979 -0.322304 1.86029 0
M  V30 1230 O 113.336 -1.22186 1.35561 0
M  V30 1231 C 113.387 1.76933 3.15241 0
M  V30 1232 O 113.108 3.15932 3.03511 0
M  V30 1233 C 114.609 1.6995 4.09429 0
M  V30 1234 H 111.829 0.3923 0.544373 0
M  V30 1235 H 114.373 1.6544 1.20207 0
M  V30 1236 H 112.528 1.27895 3.6568 0
M  V30 1237 H 112.942 3.47598 3.9278 0
M  V30 1238 H 114.416 2.19753 5.06372 0
M  V30 1239 H 114.893 0.662619 4.34173 0
M  V30 1240 H 115.499 2.18461 3.64904 0
M  V30 1241 N 113.814 -1.1601 1.06675 0
M  V30 1242 C 115.091 -1.82679 0.699114 0
M  V30 1243 C 115.471 -1.94559 -0.819137 0
M  V30 1244 O 114.819 -1.49169 -1.73092 0
M  V30 1245 C 115.029 -3.19445 1.40555 0
M  V30 1246 C 116.377 -3.95171 1.55323 0
M  V30 1247 O 117.401 -3.28976 1.36577 0
M  V30 1248 O 116.26 -5.13833 1.86112 0
M  V30 1249 H 113.354 -0.788954 0.247951 0
M  V30 1250 H 115.9 -1.23179 1.16726 0
M  V30 1251 H 114.672 -3.05856 2.44065 0
M  V30 1252 H 114.295 -3.86625 0.927733 0
M  V30 1253 N 115.292 -0.849877 -1.32721 0
M  V30 1254 C 116.538 -0.451591 -1.97708 0
M  V30 1255 C 116.871 0.989175 -1.6712 0
M  V30 1256 O 116.146 1.69334 -0.956891 0
M  V30 1257 C 116.429 -0.685598 -3.53513 0
M  V30 1258 C 116.282 -2.17444 -3.93749 0
M  V30 1259 C 117.601 -0.138874 -4.39881 0
M  V30 1260 H 114.72 -0.16555 -0.718166 0
M  V30 1261 H 117.362 -1.06742 -1.57182 0
M  V30 1262 H 115.512 -0.161416 -3.88165 0
M  V30 1263 H 117.184 -2.76433 -3.693 0
M  V30 1264 H 115.427 -2.65476 -3.43081 0
M  V30 1265 H 116.098 -2.28888 -5.02309 0
M  V30 1266 H 118.574 -0.587068 -4.11938 0
M  V30 1267 H 117.45 -0.332213 -5.47894 0
M  V30 1268 H 117.711 0.95806 -4.31594 0
M  V30 1269 N 116.77 1.45427 -0.607355 0
M  V30 1270 C 118.181 1.85756 -0.187535 0
M  V30 1271 C 118.532 1.5077 1.25551 0
M  V30 1272 O 117.657 0.93427 1.95193 0
M  V30 1273 C 118.252 3.37154 -0.333572 0
M  V30 1274 C 116.811 3.76387 0.0315542 0
M  V30 1275 C 115.958 2.69377 -0.658117 0
M  V30 1276 H 118.909 1.36231 -0.81405 0
M  V30 1277 H 118.93 3.78014 0.43428 0
M  V30 1278 H 118.442 3.62586 -1.38393 0
M  V30 1279 H 116.543 3.56571 1.0811 0
M  V30 1280 H 116.656 4.77731 -0.361935 0
M  V30 1281 H 115.02 2.5452 -0.0957873 0
M  V30 1282 H 115.803 2.97646 -1.7106 0
M  V30 1283 N 118.248 0.346503 1.53744 0
M  V30 1284 C 119.473 -0.253074 2.0585 0
M  V30 1285 C 119.898 -1.43202 1.21962 0
M  V30 1286 O 119.256 -1.79783 0.234073 0
M  V30 1287 C 119.304 -0.643193 3.54817 0
M  V30 1288 O 118.408 -1.74286 3.73762 0
M  V30 1289 H 117.749 -0.0413583 0.662711 0
M  V30 1290 H 120.279 0.501574 1.98357 0
M  V30 1291 H 120.289 -0.919526 3.97503 0
M  V30 1292 H 118.964 0.218966 4.15323 0
M  V30 1293 H 117.541 -1.46356 3.42979 0
M  V30 1294 N 119.726 -1.57421 0.075193 0
M  V30 1295 C 120.689 -2.11791 -0.876203 0
M  V30 1296 C 121.689 -1.04268 -1.22412 0
M  V30 1297 O 122.879 -1.30242 -1.15684 0
M  V30 1298 C 120.011 -2.62207 -2.17854 0
M  V30 1299 H 121.204 -2.9716 -0.40444 0
M  V30 1300 H 118.757 -1.55333 -0.173557 0
M  V30 1301 H 119.492 -1.803 -2.6956 0
M  V30 1302 H 119.277 -3.40802 -1.93897 0
M  V30 1303 H 120.767 -3.04335 -2.85955 0
M  V30 1304 N 121.204 0.198386 -1.56346 0
M  V30 1305 C 122.432 0.935572 -1.84539 0
M  V30 1306 C 122.847 1.76989 -0.657281 0
M  V30 1307 O 122.204 1.78626 0.374043 0
M  V30 1308 C 122.255 1.8344 -3.11499 0
M  V30 1309 O 121.976 1.03377 -4.25728 0
M  V30 1310 C 123.477 2.68355 -3.52846 0
M  V30 1311 H 120.697 0.273126 -0.612897 0
M  V30 1312 H 123.241 0.20663 -2.03453 0
M  V30 1313 H 121.396 2.51701 -2.94492 0
M  V30 1314 H 121.81 1.64599 -4.98003 0
M  V30 1315 H 123.284 3.27085 -4.44657 0
M  V30 1316 H 123.761 3.41901 -2.75681 0
M  V30 1317 H 124.367 2.05471 -3.72373 0
M  V30 1318 N 122.682 1.50554 0.465978 0
M  V30 1319 C 123.629 1.6979 1.56333 0
M  V30 1320 C 124.599 0.539239 1.57103 0
M  V30 1321 O 125.784 0.770401 1.74555 0
M  V30 1322 C 122.924 1.80273 2.94271 0
M  V30 1323 C 122.037 3.07674 3.0325 0
M  V30 1324 C 121.172 3.08922 4.32135 0
M  V30 1325 C 120.211 4.30755 4.34875 0
M  V30 1326 N 119.348 4.29714 5.55239 0
M  V30 1327 H 124.188 2.63472 1.39235 0
M  V30 1328 H 121.725 1.30602 0.676873 0
M  V30 1329 H 123.683 1.84332 3.74269 0
M  V30 1330 H 122.313 0.900258 3.09992 0
M  V30 1331 H 121.365 3.13062 2.16094 0
M  V30 1332 H 122.677 3.97642 3.01135 0
M  V30 1333 H 121.831 3.11738 5.20485 0
M  V30 1334 H 120.57 2.16792 4.36866 0
M  V30 1335 H 119.575 4.28146 3.44922 0
M  V30 1336 H 120.8 5.24117 4.31831 0
M  V30 1337 H 118.746 3.4044 5.60746 0
M  V30 1338 H 118.663 5.13456 5.54886 0
M  V30 1339 H 119.931 4.36683 6.457 0
M  V30 1340 N 124.16 -0.719506 1.40217 0
M  V30 1341 C 125.576 -1.02707 1.22161 0
M  V30 1342 C 125.776 -2.0128 0.0940557 0
M  V30 1343 O 124.832 -2.46452 -0.549318 0
M  V30 1344 C 126.145 -1.57454 2.56181 0
M  V30 1345 C 127.693 -1.69458 2.63159 0
M  V30 1346 C 128.168 -2.27611 3.97438 0
M  V30 1347 N 129.659 -2.35002 3.99159 0
M  V30 1348 C 130.394 -2.80972 4.99842 0
M  V30 1349 N 129.89 -3.26723 6.10921 0
M  V30 1350 N 131.683 -2.80321 4.87213 0
M  V30 1351 H 123.834 -0.0660492 2.12297 0
M  V30 1352 H 126.097 -0.0919077 0.943534 0
M  V30 1353 H 125.803 -0.924873 3.39321 0
M  V30 1354 H 125.677 -2.56036 2.76993 0
M  V30 1355 H 128.064 -2.33543 1.80393 0
M  V30 1356 H 128.145 -0.694867 2.46181 0
M  V30 1357 H 127.789 -1.6415 4.80643 0
M  V30 1358 H 127.719 -3.2829 4.11744 0
M  V30 1359 H 130.21 -2.02685 3.18947 0
M  V30 1360 H 130.523 -3.60355 6.8364 0
M  V30 1361 H 128.868 -3.24692 6.14492 0
M  V30 1362 H 132.059 -2.43912 3.9953 0
M  V30 1363 H 132.232 -3.15831 5.65822 0
M  V30 1364 N 125.638 -1.25649 -0.95132 0
M  V30 1365 C 126.884 -1.11766 -1.69941 0
M  V30 1366 C 127.239 0.33735 -1.89419 0
M  V30 1367 O 126.532 1.24491 -1.45645 0
M  V30 1368 C 126.726 -1.80909 -3.08231 0
M  V30 1369 C 126.555 -3.32984 -3.02245 0
M  V30 1370 C 125.325 -4.02247 -3.05819 0
M  V30 1371 C 127.523 -4.29332 -2.83157 0
M  V30 1372 N 125.505 -5.41072 -2.90024 0
M  V30 1373 C 126.876 -5.55265 -2.75828 0
M  V30 1374 C 128.931 -4.19707 -2.67863 0
M  V30 1375 C 127.634 -6.72671 -2.54767 0
M  V30 1376 C 129.66 -5.36809 -2.48173 0
M  V30 1377 C 129.022 -6.61683 -2.41567 0
M  V30 1378 H 125.121 -0.463708 -0.629682 0
M  V30 1379 H 127.705 -1.58796 -1.12659 0
M  V30 1380 H 125.876 -1.36369 -3.63673 0
M  V30 1381 H 127.608 -1.59739 -3.71841 0
M  V30 1382 H 124.363 -3.53531 -3.15139 0
M  V30 1383 H 124.787 -6.13938 -2.85323 0
M  V30 1384 H 129.429 -3.23907 -2.71743 0
M  V30 1385 H 127.147 -7.68577 -2.49629 0
M  V30 1386 H 130.733 -5.31224 -2.37259 0
M  V30 1387 H 129.613 -7.50768 -2.26531 0
M  V30 1388 N 127.117 1.15442 -1.07289 0
M  V30 1389 C 128.365 1.85845 -0.794096 0
M  V30 1390 C 128.686 1.82692 0.681809 0
M  V30 1391 O 127.956 1.26741 1.49377 0
M  V30 1392 H 126.536 0.688089 -0.290763 0
M  V30 1393 H 129.198 1.39947 -1.3565 0
M  V30 1394 H 128.294 2.91001 -1.12804 0
M  V30 1395 N 128.595 0.856903 1.32268 0
M  V30 1396 C 129.842 0.461386 1.97174 0
M  V30 1397 C 130.17 -0.983491 1.67803 0
M  V30 1398 O 129.425 -1.70541 0.959903 0
M  V30 1399 C 129.724 0.649919 3.51441 0
M  V30 1400 C 129.39 2.0656 4.00804 0
M  V30 1401 C 128.052 2.45279 4.13995 0
M  V30 1402 C 130.404 2.98947 4.26943 0
M  V30 1403 C 127.732 3.75653 4.50668 0
M  V30 1404 C 130.084 4.28822 4.65075 0
M  V30 1405 C 128.748 4.67472 4.76472 0
M  V30 1406 H 128.018 0.168833 0.72151 0
M  V30 1407 H 130.665 1.08739 1.57633 0
M  V30 1408 H 128.97 -0.0593018 3.91755 0
M  V30 1409 H 130.667 0.32391 3.9969 0
M  V30 1410 H 127.257 1.75495 3.91024 0
M  V30 1411 H 131.441 2.70265 4.16258 0
M  V30 1412 H 126.697 4.05379 4.57688 0
M  V30 1413 H 130.871 5.0047 4.84255 0
M  V30 1414 H 128.498 5.68539 5.04646 0
M  V30 1415 N 130.073 -1.45103 0.615059 0
M  V30 1416 C 131.489 -1.57137 0.279322 0
M  V30 1417 C 131.689 -1.60523 -1.21797 0
M  V30 1418 O 130.745 -1.53956 -2.00134 0
M  V30 1419 C 132.058 -2.85062 0.957083 0
M  V30 1420 C 133.606 -2.98749 0.933706 0
M  V30 1421 C 134.081 -4.29455 1.59162 0
M  V30 1422 N 135.572 -4.36231 1.55746 0
M  V30 1423 C 136.307 -5.36051 2.0356 0
M  V30 1424 N 135.803 -6.42367 2.59494 0
M  V30 1425 N 137.596 -5.27456 1.94284 0
M  V30 1426 H 129.747 -1.41148 1.58717 0
M  V30 1427 H 132.01 -0.675331 0.665306 0
M  V30 1428 H 131.716 -2.88488 2.01166 0
M  V30 1429 H 131.59 -3.7407 0.48494 0
M  V30 1430 H 133.977 -2.94886 -0.112347 0
M  V30 1431 H 134.058 -2.11132 1.44419 0
M  V30 1432 H 133.702 -4.34077 2.63704 0
M  V30 1433 H 133.632 -5.15901 1.0561 0
M  V30 1434 H 136.123 -3.60011 1.14893 0
M  V30 1435 H 136.436 -7.14793 2.93752 0
M  V30 1436 H 134.781 -6.43097 2.63537 0
M  V30 1437 H 137.972 -4.43308 1.5032 0
M  V30 1438 H 138.145 -6.05099 2.3186 0
M  V30 1439 N 131.551 -0.354651 -1.53558 0
M  V30 1440 C 132.776 0.242153 -2.05981 0
M  V30 1441 C 133.201 1.42553 -1.2272 0
M  V30 1442 O 132.559 1.79656 -0.243604 0
M  V30 1443 C 132.607 0.624367 -3.55154 0
M  V30 1444 O 131.711 1.72301 -3.74681 0
M  V30 1445 H 131.052 0.0378432 -0.662921 0
M  V30 1446 H 133.582 -0.512087 -1.98088 0
M  V30 1447 H 133.592 0.898433 -3.97985 0
M  V30 1448 H 132.267 -0.240989 -4.15201 0
M  V30 1449 H 130.844 1.44535 -3.4375 0
M  V30 1450 N 133.029 1.57378 -0.0835403 0
M  V30 1451 C 134.277 1.93547 0.581718 0
M  V30 1452 C 134.598 0.96524 1.69435 0
M  V30 1453 O 133.868 0.0153369 1.95894 0
M  V30 1454 H 132.448 0.714521 0.217874 0
M  V30 1455 H 135.11 1.94366 -0.144158 0
M  V30 1456 H 134.206 2.95665 0.999423 0
M  V30 1457 N 134.507 -0.190092 1.56449 0
M  V30 1458 C 135.753 -0.911052 1.81184 0
M  V30 1459 C 136.086 -1.82699 0.658396 0
M  V30 1460 O 135.361 -1.91491 -0.340775 0
M  V30 1461 C 135.644 -1.72297 3.16205 0
M  V30 1462 C 135.497 -0.831419 4.42049 0
M  V30 1463 C 136.816 -2.69454 3.47969 0
M  V30 1464 H 133.935 -0.32977 0.659106 0
M  V30 1465 H 136.577 -0.178169 1.89163 0
M  V30 1466 H 134.727 -2.34778 3.09534 0
M  V30 1467 H 136.399 -0.220929 4.60771 0
M  V30 1468 H 134.642 -0.138406 4.33579 0
M  V30 1469 H 135.313 -1.43461 5.33032 0
M  V30 1470 H 137.789 -2.17104 3.54972 0
M  V30 1471 H 136.665 -3.23342 4.43555 0
M  V30 1472 H 136.926 -3.48744 2.71717 0
M  V30 1473 N 135.985 -1.50799 -0.457987 0
M  V30 1474 C 137.396 -1.55152 -1.0385 0
M  V30 1475 C 137.747 -0.362719 -1.92818 0
M  V30 1476 O 136.872 0.522915 -2.09987 0
M  V30 1477 C 137.467 -2.81173 -1.89017 0
M  V30 1478 C 136.026 -2.88164 -2.42154 0
M  V30 1479 C 135.173 -2.49591 -1.20829 0
M  V30 1480 H 138.124 -1.56874 -0.240068 0
M  V30 1481 H 138.145 -2.63769 -2.74238 0
M  V30 1482 H 137.657 -3.67677 -1.24238 0
M  V30 1483 H 135.758 -2.06042 -3.10447 0
M  V30 1484 H 135.871 -3.91356 -2.76364 0
M  V30 1485 H 134.235 -2.02322 -1.54719 0
M  V30 1486 H 135.018 -3.38418 -0.576927 0
M  V30 1487 N 137.463 0.71206 -1.40597 0
M  V30 1488 C 138.874 1.29135 -1.34837 0
M  V30 1489 C 139.225 1.96186 -0.0235395 0
M  V30 1490 O 138.35 1.97768 0.878444 0
M  V30 1491 C 138.945 2.34827 -2.44217 0
M  V30 1492 C 137.504 2.88371 -2.41907 0
M  V30 1493 C 136.651 1.62202 -2.24913 0
M  V30 1494 H 139.602 0.507944 -1.50352 0
M  V30 1495 H 139.623 3.15749 -2.12327 0
M  V30 1496 H 139.135 1.85996 -3.40627 0
M  V30 1497 H 137.236 3.41422 -1.49204 0
M  V30 1498 H 137.349 3.39925 -3.37621 0
M  V30 1499 H 135.713 1.874 -1.72492 0
M  V30 1500 H 136.496 1.15391 -3.23326 0
M  V30 1501 N 138.941 1.26152 0.944643 0
M  V30 1502 C 139.888 1.07408 2.04285 0
M  V30 1503 C 140.858 -0.0198413 1.66088 0
M  V30 1504 O 142.043 0.139264 1.90291 0
M  V30 1505 C 139.183 0.70945 3.37729 0
M  V30 1506 C 138.296 1.87926 3.88983 0
M  V30 1507 C 137.431 1.45807 5.10797 0
M  V30 1508 C 136.47 2.5964 5.54305 0
M  V30 1509 N 135.607 2.18226 6.67324 0
M  V30 1510 H 140.447 2.01389 2.1965 0
M  V30 1511 H 137.984 1.00275 1.07626 0
M  V30 1512 H 139.942 0.478948 4.14442 0
M  V30 1513 H 138.572 -0.193389 3.2222 0
M  V30 1514 H 137.624 2.22279 3.08701 0
M  V30 1515 H 138.936 2.73377 4.17213 0
M  V30 1516 H 138.09 1.18781 5.94959 0
M  V30 1517 H 136.829 0.574414 4.84305 0
M  V30 1518 H 135.834 2.87399 4.68702 0
M  V30 1519 H 137.059 3.48599 5.828 0
M  V30 1520 H 135.005 1.3229 6.42523 0
M  V30 1521 H 134.922 2.97221 6.95123 0
M  V30 1522 H 136.19 1.94403 7.54869 0
M  V30 1523 N 140.419 -1.14872 1.07899 0
M  V30 1524 C 141.665 -1.86064 0.806725 0
M  V30 1525 C 141.998 -1.82434 -0.665706 0
M  V30 1526 O 141.273 -1.25138 -1.48899 0
M  V30 1527 C 141.556 -3.34929 1.32267 0
M  V30 1528 C 141.409 -3.47161 2.86006 0
M  V30 1529 C 142.728 -4.29863 0.943717 0
M  V30 1530 H 139.847 -0.675591 0.294526 0
M  V30 1531 H 142.489 -1.34925 1.33773 0
M  V30 1532 H 140.639 -3.78611 0.870974 0
M  V30 1533 H 142.311 -3.12302 3.39507 0
M  V30 1534 H 140.554 -2.88539 3.23925 0
M  V30 1535 H 141.225 -4.51777 3.17177 0
M  V30 1536 H 143.701 -3.9417 1.33302 0
M  V30 1537 H 142.577 -5.32494 1.33198 0
M  V30 1538 H 142.838 -4.41846 -0.149796 0
M  V30 1539 N 141.898 -0.863906 -1.31812 0
M  V30 1540 C 143.144 -0.472535 -1.97218 0
M  V30 1541 C 143.477 0.971394 -1.68159 0
M  V30 1542 O 142.752 1.68309 -0.974798 0
M  V30 1543 C 143.035 -0.723054 -3.52766 0
M  V30 1544 C 142.888 -2.21608 -3.91421 0
M  V30 1545 C 144.207 -0.185522 -4.39709 0
M  V30 1546 H 141.326 -0.173158 -0.71637 0
M  V30 1547 H 143.968 -1.08403 -1.56041 0
M  V30 1548 H 142.118 -0.202577 -3.87971 0
M  V30 1549 H 143.79 -2.80334 -3.66347 0
M  V30 1550 H 142.033 -2.691 -3.40246 0
M  V30 1551 H 142.704 -2.34203 -4.99853 0
M  V30 1552 H 145.18 -0.630726 -4.11292 0
M  V30 1553 H 144.056 -0.390306 -5.47511 0
M  V30 1554 H 144.317 0.912229 -4.32586 0
M  V30 1555 N 143.376 1.44774 -0.622745 0
M  V30 1556 C 144.324 2.32387 0.0994683 0
M  V30 1557 C 145.318 1.46859 0.844326 0
M  V30 1558 O 146.524 1.63254 0.758174 0
M  V30 1559 H 142.899 0.750273 0.0509291 0
M  V30 1560 H 144.87 2.91062 -0.65767 0
M  V30 1561 C 143.619 3.30723 1.07319 0
M  V30 1562 H 142.942 3.96541 0.509462 0
M  V30 1563 H 144.382 3.94725 1.54817 0
M  V30 1564 C 142.841 2.59021 2.15429 0
M  V30 1565 O 143.371 2.38286 3.23393 0
M  V30 1566 N 141.577 2.189 1.91131 0
M  V30 1567 H 141.124 2.35964 1.03337 0
M  V30 1568 H 141.082 1.71251 2.63668 0
M  V30 1569 N 144.854 0.36279 1.53368 0
M  V30 1570 C 146.084 -0.228281 2.05335 0
M  V30 1571 C 146.492 -1.43226 1.23625 0
M  V30 1572 O 145.835 -1.81717 0.269206 0
M  V30 1573 C 145.897 -0.688549 3.52845 0
M  V30 1574 C 145.561 0.398362 4.5526 0
M  V30 1575 C 146.558 1.24732 5.04716 0
M  V30 1576 C 144.243 0.557805 4.99193 0
M  V30 1577 C 146.237 2.2411 5.96702 0
M  V30 1578 C 143.924 1.55495 5.90986 0
M  V30 1579 C 144.922 2.39503 6.39631 0
M  V30 1580 O 144.61 3.37517 7.29615 0
M  V30 1581 H 144.342 -0.044395 0.674541 0
M  V30 1582 H 146.896 0.518668 1.98744 0
M  V30 1583 H 145.126 -1.48706 3.56964 0
M  V30 1584 H 146.815 -1.20231 3.87685 0
M  V30 1585 H 147.581 1.13532 4.71525 0
M  V30 1586 H 143.46 -0.0862959 4.60919 0
M  V30 1587 H 147.004 2.89718 6.34594 0
M  V30 1588 H 142.901 1.66744 6.23592 0
M  V30 1589 H 143.669 3.33213 7.47604 0
M  V30 1590 N 146.332 -1.57332 0.0918853 0
M  V30 1591 C 147.242 -2.17368 -0.882505 0
M  V30 1592 C 148.258 -1.14226 -1.31257 0
M  V30 1593 O 149.434 -1.46582 -1.38115 0
M  V30 1594 C 146.499 -2.73962 -2.12476 0
M  V30 1595 C 145.56 -3.92048 -1.7492 0
M  V30 1596 C 144.793 -4.45933 -2.93223 0
M  V30 1597 O 145.016 -3.98764 -4.07852 0
M  V30 1598 O 143.95 -5.36999 -2.71875 0
M  V30 1599 H 147.776 -3.01031 -0.40172 0
M  V30 1600 H 145.361 -1.48813 -0.132291 0
M  V30 1601 H 147.243 -3.10147 -2.85283 0
M  V30 1602 H 145.918 -1.93347 -2.59613 0
M  V30 1603 H 144.825 -3.6068 -0.993025 0
M  V30 1604 H 146.158 -4.74017 -1.32548 0
M  V30 1605 N 147.81 0.181792 -1.56548 0
M  V30 1606 C 148.773 1.20894 -1.94724 0
M  V30 1607 C 149.773 1.37738 -0.829747 0
M  V30 1608 O 150.963 1.35323 -1.09697 0
M  V30 1609 C 148.095 2.57593 -2.23291 0
M  V30 1610 H 149.288 0.882275 -2.86629 0
M  V30 1611 H 146.841 0.423838 -1.50444 0
M  V30 1612 H 147.576 2.95291 -1.34067 0
M  V30 1613 H 147.361 2.46735 -3.04736 0
M  V30 1614 H 148.851 3.31637 -2.53785 0
M  V30 1615 N 149.288 1.51039 0.449983 0
M  V30 1616 C 150.536 1.62759 1.19808 0
M  V30 1617 C 150.857 0.339981 1.92013 0
M  V30 1618 O 150.127 -0.643606 1.85026 0
M  V30 1619 H 148.707 0.599811 0.445237 0
M  V30 1620 H 151.369 1.87914 0.517138 0
M  V30 1621 H 150.465 2.44911 1.93455 0
M  V30 1622 N 150.766 -0.704594 1.40972 0
M  V30 1623 C 151.676 -1.84856 1.44448 0
M  V30 1624 C 152.692 -1.70726 0.335961 0
M  V30 1625 O 153.868 -1.92799 0.582276 0
M  V30 1626 C 150.933 -3.20758 1.31587 0
M  V30 1627 C 149.994 -3.47063 2.52677 0
M  V30 1628 C 149.227 -4.76481 2.4042 0
M  V30 1629 O 149.45 -5.52341 1.42391 0
M  V30 1630 O 148.384 -5.03367 3.30007 0
M  V30 1631 H 152.21 -1.8488 2.40942 0
M  V30 1632 H 149.795 -0.85647 1.22413 0
M  V30 1633 H 151.677 -4.01913 1.26665 0
M  V30 1634 H 150.352 -3.21438 0.382049 0
M  V30 1635 H 149.259 -2.65873 2.63177 0
M  V30 1636 H 150.592 -3.5119 3.44858 0
M  V30 1637 N 152.244 -1.26651 -0.937939 0
M  V30 1638 C 153.49 -1.13562 -1.68746 0
M  V30 1639 C 153.845 0.317241 -1.89767 0
M  V30 1640 O 153.138 1.22939 -1.46957 0
M  V30 1641 C 153.332 -1.84168 -3.06295 0
M  V30 1642 C 153.161 -3.36171 -2.98696 0
M  V30 1643 C 151.931 -4.05468 -3.01535 0
M  V30 1644 C 154.129 -4.32312 -2.78588 0
M  V30 1645 N 152.111 -5.44118 -2.84269 0
M  V30 1646 C 153.482 -5.58159 -2.69924 0
M  V30 1647 C 155.537 -4.22524 -2.63396 0
M  V30 1648 C 154.24 -6.75335 -2.47618 0
M  V30 1649 C 156.266 -5.39411 -2.42466 0
M  V30 1650 C 155.628 -6.64208 -2.34536 0
M  V30 1651 H 151.727 -0.470361 -0.624728 0
M  V30 1652 H 154.311 -1.59982 -1.10968 0
M  V30 1653 H 152.482 -1.40219 -3.62206 0
M  V30 1654 H 154.214 -1.63674 -3.70126 0
M  V30 1655 H 150.969 -3.56854 -3.11372 0
M  V30 1656 H 151.393 -6.1693 -2.78795 0
M  V30 1657 H 156.035 -3.26771 -2.68292 0
M  V30 1658 H 153.753 -7.71182 -2.41463 0
M  V30 1659 H 157.339 -5.33711 -2.31611 0
M  V30 1660 H 156.219 -7.53129 -2.18555 0
M  V30 1661 N 153.722 1.14298 -1.08507 0
M  V30 1662 C 154.685 2.17607 -0.719711 0
M  V30 1663 C 155.685 1.58907 0.245997 0
M  V30 1664 O 156.875 1.74181 0.0254081 0
M  V30 1665 C 154.007 3.40842 -0.0627695 0
M  V30 1666 H 155.2 2.51443 -1.63452 0
M  V30 1667 H 152.753 1.28963 -0.88307 0
M  V30 1668 H 153.488 3.12587 0.863716 0
M  V30 1669 H 153.273 3.84713 -0.757504 0
M  V30 1670 H 154.763 4.17221 0.177786 0
M  V30 1671 N 155.201 0.870884 1.31352 0
M  V30 1672 C 156.111 0.330783 2.32256 0
M  V30 1673 C 157.127 -0.559767 1.6475 0
M  V30 1674 O 158.303 -0.456263 1.96164 0
M  V30 1675 C 155.368 -0.458137 3.4366 0
M  V30 1676 C 154.429 0.460482 4.26823 0
M  V30 1677 C 153.662 -0.290881 5.32907 0
M  V30 1678 O 153.885 -1.51885 5.49806 0
M  V30 1679 O 152.819 0.351732 6.00871 0
M  V30 1680 H 156.645 1.16718 2.80376 0
M  V30 1681 H 154.23 0.634285 1.35267 0
M  V30 1682 H 156.112 -0.905343 4.1156 0
M  V30 1683 H 154.787 -1.27106 2.97701 0
M  V30 1684 H 153.694 0.956207 3.61673 0
M  V30 1685 H 155.027 1.23903 4.7635 0
M  V30 1686 N 156.679 -1.44442 0.630414 0
M  V30 1687 C 157.627 -2.32437 -0.0871428 0
M  V30 1688 C 158.621 -1.47304 -0.836525 0
M  V30 1689 O 159.827 -1.63653 -0.749506 0
M  V30 1690 H 156.202 -0.750533 -0.0469495 0
M  V30 1691 H 158.173 -2.90709 0.673096 0
M  V30 1692 C 156.922 -3.31288 -1.05563 0
M  V30 1693 H 156.245 -3.96805 -0.488426 0
M  V30 1694 H 157.685 -3.9554 -1.52721 0
M  V30 1695 C 156.144 -2.6016 -2.14052 0
M  V30 1696 O 156.674 -2.39997 -3.22124 0
M  V30 1697 N 154.88 -2.19911 -1.89967 0
M  V30 1698 H 154.427 -2.36509 -1.02085 0
M  V30 1699 H 154.385 -1.72646 -2.62756 0
M  V30 1700 N 158.157 -0.370918 -1.53173 0
M  V30 1701 C 159.397 0.217106 -2.03244 0
M  V30 1702 C 159.761 1.45558 -1.25207 0
M  V30 1703 O 160.962 2.11957 -1.65311 0
M  V30 1704 C 159.233 0.496664 -3.53932 0
M  V30 1705 S 160.792 1.0576 -4.25864 0
M  V30 1706 H 157.61 0.0627827 -0.708223 0
M  V30 1707 H 160.212 -0.515019 -1.88594 0
M  V30 1708 H 158.916 -0.412096 -4.08326 0
M  V30 1709 H 158.447 1.25772 -3.72753 0
M  V30 1710 H 160.462 2.34145 -4.37482 0
M  V30 1711 N 159.635 1.57281 -0.100228 0
M  V30 1712 C 160.865 1.98591 0.569681 0
M  V30 1713 C 161.273 0.978315 1.61943 0
M  V30 1714 O 160.616 -0.0396108 1.83657 0
M  V30 1715 C 160.678 3.36282 1.271 0
M  V30 1716 C 160.342 4.55488 0.371409 0
M  V30 1717 C 161.339 5.18491 -0.382504 0
M  V30 1718 C 159.024 5.01474 0.287965 0
M  V30 1719 C 161.018 6.25852 -1.20779 0
M  V30 1720 C 158.705 6.08701 -0.540965 0
M  V30 1721 C 159.703 6.70755 -1.28749 0
M  V30 1722 O 159.391 7.75914 -2.10269 0
M  V30 1723 H 159.123 0.65752 0.156982 0
M  V30 1724 H 161.677 2.0463 -0.177734 0
M  V30 1725 H 159.907 3.26941 2.0651 0
M  V30 1726 H 161.596 3.62005 1.83595 0
M  V30 1727 H 162.362 4.83891 -0.3278 0
M  V30 1728 H 158.241 4.52932 0.858689 0
M  V30 1729 H 161.785 6.74218 -1.79096 0
M  V30 1730 H 157.682 6.42732 -0.597131 0
M  V30 1731 H 158.45 7.92925 -2.03007 0
M  V30 1732 N 161.113 -0.173488 1.56642 0
M  V30 1733 C 162.061 -1.23417 1.97157 0
M  V30 1734 C 163.055 -1.45946 0.860013 0
M  V30 1735 O 164.261 -1.46551 1.04512 0
M  V30 1736 H 160.636 -0.414818 0.62724 0
M  V30 1737 H 162.607 -0.865582 2.8557 0
M  V30 1738 C 161.356 -2.5665 2.34576 0
M  V30 1739 H 160.679 -2.40137 3.19647 0
M  V30 1740 H 162.119 -3.2956 2.6677 0
M  V30 1741 C 160.578 -3.15245 1.18836 0
M  V30 1742 O 161.108 -3.98883 0.474869 0
M  V30 1743 N 159.314 -2.74303 0.959497 0
M  V30 1744 H 158.861 -2.0639 1.54146 0
M  V30 1745 H 158.819 -3.13844 0.186932 0
M  V30 1746 N 162.591 -1.51276 -0.441967 0
M  V30 1747 C 163.521 -1.752 -1.54361 0
M  V30 1748 C 164.502 -0.601682 -1.59103 0
M  V30 1749 O 165.687 -0.843913 -1.74905 0
M  V30 1750 C 162.817 -1.87282 -2.92477 0
M  V30 1751 C 161.771 -3.02687 -3.02596 0
M  V30 1752 C 161.097 -2.99947 -4.42647 0
M  V30 1753 C 162.397 -4.4273 -2.77106 0
M  V30 1754 H 164.091 -2.67442 -1.34592 0
M  V30 1755 H 161.637 -1.28694 -0.646048 0
M  V30 1756 H 163.59 -2.02602 -3.695 0
M  V30 1757 H 162.314 -0.916844 -3.13467 0
M  V30 1758 H 160.973 -2.87065 -2.28012 0
M  V30 1759 H 160.621 -2.02136 -4.60597 0
M  V30 1760 H 160.321 -3.77439 -4.50348 0
M  V30 1761 H 161.845 -3.17354 -5.2165 0
M  V30 1762 H 163.259 -4.58727 -3.43864 0
M  V30 1763 H 161.656 -5.21893 -2.96222 0
M  V30 1764 H 162.726 -4.53087 -1.72744 0
M  V30 1765 N 164.069 0.697108 -1.41344 0
M  V30 1766 C 164.979 1.84088 -1.45427 0
M  V30 1767 C 165.995 1.70545 -0.34501 0
M  V30 1768 O 167.171 1.92488 -0.592492 0
M  V30 1769 C 164.236 3.20056 -1.33286 0
M  V30 1770 C 163.297 3.45718 -2.54514 0
M  V30 1771 C 162.53 4.75199 -2.42944 0
M  V30 1772 O 162.753 5.51579 -1.45318 0
M  V30 1773 O 161.687 5.0161 -3.32672 0
M  V30 1774 H 165.513 1.836 -2.41919 0
M  V30 1775 H 163.098 0.849966 -1.22866 0
M  V30 1776 H 164.98 4.01236 -1.28794 0
M  V30 1777 H 163.655 3.2123 -0.39909 0
M  V30 1778 H 162.562 2.64474 -2.64583 0
M  V30 1779 H 163.895 3.49356 -3.46715 0
M  V30 1780 N 165.547 1.27147 0.931209 0
M  V30 1781 C 166.796 1.12664 1.67302 0
M  V30 1782 C 167.109 -0.327718 1.92835 0
M  V30 1783 O 168.315 -0.593392 2.64936 0
M  V30 1784 C 166.771 1.9683 3.01307 0
M  V30 1785 C 166.379 3.46901 2.83485 0
M  V30 1786 C 168.123 1.90985 3.79111 0
M  V30 1787 C 166.03 4.23279 4.13024 0
M  V30 1788 H 164.96 0.41803 0.627509 0
M  V30 1789 H 167.611 1.51539 1.03481 0
M  V30 1790 H 165.993 1.50797 3.66164 0
M  V30 1791 H 167.167 4.00773 2.27415 0
M  V30 1792 H 165.482 3.54088 2.19113 0
M  V30 1793 H 168.079 2.45328 4.75098 0
M  V30 1794 H 168.422 0.882718 4.06834 0
M  V30 1795 H 168.955 2.34895 3.21044 0
M  V30 1796 H 165.694 5.26503 3.90481 0
M  V30 1797 H 165.214 3.74186 4.6877 0
M  V30 1798 H 166.893 4.32265 4.81411 0
M  V30 1799 N 167.025 -1.13721 1.09112 0
M  V30 1800 C 167.972 -2.19031 0.727591 0
M  V30 1801 C 168.942 -1.63555 -0.289656 0
M  V30 1802 O 170.127 -1.90023 -0.172026 0
M  V30 1803 C 167.267 -3.4477 0.15082 0
M  V30 1804 C 166.38 -4.14365 1.22172 0
M  V30 1805 C 165.515 -5.27709 0.608042 0
M  V30 1806 C 164.554 -5.89147 1.66047 0
M  V30 1807 N 163.691 -6.93929 1.06806 0
M  V30 1808 H 168.531 -2.49475 1.62991 0
M  V30 1809 H 166.068 -1.22499 0.81439 0
M  V30 1810 H 168.026 -4.16714 -0.201358 0
M  V30 1811 H 166.656 -3.14787 -0.714783 0
M  V30 1812 H 165.708 -3.40737 1.69122 0
M  V30 1813 H 167.02 -4.56114 2.01895 0
M  V30 1814 H 166.174 -6.06355 0.204523 0
M  V30 1815 H 164.913 -4.872 -0.220769 0
M  V30 1816 H 163.918 -5.09198 2.07357 0
M  V30 1817 H 165.143 -6.31729 2.49189 0
M  V30 1818 H 163.089 -6.55483 0.260476 0
M  V30 1819 H 163.006 -7.34202 1.8023 0
M  V30 1820 H 164.274 -7.76434 0.690644 0
M  V30 1821 N 168.503 -0.877838 -1.30888 0
M  V30 1822 C 169.45 -0.337538 -2.28318 0
M  V30 1823 C 170.42 0.568346 -1.56074 0
M  V30 1824 O 171.605 0.498298 -1.84178 0
M  V30 1825 C 168.745 0.448142 -3.42178 0
M  V30 1826 C 167.858 -0.48615 -4.29256 0
M  V30 1827 C 166.993 0.314427 -5.30269 0
M  V30 1828 C 166.032 -0.615791 -6.08995 0
M  V30 1829 N 165.169 0.14902 -7.01942 0
M  V30 1830 H 170.009 -1.17356 -2.73919 0
M  V30 1831 H 167.546 -0.590094 -1.34745 0
M  V30 1832 H 169.504 0.919517 -4.06941 0
M  V30 1833 H 168.134 1.24879 -2.97666 0
M  V30 1834 H 167.186 -1.076 -3.64865 0
M  V30 1835 H 168.498 -1.19909 -4.84173 0
M  V30 1836 H 167.652 0.847969 -6.00745 0
M  V30 1837 H 166.391 1.06062 -4.76027 0
M  V30 1838 H 165.396 -1.16102 -5.37401 0
M  V30 1839 H 166.621 -1.36097 -6.65323 0
M  V30 1840 H 164.567 0.877884 -6.50099 0
M  V30 1841 H 164.484 -0.504433 -7.54315 0
M  V30 1842 H 165.752 0.663537 -7.76671 0
M  V30 1843 N 169.982 1.44106 -0.638065 0
M  V30 1844 C 171.393 1.85316 -0.226894 0
M  V30 1845 C 171.744 1.53399 1.22324 0
M  V30 1846 O 170.869 0.975463 1.93167 0
M  V30 1847 C 171.464 3.3637 -0.405013 0
M  V30 1848 C 170.023 3.76369 -0.0482902 0
M  V30 1849 C 169.17 2.67921 -0.715108 0
M  V30 1850 H 172.121 1.34474 -0.842764 0
M  V30 1851 H 172.142 3.7885 0.354 0
M  V30 1852 H 171.654 3.59569 -1.46053 0
M  V30 1853 H 169.755 3.58784 1.00522 0
M  V30 1854 H 169.868 4.76856 -0.463187 0
M  V30 1855 H 168.232 2.54259 -0.149753 0
M  V30 1856 H 169.015 2.93951 -1.77335 0
M  V30 1857 N 171.46 0.379036 1.52974 0
M  V30 1858 C 172.737 -0.263479 1.93817 0
M  V30 1859 C 173.117 -1.65244 1.31368 0
M  V30 1860 O 172.465 -2.23448 0.477856 0
M  V30 1861 C 172.675 -0.300166 3.47707 0
M  V30 1862 C 174.023 -0.534061 4.21228 0
M  V30 1863 O 175.047 -0.38081 3.54159 0
M  V30 1864 O 173.906 -0.833501 5.40106 0
M  V30 1865 H 171 -0.161149 0.811147 0
M  V30 1866 H 173.546 0.432798 1.64088 0
M  V30 1867 H 172.318 0.673138 3.85467 0
M  V30 1868 H 171.941 -1.04179 3.83709 0
M  V30 1869 N 172.938 -1.57226 0.108567 0
M  V30 1870 C 174.186 -1.94448 -0.550853 0
M  V30 1871 C 174.507 -0.992074 -1.67878 0
M  V30 1872 O 173.777 -0.0465 -1.95845 0
M  V30 1873 H 172.357 -0.717897 -0.206479 0
M  V30 1874 H 175.019 -1.94112 0.175062 0
M  V30 1875 H 174.115 -2.97218 -0.952259 0
M  V30 1876 N 174.416 0.165178 -1.56732 0
M  V30 1877 C 175.641 0.900253 -1.86843 0
M  V30 1878 C 176.066 1.74766 -0.695596 0
M  V30 1879 O 175.424 1.77786 0.35522 0
M  V30 1880 C 175.472 1.74777 -3.15413 0
M  V30 1881 O 174.576 2.85007 -2.98068 0
M  V30 1882 H 173.917 0.251832 -0.614391 0
M  V30 1883 H 176.447 0.161468 -2.03962 0
M  V30 1884 H 176.457 2.14646 -3.46974 0
M  V30 1885 H 175.132 1.12537 -4.00385 0
M  V30 1886 H 173.709 2.48676 -2.77875 0
M  V30 1887 N 175.894 1.51508 0.433938 0
M  V30 1888 C 176.804 1.75917 1.5521 0
M  V30 1889 C 177.82 0.643545 1.61662 0
M  V30 1890 O 178.996 0.926183 1.7884 0
M  V30 1891 C 176.061 1.88213 2.91164 0
M  V30 1892 C 175.122 3.12074 2.94802 0
M  V30 1893 C 174.355 3.23774 4.24271 0
M  V30 1894 O 174.578 2.4133 5.16833 0
M  V30 1895 O 173.512 4.16774 4.34262 0
M  V30 1896 H 177.338 2.70777 1.37527 0
M  V30 1897 H 174.923 1.36051 0.617293 0
M  V30 1898 H 176.805 1.98267 3.71845 0
M  V30 1899 H 175.48 0.965413 3.08968 0
M  V30 1900 H 174.387 3.07497 2.13065 0
M  V30 1901 H 175.72 4.03446 2.81943 0
M  V30 1902 N 177.372 -0.689602 1.41712 0
M  V30 1903 C 178.612 -1.46184 1.42862 0
M  V30 1904 C 178.976 -1.91962 0.0382204 0
M  V30 1905 O 180.177 -2.68694 -0.0755019 0
M  V30 1906 C 178.448 -2.6371 2.4123 0
M  V30 1907 S 180.007 -3.52768 2.6096 0
M  V30 1908 H 176.825 -0.49947 0.506015 0
M  V30 1909 H 179.427 -0.804107 1.78198 0
M  V30 1910 H 178.131 -2.28293 3.41044 0
M  V30 1911 H 177.662 -3.3437 2.07269 0
M  V30 1912 H 179.677 -4.59146 1.88148 0
M  V30 1913 N 178.85 -1.27639 -0.924453 0
M  V30 1914 C 179.78 -1.13166 -2.04244 0
M  V30 1915 C 180.761 -0.032256 -1.70069 0
M  V30 1916 O 181.946 -0.207328 -1.9309 0
M  V30 1917 C 179.076 -0.781496 -3.38393 0
M  V30 1918 C 178.03 -1.83449 -3.86692 0
M  V30 1919 C 177.356 -1.33822 -5.17683 0
M  V30 1920 C 178.656 -3.23917 -4.09726 0
M  V30 1921 H 180.35 -2.06689 -2.1661 0
M  V30 1922 H 177.896 -0.995136 -1.04082 0
M  V30 1923 H 179.849 -0.667057 -4.16087 0
M  V30 1924 H 178.573 0.189439 -3.2605 0
M  V30 1925 H 177.232 -1.93789 -3.11193 0
M  V30 1926 H 176.88 -0.35665 -5.01734 0
M  V30 1927 H 176.58 -2.04224 -5.50968 0
M  V30 1928 H 178.104 -1.23679 -5.97943 0
M  V30 1929 H 179.518 -3.16559 -4.77978 0
M  V30 1930 H 177.915 -3.92059 -4.54324 0
M  V30 1931 H 178.985 -3.68729 -3.14908 0
M  V30 1932 N 180.328 1.1314 -1.09713 0
M  V30 1933 C 181.739 1.66029 -0.853885 0
M  V30 1934 C 182.09 1.86241 0.617142 0
M  V30 1935 O 181.215 1.5834 1.47503 0
M  V30 1936 C 181.81 3.01599 -1.5435 0
M  V30 1937 C 180.369 3.51467 -1.34714 0
M  V30 1938 C 179.516 2.26648 -1.59769 0
M  V30 1939 H 182.467 0.970226 -1.25588 0
M  V30 1940 H 182.488 3.67709 -0.978267 0
M  V30 1941 H 182 2.86856 -2.6141 0
M  V30 1942 H 180.101 3.71408 -0.297838 0
M  V30 1943 H 180.214 4.314 -2.08401 0
M  V30 1944 H 178.578 2.33385 -1.01998 0
M  V30 1945 H 179.361 2.14467 -2.68065 0
M  V30 1946 N 181.806 0.884767 1.30421 0
M  V30 1947 C 182.769 0.356277 2.26414 0
M  V30 1948 C 183.769 -0.501124 1.52792 0
M  V30 1949 O 184.959 -0.30831 1.7145 0
M  V30 1950 C 182.091 -0.492316 3.37326 0
M  V30 1951 H 183.284 1.20389 2.74675 0
M  V30 1952 H 180.837 0.661607 1.41607 0
M  V30 1953 H 181.572 -1.36052 2.94381 0
M  V30 1954 H 181.357 0.121832 3.91911 0
M  V30 1955 H 182.847 -0.853871 4.08777 0
M  V30 1956 N 183.284 -1.43765 0.645699 0
M  V30 1957 C 184.247 -2.29163 -0.0409488 0
M  V30 1958 C 185.247 -1.41813 -0.757996 0
M  V30 1959 O 186.437 -1.63527 -0.600382 0
M  V30 1960 C 183.569 -3.23716 -1.06869 0
M  V30 1961 H 184.762 -2.91366 0.710345 0
M  V30 1962 H 182.315 -1.5092 0.406547 0
M  V30 1963 H 183.05 -2.66393 -1.84947 0
M  V30 1964 H 182.835 -3.88105 -0.558277 0
M  V30 1965 H 184.325 -3.87831 -1.54845 0
M  V30 1966 N 184.763 -0.387143 -1.52771 0
M  V30 1967 C 186.174 0.0873634 -1.86495 0
M  V30 1968 C 186.525 1.46336 -1.30691 0
M  V30 1969 O 185.65 2.068 -0.637409 0
M  V30 1970 C 186.245 0.165305 -3.38396 0
M  V30 1971 C 184.804 0.584101 -3.7184 0
M  V30 1972 C 183.951 -0.255279 -2.76122 0
M  V30 1973 H 186.902 -0.605104 -1.46711 0
M  V30 1974 H 186.923 0.984848 -3.67534 0
M  V30 1975 H 186.435 -0.836301 -3.78982 0
M  V30 1976 H 184.536 1.59315 -3.36823 0
M  V30 1977 H 184.649 0.343749 -4.77865 0
M  V30 1978 H 183.013 0.279126 -2.53166 0
M  V30 1979 H 183.796 -1.25482 -3.19545 0
M  V30 1980 N 186.241 1.57166 -0.116904 0
M  V30 1981 C 187.518 1.86645 0.585049 0
M  V30 1982 C 187.898 1.0177 1.84949 0
M  V30 1983 O 187.246 0.0960379 2.28298 0
M  V30 1984 C 187.456 3.37736 0.879507 0
M  V30 1985 C 188.804 4.06289 1.23348 0
M  V30 1986 O 189.828 3.42743 0.969836 0
M  V30 1987 O 188.687 5.18455 1.7282 0
M  V30 1988 H 185.781 0.772593 0.295007 0
M  V30 1989 H 188.327 1.69025 -0.151249 0
M  V30 1990 H 187.099 3.91296 -0.0166136 0
M  V30 1991 H 186.722 3.6078 1.67103 0
M  V30 1992 N 187.719 -0.156864 1.56817 0
M  V30 1993 C 188.967 -0.869404 1.82444 0
M  V30 1994 C 189.288 -1.82147 0.69623 0
M  V30 1995 O 188.558 -1.93847 -0.28287 0
M  V30 1996 H 187.138 -0.324043 0.673056 0
M  V30 1997 H 189.8 -0.153224 1.94297 0
M  V30 1998 H 188.896 -1.43761 2.77019 0
M  V30 1999 N 189.197 -1.51736 -0.425897 0
M  V30 2000 C 190.446 -1.64201 -1.17136 0
M  V30 2001 C 190.759 -0.369705 -1.92074 0
M  V30 2002 O 191.965 -0.373898 -2.68913 0
M  V30 2003 C 190.421 -2.90035 -2.13091 0
M  V30 2004 C 190.029 -4.24312 -1.43747 0
M  V30 2005 C 191.773 -3.1186 -2.87999 0
M  V30 2006 C 189.68 -5.41285 -2.38253 0
M  V30 2007 H 188.61 -0.611624 -0.440944 0
M  V30 2008 H 191.261 -1.78212 -0.437328 0
M  V30 2009 H 189.643 -2.69684 -2.89977 0
M  V30 2010 H 190.817 -4.55086 -0.723408 0
M  V30 2011 H 189.132 -4.08456 -0.809465 0
M  V30 2012 H 191.729 -3.96427 -3.58817 0
M  V30 2013 H 192.072 -2.25403 -3.49999 0
M  V30 2014 H 192.605 -3.32605 -2.18217 0
M  V30 2015 H 189.344 -6.30037 -1.80925 0
M  V30 2016 H 188.864 -5.14872 -3.0768 0
M  V30 2017 H 190.543 -5.73694 -2.99139 0
M  V30 2018 N 190.675 0.682077 -1.42076 0
M  V30 2019 C 192.091 0.994324 -1.24841 0
M  V30 2020 C 192.291 2.0096 -0.147389 0
M  V30 2021 O 191.347 2.47822 0.483782 0
M  V30 2022 C 192.66 1.50607 -2.60265 0
M  V30 2023 C 194.208 1.62421 -2.6756 0
M  V30 2024 C 194.683 2.16994 -4.03333 0
M  V30 2025 N 196.174 2.24337 -4.0525 0
M  V30 2026 C 196.909 2.67621 -5.07116 0
M  V30 2027 N 196.405 3.1041 -6.19368 0
M  V30 2028 N 198.198 2.67305 -4.94474 0
M  V30 2029 H 190.349 0.00973908 -2.12398 0
M  V30 2030 H 192.612 0.0668593 -0.945639 0
M  V30 2031 H 192.318 0.834583 -3.41654 0
M  V30 2032 H 192.192 2.48602 -2.83684 0
M  V30 2033 H 194.579 2.28678 -1.86521 0
M  V30 2034 H 194.66 0.629352 -2.47937 0
M  V30 2035 H 194.304 1.51349 -4.84826 0
M  V30 2036 H 194.234 3.17258 -4.20304 0
M  V30 2037 H 196.725 1.94158 -3.24209 0
M  V30 2038 H 197.038 3.42103 -6.92954 0
M  V30 2039 H 195.383 3.08286 -6.22884 0
M  V30 2040 H 198.574 2.33233 -4.05857 0
M  V30 2041 H 198.747 3.00718 -5.73997 0
M  V30 2042 N 192.153 1.28127 0.917671 0
M  V30 2043 C 193.401 1.14825 1.66312 0
M  V30 2044 C 193.722 -0.304379 1.9261 0
M  V30 2045 O 192.992 -1.21149 1.53947 0
M  V30 2046 H 191.572 0.421953 0.616413 0
M  V30 2047 H 194.234 1.608 1.10134 0
M  V30 2048 H 193.33 1.68489 2.62712 0
M  V30 2049 N 193.631 -1.12557 1.10312 0
M  V30 2050 C 194.878 -1.84038 0.844759 0
M  V30 2051 C 195.206 -1.84026 -0.629668 0
M  V30 2052 O 194.461 -1.28026 -1.48013 0
M  V30 2053 C 194.76 -3.31462 1.33669 0
M  V30 2054 C 194.426 -3.51647 2.82232 0
M  V30 2055 C 193.088 -3.56864 3.22802 0
M  V30 2056 C 195.44 -3.58867 3.77974 0
M  V30 2057 C 192.768 -3.66844 4.57867 0
M  V30 2058 C 195.12 -3.70375 5.1284 0
M  V30 2059 C 193.784 -3.73848 5.52986 0
M  V30 2060 H 193.054 -0.673444 0.309119 0
M  V30 2061 H 195.701 -1.32824 1.37949 0
M  V30 2062 H 194.006 -3.85091 0.721949 0
M  V30 2063 H 195.703 -3.85236 1.11329 0
M  V30 2064 H 192.293 -3.48249 2.49842 0
M  V30 2065 H 196.477 -3.54107 3.47738 0
M  V30 2066 H 191.733 -3.67804 4.88396 0
M  V30 2067 H 195.907 -3.74904 5.86873 0
M  V30 2068 H 193.534 -3.81333 6.57639 0
M  V30 2069 N 195.109 -0.891671 -1.2995 0
M  V30 2070 C 196.52 -0.563104 -1.78006 0
M  V30 2071 C 196.871 0.920978 -1.73241 0
M  V30 2072 O 195.996 1.71987 -1.31337 0
M  V30 2073 C 196.591 -1.01539 -3.23226 0
M  V30 2074 C 195.15 -0.738124 -3.69092 0
M  V30 2075 C 194.297 -1.19461 -2.50249 0
M  V30 2076 H 197.248 -1.07522 -1.16725 0
M  V30 2077 H 197.269 -0.347217 -3.78912 0
M  V30 2078 H 196.781 -2.09555 -3.26662 0
M  V30 2079 H 194.882 0.329766 -3.71138 0
M  V30 2080 H 194.995 -1.33037 -4.60259 0
M  V30 2081 H 193.359 -0.613787 -2.47194 0
M  V30 2082 H 194.142 -2.28265 -2.56417 0
M  V30 2083 N 196.587 1.43421 -0.653314 0
M  V30 2084 C 198.003 1.56341 -0.320886 0
M  V30 2085 C 198.203 1.63696 1.17499 0
M  V30 2086 O 197.259 1.59208 1.95982 0
M  V30 2087 C 198.572 2.82424 -1.03233 0
M  V30 2088 C 200.12 2.96168 -1.01259 0
M  V30 2089 C 200.595 4.25084 -1.70492 0
M  V30 2090 N 202.086 4.31948 -1.67257 0
M  V30 2091 C 202.821 5.30466 -2.17701 0
M  V30 2092 N 202.317 6.35261 -2.76434 0
M  V30 2093 N 204.11 5.2212 -2.082 0
M  V30 2094 H 196.261 1.3689 -1.62403 0
M  V30 2095 H 198.524 0.657455 -0.682977 0
M  V30 2096 H 198.23 2.83053 -2.08744 0
M  V30 2097 H 198.104 3.72653 -0.583948 0
M  V30 2098 H 200.491 2.9508 0.0341235 0
M  V30 2099 H 200.572 2.07229 -1.49966 0
M  V30 2100 H 200.216 4.26932 -2.7512 0
M  V30 2101 H 200.146 5.1292 -1.19251 0
M  V30 2102 H 202.637 3.56838 -1.24398 0
M  V30 2103 H 202.95 7.06754 -3.12601 0
M  V30 2104 H 201.295 6.35884 -2.80495 0
M  V30 2105 H 204.486 4.39166 -1.62021 0
M  V30 2106 H 204.659 5.98739 -2.47822 0
M  V30 2107 N 198.065 0.39524 1.52563 0
M  V30 2108 C 199.305 -0.184744 2.03563 0
M  V30 2109 C 199.669 -1.43548 1.27507 0
M  V30 2110 O 200.87 -2.093 1.68662 0
M  V30 2111 C 199.141 -0.440294 3.54678 0
M  V30 2112 S 200.7 -0.989712 4.27493 0
M  V30 2113 H 197.518 -0.0515075 0.709132 0
M  V30 2114 H 200.12 0.544957 1.87751 0
M  V30 2115 H 198.824 0.477005 4.07618 0
M  V30 2116 H 198.355 -1.19825 3.74707 0
M  V30 2117 H 200.37 -2.27155 4.41152 0
M  V30 2118 N 199.544 -1.57102 0.125237 0
M  V30 2119 C 200.96 -1.57915 -0.231322 0
M  V30 2120 C 201.16 -1.13833 -1.66266 0
M  V30 2121 O 200.216 -0.828581 -2.38518 0
M  V30 2122 C 201.529 -3.00699 0.00766489 0
M  V30 2123 C 203.077 -3.12947 -0.0577483 0
M  V30 2124 C 203.552 -4.57742 0.153626 0
M  V30 2125 N 205.043 -4.63092 0.0998073 0
M  V30 2126 C 205.778 -5.72905 0.238174 0
M  V30 2127 N 205.274 -6.91445 0.433057 0
M  V30 2128 N 207.067 -5.6182 0.177308 0
M  V30 2129 H 199.218 -1.84055 1.06007 0
M  V30 2130 H 201.481 -0.850905 0.417929 0
M  V30 2131 H 201.187 -3.3726 0.997431 0
M  V30 2132 H 201.061 -3.70236 -0.721452 0
M  V30 2133 H 203.448 -2.7624 -1.03804 0
M  V30 2134 H 203.529 -2.4594 0.70335 0
M  V30 2135 H 203.173 -4.95149 1.13092 0
M  V30 2136 H 203.103 -5.22848 -0.627534 0
M  V30 2137 H 205.594 -3.77871 -0.047051 0
M  V30 2138 H 205.907 -7.70985 0.529332 0
M  V30 2139 H 204.252 -6.93415 0.469109 0
M  V30 2140 H 207.443 -4.68093 0.0259748 0
M  V30 2141 H 207.616 -6.47357 0.288582 0
M  V30 2142 N 201.022 0.148545 -1.56898 0
M  V30 2143 C 202.252 0.875118 -1.8715 0
M  V30 2144 C 202.66 1.75322 -0.711262 0
M  V30 2145 O 202.003 1.80745 0.328151 0
M  V30 2146 C 202.065 1.7844 -3.12089 0
M  V30 2147 C 201.729 1.08361 -4.43967 0
M  V30 2148 C 202.726 0.438247 -5.1805 0
M  V30 2149 C 200.411 1.07358 -4.90693 0
M  V30 2150 C 202.405 -0.20779 -6.37061 0
M  V30 2151 C 200.092 0.42373 -6.09629 0
M  V30 2152 C 201.09 -0.215829 -6.82659 0
M  V30 2153 O 200.778 -0.855378 -7.99336 0
M  V30 2154 H 200.51 0.258504 -0.624621 0
M  V30 2155 H 203.064 0.14652 -2.04877 0
M  V30 2156 H 201.294 2.55389 -2.90367 0
M  V30 2157 H 202.983 2.38279 -3.286 0
M  V30 2158 H 203.749 0.437817 -4.8302 0
M  V30 2159 H 199.628 1.5608 -4.33774 0
M  V30 2160 H 203.172 -0.70758 -6.94002 0
M  V30 2161 H 199.069 0.421822 -6.4412 0
M  V30 2162 H 199.837 -0.756892 -8.14993 0
M  V30 2163 N 202.5 1.5196 0.417844 0
M  V30 2164 C 203.746 1.65836 1.16732 0
M  V30 2165 C 204.079 0.382881 1.90388 0
M  V30 2166 O 203.354 -0.618368 1.84408 0
M  V30 2167 C 203.637 2.87466 2.16876 0
M  V30 2168 C 203.49 4.25041 1.47174 0
M  V30 2169 C 204.809 3.04613 3.17646 0
M  V30 2170 H 201.928 0.603515 0.423011 0
M  V30 2171 H 204.57 1.84494 0.454105 0
M  V30 2172 H 202.72 2.71689 2.777 0
M  V30 2173 H 204.392 4.52527 0.895376 0
M  V30 2174 H 202.635 4.26843 0.773806 0
M  V30 2175 H 203.306 5.06176 2.20204 0
M  V30 2176 H 205.782 3.1923 2.66892 0
M  V30 2177 H 204.658 3.91247 3.8499 0
M  V30 2178 H 204.919 2.17541 3.84874 0
M  V30 2179 N 203.978 -0.674533 1.42435 0
M  V30 2180 C 204.928 -1.7807 1.4239 0
M  V30 2181 C 205.912 -1.58169 0.295202 0
M  V30 2182 O 207.104 -1.68643 0.537449 0
M  V30 2183 C 204.233 -3.16532 1.32901 0
M  V30 2184 C 203.319 -3.42055 2.50717 0
M  V30 2185 N 203.71 -3.38162 3.76139 0
M  V30 2186 C 202.008 -3.72692 2.44983 0
M  V30 2187 C 202.709 -3.63177 4.54398 0
M  V30 2188 N 201.685 -3.83954 3.84812 0
M  V30 2189 H 205.487 -1.73454 2.37257 0
M  V30 2190 H 203.001 -0.875381 1.36788 0
M  V30 2191 H 204.998 -3.958 1.30951 0
M  V30 2192 H 203.658 -3.22345 0.390363 0
M  V30 2193 H 204.669 -3.18057 4.0873 0
M  V30 2194 H 201.346 -3.85749 1.59699 0
M  V30 2195 H 202.736 -3.66125 5.63384 0
M  V30 2196 N 205.456 -1.28612 -0.910864 0
M  V30 2197 C 206.403 -1.12786 -2.01365 0
M  V30 2198 C 207.373 -0.024201 -1.66082 0
M  V30 2199 O 208.558 -0.189667 -1.89855 0
M  V30 2200 C 205.698 -0.798743 -3.35729 0
M  V30 2201 C 204.811 -1.98173 -3.83864 0
M  V30 2202 C 203.946 -1.59298 -5.06752 0
M  V30 2203 C 202.985 -2.74245 -5.47226 0
M  V30 2204 N 202.122 -2.35842 -6.61304 0
M  V30 2205 H 206.962 -2.07142 -2.14234 0
M  V30 2206 H 204.499 -1.03093 -1.0493 0
M  V30 2207 H 206.457 -0.588662 -4.13026 0
M  V30 2208 H 205.087 0.10789 -3.2262 0
M  V30 2209 H 204.139 -2.30386 -3.02699 0
M  V30 2210 H 205.451 -2.84343 -4.09818 0
M  V30 2211 H 204.605 -1.34513 -5.916 0
M  V30 2212 H 203.344 -0.702618 -4.82612 0
M  V30 2213 H 202.349 -2.99725 -4.60918 0
M  V30 2214 H 203.574 -3.63928 -5.73353 0
M  V30 2215 H 201.52 -1.49279 -6.38789 0
M  V30 2216 H 201.437 -3.15546 -6.86998 0
M  V30 2217 H 202.705 -2.14348 -7.4945 0
M  V30 2218 N 206.934 1.1197 -1.10907 0
M  V30 2219 C 208.18 1.8386 -0.855773 0
M  V30 2220 C 208.513 1.84134 0.617103 0
M  V30 2221 O 207.788 1.29041 1.45529 0
M  V30 2222 C 208.071 3.31305 -1.411 0
M  V30 2223 C 207.924 3.39456 -2.9511 0
M  V30 2224 C 209.243 4.2721 -1.05736 0
M  V30 2225 H 206.362 0.667545 -0.312334 0
M  V30 2226 H 209.004 1.31331 -1.37303 0
M  V30 2227 H 207.154 3.76169 -0.97105 0
M  V30 2228 H 208.826 3.03191 -3.47668 0
M  V30 2229 H 207.069 2.79849 -3.31462 0
M  V30 2230 H 207.74 4.43209 -3.29044 0
M  V30 2231 H 210.216 3.90497 -1.43706 0
M  V30 2232 H 209.092 5.28775 -1.47269 0
M  V30 2233 H 209.353 4.42088 0.0325958 0
M  V30 2234 N 208.412 0.89855 1.29475 0
M  V30 2235 C 209.637 0.538561 2.00285 0
M  V30 2236 C 210.062 -0.869135 1.66816 0
M  V30 2237 O 209.42 -1.57831 0.892145 0
M  V30 2238 C 209.468 0.736475 3.52999 0
M  V30 2239 O 208.572 -0.211537 4.11857 0
M  V30 2240 H 207.913 0.210563 0.62973 0
M  V30 2241 H 210.443 1.20982 1.64998 0
M  V30 2242 H 210.453 0.640685 4.02938 0
M  V30 2243 H 209.128 1.76276 3.76696 0
M  V30 2244 H 207.705 -0.0682991 3.72837 0
M  V30 2245 N 209.89 -1.43072 0.660911 0
M  V30 2246 C 211.138 -2.01323 0.177094 0
M  V30 2247 C 211.459 -1.5245 -1.2159 0
M  V30 2248 O 210.729 -0.740322 -1.81373 0
M  V30 2249 H 209.309 -0.744382 0.0624804 0
M  V30 2250 H 211.971 -1.75179 0.854305 0
M  V30 2251 H 211.067 -3.11649 0.167641 0
M  V30 2252 N 211.368 -0.403325 -1.52352 0
M  V30 2253 C 212.596 0.174012 -2.06167 0
M  V30 2254 C 213.011 1.39347 -1.27388 0
M  V30 2255 O 212.368 1.79597 -0.324201 0
M  V30 2256 C 212.419 0.530223 -3.5759 0
M  V30 2257 O 212.14 -0.640806 -4.33388 0
M  V30 2258 C 213.641 1.16192 -4.27802 0
M  V30 2259 H 210.861 0.0229464 -0.670608 0
M  V30 2260 H 213.405 -0.572604 -1.9632 0
M  V30 2261 H 211.56 1.22673 -3.67464 0
M  V30 2262 H 211.974 -0.344851 -5.23365 0
M  V30 2263 H 213.448 1.36141 -5.34948 0
M  V30 2264 H 213.925 2.13335 -3.83907 0
M  V30 2265 H 214.531 0.505775 -4.22282 0
M  V30 2266 N 212.846 1.57033 -0.133567 0
M  V30 2267 C 214.094 1.953 0.519848 0
M  V30 2268 C 214.415 1.01866 1.66278 0
M  V30 2269 O 213.685 0.0776513 1.95746 0
M  V30 2270 H 212.265 0.721091 0.195032 0
M  V30 2271 H 214.927 1.93809 -0.205921 0
M  V30 2272 H 214.023 2.98695 0.904854 0
M  V30 2273 N 214.325 -0.140222 1.56975 0
M  V30 2274 C 215.736 -0.699596 1.73097 0
M  V30 2275 C 216.087 -1.8134 0.749022 0
M  V30 2276 O 215.212 -2.16241 -0.0828503 0
M  V30 2277 C 215.807 -1.27582 3.1386 0
M  V30 2278 C 214.366 -1.78169 3.31561 0
M  V30 2279 C 213.513 -0.672855 2.69013 0
M  V30 2280 H 216.464 0.0855115 1.58469 0
M  V30 2281 H 216.485 -2.14561 3.14235 0
M  V30 2282 H 215.997 -0.464955 3.85305 0
M  V30 2283 H 214.098 -2.61801 2.65124 0
M  V30 2284 H 214.211 -1.90574 4.39566 0
M  V30 2285 H 212.575 -1.10118 2.29665 0
M  V30 2286 H 213.358 0.126679 3.43066 0
M  V30 2287 N 215.803 -1.52179 -0.40978 0
M  V30 2288 C 217.043 -1.67882 -1.16597 0
M  V30 2289 C 217.407 -0.399795 -1.87791 0
M  V30 2290 O 218.608 -0.43292 -2.65291 0
M  V30 2291 C 216.879 -2.86662 -2.13448 0
M  V30 2292 S 218.438 -3.22843 -2.97183 0
M  V30 2293 H 215.256 -0.59118 -0.395002 0
M  V30 2294 H 217.858 -1.9017 -0.453373 0
M  V30 2295 H 216.562 -3.77998 -1.59831 0
M  V30 2296 H 216.093 -2.66645 -2.89247 0
M  V30 2297 H 218.108 -2.71415 -4.15389 0
M  V30 2298 N 217.281 0.66697 -1.42791 0
M  V30 2299 C 218.244 1.76211 -1.46568 0
M  V30 2300 C 219.244 1.56896 -0.352196 0
M  V30 2301 O 220.434 1.63044 -0.613364 0
M  V30 2302 C 217.566 3.14935 -1.30494 0
M  V30 2303 H 218.759 1.74247 -2.44086 0
M  V30 2304 H 216.312 0.877342 -1.29354 0
M  V30 2305 H 217.047 3.2252 -0.339301 0
M  V30 2306 H 216.832 3.30359 -2.11199 0
M  V30 2307 H 218.322 3.94821 -1.36038 0
M  V30 2308 N 218.759 1.29093 0.90403 0
M  V30 2309 C 220.007 1.16583 1.65085 0
M  V30 2310 C 220.328 -0.283933 1.92922 0
M  V30 2311 O 219.598 -1.19509 1.55224 0
M  V30 2312 H 218.178 0.428467 0.611903 0
M  V30 2313 H 220.84 1.61959 1.08422 0
M  V30 2314 H 219.936 1.71266 2.6091 0
M  V30 2315 N 220.237 -1.11381 1.11499 0
M  V30 2316 C 221.514 -1.7955 0.775965 0
M  V30 2317 C 221.894 -1.97859 -0.73588 0
M  V30 2318 O 221.242 -1.56376 -1.66609 0
M  V30 2319 C 221.452 -3.13196 1.53977 0
M  V30 2320 C 222.8 -3.88227 1.71944 0
M  V30 2321 O 223.824 -3.22887 1.50407 0
M  V30 2322 O 222.683 -5.05477 2.07738 0
M  V30 2323 H 219.777 -0.777728 0.28119 0
M  V30 2324 H 222.323 -1.18118 1.21845 0
M  V30 2325 H 221.095 -2.95229 2.56818 0
M  V30 2326 H 220.718 -3.82342 1.09088 0
M  V30 2327 N 221.715 -0.905404 -1.28997 0
M  V30 2328 C 222.962 -0.534248 -1.95325 0
M  V30 2329 C 223.29 0.920535 -1.71337 0
M  V30 2330 O 222.545 1.66861 -1.02254 0
M  V30 2331 C 222.844 -0.779906 -3.48787 0
M  V30 2332 C 222.51 -2.21293 -3.92861 0
M  V30 2333 C 221.172 -2.60475 -4.04606 0
M  V30 2334 C 223.524 -3.14587 -4.15553 0
M  V30 2335 C 220.852 -3.9212 -4.36416 0
M  V30 2336 C 223.204 -4.45787 -4.48839 0
M  V30 2337 C 221.868 -4.84834 -4.58794 0
M  V30 2338 H 221.138 -0.195495 -0.714747 0
M  V30 2339 H 223.785 -1.14514 -1.53488 0
M  V30 2340 H 222.09 -0.0861365 -3.91705 0
M  V30 2341 H 223.787 -0.472029 -3.98212 0
M  V30 2342 H 220.377 -1.89887 -3.84241 0
M  V30 2343 H 224.561 -2.85528 -4.0594 0
M  V30 2344 H 219.817 -4.22086 -4.42327 0
M  V30 2345 H 223.991 -5.18098 -4.65346 0
M  V30 2346 H 221.618 -5.86877 -4.83197 0
M  V30 2347 N 223.193 1.4272 -0.668489 0
M  V30 2348 C 224.156 2.292 0.00448567 0
M  V30 2349 C 225.156 1.43001 0.735339 0
M  V30 2350 O 226.346 1.64461 0.57429 0
M  V30 2351 C 223.478 3.25375 1.01705 0
M  V30 2352 H 224.671 2.90199 -0.756608 0
M  V30 2353 H 222.224 1.50254 -0.430506 0
M  V30 2354 H 222.959 2.69301 1.80686 0
M  V30 2355 H 222.744 3.88944 0.496463 0
M  V30 2356 H 224.234 3.90245 1.48655 0
M  V30 2357 N 224.671 0.411399 1.52136 0
M  V30 2358 C 225.918 -0.163645 2.01838 0
M  V30 2359 C 226.246 -1.4495 1.29691 0
M  V30 2360 O 225.501 -1.91725 0.392431 0
M  V30 2361 C 225.8 -0.455872 3.54481 0
M  V30 2362 C 225.466 0.741055 4.44769 0
M  V30 2363 C 224.128 1.06936 4.69167 0
M  V30 2364 C 226.48 1.54075 4.97906 0
M  V30 2365 C 223.808 2.19851 5.43951 0
M  V30 2366 C 226.16 2.66067 5.73926 0
M  V30 2367 C 224.824 2.99381 5.96596 0
M  V30 2368 H 224.094 -0.0598821 0.738576 0
M  V30 2369 H 226.741 0.553283 1.83333 0
M  V30 2370 H 225.046 -1.2544 3.71177 0
M  V30 2371 H 226.743 -0.913802 3.90449 0
M  V30 2372 H 223.333 0.475192 4.25958 0
M  V30 2373 H 227.517 1.30033 4.78963 0
M  V30 2374 H 222.773 2.46006 5.59724 0
M  V30 2375 H 226.947 3.28419 6.14096 0
M  V30 2376 H 224.574 3.86992 6.54325 0
M  V30 2377 N 226.149 -1.5696 0.141893 0
M  V30 2378 C 227.099 -2.13074 -0.811383 0
M  V30 2379 C 228.083 -1.05726 -1.21288 0
M  V30 2380 O 229.275 -1.31914 -1.18015 0
M  V30 2381 C 226.404 -2.75186 -2.0525 0
M  V30 2382 C 225.49 -3.8965 -1.67432 0
M  V30 2383 N 225.881 -4.95733 -1.0041 0
M  V30 2384 C 224.179 -4.00262 -1.96739 0
M  V30 2385 C 224.88 -5.75858 -0.822345 0
M  V30 2386 N 223.856 -5.26452 -1.3546 0
M  V30 2387 H 227.658 -2.92465 -0.290031 0
M  V30 2388 H 225.172 -1.6229 -0.0598218 0
M  V30 2389 H 227.169 -3.13745 -2.74535 0
M  V30 2390 H 225.829 -1.97266 -2.57907 0
M  V30 2391 H 226.84 -5.13607 -0.665441 0
M  V30 2392 H 223.517 -3.33412 -2.51282 0
M  V30 2393 H 224.907 -6.71254 -0.294496 0
M  V30 2394 N 227.627 0.131896 -1.57047 0
M  V30 2395 C 228.574 1.16236 -1.99393 0
M  V30 2396 C 229.544 1.41863 -0.863943 0
M  V30 2397 O 230.729 1.53946 -1.12718 0
M  V30 2398 C 227.869 2.48708 -2.39245 0
M  V30 2399 C 226.982 2.30127 -3.65603 0
M  V30 2400 C 226.117 3.55738 -3.94492 0
M  V30 2401 C 225.156 3.32259 -5.14073 0
M  V30 2402 N 224.293 4.50039 -5.38896 0
M  V30 2403 H 229.133 0.794251 -2.87221 0
M  V30 2404 H 226.67 0.380707 -1.42088 0
M  V30 2405 H 228.628 3.25969 -2.60384 0
M  V30 2406 H 227.258 2.83437 -1.54478 0
M  V30 2407 H 226.31 1.43845 -3.52154 0
M  V30 2408 H 227.622 2.08746 -4.5302 0
M  V30 2409 H 226.776 4.41423 -4.1621 0
M  V30 2410 H 225.515 3.80138 -3.05526 0
M  V30 2411 H 224.52 2.44963 -4.92212 0
M  V30 2412 H 225.745 3.09242 -6.04604 0
M  V30 2413 H 223.691 4.74584 -4.52886 0
M  V30 2414 H 223.608 4.31716 -6.2061 0
M  V30 2415 H 224.876 5.36895 -5.65123 0
M  V30 2416 N 229.106 1.52395 0.401703 0
M  V30 2417 C 230.016 1.7917 1.51444 0
M  V30 2418 C 231.032 0.677691 1.6026 0
M  V30 2419 O 232.208 0.963909 1.76835 0
M  V30 2420 C 229.273 1.94347 2.87107 0
M  V30 2421 C 228.334 3.18257 2.88116 0
M  V30 2422 C 227.567 3.32701 4.17308 0
M  V30 2423 O 227.79 2.52238 5.11598 0
M  V30 2424 O 226.724 4.25891 4.25324 0
M  V30 2425 H 230.55 2.73633 1.31752 0
M  V30 2426 H 228.135 1.3733 0.588296 0
M  V30 2427 H 230.017 2.06109 3.67555 0
M  V30 2428 H 228.692 1.03073 3.06851 0
M  V30 2429 H 227.599 3.11947 2.06494 0
M  V30 2430 H 228.932 4.09336 2.73322 0
M  V30 2431 N 230.584 -0.659388 1.43143 0
M  V30 2432 C 231.832 -1.41654 1.44147 0
M  V30 2433 C 232.153 -1.94893 0.0645739 0
M  V30 2434 O 231.423 -1.74044 -0.899198 0
M  V30 2435 H 230.003 -0.525708 0.530697 0
M  V30 2436 H 232.665 -0.778097 1.78694 0
M  V30 2437 H 231.761 -2.26195 2.1504 0
M  V30 2438 N 232.062 -1.29571 -0.897171 0
M  V30 2439 C 233.025 -1.14913 -1.98312 0
M  V30 2440 C 234.025 -0.0838629 -1.60581 0
M  V30 2441 O 235.215 -0.331006 -1.71026 0
M  V30 2442 C 232.347 -0.757835 -3.3237 0
M  V30 2443 H 233.54 -2.11377 -2.12743 0
M  V30 2444 H 231.093 -1.12793 -1.08201 0
M  V30 2445 H 231.828 0.206837 -3.2364 0
M  V30 2446 H 231.613 -1.52755 -3.61121 0
M  V30 2447 H 233.103 -0.678408 -4.12053 0
M  V30 2448 N 233.54 1.10788 -1.12088 0
M  V30 2449 C 234.787 1.82671 -0.873931 0
M  V30 2450 C 235.115 1.85004 0.600311 0
M  V30 2451 O 234.37 1.30365 1.45957 0
M  V30 2452 C 234.669 3.29294 -1.38926 0
M  V30 2453 C 234.335 3.47113 -2.87791 0
M  V30 2454 C 232.997 3.51684 -3.28439 0
M  V30 2455 C 235.349 3.52808 -3.83635 0
M  V30 2456 C 232.677 3.59513 -4.63646 0
M  V30 2457 C 235.029 3.62169 -5.18668 0
M  V30 2458 C 233.693 3.65003 -5.58864 0
M  V30 2459 H 232.963 0.668441 -0.319794 0
M  V30 2460 H 235.61 1.30613 -1.40045 0
M  V30 2461 H 233.915 3.83894 -0.783122 0
M  V30 2462 H 235.612 3.83416 -1.17443 0
M  V30 2463 H 232.202 3.4423 -2.5535 0
M  V30 2464 H 236.386 3.4853 -3.53328 0
M  V30 2465 H 231.642 3.59987 -4.94185 0
M  V30 2466 H 235.816 3.6552 -5.92763 0
M  V30 2467 H 233.443 3.70822 -6.63623 0
M  V30 2468 N 235.018 0.912232 1.28515 0
M  V30 2469 C 236.265 0.544599 1.95039 0
M  V30 2470 C 236.593 -0.911435 1.71823 0
M  V30 2471 O 235.848 -1.66317 1.03137 0
M  V30 2472 C 236.147 0.798392 3.48368 0
M  V30 2473 C 235.813 2.23374 3.91682 0
M  V30 2474 C 234.475 2.62617 4.03219 0
M  V30 2475 C 236.827 3.16786 4.13879 0
M  V30 2476 C 234.155 3.94429 4.3433 0
M  V30 2477 C 236.507 4.48161 4.46469 0
M  V30 2478 C 235.171 4.8726 4.56217 0
M  V30 2479 H 234.441 0.199283 0.7137 0
M  V30 2480 H 237.088 1.15327 1.52879 0
M  V30 2481 H 235.393 0.106908 3.91654 0
M  V30 2482 H 237.09 0.493141 3.97956 0
M  V30 2483 H 233.68 1.91922 3.83228 0
M  V30 2484 H 237.864 2.87677 4.0442 0
M  V30 2485 H 233.12 4.24426 4.40082 0
M  V30 2486 H 237.294 5.20559 4.62592 0
M  V30 2487 H 234.921 5.89431 4.80078 0
M  V30 2488 N 236.496 -1.42363 0.676048 0
M  V30 2489 C 237.426 -2.33497 0.0124832 0
M  V30 2490 C 238.407 -1.50748 -0.787981 0
M  V30 2491 O 239.592 -1.79346 -0.744884 0
M  V30 2492 C 236.722 -3.34377 -0.938582 0
M  V30 2493 C 235.676 -4.27289 -0.246622 0
M  V30 2494 C 235.002 -5.18386 -1.31071 0
M  V30 2495 C 236.302 -5.14916 0.875125 0
M  V30 2496 H 237.996 -2.89233 0.773593 0
M  V30 2497 H 235.542 -1.39073 0.37346 0
M  V30 2498 H 237.495 -3.97044 -1.41188 0
M  V30 2499 H 236.219 -2.76947 -1.73113 0
M  V30 2500 H 234.878 -3.66018 0.206456 0
M  V30 2501 H 234.526 -4.57282 -2.09528 0
M  V30 2502 H 234.226 -5.81378 -0.852839 0
M  V30 2503 H 235.75 -5.83929 -1.78492 0
M  V30 2504 H 237.164 -5.71262 0.482983 0
M  V30 2505 H 235.561 -5.86747 1.25887 0
M  V30 2506 H 236.631 -4.53242 1.72335 0
M  V30 2507 N 237.974 -0.419461 -1.51915 0
M  V30 2508 C 239.204 0.151915 -2.06041 0
M  V30 2509 C 239.612 1.38539 -1.28855 0
M  V30 2510 O 238.955 1.80592 -0.336463 0
M  V30 2511 C 239.017 0.557119 -3.55157 0
M  V30 2512 C 238.681 -0.567054 -4.53468 0
M  V30 2513 C 239.678 -1.43379 -4.99738 0
M  V30 2514 C 237.363 -0.742693 -4.96779 0
M  V30 2515 C 239.357 -2.46102 -5.87973 0
M  V30 2516 C 237.044 -1.77322 -5.84808 0
M  V30 2517 C 238.042 -2.63078 -6.30301 0
M  V30 2518 O 237.73 -3.64364 -7.16585 0
M  V30 2519 H 237.462 0.0193293 -0.675724 0
M  V30 2520 H 240.016 -0.592073 -1.96682 0
M  V30 2521 H 238.246 1.35355 -3.62238 0
M  V30 2522 H 239.935 1.05759 -3.9188 0
M  V30 2523 H 240.701 -1.30954 -4.66986 0
M  V30 2524 H 236.58 -0.0848307 -4.60922 0
M  V30 2525 H 240.124 -3.13071 -6.23404 0
M  V30 2526 H 236.021 -1.89773 -6.16974 0
M  V30 2527 H 236.789 -3.60731 -7.34721 0
M  V30 2528 N 239.452 1.56882 -0.150215 0
M  V30 2529 C 240.729 1.87844 0.545327 0
M  V30 2530 C 241.109 1.0567 1.82749 0
M  V30 2531 O 240.457 0.144442 2.28043 0
M  V30 2532 C 240.667 3.39526 0.80767 0
M  V30 2533 C 242.015 4.08814 1.14703 0
M  V30 2534 O 243.039 3.44723 0.896917 0
M  V30 2535 O 241.898 5.22004 1.61784 0
M  V30 2536 H 238.992 0.778677 0.278553 0
M  V30 2537 H 241.538 1.68666 -0.187068 0
M  V30 2538 H 240.31 3.91173 -0.0996096 0
M  V30 2539 H 239.933 3.64243 1.59413 0
M  V30 2540 N 240.93 -0.123565 1.57115 0
M  V30 2541 C 242.346 -0.476961 1.52306 0
M  V30 2542 C 242.546 -1.82109 0.86248 0
M  V30 2543 O 241.602 -2.48586 0.442884 0
M  V30 2544 C 242.915 -0.465661 2.97073 0
M  V30 2545 C 244.463 -0.549534 3.08138 0
M  V30 2546 C 244.938 -0.568669 4.54456 0
M  V30 2547 N 246.429 -0.630237 4.58892 0
M  V30 2548 C 247.164 -0.666415 5.69514 0
M  V30 2549 N 246.66 -0.660514 6.89644 0
M  V30 2550 N 248.453 -0.709077 5.5761 0
M  V30 2551 H 240.604 0.757198 1.98445 0
M  V30 2552 H 242.867 0.278808 0.906074 0
M  V30 2553 H 242.573 0.454232 3.48754 0
M  V30 2554 H 242.447 -1.29513 3.54269 0
M  V30 2555 H 244.834 -1.45985 2.56461 0
M  V30 2556 H 244.915 0.307532 2.53945 0
M  V30 2557 H 244.559 0.337581 5.06777 0
M  V30 2558 H 244.489 -1.44256 5.06456 0
M  V30 2559 H 246.98 -0.641146 3.72421 0
M  V30 2560 H 247.293 -0.690616 7.69708 0
M  V30 2561 H 245.638 -0.628012 6.92157 0
M  V30 2562 H 248.829 -0.711019 4.62668 0
M  V30 2563 H 249.002 -0.733804 6.43832 0
M  V30 2564 N 242.408 -1.52605 -0.393616 0
M  V30 2565 C 243.338 -1.80022 -1.48709 0
M  V30 2566 C 244.319 -0.651995 -1.57108 0
M  V30 2567 O 245.504 -0.89913 -1.72132 0
M  V30 2568 C 242.634 -1.96492 -2.86371 0
M  V30 2569 C 241.588 -3.12161 -2.92813 0
M  V30 2570 C 240.914 -3.13877 -4.3288 0
M  V30 2571 C 242.214 -4.51322 -2.6288 0
M  V30 2572 H 243.908 -2.71589 -1.26015 0
M  V30 2573 H 241.454 -1.30684 -0.604778 0
M  V30 2574 H 243.407 -2.14255 -3.62867 0
M  V30 2575 H 242.131 -1.01611 -3.10391 0
M  V30 2576 H 240.79 -2.94173 -2.18764 0
M  V30 2577 H 240.438 -2.16687 -4.53933 0
M  V30 2578 H 240.138 -3.91576 -4.38112 0
M  V30 2579 H 241.662 -3.33789 -5.1129 0
M  V30 2580 H 243.076 -4.69435 -3.29096 0
M  V30 2581 H 241.473 -5.31053 -2.79468 0
M  V30 2582 H 242.543 -4.58353 -1.58242 0
M  V30 2583 N 243.887 0.651787 -1.4349 0
M  V30 2584 C 244.85 1.74647 -1.48429 0
M  V30 2585 C 245.85 1.56513 -0.368817 0
M  V30 2586 O 247.04 1.62385 -0.630623 0
M  V30 2587 C 244.172 3.13533 -1.33827 0
M  V30 2588 H 245.365 1.71649 -2.4592 0
M  V30 2589 H 242.918 0.863573 -1.30277 0
M  V30 2590 H 243.653 3.22142 -0.37349 0
M  V30 2591 H 243.438 3.28101 -2.14691 0
M  V30 2592 H 244.928 3.93356 -1.40218 0
M  V30 2593 N 245.365 1.30045 0.890287 0
M  V30 2594 C 246.59 1.21598 1.68014 0
M  V30 2595 C 247.015 -0.218678 1.86825 0
M  V30 2596 O 246.373 -1.15756 1.39536 0
M  V30 2597 C 246.421 1.94434 3.03691 0
M  V30 2598 O 245.525 1.2678 3.92429 0
M  V30 2599 H 244.866 0.420856 0.513592 0
M  V30 2600 H 247.396 1.71775 1.11151 0
M  V30 2601 H 247.406 2.03251 3.5377 0
M  V30 2602 H 246.081 2.98777 2.89318 0
M  V30 2603 H 244.658 1.26282 3.50866 0
M  V30 2604 N 246.843 -1.10192 1.12674 0
M  V30 2605 C 248.071 -1.85983 0.906527 0
M  V30 2606 C 248.486 -1.80783 -0.544333 0
M  V30 2607 O 247.843 -1.19834 -1.37645 0
M  V30 2608 C 247.894 -3.34281 1.37618 0
M  V30 2609 O 247.615 -3.39401 2.77017 0
M  V30 2610 C 249.116 -4.26938 1.19325 0
M  V30 2611 H 246.336 -0.587716 0.323775 0
M  V30 2612 H 248.88 -1.39284 1.49734 0
M  V30 2613 H 247.035 -3.78436 0.828539 0
M  V30 2614 H 247.449 -4.31838 2.97684 0
M  V30 2615 H 248.923 -5.29181 1.57071 0
M  V30 2616 H 249.4 -4.38995 0.134097 0
M  V30 2617 H 250.006 -3.8859 1.72852 0
M  V30 2618 N 248.321 -0.919034 -1.28029 0
M  V30 2619 C 249.567 -0.555757 -1.95036 0
M  V30 2620 C 249.9 0.899198 -1.72128 0
M  V30 2621 O 249.175 1.64023 -1.04531 0
M  V30 2622 C 249.458 -0.872024 -3.49382 0
M  V30 2623 C 249.311 -2.3801 -3.81669 0
M  V30 2624 C 250.63 -0.37185 -4.38526 0
M  V30 2625 H 247.749 -0.203386 -0.708381 0
M  V30 2626 H 250.391 -1.14924 -1.51303 0
M  V30 2627 H 248.541 -0.366946 -3.86763 0
M  V30 2628 H 250.213 -2.9562 -3.54128 0
M  V30 2629 H 248.456 -2.83289 -3.28526 0
M  V30 2630 H 249.127 -2.55192 -4.8947 0
M  V30 2631 H 251.603 -0.804602 -4.08247 0
M  V30 2632 H 250.479 -0.622173 -5.45362 0
M  V30 2633 H 250.74 0.727934 -4.36066 0
M  V30 2634 N 249.799 1.42003 -0.683588 0
M  V30 2635 C 251.048 2.00638 -0.206681 0
M  V30 2636 C 251.361 1.5472 1.19671 0
M  V30 2637 O 252.567 2.05833 1.77045 0
M  V30 2638 C 251.023 3.58487 -0.318632 0
M  V30 2639 C 250.631 4.1339 -1.72663 0
M  V30 2640 C 252.375 4.24384 0.0991141 0
M  V30 2641 C 250.282 5.63633 -1.79087 0
M  V30 2642 H 249.212 0.750408 -0.0735107 0
M  V30 2643 H 251.863 1.62624 -0.850048 0
M  V30 2644 H 250.245 3.94047 0.392781 0
M  V30 2645 H 251.419 3.89273 -2.46583 0
M  V30 2646 H 249.734 3.59976 -2.09299 0
M  V30 2647 H 252.331 5.34652 0.0713833 0
M  V30 2648 H 252.674 4.00505 1.13586 0
M  V30 2649 H 253.207 3.93816 -0.561599 0
M  V30 2650 H 249.946 5.92323 -2.80774 0
M  V30 2651 H 249.466 5.89714 -1.09535 0
M  V30 2652 H 251.145 6.28201 -1.5483 0
M  V30 2653 N 251.277 0.427512 1.51691 0
M  V30 2654 C 252.507 -0.140986 2.06118 0
M  V30 2655 C 252.915 -1.37854 1.29588 0
M  V30 2656 O 252.258 -1.80411 0.346036 0
M  V30 2657 C 252.32 -0.538276 3.55447 0
M  V30 2658 C 251.984 0.591095 4.53161 0
M  V30 2659 C 252.981 1.46027 4.98971 0
M  V30 2660 C 250.666 0.769028 4.96378 0
M  V30 2661 C 252.66 2.49216 5.8666 0
M  V30 2662 C 250.347 1.80421 5.83859 0
M  V30 2663 C 251.345 2.66417 6.28897 0
M  V30 2664 O 251.033 3.68159 7.14643 0
M  V30 2665 H 250.765 -0.0157455 0.675817 0
M  V30 2666 H 253.319 0.602495 1.96365 0
M  V30 2667 H 251.549 -1.33432 3.6295 0
M  V30 2668 H 253.238 -1.0368 3.92435 0
M  V30 2669 H 254.004 1.33429 4.66285 0
M  V30 2670 H 249.883 0.109273 4.6087 0
M  V30 2671 H 253.427 3.16372 6.21735 0
M  V30 2672 H 249.324 1.93042 6.15959 0
M  V30 2673 H 250.092 3.64622 7.32798 0
M  V30 2674 N 252.755 -1.56801 0.158532 0
M  V30 2675 C 254.171 -1.5837 -0.197774 0
M  V30 2676 C 254.371 -1.17334 -1.63814 0
M  V30 2677 O 253.427 -0.878988 -2.36707 0
M  V30 2678 C 254.74 -3.00615 0.0714459 0
M  V30 2679 C 256.288 -3.12999 0.00864533 0
M  V30 2680 C 256.763 -4.57313 0.250685 0
M  V30 2681 N 258.254 -4.62777 0.198014 0
M  V30 2682 C 258.989 -5.72271 0.359642 0
M  V30 2683 N 258.485 -6.90371 0.579625 0
M  V30 2684 N 260.278 -5.61318 0.296438 0
M  V30 2685 H 252.429 -1.81765 1.09887 0
M  V30 2686 H 254.692 -0.841849 0.435884 0
M  V30 2687 H 254.398 -3.35068 1.06874 0
M  V30 2688 H 254.272 -3.71683 -0.642757 0
M  V30 2689 H 256.659 -2.7838 -0.979217 0
M  V30 2690 H 256.74 -2.44393 0.755359 0
M  V30 2691 H 256.384 -4.92639 1.2357 0
M  V30 2692 H 256.314 -5.24061 -0.516489 0
M  V30 2693 H 258.805 -3.77885 0.0331115 0
M  V30 2694 H 259.118 -7.69689 0.69275 0
M  V30 2695 H 257.463 -6.92264 0.616087 0
M  V30 2696 H 260.654 -4.67932 0.125258 0
M  V30 2697 H 260.827 -6.46599 0.425831 0
M  V30 2698 N 254.233 0.115231 -1.57178 0
M  V30 2699 C 255.481 0.820727 -1.84685 0
M  V30 2700 C 255.802 1.80237 -0.744279 0
M  V30 2701 O 255.072 1.94529 0.231375 0
M  V30 2702 H 253.652 0.306084 -0.681411 0
M  V30 2703 H 256.314 0.101656 -1.94635 0
M  V30 2704 H 255.41 1.36366 -2.80733 0
M  V30 2705 N 255.711 1.52812 0.385517 0
M  V30 2706 C 256.939 1.71907 1.15133 0
M  V30 2707 C 257.354 0.439004 1.83625 0
M  V30 2708 O 256.711 -0.586765 1.7281 0
M  V30 2709 C 256.762 2.87099 2.19673 0
M  V30 2710 O 256.483 4.10151 1.53973 0
M  V30 2711 C 257.984 3.17902 3.08955 0
M  V30 2712 H 255.204 0.575479 0.345057 0
M  V30 2713 H 257.748 1.99476 0.45052 0
M  V30 2714 H 255.903 2.61982 2.85384 0
M  V30 2715 H 256.317 4.74514 2.23465 0
M  V30 2716 H 257.791 4.01959 3.7833 0
M  V30 2717 H 258.268 2.3243 3.72657 0
M  V30 2718 H 258.874 3.44871 2.48885 0
M  V30 2719 N 257.189 -0.644168 1.43834 0
M  V30 2720 C 258.417 -1.43147 1.49387 0
M  V30 2721 C 258.832 -1.88452 0.114583 0
M  V30 2722 O 258.189 -1.60047 -0.876989 0
M  V30 2723 C 258.24 -2.66046 2.44748 0
M  V30 2724 O 257.961 -2.22633 3.77314 0
M  V30 2725 C 259.462 -3.59311 2.59635 0
M  V30 2726 H 256.682 -0.439447 0.507077 0
M  V30 2727 H 259.226 -0.78895 1.88669 0
M  V30 2728 H 257.381 -3.26418 2.08638 0
M  V30 2729 H 257.795 -3.02216 4.28679 0
M  V30 2730 H 259.269 -4.42187 3.30416 0
M  V30 2731 H 259.746 -4.07259 1.64427 0
M  V30 2732 H 260.352 -3.04816 2.96593 0
M  V30 2733 N 258.668 -1.30515 -0.883378 0
M  V30 2734 C 259.915 -1.1943 -1.63532 0
M  V30 2735 C 260.243 0.250627 -1.92878 0
M  V30 2736 O 259.498 1.19556 -1.54935 0
M  V30 2737 C 259.797 -1.96994 -2.98209 0
M  V30 2738 C 259.463 -3.466 -2.88408 0
M  V30 2739 C 258.125 -3.87397 -2.85442 0
M  V30 2740 C 260.477 -4.41863 -2.76418 0
M  V30 2741 C 257.805 -5.21745 -2.68327 0
M  V30 2742 C 260.157 -5.7632 -2.60841 0
M  V30 2743 C 258.821 -6.16354 -2.56251 0
M  V30 2744 H 258.091 -0.437025 -0.598406 0
M  V30 2745 H 260.738 -1.61635 -1.02696 0
M  V30 2746 H 259.043 -1.47429 -3.63004 0
M  V30 2747 H 260.74 -1.85808 -3.55354 0
M  V30 2748 H 257.33 -3.14182 -2.91527 0
M  V30 2749 H 261.514 -4.11285 -2.77775 0
M  V30 2750 H 256.77 -5.51853 -2.63189 0
M  V30 2751 H 260.944 -6.49772 -2.50538 0
M  V30 2752 H 258.571 -7.20401 -2.42748 0
M  V30 2753 N 260.146 1.09593 -1.13257 0
M  V30 2754 C 261.109 2.14359 -0.811358 0
M  V30 2755 C 262.109 1.59808 0.178377 0
M  V30 2756 O 263.299 1.74132 -0.0484911 0
M  V30 2757 C 260.431 3.40269 -0.207276 0
M  V30 2758 H 261.624 2.44284 -1.73969 0
M  V30 2759 H 259.177 1.25102 -0.936973 0
M  V30 2760 H 259.912 3.15969 0.73036 0
M  V30 2761 H 259.697 3.81154 -0.919992 0
M  V30 2762 H 261.187 4.176 0.000667944 0
M  V30 2763 N 261.624 0.925811 1.2754 0
M  V30 2764 C 262.534 0.428993 2.30644 0
M  V30 2765 C 263.55 -0.489387 1.66976 0
M  V30 2766 O 264.726 -0.372653 1.97922 0
M  V30 2767 C 261.791 -0.311967 3.45294 0
M  V30 2768 C 260.852 0.641098 4.24486 0
M  V30 2769 C 260.085 -0.0645955 5.33661 0
M  V30 2770 O 260.308 -1.28429 5.55754 0
M  V30 2771 O 259.242 0.606265 5.98839 0
M  V30 2772 H 263.068 1.28504 2.75173 0
M  V30 2773 H 260.653 0.691086 1.32455 0
M  V30 2774 H 262.535 -0.729972 4.15029 0
M  V30 2775 H 261.21 -1.14365 3.02824 0
M  V30 2776 H 260.117 1.10874 3.57292 0
M  V30 2777 H 261.45 1.43995 4.70666 0
M  V30 2778 N 263.102 -1.41638 0.69111 0
M  V30 2779 C 264.35 -2.00902 0.219758 0
M  V30 2780 C 264.671 -1.54994 -1.18329 0
M  V30 2781 O 263.941 -0.778628 -1.79762 0
M  V30 2782 H 262.521 -0.74289 0.0782558 0
M  V30 2783 H 265.183 -1.73327 0.891271 0
M  V30 2784 H 264.279 -3.11224 0.233708 0
M  V30 2785 N 264.58 -0.43555 -1.51462 0
M  V30 2786 C 265.826 0.131709 -2.02372 0
M  V30 2787 C 266.159 1.42516 -1.3192 0
M  V30 2788 O 265.434 1.89606 -0.433573 0
M  V30 2789 C 265.717 0.352301 -3.58373 0
M  V30 2790 C 265.57 -0.959676 -4.39443 0
M  V30 2791 C 266.889 1.12286 -4.25535 0
M  V30 2792 H 264.008 0.0463936 -0.735538 0
M  V30 2793 H 266.65 -0.574197 -1.81116 0
M  V30 2794 H 264.8 0.9536 -3.76615 0
M  V30 2795 H 266.472 -1.59482 -4.32855 0
M  V30 2796 H 264.715 -1.56468 -4.04599 0
M  V30 2797 H 265.386 -0.759394 -5.46752 0
M  V30 2798 H 267.862 0.613545 -4.11552 0
M  V30 2799 H 266.738 1.24598 -5.34571 0
M  V30 2800 H 266.999 2.15048 -3.86273 0
M  V30 2801 N 266.058 1.56714 -0.166846 0
M  V30 2802 C 267.304 1.97039 0.479962 0
M  V30 2803 C 267.637 1.05264 1.63197 0
M  V30 2804 O 266.912 0.0988833 1.94248 0
M  V30 2805 C 267.195 3.46867 0.967212 0
M  V30 2806 C 267.048 4.49421 -0.18466 0
M  V30 2807 C 268.367 3.9968 1.84238 0
M  V30 2808 H 265.486 0.71641 0.172992 0
M  V30 2809 H 268.128 1.8832 -0.252079 0
M  V30 2810 H 266.278 3.54428 1.59101 0
M  V30 2811 H 267.95 4.53924 -0.821621 0
M  V30 2812 H 266.193 4.25573 -0.840837 0
M  V30 2813 H 266.864 5.51644 0.198317 0
M  V30 2814 H 269.34 3.94723 1.31655 0
M  V30 2815 H 268.216 5.04941 2.15234 0
M  V30 2816 H 268.477 3.43226 2.78654 0
M  V30 2817 N 267.536 -0.106894 1.57237 0
M  V30 2818 C 268.499 -1.11466 2.0027 0
M  V30 2819 C 269.499 -1.33623 0.894519 0
M  V30 2820 O 270.689 -1.29935 1.16028 0
M  V30 2821 C 267.821 -2.46646 2.35327 0
M  V30 2822 H 269.014 -0.744516 2.90512 0
M  V30 2823 H 266.567 -0.351576 1.52295 0
M  V30 2824 H 267.302 -2.88558 1.48003 0
M  V30 2825 H 267.087 -2.31915 3.16161 0
M  V30 2826 H 268.577 -3.19151 2.69318 0
M  V30 2827 N 269.014 -1.53014 -0.377408 0
M  V30 2828 C 270.261 -1.68623 -1.12128 0
M  V30 2829 C 270.589 -0.431997 -1.89642 0
M  V30 2830 O 269.844 0.585855 -1.86725 0
M  V30 2831 C 270.143 -2.87982 -2.11663 0
M  V30 2832 C 269.809 -4.24964 -1.50719 0
M  V30 2833 C 268.471 -4.62217 -1.33825 0
M  V30 2834 C 270.823 -5.10199 -1.06519 0
M  V30 2835 C 268.151 -5.82352 -0.712963 0
M  V30 2836 C 270.503 -6.30969 -0.453955 0
M  V30 2837 C 269.167 -6.66944 -0.272411 0
M  V30 2838 H 268.437 -0.617034 -0.410305 0
M  V30 2839 H 271.084 -1.8718 -0.404484 0
M  V30 2840 H 269.389 -2.63889 -2.89603 0
M  V30 2841 H 271.086 -2.97253 -2.6915 0
M  V30 2842 H 267.676 -3.95626 -1.64858 0
M  V30 2843 H 271.86 -4.81978 -1.18368 0
M  V30 2844 H 267.116 -6.08824 -0.560611 0
M  V30 2845 H 271.29 -6.96324 -0.103217 0
M  V30 2846 H 268.917 -7.59898 0.214181 0
M  V30 2847 N 270.492 0.636531 -1.44174 0
M  V30 2848 C 271.422 1.76003 -1.53444 0
M  V30 2849 C 272.403 1.65619 -0.387841 0
M  V30 2850 O 273.588 1.84461 -0.607257 0
M  V30 2851 C 270.718 3.14511 -1.4731 0
M  V30 2852 C 269.672 3.39677 -2.60391 0
M  V30 2853 C 268.998 4.78159 -2.39308 0
M  V30 2854 C 270.298 3.32772 -4.02567 0
M  V30 2855 H 271.992 1.68501 -2.47483 0
M  V30 2856 H 269.538 0.809237 -1.19111 0
M  V30 2857 H 271.491 3.92878 -1.52397 0
M  V30 2858 H 270.215 3.22783 -0.49785 0
M  V30 2859 H 268.874 2.63688 -2.54684 0
M  V30 2860 H 268.522 4.83128 -1.39988 0
M  V30 2861 H 268.222 4.95956 -3.15122 0
M  V30 2862 H 269.746 5.58762 -2.46205 0
M  V30 2863 H 271.16 4.01051 -4.09672 0
M  V30 2864 H 269.557 3.62104 -4.7854 0
M  V30 2865 H 270.627 2.30669 -4.2652 0
M  V30 2866 N 271.97 1.30982 0.876444 0
M  V30 2867 C 273.219 1.19658 1.62373 0
M  V30 2868 C 273.532 -0.245636 1.94052 0
M  V30 2869 O 274.738 -0.48049 2.67214 0
M  V30 2870 C 273.194 2.09433 2.92687 0
M  V30 2871 C 272.802 3.58613 2.68516 0
M  V30 2872 C 274.546 2.06893 3.70669 0
M  V30 2873 C 272.453 4.40416 3.94699 0
M  V30 2874 H 271.383 0.444268 0.609214 0
M  V30 2875 H 274.034 1.55791 0.969605 0
M  V30 2876 H 272.416 1.66191 3.59439 0
M  V30 2877 H 273.59 4.10058 2.10212 0
M  V30 2878 H 271.905 3.63063 2.03898 0
M  V30 2879 H 274.502 2.65258 4.64265 0
M  V30 2880 H 274.845 1.05448 4.02724 0
M  V30 2881 H 275.378 2.48301 3.10792 0
M  V30 2882 H 272.117 5.42591 3.67798 0
M  V30 2883 H 271.637 3.93731 4.52477 0
M  V30 2884 H 273.316 4.52294 4.62644 0
M  V30 2885 N 273.449 -1.08991 1.13837 0
M  V30 2886 C 274.379 -2.17771 0.842507 0
M  V30 2887 C 275.36 -1.6892 -0.20001 0
M  V30 2888 O 276.545 -1.94113 -0.0579731 0
M  V30 2889 C 273.675 -3.4589 0.312644 0
M  V30 2890 C 272.629 -4.08099 1.28992 0
M  V30 2891 C 271.955 -5.31098 0.619623 0
M  V30 2892 C 273.255 -4.50077 2.65005 0
M  V30 2893 H 274.949 -2.42777 1.75213 0
M  V30 2894 H 272.495 -1.16682 0.843875 0
M  V30 2895 H 274.448 -4.21297 0.0933043 0
M  V30 2896 H 273.172 -3.20419 -0.632382 0
M  V30 2897 H 271.831 -3.34717 1.49533 0
M  V30 2898 H 271.479 -5.0191 -0.33102 0
M  V30 2899 H 271.179 -5.73674 1.27167 0
M  V30 2900 H 272.703 -6.09224 0.409669 0
M  V30 2901 H 274.117 -5.16688 2.48407 0
M  V30 2902 H 272.514 -5.03553 3.26427 0
M  V30 2903 H 273.584 -3.62257 3.22332 0
M  V30 2904 N 274.927 -0.932562 -1.27047 0
M  V30 2905 C 276.338 -0.619451 -1.76124 0
M  V30 2906 C 276.689 0.865397 -1.76083 0
M  V30 2907 O 275.814 1.67722 -1.36742 0
M  V30 2908 C 276.409 -1.11771 -3.19832 0
M  V30 2909 C 274.968 -0.855174 -3.66557 0
M  V30 2910 C 274.115 -1.27362 -2.46321 0
M  V30 2911 H 277.066 -1.11181 -1.13245 0
M  V30 2912 H 277.087 -0.46759 -3.77616 0
M  V30 2913 H 276.599 -2.19842 -3.1983 0
M  V30 2914 H 274.7 0.211524 -3.71999 0
M  V30 2915 H 274.813 -1.47613 -4.55793 0
M  V30 2916 H 273.177 -0.692119 -2.45116 0
M  V30 2917 H 273.96 -2.36307 -2.49025 0
M  V30 2918 N 276.405 1.4127 -0.698611 0
M  V30 2919 C 277.337 2.292 0.00399731 0
M  V30 2920 C 278.35 1.44944 0.741279 0
M  V30 2921 O 279.539 1.68416 0.591477 0
M  V30 2922 C 276.639 3.22875 1.02979 0
M  V30 2923 C 275.812 4.35904 0.36151 0
M  V30 2924 C 274.871 5.10134 1.29033 0
M  V30 2925 O 273.897 5.63809 0.781562 0
M  V30 2926 N 275.099 5.17885 2.6225 0
M  V30 2927 H 277.864 2.9014 -0.750921 0
M  V30 2928 H 275.425 1.52455 -0.544882 0
M  V30 2929 H 277.417 3.69404 1.65296 0
M  V30 2930 H 275.987 2.63221 1.68622 0
M  V30 2931 H 275.207 3.91719 -0.441584 0
M  V30 2932 H 276.495 5.08696 -0.103055 0
M  V30 2933 H 275.893 4.7573 3.061 0
M  V30 2934 H 274.45 5.6798 3.19754 0
M  V30 2935 N 277.883 0.443576 1.51229 0
M  V30 2936 C 278.846 -0.353132 2.26463 0
M  V30 2937 C 279.846 -0.944338 1.3015 0
M  V30 2938 O 281.036 -0.817813 1.5381 0
M  V30 2939 C 278.168 -1.50023 3.06114 0
M  V30 2940 H 279.361 0.3063 2.98332 0
M  V30 2941 H 276.914 0.196902 1.55055 0
M  V30 2942 H 277.649 -2.19553 2.38677 0
M  V30 2943 H 277.434 -1.08241 3.76864 0
M  V30 2944 H 278.924 -2.06296 3.63087 0
M  V30 2945 N 279.361 -1.56624 0.175154 0
M  V30 2946 C 280.308 -2.18149 -0.753634 0
M  V30 2947 C 281.278 -1.12265 -1.22417 0
M  V30 2948 O 282.463 -1.40432 -1.29165 0
M  V30 2949 C 279.603 -2.82933 -1.97592 0
M  V30 2950 C 278.716 -4.03289 -1.5486 0
M  V30 2951 C 277.851 -4.55988 -2.72485 0
M  V30 2952 C 276.89 -5.68746 -2.26262 0
M  V30 2953 N 276.027 -6.15938 -3.36994 0
M  V30 2954 H 280.867 -2.9717 -0.222195 0
M  V30 2955 H 278.404 -1.46774 -0.0979422 0
M  V30 2956 H 280.362 -3.18653 -2.69288 0
M  V30 2957 H 278.992 -2.06509 -2.481 0
M  V30 2958 H 278.044 -3.73364 -0.728246 0
M  V30 2959 H 279.356 -4.849 -1.16933 0
M  V30 2960 H 278.51 -4.9391 -3.52332 0
M  V30 2961 H 277.249 -3.73443 -3.13674 0
M  V30 2962 H 276.254 -5.30372 -1.44863 0
M  V30 2963 H 277.479 -6.53095 -1.86127 0
M  V30 2964 H 275.425 -5.36321 -3.77751 0
M  V30 2965 H 275.342 -6.92548 -3.03172 0
M  V30 2966 H 276.61 -6.58511 -4.17114 0
M  V30 2967 N 280.839 0.0985539 -1.57292 0
M  V30 2968 C 281.786 1.11981 -2.01814 0
M  V30 2969 C 282.756 1.39999 -0.89384 0
M  V30 2970 O 283.941 1.5152 -1.15958 0
M  V30 2971 C 281.081 2.43577 -2.44467 0
M  V30 2972 C 280.194 2.2232 -3.70402 0
M  V30 2973 C 279.329 3.4729 -4.01949 0
M  V30 2974 C 278.368 3.2128 -5.21005 0
M  V30 2975 N 277.505 4.38507 -5.48321 0
M  V30 2976 H 282.345 0.733149 -2.88841 0
M  V30 2977 H 279.882 0.350482 -1.42864 0
M  V30 2978 H 281.84 3.20373 -2.6724 0
M  V30 2979 H 280.47 2.80097 -1.60455 0
M  V30 2980 H 279.522 1.36343 -3.55126 0
M  V30 2981 H 280.834 1.99089 -4.57345 0
M  V30 2982 H 279.988 4.32495 -4.25479 0
M  V30 2983 H 278.727 3.73572 -3.13521 0
M  V30 2984 H 277.732 2.34468 -4.97298 0
M  V30 2985 H 278.957 2.96348 -6.11028 0
M  V30 2986 H 276.903 4.64871 -4.62851 0
M  V30 2987 H 276.82 4.18455 -6.29628 0
M  V30 2988 H 278.088 5.24787 -5.76385 0
M  V30 2989 N 282.317 1.53212 0.369288 0
M  V30 2990 C 283.594 1.59815 1.12776 0
M  V30 2991 C 283.974 0.403402 2.0721 0
M  V30 2992 O 283.322 -0.606667 2.20299 0
M  V30 2993 C 283.532 2.94664 1.87013 0
M  V30 2994 C 284.88 3.49109 2.41677 0
M  V30 2995 O 285.904 2.96669 1.97144 0
M  V30 2996 O 284.763 4.40775 3.23079 0
M  V30 2997 H 281.857 0.645376 0.517125 0
M  V30 2998 H 284.403 1.65553 0.37285 0
M  V30 2999 H 283.175 3.73061 1.18071 0
M  V30 3000 H 282.798 2.92401 2.69421 0
M  V30 3001 N 283.795 -0.628877 1.44509 0
M  V30 3002 C 285.042 -1.38839 1.47411 0
M  V30 3003 C 285.37 -1.94202 0.10757 0
M  V30 3004 O 284.625 -1.74243 -0.890947 0
M  V30 3005 C 284.924 -2.56995 2.48371 0
M  V30 3006 C 284.59 -2.19908 3.93639 0
M  V30 3007 C 283.252 -2.09506 4.33198 0
M  V30 3008 C 285.604 -1.9064 4.85083 0
M  V30 3009 C 282.932 -1.68028 5.62124 0
M  V30 3010 C 285.284 -1.50655 6.14399 0
M  V30 3011 C 283.948 -1.38796 6.5291 0
M  V30 3012 H 283.218 -0.508048 0.539414 0
M  V30 3013 H 285.865 -0.712913 1.77735 0
M  V30 3014 H 284.17 -3.29786 2.11538 0
M  V30 3015 H 285.867 -3.15223 2.47861 0
M  V30 3016 H 282.457 -2.28922 3.62343 0
M  V30 3017 H 286.641 -1.97585 4.55273 0
M  V30 3018 H 281.897 -1.57452 5.90778 0
M  V30 3019 H 286.071 -1.27048 6.84713 0
M  V30 3020 H 283.698 -1.06429 7.52713 0
M  V30 3021 N 285.273 -1.31445 -0.869486 0
M  V30 3022 C 286.52 -1.21158 -1.62256 0
M  V30 3023 C 286.848 0.230155 -1.93133 0
M  V30 3024 O 286.103 1.17906 -1.56194 0
M  V30 3025 C 286.402 -2.00145 -2.96102 0
M  V30 3026 C 286.068 -3.4964 -2.84715 0
M  V30 3027 C 284.73 -3.90403 -2.81317 0
M  V30 3028 C 287.082 -4.44769 -2.71716 0
M  V30 3029 C 284.41 -5.24561 -2.62778 0
M  V30 3030 C 286.762 -5.79054 -2.54714 0
M  V30 3031 C 285.426 -6.19037 -2.49699 0
M  V30 3032 H 284.696 -0.443348 -0.593737 0
M  V30 3033 H 287.343 -1.62715 -1.00976 0
M  V30 3034 H 285.648 -1.5127 -3.6142 0
M  V30 3035 H 287.345 -1.89566 -3.53363 0
M  V30 3036 H 283.935 -3.17256 -2.88178 0
M  V30 3037 H 288.119 -4.14208 -2.73397 0
M  V30 3038 H 283.375 -5.54613 -2.57321 0
M  V30 3039 H 287.549 -6.52393 -2.43632 0
M  V30 3040 H 285.176 -7.22935 -2.35093 0
M  V30 3041 N 286.751 1.08385 -1.14413 0
M  V30 3042 C 287.976 1.85057 -0.936413 0
M  V30 3043 C 288.401 1.81055 0.509971 0
M  V30 3044 O 287.759 1.1958 1.36273 0
M  V30 3045 C 287.807 3.30505 -1.44217 0
M  V30 3046 O 286.911 4.07491 -0.634409 0
M  V30 3047 H 286.252 0.573425 -0.334784 0
M  V30 3048 H 288.782 1.36799 -1.52142 0
M  V30 3049 H 288.792 3.81348 -1.45043 0
M  V30 3050 H 287.467 3.32734 -2.49522 0
M  V30 3051 H 286.044 3.66368 -0.694902 0
M  V30 3052 N 288.23 0.939286 1.26551 0
M  V30 3053 C 289.455 0.602008 1.98471 0
M  V30 3054 C 289.88 -0.815624 1.69497 0
M  V30 3055 O 289.238 -1.54912 0.941905 0
M  V30 3056 C 289.286 0.848407 3.50477 0
M  V30 3057 O 288.39 -0.0804009 4.12322 0
M  V30 3058 H 287.731 0.23049 0.622712 0
M  V30 3059 H 290.261 1.2617 1.61066 0
M  V30 3060 H 290.271 0.768553 4.00696 0
M  V30 3061 H 288.946 1.88171 3.70897 0
M  V30 3062 H 287.523 0.0503508 3.72866 0
M  V30 3063 N 289.708 -1.40897 0.706093 0
M  V30 3064 C 290.658 -2.27987 0.0240746 0
M  V30 3065 C 291.642 -1.42759 -0.742204 0
M  V30 3066 O 292.834 -1.65936 -0.615966 0
M  V30 3067 C 289.963 -3.31186 -0.903907 0
M  V30 3068 C 289.049 -4.2389 -0.133318 0
M  V30 3069 N 289.44 -4.98113 0.878444 0
M  V30 3070 C 287.738 -4.44485 -0.367269 0
M  V30 3071 C 288.439 -5.6604 1.34064 0
M  V30 3072 N 287.415 -5.39522 0.664565 0
M  V30 3073 H 291.217 -2.82812 0.799658 0
M  V30 3074 H 288.731 -1.53235 0.537845 0
M  V30 3075 H 290.728 -3.92413 -1.40775 0
M  V30 3076 H 289.388 -2.77922 -1.67897 0
M  V30 3077 H 290.399 -5.02364 1.25901 0
M  V30 3078 H 287.076 -4.02213 -1.1194 0
M  V30 3079 H 288.466 -6.35524 2.1808 0
M  V30 3080 N 291.186 -0.45159 -1.50991 0
M  V30 3081 C 292.597 0.00818571 -1.86698 0
M  V30 3082 C 292.948 1.40661 -1.3678 0
M  V30 3083 O 292.073 2.0391 -0.724546 0
M  V30 3084 C 292.668 0.0216303 -3.38793 0
M  V30 3085 C 291.227 0.425865 -3.73983 0
M  V30 3086 C 290.374 -0.372163 -2.74791 0
M  V30 3087 H 293.325 -0.666785 -1.44013 0
M  V30 3088 H 293.346 0.828078 -3.7138 0
M  V30 3089 H 292.858 -0.996288 -3.75094 0
M  V30 3090 H 290.959 1.44886 -3.43277 0
M  V30 3091 H 291.072 0.140761 -4.78893 0
M  V30 3092 H 289.436 0.171498 -2.54122 0
M  V30 3093 H 290.219 -1.38922 -3.13935 0
M  V30 3094 N 292.664 1.56529 -0.183458 0
M  V30 3095 C 293.594 2.21549 0.737456 0
M  V30 3096 C 294.575 1.17489 1.23005 0
M  V30 3097 O 295.76 1.45959 1.281 0
M  V30 3098 C 292.89 2.86575 1.96194 0
M  V30 3099 C 291.844 3.96778 1.60473 0
M  V30 3100 C 291.17 4.48911 2.90487 0
M  V30 3101 C 292.47 5.15767 0.823497 0
M  V30 3102 H 294.164 2.98761 0.195453 0
M  V30 3103 H 291.71 1.43702 0.0925686 0
M  V30 3104 H 293.663 3.30739 2.61131 0
M  V30 3105 H 292.387 2.06749 2.52828 0
M  V30 3106 H 291.046 3.53286 0.978997 0
M  V30 3107 H 290.694 3.65862 3.45186 0
M  V30 3108 H 290.394 5.23265 2.67335 0
M  V30 3109 H 291.918 4.95771 3.56432 0
M  V30 3110 H 293.332 5.56549 1.37571 0
M  V30 3111 H 291.729 5.96114 0.690551 0
M  V30 3112 H 292.799 4.84574 -0.177782 0
M  V30 3113 N 294.142 -0.090211 1.57342 0
M  V30 3114 C 295.558 -0.444547 1.53284 0
M  V30 3115 C 295.758 -1.80238 0.900914 0
M  V30 3116 O 294.814 -2.4759 0.495513 0
M  V30 3117 C 296.127 -0.402543 2.97993 0
M  V30 3118 C 297.675 -0.48405 3.09234 0
M  V30 3119 C 298.15 -0.472144 4.5556 0
M  V30 3120 N 299.641 -0.532757 4.60126 0
M  V30 3121 C 300.376 -0.545462 5.708 0
M  V30 3122 N 299.872 -0.514082 6.9089 0
M  V30 3123 N 301.665 -0.59064 5.58988 0
M  V30 3124 H 293.816 0.799121 1.96794 0
M  V30 3125 H 296.079 0.297965 0.899956 0
M  V30 3126 H 295.785 0.528106 3.47712 0
M  V30 3127 H 295.659 -1.21969 3.56936 0
M  V30 3128 H 298.046 -1.40512 2.595 0
M  V30 3129 H 298.127 0.361328 2.53235 0
M  V30 3130 H 297.771 0.445 5.05947 0
M  V30 3131 H 297.701 -1.3348 5.09402 0
M  V30 3132 H 300.192 -0.562006 3.73698 0
M  V30 3133 H 300.505 -0.527195 7.71 0
M  V30 3134 H 298.85 -0.481054 6.93333 0
M  V30 3135 H 302.041 -0.61272 4.64073 0
M  V30 3136 H 302.214 -0.597073 6.45243 0
M  V30 3137 N 295.62 -1.53406 -0.361157 0
M  V30 3138 C 296.53 -1.83122 -1.4664 0
M  V30 3139 C 297.546 -0.719943 -1.58407 0
M  V30 3140 O 298.722 -1.01046 -1.74218 0
M  V30 3141 C 295.787 -2.01891 -2.81853 0
M  V30 3142 C 294.848 -3.25784 -2.79577 0
M  V30 3143 C 294.081 -3.43648 -4.0834 0
M  V30 3144 O 294.304 -2.65714 -5.0473 0
M  V30 3145 O 293.238 -4.37018 -4.13883 0
M  V30 3146 H 297.064 -2.7703 -1.24451 0
M  V30 3147 H 294.649 -1.38841 -0.551678 0
M  V30 3148 H 296.531 -2.15782 -3.61962 0
M  V30 3149 H 295.206 -1.11173 -3.0401 0
M  V30 3150 H 294.113 -3.17312 -1.98151 0
M  V30 3151 H 295.446 -4.16439 -2.62373 0
M  V30 3152 N 297.098 0.621204 -1.44841 0
M  V30 3153 C 298.509 1.20298 -1.42777 0
M  V30 3154 C 298.86 1.95639 -0.148259 0
M  V30 3155 O 297.985 2.02955 0.750892 0
M  V30 3156 C 298.58 2.1882 -2.58657 0
M  V30 3157 C 297.139 2.72403 -2.59756 0
M  V30 3158 C 296.286 1.4757 -2.34773 0
M  V30 3159 H 299.237 0.411297 -1.53278 0
M  V30 3160 H 299.258 3.01607 -2.31977 0
M  V30 3161 H 298.77 1.63957 -3.51766 0
M  V30 3162 H 296.871 3.31242 -1.70615 0
M  V30 3163 H 296.984 3.17765 -3.58556 0
M  V30 3164 H 295.348 1.76051 -1.8406 0
M  V30 3165 H 296.131 0.945954 -3.3001 0
M  V30 3166 N 298.576 1.31904 0.862503 0
M  V30 3167 C 299.822 1.22197 1.61851 0
M  V30 3168 C 300.155 -0.217641 1.92977 0
M  V30 3169 O 299.43 -1.15264 1.56666 0
M  V30 3170 C 299.713 2.07378 2.94391 0
M  V30 3171 C 299.566 3.59678 2.70096 0
M  V30 3172 C 300.885 1.92891 3.95577 0
M  V30 3173 H 298.004 0.445255 0.587296 0
M  V30 3174 H 300.646 1.6177 0.99651 0
M  V30 3175 H 298.796 1.73758 3.47477 0
M  V30 3176 H 300.468 4.03472 2.23625 0
M  V30 3177 H 298.711 3.82735 2.04197 0
M  V30 3178 H 299.382 4.14595 3.64438 0
M  V30 3179 H 301.858 2.22327 3.51724 0
M  V30 3180 H 300.734 2.54781 4.86187 0
M  V30 3181 H 300.995 0.894315 4.3296 0
M  V30 3182 N 300.054 -1.07777 1.14986 0
M  V30 3183 C 301.002 -2.16964 0.838406 0
M  V30 3184 C 301.996 -1.68372 -0.186386 0
M  V30 3185 O 303.202 -1.79951 -0.0418465 0
M  V30 3186 H 299.577 -0.708006 0.253439 0
M  V30 3187 H 301.548 -2.40454 1.76704 0
M  V30 3188 C 300.297 -3.4604 0.339335 0
M  V30 3189 H 299.62 -3.83813 1.11927 0
M  V30 3190 H 301.06 -4.23698 0.160021 0
M  V30 3191 C 299.519 -3.23569 -0.938325 0
M  V30 3192 O 300.049 -3.47752 -2.01077 0
M  V30 3193 N 298.255 -2.77079 -0.876117 0
M  V30 3194 H 297.802 -2.576 -0.00322037 0
M  V30 3195 H 297.76 -2.62422 -1.73153 0
M  V30 3196 N 301.532 -0.945985 -1.26051 0
M  V30 3197 C 302.495 -0.463897 -2.24456 0
M  V30 3198 C 303.495 0.427655 -1.55009 0
M  V30 3199 O 304.685 0.226157 -1.72726 0
M  V30 3200 C 301.817 0.330812 -3.39291 0
M  V30 3201 H 303.01 -1.33357 -2.68619 0
M  V30 3202 H 300.563 -0.728416 -1.38289 0
M  V30 3203 H 301.298 1.21852 -3.00537 0
M  V30 3204 H 301.083 -0.308679 -3.90883 0
M  V30 3205 H 302.573 0.657865 -4.12386 0
M  V30 3206 N 303.011 1.40521 -0.713556 0
M  V30 3207 C 304.239 2.05237 -0.261775 0
M  V30 3208 C 304.654 1.53755 1.09567 0
M  V30 3209 O 304.011 0.693268 1.6882 0
M  V30 3210 C 304.062 3.60763 -0.230706 0
M  V30 3211 O 303.783 4.10345 -1.53455 0
M  V30 3212 C 305.284 4.42651 0.239874 0
M  V30 3213 H 302.504 0.660533 -0.118057 0
M  V30 3214 H 305.048 1.79967 -0.971192 0
M  V30 3215 H 303.203 3.8501 0.429661 0
M  V30 3216 H 303.617 5.04526 -1.43366 0
M  V30 3217 H 305.091 5.51599 0.210468 0
M  V30 3218 H 305.568 4.20082 1.28171 0
M  V30 3219 H 306.174 4.23507 -0.390142 0
M  V30 3220 N 304.489 0.459591 1.5075 0
M  V30 3221 C 305.399 -0.34613 2.32033 0
M  V30 3222 C 306.415 -1.00686 1.41909 0
M  V30 3223 O 307.591 -0.997361 1.7497 0
M  V30 3224 C 304.656 -1.42029 3.16273 0
M  V30 3225 C 303.717 -0.777362 4.22203 0
M  V30 3226 C 302.95 -1.80034 5.02418 0
M  V30 3227 O 303.173 -3.02544 4.83553 0
M  V30 3228 O 302.107 -1.37853 5.85901 0
M  V30 3229 H 305.933 0.318054 3.0203 0
M  V30 3230 H 303.518 0.221663 1.47746 0
M  V30 3231 H 305.4 -2.04275 3.68578 0
M  V30 3232 H 304.075 -2.06815 2.49016 0
M  V30 3233 H 302.982 -0.116256 3.73919 0
M  V30 3234 H 304.315 -0.172634 4.91897 0
M  V30 3235 N 305.967 -1.56429 0.191757 0
M  V30 3236 C 307.244 -1.89224 -0.495332 0
M  V30 3237 C 307.624 -1.10478 -1.79883 0
M  V30 3238 O 306.972 -0.204852 -2.2758 0
M  V30 3239 C 307.182 -3.41548 -0.717367 0
M  V30 3240 C 308.53 -4.11711 -1.03823 0
M  V30 3241 O 309.554 -3.4698 -0.805204 0
M  V30 3242 O 308.413 -5.2611 -1.47887 0
M  V30 3243 H 305.507 -0.785788 -0.25781 0
M  V30 3244 H 308.053 -1.68111 0.231721 0
M  V30 3245 H 306.825 -3.90772 0.203287 0
M  V30 3246 H 306.448 -3.68342 -1.497 0
M  V30 3247 N 307.445 0.0818655 -1.57387 0
M  V30 3248 C 308.856 0.634871 -1.75574 0
M  V30 3249 C 309.207 1.78435 -0.815809 0
M  V30 3250 O 308.332 2.164 0.0025366 0
M  V30 3251 C 308.927 1.15845 -3.18379 0
M  V30 3252 C 307.486 1.65741 -3.37945 0
M  V30 3253 C 306.633 0.572549 -2.71325 0
M  V30 3254 H 309.584 -0.144268 -1.58043 0
M  V30 3255 H 309.605 2.02751 -3.21982 0
M  V30 3256 H 309.117 0.321631 -3.86765 0
M  V30 3257 H 307.218 2.51781 -2.74658 0
M  V30 3258 H 307.331 1.74129 -4.46336 0
M  V30 3259 H 305.695 1.01518 -2.33594 0
M  V30 3260 H 306.478 -0.253918 -3.4236 0
M  V30 3261 N 308.923 1.53595 0.353017 0
M  V30 3262 C 310.148 1.7462 1.11904 0
M  V30 3263 C 310.573 0.479721 1.8188 0
M  V30 3264 O 309.931 -0.567066 1.72204 0
M  V30 3265 C 309.979 2.92029 2.11545 0
M  V30 3266 O 309.083 2.61516 3.18878 0
M  V30 3267 H 308.424 0.579531 0.324099 0
M  V30 3268 H 310.954 2.00525 0.406301 0
M  V30 3269 H 310.964 3.18551 2.5493 0
M  V30 3270 H 309.639 3.83888 1.60008 0
M  V30 3271 H 308.216 2.45852 2.80377 0
M  V30 3272 N 310.401 -0.613514 1.45168 0
M  V30 3273 C 311.626 -1.40437 1.52618 0
M  V30 3274 C 312.051 -1.87438 0.157707 0
M  V30 3275 O 311.409 -1.59791 -0.856537 0
M  V30 3276 C 311.457 -2.58894 2.51011 0
M  V30 3277 O 310.561 -3.59326 2.02382 0
M  V30 3278 H 309.902 -0.419506 0.514695 0
M  V30 3279 H 312.432 -0.747215 1.90467 0
M  V30 3280 H 312.442 -3.06214 2.69624 0
M  V30 3281 H 311.117 -2.24032 3.50403 0
M  V30 3282 H 309.694 -3.18695 1.93618 0
M  V30 3283 N 311.879 -1.3236 -0.855495 0
M  V30 3284 C 313.127 -1.22629 -1.60644 0
M  V30 3285 C 313.448 0.212136 -1.93843 0
M  V30 3286 O 312.718 1.13666 -1.59552 0
M  V30 3287 H 311.298 -0.450882 -0.595579 0
M  V30 3288 H 313.96 -1.65871 -1.02337 0
M  V30 3289 H 313.056 -1.80832 -2.54374 0
M  V30 3290 N 313.357 1.07166 -1.15556 0
M  V30 3291 C 314.587 1.83248 -0.954133 0
M  V30 3292 C 314.995 1.82449 0.500911 0
M  V30 3293 O 314.338 1.23575 1.35923 0
M  V30 3294 C 314.4 3.31393 -1.39351 0
M  V30 3295 C 314.064 3.5591 -2.86666 0
M  V30 3296 C 315.061 3.49695 -3.8472 0
M  V30 3297 C 312.746 3.83515 -3.24379 0
M  V30 3298 C 314.74 3.70737 -5.18491 0
M  V30 3299 C 312.427 4.04209 -4.58321 0
M  V30 3300 C 313.425 3.97815 -5.55186 0
M  V30 3301 O 313.113 4.17954 -6.86709 0
M  V30 3302 H 312.845 0.584941 -0.338851 0
M  V30 3303 H 315.399 1.36169 -1.53777 0
M  V30 3304 H 313.629 3.79292 -0.75329 0
M  V30 3305 H 315.318 3.88945 -1.16089 0
M  V30 3306 H 316.084 3.28368 -3.56931 0
M  V30 3307 H 311.963 3.87605 -2.49567 0
M  V30 3308 H 315.507 3.65663 -5.94085 0
M  V30 3309 H 311.404 4.25023 -4.85825 0
M  V30 3310 H 312.172 4.35291 -6.93155 0
M  V30 3311 N 314.835 0.952656 1.25548 0
M  V30 3312 C 316.065 0.622592 1.96996 0
M  V30 3313 C 316.473 -0.809112 1.71026 0
M  V30 3314 O 315.816 -1.55258 0.981861 0
M  V30 3315 C 315.878 0.798946 3.5051 0
M  V30 3316 C 315.542 2.20744 4.00151 0
M  V30 3317 C 316.539 3.18394 4.11001 0
M  V30 3318 C 314.224 2.5311 4.33867 0
M  V30 3319 C 316.218 4.46504 4.54877 0
M  V30 3320 C 313.905 3.8145 4.7743 0
M  V30 3321 C 314.903 4.77959 4.87897 0
M  V30 3322 O 314.591 6.04012 5.30494 0
M  V30 3323 H 314.323 0.232503 0.634758 0
M  V30 3324 H 316.877 1.2789 1.60728 0
M  V30 3325 H 315.107 0.0854903 3.86605 0
M  V30 3326 H 316.796 0.47023 4.03167 0
M  V30 3327 H 317.562 2.94715 3.85186 0
M  V30 3328 H 313.441 1.78719 4.24948 0
M  V30 3329 H 316.985 5.21835 4.62962 0
M  V30 3330 H 312.882 4.04936 5.0269 0
M  V30 3331 H 313.65 6.0736 5.48685 0
M  V30 3332 N 316.313 -1.40141 0.720998 0
M  V30 3333 C 317.538 -2.05618 0.271258 0
M  V30 3334 C 317.963 -1.53978 -1.08039 0
M  V30 3335 O 317.321 -0.677463 -1.68167 0
M  V30 3336 C 317.369 -3.59609 0.267197 0
M  V30 3337 O 316.473 -4.05526 -0.749814 0
M  V30 3338 H 315.814 -0.651904 0.126162 0
M  V30 3339 H 318.344 -1.79439 0.982997 0
M  V30 3340 H 318.354 -4.0786 0.106744 0
M  V30 3341 H 317.029 -3.96559 1.25354 0
M  V30 3342 H 315.606 -3.68722 -0.556644 0
M  V30 3343 N 317.792 -0.46758 -1.50504 0
M  V30 3344 C 319.02 0.0864133 -2.06719 0
M  V30 3345 C 319.435 1.33819 -1.33184 0
M  V30 3346 O 318.792 1.78061 -0.400083 0
M  V30 3347 C 318.843 0.378079 -3.59517 0
M  V30 3348 O 318.564 -0.824044 -4.3028 0
M  V30 3349 C 320.065 0.979426 -4.32345 0
M  V30 3350 H 317.285 -0.00551697 -0.670977 0
M  V30 3351 H 319.829 -0.655354 -1.93715 0
M  V30 3352 H 317.984 1.06977 -3.72337 0
M  V30 3353 H 318.398 -0.566518 -5.21432 0
M  V30 3354 H 319.872 1.1333 -5.40241 0
M  V30 3355 H 320.349 1.9686 -3.9261 0
M  V30 3356 H 320.955 0.326216 -4.24047 0
M  V30 3357 N 319.27 1.56325 -0.20005 0
M  V30 3358 C 320.498 2.02105 0.442874 0
M  V30 3359 C 320.913 1.08014 1.5485 0
M  V30 3360 O 320.27 0.0858797 1.82298 0
M  V30 3361 C 320.321 3.47549 0.994583 0
M  V30 3362 O 320.042 4.38049 -0.0669322 0
M  V30 3363 C 321.543 4.0887 1.7129 0
M  V30 3364 H 318.763 0.661807 0.110691 0
M  V30 3365 H 321.307 2.02134 -0.310207 0
M  V30 3366 H 319.462 3.48204 1.69803 0
M  V30 3367 H 319.876 5.23368 0.344462 0
M  V30 3368 H 321.35 5.12475 2.05118 0
M  V30 3369 H 321.827 3.52615 2.61838 0
M  V30 3370 H 322.433 4.12002 1.05518 0
M  V30 3371 N 320.748 -0.0735177 1.57428 0
M  V30 3372 C 321.997 -0.771809 1.86349 0
M  V30 3373 C 322.31 -1.78828 0.792452 0
M  V30 3374 O 323.516 -2.53602 0.96945 0
M  V30 3375 C 321.972 -1.42358 3.30548 0
M  V30 3376 C 321.58 -0.445761 4.45777 0
M  V30 3377 C 323.324 -2.10434 3.6867 0
M  V30 3378 C 321.231 -1.10335 5.81016 0
M  V30 3379 H 320.161 -0.291999 0.695164 0
M  V30 3380 H 322.812 -0.0250749 1.83483 0
M  V30 3381 H 321.194 -2.21852 3.28021 0
M  V30 3382 H 322.368 0.319239 4.59693 0
M  V30 3383 H 320.683 0.130457 4.16196 0
M  V30 3384 H 323.28 -2.60405 4.67004 0
M  V30 3385 H 323.623 -2.90298 2.98383 0
M  V30 3386 H 324.156 -1.37773 3.7318 0
M  V30 3387 H 320.895 -0.345061 6.54591 0
M  V30 3388 H 320.415 -1.83925 5.70904 0
M  V30 3389 H 322.094 -1.62367 6.26295 0
M  V30 3390 N 322.226 -1.5378 -0.344866 0
M  V30 3391 C 323.642 -1.44015 -0.687888 0
M  V30 3392 C 323.842 -0.595834 -1.92489 0
M  V30 3393 O 322.898 -0.0863064 -2.52352 0
M  V30 3394 C 324.211 -2.87481 -0.881758 0
M  V30 3395 C 325.759 -2.97247 -0.980459 0
M  V30 3396 C 326.234 -4.41819 -1.20665 0
M  V30 3397 N 327.725 -4.45339 -1.27389 0
M  V30 3398 C 328.46 -5.54333 -1.46639 0
M  V30 3399 N 327.956 -6.73335 -1.63071 0
M  V30 3400 N 329.749 -5.41944 -1.49176 0
M  V30 3401 H 321.9 -2.07169 0.468475 0
M  V30 3402 H 324.163 -0.93643 0.147655 0
M  V30 3403 H 323.869 -3.51672 -0.0443444 0
M  V30 3404 H 323.743 -3.32352 -1.78388 0
M  V30 3405 H 326.13 -2.33197 -1.8084 0
M  V30 3406 H 326.211 -2.5574 -0.0552713 0
M  V30 3407 H 325.855 -5.06449 -0.383652 0
M  V30 3408 H 325.785 -4.80917 -2.14539 0
M  V30 3409 H 328.276 -3.59585 -1.1622 0
M  V30 3410 H 328.589 -7.52165 -1.77391 0
M  V30 3411 H 326.934 -6.76282 -1.60209 0
M  V30 3412 H 330.125 -4.47932 -1.3592 0
M  V30 3413 H 330.298 -6.26946 -1.63837 0
M  V30 3414 N 323.704 0.605807 -1.45491 0
M  V30 3415 C 324.934 1.38934 -1.52908 0
M  V30 3416 C 325.342 1.88513 -0.161086 0
M  V30 3417 O 324.685 1.62962 0.847891 0
M  V30 3418 C 324.747 2.62737 -2.45376 0
M  V30 3419 C 324.411 2.34785 -3.92078 0
M  V30 3420 C 325.408 1.95038 -4.8193 0
M  V30 3421 C 323.093 2.47642 -4.37011 0
M  V30 3422 C 325.087 1.68511 -6.14722 0
M  V30 3423 C 322.774 2.20728 -5.69844 0
M  V30 3424 C 323.772 1.81225 -6.58519 0
M  V30 3425 O 323.46 1.54627 -7.88889 0
M  V30 3426 H 323.192 0.431629 -0.520262 0
M  V30 3427 H 325.746 0.74573 -1.91384 0
M  V30 3428 H 323.976 3.29824 -2.01874 0
M  V30 3429 H 325.665 3.24783 -2.43456 0
M  V30 3430 H 326.431 1.84639 -4.48479 0
M  V30 3431 H 322.31 2.77356 -3.68232 0
M  V30 3432 H 325.854 1.37602 -6.83894 0
M  V30 3433 H 321.751 2.30744 -6.02849 0
M  V30 3434 H 322.519 1.68665 -8.00933 0
M  V30 3435 N 325.182 1.32811 0.848464 0
M  V30 3436 C 326.114 1.18095 1.96433 0
M  V30 3437 C 327.127 0.114354 1.62398 0
M  V30 3438 O 328.316 0.363892 1.74751 0
M  V30 3439 C 325.416 0.786798 3.2964 0
M  V30 3440 C 324.589 1.943 3.91875 0
M  V30 3441 C 323.648 1.53138 5.03423 0
M  V30 3442 O 322.674 2.24432 5.23086 0
M  V30 3443 N 323.876 0.430915 5.78898 0
M  V30 3444 H 326.641 2.14218 2.09597 0
M  V30 3445 H 324.202 1.2543 1.02367 0
M  V30 3446 H 326.194 0.493715 4.01677 0
M  V30 3447 H 324.764 -0.0834541 3.12489 0
M  V30 3448 H 323.984 2.40224 3.12547 0
M  V30 3449 H 325.272 2.71689 4.30189 0
M  V30 3450 H 324.67 -0.162333 5.65467 0
M  V30 3451 H 323.227 0.197466 6.51501 0
M  V30 3452 N 326.66 -1.06551 1.16123 0
M  V30 3453 C 327.623 -2.12132 0.867906 0
M  V30 3454 C 328.623 -1.60224 -0.135944 0
M  V30 3455 O 329.813 -1.73943 0.0946422 0
M  V30 3456 C 326.945 -3.396 0.297419 0
M  V30 3457 H 328.138 -2.39586 1.80385 0
M  V30 3458 H 325.691 -1.22574 0.969812 0
M  V30 3459 H 326.426 -3.17794 -0.64633 0
M  V30 3460 H 326.211 -3.78581 1.02073 0
M  V30 3461 H 327.701 -4.17455 0.110052 0
M  V30 3462 N 328.138 -0.959301 -1.25041 0
M  V30 3463 C 329.366 -0.633949 -1.96948 0
M  V30 3464 C 329.781 0.794916 -1.7125 0
M  V30 3465 O 329.138 1.53231 -0.991287 0
M  V30 3466 C 329.189 -0.888805 -3.50403 0
M  V30 3467 O 328.91 -2.26149 -3.75218 0
M  V30 3468 C 330.411 -0.576482 -4.39536 0
M  V30 3469 H 327.631 -0.237263 -0.627652 0
M  V30 3470 H 330.175 -1.28495 -1.59089 0
M  V30 3471 H 328.33 -0.284145 -3.86357 0
M  V30 3472 H 328.744 -2.33514 -4.6965 0
M  V30 3473 H 330.218 -0.805314 -5.46094 0
M  V30 3474 H 330.695 0.489075 -4.36468 0
M  V30 3475 H 331.301 -1.16067 -4.09156 0
M  V30 3476 N 329.616 1.39756 -0.72842 0
M  V30 3477 C 330.864 2.00248 -0.272946 0
M  V30 3478 C 331.185 1.58077 1.14178 0
M  V30 3479 O 330.455 0.826014 1.77634 0
M  V30 3480 H 329.035 0.740554 -0.0979247 0
M  V30 3481 H 331.697 1.70903 -0.936912 0
M  V30 3482 H 330.793 3.10495 -0.316142 0
M  V30 3483 N 331.094 0.475555 1.50254 0
M  V30 3484 C 332.341 -0.0778919 2.0235 0
M  V30 3485 C 332.669 -1.39319 1.35722 0
M  V30 3486 O 331.924 -1.89888 0.473395 0
M  V30 3487 C 332.223 -0.305114 3.56095 0
M  V30 3488 C 331.889 0.92903 4.41225 0
M  V30 3489 C 330.551 1.26739 4.6421 0
M  V30 3490 C 332.903 1.75054 4.90923 0
M  V30 3491 C 330.231 2.42724 5.34137 0
M  V30 3492 C 332.583 2.9017 5.62125 0
M  V30 3493 C 331.247 3.24416 5.83362 0
M  V30 3494 H 330.517 -0.0285027 0.740452 0
M  V30 3495 H 333.164 0.630543 1.80821 0
M  V30 3496 H 331.469 -1.09584 3.76163 0
M  V30 3497 H 333.166 -0.747377 3.93974 0
M  V30 3498 H 329.756 0.655428 4.23559 0
M  V30 3499 H 333.94 1.50231 4.73016 0
M  V30 3500 H 329.196 2.69525 5.48786 0
M  V30 3501 H 333.37 3.54169 5.99614 0
M  V30 3502 H 330.997 4.14396 6.37323 0
M  V30 3503 N 332.573 -1.56217 0.208337 0
M  V30 3504 C 333.821 -1.97558 -0.426076 0
M  V30 3505 C 334.142 -1.09683 -1.61229 0
M  V30 3506 O 333.412 -0.170956 -1.95153 0
M  V30 3507 H 331.992 -0.729575 -0.160405 0
M  V30 3508 H 334.654 -1.92606 0.298155 0
M  V30 3509 H 333.75 -3.02672 -0.761312 0
M  V30 3510 N 334.051 0.0651679 -1.57465 0
M  V30 3511 C 335.279 0.775808 -1.91804 0
M  V30 3512 C 335.694 1.70782 -0.804916 0
M  V30 3513 O 335.051 1.81153 0.221311 0
M  V30 3514 C 335.102 1.56381 -3.25925 0
M  V30 3515 O 334.823 0.669248 -4.32958 0
M  V30 3516 C 336.324 2.37485 -3.7432 0
M  V30 3517 H 333.544 0.2202 -0.63384 0
M  V30 3518 H 336.088 0.0334587 -2.04473 0
M  V30 3519 H 334.243 2.25837 -3.14764 0
M  V30 3520 H 334.657 1.21801 -5.10162 0
M  V30 3521 H 336.131 2.88223 -4.70778 0
M  V30 3522 H 336.608 3.17307 -3.03666 0
M  V30 3523 H 337.214 1.73173 -3.88447 0
M  V30 3524 N 335.529 1.53961 0.336706 0
M  V30 3525 C 336.477 1.83136 1.43401 0
M  V30 3526 C 337.471 0.702313 1.54156 0
M  V30 3527 O 338.677 0.885765 1.56698 0
M  V30 3528 H 335.052 0.580309 0.478273 0
M  V30 3529 H 337.023 2.74925 1.16012 0
M  V30 3530 C 335.772 2.06385 2.79822 0
M  V30 3531 H 335.095 2.92718 2.72316 0
M  V30 3532 H 336.535 2.30761 3.55704 0
M  V30 3533 C 334.994 0.851414 3.25964 0
M  V30 3534 O 335.524 0.0541904 4.01663 0
M  V30 3535 N 333.73 0.66672 2.82848 0
M  V30 3536 H 333.277 1.31665 2.21409 0
M  V30 3537 H 333.235 -0.143032 3.14074 0
M  V30 3538 N 337.007 -0.598083 1.45811 0
M  V30 3539 C 337.917 -1.73632 1.57763 0
M  V30 3540 C 338.933 -1.67763 0.461676 0
M  V30 3541 O 340.109 -1.87949 0.723685 0
M  V30 3542 C 337.174 -3.10114 1.55018 0
M  V30 3543 C 336.235 -3.27364 2.77726 0
M  V30 3544 C 335.468 -4.57334 2.75102 0
M  V30 3545 O 335.691 -5.40258 1.8297 0
M  V30 3546 O 334.625 -4.77502 3.66437 0
M  V30 3547 H 338.451 -1.66498 2.53992 0
M  V30 3548 H 336.036 -0.763308 1.28429 0
M  V30 3549 H 337.918 -3.9141 1.56129 0
M  V30 3550 H 336.593 -3.17718 0.619431 0
M  V30 3551 H 335.5 -2.45619 2.82174 0
M  V30 3552 H 336.833 -3.24641 3.69958 0
M  V30 3553 N 338.485 -1.33259 -0.841409 0
M  V30 3554 C 339.713 -1.27605 -1.62864 0
M  V30 3555 C 340.128 0.153507 -1.88175 0
M  V30 3556 O 339.485 1.09485 -1.46011 0
M  V30 3557 C 339.536 -2.04596 -2.98031 0
M  V30 3558 O 339.257 -3.41975 -2.73834 0
M  V30 3559 C 340.758 -2.06122 -3.92465 0
M  V30 3560 H 337.978 -0.439718 -0.506842 0
M  V30 3561 H 340.522 -1.75591 -1.04824 0
M  V30 3562 H 338.677 -1.60299 -3.5268 0
M  V30 3563 H 339.091 -3.81549 -3.59889 0
M  V30 3564 H 340.565 -2.64451 -4.84531 0
M  V30 3565 H 341.042 -1.05083 -4.26444 0
M  V30 3566 H 341.648 -2.50427 -3.43753 0
M  V30 3567 N 339.963 1.05934 -1.16686 0
M  V30 3568 C 340.873 2.17014 -0.891183 0
M  V30 3569 C 341.889 1.73453 0.137907 0
M  V30 3570 O 343.065 2.01361 -0.039592 0
M  V30 3571 C 340.13 3.44384 -0.400099 0
M  V30 3572 C 339.191 4.02433 -1.49486 0
M  V30 3573 C 338.424 5.23723 -1.02711 0
M  V30 3574 O 338.647 5.7027 0.121716 0
M  V30 3575 O 337.581 5.7382 -1.81699 0
M  V30 3576 H 341.407 2.43113 -1.82015 0
M  V30 3577 H 338.992 1.15541 -0.947132 0
M  V30 3578 H 340.874 4.21189 -0.133392 0
M  V30 3579 H 339.549 3.19802 0.500817 0
M  V30 3580 H 338.456 3.27102 -1.81535 0
M  V30 3581 H 339.789 4.31317 -2.37121 0
M  V30 3582 N 341.441 0.965919 1.2453 0
M  V30 3583 C 342.671 0.643451 1.96324 0
M  V30 3584 C 343.079 -0.790927 1.71875 0
M  V30 3585 O 342.422 -1.54208 0.998273 0
M  V30 3586 C 342.484 0.836078 3.49643 0
M  V30 3587 C 342.148 2.24975 3.97788 0
M  V30 3588 C 343.145 3.22735 4.07601 0
M  V30 3589 C 340.83 2.57697 4.31158 0
M  V30 3590 C 342.824 4.51303 4.50116 0
M  V30 3591 C 340.511 3.86492 4.73357 0
M  V30 3592 C 341.509 4.83107 4.828 0
M  V30 3593 O 341.197 6.09605 5.24058 0
M  V30 3594 H 340.929 0.239223 0.632257 0
M  V30 3595 H 343.483 1.29587 1.59362 0
M  V30 3596 H 341.713 0.12649 3.86493 0
M  V30 3597 H 343.402 0.512965 4.02646 0
M  V30 3598 H 344.168 2.98783 3.82039 0
M  V30 3599 H 340.047 1.83216 4.23028 0
M  V30 3600 H 343.591 5.26716 4.57401 0
M  V30 3601 H 339.488 4.10245 4.98366 0
M  V30 3602 H 340.256 6.13146 5.42213 0
M  V30 3603 N 342.919 -1.39368 0.735821 0
M  V30 3604 C 343.849 -2.33234 0.111506 0
M  V30 3605 C 344.83 -1.53954 -0.723334 0
M  V30 3606 O 346.015 -1.82344 -0.668147 0
M  V30 3607 C 343.145 -3.38057 -0.795917 0
M  V30 3608 C 342.099 -4.2795 -0.065172 0
M  V30 3609 C 341.425 -5.23479 -1.08967 0
M  V30 3610 C 342.725 -5.10741 1.09273 0
M  V30 3611 H 344.419 -2.85692 0.895571 0
M  V30 3612 H 341.965 -1.37364 0.432109 0
M  V30 3613 H 343.918 -4.02675 -1.24221 0
M  V30 3614 H 342.642 -2.8404 -1.61211 0
M  V30 3615 H 341.301 -3.64813 0.361511 0
M  V30 3616 H 340.949 -4.65758 -1.89944 0
M  V30 3617 H 340.649 -5.84472 -0.605489 0
M  V30 3618 H 342.173 -5.90974 -1.53565 0
M  V30 3619 H 343.587 -5.68699 0.724841 0
M  V30 3620 H 341.984 -5.8088 1.50659 0
M  V30 3621 H 343.054 -4.45525 1.91404 0
M  V30 3622 N 344.397 -0.483516 -1.5 0
M  V30 3623 C 345.644 0.0671597 -2.02389 0
M  V30 3624 C 345.972 1.38597 -1.36459 0
M  V30 3625 O 345.227 1.89634 -0.483458 0
M  V30 3626 C 345.526 0.286226 -3.56252 0
M  V30 3627 C 345.192 -0.952416 -4.40726 0
M  V30 3628 C 343.854 -1.29199 -4.63531 0
M  V30 3629 C 346.206 -1.77655 -4.89988 0
M  V30 3630 C 343.534 -2.45553 -5.32842 0
M  V30 3631 C 345.886 -2.93147 -5.60578 0
M  V30 3632 C 344.55 -3.27505 -5.81633 0
M  V30 3633 H 343.82 0.0245755 -0.740592 0
M  V30 3634 H 346.467 -0.640124 -1.80485 0
M  V30 3635 H 344.772 1.07587 -3.76739 0
M  V30 3636 H 346.469 0.726473 -3.94365 0
M  V30 3637 H 343.059 -0.677881 -4.23205 0
M  V30 3638 H 347.243 -1.52737 -4.72213 0
M  V30 3639 H 342.499 -2.72431 -5.47349 0
M  V30 3640 H 346.673 -3.57344 -5.97727 0
M  V30 3641 H 344.3 -4.1777 -6.35116 0
M  V30 3642 N 345.875 1.56104 -0.216619 0
M  V30 3643 C 346.785 2.23694 0.706982 0
M  V30 3644 C 347.801 1.24295 1.21765 0
M  V30 3645 O 348.977 1.57094 1.2603 0
M  V30 3646 C 346.042 2.8998 1.90033 0
M  V30 3647 C 345.103 4.04708 1.43213 0
M  V30 3648 C 344.336 4.67824 2.56859 0
M  V30 3649 O 344.559 4.29913 3.74874 0
M  V30 3650 O 343.493 5.56905 2.28343 0
M  V30 3651 H 347.319 3.03272 0.161235 0
M  V30 3652 H 344.904 1.49394 0.0136177 0
M  V30 3653 H 346.786 3.31837 2.59735 0
M  V30 3654 H 345.461 2.13365 2.43428 0
M  V30 3655 H 344.368 3.6743 0.70327 0
M  V30 3656 H 345.701 4.83051 0.944615 0
M  V30 3657 N 347.353 -0.0568162 1.57498 0
M  V30 3658 C 348.599 -0.75422 1.88253 0
M  V30 3659 C 348.932 -1.76461 0.810865 0
M  V30 3660 O 348.207 -1.93691 -0.177259 0
M  V30 3661 C 348.49 -1.44878 3.2967 0
M  V30 3662 C 348.343 -0.453789 4.47505 0
M  V30 3663 C 349.662 -2.38994 3.69554 0
M  V30 3664 H 346.781 -0.272724 0.684683 0
M  V30 3665 H 349.423 -0.0172113 1.89992 0
M  V30 3666 H 347.573 -2.077 3.28318 0
M  V30 3667 H 349.245 0.170371 4.60985 0
M  V30 3668 H 347.488 0.229552 4.33192 0
M  V30 3669 H 348.159 -0.977699 5.43273 0
M  V30 3670 H 350.635 -1.86239 3.72095 0
M  V30 3671 H 349.511 -2.84587 4.69363 0
M  V30 3672 H 349.772 -3.24461 3.00296 0
M  V30 3673 N 348.832 -1.54138 -0.328536 0
M  V30 3674 C 350.109 -1.62749 -1.08499 0
M  V30 3675 C 350.489 -0.458198 -2.06067 0
M  V30 3676 O 349.837 0.548046 -2.2183 0
M  V30 3677 C 350.047 -2.99519 -1.79135 0
M  V30 3678 C 351.395 -3.55394 -2.32337 0
M  V30 3679 O 352.419 -3.01792 -1.89209 0
M  V30 3680 O 351.278 -4.49186 -3.11279 0
M  V30 3681 H 348.372 -0.65886 -0.499832 0
M  V30 3682 H 350.918 -1.66484 -0.328826 0
M  V30 3683 H 349.69 -3.76061 -1.08139 0
M  V30 3684 H 349.313 -2.99441 -2.61574 0
M  V30 3685 N 350.31 0.590341 -1.46126 0
M  V30 3686 C 351.258 1.72105 -1.5647 0
M  V30 3687 C 352.252 1.63756 -0.433612 0
M  V30 3688 O 353.458 1.69342 -0.610194 0
M  V30 3689 H 349.833 0.568889 -0.491802 0
M  V30 3690 H 351.804 1.6051 -2.51553 0
M  V30 3691 C 350.553 3.10493 -1.56491 0
M  V30 3692 H 349.876 3.17583 -2.4286 0
M  V30 3693 H 351.316 3.8939 -1.67785 0
M  V30 3694 C 349.775 3.3563 -0.292231 0
M  V30 3695 O 350.305 3.96875 0.620739 0
M  V30 3696 N 348.511 2.90026 -0.182523 0
M  V30 3697 H 348.058 2.40367 -0.926356 0
M  V30 3698 H 348.016 3.07218 0.668152 0
M  V30 3699 N 351.788 1.33704 0.83433 0
M  V30 3700 C 352.718 1.26967 1.95963 0
M  V30 3701 C 353.699 0.149337 1.69443 0
M  V30 3702 O 354.884 0.339852 1.91203 0
M  V30 3703 C 352.014 1.01275 3.32206 0
M  V30 3704 C 350.968 2.09652 3.73136 0
M  V30 3705 C 350.294 1.69166 5.07235 0
M  V30 3706 C 351.594 3.51372 3.86439 0
M  V30 3707 H 353.288 2.2112 2.01857 0
M  V30 3708 H 350.834 1.06447 0.969793 0
M  V30 3709 H 352.787 0.952106 4.10503 0
M  V30 3710 H 351.511 0.0356203 3.26581 0
M  V30 3711 H 350.17 2.14766 2.97104 0
M  V30 3712 H 349.818 0.701437 4.98085 0
M  V30 3713 H 349.518 2.41694 5.35591 0
M  V30 3714 H 351.042 1.64576 5.88003 0
M  V30 3715 H 352.456 3.48734 4.55036 0
M  V30 3716 H 350.853 4.22425 4.26236 0
M  V30 3717 H 351.923 3.89546 2.88759 0
M  V30 3718 N 353.266 -1.05314 1.17247 0
M  V30 3719 C 354.494 -1.81971 0.984593 0
M  V30 3720 C 354.909 -1.82929 -0.467166 0
M  V30 3721 O 354.266 -1.25564 -1.32438 0
M  V30 3722 C 354.317 -3.28143 1.51672 0
M  V30 3723 O 354.038 -3.27347 2.91163 0
M  V30 3724 C 355.539 -4.21493 1.37326 0
M  V30 3725 H 352.759 -0.573455 0.348411 0
M  V30 3726 H 355.303 -1.32808 1.55506 0
M  V30 3727 H 353.458 -3.74582 0.988302 0
M  V30 3728 H 353.872 -4.18824 3.15732 0
M  V30 3729 H 355.346 -5.22043 1.79375 0
M  V30 3730 H 355.823 -4.38031 0.320169 0
M  V30 3731 H 356.429 -3.80909 1.89178 0
M  V30 3732 N 354.744 -0.972509 -1.24016 0
M  V30 3733 C 355.974 -0.653853 -1.9598 0
M  V30 3734 C 356.382 0.781801 -1.72292 0
M  V30 3735 O 355.725 1.53677 -1.00644 0
M  V30 3736 C 355.787 -0.854608 -3.49194 0
M  V30 3737 C 355.451 -2.27082 -3.96589 0
M  V30 3738 C 356.448 -3.24892 -4.05883 0
M  V30 3739 C 354.133 -2.5998 -4.29786 0
M  V30 3740 C 356.127 -4.53684 -4.47716 0
M  V30 3741 C 353.814 -3.88997 -4.71301 0
M  V30 3742 C 354.812 -4.85661 -4.80232 0
M  V30 3743 O 354.5 -6.12376 -5.20818 0
M  V30 3744 H 354.232 -0.242572 -0.630979 0
M  V30 3745 H 356.786 -1.30431 -1.58673 0
M  V30 3746 H 355.016 -0.146985 -3.86421 0
M  V30 3747 H 356.705 -0.534311 -4.02368 0
M  V30 3748 H 357.471 -3.00805 -3.80449 0
M  V30 3749 H 353.35 -1.85457 -4.22051 0
M  V30 3750 H 356.894 -5.29135 -4.54601 0
M  V30 3751 H 352.791 -4.12882 -4.96184 0
M  V30 3752 H 353.559 -6.16013 -5.38953 0
M  V30 3753 N 356.222 1.38976 -0.743202 0
M  V30 3754 C 357.468 2.0064 -0.295189 0
M  V30 3755 C 357.801 1.5885 1.11716 0
M  V30 3756 O 357.076 0.821181 1.76315 0
M  V30 3757 C 357.359 3.578 -0.406318 0
M  V30 3758 C 357.212 4.09586 -1.85903 0
M  V30 3759 C 358.531 4.39616 0.206439 0
M  V30 3760 H 355.65 0.728935 -0.108733 0
M  V30 3761 H 358.292 1.65067 -0.940897 0
M  V30 3762 H 356.442 3.88235 0.143419 0
M  V30 3763 H 358.114 3.89837 -2.46627 0
M  V30 3764 H 356.357 3.6284 -2.3776 0
M  V30 3765 H 357.028 5.18708 -1.888 0
M  V30 3766 H 359.504 4.15273 -0.262283 0
M  V30 3767 H 358.38 5.48812 0.0983819 0
M  V30 3768 H 358.641 4.22754 1.2935 0
M  V30 3769 N 357.7 0.491464 1.49741 0
M  V30 3770 C 358.632 -0.328609 2.26832 0
M  V30 3771 C 359.645 -0.939113 1.32983 0
M  V30 3772 O 360.834 -0.824067 1.58339 0
M  V30 3773 C 357.934 -1.47675 3.05033 0
M  V30 3774 C 357.107 -0.975305 4.26388 0
M  V30 3775 C 356.166 -1.99991 4.86714 0
M  V30 3776 O 355.192 -1.57229 5.47054 0
M  V30 3777 N 356.394 -3.32962 4.75517 0
M  V30 3778 H 359.159 0.332377 2.97851 0
M  V30 3779 H 356.72 0.323441 1.58636 0
M  V30 3780 H 358.712 -2.15954 3.42266 0
M  V30 3781 H 357.282 -2.04206 2.36683 0
M  V30 3782 H 356.502 -0.117723 3.94024 0
M  V30 3783 H 357.79 -0.618531 5.05026 0
M  V30 3784 H 357.188 -3.70399 4.27576 0
M  V30 3785 H 355.745 -3.96982 5.16961 0
M  V30 3786 N 359.178 -1.55987 0.224894 0
M  V30 3787 C 360.108 -2.23426 -0.678457 0
M  V30 3788 C 361.089 -1.20709 -1.19847 0
M  V30 3789 O 362.274 -1.49304 -1.24186 0
M  V30 3790 C 359.404 -2.91676 -1.88527 0
M  V30 3791 C 358.358 -4.00893 -1.49896 0
M  V30 3792 C 357.684 -4.56455 -2.78483 0
M  V30 3793 C 358.984 -5.17769 -0.686461 0
M  V30 3794 H 360.678 -2.99175 -0.116173 0
M  V30 3795 H 358.224 -1.43897 -0.054436 0
M  V30 3796 H 360.177 -3.37547 -2.5227 0
M  V30 3797 H 358.901 -2.1338 -2.47258 0
M  V30 3798 H 357.56 -3.55758 -0.884985 0
M  V30 3799 H 357.208 -3.74886 -3.35365 0
M  V30 3800 H 356.908 -5.30169 -2.53368 0
M  V30 3801 H 358.432 -5.05047 -3.43162 0
M  V30 3802 H 359.846 -5.60001 -1.22767 0
M  V30 3803 H 358.243 -5.97735 -0.532259 0
M  V30 3804 H 359.313 -4.83932 0.306196 0
M  V30 3805 N 360.656 0.0484629 -1.57525 0
M  V30 3806 C 361.566 1.07241 -2.08654 0
M  V30 3807 C 362.582 1.409 -1.02095 0
M  V30 3808 O 363.758 1.50609 -1.33712 0
M  V30 3809 C 360.823 2.36008 -2.5397 0
M  V30 3810 C 359.884 2.09108 -3.7493 0
M  V30 3811 C 359.117 3.31736 -4.18075 0
M  V30 3812 O 359.34 4.41714 -3.60895 0
M  V30 3813 O 358.274 3.18576 -5.10679 0
M  V30 3814 H 362.1 0.667965 -2.96263 0
M  V30 3815 H 359.685 0.26417 -1.47046 0
M  V30 3816 H 361.567 3.11747 -2.83535 0
M  V30 3817 H 360.242 2.75786 -1.69481 0
M  V30 3818 H 359.149 1.31 -3.50414 0
M  V30 3819 H 360.482 1.74198 -4.60343 0
M  V30 3820 N 362.134 1.5431 0.320358 0
M  V30 3821 C 363.359 1.76954 1.08175 0
M  V30 3822 C 363.784 0.518193 1.80821 0
M  V30 3823 O 363.142 -0.530411 1.73368 0
M  V30 3824 C 363.19 2.96451 2.05303 0
M  V30 3825 O 362.294 2.68221 3.13259 0
M  V30 3826 H 361.635 0.586275 0.311733 0
M  V30 3827 H 364.165 2.01342 0.363676 0
M  V30 3828 H 364.175 3.23887 2.48116 0
M  V30 3829 H 362.85 3.87196 1.51829 0
M  V30 3830 H 361.427 2.51744 2.75099 0
M  V30 3831 N 363.613 -0.582584 1.46437 0
M  V30 3832 C 365.029 -0.905962 1.31394 0
M  V30 3833 C 365.229 -1.99468 0.285476 0
M  V30 3834 O 364.285 -2.50566 -0.311914 0
M  V30 3835 C 365.598 -1.3232 2.70022 0
M  V30 3836 C 367.146 -1.43604 2.78113 0
M  V30 3837 C 367.621 -1.88694 4.17323 0
M  V30 3838 N 369.112 -1.95887 4.19741 0
M  V30 3839 C 369.847 -2.32051 5.24347 0
M  V30 3840 N 369.343 -2.67006 6.39281 0
M  V30 3841 N 371.136 -2.32606 5.11713 0
M  V30 3842 H 363.287 0.1366 2.1196 0
M  V30 3843 H 365.55 -0.00155736 0.947999 0
M  V30 3844 H 365.256 -0.597242 3.46592 0
M  V30 3845 H 365.13 -2.28469 3.00136 0
M  V30 3846 H 367.517 -2.15286 2.01832 0
M  V30 3847 H 367.598 -0.457059 2.51684 0
M  V30 3848 H 367.242 -1.1759 4.941 0
M  V30 3849 H 367.172 -2.8755 4.4116 0
M  V30 3850 H 369.663 -1.71362 3.36814 0
M  V30 3851 H 369.976 -2.93554 7.14875 0
M  V30 3852 H 368.321 -2.64644 6.42642 0
M  V30 3853 H 371.512 -2.04721 4.2096 0
M  V30 3854 H 371.685 -2.60462 5.93349 0
M  V30 3855 N 365.091 -1.34144 -0.827227 0
M  V30 3856 C 366.338 -1.26258 -1.58319 0
M  V30 3857 C 366.666 0.168595 -1.93768 0
M  V30 3858 O 365.921 1.12877 -1.59866 0
M  V30 3859 C 366.22 -2.09464 -2.89585 0
M  V30 3860 C 365.886 -3.58521 -2.73448 0
M  V30 3861 C 364.548 -3.99155 -2.68754 0
M  V30 3862 C 366.9 -4.53189 -2.57428 0
M  V30 3863 C 364.228 -5.32656 -2.45957 0
M  V30 3864 C 366.58 -5.86864 -2.36163 0
M  V30 3865 C 365.244 -6.26667 -2.29879 0
M  V30 3866 H 364.514 -0.462013 -0.579332 0
M  V30 3867 H 367.161 -1.65845 -0.95748 0
M  V30 3868 H 365.466 -1.62692 -3.56425 0
M  V30 3869 H 367.163 -2.00712 -3.47154 0
M  V30 3870 H 363.753 -3.26264 -2.77939 0
M  V30 3871 H 367.937 -4.22696 -2.60081 0
M  V30 3872 H 363.193 -5.62519 -2.39546 0
M  V30 3873 H 367.367 -6.59813 -2.22754 0
M  V30 3874 H 364.994 -7.30049 -2.11975 0
M  V30 3875 N 366.569 1.04691 -1.17803 0
M  V30 3876 C 367.797 1.81446 -0.99423 0
M  V30 3877 C 368.212 1.83174 0.457459 0
M  V30 3878 O 367.569 1.26265 1.31771 0
M  V30 3879 C 367.62 3.27334 -1.5341 0
M  V30 3880 O 367.341 3.25798 -2.92895 0
M  V30 3881 C 368.842 4.20759 -1.39559 0
M  V30 3882 H 366.062 0.571599 -0.351447 0
M  V30 3883 H 368.606 1.31982 -1.56208 0
M  V30 3884 H 366.761 3.74052 -1.00815 0
M  V30 3885 H 367.175 4.17144 -3.17949 0
M  V30 3886 H 368.649 5.21084 -1.82141 0
M  V30 3887 H 369.126 4.37856 -0.343394 0
M  V30 3888 H 369.732 3.79901 -1.91195 0
M  V30 3889 N 368.047 0.979072 1.23499 0
M  V30 3890 C 369.458 0.684391 1.73704 0
M  V30 3891 C 369.809 -0.799448 1.79174 0
M  V30 3892 O 368.934 -1.62531 1.42873 0
M  V30 3893 C 369.529 1.23564 3.15464 0
M  V30 3894 C 368.088 0.99063 3.6313 0
M  V30 3895 C 367.235 1.36416 2.41425 0
M  V30 3896 H 370.186 1.15307 1.09041 0
M  V30 3897 H 370.207 0.607417 3.7562 0
M  V30 3898 H 369.719 2.31561 3.1145 0
M  V30 3899 H 367.82 -0.0733136 3.72528 0
M  V30 3900 H 367.933 1.64427 4.5 0
M  V30 3901 H 366.297 0.782616 2.42378 0
M  V30 3902 H 367.08 2.45387 2.40083 0
M  V30 3903 N 369.525 -1.3858 0.750561 0
M  V30 3904 C 370.457 -2.29057 0.0810714 0
M  V30 3905 C 371.47 -1.47596 -0.686973 0
M  V30 3906 O 372.659 -1.70495 -0.528563 0
M  V30 3907 C 369.759 -3.26475 -0.909247 0
M  V30 3908 C 368.932 -4.36945 -0.199478 0
M  V30 3909 C 367.991 -5.14572 -1.10011 0
M  V30 3910 O 367.017 -5.66321 -0.57177 0
M  V30 3911 N 368.219 -5.27262 -2.42849 0
M  V30 3912 H 370.984 -2.87153 0.858087 0
M  V30 3913 H 368.545 -1.50328 0.60109 0
M  V30 3914 H 370.537 -3.75285 -1.51471 0
M  V30 3915 H 369.107 -2.69298 -1.58736 0
M  V30 3916 H 368.327 -3.8981 0.586664 0
M  V30 3917 H 369.615 -5.07963 0.291783 0
M  V30 3918 H 369.013 -4.86763 -2.88233 0
M  V30 3919 H 367.57 -5.79456 -2.98453 0
M  V30 3920 N 371.003 -0.499398 -1.49478 0
M  V30 3921 C 372.25 0.0456899 -2.02448 0
M  V30 3922 C 372.578 1.37142 -1.37921 0
M  V30 3923 O 371.833 1.89111 -0.503544 0
M  V30 3924 C 372.132 0.248424 -3.56536 0
M  V30 3925 C 371.798 -0.999107 -4.39692 0
M  V30 3926 C 370.46 -1.34108 -4.62135 0
M  V30 3927 C 372.812 -1.82842 -4.88076 0
M  V30 3928 C 370.14 -2.51191 -5.30208 0
M  V30 3929 C 372.492 -2.99076 -5.57437 0
M  V30 3930 C 371.156 -3.33655 -5.78127 0
M  V30 3931 H 370.426 0.0167191 -0.740811 0
M  V30 3932 H 373.073 -0.65923 -1.79795 0
M  V30 3933 H 371.378 1.03586 -3.77859 0
M  V30 3934 H 373.075 0.684605 -3.95113 0
M  V30 3935 H 369.665 -0.722729 -4.22463 0
M  V30 3936 H 373.849 -1.57737 -4.70566 0
M  V30 3937 H 369.105 -2.78221 -5.44429 0
M  V30 3938 H 373.279 -3.63664 -5.93904 0
M  V30 3939 H 370.906 -4.24483 -6.30649 0
M  V30 3940 N 372.481 1.55866 -0.233164 0
M  V30 3941 C 373.411 2.23783 0.666599 0
M  V30 3942 C 374.392 1.21343 1.19205 0
M  V30 3943 O 375.577 1.4996 1.23392 0
M  V30 3944 C 372.707 2.92671 1.86978 0
M  V30 3945 C 371.661 4.01682 1.47768 0
M  V30 3946 C 370.987 4.57926 2.76058 0
M  V30 3947 C 372.287 5.18126 0.658993 0
M  V30 3948 H 373.981 2.99232 0.100306 0
M  V30 3949 H 371.527 1.43924 0.046804 0
M  V30 3950 H 373.48 3.3888 2.50476 0
M  V30 3951 H 372.204 2.14688 2.46123 0
M  V30 3952 H 370.863 3.56222 0.866106 0
M  V30 3953 H 370.511 3.76659 3.33372 0
M  V30 3954 H 370.211 5.31505 2.50552 0
M  V30 3955 H 371.735 5.06859 3.40479 0
M  V30 3956 H 373.149 5.60644 1.19795 0
M  V30 3957 H 371.546 5.98009 0.500552 0
M  V30 3958 H 372.616 4.83763 -0.331856 0
M  V30 3959 N 373.959 -0.0401083 1.57549 0
M  V30 3960 C 374.889 -1.04384 2.08869 0
M  V30 3961 C 375.87 -1.38407 0.988817 0
M  V30 3962 O 377.055 -1.47483 1.26342 0
M  V30 3963 C 374.185 -2.34808 2.55895 0
M  V30 3964 C 373.139 -2.15057 3.70047 0
M  V30 3965 C 372.465 -3.51145 4.03239 0
M  V30 3966 C 373.765 -1.54576 4.98902 0
M  V30 3967 H 375.459 -0.616666 2.92981 0
M  V30 3968 H 373.005 -0.295184 1.40942 0
M  V30 3969 H 374.958 -3.05346 2.90417 0
M  V30 3970 H 373.682 -2.79565 1.68853 0
M  V30 3971 H 372.341 -1.46954 3.35857 0
M  V30 3972 H 371.989 -3.93529 3.13279 0
M  V30 3973 H 371.689 -3.38758 4.80122 0
M  V30 3974 H 373.213 -4.23062 4.40285 0
M  V30 3975 H 374.627 -2.15017 5.31451 0
M  V30 3976 H 373.024 -1.52796 5.80322 0
M  V30 3977 H 374.094 -0.51039 4.82206 0
M  V30 3978 N 375.437 -1.54477 -0.31217 0
M  V30 3979 C 376.369 -1.81011 -1.40598 0
M  V30 3980 C 377.382 -0.692546 -1.47335 0
M  V30 3981 O 378.571 -0.969847 -1.49854 0
M  V30 3982 C 375.671 -1.92307 -2.79054 0
M  V30 3983 C 374.844 -3.22594 -2.95384 0
M  V30 3984 C 373.903 -3.24448 -4.1427 0
M  V30 3985 O 372.929 -3.98035 -4.06887 0
M  V30 3986 N 374.131 -2.49042 -5.24365 0
M  V30 3987 H 376.896 -2.75408 -1.18196 0
M  V30 3988 H 374.457 -1.53914 -0.502202 0
M  V30 3989 H 376.449 -1.90962 -3.56813 0
M  V30 3990 H 375.019 -1.04955 -2.94454 0
M  V30 3991 H 374.239 -3.36806 -2.04831 0
M  V30 3992 H 375.527 -4.08593 -3.03198 0
M  V30 3993 H 374.925 -1.88867 -5.33241 0
M  V30 3994 H 373.482 -2.53463 -6.005 0
M  V30 3995 N 376.915 0.57481 -1.46744 0
M  V30 3996 C 377.845 1.69337 -1.60771 0
M  V30 3997 C 378.826 1.63825 -0.457736 0
M  V30 3998 O 380.011 1.8172 -0.684947 0
M  V30 3999 C 377.141 3.0798 -1.60517 0
M  V30 4000 C 376.095 3.28327 -2.74564 0
M  V30 4001 C 375.421 4.67578 -2.59373 0
M  V30 4002 C 376.721 3.15398 -4.16319 0
M  V30 4003 H 378.415 1.57853 -2.54407 0
M  V30 4004 H 375.961 0.75799 -1.22436 0
M  V30 4005 H 377.914 3.86061 -1.68923 0
M  V30 4006 H 376.638 3.20381 -0.634305 0
M  V30 4007 H 375.297 2.52649 -2.65639 0
M  V30 4008 H 374.945 4.76755 -1.60353 0
M  V30 4009 H 374.645 4.82144 -3.35873 0
M  V30 4010 H 376.169 5.47817 -2.69682 0
M  V30 4011 H 377.583 3.83315 -4.26313 0
M  V30 4012 H 375.98 3.41482 -4.93468 0
M  V30 4013 H 377.05 2.12372 -4.3592 0
M  V30 4014 N 378.394 1.34581 0.820102 0
M  V30 4015 C 379.342 1.26401 1.95258 0
M  V30 4016 C 380.336 0.161553 1.68628 0
M  V30 4017 O 381.542 0.326703 1.7701 0
M  V30 4018 H 377.917 0.392749 0.64129 0
M  V30 4019 H 379.888 2.22105 1.99279 0
M  V30 4020 C 378.637 1.03919 3.31807 0
M  V30 4021 H 377.96 1.87984 3.52848 0
M  V30 4022 H 379.4 1.02232 4.11491 0
M  V30 4023 C 377.859 -0.257433 3.35915 0
M  V30 4024 O 378.389 -1.25784 3.81499 0
M  V30 4025 N 376.595 -0.291524 2.89134 0
M  V30 4026 H 376.142 0.523161 2.52232 0
M  V30 4027 H 376.1 -1.15883 2.92264 0
M  V30 4028 N 379.872 -1.04064 1.18357 0
M  V30 4029 C 380.782 -2.15569 0.925596 0
M  V30 4030 C 381.798 -1.7365 -0.110295 0
M  V30 4031 O 382.974 -2.01273 0.0716218 0
M  V30 4032 C 380.039 -3.43704 0.454836 0
M  V30 4033 C 379.1 -4.00004 1.55869 0
M  V30 4034 C 378.333 -5.22023 1.1103 0
M  V30 4035 O 378.556 -5.70392 -0.0309756 0
M  V30 4036 O 377.49 -5.70856 1.90805 0
M  V30 4037 H 381.316 -2.40187 1.8586 0
M  V30 4038 H 378.901 -1.1402 0.965394 0
M  V30 4039 H 380.783 -4.20923 0.200382 0
M  V30 4040 H 379.458 -3.20559 -0.449876 0
M  V30 4041 H 378.365 -3.24172 1.86716 0
M  V30 4042 H 379.698 -4.2749 2.43953 0
M  V30 4043 N 381.35 -0.985608 -1.22978 0
M  V30 4044 C 382.578 -0.675582 -1.95559 0
M  V30 4045 C 382.993 0.758413 -1.72897 0
M  V30 4046 O 382.35 1.51094 -1.02357 0
M  V30 4047 C 382.401 -0.96293 -3.48439 0
M  V30 4048 O 382.122 -2.34057 -3.70336 0
M  V30 4049 C 383.623 -0.669585 -4.38214 0
M  V30 4050 H 380.843 -0.250523 -0.622478 0
M  V30 4051 H 383.387 -1.3184 -1.56328 0
M  V30 4052 H 381.542 -0.366033 -3.85667 0
M  V30 4053 H 381.956 -2.43424 -4.64591 0
M  V30 4054 H 383.43 -0.920967 -5.44263 0
M  V30 4055 H 383.907 0.396383 -4.37408 0
M  V30 4056 H 384.513 -1.2472 -4.06602 0
M  V30 4057 N 382.828 1.3818 -0.7579 0
M  V30 4058 C 384.077 1.99261 -0.312744 0
M  V30 4059 C 384.39 1.60846 1.11301 0
M  V30 4060 O 385.596 2.14929 1.65885 0
M  V30 4061 C 384.052 3.56294 -0.50821 0
M  V30 4062 C 383.66 4.03657 -1.94333 0
M  V30 4063 C 385.404 4.24313 -0.125982 0
M  V30 4064 C 383.311 5.53347 -2.08712 0
M  V30 4065 H 382.241 0.745456 -0.113185 0
M  V30 4066 H 384.892 1.57889 -0.935056 0
M  V30 4067 H 383.274 3.95575 0.183353 0
M  V30 4068 H 384.448 3.75655 -2.66871 0
M  V30 4069 H 382.763 3.48376 -2.28086 0
M  V30 4070 H 385.36 5.34279 -0.212125 0
M  V30 4071 H 385.703 4.05962 0.921964 0
M  V30 4072 H 386.236 3.90285 -0.769563 0
M  V30 4073 H 382.975 5.76607 -3.11777 0
M  V30 4074 H 382.495 5.83078 -1.4064 0
M  V30 4075 H 384.174 6.19111 -1.87912 0
M  V30 4076 N 384.306 0.507319 1.49211 0
M  V30 4077 C 385.536 -0.0315292 2.06576 0
M  V30 4078 C 385.944 -1.30791 1.36713 0
M  V30 4079 O 385.287 -1.78324 0.441181 0
M  V30 4080 C 385.349 -0.349104 3.57801 0
M  V30 4081 C 385.013 0.830475 4.49391 0
M  V30 4082 C 386.01 1.72271 4.90529 0
M  V30 4083 C 383.695 1.03107 4.91604 0
M  V30 4084 C 385.689 2.79964 5.72625 0
M  V30 4085 C 383.376 2.11116 5.73475 0
M  V30 4086 C 384.374 2.99379 6.1389 0
M  V30 4087 O 384.062 4.05523 6.94123 0
M  V30 4088 H 383.794 0.0201002 0.675701 0
M  V30 4089 H 386.348 0.705737 1.92895 0
M  V30 4090 H 384.578 -1.14005 3.69513 0
M  V30 4091 H 386.267 -0.827319 3.97379 0
M  V30 4092 H 387.033 1.57958 4.58557 0
M  V30 4093 H 382.912 0.353417 4.59643 0
M  V30 4094 H 386.456 3.48884 6.04091 0
M  V30 4095 H 382.353 2.25421 6.0486 0
M  V30 4096 H 383.121 4.02953 7.1244 0
M  V30 4097 N 385.784 -1.5574 0.241426 0
M  V30 4098 C 387.012 -2.03208 -0.389134 0
M  V30 4099 C 387.427 -1.12082 -1.51931 0
M  V30 4100 O 386.784 -0.134183 -1.82006 0
M  V30 4101 C 386.835 -3.50064 -0.902087 0
M  V30 4102 O 386.556 -4.37717 0.18305 0
M  V30 4103 C 388.057 -4.13268 -1.60389 0
M  V30 4104 H 385.277 -0.664509 -0.0931053 0
M  V30 4105 H 387.821 -2.0124 0.36369 0
M  V30 4106 H 385.976 -3.52583 -1.60511 0
M  V30 4107 H 386.39 -5.24097 -0.205579 0
M  V30 4108 H 387.864 -5.17733 -1.91458 0
M  V30 4109 H 388.341 -3.59434 -2.52397 0
M  V30 4110 H 388.947 -4.14655 -0.945576 0
M  V30 4111 N 387.262 0.0317525 -1.57568 0
M  V30 4112 C 388.487 0.738664 -1.938 0
M  V30 4113 C 388.912 1.68242 -0.841208 0
M  V30 4114 O 388.27 1.80157 0.203267 0
M  V30 4115 C 388.318 1.47417 -3.29091 0
M  V30 4116 O 387.422 2.5872 -3.2115 0
M  V30 4117 H 386.763 0.198856 -0.633524 0
M  V30 4118 H 389.293 -0.0119713 -2.04596 0
M  V30 4119 H 389.303 1.84468 -3.63917 0
M  V30 4120 H 387.978 0.781988 -4.08482 0
M  V30 4121 H 386.555 2.24231 -2.97951 0
M  V30 4122 N 388.74 1.54641 0.303973 0
M  V30 4123 C 389.988 1.73437 1.0375 0
M  V30 4124 C 390.309 0.521449 1.87899 0
M  V30 4125 O 389.579 -0.46432 1.90318 0
M  V30 4126 H 388.159 0.639518 0.386039 0
M  V30 4127 H 390.821 1.91988 0.335675 0
M  V30 4128 H 389.917 2.62235 1.69231 0
M  V30 4129 N 390.218 -0.567019 1.47046 0
M  V30 4130 C 391.165 -1.67489 1.58796 0
M  V30 4131 C 392.135 -1.60399 0.43144 0
M  V30 4132 O 393.32 -1.79378 0.650233 0
M  V30 4133 C 390.46 -3.05821 1.59899 0
M  V30 4134 C 389.573 -3.2342 2.86397 0
M  V30 4135 C 388.708 -4.52093 2.789 0
M  V30 4136 C 387.747 -4.6309 4.00267 0
M  V30 4137 N 386.884 -5.83106 3.91064 0
M  V30 4138 H 391.724 -1.56785 2.53422 0
M  V30 4139 H 389.261 -0.763896 1.2571 0
M  V30 4140 H 391.219 -3.8591 1.58522 0
M  V30 4141 H 389.849 -3.15384 0.687929 0
M  V30 4142 H 388.901 -2.3683 2.97684 0
M  V30 4143 H 390.213 -3.27412 3.76301 0
M  V30 4144 H 389.367 -5.4043 2.75718 0
M  V30 4145 H 388.106 -4.50565 1.86662 0
M  V30 4146 H 387.111 -3.73168 4.03765 0
M  V30 4147 H 388.336 -4.66386 4.93621 0
M  V30 4148 H 386.282 -5.82546 3.01623 0
M  V30 4149 H 386.199 -5.88434 4.74638 0
M  V30 4150 H 387.467 -6.73831 3.91882 0
M  V30 4151 N 391.696 -1.35014 -0.812953 0
M  V30 4152 C 393.112 -1.14914 -1.10757 0
M  V30 4153 C 393.312 0.0426818 -2.01455 0
M  V30 4154 O 392.368 0.715212 -2.42159 0
M  V30 4155 C 393.681 -2.44911 -1.74468 0
M  V30 4156 C 395.229 -2.5106 -1.86917 0
M  V30 4157 C 395.704 -3.81085 -2.54044 0
M  V30 4158 N 397.195 -3.82301 -2.61535 0
M  V30 4159 C 397.93 -4.79634 -3.14227 0
M  V30 4160 N 397.426 -5.87353 -3.67407 0
M  V30 4161 N 399.219 -4.67078 -3.12721 0
M  V30 4162 H 391.37 -2.1136 -0.20989 0
M  V30 4163 H 393.633 -0.935128 -0.155692 0
M  V30 4164 H 393.339 -3.32267 -1.15289 0
M  V30 4165 H 393.213 -2.58989 -2.74234 0
M  V30 4166 H 395.6 -1.64137 -2.45241 0
M  V30 4167 H 395.681 -2.40901 -0.860242 0
M  V30 4168 H 395.325 -4.68402 -1.96372 0
M  V30 4169 H 395.255 -3.88529 -3.55461 0
M  V30 4170 H 397.746 -3.04465 -2.23851 0
M  V30 4171 H 398.059 -6.57624 -4.05894 0
M  V30 4172 H 396.404 -5.91054 -3.65623 0
M  V30 4173 H 399.595 -3.82067 -2.70449 0
M  V30 4174 H 399.768 -5.43098 -3.53481 0
M  V30 4175 N 393.175 1.03435 -1.18907 0
M  V30 4176 C 394.4 1.80919 -1.01406 0
M  V30 4177 C 394.825 1.83055 0.432721 0
M  V30 4178 O 394.183 1.25252 1.31079 0
M  V30 4179 C 394.231 3.24091 -1.58105 0
M  V30 4180 O 393.335 4.04434 -0.806669 0
M  V30 4181 H 392.676 0.558709 -0.358803 0
M  V30 4182 H 395.206 1.30223 -1.57807 0
M  V30 4183 H 395.216 3.74853 -1.61087 0
M  V30 4184 H 393.891 3.21851 -2.6341 0
M  V30 4185 H 392.468 3.63091 -0.849666 0
M  V30 4186 N 394.653 0.992116 1.22453 0
M  V30 4187 C 395.601 0.534644 2.26372 0
M  V30 4188 C 396.595 -0.414293 1.64256 0
M  V30 4189 O 397.801 -0.286899 1.77699 0
M  V30 4190 H 394.176 0.154502 0.735957 0
M  V30 4191 H 396.147 1.42256 2.62309 0
M  V30 4192 C 394.896 -0.135815 3.47435 0
M  V30 4193 H 394.219 0.585311 3.95492 0
M  V30 4194 H 395.659 -0.419374 4.21921 0
M  V30 4195 C 394.118 -1.37089 3.07747 0
M  V30 4196 O 394.648 -2.46629 3.17076 0
M  V30 4197 N 392.854 -1.24585 2.62539 0
M  V30 4198 H 392.401 -0.354542 2.55149 0
M  V30 4199 H 392.359 -2.07327 2.36353 0
M  V30 4200 N 396.131 -1.37776 0.765217 0
M  V30 4201 C 397.359 -2.04124 0.337767 0
M  V30 4202 C 397.774 -1.57715 -1.03785 0
M  V30 4203 O 397.131 -0.755447 -1.6613 0
M  V30 4204 C 397.182 -3.59658 0.364442 0
M  V30 4205 O 396.903 -4.04367 1.68579 0
M  V30 4206 C 398.404 -4.43236 -0.0754221 0
M  V30 4207 H 395.624 -0.655696 0.142491 0
M  V30 4208 H 398.168 -1.76238 1.03732 0
M  V30 4209 H 396.323 -3.86339 -0.286471 0
M  V30 4210 H 396.737 -4.98857 1.61993 0
M  V30 4211 H 398.211 -5.52 -0.00560067 0
M  V30 4212 H 398.688 -4.2455 -1.12491 0
M  V30 4213 H 399.294 -4.21767 0.547055 0
M  V30 4214 N 397.609 -0.515225 -1.4894 0
M  V30 4215 C 398.837 0.0206034 -2.0689 0
M  V30 4216 C 399.252 1.29514 -1.37374 0
M  V30 4217 O 398.609 1.76698 -0.456529 0
M  V30 4218 C 398.66 0.26351 -3.60538 0
M  V30 4219 O 398.381 -0.960517 -4.27441 0
M  V30 4220 C 399.882 0.841383 -4.35242 0
M  V30 4221 H 397.102 -0.0268608 -0.670462 0
M  V30 4222 H 399.646 -0.716651 -1.91532 0
M  V30 4223 H 397.801 0.950777 -3.75552 0
M  V30 4224 H 398.215 -0.73212 -5.19365 0
M  V30 4225 H 399.689 0.96085 -5.43573 0
M  V30 4226 H 400.166 1.8427 -3.98674 0
M  V30 4227 H 400.772 0.191143 -4.2487 0
M  V30 4228 N 399.087 1.5561 -0.249682 0
M  V30 4229 C 400.335 1.98618 0.373548 0
M  V30 4230 C 400.656 1.13919 1.58264 0
M  V30 4231 O 399.926 0.222637 1.94631 0
M  V30 4232 H 398.506 0.733571 0.141006 0
M  V30 4233 H 401.168 1.91748 -0.349117 0
M  V30 4234 H 400.264 3.04584 0.680796 0
M  V30 4235 N 400.565 -0.0233959 1.57583 0
M  V30 4236 C 401.512 -1.02224 2.06927 0
M  V30 4237 C 402.482 -1.35575 0.959617 0
M  V30 4238 O 403.667 -1.45815 1.23055 0
M  V30 4239 C 400.807 -2.31636 2.5581 0
M  V30 4240 C 399.92 -2.04394 3.80588 0
M  V30 4241 C 399.055 -3.27717 4.18061 0
M  V30 4242 C 398.094 -2.96056 5.3574 0
M  V30 4243 N 397.231 -4.11847 5.68618 0
M  V30 4244 H 402.071 -0.594504 2.9201 0
M  V30 4245 H 399.608 -0.281921 1.44373 0
M  V30 4246 H 401.566 -3.07258 2.82221 0
M  V30 4247 H 400.196 -2.72122 1.73636 0
M  V30 4248 H 399.248 -1.19244 3.61227 0
M  V30 4249 H 400.56 -1.77042 4.66323 0
M  V30 4250 H 399.714 -4.11702 4.4563 0
M  V30 4251 H 398.453 -3.58188 3.30988 0
M  V30 4252 H 397.458 -2.10474 5.07918 0
M  V30 4253 H 398.683 -2.66857 6.24471 0
M  V30 4254 H 396.629 -4.42258 4.84504 0
M  V30 4255 H 396.546 -3.87938 6.48876 0
M  V30 4256 H 397.814 -4.96689 6.00766 0
M  V30 4257 N 402.043 -1.548 -0.295768 0
M  V30 4258 C 402.973 -1.89115 -1.36959 0
M  V30 4259 C 403.954 -0.75059 -1.52644 0
M  V30 4260 O 405.139 -1.00678 -1.66065 0
M  V30 4261 C 402.269 -2.14307 -2.73295 0
M  V30 4262 C 401.223 -3.30151 -2.72368 0
M  V30 4263 C 400.549 -3.40772 -4.12042 0
M  V30 4264 C 401.849 -4.67126 -2.33646 0
M  V30 4265 H 403.543 -2.79053 -1.08488 0
M  V30 4266 H 401.089 -1.34266 -0.520443 0
M  V30 4267 H 403.042 -2.36898 -3.48507 0
M  V30 4268 H 401.766 -1.21145 -3.03301 0
M  V30 4269 H 400.425 -3.0749 -1.99613 0
M  V30 4270 H 400.073 -2.45117 -4.39234 0
M  V30 4271 H 399.773 -4.18645 -4.12322 0
M  V30 4272 H 401.297 -3.6563 -4.89027 0
M  V30 4273 H 402.711 -4.89414 -2.98575 0
M  V30 4274 H 401.108 -5.47751 -2.45129 0
M  V30 4275 H 402.178 -4.67489 -1.28772 0
M  V30 4276 N 403.521 0.559213 -1.47345 0
M  V30 4277 C 404.77 1.31281 -1.53128 0
M  V30 4278 C 405.083 1.94602 -0.197344 0
M  V30 4279 O 406.289 2.71173 -0.133154 0
M  V30 4280 C 404.745 2.38051 -2.69925 0
M  V30 4281 C 404.353 1.8093 -4.0984 0
M  V30 4282 C 406.097 3.14604 -2.84999 0
M  V30 4283 C 404.004 2.85468 -5.1794 0
M  V30 4284 H 402.934 0.493614 -0.569966 0
M  V30 4285 H 405.585 0.594155 -1.73615 0
M  V30 4286 H 403.967 3.12822 -2.42814 0
M  V30 4287 H 405.141 1.12544 -4.46845 0
M  V30 4288 H 403.456 1.16967 -3.99634 0
M  V30 4289 H 406.053 3.92666 -3.62929 0
M  V30 4290 H 406.396 3.68665 -1.93369 0
M  V30 4291 H 406.929 2.46945 -3.1187 0
M  V30 4292 H 403.668 2.36264 -6.1144 0
M  V30 4293 H 403.188 3.52269 -4.85455 0
M  V30 4294 H 404.867 3.48996 -5.44803 0
M  V30 4295 N 404.999 1.35443 0.805782 0
M  V30 4296 C 406.245 1.2996 1.56467 0
M  V30 4297 C 406.6 -0.124742 1.91995 0
M  V30 4298 O 405.893 -1.07533 1.58579 0
M  V30 4299 C 406.087 2.14045 2.86216 0
M  V30 4300 C 405.916 3.64512 2.63365 0
M  V30 4301 C 404.686 4.33744 2.59219 0
M  V30 4302 C 406.884 4.58142 2.33688 0
M  V30 4303 N 404.866 5.69953 2.28094 0
M  V30 4304 C 406.237 5.8248 2.12408 0
M  V30 4305 C 408.292 4.46877 2.19558 0
M  V30 4306 C 406.995 6.96818 1.78429 0
M  V30 4307 C 409.021 5.61065 1.86976 0
M  V30 4308 C 408.383 6.84431 1.66532 0
M  V30 4309 H 404.482 0.530817 0.574245 0
M  V30 4310 H 407.066 1.70333 0.943126 0
M  V30 4311 H 405.237 1.75942 3.46264 0
M  V30 4312 H 406.969 2.00075 3.51784 0
M  V30 4313 H 403.724 3.86365 2.73896 0
M  V30 4314 H 404.148 6.41845 2.15323 0
M  V30 4315 H 408.79 3.52102 2.34061 0
M  V30 4316 H 406.508 7.91559 1.62664 0
M  V30 4317 H 410.094 5.54302 1.7675 0
M  V30 4318 H 408.974 7.71294 1.41688 0
M  V30 4319 N 406.477 -1.02803 1.19454 0
M  V30 4320 C 407.424 -2.11099 0.933046 0
M  V30 4321 C 408.394 -1.65571 -0.132447 0
M  V30 4322 O 409.579 -1.90797 0.00987576 0
M  V30 4323 C 406.719 -3.41763 0.478747 0
M  V30 4324 C 405.832 -4.00833 1.6111 0
M  V30 4325 C 404.967 -5.19511 1.10825 0
M  V30 4326 C 404.006 -5.70639 2.21445 0
M  V30 4327 N 403.143 -6.80589 1.72461 0
M  V30 4328 H 407.983 -2.32804 1.86028 0
M  V30 4329 H 405.52 -1.14179 0.927441 0
M  V30 4330 H 407.478 -4.16736 0.196745 0
M  V30 4331 H 406.108 -3.20166 -0.411493 0
M  V30 4332 H 405.16 -3.23066 2.00829 0
M  V30 4333 H 406.472 -4.34794 2.4445 0
M  V30 4334 H 405.626 -6.01645 0.781533 0
M  V30 4335 H 404.365 -4.87086 0.244606 0
M  V30 4336 H 403.37 -4.87116 2.54947 0
M  V30 4337 H 404.595 -6.05102 3.08267 0
M  V30 4338 H 402.541 -6.50016 0.884056 0
M  V30 4339 H 402.458 -7.13681 2.49389 0
M  V30 4340 H 403.726 -7.66317 1.42755 0
M  V30 4341 N 407.956 -0.998596 -1.21925 0
M  V30 4342 C 409.202 -0.678667 -1.91107 0
M  V30 4343 C 409.535 0.78791 -1.77498 0
M  V30 4344 O 408.81 1.57043 -1.1475 0
M  V30 4345 C 409.093 -1.09245 -3.43129 0
M  V30 4346 C 408.946 -2.61801 -3.6576 0
M  V30 4347 C 410.265 -0.649984 -4.35274 0
M  V30 4348 H 407.384 -0.248025 -0.694012 0
M  V30 4349 H 410.026 -1.24314 -1.43688 0
M  V30 4350 H 408.176 -0.612171 -3.83647 0
M  V30 4351 H 409.848 -3.17543 -3.34611 0
M  V30 4352 H 408.091 -3.03609 -3.09845 0
M  V30 4353 H 408.762 -2.85804 -4.7225 0
M  V30 4354 H 411.238 -1.0626 -4.02303 0
M  V30 4355 H 410.114 -0.967743 -5.40302 0
M  V30 4356 H 410.375 0.449139 -4.39813 0
M  V30 4357 N 409.434 1.37368 -0.772513 0
M  V30 4358 C 410.382 2.32134 -0.147111 0
M  V30 4359 C 411.376 1.54972 0.684106 0
M  V30 4360 O 412.582 1.70363 0.581083 0
M  V30 4361 H 408.957 0.751449 -0.028786 0
M  V30 4362 H 410.928 2.82464 -0.962112 0
M  V30 4363 C 409.677 3.40226 0.71703 0
M  V30 4364 H 409 3.99706 0.0867951 0
M  V30 4365 H 410.44 4.08897 1.12159 0
M  V30 4366 C 408.899 2.80372 1.86797 0
M  V30 4367 O 409.429 2.71183 2.96349 0
M  V30 4368 N 407.635 2.37904 1.66883 0
M  V30 4369 H 407.182 2.45578 0.777759 0
M  V30 4370 H 407.14 1.98202 2.44056 0
M  V30 4371 N 410.912 0.523116 1.48665 0
M  V30 4372 C 412.323 0.0808997 1.86525 0
M  V30 4373 C 412.674 -1.33975 1.43336 0
M  V30 4374 O 411.799 -2.00221 0.821009 0
M  V30 4375 C 412.394 0.140037 3.3851 0
M  V30 4376 C 410.953 -0.246948 3.75589 0
M  V30 4377 C 410.1 0.502845 2.72703 0
M  V30 4378 H 413.051 0.734736 1.40667 0
M  V30 4379 H 413.072 -0.649945 3.74908 0
M  V30 4380 H 412.584 1.17412 3.69914 0
M  V30 4381 H 410.685 -1.28343 3.49798 0
M  V30 4382 H 410.798 0.0878859 4.79019 0
M  V30 4383 H 409.162 -0.0500581 2.54651 0
M  V30 4384 H 409.945 1.53743 3.0695 0
M  V30 4385 N 412.39 -1.55475 0.257931 0
M  V30 4386 C 413.3 -2.2549 -0.647425 0
M  V30 4387 C 414.316 -1.2748 -1.18427 0
M  V30 4388 O 415.492 -1.6038 -1.2182 0
M  V30 4389 C 412.557 -2.94916 -1.82278 0
M  V30 4390 C 411.618 -4.08363 -1.32432 0
M  V30 4391 C 410.851 -4.74469 -2.44366 0
M  V30 4392 O 411.074 -4.39701 -3.63344 0
M  V30 4393 O 410.008 -5.62763 -2.13497 0
M  V30 4394 H 413.834 -3.03593 -0.0807707 0
M  V30 4395 H 411.419 -1.49377 0.0259962 0
M  V30 4396 H 413.301 -3.38606 -2.50846 0
M  V30 4397 H 411.976 -2.19744 -2.37685 0
M  V30 4398 H 410.883 -3.69166 -0.605605 0
M  V30 4399 H 412.216 -4.85385 -0.816211 0
M  V30 4400 N 413.868 0.0150385 -1.57593 0
M  V30 4401 C 415.117 0.702115 -1.89085 0
M  V30 4402 C 415.43 1.75764 -0.858277 0
M  V30 4403 O 416.636 2.49829 -1.0629 0
M  V30 4404 C 415.092 1.29992 -3.35604 0
M  V30 4405 C 414.7 0.280007 -4.47124 0
M  V30 4406 C 416.444 1.96606 -3.76227 0
M  V30 4407 C 414.351 0.886949 -5.84711 0
M  V30 4408 H 413.281 0.265997 -0.705522 0
M  V30 4409 H 415.932 -0.0430408 -1.8345 0
M  V30 4410 H 414.314 2.09525 -3.36029 0
M  V30 4411 H 415.488 -0.489631 -4.58191 0
M  V30 4412 H 413.803 -0.284835 -4.15425 0
M  V30 4413 H 416.4 2.42893 -4.76347 0
M  V30 4414 H 416.743 2.79024 -3.08952 0
M  V30 4415 H 417.276 1.23828 -3.78036 0
M  V30 4416 H 414.015 0.101876 -6.55421 0
M  V30 4417 H 413.535 1.6261 -5.77337 0
M  V30 4418 H 415.214 1.39011 -6.3189 0
M  V30 4419 N 415.346 1.54954 0.287554 0
M  V30 4420 C 416.623 1.65569 1.04146 0
M  V30 4421 C 417.003 0.512672 2.0478 0
M  V30 4422 O 416.351 -0.489038 2.23205 0
M  V30 4423 C 416.561 3.04163 1.71131 0
M  V30 4424 C 417.909 3.61429 2.22832 0
M  V30 4425 O 418.933 3.06702 1.81141 0
M  V30 4426 O 417.792 4.57281 2.9926 0
M  V30 4427 H 414.886 0.671881 0.482188 0
M  V30 4428 H 417.432 1.67297 0.28457 0
M  V30 4429 H 416.204 3.78796 0.981303 0
M  V30 4430 H 415.827 3.06271 2.53543 0
M  V30 4431 N 416.824 -0.551391 1.4764 0
M  V30 4432 C 418.052 -1.33357 1.58189 0
M  V30 4433 C 418.467 -1.87342 0.234199 0
M  V30 4434 O 417.824 -1.65301 -0.77343 0
M  V30 4435 C 417.875 -2.49942 2.61173 0
M  V30 4436 O 417.596 -1.98187 3.90709 0
M  V30 4437 C 419.097 -3.42072 2.8196 0
M  V30 4438 H 416.317 -0.40631 0.533998 0
M  V30 4439 H 418.861 -0.667367 1.93304 0
M  V30 4440 H 417.016 -3.12489 2.28975 0
M  V30 4441 H 417.43 -2.74342 4.47031 0
M  V30 4442 H 418.904 -4.20278 3.57869 0
M  V30 4443 H 419.381 -3.95978 1.89995 0
M  V30 4444 H 419.987 -2.85336 3.15378 0
M  V30 4445 N 418.302 -1.35869 -0.798587 0
M  V30 4446 C 419.53 -1.32722 -1.58722 0
M  V30 4447 C 419.945 0.0935631 -1.88568 0
M  V30 4448 O 419.302 1.04784 -1.49421 0
M  V30 4449 C 419.353 -2.13974 -2.91371 0
M  V30 4450 O 419.074 -3.50514 -2.62815 0
M  V30 4451 C 420.575 -2.18504 -3.85708 0
M  V30 4452 H 417.795 -0.45562 -0.492596 0
M  V30 4453 H 420.339 -1.78837 -0.991843 0
M  V30 4454 H 418.494 -1.71438 -3.47402 0
M  V30 4455 H 418.908 -3.92806 -3.47568 0
M  V30 4456 H 420.382 -2.79732 -4.75872 0
M  V30 4457 H 420.859 -1.18597 -4.22885 0
M  V30 4458 H 421.465 -2.61236 -3.35612 0
M  V30 4459 N 419.78 1.02168 -1.19998 0
M  V30 4460 C 421.029 1.75091 -1.0013 0
M  V30 4461 C 421.342 1.89923 0.467835 0
M  V30 4462 O 422.548 2.59888 0.785515 0
M  V30 4463 C 421.004 3.14892 -1.74273 0
M  V30 4464 C 420.612 3.0809 -3.25245 0
M  V30 4465 C 422.356 3.9206 -1.62755 0
M  V30 4466 C 420.263 4.42867 -3.91948 0
M  V30 4467 H 419.193 0.656394 -0.37103 0
M  V30 4468 H 421.844 1.14284 -1.43567 0
M  V30 4469 H 420.226 3.7621 -1.2362 0
M  V30 4470 H 421.4 2.5611 -3.83072 0
M  V30 4471 H 419.715 2.44416 -3.3712 0
M  V30 4472 H 422.312 4.91764 -2.09934 0
M  V30 4473 H 422.655 4.12199 -0.582894 0
M  V30 4474 H 423.188 3.37359 -2.10793 0
M  V30 4475 H 419.927 4.27931 -4.96543 0
M  V30 4476 H 419.447 4.94874 -3.3891 0
M  V30 4477 H 421.126 5.11728 -3.95909 0
M  V30 4478 N 421.258 1.00505 1.21394 0
M  V30 4479 C 422.506 0.686415 1.90086 0
M  V30 4480 C 422.827 -0.785264 1.7849 0
M  V30 4481 O 422.097 -1.56387 1.17983 0
M  V30 4482 H 420.677 0.2509 0.703604 0
M  V30 4483 H 423.339 1.27417 1.47482 0
M  V30 4484 H 422.435 0.959621 2.96981 0
M  V30 4485 N 422.737 -1.36956 0.779787 0
M  V30 4486 C 423.647 -2.33965 0.172491 0
M  V30 4487 C 424.663 -1.60574 -0.670222 0
M  V30 4488 O 425.839 -1.92617 -0.588263 0
M  V30 4489 C 422.904 -3.39761 -0.690173 0
M  V30 4490 C 421.965 -4.28964 0.169924 0
M  V30 4491 C 421.198 -5.29707 -0.651662 0
M  V30 4492 O 421.421 -5.38238 -1.88827 0
M  V30 4493 O 420.355 -6.01873 -0.0566264 0
M  V30 4494 H 424.181 -2.87647 0.974321 0
M  V30 4495 H 421.766 -1.39258 0.541078 0
M  V30 4496 H 423.648 -4.04471 -1.1824 0
M  V30 4497 H 422.323 -2.88394 -1.47006 0
M  V30 4498 H 421.23 -3.67326 0.708696 0
M  V30 4499 H 422.563 -4.83656 0.913085 0
M  V30 4500 N 424.215 -0.530993 -1.48385 0
M  V30 4501 C 425.461 -0.00538653 -2.03399 0
M  V30 4502 C 425.816 1.31899 -1.40073 0
M  V30 4503 O 425.109 1.83901 -0.537676 0
M  V30 4504 C 425.303 0.172742 -3.56982 0
M  V30 4505 C 425.132 -1.13282 -4.35198 0
M  V30 4506 C 423.902 -1.69296 -4.76096 0
M  V30 4507 C 426.1 -2.04367 -4.71952 0
M  V30 4508 N 424.082 -2.9413 -5.38851 0
M  V30 4509 C 425.453 -3.13777 -5.34737 0
M  V30 4510 C 427.508 -2.04681 -4.53883 0
M  V30 4511 C 426.211 -4.23567 -5.81363 0
M  V30 4512 C 428.237 -3.13466 -5.01491 0
M  V30 4513 C 427.599 -4.21595 -5.64302 0
M  V30 4514 H 423.698 -0.0434945 -0.780789 0
M  V30 4515 H 426.282 -0.712495 -1.81195 0
M  V30 4516 H 424.453 0.848937 -3.79009 0
M  V30 4517 H 426.185 0.698046 -3.98634 0
M  V30 4518 H 422.94 -1.23422 -4.57235 0
M  V30 4519 H 423.364 -3.57689 -5.74794 0
M  V30 4520 H 428.006 -1.22378 -4.04702 0
M  V30 4521 H 425.724 -5.06648 -6.2955 0
M  V30 4522 H 429.31 -3.14765 -4.893 0
M  V30 4523 H 428.19 -5.04384 -6.00472 0
M  V30 4524 N 425.693 1.55336 -0.266172 0
M  V30 4525 C 426.656 2.20878 0.612001 0
M  V30 4526 C 427.656 1.18388 1.08816 0
M  V30 4527 O 428.846 1.4335 0.989774 0
M  V30 4528 C 425.978 2.86765 1.84332 0
M  V30 4529 H 427.171 2.99873 0.0398718 0
M  V30 4530 H 424.724 1.56291 -0.0167309 0
M  V30 4531 H 425.459 2.11759 2.45619 0
M  V30 4532 H 425.244 3.61862 1.5099 0
M  V30 4533 H 426.734 3.36867 2.46801 0
M  V30 4534 N 427.171 -0.0066808 1.57599 0
M  V30 4535 C 428.418 -0.69292 1.90276 0
M  V30 4536 C 428.746 -1.74148 0.866192 0
M  V30 4537 O 428.001 -1.95268 -0.129933 0
M  V30 4538 C 428.3 -1.37939 3.29708 0
M  V30 4539 C 427.966 -0.464679 4.48499 0
M  V30 4540 C 426.628 -0.212809 4.80729 0
M  V30 4541 C 428.98 0.16551 5.20937 0
M  V30 4542 C 426.308 0.677653 5.82773 0
M  V30 4543 C 428.66 1.04381 6.23929 0
M  V30 4544 C 427.324 1.30492 6.54621 0
M  V30 4545 H 426.594 -0.253558 0.696268 0
M  V30 4546 H 429.241 0.0474123 1.91441 0
M  V30 4547 H 427.546 -2.1936 3.24636 0
M  V30 4548 H 429.243 -1.9163 3.52249 0
M  V30 4549 H 425.833 -0.671153 4.23313 0
M  V30 4550 H 430.017 -0.0160756 4.96297 0
M  V30 4551 H 425.273 0.88803 6.04917 0
M  V30 4552 H 429.447 1.53851 6.79193 0
M  V30 4553 H 427.074 1.99662 7.33512 0
M  V30 4554 N 428.649 -1.55105 -0.279332 0
M  V30 4555 C 429.895 -1.76597 -1.00921 0
M  V30 4556 C 430.25 -0.556831 -1.84166 0
M  V30 4557 O 429.543 0.450573 -1.86227 0
M  V30 4558 C 429.737 -3.0086 -1.92919 0
M  V30 4559 C 429.566 -4.33744 -1.18728 0
M  V30 4560 C 428.336 -4.9712 -0.905545 0
M  V30 4561 C 430.534 -5.11009 -0.580857 0
M  V30 4562 N 428.516 -6.13749 -0.136169 0
M  V30 4563 C 429.887 -6.19976 0.0546661 0
M  V30 4564 C 431.942 -4.95502 -0.488067 0
M  V30 4565 C 430.645 -7.15123 0.774028 0
M  V30 4566 C 432.671 -5.90999 0.217688 0
M  V30 4567 C 432.033 -6.9935 0.841975 0
M  V30 4568 H 428.132 -0.698553 -0.351493 0
M  V30 4569 H 430.716 -1.92595 -0.285531 0
M  V30 4570 H 428.887 -2.86249 -2.62519 0
M  V30 4571 H 430.619 -3.10784 -2.59221 0
M  V30 4572 H 427.374 -4.57903 -1.20921 0
M  V30 4573 H 427.798 -6.7659 0.235665 0
M  V30 4574 H 432.44 -4.11841 -0.956406 0
M  V30 4575 H 430.158 -7.9831 1.25407 0
M  V30 4576 H 433.744 -5.81078 0.289717 0
M  V30 4577 H 432.624 -7.71973 1.37939 0
M  V30 4578 N 430.127 0.543554 -1.4793 0
M  V30 4579 C 431.037 1.67657 -1.64098 0
M  V30 4580 C 432.053 1.65934 -0.523622 0
M  V30 4581 O 433.229 1.85133 -0.792943 0
M  V30 4582 C 430.294 3.04146 -1.66421 0
M  V30 4583 C 429.355 3.16831 -2.89684 0
M  V30 4584 C 428.588 4.46809 -2.91886 0
M  V30 4585 O 428.811 5.33095 -2.02895 0
M  V30 4586 O 427.745 4.63573 -3.83906 0
M  V30 4587 H 431.571 1.56957 -2.59997 0
M  V30 4588 H 429.156 0.715116 -1.31173 0
M  V30 4589 H 431.038 3.85346 -1.70548 0
M  V30 4590 H 429.713 3.152 -0.736923 0
M  V30 4591 H 428.62 2.34977 -2.91095 0
M  V30 4592 H 429.953 3.10687 -3.81752 0
M  V30 4593 N 431.605 1.3629 0.791371 0
M  V30 4594 C 432.833 1.33562 1.58016 0
M  V30 4595 C 433.248 -0.0835616 1.88615 0
M  V30 4596 O 432.605 -1.0399 1.49974 0
M  V30 4597 C 432.656 2.15517 2.90232 0
M  V30 4598 O 432.377 3.51902 2.60953 0
M  V30 4599 C 433.878 2.20546 3.84544 0
M  V30 4600 H 431.098 0.458226 0.490173 0
M  V30 4601 H 433.642 1.79361 0.982345 0
M  V30 4602 H 431.797 1.73278 3.46487 0
M  V30 4603 H 432.211 3.94644 3.4548 0
M  V30 4604 H 433.685 2.82252 4.74382 0
M  V30 4605 H 434.162 1.20838 4.2225 0
M  V30 4606 H 434.768 2.63013 3.34222 0
M  V30 4607 N 433.083 -1.0153 1.20538 0
M  V30 4608 C 434.03 -2.10098 0.955383 0
M  V30 4609 C 435 -1.65702 -0.114878 0
M  V30 4610 O 436.185 -1.90776 0.0301118 0
M  V30 4611 C 433.325 -3.41236 0.514969 0
M  V30 4612 C 432.438 -3.99102 1.65353 0
M  V30 4613 C 431.573 -5.18306 1.16329 0
M  V30 4614 C 430.612 -5.68258 2.27485 0
M  V30 4615 N 429.749 -6.78722 1.7967 0
M  V30 4616 H 434.589 -2.30818 1.88486 0
M  V30 4617 H 432.126 -1.13189 0.939499 0
M  V30 4618 H 434.084 -4.16504 0.240935 0
M  V30 4619 H 432.714 -3.20585 -0.377512 0
M  V30 4620 H 431.766 -3.20918 2.04245 0
M  V30 4621 H 433.078 -4.32177 2.49047 0
M  V30 4622 H 432.232 -6.00782 0.845302 0
M  V30 4623 H 430.971 -4.86799 0.296254 0
M  V30 4624 H 429.976 -4.84385 2.60099 0
M  V30 4625 H 431.201 -6.01798 3.14667 0
M  V30 4626 H 429.147 -6.49042 0.95295 0
M  V30 4627 H 429.064 -7.10996 2.56944 0
M  V30 4628 H 430.332 -7.64759 1.50875 0
M  V30 4629 N 434.561 -1.01147 -1.20859 0
M  V30 4630 C 435.508 -0.577354 -2.23462 0
M  V30 4631 C 436.478 0.399922 -1.61214 0
M  V30 4632 O 437.663 0.300515 -1.88419 0
M  V30 4633 C 434.803 0.083372 -3.44999 0
M  V30 4634 C 433.916 -0.937856 -4.21697 0
M  V30 4635 C 433.051 -0.248717 -5.30617 0
M  V30 4636 C 432.09 -1.25705 -5.99053 0
M  V30 4637 N 431.227 -0.594939 -6.99575 0
M  V30 4638 H 436.067 -1.45695 -2.59956 0
M  V30 4639 H 433.604 -0.729428 -1.27741 0
M  V30 4640 H 435.562 0.483535 -4.14388 0
M  V30 4641 H 434.192 0.926645 -3.09214 0
M  V30 4642 H 433.244 -1.45622 -3.51423 0
M  V30 4643 H 434.556 -1.70493 -4.68757 0
M  V30 4644 H 433.71 0.207215 -6.06346 0
M  V30 4645 H 432.449 0.55071 -4.84581 0
M  V30 4646 H 431.454 -1.72343 -5.2209 0
M  V30 4647 H 432.679 -2.05767 -6.47176 0
M  V30 4648 H 430.625 0.184713 -6.5574 0
M  V30 4649 H 430.542 -1.30017 -7.44736 0
M  V30 4650 H 431.81 -0.162427 -7.79331 0
M  V30 4651 N 436.039 1.36541 -0.78704 0
M  V30 4652 C 436.987 2.31965 -0.171724 0
M  V30 4653 C 437.981 1.55689 0.667631 0
M  V30 4654 O 439.187 1.70969 0.562981 0
M  V30 4655 H 435.562 0.751101 -0.0367545 0
M  V30 4656 H 437.533 2.81428 -0.992017 0
M  V30 4657 C 436.282 3.40968 0.680904 0
M  V30 4658 H 435.605 3.99775 0.0443961 0
M  V30 4659 H 437.045 4.10063 1.07815 0
M  V30 4660 C 435.504 2.82338 1.83813 0
M  V30 4661 O 436.034 2.74311 2.93456 0
M  V30 4662 N 434.24 2.39661 1.6435 0
M  V30 4663 H 433.787 2.46389 0.751668 0
M  V30 4664 H 433.745 2.00779 2.4194 0
M  V30 4665 N 437.518 0.538854 1.48102 0
M  V30 4666 C 438.448 -0.207654 2.32575 0
M  V30 4667 C 439.429 -0.926559 1.4265 0
M  V30 4668 O 440.614 -0.91061 1.71527 0
M  V30 4669 C 437.744 -1.24957 3.24042 0
M  V30 4670 C 436.698 -0.648263 4.23062 0
M  V30 4671 C 436.024 -1.79348 5.03725 0
M  V30 4672 C 437.324 0.385897 5.20872 0
M  V30 4673 H 439.018 0.497534 2.95237 0
M  V30 4674 H 436.564 0.240715 1.41974 0
M  V30 4675 H 438.517 -1.77983 3.81969 0
M  V30 4676 H 437.241 -1.98446 2.59397 0
M  V30 4677 H 435.9 -0.139452 3.66335 0
M  V30 4678 H 435.548 -2.51696 4.35498 0
M  V30 4679 H 435.248 -1.39702 5.70751 0
M  V30 4680 H 436.772 -2.32735 5.64506 0
M  V30 4681 H 438.186 -0.057607 5.73271 0
M  V30 4682 H 436.583 0.700227 5.96001 0
M  V30 4683 H 437.653 1.28848 4.67468 0
M  V30 4684 N 438.996 -1.55193 0.274407 0
M  V30 4685 C 440.224 -2.03987 -0.345943 0
M  V30 4686 C 440.639 -1.15279 -1.4952 0
M  V30 4687 O 439.996 -0.172759 -1.8168 0
M  V30 4688 C 440.047 -3.51898 -0.827631 0
M  V30 4689 O 439.768 -4.37231 0.275855 0
M  V30 4690 C 441.269 -4.16577 -1.51587 0
M  V30 4691 H 438.489 -0.666335 -0.0789892 0
M  V30 4692 H 441.033 -2.00423 0.406294 0
M  V30 4693 H 439.188 -3.55909 -1.52996 0
M  V30 4694 H 439.602 -5.24415 -0.0943638 0
M  V30 4695 H 441.076 -5.21678 -1.80433 0
M  V30 4696 H 441.553 -3.64707 -2.44716 0
M  V30 4697 H 442.159 -4.16568 -0.857409 0
M  V30 4698 N 440.474 -0.00167713 -1.576 0
M  V30 4699 C 441.89 0.354422 -1.55615 0
M  V30 4700 C 442.09 1.74679 -1.00447 0
M  V30 4701 O 441.146 2.4428 -0.639022 0
M  V30 4702 C 442.459 0.22812 -2.99833 0
M  V30 4703 C 444.007 0.302934 -3.11531 0
M  V30 4704 C 444.482 0.205737 -4.57538 0
M  V30 4705 N 445.973 0.263584 -4.62449 0
M  V30 4706 C 446.708 0.211742 -5.73009 0
M  V30 4707 N 446.204 0.110399 -6.92712 0
M  V30 4708 N 447.997 0.263729 -5.61481 0
M  V30 4709 H 440.148 -0.912498 -1.918 0
M  V30 4710 H 442.411 -0.349928 -0.881053 0
M  V30 4711 H 442.117 -0.729934 -3.44042 0
M  V30 4712 H 441.991 1.00951 -3.6344 0
M  V30 4713 H 444.378 1.25143 -2.67251 0
M  V30 4714 H 444.459 -0.508357 -2.50698 0
M  V30 4715 H 444.103 -0.739225 -5.02492 0
M  V30 4716 H 444.033 1.03554 -5.16318 0
M  V30 4717 H 446.524 0.343173 -3.76339 0
M  V30 4718 H 446.837 0.0767828 -7.72762 0
M  V30 4719 H 445.182 0.0760025 -6.94958 0
M  V30 4720 H 448.373 0.34111 -4.66855 0
M  V30 4721 H 448.546 0.219862 -6.47627 0
M  V30 4722 N 441.952 1.55251 0.271103 0
M  V30 4723 C 442.899 1.88261 1.33516 0
M  V30 4724 C 443.869 0.734296 1.48988 0
M  V30 4725 O 445.054 0.985741 1.63364 0
M  V30 4726 C 442.194 2.16168 2.69008 0
M  V30 4727 C 441.307 3.43678 2.61743 0
M  V30 4728 C 440.442 3.61276 3.89427 0
M  V30 4729 C 439.481 4.82472 3.7668 0
M  V30 4730 N 438.618 4.96717 4.96202 0
M  V30 4731 H 443.458 2.79015 1.04665 0
M  V30 4732 H 440.995 1.38137 0.505618 0
M  V30 4733 H 442.953 2.30349 3.47844 0
M  V30 4734 H 441.583 1.28646 2.96057 0
M  V30 4735 H 440.635 3.37959 1.74607 0
M  V30 4736 H 441.947 4.3265 2.48224 0
M  V30 4737 H 441.101 3.75284 4.76704 0
M  V30 4738 H 439.84 2.70492 4.05814 0
M  V30 4739 H 438.845 4.68465 2.87786 0
M  V30 4740 H 440.07 5.74692 3.61809 0
M  V30 4741 H 438.016 4.08865 5.12997 0
M  V30 4742 H 437.933 5.79738 4.85222 0
M  V30 4743 H 439.201 5.15113 5.85046 0
M  V30 4744 N 443.43 -0.535701 1.48216 0
M  V30 4745 C 444.679 -1.28828 1.55197 0
M  V30 4746 C 444.992 -1.94263 0.228278 0
M  V30 4747 O 446.198 -2.70927 0.176278 0
M  V30 4748 C 444.654 -2.33727 2.73678 0
M  V30 4749 C 444.262 -1.74386 4.12666 0
M  V30 4750 C 446.006 -3.1003 2.89968 0
M  V30 4751 C 443.913 -2.77192 5.22416 0
M  V30 4752 H 442.843 -0.484484 0.577747 0
M  V30 4753 H 445.494 -0.56646 1.74538 0
M  V30 4754 H 443.876 -3.08919 2.4776 0
M  V30 4755 H 445.05 -1.05421 4.48579 0
M  V30 4756 H 443.365 -1.10595 4.01445 0
M  V30 4757 H 445.962 -3.86842 3.6913 0
M  V30 4758 H 446.305 -3.65542 1.9921 0
M  V30 4759 H 446.838 -2.41952 3.15759 0
M  V30 4760 H 443.577 -2.26507 6.15122 0
M  V30 4761 H 443.097 -3.44502 4.90998 0
M  V30 4762 H 444.776 -3.40285 5.50286 0
M  V30 4763 N 444.908 -1.36708 -0.784132 0
M  V30 4764 C 446.324 -1.17237 -1.08294 0
M  V30 4765 C 446.524 -5.93947e-05 -2.015 0
M  V30 4766 O 445.58 0.663686 -2.43622 0
M  V30 4767 C 446.893 -2.48557 -1.69233 0
M  V30 4768 C 448.441 -2.54968 -1.8155 0
M  V30 4769 C 448.916 -3.86388 -2.45904 0
M  V30 4770 N 450.407 -3.87762 -2.53367 0
M  V30 4771 C 451.142 -4.86191 -3.03983 0
M  V30 4772 N 450.638 -5.95015 -3.54866 0
M  V30 4773 N 452.431 -4.73606 -3.02743 0
M  V30 4774 H 444.582 -2.11758 -0.16501 0
M  V30 4775 H 446.845 -0.93822 -0.135822 0
M  V30 4776 H 446.551 -3.34638 -1.08215 0
M  V30 4777 H 446.425 -2.64748 -2.68679 0
M  V30 4778 H 448.812 -1.69302 -2.41704 0
M  V30 4779 H 448.893 -2.42672 -0.80895 0
M  V30 4780 H 448.537 -4.72462 -1.86392 0
M  V30 4781 H 448.467 -3.95982 -3.4714 0
M  V30 4782 H 450.958 -3.09145 -2.17343 0
M  V30 4783 H 451.271 -6.66086 -3.91854 0
M  V30 4784 H 449.616 -5.98676 -3.53003 0
M  V30 4785 H 452.807 -3.87717 -2.62284 0
M  V30 4786 H 452.98 -5.50473 -3.41881 0
M  V30 4787 N 446.386 1.0089 -1.21074 0
M  V30 4788 C 447.611 1.78727 -1.05221 0
M  V30 4789 C 448.036 1.83932 0.393795 0
M  V30 4790 O 447.394 1.28004 1.28393 0
M  V30 4791 C 447.442 3.20665 -1.64944 0
M  V30 4792 O 446.546 4.02632 -0.892273 0
M  V30 4793 H 445.887 0.550973 -0.370574 0
M  V30 4794 H 448.417 1.26847 -1.60534 0
M  V30 4795 H 448.427 3.71352 -1.69002 0
M  V30 4796 H 447.102 3.16191 -2.70177 0
M  V30 4797 H 445.679 3.61207 -0.926492 0
M  V30 4798 N 447.864 1.01787 1.20321 0
M  V30 4799 C 448.774 0.598898 2.26827 0
M  V30 4800 C 449.79 -0.36418 1.70146 0
M  V30 4801 O 450.966 -0.224812 2.00141 0
M  V30 4802 C 448.031 -0.0549769 3.46656 0
M  V30 4803 C 447.092 0.954205 4.18561 0
M  V30 4804 C 446.325 0.331439 5.3267 0
M  V30 4805 O 446.548 -0.86851 5.63749 0
M  V30 4806 O 445.482 1.0488 5.92692 0
M  V30 4807 H 449.308 1.48562 2.64883 0
M  V30 4808 H 446.893 0.787434 1.26964 0
M  V30 4809 H 448.775 -0.420102 4.19301 0
M  V30 4810 H 447.45 -0.915876 3.10473 0
M  V30 4811 H 446.357 1.37072 3.48083 0
M  V30 4812 H 447.69 1.78511 4.58688 0
M  V30 4813 N 449.342 -1.36122 0.79427 0
M  V30 4814 C 450.252 -2.33769 0.197296 0
M  V30 4815 C 451.268 -1.61276 -0.653153 0
M  V30 4816 O 452.444 -1.9323 -0.5678 0
M  V30 4817 C 449.509 -3.40474 -0.654098 0
M  V30 4818 C 448.57 -4.28759 0.215411 0
M  V30 4819 C 447.803 -5.30368 -0.595443 0
M  V30 4820 O 448.026 -5.40211 -1.83107 0
M  V30 4821 O 446.96 -6.019 0.00721351 0
M  V30 4822 H 450.786 -2.86597 1.00478 0
M  V30 4823 H 448.371 -1.38676 0.555818 0
M  V30 4824 H 450.253 -4.05703 -1.13944 0
M  V30 4825 H 448.928 -2.89937 -1.43938 0
M  V30 4826 H 447.835 -3.66554 0.747615 0
M  V30 4827 H 449.168 -4.82661 0.964332 0
M  V30 4828 N 450.82 -0.546701 -1.47814 0
M  V30 4829 C 451.75 0.195317 -2.32682 0
M  V30 4830 C 452.731 0.918981 -1.43139 0
M  V30 4831 O 453.916 0.901501 -1.72008 0
M  V30 4832 C 451.046 1.23237 -3.247 0
M  V30 4833 C 450 0.625818 -4.234 0
M  V30 4834 C 449.326 1.76674 -5.04669 0
M  V30 4835 C 450.626 -0.413515 -5.2066 0
M  V30 4836 H 452.32 -0.513184 -2.94969 0
M  V30 4837 H 449.866 -0.248241 -1.41844 0
M  V30 4838 H 451.819 1.75955 -3.82907 0
M  V30 4839 H 450.543 1.97067 -2.60446 0
M  V30 4840 H 449.202 0.120023 -3.66403 0
M  V30 4841 H 448.85 2.49383 -4.36826 0
M  V30 4842 H 448.55 1.36673 -5.71484 0
M  V30 4843 H 450.074 2.29738 -5.65732 0
M  V30 4844 H 451.488 0.0272042 -5.73294 0
M  V30 4845 H 449.885 -0.731825 -5.95621 0
M  V30 4846 H 450.955 -1.31325 -4.66778 0
M  V30 4847 N 452.299 1.55045 -0.282633 0
M  V30 4848 C 453.524 2.04628 0.337977 0
M  V30 4849 C 453.949 1.15937 1.48123 0
M  V30 4850 O 453.307 0.159532 1.80597 0
M  V30 4851 C 453.355 3.51854 0.78936 0
M  V30 4852 O 452.459 3.66236 1.89592 0
M  V30 4853 H 451.8 0.660434 0.0687261 0
M  V30 4854 H 454.33 2.00261 -0.419124 0
M  V30 4855 H 454.34 3.93361 1.08311 0
M  V30 4856 H 453.015 4.15873 -0.0470419 0
M  V30 4857 H 451.592 3.36633 1.60413 0
M  V30 4858 N 453.777 0.010035 1.57597 0
M  V30 4859 C 455.024 -0.6727 1.91 0
M  V30 4860 C 455.352 -1.73219 0.884614 0
M  V30 4861 O 454.607 -1.95395 -0.109215 0
M  V30 4862 C 454.906 -1.34434 3.31153 0
M  V30 4863 C 454.572 -0.417083 4.48967 0
M  V30 4864 C 453.234 -0.161809 4.80928 0
M  V30 4865 C 455.586 0.220753 5.20732 0
M  V30 4866 C 452.914 0.739426 5.82022 0
M  V30 4867 C 455.266 1.10993 6.22787 0
M  V30 4868 C 453.93 1.37428 6.532 0
M  V30 4869 H 453.2 -0.246158 0.698918 0
M  V30 4870 H 455.847 0.0677145 1.9138 0
M  V30 4871 H 454.152 -2.15905 3.26944 0
M  V30 4872 H 455.849 -1.87883 3.54261 0
M  V30 4873 H 452.439 -0.626217 4.24001 0
M  V30 4874 H 456.623 0.0365643 4.96287 0
M  V30 4875 H 451.879 0.952139 6.03941 0
M  V30 4876 H 456.053 1.61046 6.77523 0
M  V30 4877 H 453.68 2.0743 7.31353 0
M  V30 4878 N 455.255 -1.55392 -0.262866 0
M  V30 4879 C 456.483 -1.80513 -1.01108 0
M  V30 4880 C 456.898 -0.583533 -1.79556 0
M  V30 4881 O 456.255 0.447585 -1.76926 0
M  V30 4882 C 456.306 -3.03648 -1.96164 0
M  V30 4883 O 456.027 -4.2109 -1.20893 0
M  V30 4884 C 457.528 -3.41448 -2.82715 0
M  V30 4885 H 454.748 -0.601079 -0.298236 0
M  V30 4886 H 457.292 -2.02425 -0.290582 0
M  V30 4887 H 455.447 -2.83832 -2.63663 0
M  V30 4888 H 455.861 -4.90771 -1.85051 0
M  V30 4889 H 457.335 -4.30751 -3.45192 0
M  V30 4890 H 457.812 -2.61308 -3.53008 0
M  V30 4891 H 458.418 -3.63559 -2.20693 0
M  V30 4892 N 456.733 0.527833 -1.48498 0
M  V30 4893 C 457.979 1.28545 -1.56857 0
M  V30 4894 C 458.312 1.92678 -0.242651 0
M  V30 4895 O 457.587 1.79394 0.751545 0
M  V30 4896 C 457.87 2.37314 -2.70839 0
M  V30 4897 C 457.723 1.77858 -4.13142 0
M  V30 4898 C 459.042 3.39068 -2.80573 0
M  V30 4899 H 456.161 0.466006 -0.570971 0
M  V30 4900 H 458.803 0.587784 -1.8068 0
M  V30 4901 H 456.953 2.96821 -2.50658 0
M  V30 4902 H 458.625 1.22385 -4.44769 0
M  V30 4903 H 456.868 1.08383 -4.20042 0
M  V30 4904 H 457.539 2.56624 -4.88721 0
M  V30 4905 H 460.015 2.89518 -2.98862 0
M  V30 4906 H 458.891 4.12566 -3.6205 0
M  V30 4907 H 459.152 3.9975 -1.88818 0
M  V30 4908 N 458.211 1.37122 0.776871 0
M  V30 4909 C 459.457 1.32243 1.53752 0
M  V30 4910 C 459.79 -0.0944745 1.9397 0
M  V30 4911 O 459.065 -1.05068 1.6368 0
M  V30 4912 C 459.348 2.25681 2.80607 0
M  V30 4913 C 459.201 3.76127 2.46676 0
M  V30 4914 C 460.52 2.17657 3.82509 0
M  V30 4915 H 457.639 0.481704 0.557791 0
M  V30 4916 H 460.281 1.6778 0.891612 0
M  V30 4917 H 458.431 1.95505 3.35723 0
M  V30 4918 H 460.103 4.16877 1.97513 0
M  V30 4919 H 458.346 3.94946 1.79443 0
M  V30 4920 H 459.017 4.36933 3.37333 0
M  V30 4921 H 461.493 2.44245 3.36873 0
M  V30 4922 H 460.369 2.85185 4.69 0
M  V30 4923 H 460.63 1.16785 4.26396 0
M  V30 4924 N 459.689 -1.00246 1.21608 0
M  V30 4925 C 460.914 -1.78167 1.06167 0
M  V30 4926 C 461.339 -1.84138 -0.384035 0
M  V30 4927 O 460.697 -1.28683 -1.27712 0
M  V30 4928 C 460.745 -3.19786 1.66642 0
M  V30 4929 O 459.849 -4.02153 0.913613 0
M  V30 4930 H 459.19 -0.549 0.37349 0
M  V30 4931 H 461.72 -1.25994 1.61204 0
M  V30 4932 H 461.73 -3.70451 1.70969 0
M  V30 4933 H 460.405 -3.14754 2.7185 0
M  V30 4934 H 458.982 -3.60711 0.945635 0
M  V30 4935 N 461.167 -1.02423 -1.1978 0
M  V30 4936 C 462.115 -0.594474 -2.24875 0
M  V30 4937 C 463.109 0.370598 -1.65296 0
M  V30 4938 O 464.315 0.239684 -1.78397 0
M  V30 4939 H 460.69 -0.173961 -0.731602 0
M  V30 4940 H 462.661 -1.4916 -2.58445 0
M  V30 4941 C 461.41 0.0436512 -3.47673 0
M  V30 4942 H 460.733 -0.689963 -3.93801 0
M  V30 4943 H 462.173 0.307362 -4.22884 0
M  V30 4944 C 460.632 1.28881 -3.11274 0
M  V30 4945 O 461.162 2.38135 -3.23503 0
M  V30 4946 N 459.368 1.1758 -2.6575 0
M  V30 4947 H 458.915 0.286769 -2.55999 0
M  V30 4948 H 458.873 2.00988 -2.41767 0
M  V30 4949 N 462.645 1.35699 -0.801477 0
M  V30 4950 C 463.893 1.9852 -0.37871 0
M  V30 4951 C 464.214 1.63907 1.05638 0
M  V30 4952 O 463.484 0.919013 1.73006 0
M  V30 4953 H 462.064 0.734322 -0.137042 0
M  V30 4954 H 464.726 1.65697 -1.02619 0
M  V30 4955 H 463.822 3.08382 -0.480284 0
M  V30 4956 N 464.123 0.554532 1.47522 0
M  V30 4957 C 465.086 -0.184174 2.28459 0
M  V30 4958 C 466.086 -0.845195 1.36796 0
M  V30 4959 O 467.276 -0.701467 1.59452 0
M  V30 4960 C 464.408 -1.26903 3.16399 0
M  V30 4961 H 465.601 0.526751 2.95238 0
M  V30 4962 H 463.154 0.311375 1.53167 0
M  V30 4963 H 463.889 -2.01244 2.54306 0
M  V30 4964 H 463.674 -0.799883 3.83854 0
M  V30 4965 H 465.164 -1.78794 3.77389 0
M  V30 4966 N 465.601 -1.54893 0.290851 0
M  V30 4967 C 466.548 -2.23138 -0.58974 0
M  V30 4968 C 467.518 -1.21036 -1.13752 0
M  V30 4969 O 468.703 -1.49626 -1.18392 0
M  V30 4970 C 465.843 -2.96811 -1.76061 0
M  V30 4971 C 464.956 -4.13665 -1.24519 0
M  V30 4972 C 464.091 -4.74944 -2.3791 0
M  V30 4973 C 463.13 -5.83963 -1.83451 0
M  V30 4974 N 462.267 -6.39239 -2.90376 0
M  V30 4975 H 467.107 -2.98 -0.00114915 0
M  V30 4976 H 464.644 -1.47096 0.0112006 0
M  V30 4977 H 466.602 -3.37751 -2.44909 0
M  V30 4978 H 465.232 -2.24344 -2.32098 0
M  V30 4979 H 464.284 -3.77737 -0.449288 0
M  V30 4980 H 465.596 -4.92238 -0.806424 0
M  V30 4981 H 464.75 -5.18684 -3.14724 0
M  V30 4982 H 463.489 -3.95682 -2.85109 0
M  V30 4983 H 462.494 -5.39657 -1.05122 0
M  V30 4984 H 463.719 -6.65103 -1.37169 0
M  V30 4985 H 461.665 -5.62864 -3.36927 0
M  V30 4986 H 461.582 -7.13129 -2.50965 0
M  V30 4987 H 462.85 -6.87637 -3.67118 0
M  V30 4988 N 467.08 -0.0183926 -1.57589 0
M  V30 4989 C 468.028 0.985111 -2.10709 0
M  V30 4990 C 469.022 1.34397 -1.0312 0
M  V30 4991 O 470.228 1.32746 -1.21567 0
M  V30 4992 H 466.603 0.335418 -0.673052 0
M  V30 4993 H 468.574 0.511689 -2.9398 0
M  V30 4994 C 467.323 2.26202 -2.64061 0
M  V30 4995 H 466.646 1.9946 -3.4649 0
M  V30 4996 H 468.086 2.94652 -3.04887 0
M  V30 4997 C 466.545 2.98444 -1.5631 0
M  V30 4998 O 467.075 3.90142 -0.956674 0
M  V30 4999 N 465.281 2.6059 -1.28612 0
M  V30 5000 H 464.828 1.86101 -1.78112 0
M  V30 5001 H 464.786 3.09238 -0.567406 0
M  V30 5002 N 468.558 1.5553 0.254621 0
M  V30 5003 C 469.807 1.76202 0.981612 0
M  V30 5004 C 470.12 0.580883 1.86776 0
M  V30 5005 O 471.326 0.670448 2.63092 0
M  V30 5006 C 469.782 3.11921 1.79537 0
M  V30 5007 C 469.39 4.37659 0.956991 0
M  V30 5008 C 471.134 3.41936 2.51555 0
M  V30 5009 C 469.041 5.64411 1.76619 0
M  V30 5010 H 467.971 0.656841 0.370237 0
M  V30 5011 H 470.622 1.81969 0.236556 0
M  V30 5012 H 469.004 3.00241 2.58208 0
M  V30 5013 H 470.178 4.60307 0.21315 0
M  V30 5014 H 468.493 4.14922 0.350497 0
M  V30 5015 H 471.09 4.33849 3.12536 0
M  V30 5016 H 471.433 2.62905 3.22779 0
M  V30 5017 H 471.966 3.54797 1.799 0
M  V30 5018 H 468.705 6.46241 1.09783 0
M  V30 5019 H 468.225 5.45877 2.48551 0
M  V30 5020 H 469.904 6.03386 2.33527 0
M  V30 5021 N 470.036 -0.519951 1.48776 0
M  V30 5022 C 471.261 -1.30447 1.6124 0
M  V30 5023 C 471.686 -1.86055 0.276591 0
M  V30 5024 O 471.044 -1.64915 -0.753183 0
M  V30 5025 C 471.092 -2.42406 2.66967 0
M  V30 5026 O 470.196 -3.45728 2.24824 0
M  V30 5027 H 469.537 -0.385924 0.540332 0
M  V30 5028 H 472.067 -0.624572 1.94834 0
M  V30 5029 H 472.077 -2.88447 2.88552 0
M  V30 5030 H 470.752 -2.01294 3.63941 0
M  V30 5031 H 469.329 -3.05737 2.13494 0
M  V30 5032 N 471.514 -1.37532 -0.769588 0
M  V30 5033 C 472.762 -1.32597 -1.5252 0
M  V30 5034 C 473.083 0.0884294 -1.94799 0
M  V30 5035 O 472.353 1.03289 -1.66458 0
M  V30 5036 H 470.933 -0.487846 -0.565699 0
M  V30 5037 H 473.595 -1.72044 -0.915806 0
M  V30 5038 H 472.691 -1.96643 -2.42359 0
M  V30 5039 N 472.992 0.995999 -1.22138 0
M  V30 5040 C 473.924 2.08745 -0.946485 0
M  V30 5041 C 474.937 1.62633 0.0737356 0
M  V30 5042 O 476.126 1.77782 -0.159886 0
M  V30 5043 C 473.226 3.36516 -0.401305 0
M  V30 5044 C 472.399 4.11672 -1.47801 0
M  V30 5045 C 471.458 5.17728 -0.940461 0
M  V30 5046 O 470.484 5.45482 -1.62596 0
M  V30 5047 N 471.686 5.80005 0.239723 0
M  V30 5048 H 474.451 2.32908 -1.88611 0
M  V30 5049 H 472.012 1.16152 -1.12785 0
M  V30 5050 H 474.004 4.04691 -0.0270837 0
M  V30 5051 H 472.574 3.0944 0.443354 0
M  V30 5052 H 471.794 3.38171 -2.02568 0
M  V30 5053 H 473.082 4.58657 -2.20253 0
M  V30 5054 H 472.48 5.5982 0.813518 0
M  V30 5055 H 471.037 6.4943 0.555361 0
M  V30 5056 N 474.47 1.03057 1.19235 0
M  V30 5057 C 475.695 0.74757 1.93458 0
M  V30 5058 C 476.12 -0.687648 1.7508 0
M  V30 5059 O 475.478 -1.47499 1.05422 0
M  V30 5060 C 475.526 1.10604 3.43219 0
M  V30 5061 O 474.63 0.225671 4.11782 0
M  V30 5062 H 473.971 0.276047 0.603899 0
M  V30 5063 H 476.501 1.3777 1.51263 0
M  V30 5064 H 476.511 1.06366 3.93891 0
M  V30 5065 H 475.186 2.15165 3.55917 0
M  V30 5066 H 473.763 0.326795 3.71465 0
M  V30 5067 N 475.948 -1.35272 0.808662 0
M  V30 5068 C 477.359 -1.81179 0.450688 0
M  V30 5069 C 477.71 -1.67143 -1.02751 0
M  V30 5070 O 476.835 -1.20325 -1.79864 0
M  V30 5071 C 477.43 -3.28943 0.811275 0
M  V30 5072 C 475.989 -3.72985 0.505871 0
M  V30 5073 C 475.136 -2.57229 1.03578 0
M  V30 5074 H 478.087 -1.2322 1.00012 0
M  V30 5075 H 478.108 -3.80342 0.109588 0
M  V30 5076 H 477.62 -3.39127 1.88718 0
M  V30 5077 H 475.721 -3.68349 -0.561209 0
M  V30 5078 H 475.834 -4.67677 1.03995 0
M  V30 5079 H 474.198 -2.50548 0.458005 0
M  V30 5080 H 474.981 -2.7019 2.11784 0
M  V30 5081 N 477.426 -0.562348 -1.47226 0
M  V30 5082 C 478.389 0.172056 -2.28553 0
M  V30 5083 C 479.389 0.837928 -1.37242 0
M  V30 5084 O 480.579 0.693001 -1.59822 0
M  V30 5085 C 477.711 1.25223 -3.17068 0
M  V30 5086 H 478.904 -0.542401 -2.94954 0
M  V30 5087 H 476.457 -0.319493 -1.53 0
M  V30 5088 H 477.192 1.99892 -2.55369 0
M  V30 5089 H 476.977 0.779515 -3.84273 0
M  V30 5090 H 478.467 1.76791 -3.78332 0
M  V30 5091 N 478.904 1.54736 -0.299062 0
M  V30 5092 C 480.32 1.59507 0.0543849 0
M  V30 5093 C 480.52 1.31606 1.52585 0
M  V30 5094 O 479.576 1.08853 2.27832 0
M  V30 5095 C 480.889 2.98751 -0.34181 0
M  V30 5096 C 482.437 3.1165 -0.290414 0
M  V30 5097 C 482.912 4.53199 -0.661402 0
M  V30 5098 N 484.403 4.59114 -0.613863 0
M  V30 5099 C 485.138 5.66709 -0.873417 0
M  V30 5100 N 484.634 6.82349 -1.19884 0
M  V30 5101 N 486.427 5.56369 -0.800608 0
M  V30 5102 H 478.578 1.71133 -1.25806 0
M  V30 5103 H 480.841 0.799186 -0.509908 0
M  V30 5104 H 480.547 3.24085 -1.36608 0
M  V30 5105 H 480.421 3.75961 0.305508 0
M  V30 5106 H 482.808 2.86066 0.724605 0
M  V30 5107 H 482.889 2.366 -0.972327 0
M  V30 5108 H 482.533 4.79513 -1.67422 0
M  V30 5109 H 482.463 5.26583 0.0425612 0
M  V30 5110 H 484.954 3.76053 -0.3732 0
M  V30 5111 H 485.267 7.60326 -1.38291 0
M  V30 5112 H 483.612 6.83906 -1.23685 0
M  V30 5113 H 486.803 4.64904 -0.546045 0
M  V30 5114 H 486.976 6.40139 -1.00626 0
M  V30 5115 N 480.382 0.0267497 1.57577 0
M  V30 5116 C 481.61 -0.662661 1.96001 0
M  V30 5117 C 482.025 -1.65799 0.903117 0
M  V30 5118 O 481.382 -1.82135 -0.115317 0
M  V30 5119 C 481.433 -1.37112 3.34488 0
M  V30 5120 O 481.154 -0.415683 4.36123 0
M  V30 5121 C 482.655 -2.15257 3.8753 0
M  V30 5122 H 479.875 -0.18287 0.6456 0
M  V30 5123 H 482.419 0.0858116 2.0432 0
M  V30 5124 H 480.574 -2.07101 3.27395 0
M  V30 5125 H 480.988 -0.918496 5.16395 0
M  V30 5126 H 482.462 -2.60285 4.86781 0
M  V30 5127 H 482.939 -2.99063 3.21649 0
M  V30 5128 H 483.545 -1.50231 3.97883 0
M  V30 5129 N 481.861 -1.55662 -0.24637 0
M  V30 5130 C 483.086 -1.81914 -0.996093 0
M  V30 5131 C 483.511 -0.603875 -1.78143 0
M  V30 5132 O 482.869 0.447091 -1.75701 0
M  V30 5133 C 482.917 -3.05908 -1.90925 0
M  V30 5134 O 482.021 -2.82861 -3.00105 0
M  V30 5135 H 481.362 -0.600481 -0.283406 0
M  V30 5136 H 483.892 -2.02848 -0.267199 0
M  V30 5137 H 483.902 -3.35356 -2.3238 0
M  V30 5138 H 482.577 -3.93999 -1.33183 0
M  V30 5139 H 481.154 -2.64583 -2.62775 0
M  V30 5140 N 483.339 0.512053 -1.4905 0
M  V30 5141 C 484.564 1.2959 -1.6193 0
M  V30 5142 C 484.989 1.85906 -0.286454 0
M  V30 5143 O 484.347 1.65312 0.744426 0
M  V30 5144 C 484.395 2.40987 -2.68249 0
M  V30 5145 O 483.499 3.44531 -2.26654 0
M  V30 5146 H 482.84 0.383053 -0.542371 0
M  V30 5147 H 485.37 0.614231 -1.95162 0
M  V30 5148 H 485.38 2.86913 -2.90078 0
M  V30 5149 H 484.055 1.99361 -3.65004 0
M  V30 5150 H 482.632 3.046 -2.15112 0
M  V30 5151 N 484.817 1.37938 0.762283 0
M  V30 5152 C 486.094 1.24196 1.51112 0
M  V30 5153 C 486.474 -0.160409 2.1049 0
M  V30 5154 O 485.822 -1.16904 1.96331 0
M  V30 5155 C 486.032 2.34537 2.58445 0
M  V30 5156 C 487.38 2.7254 3.25588 0
M  V30 5157 O 488.404 2.33783 2.68745 0
M  V30 5158 O 487.263 3.39343 4.28379 0
M  V30 5159 H 484.357 0.485175 0.669727 0
M  V30 5160 H 486.903 1.49743 0.798438 0
M  V30 5161 H 485.675 3.28406 2.12756 0
M  V30 5162 H 485.298 2.10505 3.37303 0
M  V30 5163 N 486.295 -0.989507 1.22664 0
M  V30 5164 C 487.706 -1.54406 1.04955 0
M  V30 5165 C 488.057 -1.92366 -0.385951 0
M  V30 5166 O 487.182 -1.75111 -1.27142 0
M  V30 5167 C 487.777 -2.80578 1.89899 0
M  V30 5168 C 486.336 -3.32464 1.76478 0
M  V30 5169 C 485.483 -2.05524 1.86159 0
M  V30 5170 H 488.434 -0.810211 1.3646 0
M  V30 5171 H 488.455 -3.53075 1.4184 0
M  V30 5172 H 487.967 -2.52918 2.94371 0
M  V30 5173 H 486.068 -3.65024 0.747528 0
M  V30 5174 H 486.181 -4.02838 2.59342 0
M  V30 5175 H 484.545 -2.19241 1.29636 0
M  V30 5176 H 485.328 -1.80258 2.92168 0
M  V30 5177 N 487.773 -1.03688 -1.18687 0
M  V30 5178 C 489.021 -0.736572 -1.88199 0
M  V30 5179 C 489.342 0.737665 -1.80509 0
M  V30 5180 O 488.612 1.53204 -1.22088 0
M  V30 5181 H 487.192 -0.269466 -0.696704 0
M  V30 5182 H 489.854 -1.31282 -1.44052 0
M  V30 5183 H 488.95 -1.03802 -2.94332 0
M  V30 5184 N 489.251 1.34841 -0.815825 0
M  V30 5185 C 490.479 2.0273 -0.413294 0
M  V30 5186 C 490.894 1.61459 0.978599 0
M  V30 5187 O 490.251 0.816584 1.63212 0
M  V30 5188 C 490.302 3.58058 -0.497676 0
M  V30 5189 O 490.023 3.97832 -1.8347 0
M  V30 5190 C 491.524 4.4321 -0.0891339 0
M  V30 5191 H 488.744 0.649956 -0.166728 0
M  V30 5192 H 491.288 1.72267 -1.10201 0
M  V30 5193 H 489.443 3.87136 0.142886 0
M  V30 5194 H 489.857 4.92501 -1.80396 0
M  V30 5195 H 491.331 5.5164 -0.199274 0
M  V30 5196 H 491.808 4.28432 0.966571 0
M  V30 5197 H 492.414 4.19446 -0.703214 0
M  V30 5198 N 490.729 0.570148 1.46925 0
M  V30 5199 C 491.677 -0.183181 2.31878 0
M  V30 5200 C 492.671 -0.896721 1.43719 0
M  V30 5201 O 493.877 -0.816536 1.60414 0
M  V30 5202 H 490.252 -0.077944 0.74795 0
M  V30 5203 H 492.223 0.552312 2.93244 0
M  V30 5204 C 490.972 -1.19172 3.2664 0
M  V30 5205 H 490.295 -0.652088 3.94446 0
M  V30 5206 H 491.735 -1.68946 3.88887 0
M  V30 5207 C 490.194 -2.24627 2.51086 0
M  V30 5208 O 490.724 -3.31773 2.26472 0
M  V30 5209 N 488.93 -1.98898 2.11867 0
M  V30 5210 H 488.477 -1.11777 2.32086 0
M  V30 5211 H 488.435 -2.6967 1.61634 0
M  V30 5212 N 492.207 -1.54576 0.307264 0
M  V30 5213 C 493.435 -2.04675 -0.302597 0
M  V30 5214 C 493.85 -1.18425 -1.47041 0
M  V30 5215 O 493.207 -0.211257 -1.81273 0
M  V30 5216 C 493.258 -3.53575 -0.752801 0
M  V30 5217 O 492.979 -4.36547 0.368536 0
M  V30 5218 C 494.48 -4.19699 -1.42717 0
M  V30 5219 H 491.7 -0.66786 -0.0648374 0
M  V30 5220 H 494.244 -1.99516 0.448716 0
M  V30 5221 H 492.399 -3.59074 -1.45412 0
M  V30 5222 H 492.813 -5.24497 0.0168937 0
M  V30 5223 H 494.287 -5.25388 -1.69327 0
M  V30 5224 H 494.764 -3.69815 -2.36925 0
M  V30 5225 H 495.37 -4.18293 -0.768856 0
M  V30 5226 N 493.685 -0.035106 -1.57561 0
M  V30 5227 C 494.913 0.652258 -1.9635 0
M  V30 5228 C 495.328 1.65317 -0.911897 0
M  V30 5229 O 494.685 1.82194 0.105657 0
M  V30 5230 C 494.736 1.35337 -3.35211 0
M  V30 5231 O 494.457 0.392548 -4.36338 0
M  V30 5232 C 495.958 2.13199 -3.88666 0
M  V30 5233 H 493.178 0.179444 -0.646561 0
M  V30 5234 H 495.722 -0.0966459 -2.04271 0
M  V30 5235 H 493.877 2.05362 -3.28489 0
M  V30 5236 H 494.291 0.891097 -5.16875 0
M  V30 5237 H 495.765 2.577 -4.88154 0
M  V30 5238 H 496.242 2.97353 -3.23231 0
M  V30 5239 H 496.848 1.48118 -3.98674 0
M  V30 5240 N 495.163 1.55791 0.238111 0
M  V30 5241 C 496.391 1.82098 0.982233 0
M  V30 5242 C 496.806 0.612025 1.78605 0
M  V30 5243 O 496.163 -0.419381 1.77616 0
M  V30 5244 C 496.214 3.0673 1.91309 0
M  V30 5245 O 495.935 4.2296 1.14179 0
M  V30 5246 C 497.436 3.45903 2.77248 0
M  V30 5247 H 494.656 0.605748 0.288635 0
M  V30 5248 H 497.2 2.02862 0.258341 0
M  V30 5249 H 495.355 2.87991 2.59114 0
M  V30 5250 H 495.769 4.93653 1.7722 0
M  V30 5251 H 497.243 4.36189 3.38295 0
M  V30 5252 H 497.72 2.66891 3.48806 0
M  V30 5253 H 498.326 3.67024 2.14881 0
M  V30 5254 N 496.642 -0.504142 1.49319 0
M  V30 5255 C 497.552 -1.63248 1.68486 0
M  V30 5256 C 498.568 -1.64488 0.567432 0
M  V30 5257 O 499.744 -1.82966 0.841749 0
M  V30 5258 C 496.809 -2.99627 1.74426 0
M  V30 5259 C 495.87 -3.09039 2.97982 0
M  V30 5260 C 495.103 -4.38913 3.0363 0
M  V30 5261 O 495.326 -5.27528 2.16958 0
M  V30 5262 O 494.26 -4.53231 3.96062 0
M  V30 5263 H 498.086 -1.50008 2.64067 0
M  V30 5264 H 495.671 -0.680086 1.33023 0
M  V30 5265 H 497.553 -3.80689 1.80705 0
M  V30 5266 H 496.228 -3.13136 0.820233 0
M  V30 5267 H 495.135 -2.27177 2.97223 0
M  V30 5268 H 496.468 -3.00456 3.89855 0
M  V30 5269 N 498.12 -1.38341 -0.754957 0
M  V30 5270 C 499.397 -1.24995 -1.50451 0
M  V30 5271 C 499.777 0.149244 -2.10572 0
M  V30 5272 O 499.125 1.15861 -1.96948 0
M  V30 5273 C 499.335 -2.35904 -2.57197 0
M  V30 5274 C 500.683 -2.74262 -3.24138 0
M  V30 5275 O 501.707 -2.35205 -2.67501 0
M  V30 5276 O 500.566 -3.4161 -4.26574 0
M  V30 5277 H 497.66 -0.48872 -0.667144 0
M  V30 5278 H 500.206 -1.50165 -0.790486 0
M  V30 5279 H 498.978 -3.2953 -2.11011 0
M  V30 5280 H 498.601 -2.12291 -3.36182 0
M  V30 5281 N 499.598 0.982988 -1.23187 0
M  V30 5282 C 500.548 2.05962 -0.977942 0
M  V30 5283 C 501.532 1.60725 0.0751148 0
M  V30 5284 O 502.724 1.76471 -0.136683 0
M  V30 5285 C 499.853 3.38564 -0.568276 0
M  V30 5286 C 498.939 3.90407 -1.6566 0
M  V30 5287 N 499.33 4.15359 -2.88635 0
M  V30 5288 C 497.628 4.18915 -1.53058 0
M  V30 5289 C 498.329 4.57642 -3.5908 0
M  V30 5290 N 497.305 4.6192 -2.86584 0
M  V30 5291 H 501.107 2.23208 -1.91195 0
M  V30 5292 H 498.621 1.16555 -1.13087 0
M  V30 5293 H 500.618 4.15276 -0.36764 0
M  V30 5294 H 499.278 3.22712 0.358713 0
M  V30 5295 H 500.289 4.03258 -3.24966 0
M  V30 5296 H 496.966 4.12081 -0.670506 0
M  V30 5297 H 498.356 4.85488 -4.6449 0
M  V30 5298 N 501.076 1.04316 1.18135 0
M  V30 5299 C 502.023 0.636398 2.21853 0
M  V30 5300 C 502.993 -0.357039 1.62217 0
M  V30 5301 O 504.178 -0.250453 1.89149 0
M  V30 5302 C 501.318 0.00812779 3.45099 0
M  V30 5303 C 500.431 1.04933 4.19062 0
M  V30 5304 C 499.566 0.389313 5.29771 0
M  V30 5305 C 498.605 1.41544 5.9551 0
M  V30 5306 N 497.742 0.78021 6.97751 0
M  V30 5307 H 502.582 1.52536 2.56002 0
M  V30 5308 H 500.119 0.76304 1.25762 0
M  V30 5309 H 502.077 -0.373497 4.15525 0
M  V30 5310 H 500.707 -0.844336 3.11562 0
M  V30 5311 H 499.759 1.54888 3.47439 0
M  V30 5312 H 501.071 1.82862 4.64072 0
M  V30 5313 H 500.225 -0.0463805 6.06682 0
M  V30 5314 H 498.964 -0.422038 4.8587 0
M  V30 5315 H 497.969 1.86124 5.17337 0
M  V30 5316 H 499.194 2.22854 6.41493 0
M  V30 5317 H 497.14 -0.0107899 6.55999 0
M  V30 5318 H 497.057 1.49716 7.41027 0
M  V30 5319 H 498.325 0.368996 7.78626 0
M  V30 5320 N 502.554 -1.34406 0.822964 0
M  V30 5321 C 503.803 -1.97542 0.407458 0
M  V30 5322 C 504.116 -1.65973 -1.035 0
M  V30 5323 O 505.322 -2.22598 -1.55442 0
M  V30 5324 C 503.778 -3.53463 0.677623 0
M  V30 5325 C 503.386 -3.93925 2.1337 0
M  V30 5326 C 505.13 -4.23229 0.328284 0
M  V30 5327 C 503.037 -5.42759 2.34876 0
M  V30 5328 H 501.967 -0.739207 0.148623 0
M  V30 5329 H 504.618 -1.53248 1.00932 0
M  V30 5330 H 503 -3.96 0.00558965 0
M  V30 5331 H 504.174 -3.62494 2.8449 0
M  V30 5332 H 502.489 -3.37097 2.44448 0
M  V30 5333 H 505.086 -5.32659 0.466794 0
M  V30 5334 H 505.429 -4.09899 -0.727224 0
M  V30 5335 H 505.962 -3.86169 0.954896 0
M  V30 5336 H 502.701 -5.61075 3.38932 0
M  V30 5337 H 502.221 -5.75704 1.68299 0
M  V30 5338 H 503.9 -6.0944 2.17236 0
M  V30 5339 N 504.032 -0.577932 -1.46621 0
M  V30 5340 C 504.965 0.206312 -2.27265 0
M  V30 5341 C 505.943 0.901306 -1.35334 0
M  V30 5342 O 507.127 0.916151 -1.64739 0
M  V30 5343 C 504.254 1.29563 -3.1294 0
M  V30 5344 C 503.3 0.706981 -4.206 0
M  V30 5345 S 504.133 -0.462459 -5.33499 0
M  V30 5346 C 505.289 0.628171 -6.2274 0
M  V30 5347 H 505.522 -0.477961 -2.93433 0
M  V30 5348 H 503.055 -0.364715 -1.50031 0
M  V30 5349 H 505.013 1.91935 -3.62865 0
M  V30 5350 H 503.674 1.95183 -2.46095 0
M  V30 5351 H 502.867 1.52565 -4.80354 0
M  V30 5352 H 502.469 0.159022 -3.73662 0
M  V30 5353 H 504.761 1.51506 -6.60342 0
M  V30 5354 H 505.704 0.0674961 -7.08068 0
M  V30 5355 H 506.112 0.930167 -5.56784 0
M  V30 5356 N 505.51 1.54411 -0.315457 0
M  V30 5357 C 506.473 2.22713 0.54142 0
M  V30 5358 C 507.473 1.2179 1.04995 0
M  V30 5359 O 508.663 1.46426 0.943667 0
M  V30 5360 C 505.795 2.92485 1.75116 0
M  V30 5361 H 506.988 2.99849 -0.0555508 0
M  V30 5362 H 504.541 1.56159 -0.0664453 0
M  V30 5363 H 505.276 2.19466 2.38758 0
M  V30 5364 H 505.061 3.66483 1.39401 0
M  V30 5365 H 506.551 3.44548 2.35959 0
M  V30 5366 N 506.988 0.0434614 1.5754 0
M  V30 5367 C 508.213 -0.645358 1.97104 0
M  V30 5368 C 508.638 -1.64037 0.920521 0
M  V30 5369 O 507.996 -1.80922 -0.11708 0
M  V30 5370 C 508.044 -1.31547 3.35749 0
M  V30 5371 O 507.148 -2.43103 3.33129 0
M  V30 5372 H 506.489 -0.168403 0.64229 0
M  V30 5373 H 509.019 0.109573 2.04306 0
M  V30 5374 H 509.029 -1.66895 3.72304 0
M  V30 5375 H 507.704 -0.586205 4.11748 0
M  V30 5376 H 506.281 -2.0976 3.0831 0
M  V30 5377 N 508.466 -1.55915 -0.229846 0
M  V30 5378 C 509.376 -1.94891 -1.30593 0
M  V30 5379 C 510.392 -0.851604 -1.51736 0
M  V30 5380 O 511.568 -1.15447 -1.65027 0
M  V30 5381 C 508.633 -2.25052 -2.63728 0
M  V30 5382 C 507.694 -3.48306 -2.5096 0
M  V30 5383 C 506.927 -3.77019 -3.77747 0
M  V30 5384 O 507.15 -3.07534 -4.80395 0
M  V30 5385 O 506.084 -4.70523 -3.75356 0
M  V30 5386 H 509.91 -2.86581 -1.00525 0
M  V30 5387 H 507.495 -1.43017 -0.432025 0
M  V30 5388 H 509.377 -2.45682 -3.42372 0
M  V30 5389 H 508.052 -1.36538 -2.93495 0
M  V30 5390 H 506.959 -3.32964 -1.70546 0
M  V30 5391 H 508.292 -4.37177 -2.26136 0
M  V30 5392 N 509.944 0.496216 -1.49584 0
M  V30 5393 C 510.892 1.61805 -1.67098 0
M  V30 5394 C 511.886 1.60667 -0.536877 0
M  V30 5395 O 513.092 1.65118 -0.716654 0
M  V30 5396 H 509.467 0.53646 -0.526986 0
M  V30 5397 H 511.438 1.44187 -2.61252 0
M  V30 5398 C 510.187 2.99912 -1.75921 0
M  V30 5399 H 509.51 3.01496 -2.62565 0
M  V30 5400 H 510.95 3.77931 -1.92209 0
M  V30 5401 C 509.409 3.33092 -0.505088 0
M  V30 5402 O 509.939 4.00019 0.367085 0
M  V30 5403 N 508.145 2.88278 -0.366599 0
M  V30 5404 H 507.692 2.33989 -1.07735 0
M  V30 5405 H 507.65 3.10846 0.47142 0
M  V30 5406 N 511.423 1.38739 0.74761 0
M  V30 5407 C 512.648 1.38702 1.54197 0
M  V30 5408 C 513.073 -0.019664 1.8809 0
M  V30 5409 O 512.431 -1.00333 1.51006 0
M  V30 5410 C 512.479 2.25492 2.814 0
M  V30 5411 O 511.583 1.67613 3.76802 0
M  V30 5412 H 510.924 0.472863 0.466151 0
M  V30 5413 H 513.454 1.82577 0.923413 0
M  V30 5414 H 513.464 2.39561 3.30264 0
M  V30 5415 H 512.139 3.27727 2.56062 0
M  V30 5416 H 510.716 1.62718 3.35526 0
M  V30 5417 N 512.901 -0.976442 1.23707 0
M  V30 5418 C 514.126 -1.75875 1.09922 0
M  V30 5419 C 514.551 -1.84911 -0.34489 0
M  V30 5420 O 513.909 -1.31363 -1.24954 0
M  V30 5421 C 513.957 -3.16179 1.73388 0
M  V30 5422 O 513.061 -4.00124 0.99871 0
M  V30 5423 H 512.402 -0.540954 0.385052 0
M  V30 5424 H 514.932 -1.22546 1.6384 0
M  V30 5425 H 514.942 -3.66741 1.78788 0
M  V30 5426 H 513.617 -3.08917 2.78466 0
M  V30 5427 H 512.194 -3.58624 1.02193 0
M  V30 5428 N 514.379 -1.04941 -1.1758 0
M  V30 5429 C 515.342 -0.652456 -2.19717 0
M  V30 5430 C 516.342 0.294745 -1.58076 0
M  V30 5431 O 517.532 0.0789579 -1.74021 0
M  V30 5432 C 514.664 0.0420712 -3.40874 0
M  V30 5433 H 515.857 -1.55642 -2.5635 0
M  V30 5434 H 513.41 -0.842995 -1.31618 0
M  V30 5435 H 514.145 0.95943 -3.09783 0
M  V30 5436 H 513.93 -0.638844 -3.86861 0
M  V30 5437 H 515.42 0.306 -4.16477 0
M  V30 5438 N 515.857 1.33968 -0.830081 0
M  V30 5439 C 516.79 2.27303 -0.202182 0
M  V30 5440 C 517.768 1.49235 0.645581 0
M  V30 5441 O 518.952 1.78433 0.607762 0
M  V30 5442 C 516.079 3.31025 0.716932 0
M  V30 5443 C 515.125 4.26466 -0.0542271 0
M  V30 5444 S 515.958 5.16707 -1.40622 0
M  V30 5445 C 517.114 6.23962 -0.492167 0
M  V30 5446 H 517.347 2.8021 -0.99346 0
M  V30 5447 H 514.88 1.41124 -0.626359 0
M  V30 5448 H 516.838 3.91271 1.24165 0
M  V30 5449 H 515.499 2.76951 1.4818 0
M  V30 5450 H 514.692 4.99858 0.644785 0
M  V30 5451 H 514.294 3.7051 -0.509722 0
M  V30 5452 H 516.586 6.76774 0.31347 0
M  V30 5453 H 517.529 6.97927 -1.19599 0
M  V30 5454 H 517.937 5.64447 -0.0774176 0
M  V30 5455 N 517.335 0.585699 1.46312 0
M  V30 5456 C 518.581 0.0725284 2.0267 0
M  V30 5457 C 518.914 -1.28523 1.45586 0
M  V30 5458 O 518.189 -1.84283 0.622101 0
M  V30 5459 C 518.472 0.0099788 3.60099 0
M  V30 5460 C 518.325 1.39685 4.27561 0
M  V30 5461 C 519.644 -0.689117 4.34671 0
M  V30 5462 H 516.763 0.0278307 0.736474 0
M  V30 5463 H 519.405 0.753472 1.74421 0
M  V30 5464 H 517.555 -0.56992 3.84297 0
M  V30 5465 H 519.227 2.02215 4.14617 0
M  V30 5466 H 517.47 1.96374 3.86807 0
M  V30 5467 H 518.141 1.30553 5.36339 0
M  V30 5468 H 520.617 -0.196446 4.15636 0
M  V30 5469 H 519.493 -0.701921 5.44393 0
M  V30 5470 H 519.754 -1.75101 4.05946 0
M  V30 5471 N 518.813 -1.54241 0.323641 0
M  V30 5472 C 519.745 -2.21836 -0.576311 0
M  V30 5473 C 520.758 -1.21837 -1.07979 0
M  V30 5474 O 521.947 -1.48306 -0.99336 0
M  V30 5475 C 519.047 -2.86923 -1.80356 0
M  V30 5476 C 518.22 -4.1306 -1.43875 0
M  V30 5477 C 517.279 -4.6174 -2.52353 0
M  V30 5478 O 516.305 -5.26421 -2.16494 0
M  V30 5479 N 517.507 -4.35974 -3.83284 0
M  V30 5480 H 520.272 -2.997 0.00247987 0
M  V30 5481 H 517.833 -1.61233 0.146848 0
M  V30 5482 H 519.825 -3.16414 -2.52318 0
M  V30 5483 H 518.395 -2.12765 -2.29019 0
M  V30 5484 H 517.615 -3.90334 -0.550752 0
M  V30 5485 H 518.903 -4.95148 -1.17071 0
M  V30 5486 H 518.301 -3.84203 -4.15216 0
M  V30 5487 H 516.858 -4.70119 -4.51477 0
M  V30 5488 N 520.291 -0.0518155 -1.57515 0
M  V30 5489 C 521.537 0.622745 -1.93002 0
M  V30 5490 C 521.87 1.70456 -0.930499 0
M  V30 5491 O 521.145 1.94452 0.0434086 0
M  V30 5492 C 521.428 1.21824 -3.38867 0
M  V30 5493 C 521.281 0.144434 -4.49568 0
M  V30 5494 C 522.6 2.12968 -3.8514 0
M  V30 5495 H 519.719 0.22491 -0.701844 0
M  V30 5496 H 522.361 -0.113711 -1.89659 0
M  V30 5497 H 520.511 1.8459 -3.41846 0
M  V30 5498 H 522.183 -0.48753 -4.58717 0
M  V30 5499 H 520.426 -0.527424 -4.30582 0
M  V30 5500 H 521.097 0.601127 -5.48717 0
M  V30 5501 H 523.573 1.60163 -3.8404 0
M  V30 5502 H 522.449 2.51578 -4.87852 0
M  V30 5503 H 522.71 3.03004 -3.21934 0
M  V30 5504 N 521.769 1.56035 0.221574 0
M  V30 5505 C 522.719 1.8881 1.27807 0
M  V30 5506 C 523.703 0.751177 1.42289 0
M  V30 5507 O 524.895 1.01359 1.45104 0
M  V30 5508 C 522.024 2.20828 2.6285 0
M  V30 5509 C 521.11 3.40912 2.52269 0
M  V30 5510 N 521.501 4.59531 2.1134 0
M  V30 5511 C 519.799 3.44526 2.83228 0
M  V30 5512 C 520.5 5.41689 2.1201 0
M  V30 5513 N 519.476 4.814 2.52497 0
M  V30 5514 H 523.278 2.78036 0.952529 0
M  V30 5515 H 520.792 1.566 0.430134 0
M  V30 5516 H 522.789 2.42483 3.39127 0
M  V30 5517 H 521.449 1.32914 2.9625 0
M  V30 5518 H 522.46 4.8469 1.82472 0
M  V30 5519 H 519.137 2.66956 3.21 0
M  V30 5520 H 520.527 6.46643 1.82491 0
M  V30 5521 N 523.247 -0.488276 1.49845 0
M  V30 5522 C 524.472 -1.26997 1.63971 0
M  V30 5523 C 524.897 -1.85427 0.315994 0
M  V30 5524 O 524.255 -1.66475 -0.718032 0
M  V30 5525 C 524.303 -2.36689 2.72049 0
M  V30 5526 O 523.407 -3.40882 2.32107 0
M  V30 5527 H 522.748 -0.374376 0.548396 0
M  V30 5528 H 525.278 -0.583104 1.96115 0
M  V30 5529 H 525.288 -2.82262 2.94605 0
M  V30 5530 H 523.963 -1.93529 3.68129 0
M  V30 5531 H 522.54 -3.01139 2.19931 0
M  V30 5532 N 524.725 -1.39134 -0.740242 0
M  V30 5533 C 525.657 -1.33332 -1.86428 0
M  V30 5534 C 526.67 -0.243042 -1.60976 0
M  V30 5535 O 527.859 -0.501608 -1.71307 0
M  V30 5536 C 524.959 -1.04626 -3.22346 0
M  V30 5537 C 524.132 -2.24826 -3.75196 0
M  V30 5538 C 523.191 -1.92659 -4.89662 0
M  V30 5539 O 522.217 -2.6529 -5.03597 0
M  V30 5540 N 523.419 -0.889575 -5.73643 0
M  V30 5541 H 526.184 -2.30196 -1.91911 0
M  V30 5542 H 523.745 -1.33168 -0.920756 0
M  V30 5543 H 525.737 -0.811347 -3.96484 0
M  V30 5544 H 524.307 -0.165129 -3.12164 0
M  V30 5545 H 523.527 -2.64301 -2.9247 0
M  V30 5546 H 524.815 -3.05015 -4.07239 0
M  V30 5547 H 524.213 -0.287529 -5.64969 0
M  V30 5548 H 522.77 -0.714557 -6.47871 0
M  V30 5549 N 526.204 0.969867 -1.24223 0
M  V30 5550 C 527.452 1.70918 -1.0785 0
M  V30 5551 C 527.773 1.91186 0.383763 0
M  V30 5552 O 527.043 1.48806 1.27411 0
M  V30 5553 H 525.623 0.633334 -0.396103 0
M  V30 5554 H 528.285 1.16689 -1.56108 0
M  V30 5555 H 527.381 2.69455 -1.57482 0
M  V30 5556 N 527.682 1.05563 1.17022 0
M  V30 5557 C 529.098 0.777684 1.39371 0
M  V30 5558 C 529.298 -0.626269 1.91521 0
M  V30 5559 O 528.354 -1.38806 2.10924 0
M  V30 5560 C 529.667 1.83642 2.3811 0
M  V30 5561 C 531.215 1.85907 2.51809 0
M  V30 5562 C 531.69 2.90813 3.53824 0
M  V30 5563 N 533.181 2.898 3.61345 0
M  V30 5564 C 533.916 3.6762 4.40049 0
M  V30 5565 N 533.412 4.55237 5.22237 0
M  V30 5566 N 535.205 3.56044 4.34959 0
M  V30 5567 H 527.356 1.9614 0.815047 0
M  V30 5568 H 529.619 0.849527 0.420722 0
M  V30 5569 H 529.325 2.84425 2.06871 0
M  V30 5570 H 529.199 1.6812 3.37662 0
M  V30 5571 H 531.586 0.857865 2.82356 0
M  V30 5572 H 531.667 2.05506 1.52318 0
M  V30 5573 H 531.311 3.91122 3.24015 0
M  V30 5574 H 531.241 2.68465 4.53028 0
M  V30 5575 H 533.732 2.26274 3.02669 0
M  V30 5576 H 534.045 5.11291 5.79484 0
M  V30 5577 H 532.39 4.59296 5.21605 0
M  V30 5578 H 535.581 2.86986 3.69806 0
M  V30 5579 H 535.754 4.16938 4.96051 0
M  V30 5580 N 529.16 -1.33526 0.837174 0
M  V30 5581 C 530.07 -2.33023 0.271568 0
M  V30 5582 C 531.086 -1.63272 -0.601514 0
M  V30 5583 O 532.262 -1.94939 -0.506038 0
M  V30 5584 C 529.327 -3.42382 -0.545448 0
M  V30 5585 C 528.388 -4.27857 0.351709 0
M  V30 5586 C 527.621 -5.31994 -0.426409 0
M  V30 5587 O 527.844 -5.45763 -1.65828 0
M  V30 5588 O 526.778 -6.01572 0.1987 0
M  V30 5589 H 530.604 -2.83256 1.09545 0
M  V30 5590 H 528.189 -1.36837 0.599655 0
M  V30 5591 H 530.071 -4.09122 -1.00979 0
M  V30 5592 H 528.746 -2.94369 -1.34641 0
M  V30 5593 H 527.653 -3.6399 0.863853 0
M  V30 5594 H 528.986 -4.79349 1.1174 0
M  V30 5595 N 530.638 -0.59345 -1.46 0
M  V30 5596 C 531.601 0.123538 -2.28867 0
M  V30 5597 C 532.601 0.808628 -1.38989 0
M  V30 5598 O 533.791 0.658945 -1.61256 0
M  V30 5599 C 530.923 1.1847 -3.19653 0
M  V30 5600 H 532.116 -0.604843 -2.93737 0
M  V30 5601 H 529.669 -0.351875 -1.52288 0
M  V30 5602 H 530.404 1.94431 -2.59552 0
M  V30 5603 H 530.189 0.69783 -3.8584 0
M  V30 5604 H 531.679 1.68726 -3.81997 0
M  V30 5605 N 532.116 1.54067 -0.331816 0
M  V30 5606 C 533.079 2.23275 0.517768 0
M  V30 5607 C 534.079 1.22897 1.03697 0
M  V30 5608 O 535.269 1.47419 0.928084 0
M  V30 5609 C 532.401 2.94326 1.72004 0
M  V30 5610 H 533.594 2.99773 -0.0873507 0
M  V30 5611 H 531.147 1.56079 -0.0830042 0
M  V30 5612 H 531.882 2.21986 2.36417 0
M  V30 5613 H 531.667 3.67941 1.35507 0
M  V30 5614 H 533.157 3.47031 2.32291 0
M  V30 5615 N 533.594 0.0601682 1.57485 0
M  V30 5616 C 534.84 -0.612501 1.93329 0
M  V30 5617 C 535.173 -1.6996 0.939526 0
M  V30 5618 O 534.448 -1.94472 -0.0330957 0
M  V30 5619 C 534.731 -1.20025 3.39508 0
M  V30 5620 C 534.584 -0.12059 4.49638 0
M  V30 5621 C 535.903 -2.10923 3.86264 0
M  V30 5622 H 533.022 -0.221185 0.703027 0
M  V30 5623 H 535.664 0.123768 1.89596 0
M  V30 5624 H 533.814 -1.82774 3.42821 0
M  V30 5625 H 535.486 0.51185 4.58452 0
M  V30 5626 H 533.729 0.550251 4.30296 0
M  V30 5627 H 534.4 -0.572019 5.49028 0
M  V30 5628 H 536.876 -1.58124 3.84884 0
M  V30 5629 H 535.752 -2.48987 4.8918 0
M  V30 5630 H 536.013 -3.01292 3.23536 0
M  V30 5631 N 535.072 -1.5615 -0.213296 0
M  V30 5632 C 536.297 -1.83986 -0.957282 0
M  V30 5633 C 536.722 -0.641526 -1.76822 0
M  V30 5634 O 536.08 0.409722 -1.7661 0
M  V30 5635 C 536.128 -3.09889 -1.84393 0
M  V30 5636 O 535.232 -2.89163 -2.94038 0
M  V30 5637 H 534.573 -0.606357 -0.270605 0
M  V30 5638 H 537.103 -2.03369 -0.224111 0
M  V30 5639 H 537.113 -3.40209 -2.25215 0
M  V30 5640 H 535.788 -3.96735 -1.24795 0
M  V30 5641 H 534.365 -2.70097 -2.57103 0
M  V30 5642 N 536.55 0.480323 -1.50102 0
M  V30 5643 C 537.5 1.57685 -1.6468 0
M  V30 5644 C 538.484 1.52878 -0.5017 0
M  V30 5645 O 539.676 1.60058 -0.755668 0
M  V30 5646 C 536.805 2.96185 -1.73578 0
M  V30 5647 C 535.891 3.0591 -2.93734 0
M  V30 5648 N 536.282 2.85471 -4.1754 0
M  V30 5649 C 534.58 3.37036 -2.92101 0
M  V30 5650 C 535.281 2.99921 -4.9842 0
M  V30 5651 N 534.257 3.29715 -4.32191 0
M  V30 5652 H 538.059 1.40568 -2.58104 0
M  V30 5653 H 535.573 0.686874 -1.47159 0
M  V30 5654 H 537.57 3.75015 -1.82124 0
M  V30 5655 H 536.23 3.14356 -0.813057 0
M  V30 5656 H 537.241 2.61235 -4.47188 0
M  V30 5657 H 533.918 3.61253 -2.09291 0
M  V30 5658 H 535.308 2.88436 -6.06839 0
M  V30 5659 N 538.028 1.39524 0.732853 0
M  V30 5660 C 538.958 1.41153 1.86005 0
M  V30 5661 C 539.939 0.274614 1.67869 0
M  V30 5662 O 541.124 0.480745 1.88155 0
M  V30 5663 C 538.254 1.25638 3.23778 0
M  V30 5664 C 537.208 2.36752 3.56556 0
M  V30 5665 C 536.534 2.06326 4.93289 0
M  V30 5666 C 537.834 3.79069 3.5931 0
M  V30 5667 H 539.528 2.35484 1.84899 0
M  V30 5668 H 537.074 1.13348 0.888162 0
M  V30 5669 H 539.027 1.25398 4.0231 0
M  V30 5670 H 537.751 0.277772 3.25417 0
M  V30 5671 H 536.41 2.36213 2.80355 0
M  V30 5672 H 536.058 1.06897 4.9151 0
M  V30 5673 H 535.758 2.80757 5.16187 0
M  V30 5674 H 537.282 2.07739 5.74175 0
M  V30 5675 H 538.696 3.81526 4.27914 0
M  V30 5676 H 537.093 4.52878 3.93728 0
M  V30 5677 H 538.163 4.09893 2.59068 0
M  V30 5678 N 539.506 -0.963266 1.24736 0
M  V30 5679 C 540.734 -1.74166 1.11686 0
M  V30 5680 C 541.149 -1.8589 -0.330187 0
M  V30 5681 O 540.506 -1.35042 -1.2276 0
M  V30 5682 C 540.557 -3.15989 1.75595 0
M  V30 5683 O 540.278 -3.04847 3.14642 0
M  V30 5684 C 541.779 -4.10145 1.68213 0
M  V30 5685 H 538.999 -0.546031 0.389989 0
M  V30 5686 H 541.543 -1.20907 1.64929 0
M  V30 5687 H 539.698 -3.66219 1.26343 0
M  V30 5688 H 540.112 -3.9425 3.4593 0
M  V30 5689 H 541.586 -5.07299 2.17604 0
M  V30 5690 H 542.063 -4.3445 0.644208 0
M  V30 5691 H 542.669 -3.65827 2.16912 0
M  V30 5692 N 540.985 -1.06182 -1.16461 0
M  V30 5693 C 542.213 -0.798583 -1.90867 0
M  V30 5694 C 542.628 0.646921 -1.77371 0
M  V30 5695 O 541.985 1.44279 -1.11758 0
M  V30 5696 C 542.036 -1.18258 -3.4161 0
M  V30 5697 O 541.757 -2.57135 -3.54701 0
M  V30 5698 C 543.258 -0.946917 -4.33069 0
M  V30 5699 H 540.478 -0.289603 -0.605286 0
M  V30 5700 H 543.022 -1.41515 -1.47627 0
M  V30 5701 H 541.177 -0.610562 -3.82558 0
M  V30 5702 H 541.591 -2.72477 -4.4817 0
M  V30 5703 H 543.065 -1.26523 -5.37304 0
M  V30 5704 H 543.542 0.117406 -4.39043 0
M  V30 5705 H 544.148 -1.50326 -3.97847 0
M  V30 5706 N 542.463 1.3308 -0.844243 0
M  V30 5707 C 543.393 2.3161 -0.296493 0
M  V30 5708 C 544.374 1.59215 0.598707 0
M  V30 5709 O 545.559 1.87077 0.521134 0
M  V30 5710 C 542.689 3.43313 0.524762 0
M  V30 5711 C 541.643 4.27115 -0.275106 0
M  V30 5712 C 540.969 5.30483 0.670236 0
M  V30 5713 C 542.269 5.00443 -1.49514 0
M  V30 5714 H 543.963 2.77672 -1.11976 0
M  V30 5715 H 541.509 1.33496 -0.539899 0
M  V30 5716 H 543.462 4.11273 0.918298 0
M  V30 5717 H 542.186 2.95952 1.3813 0
M  V30 5718 H 540.845 3.60787 -0.650267 0
M  V30 5719 H 540.493 4.79379 1.52332 0
M  V30 5720 H 540.193 5.87435 0.139123 0
M  V30 5721 H 541.717 6.01308 1.06117 0
M  V30 5722 H 543.131 5.61141 -1.17447 0
M  V30 5723 H 541.528 5.67071 -1.96343 0
M  V30 5724 H 542.598 4.28906 -2.26202 0
M  V30 5725 N 543.941 0.601185 1.45683 0
M  V30 5726 C 544.904 -0.111398 2.28929 0
M  V30 5727 C 545.904 -0.801246 1.39416 0
M  V30 5728 O 547.094 -0.650383 1.61603 0
M  V30 5729 C 544.226 -1.16773 3.20276 0
M  V30 5730 H 545.419 0.620412 2.93413 0
M  V30 5731 H 542.972 0.359946 1.52099 0
M  V30 5732 H 543.707 -1.93051 2.60579 0
M  V30 5733 H 543.492 -0.677358 3.86205 0
M  V30 5734 H 544.982 -1.66698 3.82886 0
M  V30 5735 N 545.419 -1.53889 0.339982 0
M  V30 5736 C 546.647 -2.05271 -0.259114 0
M  V30 5737 C 547.062 -1.21517 -1.44496 0
M  V30 5738 O 546.419 -0.24966 -1.80784 0
M  V30 5739 C 546.47 -3.55092 -0.677634 0
M  V30 5740 O 546.191 -4.35667 0.461051 0
M  V30 5741 C 547.692 -4.22631 -1.33782 0
M  V30 5742 H 544.912 -0.669085 -0.0506566 0
M  V30 5743 H 547.456 -1.9852 0.490935 0
M  V30 5744 H 545.611 -3.62077 -1.37763 0
M  V30 5745 H 546.025 -5.24343 0.128144 0
M  V30 5746 H 547.499 -5.28861 -1.58145 0
M  V30 5747 H 547.976 -3.74758 -2.29027 0
M  V30 5748 H 548.582 -4.19829 -0.679957 0
M  V30 5749 N 546.897 -0.0685191 -1.57451 0
M  V30 5750 C 548.146 0.600898 -1.92541 0
M  V30 5751 C 548.459 1.70967 -0.950239 0
M  V30 5752 O 549.665 2.43844 -1.19384 0
M  V30 5753 C 548.121 1.12019 -3.42023 0
M  V30 5754 C 547.729 0.0426028 -4.4798 0
M  V30 5755 C 549.473 1.76386 -3.86119 0
M  V30 5756 C 547.38 0.575759 -5.88591 0
M  V30 5757 H 546.31 0.228225 -0.71863 0
M  V30 5758 H 548.961 -0.140223 -1.82963 0
M  V30 5759 H 547.343 1.91418 -3.46663 0
M  V30 5760 H 548.517 -0.73182 -4.54952 0
M  V30 5761 H 546.832 -0.504642 -4.13331 0
M  V30 5762 H 549.429 2.17302 -4.88553 0
M  V30 5763 H 549.772 2.62255 -3.23308 0
M  V30 5764 H 550.305 1.03615 -3.84069 0
M  V30 5765 H 547.044 -0.245691 -6.55039 0
M  V30 5766 H 546.564 1.31778 -5.85145 0
M  V30 5767 H 548.243 1.0532 -6.3837 0
M  V30 5768 N 548.375 1.56261 0.205012 0
M  V30 5769 C 549.6 1.84491 0.947512 0
M  V30 5770 C 550.025 0.650894 1.76479 0
M  V30 5771 O 549.383 -0.40035 1.76824 0
M  V30 5772 C 549.431 3.10863 1.82747 0
M  V30 5773 O 548.535 2.90719 2.925 0
M  V30 5774 H 547.876 0.607783 0.267386 0
M  V30 5775 H 550.406 2.03485 0.213323 0
M  V30 5776 H 550.416 3.41399 2.23407 0
M  V30 5777 H 549.091 3.97392 1.2269 0
M  V30 5778 H 547.668 2.71457 2.55667 0
M  V30 5779 N 549.853 -0.472356 1.50355 0
M  V30 5780 C 551.081 -1.24784 1.65035 0
M  V30 5781 C 551.496 -1.85837 0.333176 0
M  V30 5782 O 550.853 -1.69168 -0.68472 0
M  V30 5783 C 550.904 -2.35747 2.74054 0
M  V30 5784 O 550.625 -1.77197 4.00665 0
M  V30 5785 C 552.126 -3.26645 2.99696 0
M  V30 5786 H 549.346 -0.377432 0.554785 0
M  V30 5787 H 551.89 -0.563962 1.9657 0
M  V30 5788 H 550.045 -2.99912 2.45217 0
M  V30 5789 H 550.459 -2.5026 4.60945 0
M  V30 5790 H 551.933 -4.00718 3.79644 0
M  V30 5791 H 552.41 -3.8535 2.10718 0
M  V30 5792 H 553.016 -2.68218 3.3006 0
M  V30 5793 N 551.331 -1.39911 -0.725443 0
M  V30 5794 C 552.556 -1.41137 -1.5197 0
M  V30 5795 C 552.981 -0.010262 -1.88097 0
M  V30 5796 O 552.339 0.979184 -1.52583 0
M  V30 5797 C 552.387 -2.2994 -2.77777 0
M  V30 5798 O 551.491 -1.73586 -3.74088 0
M  V30 5799 H 550.832 -0.480219 -0.458569 0
M  V30 5800 H 553.362 -1.84023 -0.894249 0
M  V30 5801 H 553.372 -2.44785 -3.26411 0
M  V30 5802 H 552.047 -3.31759 -2.50816 0
M  V30 5803 H 550.624 -1.68035 -3.32894 0
M  V30 5804 N 552.809 0.956637 -1.25245 0
M  V30 5805 C 554.22 1.51569 -1.09012 0
M  V30 5806 C 554.571 1.93322 0.334813 0
M  V30 5807 O 553.696 1.78421 1.22454 0
M  V30 5808 C 554.291 2.75444 -1.97271 0
M  V30 5809 C 552.85 3.27669 -1.8523 0
M  V30 5810 C 551.997 2.00517 -1.91542 0
M  V30 5811 H 554.948 0.773746 -1.3856 0
M  V30 5812 H 554.969 3.4919 -1.51151 0
M  V30 5813 H 554.481 2.45024 -3.00973 0
M  V30 5814 H 552.582 3.62914 -0.844045 0
M  V30 5815 H 552.695 3.9582 -2.69932 0
M  V30 5816 H 551.059 2.15727 -1.35404 0
M  V30 5817 H 551.842 1.72448 -2.96844 0
M  V30 5818 N 554.287 1.06798 1.15896 0
M  V30 5819 C 555.219 0.641263 2.20046 0
M  V30 5820 C 556.232 -0.303355 1.59949 0
M  V30 5821 O 557.421 -0.0935478 1.78255 0
M  V30 5822 C 554.521 -0.0794029 3.38807 0
M  V30 5823 C 553.694 0.879986 4.28457 0
M  V30 5824 C 552.753 0.197638 5.25829 0
M  V30 5825 O 551.779 0.836913 5.63014 0
M  V30 5826 N 552.981 -1.05886 5.70761 0
M  V30 5827 H 555.746 1.53718 2.57276 0
M  V30 5828 H 553.307 0.951951 1.30956 0
M  V30 5829 H 555.299 -0.546418 4.00994 0
M  V30 5830 H 553.869 -0.877193 3.0004 0
M  V30 5831 H 553.089 1.52625 3.63454 0
M  V30 5832 H 554.377 1.53065 4.8523 0
M  V30 5833 H 553.775 -1.59828 5.42652 0
M  V30 5834 H 552.332 -1.46965 6.35015 0
M  V30 5835 N 555.766 -1.3263 0.851289 0
M  V30 5836 C 556.991 -2.02097 0.466006 0
M  V30 5837 C 557.416 -1.63574 -0.928709 0
M  V30 5838 O 556.774 -0.834665 -1.60944 0
M  V30 5839 C 556.822 -3.55425 0.608737 0
M  V30 5840 O 555.926 -4.10827 -0.359878 0
M  V30 5841 H 555.267 -0.636911 0.187724 0
M  V30 5842 H 557.797 -1.69253 1.14955 0
M  V30 5843 H 557.807 -4.04986 0.495006 0
M  V30 5844 H 556.482 -3.82806 1.62581 0
M  V30 5845 H 555.059 -3.72349 -0.202666 0
M  V30 5846 N 557.244 -0.608902 -1.45362 0
M  V30 5847 C 558.174 0.0964526 -2.33301 0
M  V30 5848 C 559.155 0.857444 -1.46908 0
M  V30 5849 O 560.34 0.827735 -1.75676 0
M  V30 5850 C 557.47 1.09354 -3.29635 0
M  V30 5851 C 556.424 0.445676 -4.25673 0
M  V30 5852 C 555.75 1.5511 -5.11708 0
M  V30 5853 C 557.05 -0.633972 -5.18438 0
M  V30 5854 H 558.744 -0.637829 -2.92527 0
M  V30 5855 H 556.29 -0.308178 -1.40664 0
M  V30 5856 H 558.243 1.59556 -3.90025 0
M  V30 5857 H 556.967 1.85843 -2.6857 0
M  V30 5858 H 555.626 -0.0354897 -3.66583 0
M  V30 5859 H 555.274 2.30631 -4.4701 0
M  V30 5860 H 554.974 1.12311 -5.76767 0
M  V30 5861 H 556.498 2.05537 -5.74967 0
M  V30 5862 H 557.912 -0.215974 -5.72893 0
M  V30 5863 H 556.309 -0.983789 -5.91981 0
M  V30 5864 H 557.379 -1.51005 -4.60788 0
M  V30 5865 N 558.722 1.53707 -0.348139 0
M  V30 5866 C 559.95 2.05406 0.248224 0
M  V30 5867 C 560.365 1.22282 1.43849 0
M  V30 5868 O 559.722 0.259244 1.80649 0
M  V30 5869 C 559.773 3.55446 0.658793 0
M  V30 5870 O 559.494 4.35417 -0.484149 0
M  V30 5871 C 560.995 4.23335 1.31539 0
M  V30 5872 H 558.215 0.669344 0.0471075 0
M  V30 5873 H 560.759 1.98257 -0.501456 0
M  V30 5874 H 558.914 3.62803 1.35841 0
M  V30 5875 H 559.328 5.24268 -0.155949 0
M  V30 5876 H 560.802 5.29692 1.55338 0
M  V30 5877 H 561.279 3.75967 2.27036 0
M  V30 5878 H 561.885 4.20184 0.657683 0
M  V30 5879 N 560.2 0.0768682 1.57412 0
M  V30 5880 C 561.428 -0.59997 1.9801 0
M  V30 5881 C 561.843 -1.62842 0.955408 0
M  V30 5882 O 561.2 -1.8241 -0.057314 0
M  V30 5883 C 561.251 -1.26401 3.38681 0
M  V30 5884 O 560.972 -0.276723 4.37225 0
M  V30 5885 C 562.473 -2.0282 3.94182 0
M  V30 5886 H 559.693 -0.162239 0.651091 0
M  V30 5887 H 562.237 0.150771 2.03943 0
M  V30 5888 H 560.392 -1.96581 3.33819 0
M  V30 5889 H 560.806 -0.753744 5.19056 0
M  V30 5890 H 562.28 -2.44667 4.94815 0
M  V30 5891 H 562.757 -2.88678 3.31001 0
M  V30 5892 H 563.363 -1.37496 4.02461 0
M  V30 5893 N 561.678 -1.56367 -0.196722 0
M  V30 5894 C 562.625 -1.94417 -1.24382 0
M  V30 5895 C 563.595 -0.804543 -1.45315 0
M  V30 5896 O 564.78 -1.06256 -1.58475 0
M  V30 5897 C 561.92 -2.28757 -2.58388 0
M  V30 5898 C 561.033 -3.55775 -2.45047 0
M  V30 5899 C 560.168 -3.79445 -3.71746 0
M  V30 5900 C 559.207 -4.99894 -3.53231 0
M  V30 5901 N 558.344 -5.19826 -4.71938 0
M  V30 5902 H 563.184 -2.83691 -0.912338 0
M  V30 5903 H 560.721 -1.40392 -0.439135 0
M  V30 5904 H 562.679 -2.46682 -3.36457 0
M  V30 5905 H 561.309 -1.42625 -2.89582 0
M  V30 5906 H 560.361 -3.45905 -1.58284 0
M  V30 5907 H 561.673 -4.44 -2.27299 0
M  V30 5908 H 560.827 -3.97601 -4.58256 0
M  V30 5909 H 559.566 -2.89546 -3.92446 0
M  V30 5910 H 558.571 -4.81662 -2.65107 0
M  V30 5911 H 559.796 -5.913 -3.33978 0
M  V30 5912 H 557.742 -4.32875 -4.92905 0
M  V30 5913 H 557.659 -6.02228 -4.57009 0
M  V30 5914 H 558.927 -5.42439 -5.59803 0
M  V30 5915 N 563.156 0.464375 -1.50603 0
M  V30 5916 C 564.567 1.04507 -1.5471 0
M  V30 5917 C 564.918 1.9297 -0.354542 0
M  V30 5918 O 564.043 2.09763 0.531812 0
M  V30 5919 C 564.638 1.90207 -2.80369 0
M  V30 5920 C 563.197 2.43373 -2.87135 0
M  V30 5921 C 562.344 1.21886 -2.49076 0
M  V30 5922 H 565.295 0.246716 -1.56771 0
M  V30 5923 H 565.316 2.75353 -2.62604 0
M  V30 5924 H 564.828 1.25796 -3.67147 0
M  V30 5925 H 562.929 3.11318 -2.04724 0
M  V30 5926 H 563.042 2.7802 -3.90181 0
M  V30 5927 H 561.406 1.55575 -2.01664 0
M  V30 5928 H 562.189 0.591268 -3.3817 0
M  V30 5929 N 564.634 1.40294 0.718013 0
M  V30 5930 C 565.882 1.38167 1.47494 0
M  V30 5931 C 566.203 -0.01607 1.94993 0
M  V30 5932 O 565.473 -0.970396 1.70177 0
M  V30 5933 H 564.053 0.508505 0.547203 0
M  V30 5934 H 566.715 1.75324 0.851322 0
M  V30 5935 H 565.811 2.05503 2.34894 0
M  V30 5936 N 566.112 -0.949982 1.2575 0
M  V30 5937 C 567.523 -1.50989 1.09815 0
M  V30 5938 C 567.874 -1.93497 -0.324556 0
M  V30 5939 O 566.999 -1.79068 -1.21506 0
M  V30 5940 C 567.594 -2.74394 1.98729 0
M  V30 5941 C 566.153 -3.26682 1.86965 0
M  V30 5942 C 565.3 -1.99498 1.92603 0
M  V30 5943 H 568.251 -0.766387 1.38968 0
M  V30 5944 H 568.272 -3.48383 1.53001 0
M  V30 5945 H 567.784 -2.43425 3.02268 0
M  V30 5946 H 565.885 -3.62461 0.863279 0
M  V30 5947 H 565.998 -3.94383 2.72027 0
M  V30 5948 H 564.362 -2.15005 1.36546 0
M  V30 5949 H 565.145 -1.70871 2.97755 0
M  V30 5950 N 567.59 -1.07411 -1.15328 0
M  V30 5951 C 568.867 -0.710732 -1.82231 0
M  V30 5952 C 569.247 0.806732 -1.95077 0
M  V30 5953 O 568.595 1.72139 -1.50268 0
M  V30 5954 C 568.805 -1.42586 -3.18544 0
M  V30 5955 C 570.153 -1.57836 -3.94174 0
M  V30 5956 O 571.177 -1.38669 -3.281 0
M  V30 5957 O 570.036 -1.8938 -5.12638 0
M  V30 5958 H 567.13 -0.25297 -0.78736 0
M  V30 5959 H 569.676 -1.17508 -1.22434 0
M  V30 5960 H 568.448 -2.46008 -3.04296 0
M  V30 5961 H 568.071 -0.952332 -3.86026 0
M  V30 5962 N 569.068 1.32177 -0.85831 0
M  V30 5963 C 570.016 2.30729 -0.294442 0
M  V30 5964 C 571.01 1.59009 0.584165 0
M  V30 5965 O 572.216 1.73713 0.471562 0
M  V30 5966 H 568.591 0.748097 -0.0765171 0
M  V30 5967 H 570.562 2.75774 -1.1398 0
M  V30 5968 C 569.311 3.44098 0.499208 0
M  V30 5969 H 568.634 3.99449 -0.167579 0
M  V30 5970 H 570.074 4.15202 0.859273 0
M  V30 5971 C 568.533 2.91684 1.68588 0
M  V30 5972 O 569.063 2.89481 2.78503 0
M  V30 5973 N 567.269 2.48036 1.51415 0
M  V30 5974 H 566.816 2.50027 0.620006 0
M  V30 5975 H 566.774 2.13322 2.30957 0
M  V30 5976 N 570.547 0.616602 1.45037 0
M  V30 5977 C 571.772 0.120192 2.07051 0
M  V30 5978 C 572.197 -1.19008 1.45666 0
M  V30 5979 O 571.555 -1.7267 0.552692 0
M  V30 5980 C 571.603 0.00354901 3.606 0
M  V30 5981 O 570.707 -1.04431 3.98958 0
M  V30 5982 H 570.048 0.0781599 0.659384 0
M  V30 5983 H 572.578 0.849167 1.86146 0
M  V30 5984 H 572.588 -0.191754 4.07549 0
M  V30 5985 H 571.263 0.960239 4.04663 0
M  V30 5986 H 569.84 -0.824749 3.63665 0
M  V30 5987 N 572.025 -1.5352 0.356285 0
M  V30 5988 C 573.253 -2.05534 -0.237328 0
M  V30 5989 C 573.668 -1.23043 -1.43199 0
M  V30 5990 O 573.025 -0.268821 -1.80509 0
M  V30 5991 C 573.076 -3.55791 -0.639933 0
M  V30 5992 O 572.797 -4.35154 0.507233 0
M  V30 5993 C 574.298 -4.24027 -1.29292 0
M  V30 5994 H 571.518 -0.669585 -0.0435572 0
M  V30 5995 H 574.062 -1.97988 0.511963 0
M  V30 5996 H 572.217 -3.63518 -1.33915 0
M  V30 5997 H 572.631 -5.24178 0.18375 0
M  V30 5998 H 574.105 -5.30509 -1.52527 0
M  V30 5999 H 574.582 -3.77166 -2.25039 0
M  V30 6000 H 575.188 -4.20527 -0.63539 0
M  V30 6001 N 573.503 -0.0852151 -1.57369 0
M  V30 6002 C 574.453 0.88767 -2.10011 0
M  V30 6003 C 575.437 1.25021 -1.01285 0
M  V30 6004 O 576.629 1.22694 -1.27574 0
M  V30 6005 C 573.758 2.15037 -2.67608 0
M  V30 6006 C 572.844 1.81371 -3.83361 0
M  V30 6007 N 573.235 1.18216 -4.91791 0
M  V30 6008 C 571.533 2.11041 -3.92909 0
M  V30 6009 C 572.234 1.02941 -5.72519 0
M  V30 6010 N 571.21 1.54351 -5.21226 0
M  V30 6011 H 575.012 0.395279 -2.9123 0
M  V30 6012 H 572.526 0.11829 -1.61969 0
M  V30 6013 H 574.523 2.85667 -3.03644 0
M  V30 6014 H 573.183 2.64851 -1.8784 0
M  V30 6015 H 574.194 0.850168 -5.10874 0
M  V30 6016 H 570.871 2.63138 -3.24136 0
M  V30 6017 H 572.261 0.536298 -6.69756 0
M  V30 6018 N 574.981 1.5647 0.188427 0
M  V30 6019 C 575.929 1.95971 1.25293 0
M  V30 6020 C 576.923 0.846047 1.4676 0
M  V30 6021 O 578.129 1.03109 1.47542 0
M  V30 6022 H 574.504 0.623253 0.420784 0
M  V30 6023 H 576.475 2.84731 0.892792 0
M  V30 6024 C 575.224 2.32116 2.58877 0
M  V30 6025 H 574.547 3.17341 2.43176 0
M  V30 6026 H 575.987 2.63613 3.3209 0
M  V30 6027 C 574.446 1.15823 3.16365 0
M  V30 6028 O 574.976 0.436785 3.99318 0
M  V30 6029 N 573.182 0.933278 2.75206 0
M  V30 6030 H 572.729 1.52169 2.07852 0
M  V30 6031 H 572.687 0.156976 3.14008 0
M  V30 6032 N 576.459 -0.456382 1.50847 0
M  V30 6033 C 577.687 -1.23026 1.66349 0
M  V30 6034 C 578.102 -1.85473 0.352868 0
M  V30 6035 O 577.459 -1.69885 -0.666739 0
M  V30 6036 C 577.51 -2.32827 2.76539 0
M  V30 6037 O 577.231 -1.72938 4.02522 0
M  V30 6038 C 578.732 -3.23448 3.03144 0
M  V30 6039 H 575.952 -0.371527 0.558756 0
M  V30 6040 H 578.496 -0.543082 1.97157 0
M  V30 6041 H 576.651 -2.97294 2.48384 0
M  V30 6042 H 577.065 -2.45357 4.63573 0
M  V30 6043 H 578.539 -3.96669 3.83872 0
M  V30 6044 H 579.016 -3.83094 2.14793 0
M  V30 6045 H 579.622 -2.64702 3.32886 0
M  V30 6046 N 577.937 -1.40673 -0.710563 0
M  V30 6047 C 579.348 -1.34975 -1.28991 0
M  V30 6048 C 579.699 -0.0256272 -1.96183 0
M  V30 6049 O 578.824 0.876339 -1.97862 0
M  V30 6050 C 579.419 -2.44467 -2.34567 0
M  V30 6051 C 577.978 -2.42213 -2.88114 0
M  V30 6052 C 577.125 -2.25085 -1.61963 0
M  V30 6053 H 580.076 -1.50406 -0.506343 0
M  V30 6054 H 580.097 -2.12663 -3.15523 0
M  V30 6055 H 579.609 -3.40825 -1.85634 0
M  V30 6056 H 577.71 -1.49568 -3.41263 0
M  V30 6057 H 577.823 -3.37983 -3.39565 0
M  V30 6058 H 576.187 -1.72691 -1.87216 0
M  V30 6059 H 576.97 -3.23449 -1.15047 0
M  V30 6060 N 579.415 0.9433 -1.26252 0
M  V30 6061 C 580.661 1.69175 -1.11837 0
M  V30 6062 C 580.994 1.91238 0.337891 0
M  V30 6063 O 580.269 1.49152 1.24836 0
M  V30 6064 C 580.552 3.06783 -1.88563 0
M  V30 6065 C 580.405 2.9206 -3.42083 0
M  V30 6066 C 581.724 4.06865 -1.67776 0
M  V30 6067 H 578.843 0.61399 -0.407658 0
M  V30 6068 H 581.485 1.09572 -1.55222 0
M  V30 6069 H 579.635 3.57663 -1.51689 0
M  V30 6070 H 581.307 2.48419 -3.88698 0
M  V30 6071 H 579.55 2.27731 -3.69217 0
M  V30 6072 H 580.221 3.89651 -3.90994 0
M  V30 6073 H 582.697 3.64939 -1.99897 0
M  V30 6074 H 581.573 5.01168 -2.23879 0
M  V30 6075 H 581.834 4.37705 -0.621816 0
M  V30 6076 N 580.893 1.08022 1.14757 0
M  V30 6077 C 582.123 0.827646 1.89298 0
M  V30 6078 C 582.531 -0.623506 1.78631 0
M  V30 6079 O 581.874 -1.43991 1.14071 0
M  V30 6080 C 581.936 1.16553 3.40082 0
M  V30 6081 C 581.6 2.61866 3.74533 0
M  V30 6082 C 582.597 3.60116 3.74984 0
M  V30 6083 C 580.282 2.97619 4.04633 0
M  V30 6084 C 582.276 4.92151 4.05051 0
M  V30 6085 C 579.963 4.2985 4.34364 0
M  V30 6086 C 580.961 5.26926 4.34555 0
M  V30 6087 O 580.649 6.5678 4.63568 0
M  V30 6088 H 580.381 0.298396 0.606577 0
M  V30 6089 H 582.935 1.44187 1.46285 0
M  V30 6090 H 581.165 0.494296 3.83528 0
M  V30 6091 H 582.854 0.894407 3.95923 0
M  V30 6092 H 583.62 3.33837 3.51821 0
M  V30 6093 H 579.499 2.22702 4.03639 0
M  V30 6094 H 583.043 5.67915 4.05115 0
M  V30 6095 H 578.94 4.55879 4.56995 0
M  V30 6096 H 579.708 6.62035 4.81303 0
M  V30 6097 N 582.371 -1.3172 0.865308 0
M  V30 6098 C 583.318 -2.2863 0.315736 0
M  V30 6099 C 584.288 -1.55524 -0.583213 0
M  V30 6100 O 585.473 -1.83694 -0.51585 0
M  V30 6101 C 582.613 -3.41735 -0.480773 0
M  V30 6102 C 581.726 -4.297 0.445167 0
M  V30 6103 C 580.861 -5.29944 -0.365012 0
M  V30 6104 C 579.9 -6.09554 0.557651 0
M  V30 6105 N 579.037 -7.01768 -0.215994 0
M  V30 6106 H 583.877 -2.75026 1.14736 0
M  V30 6107 H 581.414 -1.35302 0.577209 0
M  V30 6108 H 583.372 -4.06045 -0.958306 0
M  V30 6109 H 582.002 -2.96461 -1.27714 0
M  V30 6110 H 581.054 -3.65875 1.04113 0
M  V30 6111 H 582.366 -4.85295 1.15284 0
M  V30 6112 H 581.52 -5.99908 -0.905255 0
M  V30 6113 H 580.259 -4.74994 -1.106 0
M  V30 6114 H 579.264 -5.38485 1.10969 0
M  V30 6115 H 580.489 -6.66591 1.29742 0
M  V30 6116 H 578.435 -6.49232 -0.939878 0
M  V30 6117 H 578.352 -7.54762 0.432431 0
M  V30 6118 H 579.62 -7.76002 -0.737618 0
M  V30 6119 N 583.85 -0.624285 -1.44708 0
M  V30 6120 C 584.779 0.0717025 -2.3339 0
M  V30 6121 C 585.76 0.841814 -1.47809 0
M  V30 6122 O 586.946 0.809056 -1.76544 0
M  V30 6123 C 584.076 1.05852 -3.30776 0
M  V30 6124 C 583.029 0.400503 -4.26122 0
M  V30 6125 C 582.356 1.49674 -5.13324 0
M  V30 6126 C 583.656 -0.688924 -5.17737 0
M  V30 6127 H 585.35 -0.668819 -2.91834 0
M  V30 6128 H 582.896 -0.32308 -1.40329 0
M  V30 6129 H 584.849 1.5541 -3.91696 0
M  V30 6130 H 583.572 1.82984 -2.70526 0
M  V30 6131 H 582.231 -0.0743687 -3.66525 0
M  V30 6132 H 581.88 2.25877 -4.49431 0
M  V30 6133 H 581.58 1.06188 -5.77926 0
M  V30 6134 H 583.104 1.99427 -5.77115 0
M  V30 6135 H 584.518 -0.276724 -5.72632 0
M  V30 6136 H 582.915 -1.04652 -5.90904 0
M  V30 6137 H 583.985 -1.55884 -4.5916 0
M  V30 6138 N 585.328 1.53329 -0.364422 0
M  V30 6139 C 586.605 1.93557 0.281962 0
M  V30 6140 C 586.985 1.29786 1.6649 0
M  V30 6141 O 586.333 0.456512 2.23893 0
M  V30 6142 C 586.543 3.47405 0.333331 0
M  V30 6143 C 587.891 4.20699 0.574231 0
M  V30 6144 O 588.915 3.53779 0.414588 0
M  V30 6145 O 587.774 5.39287 0.885002 0
M  V30 6146 H 584.868 0.809573 0.168881 0
M  V30 6147 H 587.414 1.64494 -0.417121 0
M  V30 6148 H 586.186 3.86091 -0.636326 0
M  V30 6149 H 585.809 3.82697 1.07836 0
M  V30 6150 N 586.806 0.0935595 1.57322 0
M  V30 6151 C 588.055 -0.570191 1.93473 0
M  V30 6152 C 588.368 -1.69434 0.977318 0
M  V30 6153 O 589.574 -2.41914 1.23248 0
M  V30 6154 C 588.03 -1.06564 3.43762 0
M  V30 6155 C 587.638 0.0286723 4.47991 0
M  V30 6156 C 589.382 -1.70221 3.88877 0
M  V30 6157 C 587.289 -0.482046 5.89432 0
M  V30 6158 H 586.219 -0.216764 0.72217 0
M  V30 6159 H 588.87 0.169313 1.82717 0
M  V30 6160 H 587.252 -1.85878 3.49664 0
M  V30 6161 H 588.426 0.804106 4.5373 0
M  V30 6162 H 586.741 0.570336 4.12476 0
M  V30 6163 H 589.338 -2.09502 4.91948 0
M  V30 6164 H 589.681 -2.57078 3.27439 0
M  V30 6165 H 590.214 -0.974919 3.85668 0
M  V30 6166 H 586.953 0.349871 6.54566 0
M  V30 6167 H 586.473 -1.22452 5.87167 0
M  V30 6168 H 588.152 -0.951508 6.39965 0
M  V30 6169 N 588.284 -1.56567 -0.180126 0
M  V30 6170 C 589.509 -1.85975 -0.918041 0
M  V30 6171 C 589.934 -0.678888 -1.75422 0
M  V30 6172 O 589.292 0.372168 -1.77439 0
M  V30 6173 C 589.34 -3.13731 -1.77779 0
M  V30 6174 O 588.444 -2.95335 -2.87838 0
M  V30 6175 H 587.785 -0.61196 -0.257683 0
M  V30 6176 H 590.315 -2.03798 -0.180923 0
M  V30 6177 H 590.325 -3.4491 -2.17948 0
M  V30 6178 H 589 -3.99293 -1.16352 0
M  V30 6179 H 587.577 -2.7549 -2.51316 0
M  V30 6180 N 589.762 0.448376 -1.51087 0
M  V30 6181 C 590.672 1.56882 -1.74428 0
M  V30 6182 C 591.688 1.62268 -0.62809 0
M  V30 6183 O 592.864 1.79716 -0.909075 0
M  V30 6184 C 589.929 2.92947 -1.85426 0
M  V30 6185 C 588.99 2.97766 -3.09247 0
M  V30 6186 C 588.223 4.27341 -3.19711 0
M  V30 6187 O 588.446 5.19112 -2.36387 0
M  V30 6188 O 587.38 4.38219 -4.12611 0
M  V30 6189 H 591.206 1.40104 -2.69452 0
M  V30 6190 H 588.791 0.630247 -1.35456 0
M  V30 6191 H 590.673 3.73719 -1.94709 0
M  V30 6192 H 589.348 3.09876 -0.935887 0
M  V30 6193 H 588.255 2.15989 -3.0545 0
M  V30 6194 H 589.588 2.8578 -4.00738 0
M  V30 6195 N 591.24 1.41047 0.703093 0
M  V30 6196 C 592.203 1.42036 1.79884 0
M  V30 6197 C 593.203 0.312153 1.57741 0
M  V30 6198 O 594.393 0.571672 1.64553 0
M  V30 6199 C 591.525 1.22437 3.18154 0
M  V30 6200 H 592.718 2.39572 1.80403 0
M  V30 6201 H 590.271 1.27079 0.909977 0
M  V30 6202 H 591.006 0.257112 3.23279 0
M  V30 6203 H 590.791 2.02723 3.35627 0
M  V30 6204 H 592.281 1.25946 3.98155 0
M  V30 6205 N 592.718 -0.936591 1.26751 0
M  V30 6206 C 593.946 -1.71758 1.15355 0
M  V30 6207 C 594.361 -1.86549 -0.290683 0
M  V30 6208 O 593.718 -1.37616 -1.19868 0
M  V30 6209 C 593.769 -3.12193 1.82258 0
M  V30 6210 O 593.49 -2.98105 3.21038 0
M  V30 6211 C 594.991 -4.06485 1.76875 0
M  V30 6212 H 592.211 -0.537636 0.401483 0
M  V30 6213 H 594.755 -1.17382 1.67457 0
M  V30 6214 H 592.91 -3.63456 1.34083 0
M  V30 6215 H 593.324 -3.86824 3.54214 0
M  V30 6216 H 594.798 -5.02569 2.28316 0
M  V30 6217 H 595.275 -4.32986 0.736216 0
M  V30 6218 H 595.881 -3.61144 2.24623 0
M  V30 6219 N 594.196 -1.08629 -1.14182 0
M  V30 6220 C 595.128 -0.676189 -2.18998 0
M  V30 6221 C 596.141 0.277871 -1.60411 0
M  V30 6222 O 597.33 0.0651771 -1.78381 0
M  V30 6223 C 594.43 0.0254916 -3.3889 0
M  V30 6224 C 593.603 -0.948039 -4.27002 0
M  V30 6225 C 592.662 -0.281268 -5.25448 0
M  V30 6226 O 591.688 -0.926378 -5.61611 0
M  V30 6227 N 592.89 0.967923 -5.72374 0
M  V30 6228 H 595.655 -1.57792 -2.54798 0
M  V30 6229 H 593.216 -0.972665 -1.29425 0
M  V30 6230 H 595.208 0.482554 -4.01813 0
M  V30 6231 H 593.778 0.829348 -3.01398 0
M  V30 6232 H 592.998 -1.58388 -3.6098 0
M  V30 6233 H 594.286 -1.60765 -4.82734 0
M  V30 6234 H 593.684 1.51175 -5.45126 0
M  V30 6235 H 592.241 1.36844 -6.37273 0
M  V30 6236 N 595.674 1.31259 -0.872281 0
M  V30 6237 C 596.92 1.96913 -0.485083 0
M  V30 6238 C 597.253 1.68774 0.960667 0
M  V30 6239 O 596.528 0.985495 1.67685 0
M  V30 6240 C 596.811 3.52299 -0.745502 0
M  V30 6241 C 596.664 3.90002 -2.24095 0
M  V30 6242 C 597.983 4.39582 -0.213516 0
M  V30 6243 H 595.102 0.715252 -0.177716 0
M  V30 6244 H 597.744 1.55347 -1.09395 0
M  V30 6245 H 595.894 3.87835 -0.227276 0
M  V30 6246 H 597.566 3.64555 -2.82661 0
M  V30 6247 H 595.809 3.38526 -2.71261 0
M  V30 6248 H 596.48 4.98352 -2.37381 0
M  V30 6249 H 598.956 4.10882 -0.656902 0
M  V30 6250 H 597.832 5.47251 -0.42516 0
M  V30 6251 H 598.093 4.33158 0.884666 0
M  V30 6252 N 597.152 0.631951 1.44375 0
M  V30 6253 C 598.062 -0.073674 2.34484 0
M  V30 6254 C 599.078 -0.834825 1.52665 0
M  V30 6255 O 600.254 -0.786902 1.85391 0
M  V30 6256 C 597.319 -1.04247 3.30656 0
M  V30 6257 C 596.38 -0.280602 4.28382 0
M  V30 6258 C 595.613 -1.20325 5.19959 0
M  V30 6259 O 595.836 -2.44199 5.15484 0
M  V30 6260 O 594.77 -0.687128 5.97965 0
M  V30 6261 H 598.596 0.667477 2.96274 0
M  V30 6262 H 596.181 0.392144 1.44162 0
M  V30 6263 H 598.063 -1.59981 3.89851 0
M  V30 6264 H 596.738 -1.76422 2.71398 0
M  V30 6265 H 595.645 0.319804 3.72731 0
M  V30 6266 H 596.978 0.401144 4.90563 0
M  V30 6267 N 598.631 -1.53133 0.372548 0
M  V30 6268 C 599.563 -2.23557 -0.505444 0
M  V30 6269 C 600.576 -1.25211 -1.04049 0
M  V30 6270 O 601.765 -1.51391 -0.945675 0
M  V30 6271 C 598.865 -2.92516 -1.71136 0
M  V30 6272 C 598.038 -4.17428 -1.30661 0
M  V30 6273 C 597.097 -4.69535 -2.37536 0
M  V30 6274 O 596.123 -5.33042 -1.99637 0
M  V30 6275 N 597.325 -4.47947 -3.6922 0
M  V30 6276 H 600.09 -2.9954 0.0978259 0
M  V30 6277 H 597.651 -1.60684 0.198068 0
M  V30 6278 H 599.643 -3.24281 -2.42124 0
M  V30 6279 H 598.213 -2.19944 -2.22134 0
M  V30 6280 H 597.433 -3.91888 -0.426292 0
M  V30 6281 H 598.721 -4.98622 -1.01259 0
M  V30 6282 H 598.119 -3.97219 -4.02783 0
M  V30 6283 H 596.676 -4.84245 -4.36292 0
M  V30 6284 N 600.109 -0.101901 -1.5727 0
M  V30 6285 C 601.059 0.865346 -2.1094 0
M  V30 6286 C 602.043 1.2394 -1.02605 0
M  V30 6287 O 603.235 1.21334 -1.28868 0
M  V30 6288 C 600.364 2.12187 -2.69874 0
M  V30 6289 C 599.45 1.77295 -3.85263 0
M  V30 6290 N 599.841 1.12993 -4.93017 0
M  V30 6291 C 598.139 2.06862 -3.95126 0
M  V30 6292 C 598.84 0.968631 -5.73579 0
M  V30 6293 N 597.816 1.48814 -5.22834 0
M  V30 6294 H 601.618 0.364368 -2.91633 0
M  V30 6295 H 599.132 0.101104 -1.62085 0
M  V30 6296 H 601.129 2.82431 -3.06657 0
M  V30 6297 H 599.789 2.62844 -1.90639 0
M  V30 6298 H 600.8 0.795935 -5.11747 0
M  V30 6299 H 597.477 2.59686 -3.26909 0
M  V30 6300 H 598.867 0.465231 -6.70287 0
M  V30 6301 N 601.587 1.56661 0.17182 0
M  V30 6302 C 602.537 1.92781 1.21736 0
M  V30 6303 C 603.521 0.796065 1.39827 0
M  V30 6304 O 604.713 1.05924 1.41806 0
M  V30 6305 C 601.842 2.29079 2.55691 0
M  V30 6306 C 600.928 3.48765 2.41296 0
M  V30 6307 N 601.319 4.66022 1.96614 0
M  V30 6308 C 599.617 3.53362 2.72124 0
M  V30 6309 C 600.318 5.48159 1.94669 0
M  V30 6310 N 599.294 4.89189 2.37054 0
M  V30 6311 H 603.096 2.80926 0.863592 0
M  V30 6312 H 600.61 1.57889 0.380096 0
M  V30 6313 H 602.607 2.5315 3.31241 0
M  V30 6314 H 601.267 1.42272 2.91871 0
M  V30 6315 H 602.278 4.9025 1.66959 0
M  V30 6316 H 598.955 2.77033 3.12345 0
M  V30 6317 H 600.345 6.52121 1.61826 0
M  V30 6318 N 603.065 -0.440357 1.51323 0
M  V30 6319 C 604.481 -0.7766 1.39431 0
M  V30 6320 C 604.681 -1.95838 0.474296 0
M  V30 6321 O 603.737 -2.52398 -0.0716692 0
M  V30 6322 C 605.05 -1.05981 2.81405 0
M  V30 6323 C 606.598 -1.16442 2.90534 0
M  V30 6324 C 607.073 -1.48058 4.33408 0
M  V30 6325 N 608.564 -1.54988 4.36501 0
M  V30 6326 C 609.299 -1.81017 5.44078 0
M  V30 6327 N 608.795 -2.04858 6.61819 0
M  V30 6328 N 610.588 -1.82774 5.31554 0
M  V30 6329 H 602.739 0.338006 2.09693 0
M  V30 6330 H 605.002 0.0888072 0.943831 0
M  V30 6331 H 604.708 -0.264173 3.50706 0
M  V30 6332 H 604.582 -1.98822 3.20546 0
M  V30 6333 H 606.969 -1.95068 2.21432 0
M  V30 6334 H 607.05 -0.215088 2.54894 0
M  V30 6335 H 606.694 -0.699605 5.03059 0
M  V30 6336 H 606.624 -2.44192 4.66559 0
M  V30 6337 H 609.115 -1.38479 3.51613 0
M  V30 6338 H 609.428 -2.2408 7.396 0
M  V30 6339 H 607.773 -2.02187 6.6494 0
M  V30 6340 H 610.964 -1.63665 4.38556 0
M  V30 6341 H 611.137 -2.02722 6.15474 0
M  V30 6342 N 604.543 -1.41418 -0.695603 0
M  V30 6343 C 605.959 -1.23887 -1.00619 0
M  V30 6344 C 606.159 -0.128206 -2.01092 0
M  V30 6345 O 605.215 0.507408 -2.47349 0
M  V30 6346 C 606.528 -2.58816 -1.53083 0
M  V30 6347 C 608.076 -2.65998 -1.64967 0
M  V30 6348 C 608.551 -4.01244 -2.20833 0
M  V30 6349 N 610.042 -4.0309 -2.28194 0
M  V30 6350 C 610.777 -5.04539 -2.72448 0
M  V30 6351 N 610.273 -6.16378 -3.16306 0
M  V30 6352 N 612.066 -4.91901 -2.72011 0
M  V30 6353 H 604.217 -2.12379 -0.0300061 0
M  V30 6354 H 606.48 -0.944958 -0.0758797 0
M  V30 6355 H 606.186 -3.40842 -0.867147 0
M  V30 6356 H 606.06 -2.81299 -2.51298 0
M  V30 6357 H 608.447 -1.84331 -2.30448 0
M  V30 6358 H 608.528 -2.47325 -0.652982 0
M  V30 6359 H 608.172 -4.83359 -1.55968 0
M  V30 6360 H 608.102 -4.17257 -3.21254 0
M  V30 6361 H 610.593 -3.22341 -1.97242 0
M  V30 6362 H 610.906 -6.89658 -3.487 0
M  V30 6363 H 609.251 -6.19914 -3.14215 0
M  V30 6364 H 612.442 -4.03613 -2.37095 0
M  V30 6365 H 612.615 -5.71102 -3.06181 0
M  V30 6366 N 606.021 0.929856 -1.27246 0
M  V30 6367 C 607.249 1.71144 -1.16265 0
M  V30 6368 C 607.664 1.867 0.280786 0
M  V30 6369 O 607.021 1.38249 1.19136 0
M  V30 6370 C 607.072 3.11222 -1.83911 0
M  V30 6371 O 606.793 2.96398 -3.22614 0
M  V30 6372 C 608.294 4.05541 -1.79028 0
M  V30 6373 H 605.514 0.535499 -0.404328 0
M  V30 6374 H 608.058 1.16492 -1.68077 0
M  V30 6375 H 606.213 3.6274 -1.36009 0
M  V30 6376 H 606.627 3.8494 -3.56261 0
M  V30 6377 H 608.101 5.01351 -2.30978 0
M  V30 6378 H 608.578 4.32589 -0.759168 0
M  V30 6379 H 609.184 3.59947 -2.26535 0
M  V30 6380 N 607.499 1.09233 1.13605 0
M  V30 6381 C 608.776 0.739633 1.81077 0
M  V30 6382 C 609.156 -0.775595 1.96336 0
M  V30 6383 O 608.504 -1.69726 1.52988 0
M  V30 6384 C 608.714 1.47636 3.16235 0
M  V30 6385 C 610.062 1.64087 3.91613 0
M  V30 6386 O 611.086 1.43871 3.25852 0
M  V30 6387 O 609.945 1.97511 5.0956 0
M  V30 6388 H 607.039 0.265464 0.783236 0
M  V30 6389 H 609.585 1.19441 1.20549 0
M  V30 6390 H 608.357 2.50818 3.00344 0
M  V30 6391 H 607.98 1.01362 3.84462 0
M  V30 6392 N 608.977 -1.30795 0.87923 0
M  V30 6393 C 609.925 -2.30231 0.331112 0
M  V30 6394 C 610.919 -1.59918 -0.558794 0
M  V30 6395 O 612.125 -1.74441 -0.443866 0
M  V30 6396 H 608.5 -0.746785 0.088409 0
M  V30 6397 H 610.471 -2.73925 1.18353 0
M  V30 6398 C 609.22 -3.44848 -0.444401 0
M  V30 6399 H 608.543 -3.99131 0.231106 0
M  V30 6400 H 609.983 -4.16516 -0.793109 0
M  V30 6401 C 608.442 -2.94329 -1.63926 0
M  V30 6402 O 608.972 -2.93875 -2.73862 0
M  V30 6403 N 607.178 -2.50413 -1.4745 0
M  V30 6404 H 606.725 -2.50982 -0.58015 0
M  V30 6405 H 606.683 -2.16969 -2.27534 0
M  V30 6406 N 610.455 -0.639598 -1.44038 0
M  V30 6407 C 611.732 -0.078012 -1.95444 0
M  V30 6408 C 612.112 1.39847 -1.58133 0
M  V30 6409 O 611.46 2.11714 -0.859614 0
M  V30 6410 C 611.67 -0.309832 -3.47622 0
M  V30 6411 C 613.018 -0.207521 -4.24093 0
M  V30 6412 O 614.042 -0.241653 -3.55379 0
M  V30 6413 O 612.901 -0.119641 -5.46369 0
M  V30 6414 H 609.995 0.0174534 -0.826816 0
M  V30 6415 H 612.541 -0.711891 -1.54046 0
M  V30 6416 H 611.313 -1.33401 -3.67858 0
M  V30 6417 H 610.936 0.357777 -3.95987 0
M  V30 6418 N 611.933 1.52934 -0.380664 0
M  V30 6419 C 613.158 2.06363 0.207157 0
M  V30 6420 C 613.583 1.25122 1.4045 0
M  V30 6421 O 612.941 0.274062 1.79217 0
M  V30 6422 C 612.989 3.56162 0.563996 0
M  V30 6423 O 612.093 3.77552 1.65917 0
M  V30 6424 H 611.434 0.663468 0.0265859 0
M  V30 6425 H 613.964 1.9719 -0.545635 0
M  V30 6426 H 613.974 3.99453 0.830752 0
M  V30 6427 H 612.649 4.14732 -0.311427 0
M  V30 6428 H 611.226 3.46154 1.3868 0
M  V30 6429 N 613.412 0.11024 1.57214 0
M  V30 6430 C 614.64 -0.557834 1.99238 0
M  V30 6431 C 615.055 -1.60778 0.989734 0
M  V30 6432 O 614.412 -1.82491 -0.0186092 0
M  V30 6433 C 614.463 -1.19189 3.41286 0
M  V30 6434 O 614.184 -0.183919 4.37714 0
M  V30 6435 C 615.685 -1.94413 3.98395 0
M  V30 6436 H 612.905 -0.148392 0.654386 0
M  V30 6437 H 615.449 0.193996 2.03578 0
M  V30 6438 H 613.604 -1.89456 3.37913 0
M  V30 6439 H 614.018 -0.643475 5.20538 0
M  V30 6440 H 615.492 -2.34116 4.99894 0
M  V30 6441 H 615.969 -2.81592 3.3705 0
M  V30 6442 H 616.575 -1.28928 4.05287 0
M  V30 6443 N 614.89 -1.56749 -0.16351 0
M  V30 6444 C 615.853 -1.96121 -1.18613 0
M  V30 6445 C 616.853 -0.845765 -1.36761 0
M  V30 6446 O 618.043 -1.11268 -1.34033 0
M  V30 6447 C 615.175 -2.26282 -2.54969 0
M  V30 6448 H 616.368 -2.87639 -0.848764 0
M  V30 6449 H 613.921 -1.50928 -0.406251 0
M  V30 6450 H 614.656 -1.37504 -2.93706 0
M  V30 6451 H 614.441 -3.07595 -2.43162 0
M  V30 6452 H 615.931 -2.57638 -3.28653 0
M  V30 6453 N 616.368 0.432326 -1.51554 0
M  V30 6454 C 617.593 1.20824 -1.68571 0
M  V30 6455 C 618.018 1.84126 -0.384596 0
M  V30 6456 O 617.376 1.69025 0.655751 0
M  V30 6457 C 617.424 2.26429 -2.80646 0
M  V30 6458 O 616.528 3.32032 -2.44598 0
M  V30 6459 H 615.869 0.353765 -0.561913 0
M  V30 6460 H 618.399 0.509916 -1.98144 0
M  V30 6461 H 618.409 2.71133 -3.04878 0
M  V30 6462 H 617.084 1.79733 -3.75058 0
M  V30 6463 H 615.661 2.92769 -2.30956 0
M  V30 6464 N 617.846 1.41785 0.688094 0
M  V30 6465 C 619.123 1.32031 1.44316 0
M  V30 6466 C 619.503 -0.0486079 2.11044 0
M  V30 6467 O 618.851 -1.06332 2.02252 0
M  V30 6468 C 619.061 2.47906 2.45649 0
M  V30 6469 C 620.409 2.89415 3.10683 0
M  V30 6470 O 621.433 2.477 2.55975 0
M  V30 6471 O 620.292 3.61573 4.09789 0
M  V30 6472 H 617.386 0.519994 0.643067 0
M  V30 6473 H 619.932 1.53765 0.71794 0
M  V30 6474 H 618.704 3.39222 1.95048 0
M  V30 6475 H 618.327 2.28089 3.25671 0
M  V30 6476 N 619.324 -0.923095 1.27737 0
M  V30 6477 C 620.552 -1.70525 1.17171 0
M  V30 6478 C 620.967 -1.86847 -0.270881 0
M  V30 6479 O 620.324 -1.38879 -1.18401 0
M  V30 6480 C 620.375 -3.10242 1.85559 0
M  V30 6481 O 620.096 -2.94683 3.24182 0
M  V30 6482 C 621.597 -4.04586 1.81176 0
M  V30 6483 H 618.817 -0.533347 0.407163 0
M  V30 6484 H 621.361 -1.15599 1.68692 0
M  V30 6485 H 619.516 -3.62014 1.3793 0
M  V30 6486 H 619.93 -3.83045 3.58297 0
M  V30 6487 H 621.404 -5.00119 2.33633 0
M  V30 6488 H 621.881 -4.3218 0.782099 0
M  V30 6489 H 622.487 -3.58741 2.2844 0
M  V30 6490 N 620.802 -1.09834 -1.13024 0
M  V30 6491 C 622.213 -0.855651 -1.65938 0
M  V30 6492 C 622.564 0.615159 -1.86307 0
M  V30 6493 O 621.689 1.47335 -1.58497 0
M  V30 6494 C 622.284 -1.5467 -3.01434 0
M  V30 6495 C 620.843 -1.35088 -3.51323 0
M  V30 6496 C 619.99 -1.6001 -2.26478 0
M  V30 6497 H 622.941 -1.25691 -0.968889 0
M  V30 6498 H 622.962 -0.982179 -3.67605 0
M  V30 6499 H 622.474 -2.61715 -2.86578 0
M  V30 6500 H 620.575 -0.30179 -3.71376 0
M  V30 6501 H 620.688 -2.0886 -4.31178 0
M  V30 6502 H 619.052 -1.02246 -2.33276 0
M  V30 6503 H 619.835 -2.68293 -2.14182 0
M  V30 6504 N 622.28 1.30327 -0.886154 0
M  V30 6505 C 623.505 2.0079 -0.519425 0
M  V30 6506 C 623.93 1.65979 0.885013 0
M  V30 6507 O 623.288 0.877043 1.58675 0
M  V30 6508 C 623.336 3.53686 -0.702758 0
M  V30 6509 O 622.44 4.11637 0.250828 0
M  V30 6510 H 621.781 0.63171 -0.204544 0
M  V30 6511 H 624.311 1.66145 -1.19402 0
M  V30 6512 H 624.321 4.03531 -0.602207 0
M  V30 6513 H 622.996 3.78361 -1.72673 0
M  V30 6514 H 621.573 3.72755 0.103873 0
M  V30 6515 N 623.758 0.647228 1.43697 0
M  V30 6516 C 624.721 -0.0385101 2.29168 0
M  V30 6517 C 625.721 -0.756487 1.41894 0
M  V30 6518 O 626.911 -0.598641 1.63591 0
M  V30 6519 C 624.043 -1.06524 3.23829 0
M  V30 6520 H 625.236 0.713445 2.9129 0
M  V30 6521 H 622.789 0.408153 1.50877 0
M  V30 6522 H 623.524 -1.84664 2.66589 0
M  V30 6523 H 623.309 -0.554147 3.88164 0
M  V30 6524 H 624.799 -1.54432 3.87996 0
M  V30 6525 N 625.236 -1.5273 0.388769 0
M  V30 6526 C 626.464 -2.05992 -0.193677 0
M  V30 6527 C 626.879 -1.26053 -1.40557 0
M  V30 6528 O 626.236 -0.307049 -1.79898 0
M  V30 6529 C 626.287 -3.57068 -0.564321 0
M  V30 6530 O 626.008 -4.3398 0.599422 0
M  V30 6531 C 627.509 -4.26674 -1.20269 0
M  V30 6532 H 624.729 -0.670358 -0.0293445 0
M  V30 6533 H 627.273 -1.96857 0.553844 0
M  V30 6534 H 625.428 -3.66277 -1.26174 0
M  V30 6535 H 625.842 -5.2367 0.294895 0
M  V30 6536 H 627.316 -5.33625 -1.4124 0
M  V30 6537 H 627.793 -3.81854 -2.16989 0
M  V30 6538 H 628.399 -4.2178 -0.546047 0
M  V30 6539 N 626.714 -0.118576 -1.57153 0
M  V30 6540 C 627.942 0.54726 -1.99531 0
M  V30 6541 C 628.357 1.60251 -0.998246 0
M  V30 6542 O 627.714 1.82498 0.00893106 0
M  V30 6543 C 627.765 1.17378 -3.41913 0
M  V30 6544 O 627.486 0.160703 -4.37805 0
M  V30 6545 C 628.987 1.92297 -3.9942 0
M  V30 6546 H 626.207 0.144919 -0.655164 0
M  V30 6547 H 628.751 -0.20479 -2.03472 0
M  V30 6548 H 626.906 1.87661 -3.38913 0
M  V30 6549 H 627.32 0.61586 -5.20872 0
M  V30 6550 H 628.794 2.31462 -5.01128 0
M  V30 6551 H 629.271 2.79801 -3.38538 0
M  V30 6552 H 629.877 1.26777 -4.05965 0
M  V30 6553 N 628.193 1.56834 0.155195 0
M  V30 6554 C 629.156 1.96748 1.17571 0
M  V30 6555 C 630.156 0.853006 1.3631 0
M  V30 6556 O 631.346 1.11978 1.33441 0
M  V30 6557 C 628.478 2.27631 2.53765 0
M  V30 6558 H 629.671 2.88085 0.833498 0
M  V30 6559 H 627.224 1.51141 0.398242 0
M  V30 6560 H 627.959 1.39059 2.92973 0
M  V30 6561 H 627.744 3.0888 2.41527 0
M  V30 6562 H 629.234 2.59377 3.27282 0
M  V30 6563 N 629.671 -0.424282 1.51781 0
M  V30 6564 C 630.634 -1.49848 1.73431 0
M  V30 6565 C 631.634 -1.49016 0.604225 0
M  V30 6566 O 632.824 -1.50808 0.871935 0
M  V30 6567 C 629.956 -2.89332 1.80277 0
M  V30 6568 H 631.149 -1.3195 2.69312 0
M  V30 6569 H 628.702 -0.653809 1.41968 0
M  V30 6570 H 629.437 -3.12618 0.862568 0
M  V30 6571 H 629.222 -2.9134 2.62419 0
M  V30 6572 H 630.712 -3.67233 1.98821 0
M  V30 6573 N 631.149 -1.42148 -0.680565 0
M  V30 6574 C 632.397 -1.42029 -1.43779 0
M  V30 6575 C 632.718 -0.0356347 -1.94967 0
M  V30 6576 O 631.988 0.924936 -1.7269 0
M  V30 6577 H 630.568 -0.522835 -0.533529 0
M  V30 6578 H 633.23 -1.7752 -0.804538 0
M  V30 6579 H 632.326 -2.11658 -2.29363 0
M  V30 6580 N 632.627 0.916307 -1.28225 0
M  V30 6581 C 634.038 1.48024 -1.13779 0
M  V30 6582 C 634.389 1.94289 0.273139 0
M  V30 6583 O 633.514 1.82226 1.16716 0
M  V30 6584 C 634.109 2.69029 -2.05935 0
M  V30 6585 C 632.668 3.2161 -1.95561 0
M  V30 6586 C 631.815 1.94321 -1.97825 0
M  V30 6587 H 634.766 0.729272 -1.40951 0
M  V30 6588 H 634.787 3.44204 -1.62184 0
M  V30 6589 H 634.299 2.35325 -3.08616 0
M  V30 6590 H 632.4 3.60045 -0.959076 0
M  V30 6591 H 632.513 3.87032 -2.82388 0
M  V30 6592 H 630.877 2.1131 -1.42198 0
M  V30 6593 H 631.66 1.62917 -3.0218 0
M  V30 6594 N 634.105 1.10431 1.1244 0
M  V30 6595 C 635.516 0.864439 1.65482 0
M  V30 6596 C 635.867 -0.60527 1.8663 0
M  V30 6597 O 634.992 -1.46492 1.59276 0
M  V30 6598 C 635.587 1.56267 3.0061 0
M  V30 6599 C 634.146 1.3695 3.50602 0
M  V30 6600 C 633.293 1.61209 2.25626 0
M  V30 6601 H 636.244 1.26203 0.962209 0
M  V30 6602 H 636.265 1.00166 3.67079 0
M  V30 6603 H 635.777 2.63231 2.85186 0
M  V30 6604 H 633.878 0.321481 3.71211 0
M  V30 6605 H 633.991 2.11143 4.30064 0
M  V30 6606 H 632.355 1.03482 2.32731 0
M  V30 6607 H 633.138 2.69425 2.12756 0
M  V30 6608 N 635.583 -1.29855 0.893053 0
M  V30 6609 C 636.53 -2.27909 0.364161 0
M  V30 6610 C 637.5 -1.56726 -0.550093 0
M  V30 6611 O 638.685 -1.84747 -0.47677 0
M  V30 6612 C 635.825 -3.42678 -0.408178 0
M  V30 6613 C 634.938 -4.28659 0.536212 0
M  V30 6614 C 634.073 -5.30599 -0.252521 0
M  V30 6615 C 633.112 -6.08234 0.686822 0
M  V30 6616 N 632.249 -7.02068 -0.0670902 0
M  V30 6617 H 637.089 -2.72531 1.20544 0
M  V30 6618 H 634.626 -1.34047 0.605779 0
M  V30 6619 H 636.584 -4.07986 -0.871962 0
M  V30 6620 H 635.214 -2.99103 -1.21397 0
M  V30 6621 H 634.266 -3.63584 1.1185 0
M  V30 6622 H 635.578 -4.8274 1.25552 0
M  V30 6623 H 634.732 -6.01694 -0.777801 0
M  V30 6624 H 633.471 -4.77233 -1.005 0
M  V30 6625 H 632.476 -5.3601 1.22366 0
M  V30 6626 H 633.701 -6.63689 1.43852 0
M  V30 6627 H 631.647 -6.5108 -0.801955 0
M  V30 6628 H 631.564 -7.53675 0.59243 0
M  V30 6629 H 632.832 -7.77392 -0.572851 0
M  V30 6630 N 637.061 -0.65484 -1.43351 0
M  V30 6631 C 638.024 0.0263562 -2.29185 0
M  V30 6632 C 639.024 0.748951 -1.42293 0
M  V30 6633 O 640.214 0.589957 -1.63906 0
M  V30 6634 C 637.346 1.04806 -3.2439 0
M  V30 6635 H 638.539 -0.728883 -2.90908 0
M  V30 6636 H 636.092 -0.416149 -1.50658 0
M  V30 6637 H 636.827 1.83247 -2.67565 0
M  V30 6638 H 636.612 0.533554 -3.88453 0
M  V30 6639 H 638.102 1.52372 -3.88809 0
M  V30 6640 N 638.539 1.52521 -0.396863 0
M  V30 6641 C 639.449 2.30403 0.44178 0
M  V30 6642 C 640.465 1.37625 1.06468 0
M  V30 6643 O 641.641 1.70697 1.06886 0
M  V30 6644 C 638.706 3.1013 1.54986 0
M  V30 6645 C 637.767 4.18628 0.951279 0
M  V30 6646 C 637 4.94543 2.00655 0
M  V30 6647 O 637.223 4.70629 3.22281 0
M  V30 6648 O 636.157 5.797 1.61962 0
M  V30 6649 H 639.983 3.03087 -0.192892 0
M  V30 6650 H 637.568 1.48537 -0.16038 0
M  V30 6651 H 639.45 3.59816 2.19341 0
M  V30 6652 H 638.125 2.40251 2.16935 0
M  V30 6653 H 637.032 3.73119 0.270773 0
M  V30 6654 H 638.365 4.90763 0.375887 0
M  V30 6655 N 640.017 0.126909 1.57088 0
M  V30 6656 C 640.965 -0.837618 2.16995 0
M  V30 6657 C 641.959 -1.26974 1.12133 0
M  V30 6658 O 643.165 -1.24056 1.30423 0
M  V30 6659 H 639.54 -0.288256 0.694559 0
M  V30 6660 H 641.511 -0.307957 2.96807 0
M  V30 6661 C 640.26 -2.07474 2.79016 0
M  V30 6662 H 639.583 -1.75117 3.59408 0
M  V30 6663 H 641.023 -2.72949 3.24461 0
M  V30 6664 C 639.482 -2.86967 1.76498 0
M  V30 6665 O 640.012 -3.82625 1.22316 0
M  V30 6666 N 638.218 -2.51111 1.46258 0
M  V30 6667 H 637.765 -1.73389 1.90509 0
M  V30 6668 H 637.723 -3.04594 0.779085 0
M  V30 6669 N 641.495 -1.56914 -0.146875 0
M  V30 6670 C 642.723 -1.87515 -0.874394 0
M  V30 6671 C 643.138 -0.715116 -1.74733 0
M  V30 6672 O 642.495 0.315113 -1.79759 0
M  V30 6673 C 642.546 -3.17362 -1.731 0
M  V30 6674 O 642.267 -4.28897 -0.893245 0
M  V30 6675 C 643.768 -3.61479 -2.56609 0
M  V30 6676 H 640.988 -0.621546 -0.252827 0
M  V30 6677 H 643.532 -2.04023 -0.139627 0
M  V30 6678 H 641.687 -3.02608 -2.41883 0
M  V30 6679 H 642.101 -5.03146 -1.48137 0
M  V30 6680 H 643.575 -4.5517 -3.12289 0
M  V30 6681 H 644.052 -2.86773 -3.32653 0
M  V30 6682 H 644.658 -3.78927 -1.93117 0
M  V30 6683 N 642.974 0.416227 -1.52004 0
M  V30 6684 C 643.922 1.5272 -1.7544 0
M  V30 6685 C 644.916 1.57596 -0.621289 0
M  V30 6686 O 646.122 1.61087 -0.803172 0
M  V30 6687 H 642.497 0.507772 -0.554682 0
M  V30 6688 H 644.468 1.30136 -2.68528 0
M  V30 6689 C 643.217 2.90165 -1.91571 0
M  V30 6690 H 642.54 2.87154 -2.78178 0
M  V30 6691 H 643.98 3.67211 -2.11972 0
M  V30 6692 C 642.439 3.29947 -0.680942 0
M  V30 6693 O 642.969 4.01403 0.154527 0
M  V30 6694 N 641.175 2.8593 -0.518894 0
M  V30 6695 H 640.722 2.2795 -1.19986 0
M  V30 6696 H 640.68 3.12907 0.305985 0
M  V30 6697 N 644.452 1.42507 0.673017 0
M  V30 6698 C 645.68 1.46473 1.46128 0
M  V30 6699 C 646.095 0.0765912 1.88645 0
M  V30 6700 O 645.452 -0.909057 1.58248 0
M  V30 6701 C 645.503 2.39339 2.70923 0
M  V30 6702 O 645.224 3.72752 2.3019 0
M  V30 6703 C 646.725 2.52343 3.64469 0
M  V30 6704 H 643.945 0.49812 0.449575 0
M  V30 6705 H 646.489 1.87041 0.826802 0
M  V30 6706 H 644.644 2.02019 3.30556 0
M  V30 6707 H 645.058 4.22503 3.10791 0
M  V30 6708 H 646.532 3.2144 4.48754 0
M  V30 6709 H 647.009 1.56189 4.1049 0
M  V30 6710 H 647.615 2.90392 3.10729 0
M  V30 6711 N 645.93 -0.909495 1.28709 0
M  V30 6712 C 647.155 -1.69801 1.1909 0
M  V30 6713 C 647.58 -1.86479 -0.246388 0
M  V30 6714 O 646.938 -1.37802 -1.17815 0
M  V30 6715 C 646.986 -3.06543 1.89904 0
M  V30 6716 O 646.09 -3.94268 1.2094 0
M  V30 6717 H 645.431 -0.519783 0.413185 0
M  V30 6718 H 647.961 -1.13689 1.70106 0
M  V30 6719 H 647.971 -3.56748 1.97977 0
M  V30 6720 H 646.646 -2.93722 2.94449 0
M  V30 6721 H 645.223 -3.52702 1.2106 0
M  V30 6722 N 647.408 -1.11026 -1.11852 0
M  V30 6723 C 648.355 -0.764662 -2.17765 0
M  V30 6724 C 649.325 0.261854 -1.64023 0
M  V30 6725 O 650.51 0.139748 -1.90288 0
M  V30 6726 C 647.65 -0.209317 -3.44465 0
M  V30 6727 C 646.763 -1.29187 -4.12231 0
M  V30 6728 C 645.898 -0.697523 -5.266 0
M  V30 6729 C 644.937 -1.76023 -5.86244 0
M  V30 6730 N 644.074 -1.18569 -6.92016 0
M  V30 6731 H 648.914 -1.67202 -2.46673 0
M  V30 6732 H 646.451 -0.835065 -1.21099 0
M  V30 6733 H 648.409 0.130599 -4.16996 0
M  V30 6734 H 647.039 0.661251 -3.15955 0
M  V30 6735 H 646.091 -1.74881 -3.37818 0
M  V30 6736 H 647.403 -2.09607 -4.52622 0
M  V30 6737 H 646.557 -0.307412 -6.05921 0
M  V30 6738 H 645.296 0.138044 -4.87505 0
M  V30 6739 H 644.301 -2.1597 -5.05606 0
M  V30 6740 H 645.526 -2.59875 -6.27409 0
M  V30 6741 H 643.472 -0.371695 -6.54946 0
M  V30 6742 H 643.389 -1.92666 -7.31038 0
M  V30 6743 H 644.657 -0.82233 -7.7515 0
M  V30 6744 N 648.886 1.2938 -0.899927 0
M  V30 6745 C 650.111 2.00228 -0.540692 0
M  V30 6746 C 650.536 1.66909 0.867359 0
M  V30 6747 O 649.894 0.893824 1.57735 0
M  V30 6748 C 649.942 3.52921 -0.740232 0
M  V30 6749 O 649.046 4.11879 0.207154 0
M  V30 6750 H 648.387 0.629505 -0.211233 0
M  V30 6751 H 650.917 1.6487 -1.21158 0
M  V30 6752 H 650.927 4.0287 -0.644973 0
M  V30 6753 H 649.602 3.76508 -1.76677 0
M  V30 6754 H 648.179 3.72845 0.0643315 0
M  V30 6755 N 650.364 0.662433 1.43002 0
M  V30 6756 C 651.592 0.187615 2.06048 0
M  V30 6757 C 652.007 -1.15039 1.49705 0
M  V30 6758 O 651.364 -1.71209 0.631956 0
M  V30 6759 C 651.415 0.100498 3.6136 0
M  V30 6760 O 651.136 1.38562 4.15611 0
M  V30 6761 C 652.637 -0.399298 4.41498 0
M  V30 6762 H 649.857 0.0941675 0.664359 0
M  V30 6763 H 652.401 0.905681 1.83351 0
M  V30 6764 H 650.556 -0.568181 3.83211 0
M  V30 6765 H 650.97 1.25084 5.09366 0
M  V30 6766 H 652.444 -0.409187 5.50481 0
M  V30 6767 H 652.921 -1.43232 4.15188 0
M  V30 6768 H 653.527 0.23721 4.24638 0
M  V30 6769 N 651.842 -1.52309 0.404946 0
M  V30 6770 C 653.119 -1.94237 -0.230544 0
M  V30 6771 C 653.499 -1.34154 -1.6299 0
M  V30 6772 O 652.847 -0.515713 -2.22604 0
M  V30 6773 C 653.057 -3.48166 -0.241106 0
M  V30 6774 C 654.405 -4.22074 -0.462488 0
M  V30 6775 O 655.429 -3.54754 -0.320644 0
M  V30 6776 O 654.288 -5.41443 -0.741708 0
M  V30 6777 H 651.382 -0.813766 -0.147358 0
M  V30 6778 H 653.928 -1.6333 0.460587 0
M  V30 6779 H 652.7 -3.84269 0.738467 0
M  V30 6780 H 652.323 -3.85422 -0.97651 0
M  V30 6781 N 653.32 -0.135238 -1.57019 0
M  V30 6782 C 654.567 0.518794 -1.95742 0
M  V30 6783 C 654.895 1.65642 -1.01947 0
M  V30 6784 O 654.15 1.95645 -0.0464016 0
M  V30 6785 C 654.449 1.07694 -3.40788 0
M  V30 6786 C 654.115 0.058992 -4.50861 0
M  V30 6787 C 652.777 -0.220872 -4.80693 0
M  V30 6788 C 655.129 -0.633856 -5.17331 0
M  V30 6789 C 652.457 -1.19959 -5.74305 0
M  V30 6790 C 654.809 -1.60131 -6.11997 0
M  V30 6791 C 653.473 -1.889 -6.40213 0
M  V30 6792 H 652.743 0.18984 -0.716269 0
M  V30 6793 H 655.39 -0.219581 -1.90237 0
M  V30 6794 H 653.695 1.89241 -3.43067 0
M  V30 6795 H 655.392 1.59137 -3.68071 0
M  V30 6796 H 651.982 0.287304 -4.27636 0
M  V30 6797 H 656.166 -0.430823 -4.94427 0
M  V30 6798 H 651.422 -1.42905 -5.94465 0
M  V30 6799 H 655.596 -2.14376 -6.62583 0
M  V30 6800 H 653.223 -2.64891 -7.12556 0
M  V30 6801 N 654.798 1.5699 0.138552 0
M  V30 6802 C 655.728 2.01933 1.17241 0
M  V30 6803 C 656.709 0.90033 1.44319 0
M  V30 6804 O 657.894 1.16872 1.55095 0
M  V30 6805 C 655.024 2.40711 2.50351 0
M  V30 6806 C 653.978 3.55874 2.37776 0
M  V30 6807 C 653.304 3.80491 3.75674 0
M  V30 6808 C 654.604 4.8826 1.85472 0
M  V30 6809 H 656.298 2.88551 0.798672 0
M  V30 6810 H 653.844 1.3882 0.382743 0
M  V30 6811 H 655.797 2.70754 3.22909 0
M  V30 6812 H 654.521 1.5104 2.89576 0
M  V30 6813 H 653.18 3.2601 1.67669 0
M  V30 6814 H 652.828 2.88057 4.12349 0
M  V30 6815 H 652.528 4.57998 3.68119 0
M  V30 6816 H 654.052 4.12967 4.49767 0
M  V30 6817 H 655.466 5.16965 2.4783 0
M  V30 6818 H 653.863 5.69631 1.88787 0
M  V30 6819 H 654.933 4.78071 0.810935 0
M  V30 6820 N 656.276 -0.40816 1.52223 0
M  V30 6821 C 657.553 -1.16807 1.56893 0
M  V30 6822 C 657.933 -2.08169 0.350537 0
M  V30 6823 O 657.281 -2.18684 -0.662536 0
M  V30 6824 C 657.491 -1.94451 2.8981 0
M  V30 6825 C 658.839 -2.50484 3.42845 0
M  V30 6826 O 659.863 -2.0463 2.91556 0
M  V30 6827 O 658.722 -3.34192 4.3241 0
M  V30 6828 H 655.816 -0.533382 0.632007 0
M  V30 6829 H 658.362 -0.414862 1.64551 0
M  V30 6830 H 657.134 -1.27527 3.69936 0
M  V30 6831 H 656.757 -2.76775 2.85449 0
M  V30 6832 N 657.755 -1.42862 -0.66545 0
M  V30 6833 C 659.166 -1.3901 -1.24632 0
M  V30 6834 C 659.517 -0.0880285 -1.96002 0
M  V30 6835 O 658.642 0.812947 -2.0055 0
M  V30 6836 C 659.237 -2.51806 -2.2667 0
M  V30 6837 C 657.796 -2.51257 -2.80262 0
M  V30 6838 C 656.943 -2.30124 -1.5472 0
M  V30 6839 H 659.894 -1.5194 -0.458237 0
M  V30 6840 H 659.915 -2.22593 -3.08598 0
M  V30 6841 H 659.427 -3.46558 -1.74697 0
M  V30 6842 H 657.528 -1.60349 -3.36332 0
M  V30 6843 H 657.641 -3.48614 -3.28641 0
M  V30 6844 H 656.005 -1.7856 -1.81627 0
M  V30 6845 H 656.788 -3.26945 -1.04699 0
M  V30 6846 N 659.233 0.902656 -1.29189 0
M  V30 6847 C 660.196 1.98797 -1.14071 0
M  V30 6848 C 661.196 1.60615 -0.0770549 0
M  V30 6849 O 662.386 1.71165 -0.323753 0
M  V30 6850 C 659.518 3.32688 -0.743739 0
M  V30 6851 H 660.711 2.13637 -2.10473 0
M  V30 6852 H 658.264 1.08678 -1.12334 0
M  V30 6853 H 658.999 3.23549 0.220554 0
M  V30 6854 H 658.784 3.61765 -1.51223 0
M  V30 6855 H 660.274 4.12337 -0.660935 0
M  V30 6856 N 660.711 1.11618 1.11262 0
M  V30 6857 C 661.939 0.888739 1.8684 0
M  V30 6858 C 662.354 -0.561558 1.80255 0
M  V30 6859 O 661.711 -1.38782 1.18515 0
M  V30 6860 C 661.762 1.34422 3.35579 0
M  V30 6861 O 661.483 2.73766 3.42029 0
M  V30 6862 C 662.984 1.15246 4.28058 0
M  V30 6863 H 660.204 0.318152 0.590779 0
M  V30 6864 H 662.748 1.48398 1.40707 0
M  V30 6865 H 660.903 0.79239 3.7921 0
M  V30 6866 H 661.317 2.9355 4.34659 0
M  V30 6867 H 662.791 1.52015 5.30656 0
M  V30 6868 H 663.268 0.0922007 4.39103 0
M  V30 6869 H 663.874 1.69136 3.90222 0
M  V30 6870 N 662.189 -1.289 0.906776 0
M  V30 6871 C 663.417 -1.99401 0.551969 0
M  V30 6872 C 663.832 -1.67816 -0.865048 0
M  V30 6873 O 663.189 -0.927078 -1.57199 0
M  V30 6874 C 663.24 -3.53779 0.743152 0
M  V30 6875 O 662.961 -3.84248 2.1044 0
M  V30 6876 C 664.462 -4.41543 0.39424 0
M  V30 6877 H 661.682 -0.636926 0.211106 0
M  V30 6878 H 664.226 -1.64266 1.21807 0
M  V30 6879 H 662.381 -3.87201 0.124143 0
M  V30 6880 H 662.795 -4.78904 2.13895 0
M  V30 6881 H 664.269 -5.48957 0.578814 0
M  V30 6882 H 664.746 -4.34073 -0.669137 0
M  V30 6883 H 665.352 -4.13605 0.990491 0
M  V30 6884 N 663.667 -0.670007 -1.42649 0
M  V30 6885 C 664.895 -0.19854 -2.05945 0
M  V30 6886 C 665.31 1.14243 -1.50313 0
M  V30 6887 O 664.667 1.70872 -0.641027 0
M  V30 6888 C 664.718 -0.11966 -3.61302 0
M  V30 6889 O 664.439 -1.40764 -4.1487 0
M  V30 6890 C 665.94 0.375878 -4.41704 0
M  V30 6891 H 663.16 -0.0976894 -0.663851 0
M  V30 6892 H 665.704 -0.915392 -1.82868 0
M  V30 6893 H 663.859 0.547851 -3.83507 0
M  V30 6894 H 664.273 -1.27784 -5.08696 0
M  V30 6895 H 665.747 0.379988 -5.50691 0
M  V30 6896 H 666.224 1.41028 -4.15942 0
M  V30 6897 H 666.83 -0.259727 -4.24506 0
M  V30 6898 N 665.145 1.52092 -0.413018 0
M  V30 6899 C 666.37 2.06756 0.163338 0
M  V30 6900 C 666.795 1.28073 1.37764 0
M  V30 6901 O 666.153 0.312015 1.78595 0
M  V30 6902 C 666.201 3.57278 0.488322 0
M  V30 6903 O 665.305 3.80986 1.57871 0
M  V30 6904 H 664.646 0.663882 0.0125068 0
M  V30 6905 H 667.176 1.95988 -0.587339 0
M  V30 6906 H 667.186 4.01125 0.745836 0
M  V30 6907 H 665.861 4.13978 -0.399327 0
M  V30 6908 H 664.438 3.49017 1.31306 0
M  V30 6909 N 666.623 0.143563 1.56945 0
M  V30 6910 C 668.034 -0.37783 1.82837 0
M  V30 6911 C 668.385 -1.64967 1.06209 0
M  V30 6912 O 667.51 -2.14221 0.306291 0
M  V30 6913 C 668.105 -0.692274 3.31652 0
M  V30 6914 C 666.664 -1.1582 3.58138 0
M  V30 6915 C 665.811 -0.17951 2.76718 0
M  V30 6916 H 668.762 0.368317 1.54367 0
M  V30 6917 H 668.783 -1.54729 3.47619 0
M  V30 6918 H 668.295 0.233572 3.87397 0
M  V30 6919 H 666.396 -2.10011 3.07776 0
M  V30 6920 H 666.509 -1.08655 4.66616 0
M  V30 6921 H 664.873 -0.671458 2.4569 0
M  V30 6922 H 665.656 0.739865 3.35233 0
M  V30 6923 N 668.101 -1.57061 -0.130224 0
M  V30 6924 C 669.033 -1.96147 -1.18571 0
M  V30 6925 C 670.046 -0.859347 -1.38272 0
M  V30 6926 O 671.235 -1.13769 -1.37545 0
M  V30 6927 C 668.335 -2.23484 -2.54771 0
M  V30 6928 C 667.508 -3.54786 -2.55824 0
M  V30 6929 C 666.567 -3.70467 -3.73686 0
M  V30 6930 O 665.593 -4.42693 -3.57787 0
M  V30 6931 N 666.795 -3.08389 -4.91809 0
M  V30 6932 H 669.56 -2.87295 -0.853333 0
M  V30 6933 H 667.121 -1.58714 -0.319621 0
M  V30 6934 H 669.113 -2.312 -3.32158 0
M  V30 6935 H 667.683 -1.38518 -2.80235 0
M  V30 6936 H 666.903 -3.5836 -1.64232 0
M  V30 6937 H 668.191 -4.4111 -2.53573 0
M  V30 6938 H 667.589 -2.49656 -5.0763 0
M  V30 6939 H 666.146 -3.21642 -5.66912 0
M  V30 6940 N 669.579 0.400081 -1.52437 0
M  V30 6941 C 670.527 1.50851 -1.7705 0
M  V30 6942 C 671.521 1.56928 -0.637969 0
M  V30 6943 O 672.727 1.60226 -0.820212 0
M  V30 6944 H 669.102 0.50186 -0.560036 0
M  V30 6945 H 671.073 1.27281 -2.69893 0
M  V30 6946 C 669.822 2.88117 -1.94638 0
M  V30 6947 H 669.145 2.84187 -2.81208 0
M  V30 6948 H 670.585 3.64942 -2.15855 0
M  V30 6949 C 669.044 3.29206 -0.715899 0
M  V30 6950 O 669.574 4.01544 0.111944 0
M  V30 6951 N 667.78 2.85363 -0.549191 0
M  V30 6952 H 667.327 2.26664 -1.22397 0
M  V30 6953 H 667.285 3.13214 0.27278 0
M  V30 6954 N 671.057 1.43213 0.657864 0
M  V30 6955 C 672.007 1.44459 1.76396 0
M  V30 6956 C 672.991 0.313641 1.57814 0
M  V30 6957 O 674.183 0.557094 1.68004 0
M  V30 6958 C 671.312 1.36586 3.14959 0
M  V30 6959 C 670.398 2.54692 3.39106 0
M  V30 6960 N 670.789 3.80059 3.33749 0
M  V30 6961 C 669.087 2.49316 3.69807 0
M  V30 6962 C 669.788 4.58606 3.57849 0
M  V30 6963 N 668.764 3.89267 3.79437 0
M  V30 6964 H 672.566 2.39265 1.70673 0
M  V30 6965 H 670.08 1.378 0.859357 0
M  V30 6966 H 672.077 1.35561 3.94245 0
M  V30 6967 H 670.737 0.427956 3.21867 0
M  V30 6968 H 671.748 4.12414 3.13266 0
M  V30 6969 H 668.425 1.6419 3.83859 0
M  V30 6970 H 669.815 5.67619 3.59525 0
M  V30 6971 N 672.536 -0.895792 1.29666 0
M  V30 6972 C 673.761 -1.68528 1.20885 0
M  V30 6973 C 674.186 -1.8673 -0.226595 0
M  V30 6974 O 673.544 -1.39044 -1.16347 0
M  V30 6975 C 673.592 -3.04512 1.93144 0
M  V30 6976 O 672.696 -3.92963 1.25115 0
M  V30 6977 H 672.037 -0.515371 0.418675 0
M  V30 6978 H 674.567 -1.11878 1.71302 0
M  V30 6979 H 674.577 -3.54628 2.0175 0
M  V30 6980 H 673.252 -2.90582 2.97548 0
M  V30 6981 H 671.829 -3.51399 1.24794 0
M  V30 6982 N 674.014 -1.12206 -1.10668 0
M  V30 6983 C 674.924 -0.800686 -2.20513 0
M  V30 6984 C 675.94 0.209512 -1.72734 0
M  V30 6985 O 677.116 0.043705 -2.01353 0
M  V30 6986 C 674.181 -0.257353 -3.45744 0
M  V30 6987 C 673.242 -1.32718 -4.0827 0
M  V30 6988 C 672.475 -0.809674 -5.27522 0
M  V30 6989 O 672.698 0.35742 -5.69279 0
M  V30 6990 O 671.632 -1.57816 -5.80842 0
M  V30 6991 H 675.458 -1.71807 -2.50432 0
M  V30 6992 H 673.043 -0.898546 -1.19359 0
M  V30 6993 H 674.925 0.0408849 -4.2138 0
M  V30 6994 H 673.6 0.632627 -3.17458 0
M  V30 6995 H 672.507 -1.67855 -3.34329 0
M  V30 6996 H 673.84 -2.19083 -4.40753 0
M  V30 6997 N 675.492 1.28418 -0.913599 0
M  V30 6998 C 676.72 1.99106 -0.562536 0
M  V30 6999 C 677.135 1.68273 0.856137 0
M  V30 7000 O 676.492 0.935401 1.56705 0
M  V30 7001 C 676.543 3.5338 -0.761903 0
M  V30 7002 O 676.264 3.83127 -2.12475 0
M  V30 7003 C 677.765 4.41328 -0.417651 0
M  V30 7004 H 674.985 0.635798 -0.214481 0
M  V30 7005 H 677.529 1.63618 -1.22676 0
M  V30 7006 H 675.684 3.8713 -0.144676 0
M  V30 7007 H 676.098 4.77763 -2.16431 0
M  V30 7008 H 677.572 5.48642 -0.607919 0
M  V30 7009 H 678.049 4.34422 0.646108 0
M  V30 7010 H 678.655 4.13074 -1.01241 0
M  V30 7011 N 676.97 0.677563 1.42291 0
M  V30 7012 C 677.933 0.0101085 2.29198 0
M  V30 7013 C 678.933 -0.726219 1.43467 0
M  V30 7014 O 680.123 -0.563807 1.64824 0
M  V30 7015 C 677.255 -0.996316 3.26016 0
M  V30 7016 H 678.448 0.775071 2.89711 0
M  V30 7017 H 676.001 0.440065 1.49977 0
M  V30 7018 H 676.736 -1.78967 2.70446 0
M  V30 7019 H 676.521 -0.471687 3.89253 0
M  V30 7020 H 678.011 -1.46167 3.91184 0
M  V30 7021 N 678.448 -1.51871 0.421078 0
M  V30 7022 C 679.696 -2.01539 -0.150492 0
M  V30 7023 C 680.017 -1.30803 -1.44623 0
M  V30 7024 O 679.287 -0.437568 -1.90951 0
M  V30 7025 H 677.867 -0.744698 -0.0586041 0
M  V30 7026 H 680.529 -1.8668 0.560059 0
M  V30 7027 H 679.625 -3.10264 -0.338068 0
M  V30 7028 N 679.926 -0.151884 -1.56866 0
M  V30 7029 C 680.874 0.80299 -2.183 0
M  V30 7030 C 681.868 1.25174 -1.14139 0
M  V30 7031 O 683.074 1.21966 -1.3238 0
M  V30 7032 H 679.449 0.277169 -0.699057 0
M  V30 7033 H 681.42 0.260699 -2.97259 0
M  V30 7034 C 680.169 2.03009 -2.82281 0
M  V30 7035 H 679.492 1.69377 -3.62148 0
M  V30 7036 H 680.932 2.67753 -3.28762 0
M  V30 7037 C 679.391 2.84123 -1.81041 0
M  V30 7038 O 679.921 3.8063 -1.28388 0
M  V30 7039 N 678.127 2.48753 -1.50234 0
M  V30 7040 H 677.674 1.70337 -1.93244 0
M  V30 7041 H 677.632 3.03316 -0.827445 0
M  V30 7042 N 681.404 1.57128 0.121893 0
M  V30 7043 C 682.352 2.01109 1.16868 0
M  V30 7044 C 683.346 0.907532 1.43039 0
M  V30 7045 O 684.552 1.09274 1.43036 0
M  V30 7046 H 680.927 0.640539 0.393971 0
M  V30 7047 H 682.898 2.88261 0.771224 0
M  V30 7048 C 681.647 2.42887 2.48799 0
M  V30 7049 H 680.97 3.2737 2.29498 0
M  V30 7050 H 682.41 2.77461 3.20611 0
M  V30 7051 C 680.869 1.29137 3.11168 0
M  V30 7052 O 681.399 0.605756 3.97106 0
M  V30 7053 N 679.605 1.04916 2.71 0
M  V30 7054 H 679.152 1.60848 2.01211 0
M  V30 7055 H 679.11 0.290016 3.1306 0
M  V30 7056 N 682.882 -0.391992 1.52647 0
M  V30 7057 C 683.83 -1.4991 1.77848 0
M  V30 7058 C 684.824 -1.56587 0.646282 0
M  V30 7059 O 686.03 -1.59789 0.828698 0
M  V30 7060 H 682.405 -0.498883 0.56269 0
M  V30 7061 H 684.376 -1.25847 2.70564 0
M  V30 7062 C 683.125 -2.87081 1.96163 0
M  V30 7063 H 682.448 -2.82692 2.82711 0
M  V30 7064 H 683.888 -3.63792 2.17787 0
M  V30 7065 C 682.347 -3.28822 0.733348 0
M  V30 7066 O 682.877 -4.01598 -0.0906481 0
M  V30 7067 N 681.083 -2.85068 0.564317 0
M  V30 7068 H 680.63 -2.26012 1.23598 0
M  V30 7069 H 680.588 -3.13355 -0.256166 0
M  V30 7070 N 684.36 -1.4356 -0.65026 0
M  V30 7071 C 685.588 -1.48779 -1.43779 0
M  V30 7072 C 686.003 -0.106593 -1.88499 0
M  V30 7073 O 685.36 0.883766 -1.59674 0
M  V30 7074 C 685.411 -2.43618 -2.67081 0
M  V30 7075 O 685.132 -3.76367 -2.24231 0
M  V30 7076 C 686.633 -2.5811 -3.60409 0
M  V30 7077 H 683.853 -0.50521 -0.441593 0
M  V30 7078 H 686.397 -1.88332 -0.796941 0
M  V30 7079 H 684.552 -2.07253 -3.273 0
M  V30 7080 H 684.966 -4.27394 -3.0403 0
M  V30 7081 H 686.44 -3.28539 -4.43583 0
M  V30 7082 H 686.917 -1.627 -4.07953 0
M  V30 7083 H 687.523 -2.95298 -3.0607 0
M  V30 7084 N 685.838 0.888903 -1.30139 0
M  V30 7085 C 686.788 1.9814 -1.12803 0
M  V30 7086 C 687.772 1.60839 -0.0443137 0
M  V30 7087 O 688.964 1.74971 -0.267208 0
M  V30 7088 C 686.093 3.33416 -0.817849 0
M  V30 7089 C 685.179 3.77043 -1.94163 0
M  V30 7090 N 685.57 3.92805 -3.18651 0
M  V30 7091 C 683.868 4.06407 -1.8371 0
M  V30 7092 C 684.569 4.29746 -3.92038 0
M  V30 7093 N 683.545 4.3939 -3.20059 0
M  V30 7094 H 687.347 2.08411 -2.07225 0
M  V30 7095 H 684.861 1.07845 -1.21421 0
M  V30 7096 H 686.858 4.11405 -0.674668 0
M  V30 7097 H 685.518 3.24484 0.118344 0
M  V30 7098 H 686.529 3.78042 -3.53984 0
M  V30 7099 H 683.206 4.05972 -0.974331 0
M  V30 7100 H 684.596 4.49695 -4.99223 0
M  V30 7101 N 687.317 1.12792 1.10072 0
M  V30 7102 C 688.267 0.768086 2.14673 0
M  V30 7103 C 689.251 -0.234716 1.59179 0
M  V30 7104 O 690.443 -0.039643 1.76956 0
M  V30 7105 C 687.572 0.228472 3.42539 0
M  V30 7106 C 686.658 1.25979 4.04957 0
M  V30 7107 N 687.049 2.4586 4.42025 0
M  V30 7108 C 685.347 1.10602 4.32069 0
M  V30 7109 C 686.048 3.11747 4.9111 0
M  V30 7110 N 685.024 2.39185 4.88151 0
M  V30 7111 H 688.826 1.68029 2.4113 0
M  V30 7112 H 686.34 1.00925 1.27232 0
M  V30 7113 H 688.337 -0.0475216 4.16873 0
M  V30 7114 H 686.997 -0.678136 3.1754 0
M  V30 7115 H 688.008 2.83215 4.33601 0
M  V30 7116 H 684.685 0.257021 4.16708 0
M  V30 7117 H 686.075 4.13862 5.29309 0
M  V30 7118 N 688.795 -1.27931 0.920396 0
M  V30 7119 C 689.727 -2.26175 0.371169 0
M  V30 7120 C 690.74 -1.55122 -0.494065 0
M  V30 7121 O 691.929 -1.75825 -0.30787 0
M  V30 7122 C 689.029 -3.35376 -0.487481 0
M  V30 7123 C 688.202 -4.35943 0.356772 0
M  V30 7124 C 687.261 -5.24374 -0.438042 0
M  V30 7125 O 686.287 -5.68998 0.151715 0
M  V30 7126 N 687.489 -5.53823 -1.73956 0
M  V30 7127 H 690.254 -2.73938 1.21564 0
M  V30 7128 H 687.815 -1.41482 0.787047 0
M  V30 7129 H 689.807 -3.91476 -1.02609 0
M  V30 7130 H 688.377 -2.87269 -1.23269 0
M  V30 7131 H 687.597 -3.7921 1.07672 0
M  V30 7132 H 688.885 -5.0015 0.934206 0
M  V30 7133 H 688.283 -5.19413 -2.24114 0
M  V30 7134 H 686.84 -6.12653 -2.22486 0
M  V30 7135 N 690.273 -0.685099 -1.4193 0
M  V30 7136 C 691.55 -0.140152 -1.95097 0
M  V30 7137 C 691.93 1.34745 -1.62502 0
M  V30 7138 O 691.278 2.08872 -0.926534 0
M  V30 7139 C 691.488 -0.420268 -3.4646 0
M  V30 7140 C 692.836 -0.342338 -4.23218 0
M  V30 7141 O 693.86 -0.354592 -3.54431 0
M  V30 7142 O 692.719 -0.293404 -5.45712 0
M  V30 7143 H 689.813 -0.00885998 -0.826953 0
M  V30 7144 H 692.359 -0.760539 -1.51703 0
M  V30 7145 H 691.131 -1.45037 -3.63428 0
M  V30 7146 H 690.754 0.231616 -3.96925 0
M  V30 7147 N 691.751 1.51645 -0.429126 0
M  V30 7148 C 692.979 2.06433 0.138994 0
M  V30 7149 C 693.394 1.29735 1.37165 0
M  V30 7150 O 692.751 0.354638 1.79021 0
M  V30 7151 C 692.802 3.58439 0.469452 0
M  V30 7152 O 692.523 4.32238 -0.714273 0
M  V30 7153 C 694.024 4.29712 1.08914 0
M  V30 7154 H 691.244 0.6709 0.0115608 0
M  V30 7155 H 693.788 1.9532 -0.605843 0
M  V30 7156 H 691.943 3.69494 1.16419 0
M  V30 7157 H 692.357 5.22704 -0.433633 0
M  V30 7158 H 693.831 5.37182 1.27042 0
M  V30 7159 H 694.308 3.87473 2.06788 0
M  V30 7160 H 694.914 4.2308 0.434028 0
M  V30 7161 N 693.229 0.160201 1.56784 0
M  V30 7162 C 694.477 -0.486625 1.96154 0
M  V30 7163 C 694.798 -1.64525 1.04673 0
M  V30 7164 O 694.068 -1.95586 0.110864 0
M  V30 7165 H 692.648 -0.182764 0.724297 0
M  V30 7166 H 695.31 0.238787 1.93432 0
M  V30 7167 H 694.406 -0.854025 3.00188 0
M  V30 7168 N 694.707 -1.5719 -0.113559 0
M  V30 7169 C 695.617 -2.04041 -1.15777 0
M  V30 7170 C 696.633 -0.961812 -1.45001 0
M  V30 7171 O 697.809 -1.2737 -1.56009 0
M  V30 7172 C 694.874 -2.43994 -2.46308 0
M  V30 7173 C 693.935 -3.65962 -2.24433 0
M  V30 7174 C 693.168 -4.04 -3.4874 0
M  V30 7175 O 693.391 -3.42321 -4.56259 0
M  V30 7176 O 692.325 -4.97069 -3.3942 0
M  V30 7177 H 696.151 -2.93248 -0.789899 0
M  V30 7178 H 693.736 -1.45828 -0.324748 0
M  V30 7179 H 695.618 -2.70401 -3.23204 0
M  V30 7180 H 694.293 -1.57932 -2.82558 0
M  V30 7181 H 693.2 -3.44697 -1.45377 0
M  V30 7182 H 694.533 -4.52746 -1.93084 0
M  V30 7183 N 696.185 0.383891 -1.52853 0
M  V30 7184 C 697.095 1.49343 -1.80925 0
M  V30 7185 C 698.111 1.59458 -0.696348 0
M  V30 7186 O 699.287 1.75698 -0.984481 0
M  V30 7187 C 696.352 2.84819 -1.97684 0
M  V30 7188 C 695.413 2.84382 -3.21598 0
M  V30 7189 C 694.646 4.13397 -3.37548 0
M  V30 7190 O 694.869 5.08619 -2.58192 0
M  V30 7191 O 693.803 4.20325 -4.30826 0
M  V30 7192 H 697.629 1.2855 -2.75152 0
M  V30 7193 H 695.214 0.572229 -1.38007 0
M  V30 7194 H 697.096 3.65125 -2.10385 0
M  V30 7195 H 695.771 3.05627 -1.06647 0
M  V30 7196 H 694.678 2.0284 -3.14336 0
M  V30 7197 H 696.011 2.68526 -4.12498 0
M  V30 7198 N 697.663 1.43903 0.642637 0
M  V30 7199 C 698.888 1.49758 1.43483 0
M  V30 7200 C 699.313 0.119911 1.87717 0
M  V30 7201 O 698.671 -0.888558 1.58033 0
M  V30 7202 C 698.719 2.45744 2.63898 0
M  V30 7203 O 697.823 1.95101 3.63331 0
M  V30 7204 H 697.164 0.506138 0.429791 0
M  V30 7205 H 699.694 1.88923 0.785438 0
M  V30 7206 H 699.704 2.63399 3.11584 0
M  V30 7207 H 698.379 3.45818 2.31046 0
M  V30 7208 H 696.956 1.87158 3.22531 0
M  V30 7209 N 699.141 -0.881989 1.30609 0
M  V30 7210 C 700.104 -1.96957 1.1722 0
M  V30 7211 C 701.104 -1.60472 0.102598 0
M  V30 7212 O 702.294 -1.70628 0.350943 0
M  V30 7213 C 699.426 -3.31463 0.796572 0
M  V30 7214 H 700.619 -2.10262 2.13846 0
M  V30 7215 H 698.172 -1.06877 1.14048 0
M  V30 7216 H 698.907 -3.23859 -0.169053 0
M  V30 7217 H 698.692 -3.59314 1.56959 0
M  V30 7218 H 700.182 -4.11233 0.72645 0
M  V30 7219 N 700.619 -1.13374 -1.09472 0
M  V30 7220 C 701.844 -0.918711 -1.85942 0
M  V30 7221 C 702.269 0.527225 -1.8056 0
M  V30 7222 O 701.627 1.37408 -1.18274 0
M  V30 7223 C 701.675 -1.41056 -3.31867 0
M  V30 7224 O 700.779 -0.595496 -4.08078 0
M  V30 7225 H 700.12 -0.329297 -0.576593 0
M  V30 7226 H 702.65 -1.50829 -1.38245 0
M  V30 7227 H 702.66 -1.41398 -3.82715 0
M  V30 7228 H 701.335 -2.46335 -3.35099 0
M  V30 7229 H 699.912 -0.659911 -3.67014 0
M  V30 7230 N 702.098 1.27442 -0.927168 0
M  V30 7231 C 703.323 1.99036 -0.583042 0
M  V30 7232 C 703.748 1.68711 0.83176 0
M  V30 7233 O 703.106 0.927081 1.55804 0
M  V30 7234 C 703.154 3.51271 -0.814925 0
M  V30 7235 O 702.258 4.12226 0.119742 0
M  V30 7236 H 701.599 0.624883 -0.224538 0
M  V30 7237 H 704.129 1.62263 -1.24628 0
M  V30 7238 H 704.139 4.01411 -0.730282 0
M  V30 7239 H 702.814 3.72676 -1.84623 0
M  V30 7240 H 701.391 3.72897 -0.0147688 0
M  V30 7241 N 703.576 0.692616 1.41565 0
M  V30 7242 C 704.824 0.221896 2.00878 0
M  V30 7243 C 705.145 -1.18164 1.5512 0
M  V30 7244 O 704.415 -1.79679 0.78054 0
M  V30 7245 H 702.995 0.0790463 0.742806 0
M  V30 7246 H 705.657 0.893115 1.73232 0
M  V30 7247 H 704.753 0.23702 3.11199 0
M  V30 7248 N 705.054 -1.51416 0.437162 0
M  V30 7249 C 706.001 -2.27743 -0.374374 0
M  V30 7250 C 706.971 -1.31327 -1.01698 0
M  V30 7251 O 708.156 -1.60229 -1.03592 0
M  V30 7252 C 705.296 -3.12241 -1.46969 0
M  V30 7253 C 704.409 -4.23651 -0.845236 0
M  V30 7254 C 703.544 -4.95458 -1.91559 0
M  V30 7255 C 702.583 -5.98789 -1.26956 0
M  V30 7256 N 701.72 -6.64005 -2.28126 0
M  V30 7257 H 706.56 -2.96654 0.282892 0
M  V30 7258 H 704.097 -1.46319 0.151352 0
M  V30 7259 H 706.055 -3.59556 -2.11602 0
M  V30 7260 H 704.685 -2.45445 -2.09659 0
M  V30 7261 H 703.737 -3.803 -0.0872059 0
M  V30 7262 H 705.049 -4.97683 -0.333582 0
M  V30 7263 H 704.203 -5.46321 -2.63854 0
M  V30 7264 H 702.942 -4.21055 -2.46097 0
M  V30 7265 H 701.947 -5.47219 -0.53207 0
M  V30 7266 H 703.172 -6.75149 -0.731509 0
M  V30 7267 H 701.118 -5.92415 -2.81745 0
M  V30 7268 H 701.035 -7.33802 -1.81852 0
M  V30 7269 H 702.303 -7.19498 -2.99905 0
M  V30 7270 N 706.532 -0.168513 -1.56696 0
M  V30 7271 C 707.462 0.758563 -2.20835 0
M  V30 7272 C 708.443 1.24121 -1.1631 0
M  V30 7273 O 709.628 1.29487 -1.4473 0
M  V30 7274 C 706.758 1.9892 -2.8469 0
M  V30 7275 C 705.712 1.64252 -3.95228 0
M  V30 7276 C 705.038 2.94757 -4.46119 0
M  V30 7277 C 706.338 0.872675 -5.14958 0
M  V30 7278 H 708.032 0.223953 -2.98561 0
M  V30 7279 H 705.578 0.106277 -1.43607 0
M  V30 7280 H 707.531 2.64275 -3.28233 0
M  V30 7281 H 706.255 2.5479 -2.04327 0
M  V30 7282 H 704.914 1.01266 -3.52336 0
M  V30 7283 H 704.562 3.48662 -3.62552 0
M  V30 7284 H 704.262 2.72316 -5.2069 0
M  V30 7285 H 705.786 3.61147 -4.92347 0
M  V30 7286 H 707.2 1.42875 -5.55211 0
M  V30 7287 H 705.597 0.747402 -5.95428 0
M  V30 7288 H 706.667 -0.131535 -4.84722 0
M  V30 7289 N 708.01 1.57248 0.105221 0
M  V30 7290 C 709.258 1.85204 0.808951 0
M  V30 7291 C 709.579 0.75574 1.7976 0
M  V30 7292 O 708.849 -0.218984 1.94672 0
M  V30 7293 H 707.429 0.683346 0.301739 0
M  V30 7294 H 710.091 1.94695 0.0892605 0
M  V30 7295 H 709.187 2.81595 1.34575 0
M  V30 7296 N 709.488 -0.375779 1.53054 0
M  V30 7297 C 710.418 -1.46598 1.81745 0
M  V30 7298 C 711.399 -1.56337 0.670286 0
M  V30 7299 O 712.584 -1.71071 0.919158 0
M  V30 7300 C 709.714 -2.84058 1.99821 0
M  V30 7301 C 708.668 -2.8915 3.15557 0
M  V30 7302 C 707.994 -4.29187 3.18908 0
M  V30 7303 C 709.294 -2.57595 4.54359 0
M  V30 7304 H 710.988 -1.22837 2.73041 0
M  V30 7305 H 708.534 -0.589485 1.31381 0
M  V30 7306 H 710.487 -3.60342 2.18475 0
M  V30 7307 H 709.211 -3.09184 1.05226 0
M  V30 7308 H 707.87 -2.15316 2.96706 0
M  V30 7309 H 707.518 -4.51374 2.2197 0
M  V30 7310 H 707.218 -4.33512 3.96662 0
M  V30 7311 H 708.742 -5.07359 3.39734 0
M  V30 7312 H 710.156 -3.23595 4.73243 0
M  V30 7313 H 708.553 -2.73252 5.34279 0
M  V30 7314 H 709.623 -1.52882 4.60169 0
M  V30 7315 N 710.966 -1.44241 -0.634997 0
M  V30 7316 C 712.215 -1.46102 -1.39058 0
M  V30 7317 C 712.528 -0.0959909 -1.95364 0
M  V30 7318 O 713.734 0.00788751 -2.71499 0
M  V30 7319 C 712.19 -2.57195 -2.51751 0
M  V30 7320 C 711.798 -3.99888 -2.01974 0
M  V30 7321 C 713.542 -2.68272 -3.28984 0
M  V30 7322 C 711.449 -5.02412 -3.11987 0
M  V30 7323 H 710.379 -0.543556 -0.522554 0
M  V30 7324 H 713.03 -1.70294 -0.683538 0
M  V30 7325 H 711.412 -2.26237 -3.25012 0
M  V30 7326 H 712.586 -4.40396 -1.35604 0
M  V30 7327 H 710.901 -3.93019 -1.37568 0
M  V30 7328 H 713.498 -3.42042 -4.10988 0
M  V30 7329 H 713.841 -1.73957 -3.78212 0
M  V30 7330 H 714.374 -2.98622 -2.62812 0
M  V30 7331 H 711.113 -5.98342 -2.67707 0
M  V30 7332 H 710.633 -4.66501 -3.77011 0
M  V30 7333 H 712.312 -5.25939 -3.76825 0
M  V30 7334 N 712.444 0.87505 -1.31075 0
M  V30 7335 C 713.672 1.66058 -1.23419 0
M  V30 7336 C 714.087 1.87723 0.201347 0
M  V30 7337 O 713.444 1.43178 1.13165 0
M  V30 7338 C 713.495 3.03142 -1.96945 0
M  V30 7339 O 713.216 2.82448 -3.34895 0
M  V30 7340 C 714.717 3.97583 -1.96067 0
M  V30 7341 H 711.937 0.517868 -0.426677 0
M  V30 7342 H 714.481 1.09258 -1.72867 0
M  V30 7343 H 712.636 3.56645 -1.51271 0
M  V30 7344 H 713.05 3.69483 -3.72267 0
M  V30 7345 H 714.524 4.91104 -2.52034 0
M  V30 7346 H 715.001 4.2898 -0.941961 0
M  V30 7347 H 715.607 3.50015 -2.41597 0
M  V30 7348 N 713.922 1.13953 1.08869 0
M  V30 7349 C 714.87 0.817664 2.17754 0
M  V30 7350 C 715.864 -0.202444 1.68186 0
M  V30 7351 O 717.07 -0.0590159 1.79903 0
M  V30 7352 H 713.445 0.246671 0.710392 0
M  V30 7353 H 715.416 1.74401 2.4213 0
M  V30 7354 C 714.165 0.3063 3.46348 0
M  V30 7355 H 713.488 1.08259 3.84864 0
M  V30 7356 H 714.928 0.119584 4.23831 0
M  V30 7357 C 713.387 -0.969158 3.22659 0
M  V30 7358 O 713.917 -2.04386 3.45817 0
M  V30 7359 N 712.123 -0.902516 2.7623 0
M  V30 7360 H 711.67 -0.027801 2.57585 0
M  V30 7361 H 711.628 -1.75649 2.60758 0
M  V30 7362 N 715.4 -1.26948 0.933913 0
M  V30 7363 C 716.628 -1.98186 0.59414 0
M  V30 7364 C 717.043 -1.69614 -0.829257 0
M  V30 7365 O 716.4 -0.960213 -1.55197 0
M  V30 7366 C 716.451 -3.52123 0.818026 0
M  V30 7367 O 716.172 -3.79698 2.18543 0
M  V30 7368 C 717.673 -4.40608 0.48781 0
M  V30 7369 H 714.893 -0.632305 0.224569 0
M  V30 7370 H 717.437 -1.61646 1.25263 0
M  V30 7371 H 715.592 -3.86851 0.206246 0
M  V30 7372 H 716.006 -4.7426 2.24005 0
M  V30 7373 H 717.48 -5.47606 0.695126 0
M  V30 7374 H 717.957 -4.35394 -0.576913 0
M  V30 7375 H 718.563 -4.11411 1.078 0
M  V30 7376 N 716.879 -0.700114 -1.41195 0
M  V30 7377 C 718.128 -0.230082 -2.00383 0
M  V30 7378 C 718.441 1.17857 -1.56106 0
M  V30 7379 O 719.647 1.74631 -2.07885 0
M  V30 7380 C 718.103 -0.360447 -3.5809 0
M  V30 7381 C 717.711 -1.77475 -4.11347 0
M  V30 7382 C 719.455 0.0495799 -4.24471 0
M  V30 7383 C 717.362 -1.85653 -5.61504 0
M  V30 7384 H 716.292 -0.0822633 -0.749499 0
M  V30 7385 H 718.943 -0.868969 -1.6162 0
M  V30 7386 H 717.325 0.346768 -3.94479 0
M  V30 7387 H 718.499 -2.51109 -3.86369 0
M  V30 7388 H 716.814 -2.13486 -3.57509 0
M  V30 7389 H 719.411 0.00898219 -5.34699 0
M  V30 7390 H 719.754 1.08904 -4.01803 0
M  V30 7391 H 720.287 -0.607521 -3.93134 0
M  V30 7392 H 717.026 -2.87667 -5.89006 0
M  V30 7393 H 716.546 -1.1641 -5.88395 0
M  V30 7394 H 718.225 -1.62151 -6.26351 0
M  V30 7395 N 718.357 1.51182 -0.445186 0
M  V30 7396 C 719.32 2.26501 0.350722 0
M  V30 7397 C 720.32 1.3025 0.942952 0
M  V30 7398 O 721.51 1.53897 0.816175 0
M  V30 7399 C 718.642 3.06274 1.49697 0
M  V30 7400 H 719.835 2.98299 -0.309474 0
M  V30 7401 H 717.388 1.55034 -0.198551 0
M  V30 7402 H 718.123 2.38911 2.19299 0
M  V30 7403 H 717.908 3.76979 1.0784 0
M  V30 7404 H 719.398 3.63306 2.05909 0
M  V30 7405 N 719.835 0.176821 1.56605 0
M  V30 7406 C 721.083 -0.465793 1.96659 0
M  V30 7407 C 721.404 -1.63406 1.06412 0
M  V30 7408 O 720.674 -1.95457 0.131603 0
M  V30 7409 H 719.254 -0.175072 0.726195 0
M  V30 7410 H 721.916 0.25929 1.93168 0
M  V30 7411 H 721.012 -0.822138 3.01077 0
M  V30 7412 N 721.313 -1.57302 -0.09688 0
M  V30 7413 C 722.559 -1.86273 -0.801885 0
M  V30 7414 C 722.892 -0.765694 -1.78468 0
M  V30 7415 O 722.167 0.226495 -1.93177 0
M  V30 7416 C 722.45 -3.25876 -1.53221 0
M  V30 7417 C 722.303 -4.46205 -0.567529 0
M  V30 7418 C 723.622 -3.63352 -2.48321 0
M  V30 7419 H 720.741 -0.67752 -0.29006 0
M  V30 7420 H 723.383 -1.89887 -0.0655577 0
M  V30 7421 H 721.533 -3.22926 -2.15988 0
M  V30 7422 H 723.205 -4.6127 0.0529982 0
M  V30 7423 H 721.448 -4.33636 0.119233 0
M  V30 7424 H 722.119 -5.40608 -1.11564 0
M  V30 7425 H 724.595 -3.67234 -1.95648 0
M  V30 7426 H 723.471 -4.61968 -2.9644 0
M  V30 7427 H 723.732 -2.91941 -3.31998 0
M  V30 7428 N 722.791 0.367657 -1.53252 0
M  V30 7429 C 723.754 1.43308 -1.78873 0
M  V30 7430 C 724.754 1.46671 -0.659115 0
M  V30 7431 O 725.944 1.47468 -0.927306 0
M  V30 7432 C 723.076 2.82442 -1.90892 0
M  V30 7433 H 724.269 1.21864 -2.74024 0
M  V30 7434 H 721.822 0.600668 -1.44297 0
M  V30 7435 H 722.557 3.09202 -0.978 0
M  V30 7436 H 722.342 2.81399 -2.73051 0
M  V30 7437 H 723.832 3.59601 -2.12314 0
M  V30 7438 N 724.269 1.44576 0.627338 0
M  V30 7439 C 725.517 1.47267 1.38408 0
M  V30 7440 C 725.838 0.107971 1.94701 0
M  V30 7441 O 725.108 -0.860206 1.76004 0
M  V30 7442 H 723.688 0.542276 0.513756 0
M  V30 7443 H 726.35 1.80383 0.738099 0
M  V30 7444 H 725.446 2.20025 2.21349 0
M  V30 7445 N 725.747 -0.868086 1.31537 0
M  V30 7446 C 726.677 -1.99131 1.21939 0
M  V30 7447 C 727.658 -1.69768 0.106166 0
M  V30 7448 O 728.843 -1.92006 0.291081 0
M  V30 7449 C 725.973 -3.34676 0.927879 0
M  V30 7450 C 724.927 -3.7835 2.00088 0
M  V30 7451 C 724.253 -5.11375 1.56203 0
M  V30 7452 C 725.553 -3.95256 3.41424 0
M  V30 7453 H 727.247 -2.07419 2.15911 0
M  V30 7454 H 724.793 -0.996569 1.03945 0
M  V30 7455 H 726.746 -4.12793 0.847327 0
M  V30 7456 H 725.47 -3.26565 -0.0475042 0
M  V30 7457 H 724.129 -3.02474 2.07135 0
M  V30 7458 H 723.777 -4.99709 0.57445 0
M  V30 7459 H 723.477 -5.41568 2.27985 0
M  V30 7460 H 725.001 -5.92001 1.49558 0
M  V30 7461 H 726.415 -4.63764 3.3704 0
M  V30 7462 H 724.812 -4.36849 4.1144 0
M  V30 7463 H 725.882 -2.98579 3.82072 0
M  V30 7464 N 727.225 -1.14528 -1.08264 0
M  V30 7465 C 728.474 -0.908992 -1.80056 0
M  V30 7466 C 728.787 0.565859 -1.87236 0
M  V30 7467 O 729.993 0.919454 -2.55457 0
M  V30 7468 C 728.449 -1.57681 -3.23519 0
M  V30 7469 C 728.057 -3.08803 -3.24569 0
M  V30 7470 C 729.801 -1.4217 -3.99985 0
M  V30 7471 C 727.708 -3.68414 -4.62629 0
M  V30 7472 H 726.638 -0.336432 -0.674781 0
M  V30 7473 H 729.289 -1.37437 -1.21587 0
M  V30 7474 H 727.671 -1.03911 -3.82124 0
M  V30 7475 H 728.845 -3.69252 -2.75663 0
M  V30 7476 H 727.16 -3.23968 -2.61598 0
M  V30 7477 H 729.757 -1.84106 -5.02005 0
M  V30 7478 H 730.1 -0.367989 -4.1467 0
M  V30 7479 H 730.633 -1.92984 -3.47853 0
M  V30 7480 H 727.372 -4.73644 -4.53147 0
M  V30 7481 H 726.892 -3.12746 -5.11811 0
M  V30 7482 H 728.571 -3.68793 -5.31602 0
M  V30 7483 N 728.703 1.26451 -0.940633 0
M  V30 7484 C 729.931 1.97868 -0.604642 0
M  V30 7485 C 730.346 1.70051 0.820251 0
M  V30 7486 O 729.703 0.96843 1.54686 0
M  V30 7487 C 729.754 3.51684 -0.836689 0
M  V30 7488 O 729.475 3.78533 -2.20554 0
M  V30 7489 C 730.976 4.40343 -0.511169 0
M  V30 7490 H 728.196 0.631105 -0.227919 0
M  V30 7491 H 730.74 1.60979 -1.26119 0
M  V30 7492 H 728.895 3.86736 -0.226759 0
M  V30 7493 H 729.309 4.73065 -2.26517 0
M  V30 7494 H 730.783 5.47229 -0.724157 0
M  V30 7495 H 731.26 4.35694 0.553815 0
M  V30 7496 H 731.866 4.10834 -1.0998 0
M  V30 7497 N 730.181 0.707592 1.40822 0
M  V30 7498 C 731.429 0.243189 2.00632 0
M  V30 7499 C 731.75 -1.16512 1.56365 0
M  V30 7500 O 731.02 -1.78841 0.799553 0
M  V30 7501 H 729.6 0.0869203 0.741926 0
M  V30 7502 H 732.262 0.911438 1.72275 0
M  V30 7503 H 731.358 0.270014 3.1093 0
M  V30 7504 N 731.66 -1.50943 0.453197 0
M  V30 7505 C 732.908 -2.01813 -0.107709 0
M  V30 7506 C 733.229 -1.33841 -1.41816 0
M  V30 7507 O 732.499 -0.477973 -1.8998 0
M  V30 7508 H 731.079 -0.745773 -0.0427948 0
M  V30 7509 H 733.741 -1.8545 0.599531 0
M  V30 7510 H 732.837 -3.10911 -0.27218 0
M  V30 7511 N 733.138 -0.185124 -1.56509 0
M  V30 7512 C 734.554 0.170865 -1.58683 0
M  V30 7513 C 734.754 1.61799 -1.20098 0
M  V30 7514 O 733.81 2.35181 -0.919038 0
M  V30 7515 C 735.123 -0.122459 -3.00451 0
M  V30 7516 C 736.671 -0.0617699 -3.12939 0
M  V30 7517 C 737.146 -0.328269 -4.56822 0
M  V30 7518 N 738.637 -0.276533 -4.62374 0
M  V30 7519 C 739.372 -0.456722 -5.71578 0
M  V30 7520 N 738.868 -0.69672 -6.89288 0
M  V30 7521 N 740.661 -0.391669 -5.60734 0
M  V30 7522 H 732.812 -1.12956 -1.79874 0
M  V30 7523 H 735.075 -0.45011 -0.834329 0
M  V30 7524 H 734.781 -1.12546 -3.33206 0
M  V30 7525 H 734.655 0.579578 -3.72721 0
M  V30 7526 H 737.042 0.931826 -2.80002 0
M  V30 7527 H 737.123 -0.796732 -2.43076 0
M  V30 7528 H 736.767 -1.31914 -4.9047 0
M  V30 7529 H 736.697 0.427465 -5.24862 0
M  V30 7530 H 739.188 -0.0972458 -3.77775 0
M  V30 7531 H 739.501 -0.823291 -7.68402 0
M  V30 7532 H 737.846 -0.733497 -6.91119 0
M  V30 7533 H 741.037 -0.204663 -4.67652 0
M  V30 7534 H 741.21 -0.535518 -6.45783 0
M  V30 7535 N 734.616 1.57351 0.0885366 0
M  V30 7536 C 736.032 1.53331 0.442916 0
M  V30 7537 C 736.232 0.902831 1.80142 0
M  V30 7538 O 735.288 0.498147 2.47537 0
M  V30 7539 C 736.601 2.98036 0.399372 0
M  V30 7540 C 738.149 3.09286 0.480759 0
M  V30 7541 C 738.624 4.5561 0.467296 0
M  V30 7542 N 740.115 4.60182 0.52786 0
M  V30 7543 C 740.85 5.70857 0.539388 0
M  V30 7544 N 740.346 6.90944 0.506729 0
M  V30 7545 N 742.139 5.59051 0.584691 0
M  V30 7546 H 734.29 1.96709 -0.801215 0
M  V30 7547 H 736.553 0.899639 -0.298922 0
M  V30 7548 H 736.259 3.47656 -0.531806 0
M  V30 7549 H 736.133 3.57066 1.21589 0
M  V30 7550 H 738.52 2.5965 1.40236 0
M  V30 7551 H 738.601 2.53197 -0.364023 0
M  V30 7552 H 738.245 5.05899 -0.450384 0
M  V30 7553 H 738.175 5.09544 1.32938 0
M  V30 7554 H 740.666 3.73757 0.558028 0
M  V30 7555 H 740.979 7.71055 0.518989 0
M  V30 7556 H 739.324 6.93384 0.473675 0
M  V30 7557 H 742.515 4.64138 0.607781 0
M  V30 7558 H 742.688 6.45307 0.590206 0
M  V30 7559 N 736.094 -0.359525 1.53444 0
M  V30 7560 C 737.322 -1.12198 1.73837 0
M  V30 7561 C 737.737 -1.82854 0.470107 0
M  V30 7562 O 737.094 -1.73781 -0.557349 0
M  V30 7563 C 737.145 -2.14769 2.90786 0
M  V30 7564 O 736.866 -1.46989 4.12706 0
M  V30 7565 C 738.367 -3.03514 3.231 0
M  V30 7566 H 735.587 -0.33524 0.581253 0
M  V30 7567 H 738.131 -0.416598 2.00212 0
M  V30 7568 H 736.286 -2.80896 2.66788 0
M  V30 7569 H 736.7 -2.15378 4.78239 0
M  V30 7570 H 738.174 -3.71453 4.08322 0
M  V30 7571 H 738.651 -3.68658 2.38721 0
M  V30 7572 H 739.257 -2.42996 3.49046 0
M  V30 7573 N 737.572 -1.44907 -0.619662 0
M  V30 7574 C 738.988 -1.29046 -0.939107 0
M  V30 7575 C 739.188 -0.23462 -2.00129 0
M  V30 7576 O 738.244 0.37558 -2.49691 0
M  V30 7577 C 739.557 -2.66567 -1.39149 0
M  V30 7578 C 741.105 -2.74368 -1.50635 0
M  V30 7579 C 741.58 -4.12386 -1.99253 0
M  V30 7580 N 743.071 -4.1462 -2.06506 0
M  V30 7581 C 743.806 -5.18272 -2.4532 0
M  V30 7582 N 743.302 -6.32278 -2.83189 0
M  V30 7583 N 745.095 -5.05628 -2.45554 0
M  V30 7584 H 737.246 -2.12239 0.0826135 0
M  V30 7585 H 739.509 -0.947652 -0.0256829 0
M  V30 7586 H 739.215 -3.4496 -0.685254 0
M  V30 7587 H 739.089 -2.94224 -2.36034 0
M  V30 7588 H 741.476 -1.96287 -2.20353 0
M  V30 7589 H 741.557 -2.50439 -0.520963 0
M  V30 7590 H 741.201 -4.90947 -1.30127 0
M  V30 7591 H 741.131 -4.33699 -2.98684 0
M  V30 7592 H 743.622 -3.32343 -1.79878 0
M  V30 7593 H 743.935 -7.07172 -3.11652 0
M  V30 7594 H 742.28 -6.35699 -2.80913 0
M  V30 7595 H 745.471 -4.15613 -2.15367 0
M  V30 7596 H 745.644 -5.86529 -2.75478 0
M  V30 7597 N 739.05 0.861098 -1.31996 0
M  V30 7598 C 740.466 1.14827 -1.10846 0
M  V30 7599 C 740.666 2.0117 0.11528 0
M  V30 7600 O 739.722 2.39423 0.802048 0
M  V30 7601 C 741.035 1.83183 -2.38462 0
M  V30 7602 C 742.583 1.95847 -2.44158 0
M  V30 7603 C 743.058 2.67617 -3.71679 0
M  V30 7604 N 744.549 2.75147 -3.72624 0
M  V30 7605 C 745.284 3.31314 -4.67994 0
M  V30 7606 N 744.78 3.88343 -5.73726 0
M  V30 7607 N 746.573 3.29356 -4.55501 0
M  V30 7608 H 738.724 0.285951 -2.10466 0
M  V30 7609 H 740.987 0.189303 -0.928907 0
M  V30 7610 H 740.693 1.27193 -3.27895 0
M  V30 7611 H 740.567 2.83393 -2.48935 0
M  V30 7612 H 742.954 2.50999 -1.55189 0
M  V30 7613 H 743.035 0.94653 -2.37644 0
M  V30 7614 H 742.679 2.13131 -4.61018 0
M  V30 7615 H 742.609 3.69237 -3.75462 0
M  V30 7616 H 745.1 2.34682 -2.96197 0
M  V30 7617 H 745.413 4.29338 -6.42564 0
M  V30 7618 H 743.758 3.86693 -5.77489 0
M  V30 7619 H 746.949 2.84047 -3.72069 0
M  V30 7620 H 747.122 3.7283 -5.30001 0
M  V30 7621 N 740.528 1.15101 1.07655 0
M  V30 7622 C 741.438 0.858869 2.18313 0
M  V30 7623 C 742.454 -0.163641 1.73229 0
M  V30 7624 O 743.63 0.00969541 2.01398 0
M  V30 7625 C 740.695 0.34893 3.4494 0
M  V30 7626 C 739.756 1.43495 4.04608 0
M  V30 7627 C 738.989 0.949253 5.2519 0
M  V30 7628 O 739.212 -0.20636 5.70027 0
M  V30 7629 O 738.146 1.73161 5.76454 0
M  V30 7630 H 741.972 1.78386 2.45788 0
M  V30 7631 H 739.557 0.929876 1.16934 0
M  V30 7632 H 741.439 0.070851 4.2134 0
M  V30 7633 H 740.114 -0.548237 3.19024 0
M  V30 7634 H 739.021 1.7666 3.29761 0
M  V30 7635 H 740.354 2.30692 4.3479 0
M  V30 7636 N 742.006 -1.2595 0.947325 0
M  V30 7637 C 742.969 -2.24407 0.466285 0
M  V30 7638 C 743.969 -1.55054 -0.426005 0
M  V30 7639 O 745.159 -1.7275 -0.224319 0
M  V30 7640 C 742.291 -3.39326 -0.327201 0
M  V30 7641 H 743.484 -2.68477 1.33642 0
M  V30 7642 H 741.037 -1.38211 0.729887 0
M  V30 7643 H 741.772 -3.00667 -1.21532 0
M  V30 7644 H 741.557 -3.9085 0.312839 0
M  V30 7645 H 743.047 -4.12455 -0.653477 0
M  V30 7646 N 743.484 -0.715051 -1.40445 0
M  V30 7647 C 744.733 -0.251322 -2.00128 0
M  V30 7648 C 745.046 1.16194 -1.57347 0
M  V30 7649 O 746.252 1.72416 -2.09726 0
M  V30 7650 C 744.708 -0.398407 -3.57688 0
M  V30 7651 C 744.316 -1.81828 -4.09442 0
M  V30 7652 C 746.06 0.00455625 -4.245 0
M  V30 7653 C 743.967 -1.91598 -5.59503 0
M  V30 7654 H 742.897 -0.0902081 -0.748584 0
M  V30 7655 H 745.548 -0.886062 -1.6069 0
M  V30 7656 H 743.93 0.304908 -3.94824 0
M  V30 7657 H 745.104 -2.55193 -3.83684 0
M  V30 7658 H 743.419 -2.17266 -3.55225 0
M  V30 7659 H 746.016 -0.0477303 -5.34679 0
M  V30 7660 H 746.359 1.04636 -4.02935 0
M  V30 7661 H 746.892 -0.649184 -3.92467 0
M  V30 7662 H 743.631 -2.93898 -5.85922 0
M  V30 7663 H 743.151 -1.22644 -5.87127 0
M  V30 7664 H 744.83 -1.68785 -6.24596 0
M  V30 7665 N 744.962 1.50701 -0.461195 0
M  V30 7666 C 746.208 2.02566 0.0973411 0
M  V30 7667 C 746.541 1.3432 1.40257 0
M  V30 7668 O 745.816 0.465692 1.88843 0
M  V30 7669 C 746.099 3.58919 0.291423 0
M  V30 7670 C 745.952 4.37751 -1.03413 0
M  V30 7671 C 747.271 4.27379 1.05048 0
M  V30 7672 H 744.39 0.73622 0.0339026 0
M  V30 7673 H 747.032 1.80115 -0.604855 0
M  V30 7674 H 745.182 3.78179 0.889539 0
M  V30 7675 H 746.854 4.30085 -1.66806 0
M  V30 7676 H 745.097 4.01885 -1.63313 0
M  V30 7677 H 745.768 5.45384 -0.852085 0
M  V30 7678 H 748.244 4.12534 0.543603 0
M  V30 7679 H 747.12 5.36609 1.15506 0
M  V30 7680 H 747.381 3.89868 2.0846 0
M  V30 7681 N 746.441 0.193421 1.56409 0
M  V30 7682 C 747.389 -0.744829 2.20352 0
M  V30 7683 C 748.383 -1.22104 1.17418 0
M  V30 7684 O 749.589 -1.18413 1.35567 0
M  V30 7685 H 745.964 -0.258538 0.70616 0
M  V30 7686 H 747.935 -0.181794 2.97846 0
M  V30 7687 C 746.684 -1.95453 2.87565 0
M  V30 7688 H 746.007 -1.59716 3.66512 0
M  V30 7689 H 747.447 -2.58942 3.35745 0
M  V30 7690 C 745.906 -2.79223 1.8851 0
M  V30 7691 O 746.436 -3.77093 1.38434 0
M  V30 7692 N 744.642 -2.44682 1.56777 0
M  V30 7693 H 744.189 -1.65153 1.97692 0
M  V30 7694 H 744.147 -3.01016 0.907573 0
M  V30 7695 N 747.919 -1.57396 -0.0801906 0
M  V30 7696 C 748.882 -2.02133 -1.0805 0
M  V30 7697 C 749.882 -0.91707 -1.32085 0
M  V30 7698 O 751.072 -1.18217 -1.27947 0
M  V30 7699 C 748.204 -2.39479 -2.42616 0
M  V30 7700 H 749.397 -2.91733 -0.6951 0
M  V30 7701 H 746.95 -1.52869 -0.325677 0
M  V30 7702 H 747.685 -1.52879 -2.86004 0
M  V30 7703 H 747.47 -3.20052 -2.26515 0
M  V30 7704 H 748.96 -2.74697 -3.14534 0
M  V30 7705 N 749.397 0.351382 -1.53633 0
M  V30 7706 C 750.329 1.45159 -1.77374 0
M  V30 7707 C 751.342 1.4905 -0.654826 0
M  V30 7708 O 752.531 1.52274 -0.931396 0
M  V30 7709 C 749.631 2.83858 -1.85143 0
M  V30 7710 C 748.804 3.03498 -3.14972 0
M  V30 7711 C 747.863 4.22393 -3.138 0
M  V30 7712 O 746.889 4.16885 -3.87551 0
M  V30 7713 N 748.091 5.30533 -2.35617 0
M  V30 7714 H 750.856 1.25167 -2.72311 0
M  V30 7715 H 748.417 0.54121 -1.52586 0
M  V30 7716 H 750.409 3.61557 -1.8182 0
M  V30 7717 H 748.979 2.9703 -0.974275 0
M  V30 7718 H 748.199 2.13336 -3.31484 0
M  V30 7719 H 749.487 3.13498 -4.00745 0
M  V30 7720 H 748.885 5.37875 -1.75235 0
M  V30 7721 H 747.442 6.06756 -2.38098 0
M  V30 7722 N 750.875 1.45233 0.611969 0
M  V30 7723 C 752.286 1.4354 1.19387 0
M  V30 7724 C 752.637 0.160713 1.95541 0
M  V30 7725 O 751.762 -0.737954 2.03429 0
M  V30 7726 C 752.357 2.60045 2.17169 0
M  V30 7727 C 750.916 2.61486 2.70744 0
M  V30 7728 C 750.063 2.35708 1.46072 0
M  V30 7729 H 753.014 1.53536 0.401529 0
M  V30 7730 H 753.035 2.33893 3.00124 0
M  V30 7731 H 752.547 3.52803 1.61714 0
M  V30 7732 H 750.648 1.72721 3.30149 0
M  V30 7733 H 750.761 3.60572 3.15476 0
M  V30 7734 H 749.125 1.85178 1.74875 0
M  V30 7735 H 749.908 3.30606 0.924922 0
M  V30 7736 N 752.353 -0.854086 1.3245 0
M  V30 7737 C 753.3 -1.96271 1.21434 0
M  V30 7738 C 754.27 -1.6582 0.0963851 0
M  V30 7739 O 755.455 -1.88851 0.27203 0
M  V30 7740 C 752.595 -3.31939 0.943952 0
M  V30 7741 C 751.708 -3.74885 2.14675 0
M  V30 7742 C 750.843 -4.99347 1.81179 0
M  V30 7743 C 749.882 -5.34785 2.97777 0
M  V30 7744 N 749.019 -6.50425 2.6437 0
M  V30 7745 H 753.859 -2.05025 2.16261 0
M  V30 7746 H 751.396 -1.00348 1.07558 0
M  V30 7747 H 753.354 -4.10076 0.767675 0
M  V30 7748 H 751.984 -3.22784 0.0324763 0
M  V30 7749 H 751.036 -2.92396 2.43328 0
M  V30 7750 H 752.348 -3.97068 3.01891 0
M  V30 7751 H 751.502 -5.85193 1.60107 0
M  V30 7752 H 750.241 -4.79101 0.911777 0
M  V30 7753 H 749.246 -4.47451 3.1948 0
M  V30 7754 H 750.471 -5.56988 3.88511 0
M  V30 7755 H 748.417 -6.31695 1.7691 0
M  V30 7756 H 748.334 -6.7263 3.45116 0
M  V30 7757 H 749.602 -7.39422 2.46729 0
M  V30 7758 N 753.831 -1.1567 -1.07043 0
M  V30 7759 C 755.071 -0.944089 -1.81291 0
M  V30 7760 C 755.435 0.519305 -1.84844 0
M  V30 7761 O 756.636 0.850357 -2.54995 0
M  V30 7762 C 754.907 -1.54528 -3.22267 0
M  V30 7763 S 756.466 -1.47623 -4.13223 0
M  V30 7764 H 753.284 -0.339696 -0.624602 0
M  V30 7765 H 755.886 -1.47277 -1.28568 0
M  V30 7766 H 754.59 -2.60321 -3.17271 0
M  V30 7767 H 754.121 -1.0156 -3.80065 0
M  V30 7768 H 756.136 -0.471261 -4.93957 0
M  V30 7769 N 755.309 1.25446 -0.953992 0
M  V30 7770 C 756.257 2.27909 -0.46478 0
M  V30 7771 C 757.251 1.62904 0.464607 0
M  V30 7772 O 758.457 1.76733 0.341407 0
M  V30 7773 H 754.832 0.74036 -0.131798 0
M  V30 7774 H 756.803 2.66559 -1.34122 0
M  V30 7775 C 755.552 3.46853 0.242589 0
M  V30 7776 H 754.875 3.97105 -0.463418 0
M  V30 7777 H 756.315 4.20432 0.548919 0
M  V30 7778 C 754.774 3.03386 1.46487 0
M  V30 7779 O 755.304 3.09342 2.56262 0
M  V30 7780 N 753.51 2.58584 1.32599 0
M  V30 7781 H 753.057 2.53938 0.432834 0
M  V30 7782 H 753.015 2.29866 2.14497 0
M  V30 7783 N 756.787 0.722489 1.40064 0
M  V30 7784 C 758.198 0.336507 1.83642 0
M  V30 7785 C 758.549 -1.13002 1.6039 0
M  V30 7786 O 757.674 -1.87036 1.08842 0
M  V30 7787 C 758.269 0.603985 3.33373 0
M  V30 7788 C 756.828 0.271637 3.75419 0
M  V30 7789 C 755.975 0.872898 2.63203 0
M  V30 7790 H 758.926 0.921108 1.29233 0
M  V30 7791 H 758.947 -0.128471 3.80283 0
M  V30 7792 H 758.459 1.67141 3.50265 0
M  V30 7793 H 756.56 -0.790455 3.64119 0
M  V30 7794 H 756.673 0.745457 4.73265 0
M  V30 7795 H 755.037 0.300431 2.52922 0
M  V30 7796 H 755.82 1.94473 2.82905 0
M  V30 7797 N 758.265 -1.50454 0.469181 0
M  V30 7798 C 759.213 -2.30101 -0.340033 0
M  V30 7799 C 760.207 -1.37306 -0.992135 0
M  V30 7800 O 761.413 -1.54506 -0.923458 0
M  V30 7801 H 757.788 -0.740941 -0.128495 0
M  V30 7802 H 759.759 -2.96315 0.352144 0
M  V30 7803 C 758.508 -3.17804 -1.41052 0
M  V30 7804 H 757.831 -3.89115 -0.918124 0
M  V30 7805 H 759.271 -3.76533 -1.94934 0
M  V30 7806 C 757.73 -2.35272 -2.4114 0
M  V30 7807 O 758.26 -2.03448 -3.4637 0
M  V30 7808 N 756.466 -1.97889 -2.1281 0
M  V30 7809 H 756.013 -2.2397 -1.27261 0
M  V30 7810 H 755.971 -1.42971 -2.80012 0
M  V30 7811 N 759.743 -0.201713 -1.56304 0
M  V30 7812 C 760.673 0.71155 -2.22394 0
M  V30 7813 C 761.654 1.21625 -1.18917 0
M  V30 7814 O 762.839 1.26388 -1.47444 0
M  V30 7815 C 759.969 1.92837 -2.88845 0
M  V30 7816 C 758.923 1.55831 -3.98623 0
M  V30 7817 C 758.249 2.85228 -4.52271 0
M  V30 7818 C 759.549 0.763249 -5.16693 0
M  V30 7819 H 761.243 0.160573 -2.98969 0
M  V30 7820 H 758.789 0.0757916 -1.438 0
M  V30 7821 H 760.742 2.57253 -3.33764 0
M  V30 7822 H 759.466 2.50398 -2.09686 0
M  V30 7823 H 758.125 0.9377 -3.54405 0
M  V30 7824 H 757.773 3.40893 -3.69866 0
M  V30 7825 H 757.473 2.6121 -5.26349 0
M  V30 7826 H 758.997 3.50622 -4.99897 0
M  V30 7827 H 760.411 1.31066 -5.58117 0
M  V30 7828 H 758.808 0.620935 -5.96879 0
M  V30 7829 H 759.878 -0.234322 -4.84334 0
M  V30 7830 N 761.222 1.57436 0.0718424 0
M  V30 7831 C 762.172 2.00132 1.09229 0
M  V30 7832 C 763.156 0.883379 1.34481 0
M  V30 7833 O 764.348 1.14728 1.34783 0
M  V30 7834 C 761.477 2.44876 2.40605 0
M  V30 7835 C 760.563 3.63405 2.18627 0
M  V30 7836 N 760.954 4.77583 1.66579 0
M  V30 7837 C 759.252 3.69953 2.491 0
M  V30 7838 C 759.953 5.5943 1.59415 0
M  V30 7839 N 758.929 5.03275 2.05464 0
M  V30 7840 H 762.731 2.85849 0.683185 0
M  V30 7841 H 760.245 1.59987 0.278914 0
M  V30 7842 H 762.242 2.73703 3.14471 0
M  V30 7843 H 760.902 1.60546 2.82232 0
M  V30 7844 H 761.913 4.99875 1.35443 0
M  V30 7845 H 758.59 2.96336 2.94094 0
M  V30 7846 H 759.98 6.61093 1.20026 0
M  V30 7847 N 762.7 -0.34323 1.53817 0
M  V30 7848 C 763.93 -1.10188 1.74763 0
M  V30 7849 C 764.338 -1.82829 0.486856 0
M  V30 7850 O 763.681 -1.75236 -0.551198 0
M  V30 7851 C 763.743 -2.16 2.87375 0
M  V30 7852 C 763.407 -1.62931 4.26969 0
M  V30 7853 C 764.404 -1.08147 5.08528 0
M  V30 7854 C 762.089 -1.67769 4.73454 0
M  V30 7855 C 764.083 -0.589039 6.34672 0
M  V30 7856 C 761.77 -1.18138 5.99572 0
M  V30 7857 C 762.768 -0.637979 6.80014 0
M  V30 7858 O 762.456 -0.149073 8.03762 0
M  V30 7859 H 762.188 -0.33445 0.587469 0
M  V30 7860 H 764.742 -0.401109 2.01445 0
M  V30 7861 H 762.972 -2.89637 2.56218 0
M  V30 7862 H 764.661 -2.77432 2.96287 0
M  V30 7863 H 765.427 -1.03732 4.73777 0
M  V30 7864 H 761.306 -2.09004 4.10899 0
M  V30 7865 H 764.85 -0.164233 6.97407 0
M  V30 7866 H 760.747 -1.22254 6.33817 0
M  V30 7867 H 761.515 -0.266332 8.18067 0
M  V30 7868 N 764.178 -1.45556 -0.604258 0
M  V30 7869 C 765.424 -1.50958 -1.3632 0
M  V30 7870 C 765.779 -0.15051 -1.9181 0
M  V30 7871 O 765.072 0.838035 -1.72301 0
M  V30 7872 C 765.266 -2.52697 -2.52743 0
M  V30 7873 C 765.095 -3.98364 -2.08654 0
M  V30 7874 C 763.865 -4.66295 -1.94671 0
M  V30 7875 C 766.063 -4.86801 -1.6592 0
M  V30 7876 N 764.045 -5.96669 -1.44428 0
M  V30 7877 C 765.416 -6.06829 -1.27115 0
M  V30 7878 C 767.471 -4.73634 -1.53542 0
M  V30 7879 C 766.174 -7.15149 -0.771676 0
M  V30 7880 C 768.2 -5.82005 -1.04998 0
M  V30 7881 C 767.562 -7.01191 -0.671599 0
M  V30 7882 H 763.661 -0.607329 -0.492621 0
M  V30 7883 H 766.245 -1.82048 -0.69041 0
M  V30 7884 H 764.416 -2.23554 -3.17614 0
M  V30 7885 H 766.148 -2.48227 -3.19633 0
M  V30 7886 H 762.903 -4.21496 -2.15959 0
M  V30 7887 H 763.327 -6.66003 -1.21528 0
M  V30 7888 H 767.969 -3.81898 -1.81421 0
M  V30 7889 H 765.687 -8.06671 -0.480442 0
M  V30 7890 H 769.273 -5.73851 -0.958423 0
M  V30 7891 H 768.153 -7.83619 -0.301752 0
M  V30 7892 N 765.656 0.84705 -1.32902 0
M  V30 7893 C 766.884 1.63403 -1.26913 0
M  V30 7894 C 767.299 1.88108 0.161483 0
M  V30 7895 O 766.656 1.45546 1.10103 0
M  V30 7896 C 766.707 2.98896 -2.03331 0
M  V30 7897 O 766.428 2.75281 -3.40811 0
M  V30 7898 C 767.929 3.93335 -2.04457 0
M  V30 7899 H 765.149 0.508701 -0.437566 0
M  V30 7900 H 767.693 1.05567 -1.75145 0
M  V30 7901 H 765.848 3.53356 -1.58802 0
M  V30 7902 H 766.262 3.61504 -3.8002 0
M  V30 7903 H 767.736 4.85647 -2.62394 0
M  V30 7904 H 768.213 4.26885 -1.03274 0
M  V30 7905 H 768.819 3.44812 -2.48967 0
M  V30 7906 N 767.134 1.16236 1.06428 0
M  V30 7907 C 768.362 0.967184 1.82902 0
M  V30 7908 C 768.777 -0.484601 1.82475 0
M  V30 7909 O 768.134 -1.33631 1.24294 0
M  V30 7910 C 768.185 1.48534 3.29576 0
M  V30 7911 O 767.906 2.88026 3.3011 0
M  V30 7912 C 769.407 1.33298 4.22784 0
M  V30 7913 H 766.627 0.342923 0.576754 0
M  V30 7914 H 769.171 1.54232 1.34286 0
M  V30 7915 H 767.326 0.952513 3.75508 0
M  V30 7916 H 767.74 3.11721 4.21818 0
M  V30 7917 H 769.214 1.74385 5.23731 0
M  V30 7918 H 769.691 0.278356 4.38317 0
M  V30 7919 H 770.297 1.85535 3.82697 0
M  V30 7920 N 768.612 -1.24939 0.960631 0
M  V30 7921 C 769.544 -2.24879 0.442937 0
M  V30 7922 C 770.557 -1.56615 -0.444464 0
M  V30 7923 O 771.746 -1.76715 -0.251776 0
M  V30 7924 C 768.846 -3.36757 -0.380537 0
M  V30 7925 C 768.019 -4.34587 0.495283 0
M  V30 7926 C 767.078 -5.25502 -0.270995 0
M  V30 7927 O 766.104 -5.68227 0.332661 0
M  V30 7928 N 767.306 -5.59077 -1.56249 0
M  V30 7929 H 770.071 -2.69932 1.30218 0
M  V30 7930 H 767.632 -1.38907 0.83166 0
M  V30 7931 H 769.624 -3.94542 -0.90103 0
M  V30 7932 H 768.194 -2.91045 -1.14067 0
M  V30 7933 H 767.414 -3.75593 1.19682 0
M  V30 7934 H 768.702 -4.96925 1.09285 0
M  V30 7935 H 768.1 -5.2628 -2.07476 0
M  V30 7936 H 766.657 -6.19421 -2.02882 0
M  V30 7937 N 770.09 -0.729906 -1.39679 0
M  V30 7938 C 771.367 -0.202149 -1.94553 0
M  V30 7939 C 771.747 1.29507 -1.66707 0
M  V30 7940 O 771.095 2.05819 -0.992517 0
M  V30 7941 C 771.305 -0.530279 -3.44948 0
M  V30 7942 C 772.653 -0.476808 -4.21914 0
M  V30 7943 O 773.677 -0.467171 -3.53123 0
M  V30 7944 O 772.536 -0.466869 -5.44502 0
M  V30 7945 H 769.63 -0.0351644 -0.826252 0
M  V30 7946 H 772.176 -0.808417 -1.49207 0
M  V30 7947 H 770.948 -1.56526 -3.5863 0
M  V30 7948 H 770.571 0.10522 -3.97461 0
M  V30 7949 N 771.568 1.50203 -0.477153 0
M  V30 7950 C 772.478 2.32421 0.319027 0
M  V30 7951 C 773.494 1.43075 0.990233 0
M  V30 7952 O 774.67 1.76123 0.976873 0
M  V30 7953 C 771.735 3.17909 1.38328 0
M  V30 7954 C 770.796 4.23082 0.728036 0
M  V30 7955 C 770.029 5.04484 1.74158 0
M  V30 7956 O 770.252 4.8705 2.96881 0
M  V30 7957 O 769.186 5.8747 1.31006 0
M  V30 7958 H 773.012 3.01638 -0.353281 0
M  V30 7959 H 770.597 1.47478 -0.238891 0
M  V30 7960 H 772.479 3.70937 1.9996 0
M  V30 7961 H 771.154 2.51413 2.03895 0
M  V30 7962 H 770.061 3.7403 0.07261 0
M  V30 7963 H 771.394 4.92065 0.115216 0
M  V30 7964 N 773.046 0.209999 1.56195 0
M  V30 7965 C 774.294 -0.423974 1.97603 0
M  V30 7966 C 774.615 -1.61112 1.09854 0
M  V30 7967 O 773.885 -1.95134 0.173032 0
M  V30 7968 H 772.465 -0.159629 0.729745 0
M  V30 7969 H 775.127 0.300205 1.92574 0
M  V30 7970 H 774.223 -0.75809 3.02753 0
M  V30 7971 N 774.524 -1.57472 -0.0634922 0
M  V30 7972 C 775.487 -2.03268 -1.059 0
M  V30 7973 C 776.487 -0.931028 -1.31105 0
M  V30 7974 O 777.677 -1.19567 -1.26686 0
M  V30 7975 C 774.809 -2.42039 -2.40062 0
M  V30 7976 H 776.002 -2.92454 -0.664119 0
M  V30 7977 H 773.555 -1.53206 -0.309444 0
M  V30 7978 H 774.29 -1.55904 -2.84367 0
M  V30 7979 H 774.075 -3.22437 -2.23108 0
M  V30 7980 H 775.565 -2.78017 -3.11603 0
M  V30 7981 N 776.003 0.335068 -1.53997 0
M  V30 7982 C 776.966 1.39481 -1.81872 0
M  V30 7983 C 777.966 1.4524 -0.690078 0
M  V30 7984 O 779.156 1.45467 -0.958377 0
M  V30 7985 C 776.288 2.78329 -1.9684 0
M  V30 7986 H 777.481 1.16024 -2.76547 0
M  V30 7987 H 775.034 0.569926 -1.45539 0
M  V30 7988 H 775.769 3.07058 -1.04337 0
M  V30 7989 H 775.554 2.75544 -2.78958 0
M  V30 7990 H 777.044 3.55016 -2.19894 0
M  V30 7991 N 777.481 1.45874 0.596531 0
M  V30 7992 C 778.73 1.49737 1.35135 0
M  V30 7993 C 779.043 0.147755 1.95041 0
M  V30 7994 O 780.249 0.0640984 2.71424 0
M  V30 7995 C 778.705 2.6378 2.44843 0
M  V30 7996 C 778.313 4.05102 1.91301 0
M  V30 7997 C 780.057 2.769 3.21755 0
M  V30 7998 C 777.964 5.10508 2.98557 0
M  V30 7999 H 776.894 0.557219 0.507959 0
M  V30 8000 H 779.545 1.72046 0.638147 0
M  V30 8001 H 777.927 2.34774 3.189 0
M  V30 8002 H 779.101 4.43836 1.2388 0
M  V30 8003 H 777.416 3.96528 1.271 0
M  V30 8004 H 780.013 3.52819 4.01775 0
M  V30 8005 H 780.356 1.83924 3.73467 0
M  V30 8006 H 780.889 3.05485 2.54802 0
M  V30 8007 H 777.628 6.0523 2.51749 0
M  V30 8008 H 777.148 4.76332 3.6451 0
M  V30 8009 H 778.827 5.35745 3.62748 0
M  V30 8010 N 778.959 -0.83999 1.33349 0
M  V30 8011 C 780.207 -1.59202 1.24496 0
M  V30 8012 C 780.528 -1.94077 -0.189499 0
M  V30 8013 O 779.798 -1.60868 -1.11796 0
M  V30 8014 H 778.378 -0.590276 0.457802 0
M  V30 8015 H 781.04 -1.00394 1.67054 0
M  V30 8016 H 780.136 -2.52247 1.83788 0
M  V30 8017 N 780.437 -1.16799 -1.0581 0
M  V30 8018 C 781.367 -0.902241 -2.15364 0
M  V30 8019 C 782.348 0.153351 -1.69407 0
M  V30 8020 O 783.533 0.00442032 -1.94199 0
M  V30 8021 C 780.663 -0.407911 -3.44896 0
M  V30 8022 C 779.617 -1.40197 -4.04387 0
M  V30 8023 C 778.943 -0.765848 -5.29187 0
M  V30 8024 C 780.243 -2.77316 -4.42598 0
M  V30 8025 H 781.937 -1.81841 -2.37853 0
M  V30 8026 H 779.483 -0.875731 -1.14311 0
M  V30 8027 H 781.436 -0.20945 -4.20879 0
M  V30 8028 H 780.16 0.54378 -3.22041 0
M  V30 8029 H 778.819 -1.58707 -3.30466 0
M  V30 8030 H 778.467 0.192482 -5.02632 0
M  V30 8031 H 778.167 -1.42939 -5.69949 0
M  V30 8032 H 779.691 -0.577519 -6.07863 0
M  V30 8033 H 781.105 -2.62561 -5.09642 0
M  V30 8034 H 779.502 -3.4019 -4.94359 0
M  V30 8035 H 780.572 -3.32199 -3.53231 0
M  V30 8036 N 781.915 1.24427 -0.967243 0
M  V30 8037 C 782.878 2.23637 -0.501927 0
M  V30 8038 C 783.878 1.55712 0.401283 0
M  V30 8039 O 785.068 1.73085 0.196808 0
M  V30 8040 C 782.2 3.39804 0.273176 0
M  V30 8041 H 783.393 2.66317 -1.37897 0
M  V30 8042 H 780.946 1.37033 -0.751783 0
M  V30 8043 H 781.681 3.02562 1.16733 0
M  V30 8044 H 781.466 3.90303 -0.37498 0
M  V30 8045 H 782.956 4.13443 0.587776 0
M  V30 8046 N 783.393 0.737304 1.3929 0
M  V30 8047 C 784.639 0.295581 2.01241 0
M  V30 8048 C 784.994 -1.10561 1.57461 0
M  V30 8049 O 784.287 -1.74346 0.7946 0
M  V30 8050 C 784.481 0.338438 3.55794 0
M  V30 8051 C 784.31 1.74225 4.14579 0
M  V30 8052 C 783.08 2.35502 4.47065 0
M  V30 8053 C 785.278 2.69623 4.37959 0
M  V30 8054 N 783.26 3.68014 4.91365 0
M  V30 8055 C 784.631 3.86873 4.84489 0
M  V30 8056 C 786.686 2.67355 4.2003 0
M  V30 8057 C 785.389 5.02193 5.14971 0
M  V30 8058 C 787.415 3.8182 4.51627 0
M  V30 8059 C 786.777 4.97806 4.98366 0
M  V30 8060 H 782.876 0.154468 0.766592 0
M  V30 8061 H 785.46 0.963768 1.69173 0
M  V30 8062 H 783.631 -0.299406 3.87244 0
M  V30 8063 H 785.363 -0.122053 4.04516 0
M  V30 8064 H 782.118 1.87406 4.34943 0
M  V30 8065 H 782.542 4.36051 5.17869 0
M  V30 8066 H 787.184 1.78876 3.83097 0
M  V30 8067 H 784.902 5.913 5.50809 0
M  V30 8068 H 788.488 3.81366 4.39376 0
M  V30 8069 H 787.368 5.84909 5.22351 0
M  V30 8070 N 784.871 -1.49948 0.485112 0
M  V30 8071 C 786.12 -2.01589 -0.066765 0
M  V30 8072 C 786.433 -1.371 -1.39509 0
M  V30 8073 O 787.639 -1.79978 -2.03274 0
M  V30 8074 C 786.095 -3.59501 -0.169476 0
M  V30 8075 C 785.703 -4.32955 1.15126 0
M  V30 8076 C 787.447 -4.19138 -0.672564 0
M  V30 8077 C 785.354 -5.82684 1.01158 0
M  V30 8078 H 784.284 -0.753453 -0.0287259 0
M  V30 8079 H 786.935 -1.72632 0.622132 0
M  V30 8080 H 785.317 -3.85106 -0.922471 0
M  V30 8081 H 786.491 -4.19064 1.9163 0
M  V30 8082 H 784.806 -3.84991 1.58654 0
M  V30 8083 H 787.403 -5.28767 -0.794325 0
M  V30 8084 H 787.746 -3.81447 -1.66745 0
M  V30 8085 H 788.279 -3.97793 0.0234415 0
M  V30 8086 H 785.018 -6.24873 1.98025 0
M  V30 8087 H 784.538 -5.99112 0.287151 0
M  V30 8088 H 786.217 -6.43376 0.683847 0
M  V30 8089 N 786.349 -0.21828 -1.56081 0
M  V30 8090 C 787.76 0.290166 -1.84431 0
M  V30 8091 C 788.111 1.59712 -1.13958 0
M  V30 8092 O 787.236 2.12516 -0.40815 0
M  V30 8093 C 787.831 0.53325 -3.34577 0
M  V30 8094 C 786.39 0.986011 -3.63256 0
M  V30 8095 C 785.537 0.0472798 -2.7726 0
M  V30 8096 H 788.488 -0.441548 -1.52434 0
M  V30 8097 H 788.509 1.37967 -3.54606 0
M  V30 8098 H 788.021 -0.418137 -3.85841 0
M  V30 8099 H 786.122 1.95087 -3.17446 0
M  V30 8100 H 786.235 0.862684 -4.71269 0
M  V30 8101 H 784.599 0.553471 -2.48614 0
M  V30 8102 H 785.382 -0.898966 -3.31321 0
M  V30 8103 N 787.827 1.57504 0.0551401 0
M  V30 8104 C 789.057 1.92015 0.762472 0
M  V30 8105 C 789.465 0.814088 1.7079 0
M  V30 8106 O 788.808 -0.220273 1.82375 0
M  V30 8107 C 788.87 3.22132 1.59598 0
M  V30 8108 C 788.534 4.49617 0.818141 0
M  V30 8109 C 789.531 5.19738 0.129933 0
M  V30 8110 C 787.216 4.96201 0.780387 0
M  V30 8111 C 789.21 6.34704 -0.585616 0
M  V30 8112 C 786.897 6.11069 0.0610756 0
M  V30 8113 C 787.895 6.80174 -0.62071 0
M  V30 8114 O 787.583 7.92849 -1.3284 0
M  V30 8115 H 787.315 0.638866 0.220967 0
M  V30 8116 H 789.869 2.05385 0.0246362 0
M  V30 8117 H 788.099 3.05016 2.37701 0
M  V30 8118 H 789.788 3.42166 2.18351 0
M  V30 8119 H 790.554 4.84767 0.150299 0
M  V30 8120 H 786.433 4.42275 1.30054 0
M  V30 8121 H 789.977 6.88578 -1.11833 0
M  V30 8122 H 785.874 6.45488 0.0386945 0
M  V30 8123 H 786.642 8.09062 -1.23938 0
M  V30 8124 N 789.305 -0.326896 1.54172 0
M  V30 8125 C 790.552 -1.06523 1.72218 0
M  V30 8126 C 790.88 -1.88119 0.494114 0
M  V30 8127 O 790.135 -1.8855 -0.524147 0
M  V30 8128 C 790.434 -2.0208 2.94785 0
M  V30 8129 C 790.1 -1.36665 4.2969 0
M  V30 8130 C 788.762 -1.18556 4.66367 0
M  V30 8131 C 791.114 -0.896868 5.13425 0
M  V30 8132 C 788.442 -0.521113 5.84381 0
M  V30 8133 C 790.794 -0.246261 6.3212 0
M  V30 8134 C 789.458 -0.052987 6.67479 0
M  V30 8135 H 788.728 -0.389796 0.63019 0
M  V30 8136 H 791.375 -0.342725 1.88408 0
M  V30 8137 H 789.68 -2.8077 2.73268 0
M  V30 8138 H 791.377 -2.59231 3.05941 0
M  V30 8139 H 787.967 -1.51762 4.00832 0
M  V30 8140 H 792.151 -1.02458 4.85609 0
M  V30 8141 H 787.407 -0.36014 6.10338 0
M  V30 8142 H 791.581 0.125775 6.96286 0
M  V30 8143 H 789.208 0.463903 7.58783 0
M  V30 8144 N 790.784 -1.46188 -0.588786 0
M  V30 8145 C 792.032 -1.50885 -1.34455 0
M  V30 8146 C 792.353 -0.159555 -1.94346 0
M  V30 8147 O 791.623 0.813239 -1.78222 0
M  V30 8148 H 790.203 -0.555707 -0.499198 0
M  V30 8149 H 792.865 -1.82277 -0.690014 0
M  V30 8150 H 791.961 -2.25816 -2.15438 0
M  V30 8151 N 792.262 0.832906 -1.33792 0
M  V30 8152 C 793.673 1.40489 -1.22963 0
M  V30 8153 C 794.024 1.95633 0.149026 0
M  V30 8154 O 793.149 1.8928 1.04891 0
M  V30 8155 C 793.744 2.55387 -2.22627 0
M  V30 8156 C 792.303 3.08522 -2.15618 0
M  V30 8157 C 791.45 1.81347 -2.09782 0
M  V30 8158 H 794.401 0.638156 -1.45304 0
M  V30 8159 H 794.422 3.33193 -1.83746 0
M  V30 8160 H 793.934 2.15222 -3.22957 0
M  V30 8161 H 792.035 3.53217 -1.18611 0
M  V30 8162 H 792.148 3.6829 -3.0643 0
M  V30 8163 H 790.512 2.01839 -1.55349 0
M  V30 8164 H 791.295 1.43369 -3.1193 0
M  V30 8165 N 793.74 1.17359 1.05189 0
M  V30 8166 C 794.703 0.892604 2.11105 0
M  V30 8167 C 795.703 -0.117236 1.60372 0
M  V30 8168 O 796.893 0.114936 1.7382 0
M  V30 8169 C 794.025 0.337032 3.3923 0
M  V30 8170 H 795.218 1.83169 2.37464 0
M  V30 8171 H 792.771 0.984051 1.21434 0
M  V30 8172 H 793.506 -0.609198 3.18527 0
M  V30 8173 H 793.291 1.06484 3.77364 0
M  V30 8174 H 794.781 0.158763 4.17298 0
M  V30 8175 N 795.218 -1.23913 0.973828 0
M  V30 8176 C 796.181 -2.23367 0.51378 0
M  V30 8177 C 797.181 -1.55923 -0.39302 0
M  V30 8178 O 798.371 -1.73187 -0.187626 0
M  V30 8179 C 795.503 -3.39944 -0.255152 0
M  V30 8180 H 796.696 -2.65581 1.39307 0
M  V30 8181 H 794.249 -1.36632 0.759039 0
M  V30 8182 H 794.984 -3.03177 -1.15127 0
M  V30 8183 H 794.769 -3.90098 0.395673 0
M  V30 8184 H 796.259 -4.13749 -0.565842 0
M  V30 8185 N 796.696 -0.74468 -1.38897 0
M  V30 8186 C 797.606 -0.112892 -2.34328 0
M  V30 8187 C 798.622 0.71087 -1.58816 0
M  V30 8188 O 799.798 0.637092 -1.91058 0
M  V30 8189 C 796.863 0.776417 -3.37894 0
M  V30 8190 C 795.924 -0.0606999 -4.29257 0
M  V30 8191 C 795.157 0.786258 -5.27877 0
M  V30 8192 O 795.38 2.02463 -5.33259 0
M  V30 8193 O 794.314 0.209781 -6.01534 0
M  V30 8194 H 798.14 -0.900801 -2.90033 0
M  V30 8195 H 795.725 -0.505462 -1.4059 0
M  V30 8196 H 797.607 1.28496 -4.01331 0
M  V30 8197 H 796.282 1.54297 -2.84559 0
M  V30 8198 H 795.189 -0.614984 -3.69011 0
M  V30 8199 H 796.522 -0.789702 -4.85824 0
M  V30 8200 N 798.174 1.49689 -0.493057 0
M  V30 8201 C 799.422 2.02027 0.0541642 0
M  V30 8202 C 799.743 1.37554 1.38217 0
M  V30 8203 O 799.013 0.528174 1.88646 0
M  V30 8204 H 797.593 0.746646 0.0230069 0
M  V30 8205 H 800.255 1.83795 -0.648489 0
M  V30 8206 H 799.351 3.11523 0.189652 0
M  V30 8207 N 799.652 0.226554 1.55963 0
M  V30 8208 C 800.901 -0.40417 1.97609 0
M  V30 8209 C 801.214 -1.60541 1.1174 0
M  V30 8210 O 802.42 -2.30598 1.43307 0
M  V30 8211 C 800.876 -0.770466 3.51556 0
M  V30 8212 C 800.484 0.408244 4.46136 0
M  V30 8213 C 802.228 -1.36651 4.01904 0
M  V30 8214 C 800.135 0.0192347 5.91397 0
M  V30 8215 H 799.065 -0.15478 0.737943 0
M  V30 8216 H 801.716 0.323558 1.80625 0
M  V30 8217 H 800.098 -1.55575 3.6416 0
M  V30 8218 H 801.272 1.18575 4.45283 0
M  V30 8219 H 799.587 0.917859 4.06158 0
M  V30 8220 H 802.184 -1.67055 5.07934 0
M  V30 8221 H 802.527 -2.28403 3.48049 0
M  V30 8222 H 803.06 -0.644556 3.92543 0
M  V30 8223 H 799.799 0.90336 6.49245 0
M  V30 8224 H 799.319 -0.722485 5.95433 0
M  V30 8225 H 800.998 -0.405711 6.45727 0
M  V30 8226 N 801.13 -1.57531 -0.0467866 0
M  V30 8227 C 802.36 -1.92417 -0.752279 0
M  V30 8228 C 802.768 -0.823134 -1.70356 0
M  V30 8229 O 802.111 0.210598 -1.82489 0
M  V30 8230 C 802.173 -3.22974 -1.57887 0
M  V30 8231 C 801.837 -4.50045 -0.794285 0
M  V30 8232 C 802.834 -5.19799 -0.102368 0
M  V30 8233 C 800.519 -4.96608 -0.754061 0
M  V30 8234 C 802.513 -6.34385 0.619267 0
M  V30 8235 C 800.2 -6.11093 -0.0286682 0
M  V30 8236 C 801.198 -6.79835 0.656772 0
M  V30 8237 O 800.886 -7.92133 1.37042 0
M  V30 8238 H 800.618 -0.640029 -0.217576 0
M  V30 8239 H 803.172 -2.05395 -0.0137438 0
M  V30 8240 H 801.402 -3.06273 -2.3608 0
M  V30 8241 H 803.091 -3.43319 -2.16533 0
M  V30 8242 H 803.857 -4.8484 -0.124589 0
M  V30 8243 H 799.736 -4.42958 -1.27706 0
M  V30 8244 H 803.28 -6.87975 1.15483 0
M  V30 8245 H 799.177 -6.455 -0.00446214 0
M  V30 8246 H 799.945 -8.08394 1.28227 0
M  V30 8247 N 802.608 0.318715 -1.54344 0
M  V30 8248 C 803.857 1.05363 -1.71993 0
M  V30 8249 C 804.17 1.89018 -0.503155 0
M  V30 8250 O 805.376 2.65639 -0.561085 0
M  V30 8251 C 803.832 1.92281 -3.0423 0
M  V30 8252 C 803.44 1.13715 -4.33328 0
M  V30 8253 C 805.184 2.65479 -3.31242 0
M  V30 8254 C 803.091 1.99806 -5.56625 0
M  V30 8255 H 802.021 0.397081 -0.64097 0
M  V30 8256 H 804.672 0.311598 -1.80835 0
M  V30 8257 H 803.054 2.70402 -2.89307 0
M  V30 8258 H 804.228 0.403305 -4.59032 0
M  V30 8259 H 802.543 0.521769 -4.13118 0
M  V30 8260 H 805.14 3.30209 -4.20555 0
M  V30 8261 H 805.483 3.33374 -2.49334 0
M  V30 8262 H 806.016 1.94417 -3.47054 0
M  V30 8263 H 802.755 1.36411 -6.41149 0
M  V30 8264 H 802.275 2.70911 -5.35133 0
M  V30 8265 H 803.954 2.58277 -5.93213 0
M  V30 8266 N 804.086 1.46499 0.581025 0
M  V30 8267 C 804.996 1.59778 1.71779 0
M  V30 8268 C 806.012 0.481223 1.67213 0
M  V30 8269 O 807.188 0.74557 1.87091 0
M  V30 8270 C 804.253 1.58626 3.08283 0
M  V30 8271 C 803.314 2.81527 3.241 0
M  V30 8272 C 802.547 2.80421 4.54092 0
M  V30 8273 O 802.77 1.89262 5.38085 0
M  V30 8274 O 801.704 3.71984 4.73193 0
M  V30 8275 H 805.53 2.55918 1.63523 0
M  V30 8276 H 803.115 1.29311 0.748267 0
M  V30 8277 H 804.997 1.60686 3.89561 0
M  V30 8278 H 803.672 0.656467 3.16973 0
M  V30 8279 H 802.579 2.85021 2.42309 0
M  V30 8280 H 803.912 3.73721 3.20302 0
M  V30 8281 N 805.565 -0.825799 1.34232 0
M  V30 8282 C 806.813 -1.57873 1.26177 0
M  V30 8283 C 807.134 -1.94267 -0.168904 0
M  V30 8284 O 806.404 -1.62045 -1.10084 0
M  V30 8285 H 804.984 -0.585388 0.464037 0
M  V30 8286 H 807.646 -0.986163 1.6811 0
M  V30 8287 H 806.742 -2.50283 1.86453 0
M  V30 8288 N 807.043 -1.17915 -1.04565 0
M  V30 8289 C 807.973 -0.925033 -2.14395 0
M  V30 8290 C 808.954 0.135375 -1.6956 0
M  V30 8291 O 810.139 -0.0161774 -1.94193 0
M  V30 8292 C 807.269 -0.444469 -3.44444 0
M  V30 8293 C 806.223 -1.44478 -4.02877 0
M  V30 8294 C 805.549 -0.821933 -5.28345 0
M  V30 8295 C 806.849 -2.81995 -4.39632 0
M  V30 8296 H 808.543 -1.84354 -2.35911 0
M  V30 8297 H 806.089 -0.887806 -1.13375 0
M  V30 8298 H 808.042 -0.254078 -4.20633 0
M  V30 8299 H 806.766 0.509592 -3.226 0
M  V30 8300 H 805.425 -1.62203 -3.28764 0
M  V30 8301 H 805.073 0.139161 -5.02807 0
M  V30 8302 H 804.773 -1.48976 -5.68401 0
M  V30 8303 H 806.297 -0.641959 -6.07216 0
M  V30 8304 H 807.711 -2.67952 -5.06828 0
M  V30 8305 H 806.108 -3.45414 -4.90723 0
M  V30 8306 H 807.178 -3.35927 -3.49687 0
M  V30 8307 N 808.521 1.23394 -0.980386 0
M  V30 8308 C 809.454 2.23404 -0.465404 0
M  V30 8309 C 810.432 1.55735 0.467471 0
M  V30 8310 O 811.616 1.84295 0.395921 0
M  V30 8311 C 808.743 3.3712 0.32672 0
M  V30 8312 C 807.789 4.22935 -0.550296 0
M  V30 8313 S 808.622 4.96824 -1.99814 0
M  V30 8314 C 809.778 6.13991 -1.21516 0
M  V30 8315 H 810.011 2.6674 -1.31289 0
M  V30 8316 H 807.544 1.32874 -0.78638 0
M  V30 8317 H 809.502 4.03065 0.777738 0
M  V30 8318 H 808.163 2.92317 1.14933 0
M  V30 8319 H 807.356 5.03966 0.0585298 0
M  V30 8320 H 806.958 3.62058 -0.937558 0
M  V30 8321 H 809.25 6.75822 -0.476476 0
M  V30 8322 H 810.193 6.7926 -2.0003 0
M  V30 8323 H 810.601 5.59708 -0.733949 0
M  V30 8324 N 809.999 0.752036 1.385 0
M  V30 8325 C 810.949 0.0990189 2.27785 0
M  V30 8326 C 811.933 -0.694867 1.45122 0
M  V30 8327 O 813.125 -0.561077 1.67872 0
M  V30 8328 C 810.254 -0.794531 3.33979 0
M  V30 8329 C 809.34 0.00611984 4.241 0
M  V30 8330 N 809.731 1.04174 4.94956 0
M  V30 8331 C 808.029 -0.220934 4.45452 0
M  V30 8332 C 808.73 1.52601 5.61327 0
M  V30 8333 N 807.706 0.84159 5.37046 0
M  V30 8334 H 811.508 0.892208 2.8003 0
M  V30 8335 H 809.022 0.587934 1.51384 0
M  V30 8336 H 811.019 -1.27797 3.96829 0
M  V30 8337 H 809.679 -1.58669 2.83292 0
M  V30 8338 H 810.69 1.42349 4.97953 0
M  V30 8339 H 807.367 -0.986556 4.05676 0
M  V30 8340 H 808.757 2.38857 6.2801 0
M  V30 8341 N 811.477 -1.49425 0.500989 0
M  V30 8342 C 812.425 -2.30771 -0.291149 0
M  V30 8343 C 813.419 -1.3938 -0.962787 0
M  V30 8344 O 814.625 -1.56431 -0.890477 0
M  V30 8345 H 811 -0.743499 -0.11275 0
M  V30 8346 H 812.971 -2.95501 0.414917 0
M  V30 8347 C 811.72 -3.20725 -1.34279 0
M  V30 8348 H 811.043 -3.90975 -0.83538 0
M  V30 8349 H 812.483 -3.80583 -1.86903 0
M  V30 8350 C 810.942 -2.40334 -2.36095 0
M  V30 8351 O 811.472 -2.10749 -3.41976 0
M  V30 8352 N 809.678 -2.02359 -2.08565 0
M  V30 8353 H 809.225 -2.26619 -1.22482 0
M  V30 8354 H 809.183 -1.48878 -2.76916 0
M  V30 8355 N 812.955 -0.234822 -1.55841 0
M  V30 8356 C 813.887 0.702346 -2.18174 0
M  V30 8357 C 814.9 1.14776 -1.15457 0
M  V30 8358 O 816.089 1.07662 -1.42377 0
M  V30 8359 C 813.189 1.96483 -2.76129 0
M  V30 8360 C 812.362 1.67283 -4.04148 0
M  V30 8361 C 811.421 2.7837 -4.46539 0
M  V30 8362 O 810.447 2.46272 -5.13166 0
M  V30 8363 N 811.649 4.07611 -4.1332 0
M  V30 8364 H 814.414 0.169074 -2.99223 0
M  V30 8365 H 811.975 -0.0543164 -1.61809 0
M  V30 8366 H 813.967 2.70016 -3.01452 0
M  V30 8367 H 812.537 2.40822 -1.99307 0
M  V30 8368 H 811.757 0.773278 -3.86541 0
M  V30 8369 H 813.045 1.45222 -4.87635 0
M  V30 8370 H 812.443 4.36527 -3.59806 0
M  V30 8371 H 811 4.77646 -4.43506 0
M  V30 8372 N 814.433 1.57553 0.0384317 0
M  V30 8373 C 815.71 1.79977 0.766002 0
M  V30 8374 C 816.09 0.830625 1.94072 0
M  V30 8375 O 815.438 -0.129243 2.28134 0
M  V30 8376 C 815.648 3.27434 1.20781 0
M  V30 8377 C 816.996 3.92167 1.62758 0
M  V30 8378 O 818.02 3.31527 1.30263 0
M  V30 8379 O 816.879 4.98917 2.23035 0
M  V30 8380 H 813.973 0.739787 0.369654 0
M  V30 8381 H 816.519 1.69693 0.0159312 0
M  V30 8382 H 815.291 3.89558 0.368792 0
M  V30 8383 H 814.914 3.42571 2.01819 0
M  V30 8384 N 815.911 -0.310526 1.54511 0
M  V30 8385 C 817.159 -1.04484 1.72996 0
M  V30 8386 C 817.48 -1.88118 0.513479 0
M  V30 8387 O 816.75 -1.90119 -0.472384 0
M  V30 8388 H 815.33 -0.388747 0.637875 0
M  V30 8389 H 817.992 -0.343811 1.91844 0
M  V30 8390 H 817.088 -1.70341 2.61515 0
M  V30 8391 N 817.389 -1.46805 -0.573248 0
M  V30 8392 C 818.319 -1.60951 -1.69165 0
M  V30 8393 C 819.3 -0.45948 -1.63777 0
M  V30 8394 O 820.485 -0.68688 -1.81647 0
M  V30 8395 C 817.615 -1.60844 -3.07809 0
M  V30 8396 C 816.569 -2.74913 -3.28035 0
M  V30 8397 C 815.895 -2.59871 -4.67302 0
M  V30 8398 C 817.195 -4.16654 -3.14955 0
M  V30 8399 H 818.889 -2.54574 -1.57582 0
M  V30 8400 H 816.435 -1.22516 -0.756686 0
M  V30 8401 H 818.388 -1.69334 -3.85881 0
M  V30 8402 H 817.112 -0.637714 -3.20314 0
M  V30 8403 H 815.771 -2.65908 -2.52366 0
M  V30 8404 H 815.419 -1.60861 -4.76585 0
M  V30 8405 H 815.119 -3.36386 -4.81786 0
M  V30 8406 H 816.643 -2.70265 -5.4753 0
M  V30 8407 H 818.057 -4.26721 -3.82861 0
M  V30 8408 H 816.454 -4.93831 -3.40956 0
M  V30 8409 H 817.524 -4.36146 -2.11908 0
M  V30 8410 N 818.867 0.818669 -1.34668 0
M  V30 8411 C 820.116 1.57017 -1.26604 0
M  V30 8412 C 820.429 1.94936 0.161036 0
M  V30 8413 O 821.635 2.69051 0.36386 0
M  V30 8414 C 820.091 2.83305 -2.2196 0
M  V30 8415 C 819.699 2.52671 -3.69948 0
M  V30 8416 C 821.443 3.61324 -2.22813 0
M  V30 8417 C 819.35 3.75178 -4.5716 0
M  V30 8418 H 818.28 0.589323 -0.470335 0
M  V30 8419 H 820.931 0.900956 -1.59859 0
M  V30 8420 H 819.313 3.51874 -1.81661 0
M  V30 8421 H 820.487 1.92186 -4.18809 0
M  V30 8422 H 818.802 1.8792 -3.71584 0
M  V30 8423 H 821.399 4.52294 -2.85192 0
M  V30 8424 H 821.742 3.97759 -1.22857 0
M  V30 8425 H 822.275 2.99703 -2.61578 0
M  V30 8426 H 819.014 3.43861 -5.58068 0
M  V30 8427 H 818.534 4.34931 -4.13031 0
M  V30 8428 H 820.213 4.42542 -4.71981 0
M  V30 8429 N 820.346 1.18468 1.03938 0
M  V30 8430 C 821.586 0.991823 1.78724 0
M  V30 8431 C 821.95 -0.470115 1.86156 0
M  V30 8432 O 823.151 -0.782451 2.5716 0
M  V30 8433 C 821.422 1.63018 3.18056 0
M  V30 8434 S 822.981 1.58527 4.09163 0
M  V30 8435 H 819.799 0.356137 0.615376 0
M  V30 8436 H 822.401 1.50634 1.24618 0
M  V30 8437 H 821.105 2.68642 3.10258 0
M  V30 8438 H 820.636 1.11601 3.77238 0
M  V30 8439 H 822.651 0.602059 4.92534 0
M  V30 8440 N 821.824 -1.22873 0.986916 0
M  V30 8441 C 823.072 -1.91084 0.658121 0
M  V30 8442 C 823.393 -1.77304 -0.811675 0
M  V30 8443 O 822.663 -1.15649 -1.58121 0
M  V30 8444 H 821.243 -0.707251 0.240427 0
M  V30 8445 H 823.905 -1.49357 1.25213 0
M  V30 8446 H 823.001 -2.98373 0.915428 0
M  V30 8447 N 823.302 -0.75937 -1.38099 0
M  V30 8448 C 824.232 -0.151077 -2.33011 0
M  V30 8449 C 825.213 0.697099 -1.5516 0
M  V30 8450 O 826.398 0.637101 -1.83452 0
M  V30 8451 C 823.528 0.738423 -3.39359 0
M  V30 8452 C 822.482 -0.0074741 -4.27999 0
M  V30 8453 C 821.808 1.00066 -5.25253 0
M  V30 8454 C 823.108 -1.17926 -5.08813 0
M  V30 8455 H 824.802 -0.943933 -2.84131 0
M  V30 8456 H 822.348 -0.455362 -1.36611 0
M  V30 8457 H 824.301 1.17369 -4.04725 0
M  V30 8458 H 823.025 1.56366 -2.86735 0
M  V30 8459 H 821.684 -0.423379 -3.64147 0
M  V30 8460 H 821.332 1.82012 -4.68914 0
M  V30 8461 H 821.032 0.506199 -5.85416 0
M  V30 8462 H 822.556 1.43512 -5.93495 0
M  V30 8463 H 823.97 -0.821262 -5.67387 0
M  V30 8464 H 822.367 -1.60497 -5.78239 0
M  V30 8465 H 823.437 -1.98938 -4.42212 0
M  V30 8466 N 824.78 1.49157 -0.508906 0
M  V30 8467 C 826.196 1.58741 -0.165372 0
M  V30 8468 C 826.396 1.5133 1.33047 0
M  V30 8469 O 825.452 1.39135 2.10707 0
M  V30 8470 C 826.765 2.91217 -0.749194 0
M  V30 8471 C 828.313 3.047 -0.716015 0
M  V30 8472 C 828.788 4.39807 -1.27804 0
M  V30 8473 N 830.279 4.46319 -1.23908 0
M  V30 8474 C 831.014 5.49325 -1.64406 0
M  V30 8475 N 830.51 6.59395 -2.12534 0
M  V30 8476 N 832.303 5.40084 -1.55773 0
M  V30 8477 H 824.454 1.52217 -1.48134 0
M  V30 8478 H 826.717 0.721514 -0.614915 0
M  V30 8479 H 826.423 3.02233 -1.79856 0
M  V30 8480 H 826.297 3.76592 -0.214144 0
M  V30 8481 H 828.684 2.9331 0.324535 0
M  V30 8482 H 828.765 2.2099 -1.2883 0
M  V30 8483 H 828.409 4.5195 -2.31741 0
M  V30 8484 H 828.339 5.2217 -0.681623 0
M  V30 8485 H 830.83 3.67354 -0.886537 0
M  V30 8486 H 831.143 7.34102 -2.41485 0
M  V30 8487 H 829.488 6.60414 -2.16513 0
M  V30 8488 H 832.679 4.52986 -1.17987 0
M  V30 8489 H 832.852 6.20233 -1.87657 0
M  V30 8490 N 826.258 0.243083 1.55714 0
M  V30 8491 C 827.19 -0.690766 2.18543 0
M  V30 8492 C 828.203 -1.14163 1.16064 0
M  V30 8493 O 829.392 -1.06906 1.42946 0
M  V30 8494 C 826.492 -1.95016 2.77168 0
M  V30 8495 C 825.665 -1.65137 4.05029 0
M  V30 8496 C 824.724 -2.75998 4.48009 0
M  V30 8497 O 823.75 -2.43547 5.14464 0
M  V30 8498 N 824.952 -4.05414 4.15476 0
M  V30 8499 H 827.717 -0.153203 2.99308 0
M  V30 8500 H 825.278 0.0628968 1.61778 0
M  V30 8501 H 827.27 -2.68414 3.0288 0
M  V30 8502 H 825.84 -2.39762 2.00582 0
M  V30 8503 H 825.06 -0.752768 3.86946 0
M  V30 8504 H 826.348 -1.42633 4.88399 0
M  V30 8505 H 825.746 -4.34613 3.62116 0
M  V30 8506 H 824.303 -4.75288 4.46032 0
M  V30 8507 N 827.736 -1.57571 -0.0300757 0
M  V30 8508 C 828.666 -2.0953 -1.03051 0
M  V30 8509 C 829.647 -0.99761 -1.37774 0
M  V30 8510 O 830.832 -1.27279 -1.46676 0
M  V30 8511 C 827.962 -2.57385 -2.33174 0
M  V30 8512 C 826.916 -3.71409 -2.12696 0
M  V30 8513 C 826.242 -4.05467 -3.4857 0
M  V30 8514 C 827.542 -4.99877 -1.51396 0
M  V30 8515 H 829.236 -2.93367 -0.597999 0
M  V30 8516 H 826.782 -1.41127 -0.286203 0
M  V30 8517 H 828.735 -2.92355 -3.03491 0
M  V30 8518 H 827.459 -1.70629 -2.78484 0
M  V30 8519 H 826.118 -3.36786 -1.44813 0
M  V30 8520 H 825.766 -3.15779 -3.91526 0
M  V30 8521 H 825.466 -4.82269 -3.35694 0
M  V30 8522 H 826.99 -4.4297 -4.2025 0
M  V30 8523 H 828.404 -5.3281 -2.11629 0
M  V30 8524 H 826.801 -5.81283 -1.49098 0
M  V30 8525 H 827.871 -4.82522 -0.479676 0
M  V30 8526 N 829.214 0.302327 -1.54673 0
M  V30 8527 C 830.177 1.35592 -1.8479 0
M  V30 8528 C 831.177 1.43743 -0.72073 0
M  V30 8529 O 832.367 1.43402 -0.989017 0
M  V30 8530 C 829.499 2.74091 -2.02699 0
M  V30 8531 H 830.692 1.10132 -2.78946 0
M  V30 8532 H 828.245 0.538926 -1.46715 0
M  V30 8533 H 828.98 3.04775 -1.10826 0
M  V30 8534 H 828.765 2.69565 -2.8474 0
M  V30 8535 H 830.255 3.50272 -2.27374 0
M  V30 8536 N 830.692 1.47107 0.565454 0
M  V30 8537 C 831.64 1.59368 1.69424 0
M  V30 8538 C 832.634 0.461344 1.62997 0
M  V30 8539 O 833.84 0.638849 1.68282 0
M  V30 8540 H 830.215 0.501387 0.560459 0
M  V30 8541 H 832.186 2.54242 1.56217 0
M  V30 8542 C 830.935 1.61739 3.07792 0
M  V30 8543 H 830.258 2.48215 3.13416 0
M  V30 8544 H 831.698 1.7437 3.86486 0
M  V30 8545 C 830.157 0.349156 3.35086 0
M  V30 8546 O 830.687 -0.553287 3.97871 0
M  V30 8547 N 828.893 0.231723 2.89675 0
M  V30 8548 H 828.44 0.967021 2.3876 0
M  V30 8549 H 828.398 -0.615911 3.08308 0
M  V30 8550 N 832.17 -0.811516 1.35101 0
M  V30 8551 C 833.08 -1.95475 1.29718 0
M  V30 8552 C 834.096 -1.72813 0.202909 0
M  V30 8553 O 835.272 -1.96725 0.431414 0
M  V30 8554 C 832.337 -3.29975 1.06385 0
M  V30 8555 C 831.398 -3.65566 2.25077 0
M  V30 8556 C 830.631 -4.93648 2.02848 0
M  V30 8557 O 830.854 -5.617 0.992442 0
M  V30 8558 O 829.788 -5.27384 2.90087 0
M  V30 8559 H 833.614 -2.02961 2.25921 0
M  V30 8560 H 831.199 -0.948583 1.15422 0
M  V30 8561 H 833.081 -4.10506 0.951999 0
M  V30 8562 H 831.756 -3.2343 0.132294 0
M  V30 8563 H 830.663 -2.85432 2.41825 0
M  V30 8564 H 831.996 -3.7681 3.16662 0
M  V30 8565 N 833.648 -1.19017 -1.03309 0
M  V30 8566 C 834.876 -1.01534 -1.80273 0
M  V30 8567 C 835.291 0.43605 -1.83696 0
M  V30 8568 O 834.648 1.30288 -1.27794 0
M  V30 8569 C 834.699 -1.5722 -3.25522 0
M  V30 8570 O 834.42 -2.96677 -3.22358 0
M  V30 8571 C 835.921 -1.4446 -4.19102 0
M  V30 8572 H 833.141 -0.358094 -0.567459 0
M  V30 8573 H 835.685 -1.57738 -1.3015 0
M  V30 8574 H 833.84 -1.05174 -3.7285 0
M  V30 8575 H 834.254 -3.22795 -4.13405 0
M  V30 8576 H 835.728 -1.88209 -5.18923 0
M  V30 8577 H 836.205 -0.394471 -4.37425 0
M  V30 8578 H 836.811 -1.95616 -3.77643 0
M  V30 8579 N 835.127 1.22348 -0.993418 0
M  V30 8580 C 836.355 1.95125 -0.688021 0
M  V30 8581 C 836.77 1.73377 0.747388 0
M  V30 8582 O 836.127 1.03317 1.50439 0
M  V30 8583 C 836.178 3.47819 -0.985097 0
M  V30 8584 O 835.899 3.68838 -2.3641 0
M  V30 8585 C 837.4 4.37779 -0.697474 0
M  V30 8586 H 834.62 0.62087 -0.254481 0
M  V30 8587 H 837.164 1.55485 -1.32833 0
M  V30 8588 H 835.319 3.85426 -0.390583 0
M  V30 8589 H 835.733 4.63032 -2.46377 0
M  V30 8590 H 837.207 5.43666 -0.955604 0
M  V30 8591 H 837.684 4.37651 0.368524 0
M  V30 8592 H 838.29 4.05799 -1.27306 0
M  V30 8593 N 836.605 0.766683 1.37694 0
M  V30 8594 C 837.537 0.107798 2.28946 0
M  V30 8595 C 838.55 -0.669701 1.48387 0
M  V30 8596 O 839.739 -0.508629 1.711 0
M  V30 8597 C 836.839 -0.871084 3.27514 0
M  V30 8598 C 836.012 -0.148471 4.37148 0
M  V30 8599 C 835.071 -1.03998 5.1582 0
M  V30 8600 O 834.097 -0.505639 5.6695 0
M  V30 8601 N 835.299 -2.36679 5.3006 0
M  V30 8602 H 838.064 0.89154 2.86132 0
M  V30 8603 H 835.625 0.618593 1.49616 0
M  V30 8604 H 837.617 -1.47081 3.77027 0
M  V30 8605 H 836.187 -1.55582 2.71133 0
M  V30 8606 H 835.407 0.632117 3.89099 0
M  V30 8607 H 836.695 0.351045 5.07588 0
M  V30 8608 H 836.093 -2.82532 4.90094 0
M  V30 8609 H 834.65 -2.9167 5.82899 0
M  V30 8610 N 838.083 -1.48885 0.516809 0
M  V30 8611 C 839.046 -2.27916 -0.242256 0
M  V30 8612 C 840.046 -1.34601 -0.879735 0
M  V30 8613 O 841.236 -1.57616 -0.74182 0
M  V30 8614 C 838.368 -3.13067 -1.34914 0
M  V30 8615 H 839.561 -2.96483 0.451444 0
M  V30 8616 H 837.114 -1.5391 0.272294 0
M  V30 8617 H 837.849 -2.49102 -2.07651 0
M  V30 8618 H 837.634 -3.81695 -0.897313 0
M  V30 8619 H 839.124 -3.72716 -1.88341 0
M  V30 8620 N 839.561 -0.251338 -1.55583 0
M  V30 8621 C 840.491 0.640437 -2.24545 0
M  V30 8622 C 841.472 1.17781 -1.22726 0
M  V30 8623 O 842.657 1.21633 -1.5139 0
M  V30 8624 C 839.787 1.8355 -2.94834 0
M  V30 8625 C 838.741 1.4307 -4.03379 0
M  V30 8626 C 838.067 2.70695 -4.61116 0
M  V30 8627 C 839.367 0.59848 -5.1886 0
M  V30 8628 H 841.061 0.0653772 -2.99329 0
M  V30 8629 H 838.607 0.0300042 -1.43969 0
M  V30 8630 H 840.56 2.46505 -3.4178 0
M  V30 8631 H 839.284 2.43601 -2.17546 0
M  V30 8632 H 837.943 0.824474 -3.57209 0
M  V30 8633 H 837.591 3.28954 -3.80524 0
M  V30 8634 H 837.291 2.44332 -5.34393 0
M  V30 8635 H 838.815 3.34541 -5.10798 0
M  V30 8636 H 840.229 1.13244 -5.62004 0
M  V30 8637 H 838.626 0.430728 -5.98552 0
M  V30 8638 H 839.696 -0.38829 -4.83343 0
M  V30 8639 N 841.039 1.57585 0.0217189 0
M  V30 8640 C 841.971 2.03849 1.04777 0
M  V30 8641 C 842.984 0.952558 1.32023 0
M  V30 8642 O 844.173 1.22974 1.29381 0
M  V30 8643 C 841.273 2.40504 2.3877 0
M  V30 8644 C 840.446 3.71566 2.30775 0
M  V30 8645 C 839.505 3.95329 3.47277 0
M  V30 8646 O 838.531 4.66289 3.26441 0
M  V30 8647 N 839.733 3.41536 4.69397 0
M  V30 8648 H 842.498 2.92491 0.653395 0
M  V30 8649 H 840.059 1.60538 0.209527 0
M  V30 8650 H 842.051 2.53532 3.15442 0
M  V30 8651 H 840.621 1.57494 2.70027 0
M  V30 8652 H 839.841 3.68822 1.39155 0
M  V30 8653 H 841.129 4.5753 2.22584 0
M  V30 8654 H 840.527 2.84033 4.89226 0
M  V30 8655 H 839.084 3.59932 5.43408 0
M  V30 8656 N 842.517 -0.29412 1.54831 0
M  V30 8657 C 843.447 -1.36757 1.89261 0
M  V30 8658 C 844.428 -1.52564 0.752214 0
M  V30 8659 O 845.613 -1.65958 1.00855 0
M  V30 8660 C 842.743 -2.73066 2.14597 0
M  V30 8661 C 841.697 -2.72017 3.3044 0
M  V30 8662 C 841.023 -4.11679 3.4121 0
M  V30 8663 C 842.323 -2.33149 4.67375 0
M  V30 8664 H 844.017 -1.08191 2.79169 0
M  V30 8665 H 841.563 -0.519014 1.34321 0
M  V30 8666 H 843.516 -3.48255 2.37269 0
M  V30 8667 H 842.24 -3.03172 1.21467 0
M  V30 8668 H 840.899 -1.99285 3.07703 0
M  V30 8669 H 840.547 -4.38973 2.45584 0
M  V30 8670 H 840.247 -4.11877 4.19084 0
M  V30 8671 H 841.771 -4.88637 3.6615 0
M  V30 8672 H 843.185 -2.98054 4.89731 0
M  V30 8673 H 841.582 -2.44546 5.48012 0
M  V30 8674 H 842.652 -1.28275 4.67626 0
M  V30 8675 N 843.995 -1.47404 -0.557645 0
M  V30 8676 C 845.242 -1.54007 -1.31484 0
M  V30 8677 C 845.57 -0.202162 -1.93447 0
M  V30 8678 O 844.825 0.804901 -1.78381 0
M  V30 8679 C 845.124 -2.6061 -2.44575 0
M  V30 8680 C 844.79 -4.03896 -2.00446 0
M  V30 8681 C 843.452 -4.42901 -1.88127 0
M  V30 8682 C 845.804 -4.93804 -1.66754 0
M  V30 8683 C 843.132 -5.6965 -1.40411 0
M  V30 8684 C 845.484 -6.21016 -1.20509 0
M  V30 8685 C 844.148 -6.58903 -1.06786 0
M  V30 8686 H 843.418 -0.563552 -0.481134 0
M  V30 8687 H 846.065 -1.81001 -0.625375 0
M  V30 8688 H 844.37 -2.27371 -3.19076 0
M  V30 8689 H 846.067 -2.62941 -3.02759 0
M  V30 8690 H 842.657 -3.73077 -2.10977 0
M  V30 8691 H 846.841 -4.64369 -1.75144 0
M  V30 8692 H 842.097 -5.97755 -1.2845 0
M  V30 8693 H 846.271 -6.90095 -0.935001 0
M  V30 8694 H 843.898 -7.57008 -0.695891 0
M  V30 8695 N 845.473 0.80434 -1.35529 0
M  V30 8696 C 846.403 1.93086 -1.31301 0
M  V30 8697 C 847.384 1.69068 -0.187044 0
M  V30 8698 O 848.569 1.90399 -0.382359 0
M  V30 8699 C 845.699 3.29867 -1.0865 0
M  V30 8700 C 844.653 3.68373 -2.17911 0
M  V30 8701 C 843.979 5.0334 -1.80423 0
M  V30 8702 C 845.279 3.78516 -3.59893 0
M  V30 8703 H 846.973 1.96882 -2.25561 0
M  V30 8704 H 844.519 0.945841 -1.08581 0
M  V30 8705 H 846.472 4.08281 -1.04331 0
M  V30 8706 H 845.196 3.2642 -0.108359 0
M  V30 8707 H 843.855 2.92247 -2.21331 0
M  V30 8708 H 843.503 4.96399 -0.812213 0
M  V30 8709 H 843.203 5.30074 -2.53565 0
M  V30 8710 H 844.727 5.84191 -1.77633 0
M  V30 8711 H 846.141 4.47155 -3.58783 0
M  V30 8712 H 844.538 4.16721 -4.31814 0
M  V30 8713 H 845.608 2.8001 -3.95882 0
M  V30 8714 N 846.951 1.19563 1.02676 0
M  V30 8715 C 848.367 0.948304 1.28372 0
M  V30 8716 C 848.567 -0.378096 1.97921 0
M  V30 8717 O 847.623 -1.1091 2.26838 0
M  V30 8718 C 848.936 2.12381 2.12873 0
M  V30 8719 C 850.484 2.16366 2.26174 0
M  V30 8720 C 850.959 3.33374 3.14048 0
M  V30 8721 N 852.45 3.33323 3.21636 0
M  V30 8722 C 853.185 4.20504 3.89825 0
M  V30 8723 N 852.681 5.17845 4.60227 0
M  V30 8724 N 854.474 4.08375 3.86246 0
M  V30 8725 H 846.625 2.04899 0.559485 0
M  V30 8726 H 848.888 0.89606 0.309484 0
M  V30 8727 H 848.594 3.08383 1.69094 0
M  V30 8728 H 848.468 2.09621 3.1359 0
M  V30 8729 H 850.855 1.20933 2.69182 0
M  V30 8730 H 850.936 2.23179 1.25 0
M  V30 8731 H 850.58 4.29087 2.71747 0
M  V30 8732 H 850.51 3.23798 4.15286 0
M  V30 8733 H 853.001 2.62863 2.71498 0
M  V30 8734 H 853.314 5.80712 5.09896 0
M  V30 8735 H 851.659 5.21791 4.59085 0
M  V30 8736 H 854.85 3.31606 3.30386 0
M  V30 8737 H 855.023 4.76532 4.39114 0
M  V30 8738 N 848.429 -1.21819 0.999893 0
M  V30 8739 C 849.392 -2.22227 0.561044 0
M  V30 8740 C 850.392 -1.56722 -0.359858 0
M  V30 8741 O 851.582 -1.73546 -0.150848 0
M  V30 8742 C 848.714 -3.40409 -0.182987 0
M  V30 8743 H 849.907 -2.62567 1.44909 0
M  V30 8744 H 847.46 -1.34991 0.78785 0
M  V30 8745 H 848.195 -3.05551 -1.08671 0
M  V30 8746 H 847.98 -3.89171 0.47833 0
M  V30 8747 H 849.47 -4.14856 -0.477952 0
M  V30 8748 N 849.908 -0.773975 -1.37286 0
M  V30 8749 C 851.136 -0.350758 -2.03905 0
M  V30 8750 C 851.551 1.02779 -1.58373 0
M  V30 8751 O 850.908 1.65646 -0.766009 0
M  V30 8752 C 850.959 -0.387335 -3.59419 0
M  V30 8753 O 850.68 -1.7115 -4.03286 0
M  V30 8754 C 852.181 0.047198 -4.43275 0
M  V30 8755 H 849.401 -0.146663 -0.654775 0
M  V30 8756 H 851.945 -1.04852 -1.75574 0
M  V30 8757 H 850.1 0.261865 -3.86514 0
M  V30 8758 H 850.514 -1.65166 -4.97816 0
M  V30 8759 H 851.988 -0.0295474 -5.51992 0
M  V30 8760 H 852.465 1.09786 -4.25257 0
M  V30 8761 H 853.071 -0.573899 -4.2141 0
M  V30 8762 N 851.386 1.48609 -0.524698 0
M  V30 8763 C 852.614 2.06899 0.00742946 0
M  V30 8764 C 853.029 1.38196 1.28637 0
M  V30 8765 O 852.386 0.467771 1.76403 0
M  V30 8766 C 852.437 3.60699 0.240548 0
M  V30 8767 O 852.158 4.26821 -0.987715 0
M  V30 8768 C 853.659 4.35769 0.813652 0
M  V30 8769 H 850.879 0.670278 -0.0311294 0
M  V30 8770 H 853.423 1.91071 -0.728832 0
M  V30 8771 H 851.578 3.76149 0.926845 0
M  V30 8772 H 851.992 5.18889 -0.765175 0
M  V30 8773 H 853.466 5.44174 0.926219 0
M  V30 8774 H 853.943 3.9984 1.81728 0
M  V30 8775 H 854.549 4.24983 0.164086 0
M  V30 8776 N 852.864 0.259585 1.55447 0
M  V30 8777 C 853.774 -0.645026 2.25558 0
M  V30 8778 C 854.79 -1.18291 1.27606 0
M  V30 8779 O 855.966 -1.21649 1.6051 0
M  V30 8780 C 853.031 -1.81964 2.9511 0
M  V30 8781 C 852.092 -1.31997 4.08504 0
M  V30 8782 C 851.325 -2.43861 4.74729 0
M  V30 8783 O 851.548 -3.62876 4.40088 0
M  V30 8784 O 850.482 -2.12898 5.6299 0
M  V30 8785 H 854.308 -0.0775399 3.03601 0
M  V30 8786 H 851.893 0.0275859 1.49375 0
M  V30 8787 H 853.775 -2.50485 3.38873 0
M  V30 8788 H 852.45 -2.37451 2.19997 0
M  V30 8789 H 851.357 -0.601676 3.6923 0
M  V30 8790 H 852.69 -0.811045 4.85472 0
M  V30 8791 N 854.342 -1.57594 -0.0133615 0
M  V30 8792 C 855.272 -2.10611 -1.00823 0
M  V30 8793 C 856.253 -1.01217 -1.36708 0
M  V30 8794 O 857.438 -1.28827 -1.45318 0
M  V30 8795 C 854.568 -2.59844 -2.30431 0
M  V30 8796 C 853.522 -3.73644 -2.08745 0
M  V30 8797 C 852.848 -4.09141 -3.4425 0
M  V30 8798 C 854.148 -5.01454 -1.46086 0
M  V30 8799 H 855.842 -2.93985 -0.566849 0
M  V30 8800 H 853.388 -1.41423 -0.271219 0
M  V30 8801 H 855.341 -2.95557 -3.00373 0
M  V30 8802 H 854.065 -1.73573 -2.76658 0
M  V30 8803 H 852.724 -3.38303 -1.41232 0
M  V30 8804 H 852.372 -3.19914 -3.88155 0
M  V30 8805 H 852.072 -4.85802 -3.3056 0
M  V30 8806 H 853.596 -4.47402 -4.15528 0
M  V30 8807 H 855.01 -5.35024 -2.05966 0
M  V30 8808 H 853.407 -5.82832 -1.42924 0
M  V30 8809 H 854.477 -4.83003 -0.428471 0
M  V30 8810 N 855.82 0.285905 -1.54985 0
M  V30 8811 C 857.236 0.632405 -1.46536 0
M  V30 8812 C 857.436 1.90074 -0.668888 0
M  V30 8813 O 856.492 2.51839 -0.182586 0
M  V30 8814 C 857.805 0.771361 -2.90638 0
M  V30 8815 C 859.353 0.866262 -3.00774 0
M  V30 8816 C 859.828 1.0371 -4.46103 0
M  V30 8817 N 861.319 1.10294 -4.49877 0
M  V30 8818 C 862.054 1.25369 -5.59527 0
M  V30 8819 N 861.55 1.37246 -6.7907 0
M  V30 8820 N 863.343 1.28377 -5.47244 0
M  V30 8821 H 855.494 -0.547226 -2.0523 0
M  V30 8822 H 857.757 -0.183298 -0.930111 0
M  V30 8823 H 857.463 -0.0899485 -3.51585 0
M  V30 8824 H 857.337 1.65569 -3.3892 0
M  V30 8825 H 859.724 1.71805 -2.39931 0
M  V30 8826 H 859.805 -0.0424049 -2.55765 0
M  V30 8827 H 859.449 0.190021 -5.07544 0
M  V30 8828 H 859.379 1.96022 -4.88757 0
M  V30 8829 H 861.87 1.02407 -3.6376 0
M  V30 8830 H 862.183 1.48546 -7.58389 0
M  V30 8831 H 860.528 1.34274 -6.81906 0
M  V30 8832 H 863.719 1.1872 -4.52795 0
M  V30 8833 H 863.892 1.39782 -6.32744 0
M  V30 8834 N 857.298 1.47698 0.54982 0
M  V30 8835 C 858.526 1.5833 1.33188 0
M  V30 8836 C 858.941 0.236193 1.87317 0
M  V30 8837 O 858.298 -0.77167 1.65383 0
M  V30 8838 C 858.349 2.61438 2.49664 0
M  V30 8839 O 858.07 3.9092 1.97771 0
M  V30 8840 C 859.571 2.82324 3.41772 0
M  V30 8841 H 856.791 0.53443 0.405741 0
M  V30 8842 H 859.335 1.93375 0.665309 0
M  V30 8843 H 857.49 2.29307 3.12245 0
M  V30 8844 H 857.904 4.47323 2.73866 0
M  V30 8845 H 859.378 3.58316 4.19897 0
M  V30 8846 H 859.855 1.90416 3.95776 0
M  V30 8847 H 860.461 3.15682 2.85 0
M  V30 8848 N 858.776 -0.797141 1.35954 0
M  V30 8849 C 860.023 -1.55468 1.29754 0
M  V30 8850 C 860.351 -1.94095 -0.125391 0
M  V30 8851 O 859.606 -1.62341 -1.09288 0
M  V30 8852 C 859.905 -2.84847 2.15863 0
M  V30 8853 C 859.571 -2.65394 3.64523 0
M  V30 8854 C 858.233 -2.59796 4.05042 0
M  V30 8855 C 860.585 -2.4727 4.58811 0
M  V30 8856 C 857.913 -2.3403 5.38002 0
M  V30 8857 C 860.265 -2.23032 5.91979 0
M  V30 8858 C 858.929 -2.15862 6.31633 0
M  V30 8859 H 858.199 -0.568897 0.474803 0
M  V30 8860 H 860.846 -0.920299 1.67937 0
M  V30 8861 H 859.151 -3.52712 1.70591 0
M  V30 8862 H 860.848 -3.42597 2.08395 0
M  V30 8863 H 857.438 -2.70602 3.32374 0
M  V30 8864 H 861.622 -2.506 4.28384 0
M  V30 8865 H 856.878 -2.26956 5.67715 0
M  V30 8866 H 861.052 -2.08001 6.64612 0
M  V30 8867 H 858.679 -1.9566 7.34589 0
M  V30 8868 N 860.254 -1.20106 -1.0204 0
M  V30 8869 C 861.479 -1.0351 -1.79723 0
M  V30 8870 C 861.904 0.411328 -1.83548 0
M  V30 8871 O 861.262 1.29608 -1.26773 0
M  V30 8872 C 861.31 -1.61876 -3.22224 0
M  V30 8873 O 860.414 -0.853813 -4.03465 0
M  V30 8874 H 859.755 -0.365299 -0.554484 0
M  V30 8875 H 862.285 -1.59316 -1.28373 0
M  V30 8876 H 862.295 -1.65451 -3.72948 0
M  V30 8877 H 860.97 -2.67148 -3.18755 0
M  V30 8878 H 859.547 -0.891983 -3.62075 0
M  V30 8879 N 861.732 1.21287 -1.00634 0
M  V30 8880 C 862.981 1.89706 -0.685178 0
M  V30 8881 C 863.294 1.79044 0.787566 0
M  V30 8882 O 864.5 2.42502 1.22086 0
M  V30 8883 C 862.956 3.40176 -1.17508 0
M  V30 8884 C 862.564 3.59446 -2.674 0
M  V30 8885 C 864.308 4.14213 -0.928869 0
M  V30 8886 C 862.215 5.03688 -3.09923 0
M  V30 8887 H 861.145 0.710434 -0.252586 0
M  V30 8888 H 863.796 1.37277 -1.21768 0
M  V30 8889 H 862.178 3.91867 -0.570622 0
M  V30 8890 H 863.352 3.18188 -3.33306 0
M  V30 8891 H 861.667 2.98764 -2.9005 0
M  V30 8892 H 864.264 5.20546 -1.22212 0
M  V30 8893 H 864.607 4.16082 0.134859 0
M  V30 8894 H 865.14 3.68591 -1.49619 0
M  V30 8895 H 861.879 5.06968 -4.15529 0
M  V30 8896 H 861.399 5.45796 -2.4873 0
M  V30 8897 H 863.078 5.72204 -3.0198 0
M  V30 8898 N 863.21 0.781244 1.36873 0
M  V30 8899 C 864.14 0.188128 2.32741 0
M  V30 8900 C 865.121 -0.672326 1.56249 0
M  V30 8901 O 866.306 -0.607835 1.84442 0
M  V30 8902 C 863.436 -0.684341 3.40491 0
M  V30 8903 C 862.39 0.0755641 4.27933 0
M  V30 8904 C 861.716 -0.916968 5.26779 0
M  V30 8905 C 863.016 1.26006 5.06873 0
M  V30 8906 H 864.71 0.989016 2.82593 0
M  V30 8907 H 862.256 0.477038 1.35869 0
M  V30 8908 H 864.209 -1.10915 4.06541 0
M  V30 8909 H 862.933 -1.51785 2.89187 0
M  V30 8910 H 861.592 0.481258 3.63427 0
M  V30 8911 H 861.24 -1.74528 4.71751 0
M  V30 8912 H 860.94 -0.413 5.86147 0
M  V30 8913 H 862.464 -1.34052 5.95703 0
M  V30 8914 H 863.878 0.911425 5.66009 0
M  V30 8915 H 862.275 1.69676 5.75613 0
M  V30 8916 H 863.345 2.05948 4.38991 0
M  V30 8917 N 864.689 -1.48329 0.532571 0
M  V30 8918 C 865.637 -2.31336 -0.242133 0
M  V30 8919 C 866.631 -1.41391 -0.933006 0
M  V30 8920 O 867.837 -1.58284 -0.857096 0
M  V30 8921 H 864.212 -0.745724 -0.0969536 0
M  V30 8922 H 866.183 -2.94555 0.477504 0
M  V30 8923 C 864.932 -3.23501 -1.27446 0
M  V30 8924 H 864.255 -3.92659 -0.752261 0
M  V30 8925 H 865.695 -3.84461 -1.78789 0
M  V30 8926 C 864.154 -2.45288 -2.30944 0
M  V30 8927 O 864.684 -2.17955 -3.37429 0
M  V30 8928 N 862.89 -2.06737 -2.04226 0
M  V30 8929 H 862.437 -2.29166 -1.17647 0
M  V30 8930 H 862.395 -1.54719 -2.73696 0
M  V30 8931 N 866.167 -0.267825 -1.55308 0
M  V30 8932 C 867.583 0.0865107 -1.59365 0
M  V30 8933 C 867.783 1.55205 -1.28505 0
M  V30 8934 O 866.839 2.29978 -1.04241 0
M  V30 8935 C 868.152 -0.28155 -2.99379 0
M  V30 8936 C 869.7 -0.227565 -3.12172 0
M  V30 8937 C 870.175 -0.569959 -4.5444 0
M  V30 8938 N 871.666 -0.521238 -4.60258 0
M  V30 8939 C 872.401 -0.759061 -5.68354 0
M  V30 8940 N 871.897 -1.06112 -6.84626 0
M  V30 8941 N 873.69 -0.688351 -5.57869 0
M  V30 8942 H 865.841 -1.22332 -1.73633 0
M  V30 8943 H 868.104 -0.493703 -0.809297 0
M  V30 8944 H 867.81 -1.3005 -3.26772 0
M  V30 8945 H 867.684 0.381192 -3.75269 0
M  V30 8946 H 870.071 0.782093 -2.84548 0
M  V30 8947 H 870.152 -0.924461 -2.38511 0
M  V30 8948 H 869.796 -1.57727 -4.82788 0
M  V30 8949 H 869.726 0.148646 -5.2639 0
M  V30 8950 H 872.217 -0.297359 -3.76728 0
M  V30 8951 H 872.53 -1.22945 -7.62958 0
M  V30 8952 H 870.875 -1.09881 -6.86259 0
M  V30 8953 H 874.066 -0.452268 -4.6591 0
M  V30 8954 H 874.239 -0.877081 -6.42037 0
M  V30 8955 N 867.645 1.57599 0.00500368 0
M  V30 8956 C 868.592 2.08106 0.998025 0
M  V30 8957 C 869.562 0.975374 1.34446 0
M  V30 8958 O 870.747 1.24749 1.44369 0
M  V30 8959 C 867.887 2.58496 2.28635 0
M  V30 8960 C 867 3.82947 1.99939 0
M  V30 8961 C 866.135 4.21857 3.22816 0
M  V30 8962 C 865.174 5.39159 2.89783 0
M  V30 8963 N 864.311 5.73386 4.05183 0
M  V30 8964 H 869.151 2.92684 0.560385 0
M  V30 8965 H 866.688 1.44692 0.265053 0
M  V30 8966 H 868.646 2.85787 3.03943 0
M  V30 8967 H 867.276 1.768 2.70077 0
M  V30 8968 H 866.328 3.62594 1.1502 0
M  V30 8969 H 867.64 4.68358 1.71588 0
M  V30 8970 H 866.794 4.50404 4.06474 0
M  V30 8971 H 865.533 3.35145 3.54301 0
M  V30 8972 H 864.538 5.1034 2.04532 0
M  V30 8973 H 865.763 6.27543 2.59551 0
M  V30 8974 H 863.709 4.89632 4.36574 0
M  V30 8975 H 863.626 6.53359 3.80339 0
M  V30 8976 H 864.894 6.06522 4.89644 0
M  V30 8977 N 869.123 -0.277682 1.55134 0
M  V30 8978 C 870.086 -1.32635 1.86924 0
M  V30 8979 C 871.086 -1.42578 0.743507 0
M  V30 8980 O 872.276 -1.4181 1.01171 0
M  V30 8981 C 869.408 -2.70832 2.07034 0
M  V30 8982 H 870.601 -1.0568 2.80663 0
M  V30 8983 H 868.154 -0.515517 1.47554 0
M  V30 8984 H 868.889 -3.02974 1.15661 0
M  V30 8985 H 868.674 -2.65001 2.88993 0
M  V30 8986 H 870.164 -3.46611 2.32918 0
M  V30 8987 N 870.601 -1.47988 -0.541979 0
M  V30 8988 C 871.85 -1.5465 -1.29485 0
M  V30 8989 C 872.163 -0.220041 -1.94358 0
M  V30 8990 O 873.369 -0.164792 -2.70999 0
M  V30 8991 C 871.825 -2.72685 -2.34885 0
M  V30 8992 C 871.433 -4.11923 -1.76134 0
M  V30 8993 C 873.177 -2.88651 -3.11257 0
M  V30 8994 C 871.084 -5.21237 -2.79404 0
M  V30 8995 H 870.014 -0.575688 -0.486928 0
M  V30 8996 H 872.665 -1.74296 -0.573853 0
M  V30 8997 H 871.047 -2.46448 -3.09966 0
M  V30 8998 H 872.221 -4.48128 -1.07322 0
M  V30 8999 H 870.536 -4.00972 -1.12295 0
M  V30 9000 H 873.133 -3.67487 -3.88404 0
M  V30 9001 H 873.476 -1.97658 -3.66384 0
M  V30 9002 H 874.009 -3.14731 -2.43288 0
M  V30 9003 H 870.748 -6.14156 -2.29113 0
M  V30 9004 H 870.268 -4.89533 -3.4658 0
M  V30 9005 H 871.947 -5.48839 -3.42615 0
M  V30 9006 N 872.079 0.78992 -1.36375 0
M  V30 9007 C 873.356 1.53584 -1.21126 0
M  V30 9008 C 873.736 2.10124 0.202785 0
M  V30 9009 O 873.084 1.93936 1.20835 0
M  V30 9010 C 873.294 2.63117 -2.29282 0
M  V30 9011 C 874.642 3.31013 -2.65924 0
M  V30 9012 O 875.666 2.734 -2.28321 0
M  V30 9013 O 874.525 4.35129 -3.30643 0
M  V30 9014 H 871.619 0.679366 -0.471583 0
M  V30 9015 H 874.165 0.828446 -1.48104 0
M  V30 9016 H 872.937 2.19329 -3.24053 0
M  V30 9017 H 872.56 3.41476 -2.03666 0
M  V30 9018 N 873.557 1.20646 1.01402 0
M  V30 9019 C 874.804 1.01819 1.7504 0
M  V30 9020 C 875.132 -0.449386 1.89237 0
M  V30 9021 O 874.387 -1.34985 1.41695 0
M  V30 9022 C 874.686 1.64991 3.17037 0
M  V30 9023 C 874.352 3.14808 3.22811 0
M  V30 9024 C 873.014 3.55692 3.24094 0
M  V30 9025 C 875.366 4.108 3.2077 0
M  V30 9026 C 872.694 4.9109 3.2101 0
M  V30 9027 C 875.046 5.46147 3.19227 0
M  V30 9028 C 873.71 5.86441 3.18815 0
M  V30 9029 H 872.98 0.372582 0.640518 0
M  V30 9030 H 875.627 1.50108 1.18911 0
M  V30 9031 H 873.932 1.08971 3.76341 0
M  V30 9032 H 875.629 1.47937 3.72714 0
M  V30 9033 H 872.219 2.8224 3.2255 0
M  V30 9034 H 876.403 3.80246 3.18946 0
M  V30 9035 H 871.659 5.21569 3.19023 0
M  V30 9036 H 875.833 6.20272 3.166 0
M  V30 9037 H 873.46 6.91328 3.16179 0
M  V30 9038 N 875.035 -1.20752 1.01276 0
M  V30 9039 C 875.965 -2.25658 0.600064 0
M  V30 9040 C 876.946 -1.65733 -0.38298 0
M  V30 9041 O 878.131 -1.92324 -0.269256 0
M  V30 9042 C 875.261 -3.47237 -0.0663197 0
M  V30 9043 C 874.215 -4.1973 0.83731 0
M  V30 9044 C 873.541 -5.34687 0.0369102 0
M  V30 9045 C 874.841 -4.76286 2.14357 0
M  V30 9046 H 876.535 -2.60432 1.477 0
M  V30 9047 H 874.081 -1.25187 0.711634 0
M  V30 9048 H 876.034 -4.19803 -0.366563 0
M  V30 9049 H 874.758 -3.11615 -0.977944 0
M  V30 9050 H 873.417 -3.49024 1.1215 0
M  V30 9051 H 873.065 -4.95309 -0.876244 0
M  V30 9052 H 872.765 -5.84119 0.63865 0
M  V30 9053 H 874.289 -6.10059 -0.256968 0
M  V30 9054 H 875.703 -5.40691 1.90595 0
M  V30 9055 H 874.1 -5.36139 2.69583 0
M  V30 9056 H 875.17 -3.9524 2.80916 0
M  V30 9057 N 876.513 -0.788492 -1.36457 0
M  V30 9058 C 877.443 -0.200468 -2.32638 0
M  V30 9059 C 878.424 0.664031 -1.56603 0
M  V30 9060 O 879.609 0.598045 -1.84762 0
M  V30 9061 C 876.739 0.666274 -3.40849 0
M  V30 9062 C 875.693 -0.0982574 -4.27887 0
M  V30 9063 C 875.019 0.889018 -5.27258 0
M  V30 9064 C 876.319 -1.28692 -5.06197 0
M  V30 9065 H 878.013 -1.00399 -2.82065 0
M  V30 9066 H 875.559 -0.484237 -1.35614 0
M  V30 9067 H 877.512 1.08757 -4.07124 0
M  V30 9068 H 876.236 1.50249 -2.89987 0
M  V30 9069 H 874.895 -0.500525 -3.63167 0
M  V30 9070 H 874.543 1.72024 -4.7267 0
M  V30 9071 H 874.243 0.381909 -5.86358 0
M  V30 9072 H 875.767 1.30891 -5.96406 0
M  V30 9073 H 877.181 -0.941429 -5.65517 0
M  V30 9074 H 875.578 -1.72726 -5.74705 0
M  V30 9075 H 876.648 -2.08273 -4.37893 0
M  V30 9076 N 877.991 1.48044 -0.54043 0
M  V30 9077 C 878.923 2.2779 0.253854 0
M  V30 9078 C 879.936 1.35999 0.894883 0
M  V30 9079 O 881.125 1.60963 0.771563 0
M  V30 9080 C 878.225 3.09724 1.37566 0
M  V30 9081 C 877.398 4.29364 0.83459 0
M  V30 9082 C 876.457 4.93026 1.83881 0
M  V30 9083 O 875.483 5.51927 1.39159 0
M  V30 9084 N 876.685 4.86207 3.17149 0
M  V30 9085 H 879.45 2.96597 -0.430125 0
M  V30 9086 H 877.011 1.57487 -0.375423 0
M  V30 9087 H 879.003 3.49181 2.04584 0
M  V30 9088 H 877.573 2.43269 1.96314 0
M  V30 9089 H 876.793 3.94198 -0.0118878 0
M  V30 9090 H 878.081 5.06787 0.452155 0
M  V30 9091 H 877.479 4.39523 3.56141 0
M  V30 9092 H 876.036 5.29733 3.79771 0
M  V30 9093 N 879.47 0.276058 1.55163 0
M  V30 9094 C 880.886 -0.0780579 1.59409 0
M  V30 9095 C 881.086 -1.54521 1.29327 0
M  V30 9096 O 880.142 -2.29422 1.05459 0
M  V30 9097 C 881.455 0.297422 2.99225 0
M  V30 9098 C 883.003 0.244117 3.12047 0
M  V30 9099 C 883.478 0.594051 4.54131 0
M  V30 9100 N 884.969 0.54564 4.59975 0
M  V30 9101 C 885.704 0.789192 5.67943 0
M  V30 9102 N 885.2 1.09741 6.84053 0
M  V30 9103 N 886.993 0.717926 5.57496 0
M  V30 9104 H 879.144 1.23251 1.72982 0
M  V30 9105 H 881.407 0.497988 0.806667 0
M  V30 9106 H 881.113 1.31782 3.26077 0
M  V30 9107 H 880.987 -0.361286 3.75466 0
M  V30 9108 H 883.374 -0.766992 2.84958 0
M  V30 9109 H 883.455 0.937097 2.38017 0
M  V30 9110 H 883.099 1.60285 4.81945 0
M  V30 9111 H 883.029 -0.120728 5.26462 0
M  V30 9112 H 885.52 0.317334 3.76565 0
M  V30 9113 H 885.833 1.26989 7.62295 0
M  V30 9114 H 884.178 1.13519 6.85666 0
M  V30 9115 H 887.369 0.47697 4.65664 0
M  V30 9116 H 887.542 0.911118 6.41563 0
M  V30 9117 N 880.948 -1.576 0.00335426 0
M  V30 9118 C 882.194 -1.91833 -0.676149 0
M  V30 9119 C 882.549 -0.878079 -1.71194 0
M  V30 9120 O 881.842 0.109297 -1.91288 0
M  V30 9121 C 882.036 -3.3058 -1.35837 0
M  V30 9122 C 881.865 -4.48004 -0.390171 0
M  V30 9123 C 880.635 -5.053 0.000648493 0
M  V30 9124 C 882.833 -5.13142 0.344982 0
M  V30 9125 N 880.815 -6.06241 0.966709 0
M  V30 9126 C 882.186 -6.08944 1.16562 0
M  V30 9127 C 884.241 -4.96222 0.408457 0
M  V30 9128 C 882.944 -6.89649 2.04395 0
M  V30 9129 C 884.97 -5.77514 1.27403 0
M  V30 9130 C 884.332 -6.72912 2.08251 0
M  V30 9131 H 880.431 -0.750263 -0.220519 0
M  V30 9132 H 883.015 -1.94593 0.0644891 0
M  V30 9133 H 881.186 -3.28687 -2.06928 0
M  V30 9134 H 882.918 -3.52233 -1.99284 0
M  V30 9135 H 879.673 -4.72165 -0.368428 0
M  V30 9136 H 880.097 -6.61394 1.44521 0
M  V30 9137 H 884.739 -4.22316 -0.202324 0
M  V30 9138 H 882.457 -7.62878 2.66539 0
M  V30 9139 H 886.043 -5.66462 1.3271 0
M  V30 9140 H 884.923 -7.34721 2.74145 0
M  V30 9141 N 882.426 0.269451 -1.5528 0
M  V30 9142 C 883.674 0.998604 -1.75705 0
M  V30 9143 C 883.995 1.86691 -0.563175 0
M  V30 9144 O 883.265 1.91305 0.421811 0
M  V30 9145 H 881.845 0.371698 -0.647958 0
M  V30 9146 H 884.507 0.292826 -1.92688 0
M  V30 9147 H 883.603 1.63348 -2.6594 0
M  V30 9148 N 883.904 1.48273 0.534124 0
M  V30 9149 C 885.152 1.55771 1.28762 0
M  V30 9150 C 885.473 0.231575 1.9362 0
M  V30 9151 O 884.743 -0.746533 1.81118 0
M  V30 9152 H 883.323 0.573851 0.47823 0
M  V30 9153 H 885.985 1.84712 0.621888 0
M  V30 9154 H 885.081 2.33657 2.06908 0
M  V30 9155 N 885.382 -0.782676 1.36792 0
M  V30 9156 C 886.61 -1.57162 1.34565 0
M  V30 9157 C 887.025 -1.88664 -0.0715501 0
M  V30 9158 O 886.382 -1.50633 -1.03033 0
M  V30 9159 C 886.433 -2.88854 2.1736 0
M  V30 9160 O 886.154 -2.58707 3.53557 0
M  V30 9161 C 887.655 -3.83132 2.2299 0
M  V30 9162 H 884.875 -0.487245 0.461338 0
M  V30 9163 H 887.419 -0.970905 1.79982 0
M  V30 9164 H 885.574 -3.45377 1.7548 0
M  V30 9165 H 885.988 -3.42961 3.96835 0
M  V30 9166 H 887.462 -4.72575 2.85266 0
M  V30 9167 H 887.939 -4.21472 1.23524 0
M  V30 9168 H 888.545 -3.32541 2.65135 0
M  V30 9169 N 886.86 -1.21182 -1.00761 0
M  V30 9170 C 888.1 -1.03886 -1.76031 0
M  V30 9171 C 888.464 0.420593 -1.87337 0
M  V30 9172 O 889.665 0.713994 -2.59144 0
M  V30 9173 C 887.936 -1.71394 -3.13622 0
M  V30 9174 S 889.495 -1.69319 -4.04816 0
M  V30 9175 H 886.313 -0.372327 -0.605717 0
M  V30 9176 H 888.915 -1.53885 -1.20581 0
M  V30 9177 H 887.619 -2.76773 -3.03026 0
M  V30 9178 H 887.15 -1.21564 -3.74147 0
M  V30 9179 H 889.165 -0.732434 -4.90765 0
M  V30 9180 N 888.338 1.20213 -1.01915 0
M  V30 9181 C 889.288 2.20957 -0.562327 0
M  V30 9182 C 890.272 1.56258 0.383704 0
M  V30 9183 O 891.464 1.75794 0.206255 0
M  V30 9184 C 888.593 3.43167 0.0954035 0
M  V30 9185 C 887.679 4.15028 -0.872487 0
M  V30 9186 N 888.07 4.63231 -2.03103 0
M  V30 9187 C 886.368 4.4057 -0.69385 0
M  V30 9188 C 887.069 5.18307 -2.64069 0
M  V30 9189 N 886.045 5.08522 -1.9211 0
M  V30 9190 H 889.847 2.55894 -1.44553 0
M  V30 9191 H 887.361 1.36178 -0.884831 0
M  V30 9192 H 889.358 4.14569 0.440232 0
M  V30 9193 H 888.018 3.09734 0.974413 0
M  V30 9194 H 889.029 4.58365 -2.41086 0
M  V30 9195 H 885.706 4.17276 0.136889 0
M  V30 9196 H 887.096 5.65961 -3.6213 0
M  V30 9197 N 889.816 0.795718 1.36037 0
M  V30 9198 C 891.065 0.367575 1.98322 0
M  V30 9199 C 891.378 -1.06823 1.63854 0
M  V30 9200 O 892.584 -1.59895 2.19421 0
M  V30 9201 C 891.04 0.606272 3.54757 0
M  V30 9202 C 890.648 2.0539 3.98144 0
M  V30 9203 C 892.392 0.242947 4.23804 0
M  V30 9204 C 890.299 2.23893 5.47381 0
M  V30 9205 H 889.229 0.133699 0.742052 0
M  V30 9206 H 891.88 0.978242 1.5525 0
M  V30 9207 H 890.262 -0.0741957 3.9593 0
M  V30 9208 H 891.436 2.77129 3.68152 0
M  V30 9209 H 889.751 2.37607 3.41953 0
M  V30 9210 H 892.348 0.359382 5.33491 0
M  V30 9211 H 892.691 -0.809661 4.08351 0
M  V30 9212 H 893.224 0.876899 3.88015 0
M  V30 9213 H 889.963 3.27559 5.6779 0
M  V30 9214 H 889.483 1.56666 5.78978 0
M  V30 9215 H 891.162 2.04914 6.13693 0
M  V30 9216 N 891.294 -1.47756 0.548274 0
M  V30 9217 C 892.224 -2.32702 -0.19284 0
M  V30 9218 C 893.205 -1.43237 -0.917457 0
M  V30 9219 O 894.39 -1.72103 -0.89967 0
M  V30 9220 C 891.52 -3.24831 -1.22891 0
M  V30 9221 C 890.474 -4.23466 -0.621312 0
M  V30 9222 C 889.8 -5.04856 -1.76137 0
M  V30 9223 C 891.1 -5.20616 0.419055 0
M  V30 9224 H 892.794 -2.94914 0.516323 0
M  V30 9225 H 890.34 -1.41818 0.24975 0
M  V30 9226 H 892.293 -3.83094 -1.75547 0
M  V30 9227 H 891.017 -2.60656 -1.9679 0
M  V30 9228 H 889.676 -3.66416 -0.116123 0
M  V30 9229 H 889.324 -4.37091 -2.48918 0
M  V30 9230 H 889.024 -5.71629 -1.36065 0
M  V30 9231 H 890.548 -5.65976 -2.29136 0
M  V30 9232 H 891.962 -5.73296 -0.0211034 0
M  V30 9233 H 890.359 -5.95543 0.738163 0
M  V30 9234 H 891.429 -4.66638 1.31822 0
M  V30 9235 N 892.772 -0.284283 -1.55015 0
M  V30 9236 C 894.02 0.329212 -1.99401 0
M  V30 9237 C 894.341 1.55687 -1.17416 0
M  V30 9238 O 893.611 1.94087 -0.265937 0
M  V30 9239 H 892.191 0.12463 -0.73653 0
M  V30 9240 H 894.853 -0.391743 -1.90922 0
M  V30 9241 H 893.949 0.61278 -3.06025 0
M  V30 9242 N 894.251 1.57596 -0.0117121 0
M  V30 9243 C 895.662 1.79033 0.529521 0
M  V30 9244 C 896.013 0.920299 1.73277 0
M  V30 9245 O 895.138 0.125934 2.16033 0
M  V30 9246 C 895.733 3.24695 0.967405 0
M  V30 9247 C 894.292 3.47188 1.45387 0
M  V30 9248 C 893.439 2.74245 0.410466 0
M  V30 9249 H 896.39 1.56908 -0.237836 0
M  V30 9250 H 896.411 3.33451 1.83278 0
M  V30 9251 H 895.923 3.87992 0.0914605 0
M  V30 9252 H 894.024 2.89121 2.35032 0
M  V30 9253 H 894.137 4.55886 1.47325 0
M  V30 9254 H 892.501 2.39209 0.874721 0
M  V30 9255 H 893.284 3.40248 -0.456713 0
M  V30 9256 N 895.729 -0.261212 1.5542 0
M  V30 9257 C 897.006 -1.01321 1.67312 0
M  V30 9258 C 897.386 -2.0388 0.547356 0
M  V30 9259 O 896.734 -2.24003 -0.451083 0
M  V30 9260 C 896.944 -1.65943 3.07024 0
M  V30 9261 C 898.292 -2.16666 3.65159 0
M  V30 9262 O 899.316 -1.75909 3.09733 0
M  V30 9263 O 898.175 -2.91455 4.62294 0
M  V30 9264 H 895.269 -0.470714 0.679968 0
M  V30 9265 H 897.815 -0.256133 1.67756 0
M  V30 9266 H 896.587 -0.916868 3.80407 0
M  V30 9267 H 896.21 -2.48308 3.1053 0
M  V30 9268 N 897.207 -1.48554 -0.526253 0
M  V30 9269 C 898.447 -1.58362 -1.29232 0
M  V30 9270 C 898.811 -0.253353 -1.90321 0
M  V30 9271 O 900.012 -0.226439 -2.67845 0
M  V30 9272 C 898.283 -2.69294 -2.3498 0
M  V30 9273 S 899.842 -2.98891 -3.21262 0
M  V30 9274 H 896.66 -0.558859 -0.439543 0
M  V30 9275 H 899.262 -1.86094 -0.599099 0
M  V30 9276 H 897.966 -3.64504 -1.88587 0
M  V30 9277 H 897.497 -2.43475 -3.09004 0
M  V30 9278 H 899.512 -2.38475 -4.35137 0
M  V30 9279 N 898.685 0.775411 -1.37205 0
M  V30 9280 C 899.925 1.54689 -1.33606 0
M  V30 9281 C 900.289 1.91834 0.0798549 0
M  V30 9282 O 901.49 2.67722 0.240531 0
M  V30 9283 C 899.761 2.7804 -2.24563 0
M  V30 9284 S 901.32 3.68143 -2.38781 0
M  V30 9285 H 898.138 0.529631 -0.474355 0
M  V30 9286 H 900.74 0.912128 -1.72918 0
M  V30 9287 H 899.444 2.48825 -3.26365 0
M  V30 9288 H 898.975 3.46479 -1.86322 0
M  V30 9289 H 900.99 4.69843 -1.59568 0
M  V30 9290 N 900.163 1.21714 1.00117 0
M  V30 9291 C 901.412 1.03087 1.73367 0
M  V30 9292 C 901.725 -0.435532 1.90689 0
M  V30 9293 O 902.931 -0.741291 2.61184 0
M  V30 9294 C 901.387 1.79593 3.11888 0
M  V30 9295 C 900.995 3.30428 3.02525 0
M  V30 9296 C 902.739 1.69386 3.89241 0
M  V30 9297 C 900.646 3.99408 4.3615 0
M  V30 9298 H 899.576 0.382117 0.650002 0
M  V30 9299 H 902.227 1.45486 1.11831 0
M  V30 9300 H 900.609 1.29988 3.74058 0
M  V30 9301 H 901.783 3.87364 2.49571 0
M  V30 9302 H 900.098 3.4122 2.38659 0
M  V30 9303 H 902.695 2.18251 4.8813 0
M  V30 9304 H 903.038 0.652773 4.1115 0
M  V30 9305 H 903.571 2.16489 3.33733 0
M  V30 9306 H 900.31 5.03735 4.19442 0
M  V30 9307 H 899.83 3.47261 4.8905 0
M  V30 9308 H 901.509 4.04537 5.04934 0
M  V30 9309 N 901.641 -1.19671 1.02551 0
M  V30 9310 C 902.551 -2.26441 0.613329 0
M  V30 9311 C 903.567 -1.70375 -0.353339 0
M  V30 9312 O 904.743 -2.0028 -0.212064 0
M  V30 9313 C 901.808 -3.46684 -0.0329028 0
M  V30 9314 C 900.869 -4.17945 0.980837 0
M  V30 9315 C 900.102 -5.32448 0.36535 0
M  V30 9316 O 900.325 -5.64291 -0.832596 0
M  V30 9317 O 899.259 -5.92012 1.08652 0
M  V30 9318 H 903.085 -2.63932 1.50246 0
M  V30 9319 H 900.67 -1.2646 0.795502 0
M  V30 9320 H 902.552 -4.1956 -0.393395 0
M  V30 9321 H 901.227 -3.1105 -0.896089 0
M  V30 9322 H 900.134 -3.47204 1.39286 0
M  V30 9323 H 901.467 -4.57542 1.81428 0
M  V30 9324 N 903.119 -0.802921 -1.35613 0
M  V30 9325 C 904.53 -0.443004 -1.81368 0
M  V30 9326 C 904.881 1.03459 -1.66706 0
M  V30 9327 O 904.006 1.80372 -1.19561 0
M  V30 9328 C 904.601 -0.797324 -3.29284 0
M  V30 9329 C 903.16 -0.490055 -3.73196 0
M  V30 9330 C 902.307 -1.02487 -2.57666 0
M  V30 9331 H 905.258 -0.994888 -1.23643 0
M  V30 9332 H 905.279 -0.0934638 -3.80385 0
M  V30 9333 H 904.791 -1.87278 -3.39924 0
M  V30 9334 H 902.892 0.576818 -3.68108 0
M  V30 9335 H 903.005 -1.02012 -4.68114 0
M  V30 9336 H 901.369 -0.44738 -2.5074 0
M  V30 9337 H 902.152 -2.10636 -2.71085 0
M  V30 9338 N 904.597 1.47463 -0.556102 0
M  V30 9339 C 905.547 2.27007 0.212592 0
M  V30 9340 C 906.531 1.34288 0.886312 0
M  V30 9341 O 907.723 1.5865 0.784801 0
M  V30 9342 C 904.852 3.20021 1.24263 0
M  V30 9343 C 903.938 4.2022 0.572385 0
M  V30 9344 N 904.329 5.04539 -0.35691 0
M  V30 9345 C 902.627 4.38276 0.826441 0
M  V30 9346 C 903.328 5.76895 -0.746134 0
M  V30 9347 N 902.304 5.43506 -0.101225 0
M  V30 9348 H 906.106 2.89582 -0.501925 0
M  V30 9349 H 903.62 1.57988 -0.375961 0
M  V30 9350 H 905.617 3.7569 1.80728 0
M  V30 9351 H 904.277 2.59003 1.95826 0
M  V30 9352 H 905.288 5.12715 -0.731012 0
M  V30 9353 H 901.965 3.88429 1.53066 0
M  V30 9354 H 903.355 6.5472 -1.50967 0
M  V30 9355 N 906.075 0.2925 1.54862 0
M  V30 9356 C 907.352 -0.371946 1.92031 0
M  V30 9357 C 907.732 -1.72363 1.21878 0
M  V30 9358 O 907.08 -2.25779 0.351573 0
M  V30 9359 C 907.29 -0.495027 3.45471 0
M  V30 9360 C 908.638 -0.769855 4.17562 0
M  V30 9361 O 909.662 -0.579168 3.5146 0
M  V30 9362 O 908.521 -1.13561 5.34571 0
M  V30 9363 H 905.615 -0.206463 0.800813 0
M  V30 9364 H 908.161 0.339933 1.6626 0
M  V30 9365 H 906.933 0.455528 3.88639 0
M  V30 9366 H 906.556 -1.2557 3.7725 0
M  V30 9367 N 907.553 -1.57587 0.0200696 0
M  V30 9368 C 908.799 -1.92539 -0.655764 0
M  V30 9369 C 909.154 -0.896187 -1.70253 0
M  V30 9370 O 908.447 0.0890022 -1.91393 0
M  V30 9371 C 908.641 -3.32002 -1.32323 0
M  V30 9372 C 908.47 -4.48393 -0.342632 0
M  V30 9373 C 907.24 -5.05271 0.0542423 0
M  V30 9374 C 909.438 -5.12747 0.399388 0
M  V30 9375 N 907.42 -6.05181 1.03095 0
M  V30 9376 C 908.791 -6.07674 1.23014 0
M  V30 9377 C 910.846 -4.95761 0.461065 0
M  V30 9378 C 909.549 -6.87442 2.11698 0
M  V30 9379 C 911.575 -5.7613 1.33521 0
M  V30 9380 C 910.937 -6.70666 2.15376 0
M  V30 9381 H 907.036 -0.75256 -0.212549 0
M  V30 9382 H 909.62 -1.94514 0.0851247 0
M  V30 9383 H 907.791 -3.30863 -2.0343 0
M  V30 9384 H 909.523 -3.54327 -1.95537 0
M  V30 9385 H 906.278 -4.72529 -0.318327 0
M  V30 9386 H 906.702 -6.59824 1.51528 0
M  V30 9387 H 911.344 -4.22506 -0.15752 0
M  V30 9388 H 909.062 -7.60008 2.74616 0
M  V30 9389 H 912.648 -5.65023 1.38711 0
M  V30 9390 H 911.528 -7.31772 2.81922 0
M  V30 9391 N 909.032 0.252966 -1.55557 0
M  V30 9392 C 910.26 0.999565 -1.81153 0
M  V30 9393 C 910.675 1.79181 -0.594955 0
M  V30 9394 O 910.032 1.77208 0.436311 0
M  V30 9395 C 910.083 1.94227 -3.04891 0
M  V30 9396 O 909.804 1.18209 -4.21851 0
M  V30 9397 C 911.305 2.80536 -3.43241 0
M  V30 9398 H 908.525 0.294402 -0.602966 0
M  V30 9399 H 911.069 0.277686 -2.02606 0
M  V30 9400 H 909.224 2.6185 -2.85505 0
M  V30 9401 H 909.638 1.81922 -4.9194 0
M  V30 9402 H 911.112 3.42442 -4.32941 0
M  V30 9403 H 911.589 3.51337 -2.6355 0
M  V30 9404 H 912.195 2.18373 -3.64956 0
M  V30 9405 N 910.51 1.48831 0.518367 0
M  V30 9406 C 911.457 1.64216 1.62178 0
M  V30 9407 C 912.427 0.483942 1.58894 0
M  V30 9408 O 913.612 0.708857 1.77144 0
M  V30 9409 C 910.752 1.69867 3.00399 0
M  V30 9410 C 909.865 2.96875 3.1383 0
M  V30 9411 C 909 2.93613 4.42679 0
M  V30 9412 C 908.039 4.15276 4.4968 0
M  V30 9413 N 907.176 4.10024 5.69934 0
M  V30 9414 H 912.016 2.58439 1.48368 0
M  V30 9415 H 909.553 1.28154 0.722152 0
M  V30 9416 H 911.511 1.71124 3.8049 0
M  V30 9417 H 910.141 0.791249 3.12952 0
M  V30 9418 H 909.193 3.0531 2.26914 0
M  V30 9419 H 910.505 3.86863 3.14863 0
M  V30 9420 H 909.659 2.93337 5.31073 0
M  V30 9421 H 908.398 2.01375 4.44184 0
M  V30 9422 H 907.403 4.15816 3.59691 0
M  V30 9423 H 908.628 5.08687 4.49904 0
M  V30 9424 H 906.574 3.20613 5.72314 0
M  V30 9425 H 906.491 4.93728 5.72511 0
M  V30 9426 H 907.759 4.13824 6.60583 0
M  V30 9427 N 911.988 -0.768124 1.37614 0
M  V30 9428 C 912.936 -1.9029 1.33763 0
M  V30 9429 C 913.93 -1.67888 0.225814 0
M  V30 9430 O 915.136 -1.75634 0.394043 0
M  V30 9431 H 911.511 -0.625828 0.416945 0
M  V30 9432 H 913.482 -1.90654 2.29551 0
M  V30 9433 C 912.231 -3.27598 1.16511 0
M  V30 9434 H 911.554 -3.45414 2.01318 0
M  V30 9435 H 912.994 -4.07288 1.17867 0
M  V30 9436 C 911.453 -3.36653 -0.129001 0
M  V30 9437 O 911.983 -3.86023 -1.11128 0
M  V30 9438 N 910.189 -2.90036 -0.180926 0
M  V30 9439 H 909.736 -2.5005 0.619076 0
M  V30 9440 H 909.694 -2.96475 -1.04641 0
M  V30 9441 N 913.466 -1.22244 -0.994698 0
M  V30 9442 C 914.715 -1.04005 -1.72817 0
M  V30 9443 C 915.028 0.425413 -1.90918 0
M  V30 9444 O 916.234 0.727429 -2.61574 0
M  V30 9445 C 914.69 -1.81244 -3.10932 0
M  V30 9446 C 914.298 -3.32028 -3.00768 0
M  V30 9447 C 916.042 -1.71448 -3.88337 0
M  V30 9448 C 913.949 -4.01716 -4.34026 0
M  V30 9449 H 912.879 -0.385559 -0.647966 0
M  V30 9450 H 915.53 -1.46077 -1.11058 0
M  V30 9451 H 913.912 -1.3197 -3.73363 0
M  V30 9452 H 915.086 -3.88682 -2.47513 0
M  V30 9453 H 913.401 -3.4248 -2.36846 0
M  V30 9454 H 915.998 -2.20836 -4.86965 0
M  V30 9455 H 916.341 -0.674568 -4.10798 0
M  V30 9456 H 916.874 -2.18256 -3.3258 0
M  V30 9457 H 913.613 -5.05952 -4.16765 0
M  V30 9458 H 913.133 -3.49849 -4.87202 0
M  V30 9459 H 914.812 -4.0721 -5.02782 0
M  V30 9460 N 914.944 1.19125 -1.03184 0
M  V30 9461 C 916.172 1.92838 -0.74975 0
M  V30 9462 C 916.587 1.75667 0.691851 0
M  V30 9463 O 915.944 1.0805 1.47076 0
M  V30 9464 C 915.995 3.44509 -1.09525 0
M  V30 9465 O 915.716 3.6113 -2.48025 0
M  V30 9466 C 917.217 4.35338 -0.836397 0
M  V30 9467 H 914.437 0.61246 -0.274105 0
M  V30 9468 H 916.981 1.5118 -1.37712 0
M  V30 9469 H 915.136 3.83988 -0.513006 0
M  V30 9470 H 915.55 4.54959 -2.60984 0
M  V30 9471 H 917.024 5.4035 -1.12808 0
M  V30 9472 H 917.501 4.38602 0.229102 0
M  V30 9473 H 918.107 4.01544 -1.40152 0
M  V30 9474 N 916.422 0.810101 1.35185 0
M  V30 9475 C 917.699 0.315235 1.93043 0
M  V30 9476 C 918.079 -1.19567 1.73974 0
M  V30 9477 O 917.427 -1.99682 1.11083 0
M  V30 9478 C 917.637 0.730492 3.41269 0
M  V30 9479 C 918.985 0.721985 4.18417 0
M  V30 9480 O 920.009 0.672258 3.49799 0
M  V30 9481 O 918.868 0.783535 5.40854 0
M  V30 9482 H 915.962 0.0832774 0.822796 0
M  V30 9483 H 918.508 0.894034 1.4424 0
M  V30 9484 H 917.28 1.77169 3.48894 0
M  V30 9485 H 916.903 0.12669 3.97398 0
M  V30 9486 N 917.9 -1.47166 0.563914 0
M  V30 9487 C 918.847 -2.30097 -0.180013 0
M  V30 9488 C 919.817 -1.39473 -0.902019 0
M  V30 9489 O 921.002 -1.68432 -0.896396 0
M  V30 9490 C 918.142 -3.23573 -1.19978 0
M  V30 9491 C 917.255 -4.2929 -0.483149 0
M  V30 9492 C 916.39 -5.0991 -1.48879 0
M  V30 9493 C 915.429 -6.07395 -0.757513 0
M  V30 9494 N 914.566 -6.8095 -1.71031 0
M  V30 9495 H 919.406 -2.93189 0.53329 0
M  V30 9496 H 916.943 -1.4451 0.274814 0
M  V30 9497 H 918.901 -3.76196 -1.80368 0
M  V30 9498 H 917.531 -2.6233 -1.88103 0
M  V30 9499 H 916.583 -3.79671 0.235414 0
M  V30 9500 H 917.895 -4.9872 0.0894075 0
M  V30 9501 H 917.049 -5.66717 -2.16603 0
M  V30 9502 H 915.788 -4.40397 -2.09527 0
M  V30 9503 H 914.793 -5.4976 -0.0663841 0
M  V30 9504 H 916.018 -6.78919 -0.156685 0
M  V30 9505 H 913.964 -6.14162 -2.30524 0
M  V30 9506 H 913.881 -7.46574 -1.19007 0
M  V30 9507 H 915.149 -7.42326 -2.37849 0
M  V30 9508 N 919.378 -0.300708 -1.54705 0
M  V30 9509 C 920.627 0.309428 -1.99312 0
M  V30 9510 C 920.94 1.55027 -1.19272 0
M  V30 9511 O 922.146 2.23498 -1.54146 0
M  V30 9512 C 920.602 0.601856 -3.54832 0
M  V30 9513 C 920.21 -0.620636 -4.4368 0
M  V30 9514 C 921.954 1.1732 -4.07966 0
M  V30 9515 C 919.861 -0.301376 -5.90632 0
M  V30 9516 H 918.791 0.119395 -0.744487 0
M  V30 9517 H 921.442 -0.409368 -1.78875 0
M  V30 9518 H 919.824 1.38024 -3.71168 0
M  V30 9519 H 920.998 -1.39685 -4.39118 0
M  V30 9520 H 919.313 -1.1106 -4.01316 0
M  V30 9521 H 921.91 1.42631 -5.15326 0
M  V30 9522 H 922.253 2.11537 -3.5855 0
M  V30 9523 H 922.786 0.456534 -3.95172 0
M  V30 9524 H 919.525 -1.21209 -6.44196 0
M  V30 9525 H 919.045 0.437574 -5.98202 0
M  V30 9526 H 920.724 0.097164 -6.46927 0
M  V30 9527 N 920.856 1.57574 -0.0284266 0
M  V30 9528 C 922.133 1.83064 0.688979 0
M  V30 9529 C 922.513 0.91219 1.90374 0
M  V30 9530 O 921.861 -0.0323672 2.28477 0
M  V30 9531 C 922.071 3.32262 1.06785 0
M  V30 9532 C 923.419 3.98717 1.45978 0
M  V30 9533 O 924.443 3.36753 1.16085 0
M  V30 9534 O 923.302 5.07927 2.01673 0
M  V30 9535 H 920.396 0.7548 0.337944 0
M  V30 9536 H 922.942 1.69607 -0.0560555 0
M  V30 9537 H 921.714 3.90772 0.203235 0
M  V30 9538 H 921.337 3.50823 1.87107 0
M  V30 9539 N 922.334 -0.244713 1.55689 0
M  V30 9540 C 923.266 -1.32595 1.86952 0
M  V30 9541 C 924.279 -1.44185 0.755948 0
M  V30 9542 O 925.468 -1.45496 1.03408 0
M  V30 9543 C 922.568 -2.70429 2.04258 0
M  V30 9544 C 921.741 -2.8108 3.35131 0
M  V30 9545 C 920.8 -3.99773 3.42152 0
M  V30 9546 O 919.826 -3.89197 4.15348 0
M  V30 9547 N 921.028 -5.13041 2.71604 0
M  V30 9548 H 923.793 -1.06111 2.80287 0
M  V30 9549 H 921.354 -0.434811 1.55952 0
M  V30 9550 H 923.346 -3.48173 2.06295 0
M  V30 9551 H 921.916 -2.89612 1.17658 0
M  V30 9552 H 921.136 -1.89994 3.45392 0
M  V30 9553 H 922.424 -2.85147 4.21389 0
M  V30 9554 H 921.822 -5.24525 2.11872 0
M  V30 9555 H 920.379 -5.88912 2.79331 0
M  V30 9556 N 923.813 -1.49104 -0.510467 0
M  V30 9557 C 925.062 -1.57362 -1.26175 0
M  V30 9558 C 925.375 -0.261218 -1.93848 0
M  V30 9559 O 926.581 -0.222238 -2.70589 0
M  V30 9560 C 925.037 -2.77606 -2.29048 0
M  V30 9561 C 924.645 -4.15567 -1.67357 0
M  V30 9562 C 926.389 -2.95188 -3.05064 0
M  V30 9563 C 924.296 -5.27046 -2.68285 0
M  V30 9564 H 923.226 -0.585887 -0.474608 0
M  V30 9565 H 925.877 -1.75474 -0.536753 0
M  V30 9566 H 924.259 -2.52968 -3.04669 0
M  V30 9567 H 925.433 -4.50304 -0.977924 0
M  V30 9568 H 923.748 -4.03264 -1.03765 0
M  V30 9569 H 926.345 -3.75643 -3.80521 0
M  V30 9570 H 926.688 -2.05385 -3.62108 0
M  V30 9571 H 927.221 -3.19821 -2.36558 0
M  V30 9572 H 923.96 -6.18878 -2.16034 0
M  V30 9573 H 923.48 -4.96774 -3.36118 0
M  V30 9574 H 925.159 -5.55983 -3.30896 0
M  V30 9575 N 925.291 0.760815 -1.38019 0
M  V30 9576 C 926.54 1.51506 -1.3315 0
M  V30 9577 C 926.853 1.95444 0.0782124 0
M  V30 9578 O 928.059 2.70352 0.249418 0
M  V30 9579 C 926.515 2.73636 -2.33776 0
M  V30 9580 C 926.123 2.36753 -3.80332 0
M  V30 9581 C 927.867 3.51548 -2.37937 0
M  V30 9582 C 925.774 3.55451 -4.72661 0
M  V30 9583 H 924.704 0.568844 -0.494907 0
M  V30 9584 H 927.355 0.832343 -1.63537 0
M  V30 9585 H 925.737 3.43852 -1.96422 0
M  V30 9586 H 926.911 1.7425 -4.26584 0
M  V30 9587 H 925.226 1.71991 -3.7922 0
M  V30 9588 H 927.823 4.39791 -3.04119 0
M  V30 9589 H 928.166 3.9219 -1.39617 0
M  V30 9590 H 928.699 2.88339 -2.74054 0
M  V30 9591 H 925.438 3.19882 -5.7215 0
M  V30 9592 H 924.958 4.17022 -4.31107 0
M  V30 9593 H 926.637 4.22125 -4.90326 0
M  V30 9594 N 926.769 1.22769 0.988202 0
M  V30 9595 C 927.719 0.969202 2.06375 0
M  V30 9596 C 928.703 -0.0819274 1.60691 0
M  V30 9597 O 929.895 0.129201 1.76528 0
M  V30 9598 C 927.024 0.553919 3.38802 0
M  V30 9599 C 926.11 1.64003 3.91106 0
M  V30 9600 N 926.501 2.86872 4.16579 0
M  V30 9601 C 924.799 1.5128 4.1956 0
M  V30 9602 C 925.5 3.57137 4.5916 0
M  V30 9603 N 924.476 2.84624 4.63131 0
M  V30 9604 H 928.278 1.90247 2.24017 0
M  V30 9605 H 925.792 1.12592 1.17033 0
M  V30 9606 H 927.789 0.350033 4.15428 0
M  V30 9607 H 926.449 -0.37239 3.22558 0
M  V30 9608 H 927.46 3.23254 4.04632 0
M  V30 9609 H 924.137 0.653032 4.12361 0
M  V30 9610 H 925.527 4.62428 4.87452 0
M  V30 9611 N 928.247 -1.18576 1.03814 0
M  V30 9612 C 929.524 -1.8433 0.654358 0
M  V30 9613 C 929.904 -1.92504 -0.866338 0
M  V30 9614 O 929.252 -1.44904 -1.76678 0
M  V30 9615 C 929.462 -3.22778 1.32723 0
M  V30 9616 C 930.81 -3.98841 1.45641 0
M  V30 9617 O 931.834 -3.32209 1.28514 0
M  V30 9618 O 930.693 -5.18219 1.73526 0
M  V30 9619 H 927.787 -0.794766 0.228638 0
M  V30 9620 H 930.333 -1.25989 1.13687 0
M  V30 9621 H 929.105 -3.11717 2.36534 0
M  V30 9622 H 928.728 -3.88772 0.833176 0
M  V30 9623 N 929.725 -0.817259 -1.34754 0
M  V30 9624 C 930.972 -0.402648 -1.98457 0
M  V30 9625 C 931.3 1.03287 -1.64809 0
M  V30 9626 O 930.555 1.73316 -0.908851 0
M  V30 9627 C 930.854 -0.5453 -3.53216 0
M  V30 9628 C 930.52 -1.9457 -4.06759 0
M  V30 9629 C 929.182 -2.32881 -4.21094 0
M  V30 9630 C 931.534 -2.86141 -4.35629 0
M  V30 9631 C 928.862 -3.62108 -4.61622 0
M  V30 9632 C 931.214 -4.14826 -4.776 0
M  V30 9633 C 929.878 -4.53121 -4.9014 0
M  V30 9634 H 929.148 -0.147339 -0.726204 0
M  V30 9635 H 931.795 -1.04011 -1.60791 0
M  V30 9636 H 930.1 0.175576 -3.91406 0
M  V30 9637 H 931.797 -0.205112 -4.00475 0
M  V30 9638 H 928.387 -1.6381 -3.96061 0
M  V30 9639 H 932.571 -2.57788 -4.24098 0
M  V30 9640 H 927.827 -3.91613 -4.69521 0
M  V30 9641 H 932.001 -4.85874 -4.98899 0
M  V30 9642 H 929.628 -5.53307 -5.21302 0
M  V30 9643 N 931.203 1.46865 -0.571711 0
M  V30 9644 C 932.449 2.0273 -0.0531858 0
M  V30 9645 C 932.782 1.44353 1.29907 0
M  V30 9646 O 932.057 0.604488 1.84868 0
M  V30 9647 C 932.34 3.60092 0.0243831 0
M  V30 9648 C 932.193 4.28874 -1.35599 0
M  V30 9649 C 933.512 4.33994 0.730563 0
M  V30 9650 H 930.631 0.736706 -0.0208018 0
M  V30 9651 H 933.273 1.75132 -0.736794 0
M  V30 9652 H 931.423 3.83736 0.606565 0
M  V30 9653 H 933.095 4.16527 -1.98249 0
M  V30 9654 H 931.338 3.88664 -1.92674 0
M  V30 9655 H 932.009 5.37561 -1.25429 0
M  V30 9656 H 934.485 4.1543 0.236098 0
M  V30 9657 H 933.361 5.43699 0.753836 0
M  V30 9658 H 933.622 4.04257 1.78967 0
M  V30 9659 N 932.681 0.308908 1.54543 0
M  V30 9660 C 933.958 -0.351558 1.92415 0
M  V30 9661 C 934.338 -1.71061 1.23699 0
M  V30 9662 O 933.686 -2.25394 0.3755 0
M  V30 9663 C 933.896 -0.458357 3.45977 0
M  V30 9664 C 935.244 -0.725524 4.18355 0
M  V30 9665 O 936.268 -0.541859 3.52054 0
M  V30 9666 O 935.127 -1.07884 5.35745 0
M  V30 9667 H 932.221 -0.197957 0.802958 0
M  V30 9668 H 934.767 0.357548 1.65891 0
M  V30 9669 H 933.539 0.496723 3.88134 0
M  V30 9670 H 933.162 -1.21562 3.78561 0
M  V30 9671 N 934.159 -1.57557 0.0367827 0
M  V30 9672 C 935.106 -2.10679 -0.942499 0
M  V30 9673 C 936.076 -1.01068 -1.31812 0
M  V30 9674 O 937.261 -1.28533 -1.41011 0
M  V30 9675 C 934.401 -2.64467 -2.21701 0
M  V30 9676 C 933.514 -3.88114 -1.89715 0
M  V30 9677 C 932.649 -4.30268 -3.11518 0
M  V30 9678 C 931.688 -5.46652 -2.75387 0
M  V30 9679 N 930.825 -5.83927 -3.89838 0
M  V30 9680 H 935.665 -2.94066 -0.482588 0
M  V30 9681 H 933.202 -1.45344 -0.226597 0
M  V30 9682 H 935.16 -2.93745 -2.96259 0
M  V30 9683 H 933.79 -1.83898 -2.65295 0
M  V30 9684 H 932.842 -3.65516 -1.05366 0
M  V30 9685 H 934.154 -4.72743 -1.5911 0
M  V30 9686 H 933.308 -4.61023 -3.94389 0
M  V30 9687 H 932.047 -3.44421 -3.4529 0
M  V30 9688 H 931.052 -5.15583 -1.90929 0
M  V30 9689 H 932.277 -6.34204 -2.42822 0
M  V30 9690 H 930.223 -5.01035 -4.23438 0
M  V30 9691 H 930.14 -6.63214 -3.62883 0
M  V30 9692 H 931.408 -6.19291 -4.73391 0
M  V30 9693 N 935.637 0.236453 -1.55816 0
M  V30 9694 C 936.865 0.980295 -1.82203 0
M  V30 9695 C 937.28 1.7854 -0.613926 0
M  V30 9696 O 936.637 1.77661 0.417491 0
M  V30 9697 C 936.688 1.90982 -3.06933 0
M  V30 9698 O 936.409 1.13728 -4.23081 0
M  V30 9699 C 937.91 2.76879 -3.46198 0
M  V30 9700 H 935.13 0.28799 -0.606055 0
M  V30 9701 H 937.674 0.256182 -2.02889 0
M  V30 9702 H 935.829 2.58808 -2.88266 0
M  V30 9703 H 936.243 1.76694 -4.93842 0
M  V30 9704 H 937.717 3.37831 -4.36548 0
M  V30 9705 H 938.194 3.48522 -2.67262 0
M  V30 9706 H 938.8 2.1449 -3.67252 0
M  V30 9707 N 937.115 1.49373 0.502552 0
M  V30 9708 C 938.045 1.68839 1.61294 0
M  V30 9709 C 939.026 0.537096 1.61398 0
M  V30 9710 O 940.211 0.772764 1.78163 0
M  V30 9711 C 937.341 1.75347 2.99784 0
M  V30 9712 C 936.295 2.90251 3.14545 0
M  V30 9713 C 935.621 2.8187 4.54371 0
M  V30 9714 C 936.921 4.31207 2.94717 0
M  V30 9715 H 938.615 2.61803 1.45257 0
M  V30 9716 H 936.161 1.25987 0.697371 0
M  V30 9717 H 938.114 1.87552 3.77362 0
M  V30 9718 H 936.838 0.789814 3.16906 0
M  V30 9719 H 935.497 2.77646 2.39392 0
M  V30 9720 H 935.145 1.83416 4.68367 0
M  V30 9721 H 934.845 3.5899 4.65188 0
M  V30 9722 H 936.369 2.96081 5.34012 0
M  V30 9723 H 937.783 4.44501 3.62065 0
M  V30 9724 H 936.18 5.09536 3.17007 0
M  V30 9725 H 937.25 4.45759 1.90857 0
M  V30 9726 N 938.594 -0.753485 1.38421 0
M  V30 9727 C 940.005 -1.33081 1.30944 0
M  V30 9728 C 940.356 -1.96169 -0.0347124 0
M  V30 9729 O 939.481 -1.95073 -0.936768 0
M  V30 9730 C 940.076 -2.41973 2.37138 0
M  V30 9731 C 938.635 -2.95426 2.33239 0
M  V30 9732 C 937.782 -1.68808 2.19998 0
M  V30 9733 H 940.733 -0.552354 1.48777 0
M  V30 9734 H 940.754 -3.21913 2.02859 0
M  V30 9735 H 940.266 -1.96027 3.34956 0
M  V30 9736 H 938.367 -3.45701 1.39003 0
M  V30 9737 H 938.48 -3.49798 3.27381 0
M  V30 9738 H 936.844 -1.92438 1.66852 0
M  V30 9739 H 937.627 -1.24939 3.19758 0
M  V30 9740 N 940.072 -1.23292 -0.981677 0
M  V30 9741 C 941.349 -0.972514 -1.6971 0
M  V30 9742 C 941.729 0.509244 -2.04866 0
M  V30 9743 O 941.077 1.48013 -1.74082 0
M  V30 9744 C 941.287 -1.88144 -2.93943 0
M  V30 9745 C 942.635 -2.14416 -3.66485 0
M  V30 9746 O 943.659 -1.85684 -3.03974 0
M  V30 9747 O 942.518 -2.63139 -4.78978 0
M  V30 9748 H 939.612 -0.366673 -0.741269 0
M  V30 9749 H 942.158 -1.34328 -1.03701 0
M  V30 9750 H 940.93 -2.8832 -2.64551 0
M  V30 9751 H 940.553 -1.51296 -3.67689 0
M  V30 9752 N 941.55 1.18024 -1.04442 0
M  V30 9753 C 942.482 2.21294 -0.596799 0
M  V30 9754 C 943.495 1.59305 0.33552 0
M  V30 9755 O 944.684 1.7803 0.129443 0
M  V30 9756 C 941.784 3.38578 0.147648 0
M  V30 9757 C 940.957 4.30143 -0.793484 0
M  V30 9758 C 940.016 5.2612 -0.0916561 0
M  V30 9759 O 939.042 5.64586 -0.72331 0
M  V30 9760 N 940.244 5.68512 1.17364 0
M  V30 9761 H 943.009 2.6032 -1.48504 0
M  V30 9762 H 940.57 1.32847 -0.925374 0
M  V30 9763 H 942.562 3.99812 0.627098 0
M  V30 9764 H 941.132 2.98212 0.937466 0
M  V30 9765 H 940.352 3.66456 -1.45272 0
M  V30 9766 H 941.64 4.88216 -1.43258 0
M  V30 9767 H 941.038 5.39322 1.70729 0
M  V30 9768 H 939.595 6.31925 1.5973 0
M  V30 9769 N 943.028 0.824394 1.34319 0
M  V30 9770 C 944.276 0.41235 1.97849 0
M  V30 9771 C 944.597 -1.02841 1.65677 0
M  V30 9772 O 943.867 -1.71421 0.948245 0
M  V30 9773 H 942.447 0.149486 0.73189 0
M  V30 9774 H 945.109 1.05416 1.63931 0
M  V30 9775 H 944.205 0.532557 3.07523 0
M  V30 9776 N 944.506 -1.46559 0.579492 0
M  V30 9777 C 945.783 -1.956 -0.00287136 0
M  V30 9778 C 946.163 -1.52215 -1.46266 0
M  V30 9779 O 945.511 -0.771335 -2.15088 0
M  V30 9780 C 945.721 -3.48606 0.165824 0
M  V30 9781 C 947.069 -4.24588 0.0319807 0
M  V30 9782 O 948.093 -3.56075 0.094496 0
M  V30 9783 O 946.952 -5.46396 -0.106386 0
M  V30 9784 H 944.046 -0.825387 -0.0516274 0
M  V30 9785 H 946.592 -1.56858 0.647584 0
M  V30 9786 H 945.364 -3.7306 1.18076 0
M  V30 9787 H 944.987 -3.94169 -0.521212 0
M  V30 9788 N 945.984 -0.3171 -1.54377 0
M  V30 9789 C 946.932 0.567371 -2.25574 0
M  V30 9790 C 947.926 1.12387 -1.2675 0
M  V30 9791 O 949.132 1.07266 -1.44548 0
M  V30 9792 H 945.507 0.201605 -0.724472 0
M  V30 9793 H 947.478 -0.0554644 -2.98348 0
M  V30 9794 C 946.227 1.71984 -3.02187 0
M  V30 9795 H 945.55 1.30086 -3.78044 0
M  V30 9796 H 946.99 2.31443 -3.5526 0
M  V30 9797 C 945.449 2.6336 -2.10103 0
M  V30 9798 O 945.979 3.64899 -1.67962 0
M  V30 9799 N 944.185 2.3145 -1.75725 0
M  V30 9800 H 943.732 1.48921 -2.10191 0
M  V30 9801 H 943.69 2.92852 -1.14391 0
M  V30 9802 N 947.462 1.57535 -0.0451378 0
M  V30 9803 C 948.739 1.83785 0.669523 0
M  V30 9804 C 949.119 0.932331 1.89396 0
M  V30 9805 O 948.467 -0.00813229 2.28499 0
M  V30 9806 C 948.677 3.33376 1.03255 0
M  V30 9807 C 950.025 4.00243 1.41741 0
M  V30 9808 O 951.049 3.37965 1.12507 0
M  V30 9809 O 949.908 5.10038 1.96275 0
M  V30 9810 H 947.002 0.758342 0.329919 0
M  V30 9811 H 949.548 1.69538 -0.0740415 0
M  V30 9812 H 948.32 3.90965 0.161777 0
M  V30 9813 H 947.943 3.52787 1.83376 0
M  V30 9814 N 948.94 -0.228186 1.55939 0
M  V30 9815 C 949.888 -1.30239 1.92719 0
M  V30 9816 C 950.882 -1.48865 0.808424 0
M  V30 9817 O 952.088 -1.50118 0.993204 0
M  V30 9818 H 948.463 -0.436509 0.612343 0
M  V30 9819 H 950.434 -0.964965 2.82367 0
M  V30 9820 C 949.183 -2.647 2.25453 0
M  V30 9821 H 948.506 -2.51173 3.1105 0
M  V30 9822 H 949.946 -3.38691 2.55077 0
M  V30 9823 C 948.405 -3.1921 1.07734 0
M  V30 9824 O 948.935 -4.00301 0.335019 0
M  V30 9825 N 947.141 -2.77492 0.862938 0
M  V30 9826 H 946.688 -2.11657 1.4683 0
M  V30 9827 H 946.646 -3.14306 0.0770119 0
M  V30 9828 N 950.418 -1.49637 -0.494624 0
M  V30 9829 C 951.664 -1.60654 -1.24747 0
M  V30 9830 C 952.019 -0.292376 -1.90166 0
M  V30 9831 O 951.312 0.707918 -1.78042 0
M  V30 9832 C 951.506 -2.70749 -2.33302 0
M  V30 9833 C 951.335 -4.12744 -1.7853 0
M  V30 9834 C 950.105 -4.79451 -1.59546 0
M  V30 9835 C 952.303 -4.97767 -1.29353 0
M  V30 9836 N 950.285 -6.05738 -0.997702 0
M  V30 9837 C 951.656 -6.14587 -0.817517 0
M  V30 9838 C 953.711 -4.83719 -1.17986 0
M  V30 9839 C 952.414 -7.18903 -0.23907 0
M  V30 9840 C 954.44 -5.8819 -0.615375 0
M  V30 9841 C 953.802 -7.04241 -0.149622 0
M  V30 9842 H 949.901 -0.642198 -0.446213 0
M  V30 9843 H 952.485 -1.86668 -0.553469 0
M  V30 9844 H 950.656 -2.46497 -3.00156 0
M  V30 9845 H 952.388 -2.71253 -3.0034 0
M  V30 9846 H 949.143 -4.36354 -1.84098 0
M  V30 9847 H 949.567 -6.73183 -0.717911 0
M  V30 9848 H 954.209 -3.94304 -1.52592 0
M  V30 9849 H 951.927 -8.08012 0.11925 0
M  V30 9850 H 955.513 -5.7938 -0.530114 0
M  V30 9851 H 954.393 -7.83699 0.280349 0
M  V30 9852 N 951.896 0.746133 -1.38819 0
M  V30 9853 C 953.142 1.50669 -1.3664 0
M  V30 9854 C 953.497 1.92356 0.0411513 0
M  V30 9855 O 952.79 1.63104 1.00537 0
M  V30 9856 C 952.984 2.76639 -2.26286 0
M  V30 9857 C 952.813 2.47268 -3.75618 0
M  V30 9858 C 951.583 2.40116 -4.44603 0
M  V30 9859 C 953.781 2.13548 -4.67869 0
M  V30 9860 N 951.763 2.03098 -5.79331 0
M  V30 9861 C 953.134 1.86883 -5.91164 0
M  V30 9862 C 955.189 1.99922 -4.56 0
M  V30 9863 C 953.892 1.47965 -7.03917 0
M  V30 9864 C 955.918 1.62406 -5.68664 0
M  V30 9865 C 955.28 1.36618 -6.91025 0
M  V30 9866 H 951.379 0.550624 -0.555282 0
M  V30 9867 H 953.963 0.868179 -1.74272 0
M  V30 9868 H 952.134 3.38287 -1.9083 0
M  V30 9869 H 953.866 3.42753 -2.1518 0
M  V30 9870 H 950.621 2.56839 -3.97908 0
M  V30 9871 H 951.045 1.87214 -6.506 0
M  V30 9872 H 955.687 2.18531 -3.61945 0
M  V30 9873 H 953.405 1.28096 -7.97883 0
M  V30 9874 H 956.991 1.52483 -5.61462 0
M  V30 9875 H 955.871 1.08021 -7.76725 0
M  V30 9876 N 953.375 1.23811 0.975125 0
M  V30 9877 C 954.603 1.10019 1.75224 0
M  V30 9878 C 955.018 -0.34791 1.85567 0
M  V30 9879 O 954.375 -1.24043 1.33864 0
M  V30 9880 C 954.426 1.72572 3.1765 0
M  V30 9881 O 954.147 3.11719 3.07836 0
M  V30 9882 C 955.648 1.64292 4.11732 0
M  V30 9883 H 952.868 0.38476 0.549728 0
M  V30 9884 H 955.412 1.63768 1.22476 0
M  V30 9885 H 953.567 1.22843 3.67408 0
M  V30 9886 H 953.981 3.42152 3.97533 0
M  V30 9887 H 955.455 2.12754 5.09352 0
M  V30 9888 H 955.932 0.602722 4.35045 0
M  V30 9889 H 956.538 2.13411 3.6788 0
M  V30 9890 N 954.853 -1.17469 1.05066 0
M  V30 9891 C 956.101 -1.87327 0.758485 0
M  V30 9892 C 956.422 -1.81358 -0.716549 0
M  V30 9893 O 955.692 -1.23868 -1.51768 0
M  V30 9894 H 954.272 -0.693512 0.277579 0
M  V30 9895 H 956.934 -1.4251 1.32954 0
M  V30 9896 H 956.03 -2.93101 1.0723 0
M  V30 9897 N 956.331 -0.831506 -1.3388 0
M  V30 9898 C 957.577 -0.433509 -1.98727 0
M  V30 9899 C 957.932 0.994508 -1.64704 0
M  V30 9900 O 957.225 1.68458 -0.912815 0
M  V30 9901 C 957.419 -0.582733 -3.52617 0
M  V30 9902 C 957.248 -2.0237 -4.01592 0
M  V30 9903 C 956.018 -2.6574 -4.29779 0
M  V30 9904 C 958.216 -2.99152 -4.18345 0
M  V30 9905 N 956.198 -4.00988 -4.64846 0
M  V30 9906 C 957.569 -4.19329 -4.56687 0
M  V30 9907 C 959.624 -2.95655 -4.00615 0
M  V30 9908 C 958.327 -5.36475 -4.79152 0
M  V30 9909 C 960.353 -4.12025 -4.24252 0
M  V30 9910 C 959.715 -5.30955 -4.62889 0
M  V30 9911 H 955.814 -0.20691 -0.75413 0
M  V30 9912 H 958.398 -1.07802 -1.62132 0
M  V30 9913 H 956.569 0.0319301 -3.88387 0
M  V30 9914 H 958.301 -0.156899 -4.04396 0
M  V30 9915 H 955.056 -2.16923 -4.21 0
M  V30 9916 H 955.48 -4.7069 -4.86601 0
M  V30 9917 H 960.122 -2.04842 -3.69864 0
M  V30 9918 H 957.84 -6.27839 -5.08767 0
M  V30 9919 H 961.426 -4.10728 -4.1206 0
M  V30 9920 H 960.306 -6.19504 -4.80817 0
M  V30 9921 N 957.809 1.4625 -0.587256 0
M  V30 9922 C 959.225 1.57641 -0.249284 0
M  V30 9923 C 959.425 1.58169 1.24839 0
M  V30 9924 O 958.481 1.50109 2.03036 0
M  V30 9925 C 959.794 2.86837 -0.902509 0
M  V30 9926 C 961.342 3.00476 -0.876524 0
M  V30 9927 C 961.817 4.32414 -1.50938 0
M  V30 9928 N 963.308 4.39124 -1.47392 0
M  V30 9929 C 964.043 5.39838 -1.93293 0
M  V30 9930 N 963.539 6.47202 -2.47188 0
M  V30 9931 N 965.332 5.31068 -1.84183 0
M  V30 9932 H 957.483 1.44151 -1.55994 0
M  V30 9933 H 959.746 0.687905 -0.652297 0
M  V30 9934 H 959.452 2.92274 -1.95624 0
M  V30 9935 H 959.326 3.74927 -0.413466 0
M  V30 9936 H 961.713 2.94618 0.168601 0
M  V30 9937 H 961.794 2.1385 -1.40363 0
M  V30 9938 H 961.438 4.3903 -2.55372 0
M  V30 9939 H 961.368 5.17823 -0.957455 0
M  V30 9940 H 963.859 3.62138 -1.08002 0
M  V30 9941 H 964.172 7.20269 -2.80058 0
M  V30 9942 H 962.517 6.48009 -2.51216 0
M  V30 9943 H 965.708 4.46095 -1.41833 0
M  V30 9944 H 965.881 6.09414 -2.2027 0
M  V30 9945 N 959.287 0.325282 1.54207 0
M  V30 9946 C 960.219 -0.57395 2.21897 0
M  V30 9947 C 961.232 -1.0785 1.21952 0
M  V30 9948 O 962.421 -0.991782 1.48411 0
M  V30 9949 C 959.521 -1.8005 2.87115 0
M  V30 9950 C 958.694 -1.43435 4.13213 0
M  V30 9951 C 957.753 -2.51862 4.62009 0
M  V30 9952 O 956.779 -2.15934 5.26651 0
M  V30 9953 N 957.981 -3.8282 4.36382 0
M  V30 9954 H 960.746 0.00566918 2.99699 0
M  V30 9955 H 958.307 0.148563 1.61217 0
M  V30 9956 H 960.299 -2.51981 3.16682 0
M  V30 9957 H 958.869 -2.28792 2.13009 0
M  V30 9958 H 958.089 -0.546598 3.90392 0
M  V30 9959 H 959.377 -1.16544 4.95273 0
M  V30 9960 H 958.775 -4.14807 3.84645 0
M  V30 9961 H 957.332 -4.50976 4.70599 0
M  V30 9962 N 960.765 -1.57509 0.0534917 0
M  V30 9963 C 962.011 -1.93887 -0.614776 0
M  V30 9964 C 962.366 -0.932098 -1.68314 0
M  V30 9965 O 961.659 0.0483848 -1.91539 0
M  V30 9966 C 961.853 -3.34734 -1.25251 0
M  V30 9967 C 961.682 -4.49019 -0.247444 0
M  V30 9968 C 960.452 -5.05042 0.161406 0
M  V30 9969 C 962.65 -5.11784 0.508059 0
M  V30 9970 N 960.632 -6.02858 1.15909 0
M  V30 9971 C 962.003 -6.04928 1.35876 0
M  V30 9972 C 964.058 -4.94671 0.56612 0
M  V30 9973 C 962.761 -6.82797 2.26232 0
M  V30 9974 C 964.787 -5.73168 1.45712 0
M  V30 9975 C 964.149 -6.65946 2.29554 0
M  V30 9976 H 960.248 -0.756899 -0.196538 0
M  V30 9977 H 962.832 -1.94289 0.126365 0
M  V30 9978 H 961.003 -3.35104 -1.96367 0
M  V30 9979 H 962.735 -3.58395 -1.87977 0
M  V30 9980 H 959.49 -4.73098 -0.218025 0
M  V30 9981 H 959.914 -6.56462 1.6549 0
M  V30 9982 H 964.556 -4.22746 -0.0678652 0
M  V30 9983 H 962.274 -7.54012 2.90675 0
M  V30 9984 H 965.86 -5.61953 1.50664 0
M  V30 9985 H 964.74 -7.25627 2.97381 0
M  V30 9986 N 962.243 0.219913 -1.56058 0
M  V30 9987 C 963.492 0.942119 -1.78345 0
M  V30 9988 C 963.805 1.85435 -0.622344 0
M  V30 9989 O 965.011 2.61533 -0.728886 0
M  V30 9990 C 963.467 1.72544 -3.15843 0
M  V30 9991 C 963.075 0.859263 -4.39682 0
M  V30 9992 C 964.819 2.43876 -3.47455 0
M  V30 9993 C 962.726 1.64003 -5.68205 0
M  V30 9994 H 961.656 0.355514 -0.664925 0
M  V30 9995 H 964.307 0.195963 -1.82451 0
M  V30 9996 H 962.689 2.51456 -3.05918 0
M  V30 9997 H 963.863 0.110562 -4.60667 0
M  V30 9998 H 962.178 0.257985 -4.156 0
M  V30 9999 H 964.775 3.02794 -4.40704 0
M  V30 10000 H 965.118 3.16843 -2.7003 0
M  V30 10001 H 965.651 1.71952 -3.58716 0
M  V30 10002 H 962.39 0.953606 -6.48526 0
M  V30 10003 H 961.91 2.3633 -5.51279 0
M  V30 10004 H 963.589 2.20028 -6.08438 0
M  V30 10005 N 963.721 1.49897 0.486681 0
M  V30 10006 C 965.132 1.53142 1.06792 0
M  V30 10007 C 965.483 0.325856 1.93475 0
M  V30 10008 O 964.608 -0.562893 2.08951 0
M  V30 10009 C 965.203 2.77514 1.94348 0
M  V30 10010 C 963.762 2.83491 2.47609 0
M  V30 10011 C 962.909 2.47239 1.2557 0
M  V30 10012 H 965.86 1.56387 0.269962 0
M  V30 10013 H 965.881 2.58487 2.79221 0
M  V30 10014 H 965.393 3.65239 1.31232 0
M  V30 10015 H 963.494 2.0008 3.14323 0
M  V30 10016 H 963.607 3.86011 2.83782 0
M  V30 10017 H 961.971 1.99332 1.58552 0
M  V30 10018 H 962.754 3.37255 0.641404 0
M  V30 10019 N 965.199 -0.738761 1.39212 0
M  V30 10020 C 966.162 -1.83441 1.37412 0
M  V30 10021 C 967.162 -1.58484 0.271908 0
M  V30 10022 O 968.352 -1.65954 0.529609 0
M  V30 10023 C 965.484 -3.21167 1.143 0
M  V30 10024 H 966.677 -1.86441 2.34904 0
M  V30 10025 H 964.23 -0.942023 1.24722 0
M  V30 10026 H 964.965 -3.23829 0.174756 0
M  V30 10027 H 964.75 -3.40678 1.94116 0
M  V30 10028 H 966.24 -4.01231 1.15773 0
M  V30 10029 N 966.677 -1.24326 -0.968545 0
M  V30 10030 C 967.925 -1.08032 -1.70803 0
M  V30 10031 C 968.246 0.381728 -1.91227 0
M  V30 10032 O 967.516 1.27253 -1.48942 0
M  V30 10033 H 966.096 -0.396777 -0.632912 0
M  V30 10034 H 968.758 -1.56232 -1.16523 0
M  V30 10035 H 967.854 -1.57769 -2.69287 0
M  V30 10036 N 968.156 1.1691 -1.05688 0
M  V30 10037 C 969.405 1.86629 -0.765022 0
M  V30 10038 C 969.718 1.82223 0.710918 0
M  V30 10039 O 970.924 2.47462 1.11691 0
M  V30 10040 C 969.38 3.34886 -1.3183 0
M  V30 10041 C 968.988 3.47781 -2.82404 0
M  V30 10042 C 970.732 4.099 -1.10372 0
M  V30 10043 C 968.639 4.9009 -3.31008 0
M  V30 10044 H 967.569 0.699082 -0.282491 0
M  V30 10045 H 970.22 1.31989 -1.27481 0
M  V30 10046 H 968.602 3.89094 -0.736312 0
M  V30 10047 H 969.776 3.03765 -3.46502 0
M  V30 10048 H 968.091 2.86193 -3.02461 0
M  V30 10049 H 970.688 5.14894 -1.4418 0
M  V30 10050 H 971.031 4.16279 -0.0417372 0
M  V30 10051 H 971.564 3.61913 -1.65117 0
M  V30 10052 H 968.303 4.88887 -4.36657 0
M  V30 10053 H 967.823 5.34756 -2.71655 0
M  V30 10054 H 969.502 5.58881 -3.25977 0
M  V30 10055 N 969.634 0.838594 1.33437 0
M  V30 10056 C 970.882 0.433312 1.974 0
M  V30 10057 C 971.203 -1.01078 1.66758 0
M  V30 10058 O 970.473 -1.70406 0.966373 0
M  V30 10059 H 969.053 0.15724 0.730263 0
M  V30 10060 H 971.715 1.07149 1.62804 0
M  V30 10061 H 970.811 0.565144 3.06941 0
M  V30 10062 N 971.112 -1.45937 0.595003 0
M  V30 10063 C 972.358 -2.0262 0.0854317 0
M  V30 10064 C 972.691 -1.46402 -1.27594 0
M  V30 10065 O 971.966 -0.633823 -1.83883 0
M  V30 10066 C 972.249 -3.60085 0.0329075 0
M  V30 10067 C 972.102 -4.26663 1.42405 0
M  V30 10068 C 973.421 -4.35101 -0.661426 0
M  V30 10069 H 970.54 -0.736282 0.0325196 0
M  V30 10070 H 973.182 -1.73938 0.764563 0
M  V30 10071 H 971.332 -3.84652 -0.545439 0
M  V30 10072 H 973.004 -4.13321 2.04851 0
M  V30 10073 H 971.247 -3.85549 1.98833 0
M  V30 10074 H 971.918 -5.35497 1.33965 0
M  V30 10075 H 974.394 -4.15753 -0.169977 0
M  V30 10076 H 973.27 -5.44829 -0.667243 0
M  V30 10077 H 973.531 -4.07053 -1.72513 0
M  V30 10078 N 972.59 -0.333456 -1.54032 0
M  V30 10079 C 973.818 0.267813 -2.05159 0
M  V30 10080 C 974.233 1.4501 -1.20903 0
M  V30 10081 O 973.59 1.80888 -0.241994 0
M  V30 10082 C 973.641 0.69268 -3.54802 0
M  V30 10083 O 973.362 -0.442579 -4.35859 0
M  V30 10084 C 974.863 1.35572 -4.2206 0
M  V30 10085 H 972.083 0.0534924 -0.668864 0
M  V30 10086 H 974.627 -0.482515 -1.98726 0
M  V30 10087 H 972.782 1.39297 -3.6149 0
M  V30 10088 H 973.196 -0.105915 -5.24393 0
M  V30 10089 H 974.67 1.60385 -5.28186 0
M  V30 10090 H 975.147 2.30614 -3.73783 0
M  V30 10091 H 975.753 0.697748 -4.19537 0
M  V30 10092 N 974.068 1.57479 -0.061844 0
M  V30 10093 C 975.316 1.92727 0.608336 0
M  V30 10094 C 975.637 0.941799 1.70749 0
M  V30 10095 O 974.907 -0.0116608 1.95897 0
M  V30 10096 H 973.487 0.71145 0.2277 0
M  V30 10097 H 976.149 1.94546 -0.117359 0
M  V30 10098 H 975.245 2.9426 1.04007 0
M  V30 10099 N 975.546 -0.211634 1.56173 0
M  V30 10100 C 976.792 -0.935935 1.79911 0
M  V30 10101 C 977.125 -1.83589 0.633155 0
M  V30 10102 O 976.4 -1.91004 -0.367132 0
M  V30 10103 C 976.683 -1.76638 3.13801 0
M  V30 10104 C 976.536 -0.892259 4.40861 0
M  V30 10105 C 977.855 -2.74224 3.44223 0
M  V30 10106 H 974.974 -0.338822 0.654499 0
M  V30 10107 H 977.616 -0.20422 1.88899 0
M  V30 10108 H 975.766 -2.39021 3.0627 0
M  V30 10109 H 977.438 -0.284407 4.60422 0
M  V30 10110 H 975.681 -0.198145 4.33347 0
M  V30 10111 H 976.352 -1.50793 5.31004 0
M  V30 10112 H 978.828 -2.21975 3.51946 0
M  V30 10113 H 977.704 -3.29424 4.39057 0
M  V30 10114 H 977.965 -3.52455 2.66885 0
M  V30 10115 N 977.024 -1.50153 -0.478725 0
M  V30 10116 C 978.273 -1.60002 -1.22809 0
M  V30 10117 C 978.586 -0.302277 -1.9325 0
M  V30 10118 O 979.792 -0.279583 -2.70057 0
M  V30 10119 C 978.248 -2.82402 -2.23108 0
M  V30 10120 C 977.856 -4.19023 -1.58505 0
M  V30 10121 C 979.6 -3.01593 -2.98734 0
M  V30 10122 C 977.507 -5.32618 -2.57045 0
M  V30 10123 H 976.437 -0.595822 -0.462073 0
M  V30 10124 H 979.088 -1.76573 -0.499412 0
M  V30 10125 H 977.47 -2.59373 -2.99235 0
M  V30 10126 H 978.644 -4.52277 -0.882187 0
M  V30 10127 H 976.959 -4.05374 -0.951877 0
M  V30 10128 H 979.556 -3.8363 -3.72468 0
M  V30 10129 H 979.899 -2.1302 -3.57671 0
M  V30 10130 H 980.432 -3.24766 -2.29721 0
M  V30 10131 H 977.171 -6.23321 -2.02858 0
M  V30 10132 H 976.691 -5.03792 -3.25505 0
M  V30 10133 H 978.37 -5.62877 -3.19028 0
M  V30 10134 N 978.502 0.731368 -1.39602 0
M  V30 10135 C 979.751 1.48647 -1.36334 0
M  V30 10136 C 980.064 1.95565 0.0367383 0
M  V30 10137 O 981.27 2.7082 0.192017 0
M  V30 10138 C 979.726 2.68616 -2.39528 0
M  V30 10139 C 979.334 2.28632 -3.85268 0
M  V30 10140 C 981.078 3.46422 -2.45341 0
M  V30 10141 C 978.985 3.45345 -4.80095 0
M  V30 10142 H 977.915 0.558218 -0.506861 0
M  V30 10143 H 980.566 0.797467 -1.65266 0
M  V30 10144 H 978.948 3.39609 -2.03671 0
M  V30 10145 H 980.122 1.65162 -4.30184 0
M  V30 10146 H 978.437 1.63909 -3.82783 0
M  V30 10147 H 981.034 4.33241 -3.13379 0
M  V30 10148 H 981.377 3.8914 -1.47904 0
M  V30 10149 H 981.91 2.82461 -2.80108 0
M  V30 10150 H 978.649 3.07674 -5.78807 0
M  V30 10151 H 978.169 4.07784 -4.39855 0
M  V30 10152 H 979.848 4.1163 -4.99169 0
M  V30 10153 N 979.98 1.24838 0.961938 0
M  V30 10154 C 980.943 1.04674 2.03902 0
M  V30 10155 C 981.943 0.00204674 1.608 0
M  V30 10156 O 983.133 0.243555 1.72489 0
M  V30 10157 C 980.265 0.587736 3.35795 0
M  V30 10158 H 981.458 2.00278 2.23223 0
M  V30 10159 H 979.011 1.07142 1.138 0
M  V30 10160 H 979.746 -0.371244 3.22168 0
M  V30 10161 H 979.531 1.34182 3.68426 0
M  V30 10162 H 981.021 0.467867 4.14971 0
M  V30 10163 N 981.458 -1.16348 1.06306 0
M  V30 10164 C 982.704 -1.87158 0.781007 0
M  V30 10165 C 983.037 -1.81499 -0.690784 0
M  V30 10166 O 982.312 -1.23074 -1.50609 0
M  V30 10167 C 982.595 -3.3672 1.27639 0
M  V30 10168 C 982.448 -3.51069 2.81194 0
M  V30 10169 C 983.767 -4.31122 0.884388 0
M  V30 10170 H 980.886 -0.679586 0.285187 0
M  V30 10171 H 983.528 -1.36756 1.31901 0
M  V30 10172 H 981.678 -3.79775 0.818715 0
M  V30 10173 H 983.35 -3.16952 3.35171 0
M  V30 10174 H 981.593 -2.92976 3.19918 0
M  V30 10175 H 982.264 -4.56105 3.10921 0
M  V30 10176 H 984.74 -3.95969 1.27858 0
M  V30 10177 H 983.616 -5.34279 1.25847 0
M  V30 10178 H 983.877 -4.41598 -0.210673 0
M  V30 10179 N 982.937 -0.845659 -1.3299 0
M  V30 10180 C 984.186 -0.440928 -1.96822 0
M  V30 10181 C 984.499 1.00668 -1.67706 0
M  V30 10182 O 985.705 1.51641 -2.25205 0
M  V30 10183 C 984.161 -0.73752 -3.52262 0
M  V30 10184 C 983.769 -2.20026 -3.90247 0
M  V30 10185 C 985.513 -0.400072 -4.22611 0
M  V30 10186 C 983.42 -2.44054 -5.38694 0
M  V30 10187 H 982.35 -0.161148 -0.736578 0
M  V30 10188 H 985.001 -1.03519 -1.51513 0
M  V30 10189 H 983.383 -0.0728025 -3.95933 0
M  V30 10190 H 984.557 -2.90602 -3.57613 0
M  V30 10191 H 982.872 -2.50135 -3.32899 0
M  V30 10192 H 985.469 -0.557136 -5.3179 0
M  V30 10193 H 985.812 0.657547 -4.11074 0
M  V30 10194 H 986.345 -1.0203 -3.84493 0
M  V30 10195 H 983.084 -3.48407 -5.55241 0
M  V30 10196 H 982.604 -1.78047 -5.72765 0
M  V30 10197 H 984.283 -2.27549 -6.05665 0
M  V30 10198 N 984.415 1.45619 -0.602734 0
M  V30 10199 C 985.378 2.28941 0.108962 0
M  V30 10200 C 986.378 1.39501 0.799762 0
M  V30 10201 O 987.568 1.61673 0.648663 0
M  V30 10202 C 984.7 3.204 1.16432 0
M  V30 10203 H 985.893 2.93346 -0.623534 0
M  V30 10204 H 983.446 1.52061 -0.361565 0
M  V30 10205 H 984.181 2.60785 1.92774 0
M  V30 10206 H 983.966 3.86277 0.673248 0
M  V30 10207 H 985.456 3.83063 1.6629 0
M  V30 10208 N 985.893 0.34162 1.53853 0
M  V30 10209 C 986.823 -0.508431 2.27897 0
M  V30 10210 C 987.804 -1.10425 1.29384 0
M  V30 10211 O 988.989 -1.126 1.58224 0
M  V30 10212 C 986.119 -1.66048 3.05034 0
M  V30 10213 C 985.073 -1.19309 4.11035 0
M  V30 10214 C 984.399 -2.4335 4.76114 0
M  V30 10215 C 985.699 -0.294952 5.21467 0
M  V30 10216 H 987.393 0.109251 2.99201 0
M  V30 10217 H 984.939 0.0539847 1.43899 0
M  V30 10218 H 986.892 -2.26158 3.5557 0
M  V30 10219 H 985.616 -2.30503 2.31379 0
M  V30 10220 H 984.275 -0.614809 3.61408 0
M  V30 10221 H 983.923 -3.06208 3.99056 0
M  V30 10222 H 983.623 -2.1276 5.47729 0
M  V30 10223 H 985.147 -3.0419 5.29434 0
M  V30 10224 H 986.561 -0.80285 5.67651 0
M  V30 10225 H 984.958 -0.0810221 6.00045 0
M  V30 10226 H 986.028 0.669433 4.80257 0
M  V30 10227 N 987.371 -1.57444 0.0701946 0
M  V30 10228 C 988.618 -1.93429 -0.59929 0
M  V30 10229 C 988.946 -0.9501 -1.69715 0
M  V30 10230 O 988.201 0.0345377 -1.9567 0
M  V30 10231 C 988.5 -3.36044 -1.21694 0
M  V30 10232 C 988.166 -4.50232 -0.245374 0
M  V30 10233 C 986.828 -4.81195 0.0219161 0
M  V30 10234 C 989.18 -5.1951 0.419396 0
M  V30 10235 C 986.508 -5.78775 0.96109 0
M  V30 10236 C 988.86 -6.18095 1.34688 0
M  V30 10237 C 987.524 -6.47477 1.62265 0
M  V30 10238 H 986.794 -0.707807 -0.219296 0
M  V30 10239 H 989.441 -1.90982 0.14073 0
M  V30 10240 H 987.746 -3.34948 -2.03265 0
M  V30 10241 H 989.443 -3.61176 -1.74221 0
M  V30 10242 H 986.033 -4.26082 -0.463887 0
M  V30 10243 H 990.217 -4.95785 0.226009 0
M  V30 10244 H 985.473 -5.99865 1.18202 0
M  V30 10245 H 989.647 -6.7088 1.86795 0
M  V30 10246 H 987.274 -7.229 2.352 0
M  V30 10247 N 988.849 0.203349 -1.56283 0
M  V30 10248 C 990.089 0.931871 -1.81922 0
M  V30 10249 C 990.453 1.8079 -0.646459 0
M  V30 10250 O 991.654 2.57157 -0.782556 0
M  V30 10251 C 989.925 1.73347 -3.12547 0
M  V30 10252 S 991.484 2.51514 -3.59564 0
M  V30 10253 H 988.302 0.312706 -0.638542 0
M  V30 10254 H 990.904 0.195931 -1.94516 0
M  V30 10255 H 989.608 1.08038 -3.95924 0
M  V30 10256 H 989.139 2.51138 -3.02809 0
M  V30 10257 H 991.154 3.7552 -3.24345 0
M  V30 10258 N 990.327 1.50405 0.470755 0
M  V30 10259 C 991.576 1.60652 1.21959 0
M  V30 10260 C 991.889 0.312521 1.93087 0
M  V30 10261 O 993.095 0.293901 2.69905 0
M  V30 10262 C 991.551 2.83581 2.21607 0
M  V30 10263 C 991.159 4.19858 1.5628 0
M  V30 10264 C 992.903 3.03173 2.9713 0
M  V30 10265 C 990.81 5.33974 2.54217 0
M  V30 10266 H 989.74 0.598264 0.458907 0
M  V30 10267 H 992.391 1.76836 0.490041 0
M  V30 10268 H 990.773 2.60957 2.97855 0
M  V30 10269 H 991.947 4.52738 0.85819 0
M  V30 10270 H 990.262 4.05873 0.930366 0
M  V30 10271 H 992.859 3.856 3.70428 0
M  V30 10272 H 993.202 2.14914 3.56536 0
M  V30 10273 H 993.735 3.2598 2.27995 0
M  V30 10274 H 990.474 6.24388 1.99549 0
M  V30 10275 H 989.994 5.05511 3.22829 0
M  V30 10276 H 991.673 5.64561 3.16039 0
M  V30 10277 N 991.805 -0.723954 1.39988 0
M  V30 10278 C 993.045 -1.49624 1.39255 0
M  V30 10279 C 993.409 -1.91998 -0.00860198 0
M  V30 10280 O 994.61 -2.6843 -0.141002 0
M  V30 10281 C 992.881 -2.69514 2.34728 0
M  V30 10282 S 994.44 -3.59027 2.5228 0
M  V30 10283 H 991.258 -0.511661 0.493685 0
M  V30 10284 H 993.86 -0.847322 1.76184 0
M  V30 10285 H 992.564 -2.36541 3.35375 0
M  V30 10286 H 992.095 -3.39325 1.99053 0
M  V30 10287 H 994.11 -4.63597 1.76896 0
M  V30 10288 N 993.283 -1.25346 -0.955304 0
M  V30 10289 C 994.23 -1.05672 -2.05188 0
M  V30 10290 C 995.2 0.0339217 -1.66065 0
M  V30 10291 O 996.385 -0.123126 -1.90402 0
M  V30 10292 C 993.525 -0.680791 -3.38318 0
M  V30 10293 C 992.638 -1.84622 -3.90562 0
M  V30 10294 C 991.773 -1.41471 -5.12015 0
M  V30 10295 C 990.812 -2.54931 -5.56486 0
M  V30 10296 N 989.949 -2.1256 -6.69151 0
M  V30 10297 H 994.789 -1.9952 -2.2135 0
M  V30 10298 H 992.326 -0.993588 -1.08472 0
M  V30 10299 H 994.284 -0.443794 -4.14833 0
M  V30 10300 H 992.914 0.2207 -3.22045 0
M  V30 10301 H 991.966 -2.19654 -3.10574 0
M  V30 10302 H 993.278 -2.6983 -4.19515 0
M  V30 10303 H 992.432 -1.13732 -5.95945 0
M  V30 10304 H 991.171 -0.533334 -4.84775 0
M  V30 10305 H 990.176 -2.83415 -4.71122 0
M  V30 10306 H 991.401 -3.43645 -5.85734 0
M  V30 10307 H 989.347 -1.26838 -6.43621 0
M  V30 10308 H 989.264 -2.91317 -6.97618 0
M  V30 10309 H 990.532 -1.87996 -7.5649 0
M  V30 10310 N 994.761 1.15782 -1.06922 0
M  V30 10311 C 996.008 1.86465 -0.789752 0
M  V30 10312 C 996.336 1.82075 0.684022 0
M  V30 10313 O 995.591 1.23576 1.51748 0
M  V30 10314 C 995.89 3.35284 -1.2377 0
M  V30 10315 C 995.556 3.59871 -2.71668 0
M  V30 10316 C 994.218 3.6629 -3.12066 0
M  V30 10317 C 996.57 3.69929 -3.67154 0
M  V30 10318 C 993.898 3.80275 -4.46775 0
M  V30 10319 C 996.25 3.85436 -5.01619 0
M  V30 10320 C 994.914 3.901 -5.41644 0
M  V30 10321 H 994.184 0.682324 -0.288991 0
M  V30 10322 H 996.831 1.36861 -1.33945 0
M  V30 10323 H 995.136 3.87065 -0.607309 0
M  V30 10324 H 996.833 3.88371 -0.998431 0
M  V30 10325 H 993.423 3.55512 -2.39393 0
M  V30 10326 H 997.607 3.64274 -3.37073 0
M  V30 10327 H 992.863 3.8214 -4.77262 0
M  V30 10328 H 997.037 3.92161 -5.75485 0
M  V30 10329 H 994.664 4.00688 -6.46029 0
M  V30 10330 N 996.239 0.8527 1.3254 0
M  V30 10331 C 997.485 0.455798 1.97612 0
M  V30 10332 C 997.818 -0.985616 1.6733 0
M  V30 10333 O 997.093 -1.69129 0.960493 0
M  V30 10334 C 997.376 0.69312 3.53366 0
M  V30 10335 C 997.229 2.18281 3.93285 0
M  V30 10336 C 998.548 0.148236 4.3985 0
M  V30 10337 H 995.667 0.167078 0.717812 0
M  V30 10338 H 998.309 1.07076 1.56954 0
M  V30 10339 H 996.459 0.169677 3.88129 0
M  V30 10340 H 998.131 2.77218 3.68711 0
M  V30 10341 H 996.374 2.66206 3.42515 0
M  V30 10342 H 997.045 2.29957 5.01821 0
M  V30 10343 H 999.521 0.595834 4.11812 0
M  V30 10344 H 998.397 0.343873 5.47822 0
M  V30 10345 H 998.658 -0.948872 4.31797 0
M  V30 10346 N 997.718 -1.45297 0.610449 0
M  V30 10347 C 998.965 -2.02218 0.106759 0
M  V30 10348 C 999.293 -1.47849 -1.26376 0
M  V30 10349 O 998.548 -0.644402 -1.84786 0
M  V30 10350 C 998.847 -3.57394 0.0205329 0
M  V30 10351 C 998.513 -4.30928 1.32709 0
M  V30 10352 C 997.175 -4.50735 1.68498 0
M  V30 10353 C 999.527 -4.72936 2.19046 0
M  V30 10354 C 996.855 -5.09806 2.90371 0
M  V30 10355 C 999.207 -5.33355 3.40169 0
M  V30 10356 C 997.871 -5.51384 3.76207 0
M  V30 10357 H 997.141 -0.739969 0.039066 0
M  V30 10358 H 999.788 -1.74326 0.792638 0
M  V30 10359 H 998.093 -3.84581 -0.748623 0
M  V30 10360 H 999.79 -3.99144 -0.385386 0
M  V30 10361 H 996.38 -4.15827 1.03854 0
M  V30 10362 H 1000.56 -4.57365 1.92695 0
M  V30 10363 H 995.82 -5.21953 3.18395 0
M  V30 10364 H 999.994 -5.64859 4.07318 0
M  V30 10365 H 997.621 -5.96924 4.70729 0
M  V30 10366 O 999.235 -0.491964 -1.53824 0
M  V30 10367 H 999.926 0.0280053 -1.9368 0
M  V30 END ATOM
M  V30 BEGIN BOND
M  V30 END BOND
M  V30 END CTAB
M  END
$$$$
