drugbank_target|Q05315 Galectin-10 (DB02967; DB02983)
 OpenBabel12092120013D

  0  0  0     0  0            999 V3000
M  V30 BEGIN CTAB
M  V30 COUNTS 2299 2327 0 0 0
M  V30 BEGIN ATOM
M  V30 1 H -0.908 1.98254 -0.117106 0
M  V30 2 N 0 1.576 0 0
M  V30 3 C 0.933 2.03868 1.02534 0
M  V30 4 C 1.911 0.928543 1.3348 0
M  V30 5 O 3.095 1.19667 1.45644 0
M  V30 6 C 0.222 2.43627 2.35294 0
M  V30 7 C -0.732 3.65373 2.2001 0
M  V30 8 S 0.101 5.13292 1.52614 0
M  V30 9 C 1.257 5.56322 2.86805 0
M  V30 10 H 1.49 2.90518 0.631377 0
M  V30 11 H -0.977 1.52953 0.210867 0
M  V30 12 H 0.981 2.67203 3.11629 0
M  V30 13 H -0.358 1.57376 2.7183 0
M  V30 14 H -1.165 3.90944 3.18086 0
M  V30 15 H -1.563 3.418 1.51819 0
M  V30 16 H 0.729 5.58782 3.83104 0
M  V30 17 H 1.672 6.56266 2.65933 0
M  V30 18 H 2.08 4.83886 2.90714 0
M  V30 19 N 1.4781 -0.272755 1.55222 0
M  V30 20 C 2.7031 -1.02683 1.80197 0
M  V30 21 C 3.1281 -1.79142 0.573551 0
M  V30 22 O 2.4861 -1.74917 -0.476849 0
M  V30 23 C 2.5341 -1.9609 3.02624 0
M  V30 24 O 1.6381 -3.04863 2.77727 0
M  V30 25 H 0.9791 -0.293557 0.595584 0
M  V30 26 H 3.5091 -0.30159 2.02365 0
M  V30 27 H 3.5191 -2.38039 3.31363 0
M  V30 28 H 2.1941 -1.39851 3.91682 0
M  V30 29 H 0.7711 -2.67228 2.60084 0
M  V30 30 N 2.9562 -1.48159 -0.537278 0
M  V30 31 C 3.8862 -1.65029 -1.6519 0
M  V30 32 C 4.8672 -0.499281 -1.62607 0
M  V30 33 O 6.0522 -0.730972 -1.79918 0
M  V30 34 C 3.1822 -1.68303 -3.03795 0
M  V30 35 C 2.1362 -2.8283 -3.21234 0
M  V30 36 C 1.4622 -2.71189 -4.60826 0
M  V30 37 C 2.7622 -4.24211 -3.04701 0
M  V30 38 H 4.4562 -2.58341 -1.51328 0
M  V30 39 H 2.0022 -1.24325 -0.726585 0
M  V30 40 H 3.9552 -1.78693 -3.81637 0
M  V30 41 H 2.6792 -0.715635 -3.18663 0
M  V30 42 H 1.3382 -2.71983 -2.45807 0
M  V30 43 H 0.9862 -1.72435 -4.7252 0
M  V30 44 H 0.6862 -3.48035 -4.7344 0
M  V30 45 H 2.2102 -2.83537 -5.40777 0
M  V30 46 H 3.6242 -4.3593 -3.72341 0
M  V30 47 H 2.0212 -5.01998 -3.28813 0
M  V30 48 H 3.0912 -4.41184 -2.01209 0
M  V30 49 N 4.4343 0.785586 -1.36625 0
M  V30 50 C 5.3643 1.91259 -1.33949 0
M  V30 51 C 6.3453 1.68795 -0.210325 0
M  V30 52 O 7.5303 1.89854 -0.408561 0
M  V30 53 C 4.6603 3.28339 -1.13186 0
M  V30 54 C 3.6143 3.65335 -2.22967 0
M  V30 55 C 2.9403 5.00806 -1.87342 0
M  V30 56 C 4.2403 3.7352 -3.65075 0
M  V30 57 H 5.9343 1.93755 -2.28253 0
M  V30 58 H 3.4803 0.930788 -1.09874 0
M  V30 59 H 5.4333 4.06804 -1.09948 0
M  V30 60 H 4.1573 3.2624 -0.153332 0
M  V30 61 H 2.8163 2.89169 -2.25337 0
M  V30 62 H 2.4643 4.95233 -0.880545 0
M  V30 63 H 2.1643 5.26529 -2.60846 0
M  V30 64 H 3.6883 5.81687 -1.85667 0
M  V30 65 H 5.1023 4.42168 -3.64911 0
M  V30 66 H 3.4993 4.10731 -4.37516 0
M  V30 67 H 4.5693 2.74527 -3.99703 0
M  V30 68 N 5.9124 1.20967 1.01018 0
M  V30 69 C 7.3234 1.02319 1.56165 0
M  V30 70 C 7.6744 -0.418546 1.91684 0
M  V30 71 O 6.7994 -1.30096 1.72928 0
M  V30 72 C 7.3944 1.85109 2.8376 0
M  V30 73 C 5.9534 1.70809 3.35412 0
M  V30 74 C 5.1004 1.82643 2.08655 0
M  V30 75 H 8.0514 1.35065 0.833255 0
M  V30 76 H 8.0724 1.35827 3.55431 0
M  V30 77 H 7.5844 2.90035 2.57878 0
M  V30 78 H 5.6854 0.685464 3.66241 0
M  V30 79 H 5.7984 2.52467 4.07182 0
M  V30 80 H 4.1624 1.25896 2.21409 0
M  V30 81 H 4.9454 2.89066 1.85191 0
M  V30 82 N 7.3905 -1.2043 1.01659 0
M  V30 83 C 8.6365 -1.90079 0.706963 0
M  V30 84 C 8.9695 -1.78648 -0.761474 0
M  V30 85 O 8.2445 -1.17069 -1.55323 0
M  V30 86 C 8.5275 -3.41469 1.14327 0
M  V30 87 C 8.3805 -3.61833 2.67201 0
M  V30 88 C 9.6995 -4.34261 0.714529 0
M  V30 89 H 6.8185 -0.690254 0.2583 0
M  V30 90 H 9.4605 -1.41826 1.26433 0
M  V30 91 H 7.6105 -3.82696 0.669056 0
M  V30 92 H 9.2825 -3.2986 3.22475 0
M  V30 93 H 7.5255 -3.05304 3.08175 0
M  V30 94 H 8.1965 -4.67955 2.92783 0
M  V30 95 H 10.6725 -4.00682 1.12221 0
M  V30 96 H 9.5485 -5.38806 1.04784 0
M  V30 97 H 9.8095 -4.40431 -0.383799 0
M  V30 98 N 8.8686 -0.792821 -1.36206 0
M  V30 99 C 10.2796 -0.429513 -1.81692 0
M  V30 100 C 10.6306 1.04695 -1.65932 0
M  V30 101 O 9.7556 1.81256 -1.18218 0
M  V30 102 C 10.3506 -0.772831 -3.29868 0
M  V30 103 C 8.9096 -0.462307 -3.7355 0
M  V30 104 C 8.0566 -1.00569 -2.5842 0
M  V30 105 H 11.0076 -0.985672 -1.24379 0
M  V30 106 H 11.0286 -0.0651928 -3.80444 0
M  V30 107 H 10.5406 -1.84747 -3.41307 0
M  V30 108 H 8.6416 0.604158 -3.67669 0
M  V30 109 H 8.7546 -0.985299 -4.68859 0
M  V30 110 H 7.1186 -0.428734 -2.51066 0
M  V30 111 H 7.9016 -2.08616 -2.72643 0
M  V30 112 N 10.3467 1.47872 -0.545128 0
M  V30 113 C 11.5767 2.06589 -0.0210534 0
M  V30 114 C 11.9847 1.39997 1.27269 0
M  V30 115 O 11.3277 0.486421 1.77143 0
M  V30 116 C 11.3897 3.58574 0.257933 0
M  V30 117 C 11.0537 4.47132 -0.944573 0
M  V30 118 C 12.0507 4.85986 -1.84699 0
M  V30 119 C 9.7357 4.88821 -1.15584 0
M  V30 120 C 11.7297 5.65314 -2.94446 0
M  V30 121 C 9.4167 5.67916 -2.25642 0
M  V30 122 C 10.4147 6.06073 -3.14905 0
M  V30 123 O 10.1027 6.83578 -4.23057 0
M  V30 124 H 9.8347 0.674971 -0.0372899 0
M  V30 125 H 12.3887 1.91037 -0.754599 0
M  V30 126 H 10.6187 3.72295 1.04564 0
M  V30 127 H 12.3077 3.99356 0.72592 0
M  V30 128 H 13.0737 4.54388 -1.69577 0
M  V30 129 H 8.9527 4.58595 -0.470279 0
M  V30 130 H 12.4967 5.95016 -3.64145 0
M  V30 131 H 8.3937 5.98927 -2.40742 0
M  V30 132 H 9.1617 7.01954 -4.20954 0
M  V30 133 N 11.8248 0.280983 1.55075 0
M  V30 134 C 13.0528 -0.337293 2.04132 0
M  V30 135 C 13.4678 -1.4903 1.15912 0
M  V30 136 O 12.8248 -1.81606 0.180459 0
M  V30 137 C 12.8758 -0.812706 3.52246 0
M  V30 138 O 12.5968 0.294387 4.3711 0
M  V30 139 C 14.0978 -1.4982 4.17216 0
M  V30 140 H 11.3178 -0.0761638 0.666663 0
M  V30 141 H 13.8618 0.414787 2.00249 0
M  V30 142 H 12.0168 -1.51486 3.56554 0
M  V30 143 H 12.4308 -0.0721325 5.2445 0
M  V30 144 H 13.9048 -1.7822 5.22438 0
M  V30 145 H 14.3818 -2.43168 3.65741 0
M  V30 146 H 14.9878 -0.839742 4.16927 0
M  V30 147 N 13.3029 -1.57598 0.00835791 0
M  V30 148 C 14.2129 -2.12385 -0.996487 0
M  V30 149 C 15.2289 -1.07108 -1.37127 0
M  V30 150 O 16.4049 -1.39055 -1.4569 0
M  V30 151 C 13.4699 -2.62314 -2.26699 0
M  V30 152 C 12.5309 -3.82225 -1.95456 0
M  V30 153 C 11.7639 -4.29763 -3.16449 0
M  V30 154 O 11.9869 -3.76584 -4.28416 0
M  V30 155 O 10.9209 -5.21832 -2.99958 0
M  V30 156 H 14.7469 -2.98479 -0.560725 0
M  V30 157 H 12.3319 -1.47903 -0.210987 0
M  V30 158 H 14.2139 -2.94589 -3.01322 0
M  V30 159 H 12.8889 -1.79313 -2.69497 0
M  V30 160 H 11.7959 -3.54909 -1.18282 0
M  V30 161 H 13.1289 -4.66324 -1.57489 0
M  V30 162 N 14.781 0.264519 -1.55364 0
M  V30 163 C 15.744 1.31046 -1.88042 0
M  V30 164 C 16.744 1.41943 -0.755569 0
M  V30 165 O 17.934 1.40947 -1.02369 0
M  V30 166 C 15.066 2.69067 -2.09323 0
M  V30 167 H 16.259 1.03297 -2.81549 0
M  V30 168 H 13.812 0.502989 -1.47986 0
M  V30 169 H 14.547 3.01982 -1.18226 0
M  V30 170 H 14.332 2.62542 -2.91229 0
M  V30 171 H 15.822 3.44623 -2.35848 0
M  V30 172 N 16.2591 1.48442 0.529413 0
M  V30 173 C 17.2221 1.62524 1.61612 0
M  V30 174 C 18.2221 0.498509 1.52877 0
M  V30 175 O 19.4121 0.76431 1.56537 0
M  V30 176 C 16.5441 1.59597 3.01233 0
M  V30 177 H 17.7371 2.59423 1.50465 0
M  V30 178 H 15.2901 1.37047 0.751514 0
M  V30 179 H 16.0251 0.641781 3.17886 0
M  V30 180 H 15.8101 2.41397 3.08982 0
M  V30 181 H 17.3001 1.72646 3.80241 0
M  V30 182 N 17.7372 -0.778329 1.37039 0
M  V30 183 C 18.9622 -1.57248 1.35233 0
M  V30 184 C 19.3872 -1.87999 -0.0615568 0
M  V30 185 O 18.7452 -1.48734 -1.03672 0
M  V30 186 C 18.7932 -2.86353 2.19167 0
M  V30 187 O 17.8972 -3.80442 1.59178 0
M  V30 188 H 17.2382 -0.476569 0.462362 0
M  V30 189 H 19.7682 -0.963853 1.80474 0
M  V30 190 H 19.7782 -3.35519 2.32145 0
M  V30 191 H 18.4532 -2.63299 3.21942 0
M  V30 192 H 17.0302 -3.39067 1.55203 0
M  V30 193 N 19.2153 -1.21501 -1.00376 0
M  V30 194 C 20.1453 -0.999478 -2.11028 0
M  V30 195 C 21.1263 0.0759671 -1.6993 0
M  V30 196 O 22.3113 -0.0841106 -1.94018 0
M  V30 197 C 19.4413 -0.564709 -3.42678 0
M  V30 198 C 18.3953 -1.58486 -3.97576 0
M  V30 199 C 17.7213 -1.00628 -5.25146 0
M  V30 200 C 19.0213 -2.97204 -4.29496 0
M  V30 201 H 20.7153 -1.92495 -2.29317 0
M  V30 202 H 18.2613 -0.92693 -1.102 0
M  V30 203 H 20.2143 -0.401091 -4.19487 0
M  V30 204 H 18.9383 0.396411 -3.24185 0
M  V30 205 H 17.5973 -1.73606 -3.22888 0
M  V30 206 H 17.2453 -0.0368439 -5.02987 0
M  V30 207 H 16.9453 -1.68771 -5.62841 0
M  V30 208 H 18.4693 -0.854015 -6.04598 0
M  V30 209 H 19.8833 -2.8552 -4.97143 0
M  V30 210 H 18.2803 -3.62372 -4.78338 0
M  V30 211 H 19.3503 -3.47956 -3.3772 0
M  V30 212 N 20.6934 1.19889 -1.02296 0
M  V30 213 C 21.9184 1.9393 -0.735237 0
M  V30 214 C 22.3434 1.74639 0.698782 0
M  V30 215 O 21.7014 1.04481 1.48167 0
M  V30 216 C 21.7494 3.43916 -1.08417 0
M  V30 217 O 20.8534 4.11917 -0.199446 0
M  V30 218 H 20.1944 0.605645 -0.272196 0
M  V30 219 H 22.7244 1.52137 -1.36804 0
M  V30 220 H 22.7344 3.9456 -1.03856 0
M  V30 221 H 21.4094 3.5728 -2.12894 0
M  V30 222 H 19.9864 3.71666 -0.303136 0
M  V30 223 N 22.1715 0.800033 1.35784 0
M  V30 224 C 23.3995 0.389606 2.03199 0
M  V30 225 C 23.8145 -0.997375 1.60306 0
M  V30 226 O 23.1715 -1.64154 0.797481 0
M  V30 227 C 23.2225 0.455855 3.58614 0
M  V30 228 O 22.9435 1.78815 3.99946 0
M  V30 229 C 24.4445 0.0374032 4.43284 0
M  V30 230 H 21.6645 0.159132 0.651857 0
M  V30 231 H 24.2085 1.08183 1.73541 0
M  V30 232 H 22.3635 -0.188057 3.86943 0
M  V30 233 H 22.7775 1.74636 4.94573 0
M  V30 234 H 24.2515 0.134882 5.51835 0
M  V30 235 H 24.7285 -1.01651 4.27275 0
M  V30 236 H 25.3345 0.654215 4.20238 0
M  V30 237 N 23.6496 -1.47581 0.552962 0
M  V30 238 C 24.8976 -2.02082 0.0272703 0
M  V30 239 C 25.2186 -1.4301 -1.32563 0
M  V30 240 O 24.4886 -0.603745 -1.86365 0
M  V30 241 H 23.0686 -0.746966 0.00709182 0
M  V30 242 H 25.7306 -1.81033 0.722008 0
M  V30 243 H 24.8266 -3.12034 -0.0639951 0
M  V30 244 N 25.1277 -0.289203 -1.54924 0
M  V30 245 C 26.3527 0.329299 -2.04769 0
M  V30 246 C 26.7777 1.4763 -1.16564 0
M  V30 247 O 26.1357 1.80527 -0.167186 0
M  V30 248 C 26.1837 0.774438 -3.52186 0
M  V30 249 O 25.2877 1.88038 -3.67036 0
M  V30 250 H 24.6287 0.0659259 -0.660719 0
M  V30 251 H 27.1587 -0.42761 -2.00082 0
M  V30 252 H 27.1687 1.06642 -3.93816 0
M  V30 253 H 25.8437 -0.0646707 -4.1585 0
M  V30 254 H 24.4207 1.58985 -3.3731 0
M  V30 255 N 26.6058 1.57591 -0.0167156 0
M  V30 256 C 27.8338 1.95575 0.675128 0
M  V30 257 C 28.2488 0.892542 1.6637 0
M  V30 258 O 27.6058 -0.126912 1.82058 0
M  V30 259 C 27.6568 3.33608 1.39239 0
M  V30 260 O 27.3778 4.3585 0.443444 0
M  V30 261 C 28.8788 3.86151 2.17721 0
M  V30 262 H 26.0988 0.644423 0.186978 0
M  V30 263 H 28.6428 2.0437 -0.0728 0
M  V30 264 H 26.7978 3.2607 2.09182 0
M  V30 265 H 27.2118 5.158 0.951358 0
M  V30 266 H 28.6858 4.85114 2.63379 0
M  V30 267 H 29.1628 3.19738 3.01105 0
M  V30 268 H 29.7688 3.96918 1.52761 0
M  V30 269 N 28.0839 -0.256276 1.55502 0
M  V30 270 C 29.3299 -0.987079 1.77157 0
M  V30 271 C 29.6629 -1.85327 0.580315 0
M  V30 272 O 28.9379 -1.89874 -0.421686 0
M  V30 273 C 29.2209 -1.85553 3.08613 0
M  V30 274 C 29.0739 -1.01816 4.38125 0
M  V30 275 C 30.3929 -2.8397 3.36228 0
M  V30 276 H 27.5119 -0.357428 0.644526 0
M  V30 277 H 30.1539 -0.258239 1.88237 0
M  V30 278 H 28.3039 -2.47695 2.99298 0
M  V30 279 H 29.9759 -0.416159 4.59419 0
M  V30 280 H 28.2189 -0.322178 4.32602 0
M  V30 281 H 28.8899 -1.65939 5.26468 0
M  V30 282 H 31.3659 -2.31964 3.45445 0
M  V30 283 H 30.2419 -3.41864 4.29442 0
M  V30 284 H 30.5029 -3.59955 2.56681 0
M  V30 285 N 29.562 -1.4872 -0.521534 0
M  V30 286 C 30.79 -1.60843 -1.30142 0
M  V30 287 C 31.205 -0.271897 -1.86832 0
M  V30 288 O 30.562 0.739969 -1.66825 0
M  V30 289 C 30.613 -2.66155 -2.4463 0
M  V30 290 O 30.334 -3.94623 -1.90275 0
M  V30 291 C 31.835 -2.88795 -3.36322 0
M  V30 292 H 29.055 -0.542075 -0.395468 0
M  V30 293 H 31.599 -1.94609 -0.628285 0
M  V30 294 H 29.754 -2.35224 -3.07812 0
M  V30 295 H 30.168 -4.52468 -2.65279 0
M  V30 296 H 31.642 -3.66264 -4.12983 0
M  V30 297 H 32.119 -1.97934 -3.9207 0
M  V30 298 H 32.725 -3.21063 -2.78924 0
M  V30 299 N 31.0401 0.771051 -1.3745 0
M  V30 300 C 32.2891 1.52491 -1.3202 0
M  V30 301 C 32.6021 1.9538 0.0927347 0
M  V30 302 O 33.8081 2.70159 0.269503 0
M  V30 303 C 32.2641 2.75366 -2.31736 0
M  V30 304 C 31.8721 2.39573 -3.78562 0
M  V30 305 C 33.6161 3.53307 -2.35318 0
M  V30 306 C 31.5231 3.58954 -4.70007 0
M  V30 307 H 30.4531 0.572506 -0.490666 0
M  V30 308 H 33.1041 0.844474 -1.62914 0
M  V30 309 H 31.4861 3.45303 -1.93861 0
M  V30 310 H 32.6601 1.77415 -4.25277 0
M  V30 311 H 30.9751 1.74805 -3.77932 0
M  V30 312 H 33.5721 4.42039 -3.00842 0
M  V30 313 H 33.9151 3.93217 -1.36698 0
M  V30 314 H 34.4481 2.90367 -2.71904 0
M  V30 315 H 31.1871 3.24125 -5.69757 0
M  V30 316 H 30.7071 4.20214 -4.27996 0
M  V30 317 H 32.3861 4.25758 -4.87175 0
M  V30 318 N 32.5182 1.22032 0.997298 0
M  V30 319 C 33.4652 0.986467 2.08656 0
M  V30 320 C 34.4352 -0.0902671 1.65855 0
M  V30 321 O 35.6202 0.0584294 1.90711 0
M  V30 322 C 32.7602 0.565569 3.40434 0
M  V30 323 C 31.8732 1.71259 3.96604 0
M  V30 324 C 31.0082 1.24011 5.16522 0
M  V30 325 C 30.0472 2.35896 5.64818 0
M  V30 326 N 29.1842 1.89726 6.7598 0
M  V30 327 H 34.0242 1.91892 2.27994 0
M  V30 328 H 31.5612 0.956199 1.11782 0
M  V30 329 H 33.5192 0.302738 4.161 0
M  V30 330 H 32.1492 -0.329879 3.2111 0
M  V30 331 H 31.2012 2.08986 3.17851 0
M  V30 332 H 32.5132 2.55436 4.28432 0
M  V30 333 H 31.6672 0.934395 5.99461 0
M  V30 334 H 30.4062 0.368487 4.86306 0
M  V30 335 H 29.4112 2.67261 4.8047 0
M  V30 336 H 30.6362 3.23567 5.97061 0
M  V30 337 H 28.5822 1.0492 6.47555 0
M  V30 338 H 28.4992 2.67471 7.07103 0
M  V30 339 H 29.7672 1.62211 7.62435 0
M  V30 340 N 33.9963 -1.19345 1.0293 0
M  V30 341 C 35.2443 -1.88665 0.724574 0
M  V30 342 C 35.5653 -1.80036 -0.749144 0
M  V30 343 O 34.8353 -1.2111 -1.53978 0
M  V30 344 H 33.4153 -0.698406 0.265025 0
M  V30 345 H 36.0773 -1.44885 1.30362 0
M  V30 346 H 35.1733 -2.94987 1.01926 0
M  V30 347 N 35.4744 -0.807222 -1.35358 0
M  V30 348 C 36.8904 -0.491038 -1.51858 0
M  V30 349 C 37.0904 0.987648 -1.75635 0
M  V30 350 O 36.1464 1.77265 -1.79815 0
M  V30 351 C 37.4594 -1.33695 -2.69344 0
M  V30 352 C 39.0074 -1.33246 -2.83222 0
M  V30 353 C 39.4824 -2.1625 -4.03733 0
M  V30 354 N 40.9734 -2.1379 -4.10911 0
M  V30 355 C 41.7084 -2.74772 -5.03277 0
M  V30 356 N 41.2044 -3.44684 -6.0097 0
M  V30 357 N 42.9974 -2.6441 -4.96028 0
M  V30 358 H 35.1484 -1.76485 -1.18181 0
M  V30 359 H 37.4114 -0.751199 -0.578276 0
M  V30 360 H 37.1174 -2.38634 -2.58354 0
M  V30 361 H 36.9914 -0.990618 -3.6396 0
M  V30 362 H 39.3784 -0.290911 -2.93663 0
M  V30 363 H 39.4594 -1.71866 -1.89461 0
M  V30 364 H 39.1034 -3.20445 -3.94052 0
M  V30 365 H 39.0334 -1.74989 -4.96675 0
M  V30 366 H 41.5244 -1.62923 -3.40976 0
M  V30 367 H 41.8374 -3.88501 -6.68047 0
M  V30 368 H 40.1824 -3.48788 -6.01142 0
M  V30 369 H 43.3734 -2.0938 -4.18662 0
M  V30 370 H 43.5464 -3.12225 -5.6782 0
M  V30 371 N 36.9525 1.47285 -0.560781 0
M  V30 372 C 38.3635 1.86258 -0.128343 0
M  V30 373 C 38.7145 1.46699 1.30284 0
M  V30 374 O 37.8395 0.871698 1.98067 0
M  V30 375 C 38.4345 3.38044 -0.22614 0
M  V30 376 C 36.9935 3.76096 0.151283 0
M  V30 377 C 36.1405 2.71335 -0.572084 0
M  V30 378 H 39.0915 1.38752 -0.770297 0
M  V30 379 H 39.1125 3.76441 0.554322 0
M  V30 380 H 38.6245 3.66806 -1.26788 0
M  V30 381 H 36.7255 3.52951 1.19399 0
M  V30 382 H 36.8385 4.78641 -0.209765 0
M  V30 383 H 35.2025 2.54696 -0.0147653 0
M  V30 384 H 35.9855 3.02938 -1.61504 0
M  V30 385 N 38.4306 0.297415 1.54768 0
M  V30 386 C 39.3606 -0.573494 2.26348 0
M  V30 387 C 40.3416 -1.14085 1.26169 0
M  V30 388 O 41.5266 -1.17086 1.54934 0
M  V30 389 C 38.6566 -1.74716 3.00153 0
M  V30 390 C 37.6106 -1.31032 4.07449 0
M  V30 391 C 36.9366 -2.56887 4.68949 0
M  V30 392 C 38.2366 -0.444183 5.20408 0
M  V30 393 H 39.9306 0.0235131 2.99391 0
M  V30 394 H 37.4766 0.0127488 1.43994 0
M  V30 395 H 39.4296 -2.3625 3.48947 0
M  V30 396 H 38.1536 -2.37035 2.24682 0
M  V30 397 H 36.8126 -0.718066 3.59499 0
M  V30 398 H 36.4606 -3.17512 3.90122 0
M  V30 399 H 36.1606 -2.2836 5.41411 0
M  V30 400 H 37.6846 -3.19229 5.20505 0
M  V30 401 H 39.0986 -0.9651 5.65118 0
M  V30 402 H 37.4956 -0.252846 5.99567 0
M  V30 403 H 38.5656 0.531609 4.81977 0
M  V30 404 N 39.9087 -1.5758 0.0250728 0
M  V30 405 C 40.8717 -2.08896 -0.943139 0
M  V30 406 C 41.8717 -1.00321 -1.25668 0
M  V30 407 O 43.0617 -1.26495 -1.19769 0
M  V30 408 C 40.1937 -2.55143 -2.26086 0
M  V30 409 H 41.3867 -2.95723 -0.498775 0
M  V30 410 H 38.9397 -1.54703 -0.222888 0
M  V30 411 H 39.6747 -1.71633 -2.75159 0
M  V30 412 H 39.4597 -3.34461 -2.04641 0
M  V30 413 H 40.9497 -2.95083 -2.95492 0
M  V30 414 N 41.3868 0.248026 -1.55636 0
M  V30 415 C 42.6268 0.983592 -1.79178 0
M  V30 416 C 42.9908 1.82567 -0.594414 0
M  V30 417 O 44.1918 2.59292 -0.708583 0
M  V30 418 C 42.4628 1.82228 -3.07454 0
M  V30 419 S 44.0218 2.61709 -3.52213 0
M  V30 420 H 40.8398 0.330866 -0.629324 0
M  V30 421 H 43.4418 0.251562 -1.93875 0
M  V30 422 H 42.1458 1.19333 -3.92668 0
M  V30 423 H 41.6768 2.59708 -2.95492 0
M  V30 424 H 43.6918 3.84655 -3.13457 0
M  V30 425 N 42.8649 1.48995 0.513639 0
M  V30 426 C 44.1119 1.57843 1.26854 0
M  V30 427 C 44.4399 0.259501 1.92761 0
M  V30 428 O 43.6949 -0.75159 1.80692 0
M  V30 429 C 43.9939 2.67756 2.36731 0
M  V30 430 C 43.6599 4.09669 1.88368 0
M  V30 431 C 42.3219 4.48291 1.74896 0
M  V30 432 C 44.6739 4.98537 1.52021 0
M  V30 433 C 42.0019 5.73568 1.23438 0
M  V30 434 C 44.3539 6.24319 1.0202 0
M  V30 435 C 43.0179 6.61783 0.871778 0
M  V30 436 H 42.2879 0.577587 0.464192 0
M  V30 437 H 44.9349 1.82778 0.571366 0
M  V30 438 H 43.2399 2.36743 3.12185 0
M  V30 439 H 44.9369 2.71813 2.9482 0
M  V30 440 H 41.5269 3.79176 1.99808 0
M  V30 441 H 45.7109 4.69363 1.61281 0
M  V30 442 H 40.9669 6.01304 1.10648 0
M  V30 443 H 45.1409 6.92566 0.729722 0
M  V30 444 H 42.7679 7.5874 0.470852 0
M  V30 445 N 44.343 -0.763751 1.37857 0
M  V30 446 C 45.273 -1.89103 1.36975 0
M  V30 447 C 46.254 -1.68439 0.237152 0
M  V30 448 O 47.439 -1.8918 0.438713 0
M  V30 449 C 44.569 -3.26496 1.18395 0
M  V30 450 C 43.523 -3.61741 2.28751 0
M  V30 451 C 42.849 -4.97762 1.95286 0
M  V30 452 C 44.149 -3.67665 3.70972 0
M  V30 453 H 45.843 -1.90099 2.31307 0
M  V30 454 H 43.389 -0.91319 1.11341 0
M  V30 455 H 45.342 -4.05003 1.16406 0
M  V30 456 H 44.066 -3.25955 0.205215 0
M  V30 457 H 42.725 -2.85547 2.29909 0
M  V30 458 H 42.373 -4.93769 0.959221 0
M  V30 459 H 42.073 -5.22313 2.69189 0
M  V30 460 H 43.597 -5.7866 1.94898 0
M  V30 461 H 45.011 -4.36307 3.719 0
M  V30 462 H 43.408 -4.03718 4.43995 0
M  V30 463 H 44.478 -2.68134 4.0402 0
M  V30 464 N 45.8211 -1.22559 -0.990812 0
M  V30 465 C 46.7691 -0.994798 -2.10253 0
M  V30 466 C 47.7631 0.0627798 -1.69284 0
M  V30 467 O 48.9691 -0.0898392 -1.79776 0
M  V30 468 H 45.3441 -0.304527 -0.687581 0
M  V30 469 H 47.3151 -1.93812 -2.26891 0
M  V30 470 C 46.0641 -0.591439 -3.42633 0
M  V30 471 H 45.3871 -1.3969 -3.74602 0
M  V30 472 H 46.8271 -0.469385 -4.21394 0
M  V30 473 C 45.2861 0.699232 -3.29564 0
M  V30 474 O 45.8161 1.75112 -3.61523 0
M  V30 475 N 44.0221 0.671182 -2.82743 0
M  V30 476 H 43.5691 -0.185136 -2.56934 0
M  V30 477 H 43.5271 1.53502 -2.7438 0
M  V30 478 N 47.2992 1.18797 -1.03562 0
M  V30 479 C 48.2092 2.25913 -0.632505 0
M  V30 480 C 49.2252 1.70668 0.338882 0
M  V30 481 O 50.4012 2.00453 0.195076 0
M  V30 482 C 47.4662 3.467 0.00350942 0
M  V30 483 C 46.5272 4.17098 -1.01624 0
M  V30 484 C 45.7602 5.32119 -0.410478 0
M  V30 485 O 45.9832 5.64976 0.784725 0
M  V30 486 O 44.9172 5.9107 -1.13667 0
M  V30 487 H 48.7432 2.62648 -1.52478 0
M  V30 488 H 46.3282 1.25781 -0.806195 0
M  V30 489 H 48.2102 4.19878 0.35781 0
M  V30 490 H 46.8852 3.11798 0.869686 0
M  V30 491 H 45.7922 3.4601 -1.42224 0
M  V30 492 H 47.1252 4.55987 -1.85301 0
M  V30 493 N 48.7773 0.814389 1.34928 0
M  V30 494 C 50.1883 0.458364 1.80986 0
M  V30 495 C 50.5393 -1.02042 1.67577 0
M  V30 496 O 49.6643 -1.79352 1.21086 0
M  V30 497 C 50.2593 0.825212 3.28597 0
M  V30 498 C 48.8183 0.521677 3.72767 0
M  V30 499 C 47.9653 1.04668 2.56788 0
M  V30 500 H 50.9163 1.00533 1.22795 0
M  V30 501 H 50.9373 0.12571 3.80292 0
M  V30 502 H 50.4493 1.90154 3.38324 0
M  V30 503 H 48.5503 -0.545589 3.68584 0
M  V30 504 H 48.6633 1.05977 4.67232 0
M  V30 505 H 47.0273 0.468622 2.50352 0
M  V30 506 H 47.8103 2.12927 2.6929 0
M  V30 507 N 50.2554 -1.46986 0.568584 0
M  V30 508 C 51.4854 -2.0653 0.0539173 0
M  V30 509 C 51.8934 -1.42004 -1.25026 0
M  V30 510 O 51.2364 -0.514541 -1.76347 0
M  V30 511 C 51.2984 -3.58938 -0.200854 0
M  V30 512 C 50.9624 -4.45572 1.01559 0
M  V30 513 C 51.9594 -4.82986 1.92407 0
M  V30 514 C 49.6444 -4.8692 1.23346 0
M  V30 515 C 51.6384 -5.60559 3.03402 0
M  V30 516 C 49.3254 -5.64255 2.34649 0
M  V30 517 C 50.3234 -6.00986 3.24507 0
M  V30 518 O 50.0114 -6.76761 4.33878 0
M  V30 519 H 49.7434 -0.674292 0.0480234 0
M  V30 520 H 52.2974 -1.89812 0.784896 0
M  V30 521 H 50.5274 -3.73911 -0.986279 0
M  V30 522 H 52.2164 -4.0046 -0.662294 0
M  V30 523 H 52.9824 -4.51633 1.76785 0
M  V30 524 H 48.8614 -4.57789 0.543178 0
M  V30 525 H 52.4054 -5.89147 3.73565 0
M  V30 526 H 48.3024 -5.95021 2.5024 0
M  V30 527 H 49.0704 -6.95168 4.32068 0
M  V30 528 N 51.7335 -0.305618 -1.54608 0
M  V30 529 C 52.6635 0.561482 -2.26649 0
M  V30 530 C 53.6445 1.13415 -1.26772 0
M  V30 531 O 54.8295 1.16262 -1.55553 0
M  V30 532 C 51.9595 1.73122 -3.01075 0
M  V30 533 C 50.9135 1.2887 -4.08138 0
M  V30 534 C 50.2395 2.54396 -4.70305 0
M  V30 535 C 51.5395 0.416578 -5.20636 0
M  V30 536 H 53.2335 -0.0393902 -2.99374 0
M  V30 537 H 50.7795 -0.020385 -1.43986 0
M  V30 538 H 52.7325 2.34396 -3.50195 0
M  V30 539 H 51.4565 2.3584 -2.25936 0
M  V30 540 H 50.1155 0.698991 -3.59875 0
M  V30 541 H 49.7635 3.15439 -3.918 0
M  V30 542 H 49.4635 2.25486 -5.42614 0
M  V30 543 H 50.9875 3.16464 -5.2219 0
M  V30 544 H 52.4015 0.935116 -5.65622 0
M  V30 545 H 50.7985 0.221046 -5.99693 0
M  V30 546 H 51.8685 -0.557162 -4.81688 0
M  V30 547 N 53.2116 1.57565 -0.0334293 0
M  V30 548 C 54.1436 2.0739 0.975811 0
M  V30 549 C 55.1566 0.998166 1.2861 0
M  V30 550 O 56.3456 1.27426 1.25 0
M  V30 551 C 53.4456 2.4871 2.30209 0
M  V30 552 C 52.6186 3.79413 2.17634 0
M  V30 553 C 51.6776 4.07237 3.33233 0
M  V30 554 O 50.7036 4.77425 3.09927 0
M  V30 555 N 51.9056 3.5775 4.5716 0
M  V30 556 H 54.6706 2.94598 0.55066 0
M  V30 557 H 52.2316 1.61173 0.15323 0
M  V30 558 H 54.2236 2.64413 3.06378 0
M  V30 559 H 52.7936 1.66845 2.64351 0
M  V30 560 H 52.0136 3.73465 1.26165 0
M  V30 561 H 53.3016 4.65038 2.0644 0
M  V30 562 H 52.6996 3.00976 4.78989 0
M  V30 563 H 51.2566 3.78724 5.30482 0
M  V30 564 N 54.6897 -0.239769 1.55765 0
M  V30 565 C 55.9357 -0.968234 1.78194 0
M  V30 566 C 56.2687 -1.84701 0.599938 0
M  V30 567 O 55.5437 -1.9031 -0.401524 0
M  V30 568 C 55.8267 -1.8227 3.10564 0
M  V30 569 C 55.6797 -0.971633 4.3918 0
M  V30 570 C 56.9987 -2.80388 3.39221 0
M  V30 571 H 54.1177 -0.350572 0.648281 0
M  V30 572 H 56.7597 -0.238259 1.885 0
M  V30 573 H 54.9097 -2.44507 3.01908 0
M  V30 574 H 56.5817 -0.367408 4.59835 0
M  V30 575 H 54.8247 -0.276276 4.32919 0
M  V30 576 H 55.4957 -1.60346 5.28198 0
M  V30 577 H 57.9717 -2.28287 3.47885 0
M  V30 578 H 56.8477 -3.3729 4.33044 0
M  V30 579 H 57.1087 -3.57212 2.60484 0
M  V30 580 N 56.1678 -1.49265 -0.50573 0
M  V30 581 C 57.4448 -1.49012 -1.26707 0
M  V30 582 C 57.8248 -0.215205 -2.1 0
M  V30 583 O 57.1728 0.802547 -2.13943 0
M  V30 584 C 57.3828 -2.7663 -2.12783 0
M  V30 585 C 58.7308 -3.25932 -2.72127 0
M  V30 586 O 59.7548 -2.77715 -2.23054 0
M  V30 587 O 58.6138 -4.09897 -3.61451 0
M  V30 588 H 55.7078 -0.596197 -0.57313 0
M  V30 589 H 58.2538 -1.61524 -0.52039 0
M  V30 590 H 57.0258 -3.60916 -1.5118 0
M  V30 591 H 56.6488 -2.66956 -2.94653 0
M  V30 592 N 57.6459 0.756429 -1.3826 0
M  V30 593 C 58.8929 1.51547 -1.34312 0
M  V30 594 C 59.2209 1.94382 0.0677144 0
M  V30 595 O 58.4759 1.65514 1.04421 0
M  V30 596 C 58.7749 2.78313 -2.24224 0
M  V30 597 C 58.4409 2.54455 -3.72241 0
M  V30 598 C 57.1029 2.47657 -4.12576 0
M  V30 599 C 59.4549 2.3354 -4.65949 0
M  V30 600 C 56.7829 2.17956 -5.44713 0
M  V30 601 C 59.1349 2.05359 -5.9834 0
M  V30 602 C 57.7989 1.97016 -6.37762 0
M  V30 603 H 57.0689 0.55455 -0.491482 0
M  V30 604 H 59.7159 0.870039 -1.70595 0
M  V30 605 H 58.0209 3.47492 -1.80987 0
M  V30 606 H 59.7179 3.36259 -2.18474 0
M  V30 607 H 56.3079 2.60616 -3.40261 0
M  V30 608 H 60.4919 2.37772 -4.35635 0
M  V30 609 H 55.7479 2.10003 -5.74203 0
M  V30 610 H 59.9219 1.88179 -6.70494 0
M  V30 611 H 57.5489 1.73766 -7.40074 0
M  V30 612 N 59.124 1.23083 0.984299 0
M  V30 613 C 60.074 0.975749 2.06066 0
M  V30 614 C 61.058 -0.0768251 1.60716 0
M  V30 615 O 62.25 0.134805 1.76486 0
M  V30 616 C 59.379 0.564673 3.38624 0
M  V30 617 C 58.465 1.65244 3.90583 0
M  V30 618 N 58.856 2.88193 4.15666 0
M  V30 619 C 57.154 1.52612 4.19077 0
M  V30 620 C 57.855 3.58593 4.58024 0
M  V30 621 N 56.831 2.86093 4.62225 0
M  V30 622 H 60.633 1.90957 2.23411 0
M  V30 623 H 58.147 1.12963 1.16675 0
M  V30 624 H 60.144 0.36322 4.15315 0
M  V30 625 H 58.804 -0.362147 3.22674 0
M  V30 626 H 59.815 3.24537 4.03604 0
M  V30 627 H 56.492 0.666121 4.12152 0
M  V30 628 H 57.882 4.63974 4.85982 0
M  V30 629 N 60.6021 -1.18246 1.0419 0
M  V30 630 C 61.8301 -1.92195 0.766072 0
M  V30 631 C 62.2451 -1.76247 -0.676933 0
M  V30 632 O 61.6021 -1.09293 -1.46155 0
M  V30 633 C 61.6531 -3.43568 1.12442 0
M  V30 634 O 61.3741 -3.59015 2.51078 0
M  V30 635 C 62.8751 -4.34613 0.873275 0
M  V30 636 H 60.0951 -0.610114 0.279288 0
M  V30 637 H 62.6391 -1.50007 1.38989 0
M  V30 638 H 60.7941 -3.8354 0.545542 0
M  V30 639 H 61.2081 -4.5273 2.64831 0
M  V30 640 H 62.6821 -5.39374 1.17385 0
M  V30 641 H 63.1591 -4.38781 -0.191909 0
M  V30 642 H 63.7651 -4.00341 1.43551 0
M  V30 643 N 62.0802 -0.821533 -1.34494 0
M  V30 644 C 62.9902 -0.244355 -2.33324 0
M  V30 645 C 64.0062 0.620527 -1.62559 0
M  V30 646 O 65.1822 0.528754 -1.94335 0
M  V30 647 C 62.2472 0.585368 -3.41723 0
M  V30 648 C 61.3082 -0.301752 -4.28238 0
M  V30 649 C 60.5412 0.488466 -5.3146 0
M  V30 650 O 60.7642 1.72186 -5.4379 0
M  V30 651 O 59.6982 -0.12848 -6.01763 0
M  V30 652 H 63.5242 -1.06231 -2.84515 0
M  V30 653 H 61.1092 -0.583645 -1.37528 0
M  V30 654 H 62.9912 1.05747 -4.07916 0
M  V30 655 H 61.6662 1.38068 -2.92778 0
M  V30 656 H 60.5732 -0.821315 -3.64973 0
M  V30 657 H 61.9062 -1.06138 -4.8062 0
M  V30 658 N 63.5583 1.46682 -0.576371 0
M  V30 659 C 64.4913 2.27243 0.208731 0
M  V30 660 C 65.4693 1.35238 0.902746 0
M  V30 661 O 66.6533 1.64641 0.917904 0
M  V30 662 C 63.7803 3.12802 1.29896 0
M  V30 663 C 62.8263 4.20524 0.711457 0
M  V30 664 S 63.6593 5.33548 -0.456781 0
M  V30 665 C 64.8153 6.22673 0.634798 0
M  V30 666 H 65.0483 2.93484 -0.474838 0
M  V30 667 H 62.5813 1.50069 -0.363118 0
M  V30 668 H 64.5393 3.62661 1.92321 0
M  V30 669 H 63.2003 2.45887 1.95444 0
M  V30 670 H 62.3933 4.80191 1.53076 0
M  V30 671 H 61.9953 3.73645 0.162999 0
M  V30 672 H 64.2873 6.60181 1.52209 0
M  V30 673 H 65.2303 7.0806 0.0750311 0
M  V30 674 H 65.6383 5.56684 0.936092 0
M  V30 675 N 65.0364 0.313813 1.54444 0
M  V30 676 C 65.9834 -0.55655 2.23989 0
M  V30 677 C 66.9534 -1.11943 1.22711 0
M  V30 678 O 68.1384 -1.16158 1.51367 0
M  V30 679 C 65.2784 -1.71635 2.99392 0
M  V30 680 C 64.3914 -1.18364 4.15468 0
M  V30 681 C 63.5264 -2.30834 4.78424 0
M  V30 682 C 62.5654 -1.74762 5.86622 0
M  V30 683 N 61.7024 -2.80855 6.43479 0
M  V30 684 H 66.5424 0.0430893 2.97969 0
M  V30 685 H 64.0794 0.0330359 1.47063 0
M  V30 686 H 66.0374 -2.39868 3.41349 0
M  V30 687 H 64.6674 -2.28742 2.27765 0
M  V30 688 H 63.7194 -0.393163 3.78363 0
M  V30 689 H 65.0314 -0.733262 4.93381 0
M  V30 690 H 64.1854 -3.0699 5.23299 0
M  V30 691 H 62.9244 -2.79204 3.99871 0
M  V30 692 H 61.9294 -0.970995 5.41158 0
M  V30 693 H 63.1544 -1.2728 6.67066 0
M  V30 694 H 61.1004 -3.28535 5.67804 0
M  V30 695 H 61.0174 -2.40351 7.16776 0
M  V30 696 H 62.2854 -3.5687 6.93011 0
M  V30 697 N 66.5145 -1.57545 0.0417849 0
M  V30 698 C 67.4245 -2.14451 -0.951213 0
M  V30 699 C 68.4405 -1.09992 -1.34825 0
M  V30 700 O 69.6165 -1.42114 -1.42708 0
M  V30 701 C 66.6815 -2.67063 -2.21084 0
M  V30 702 C 65.7425 -3.86284 -1.87304 0
M  V30 703 C 64.9755 -4.36378 -3.07261 0
M  V30 704 O 65.1985 -3.85587 -4.20332 0
M  V30 705 O 64.1325 -5.28077 -2.88822 0
M  V30 706 H 67.9585 -2.99601 -0.497287 0
M  V30 707 H 65.5435 -1.48317 -0.179567 0
M  V30 708 H 67.4255 -3.00914 -2.95006 0
M  V30 709 H 66.1005 -1.84989 -2.65633 0
M  V30 710 H 65.0075 -3.57338 -1.10727 0
M  V30 711 H 66.3405 -4.6956 -1.47562 0
M  V30 712 N 67.9926 0.231505 -1.5589 0
M  V30 713 C 68.9026 1.308 -1.94752 0
M  V30 714 C 69.9186 1.51826 -0.849989 0
M  V30 715 O 71.0946 1.6515 -1.15271 0
M  V30 716 C 68.1596 2.63968 -2.24771 0
M  V30 717 C 67.2206 2.51331 -3.48039 0
M  V30 718 C 66.4536 3.78148 -3.76616 0
M  V30 719 O 66.6766 4.80722 -3.07022 0
M  V30 720 O 65.6106 3.75857 -4.70123 0
M  V30 721 H 69.4366 1.0083 -2.86474 0
M  V30 722 H 67.0216 0.433547 -1.42971 0
M  V30 723 H 68.9036 3.42633 -2.45318 0
M  V30 724 H 67.5786 2.9364 -1.36225 0
M  V30 725 H 66.4856 1.709 -3.32782 0
M  V30 726 H 67.8186 2.26601 -4.36936 0
M  V30 727 N 69.4707 1.49531 0.497807 0
M  V30 728 C 70.6957 1.63159 1.28039 0
M  V30 729 C 71.1207 0.30418 1.85624 0
M  V30 730 O 70.4787 -0.728618 1.66015 0
M  V30 731 C 70.5267 2.70537 2.38416 0
M  V30 732 O 69.6307 2.29931 3.42353 0
M  V30 733 H 68.9717 0.546001 0.377861 0
M  V30 734 H 71.5017 1.9574 0.59558 0
M  V30 735 H 71.5117 2.92802 2.84132 0
M  V30 736 H 70.1867 3.6689 1.95869 0
M  V30 737 H 68.7637 2.18009 3.02533 0
M  V30 738 N 70.9488 -0.749086 1.3866 0
M  V30 739 C 72.2258 -1.4992 1.25632 0
M  V30 740 C 72.6058 -2.10633 -0.140317 0
M  V30 741 O 71.9538 -1.97437 -1.15025 0
M  V30 742 C 72.1638 -2.56195 2.36992 0
M  V30 743 C 73.5118 -3.22972 2.75634 0
M  V30 744 O 74.5358 -2.66502 2.36337 0
M  V30 745 O 73.3948 -4.25122 3.43415 0
M  V30 746 H 70.4888 -0.665067 0.491544 0
M  V30 747 H 73.0348 -0.784113 1.50498 0
M  V30 748 H 71.8068 -2.09612 3.30422 0
M  V30 749 H 71.4298 -3.35279 2.13714 0
M  V30 750 N 72.4269 -1.23603 -0.977757 0
M  V30 751 C 73.6759 -1.06377 -1.71368 0
M  V30 752 C 73.9889 0.399062 -1.91486 0
M  V30 753 O 75.1949 0.691312 -2.62551 0
M  V30 754 C 73.6509 -1.85512 -3.08404 0
M  V30 755 C 73.2589 -3.36141 -2.96164 0
M  V30 756 C 75.0029 -1.76783 -3.85938 0
M  V30 757 C 72.9099 -4.07659 -4.28449 0
M  V30 758 H 71.8399 -0.394452 -0.642591 0
M  V30 759 H 74.4909 -1.47594 -1.09034 0
M  V30 760 H 72.8729 -1.37103 -3.71509 0
M  V30 761 H 74.0469 -3.92056 -2.42133 0
M  V30 762 H 72.3619 -3.45712 -2.32104 0
M  V30 763 H 74.9589 -2.27526 -4.83876 0
M  V30 764 H 75.3019 -0.731116 -4.0983 0
M  V30 765 H 75.8349 -2.22818 -3.2954 0
M  V30 766 H 72.5739 -5.11648 -4.09752 0
M  V30 767 H 72.0939 -3.5653 -4.82334 0
M  V30 768 H 73.7729 -4.141 -4.97122 0
M  V30 769 N 73.905 1.17692 -1.04816 0
M  V30 770 C 75.151 1.88137 -0.75711 0
M  V30 771 C 75.484 1.80604 0.713841 0
M  V30 772 O 74.759 1.21146 1.52164 0
M  V30 773 C 75.042 3.38318 -1.2334 0
M  V30 774 C 74.895 3.54622 -2.76701 0
M  V30 775 C 76.214 4.32214 -0.829415 0
M  V30 776 H 73.333 0.683163 -0.27651 0
M  V30 777 H 75.975 1.38424 -1.30149 0
M  V30 778 H 74.125 3.80787 -0.770286 0
M  V30 779 H 75.797 3.21194 -3.31107 0
M  V30 780 H 74.04 2.97026 -3.16161 0
M  V30 781 H 74.711 4.60028 -3.05088 0
M  V30 782 H 77.187 3.97565 -1.22805 0
M  V30 783 H 76.063 5.35838 -1.19033 0
M  V30 784 H 76.324 4.41294 0.266891 0
M  V30 785 N 75.3831 0.828654 1.34056 0
M  V30 786 C 76.6301 0.419458 1.98108 0
M  V30 787 C 76.9581 -1.01886 1.65679 0
M  V30 788 O 76.2131 -1.72539 0.923512 0
M  V30 789 C 76.5121 0.575226 3.52741 0
M  V30 790 C 76.1781 1.98012 4.05095 0
M  V30 791 C 74.8401 2.36442 4.19104 0
M  V30 792 C 77.1921 2.89824 4.33188 0
M  V30 793 C 74.5201 3.66009 4.58535 0
M  V30 794 C 76.8721 4.1886 4.74066 0
M  V30 795 C 75.5361 4.5726 4.86281 0
M  V30 796 H 74.8061 0.153491 0.724929 0
M  V30 797 H 77.4531 1.05371 1.59904 0
M  V30 798 H 75.7581 -0.142385 3.91541 0
M  V30 799 H 77.4551 0.239057 4.00287 0
M  V30 800 H 74.0451 1.67162 3.94658 0
M  V30 801 H 78.2291 2.61375 4.21897 0
M  V30 802 H 73.4851 3.95579 4.66184 0
M  V30 803 H 77.6591 4.90086 4.94761 0
M  V30 804 H 75.2861 5.57707 5.16592 0
M  V30 805 N 76.8612 -1.46375 0.584142 0
M  V30 806 C 77.8112 -2.27371 -0.169232 0
M  V30 807 C 78.7952 -1.35955 -0.860523 0
M  V30 808 O 79.9872 -1.60119 -0.754382 0
M  V30 809 C 77.1162 -3.22334 -1.18134 0
M  V30 810 C 76.2022 -4.21235 -0.492088 0
M  V30 811 N 76.5932 -5.03766 0.453129 0
M  V30 812 C 74.8912 -4.39773 -0.742652 0
M  V30 813 C 75.5922 -5.75366 0.85609 0
M  V30 814 N 74.5682 -5.43214 0.204926 0
M  V30 815 H 78.3702 -2.88572 0.557097 0
M  V30 816 H 75.8842 -1.57242 0.406042 0
M  V30 817 H 77.8812 -3.79071 -1.73525 0
M  V30 818 H 76.5412 -2.62693 -1.90847 0
M  V30 819 H 77.5522 -5.11227 0.828723 0
M  V30 820 H 74.2292 -3.91279 -1.45625 0
M  V30 821 H 75.6192 -6.5172 1.63434 0
M  V30 822 N 78.3393 -0.321999 -1.54275 0
M  V30 823 C 79.5863 0.281044 -2.0054 0
M  V30 824 C 79.9143 1.52265 -1.21019 0
M  V30 825 O 79.1693 1.93687 -0.279982 0
M  V30 826 C 79.4683 0.661769 -3.5122 0
M  V30 827 C 79.1343 -0.480482 -4.48333 0
M  V30 828 C 77.7963 -0.794005 -4.74604 0
M  V30 829 C 80.1483 -1.24783 -5.06042 0
M  V30 830 C 77.4763 -1.87763 -5.55844 0
M  V30 831 C 79.8283 -2.32153 -5.88462 0
M  V30 832 C 78.4923 -2.64089 -6.13036 0
M  V30 833 H 77.7623 0.102841 -0.733829 0
M  V30 834 H 80.4093 -0.445453 -1.86247 0
M  V30 835 H 78.7143 1.46867 -3.63232 0
M  V30 836 H 80.4113 1.13989 -3.84457 0
M  V30 837 H 77.0013 -0.226039 -4.28004 0
M  V30 838 H 81.1853 -1.01887 -4.85729 0
M  V30 839 H 76.4413 -2.12954 -5.73115 0
M  V30 840 H 80.6153 -2.92057 -6.32199 0
M  V30 841 H 78.2423 -3.48185 -6.75775 0
M  V30 842 N 79.8174 1.5752 -0.0501392 0
M  V30 843 C 80.7494 2.08413 0.95376 0
M  V30 844 C 81.7624 1.01175 1.27544 0
M  V30 845 O 82.9514 1.28744 1.23641 0
M  V30 846 C 80.0514 2.51138 2.27559 0
M  V30 847 C 79.2244 3.817 2.13598 0
M  V30 848 C 78.2834 4.10749 3.28895 0
M  V30 849 O 77.3094 4.80685 3.04845 0
M  V30 850 N 78.5114 3.62579 4.5334 0
M  V30 851 H 81.2764 2.95165 0.519383 0
M  V30 852 H 78.8374 1.61327 0.136127 0
M  V30 853 H 80.8294 2.67648 3.03557 0
M  V30 854 H 79.3994 1.6964 2.62567 0
M  V30 855 H 78.6194 3.74782 1.22197 0
M  V30 856 H 79.9074 4.67201 2.01496 0
M  V30 857 H 79.3054 3.06039 4.75769 0
M  V30 858 H 77.8624 3.84329 5.26436 0
M  V30 859 N 81.2955 -0.223234 1.56011 0
M  V30 860 C 82.5415 -0.949279 1.79211 0
M  V30 861 C 82.8745 -1.84054 0.619494 0
M  V30 862 O 82.1495 -1.90726 -0.381317 0
M  V30 863 C 82.4325 -1.78965 3.12479 0
M  V30 864 C 82.2855 -0.924997 4.40186 0
M  V30 865 C 83.6045 -2.76774 3.42175 0
M  V30 866 H 80.7235 -0.343676 0.651963 0
M  V30 867 H 83.3655 -0.218253 1.88742 0
M  V30 868 H 81.5155 -2.41291 3.04485 0
M  V30 869 H 83.1875 -0.318615 4.60198 0
M  V30 870 H 81.4305 -0.230344 4.33188 0
M  V30 871 H 82.1015 -1.54735 5.29869 0
M  V30 872 H 84.5775 -2.24584 3.50287 0
M  V30 873 H 83.4535 -3.32678 4.36597 0
M  V30 874 H 83.7145 -3.54429 2.64258 0
M  V30 875 N 82.7736 -1.49793 -0.48987 0
M  V30 876 C 84.0136 -1.61466 -1.25332 0
M  V30 877 C 84.3776 -0.299688 -1.89647 0
M  V30 878 O 85.5786 -0.291687 -2.67213 0
M  V30 879 C 83.8496 -2.74944 -2.28343 0
M  V30 880 S 85.4086 -3.06637 -3.13878 0
M  V30 881 H 82.2266 -0.569411 -0.425784 0
M  V30 882 H 84.8286 -1.875 -0.553541 0
M  V30 883 H 83.5326 -3.68994 -1.79643 0
M  V30 884 H 83.0636 -2.50938 -3.02975 0
M  V30 885 H 85.0786 -2.49015 -4.29192 0
M  V30 886 N 84.2517 0.741722 -1.39055 0
M  V30 887 C 85.4987 1.50114 -1.35912 0
M  V30 888 C 85.8267 1.94443 0.0470937 0
M  V30 889 O 85.0817 1.66612 1.02659 0
M  V30 890 C 85.3807 2.7592 -2.27163 0
M  V30 891 C 85.0467 2.50493 -3.74919 0
M  V30 892 C 83.7087 2.43267 -4.1518 0
M  V30 893 C 86.0607 2.28585 -4.684 0
M  V30 894 C 83.3887 2.12166 -5.46994 0
M  V30 895 C 85.7407 1.99002 -6.00484 0
M  V30 896 C 84.4047 1.90241 -6.39816 0
M  V30 897 H 83.6747 0.549306 -0.497336 0
M  V30 898 H 86.3217 0.851896 -1.71508 0
M  V30 899 H 84.6267 3.45553 -1.84663 0
M  V30 900 H 86.3237 3.33923 -2.22028 0
M  V30 901 H 82.9137 2.56992 -3.43006 0
M  V30 902 H 87.0977 2.33139 -4.38132 0
M  V30 903 H 82.3537 2.03901 -5.76398 0
M  V30 904 H 86.5277 1.81057 -6.72452 0
M  V30 905 H 84.1547 1.65907 -7.41875 0
M  V30 906 N 85.7298 1.2412 0.971189 0
M  V30 907 C 86.9778 1.07668 1.71032 0
M  V30 908 C 87.2988 -0.385797 1.91146 0
M  V30 909 O 86.5688 -1.27569 1.4867 0
M  V30 910 H 85.1488 0.395429 0.633755 0
M  V30 911 H 87.8108 1.55984 1.16855 0
M  V30 912 H 86.9068 1.57195 2.69622 0
M  V30 913 N 87.2079 -1.17134 1.05439 0
M  V30 914 C 88.6239 -1.39454 0.776201 0
M  V30 915 C 88.8239 -1.91454 -0.628307 0
M  V30 916 O 87.8799 -2.10777 -1.39031 0
M  V30 917 C 89.1929 -2.38305 1.83388 0
M  V30 918 C 90.7409 -2.52006 1.85639 0
M  V30 919 C 91.2159 -3.54133 2.90437 0
M  V30 920 N 92.7069 -3.61653 2.89415 0
M  V30 921 C 93.4419 -4.4044 3.67152 0
M  V30 922 N 92.9379 -5.22721 4.54681 0
M  V30 923 N 94.7309 -4.35337 3.55581 0
M  V30 924 H 86.8819 -0.817134 1.96053 0
M  V30 925 H 89.1449 -0.421626 0.849079 0
M  V30 926 H 88.8509 -2.07173 2.84204 0
M  V30 927 H 88.7249 -3.37841 1.67761 0
M  V30 928 H 91.1119 -2.82447 0.85486 0
M  V30 929 H 91.1929 -1.52537 2.05344 0
M  V30 930 H 90.8369 -3.24431 3.90777 0
M  V30 931 H 90.7669 -4.53313 2.67983 0
M  V30 932 H 93.2579 -3.02909 2.25952 0
M  V30 933 H 93.5709 -5.80027 5.10674 0
M  V30 934 H 91.9159 -5.22093 4.58741 0
M  V30 935 H 95.1069 -3.70112 2.86592 0
M  V30 936 H 95.2799 -4.96494 4.1641 0
M  V30 937 N 88.686 -0.835752 -1.33615 0
M  V30 938 C 90.102 -0.523139 -1.50783 0
M  V30 939 C 90.302 0.950171 -1.77691 0
M  V30 940 O 89.358 1.73411 -1.83534 0
M  V30 941 C 90.671 -1.39378 -2.66448 0
M  V30 942 C 92.219 -1.39223 -2.80332 0
M  V30 943 C 92.694 -2.24765 -3.99055 0
M  V30 944 N 94.185 -2.22458 -4.06284 0
M  V30 945 C 94.92 -2.85386 -4.97336 0
M  V30 946 N 94.416 -3.57354 -5.93523 0
M  V30 947 N 96.209 -2.74872 -4.90308 0
M  V30 948 H 88.36 -1.78952 -1.14411 0
M  V30 949 H 90.623 -0.763297 -0.562212 0
M  V30 950 H 90.329 -2.44061 -2.53234 0
M  V30 951 H 90.203 -1.0676 -3.61776 0
M  V30 952 H 92.59 -0.353136 -2.92979 0
M  V30 953 H 92.671 -1.75846 -1.85773 0
M  V30 954 H 92.315 -3.28732 -3.87167 0
M  V30 955 H 92.245 -1.85485 -4.92852 0
M  V30 956 H 94.736 -1.70119 -3.37443 0
M  V30 957 H 95.049 -4.02584 -6.59656 0
M  V30 958 H 93.394 -3.61461 -5.93608 0
M  V30 959 H 96.585 -2.18213 -4.14126 0
M  V30 960 H 96.758 -3.24199 -5.61069 0
M  V30 961 N 90.1641 1.46063 -0.591896 0
M  V30 962 C 91.4101 2.02638 -0.0811191 0
M  V30 963 C 91.7431 1.4613 1.27905 0
M  V30 964 O 91.0181 0.629908 1.84017 0
M  V30 965 C 91.3011 3.60091 -0.0252436 0
M  V30 966 C 91.1541 4.26965 -1.41496 0
M  V30 967 C 92.4731 4.3496 0.670685 0
M  V30 968 H 89.5921 0.73635 -0.0309524 0
M  V30 969 H 92.2341 1.741 -0.760859 0
M  V30 970 H 90.3841 3.84535 0.553624 0
M  V30 971 H 92.0561 4.13756 -2.0397 0
M  V30 972 H 90.2991 3.85971 -1.98011 0
M  V30 973 H 90.9701 5.35781 -1.32825 0
M  V30 974 H 93.4461 4.15716 0.178825 0
M  V30 975 H 92.3221 5.44686 0.678837 0
M  V30 976 H 92.5831 4.06685 1.73379 0
M  V30 977 N 91.6422 0.330177 1.54103 0
M  V30 978 C 92.8882 -0.270806 2.00984 0
M  V30 979 C 93.2212 -1.51265 1.21789 0
M  V30 980 O 92.4962 -1.92142 0.301927 0
M  V30 981 C 92.7792 -0.598339 3.55094 0
M  V30 982 C 92.6322 0.654674 4.4501 0
M  V30 983 C 93.9512 -1.41334 4.16789 0
M  V30 984 H 91.0702 -0.0969531 0.730595 0
M  V30 985 H 93.7122 0.448066 1.84641 0
M  V30 986 H 91.8622 -1.21078 3.69151 0
M  V30 987 H 93.5342 1.29285 4.42813 0
M  V30 988 H 91.7772 1.28224 4.14416 0
M  V30 989 H 92.4482 0.380944 5.50684 0
M  V30 990 H 94.9242 -0.895597 4.06347 0
M  V30 991 H 93.8002 -1.61127 5.24718 0
M  V30 992 H 94.0612 -2.41146 3.70541 0
M  V30 993 N 93.1203 -1.57491 0.0584922 0
M  V30 994 C 94.0533 -2.07533 -0.948969 0
M  V30 995 C 95.0313 -0.977444 -1.29942 0
M  V30 996 O 96.2153 -1.2499 -1.41102 0
M  V30 997 C 93.3423 -2.52192 -2.2609 0
M  V30 998 C 92.3883 -3.73287 -2.06298 0
M  V30 999 S 93.2213 -5.18603 -1.33459 0
M  V30 1000 C 94.3773 -5.66583 -2.65959 0
M  V30 1001 H 94.6103 -2.92662 -0.523118 0
M  V30 1002 H 92.1433 -1.53631 -0.153954 0
M  V30 1003 H 94.1013 -2.78585 -3.01498 0
M  V30 1004 H 92.7623 -1.67356 -2.65802 0
M  V30 1005 H 91.9553 -4.0248 -3.03357 0
M  V30 1006 H 91.5573 -3.47199 -1.39029 0
M  V30 1007 H 93.8493 -5.72616 -3.62101 0
M  V30 1008 H 94.7923 -6.65684 -2.41393 0
M  V30 1009 H 95.2003 -4.94342 -2.72554 0
M  V30 1010 N 94.5984 0.214957 -1.56127 0
M  V30 1011 C 95.5464 1.28601 -1.93816 0
M  V30 1012 C 96.5404 1.48175 -0.821016 0
M  V30 1013 O 97.7464 1.49271 -1.0059 0
M  V30 1014 H 94.1214 0.431302 -0.616022 0
M  V30 1015 H 96.0924 0.940991 -2.83175 0
M  V30 1016 C 94.8414 2.62779 -2.27689 0
M  V30 1017 H 94.1644 2.48527 -3.13168 0
M  V30 1018 H 95.6044 3.36517 -2.57939 0
M  V30 1019 C 94.0634 3.18285 -1.10436 0
M  V30 1020 O 94.5934 4.00002 -0.368945 0
M  V30 1021 N 92.7994 2.7675 -0.886433 0
M  V30 1022 H 92.3464 2.10404 -1.48619 0
M  V30 1023 H 92.3044 3.14229 -0.103656 0
M  V30 1024 N 96.0765 1.50051 0.48192 0
M  V30 1025 C 97.3015 1.64508 1.26301 0
M  V30 1026 C 97.7265 0.323851 1.85291 0
M  V30 1027 O 97.0845 -0.710969 1.66778 0
M  V30 1028 C 97.1325 2.7305 2.35533 0
M  V30 1029 O 96.2365 2.3355 3.39895 0
M  V30 1030 H 95.5775 0.549978 0.372048 0
M  V30 1031 H 98.1075 1.9636 0.574786 0
M  V30 1032 H 98.1175 2.95799 2.8101 0
M  V30 1033 H 96.7925 3.68946 1.91967 0
M  V30 1034 H 95.3695 2.21205 3.00204 0
M  V30 1035 N 97.5546 -0.734337 1.39446 0
M  V30 1036 C 98.9706 -1.03997 1.21065 0
M  V30 1037 C 99.1706 -2.01369 0.0727019 0
M  V30 1038 O 98.2266 -2.45856 -0.575426 0
M  V30 1039 C 99.5396 -1.60163 2.54496 0
M  V30 1040 C 101.088 -1.7224 2.61347 0
M  V30 1041 C 101.563 -2.31814 3.95002 0
M  V30 1042 N 103.054 -2.39223 3.96644 0
M  V30 1043 C 103.789 -2.86258 4.96834 0
M  V30 1044 N 103.285 -3.33184 6.07421 0
M  V30 1045 N 105.078 -2.85473 4.84213 0
M  V30 1046 H 97.2286 -0.0885624 2.12215 0
M  V30 1047 H 99.4916 -0.10191 0.942506 0
M  V30 1048 H 99.1976 -0.960811 3.38321 0
M  V30 1049 H 99.0716 -2.5896 2.74262 0
M  V30 1050 H 101.459 -2.35443 1.77906 0
M  V30 1051 H 101.54 -0.720939 2.4543 0
M  V30 1052 H 101.184 -1.69238 4.78875 0
M  V30 1053 H 101.114 -3.32638 4.08239 0
M  V30 1054 H 103.605 -2.06057 3.16779 0
M  V30 1055 H 103.918 -3.67586 6.7978 0
M  V30 1056 H 102.263 -3.31191 6.11013 0
M  V30 1057 H 105.454 -2.48136 3.96921 0
M  V30 1058 H 105.627 -3.21814 5.62441 0
M  V30 1059 N 99.0327 -1.24633 -0.964593 0
M  V30 1060 C 99.9427 -1.05859 -2.09359 0
M  V30 1061 C 100.959 0.00148855 -1.74 0
M  V30 1062 O 102.135 -0.197346 -2.00431 0
M  V30 1063 C 99.1997 -0.668879 -3.40187 0
M  V30 1064 C 98.2607 -1.80578 -3.89474 0
M  V30 1065 C 97.4937 -1.43457 -5.14058 0
M  V30 1066 O 97.7167 -0.325775 -5.69469 0
M  V30 1067 O 96.6507 -2.2613 -5.57807 0
M  V30 1068 H 100.477 -2.00516 -2.28094 0
M  V30 1069 H 98.0617 -1.03481 -1.0776 0
M  V30 1070 H 99.9437 -0.463211 -4.18846 0
M  V30 1071 H 98.6187 0.248536 -3.22744 0
M  V30 1072 H 97.5257 -2.06623 -3.11862 0
M  V30 1073 H 98.8587 -2.70208 -4.11398 0
M  V30 1074 N 100.511 1.16574 -1.06058 0
M  V30 1075 C 101.741 1.90675 -0.795397 0
M  V30 1076 C 102.149 1.77547 0.653735 0
M  V30 1077 O 101.492 1.11611 1.45907 0
M  V30 1078 C 101.554 3.42011 -1.10764 0
M  V30 1079 C 101.218 3.78924 -2.55471 0
M  V30 1080 C 102.215 3.81042 -3.53699 0
M  V30 1081 C 99.8998 4.09626 -2.90708 0
M  V30 1082 C 101.894 4.13346 -4.85205 0
M  V30 1083 C 99.5808 4.41597 -4.22416 0
M  V30 1084 C 100.579 4.43436 -5.19474 0
M  V30 1085 O 100.267 4.74649 -6.48817 0
M  V30 1086 H 99.9988 0.611554 -0.288058 0
M  V30 1087 H 102.553 1.48711 -1.41683 0
M  V30 1088 H 100.783 3.84312 -0.429128 0
M  V30 1089 H 102.472 3.97384 -0.827077 0
M  V30 1090 H 103.238 3.57437 -3.27817 0
M  V30 1091 H 99.1168 4.07361 -2.15819 0
M  V30 1092 H 102.661 4.14696 -5.60957 0
M  V30 1093 H 98.5578 4.64667 -4.48056 0
M  V30 1094 H 99.3258 4.9247 -6.5377 0
M  V30 1095 N 101.989 0.842826 1.3317 0
M  V30 1096 C 103.237 0.439577 1.97262 0
M  V30 1097 C 103.558 -1.00548 1.67078 0
M  V30 1098 O 102.828 -1.70098 0.971779 0
M  V30 1099 H 101.408 0.159558 0.72976 0
M  V30 1100 H 104.07 1.07665 1.62463 0
M  V30 1101 H 103.166 0.574886 3.0676 0
M  V30 1102 N 103.467 -1.45747 0.599634 0
M  V30 1103 C 104.43 -2.28917 -0.113835 0
M  V30 1104 C 105.43 -1.3933 -0.802729 0
M  V30 1105 O 106.62 -1.61534 -0.652103 0
M  V30 1106 C 103.752 -3.20152 -1.17114 0
M  V30 1107 H 104.945 -2.93478 0.617289 0
M  V30 1108 H 102.498 -1.52137 0.358327 0
M  V30 1109 H 103.233 -2.60374 -1.93329 0
M  V30 1110 H 103.018 -3.86133 -0.681468 0
M  V30 1111 H 104.508 -3.82708 -1.67105 0
M  V30 1112 N 104.945 -0.338344 -1.53925 0
M  V30 1113 C 106.191 0.252842 -2.01822 0
M  V30 1114 C 106.546 1.48612 -1.22197 0
M  V30 1115 O 105.839 1.89238 -0.299892 0
M  V30 1116 C 106.033 0.62448 -3.51902 0
M  V30 1117 C 105.862 -0.571235 -4.46057 0
M  V30 1118 C 104.632 -1.07493 -4.93734 0
M  V30 1119 C 106.83 -1.42807 -4.94076 0
M  V30 1120 N 104.812 -2.23351 -5.71828 0
M  V30 1121 C 106.183 -2.43362 -5.70241 0
M  V30 1122 C 108.238 -1.45412 -4.76193 0
M  V30 1123 C 106.941 -3.46346 -6.30426 0
M  V30 1124 C 108.967 -2.47274 -5.37224 0
M  V30 1125 C 108.329 -3.46555 -6.13253 0
M  V30 1126 H 104.428 0.0559669 -0.779995 0
M  V30 1127 H 107.012 -0.476732 -1.88773 0
M  V30 1128 H 105.183 1.32317 -3.65167 0
M  V30 1129 H 106.915 1.19841 -3.86549 0
M  V30 1130 H 103.67 -0.643848 -4.69203 0
M  V30 1131 H 104.094 -2.81834 -6.15548 0
M  V30 1132 H 108.736 -0.700171 -4.16962 0
M  V30 1133 H 106.454 -4.22638 -6.88769 0
M  V30 1134 H 110.04 -2.50109 -5.25297 0
M  V30 1135 H 108.92 -4.24083 -6.59638 0
M  V30 1136 N 106.423 1.57458 -0.0668435 0
M  V30 1137 C 107.37 2.12439 0.902122 0
M  V30 1138 C 108.34 1.03565 1.2986 0
M  V30 1139 O 109.525 1.312 1.38532 0
M  V30 1140 C 106.665 2.6865 2.16614 0
M  V30 1141 C 105.778 3.91663 1.82274 0
M  V30 1142 C 104.913 4.36134 3.0325 0
M  V30 1143 C 103.952 5.51808 2.64904 0
M  V30 1144 N 103.089 5.9126 3.78624 0
M  V30 1145 H 107.929 2.94934 0.426382 0
M  V30 1146 H 105.466 1.4575 0.198819 0
M  V30 1147 H 107.424 2.99346 2.90599 0
M  V30 1148 H 106.054 1.88928 2.61737 0
M  V30 1149 H 105.106 3.6746 0.983719 0
M  V30 1150 H 106.418 4.75693 1.50059 0
M  V30 1151 H 105.572 4.68465 3.85519 0
M  V30 1152 H 104.311 3.50948 3.38655 0
M  V30 1153 H 103.316 5.19133 1.81055 0
M  V30 1154 H 104.541 6.38722 2.30675 0
M  V30 1155 H 102.487 5.09024 4.138 0
M  V30 1156 H 102.404 6.70018 3.5016 0
M  V30 1157 H 103.672 6.28212 4.61486 0
M  V30 1158 N 107.901 -0.206675 1.56239 0
M  V30 1159 C 108.833 -1.27997 1.9013 0
M  V30 1160 C 109.846 -1.42299 0.790883 0
M  V30 1161 O 111.035 -1.42931 1.06925 0
M  V30 1162 C 108.135 -2.65368 2.10792 0
M  V30 1163 C 107.308 -2.72824 3.41886 0
M  V30 1164 C 106.367 -3.9131 3.51799 0
M  V30 1165 O 105.393 -3.78953 4.24716 0
M  V30 1166 N 106.595 -5.06265 2.84035 0
M  V30 1167 H 109.36 -0.992444 2.82791 0
M  V30 1168 H 106.921 -0.396652 1.56966 0
M  V30 1169 H 108.913 -3.43039 2.14724 0
M  V30 1170 H 107.483 -2.86657 1.24685 0
M  V30 1171 H 106.703 -1.81515 3.49923 0
M  V30 1172 H 107.991 -2.74786 4.28217 0
M  V30 1173 H 107.389 -5.19203 2.246 0
M  V30 1174 H 105.946 -5.81925 2.93609 0
M  V30 1175 N 109.379 -1.50304 -0.473955 0
M  V30 1176 C 110.311 -1.65109 -1.58971 0
M  V30 1177 C 111.324 -0.532676 -1.53839 0
M  V30 1178 O 112.513 -0.805751 -1.59279 0
M  V30 1179 C 109.613 -1.61684 -2.97845 0
M  V30 1180 C 108.786 -2.8951 -3.27876 0
M  V30 1181 C 107.845 -2.78768 -4.4629 0
M  V30 1182 O 106.871 -3.52722 -4.46739 0
M  V30 1183 N 108.073 -1.9213 -5.47783 0
M  V30 1184 H 110.838 -2.61347 -1.46689 0
M  V30 1185 H 108.399 -1.47732 -0.662324 0
M  V30 1186 H 110.391 -1.52114 -3.75024 0
M  V30 1187 H 108.961 -0.731925 -3.03911 0
M  V30 1188 H 108.181 -3.13228 -2.39336 0
M  V30 1189 H 109.469 -3.74199 -3.4475 0
M  V30 1190 H 108.867 -1.31353 -5.50239 0
M  V30 1191 H 107.424 -1.88466 -6.23958 0
M  V30 1192 N 110.857 0.726932 -1.39834 0
M  V30 1193 C 112.103 1.48884 -1.377 0
M  V30 1194 C 112.436 1.94185 0.0244852 0
M  V30 1195 O 111.711 1.67361 0.990986 0
M  V30 1196 C 111.994 2.72288 -2.3565 0
M  V30 1197 C 111.847 2.32956 -3.84775 0
M  V30 1198 C 113.166 3.74414 -2.31306 0
M  V30 1199 H 110.285 0.540062 -0.5015 0
M  V30 1200 H 112.927 0.830547 -1.70886 0
M  V30 1201 H 111.077 3.28457 -2.07481 0
M  V30 1202 H 112.749 1.82356 -4.23726 0
M  V30 1203 H 110.992 1.65088 -4.01159 0
M  V30 1204 H 111.663 3.21362 -4.4881 0
M  V30 1205 H 114.139 3.27849 -2.56231 0
M  V30 1206 H 113.015 4.58414 -3.01907 0
M  V30 1207 H 113.276 4.21909 -1.32081 0
M  V30 1208 N 112.336 1.25143 0.95797 0
M  V30 1209 C 113.246 1.06968 2.08794 0
M  V30 1210 C 114.262 0.00773911 1.73998 0
M  V30 1211 O 115.438 0.207972 2.00323 0
M  V30 1212 C 112.503 0.68691 3.39827 0
M  V30 1213 C 111.564 1.82641 3.88511 0
M  V30 1214 C 110.797 1.46181 5.1329 0
M  V30 1215 O 111.02 0.355971 5.69288 0
M  V30 1216 O 109.954 2.29085 5.566 0
M  V30 1217 H 113.78 2.01723 2.27027 0
M  V30 1218 H 111.365 1.04051 1.07209 0
M  V30 1219 H 113.247 0.485417 4.18595 0
M  V30 1220 H 111.922 -0.231417 3.22872 0
M  V30 1221 H 110.829 2.08274 3.10762 0
M  V30 1222 H 112.162 2.72386 4.09959 0
M  V30 1223 N 113.814 -1.1601 1.06675 0
M  V30 1224 C 115.039 -1.91068 0.806706 0
M  V30 1225 C 115.464 -1.77112 -0.633485 0
M  V30 1226 O 114.822 -1.09908 -1.44187 0
M  V30 1227 C 114.87 -3.39655 1.21106 0
M  V30 1228 O 113.974 -4.10893 0.352189 0
M  V30 1229 H 113.315 -0.595125 0.294486 0
M  V30 1230 H 115.845 -1.46955 1.42356 0
M  V30 1231 H 115.855 -3.90434 1.18428 0
M  V30 1232 H 114.53 -3.49132 2.26008 0
M  V30 1233 H 113.107 -3.70285 0.440868 0
M  V30 1234 N 115.292 -0.849877 -1.32721 0
M  V30 1235 C 116.239 -0.289033 -2.28983 0
M  V30 1236 C 117.209 0.601324 -1.54833 0
M  V30 1237 O 118.394 0.537253 -1.8308 0
M  V30 1238 C 115.534 0.520623 -3.4115 0
M  V30 1239 C 114.647 -0.394989 -4.3019 0
M  V30 1240 C 113.782 0.426834 -5.29482 0
M  V30 1241 C 112.821 -0.486476 -6.10164 0
M  V30 1242 N 111.958 0.297879 -7.01468 0
M  V30 1243 H 116.798 -1.11519 -2.76347 0
M  V30 1244 H 114.335 -0.56138 -1.35967 0
M  V30 1245 H 116.293 1.00563 -4.04899 0
M  V30 1246 H 114.923 1.31165 -2.9495 0
M  V30 1247 H 113.975 -0.99836 -3.67065 0
M  V30 1248 H 115.287 -1.09612 -4.86607 0
M  V30 1249 H 114.441 0.975205 -5.98811 0
M  V30 1250 H 113.18 1.16136 -4.73671 0
M  V30 1251 H 112.185 -1.04677 -5.39743 0
M  V30 1252 H 113.41 -1.21953 -6.6806 0
M  V30 1253 H 111.356 1.01558 -6.48091 0
M  V30 1254 H 111.273 -0.344318 -7.55216 0
M  V30 1255 H 112.541 0.828131 -7.75089 0
M  V30 1256 N 116.77 1.45427 -0.607355 0
M  V30 1257 C 117.718 2.32269 0.12411 0
M  V30 1258 C 118.712 1.45955 0.859854 0
M  V30 1259 O 119.918 1.6244 0.775447 0
M  V30 1260 H 116.293 0.749691 0.0588839 0
M  V30 1261 H 118.264 2.91743 -0.626762 0
M  V30 1262 C 117.013 3.29567 1.1082 0
M  V30 1263 H 116.336 3.95978 0.551492 0
M  V30 1264 H 117.776 3.93061 1.58995 0
M  V30 1265 C 116.235 2.56722 2.18164 0
M  V30 1266 O 116.765 2.34842 3.25902 0
M  V30 1267 N 114.971 2.16861 1.93442 0
M  V30 1268 H 114.518 2.34855 1.05834 0
M  V30 1269 H 114.476 1.68444 2.65469 0
M  V30 1270 N 118.248 0.346503 1.53744 0
M  V30 1271 C 119.181 -0.552023 2.21423 0
M  V30 1272 C 120.159 -1.09798 1.19929 0
M  V30 1273 O 121.343 -1.1577 1.4876 0
M  V30 1274 C 118.47 -1.75972 2.89398 0
M  V30 1275 C 117.516 -1.34295 4.04805 0
M  V30 1276 S 118.349 -0.360263 5.34287 0
M  V30 1277 C 119.505 -1.57473 6.05767 0
M  V30 1278 H 119.738 0.0228119 2.97291 0
M  V30 1279 H 117.271 0.130579 1.53847 0
M  V30 1280 H 119.229 -2.45256 3.2918 0
M  V30 1281 H 117.89 -2.30578 2.1329 0
M  V30 1282 H 117.083 -2.24349 4.51313 0
M  V30 1283 H 116.685 -0.729555 3.66815 0
M  V30 1284 H 118.977 -2.50875 6.29339 0
M  V30 1285 H 119.92 -1.15138 6.98676 0
M  V30 1286 H 120.328 -1.77212 5.35963 0
M  V30 1287 N 119.726 -1.57421 0.075193 0
M  V30 1288 C 121.137 -1.81021 -0.456964 0
M  V30 1289 C 121.488 -0.98936 -1.69429 0
M  V30 1290 O 120.613 -0.212865 -2.15351 0
M  V30 1291 C 121.208 -3.28329 -0.83581 0
M  V30 1292 C 119.767 -3.52764 -1.31281 0
M  V30 1293 C 118.914 -2.75676 -0.299648 0
M  V30 1294 H 121.865 -1.55822 0.300856 0
M  V30 1295 H 121.886 -3.40564 -1.69696 0
M  V30 1296 H 121.398 -3.88046 0.0649238 0
M  V30 1297 H 119.499 -2.98355 -2.23193 0
M  V30 1298 H 119.612 -4.61451 -1.28839 0
M  V30 1299 H 117.976 -2.42538 -0.777641 0
M  V30 1300 H 118.759 -3.38132 0.593417 0
M  V30 1301 N 121.204 0.198386 -1.56346 0
M  V30 1302 C 122.451 0.919286 -1.80431 0
M  V30 1303 C 122.779 1.83393 -0.647866 0
M  V30 1304 O 122.034 1.92236 0.366556 0
M  V30 1305 C 122.333 1.77031 -3.10475 0
M  V30 1306 C 121.999 1.00693 -4.39513 0
M  V30 1307 C 120.661 0.796145 -4.74568 0
M  V30 1308 C 123.013 0.469559 -5.19081 0
M  V30 1309 C 120.341 0.0364588 -5.86689 0
M  V30 1310 C 122.693 -0.2769 -6.31994 0
M  V30 1311 C 121.357 -0.49873 -6.65634 0
M  V30 1312 H 120.627 0.336391 -0.660244 0
M  V30 1313 H 123.274 0.185872 -1.90596 0
M  V30 1314 H 121.579 2.5723 -2.95533 0
M  V30 1315 H 123.276 2.33065 -3.26315 0
M  V30 1316 H 119.866 1.18122 -4.12001 0
M  V30 1317 H 124.05 0.619816 -4.92414 0
M  V30 1318 H 119.306 -0.145412 -6.11227 0
M  V30 1319 H 123.48 -0.700684 -6.92866 0
M  V30 1320 H 121.107 -1.0893 -7.52355 0
M  V30 1321 N 122.682 1.50554 0.465978 0
M  V30 1322 C 123.614 1.65949 1.58093 0
M  V30 1323 C 124.627 0.540827 1.53554 0
M  V30 1324 O 125.816 0.814187 1.5885 0
M  V30 1325 C 122.916 1.63261 2.96983 0
M  V30 1326 C 122.089 2.91245 3.26336 0
M  V30 1327 C 121.148 2.8113 4.44806 0
M  V30 1328 O 120.174 3.55086 4.44862 0
M  V30 1329 N 121.376 1.95032 5.46756 0
M  V30 1330 H 124.141 2.62122 1.45301 0
M  V30 1331 H 121.702 1.48082 0.65448 0
M  V30 1332 H 123.694 1.54101 3.74212 0
M  V30 1333 H 122.264 0.748032 3.03518 0
M  V30 1334 H 121.484 3.14493 2.37672 0
M  V30 1335 H 122.772 3.76022 3.42761 0
M  V30 1336 H 122.17 1.3427 5.49534 0
M  V30 1337 H 120.727 1.91772 6.2295 0
M  V30 1338 N 124.16 -0.719506 1.40217 0
M  V30 1339 C 125.437 -1.47221 1.28784 0
M  V30 1340 C 125.817 -2.10883 -0.0956067 0
M  V30 1341 O 125.165 -1.99833 -1.10811 0
M  V30 1342 C 125.375 -2.5111 2.42373 0
M  V30 1343 C 126.723 -3.17053 2.82423 0
M  V30 1344 O 127.747 -2.61429 2.41937 0
M  V30 1345 O 126.606 -4.17742 3.52355 0
M  V30 1346 H 123.7 -0.654491 0.50554 0
M  V30 1347 H 126.246 -0.752014 1.52128 0
M  V30 1348 H 125.018 -2.02556 3.34793 0
M  V30 1349 H 124.641 -3.3067 2.20778 0
M  V30 1350 N 125.638 -1.25649 -0.95132 0
M  V30 1351 C 126.886 -1.10375 -1.69298 0
M  V30 1352 C 127.207 0.355339 -1.91735 0
M  V30 1353 O 126.477 1.25188 -1.50681 0
M  V30 1354 H 125.057 -0.405461 -0.627384 0
M  V30 1355 H 127.719 -1.57823 -1.14358 0
M  V30 1356 H 126.815 -1.61465 -2.67087 0
M  V30 1357 N 127.117 1.15442 -1.07289 0
M  V30 1358 C 128.049 2.19773 -0.650585 0
M  V30 1359 C 129.062 1.60076 0.296572 0
M  V30 1360 O 130.251 1.78293 0.0859905 0
M  V30 1361 C 127.351 3.38838 0.0650398 0
M  V30 1362 C 126.524 4.2808 -0.898141 0
M  V30 1363 C 125.583 5.2574 -0.219926 0
M  V30 1364 O 124.609 5.62654 -0.860773 0
M  V30 1365 N 125.811 5.71205 1.03466 0
M  V30 1366 H 128.576 2.56622 -1.54808 0
M  V30 1367 H 126.137 1.30551 -0.957494 0
M  V30 1368 H 128.129 4.01222 0.529415 0
M  V30 1369 H 126.699 3.00409 0.864466 0
M  V30 1370 H 125.919 3.62804 -1.54165 0
M  V30 1371 H 127.207 4.84577 -1.5512 0
M  V30 1372 H 126.605 5.43325 1.57526 0
M  V30 1373 H 125.162 6.35633 1.44272 0
M  V30 1374 N 128.595 0.856903 1.32268 0
M  V30 1375 C 129.505 0.306131 2.32594 0
M  V30 1376 C 130.521 -0.577209 1.64147 0
M  V30 1377 O 131.697 -0.477043 1.95669 0
M  V30 1378 C 128.762 -0.494561 3.43154 0
M  V30 1379 C 127.823 0.415186 4.27288 0
M  V30 1380 C 127.056 -0.347387 5.32568 0
M  V30 1381 O 127.279 -1.57708 5.48165 0
M  V30 1382 O 126.213 0.287982 6.01211 0
M  V30 1383 H 130.039 1.13737 2.81598 0
M  V30 1384 H 127.624 0.619902 1.35932 0
M  V30 1385 H 129.506 -0.948944 4.10576 0
M  V30 1386 H 128.181 -1.30257 2.96336 0
M  V30 1387 H 127.088 0.917793 3.62667 0
M  V30 1388 H 128.421 1.18844 4.77637 0
M  V30 1389 N 130.073 -1.45103 0.615059 0
M  V30 1390 C 131.32 -2.02183 0.113179 0
M  V30 1391 C 131.648 -1.48249 -1.25906 0
M  V30 1392 O 130.903 -0.650265 -1.84581 0
M  V30 1393 C 131.202 -3.57386 0.0318797 0
M  V30 1394 C 130.868 -4.30505 1.34077 0
M  V30 1395 C 129.53 -4.50197 1.69929 0
M  V30 1396 C 131.882 -4.72238 2.20546 0
M  V30 1397 C 129.21 -5.08881 2.91988 0
M  V30 1398 C 131.562 -5.32272 3.41861 0
M  V30 1399 C 130.226 -5.50187 3.77956 0
M  V30 1400 H 129.496 -0.739842 0.0414151 0
M  V30 1401 H 132.143 -1.74073 0.798168 0
M  V30 1402 H 130.448 -3.84817 -0.736409 0
M  V30 1403 H 132.145 -3.99264 -0.372712 0
M  V30 1404 H 128.735 -4.15496 1.05173 0
M  V30 1405 H 132.919 -4.56751 1.94146 0
M  V30 1406 H 128.175 -5.20939 3.2005 0
M  V30 1407 H 132.349 -5.63563 4.09109 0
M  V30 1408 H 129.976 -5.95427 4.72622 0
M  V30 1409 N 131.551 -0.354651 -1.53558 0
M  V30 1410 C 132.461 0.50515 -2.29097 0
M  V30 1411 C 133.477 1.10223 -1.34636 0
M  V30 1412 O 134.653 1.11553 -1.67684 0
M  V30 1413 C 131.718 1.63479 -3.05738 0
M  V30 1414 C 130.779 1.06636 -4.15845 0
M  V30 1415 C 130.012 2.14217 -4.88822 0
M  V30 1416 O 130.235 3.35137 -4.61562 0
M  V30 1417 O 129.169 1.77887 -5.75013 0
M  V30 1418 H 132.995 -0.109237 -3.03503 0
M  V30 1419 H 130.58 -0.119357 -1.48922 0
M  V30 1420 H 132.462 2.2918 -3.5363 0
M  V30 1421 H 131.137 2.23478 -2.34178 0
M  V30 1422 H 130.044 0.373565 -3.7223 0
M  V30 1423 H 131.377 0.511081 -4.89539 0
M  V30 1424 N 133.029 1.57378 -0.0835403 0
M  V30 1425 C 133.959 2.1641 0.87686 0
M  V30 1426 C 134.94 1.09429 1.30228 0
M  V30 1427 O 136.125 1.37516 1.37124 0
M  V30 1428 C 133.255 2.73517 2.14022 0
M  V30 1429 C 132.209 3.85769 1.85381 0
M  V30 1430 C 131.535 4.29529 3.18448 0
M  V30 1431 C 132.835 5.09486 1.14984 0
M  V30 1432 H 134.529 2.96914 0.385059 0
M  V30 1433 H 132.075 1.42823 0.18377 0
M  V30 1434 H 134.028 3.13463 2.81636 0
M  V30 1435 H 132.752 1.90252 2.65465 0
M  V30 1436 H 131.411 3.46345 1.20169 0
M  V30 1437 H 131.059 3.43169 3.67755 0
M  V30 1438 H 130.759 5.05204 3.00071 0
M  V30 1439 H 132.283 4.72099 3.8724 0
M  V30 1440 H 133.697 5.46674 1.72687 0
M  V30 1441 H 132.094 5.90515 1.06826 0
M  V30 1442 H 133.164 4.84724 0.130749 0
M  V30 1443 N 134.507 -0.190092 1.56449 0
M  V30 1444 C 135.732 -0.929864 1.85387 0
M  V30 1445 C 136.157 -1.7585 0.667704 0
M  V30 1446 O 135.515 -1.77198 -0.383459 0
M  V30 1447 C 135.563 -1.79773 3.12593 0
M  V30 1448 O 134.667 -2.89713 2.93496 0
M  V30 1449 H 134.008 -0.261574 0.610307 0
M  V30 1450 H 136.538 -0.193896 2.03679 0
M  V30 1451 H 136.548 -2.20139 3.43515 0
M  V30 1452 H 135.223 -1.18892 3.98544 0
M  V30 1453 H 133.8 -2.53065 2.73884 0
M  V30 1454 N 135.985 -1.50799 -0.457987 0
M  V30 1455 C 137.234 -1.6168 -1.20593 0
M  V30 1456 C 137.547 -0.32888 -1.92815 0
M  V30 1457 O 138.753 -0.316773 -2.69646 0
M  V30 1458 C 137.209 -2.8545 -2.19195 0
M  V30 1459 C 136.817 -4.21168 -1.52715 0
M  V30 1460 C 138.561 -3.05681 -2.94549 0
M  V30 1461 C 136.468 -5.3611 -2.4968 0
M  V30 1462 H 135.398 -0.602134 -0.453818 0
M  V30 1463 H 138.049 -1.77245 -0.475031 0
M  V30 1464 H 136.431 -2.63472 -2.95632 0
M  V30 1465 H 137.605 -4.53449 -0.819775 0
M  V30 1466 H 135.92 -4.06648 -0.895922 0
M  V30 1467 H 138.517 -3.88727 -3.67145 0
M  V30 1468 H 138.86 -2.17929 -3.54701 0
M  V30 1469 H 139.393 -3.27901 -2.25223 0
M  V30 1470 H 136.132 -6.26057 -1.94249 0
M  V30 1471 H 135.652 -5.0823 -3.18532 0
M  V30 1472 H 137.331 -5.6722 -3.11241 0
M  V30 1473 N 137.463 0.71206 -1.40597 0
M  V30 1474 C 138.688 1.50617 -1.42581 0
M  V30 1475 C 139.113 1.88079 -0.0282102 0
M  V30 1476 O 138.471 1.53511 0.964579 0
M  V30 1477 C 138.519 2.7557 -2.3258 0
M  V30 1478 O 137.623 3.72414 -1.77148 0
M  V30 1479 H 136.964 0.453966 -0.484573 0
M  V30 1480 H 139.494 0.876649 -1.84868 0
M  V30 1481 H 139.504 3.2406 -2.47889 0
M  V30 1482 H 138.179 2.47639 -3.34138 0
M  V30 1483 H 136.756 3.31276 -1.71204 0
M  V30 1484 N 138.941 1.26152 0.944643 0
M  V30 1485 C 140.187 1.11657 1.69294 0
M  V30 1486 C 140.52 -0.339926 1.91202 0
M  V30 1487 O 139.795 -1.24994 1.49019 0
M  V30 1488 C 140.078 1.88236 3.06984 0
M  V30 1489 C 139.931 3.41772 2.92424 0
M  V30 1490 C 141.25 1.67343 4.07043 0
M  V30 1491 H 138.369 0.407004 0.614424 0
M  V30 1492 H 141.011 1.55106 1.09737 0
M  V30 1493 H 139.161 1.51308 3.57824 0
M  V30 1494 H 140.833 3.88433 2.48832 0
M  V30 1495 H 139.076 3.68974 2.28124 0
M  V30 1496 H 139.747 3.90579 3.90067 0
M  V30 1497 H 142.223 1.99509 3.65151 0
M  V30 1498 H 141.099 2.23346 5.01406 0
M  V30 1499 H 141.36 0.617158 4.37771 0
M  V30 1500 N 140.419 -1.14872 1.07899 0
M  V30 1501 C 141.349 -2.2193 0.725887 0
M  V30 1502 C 142.33 -1.67622 -0.28927 0
M  V30 1503 O 143.515 -1.93533 -0.160787 0
M  V30 1504 C 140.645 -3.47061 0.128856 0
M  V30 1505 C 139.599 -4.14363 1.07178 0
M  V30 1506 C 138.925 -5.33636 0.337229 0
M  V30 1507 C 140.225 -4.63492 2.40775 0
M  V30 1508 H 141.919 -2.51724 1.62097 0
M  V30 1509 H 139.465 -1.20991 0.780838 0
M  V30 1510 H 141.418 -4.21199 -0.130147 0
M  V30 1511 H 140.142 -3.16617 -0.80134 0
M  V30 1512 H 138.801 -3.42173 1.3158 0
M  V30 1513 H 138.449 -4.99449 -0.596606 0
M  V30 1514 H 138.149 -5.79609 0.965788 0
M  V30 1515 H 139.673 -6.10539 0.0861567 0
M  V30 1516 H 141.087 -5.2913 2.20669 0
M  V30 1517 H 139.484 -5.20148 2.99276 0
M  V30 1518 H 140.554 -3.78834 3.02676 0
M  V30 1519 N 141.898 -0.863906 -1.31812 0
M  V30 1520 C 143.309 -0.52522 -1.7916 0
M  V30 1521 C 143.66 0.957518 -1.71248 0
M  V30 1522 O 142.785 1.74734 -1.27659 0
M  V30 1523 C 143.38 -0.9466 -3.25307 0
M  V30 1524 C 141.939 -0.659668 -3.70574 0
M  V30 1525 C 141.086 -1.14126 -2.52726 0
M  V30 1526 H 144.037 -1.05022 -1.1898 0
M  V30 1527 H 144.058 -0.266766 -3.79564 0
M  V30 1528 H 143.57 -2.02579 -3.31034 0
M  V30 1529 H 141.671 0.408416 -3.70355 0
M  V30 1530 H 141.784 -1.23245 -4.62977 0
M  V30 1531 H 140.148 -0.561216 -2.4844 0
M  V30 1532 H 140.931 -2.22775 -2.61201 0
M  V30 1533 N 143.376 1.44774 -0.622745 0
M  V30 1534 C 144.653 1.95522 -0.0551974 0
M  V30 1535 C 145.033 1.5649 1.41683 0
M  V30 1536 O 144.381 0.834848 2.12703 0
M  V30 1537 C 144.591 3.4796 -0.269242 0
M  V30 1538 C 145.939 4.24306 -0.158014 0
M  V30 1539 O 146.963 3.55637 -0.200162 0
M  V30 1540 O 145.822 5.46471 -0.0558693 0
M  V30 1541 H 142.916 0.826556 0.0271015 0
M  V30 1542 H 145.462 1.54866 -0.693864 0
M  V30 1543 H 144.234 3.6939 -1.29099 0
M  V30 1544 H 143.857 3.95543 0.403966 0
M  V30 1545 N 144.854 0.36279 1.53368 0
M  V30 1546 C 145.801 -0.485008 2.25646 0
M  V30 1547 C 146.771 -1.07982 1.2621 0
M  V30 1548 O 147.956 -1.11284 1.54986 0
M  V30 1549 C 145.096 -1.62023 3.04701 0
M  V30 1550 C 144.209 -1.05086 4.19024 0
M  V30 1551 C 143.344 -2.15496 4.85525 0
M  V30 1552 C 142.383 -1.5601 5.91884 0
M  V30 1553 N 141.52 -2.60241 6.52088 0
M  V30 1554 H 146.36 0.137864 2.97681 0
M  V30 1555 H 143.897 0.0798061 1.46883 0
M  V30 1556 H 145.855 -2.28887 3.48807 0
M  V30 1557 H 144.485 -2.2138 2.34927 0
M  V30 1558 H 143.537 -0.27259 3.79422 0
M  V30 1559 H 144.849 -0.575926 4.95464 0
M  V30 1560 H 144.003 -2.90186 5.32801 0
M  V30 1561 H 142.742 -2.66341 4.08551 0
M  V30 1562 H 141.747 -0.798338 5.43973 0
M  V30 1563 H 142.972 -1.05994 6.70777 0
M  V30 1564 H 140.918 -3.10304 5.77968 0
M  V30 1565 H 140.835 -2.17426 7.24059 0
M  V30 1566 H 142.103 -3.34641 7.04014 0
M  V30 1567 N 146.332 -1.57332 0.0918853 0
M  V30 1568 C 147.562 -1.98286 -0.580205 0
M  V30 1569 C 147.97 -0.969713 -1.6246 0
M  V30 1570 O 147.313 0.0493501 -1.83634 0
M  V30 1571 C 147.375 -3.35603 -1.28882 0
M  V30 1572 C 147.039 -4.55285 -0.395559 0
M  V30 1573 C 148.036 -5.18687 0.355002 0
M  V30 1574 C 145.721 -5.01314 -0.314556 0
M  V30 1575 C 147.715 -6.26484 1.17458 0
M  V30 1576 C 145.402 -6.08979 0.508677 0
M  V30 1577 C 146.4 -6.71429 1.2519 0
M  V30 1578 O 146.088 -7.77018 2.06151 0
M  V30 1579 H 145.82 -0.656678 -0.160466 0
M  V30 1580 H 148.374 -2.04721 0.16688 0
M  V30 1581 H 146.604 -3.25842 -2.08241 0
M  V30 1582 H 148.293 -3.61026 -1.85512 0
M  V30 1583 H 149.059 -4.84058 0.302134 0
M  V30 1584 H 144.938 -4.5247 -0.882697 0
M  V30 1585 H 148.482 -6.75159 1.75518 0
M  V30 1586 H 144.379 -6.4304 0.563037 0
M  V30 1587 H 145.147 -7.93991 1.98799 0
M  V30 1588 N 147.81 0.181792 -1.56548 0
M  V30 1589 C 148.742 1.24956 -1.92142 0
M  V30 1590 C 149.755 1.41022 -0.813422 0
M  V30 1591 O 150.944 1.41212 -1.09186 0
M  V30 1592 C 148.044 2.61981 -2.14987 0
M  V30 1593 C 147.217 2.6735 -3.46183 0
M  V30 1594 C 146.276 3.85664 -3.5798 0
M  V30 1595 O 145.302 3.72148 -4.30691 0
M  V30 1596 N 146.504 5.01683 -2.92053 0
M  V30 1597 H 149.269 0.947329 -2.84334 0
M  V30 1598 H 146.83 0.371629 -1.57577 0
M  V30 1599 H 148.822 3.3958 -2.20154 0
M  V30 1600 H 147.392 2.84637 -1.2923 0
M  V30 1601 H 146.612 1.75925 -3.52766 0
M  V30 1602 H 147.9 2.67939 -4.32534 0
M  V30 1603 H 147.298 5.15564 -2.32832 0
M  V30 1604 H 145.855 5.77181 -3.0283 0
M  V30 1605 N 149.288 1.51039 0.449983 0
M  V30 1606 C 150.534 1.63322 1.20223 0
M  V30 1607 C 150.867 0.34241 1.91158 0
M  V30 1608 O 150.142 -0.657344 1.83055 0
M  V30 1609 C 150.425 2.82801 2.22925 0
M  V30 1610 C 150.278 4.21823 1.56157 0
M  V30 1611 C 151.597 2.97807 3.24035 0
M  V30 1612 H 148.716 0.594407 0.435718 0
M  V30 1613 H 151.358 1.83489 0.493136 0
M  V30 1614 H 149.508 2.65738 2.834 0
M  V30 1615 H 151.18 4.50526 0.991162 0
M  V30 1616 H 149.423 4.25105 0.864172 0
M  V30 1617 H 150.094 5.01391 2.30891 0
M  V30 1618 H 152.57 3.13497 2.73603 0
M  V30 1619 H 151.446 3.82992 3.93202 0
M  V30 1620 H 151.707 2.09328 3.89402 0
M  V30 1621 N 150.766 -0.704594 1.40972 0
M  V30 1622 C 151.699 -1.82861 1.36518 0
M  V30 1623 C 152.677 -1.6091 0.23382 0
M  V30 1624 O 153.861 -1.83778 0.419271 0
M  V30 1625 C 150.988 -3.1939 1.12729 0
M  V30 1626 C 150.034 -3.60148 2.28463 0
M  V30 1627 S 150.867 -3.65994 3.90907 0
M  V30 1628 C 152.023 -5.05264 3.69403 0
M  V30 1629 H 152.256 -1.86361 2.3164 0
M  V30 1630 H 149.789 -0.872439 1.27389 0
M  V30 1631 H 151.747 -3.98211 0.996893 0
M  V30 1632 H 150.408 -3.1351 0.192427 0
M  V30 1633 H 149.601 -4.59309 2.07489 0
M  V30 1634 H 149.203 -2.88612 2.37863 0
M  V30 1635 H 151.495 -5.92504 3.28551 0
M  V30 1636 H 152.438 -5.31278 4.68134 0
M  V30 1637 H 152.846 -4.76377 3.02862 0
M  V30 1638 N 152.244 -1.26651 -0.937939 0
M  V30 1639 C 153.49 -1.12553 -1.687 0
M  V30 1640 C 153.823 0.329782 -1.91379 0
M  V30 1641 O 153.098 1.24202 -1.4968 0
M  V30 1642 C 153.381 -1.89862 -3.05981 0
M  V30 1643 C 153.234 -3.43318 -2.90607 0
M  V30 1644 C 154.553 -1.69499 -4.0615 0
M  V30 1645 H 151.672 -0.410257 -0.612257 0
M  V30 1646 H 154.314 -1.55685 -1.08913 0
M  V30 1647 H 152.464 -1.53204 -3.57017 0
M  V30 1648 H 154.136 -3.89747 -2.46769 0
M  V30 1649 H 152.379 -3.70179 -2.26164 0
M  V30 1650 H 153.05 -3.92642 -3.8799 0
M  V30 1651 H 155.526 -2.01442 -3.64088 0
M  V30 1652 H 154.402 -2.26002 -5.00214 0
M  V30 1653 H 154.663 -0.640365 -4.37438 0
M  V30 1654 N 153.722 1.14298 -1.08507 0
M  V30 1655 C 154.67 2.21483 -0.710483 0
M  V30 1656 C 155.664 1.66998 0.284234 0
M  V30 1657 O 156.87 1.79401 0.146692 0
M  V30 1658 H 153.245 0.721578 -0.211729 0
M  V30 1659 H 155.216 2.50348 -1.62384 0
M  V30 1660 C 153.965 3.4743 -0.137007 0
M  V30 1661 H 153.288 3.89686 -0.893592 0
M  V30 1662 H 154.728 4.2391 0.0872789 0
M  V30 1663 C 153.187 3.17548 1.12538 0
M  V30 1664 O 153.717 3.35437 2.21009 0
M  V30 1665 N 151.923 2.71499 1.03617 0
M  V30 1666 H 151.47 2.57143 0.153403 0
M  V30 1667 H 151.428 2.51881 1.88158 0
M  V30 1668 N 155.201 0.870884 1.31352 0
M  V30 1669 C 156.449 0.48132 1.96285 0
M  V30 1670 C 156.77 -0.969813 1.69173 0
M  V30 1671 O 156.04 -1.67998 1.00764 0
M  V30 1672 H 154.62 0.175002 0.726212 0
M  V30 1673 H 157.282 1.11087 1.60143 0
M  V30 1674 H 156.378 0.639825 3.05471 0
M  V30 1675 N 156.679 -1.44442 0.630414 0
M  V30 1676 C 157.611 -2.2892 -0.113347 0
M  V30 1677 C 158.624 -1.41243 -0.80959 0
M  V30 1678 O 159.813 -1.65402 -0.671156 0
M  V30 1679 C 156.913 -3.17594 -1.18266 0
M  V30 1680 C 156.086 -4.33682 -0.569073 0
M  V30 1681 C 155.145 -5.03397 -1.53226 0
M  V30 1682 O 154.171 -5.59438 -1.04967 0
M  V30 1683 N 155.373 -5.04783 -2.86661 0
M  V30 1684 H 158.138 -2.93392 0.611636 0
M  V30 1685 H 155.699 -1.54881 0.471523 0
M  V30 1686 H 157.691 -3.61097 -1.82732 0
M  V30 1687 H 156.261 -2.54876 -1.80988 0
M  V30 1688 H 155.481 -3.9338 0.254187 0
M  V30 1689 H 156.769 -5.08608 -0.139767 0
M  V30 1690 H 156.167 -4.60584 -3.28449 0
M  V30 1691 H 154.724 -5.52077 -3.46489 0
M  V30 1692 N 158.157 -0.370918 -1.53173 0
M  V30 1693 C 159.382 0.220293 -2.06227 0
M  V30 1694 C 159.807 1.41243 -1.24225 0
M  V30 1695 O 159.165 1.79387 -0.262645 0
M  V30 1696 C 159.213 0.586663 -3.55796 0
M  V30 1697 O 158.317 1.68317 -3.76488 0
M  V30 1698 H 157.658 0.0308099 -0.663285 0
M  V30 1699 H 160.188 -0.533068 -1.97534 0
M  V30 1700 H 160.198 0.85617 -3.98916 0
M  V30 1701 H 158.873 -0.285013 -4.14922 0
M  V30 1702 H 157.45 1.40881 -3.45264 0
M  V30 1703 N 159.635 1.57281 -0.100228 0
M  V30 1704 C 160.86 1.99302 0.573881 0
M  V30 1705 C 161.285 0.979059 1.60611 0
M  V30 1706 O 160.643 -0.0517803 1.81226 0
M  V30 1707 C 160.691 3.40274 1.19358 0
M  V30 1708 O 159.795 3.41676 2.30935 0
M  V30 1709 H 159.136 0.647944 0.145138 0
M  V30 1710 H 161.666 2.03779 -0.183156 0
M  V30 1711 H 161.676 3.78078 1.53365 0
M  V30 1712 H 160.351 4.13594 0.437385 0
M  V30 1713 H 158.928 3.15672 1.98509 0
M  V30 1714 N 161.113 -0.173488 1.56642 0
M  V30 1715 C 162.343 -0.904781 1.85734 0
M  V30 1716 C 162.751 -1.76431 0.68328 0
M  V30 1717 O 162.094 -1.802 -0.356865 0
M  V30 1718 C 162.156 -1.83382 3.09211 0
M  V30 1719 C 161.82 -1.15411 4.42187 0
M  V30 1720 C 162.817 -0.520609 5.17287 0
M  V30 1721 C 160.502 -1.15151 4.88923 0
M  V30 1722 C 162.496 0.106412 6.37311 0
M  V30 1723 C 160.183 -0.520664 6.08878 0
M  V30 1724 C 161.181 0.107196 6.82916 0
M  V30 1725 O 160.869 0.728102 8.00596 0
M  V30 1726 H 160.601 -0.268408 0.62043 0
M  V30 1727 H 163.155 -0.179096 2.04618 0
M  V30 1728 H 161.385 -2.59976 2.86268 0
M  V30 1729 H 163.074 -2.43476 3.24768 0
M  V30 1730 H 163.84 -0.514606 4.82262 0
M  V30 1731 H 159.719 -1.62961 4.31236 0
M  V30 1732 H 163.263 0.597081 6.9504 0
M  V30 1733 H 159.16 -0.524242 6.43368 0
M  V30 1734 H 159.928 0.627138 8.16094 0
M  V30 1735 N 162.591 -1.51276 -0.441967 0
M  V30 1736 C 163.819 -1.67516 -1.21434 0
M  V30 1737 C 164.234 -0.37055 -1.85128 0
M  V30 1738 O 163.591 0.650498 -1.70513 0
M  V30 1739 C 163.642 -2.78748 -2.30177 0
M  V30 1740 O 163.363 -4.04154 -1.69089 0
M  V30 1741 C 164.864 -3.06217 -3.20541 0
M  V30 1742 H 162.084 -0.562276 -0.366178 0
M  V30 1743 H 164.628 -1.97666 -0.524244 0
M  V30 1744 H 162.783 -2.5121 -2.94911 0
M  V30 1745 H 163.197 -4.65894 -2.40922 0
M  V30 1746 H 164.671 -3.8764 -3.92987 0
M  V30 1747 H 165.148 -2.18439 -3.81026 0
M  V30 1748 H 165.754 -3.35397 -2.61513 0
M  V30 1749 N 164.069 0.697108 -1.41344 0
M  V30 1750 C 165.316 1.45714 -1.40619 0
M  V30 1751 C 165.644 1.94494 -0.0147907 0
M  V30 1752 O 164.899 1.69794 0.973066 0
M  V30 1753 C 165.198 2.68553 -2.35826 0
M  V30 1754 C 164.864 2.38438 -3.82698 0
M  V30 1755 C 163.526 2.29936 -4.22709 0
M  V30 1756 C 165.878 2.13567 -4.75435 0
M  V30 1757 C 163.206 1.94656 -5.53467 0
M  V30 1758 C 165.558 1.79797 -6.06511 0
M  V30 1759 C 164.222 1.69789 -6.45545 0
M  V30 1760 H 163.492 0.533206 -0.51456 0
M  V30 1761 H 166.139 0.796901 -1.74131 0
M  V30 1762 H 164.444 3.39503 -1.95563 0
M  V30 1763 H 166.141 3.2669 -2.32539 0
M  V30 1764 H 162.731 2.4595 -3.51008 0
M  V30 1765 H 166.915 2.19082 -4.45328 0
M  V30 1766 H 162.171 1.8546 -5.82593 0
M  V30 1767 H 166.345 1.59572 -6.77872 0
M  V30 1768 H 163.972 1.4222 -7.46778 0
M  V30 1769 N 165.547 1.27147 0.931209 0
M  V30 1770 C 166.824 1.0401 1.65654 0
M  V30 1771 C 167.204 -0.426297 2.06751 0
M  V30 1772 O 166.552 -1.40879 1.79904 0
M  V30 1773 C 166.762 1.99834 2.86125 0
M  V30 1774 C 168.11 2.29007 3.57549 0
M  V30 1775 O 169.134 1.97779 2.96246 0
M  V30 1776 O 167.993 2.82222 4.67989 0
M  V30 1777 H 165.087 0.396239 0.725895 0
M  V30 1778 H 167.633 1.38397 0.982056 0
M  V30 1779 H 166.405 2.98744 2.52721 0
M  V30 1780 H 166.028 1.65987 3.61295 0
M  V30 1781 N 167.025 -1.13721 1.09112 0
M  V30 1782 C 167.975 -2.17082 0.697091 0
M  V30 1783 C 168.959 -1.58321 -0.286923 0
M  V30 1784 O 170.151 -1.7673 -0.0978008 0
M  V30 1785 C 167.28 -3.43105 0.115729 0
M  V30 1786 C 166.366 -4.0888 1.12596 0
M  V30 1787 N 166.757 -4.4987 2.31195 0
M  V30 1788 C 165.055 -4.35471 0.963366 0
M  V30 1789 C 165.756 -5.01094 2.95431 0
M  V30 1790 N 164.732 -4.95751 2.23006 0
M  V30 1791 H 168.534 -2.46524 1.6001 0
M  V30 1792 H 166.048 -1.30481 0.966869 0
M  V30 1793 H 168.045 -4.16491 -0.184555 0
M  V30 1794 H 166.705 -3.15138 -0.78217 0
M  V30 1795 H 167.716 -4.42678 2.68806 0
M  V30 1796 H 164.393 -4.17328 0.119878 0
M  V30 1797 H 165.783 -5.4263 3.96236 0
M  V30 1798 N 168.503 -0.877838 -1.30888 0
M  V30 1799 C 169.919 -0.570844 -1.49042 0
M  V30 1800 C 170.119 0.893159 -1.80624 0
M  V30 1801 O 169.175 1.67485 -1.88958 0
M  V30 1802 C 170.488 -1.47784 -2.61878 0
M  V30 1803 C 172.036 -1.48071 -2.75761 0
M  V30 1804 C 172.511 -2.37347 -3.91702 0
M  V30 1805 N 174.002 -2.35271 -3.99001 0
M  V30 1806 C 174.737 -3.01063 -4.88004 0
M  V30 1807 N 174.233 -3.76055 -5.81854 0
M  V30 1808 N 176.026 -2.90332 -4.81315 0
M  V30 1809 H 168.177 -1.82502 -1.0866 0
M  V30 1810 H 170.44 -0.780797 -0.537644 0
M  V30 1811 H 170.146 -2.51993 -2.45341 0
M  V30 1812 H 170.02 -1.18215 -3.58197 0
M  V30 1813 H 172.407 -0.446166 -2.91708 0
M  V30 1814 H 172.488 -1.81668 -1.80085 0
M  V30 1815 H 172.132 -3.40883 -3.76512 0
M  V30 1816 H 172.062 -2.01071 -4.86701 0
M  V30 1817 H 174.553 -1.80768 -3.3186 0
M  V30 1818 H 174.866 -4.23366 -6.46514 0
M  V30 1819 H 173.211 -3.80163 -5.81808 0
M  V30 1820 H 176.402 -2.31278 -4.06974 0
M  V30 1821 H 176.575 -3.41885 -5.50471 0
M  V30 1822 N 169.982 1.44106 -0.638065 0
M  V30 1823 C 171.231 2.01194 -0.142744 0
M  V30 1824 C 171.544 1.50835 1.24532 0
M  V30 1825 O 172.75 2.00096 1.83504 0
M  V30 1826 C 171.206 3.59319 -0.20442 0
M  V30 1827 C 170.814 4.18674 -1.59423 0
M  V30 1828 C 172.558 4.23854 0.234079 0
M  V30 1829 C 170.465 5.69045 -1.61065 0
M  V30 1830 H 169.395 0.752367 -0.0495998 0
M  V30 1831 H 172.046 1.65246 -0.797881 0
M  V30 1832 H 170.428 3.92598 0.517946 0
M  V30 1833 H 171.602 3.96921 -2.34074 0
M  V30 1834 H 169.917 3.66453 -1.97741 0
M  V30 1835 H 172.514 5.34155 0.241443 0
M  V30 1836 H 172.857 3.96688 1.2627 0
M  V30 1837 H 173.39 3.95403 -0.436025 0
M  V30 1838 H 170.129 6.00956 -2.61787 0
M  V30 1839 H 169.649 5.929 -0.90718 0
M  V30 1840 H 171.328 6.32809 -1.34766 0
M  V30 1841 N 171.46 0.379036 1.52974 0
M  V30 1842 C 172.407 -0.461048 2.26148 0
M  V30 1843 C 173.377 -1.06637 1.27349 0
M  V30 1844 O 174.562 -1.09633 1.56157 0
M  V30 1845 C 171.702 -1.58782 3.06402 0
M  V30 1846 C 170.815 -1.00636 4.20115 0
M  V30 1847 C 169.95 -2.10334 4.87784 0
M  V30 1848 C 168.989 -1.49724 5.93506 0
M  V30 1849 N 168.126 -2.5331 6.54812 0
M  V30 1850 H 172.966 0.169429 2.97518 0
M  V30 1851 H 170.503 0.0953806 1.4679 0
M  V30 1852 H 172.461 -2.25174 3.51215 0
M  V30 1853 H 171.091 -2.18876 2.37261 0
M  V30 1854 H 170.143 -0.232332 3.7969 0
M  V30 1855 H 171.455 -0.523343 4.96047 0
M  V30 1856 H 170.609 -2.84519 5.35849 0
M  V30 1857 H 169.348 -2.61992 4.11353 0
M  V30 1858 H 168.353 -0.740598 5.44789 0
M  V30 1859 H 169.578 -0.988732 6.71864 0
M  V30 1860 H 167.524 -3.04156 5.81227 0
M  V30 1861 H 167.441 -2.09734 7.26325 0
M  V30 1862 H 168.709 -3.27155 7.07524 0
M  V30 1863 N 172.938 -1.57226 0.108567 0
M  V30 1864 C 174.349 -1.8195 -0.418464 0
M  V30 1865 C 174.7 -1.02508 -1.67292 0
M  V30 1866 O 173.825 -0.258496 -2.14851 0
M  V30 1867 C 174.42 -3.30028 -0.765979 0
M  V30 1868 C 172.979 -3.55469 -1.23769 0
M  V30 1869 C 172.126 -2.7625 -0.241106 0
M  V30 1870 H 175.077 -1.55149 0.33384 0
M  V30 1871 H 175.098 -3.44086 -1.62434 0
M  V30 1872 H 174.61 -3.87821 0.147219 0
M  V30 1873 H 172.711 -3.03022 -2.16814 0
M  V30 1874 H 172.824 -4.6408 -1.19022 0
M  V30 1875 H 171.188 -2.44133 -0.72602 0
M  V30 1876 H 171.971 -3.36797 0.665007 0
M  V30 1877 N 174.416 0.165178 -1.56732 0
M  V30 1878 C 175.326 1.22423 -2.00125 0
M  V30 1879 C 176.342 1.48084 -0.913619 0
M  V30 1880 O 177.518 1.60112 -1.22172 0
M  V30 1881 C 174.583 2.54197 -2.35764 0
M  V30 1882 C 173.644 2.36343 -3.58386 0
M  V30 1883 C 172.877 3.61834 -3.92316 0
M  V30 1884 O 173.1 4.67267 -3.27135 0
M  V30 1885 O 172.034 3.55579 -4.85641 0
M  V30 1886 H 175.86 0.885886 -2.90492 0
M  V30 1887 H 173.445 0.372518 -1.44681 0
M  V30 1888 H 175.327 3.3192 -2.59629 0
M  V30 1889 H 174.002 2.87598 -1.48557 0
M  V30 1890 H 172.909 1.56632 -3.39731 0
M  V30 1891 H 174.242 2.07865 -4.46154 0
M  V30 1892 N 175.894 1.51508 0.433938 0
M  V30 1893 C 176.857 1.72473 1.50949 0
M  V30 1894 C 177.857 0.594725 1.49398 0
M  V30 1895 O 179.047 0.862315 1.5136 0
M  V30 1896 C 176.179 1.78431 2.90474 0
M  V30 1897 H 177.372 2.68467 1.33662 0
M  V30 1898 H 174.925 1.41549 0.662836 0
M  V30 1899 H 175.66 0.842645 3.13161 0
M  V30 1900 H 175.445 2.60558 2.93005 0
M  V30 1901 H 176.935 1.96479 3.68491 0
M  V30 1902 N 177.372 -0.689602 1.41712 0
M  V30 1903 C 178.618 -1.45181 1.41599 0
M  V30 1904 C 178.951 -1.94181 0.0270081 0
M  V30 1905 O 178.226 -1.6993 -0.946265 0
M  V30 1906 C 178.509 -2.65945 2.42787 0
M  V30 1907 C 178.362 -2.22672 3.90816 0
M  V30 1908 C 179.681 -3.68149 2.41151 0
M  V30 1909 H 176.8 -0.526576 0.515642 0
M  V30 1910 H 179.442 -0.784947 1.73028 0
M  V30 1911 H 177.592 -3.2284 2.16116 0
M  V30 1912 H 179.264 -1.71058 4.28412 0
M  V30 1913 H 177.507 -1.54394 4.05395 0
M  V30 1914 H 178.178 -3.0935 4.57172 0
M  V30 1915 H 180.654 -3.2094 2.64834 0
M  V30 1916 H 179.53 -4.50248 3.13955 0
M  V30 1917 H 179.791 -4.18259 1.43221 0
M  V30 1918 N 178.85 -1.27639 -0.924453 0
M  V30 1919 C 179.797 -1.10644 -2.0255 0
M  V30 1920 C 180.767 -0.00658438 -1.66099 0
M  V30 1921 O 181.952 -0.16952 -1.90045 0
M  V30 1922 C 179.092 -0.76309 -3.36557 0
M  V30 1923 C 178.205 -1.94091 -3.85944 0
M  V30 1924 C 177.34 -1.53914 -5.08413 0
M  V30 1925 C 176.379 -2.68425 -5.50104 0
M  V30 1926 N 175.516 -2.28815 -6.63768 0
M  V30 1927 H 180.356 -2.04858 -2.16419 0
M  V30 1928 H 177.893 -1.01974 -1.06017 0
M  V30 1929 H 179.851 -0.544822 -4.13627 0
M  V30 1930 H 178.481 0.142102 -3.22487 0
M  V30 1931 H 177.533 -2.27162 -3.05125 0
M  V30 1932 H 178.845 -2.7998 -4.12811 0
M  V30 1933 H 177.999 -1.28231 -5.92994 0
M  V30 1934 H 176.738 -0.651391 -4.8333 0
M  V30 1935 H 175.743 -2.94819 -4.64071 0
M  V30 1936 H 176.968 -3.57826 -5.7718 0
M  V30 1937 H 174.914 -1.42495 -6.40337 0
M  V30 1938 H 174.831 -3.08242 -6.90306 0
M  V30 1939 H 176.099 -2.06387 -7.51681 0
M  V30 1940 N 180.328 1.1314 -1.09713 0
M  V30 1941 C 181.261 2.17735 -0.683137 0
M  V30 1942 C 182.239 1.59582 0.311841 0
M  V30 1943 O 183.423 1.87298 0.212514 0
M  V30 1944 C 180.55 3.38699 -0.00684324 0
M  V30 1945 C 179.596 4.1546 -0.964102 0
M  V30 1946 S 180.429 4.74733 -2.47767 0
M  V30 1947 C 181.585 5.9904 -1.81387 0
M  V30 1948 H 181.818 2.52515 -1.56918 0
M  V30 1949 H 179.351 1.24484 -0.913404 0
M  V30 1950 H 181.309 4.08765 0.377044 0
M  V30 1951 H 179.97 3.02214 0.85589 0
M  V30 1952 H 179.163 5.02093 -0.43803 0
M  V30 1953 H 178.765 3.51066 -1.28953 0
M  V30 1954 H 181.057 6.67846 -1.13967 0
M  V30 1955 H 182 6.56261 -2.65947 0
M  V30 1956 H 182.408 5.4976 -1.28155 0
M  V30 1957 N 181.806 0.884767 1.30421 0
M  V30 1958 C 183.052 0.503851 1.96441 0
M  V30 1959 C 183.385 -0.944518 1.69684 0
M  V30 1960 O 182.66 -1.66737 1.00145 0
M  V30 1961 C 182.943 0.779085 3.51571 0
M  V30 1962 C 182.796 2.27807 3.87846 0
M  V30 1963 C 184.115 0.255452 4.39358 0
M  V30 1964 H 181.234 0.184533 0.713524 0
M  V30 1965 H 183.876 1.10872 1.54297 0
M  V30 1966 H 182.026 0.264274 3.876 0
M  V30 1967 H 183.698 2.86127 3.61841 0
M  V30 1968 H 181.941 2.74479 3.35922 0
M  V30 1969 H 182.612 2.42125 4.96064 0
M  V30 1970 H 185.088 0.696079 4.10236 0
M  V30 1971 H 183.964 0.477361 5.4682 0
M  V30 1972 H 184.225 -0.843293 4.33983 0
M  V30 1973 N 183.284 -1.43765 0.645699 0
M  V30 1974 C 184.216 -2.29027 -0.0890605 0
M  V30 1975 C 185.229 -1.42093 -0.794563 0
M  V30 1976 O 186.418 -1.66104 -0.653575 0
M  V30 1977 C 183.518 -3.18831 -1.14891 0
M  V30 1978 C 182.691 -4.34261 -0.523043 0
M  V30 1979 C 181.75 -5.04994 -1.47878 0
M  V30 1980 O 180.776 -5.6052 -0.990277 0
M  V30 1981 N 181.978 -5.07795 -2.81291 0
M  V30 1982 H 184.743 -2.92727 0.64272 0
M  V30 1983 H 182.304 -1.54373 0.487924 0
M  V30 1984 H 184.296 -3.63015 -1.78892 0
M  V30 1985 H 182.866 -2.56782 -1.78275 0
M  V30 1986 H 182.086 -3.93088 0.295896 0
M  V30 1987 H 183.374 -5.08728 -0.0858147 0
M  V30 1988 H 182.772 -4.64042 -3.23546 0
M  V30 1989 H 181.329 -5.55721 -3.40614 0
M  V30 1990 N 184.763 -0.387143 -1.52771 0
M  V30 1991 C 186.009 0.196025 -2.0185 0
M  V30 1992 C 186.342 1.46641 -1.27319 0
M  V30 1993 O 185.617 1.90889 -0.373032 0
M  V30 1994 C 185.9 0.466136 -3.5707 0
M  V30 1995 C 185.753 -0.819385 -4.42274 0
M  V30 1996 C 187.072 1.25768 -4.21747 0
M  V30 1997 H 184.191 0.0697708 -0.73369 0
M  V30 1998 H 186.833 -0.516286 -1.82851 0
M  V30 1999 H 184.983 1.07293 -3.7339 0
M  V30 2000 H 186.655 -1.4563 -4.37709 0
M  V30 2001 H 184.898 -1.43517 -4.09372 0
M  V30 2002 H 185.569 -0.585065 -5.48891 0
M  V30 2003 H 188.045 0.744167 -4.09391 0
M  V30 2004 H 186.921 1.41541 -5.30337 0
M  V30 2005 H 187.182 2.27228 -3.79236 0
M  V30 2006 N 186.241 1.57166 -0.116904 0
M  V30 2007 C 187.487 1.96206 0.536166 0
M  V30 2008 C 187.842 0.99915 1.64422 0
M  V30 2009 O 187.135 0.0288195 1.91578 0
M  V30 2010 C 187.329 3.39508 1.11664 0
M  V30 2011 C 187.158 4.49651 0.0663474 0
M  V30 2012 C 185.928 5.03982 -0.36474 0
M  V30 2013 C 188.126 5.09322 -0.713829 0
M  V30 2014 N 186.108 5.97699 -1.40102 0
M  V30 2015 C 187.479 5.98963 -1.60136 0
M  V30 2016 C 189.534 4.91989 -0.764948 0
M  V30 2017 C 188.237 6.73128 -2.53556 0
M  V30 2018 C 190.263 5.66833 -1.68685 0
M  V30 2019 C 189.625 6.56158 -2.56196 0
M  V30 2020 H 185.724 0.764203 0.165886 0
M  V30 2021 H 188.308 1.93623 -0.204535 0
M  V30 2022 H 186.479 3.42743 1.82707 0
M  V30 2023 H 188.211 3.65677 1.73386 0
M  V30 2024 H 184.966 4.73592 0.027252 0
M  V30 2025 H 185.39 6.49262 -1.91802 0
M  V30 2026 H 190.032 4.22676 -0.102501 0
M  V30 2027 H 187.75 7.41689 -3.20816 0
M  V30 2028 H 191.336 5.55427 -1.73181 0
M  V30 2029 H 190.216 7.13057 -3.26372 0
M  V30 2030 N 187.719 -0.156864 1.56817 0
M  V30 2031 C 189.135 -0.50916 1.5126 0
M  V30 2032 C 189.335 -1.83897 0.823658 0
M  V30 2033 O 188.391 -2.49469 0.390055 0
M  V30 2034 C 189.704 -0.52857 2.96018 0
M  V30 2035 C 191.252 -0.614771 3.06903 0
M  V30 2036 C 191.727 -0.664938 4.53147 0
M  V30 2037 N 193.218 -0.727433 4.57452 0
M  V30 2038 C 193.953 -0.787067 5.67973 0
M  V30 2039 N 193.449 -0.806649 6.88088 0
M  V30 2040 N 195.242 -0.827195 5.5598 0
M  V30 2041 H 187.393 0.714935 2.00006 0
M  V30 2042 H 189.656 0.259526 0.911784 0
M  V30 2043 H 189.362 0.380154 3.49639 0
M  V30 2044 H 189.236 -1.36998 3.51442 0
M  V30 2045 H 191.623 -1.51392 2.53307 0
M  V30 2046 H 191.704 0.253597 2.5454 0
M  V30 2047 H 191.348 0.230011 5.07379 0
M  V30 2048 H 191.278 -1.54966 5.03282 0
M  V30 2049 H 193.769 -0.719998 3.70978 0
M  V30 2050 H 194.082 -0.853727 7.6807 0
M  V30 2051 H 192.427 -0.774687 6.90669 0
M  V30 2052 H 195.618 -0.808998 4.61056 0
M  V30 2053 H 195.791 -0.870206 6.4213 0
M  V30 2054 N 189.197 -1.51736 -0.425897 0
M  V30 2055 C 190.474 -1.55519 -1.1863 0
M  V30 2056 C 190.854 -0.326219 -2.08564 0
M  V30 2057 O 190.202 0.688012 -2.17896 0
M  V30 2058 C 190.412 -2.87521 -1.9782 0
M  V30 2059 C 191.76 -3.39899 -2.54468 0
M  V30 2060 O 192.784 -2.89148 -2.08019 0
M  V30 2061 O 191.643 -4.2848 -3.39215 0
M  V30 2062 H 188.737 -0.625739 -0.540721 0
M  V30 2063 H 191.283 -1.64055 -0.434038 0
M  V30 2064 H 190.055 -3.68422 -1.31836 0
M  V30 2065 H 189.678 -2.822 -2.80088 0
M  V30 2066 N 190.675 0.682077 -1.42076 0
M  V30 2067 C 191.924 1.43786 -1.41451 0
M  V30 2068 C 192.237 1.95574 -0.0317074 0
M  V30 2069 O 193.443 2.71326 0.0971462 0
M  V30 2070 C 191.899 2.60071 -2.48779 0
M  V30 2071 C 191.507 2.15013 -3.93031 0
M  V30 2072 C 193.251 3.37626 -2.57311 0
M  V30 2073 C 191.158 3.28336 -4.91883 0
M  V30 2074 H 190.088 0.540143 -0.526082 0
M  V30 2075 H 192.739 0.739157 -1.67955 0
M  V30 2076 H 191.121 3.32275 -2.15429 0
M  V30 2077 H 192.295 1.5001 -4.35699 0
M  V30 2078 H 190.61 1.50416 -3.88284 0
M  V30 2079 H 193.207 4.22012 -3.28345 0
M  V30 2080 H 193.55 3.83727 -1.61429 0
M  V30 2081 H 194.083 2.72488 -2.89819 0
M  V30 2082 H 190.822 2.87234 -5.89217 0
M  V30 2083 H 190.342 3.92145 -4.53853 0
M  V30 2084 H 192.021 3.93913 -5.13265 0
M  V30 2085 N 192.153 1.28127 0.917671 0
M  V30 2086 C 193.378 1.18007 1.70555 0
M  V30 2087 C 193.803 -0.258257 1.86319 0
M  V30 2088 O 193.161 -1.1869 1.37049 0
M  V30 2089 C 193.209 1.87948 3.07746 0
M  V30 2090 O 192.313 1.18427 3.9503 0
M  V30 2091 H 191.654 0.409867 0.522403 0
M  V30 2092 H 194.184 1.69379 1.1477 0
M  V30 2093 H 194.194 1.95701 3.58001 0
M  V30 2094 H 192.869 2.92573 2.95591 0
M  V30 2095 H 191.446 1.18811 3.53466 0
M  V30 2096 N 193.631 -1.12557 1.10312 0
M  V30 2097 C 194.561 -2.20341 0.772798 0
M  V30 2098 C 195.542 -1.68198 -0.25365 0
M  V30 2099 O 196.727 -1.93831 -0.119699 0
M  V30 2100 C 193.857 -3.46709 0.202443 0
M  V30 2101 C 192.811 -4.11996 1.15943 0
M  V30 2102 C 192.137 -5.328 0.450345 0
M  V30 2103 C 193.437 -4.5828 2.50552 0
M  V30 2104 H 195.131 -2.48229 1.674 0
M  V30 2105 H 192.677 -1.19308 0.806326 0
M  V30 2106 H 194.63 -4.2138 -0.0407752 0
M  V30 2107 H 193.354 -3.18245 -0.734001 0
M  V30 2108 H 192.013 -3.39305 1.38808 0
M  V30 2109 H 191.661 -5.00602 -0.490531 0
M  V30 2110 H 191.361 -5.7743 1.08851 0
M  V30 2111 H 192.885 -6.10219 0.215642 0
M  V30 2112 H 194.299 -5.2433 2.31843 0
M  V30 2113 H 192.696 -5.13683 3.10242 0
M  V30 2114 H 193.766 -3.72329 3.10643 0
M  V30 2115 N 195.109 -0.891671 -1.2995 0
M  V30 2116 C 196.337 -0.52866 -2.00032 0
M  V30 2117 C 196.752 0.884574 -1.66795 0
M  V30 2118 O 196.109 1.5827 -0.908669 0
M  V30 2119 C 196.16 -0.701814 -3.54622 0
M  V30 2120 O 195.881 -2.05942 -3.86678 0
M  V30 2121 C 197.382 -0.342683 -4.41973 0
M  V30 2122 H 194.602 -0.203659 -0.639347 0
M  V30 2123 H 197.146 -1.19881 -1.65677 0
M  V30 2124 H 195.301 -0.0789468 -3.8732 0
M  V30 2125 H 195.715 -2.08291 -4.81368 0
M  V30 2126 H 197.189 -0.514709 -5.49595 0
M  V30 2127 H 197.666 0.71975 -4.33262 0
M  V30 2128 H 198.272 -0.942154 -4.14733 0
M  V30 2129 N 196.587 1.43421 -0.653314 0
M  V30 2130 C 197.534 2.30768 0.0382271 0
M  V30 2131 C 198.504 1.44755 0.814576 0
M  V30 2132 O 199.689 1.73624 0.791162 0
M  V30 2133 C 196.829 3.30336 0.998599 0
M  V30 2134 C 195.942 4.31448 0.218342 0
M  V30 2135 C 195.077 5.18098 1.17252 0
M  V30 2136 C 194.116 6.10902 0.382702 0
M  V30 2137 N 193.253 6.90176 1.28848 0
M  V30 2138 H 198.093 2.89357 -0.712511 0
M  V30 2139 H 195.63 1.42548 -0.363128 0
M  V30 2140 H 197.588 3.86572 1.56901 0
M  V30 2141 H 196.218 2.73397 1.71621 0
M  V30 2142 H 195.27 3.77506 -0.46836 0
M  V30 2143 H 196.582 4.97227 -0.395812 0
M  V30 2144 H 195.736 5.7896 1.81356 0
M  V30 2145 H 194.475 4.52444 1.82058 0
M  V30 2146 H 193.48 5.49128 -0.27169 0
M  V30 2147 H 194.705 6.78598 -0.260957 0
M  V30 2148 H 192.651 6.27171 1.92334 0
M  V30 2149 H 192.568 7.52478 0.728887 0
M  V30 2150 H 193.836 7.55543 1.91766 0
M  V30 2151 N 198.065 0.39524 1.52563 0
M  V30 2152 C 199.312 -0.185044 2.01653 0
M  V30 2153 C 199.64 -1.46317 1.28146 0
M  V30 2154 O 198.895 -1.9213 0.372074 0
M  V30 2155 C 199.194 -0.493444 3.53977 0
M  V30 2156 C 198.86 0.69384 4.4553 0
M  V30 2157 C 197.522 1.01954 4.70275 0
M  V30 2158 C 199.874 1.48785 4.99512 0
M  V30 2159 C 197.202 2.14069 5.46252 0
M  V30 2160 C 199.554 2.59965 5.76716 0
M  V30 2161 C 198.218 2.93037 5.99738 0
M  V30 2162 H 197.488 -0.0677123 0.7379 0
M  V30 2163 H 200.135 0.533807 1.8391 0
M  V30 2164 H 198.44 -1.29369 3.69825 0
M  V30 2165 H 200.137 -0.955163 3.89458 0
M  V30 2166 H 196.727 0.429987 4.26438 0
M  V30 2167 H 200.911 1.24946 4.80315 0
M  V30 2168 H 196.167 2.40056 5.62302 0
M  V30 2169 H 200.341 3.21887 6.17545 0
M  V30 2170 H 197.968 3.8003 6.58393 0
M  V30 2171 N 199.544 -1.57102 0.125237 0
M  V30 2172 C 200.492 -2.16905 -0.839927 0
M  V30 2173 C 201.486 -1.11998 -1.27094 0
M  V30 2174 O 202.692 -1.3029 -1.24195 0
M  V30 2175 H 199.067 -0.694252 -0.288995 0
M  V30 2176 H 201.038 -2.96774 -0.311115 0
M  V30 2177 C 199.787 -2.78795 -2.07771 0
M  V30 2178 H 199.11 -3.59221 -1.755 0
M  V30 2179 H 200.55 -3.2417 -2.73295 0
M  V30 2180 C 199.009 -1.76193 -2.87155 0
M  V30 2181 O 199.539 -1.21909 -3.82755 0
M  V30 2182 N 197.745 -1.45991 -2.51267 0
M  V30 2183 H 197.292 -1.90325 -1.73592 0
M  V30 2184 H 197.25 -0.775844 -3.04677 0
M  V30 2185 N 201.022 0.148545 -1.56898 0
M  V30 2186 C 202.268 0.862694 -1.83536 0
M  V30 2187 C 202.601 1.80889 -0.706604 0
M  V30 2188 O 201.876 1.92328 0.289885 0
M  V30 2189 C 202.159 1.63853 -3.20662 0
M  V30 2190 C 202.012 0.713925 -4.44098 0
M  V30 2191 C 203.331 2.60133 -3.54991 0
M  V30 2192 H 200.45 0.312179 -0.667618 0
M  V30 2193 H 203.092 0.127953 -1.89569 0
M  V30 2194 H 201.242 2.26489 -3.1565 0
M  V30 2195 H 202.914 0.098686 -4.61194 0
M  V30 2196 H 201.157 0.0234019 -4.33794 0
M  V30 2197 H 201.828 1.29278 -5.36648 0
M  V30 2198 H 204.304 2.07616 -3.60603 0
M  V30 2199 H 203.18 3.11468 -4.51972 0
M  V30 2200 H 203.441 3.41417 -2.80868 0
M  V30 2201 N 202.5 1.5196 0.417844 0
M  V30 2202 C 203.725 1.69717 1.1921 0
M  V30 2203 C 204.15 0.402148 1.83751 0
M  V30 2204 O 203.508 -0.639593 1.69643 0
M  V30 2205 C 203.556 2.82794 2.2374 0
M  V30 2206 O 202.66 2.47756 3.29683 0
M  V30 2207 H 202.001 0.565263 0.348387 0
M  V30 2208 H 204.531 1.98621 0.490985 0
M  V30 2209 H 204.541 3.07452 2.68212 0
M  V30 2210 H 203.216 3.76756 1.76146 0
M  V30 2211 H 201.793 2.33739 2.90552 0
M  V30 2212 N 203.978 -0.674533 1.42435 0
M  V30 2213 C 205.208 -1.46071 1.46105 0
M  V30 2214 C 205.616 -1.89067 0.0709605 0
M  V30 2215 O 204.959 -1.58731 -0.924677 0
M  V30 2216 C 205.021 -2.74145 2.32561 0
M  V30 2217 C 204.685 -2.53224 3.8043 0
M  V30 2218 C 205.682 -2.17809 4.72075 0
M  V30 2219 C 203.367 -2.6821 4.24698 0
M  V30 2220 C 205.361 -1.97648 6.05982 0
M  V30 2221 C 203.048 -2.47665 5.58664 0
M  V30 2222 C 204.046 -2.12437 6.49122 0
M  V30 2223 O 203.734 -1.9209 7.80613 0
M  V30 2224 H 203.466 -0.455959 0.499076 0
M  V30 2225 H 206.02 -0.836193 1.87609 0
M  V30 2226 H 204.25 -3.3908 1.85908 0
M  V30 2227 H 205.939 -3.36028 2.27683 0
M  V30 2228 H 206.705 -2.05826 4.39159 0
M  V30 2229 H 202.584 -2.94609 3.54579 0
M  V30 2230 H 206.128 -1.70075 6.7655 0
M  V30 2231 H 202.025 -2.59244 5.91154 0
M  V30 2232 H 202.793 -2.06686 7.91974 0
M  V30 2233 N 205.456 -1.28612 -0.910864 0
M  V30 2234 C 206.386 -1.15326 -2.03032 0
M  V30 2235 C 207.367 -0.0502924 -1.70026 0
M  V30 2236 O 208.552 -0.227797 -1.92859 0
M  V30 2237 C 205.682 -0.817343 -3.37545 0
M  V30 2238 C 204.636 -1.8754 -3.84724 0
M  V30 2239 C 203.962 -1.39305 -5.16235 0
M  V30 2240 C 205.262 -3.28244 -4.06267 0
M  V30 2241 H 206.956 -2.08975 -2.14406 0
M  V30 2242 H 204.502 -1.00612 -1.03021 0
M  V30 2243 H 206.455 -0.711151 -4.15356 0
M  V30 2244 H 205.179 0.154846 -3.26233 0
M  V30 2245 H 203.838 -1.97079 -3.09121 0
M  V30 2246 H 203.486 -0.409846 -5.01328 0
M  V30 2247 H 203.186 -2.10057 -5.48771 0
M  V30 2248 H 204.71 -1.30014 -5.96598 0
M  V30 2249 H 206.124 -3.21611 -4.74594 0
M  V30 2250 H 204.521 -3.96855 -4.5014 0
M  V30 2251 H 205.591 -3.72048 -3.10979 0
M  V30 2252 N 206.934 1.1197 -1.10907 0
M  V30 2253 C 207.881 2.17846 -0.762345 0
M  V30 2254 C 208.851 1.63995 0.263599 0
M  V30 2255 O 210.036 1.90273 0.141773 0
M  V30 2256 C 207.176 3.44487 -0.205651 0
M  V30 2257 C 206.289 4.12369 -1.28748 0
M  V30 2258 C 205.424 5.26674 -0.691919 0
M  V30 2259 C 204.463 5.86431 -1.75399 0
M  V30 2260 N 203.6 6.92142 -1.17833 0
M  V30 2261 H 208.44 2.46851 -1.6694 0
M  V30 2262 H 205.977 1.21188 -0.833776 0
M  V30 2263 H 207.935 4.16981 0.135037 0
M  V30 2264 H 206.565 3.15884 0.664613 0
M  V30 2265 H 205.617 3.38003 -1.74522 0
M  V30 2266 H 206.929 4.52844 -2.09125 0
M  V30 2267 H 206.083 6.05953 -0.300963 0
M  V30 2268 H 204.822 4.8749 0.143232 0
M  V30 2269 H 203.827 5.05835 -2.15432 0
M  V30 2270 H 205.052 6.27685 -2.59208 0
M  V30 2271 H 202.998 6.54985 -0.364725 0
M  V30 2272 H 202.915 7.31242 -1.91887 0
M  V30 2273 H 204.183 7.75237 -0.81408 0
M  V30 2274 N 208.412 0.89855 1.29475 0
M  V30 2275 C 209.828 0.594483 1.48115 0
M  V30 2276 C 210.028 -0.86431 1.82022 0
M  V30 2277 O 209.084 -1.64457 1.91599 0
M  V30 2278 C 210.397 1.51932 2.59494 0
M  V30 2279 C 211.945 1.5244 2.7337 0
M  V30 2280 C 212.42 2.43548 3.87877 0
M  V30 2281 N 213.911 2.41589 3.95208 0
M  V30 2282 C 214.646 3.08789 4.83153 0
M  V30 2283 N 214.142 3.85265 5.75798 0
M  V30 2284 N 215.935 2.97952 4.76635 0
M  V30 2285 H 208.086 1.84207 1.05742 0
M  V30 2286 H 210.349 0.789251 0.525154 0
M  V30 2287 H 210.055 2.55865 2.41301 0
M  V30 2288 H 209.929 1.23899 3.56271 0
M  V30 2289 H 212.316 0.492518 2.90961 0
M  V30 2290 H 212.397 1.8451 1.77172 0
M  V30 2291 H 212.041 3.46829 3.71041 0
M  V30 2292 H 211.971 2.08788 4.83441 0
M  V30 2293 H 214.462 1.86025 3.28943 0
M  V30 2294 H 214.775 4.33598 6.39697 0
M  V30 2295 H 213.12 3.89371 5.75687 0
M  V30 2296 H 216.311 2.37723 4.03244 0
M  V30 2297 H 216.484 3.50599 5.44962 0
M  V30 2298 O 209.929 -1.40275 0.80033 0
M  V30 2299 H 210.62 -1.90048 0.374337 0
M  V30 END ATOM
M  V30 BEGIN BOND
M  V30 END BOND
M  V30 END CTAB
M  END
$$$$
