drugbank_target|Q05488 Glutamate mutase sigma subunit (DB02576)
 OpenBabel12092119593D

  0  0  0     0  0            999 V3000
M  V30 BEGIN CTAB
M  V30 COUNTS 2069 2084 0 0 0
M  V30 BEGIN ATOM
M  V30 1 H -0.908 1.98254 -0.117106 0
M  V30 2 N 0 1.576 0 0
M  V30 3 C 0.933 2.03868 1.02534 0
M  V30 4 C 1.911 0.928543 1.3348 0
M  V30 5 O 3.095 1.19667 1.45644 0
M  V30 6 C 0.222 2.43627 2.35294 0
M  V30 7 C -0.732 3.65373 2.2001 0
M  V30 8 S 0.101 5.13292 1.52614 0
M  V30 9 C 1.257 5.56322 2.86805 0
M  V30 10 H 1.49 2.90518 0.631377 0
M  V30 11 H -0.977 1.52953 0.210867 0
M  V30 12 H 0.981 2.67203 3.11629 0
M  V30 13 H -0.358 1.57376 2.7183 0
M  V30 14 H -1.165 3.90944 3.18086 0
M  V30 15 H -1.563 3.418 1.51819 0
M  V30 16 H 0.729 5.58782 3.83104 0
M  V30 17 H 1.672 6.56266 2.65933 0
M  V30 18 H 2.08 4.83886 2.90714 0
M  V30 19 N 1.4781 -0.272755 1.55222 0
M  V30 20 C 2.3881 -1.35918 1.91216 0
M  V30 21 C 3.4041 -1.54026 0.809436 0
M  V30 22 O 4.5801 -1.68148 1.10852 0
M  V30 23 C 1.6451 -2.69834 2.17693 0
M  V30 24 C 0.7061 -2.6047 3.41253 0
M  V30 25 C -0.0609 -3.88 3.66458 0
M  V30 26 O 0.1621 -4.88693 2.94169 0
M  V30 27 O -0.9039 -3.88189 4.59992 0
M  V30 28 H 2.9221 -1.0839 2.83699 0
M  V30 29 H 0.5071 -0.471301 1.41771 0
M  V30 30 H 2.3891 -3.49017 2.36147 0
M  V30 31 H 1.0641 -2.97148 1.28392 0
M  V30 32 H -0.0289 -1.79663 3.28134 0
M  V30 33 H 1.3041 -2.38106 4.30774 0
M  V30 34 N 2.9562 -1.48159 -0.537278 0
M  V30 35 C 3.9032 -1.62138 -1.64256 0
M  V30 36 C 4.8732 -0.463668 -1.59497 0
M  V30 37 O 6.0582 -0.686241 -1.78032 0
M  V30 38 C 3.1982 -1.66028 -3.02537 0
M  V30 39 C 2.3112 -2.92855 -3.17585 0
M  V30 40 C 1.4462 -2.87952 -4.46382 0
M  V30 41 C 0.4852 -4.09516 -4.54932 0
M  V30 42 N -0.3778 -4.02733 -5.75109 0
M  V30 43 H 4.4622 -2.56529 -1.51647 0
M  V30 44 H 1.9992 -1.27224 -0.738414 0
M  V30 45 H 3.9572 -1.66265 -3.82638 0
M  V30 46 H 2.5872 -0.751331 -3.13934 0
M  V30 47 H 1.6392 -3.02395 -2.30784 0
M  V30 48 H 2.9512 -3.82822 -3.19764 0
M  V30 49 H 2.1052 -2.8655 -5.34765 0
M  V30 50 H 0.8442 -1.95702 -4.46712 0
M  V30 51 H -0.1508 -4.11201 -3.64957 0
M  V30 52 H 1.0742 -5.02917 -4.56346 0
M  V30 53 H -0.9798 -3.13299 -5.76351 0
M  V30 54 H -1.0628 -4.86397 -5.78752 0
M  V30 55 H 0.2052 -4.05379 -6.65799 0
M  V30 56 N 4.4343 0.785586 -1.36625 0
M  V30 57 C 5.3813 1.89838 -1.31264 0
M  V30 58 C 6.3513 1.65115 -0.180633 0
M  V30 59 O 7.5363 1.87222 -0.36777 0
M  V30 60 C 4.6763 3.26706 -1.11163 0
M  V30 61 C 3.7893 3.63476 -2.33472 0
M  V30 62 C 2.9243 4.89481 -2.06353 0
M  V30 63 C 1.9633 5.18941 -3.24602 0
M  V30 64 N 1.1003 6.36131 -2.97123 0
M  V30 65 H 5.9403 1.93756 -2.26413 0
M  V30 66 H 3.4773 0.947454 -1.12524 0
M  V30 67 H 5.4353 4.05639 -0.975337 0
M  V30 68 H 4.0653 3.222 -0.196674 0
M  V30 69 H 3.1173 2.79636 -2.57891 0
M  V30 70 H 4.4293 3.81193 -3.21704 0
M  V30 71 H 3.5833 5.76288 -1.89675 0
M  V30 72 H 2.3223 4.73841 -1.15437 0
M  V30 73 H 1.3273 4.30615 -3.41834 0
M  V30 74 H 2.5523 5.36498 -4.16349 0
M  V30 75 H 0.4983 6.21875 -2.08823 0
M  V30 76 H 0.4153 6.54198 -3.78894 0
M  V30 77 H 1.6833 7.2591 -2.84033 0
M  V30 78 N 5.9124 1.20967 1.01018 0
M  V30 79 C 7.1404 1.04956 1.78303 0
M  V30 80 C 7.5554 -0.400915 1.84494 0
M  V30 81 O 6.9124 -1.27826 1.30257 0
M  V30 82 C 6.9634 1.63403 3.22462 0
M  V30 83 O 6.6844 3.02775 3.16637 0
M  V30 84 C 8.1854 1.52432 4.16268 0
M  V30 85 H 5.4054 0.368858 0.560522 0
M  V30 86 H 7.9494 1.60193 1.27116 0
M  V30 87 H 6.1044 1.1227 3.70775 0
M  V30 88 H 6.5184 3.30626 4.07169 0
M  V30 89 H 7.9924 1.98078 5.15237 0
M  V30 90 H 8.4694 0.477875 4.36592 0
M  V30 91 H 9.0754 2.02787 3.73841 0
M  V30 92 N 7.3905 -1.2043 1.01659 0
M  V30 93 C 8.6395 -1.89118 0.701237 0
M  V30 94 C 8.9525 -1.79705 -0.772358 0
M  V30 95 O 10.1585 -2.43528 -1.20026 0
M  V30 96 C 8.6145 -3.39168 1.20388 0
M  V30 97 C 8.2225 -3.57166 2.70438 0
M  V30 98 C 9.9665 -4.1341 0.963953 0
M  V30 99 C 7.8735 -5.01042 3.14183 0
M  V30 100 H 6.8035 -0.708267 0.2586 0
M  V30 101 H 9.4545 -1.36239 1.22927 0
M  V30 102 H 7.8365 -3.91369 0.603824 0
M  V30 103 H 9.0105 -3.15351 3.35992 0
M  V30 104 H 7.3255 -2.96294 2.92572 0
M  V30 105 H 9.9225 -5.19491 1.26621 0
M  V30 106 H 10.2655 -4.16181 -0.099578 0
M  V30 107 H 10.7985 -3.67309 1.52738 0
M  V30 108 H 7.5375 -5.03426 4.19812 0
M  V30 109 H 7.0575 -5.43668 2.53348 0
M  V30 110 H 8.7365 -5.69623 3.0682 0
M  V30 111 N 8.8686 -0.792821 -1.36206 0
M  V30 112 C 10.1146 -0.36733 -1.99446 0
M  V30 113 C 10.4476 1.05917 -1.62774 0
M  V30 114 O 9.7226 1.7324 -0.88421 0
M  V30 115 C 10.0056 -0.535044 -3.56103 0
M  V30 116 C 9.8586 -2.00548 -4.02617 0
M  V30 117 C 11.1776 0.0478191 -4.40074 0
M  V30 118 H 8.2966 -0.134941 -0.724541 0
M  V30 119 H 10.9386 -0.999794 -1.61568 0
M  V30 120 H 9.0886 0.00336329 -3.885 0
M  V30 121 H 10.7606 -2.60521 -3.80692 0
M  V30 122 H 9.0036 -2.50686 -3.54032 0
M  V30 123 H 9.6746 -2.07377 -5.11565 0
M  V30 124 H 12.1506 -0.411822 -4.14057 0
M  V30 125 H 11.0266 -0.0995336 -5.4881 0
M  V30 126 H 11.2876 1.14025 -4.27142 0
M  V30 127 N 10.3467 1.47872 -0.545128 0
M  V30 128 C 11.2767 2.32661 0.197793 0
M  V30 129 C 12.2577 1.43041 0.920504 0
M  V30 130 O 13.4427 1.71912 0.90333 0
M  V30 131 C 10.5727 3.24569 1.23582 0
M  V30 132 C 9.5267 4.23333 0.630323 0
M  V30 133 C 8.8527 5.0448 1.77211 0
M  V30 134 C 10.1527 5.20704 -0.407974 0
M  V30 135 H 11.8467 2.95024 -0.510045 0
M  V30 136 H 9.3927 1.4187 -0.246731 0
M  V30 137 H 11.3457 3.8272 1.76362 0
M  V30 138 H 10.0697 2.60236 1.97344 0
M  V30 139 H 8.7287 3.6639 0.123922 0
M  V30 140 H 8.3767 4.36561 2.49847 0
M  V30 141 H 8.0767 5.71339 1.37281 0
M  V30 142 H 9.6007 5.65487 2.3034 0
M  V30 143 H 11.0147 5.7329 0.033305 0
M  V30 144 H 9.4117 5.95699 -0.725486 0
M  V30 145 H 10.4817 4.66917 -1.30828 0
M  V30 146 N 11.8248 0.280983 1.55075 0
M  V30 147 C 13.0728 -0.333455 1.9933 0
M  V30 148 C 13.3938 -1.55937 1.17085 0
M  V30 149 O 12.6638 -1.94143 0.261805 0
M  V30 150 H 11.2438 -0.126197 0.736263 0
M  V30 151 H 13.9058 0.387678 1.91005 0
M  V30 152 H 13.0018 -0.619292 3.05894 0
M  V30 153 N 13.3029 -1.57598 0.00835791 0
M  V30 154 C 14.5489 -1.91211 -0.675732 0
M  V30 155 C 14.8819 -0.883139 -1.72958 0
M  V30 156 O 14.1569 0.097016 -1.94258 0
M  V30 157 C 14.4399 -3.35379 -1.31123 0
M  V30 158 C 14.2929 -4.48999 -0.268356 0
M  V30 159 C 15.6119 -3.7912 -2.23508 0
M  V30 160 H 12.7309 -0.695374 -0.244179 0
M  V30 161 H 15.3729 -1.89901 0.0613655 0
M  V30 162 H 13.5229 -3.36626 -1.93946 0
M  V30 163 H 15.1949 -4.59887 0.360844 0
M  V30 164 H 13.4379 -4.31873 0.408482 0
M  V30 165 H 14.1089 -5.46851 -0.752218 0
M  V30 166 H 16.5849 -3.79477 -1.70693 0
M  V30 167 H 15.4609 -4.80729 -2.64936 0
M  V30 168 H 15.7219 -3.13455 -3.11766 0
M  V30 169 N 14.781 0.264519 -1.55364 0
M  V30 170 C 16.03 0.992812 -1.75574 0
M  V30 171 C 16.343 1.87142 -0.568979 0
M  V30 172 O 17.549 2.63513 -0.653682 0
M  V30 173 C 16.005 1.81519 -3.10771 0
M  V30 174 C 15.613 0.984839 -4.37041 0
M  V30 175 C 17.357 2.53727 -3.40327 0
M  V30 176 C 15.264 1.80209 -5.63275 0
M  V30 177 H 14.194 0.374412 -0.65447 0
M  V30 178 H 16.845 0.248138 -1.81815 0
M  V30 179 H 15.227 2.60115 -2.98591 0
M  V30 180 H 16.401 0.242455 -4.60162 0
M  V30 181 H 14.716 0.37691 -4.14691 0
M  V30 182 H 17.313 3.15292 -4.3185 0
M  V30 183 H 17.656 3.24447 -2.60845 0
M  V30 184 H 18.189 1.82156 -3.53644 0
M  V30 185 H 14.928 1.13896 -6.45529 0
M  V30 186 H 14.448 2.52022 -5.44284 0
M  V30 187 H 16.127 2.37364 -6.01887 0
M  V30 188 N 16.2591 1.48442 0.529413 0
M  V30 189 C 17.5071 1.56179 1.28267 0
M  V30 190 C 17.8281 0.237721 1.93546 0
M  V30 191 O 17.0981 -0.740779 1.81354 0
M  V30 192 H 15.6781 0.575367 0.476405 0
M  V30 193 H 18.3401 1.84909 0.61602 0
M  V30 194 H 17.4361 2.34312 2.06165 0
M  V30 195 N 17.7372 -0.778329 1.37039 0
M  V30 196 C 18.9622 -1.57248 1.35233 0
M  V30 197 C 19.3872 -1.87999 -0.0615568 0
M  V30 198 O 18.7452 -1.48734 -1.03672 0
M  V30 199 C 18.7932 -2.86353 2.19167 0
M  V30 200 O 17.8972 -3.80442 1.59178 0
M  V30 201 H 17.2382 -0.476569 0.462362 0
M  V30 202 H 19.7682 -0.963853 1.80474 0
M  V30 203 H 19.7782 -3.35519 2.32145 0
M  V30 204 H 18.4532 -2.63299 3.21942 0
M  V30 205 H 17.0302 -3.39067 1.55203 0
M  V30 206 N 19.2153 -1.21501 -1.00376 0
M  V30 207 C 20.4923 -0.941745 -1.71437 0
M  V30 208 C 20.8723 0.546114 -2.03914 0
M  V30 209 O 20.2203 1.51128 -1.71384 0
M  V30 210 C 20.4303 -1.82812 -2.97289 0
M  V30 211 C 21.7783 -2.07771 -3.70292 0
M  V30 212 O 22.8023 -1.80171 -3.07273 0
M  V30 213 O 21.6613 -2.54456 -4.83647 0
M  V30 214 H 18.7553 -0.353243 -0.747762 0
M  V30 215 H 21.3013 -1.32436 -1.06108 0
M  V30 216 H 20.0733 -2.83501 -2.69709 0
M  V30 217 H 19.6963 -1.4464 -3.70358 0
M  V30 218 N 20.6934 1.19889 -1.02296 0
M  V30 219 C 21.9334 1.91125 -0.724602 0
M  V30 220 C 22.2974 1.77464 0.732835 0
M  V30 221 O 23.4984 2.43241 1.144 0
M  V30 222 C 21.7694 3.38187 -1.15604 0
M  V30 223 S 23.3284 4.27702 -0.980621 0
M  V30 224 H 20.1464 0.66018 -0.263976 0
M  V30 225 H 22.7484 1.44978 -1.31155 0
M  V30 226 H 21.4524 3.45653 -2.21251 0
M  V30 227 H 20.9834 3.89363 -0.562131 0
M  V30 228 H 22.9984 4.96073 0.112225 0
M  V30 229 N 22.1715 0.800033 1.35784 0
M  V30 230 C 23.1215 0.178654 2.27299 0
M  V30 231 C 24.1055 -0.643667 1.47464 0
M  V30 232 O 25.2975 -0.502 1.69732 0
M  V30 233 C 22.4265 -0.677194 3.36555 0
M  V30 234 C 21.5125 0.154497 4.23818 0
M  V30 235 N 21.9035 1.21427 4.91008 0
M  V30 236 C 20.2015 -0.0649462 4.45953 0
M  V30 237 C 20.9025 1.72147 5.55644 0
M  V30 238 N 19.8785 1.02897 5.33773 0
M  V30 239 H 23.6805 0.989637 2.76737 0
M  V30 240 H 21.1945 0.64054 1.49234 0
M  V30 241 H 23.1915 -1.13835 4.01058 0
M  V30 242 H 21.8515 -1.4866 2.8867 0
M  V30 243 H 22.8625 1.59684 4.92668 0
M  V30 244 H 19.5395 -0.844016 4.0888 0
M  V30 245 H 20.9295 2.60683 6.19269 0
M  V30 246 N 23.6496 -1.47581 0.552962 0
M  V30 247 C 24.6126 -2.28439 -0.186605 0
M  V30 248 C 25.6126 -1.36706 -0.84665 0
M  V30 249 O 26.8026 -1.59378 -0.703164 0
M  V30 250 C 23.9346 -3.16264 -1.2724 0
M  V30 251 H 25.1276 -2.95294 0.523609 0
M  V30 252 H 22.6806 -1.532 0.309745 0
M  V30 253 H 23.4156 -2.54091 -2.01514 0
M  V30 254 H 23.2006 -3.83769 -0.803968 0
M  V30 255 H 24.6906 -3.77198 -1.79196 0
M  V30 256 N 25.1277 -0.289203 -1.54924 0
M  V30 257 C 26.3737 0.323998 -2.00195 0
M  V30 258 C 26.7067 1.54441 -1.17735 0
M  V30 259 O 25.9817 1.92875 -0.250878 0
M  V30 260 C 26.2647 0.692276 -3.53383 0
M  V30 261 C 26.1177 -0.536457 -4.46589 0
M  V30 262 C 27.4367 1.52335 -4.12895 0
M  V30 263 H 24.5557 0.116289 -0.727768 0
M  V30 264 H 27.1977 -0.398954 -1.85764 0
M  V30 265 H 25.3477 1.30822 -3.65811 0
M  V30 266 H 27.0197 -1.17499 -4.46085 0
M  V30 267 H 25.2627 -1.17192 -4.1767 0
M  V30 268 H 25.9337 -0.234806 -5.515 0
M  V30 269 H 28.4097 1.00302 -4.0383 0
M  V30 270 H 27.2857 1.74982 -5.20262 0
M  V30 271 H 27.5467 2.50886 -3.64018 0
M  V30 272 N 26.6058 1.57591 -0.0167156 0
M  V30 273 C 27.8538 1.90906 0.663285 0
M  V30 274 C 28.1748 0.892509 1.73376 0
M  V30 275 O 27.4448 -0.0677623 1.95783 0
M  V30 276 H 26.0248 0.704637 0.247983 0
M  V30 277 H 28.6868 1.94803 -0.0615909 0
M  V30 278 H 27.7828 2.9116 1.12393 0
M  V30 279 N 28.0839 -0.256276 1.55502 0
M  V30 280 C 29.0319 -1.33694 1.90338 0
M  V30 281 C 30.0259 -1.50299 0.781441 0
M  V30 282 O 31.2319 -1.51885 0.965966 0
M  V30 283 H 27.6069 -0.447483 0.60437 0
M  V30 284 H 29.5779 -1.01574 2.8058 0
M  V30 285 C 28.3269 -2.68724 2.20642 0
M  V30 286 H 27.6499 -2.56743 3.06469 0
M  V30 287 H 29.0899 -3.43237 2.48926 0
M  V30 288 C 27.5489 -3.21101 1.01959 0
M  V30 289 O 28.0789 -4.0084 0.262762 0
M  V30 290 N 26.2849 -2.79003 0.812746 0
M  V30 291 H 25.8319 -2.14271 1.42989 0
M  V30 292 H 25.7899 -3.14393 0.0203076 0
M  V30 293 N 29.562 -1.4872 -0.521534 0
M  V30 294 C 30.509 -1.63871 -1.62527 0
M  V30 295 C 31.479 -0.480559 -1.58996 0
M  V30 296 O 32.664 -0.705085 -1.77294 0
M  V30 297 C 29.804 -1.69227 -3.00759 0
M  V30 298 C 28.917 -2.96207 -3.14461 0
M  V30 299 C 28.052 -2.92671 -4.43303 0
M  V30 300 C 27.091 -4.14318 -4.50563 0
M  V30 301 N 26.228 -4.0881 -5.70805 0
M  V30 302 H 31.068 -2.58123 -1.48918 0
M  V30 303 H 28.605 -1.28 -0.724878 0
M  V30 304 H 30.563 -1.70314 -3.80853 0
M  V30 305 H 29.193 -0.784586 -3.1312 0
M  V30 306 H 28.245 -3.04826 -2.27564 0
M  V30 307 H 29.557 -3.86192 -3.15686 0
M  V30 308 H 28.711 -2.92206 -5.31696 0
M  V30 309 H 27.45 -2.00429 -4.44612 0
M  V30 310 H 26.455 -4.15049 -3.60575 0
M  V30 311 H 27.68 -5.07729 -4.50986 0
M  V30 312 H 25.626 -3.19394 -5.72995 0
M  V30 313 H 25.543 -4.92509 -5.7356 0
M  V30 314 H 26.811 -4.12418 -6.61462 0
M  V30 315 N 31.0401 0.771051 -1.3745 0
M  V30 316 C 32.2891 1.52491 -1.3202 0
M  V30 317 C 32.6021 1.9538 0.0927347 0
M  V30 318 O 33.8081 2.70159 0.269503 0
M  V30 319 C 32.2641 2.75366 -2.31736 0
M  V30 320 C 31.8721 2.39573 -3.78562 0
M  V30 321 C 33.6161 3.53307 -2.35318 0
M  V30 322 C 31.5231 3.58954 -4.70007 0
M  V30 323 H 30.4531 0.572506 -0.490666 0
M  V30 324 H 33.1041 0.844474 -1.62914 0
M  V30 325 H 31.4861 3.45303 -1.93861 0
M  V30 326 H 32.6601 1.77415 -4.25277 0
M  V30 327 H 30.9751 1.74805 -3.77932 0
M  V30 328 H 33.5721 4.42039 -3.00842 0
M  V30 329 H 33.9151 3.93217 -1.36698 0
M  V30 330 H 34.4481 2.90367 -2.71904 0
M  V30 331 H 31.1871 3.24125 -5.69757 0
M  V30 332 H 30.7071 4.20214 -4.27996 0
M  V30 333 H 32.3861 4.25758 -4.87175 0
M  V30 334 N 32.5182 1.22032 0.997298 0
M  V30 335 C 33.4482 1.01065 2.10495 0
M  V30 336 C 34.4292 -0.0669542 1.69968 0
M  V30 337 O 35.6142 0.0943987 1.9397 0
M  V30 338 C 32.7442 0.582874 3.42374 0
M  V30 339 C 31.6982 1.60592 3.96729 0
M  V30 340 C 31.0242 1.03412 5.24605 0
M  V30 341 C 32.3242 2.99478 4.27914 0
M  V30 342 H 34.0182 1.93708 2.28292 0
M  V30 343 H 31.5642 0.932761 1.09707 0
M  V30 344 H 33.5172 0.423332 4.19268 0
M  V30 345 H 32.2412 -0.379213 3.24391 0
M  V30 346 H 30.9002 1.75316 3.21963 0
M  V30 347 H 30.5482 0.063518 5.0296 0
M  V30 348 H 30.2482 1.71754 5.61938 0
M  V30 349 H 31.7722 0.886066 6.04137 0
M  V30 350 H 33.1862 2.88153 4.95622 0
M  V30 351 H 31.5832 3.64903 4.76409 0
M  V30 352 H 32.6532 3.49742 3.3587 0
M  V30 353 N 33.9963 -1.19345 1.0293 0
M  V30 354 C 35.2733 -1.84811 0.640642 0
M  V30 355 C 35.6533 -1.91855 -0.88062 0
M  V30 356 O 35.0013 -1.43587 -1.7775 0
M  V30 357 C 35.2113 -3.23755 1.30321 0
M  V30 358 C 36.5593 -3.99912 1.42673 0
M  V30 359 O 37.5833 -3.33155 1.26041 0
M  V30 360 O 36.4423 -5.19494 1.6967 0
M  V30 361 H 33.5363 -0.796443 0.222726 0
M  V30 362 H 36.0823 -1.26831 1.12748 0
M  V30 363 H 34.8543 -3.13466 2.34211 0
M  V30 364 H 34.4773 -3.89381 0.804261 0
M  V30 365 N 35.4744 -0.807222 -1.35358 0
M  V30 366 C 36.4244 -0.190706 -2.27201 0
M  V30 367 C 37.4084 0.635838 -1.47804 0
M  V30 368 O 38.6004 0.492991 -1.69996 0
M  V30 369 C 35.7294 0.659337 -3.36909 0
M  V30 370 C 34.8154 -0.176971 -4.23731 0
M  V30 371 N 35.2064 -1.24029 -4.90357 0
M  V30 372 C 33.5044 0.0412953 -4.45981 0
M  V30 373 C 34.2054 -1.75092 -5.54723 0
M  V30 374 N 33.1814 -1.05727 -5.33219 0
M  V30 375 H 36.9834 -1.0043 -2.76208 0
M  V30 376 H 34.4974 -0.648445 -1.48892 0
M  V30 377 H 36.4944 1.11706 -4.01656 0
M  V30 378 H 35.1544 1.47127 -2.89454 0
M  V30 379 H 36.1654 -1.62295 -4.91814 0
M  V30 380 H 32.8424 0.82232 -4.09322 0
M  V30 381 H 34.2324 -2.63963 -6.17878 0
M  V30 382 N 36.9525 1.47285 -0.560781 0
M  V30 383 C 38.1775 2.07359 -0.0410566 0
M  V30 384 C 38.6025 1.41017 1.24483 0
M  V30 385 O 37.9605 0.486368 1.74654 0
M  V30 386 C 38.0085 3.6035 0.134123 0
M  V30 387 O 37.1125 3.94681 1.19587 0
M  V30 388 H 36.4535 0.661887 -0.0529291 0
M  V30 389 H 38.9835 1.89252 -0.777482 0
M  V30 390 H 38.9935 4.0652 0.347207 0
M  V30 391 H 37.6685 4.08034 -0.805047 0
M  V30 392 H 36.2455 3.60251 0.962987 0
M  V30 393 N 38.4306 0.297415 1.54768 0
M  V30 394 C 39.6776 -0.312913 2.00068 0
M  V30 395 C 40.0056 -1.54171 1.18582 0
M  V30 396 O 39.2606 -1.94108 0.249133 0
M  V30 397 C 39.5596 -0.717561 3.50123 0
M  V30 398 C 39.2256 0.409095 4.4904 0
M  V30 399 C 37.8876 0.718399 4.75807 0
M  V30 400 C 40.2396 1.16717 5.07963 0
M  V30 401 C 37.5676 1.78896 5.5876 0
M  V30 402 C 39.9196 2.22762 5.92081 0
M  V30 403 C 38.5836 2.54303 6.1716 0
M  V30 404 H 37.8536 -0.114503 0.7321 0
M  V30 405 H 40.5006 0.415767 1.86932 0
M  V30 406 H 38.8056 -1.52627 3.60849 0
M  V30 407 H 40.5026 -1.20091 3.82595 0
M  V30 408 H 37.0926 0.157918 4.28309 0
M  V30 409 H 41.2766 0.941466 4.87289 0
M  V30 410 H 36.5326 2.0381 5.7643 0
M  V30 411 H 40.7066 2.81962 6.36765 0
M  V30 412 H 38.3336 3.3739 6.81229 0
M  V30 413 N 39.9087 -1.5758 0.0250728 0
M  V30 414 C 41.1367 -1.9593 -0.664747 0
M  V30 415 C 41.5517 -0.901352 -1.65895 0
M  V30 416 O 40.9087 0.117255 -1.82123 0
M  V30 417 C 40.9597 -3.34342 -1.37468 0
M  V30 418 O 40.6807 -4.36079 -0.420324 0
M  V30 419 C 42.1817 -3.873 -2.1567 0
M  V30 420 H 39.4017 -0.645405 -0.183557 0
M  V30 421 H 41.9457 -2.04329 0.0836372 0
M  V30 422 H 40.1007 -3.27175 -2.0745 0
M  V30 423 H 40.5147 -5.16297 -0.923991 0
M  V30 424 H 41.9887 -4.86504 -2.60803 0
M  V30 425 H 42.4657 -3.21331 -2.99405 0
M  V30 426 H 43.0717 -3.97723 -1.50654 0
M  V30 427 N 41.3868 0.248026 -1.55636 0
M  V30 428 C 42.3348 1.32683 -1.91045 0
M  V30 429 C 43.3288 1.49883 -0.789401 0
M  V30 430 O 44.5348 1.51371 -0.974007 0
M  V30 431 H 40.9098 0.444272 -0.606734 0
M  V30 432 H 42.8808 1.00085 -2.81115 0
M  V30 433 C 41.6298 2.6755 -2.22064 0
M  V30 434 H 40.9528 2.55114 -3.07826 0
M  V30 435 H 42.3928 3.41912 -2.50743 0
M  V30 436 C 40.8518 3.20556 -1.0366 0
M  V30 437 O 41.3818 4.00695 -0.284016 0
M  V30 438 N 39.5878 2.78568 -0.82753 0
M  V30 439 H 39.1348 2.1351 -1.44123 0
M  V30 440 H 39.0928 3.14378 -0.0369803 0
M  V30 441 N 42.8649 1.48995 0.513639 0
M  V30 442 C 43.8279 1.64229 1.59879 0
M  V30 443 C 44.8279 0.514696 1.5234 0
M  V30 444 O 46.0179 0.78087 1.55718 0
M  V30 445 C 43.1499 1.62783 2.99524 0
M  V30 446 H 44.3429 2.61004 1.47705 0
M  V30 447 H 41.8959 1.37837 0.736936 0
M  V30 448 H 42.6309 0.675461 3.17188 0
M  V30 449 H 42.4159 2.4466 3.06404 0
M  V30 450 H 43.9059 1.76669 3.78388 0
M  V30 451 N 44.343 -0.763751 1.37857 0
M  V30 452 C 45.591 -1.51957 1.33243 0
M  V30 453 C 45.912 -1.94835 -0.0801709 0
M  V30 454 O 45.182 -1.66894 -1.02582 0
M  V30 455 H 43.762 -0.563626 0.49024 0
M  V30 456 H 46.424 -0.908504 1.7243 0
M  V30 457 H 45.52 -2.41523 1.97669 0
M  V30 458 N 45.8211 -1.22559 -0.990812 0
M  V30 459 C 47.0681 -1.05141 -1.73065 0
M  V30 460 C 47.3961 0.413191 -1.9006 0
M  V30 461 O 46.6511 1.32257 -1.44245 0
M  V30 462 C 46.9501 -1.71011 -3.13831 0
M  V30 463 C 46.6161 -3.20911 -3.16745 0
M  V30 464 C 45.2781 -3.61812 -3.17247 0
M  V30 465 C 47.6301 -4.16846 -3.12872 0
M  V30 466 C 44.9581 -4.97127 -3.1158 0
M  V30 467 C 47.3101 -5.5214 -3.08746 0
M  V30 468 C 45.9741 -5.92419 -3.07565 0
M  V30 469 H 45.2441 -0.384738 -0.633291 0
M  V30 470 H 47.8911 -1.5235 -1.16025 0
M  V30 471 H 46.1961 -1.16133 -3.74193 0
M  V30 472 H 47.8931 -1.55023 -3.69823 0
M  V30 473 H 44.4831 -2.88344 -3.17105 0
M  V30 474 H 48.6671 -3.86263 -3.11632 0
M  V30 475 H 43.9231 -5.27562 -3.09012 0
M  V30 476 H 48.0971 -6.26201 -3.04705 0
M  V30 477 H 45.7241 -6.97236 -3.02929 0
M  V30 478 N 47.2992 1.18797 -1.03562 0
M  V30 479 C 48.2472 2.24297 -0.615905 0
M  V30 480 C 49.2412 1.65643 0.354808 0
M  V30 481 O 50.4472 1.78618 0.22265 0
M  V30 482 H 46.8222 0.729909 -0.180934 0
M  V30 483 H 48.7932 2.5701 -1.5162 0
M  V30 484 C 47.5422 3.47698 0.0104735 0
M  V30 485 H 46.8652 3.93125 -0.727509 0
M  V30 486 H 48.3052 4.23159 0.266995 0
M  V30 487 C 46.7642 3.12489 1.25905 0
M  V30 488 O 47.2942 3.25761 2.35038 0
M  V30 489 N 45.5002 2.6686 1.15039 0
M  V30 490 H 45.0472 2.56261 0.262328 0
M  V30 491 H 45.0052 2.43674 1.98672 0
M  V30 492 N 48.7773 0.814389 1.34928 0
M  V30 493 C 50.0233 0.399013 1.98836 0
M  V30 494 C 50.3563 -1.03314 1.64438 0
M  V30 495 O 49.6313 -1.71811 0.911659 0
M  V30 496 C 49.9143 0.591629 3.55207 0
M  V30 497 C 49.7673 2.06928 3.99376 0
M  V30 498 C 51.0863 0.022199 4.40094 0
M  V30 499 H 48.2053 0.146451 0.722303 0
M  V30 500 H 50.8473 1.02537 1.59957 0
M  V30 501 H 48.9973 0.0584441 3.88456 0
M  V30 502 H 50.6693 2.66544 3.76499 0
M  V30 503 H 48.9123 2.56287 3.49999 0
M  V30 504 H 49.5833 2.1549 5.08201 0
M  V30 505 H 52.0593 0.477643 4.13349 0
M  V30 506 H 50.9353 0.186832 5.48582 0
M  V30 507 H 51.1963 -1.07215 4.28902 0
M  V30 508 N 50.2554 -1.46986 0.568584 0
M  V30 509 C 51.5014 -2.02741 0.0488709 0
M  V30 510 C 51.8344 -1.44077 -1.30214 0
M  V30 511 O 51.1094 -0.600552 -1.84996 0
M  V30 512 C 51.3924 -3.60086 -0.032047 0
M  V30 513 C 51.2454 -4.29162 1.34686 0
M  V30 514 C 52.5644 -4.33838 -0.739798 0
M  V30 515 H 49.6834 -0.736749 0.0192338 0
M  V30 516 H 52.3254 -1.75289 0.733065 0
M  V30 517 H 50.4754 -3.83606 -0.61473 0
M  V30 518 H 52.1474 -4.16948 1.97362 0
M  V30 519 H 50.3904 -3.89073 1.91846 0
M  V30 520 H 51.0614 -5.37826 1.24285 0
M  V30 521 H 53.5374 -4.15378 -0.244939 0
M  V30 522 H 52.4134 -5.43537 -0.765406 0
M  V30 523 H 52.6744 -4.03875 -1.79827 0
M  V30 524 N 51.7335 -0.305618 -1.54608 0
M  V30 525 C 52.6815 0.584119 -2.25146 0
M  V30 526 C 53.6755 1.13326 -1.25911 0
M  V30 527 O 54.8815 1.08337 -1.43747 0
M  V30 528 H 51.2565 0.206983 -0.722954 0
M  V30 529 H 53.2275 -0.033291 -2.98381 0
M  V30 530 C 51.9765 1.74225 -3.009 0
M  V30 531 H 51.2995 1.32892 -3.77067 0
M  V30 532 H 52.7395 2.34077 -3.53531 0
M  V30 533 C 51.1985 2.64914 -2.0814 0
M  V30 534 O 51.7285 3.66137 -1.65246 0
M  V30 535 N 49.9345 2.3275 -1.74 0
M  V30 536 H 49.4815 1.50479 -2.09078 0
M  V30 537 H 49.4395 2.93694 -1.12211 0
M  V30 538 N 53.2116 1.57565 -0.0334293 0
M  V30 539 C 54.4606 1.91155 0.643639 0
M  V30 540 C 54.7736 0.91192 1.73042 0
M  V30 541 O 55.9796 1.13923 2.46442 0
M  V30 542 C 54.4356 3.39443 1.1961 0
M  V30 543 C 54.0436 4.47774 0.142381 0
M  V30 544 C 55.7876 3.82094 1.84944 0
M  V30 545 C 53.6946 5.87162 0.706727 0
M  V30 546 H 52.6246 0.713368 0.244176 0
M  V30 547 H 55.2756 1.8323 -0.0994323 0
M  V30 548 H 53.6576 3.42313 1.99092 0
M  V30 549 H 54.8316 4.56469 -0.630296 0
M  V30 550 H 53.1466 4.14352 -0.412446 0
M  V30 551 H 55.7436 4.83591 2.2813 0
M  V30 552 H 56.0866 3.17386 2.69392 0
M  V30 553 H 56.6196 3.81665 1.12145 0
M  V30 554 H 53.3586 6.55424 -0.0997178 0
M  V30 555 H 52.8786 5.82064 1.44779 0
M  V30 556 H 54.5576 6.35866 1.19514 0
M  V30 557 N 54.6897 -0.239769 1.55765 0
M  V30 558 C 55.9377 -0.964892 1.77579 0
M  V30 559 C 56.2587 -1.85582 0.598699 0
M  V30 560 O 55.5287 -1.92075 -0.385226 0
M  V30 561 H 54.1087 -0.359265 0.654933 0
M  V30 562 H 56.7707 -0.256001 1.93211 0
M  V30 563 H 55.8667 -1.58243 2.69009 0
M  V30 564 N 56.1678 -1.49265 -0.50573 0
M  V30 565 C 57.4138 -1.58748 -1.26202 0
M  V30 566 C 57.7468 -0.271227 -1.92297 0
M  V30 567 O 57.0218 0.724831 -1.80489 0
M  V30 568 C 57.3048 -2.74332 -2.33268 0
M  V30 569 C 57.1578 -4.15737 -1.71705 0
M  V30 570 C 58.4768 -2.85576 -3.34865 0
M  V30 571 H 55.5958 -0.577826 -0.457478 0
M  V30 572 H 58.2378 -1.81532 -0.560897 0
M  V30 573 H 56.3878 -2.55036 -2.93068 0
M  V30 574 H 58.0598 -4.46537 -1.15769 0
M  V30 575 H 56.3028 -4.21605 -1.02135 0
M  V30 576 H 56.9738 -4.92477 -2.49341 0
M  V30 577 H 59.4498 -3.03127 -2.8505 0
M  V30 578 H 58.3258 -3.68135 -4.07146 0
M  V30 579 H 58.5868 -1.94732 -3.96903 0
M  V30 580 N 57.6459 0.756429 -1.3826 0
M  V30 581 C 58.5759 1.88374 -1.37976 0
M  V30 582 C 59.5569 1.68311 -0.246082 0
M  V30 583 O 60.7419 1.88944 -0.44874 0
M  V30 584 C 57.8719 3.25864 -1.20125 0
M  V30 585 C 56.8259 3.60523 -2.30666 0
M  V30 586 C 56.1519 4.9672 -1.97923 0
M  V30 587 C 57.4519 3.65692 -3.72916 0
M  V30 588 H 59.1459 1.88869 -2.32312 0
M  V30 589 H 56.6919 0.907272 -1.11824 0
M  V30 590 H 58.6449 4.0438 -1.18552 0
M  V30 591 H 57.3689 3.25841 -0.222498 0
M  V30 592 H 56.0279 2.84324 -2.3142 0
M  V30 593 H 55.6759 4.93253 -0.985393 0
M  V30 594 H 55.3759 5.20878 -2.71955 0
M  V30 595 H 56.8999 5.77618 -1.97964 0
M  V30 596 H 58.3139 4.34328 -3.74208 0
M  V30 597 H 56.7109 4.01358 -4.4613 0
M  V30 598 H 57.7809 2.65987 -4.05436 0
M  V30 599 N 59.124 1.23083 0.984299 0
M  V30 600 C 60.349 1.088 1.76571 0
M  V30 601 C 60.774 -0.356657 1.84688 0
M  V30 602 O 60.132 -1.25788 1.30565 0
M  V30 603 C 60.18 1.71371 3.17277 0
M  V30 604 O 59.284 0.973213 4.00752 0
M  V30 605 H 58.625 0.381599 0.543395 0
M  V30 606 H 61.155 1.63057 1.23587 0
M  V30 607 H 61.165 1.76449 3.67872 0
M  V30 608 H 59.84 2.76493 3.10684 0
M  V30 609 H 58.417 0.999078 3.59267 0
M  V30 610 N 60.6021 -1.18246 1.0419 0
M  V30 611 C 61.8271 -1.92736 0.765996 0
M  V30 612 C 62.2521 -1.75728 -0.67091 0
M  V30 613 O 61.6101 -1.06825 -1.46486 0
M  V30 614 C 61.6581 -3.42148 1.13875 0
M  V30 615 O 60.7621 -4.11548 0.264954 0
M  V30 616 H 60.1031 -0.601238 0.281797 0
M  V30 617 H 62.6331 -1.49942 1.39207 0
M  V30 618 H 62.6431 -3.92858 1.1012 0
M  V30 619 H 61.3181 -3.53848 2.18551 0
M  V30 620 H 59.8951 -3.71137 0.362226 0
M  V30 621 N 62.0802 -0.821533 -1.34494 0
M  V30 622 C 63.0122 -0.199946 -2.28326 0
M  V30 623 C 64.0252 0.609377 -1.50965 0
M  V30 624 O 65.2142 0.439285 -1.7301 0
M  V30 625 C 62.3142 0.738431 -3.30757 0
M  V30 626 C 61.4872 -0.0277632 -4.37391 0
M  V30 627 C 60.5462 0.831332 -5.19591 0
M  V30 628 O 59.5722 0.276822 -5.68526 0
M  V30 629 N 60.7742 2.15132 -5.39165 0
M  V30 630 H 63.5392 -1.00609 -2.82308 0
M  V30 631 H 61.1002 -0.678366 -1.47003 0
M  V30 632 H 63.0922 1.31773 -3.82646 0
M  V30 633 H 61.6622 1.44533 -2.7718 0
M  V30 634 H 60.8822 -0.788359 -3.86236 0
M  V30 635 H 62.1702 -0.555251 -5.05761 0
M  V30 636 H 61.5682 2.62559 -5.01078 0
M  V30 637 H 60.1252 2.6795 -5.94177 0
M  V30 638 N 63.5583 1.46682 -0.576371 0
M  V30 639 C 64.4683 2.34032 0.163141 0
M  V30 640 C 65.4843 1.49367 0.892501 0
M  V30 641 O 66.6603 1.82252 0.857106 0
M  V30 642 C 63.7253 3.26435 1.16795 0
M  V30 643 C 62.7863 4.26998 0.443944 0
M  V30 644 C 62.0193 5.14986 1.40088 0
M  V30 645 O 62.2423 5.05785 2.637 0
M  V30 646 O 61.1763 5.94906 0.914917 0
M  V30 647 H 65.0023 2.98607 -0.55388 0
M  V30 648 H 62.5873 1.45554 -0.336821 0
M  V30 649 H 64.4693 3.83459 1.74748 0
M  V30 650 H 63.1443 2.64465 1.86655 0
M  V30 651 H 62.0513 3.7368 -0.177271 0
M  V30 652 H 63.3843 4.91736 -0.213566 0
M  V30 653 N 65.0364 0.313813 1.54444 0
M  V30 654 C 66.3134 -0.345447 1.92525 0
M  V30 655 C 66.6934 -1.70667 1.24242 0
M  V30 656 O 66.0414 -2.25273 0.382654 0
M  V30 657 C 66.2514 -0.44737 3.46121 0
M  V30 658 C 67.5994 -0.712238 4.18584 0
M  V30 659 O 68.6234 -0.530678 3.52225 0
M  V30 660 O 67.4824 -1.06183 5.36085 0
M  V30 661 H 64.5764 -0.195407 0.803583 0
M  V30 662 H 67.1224 0.362813 1.65776 0
M  V30 663 H 65.8944 0.509043 3.87975 0
M  V30 664 H 65.5174 -1.20359 3.78945 0
M  V30 665 N 66.5145 -1.57545 0.0417849 0
M  V30 666 C 67.7615 -1.92317 -0.634082 0
M  V30 667 C 68.0895 -0.919334 -1.71402 0
M  V30 668 O 67.3445 0.0698253 -1.95575 0
M  V30 669 C 67.6435 -3.33794 -1.27735 0
M  V30 670 C 67.3095 -4.49716 -0.326543 0
M  V30 671 C 65.9715 -4.81156 -0.0648814 0
M  V30 672 C 68.3235 -5.20182 0.325623 0
M  V30 673 C 65.6515 -5.80414 0.856539 0
M  V30 674 C 68.0035 -6.20424 1.23518 0
M  V30 675 C 66.6675 -6.50298 1.5056 0
M  V30 676 H 65.9375 -0.703736 -0.232027 0
M  V30 677 H 68.5845 -1.91205 0.106259 0
M  V30 678 H 66.8895 -3.31228 -2.09274 0
M  V30 679 H 68.5865 -3.57975 -1.80707 0
M  V30 680 H 65.1765 -4.25176 -0.540665 0
M  V30 681 H 69.3605 -4.96112 0.136546 0
M  V30 682 H 64.6165 -6.019 1.07363 0
M  V30 683 H 68.7905 -6.74141 1.74664 0
M  V30 684 H 66.4175 -7.27025 2.22123 0
M  V30 685 N 67.9926 0.231505 -1.5589 0
M  V30 686 C 69.2416 0.955346 -1.7764 0
M  V30 687 C 69.5546 1.85893 -0.608546 0
M  V30 688 O 70.7606 2.62067 -0.70943 0
M  V30 689 C 69.2166 1.74886 -3.14552 0
M  V30 690 C 68.8246 0.891915 -4.39032 0
M  V30 691 C 70.5686 2.46452 -3.45633 0
M  V30 692 C 68.4756 1.68221 -5.66971 0
M  V30 693 H 67.4056 0.360446 -0.662265 0
M  V30 694 H 70.0566 0.209516 -1.823 0
M  V30 695 H 68.4386 2.53723 -3.04041 0
M  V30 696 H 69.6126 0.144793 -4.60572 0
M  V30 697 H 67.9276 0.288863 -4.15397 0
M  V30 698 H 70.5246 3.06061 -4.38441 0
M  V30 699 H 70.8676 3.18841 -2.67668 0
M  V30 700 H 71.4006 1.74613 -3.57428 0
M  V30 701 H 68.1396 1.00178 -6.478 0
M  V30 702 H 67.6596 2.4042 -5.49507 0
M  V30 703 H 69.3386 2.24544 -6.06786 0
M  V30 704 N 69.4707 1.49531 0.497807 0
M  V30 705 C 70.4187 1.66926 1.61983 0
M  V30 706 C 71.4127 0.535167 1.60724 0
M  V30 707 O 72.6187 0.714896 1.65195 0
M  V30 708 H 68.9937 0.526415 0.537021 0
M  V30 709 H 70.9647 2.61098 1.44465 0
M  V30 710 C 69.7137 1.75602 3.00099 0
M  V30 711 H 69.0367 2.62244 3.01775 0
M  V30 712 H 70.4767 1.91807 3.78135 0
M  V30 713 C 68.9357 0.501543 3.33146 0
M  V30 714 O 69.4657 -0.371342 3.9998 0
M  V30 715 N 67.6717 0.363531 2.88317 0
M  V30 716 H 67.2187 1.07485 2.34104 0
M  V30 717 H 67.1767 -0.474728 3.10795 0
M  V30 718 N 70.9488 -0.749086 1.3866 0
M  V30 719 C 71.9118 -1.84457 1.36045 0
M  V30 720 C 72.9118 -1.58682 0.260122 0
M  V30 721 O 74.1018 -1.66343 0.517261 0
M  V30 722 C 71.2338 -3.22008 1.11911 0
M  V30 723 H 72.4268 -1.88182 2.33512 0
M  V30 724 H 69.9798 -0.951266 1.24019 0
M  V30 725 H 70.7148 -3.2395 0.150686 0
M  V30 726 H 70.4998 -3.42111 1.91579 0
M  V30 727 H 71.9898 -4.0208 1.12788 0
M  V30 728 N 72.4269 -1.23603 -0.977757 0
M  V30 729 C 73.3899 -1.02069 -2.05218 0
M  V30 730 C 74.3899 0.0184305 -1.60789 0
M  V30 731 O 75.5799 -0.221569 -1.72785 0
M  V30 732 C 72.7119 -0.544926 -3.36517 0
M  V30 733 H 73.9049 -1.9742 -2.25755 0
M  V30 734 H 71.4579 -1.05684 -1.15155 0
M  V30 735 H 72.1929 0.412241 -3.21669 0
M  V30 736 H 71.9779 -1.2948 -3.70105 0
M  V30 737 H 73.4679 -0.414985 -4.15533 0
M  V30 738 N 73.905 1.17692 -1.04816 0
M  V30 739 C 75.154 1.87192 -0.751132 0
M  V30 740 C 75.467 1.8169 0.724441 0
M  V30 741 O 76.673 2.46625 1.13527 0
M  V30 742 C 75.129 3.35857 -1.29338 0
M  V30 743 C 74.737 3.4987 -2.79812 0
M  V30 744 C 76.481 4.10709 -1.07322 0
M  V30 745 C 74.388 4.92536 -3.27356 0
M  V30 746 H 73.318 0.701162 -0.277288 0
M  V30 747 H 75.969 1.32932 -1.26496 0
M  V30 748 H 74.351 3.89631 -0.707376 0
M  V30 749 H 75.525 3.06332 -3.44235 0
M  V30 750 H 73.84 2.88433 -3.00325 0
M  V30 751 H 76.437 5.15952 -1.4035 0
M  V30 752 H 76.78 4.16299 -0.0108001 0
M  V30 753 H 77.313 3.6313 -1.62423 0
M  V30 754 H 74.052 4.92119 -4.33012 0
M  V30 755 H 73.572 5.3676 -2.67673 0
M  V30 756 H 75.251 5.61288 -3.21815 0
M  V30 757 N 75.3831 0.828654 1.34056 0
M  V30 758 C 76.2931 0.256725 2.33191 0
M  V30 759 C 77.3091 -0.611898 1.62886 0
M  V30 760 O 78.4851 -0.51844 1.94613 0
M  V30 761 C 75.5501 -0.567238 3.42028 0
M  V30 762 C 74.6111 0.324458 4.28072 0
M  V30 763 C 73.8441 -0.460274 5.31712 0
M  V30 764 O 74.0671 -1.693 5.44696 0
M  V30 765 O 73.0011 0.160391 6.01686 0
M  V30 766 H 76.8271 1.07739 2.83947 0
M  V30 767 H 74.4121 0.59093 1.37217 0
M  V30 768 H 76.2941 -1.03582 4.08471 0
M  V30 769 H 74.9691 -1.36513 2.93506 0
M  V30 770 H 73.8761 0.840659 3.64532 0
M  V30 771 H 75.2091 1.08685 4.8005 0
M  V30 772 N 76.8612 -1.46375 0.584142 0
M  V30 773 C 78.0892 -2.06761 0.0759296 0
M  V30 774 C 78.5042 -1.43266 -1.22965 0
M  V30 775 O 77.8612 -0.538458 -1.74376 0
M  V30 776 C 77.9122 -3.61375 -0.0950384 0
M  V30 777 O 77.6332 -4.22495 1.15887 0
M  V30 778 C 79.1342 -4.38693 -0.637434 0
M  V30 779 H 76.3542 -0.668479 0.0581075 0
M  V30 780 H 78.8982 -1.8798 0.805218 0
M  V30 781 H 77.0532 -3.79578 -0.774554 0
M  V30 782 H 77.4672 -5.15385 0.973598 0
M  V30 783 H 78.9412 -5.47464 -0.706237 0
M  V30 784 H 79.4182 -4.06836 -1.65472 0
M  V30 785 H 80.0242 -4.25299 0.00725967 0
M  V30 786 N 78.3393 -0.321999 -1.54275 0
M  V30 787 C 79.2863 0.544664 -2.24281 0
M  V30 788 C 80.2563 1.1129 -1.23303 0
M  V30 789 O 81.4413 1.15354 -1.51981 0
M  V30 790 C 78.5813 1.70045 -3.00298 0
M  V30 791 C 77.6943 1.16159 -4.1609 0
M  V30 792 C 76.8293 2.28293 -4.79641 0
M  V30 793 C 75.8683 1.71648 -5.8754 0
M  V30 794 N 75.0053 2.77438 -6.44959 0
M  V30 795 H 79.8453 -0.0588907 -2.97942 0
M  V30 796 H 77.3823 -0.0408345 -1.47043 0
M  V30 797 H 79.3403 2.38054 -3.42616 0
M  V30 798 H 77.9703 2.27531 -2.28975 0
M  V30 799 H 77.0223 0.373092 -3.78566 0
M  V30 800 H 78.3343 0.707087 -4.93763 0
M  V30 801 H 77.4883 3.0421 -5.2492 0
M  V30 802 H 76.2273 2.77079 -4.01346 0
M  V30 803 H 75.2323 0.942282 -5.41665 0
M  V30 804 H 76.4573 1.23741 -6.67731 0
M  V30 805 H 74.4033 3.25519 -5.69538 0
M  V30 806 H 74.3203 2.36547 -7.1804 0
M  V30 807 H 75.5883 3.53189 -6.94894 0
M  V30 808 N 79.8174 1.5752 -0.0501392 0
M  V30 809 C 80.7804 2.1037 0.909786 0
M  V30 810 C 81.7804 1.02308 1.24056 0
M  V30 811 O 82.9704 1.28385 1.17741 0
M  V30 812 C 80.1024 2.58708 2.21998 0
M  V30 813 H 81.2954 2.96479 0.451665 0
M  V30 814 H 78.8484 1.55038 0.198248 0
M  V30 815 H 79.5834 1.75989 2.72394 0
M  V30 816 H 79.3684 3.37675 1.99295 0
M  V30 817 H 80.8584 2.99747 2.9076 0
M  V30 818 N 81.2955 -0.223234 1.56011 0
M  V30 819 C 82.5725 -0.972108 1.69733 0
M  V30 820 C 82.9525 -2.02485 0.59691 0
M  V30 821 O 82.3005 -2.25037 -0.396324 0
M  V30 822 C 82.5105 -1.58407 3.10979 0
M  V30 823 C 83.8585 -2.07696 3.70334 0
M  V30 824 O 84.8825 -1.68304 3.1393 0
M  V30 825 O 83.7415 -2.80096 4.69264 0
M  V30 826 H 80.8355 -0.453993 0.691245 0
M  V30 827 H 83.3815 -0.215149 1.68331 0
M  V30 828 H 82.1535 -0.823831 3.82529 0
M  V30 829 H 81.7765 -2.40661 3.16493 0
M  V30 830 N 82.7736 -1.49793 -0.48987 0
M  V30 831 C 83.7036 -1.70201 -1.59856 0
M  V30 832 C 84.6846 -0.55076 -1.60937 0
M  V30 833 O 85.8696 -0.787841 -1.77501 0
M  V30 834 C 82.9996 -1.77882 -2.98287 0
M  V30 835 C 81.9536 -2.92907 -3.12073 0
M  V30 836 C 81.2796 -2.85712 -4.51965 0
M  V30 837 C 82.5796 -4.3369 -2.91051 0
M  V30 838 H 84.2736 -2.63025 -1.43032 0
M  V30 839 H 81.8196 -1.26574 -0.686664 0
M  V30 840 H 83.7726 -1.90744 -3.75759 0
M  V30 841 H 82.4966 -0.816653 -3.16225 0
M  V30 842 H 81.1556 -2.79665 -2.37029 0
M  V30 843 H 80.8036 -1.8738 -4.66795 0
M  V30 844 H 80.5036 -3.62921 -4.62128 0
M  V30 845 H 82.0276 -3.00598 -5.31482 0
M  V30 846 H 83.4416 -4.47555 -3.58284 0
M  V30 847 H 81.8386 -5.12205 -3.12675 0
M  V30 848 H 82.9086 -4.47362 -1.87071 0
M  V30 849 N 84.2517 0.741722 -1.39055 0
M  V30 850 C 85.5007 1.49656 -1.35225 0
M  V30 851 C 85.8137 1.95533 0.0512708 0
M  V30 852 O 87.0197 2.7067 0.212138 0
M  V30 853 C 85.4757 2.70389 -2.37525 0
M  V30 854 C 85.0837 2.31489 -3.83558 0
M  V30 855 C 86.8277 3.48236 -2.42759 0
M  V30 856 C 84.7347 3.48903 -4.77515 0
M  V30 857 H 83.6647 0.56197 -0.502699 0
M  V30 858 H 86.3157 0.809727 -1.64668 0
M  V30 859 H 84.6977 3.41113 -2.01142 0
M  V30 860 H 85.8717 1.68354 -4.28945 0
M  V30 861 H 84.1867 1.66749 -3.81554 0
M  V30 862 H 86.7837 4.35558 -3.1015 0
M  V30 863 H 87.1267 3.90229 -1.45008 0
M  V30 864 H 87.6597 2.84535 -2.78002 0
M  V30 865 H 84.3987 3.11966 -5.76504 0
M  V30 866 H 83.9187 4.11041 -4.36813 0
M  V30 867 H 85.5977 4.15328 -4.96096 0
M  V30 868 N 85.7298 1.2412 0.971189 0
M  V30 869 C 86.9698 1.09066 1.7287 0
M  V30 870 C 87.3338 -0.364794 1.88503 0
M  V30 871 O 88.5348 -0.636748 2.61149 0
M  V30 872 C 86.8058 1.80629 3.08396 0
M  V30 873 S 88.3648 1.81263 3.99611 0
M  V30 874 H 85.1828 0.390145 0.594397 0
M  V30 875 H 87.7848 1.57397 1.15959 0
M  V30 876 H 86.4888 2.85647 2.94676 0
M  V30 877 H 86.0198 1.32617 3.70373 0
M  V30 878 H 88.0348 0.877804 4.88374 0
M  V30 879 N 87.2079 -1.17134 1.05439 0
M  V30 880 C 88.4539 -1.87733 0.767077 0
M  V30 881 C 88.7869 -1.8098 -0.704253 0
M  V30 882 O 88.0619 -1.21951 -1.5152 0
M  V30 883 C 88.3449 -3.37659 1.25133 0
M  V30 884 C 88.1979 -3.53149 2.78578 0
M  V30 885 C 89.5169 -4.31768 0.852324 0
M  V30 886 H 86.6359 -0.681687 0.280129 0
M  V30 887 H 89.2779 -1.37732 1.30881 0
M  V30 888 H 87.4279 -3.80373 0.790469 0
M  V30 889 H 89.0999 -3.19434 3.32806 0
M  V30 890 H 87.3429 -2.95345 3.17732 0
M  V30 891 H 88.0139 -4.58403 3.07523 0
M  V30 892 H 90.4899 -3.96909 1.24911 0
M  V30 893 H 89.3659 -5.35199 1.21873 0
M  V30 894 H 89.6269 -4.41429 -0.243485 0
M  V30 895 N 88.686 -0.835752 -1.33615 0
M  V30 896 C 89.911 -0.442389 -2.02627 0
M  V30 897 C 90.336 0.947735 -1.62479 0
M  V30 898 O 89.694 1.61907 -0.815826 0
M  V30 899 C 89.742 -0.567216 -3.56111 0
M  V30 900 O 88.846 0.407799 -4.10379 0
M  V30 901 H 88.187 -0.180278 -0.639059 0
M  V30 902 H 90.717 -1.12972 -1.70583 0
M  V30 903 H 90.727 -0.447708 -4.05536 0
M  V30 904 H 89.402 -1.58103 -3.84677 0
M  V30 905 H 87.979 0.246107 -3.72087 0
M  V30 906 N 90.1641 1.46063 -0.591896 0
M  V30 907 C 91.3891 2.07226 -0.0850314 0
M  V30 908 C 91.8141 1.43625 1.21463 0
M  V30 909 O 91.1721 0.523305 1.73583 0
M  V30 910 C 91.2201 3.60554 0.0576567 0
M  V30 911 O 90.3241 3.97128 1.11188 0
M  V30 912 H 89.6651 0.660615 -0.0669568 0
M  V30 913 H 92.1951 1.8756 -0.81745 0
M  V30 914 H 92.2051 4.07165 0.2609 0
M  V30 915 H 90.8801 4.06235 -0.891416 0
M  V30 916 H 89.4571 3.62213 0.886356 0
M  V30 917 N 91.6422 0.330177 1.54103 0
M  V30 918 C 92.5722 -0.525353 2.27513 0
M  V30 919 C 93.5532 -1.11383 1.2856 0
M  V30 920 O 94.7382 -1.13773 1.57383 0
M  V30 921 C 91.8682 -1.6831 3.03791 0
M  V30 922 C 90.8222 -1.2236 4.10137 0
M  V30 923 C 90.1482 -2.46882 4.74293 0
M  V30 924 C 91.4482 -0.333697 5.21233 0
M  V30 925 H 93.1422 0.087013 2.99274 0
M  V30 926 H 90.6882 0.0432893 1.43935 0
M  V30 927 H 92.6412 -2.28795 3.5388 0
M  V30 928 H 91.3652 -2.32216 2.29659 0
M  V30 929 H 90.0242 -0.64165 3.60941 0
M  V30 930 H 89.6722 -3.09165 3.96769 0
M  V30 931 H 89.3722 -2.16825 5.46133 0
M  V30 932 H 90.8962 -3.08117 5.27159 0
M  V30 933 H 92.3102 -0.845013 5.67038 0
M  V30 934 H 90.7072 -0.125612 5.99969 0
M  V30 935 H 91.7772 0.633724 4.80741 0
M  V30 936 N 93.1203 -1.57491 0.0584922 0
M  V30 937 C 94.3503 -1.9701 -0.622134 0
M  V30 938 C 94.7583 -0.935034 -1.6448 0
M  V30 939 O 94.1013 0.0882904 -1.83488 0
M  V30 940 C 94.1633 -3.32794 -1.35972 0
M  V30 941 C 93.8273 -4.54343 -0.492043 0
M  V30 942 C 94.8243 -5.19323 0.244901 0
M  V30 943 C 92.5093 -5.00534 -0.420821 0
M  V30 944 C 94.5033 -6.28835 1.04143 0
M  V30 945 C 92.1903 -6.09921 0.379389 0
M  V30 946 C 93.1883 -6.73933 1.10919 0
M  V30 947 O 92.8763 -7.81216 1.89623 0
M  V30 948 H 92.6083 -0.653127 -0.174359 0
M  V30 949 H 95.1623 -2.05029 0.123418 0
M  V30 950 H 93.3923 -3.21351 -2.15105 0
M  V30 951 H 95.0813 -3.5701 -1.93129 0
M  V30 952 H 95.8473 -4.8459 0.19939 0
M  V30 953 H 91.7263 -4.50496 -0.978474 0
M  V30 954 H 95.2703 -6.7873 1.61157 0
M  V30 955 H 91.1673 -6.44089 0.426512 0
M  V30 956 H 91.9353 -7.98029 1.81913 0
M  V30 957 N 94.5984 0.214957 -1.56127 0
M  V30 958 C 95.8464 0.936518 -1.79091 0
M  V30 959 C 96.1674 1.84606 -0.628148 0
M  V30 960 O 95.4374 1.92664 0.35462 0
M  V30 961 H 94.0174 0.3488 -0.660566 0
M  V30 962 H 96.6794 0.22523 -1.93594 0
M  V30 963 H 95.7754 1.53943 -2.71492 0
M  V30 964 N 96.0765 1.50051 0.48192 0
M  V30 965 C 97.0085 1.64263 1.59844 0
M  V30 966 C 98.0215 0.52451 1.54119 0
M  V30 967 O 99.2105 0.797293 1.59704 0
M  V30 968 C 96.3105 1.60102 2.98698 0
M  V30 969 C 95.4835 2.87767 3.29407 0
M  V30 970 C 94.5425 2.76397 4.47762 0
M  V30 971 O 93.5685 3.50348 4.48603 0
M  V30 972 N 94.7705 1.89222 5.48794 0
M  V30 973 H 97.5355 2.60566 1.48073 0
M  V30 974 H 95.0965 1.47379 0.670149 0
M  V30 975 H 97.0885 1.50123 3.75826 0
M  V30 976 H 95.6585 0.715798 3.04294 0
M  V30 977 H 94.8785 3.11954 2.40994 0
M  V30 978 H 96.1665 3.72365 3.4673 0
M  V30 979 H 95.5645 1.28434 5.50928 0
M  V30 980 H 94.1215 1.85154 6.24949 0
M  V30 981 N 97.5546 -0.734337 1.39446 0
M  V30 982 C 98.8026 -1.49096 1.36436 0
M  V30 983 C 99.1236 -1.94961 -0.0388255 0
M  V30 984 O 98.3936 -1.69033 -0.990191 0
M  V30 985 H 96.9736 -0.5531 0.502085 0
M  V30 986 H 99.6356 -0.871725 1.74319 0
M  V30 987 H 98.7316 -2.37276 2.02747 0
M  V30 988 N 99.0327 -1.24633 -0.964593 0
M  V30 989 C 99.9427 -1.05859 -2.09359 0
M  V30 990 C 100.959 0.00148855 -1.74 0
M  V30 991 O 102.135 -0.197346 -2.00431 0
M  V30 992 C 99.1997 -0.668879 -3.40187 0
M  V30 993 C 98.2607 -1.80578 -3.89474 0
M  V30 994 C 97.4937 -1.43457 -5.14058 0
M  V30 995 O 97.7167 -0.325775 -5.69469 0
M  V30 996 O 96.6507 -2.2613 -5.57807 0
M  V30 997 H 100.477 -2.00516 -2.28094 0
M  V30 998 H 98.0617 -1.03481 -1.0776 0
M  V30 999 H 99.9437 -0.463211 -4.18846 0
M  V30 1000 H 98.6187 0.248536 -3.22744 0
M  V30 1001 H 97.5257 -2.06623 -3.11862 0
M  V30 1002 H 98.8587 -2.70208 -4.11398 0
M  V30 1003 N 100.511 1.16574 -1.06058 0
M  V30 1004 C 101.76 1.86385 -0.770944 0
M  V30 1005 C 102.073 1.82448 0.705129 0
M  V30 1006 O 103.279 2.47815 1.10905 0
M  V30 1007 C 101.735 3.34466 -1.32893 0
M  V30 1008 C 101.343 3.46883 -2.83507 0
M  V30 1009 C 103.087 4.09548 -1.11672 0
M  V30 1010 C 100.994 4.89036 -3.32562 0
M  V30 1011 H 99.9238 0.698181 -0.284709 0
M  V30 1012 H 102.575 1.31583 -1.27899 0
M  V30 1013 H 100.957 3.88859 -0.748662 0
M  V30 1014 H 102.131 3.02663 -3.47465 0
M  V30 1015 H 100.446 2.85232 -3.03368 0
M  V30 1016 H 103.043 5.14434 -1.45814 0
M  V30 1017 H 103.386 4.16264 -0.0549535 0
M  V30 1018 H 103.919 3.61387 -1.66265 0
M  V30 1019 H 100.658 4.87499 -4.38207 0
M  V30 1020 H 100.178 5.3389 -2.73351 0
M  V30 1021 H 101.857 5.57843 -3.2775 0
M  V30 1022 N 101.989 0.842826 1.3317 0
M  V30 1023 C 103.266 0.362216 1.92217 0
M  V30 1024 C 103.646 -1.15289 1.76838 0
M  V30 1025 O 102.994 -1.96914 1.15919 0
M  V30 1026 C 103.204 0.813495 3.39387 0
M  V30 1027 C 104.552 0.823804 4.16532 0
M  V30 1028 O 105.576 0.757358 3.48055 0
M  V30 1029 O 104.435 0.915193 5.38782 0
M  V30 1030 H 101.529 0.103317 0.820521 0
M  V30 1031 H 104.075 0.928942 1.42017 0
M  V30 1032 H 102.847 1.85624 3.4447 0
M  V30 1033 H 102.47 0.223561 3.96971 0
M  V30 1034 N 103.467 -1.45747 0.599634 0
M  V30 1035 C 104.707 -2.04181 0.0946309 0
M  V30 1036 C 105.071 -1.45895 -1.24815 0
M  V30 1037 O 106.272 -1.95633 -1.8434 0
M  V30 1038 C 104.543 -3.57368 0.047581 0
M  V30 1039 S 106.102 -4.36997 -0.397387 0
M  V30 1040 H 102.92 -0.70953 0.0456954 0
M  V30 1041 H 105.522 -1.78564 0.795946 0
M  V30 1042 H 104.226 -3.97303 1.02852 0
M  V30 1043 H 103.757 -3.87549 -0.675977 0
M  V30 1044 H 105.772 -4.68012 -1.64862 0
M  V30 1045 N 104.945 -0.338344 -1.53925 0
M  V30 1046 C 105.892 0.520845 -2.24846 0
M  V30 1047 C 106.862 1.09976 -1.24477 0
M  V30 1048 O 108.047 1.13735 -1.53196 0
M  V30 1049 C 105.187 1.6685 -3.02084 0
M  V30 1050 C 104.3 1.11739 -4.17299 0
M  V30 1051 C 103.435 2.23193 -4.82036 0
M  V30 1052 C 102.474 1.65407 -5.89328 0
M  V30 1053 N 101.611 2.70582 -6.47866 0
M  V30 1054 H 106.451 -0.0904881 -2.97863 0
M  V30 1055 H 103.988 -0.0564282 -1.46992 0
M  V30 1056 H 105.946 2.34407 -3.45122 0
M  V30 1057 H 104.576 2.2509 -2.31375 0
M  V30 1058 H 103.628 0.332919 -3.7894 0
M  V30 1059 H 104.94 0.654677 -4.94485 0
M  V30 1060 H 104.094 2.98626 -5.28117 0
M  V30 1061 H 102.833 2.72807 -4.04262 0
M  V30 1062 H 101.838 0.884779 -5.42634 0
M  V30 1063 H 103.063 1.16652 -6.69006 0
M  V30 1064 H 101.009 3.1946 -5.72959 0
M  V30 1065 H 100.926 2.28917 -7.20509 0
M  V30 1066 H 102.194 3.45799 -6.98601 0
M  V30 1067 N 106.423 1.57458 -0.0668435 0
M  V30 1068 C 107.671 1.92919 0.602214 0
M  V30 1069 C 107.992 0.947215 1.70449 0
M  V30 1070 O 107.262 -0.00544117 1.95899 0
M  V30 1071 H 105.842 0.71217 0.22544 0
M  V30 1072 H 108.504 1.94508 -0.123535 0
M  V30 1073 H 107.6 2.94589 1.03073 0
M  V30 1074 N 107.901 -0.206675 1.56239 0
M  V30 1075 C 108.831 -1.25909 1.96645 0
M  V30 1076 C 109.812 -1.48097 0.836734 0
M  V30 1077 O 110.997 -1.6003 1.10019 0
M  V30 1078 C 108.127 -2.6058 2.29599 0
M  V30 1079 C 107.081 -2.53024 3.452 0
M  V30 1080 C 106.407 -3.91861 3.63798 0
M  V30 1081 C 107.707 -2.06524 4.79734 0
M  V30 1082 H 109.401 -0.923369 2.84806 0
M  V30 1083 H 106.947 -0.442735 1.37025 0
M  V30 1084 H 108.9 -3.34375 2.56459 0
M  V30 1085 H 107.624 -2.95869 1.38307 0
M  V30 1086 H 106.283 -1.81684 3.18412 0
M  V30 1087 H 105.931 -4.24483 2.69857 0
M  V30 1088 H 105.631 -3.87683 4.4156 0
M  V30 1089 H 107.155 -4.67296 3.93022 0
M  V30 1090 H 108.569 -2.70072 5.05702 0
M  V30 1091 H 106.966 -2.13374 5.60885 0
M  V30 1092 H 108.036 -1.01802 4.74093 0
M  V30 1093 N 109.379 -1.50304 -0.473955 0
M  V30 1094 C 110.795 -1.37667 -0.807466 0
M  V30 1095 C 110.995 -0.430555 -1.96846 0
M  V30 1096 O 110.051 0.127874 -2.52176 0
M  V30 1097 C 111.364 -2.78974 -1.12223 0
M  V30 1098 C 112.912 -2.87868 -1.22885 0
M  V30 1099 C 113.387 -4.30003 -1.57676 0
M  V30 1100 N 114.878 -4.3294 -1.64673 0
M  V30 1101 C 115.613 -5.3991 -1.93091 0
M  V30 1102 N 115.109 -6.57092 -2.1955 0
M  V30 1103 N 116.902 -5.27351 -1.94569 0
M  V30 1104 H 109.053 -2.10394 0.291212 0
M  V30 1105 H 111.316 -0.945575 0.0677609 0
M  V30 1106 H 111.022 -3.50031 -0.342229 0
M  V30 1107 H 110.896 -3.16038 -2.05913 0
M  V30 1108 H 113.283 -2.17032 -1.99953 0
M  V30 1109 H 113.364 -2.54352 -0.271814 0
M  V30 1110 H 113.008 -5.01375 -0.81149 0
M  V30 1111 H 112.938 -4.61004 -2.54525 0
M  V30 1112 H 115.429 -3.48441 -1.46277 0
M  V30 1113 H 115.742 -7.34425 -2.405 0
M  V30 1114 H 114.087 -6.60272 -2.16948 0
M  V30 1115 H 117.278 -4.34801 -1.73394 0
M  V30 1116 H 117.451 -6.10805 -2.16381 0
M  V30 1117 N 110.857 0.726932 -1.39834 0
M  V30 1118 C 111.767 1.87131 -1.41489 0
M  V30 1119 C 112.783 1.71239 -0.308757 0
M  V30 1120 O 113.959 1.93701 -0.551529 0
M  V30 1121 C 111.024 3.22811 -1.26468 0
M  V30 1122 C 110.085 3.51039 -2.47124 0
M  V30 1123 C 109.318 4.80245 -2.3281 0
M  V30 1124 O 109.541 5.54537 -1.33585 0
M  V30 1125 O 108.475 5.08554 -3.21957 0
M  V30 1126 H 112.301 1.8869 -2.3797 0
M  V30 1127 H 109.886 0.875837 -1.21035 0
M  V30 1128 H 111.768 4.03877 -1.20255 0
M  V30 1129 H 110.443 3.22005 -0.330862 0
M  V30 1130 H 109.35 2.70027 -2.58914 0
M  V30 1131 H 110.683 3.56632 -3.39227 0
M  V30 1132 N 112.336 1.25143 0.95797 0
M  V30 1133 C 113.283 1.05235 2.05412 0
M  V30 1134 C 114.253 -0.0374561 1.66058 0
M  V30 1135 O 115.438 0.119073 1.90428 0
M  V30 1136 C 112.578 0.673589 3.38462 0
M  V30 1137 C 111.691 1.8379 3.90954 0
M  V30 1138 C 110.826 1.40381 5.12315 0
M  V30 1139 C 109.865 2.53746 5.57027 0
M  V30 1140 N 109.002 2.11136 6.69601 0
M  V30 1141 H 113.842 1.99048 2.21774 0
M  V30 1142 H 111.379 0.991277 1.08683 0
M  V30 1143 H 113.337 0.434964 4.14926 0
M  V30 1144 H 111.967 -0.227554 3.21997 0
M  V30 1145 H 111.019 2.18992 3.11041 0
M  V30 1146 H 112.331 2.68937 4.20089 0
M  V30 1147 H 111.485 1.12464 5.96185 0
M  V30 1148 H 110.224 0.523015 4.84887 0
M  V30 1149 H 109.229 2.82412 4.71724 0
M  V30 1150 H 110.454 3.42398 5.86464 0
M  V30 1151 H 108.4 1.25468 6.4389 0
M  V30 1152 H 108.317 2.89832 6.98236 0
M  V30 1153 H 109.585 1.86385 7.56889 0
M  V30 1154 N 113.814 -1.1601 1.06675 0
M  V30 1155 C 115.054 -1.88304 0.795037 0
M  V30 1156 C 115.418 -1.80062 -0.666466 0
M  V30 1157 O 116.619 -2.47319 -1.05293 0
M  V30 1158 C 114.89 -3.33664 1.28076 0
M  V30 1159 S 116.449 -4.23768 1.13868 0
M  V30 1160 H 113.267 -0.649928 0.288296 0
M  V30 1161 H 115.869 -1.4001 1.36445 0
M  V30 1162 H 114.573 -3.37203 2.33927 0
M  V30 1163 H 114.104 -3.87009 0.706253 0
M  V30 1164 H 116.119 -4.96148 0.0719668 0
M  V30 1165 N 115.292 -0.849877 -1.32721 0
M  V30 1166 C 116.569 -0.372405 -1.92022 0
M  V30 1167 C 116.949 1.1435 -1.77447 0
M  V30 1168 O 116.297 1.96296 -1.16962 0
M  V30 1169 C 116.507 -0.831482 -3.3895 0
M  V30 1170 C 117.855 -0.845882 -4.16089 0
M  V30 1171 O 118.879 -0.775806 -3.47649 0
M  V30 1172 O 117.738 -0.943753 -5.38289 0
M  V30 1173 H 114.832 -0.107667 -0.819961 0
M  V30 1174 H 117.378 -0.93646 -1.41522 0
M  V30 1175 H 116.15 -1.87448 -3.4348 0
M  V30 1176 H 115.773 -0.24461 -3.96847 0
M  V30 1177 N 116.77 1.45427 -0.607355 0
M  V30 1178 C 117.68 2.34325 0.113463 0
M  V30 1179 C 118.696 1.51226 0.860617 0
M  V30 1180 O 119.872 1.84029 0.818255 0
M  V30 1181 C 116.937 3.28839 1.09844 0
M  V30 1182 C 115.998 4.27844 0.353271 0
M  V30 1183 C 115.231 5.17842 1.29133 0
M  V30 1184 O 115.454 5.11264 2.52913 0
M  V30 1185 O 114.388 5.96713 0.788523 0
M  V30 1186 H 118.214 2.97364 -0.617094 0
M  V30 1187 H 115.799 1.44807 -0.367619 0
M  V30 1188 H 117.681 3.8708 1.66575 0
M  V30 1189 H 116.356 2.68365 1.81003 0
M  V30 1190 H 115.263 3.7322 -0.256494 0
M  V30 1191 H 116.596 4.91173 -0.317822 0
M  V30 1192 N 118.248 0.346503 1.53744 0
M  V30 1193 C 119.211 -0.496439 2.23759 0
M  V30 1194 C 120.211 -1.0252 1.2388 0
M  V30 1195 O 121.401 -0.913974 1.48297 0
M  V30 1196 C 118.533 -1.69187 2.95954 0
M  V30 1197 H 119.726 0.115952 2.99676 0
M  V30 1198 H 117.279 0.0978939 1.55993 0
M  V30 1199 H 118.014 -2.34288 2.24231 0
M  V30 1200 H 117.799 -1.31989 3.69217 0
M  V30 1201 H 119.289 -2.28969 3.49232 0
M  V30 1202 N 119.726 -1.57421 0.075193 0
M  V30 1203 C 120.974 -1.93236 -0.591974 0
M  V30 1204 C 121.295 -0.956241 -1.69944 0
M  V30 1205 O 120.565 -0.00494792 -1.95899 0
M  V30 1206 H 119.145 -0.713355 -0.22166 0
M  V30 1207 H 121.807 -1.9444 0.133848 0
M  V30 1208 H 120.903 -2.95131 -1.01509 0
M  V30 1209 N 121.204 0.198386 -1.56346 0
M  V30 1210 C 122.134 1.24865 -1.9731 0
M  V30 1211 C 123.115 1.47651 -0.844576 0
M  V30 1212 O 124.3 1.59444 -1.10866 0
M  V30 1213 C 121.43 2.59358 -2.30977 0
M  V30 1214 C 120.384 2.5119 -3.46537 0
M  V30 1215 C 119.71 3.89926 -3.65871 0
M  V30 1216 C 121.01 2.03977 -4.80823 0
M  V30 1217 H 122.704 0.908252 -2.85291 0
M  V30 1218 H 120.25 0.435462 -1.37258 0
M  V30 1219 H 122.203 3.33011 -2.58228 0
M  V30 1220 H 120.927 2.95132 -1.39874 0
M  V30 1221 H 119.586 1.79993 -3.19371 0
M  V30 1222 H 119.234 4.23046 -2.72105 0
M  V30 1223 H 118.934 3.85336 -4.4361 0
M  V30 1224 H 120.458 4.65205 -3.95495 0
M  V30 1225 H 121.872 2.67386 -5.07127 0
M  V30 1226 H 120.269 2.10397 -5.62008 0
M  V30 1227 H 121.339 0.992861 -4.74626 0
M  V30 1228 N 122.682 1.50554 0.465978 0
M  V30 1229 C 123.629 1.6979 1.56333 0
M  V30 1230 C 124.599 0.539239 1.57103 0
M  V30 1231 O 125.784 0.770401 1.74555 0
M  V30 1232 C 122.924 1.80273 2.94271 0
M  V30 1233 C 122.037 3.07674 3.0325 0
M  V30 1234 C 121.172 3.08922 4.32135 0
M  V30 1235 C 120.211 4.30755 4.34875 0
M  V30 1236 N 119.348 4.29714 5.55239 0
M  V30 1237 H 124.188 2.63472 1.39235 0
M  V30 1238 H 121.725 1.30602 0.676873 0
M  V30 1239 H 123.683 1.84332 3.74269 0
M  V30 1240 H 122.313 0.900258 3.09992 0
M  V30 1241 H 121.365 3.13062 2.16094 0
M  V30 1242 H 122.677 3.97642 3.01135 0
M  V30 1243 H 121.831 3.11738 5.20485 0
M  V30 1244 H 120.57 2.16792 4.36866 0
M  V30 1245 H 119.575 4.28146 3.44922 0
M  V30 1246 H 120.8 5.24117 4.31831 0
M  V30 1247 H 118.746 3.4044 5.60746 0
M  V30 1248 H 118.663 5.13456 5.54886 0
M  V30 1249 H 119.931 4.36683 6.457 0
M  V30 1250 N 124.16 -0.719506 1.40217 0
M  V30 1251 C 125.408 -1.47641 1.3801 0
M  V30 1252 C 125.729 -1.94992 -0.018145 0
M  V30 1253 O 124.999 -1.70073 -0.972207 0
M  V30 1254 H 123.579 -0.547744 0.507923 0
M  V30 1255 H 126.241 -0.853187 1.75233 0
M  V30 1256 H 125.337 -2.35112 2.05253 0
M  V30 1257 N 125.638 -1.25649 -0.95132 0
M  V30 1258 C 126.887 -1.09988 -1.69073 0
M  V30 1259 C 127.2 0.358355 -1.92289 0
M  V30 1260 O 128.406 0.635466 -2.63958 0
M  V30 1261 C 126.862 -1.92012 -3.044 0
M  V30 1262 C 126.47 -3.42347 -2.88968 0
M  V30 1263 C 128.214 -1.8493 -3.82101 0
M  V30 1264 C 126.121 -4.16655 -4.19705 0
M  V30 1265 H 125.051 -0.407993 -0.63408 0
M  V30 1266 H 127.702 -1.49873 -1.05879 0
M  V30 1267 H 126.084 -1.44952 -3.68517 0
M  V30 1268 H 127.258 -3.97104 -2.33762 0
M  V30 1269 H 125.573 -3.50557 -2.24719 0
M  V30 1270 H 128.17 -2.37739 -4.78941 0
M  V30 1271 H 128.513 -0.817883 -4.08187 0
M  V30 1272 H 129.046 -2.29758 -3.2474 0
M  V30 1273 H 125.785 -5.20224 -3.98807 0
M  V30 1274 H 125.305 -3.66681 -4.74663 0
M  V30 1275 H 126.984 -4.24551 -4.88227 0
M  V30 1276 N 127.117 1.15442 -1.07289 0
M  V30 1277 C 128.064 2.20161 -0.692653 0
M  V30 1278 C 129.034 1.63073 0.31564 0
M  V30 1279 O 130.219 1.89725 0.202235 0
M  V30 1280 C 127.359 3.44967 -0.0959509 0
M  V30 1281 C 126.472 4.16256 -1.15564 0
M  V30 1282 C 125.607 5.28609 -0.524011 0
M  V30 1283 C 124.646 5.91715 -1.56653 0
M  V30 1284 N 123.783 6.9554 -0.957531 0
M  V30 1285 H 128.623 2.52037 -1.59002 0
M  V30 1286 H 126.16 1.2378 -0.794798 0
M  V30 1287 H 128.118 4.16341 0.267628 0
M  V30 1288 H 126.748 3.1361 0.764772 0
M  V30 1289 H 125.8 3.43385 -1.6368 0
M  V30 1290 H 127.112 4.59268 -1.94613 0
M  V30 1291 H 126.266 6.06604 -0.108032 0
M  V30 1292 H 125.005 4.86787 0.29825 0
M  V30 1293 H 124.01 5.12433 -1.9923 0
M  V30 1294 H 125.235 6.35614 -2.39107 0
M  V30 1295 H 123.181 6.55814 -0.156162 0
M  V30 1296 H 123.098 7.36977 -1.68526 0
M  V30 1297 H 124.366 7.77435 -0.567032 0
M  V30 1298 N 128.595 0.856903 1.32268 0
M  V30 1299 C 129.525 0.31858 2.31316 0
M  V30 1300 C 130.506 -0.583487 1.59779 0
M  V30 1301 O 131.691 -0.503259 1.87566 0
M  V30 1302 C 128.821 -0.491979 3.43798 0
M  V30 1303 C 127.775 0.315849 4.26833 0
M  V30 1304 C 127.101 -0.619586 5.31098 0
M  V30 1305 C 128.401 1.54282 4.98993 0
M  V30 1306 H 130.095 1.14621 2.76591 0
M  V30 1307 H 127.641 0.552613 1.32974 0
M  V30 1308 H 129.594 -0.879012 4.1213 0
M  V30 1309 H 128.318 -1.35299 2.97257 0
M  V30 1310 H 126.977 0.684664 3.6015 0
M  V30 1311 H 126.625 -1.47751 4.8081 0
M  V30 1312 H 126.325 -0.0830621 5.87541 0
M  V30 1313 H 127.849 -1.00375 6.02293 0
M  V30 1314 H 129.263 1.22796 5.59995 0
M  V30 1315 H 127.66 2.01745 5.65172 0
M  V30 1316 H 128.73 2.30285 4.26728 0
M  V30 1317 N 130.073 -1.45103 0.615059 0
M  V30 1318 C 131.32 -2.02183 0.113179 0
M  V30 1319 C 131.648 -1.48249 -1.25906 0
M  V30 1320 O 130.903 -0.650265 -1.84581 0
M  V30 1321 C 131.202 -3.57386 0.0318797 0
M  V30 1322 C 130.868 -4.30505 1.34077 0
M  V30 1323 C 129.53 -4.50197 1.69929 0
M  V30 1324 C 131.882 -4.72238 2.20546 0
M  V30 1325 C 129.21 -5.08881 2.91988 0
M  V30 1326 C 131.562 -5.32272 3.41861 0
M  V30 1327 C 130.226 -5.50187 3.77956 0
M  V30 1328 H 129.496 -0.739842 0.0414151 0
M  V30 1329 H 132.143 -1.74073 0.798168 0
M  V30 1330 H 130.448 -3.84817 -0.736409 0
M  V30 1331 H 132.145 -3.99264 -0.372712 0
M  V30 1332 H 128.735 -4.15496 1.05173 0
M  V30 1333 H 132.919 -4.56751 1.94146 0
M  V30 1334 H 128.175 -5.20939 3.2005 0
M  V30 1335 H 132.349 -5.63563 4.09109 0
M  V30 1336 H 129.976 -5.95427 4.72622 0
M  V30 1337 N 131.551 -0.354651 -1.53558 0
M  V30 1338 C 132.797 0.238797 -2.01389 0
M  V30 1339 C 133.13 1.49309 -1.2418 0
M  V30 1340 O 132.405 1.91638 -0.332457 0
M  V30 1341 C 132.688 0.541771 -3.56001 0
M  V30 1342 C 132.541 -0.725388 -4.43912 0
M  V30 1343 C 133.86 1.34685 -4.18984 0
M  V30 1344 H 130.979 0.0853177 -0.732045 0
M  V30 1345 H 133.621 -0.477384 -1.83905 0
M  V30 1346 H 131.771 1.15189 -3.71031 0
M  V30 1347 H 133.443 -1.36313 -4.407 0
M  V30 1348 H 131.686 -1.34801 -4.12324 0
M  V30 1349 H 132.357 -0.468505 -5.50008 0
M  V30 1350 H 134.833 0.830837 -4.07721 0
M  V30 1351 H 133.709 1.52759 -5.27215 0
M  V30 1352 H 133.97 2.35221 -3.74331 0
M  V30 1353 N 133.029 1.57378 -0.0835403 0
M  V30 1354 C 134.277 1.93547 0.581718 0
M  V30 1355 C 134.598 0.96524 1.69435 0
M  V30 1356 O 133.868 0.0153369 1.95894 0
M  V30 1357 H 132.448 0.714521 0.217874 0
M  V30 1358 H 135.11 1.94366 -0.144158 0
M  V30 1359 H 134.206 2.95665 0.999423 0
M  V30 1360 N 134.507 -0.190092 1.56449 0
M  V30 1361 C 135.755 -0.907908 1.80559 0
M  V30 1362 C 136.076 -1.83583 0.657438 0
M  V30 1363 O 135.346 -1.93203 -0.323924 0
M  V30 1364 H 133.926 -0.338247 0.666032 0
M  V30 1365 H 136.588 -0.194403 1.93928 0
M  V30 1366 H 135.684 -1.49604 2.73907 0
M  V30 1367 N 135.985 -1.50799 -0.457987 0
M  V30 1368 C 136.933 -1.71162 -1.575 0
M  V30 1369 C 137.927 -0.577592 -1.59249 0
M  V30 1370 O 139.133 -0.758443 -1.63241 0
M  V30 1371 H 135.508 -0.540468 -0.522875 0
M  V30 1372 H 137.479 -2.64837 -1.37492 0
M  V30 1373 C 136.228 -1.83496 -2.95338 0
M  V30 1374 H 135.551 -2.70153 -2.94716 0
M  V30 1375 H 136.991 -2.01765 -3.72917 0
M  V30 1376 C 135.45 -0.589694 -3.31699 0
M  V30 1377 O 135.98 0.265163 -4.00824 0
M  V30 1378 N 134.186 -0.439845 -2.87252 0
M  V30 1379 H 133.733 -1.13655 -2.31172 0
M  V30 1380 H 133.691 0.392159 -3.11945 0
M  V30 1381 N 137.463 0.71206 -1.40597 0
M  V30 1382 C 138.712 1.46754 -1.38369 0
M  V30 1383 C 139.025 1.95598 0.0097839 0
M  V30 1384 O 140.231 2.71059 0.154677 0
M  V30 1385 C 138.687 2.65289 -2.43207 0
M  V30 1386 C 138.295 2.23301 -3.88382 0
M  V30 1387 C 140.039 3.43008 -2.50091 0
M  V30 1388 C 137.946 3.38696 -4.84808 0
M  V30 1389 H 136.876 0.55118 -0.514506 0
M  V30 1390 H 139.527 0.774616 -1.66349 0
M  V30 1391 H 137.909 3.36769 -2.08332 0
M  V30 1392 H 139.083 1.59218 -4.32419 0
M  V30 1393 H 137.398 1.58618 -3.85006 0
M  V30 1394 H 139.995 4.28881 -3.1932 0
M  V30 1395 H 140.338 3.87065 -1.53253 0
M  V30 1396 H 140.871 2.78574 -2.83974 0
M  V30 1397 H 137.61 2.99668 -5.82992 0
M  V30 1398 H 137.13 4.01683 -4.45433 0
M  V30 1399 H 138.809 4.04712 -5.04794 0
M  V30 1400 N 138.941 1.26152 0.944643 0
M  V30 1401 C 140.187 1.11657 1.69294 0
M  V30 1402 C 140.52 -0.339926 1.91202 0
M  V30 1403 O 139.795 -1.24994 1.49019 0
M  V30 1404 C 140.078 1.88236 3.06984 0
M  V30 1405 C 139.931 3.41772 2.92424 0
M  V30 1406 C 141.25 1.67343 4.07043 0
M  V30 1407 H 138.369 0.407004 0.614424 0
M  V30 1408 H 141.011 1.55106 1.09737 0
M  V30 1409 H 139.161 1.51308 3.57824 0
M  V30 1410 H 140.833 3.88433 2.48832 0
M  V30 1411 H 139.076 3.68974 2.28124 0
M  V30 1412 H 139.747 3.90579 3.90067 0
M  V30 1413 H 142.223 1.99509 3.65151 0
M  V30 1414 H 141.099 2.23346 5.01406 0
M  V30 1415 H 141.36 0.617158 4.37771 0
M  V30 1416 N 140.419 -1.14872 1.07899 0
M  V30 1417 C 141.665 -1.86064 0.806725 0
M  V30 1418 C 141.998 -1.82434 -0.665706 0
M  V30 1419 O 141.273 -1.25138 -1.48899 0
M  V30 1420 C 141.556 -3.34929 1.32267 0
M  V30 1421 C 141.409 -3.47161 2.86006 0
M  V30 1422 C 142.728 -4.29863 0.943717 0
M  V30 1423 H 139.847 -0.675591 0.294526 0
M  V30 1424 H 142.489 -1.34925 1.33773 0
M  V30 1425 H 140.639 -3.78611 0.870974 0
M  V30 1426 H 142.311 -3.12302 3.39507 0
M  V30 1427 H 140.554 -2.88539 3.23925 0
M  V30 1428 H 141.225 -4.51777 3.17177 0
M  V30 1429 H 143.701 -3.9417 1.33302 0
M  V30 1430 H 142.577 -5.32494 1.33198 0
M  V30 1431 H 142.838 -4.41846 -0.149796 0
M  V30 1432 N 141.898 -0.863906 -1.31812 0
M  V30 1433 C 143.146 -0.470904 -1.96537 0
M  V30 1434 C 143.467 0.978771 -1.68657 0
M  V30 1435 O 142.737 1.6853 -0.998717 0
M  V30 1436 H 141.317 -0.171148 -0.72713 0
M  V30 1437 H 143.979 -1.10236 -1.60729 0
M  V30 1438 H 143.075 -0.623616 -3.05806 0
M  V30 1439 N 143.376 1.44774 -0.622745 0
M  V30 1440 C 144.323 2.30635 0.0871679 0
M  V30 1441 C 145.293 1.42994 0.845097 0
M  V30 1442 O 146.478 1.71907 0.827812 0
M  V30 1443 C 143.618 3.28144 1.06844 0
M  V30 1444 C 142.731 4.30888 0.309809 0
M  V30 1445 C 141.866 5.15494 1.28215 0
M  V30 1446 C 140.905 6.09953 0.512198 0
M  V30 1447 N 140.042 6.87287 1.43458 0
M  V30 1448 H 144.882 2.90803 -0.650974 0
M  V30 1449 H 142.419 1.43286 -0.33281 0
M  V30 1450 H 144.377 3.83157 1.65066 0
M  V30 1451 H 143.007 2.69695 1.77382 0
M  V30 1452 H 142.059 3.78414 -0.388181 0
M  V30 1453 H 143.371 4.97955 -0.290254 0
M  V30 1454 H 142.525 5.74983 1.93596 0
M  V30 1455 H 141.264 4.48481 1.91614 0
M  V30 1456 H 140.269 5.49581 -0.155151 0
M  V30 1457 H 141.494 6.78999 -0.116958 0
M  V30 1458 H 139.44 6.2295 2.05594 0
M  V30 1459 H 139.357 7.50763 0.888335 0
M  V30 1460 H 140.625 7.51306 2.07749 0
M  V30 1461 N 144.854 0.36279 1.53368 0
M  V30 1462 C 145.786 -0.519668 2.23231 0
M  V30 1463 C 146.799 -1.04844 1.24546 0
M  V30 1464 O 147.988 -0.955296 1.50786 0
M  V30 1465 C 145.088 -1.72995 2.9142 0
M  V30 1466 C 144.261 -1.33316 4.16588 0
M  V30 1467 C 143.32 -2.40521 4.68013 0
M  V30 1468 O 142.346 -2.03027 5.3176 0
M  V30 1469 N 143.548 -3.72065 4.45587 0
M  V30 1470 H 146.313 0.078751 2.99597 0
M  V30 1471 H 143.874 0.187833 1.60807 0
M  V30 1472 H 145.866 -2.44184 3.22733 0
M  V30 1473 H 144.436 -2.2353 2.18525 0
M  V30 1474 H 143.656 -0.451236 3.91609 0
M  V30 1475 H 144.944 -1.04432 4.97967 0
M  V30 1476 H 144.342 -4.05304 3.94646 0
M  V30 1477 H 142.899 -4.39366 4.81457 0
M  V30 1478 N 146.332 -1.57332 0.0918853 0
M  V30 1479 C 147.28 -2.15075 -0.885747 0
M  V30 1480 C 148.274 -1.09277 -1.29441 0
M  V30 1481 O 149.48 -1.27627 -1.26931 0
M  V30 1482 H 145.855 -0.687966 -0.303656 0
M  V30 1483 H 147.826 -2.96047 -0.373995 0
M  V30 1484 C 146.575 -2.74325 -2.13638 0
M  V30 1485 H 145.898 -3.55418 -1.8308 0
M  V30 1486 H 147.338 -3.183 -2.80109 0
M  V30 1487 C 145.797 -1.70062 -2.90827 0
M  V30 1488 O 146.327 -1.13763 -3.85254 0
M  V30 1489 N 144.533 -1.40628 -2.54307 0
M  V30 1490 H 144.08 -1.866 -1.7759 0
M  V30 1491 H 144.038 -0.711043 -3.06254 0
M  V30 1492 N 147.81 0.181792 -1.56548 0
M  V30 1493 C 149.056 0.896803 -1.82562 0
M  V30 1494 C 149.411 1.80324 -0.670908 0
M  V30 1495 O 148.704 1.8868 0.333235 0
M  V30 1496 C 148.898 1.73728 -3.12335 0
M  V30 1497 C 148.727 0.913714 -4.4032 0
M  V30 1498 C 147.497 0.592903 -5.01809 0
M  V30 1499 C 149.695 0.260164 -5.13642 0
M  V30 1500 N 147.677 -0.247901 -6.13399 0
M  V30 1501 C 149.048 -0.442256 -6.18421 0
M  V30 1502 C 151.103 0.177253 -4.97584 0
M  V30 1503 C 149.806 -1.21971 -7.08883 0
M  V30 1504 C 151.832 -0.586839 -5.88481 0
M  V30 1505 C 151.194 -1.27766 -6.92716 0
M  V30 1506 H 147.293 0.307122 -0.719166 0
M  V30 1507 H 149.877 0.164535 -1.94004 0
M  V30 1508 H 148.048 2.44105 -3.02105 0
M  V30 1509 H 149.78 2.39279 -3.26386 0
M  V30 1510 H 146.535 0.920502 -4.64568 0
M  V30 1511 H 146.959 -0.658304 -6.73792 0
M  V30 1512 H 151.601 0.696993 -4.17015 0
M  V30 1513 H 149.319 -1.75083 -7.88905 0
M  V30 1514 H 152.905 -0.652522 -5.78129 0
M  V30 1515 H 151.785 -1.85943 -7.61836 0
M  V30 1516 N 149.288 1.51039 0.449983 0
M  V30 1517 C 150.699 1.557 1.03026 0
M  V30 1518 C 151.05 0.372939 1.92623 0
M  V30 1519 O 150.175 -0.511771 2.10261 0
M  V30 1520 C 150.77 2.82171 1.87523 0
M  V30 1521 C 149.329 2.89444 2.40622 0
M  V30 1522 C 148.476 2.50228 1.19504 0
M  V30 1523 H 151.427 1.56999 0.231745 0
M  V30 1524 H 151.448 2.65219 2.72835 0
M  V30 1525 H 150.96 3.68331 1.22286 0
M  V30 1526 H 149.061 2.07685 3.0935 0
M  V30 1527 H 149.174 3.92816 2.74285 0
M  V30 1528 H 147.538 2.03139 1.53644 0
M  V30 1529 H 148.321 3.38719 0.558972 0
M  V30 1530 N 150.766 -0.704594 1.40972 0
M  V30 1531 C 152.043 -1.45847 1.30338 0
M  V30 1532 C 152.423 -2.10973 -0.0732344 0
M  V30 1533 O 151.771 -2.00997 -1.08685 0
M  V30 1534 C 151.981 -2.48525 2.45023 0
M  V30 1535 C 153.329 -3.1404 2.8577 0
M  V30 1536 O 154.353 -2.58848 2.44696 0
M  V30 1537 O 153.212 -4.13981 3.56766 0
M  V30 1538 H 150.306 -0.649092 0.512454 0
M  V30 1539 H 152.852 -0.735836 1.52917 0
M  V30 1540 H 151.624 -1.98994 3.36923 0
M  V30 1541 H 151.247 -3.2831 2.24272 0
M  V30 1542 N 152.244 -1.26651 -0.937939 0
M  V30 1543 C 153.49 -1.12553 -1.687 0
M  V30 1544 C 153.823 0.329782 -1.91379 0
M  V30 1545 O 153.098 1.24202 -1.4968 0
M  V30 1546 C 153.381 -1.89862 -3.05981 0
M  V30 1547 C 153.234 -3.43318 -2.90607 0
M  V30 1548 C 154.553 -1.69499 -4.0615 0
M  V30 1549 H 151.672 -0.410257 -0.612257 0
M  V30 1550 H 154.314 -1.55685 -1.08913 0
M  V30 1551 H 152.464 -1.53204 -3.57017 0
M  V30 1552 H 154.136 -3.89747 -2.46769 0
M  V30 1553 H 152.379 -3.70179 -2.26164 0
M  V30 1554 H 153.05 -3.92642 -3.8799 0
M  V30 1555 H 155.526 -2.01442 -3.64088 0
M  V30 1556 H 154.402 -2.26002 -5.00214 0
M  V30 1557 H 154.663 -0.640365 -4.37438 0
M  V30 1558 N 153.722 1.14298 -1.08507 0
M  V30 1559 C 154.632 2.23027 -0.727753 0
M  V30 1560 C 155.648 1.71952 0.26619 0
M  V30 1561 O 156.824 2.011 0.109882 0
M  V30 1562 C 153.889 3.46403 -0.143541 0
M  V30 1563 C 152.95 4.12413 -1.19223 0
M  V30 1564 C 152.183 5.29899 -0.635798 0
M  V30 1565 O 152.406 5.67796 0.544393 0
M  V30 1566 O 151.34 5.85717 -1.38634 0
M  V30 1567 H 155.166 2.55945 -1.63481 0
M  V30 1568 H 152.751 1.22248 -0.858817 0
M  V30 1569 H 154.633 4.21018 0.179404 0
M  V30 1570 H 153.308 3.15206 0.736659 0
M  V30 1571 H 152.215 3.39667 -1.56772 0
M  V30 1572 H 153.548 4.47718 -2.04474 0
M  V30 1573 N 155.201 0.870884 1.31352 0
M  V30 1574 C 156.133 0.28455 2.27427 0
M  V30 1575 C 157.146 -0.552927 1.53123 0
M  V30 1576 O 158.335 -0.374771 1.74521 0
M  V30 1577 C 155.435 -0.615164 3.3327 0
M  V30 1578 C 154.608 0.190079 4.36987 0
M  V30 1579 C 153.667 -0.637917 5.22319 0
M  V30 1580 O 152.693 -0.065626 5.69162 0
M  V30 1581 N 153.895 -1.94973 5.46778 0
M  V30 1582 H 156.66 1.11017 2.7838 0
M  V30 1583 H 154.221 0.732458 1.44384 0
M  V30 1584 H 156.213 -1.1748 3.87273 0
M  V30 1585 H 154.783 -1.34146 2.82354 0
M  V30 1586 H 154.003 0.931165 3.83044 0
M  V30 1587 H 155.291 0.742579 5.03352 0
M  V30 1588 H 154.689 -2.4378 5.10478 0
M  V30 1589 H 153.246 -2.45713 6.03712 0
M  V30 1590 N 156.679 -1.44442 0.630414 0
M  V30 1591 C 158.095 -1.56832 0.295973 0
M  V30 1592 C 158.295 -1.61806 -1.20088 0
M  V30 1593 O 157.351 -1.5607 -1.9849 0
M  V30 1594 C 158.664 -2.84031 0.987264 0
M  V30 1595 C 160.212 -2.97742 0.96534 0
M  V30 1596 C 160.687 -4.27743 1.63708 0
M  V30 1597 N 162.178 -4.34555 1.60364 0
M  V30 1598 C 162.913 -5.33862 2.09234 0
M  V30 1599 N 162.409 -6.39578 2.66292 0
M  V30 1600 N 164.202 -5.25366 1.99867 0
M  V30 1601 H 156.353 -1.39457 1.60205 0
M  V30 1602 H 158.616 -0.668237 0.672431 0
M  V30 1603 H 158.322 -2.86338 2.04215 0
M  V30 1604 H 158.196 -3.73534 0.524588 0
M  V30 1605 H 160.583 -2.94989 -0.0810639 0
M  V30 1606 H 160.664 -2.09589 1.4665 0
M  V30 1607 H 160.308 -4.31255 2.68293 0
M  V30 1608 H 160.238 -5.14752 1.11076 0
M  V30 1609 H 162.729 -3.58772 1.18705 0
M  V30 1610 H 163.042 -7.11637 3.01317 0
M  V30 1611 H 161.387 -6.40265 2.70343 0
M  V30 1612 H 164.578 -4.41688 1.55013 0
M  V30 1613 H 164.751 -6.02606 2.38265 0
M  V30 1614 N 158.157 -0.370918 -1.53173 0
M  V30 1615 C 159.404 0.217102 -2.01333 0
M  V30 1616 C 159.732 1.48338 -1.25802 0
M  V30 1617 O 158.987 1.92698 -0.34146 0
M  V30 1618 C 159.286 0.549696 -3.53147 0
M  V30 1619 C 158.952 -0.622872 -4.46577 0
M  V30 1620 C 157.614 -0.944595 -4.71838 0
M  V30 1621 C 159.966 -1.40819 -5.01816 0
M  V30 1622 C 157.294 -2.05351 -5.49589 0
M  V30 1623 C 159.646 -2.50757 -5.80778 0
M  V30 1624 C 158.31 -2.83458 -6.04324 0
M  V30 1625 H 157.58 0.0794431 -0.736729 0
M  V30 1626 H 160.227 -0.504481 -1.84736 0
M  V30 1627 H 158.532 1.35237 -3.6772 0
M  V30 1628 H 160.229 1.017 -3.87889 0
M  V30 1629 H 156.819 -0.36209 -4.27068 0
M  V30 1630 H 161.003 -1.17289 -4.82242 0
M  V30 1631 H 156.259 -2.3108 -5.6605 0
M  V30 1632 H 160.433 -3.12022 -6.22588 0
M  V30 1633 H 158.06 -3.69508 -6.64355 0
M  V30 1634 N 159.635 1.57281 -0.100228 0
M  V30 1635 C 160.582 2.14305 0.856858 0
M  V30 1636 C 161.552 1.06296 1.27634 0
M  V30 1637 O 162.737 1.34109 1.35718 0
M  V30 1638 C 159.877 2.73184 2.10866 0
M  V30 1639 C 158.99 3.95442 1.73925 0
M  V30 1640 C 158.125 4.42468 2.93931 0
M  V30 1641 C 157.164 5.57303 2.5314 0
M  V30 1642 N 156.301 5.99158 3.65997 0
M  V30 1643 H 161.141 2.95772 0.363726 0
M  V30 1644 H 158.678 1.46139 0.167858 0
M  V30 1645 H 160.636 3.05442 2.84185 0
M  V30 1646 H 159.266 1.94437 2.57671 0
M  V30 1647 H 158.318 3.69464 0.905554 0
M  V30 1648 H 159.63 4.78769 1.39935 0
M  V30 1649 H 158.784 4.76537 3.75496 0
M  V30 1650 H 157.523 3.58052 3.31134 0
M  V30 1651 H 156.528 5.22857 1.70003 0
M  V30 1652 H 157.753 6.43471 2.17075 0
M  V30 1653 H 155.699 5.17687 4.02909 0
M  V30 1654 H 155.616 6.77295 3.35869 0
M  V30 1655 H 156.884 6.3786 4.48057 0
M  V30 1656 N 161.113 -0.173488 1.56642 0
M  V30 1657 C 162.076 -1.19859 1.95362 0
M  V30 1658 C 163.076 -1.37296 0.83704 0
M  V30 1659 O 164.266 -1.34739 1.10413 0
M  V30 1660 C 161.398 -2.56405 2.24654 0
M  V30 1661 H 162.591 -0.867062 2.87092 0
M  V30 1662 H 160.144 -0.415853 1.50666 0
M  V30 1663 H 160.879 -2.94576 1.35631 0
M  V30 1664 H 160.664 -2.45115 3.06041 0
M  V30 1665 H 162.154 -3.30287 2.5554 0
M  V30 1666 N 162.591 -1.51276 -0.441967 0
M  V30 1667 C 163.524 -1.66933 -1.55591 0
M  V30 1668 C 164.502 -0.516958 -1.54163 0
M  V30 1669 O 165.686 -0.740209 -1.73358 0
M  V30 1670 C 162.813 -1.67866 -2.94174 0
M  V30 1671 C 161.859 -2.89013 -3.13646 0
M  V30 1672 S 162.692 -4.49897 -2.90436 0
M  V30 1673 C 163.848 -4.53568 -4.31308 0
M  V30 1674 H 164.081 -2.61155 -1.42076 0
M  V30 1675 H 161.614 -1.40902 -0.631341 0
M  V30 1676 H 163.572 -1.69089 -3.74058 0
M  V30 1677 H 162.233 -0.748296 -3.05056 0
M  V30 1678 H 161.426 -2.86054 -4.14957 0
M  V30 1679 H 161.028 -2.85509 -2.4158 0
M  V30 1680 H 163.32 -4.28924 -5.24434 0
M  V30 1681 H 164.263 -5.55355 -4.39303 0
M  V30 1682 H 164.671 -3.82943 -4.14747 0
M  V30 1683 N 164.069 0.697108 -1.41344 0
M  V30 1684 C 165.317 1.45426 -1.40341 0
M  V30 1685 C 165.638 1.94996 -0.0128787 0
M  V30 1686 O 164.908 1.71599 0.945027 0
M  V30 1687 H 163.488 0.539594 -0.516573 0
M  V30 1688 H 166.15 0.825201 -1.76569 0
M  V30 1689 H 165.246 2.31817 -2.08967 0
M  V30 1690 N 165.547 1.27147 0.931209 0
M  V30 1691 C 166.794 1.13278 1.67852 0
M  V30 1692 C 167.122 -0.32204 1.91815 0
M  V30 1693 O 166.377 -1.25224 1.50391 0
M  V30 1694 C 166.676 1.8579 3.05314 0
M  V30 1695 C 166.342 3.35657 3.01073 0
M  V30 1696 C 165.004 3.76536 2.99623 0
M  V30 1697 C 167.356 4.31299 2.92627 0
M  V30 1698 C 164.684 5.11426 2.87506 0
M  V30 1699 C 167.036 5.66242 2.82051 0
M  V30 1700 C 165.7 6.06418 2.7895 0
M  V30 1701 H 164.97 0.414515 0.614214 0
M  V30 1702 H 167.617 1.57712 1.08624 0
M  V30 1703 H 165.922 1.33854 3.68226 0
M  V30 1704 H 167.619 1.72491 3.62005 0
M  V30 1705 H 164.209 3.03146 3.02986 0
M  V30 1706 H 168.393 4.00692 2.92848 0
M  V30 1707 H 163.649 5.41705 2.83489 0
M  V30 1708 H 167.823 6.40026 2.74481 0
M  V30 1709 H 165.45 7.10895 2.69318 0
M  V30 1710 N 167.025 -1.13721 1.09112 0
M  V30 1711 C 168.302 -1.81155 0.737706 0
M  V30 1712 C 168.682 -1.96253 -0.777683 0
M  V30 1713 O 168.03 -1.52807 -1.69889 0
M  V30 1714 C 168.24 -3.16392 1.47299 0
M  V30 1715 C 169.588 -3.91787 1.63671 0
M  V30 1716 O 170.612 -3.26005 1.43524 0
M  V30 1717 O 169.471 -5.0977 1.96969 0
M  V30 1718 H 166.565 -0.783518 0.26463 0
M  V30 1719 H 169.111 -1.20676 1.19312 0
M  V30 1720 H 167.883 -3.0061 2.50498 0
M  V30 1721 H 167.506 -3.8457 1.00953 0
M  V30 1722 N 168.503 -0.877838 -1.30888 0
M  V30 1723 C 169.919 -0.570844 -1.49042 0
M  V30 1724 C 170.119 0.893159 -1.80624 0
M  V30 1725 O 169.175 1.67485 -1.88958 0
M  V30 1726 C 170.488 -1.47784 -2.61878 0
M  V30 1727 C 172.036 -1.48071 -2.75761 0
M  V30 1728 C 172.511 -2.37347 -3.91702 0
M  V30 1729 N 174.002 -2.35271 -3.99001 0
M  V30 1730 C 174.737 -3.01063 -4.88004 0
M  V30 1731 N 174.233 -3.76055 -5.81854 0
M  V30 1732 N 176.026 -2.90332 -4.81315 0
M  V30 1733 H 168.177 -1.82502 -1.0866 0
M  V30 1734 H 170.44 -0.780797 -0.537644 0
M  V30 1735 H 170.146 -2.51993 -2.45341 0
M  V30 1736 H 170.02 -1.18215 -3.58197 0
M  V30 1737 H 172.407 -0.446166 -2.91708 0
M  V30 1738 H 172.488 -1.81668 -1.80085 0
M  V30 1739 H 172.132 -3.40883 -3.76512 0
M  V30 1740 H 172.062 -2.01071 -4.86701 0
M  V30 1741 H 174.553 -1.80768 -3.3186 0
M  V30 1742 H 174.866 -4.23366 -6.46514 0
M  V30 1743 H 173.211 -3.80163 -5.81808 0
M  V30 1744 H 176.402 -2.31278 -4.06974 0
M  V30 1745 H 176.575 -3.41885 -5.50471 0
M  V30 1746 N 169.982 1.44106 -0.638065 0
M  V30 1747 C 171.228 2.02277 -0.145546 0
M  V30 1748 C 171.561 1.50125 1.23191 0
M  V30 1749 O 170.836 0.688133 1.8192 0
M  V30 1750 C 171.119 3.59829 -0.139791 0
M  V30 1751 C 170.972 4.22247 -1.55008 0
M  V30 1752 C 172.291 4.36873 0.531966 0
M  V30 1753 H 169.41 0.734992 -0.0543632 0
M  V30 1754 H 172.052 1.71592 -0.815863 0
M  V30 1755 H 170.202 3.86102 0.431007 0
M  V30 1756 H 171.874 4.07057 -2.1703 0
M  V30 1757 H 170.117 3.79476 -2.10191 0
M  V30 1758 H 170.788 5.31284 -1.49804 0
M  V30 1759 H 173.264 4.16074 0.0464781 0
M  V30 1760 H 172.14 5.4657 0.505206 0
M  V30 1761 H 172.401 4.11995 1.60352 0
M  V30 1762 N 171.46 0.379036 1.52974 0
M  V30 1763 C 172.69 -0.20649 2.05566 0
M  V30 1764 C 173.098 -1.41906 1.25137 0
M  V30 1765 O 172.441 -1.81421 0.288464 0
M  V30 1766 C 172.503 -0.651086 3.53555 0
M  V30 1767 C 172.167 0.446626 4.54812 0
M  V30 1768 C 173.164 1.30079 5.03364 0
M  V30 1769 C 170.849 0.610719 4.98573 0
M  V30 1770 C 172.843 2.30426 5.94292 0
M  V30 1771 C 170.53 1.61754 5.89304 0
M  V30 1772 C 171.528 2.46274 6.37054 0
M  V30 1773 O 171.216 3.45237 7.25994 0
M  V30 1774 H 170.948 -0.0372381 0.674974 0
M  V30 1775 H 173.502 0.539718 1.98182 0
M  V30 1776 H 171.732 -1.44911 3.58522 0
M  V30 1777 H 173.421 -1.16112 3.88938 0
M  V30 1778 H 174.187 1.18527 4.70294 0
M  V30 1779 H 170.066 -0.0374044 4.60985 0
M  V30 1780 H 173.61 2.96432 6.31485 0
M  V30 1781 H 169.507 1.73348 6.21788 0
M  V30 1782 H 170.275 3.41124 7.44027 0
M  V30 1783 N 172.938 -1.57226 0.108567 0
M  V30 1784 C 174.349 -1.8195 -0.418464 0
M  V30 1785 C 174.7 -1.02508 -1.67292 0
M  V30 1786 O 173.825 -0.258496 -2.14851 0
M  V30 1787 C 174.42 -3.30028 -0.765979 0
M  V30 1788 C 172.979 -3.55469 -1.23769 0
M  V30 1789 C 172.126 -2.7625 -0.241106 0
M  V30 1790 H 175.077 -1.55149 0.33384 0
M  V30 1791 H 175.098 -3.44086 -1.62434 0
M  V30 1792 H 174.61 -3.87821 0.147219 0
M  V30 1793 H 172.711 -3.03022 -2.16814 0
M  V30 1794 H 172.824 -4.6408 -1.19022 0
M  V30 1795 H 171.188 -2.44133 -0.72602 0
M  V30 1796 H 171.971 -3.36797 0.665007 0
M  V30 1797 N 174.416 0.165178 -1.56732 0
M  V30 1798 C 175.827 0.727046 -1.71962 0
M  V30 1799 C 176.178 1.82508 -0.720078 0
M  V30 1800 O 175.303 2.16082 0.117242 0
M  V30 1801 C 175.898 1.32559 -3.11791 0
M  V30 1802 C 174.457 1.83422 -3.28684 0
M  V30 1803 C 173.604 0.715567 -2.67908 0
M  V30 1804 H 176.555 -0.0602896 -1.58585 0
M  V30 1805 H 176.576 2.19533 -3.10782 0
M  V30 1806 H 176.088 0.526195 -3.84516 0
M  V30 1807 H 174.189 2.65986 -2.60926 0
M  V30 1808 H 174.302 1.97543 -4.36478 0
M  V30 1809 H 172.666 1.13758 -2.27884 0
M  V30 1810 H 173.449 -0.0720836 -3.43224 0
M  V30 1811 N 175.894 1.51508 0.433938 0
M  V30 1812 C 177.142 1.6402 1.18075 0
M  V30 1813 C 177.463 0.360328 1.91642 0
M  V30 1814 O 176.733 -0.623945 1.85698 0
M  V30 1815 H 175.313 0.6045 0.43885 0
M  V30 1816 H 177.975 1.88452 0.497178 0
M  V30 1817 H 177.071 2.46949 1.90847 0
M  V30 1818 N 177.372 -0.689602 1.41712 0
M  V30 1819 C 178.6 -1.47827 1.44758 0
M  V30 1820 C 179.015 -1.88721 0.0545703 0
M  V30 1821 O 178.372 -1.57176 -0.927463 0
M  V30 1822 C 178.423 -2.73698 2.3616 0
M  V30 1823 O 178.144 -2.34524 3.7004 0
M  V30 1824 C 179.645 -3.67389 2.48072 0
M  V30 1825 H 176.865 -0.455357 0.49284 0
M  V30 1826 H 179.409 -0.848574 1.86063 0
M  V30 1827 H 177.564 -3.32891 1.98148 0
M  V30 1828 H 177.978 -3.15701 4.18847 0
M  V30 1829 H 179.452 -4.52475 3.16181 0
M  V30 1830 H 179.929 -4.12284 1.51388 0
M  V30 1831 H 180.535 -3.14097 2.86746 0
M  V30 1832 N 178.85 -1.27639 -0.924453 0
M  V30 1833 C 180.075 -1.17101 -1.71179 0
M  V30 1834 C 180.5 0.268134 -1.86179 0
M  V30 1835 O 179.858 1.19415 -1.36418 0
M  V30 1836 C 179.906 -1.86313 -3.08739 0
M  V30 1837 O 179.01 -1.16331 -3.95652 0
M  V30 1838 H 178.351 -0.407091 -0.524569 0
M  V30 1839 H 180.881 -1.68767 -1.15666 0
M  V30 1840 H 180.891 -1.938 -3.59034 0
M  V30 1841 H 179.566 -2.91001 -2.97138 0
M  V30 1842 H 178.143 -1.16935 -3.54091 0
M  V30 1843 N 180.328 1.1314 -1.09713 0
M  V30 1844 C 181.739 1.66029 -0.853885 0
M  V30 1845 C 182.09 1.86241 0.617142 0
M  V30 1846 O 181.215 1.5834 1.47503 0
M  V30 1847 C 181.81 3.01599 -1.5435 0
M  V30 1848 C 180.369 3.51467 -1.34714 0
M  V30 1849 C 179.516 2.26648 -1.59769 0
M  V30 1850 H 182.467 0.970226 -1.25588 0
M  V30 1851 H 182.488 3.67709 -0.978267 0
M  V30 1852 H 182 2.86856 -2.6141 0
M  V30 1853 H 180.101 3.71408 -0.297838 0
M  V30 1854 H 180.214 4.314 -2.08401 0
M  V30 1855 H 178.578 2.33385 -1.01998 0
M  V30 1856 H 179.361 2.14467 -2.68065 0
M  V30 1857 N 181.806 0.884767 1.30421 0
M  V30 1858 C 182.716 0.355398 2.31892 0
M  V30 1859 C 183.732 -0.542261 1.65335 0
M  V30 1860 O 184.908 -0.435432 1.96637 0
M  V30 1861 C 181.973 -0.421661 3.44126 0
M  V30 1862 C 181.034 0.505727 4.26311 0
M  V30 1863 C 180.267 -0.234343 5.33185 0
M  V30 1864 O 180.49 -1.46045 5.51386 0
M  V30 1865 O 179.424 0.415443 6.00465 0
M  V30 1866 H 183.25 1.19685 2.79122 0
M  V30 1867 H 180.835 0.648596 1.34587 0
M  V30 1868 H 182.717 -0.861641 4.12497 0
M  V30 1869 H 181.392 -1.23942 2.99032 0
M  V30 1870 H 180.299 0.994513 3.60639 0
M  V30 1871 H 181.632 1.28948 4.75009 0
M  V30 1872 N 183.284 -1.43765 0.645699 0
M  V30 1873 C 184.512 -2.06253 0.163556 0
M  V30 1874 C 184.927 -1.48352 -1.16778 0
M  V30 1875 O 184.284 -0.611932 -1.71935 0
M  V30 1876 C 184.335 -3.61453 0.0583186 0
M  V30 1877 O 184.056 -4.172 1.33702 0
M  V30 1878 C 185.557 -4.41002 -0.450795 0
M  V30 1879 H 182.777 -0.665413 0.0864077 0
M  V30 1880 H 185.321 -1.84396 0.884222 0
M  V30 1881 H 183.476 -3.82522 -0.612865 0
M  V30 1882 H 183.89 -5.10791 1.19131 0
M  V30 1883 H 185.364 -5.49966 -0.473403 0
M  V30 1884 H 185.841 -4.13488 -1.48068 0
M  V30 1885 H 186.447 -4.24886 0.187637 0
M  V30 1886 N 184.763 -0.387143 -1.52771 0
M  V30 1887 C 185.991 0.195869 -2.05971 0
M  V30 1888 C 186.406 1.40691 -1.25903 0
M  V30 1889 O 185.763 1.79931 -0.305134 0
M  V30 1890 C 185.814 0.56812 -3.57008 0
M  V30 1891 O 185.535 -0.594803 -4.34043 0
M  V30 1892 C 187.036 1.20723 -4.26545 0
M  V30 1893 H 184.256 0.0300578 -0.670326 0
M  V30 1894 H 186.8 -0.551749 -1.96916 0
M  V30 1895 H 184.955 1.26564 -3.66143 0
M  V30 1896 H 185.369 -0.289322 -5.23701 0
M  V30 1897 H 186.843 1.41807 -5.33474 0
M  V30 1898 H 187.32 2.17395 -3.81623 0
M  V30 1899 H 187.926 0.550535 -4.21722 0
M  V30 1900 N 186.241 1.57166 -0.116904 0
M  V30 1901 C 187.49 1.94298 0.541407 0
M  V30 1902 C 187.803 1.00236 1.67964 0
M  V30 1903 O 189.009 1.26826 2.40057 0
M  V30 1904 C 187.465 3.45306 1.01449 0
M  V30 1905 C 187.073 4.47899 -0.0951738 0
M  V30 1906 C 188.817 3.91361 1.6443 0
M  V30 1907 C 186.724 5.90083 0.394491 0
M  V30 1908 H 185.654 0.725308 0.206019 0
M  V30 1909 H 188.305 1.82446 -0.196419 0
M  V30 1910 H 186.687 3.52385 1.80667 0
M  V30 1911 H 187.861 4.52486 -0.871374 0
M  V30 1912 H 186.176 4.11583 -0.631505 0
M  V30 1913 H 188.773 4.95004 2.02176 0
M  V30 1914 H 189.116 3.3122 2.52189 0
M  V30 1915 H 189.649 3.87073 0.917559 0
M  V30 1916 H 186.388 6.53974 -0.447004 0
M  V30 1917 H 185.908 5.88921 1.13722 0
M  V30 1918 H 187.587 6.41307 0.856399 0
M  V30 1919 N 187.719 -0.156864 1.56817 0
M  V30 1920 C 188.682 -1.17781 1.96622 0
M  V30 1921 C 189.682 -1.36401 0.851555 0
M  V30 1922 O 190.872 -1.33561 1.11836 0
M  V30 1923 C 188.004 -2.54008 2.27361 0
M  V30 1924 H 189.197 -0.836564 2.87996 0
M  V30 1925 H 186.75 -0.39985 1.51099 0
M  V30 1926 H 187.485 -2.9312 1.38748 0
M  V30 1927 H 187.27 -2.41856 3.08623 0
M  V30 1928 H 188.76 -3.27558 2.59029 0
M  V30 1929 N 189.197 -1.51736 -0.425897 0
M  V30 1930 C 190.474 -1.55519 -1.1863 0
M  V30 1931 C 190.854 -0.326219 -2.08564 0
M  V30 1932 O 190.202 0.688012 -2.17896 0
M  V30 1933 C 190.412 -2.87521 -1.9782 0
M  V30 1934 C 191.76 -3.39899 -2.54468 0
M  V30 1935 O 192.784 -2.89148 -2.08019 0
M  V30 1936 O 191.643 -4.2848 -3.39215 0
M  V30 1937 H 188.737 -0.625739 -0.540721 0
M  V30 1938 H 191.283 -1.64055 -0.434038 0
M  V30 1939 H 190.055 -3.68422 -1.31836 0
M  V30 1940 H 189.678 -2.822 -2.80088 0
M  V30 1941 N 190.675 0.682077 -1.42076 0
M  V30 1942 C 191.608 1.80666 -1.3941 0
M  V30 1943 C 192.586 1.60518 -0.25939 0
M  V30 1944 O 193.77 1.83088 -0.448456 0
M  V30 1945 C 190.897 3.17556 -1.17796 0
M  V30 1946 C 189.943 3.56468 -2.34164 0
M  V30 1947 S 190.776 3.59729 -3.96681 0
M  V30 1948 C 191.932 4.99323 -3.77395 0
M  V30 1949 H 192.165 1.82652 -2.34575 0
M  V30 1950 H 189.698 0.852062 -1.2876 0
M  V30 1951 H 191.656 3.96575 -1.06012 0
M  V30 1952 H 190.317 3.13164 -0.242279 0
M  V30 1953 H 189.51 4.5595 -2.1477 0
M  V30 1954 H 189.112 2.84792 -2.42425 0
M  V30 1955 H 191.404 5.87202 -3.37935 0
M  V30 1956 H 192.347 5.23763 -4.76527 0
M  V30 1957 H 192.755 4.71498 -3.10403 0
M  V30 1958 N 192.153 1.28127 0.917671 0
M  V30 1959 C 193.1 1.11717 2.0196 0
M  V30 1960 C 194.07 0.0153929 1.66093 0
M  V30 1961 O 195.255 0.179596 1.89953 0
M  V30 1962 C 192.395 0.780927 3.36148 0
M  V30 1963 C 191.508 1.96135 3.84909 0
M  V30 1964 C 190.643 1.56609 5.0759 0
M  V30 1965 C 189.682 2.71339 5.48673 0
M  V30 1966 N 188.819 2.32332 6.62545 0
M  V30 1967 H 193.659 2.06003 2.15329 0
M  V30 1968 H 191.196 1.02535 1.05475 0
M  V30 1969 H 193.154 0.56675 4.13333 0
M  V30 1970 H 191.784 -0.124998 3.22558 0
M  V30 1971 H 190.836 2.28777 3.03916 0
M  V30 1972 H 192.148 2.82165 4.1132 0
M  V30 1973 H 191.302 1.31374 5.92305 0
M  V30 1974 H 190.041 0.677014 4.82978 0
M  V30 1975 H 189.046 2.97276 4.62501 0
M  V30 1976 H 190.271 3.60882 5.75274 0
M  V30 1977 H 188.217 1.45889 6.39572 0
M  V30 1978 H 188.134 3.11899 6.88662 0
M  V30 1979 H 189.402 2.10371 7.50576 0
M  V30 1980 N 193.631 -1.12557 1.10312 0
M  V30 1981 C 194.541 -2.21841 0.763142 0
M  V30 1982 C 195.557 -1.72354 -0.238801 0
M  V30 1983 O 196.733 -2.01249 -0.0778746 0
M  V30 1984 C 193.798 -3.46131 0.198632 0
M  V30 1985 C 192.859 -4.10464 1.25769 0
M  V30 1986 C 192.092 -5.28821 0.72002 0
M  V30 1987 O 192.315 -5.6859 -0.453993 0
M  V30 1988 O 191.249 -5.83437 1.47935 0
M  V30 1989 H 195.075 -2.53312 1.67532 0
M  V30 1990 H 192.66 -1.20867 0.878157 0
M  V30 1991 H 194.542 -4.2125 -0.112401 0
M  V30 1992 H 193.217 -3.16338 -0.686419 0
M  V30 1993 H 192.124 -3.3713 1.62156 0
M  V30 1994 H 193.457 -4.44408 2.11571 0
M  V30 1995 N 195.109 -0.891671 -1.2995 0
M  V30 1996 C 196.355 -0.514261 -1.96171 0
M  V30 1997 C 196.688 0.935506 -1.70182 0
M  V30 1998 O 195.963 1.66204 -1.01028 0
M  V30 1999 C 196.246 -0.797719 -3.51153 0
M  V30 2000 C 196.099 -2.2986 -3.86632 0
M  V30 2001 C 197.418 -0.278749 -4.39216 0
M  V30 2002 H 194.537 -0.188314 -0.712535 0
M  V30 2003 H 197.179 -1.11689 -1.53706 0
M  V30 2004 H 195.329 -0.284826 -3.87455 0
M  V30 2005 H 197.001 -2.88042 -3.60319 0
M  V30 2006 H 195.244 -2.76257 -3.34462 0
M  V30 2007 H 195.915 -2.44753 -4.94773 0
M  V30 2008 H 198.391 -0.717825 -4.09862 0
M  V30 2009 H 197.267 -0.506353 -5.46559 0
M  V30 2010 H 197.528 0.820266 -4.34424 0
M  V30 2011 N 196.587 1.43421 -0.653314 0
M  V30 2012 C 197.517 2.33487 0.0246656 0
M  V30 2013 C 198.498 1.49475 0.811863 0
M  V30 2014 O 199.683 1.78139 0.773322 0
M  V30 2015 C 196.813 3.32841 0.99166 0
M  V30 2016 C 195.767 4.26842 0.314568 0
M  V30 2017 C 195.093 5.16236 1.39302 0
M  V30 2018 C 196.393 5.16243 -0.793095 0
M  V30 2019 H 198.087 2.90427 -0.727481 0
M  V30 2020 H 195.633 1.39649 -0.351287 0
M  V30 2021 H 197.586 3.94747 1.47487 0
M  V30 2022 H 196.31 2.74158 1.77497 0
M  V30 2023 H 194.969 3.663 -0.148199 0
M  V30 2024 H 194.617 4.53891 2.16776 0
M  V30 2025 H 194.317 5.79948 0.945223 0
M  V30 2026 H 195.841 5.81015 1.87759 0
M  V30 2027 H 197.255 5.71958 -0.392039 0
M  V30 2028 H 195.652 5.88676 -1.16536 0
M  V30 2029 H 196.722 4.55927 -1.65103 0
M  V30 2030 N 198.065 0.39524 1.52563 0
M  V30 2031 C 199.313 -0.184678 2.01254 0
M  V30 2032 C 199.634 -1.46822 1.28329 0
M  V30 2033 O 198.904 -1.91666 0.405094 0
M  V30 2034 H 197.484 -0.0712355 0.743596 0
M  V30 2035 H 200.146 0.528293 1.87603 0
M  V30 2036 H 199.242 -0.390681 3.09645 0
M  V30 2037 N 199.544 -1.57102 0.125237 0
M  V30 2038 C 200.79 -1.95697 -0.532035 0
M  V30 2039 C 201.123 -1.009 -1.6593 0
M  V30 2040 O 200.398 -0.047347 -1.94442 0
M  V30 2041 C 200.681 -3.44181 -1.05884 0
M  V30 2042 C 200.534 -4.49752 0.0654392 0
M  V30 2043 C 201.853 -3.94655 -1.9477 0
M  V30 2044 H 198.972 -0.711571 -0.191925 0
M  V30 2045 H 201.614 -1.88923 0.20206 0
M  V30 2046 H 199.764 -3.50085 -1.68442 0
M  V30 2047 H 201.436 -4.55943 0.700982 0
M  V30 2048 H 199.679 -4.27653 0.727709 0
M  V30 2049 H 200.35 -5.50924 -0.344505 0
M  V30 2050 H 202.826 -3.91094 -1.42074 0
M  V30 2051 H 201.702 -4.99057 -2.28546 0
M  V30 2052 H 201.963 -3.35718 -2.87656 0
M  V30 2053 N 201.022 0.148545 -1.56898 0
M  V30 2054 C 201.932 1.20293 -2.01412 0
M  V30 2055 C 202.948 1.47107 -0.929273 0
M  V30 2056 O 204.124 1.58807 -1.23863 0
M  V30 2057 C 201.189 2.51682 -2.38447 0
M  V30 2058 C 200.25 2.32529 -3.60872 0
M  V30 2059 C 199.483 3.57653 -3.96132 0
M  V30 2060 O 199.706 4.63771 -3.32073 0
M  V30 2061 O 198.64 3.50408 -4.89385 0
M  V30 2062 H 202.466 0.855025 -2.91416 0
M  V30 2063 H 200.051 0.357151 -1.45068 0
M  V30 2064 H 201.933 3.29147 -2.63135 0
M  V30 2065 H 200.608 2.86006 -1.51599 0
M  V30 2066 H 199.515 1.53019 -3.41373 0
M  V30 2067 H 200.848 2.03121 -4.48333 0
M  V30 2068 O 202.539 1.58815 0.29326 0
M  V30 2069 H 203.23 1.69371 0.939843 0
M  V30 END ATOM
M  V30 BEGIN BOND
M  V30 END BOND
M  V30 END CTAB
M  END
$$$$
