drugbank_target|Q06033 Inter-alpha-trypsin inhibitor heavy chain H3 (DB01593; DB14487; DB14533; DB14548)
 OpenBabel12092121083D

  0  0  0     0  0            999 V3000
M  V30 BEGIN CTAB
M  V30 COUNTS 13978 14129 0 0 0
M  V30 BEGIN ATOM
M  V30 1 H -0.908 1.98254 -0.117106 0
M  V30 2 N 0 1.576 0 0
M  V30 3 C 0.933 2.03868 1.02534 0
M  V30 4 C 1.911 0.928543 1.3348 0
M  V30 5 O 3.095 1.19667 1.45644 0
M  V30 6 C 0.222 2.43627 2.35294 0
M  V30 7 C -0.732 3.65373 2.2001 0
M  V30 8 S 0.101 5.13292 1.52614 0
M  V30 9 C 1.257 5.56322 2.86805 0
M  V30 10 H 1.49 2.90518 0.631377 0
M  V30 11 H -0.977 1.52953 0.210867 0
M  V30 12 H 0.981 2.67203 3.11629 0
M  V30 13 H -0.358 1.57376 2.7183 0
M  V30 14 H -1.165 3.90944 3.18086 0
M  V30 15 H -1.563 3.418 1.51819 0
M  V30 16 H 0.729 5.58782 3.83104 0
M  V30 17 H 1.672 6.56266 2.65933 0
M  V30 18 H 2.08 4.83886 2.90714 0
M  V30 19 N 1.4781 -0.272755 1.55222 0
M  V30 20 C 2.4411 -1.32041 1.87344 0
M  V30 21 C 3.4411 -1.42342 0.74803 0
M  V30 22 O 4.6311 -1.41488 1.0162 0
M  V30 23 C 1.7631 -2.70173 2.07893 0
M  V30 24 H 2.9561 -1.04789 2.80997 0
M  V30 25 H 0.5091 -0.51083 1.47717 0
M  V30 26 H 1.2441 -3.02605 1.16622 0
M  V30 27 H 1.0291 -2.64082 2.89833 0
M  V30 28 H 2.5191 -3.45869 2.34017 0
M  V30 29 N 2.9562 -1.48159 -0.537278 0
M  V30 30 C 4.2032 -1.55804 -1.29349 0
M  V30 31 C 4.5312 -0.228802 -1.9315 0
M  V30 32 O 3.7862 0.780242 -1.79473 0
M  V30 33 C 4.0852 -2.63956 -2.40961 0
M  V30 34 C 3.7512 -4.0662 -1.94861 0
M  V30 35 C 2.4132 -4.45452 -1.82006 0
M  V30 36 C 4.7652 -4.96055 -1.59933 0
M  V30 37 C 2.0932 -5.71531 -1.32547 0
M  V30 38 C 4.4452 -6.22617 -1.11939 0
M  V30 39 C 3.1092 -6.60312 -0.976951 0
M  V30 40 H 2.3792 -0.570129 -0.473322 0
M  V30 41 H 5.0262 -1.81845 -0.600372 0
M  V30 42 H 3.3312 -2.31747 -3.15912 0
M  V30 43 H 5.0282 -2.67089 -2.99107 0
M  V30 44 H 1.6182 -3.75949 -2.05815 0
M  V30 45 H 5.8022 -4.66738 -1.68728 0
M  V30 46 H 1.0582 -5.99468 -1.202 0
M  V30 47 H 5.2322 -6.91318 -0.839811 0
M  V30 48 H 2.8592 -7.57895 -0.591501 0
M  V30 49 N 4.4343 0.785586 -1.36625 0
M  V30 50 C 5.3973 1.87999 -1.31107 0
M  V30 51 C 6.3973 1.59316 -0.217959 0
M  V30 52 O 7.5873 1.67656 -0.472977 0
M  V30 53 C 4.7193 3.24861 -1.03334 0
M  V30 54 H 5.9123 1.94307 -2.2844 0
M  V30 55 H 3.4653 0.983813 -1.21453 0
M  V30 56 H 4.2003 3.24235 -0.0647432 0
M  V30 57 H 3.9853 3.4707 -1.82441 0
M  V30 58 H 5.4753 4.04929 -1.02088 0
M  V30 59 N 5.9124 1.20967 1.01018 0
M  V30 60 C 7.1584 1.0353 1.7508 0
M  V30 61 C 7.5134 -0.42734 1.87594 0
M  V30 62 O 6.8064 -1.31298 1.3954 0
M  V30 63 C 7.0004 1.65997 3.16512 0
M  V30 64 C 6.8294 3.18184 3.17788 0
M  V30 65 C 5.5994 3.87198 3.24662 0
M  V30 66 C 7.7974 4.15334 3.03319 0
M  V30 67 N 5.7794 5.26618 3.15509 0
M  V30 68 C 7.1504 5.41472 3.02007 0
M  V30 69 C 9.2054 4.06449 2.87583 0
M  V30 70 C 7.9084 6.5975 2.86571 0
M  V30 71 C 9.9344 5.24357 2.73503 0
M  V30 72 C 9.2964 6.49404 2.72862 0
M  V30 73 H 5.3954 0.433137 0.651089 0
M  V30 74 H 7.9794 1.5324 1.20107 0
M  V30 75 H 6.1504 1.18863 3.69765 0
M  V30 76 H 7.8824 1.41816 3.79039 0
M  V30 77 H 4.6374 3.38093 3.31648 0
M  V30 78 H 5.0614 5.99626 3.14289 0
M  V30 79 H 9.7034 3.10573 2.86887 0
M  V30 80 H 7.4214 7.55792 2.86015 0
M  V30 81 H 11.0074 5.19299 2.62334 0
M  V30 82 H 9.8874 7.39105 2.62093 0
M  V30 83 N 7.3905 -1.2043 1.01659 0
M  V30 84 C 8.6365 -1.90356 0.716674 0
M  V30 85 C 8.9915 -1.77367 -0.745557 0
M  V30 86 O 8.2845 -1.1471 -1.53467 0
M  V30 87 C 8.4785 -3.40464 1.08714 0
M  V30 88 C 8.3075 -3.6806 2.58384 0
M  V30 89 C 7.0775 -3.86775 3.25167 0
M  V30 90 C 9.2755 -3.70623 3.56572 0
M  V30 91 N 7.2575 -4.01889 4.64067 0
M  V30 92 C 8.6285 -3.91161 4.81034 0
M  V30 93 C 10.6835 -3.53586 3.50544 0
M  V30 94 C 9.3865 -3.96428 6.00198 0
M  V30 95 C 11.4125 -3.60125 4.6911 0
M  V30 96 C 10.7745 -3.81135 5.92381 0
M  V30 97 H 6.8735 -0.716226 0.313918 0
M  V30 98 H 9.4575 -1.44815 1.30141 0
M  V30 99 H 7.6285 -3.84757 0.530745 0
M  V30 100 H 9.3605 -3.97863 0.740763 0
M  V30 101 H 6.1155 -3.85156 2.75594 0
M  V30 102 H 6.5395 -4.13323 5.36184 0
M  V30 103 H 11.1815 -3.36308 2.56235 0
M  V30 104 H 8.8995 -4.12502 6.94887 0
M  V30 105 H 12.4855 -3.4825 4.66062 0
M  V30 106 H 11.3655 -3.86054 6.82592 0
M  V30 107 N 8.8686 -0.792821 -1.36206 0
M  V30 108 C 10.2796 -0.429513 -1.81692 0
M  V30 109 C 10.6306 1.04695 -1.65932 0
M  V30 110 O 9.7556 1.81256 -1.18218 0
M  V30 111 C 10.3506 -0.772831 -3.29868 0
M  V30 112 C 8.9096 -0.462307 -3.7355 0
M  V30 113 C 8.0566 -1.00569 -2.5842 0
M  V30 114 H 11.0076 -0.985672 -1.24379 0
M  V30 115 H 11.0286 -0.0651928 -3.80444 0
M  V30 116 H 10.5406 -1.84747 -3.41307 0
M  V30 117 H 8.6416 0.604158 -3.67669 0
M  V30 118 H 8.7546 -0.985299 -4.68859 0
M  V30 119 H 7.1186 -0.428734 -2.51066 0
M  V30 120 H 7.9016 -2.08616 -2.72643 0
M  V30 121 N 10.3467 1.47872 -0.545128 0
M  V30 122 C 11.5867 2.04391 -0.0187854 0
M  V30 123 C 11.9507 1.41162 1.30144 0
M  V30 124 O 13.1517 1.88656 1.91474 0
M  V30 125 C 11.4227 3.57299 0.0850867 0
M  V30 126 S 12.9817 4.35221 0.559302 0
M  V30 127 H 9.7997 0.710737 -0.0193301 0
M  V30 128 H 12.4017 1.81395 -0.729125 0
M  V30 129 H 11.1057 4.00847 -0.880351 0
M  V30 130 H 10.6367 3.84773 0.819348 0
M  V30 131 H 12.6517 4.61571 1.82118 0
M  V30 132 N 11.8248 0.280983 1.55075 0
M  V30 133 C 12.7548 -0.597469 2.25727 0
M  V30 134 C 13.7358 -1.15417 1.24952 0
M  V30 135 O 14.9208 -1.18722 1.53684 0
M  V30 136 C 12.0508 -1.7789 2.98283 0
M  V30 137 C 11.0048 -1.35347 4.06036 0
M  V30 138 C 10.3308 -2.61846 4.66198 0
M  V30 139 C 11.6308 -0.499354 5.19907 0
M  V30 140 H 13.3248 -0.00824265 2.99399 0
M  V30 141 H 10.8708 -0.0025244 1.44 0
M  V30 142 H 12.8238 -2.39937 3.46422 0
M  V30 143 H 11.5478 -2.39405 2.22155 0
M  V30 144 H 10.2068 -0.756156 3.58717 0
M  V30 145 H 9.8548 -3.21632 3.86732 0
M  V30 146 H 9.5548 -2.3409 5.38958 0
M  V30 147 H 11.0788 -3.24732 5.1709 0
M  V30 148 H 12.4928 -1.02498 5.64063 0
M  V30 149 H 10.8898 -0.316424 5.99265 0
M  V30 150 H 11.9598 0.480459 4.82514 0
M  V30 151 N 13.3029 -1.57598 0.00835791 0
M  V30 152 C 14.5519 -1.90107 -0.673968 0
M  V30 153 C 14.8649 -0.884275 -1.7447 0
M  V30 154 O 16.0709 -1.09987 -2.48224 0
M  V30 155 C 14.5269 -3.37497 -1.24995 0
M  V30 156 C 14.1349 -4.47491 -0.2136 0
M  V30 157 C 15.8789 -3.79104 -1.90999 0
M  V30 158 C 13.7859 -5.85963 -0.80005 0
M  V30 159 H 12.7159 -0.709393 -0.255495 0
M  V30 160 H 15.3669 -1.83365 0.0702693 0
M  V30 161 H 13.7489 -3.39102 -2.04513 0
M  V30 162 H 14.9229 -4.57414 0.557596 0
M  V30 163 H 13.2379 -4.14956 0.346474 0
M  V30 164 H 15.8349 -4.79901 -2.35795 0
M  V30 165 H 16.1779 -3.1306 -2.74407 0
M  V30 166 H 16.7109 -3.79833 -1.18203 0
M  V30 167 H 13.4499 -6.555 -0.00456708 0
M  V30 168 H 12.9699 -5.79687 -1.54021 0
M  V30 169 H 14.6489 -6.33884 -1.29615 0
M  V30 170 N 14.781 0.264519 -1.55364 0
M  V30 171 C 15.711 1.33121 -1.91836 0
M  V30 172 C 16.692 1.51101 -0.781192 0
M  V30 173 O 17.877 1.64003 -1.04003 0
M  V30 174 C 15.007 2.68921 -2.19769 0
M  V30 175 C 13.961 2.65661 -3.35571 0
M  V30 176 C 13.287 4.05093 -3.49004 0
M  V30 177 C 14.587 2.24187 -4.71739 0
M  V30 178 H 16.281 1.02844 -2.81182 0
M  V30 179 H 13.827 0.493286 -1.35287 0
M  V30 180 H 15.78 3.43663 -2.43872 0
M  V30 181 H 14.504 3.00799 -1.27231 0
M  V30 182 H 13.163 1.93377 -3.1145 0
M  V30 183 H 12.811 4.34206 -2.53917 0
M  V30 184 H 12.511 4.03804 -4.26868 0
M  V30 185 H 14.035 4.81561 -3.75408 0
M  V30 186 H 15.449 2.88654 -4.9533 0
M  V30 187 H 13.846 2.34044 -5.52579 0
M  V30 188 H 14.916 1.19327 -4.69988 0
M  V30 189 N 16.2591 1.48442 0.529413 0
M  V30 190 C 17.2221 1.62524 1.61612 0
M  V30 191 C 18.2221 0.498509 1.52877 0
M  V30 192 O 19.4121 0.76431 1.56537 0
M  V30 193 C 16.5441 1.59597 3.01233 0
M  V30 194 H 17.7371 2.59423 1.50465 0
M  V30 195 H 15.2901 1.37047 0.751514 0
M  V30 196 H 16.0251 0.641781 3.17886 0
M  V30 197 H 15.8101 2.41397 3.08982 0
M  V30 198 H 17.3001 1.72646 3.80241 0
M  V30 199 N 17.7372 -0.778329 1.37039 0
M  V30 200 C 18.6672 -1.90546 1.34962 0
M  V30 201 C 19.6482 -1.68681 0.219274 0
M  V30 202 O 20.8332 -1.89634 0.418624 0
M  V30 203 C 17.9632 -3.27734 1.14925 0
M  V30 204 C 16.9172 -3.64147 2.24902 0
M  V30 205 C 16.2432 -4.99806 1.89996 0
M  V30 206 C 17.5432 -3.71579 3.67051 0
M  V30 207 H 19.2372 -1.92541 2.29277 0
M  V30 208 H 16.7832 -0.924948 1.10366 0
M  V30 209 H 18.7362 -4.06215 1.12104 0
M  V30 210 H 17.4602 -3.26154 0.170631 0
M  V30 211 H 16.1192 -2.8797 2.26868 0
M  V30 212 H 15.7672 -4.94759 0.906796 0
M  V30 213 H 15.4672 -5.25139 2.63634 0
M  V30 214 H 16.9912 -5.80694 1.88749 0
M  V30 215 H 18.4052 -4.40227 3.67251 0
M  V30 216 H 16.8022 -4.08405 4.39688 0
M  V30 217 H 17.8722 -2.72404 4.01154 0
M  V30 218 N 19.2153 -1.21501 -1.00376 0
M  V30 219 C 20.1453 -0.999478 -2.11028 0
M  V30 220 C 21.1263 0.0759671 -1.6993 0
M  V30 221 O 22.3113 -0.0841106 -1.94018 0
M  V30 222 C 19.4413 -0.564709 -3.42678 0
M  V30 223 C 18.3953 -1.58486 -3.97576 0
M  V30 224 C 17.7213 -1.00628 -5.25146 0
M  V30 225 C 19.0213 -2.97204 -4.29496 0
M  V30 226 H 20.7153 -1.92495 -2.29317 0
M  V30 227 H 18.2613 -0.92693 -1.102 0
M  V30 228 H 20.2143 -0.401091 -4.19487 0
M  V30 229 H 18.9383 0.396411 -3.24185 0
M  V30 230 H 17.5973 -1.73606 -3.22888 0
M  V30 231 H 17.2453 -0.0368439 -5.02987 0
M  V30 232 H 16.9453 -1.68771 -5.62841 0
M  V30 233 H 18.4693 -0.854015 -6.04598 0
M  V30 234 H 19.8833 -2.8552 -4.97143 0
M  V30 235 H 18.2803 -3.62372 -4.78338 0
M  V30 236 H 19.3503 -3.47956 -3.3772 0
M  V30 237 N 20.6934 1.19889 -1.02296 0
M  V30 238 C 21.9184 1.9393 -0.735237 0
M  V30 239 C 22.3434 1.74639 0.698782 0
M  V30 240 O 21.7014 1.04481 1.48167 0
M  V30 241 C 21.7494 3.43916 -1.08417 0
M  V30 242 O 20.8534 4.11917 -0.199446 0
M  V30 243 H 20.1944 0.605645 -0.272196 0
M  V30 244 H 22.7244 1.52137 -1.36804 0
M  V30 245 H 22.7344 3.9456 -1.03856 0
M  V30 246 H 21.4094 3.5728 -2.12894 0
M  V30 247 H 19.9864 3.71666 -0.303136 0
M  V30 248 N 22.1715 0.800033 1.35784 0
M  V30 249 C 23.3965 0.388511 2.03729 0
M  V30 250 C 23.8215 -0.990481 1.5991 0
M  V30 251 O 23.1795 -1.64013 0.772612 0
M  V30 252 C 23.2275 0.4726 3.5749 0
M  V30 253 O 22.3315 -0.51646 4.09153 0
M  V30 254 H 21.6725 0.163271 0.643614 0
M  V30 255 H 24.2025 1.0841 1.73518 0
M  V30 256 H 24.2125 0.34003 4.06581 0
M  V30 257 H 22.8875 1.47848 3.88734 0
M  V30 258 H 21.4645 -0.344673 3.71304 0
M  V30 259 N 23.6496 -1.47581 0.552962 0
M  V30 260 C 24.5796 -2.32762 -0.185451 0
M  V30 261 C 25.5606 -1.43527 -0.912905 0
M  V30 262 O 26.7456 -1.72388 -0.894201 0
M  V30 263 C 23.8756 -3.25219 -1.21859 0
M  V30 264 C 22.8296 -4.23661 -0.607864 0
M  V30 265 C 22.1556 -5.05413 -1.74533 0
M  V30 266 C 23.4556 -5.20481 0.435582 0
M  V30 267 H 25.1496 -2.94749 0.525684 0
M  V30 268 H 22.6956 -1.41738 0.254251 0
M  V30 269 H 24.6486 -3.8365 -1.7433 0
M  V30 270 H 23.3726 -2.61279 -1.95961 0
M  V30 271 H 22.0316 -3.66451 -0.104489 0
M  V30 272 H 21.6796 -4.3788 -2.47529 0
M  V30 273 H 21.3796 -5.72059 -1.34249 0
M  V30 274 H 22.9036 -5.66701 -2.27338 0
M  V30 275 H 24.3176 -5.733 -0.00290157 0
M  V30 276 H 22.7146 -5.95305 0.757067 0
M  V30 277 H 23.7846 -4.66217 1.33303 0
M  V30 278 N 25.1277 -0.289203 -1.54924 0
M  V30 279 C 26.0907 0.579144 -2.21762 0
M  V30 280 C 27.0907 1.07047 -1.1999 0
M  V30 281 O 28.2807 0.968384 -1.44803 0
M  V30 282 C 25.4127 1.80055 -2.8947 0
M  V30 283 H 26.6057 -0.00464908 -2.999 0
M  V30 284 H 24.1587 -0.0399306 -1.56249 0
M  V30 285 H 24.8937 2.42449 -2.15381 0
M  V30 286 H 24.6787 1.45602 -3.64064 0
M  V30 287 H 26.1687 2.41773 -3.40493 0
M  V30 288 N 26.6058 1.57591 -0.0167156 0
M  V30 289 C 27.5688 2.08393 0.954204 0
M  V30 290 C 28.5688 0.996531 1.26198 0
M  V30 291 O 29.7588 1.25858 1.20438 0
M  V30 292 C 26.8908 2.5394 2.27436 0
M  V30 293 H 28.0838 2.95455 0.514451 0
M  V30 294 H 25.6368 1.54582 0.231089 0
M  V30 295 H 26.3718 1.70171 2.76066 0
M  V30 296 H 26.1568 3.33371 2.06412 0
M  V30 297 H 27.6468 2.93512 2.97053 0
M  V30 298 N 28.0839 -0.256276 1.55502 0
M  V30 299 C 29.3089 -1.00766 1.81276 0
M  V30 300 C 29.7339 -1.78524 0.59252 0
M  V30 301 O 29.0919 -1.75413 -0.45827 0
M  V30 302 C 29.1399 -1.92869 3.04687 0
M  V30 303 O 28.2439 -3.019 2.80945 0
M  V30 304 H 27.5849 -0.287224 0.598664 0
M  V30 305 H 30.1149 -0.280109 2.02674 0
M  V30 306 H 30.1249 -2.34511 3.33869 0
M  V30 307 H 28.7999 -1.35689 3.93143 0
M  V30 308 H 27.3769 -2.64454 2.62904 0
M  V30 309 N 29.562 -1.4872 -0.521534 0
M  V30 310 C 30.81 -1.56857 -1.27437 0
M  V30 311 C 31.131 -0.247982 -1.93417 0
M  V30 312 O 30.401 0.731151 -1.81744 0
M  V30 313 H 28.981 -0.577885 -0.473347 0
M  V30 314 H 31.643 -1.85233 -0.606205 0
M  V30 315 H 30.739 -2.35402 -2.0492 0
M  V30 316 N 31.0401 0.771051 -1.3745 0
M  V30 317 C 32.2871 1.52963 -1.32697 0
M  V30 318 C 32.6151 1.94299 0.0883274 0
M  V30 319 O 31.8701 1.64397 1.0617 0
M  V30 320 C 32.1691 2.80676 -2.2126 0
M  V30 321 C 31.8351 2.58389 -3.69521 0
M  V30 322 C 30.4971 2.52019 -4.09927 0
M  V30 323 C 32.8491 2.38469 -4.63446 0
M  V30 324 C 30.1771 2.23721 -5.42371 0
M  V30 325 C 32.5291 2.11694 -5.96128 0
M  V30 326 C 31.1931 2.03769 -6.35637 0
M  V30 327 H 30.4631 0.559732 -0.485573 0
M  V30 328 H 33.1101 0.888083 -1.69662 0
M  V30 329 H 31.4151 3.49392 -1.77291 0
M  V30 330 H 33.1121 3.38557 -2.14895 0
M  V30 331 H 29.7021 2.6421 -3.37478 0
M  V30 332 H 33.8861 2.4238 -4.33089 0
M  V30 333 H 29.1421 2.16081 -5.71943 0
M  V30 334 H 33.3161 1.9528 -6.6846 0
M  V30 335 H 30.9431 1.81606 -7.38189 0
M  V30 336 N 32.5182 1.22032 0.997298 0
M  V30 337 C 33.9292 1.0397 1.55071 0
M  V30 338 C 34.2802 -0.398192 1.92117 0
M  V30 339 O 33.4052 -1.28254 1.74298 0
M  V30 340 C 34.0002 1.88109 2.81781 0
M  V30 341 C 32.5592 1.74357 3.33581 0
M  V30 342 C 31.7062 1.84846 2.06706 0
M  V30 343 H 34.6572 1.35941 0.818883 0
M  V30 344 H 34.6782 1.39589 3.53971 0
M  V30 345 H 34.1902 2.92754 2.54787 0
M  V30 346 H 32.2912 0.72427 3.65493 0
M  V30 347 H 32.4042 2.56772 4.04481 0
M  V30 348 H 30.7682 1.28238 2.20062 0
M  V30 349 H 31.5512 2.91014 1.82114 0
M  V30 350 N 33.9963 -1.19345 1.0293 0
M  V30 351 C 35.4123 -1.41069 0.746446 0
M  V30 352 C 35.6123 -1.90078 -0.668776 0
M  V30 353 O 34.6683 -2.0778 -1.4347 0
M  V30 354 C 35.9813 -2.42141 1.78292 0
M  V30 355 C 37.5293 -2.55887 1.80252 0
M  V30 356 C 38.0043 -3.60214 2.8286 0
M  V30 357 N 39.4953 -3.67711 2.81679 0
M  V30 358 C 40.2303 -4.48128 3.57727 0
M  V30 359 N 39.7263 -5.32248 4.43491 0
M  V30 360 N 41.5193 -4.42782 3.46267 0
M  V30 361 H 33.6703 -0.858536 1.94275 0
M  V30 362 H 35.9333 -0.439541 0.839945 0
M  V30 363 H 35.6393 -2.13155 2.79746 0
M  V30 364 H 35.5133 -3.41323 1.60557 0
M  V30 365 H 37.9003 -2.84196 0.794757 0
M  V30 366 H 37.9813 -1.56858 2.02062 0
M  V30 367 H 37.6253 -3.32647 3.83807 0
M  V30 368 H 37.5553 -4.58895 2.58307 0
M  V30 369 H 40.0463 -3.07634 2.19476 0
M  V30 370 H 40.3593 -5.90729 4.98256 0
M  V30 371 H 38.7043 -5.31707 4.47564 0
M  V30 372 H 41.8953 -3.76107 2.78677 0
M  V30 373 H 42.0683 -5.05215 4.05785 0
M  V30 374 N 35.4744 -0.807222 -1.35358 0
M  V30 375 C 36.6994 -0.399309 -2.0352 0
M  V30 376 C 37.1244 0.981986 -1.60433 0
M  V30 377 O 36.4824 1.63601 -0.781299 0
M  V30 378 C 36.5304 -0.491552 -3.57234 0
M  V30 379 O 35.6344 0.494754 -4.09421 0
M  V30 380 H 34.9754 -0.166682 -0.642739 0
M  V30 381 H 37.5054 -1.09328 -1.72941 0
M  V30 382 H 37.5154 -0.361588 -4.06395 0
M  V30 383 H 36.1904 -1.49907 -3.87944 0
M  V30 384 H 34.7674 0.324977 -3.71481 0
M  V30 385 N 36.9525 1.47285 -0.560781 0
M  V30 386 C 38.3635 1.86258 -0.128343 0
M  V30 387 C 38.7145 1.46699 1.30284 0
M  V30 388 O 37.8395 0.871698 1.98067 0
M  V30 389 C 38.4345 3.38044 -0.22614 0
M  V30 390 C 36.9935 3.76096 0.151283 0
M  V30 391 C 36.1405 2.71335 -0.572084 0
M  V30 392 H 39.0915 1.38752 -0.770297 0
M  V30 393 H 39.1125 3.76441 0.554322 0
M  V30 394 H 38.6245 3.66806 -1.26788 0
M  V30 395 H 36.7255 3.52951 1.19399 0
M  V30 396 H 36.8385 4.78641 -0.209765 0
M  V30 397 H 35.2025 2.54696 -0.0147653 0
M  V30 398 H 35.9855 3.02938 -1.61504 0
M  V30 399 N 38.4306 0.297415 1.54768 0
M  V30 400 C 39.6776 -0.312913 2.00068 0
M  V30 401 C 40.0056 -1.54171 1.18582 0
M  V30 402 O 39.2606 -1.94108 0.249133 0
M  V30 403 C 39.5596 -0.717561 3.50123 0
M  V30 404 C 39.2256 0.409095 4.4904 0
M  V30 405 C 37.8876 0.718399 4.75807 0
M  V30 406 C 40.2396 1.16717 5.07963 0
M  V30 407 C 37.5676 1.78896 5.5876 0
M  V30 408 C 39.9196 2.22762 5.92081 0
M  V30 409 C 38.5836 2.54303 6.1716 0
M  V30 410 H 37.8536 -0.114503 0.7321 0
M  V30 411 H 40.5006 0.415767 1.86932 0
M  V30 412 H 38.8056 -1.52627 3.60849 0
M  V30 413 H 40.5026 -1.20091 3.82595 0
M  V30 414 H 37.0926 0.157918 4.28309 0
M  V30 415 H 41.2766 0.941466 4.87289 0
M  V30 416 H 36.5326 2.0381 5.7643 0
M  V30 417 H 40.7066 2.81962 6.36765 0
M  V30 418 H 38.3336 3.3739 6.81229 0
M  V30 419 N 39.9087 -1.5758 0.0250728 0
M  V30 420 C 41.3247 -1.56124 -0.331282 0
M  V30 421 C 41.5247 -1.03029 -1.73169 0
M  V30 422 O 40.5807 -0.675215 -2.43305 0
M  V30 423 C 41.8937 -3.00139 -0.183584 0
M  V30 424 C 43.4417 -3.11946 -0.256654 0
M  V30 425 C 43.9167 -4.57793 -0.137792 0
M  V30 426 N 45.4077 -4.6279 -0.194904 0
M  V30 427 C 46.1427 -5.7326 -0.126655 0
M  V30 428 N 45.6387 -6.928 -0.00755288 0
M  V30 429 N 47.4317 -5.61811 -0.180348 0
M  V30 430 H 39.5827 -1.90424 0.94087 0
M  V30 431 H 41.8457 -0.875761 0.362968 0
M  V30 432 H 41.5517 -3.4292 0.780927 0
M  V30 433 H 41.4257 -3.64899 -0.955448 0
M  V30 434 H 43.8127 -2.69079 -1.21162 0
M  V30 435 H 43.8937 -2.49915 0.545517 0
M  V30 436 H 43.5377 -5.01339 0.813739 0
M  V30 437 H 43.4677 -5.17798 -0.958775 0
M  V30 438 H 45.9587 -3.76807 -0.287267 0
M  V30 439 H 46.2717 -7.72791 0.0379428 0
M  V30 440 H 44.6167 -6.94995 0.0271731 0
M  V30 441 H 47.8077 -4.6731 -0.271767 0
M  V30 442 H 47.9807 -6.47882 -0.123697 0
M  V30 443 N 41.3868 0.248026 -1.55636 0
M  V30 444 C 42.3168 1.31079 -1.93237 0
M  V30 445 C 43.2978 1.50264 -0.797174 0
M  V30 446 O 44.4828 1.62891 -1.05737 0
M  V30 447 C 41.6128 2.66575 -2.22609 0
M  V30 448 C 40.5668 2.62087 -3.3837 0
M  V30 449 C 39.8928 4.01369 -3.53281 0
M  V30 450 C 41.1928 2.19171 -4.7409 0
M  V30 451 H 42.8868 0.998556 -2.82257 0
M  V30 452 H 40.4328 0.47891 -1.35803 0
M  V30 453 H 42.3858 3.41057 -2.47503 0
M  V30 454 H 41.1098 2.99432 -1.30414 0
M  V30 455 H 39.7688 1.90063 -3.13483 0
M  V30 456 H 39.4168 4.31489 -2.58508 0
M  V30 457 H 39.1168 3.99254 -4.31127 0
M  V30 458 H 40.6408 4.77552 -3.80495 0
M  V30 459 H 42.0548 2.83384 -4.98363 0
M  V30 460 H 40.4518 2.2817 -5.5503 0
M  V30 461 H 41.5218 1.14336 -4.71227 0
M  V30 462 N 42.8649 1.48995 0.513639 0
M  V30 463 C 43.7949 1.67636 1.62544 0
M  V30 464 C 44.7759 0.525087 1.61793 0
M  V30 465 O 45.9609 0.759502 1.78732 0
M  V30 466 C 43.0909 1.73114 3.01079 0
M  V30 467 C 42.0449 2.87905 3.16693 0
M  V30 468 C 41.3709 2.78486 4.56453 0
M  V30 469 C 42.6709 4.29005 2.97913 0
M  V30 470 H 44.3649 2.60716 1.47198 0
M  V30 471 H 41.9109 1.25465 0.706714 0
M  V30 472 H 43.8639 1.84742 3.78746 0
M  V30 473 H 42.5879 0.766241 3.17484 0
M  V30 474 H 41.2469 2.75859 2.41448 0
M  V30 475 H 40.8949 1.7993 4.69717 0
M  V30 476 H 40.5949 3.55523 4.67843 0
M  V30 477 H 42.1189 2.92104 5.36197 0
M  V30 478 H 43.5329 4.41798 3.65359 0
M  V30 479 H 41.9299 5.07166 3.20785 0
M  V30 480 H 42.9999 4.44329 1.94165 0
M  V30 481 N 44.343 -0.763751 1.37857 0
M  V30 482 C 45.591 -1.51957 1.33243 0
M  V30 483 C 45.912 -1.94835 -0.0801709 0
M  V30 484 O 45.182 -1.66894 -1.02582 0
M  V30 485 H 43.762 -0.563626 0.49024 0
M  V30 486 H 46.424 -0.908504 1.7243 0
M  V30 487 H 45.52 -2.41523 1.97669 0
M  V30 488 N 45.8211 -1.22559 -0.990812 0
M  V30 489 C 46.7681 -0.997519 -2.0813 0
M  V30 490 C 47.7381 0.0814702 -1.659 0
M  V30 491 O 48.9231 -0.0685424 -1.90677 0
M  V30 492 C 46.0631 -0.583615 -3.40129 0
M  V30 493 C 45.1761 -1.7336 -3.9569 0
M  V30 494 C 44.3111 -1.26748 -5.15857 0
M  V30 495 C 43.3501 -2.38888 -5.63559 0
M  V30 496 N 42.4871 -1.93308 -6.74964 0
M  V30 497 H 47.3271 -1.93099 -2.26973 0
M  V30 498 H 44.8641 -0.962114 -1.11273 0
M  V30 499 H 46.8221 -0.324801 -4.15934 0
M  V30 500 H 45.4521 0.312845 -3.2128 0
M  V30 501 H 44.5041 -2.10669 -3.16738 0
M  V30 502 H 45.8161 -2.57704 -4.27071 0
M  V30 503 H 44.9701 -0.966173 -5.98957 0
M  V30 504 H 43.7091 -0.394272 -4.86104 0
M  V30 505 H 42.7141 -2.69805 -4.79046 0
M  V30 506 H 43.9391 -3.26728 -5.95336 0
M  V30 507 H 41.8851 -1.08352 -6.4699 0
M  V30 508 H 41.8021 -2.71217 -7.05675 0
M  V30 509 H 43.0701 -1.66252 -7.61564 0
M  V30 510 N 47.2992 1.18797 -1.03562 0
M  V30 511 C 48.7152 1.40671 -0.753917 0
M  V30 512 C 48.9152 1.9043 0.658686 0
M  V30 513 O 47.9712 2.08538 1.42366 0
M  V30 514 C 49.2842 2.41192 -1.79574 0
M  V30 515 C 50.8322 2.54928 -1.81606 0
M  V30 516 C 51.3072 3.58709 -2.84766 0
M  V30 517 N 52.7982 3.66212 -2.83625 0
M  V30 518 C 53.5332 4.46225 -3.60098 0
M  V30 519 N 53.0292 5.29888 -4.46308 0
M  V30 520 N 54.8222 4.40939 -3.4861 0
M  V30 521 H 46.9732 0.848221 -1.94728 0
M  V30 522 H 49.2362 0.435081 -0.842264 0
M  V30 523 H 48.9422 2.11669 -2.80872 0
M  V30 524 H 48.8162 3.40467 -1.62365 0
M  V30 525 H 51.2032 2.83771 -0.809817 0
M  V30 526 H 51.2842 1.55784 -2.02891 0
M  V30 527 H 50.9282 3.30607 -3.85566 0
M  V30 528 H 50.8582 4.57519 -2.60737 0
M  V30 529 H 53.3492 3.06466 -2.21105 0
M  V30 530 H 53.6622 5.88078 -5.01382 0
M  V30 531 H 52.0072 5.29326 -4.50377 0
M  V30 532 H 55.1982 3.74624 -2.80668 0
M  V30 533 H 55.3712 5.03056 -4.08459 0
M  V30 534 N 48.7773 0.814389 1.34928 0
M  V30 535 C 50.0023 0.410097 2.03305 0
M  V30 536 C 50.4273 -0.973464 1.60951 0
M  V30 537 O 49.7853 -1.63185 0.789964 0
M  V30 538 C 49.8333 0.51049 3.56968 0
M  V30 539 O 48.9373 -0.473035 4.09678 0
M  V30 540 H 48.2783 0.170088 0.641846 0
M  V30 541 H 50.8083 1.10244 1.72358 0
M  V30 542 H 50.8183 0.383135 4.06197 0
M  V30 543 H 49.4933 1.51963 3.87144 0
M  V30 544 H 48.0703 -0.305272 3.71648 0
M  V30 545 N 50.2554 -1.46986 0.568584 0
M  V30 546 C 51.1854 -2.32946 -0.160753 0
M  V30 547 C 52.1664 -1.44487 -0.897631 0
M  V30 548 O 53.3514 -1.73327 -0.875867 0
M  V30 549 C 50.4814 -3.26494 -1.18403 0
M  V30 550 C 49.4354 -4.24282 -0.562895 0
M  V30 551 C 48.7614 -5.07236 -1.69163 0
M  V30 552 C 50.0614 -5.19989 0.490761 0
M  V30 553 H 51.7554 -2.94175 0.556916 0
M  V30 554 H 49.3014 -1.4146 0.26927 0
M  V30 555 H 51.2544 -3.85477 -1.70251 0
M  V30 556 H 49.9784 -2.63343 -1.93179 0
M  V30 557 H 48.6374 -3.66541 -0.0656164 0
M  V30 558 H 48.2854 -4.4048 -2.42871 0
M  V30 559 H 47.9854 -5.7345 -1.28174 0
M  V30 560 H 49.5094 -5.6908 -2.21314 0
M  V30 561 H 50.9234 -5.73271 0.0579047 0
M  V30 562 H 49.3204 -5.94469 0.820165 0
M  V30 563 H 50.3904 -4.64777 1.3824 0
M  V30 564 N 51.7335 -0.305618 -1.54608 0
M  V30 565 C 53.1445 0.186098 -1.8577 0
M  V30 566 C 53.4955 1.53058 -1.22751 0
M  V30 567 O 52.6205 2.09888 -0.526893 0
M  V30 568 C 53.2155 0.344449 -3.37044 0
M  V30 569 C 51.7745 0.780384 -3.68221 0
M  V30 570 C 50.9215 -0.108554 -2.77087 0
M  V30 571 H 53.8725 -0.526485 -1.49712 0
M  V30 572 H 53.8935 1.17828 -3.61796 0
M  V30 573 H 53.4055 -0.634235 -3.82883 0
M  V30 574 H 51.5065 1.76945 -3.27904 0
M  V30 575 H 51.6195 0.596572 -4.75371 0
M  V30 576 H 49.9835 0.412931 -2.5133 0
M  V30 577 H 50.7665 -1.08368 -3.25747 0
M  V30 578 N 53.2116 1.57565 -0.0334293 0
M  V30 579 C 54.1216 2.13943 0.962572 0
M  V30 580 C 55.1376 1.09276 1.35406 0
M  V30 581 O 56.3136 1.41355 1.4346 0
M  V30 582 C 53.3786 2.65887 2.22497 0
M  V30 583 C 52.4396 3.85286 1.8935 0
M  V30 584 C 51.6726 4.34743 3.09571 0
M  V30 585 O 51.8956 3.83352 4.22371 0
M  V30 586 O 50.8296 5.26538 2.91618 0
M  V30 587 H 54.6556 2.99333 0.513169 0
M  V30 588 H 52.2406 1.4822 0.18743 0
M  V30 589 H 54.1226 2.99346 2.96598 0
M  V30 590 H 52.7976 1.83578 2.6661 0
M  V30 591 H 51.7046 3.56746 1.1262 0
M  V30 592 H 53.0376 4.68771 1.5005 0
M  V30 593 N 54.6897 -0.239769 1.55765 0
M  V30 594 C 55.9377 -0.964892 1.77579 0
M  V30 595 C 56.2587 -1.85582 0.598699 0
M  V30 596 O 55.5287 -1.92075 -0.385226 0
M  V30 597 H 54.1087 -0.359265 0.654933 0
M  V30 598 H 56.7707 -0.256001 1.93211 0
M  V30 599 H 55.8667 -1.58243 2.69009 0
M  V30 600 N 56.1678 -1.49265 -0.50573 0
M  V30 601 C 57.4138 -1.58748 -1.26202 0
M  V30 602 C 57.7468 -0.271227 -1.92297 0
M  V30 603 O 57.0218 0.724831 -1.80489 0
M  V30 604 C 57.3048 -2.74332 -2.33268 0
M  V30 605 C 57.1578 -4.15737 -1.71705 0
M  V30 606 C 58.4768 -2.85576 -3.34865 0
M  V30 607 H 55.5958 -0.577826 -0.457478 0
M  V30 608 H 58.2378 -1.81532 -0.560897 0
M  V30 609 H 56.3878 -2.55036 -2.93068 0
M  V30 610 H 58.0598 -4.46537 -1.15769 0
M  V30 611 H 56.3028 -4.21605 -1.02135 0
M  V30 612 H 56.9738 -4.92477 -2.49341 0
M  V30 613 H 59.4498 -3.03127 -2.8505 0
M  V30 614 H 58.3258 -3.68135 -4.07146 0
M  V30 615 H 58.5868 -1.94732 -3.96903 0
M  V30 616 N 57.6459 0.756429 -1.3826 0
M  V30 617 C 58.6089 1.85176 -1.35065 0
M  V30 618 C 59.6089 1.58818 -0.251703 0
M  V30 619 O 60.7989 1.66615 -0.508433 0
M  V30 620 C 57.9309 3.22596 -1.10201 0
M  V30 621 H 59.1239 1.89417 -2.3251 0
M  V30 622 H 56.6769 0.95783 -1.23512 0
M  V30 623 H 57.4119 3.24025 -0.133504 0
M  V30 624 H 57.1969 3.43122 -1.89762 0
M  V30 625 H 58.6869 4.02673 -1.10654 0
M  V30 626 N 59.124 1.23083 0.984299 0
M  V30 627 C 60.072 1.00593 2.09723 0
M  V30 628 C 61.066 -0.0538014 1.69315 0
M  V30 629 O 62.272 0.0993719 1.79725 0
M  V30 630 H 58.647 0.30817 0.685956 0
M  V30 631 H 60.618 1.95012 2.2586 0
M  V30 632 C 59.367 0.609601 3.42314 0
M  V30 633 H 58.69 1.41675 3.73856 0
M  V30 634 H 60.13 0.491726 4.21139 0
M  V30 635 C 58.589 -0.681745 3.2993 0
M  V30 636 O 59.119 -1.73192 3.62446 0
M  V30 637 N 57.325 -0.656178 2.83095 0
M  V30 638 H 56.872 0.198759 2.56832 0
M  V30 639 H 56.83 -1.52044 2.75191 0
M  V30 640 N 60.6021 -1.18246 1.0419 0
M  V30 641 C 61.8501 -1.87886 0.744543 0
M  V30 642 C 62.1711 -1.8082 -0.730006 0
M  V30 643 O 61.4411 -1.22736 -1.52685 0
M  V30 644 H 60.0211 -0.695556 0.272417 0
M  V30 645 H 62.6831 -1.43494 1.31892 0
M  V30 646 H 61.7791 -2.9389 1.05049 0
M  V30 647 N 62.0802 -0.821533 -1.34494 0
M  V30 648 C 63.3292 -0.405355 -1.97585 0
M  V30 649 C 63.6422 1.03677 -1.65863 0
M  V30 650 O 64.8482 1.55679 -2.22433 0
M  V30 651 C 63.3042 -0.673861 -3.53535 0
M  V30 652 C 62.9122 -2.12951 -3.94152 0
M  V30 653 C 64.6562 -0.32378 -4.23263 0
M  V30 654 C 62.5632 -2.34298 -5.43009 0
M  V30 655 H 61.4932 -0.147836 -0.739365 0
M  V30 656 H 64.1442 -1.00769 -1.53355 0
M  V30 657 H 62.5262 -0.00137554 -3.96 0
M  V30 658 H 63.7002 -2.84104 -3.62797 0
M  V30 659 H 62.0152 -2.44089 -3.37356 0
M  V30 660 H 64.6122 -0.461126 -5.32708 0
M  V30 661 H 64.9552 0.731586 -4.09821 0
M  V30 662 H 65.4882 -0.950786 -3.8627 0
M  V30 663 H 62.2272 -3.38335 -5.61435 0
M  V30 664 H 61.7472 -1.67687 -5.75883 0
M  V30 665 H 63.4262 -2.16588 -6.09671 0
M  V30 666 N 63.5583 1.46682 -0.576371 0
M  V30 667 C 64.4683 2.34032 0.163141 0
M  V30 668 C 65.4843 1.49367 0.892501 0
M  V30 669 O 66.6603 1.82252 0.857106 0
M  V30 670 C 63.7253 3.26435 1.16795 0
M  V30 671 C 62.7863 4.26998 0.443944 0
M  V30 672 C 62.0193 5.14986 1.40088 0
M  V30 673 O 62.2423 5.05785 2.637 0
M  V30 674 O 61.1763 5.94906 0.914917 0
M  V30 675 H 65.0023 2.98607 -0.55388 0
M  V30 676 H 62.5873 1.45554 -0.336821 0
M  V30 677 H 64.4693 3.83459 1.74748 0
M  V30 678 H 63.1443 2.64465 1.86655 0
M  V30 679 H 62.0513 3.7368 -0.177271 0
M  V30 680 H 63.3843 4.91736 -0.213566 0
M  V30 681 N 65.0364 0.313813 1.54444 0
M  V30 682 C 66.2824 -0.292108 2.00685 0
M  V30 683 C 66.6154 -1.52548 1.20177 0
M  V30 684 O 65.8904 -1.92452 0.281531 0
M  V30 685 C 66.1734 -0.635968 3.5444 0
M  V30 686 C 66.0264 0.607437 4.4568 0
M  V30 687 C 67.3454 -1.45747 4.15266 0
M  V30 688 H 64.4644 -0.104697 0.729526 0
M  V30 689 H 67.1064 0.428457 1.85106 0
M  V30 690 H 65.2564 -1.24986 3.67846 0
M  V30 691 H 66.9284 1.24581 4.44159 0
M  V30 692 H 65.1714 1.23822 4.15753 0
M  V30 693 H 65.8424 0.322515 5.51057 0
M  V30 694 H 68.3184 -0.938645 4.05375 0
M  V30 695 H 67.1944 -1.66683 5.2298 0
M  V30 696 H 67.4554 -2.45063 3.67963 0
M  V30 697 N 66.5145 -1.57545 0.0417849 0
M  V30 698 C 67.7445 -1.96339 -0.642995 0
M  V30 699 C 68.1525 -0.917536 -1.65463 0
M  V30 700 O 67.4955 0.107747 -1.83384 0
M  V30 701 C 67.5575 -3.31333 -1.39494 0
M  V30 702 C 67.2215 -4.53796 -0.540204 0
M  V30 703 C 68.2185 -5.19553 0.189806 0
M  V30 704 C 65.9035 -5.0006 -0.473886 0
M  V30 705 C 67.8975 -6.29904 0.974674 0
M  V30 706 C 65.5845 -6.10289 0.314677 0
M  V30 707 C 66.5825 -6.75072 1.03765 0
M  V30 708 O 66.2705 -7.83183 1.81327 0
M  V30 709 H 66.0025 -0.651241 -0.181277 0
M  V30 710 H 68.5565 -2.05148 0.101665 0
M  V30 711 H 66.7865 -3.19052 -2.18502 0
M  V30 712 H 68.4755 -3.54942 -1.96904 0
M  V30 713 H 69.2415 -4.84774 0.147981 0
M  V30 714 H 65.1205 -4.49433 -1.0262 0
M  V30 715 H 68.6645 -6.80401 1.5395 0
M  V30 716 H 64.5615 -6.44506 0.358174 0
M  V30 717 H 65.3295 -7.99913 1.73438 0
M  V30 718 N 67.9926 0.231505 -1.5589 0
M  V30 719 C 69.2176 0.978689 -1.82856 0
M  V30 720 C 69.6426 1.77559 -0.620846 0
M  V30 721 O 69.0006 1.76119 0.430305 0
M  V30 722 C 69.0486 1.87997 -3.07716 0
M  V30 723 O 68.1526 2.97393 -2.85712 0
M  V30 724 H 67.4936 0.277663 -0.603158 0
M  V30 725 H 70.0236 0.24783 -2.03093 0
M  V30 726 H 70.0336 2.2917 -3.37558 0
M  V30 727 H 68.7086 1.29417 -3.95252 0
M  V30 728 H 67.2856 2.60238 -2.67078 0
M  V30 729 N 69.4707 1.49531 0.497807 0
M  V30 730 C 70.6987 1.62893 1.27567 0
M  V30 731 C 71.1137 0.301585 1.86376 0
M  V30 732 O 70.4707 -0.713335 1.67982 0
M  V30 733 C 70.5217 2.70013 2.40364 0
M  V30 734 O 70.2427 3.976 1.83972 0
M  V30 735 C 71.7437 2.94109 3.31685 0
M  V30 736 H 68.9637 0.548298 0.386794 0
M  V30 737 H 71.5077 1.95584 0.597245 0
M  V30 738 H 69.6627 2.40092 3.04031 0
M  V30 739 H 70.0767 4.56631 2.58047 0
M  V30 740 H 71.5507 3.72788 4.07104 0
M  V30 741 H 72.0277 2.04147 3.88871 0
M  V30 742 H 72.6337 3.2546 2.73781 0
M  V30 743 N 70.9488 -0.749086 1.3866 0
M  V30 744 C 71.8958 -1.86291 1.36251 0
M  V30 745 C 72.8658 -1.64578 0.224347 0
M  V30 746 O 74.0508 -1.86181 0.417279 0
M  V30 747 C 71.1908 -3.23644 1.19786 0
M  V30 748 C 70.3038 -3.57158 2.43027 0
M  V30 749 C 69.4388 -4.83838 2.19258 0
M  V30 750 C 68.4778 -5.10152 3.38247 0
M  V30 751 N 67.6148 -6.28029 3.13884 0
M  V30 752 H 72.4548 -1.87685 2.3147 0
M  V30 753 H 69.9918 -0.917287 1.14997 0
M  V30 754 H 71.9498 -4.0291 1.08254 0
M  V30 755 H 70.5798 -3.21566 0.282031 0
M  V30 756 H 69.6318 -2.72701 2.65214 0
M  V30 757 H 70.9438 -3.7253 3.31697 0
M  V30 758 H 70.0978 -5.71057 2.04888 0
M  V30 759 H 68.8368 -4.70614 1.2796 0
M  V30 760 H 67.8418 -4.21401 3.53131 0
M  V30 761 H 69.0668 -5.25271 4.30427 0
M  V30 762 H 67.0128 -6.1612 2.25238 0
M  V30 763 H 66.9298 -6.43922 3.96106 0
M  V30 764 H 68.1978 -7.18124 3.03179 0
M  V30 765 N 72.4269 -1.23603 -0.977757 0
M  V30 766 C 73.6759 -1.06377 -1.71368 0
M  V30 767 C 73.9889 0.399062 -1.91486 0
M  V30 768 O 75.1949 0.691312 -2.62551 0
M  V30 769 C 73.6509 -1.85512 -3.08404 0
M  V30 770 C 73.2589 -3.36141 -2.96164 0
M  V30 771 C 75.0029 -1.76783 -3.85938 0
M  V30 772 C 72.9099 -4.07659 -4.28449 0
M  V30 773 H 71.8399 -0.394452 -0.642591 0
M  V30 774 H 74.4909 -1.47594 -1.09034 0
M  V30 775 H 72.8729 -1.37103 -3.71509 0
M  V30 776 H 74.0469 -3.92056 -2.42133 0
M  V30 777 H 72.3619 -3.45712 -2.32104 0
M  V30 778 H 74.9589 -2.27526 -4.83876 0
M  V30 779 H 75.3019 -0.731116 -4.0983 0
M  V30 780 H 75.8349 -2.22818 -3.2954 0
M  V30 781 H 72.5739 -5.11648 -4.09752 0
M  V30 782 H 72.0939 -3.5653 -4.82334 0
M  V30 783 H 73.7729 -4.141 -4.97122 0
M  V30 784 N 73.905 1.17692 -1.04816 0
M  V30 785 C 74.853 2.23632 -0.63966 0
M  V30 786 C 75.847 1.6601 0.337219 0
M  V30 787 O 77.053 1.78844 0.203693 0
M  V30 788 H 73.428 0.727949 -0.188665 0
M  V30 789 H 75.399 2.55387 -1.54337 0
M  V30 790 C 74.148 3.4769 -0.0264051 0
M  V30 791 H 73.471 3.92331 -0.769164 0
M  V30 792 H 74.911 4.23418 0.222098 0
M  V30 793 C 73.37 3.13807 1.22584 0
M  V30 794 O 73.9 3.28236 2.31569 0
M  V30 795 N 72.106 2.68065 1.12202 0
M  V30 796 H 71.653 2.56525 0.235133 0
M  V30 797 H 71.611 2.45767 1.96076 0
M  V30 798 N 75.3831 0.828654 1.34056 0
M  V30 799 C 76.6081 0.431637 2.02859 0
M  V30 800 C 77.0331 -0.956339 1.61975 0
M  V30 801 O 76.3911 -1.62338 0.807228 0
M  V30 802 C 76.4391 0.548323 3.56407 0
M  V30 803 O 75.5431 -0.429556 4.10157 0
M  V30 804 H 74.8841 0.176886 0.640006 0
M  V30 805 H 77.4141 1.12066 1.71179 0
M  V30 806 H 77.4241 0.426196 4.05768 0
M  V30 807 H 76.0991 1.5606 3.8551 0
M  V30 808 H 74.6761 -0.265836 3.71951 0
M  V30 809 N 76.8612 -1.46375 0.584142 0
M  V30 810 C 77.8082 -2.30323 -0.148286 0
M  V30 811 C 78.7782 -1.40703 -0.882713 0
M  V30 812 O 79.9632 -1.69651 -0.873099 0
M  V30 813 C 77.1032 -3.25196 -1.15507 0
M  V30 814 C 76.2162 -4.29915 -0.423943 0
M  V30 815 C 75.3512 -5.11914 -1.41838 0
M  V30 816 C 74.3902 -6.08381 -0.673736 0
M  V30 817 N 73.5272 -6.83242 -1.6163 0
M  V30 818 H 78.3672 -2.92427 0.573644 0
M  V30 819 H 75.9042 -1.44118 0.294703 0
M  V30 820 H 77.8622 -3.78646 -1.75166 0
M  V30 821 H 76.4922 -2.64898 -1.8447 0
M  V30 822 H 75.5442 -3.7931 0.287714 0
M  V30 823 H 76.8562 -4.98549 0.158128 0
M  V30 824 H 76.0102 -5.69648 -2.08773 0
M  V30 825 H 74.7492 -4.43243 -2.03438 0
M  V30 826 H 73.7542 -5.49799 0.00938483 0
M  V30 827 H 74.9792 -6.79071 -0.0631082 0
M  V30 828 H 72.9252 -6.1728 -2.22038 0
M  V30 829 H 72.8422 -7.48144 -1.08707 0
M  V30 830 H 74.1102 -7.45534 -2.27596 0
M  V30 831 N 78.3393 -0.321999 -1.54275 0
M  V30 832 C 79.5853 0.281461 -2.00837 0
M  V30 833 C 79.9183 1.51909 -1.20985 0
M  V30 834 O 79.1933 1.923 -0.291733 0
M  V30 835 C 79.4763 0.617162 -3.54772 0
M  V30 836 C 79.3293 -0.631064 -4.45351 0
M  V30 837 C 80.6483 1.43542 -4.16033 0
M  V30 838 H 77.7673 0.100826 -0.730071 0
M  V30 839 H 80.4093 -0.438268 -1.84876 0
M  V30 840 H 78.5593 1.23034 -3.68504 0
M  V30 841 H 80.2313 -1.26934 -4.43492 0
M  V30 842 H 78.4743 -1.26025 -4.15091 0
M  V30 843 H 79.1453 -0.351735 -5.50878 0
M  V30 844 H 81.6213 0.917134 -4.05867 0
M  V30 845 H 80.4973 1.63907 -5.23856 0
M  V30 846 H 80.7583 2.43108 -3.69257 0
M  V30 847 N 79.8174 1.5752 -0.0501392 0
M  V30 848 C 81.0454 1.96963 0.633492 0
M  V30 849 C 81.4604 0.927631 1.6444 0
M  V30 850 O 80.8174 -0.0882665 1.82286 0
M  V30 851 C 80.8684 3.36487 1.32132 0
M  V30 852 O 80.5894 4.36693 0.350894 0
M  V30 853 C 82.0904 3.90682 2.09481 0
M  V30 854 H 79.3104 0.648244 0.173266 0
M  V30 855 H 81.8544 2.0417 -0.116134 0
M  V30 856 H 80.0094 3.30434 2.02218 0
M  V30 857 H 80.4234 5.17702 0.841735 0
M  V30 858 H 81.8974 4.90591 2.5303 0
M  V30 859 H 82.3744 3.26053 2.94255 0
M  V30 860 H 82.9804 4.00069 1.44307 0
M  V30 861 N 81.2955 -0.223234 1.56011 0
M  V30 862 C 82.5205 -0.968978 1.83373 0
M  V30 863 C 82.9455 -1.77227 0.630254 0
M  V30 864 O 82.3035 -1.76345 -0.420959 0
M  V30 865 C 82.3515 -1.86363 3.08709 0
M  V30 866 O 81.4555 -2.95873 2.87285 0
M  V30 867 H 80.7965 -0.274461 0.604622 0
M  V30 868 H 83.3265 -0.237056 2.03222 0
M  V30 869 H 83.3365 -2.27376 3.38768 0
M  V30 870 H 82.0115 -1.27319 3.95933 0
M  V30 871 H 80.5885 -2.58818 2.68454 0
M  V30 872 N 82.7736 -1.49793 -0.48987 0
M  V30 873 C 84.1896 -1.36803 -0.822022 0
M  V30 874 C 84.3896 -0.409652 -1.97292 0
M  V30 875 O 83.4456 0.154614 -2.52026 0
M  V30 876 C 84.7586 -2.77768 -1.15175 0
M  V30 877 C 86.3066 -2.86549 -1.25931 0
M  V30 878 C 86.7816 -4.28306 -1.62228 0
M  V30 879 N 88.2726 -4.31169 -1.69256 0
M  V30 880 C 89.0076 -5.37832 -1.98807 0
M  V30 881 N 88.5036 -6.54726 -2.26507 0
M  V30 882 N 90.2966 -5.25258 -2.00152 0
M  V30 883 H 82.4476 -2.10691 0.268881 0
M  V30 884 H 84.7106 -0.946241 0.057728 0
M  V30 885 H 84.4166 -3.49648 -0.379335 0
M  V30 886 H 84.2906 -3.13836 -2.09253 0
M  V30 887 H 86.6776 -2.14899 -2.02243 0
M  V30 888 H 86.7586 -2.54049 -0.298776 0
M  V30 889 H 86.4026 -5.00486 -0.864622 0
M  V30 890 H 86.3326 -4.58279 -2.594 0
M  V30 891 H 88.8236 -3.4687 -1.49965 0
M  V30 892 H 89.1366 -7.31833 -2.48276 0
M  V30 893 H 87.4816 -6.57933 -2.23939 0
M  V30 894 H 90.6726 -4.32938 -1.77996 0
M  V30 895 H 90.8456 -6.08476 -2.22848 0
M  V30 896 N 84.2517 0.741722 -1.39055 0
M  V30 897 C 85.4987 1.50114 -1.35912 0
M  V30 898 C 85.8267 1.94443 0.0470937 0
M  V30 899 O 85.0817 1.66612 1.02659 0
M  V30 900 C 85.3807 2.7592 -2.27163 0
M  V30 901 C 85.0467 2.50493 -3.74919 0
M  V30 902 C 83.7087 2.43267 -4.1518 0
M  V30 903 C 86.0607 2.28585 -4.684 0
M  V30 904 C 83.3887 2.12166 -5.46994 0
M  V30 905 C 85.7407 1.99002 -6.00484 0
M  V30 906 C 84.4047 1.90241 -6.39816 0
M  V30 907 H 83.6747 0.549306 -0.497336 0
M  V30 908 H 86.3217 0.851896 -1.71508 0
M  V30 909 H 84.6267 3.45553 -1.84663 0
M  V30 910 H 86.3237 3.33923 -2.22028 0
M  V30 911 H 82.9137 2.56992 -3.43006 0
M  V30 912 H 87.0977 2.33139 -4.38132 0
M  V30 913 H 82.3537 2.03901 -5.76398 0
M  V30 914 H 86.5277 1.81057 -6.72452 0
M  V30 915 H 84.1547 1.65907 -7.41875 0
M  V30 916 N 85.7298 1.2412 0.971189 0
M  V30 917 C 86.6928 1.03156 2.04674 0
M  V30 918 C 87.6928 -0.00990322 1.60797 0
M  V30 919 O 88.8828 0.230729 1.72665 0
M  V30 920 C 86.0148 0.562765 3.36223 0
M  V30 921 H 87.2078 1.98614 2.24705 0
M  V30 922 H 84.7608 1.06293 1.14593 0
M  V30 923 H 85.4958 -0.395176 3.21883 0
M  V30 924 H 85.2808 1.31441 3.69413 0
M  V30 925 H 86.7708 0.437015 4.15307 0
M  V30 926 N 87.2079 -1.17134 1.05439 0
M  V30 927 C 88.1579 -2.1919 0.627675 0
M  V30 928 C 89.1419 -1.57328 -0.337147 0
M  V30 929 O 90.3339 -1.76329 -0.153976 0
M  V30 930 C 87.4629 -3.43299 0.00651435 0
M  V30 931 C 86.5489 -4.12255 0.995312 0
M  V30 932 N 86.9399 -4.56997 2.16765 0
M  V30 933 C 85.2379 -4.38316 0.824336 0
M  V30 934 C 85.9389 -5.10239 2.7934 0
M  V30 935 N 84.9149 -5.02595 2.07122 0
M  V30 936 H 88.7169 -2.5149 1.52086 0
M  V30 937 H 86.2309 -1.33491 0.924868 0
M  V30 938 H 88.2279 -4.15693 -0.316965 0
M  V30 939 H 86.8879 -3.1249 -0.882033 0
M  V30 940 H 87.8989 -4.51006 2.54587 0
M  V30 941 H 84.5759 -4.17498 -0.0129526 0
M  V30 942 H 85.9659 -5.54961 3.78772 0
M  V30 943 N 88.686 -0.835752 -1.33615 0
M  V30 944 C 89.634 -0.255238 -2.31195 0
M  V30 945 C 90.628 0.61107 -1.57995 0
M  V30 946 O 91.834 0.500979 -1.72888 0
M  V30 947 H 88.209 -0.0638085 -0.749288 0
M  V30 948 H 90.18 -1.09283 -2.77669 0
M  V30 949 C 88.929 0.55754 -3.43201 0
M  V30 950 H 88.252 -0.0997553 -3.99676 0
M  V30 951 H 89.692 0.929622 -4.13683 0
M  V30 952 C 88.151 1.73515 -2.88781 0
M  V30 953 O 88.681 2.83376 -2.84712 0
M  V30 954 N 86.887 1.55603 -2.4543 0
M  V30 955 H 86.434 0.662354 -2.48939 0
M  V30 956 H 86.392 2.34545 -2.09371 0
M  V30 957 N 90.1641 1.46063 -0.591896 0
M  V30 958 C 91.4101 2.02638 -0.0811191 0
M  V30 959 C 91.7431 1.4613 1.27905 0
M  V30 960 O 91.0181 0.629908 1.84017 0
M  V30 961 C 91.3011 3.60091 -0.0252436 0
M  V30 962 C 91.1541 4.26965 -1.41496 0
M  V30 963 C 92.4731 4.3496 0.670685 0
M  V30 964 H 89.5921 0.73635 -0.0309524 0
M  V30 965 H 92.2341 1.741 -0.760859 0
M  V30 966 H 90.3841 3.84535 0.553624 0
M  V30 967 H 92.0561 4.13756 -2.0397 0
M  V30 968 H 90.2991 3.85971 -1.98011 0
M  V30 969 H 90.9701 5.35781 -1.32825 0
M  V30 970 H 93.4461 4.15716 0.178825 0
M  V30 971 H 92.3221 5.44686 0.678837 0
M  V30 972 H 92.5831 4.06685 1.73379 0
M  V30 973 N 91.6422 0.330177 1.54103 0
M  V30 974 C 92.8882 -0.270806 2.00984 0
M  V30 975 C 93.2212 -1.51265 1.21789 0
M  V30 976 O 92.4962 -1.92142 0.301927 0
M  V30 977 C 92.7792 -0.598339 3.55094 0
M  V30 978 C 92.6322 0.654674 4.4501 0
M  V30 979 C 93.9512 -1.41334 4.16789 0
M  V30 980 H 91.0702 -0.0969531 0.730595 0
M  V30 981 H 93.7122 0.448066 1.84641 0
M  V30 982 H 91.8622 -1.21078 3.69151 0
M  V30 983 H 93.5342 1.29285 4.42813 0
M  V30 984 H 91.7772 1.28224 4.14416 0
M  V30 985 H 92.4482 0.380944 5.50684 0
M  V30 986 H 94.9242 -0.895597 4.06347 0
M  V30 987 H 93.8002 -1.61127 5.24718 0
M  V30 988 H 94.0612 -2.41146 3.70541 0
M  V30 989 N 93.1203 -1.57491 0.0584922 0
M  V30 990 C 94.3483 -1.97296 -0.623037 0
M  V30 991 C 94.7633 -0.936338 -1.63946 0
M  V30 992 O 94.1203 0.0785981 -1.82331 0
M  V30 993 C 94.1713 -3.37183 -1.30345 0
M  V30 994 O 93.8923 -4.36872 -0.32773 0
M  V30 995 C 95.3933 -3.91788 -2.07406 0
M  V30 996 H 92.6133 -0.649153 -0.169826 0
M  V30 997 H 95.1573 -2.04106 0.12696 0
M  V30 998 H 93.3123 -3.31502 -2.00463 0
M  V30 999 H 93.7263 -5.18141 -0.814269 0
M  V30 1000 H 95.2003 -4.91926 -2.50425 0
M  V30 1001 H 95.6773 -3.27609 -2.92521 0
M  V30 1002 H 96.2833 -4.00829 -1.42184 0
M  V30 1003 N 94.5984 0.214957 -1.56127 0
M  V30 1004 C 95.5314 1.29382 -1.87977 0
M  V30 1005 C 96.5094 1.44897 -0.737807 0
M  V30 1006 O 97.6934 1.60605 -0.986833 0
M  V30 1007 C 94.8204 2.66325 -2.09258 0
M  V30 1008 C 93.8664 2.67789 -3.31951 0
M  V30 1009 S 94.6994 2.21198 -4.8768 0
M  V30 1010 C 95.8554 3.60003 -5.12004 0
M  V30 1011 H 96.0884 1.02173 -2.79192 0
M  V30 1012 H 93.6214 0.417516 -1.48648 0
M  V30 1013 H 95.5794 3.45162 -2.22201 0
M  V30 1014 H 94.2404 2.90755 -1.18829 0
M  V30 1015 H 93.4334 3.68436 -3.43906 0
M  V30 1016 H 93.0354 1.9702 -3.17898 0
M  V30 1017 H 95.3274 4.55739 -5.01307 0
M  V30 1018 H 96.2704 3.52959 -6.13861 0
M  V30 1019 H 96.6784 3.53996 -4.39712 0
M  V30 1020 N 96.0765 1.50051 0.48192 0
M  V30 1021 C 97.4925 1.37237 0.814756 0
M  V30 1022 C 97.6925 0.420109 1.97072 0
M  V30 1023 O 96.7485 -0.141246 2.52105 0
M  V30 1024 C 98.0615 2.78375 1.13701 0
M  V30 1025 C 99.6095 2.87213 1.2441 0
M  V30 1026 C 100.084 4.29161 1.59954 0
M  V30 1027 N 101.575 4.32061 1.66967 0
M  V30 1028 C 102.31 5.38879 1.95952 0
M  V30 1029 N 101.806 6.55918 2.23031 0
M  V30 1030 N 103.599 5.26312 1.97363 0
M  V30 1031 H 95.7505 2.10546 -0.28005 0
M  V30 1032 H 98.0135 0.945921 -0.0627454 0
M  V30 1033 H 97.7195 3.49845 0.360787 0
M  V30 1034 H 97.5935 3.14941 2.07586 0
M  V30 1035 H 99.9805 2.15969 2.01101 0
M  V30 1036 H 100.061 2.54204 0.285299 0
M  V30 1037 H 99.7055 5.00938 0.838067 0
M  V30 1038 H 99.6355 4.59648 2.56966 0
M  V30 1039 H 102.126 3.47661 1.48123 0
M  V30 1040 H 102.439 7.33139 2.44391 0
M  V30 1041 H 100.784 6.59112 2.20447 0
M  V30 1042 H 103.975 4.33876 1.75697 0
M  V30 1043 H 104.148 6.09649 2.19618 0
M  V30 1044 N 97.5546 -0.734337 1.39446 0
M  V30 1045 C 98.5176 -1.83004 1.37994 0
M  V30 1046 C 99.5176 -1.58397 0.276938 0
M  V30 1047 O 100.708 -1.65785 0.534875 0
M  V30 1048 C 97.8396 -3.20802 1.1532 0
M  V30 1049 H 99.0326 -1.85694 2.35494 0
M  V30 1050 H 96.5856 -0.938059 1.25021 0
M  V30 1051 H 97.3206 -3.23772 0.185036 0
M  V30 1052 H 97.1056 -3.4006 1.95197 0
M  V30 1053 H 98.5956 -4.00862 1.17046 0
M  V30 1054 N 99.0327 -1.24633 -0.964593 0
M  V30 1055 C 100.279 -1.08949 -1.71049 0
M  V30 1056 C 100.612 0.370302 -1.90637 0
M  V30 1057 O 99.8867 1.27349 -1.47011 0
M  V30 1058 C 100.17 -1.83329 -3.0994 0
M  V30 1059 C 100.023 -3.37077 -2.97824 0
M  V30 1060 C 101.342 -1.60846 -4.09654 0
M  V30 1061 H 98.4607 -0.397178 -0.620821 0
M  V30 1062 H 101.103 -1.5334 -1.12191 0
M  V30 1063 H 99.2527 -1.45597 -3.60186 0
M  V30 1064 H 100.925 -3.84425 -2.5498 0
M  V30 1065 H 99.1677 -3.65298 -2.33965 0
M  V30 1066 H 99.8387 -3.84324 -3.96231 0
M  V30 1067 H 102.315 -1.93674 -3.68279 0
M  V30 1068 H 101.191 -2.1534 -5.04896 0
M  V30 1069 H 101.452 -0.547434 -4.38698 0
M  V30 1070 N 100.511 1.16574 -1.06058 0
M  V30 1071 C 101.459 2.22941 -0.663343 0
M  V30 1072 C 102.453 1.66358 0.319593 0
M  V30 1073 O 103.659 1.7905 0.184713 0
M  V30 1074 H 100.034 0.725907 -0.196376 0
M  V30 1075 H 102.005 2.53736 -1.57037 0
M  V30 1076 C 100.754 3.47642 -0.0632808 0
M  V30 1077 H 100.077 3.91493 -0.810733 0
M  V30 1078 H 101.517 4.2363 0.177177 0
M  V30 1079 C 99.9758 3.1509 1.19248 0
M  V30 1080 O 100.506 3.30673 2.28075 0
M  V30 1081 N 98.7118 2.6924 1.09353 0
M  V30 1082 H 98.2588 2.5676 0.207912 0
M  V30 1083 H 98.2168 2.47833 1.93458 0
M  V30 1084 N 101.989 0.842826 1.3317 0
M  V30 1085 C 103.405 0.531128 1.50503 0
M  V30 1086 C 103.605 -0.940734 1.78192 0
M  V30 1087 O 102.661 -1.72436 1.84451 0
M  V30 1088 C 103.974 1.40789 2.65705 0
M  V30 1089 C 105.522 1.40708 2.79589 0
M  V30 1090 C 105.997 2.26878 3.97857 0
M  V30 1091 N 107.488 2.24609 4.05099 0
M  V30 1092 C 108.223 2.88019 4.95815 0
M  V30 1093 N 107.719 3.60496 5.9162 0
M  V30 1094 N 109.512 2.77469 4.88843 0
M  V30 1095 H 101.663 1.79557 1.1346 0
M  V30 1096 H 103.926 0.766267 0.558156 0
M  V30 1097 H 103.632 2.454 2.51936 0
M  V30 1098 H 103.506 1.08677 3.61205 0
M  V30 1099 H 105.893 0.368668 2.92788 0
M  V30 1100 H 105.974 1.76829 1.84838 0
M  V30 1101 H 105.618 3.3078 3.85418 0
M  V30 1102 H 105.548 1.88096 4.91861 0
M  V30 1103 H 108.039 1.71906 3.36536 0
M  V30 1104 H 108.352 4.06076 6.57512 0
M  V30 1105 H 106.697 3.64604 5.91683 0
M  V30 1106 H 109.888 2.20406 4.12963 0
M  V30 1107 H 110.061 3.2717 5.59342 0
M  V30 1108 N 103.467 -1.45747 0.599634 0
M  V30 1109 C 104.43 -2.28917 -0.113835 0
M  V30 1110 C 105.43 -1.3933 -0.802729 0
M  V30 1111 O 106.62 -1.61534 -0.652103 0
M  V30 1112 C 103.752 -3.20152 -1.17114 0
M  V30 1113 H 104.945 -2.93478 0.617289 0
M  V30 1114 H 102.498 -1.52137 0.358327 0
M  V30 1115 H 103.233 -2.60374 -1.93329 0
M  V30 1116 H 103.018 -3.86133 -0.681468 0
M  V30 1117 H 104.508 -3.82708 -1.67105 0
M  V30 1118 N 104.945 -0.338344 -1.53925 0
M  V30 1119 C 106.222 0.314774 -1.93051 0
M  V30 1120 C 106.602 1.68669 -1.26941 0
M  V30 1121 O 105.95 2.24636 -0.418445 0
M  V30 1122 C 106.16 0.392249 -3.46789 0
M  V30 1123 C 107.508 0.645554 -4.19664 0
M  V30 1124 O 108.532 0.474575 -3.53024 0
M  V30 1125 O 107.391 0.976408 -5.37707 0
M  V30 1126 H 104.485 0.182598 -0.80659 0
M  V30 1127 H 107.031 -0.389141 -1.65178 0
M  V30 1128 H 105.803 -0.570702 -3.87116 0
M  V30 1129 H 105.426 1.14316 -3.80812 0
M  V30 1130 N 106.423 1.57458 -0.0668435 0
M  V30 1131 C 107.651 1.97624 0.612565 0
M  V30 1132 C 108.066 0.94502 1.63447 0
M  V30 1133 O 107.423 -0.0689276 1.8237 0
M  V30 1134 C 107.474 3.37869 1.28555 0
M  V30 1135 O 107.195 4.3704 0.304557 0
M  V30 1136 C 108.696 3.92882 2.05325 0
M  V30 1137 H 105.916 0.650045 0.166381 0
M  V30 1138 H 108.46 2.04035 -0.137782 0
M  V30 1139 H 106.615 3.3256 1.98702 0
M  V30 1140 H 107.029 5.18565 0.786779 0
M  V30 1141 H 108.503 4.93247 2.47812 0
M  V30 1142 H 108.98 3.29156 2.9078 0
M  V30 1143 H 109.586 4.01577 1.40056 0
M  V30 1144 N 107.901 -0.206675 1.56239 0
M  V30 1145 C 108.864 -1.23976 1.92776 0
M  V30 1146 C 109.864 -1.39041 0.807729 0
M  V30 1147 O 111.054 -1.37051 1.0753 0
M  V30 1148 C 108.186 -2.61112 2.19165 0
M  V30 1149 H 109.379 -0.927764 2.85189 0
M  V30 1150 H 106.932 -0.447718 1.4975 0
M  V30 1151 H 107.667 -2.97386 1.29352 0
M  V30 1152 H 107.452 -2.51552 3.00772 0
M  V30 1153 H 108.942 -3.35633 2.48476 0
M  V30 1154 N 109.379 -1.50304 -0.473955 0
M  V30 1155 C 110.326 -1.68959 -1.57231 0
M  V30 1156 C 111.296 -0.530899 -1.57387 0
M  V30 1157 O 112.481 -0.761133 -1.74961 0
M  V30 1158 C 109.621 -1.7871 -2.95223 0
M  V30 1159 C 108.734 -3.06061 -3.04878 0
M  V30 1160 C 107.869 -3.06626 -4.33767 0
M  V30 1161 C 106.908 -4.28443 -4.37154 0
M  V30 1162 N 106.045 -4.26763 -5.5751 0
M  V30 1163 H 110.885 -2.6273 -1.40631 0
M  V30 1164 H 108.422 -1.30241 -0.683789 0
M  V30 1165 H 110.38 -1.82344 -3.75242 0
M  V30 1166 H 109.01 -0.883806 -3.10465 0
M  V30 1167 H 108.062 -3.11911 -2.17751 0
M  V30 1168 H 109.374 -3.96039 -3.0324 0
M  V30 1169 H 108.528 -3.08973 -5.22131 0
M  V30 1170 H 107.267 -2.14473 -4.3801 0
M  V30 1171 H 106.272 -4.2631 -3.47188 0
M  V30 1172 H 107.497 -5.2182 -4.34605 0
M  V30 1173 H 105.443 -3.37462 -5.62544 0
M  V30 1174 H 105.36 -5.10507 -5.57601 0
M  V30 1175 H 106.628 -4.33253 -6.48006 0
M  V30 1176 N 110.857 0.726932 -1.39834 0
M  V30 1177 C 111.767 1.87131 -1.41489 0
M  V30 1178 C 112.783 1.71239 -0.308757 0
M  V30 1179 O 113.959 1.93701 -0.551529 0
M  V30 1180 C 111.024 3.22811 -1.26468 0
M  V30 1181 C 110.085 3.51039 -2.47124 0
M  V30 1182 C 109.318 4.80245 -2.3281 0
M  V30 1183 O 109.541 5.54537 -1.33585 0
M  V30 1184 O 108.475 5.08554 -3.21957 0
M  V30 1185 H 112.301 1.8869 -2.3797 0
M  V30 1186 H 109.886 0.875837 -1.21035 0
M  V30 1187 H 111.768 4.03877 -1.20255 0
M  V30 1188 H 110.443 3.22005 -0.330862 0
M  V30 1189 H 109.35 2.70027 -2.58914 0
M  V30 1190 H 110.683 3.56632 -3.39227 0
M  V30 1191 N 112.336 1.25143 0.95797 0
M  V30 1192 C 113.582 1.09855 1.70469 0
M  V30 1193 C 113.915 -0.360187 1.90831 0
M  V30 1194 O 113.19 -1.26568 1.47685 0
M  V30 1195 C 113.473 1.8497 3.08963 0
M  V30 1196 C 113.326 3.38652 2.96032 0
M  V30 1197 C 114.645 1.63016 4.08795 0
M  V30 1198 H 111.764 0.400465 0.618706 0
M  V30 1199 H 114.406 1.53933 1.11376 0
M  V30 1200 H 112.556 1.47505 3.59409 0
M  V30 1201 H 114.228 3.85772 2.52938 0
M  V30 1202 H 112.471 3.66534 2.32025 0
M  V30 1203 H 113.142 3.8642 3.94187 0
M  V30 1204 H 115.618 1.95625 3.67247 0
M  V30 1205 H 114.494 2.18015 5.03747 0
M  V30 1206 H 114.755 0.570692 4.38401 0
M  V30 1207 N 113.814 -1.1601 1.06675 0
M  V30 1208 C 115.039 -1.91068 0.806706 0
M  V30 1209 C 115.464 -1.77112 -0.633485 0
M  V30 1210 O 114.822 -1.09908 -1.44187 0
M  V30 1211 C 114.87 -3.39655 1.21106 0
M  V30 1212 O 113.974 -4.10893 0.352189 0
M  V30 1213 H 113.315 -0.595125 0.294486 0
M  V30 1214 H 115.845 -1.46955 1.42356 0
M  V30 1215 H 115.855 -3.90434 1.18428 0
M  V30 1216 H 114.53 -3.49132 2.26008 0
M  V30 1217 H 113.107 -3.70285 0.440868 0
M  V30 1218 N 115.292 -0.849877 -1.32721 0
M  V30 1219 C 116.539 -0.450923 -1.97416 0
M  V30 1220 C 116.867 0.992376 -1.67279 0
M  V30 1221 O 116.122 1.71048 -0.950845 0
M  V30 1222 C 116.421 -0.631272 -3.51781 0
M  V30 1223 C 116.087 -2.04432 -4.01894 0
M  V30 1224 C 114.749 -2.4308 -4.1529 0
M  V30 1225 C 117.101 -2.96679 -4.28522 0
M  V30 1226 C 114.429 -3.73257 -4.52654 0
M  V30 1227 C 116.781 -4.26349 -4.67343 0
M  V30 1228 C 115.445 -4.64939 -4.78945 0
M  V30 1229 H 114.715 -0.165004 -0.722395 0
M  V30 1230 H 117.362 -1.07901 -1.58207 0
M  V30 1231 H 115.667 0.0800767 -3.91718 0
M  V30 1232 H 117.364 -0.302709 -3.99856 0
M  V30 1233 H 113.954 -1.73419 -3.91949 0
M  V30 1234 H 118.138 -2.68054 -4.17685 0
M  V30 1235 H 113.394 -4.02946 -4.59831 0
M  V30 1236 H 117.568 -4.97895 -4.86902 0
M  V30 1237 H 115.195 -5.65855 -5.07654 0
M  V30 1238 N 116.77 1.45427 -0.607355 0
M  V30 1239 C 118.047 1.9557 -0.0344566 0
M  V30 1240 C 118.427 1.54979 1.43334 0
M  V30 1241 O 117.775 0.812241 2.13576 0
M  V30 1242 C 117.985 3.48226 -0.232321 0
M  V30 1243 C 119.333 4.2445 -0.113001 0
M  V30 1244 O 120.357 3.55829 -0.162431 0
M  V30 1245 O 119.216 5.465 0.00209442 0
M  V30 1246 H 116.31 0.826222 0.0358667 0
M  V30 1247 H 118.856 1.55594 -0.6774 0
M  V30 1248 H 117.628 3.70739 -1.25174 0
M  V30 1249 H 117.251 3.95092 0.445896 0
M  V30 1250 N 118.248 0.346503 1.53744 0
M  V30 1251 C 119.494 -0.249473 2.0126 0
M  V30 1252 C 119.827 -1.49965 1.23386 0
M  V30 1253 O 119.102 -1.91811 0.32229 0
M  V30 1254 C 119.385 -0.560643 3.55709 0
M  V30 1255 C 119.238 0.701836 4.44291 0
M  V30 1256 C 120.557 -1.36905 4.18264 0
M  V30 1257 H 117.676 -0.0891987 0.731582 0
M  V30 1258 H 120.318 0.467624 1.84156 0
M  V30 1259 H 118.468 -1.17156 3.70414 0
M  V30 1260 H 120.14 1.33974 4.41417 0
M  V30 1261 H 118.383 1.32612 4.13033 0
M  V30 1262 H 119.054 0.43933 5.50249 0
M  V30 1263 H 121.53 -0.852448 4.07275 0
M  V30 1264 H 120.406 -1.55553 5.26398 0
M  V30 1265 H 120.667 -2.37203 3.73078 0
M  V30 1266 N 119.726 -1.57421 0.075193 0
M  V30 1267 C 120.636 -2.1642 -0.905511 0
M  V30 1268 C 121.652 -1.12828 -1.32461 0
M  V30 1269 O 122.828 -1.45109 -1.39661 0
M  V30 1270 C 119.893 -2.71693 -2.15369 0
M  V30 1271 C 118.954 -3.90171 -1.79068 0
M  V30 1272 C 118.187 -4.42798 -2.97936 0
M  V30 1273 O 118.41 -3.94416 -4.12058 0
M  V30 1274 O 117.344 -5.34085 -2.77555 0
M  V30 1275 H 121.17 -3.00588 -0.433626 0
M  V30 1276 H 118.755 -1.48664 -0.148067 0
M  V30 1277 H 120.637 -3.07104 -2.88557 0
M  V30 1278 H 119.312 -1.90582 -2.61649 0
M  V30 1279 H 118.219 -3.59606 -1.03122 0
M  V30 1280 H 119.552 -4.72584 -1.37569 0
M  V30 1281 N 121.204 0.198386 -1.56346 0
M  V30 1282 C 122.134 1.24865 -1.9731 0
M  V30 1283 C 123.115 1.47651 -0.844576 0
M  V30 1284 O 124.3 1.59444 -1.10866 0
M  V30 1285 C 121.43 2.59358 -2.30977 0
M  V30 1286 C 120.384 2.5119 -3.46537 0
M  V30 1287 C 119.71 3.89926 -3.65871 0
M  V30 1288 C 121.01 2.03977 -4.80823 0
M  V30 1289 H 122.704 0.908252 -2.85291 0
M  V30 1290 H 120.25 0.435462 -1.37258 0
M  V30 1291 H 122.203 3.33011 -2.58228 0
M  V30 1292 H 120.927 2.95132 -1.39874 0
M  V30 1293 H 119.586 1.79993 -3.19371 0
M  V30 1294 H 119.234 4.23046 -2.72105 0
M  V30 1295 H 118.934 3.85336 -4.4361 0
M  V30 1296 H 120.458 4.65205 -3.95495 0
M  V30 1297 H 121.872 2.67386 -5.07127 0
M  V30 1298 H 120.269 2.10397 -5.62008 0
M  V30 1299 H 121.339 0.992861 -4.74626 0
M  V30 1300 N 122.682 1.50554 0.465978 0
M  V30 1301 C 124.093 1.54599 1.04671 0
M  V30 1302 C 124.444 0.352488 1.93008 0
M  V30 1303 O 123.569 -0.534044 2.09707 0
M  V30 1304 C 124.164 2.80166 1.90505 0
M  V30 1305 C 122.723 2.86876 2.43678 0
M  V30 1306 C 121.87 2.48947 1.22151 0
M  V30 1307 H 124.821 1.56744 0.248384 0
M  V30 1308 H 124.842 2.62311 2.75633 0
M  V30 1309 H 124.354 3.67013 1.26186 0
M  V30 1310 H 122.455 2.04393 3.11536 0
M  V30 1311 H 122.568 3.89885 2.78436 0
M  V30 1312 H 120.932 2.01498 1.5579 0
M  V30 1313 H 121.715 3.38107 0.594866 0
M  V30 1314 N 124.16 -0.719506 1.40217 0
M  V30 1315 C 125.107 -1.83359 1.40172 0
M  V30 1316 C 126.077 -1.64065 0.259206 0
M  V30 1317 O 127.262 -1.85254 0.456677 0
M  V30 1318 C 124.402 -3.2103 1.26624 0
M  V30 1319 C 123.515 -3.51923 2.50548 0
M  V30 1320 C 122.65 -4.79079 2.29471 0
M  V30 1321 C 121.689 -5.02863 3.48992 0
M  V30 1322 N 120.826 -6.2123 3.27135 0
M  V30 1323 H 125.666 -1.82733 2.35399 0
M  V30 1324 H 123.203 -0.892688 1.16917 0
M  V30 1325 H 125.161 -4.00524 1.16776 0
M  V30 1326 H 123.791 -3.20895 0.350176 0
M  V30 1327 H 122.843 -2.67014 2.70939 0
M  V30 1328 H 124.155 -3.6541 3.39525 0
M  V30 1329 H 123.309 -5.66582 2.16955 0
M  V30 1330 H 122.048 -4.67794 1.37913 0
M  V30 1331 H 121.053 -4.13816 3.6199 0
M  V30 1332 H 122.278 -5.16023 4.41472 0
M  V30 1333 H 120.224 -6.11204 2.38256 0
M  V30 1334 H 120.141 -6.35375 4.09675 0
M  V30 1335 H 121.409 -7.11532 3.18344 0
M  V30 1336 N 125.638 -1.25649 -0.95132 0
M  V30 1337 C 126.866 -1.13343 -1.73092 0
M  V30 1338 C 127.281 0.312434 -1.86197 0
M  V30 1339 O 126.638 1.21465 -1.36207 0
M  V30 1340 C 126.689 -1.78602 -3.14299 0
M  V30 1341 O 126.41 -3.17537 -3.01831 0
M  V30 1342 C 127.911 -1.72119 -4.08522 0
M  V30 1343 H 125.131 -0.395181 -0.542285 0
M  V30 1344 H 127.675 -1.66076 -1.19328 0
M  V30 1345 H 125.83 -1.29832 -3.64996 0
M  V30 1346 H 126.244 -3.49676 -3.90931 0
M  V30 1347 H 127.718 -2.22435 -5.052 0
M  V30 1348 H 128.195 -0.685635 -4.33815 0
M  V30 1349 H 128.801 -2.20393 -3.63741 0
M  V30 1350 N 127.117 1.15442 -1.07289 0
M  V30 1351 C 128.08 2.18358 -0.696591 0
M  V30 1352 C 129.08 1.58637 0.262837 0
M  V30 1353 O 130.27 1.74145 0.0438809 0
M  V30 1354 C 127.402 3.4089 -0.0266151 0
M  V30 1355 H 128.595 2.53162 -1.60776 0
M  V30 1356 H 126.148 1.29893 -0.869342 0
M  V30 1357 H 126.883 3.11653 0.896822 0
M  V30 1358 H 126.668 3.85495 -0.716657 0
M  V30 1359 H 128.158 4.17009 0.222028 0
M  V30 1360 N 128.595 0.856903 1.32268 0
M  V30 1361 C 129.842 0.461386 1.97174 0
M  V30 1362 C 130.17 -0.983491 1.67803 0
M  V30 1363 O 129.425 -1.70541 0.959903 0
M  V30 1364 C 129.724 0.649919 3.51441 0
M  V30 1365 C 129.39 2.0656 4.00804 0
M  V30 1366 C 128.052 2.45279 4.13995 0
M  V30 1367 C 130.404 2.98947 4.26943 0
M  V30 1368 C 127.732 3.75653 4.50668 0
M  V30 1369 C 130.084 4.28822 4.65075 0
M  V30 1370 C 128.748 4.67472 4.76472 0
M  V30 1371 H 128.018 0.168833 0.72151 0
M  V30 1372 H 130.665 1.08739 1.57633 0
M  V30 1373 H 128.97 -0.0593018 3.91755 0
M  V30 1374 H 130.667 0.32391 3.9969 0
M  V30 1375 H 127.257 1.75495 3.91024 0
M  V30 1376 H 131.441 2.70265 4.16258 0
M  V30 1377 H 126.697 4.05379 4.57688 0
M  V30 1378 H 130.871 5.0047 4.84255 0
M  V30 1379 H 128.498 5.68539 5.04646 0
M  V30 1380 N 130.073 -1.45103 0.615059 0
M  V30 1381 C 131.322 -2.01396 0.110718 0
M  V30 1382 C 131.635 -1.48834 -1.26916 0
M  V30 1383 O 132.841 -1.97152 -1.86664 0
M  V30 1384 C 131.297 -3.59599 0.14723 0
M  V30 1385 C 130.905 -4.21158 1.52743 0
M  V30 1386 C 132.649 -4.23428 -0.30148 0
M  V30 1387 C 130.556 -5.71535 1.51992 0
M  V30 1388 H 129.486 -0.753061 0.0376241 0
M  V30 1389 H 132.137 -1.66494 0.77149 0
M  V30 1390 H 130.519 -3.91724 -0.580339 0
M  V30 1391 H 131.693 -4.00594 2.2773 0
M  V30 1392 H 130.008 -3.69552 1.91886 0
M  V30 1393 H 132.605 -5.33703 -0.326392 0
M  V30 1394 H 132.948 -3.94629 -1.32565 0
M  V30 1395 H 133.481 -3.96047 0.373065 0
M  V30 1396 H 130.22 -6.05044 2.52193 0
M  V30 1397 H 129.74 -5.94268 0.81274 0
M  V30 1398 H 131.419 -6.34873 1.24681 0
M  V30 1399 N 131.551 -0.354651 -1.53558 0
M  V30 1400 C 132.779 0.239515 -2.05509 0
M  V30 1401 C 133.194 1.4333 -1.2289 0
M  V30 1402 O 132.551 1.80538 -0.266899 0
M  V30 1403 C 132.602 0.643719 -3.55723 0
M  V30 1404 O 132.323 -0.502602 -4.35207 0
M  V30 1405 C 133.824 1.29743 -4.23889 0
M  V30 1406 H 131.044 0.0442697 -0.669538 0
M  V30 1407 H 133.588 -0.509856 -1.98042 0
M  V30 1408 H 131.743 1.34302 -3.63376 0
M  V30 1409 H 132.157 -0.178172 -5.24197 0
M  V30 1410 H 133.631 1.53091 -5.30346 0
M  V30 1411 H 134.108 2.25441 -3.76926 0
M  V30 1412 H 134.714 0.639865 -4.20459 0
M  V30 1413 N 133.029 1.57378 -0.0835403 0
M  V30 1414 C 133.977 2.14602 0.89714 0
M  V30 1415 C 134.971 1.08589 1.30018 0
M  V30 1416 O 136.177 1.26952 1.27606 0
M  V30 1417 H 132.552 0.686346 0.3073 0
M  V30 1418 H 134.523 2.95845 0.38969 0
M  V30 1419 C 133.272 2.73188 2.15089 0
M  V30 1420 H 132.595 3.54442 1.84962 0
M  V30 1421 H 134.035 3.1681 2.81793 0
M  V30 1422 C 132.494 1.68517 2.91725 0
M  V30 1423 O 133.024 1.11718 3.85852 0
M  V30 1424 N 131.23 1.39277 2.55049 0
M  V30 1425 H 130.777 1.85655 1.78577 0
M  V30 1426 H 130.735 0.694791 3.06627 0
M  V30 1427 N 134.507 -0.190092 1.56449 0
M  V30 1428 C 135.754 -0.909705 1.80916 0
M  V30 1429 C 136.082 -1.83047 0.657583 0
M  V30 1430 O 135.337 -1.92428 -0.356356 0
M  V30 1431 C 135.636 -1.75382 3.1141 0
M  V30 1432 C 135.302 -0.983606 4.40041 0
M  V30 1433 C 133.964 -0.770967 4.74984 0
M  V30 1434 C 136.316 -0.442024 5.19322 0
M  V30 1435 C 133.644 -0.0053448 5.867 0
M  V30 1436 C 135.996 0.310412 6.31838 0
M  V30 1437 C 134.66 0.534023 6.6536 0
M  V30 1438 H 133.93 -0.332885 0.662019 0
M  V30 1439 H 136.577 -0.175762 1.90692 0
M  V30 1440 H 134.882 -2.55659 2.96893 0
M  V30 1441 H 136.579 -2.31331 3.27547 0
M  V30 1442 H 133.169 -1.15936 4.12622 0
M  V30 1443 H 137.353 -0.593693 4.92736 0
M  V30 1444 H 132.609 0.177825 6.11141 0
M  V30 1445 H 136.783 0.737419 6.92485 0
M  V30 1446 H 134.41 1.12918 7.51767 0
M  V30 1447 N 135.985 -1.50799 -0.457987 0
M  V30 1448 C 137.213 -1.66218 -1.23203 0
M  V30 1449 C 137.628 -0.350894 -1.85511 0
M  V30 1450 O 136.985 0.668546 -1.69814 0
M  V30 1451 C 137.036 -2.76291 -2.33121 0
M  V30 1452 O 136.757 -4.02338 -1.73366 0
M  V30 1453 C 138.258 -3.028 -3.2377 0
M  V30 1454 H 135.478 -0.558361 -0.372121 0
M  V30 1455 H 138.022 -1.97099 -0.545179 0
M  V30 1456 H 136.177 -2.48068 -2.97558 0
M  V30 1457 H 136.591 -4.63312 -2.4585 0
M  V30 1458 H 138.065 -3.8345 -3.97077 0
M  V30 1459 H 138.542 -2.14385 -3.83322 0
M  V30 1460 H 139.148 -3.32604 -2.65056 0
M  V30 1461 N 137.463 0.71206 -1.40597 0
M  V30 1462 C 138.393 1.83889 -1.43899 0
M  V30 1463 C 139.374 1.67442 -0.299504 0
M  V30 1464 O 140.559 1.87421 -0.508624 0
M  V30 1465 C 137.689 3.21877 -1.30431 0
M  V30 1466 C 136.643 3.53002 -2.42019 0
M  V30 1467 C 135.969 4.90172 -2.13626 0
M  V30 1468 C 137.269 3.53643 -3.84362 0
M  V30 1469 H 138.963 1.81383 -2.38203 0
M  V30 1470 H 136.509 0.871237 -1.14654 0
M  V30 1471 H 138.462 4.00404 -1.31357 0
M  V30 1472 H 137.186 3.24968 -0.326049 0
M  V30 1473 H 135.845 2.76818 -2.40349 0
M  V30 1474 H 135.493 4.89869 -1.14182 0
M  V30 1475 H 135.193 5.11962 -2.88389 0
M  V30 1476 H 136.717 5.71028 -2.1624 0
M  V30 1477 H 138.131 4.22203 -3.87837 0
M  V30 1478 H 136.528 3.86961 -4.58673 0
M  V30 1479 H 137.598 2.52954 -4.13693 0
M  V30 1480 N 138.941 1.26152 0.944643 0
M  V30 1481 C 140.169 1.14259 1.72489 0
M  V30 1482 C 140.584 -0.302555 1.8636 0
M  V30 1483 O 139.941 -1.20741 1.36849 0
M  V30 1484 C 139.992 1.80266 3.13347 0
M  V30 1485 O 139.713 3.19133 3.00143 0
M  V30 1486 C 141.214 1.74283 4.07603 0
M  V30 1487 H 138.434 0.398051 0.540181 0
M  V30 1488 H 140.978 1.66706 1.18446 0
M  V30 1489 H 139.133 1.31766 3.64303 0
M  V30 1490 H 139.547 3.51744 3.89071 0
M  V30 1491 H 141.021 2.25111 5.04013 0
M  V30 1492 H 141.498 0.708631 4.33446 0
M  V30 1493 H 142.104 2.22319 3.62567 0
M  V30 1494 N 140.419 -1.14872 1.07899 0
M  V30 1495 C 141.668 -1.85135 0.800499 0
M  V30 1496 C 141.981 -1.83547 -0.676014 0
M  V30 1497 O 143.187 -2.49548 -1.06948 0
M  V30 1498 C 141.643 -3.3231 1.38197 0
M  V30 1499 C 141.251 -3.42329 2.8899 0
M  V30 1500 C 142.995 -4.0772 1.18174 0
M  V30 1501 C 140.902 -4.83684 3.403 0
M  V30 1502 H 139.832 -0.693563 0.29578 0
M  V30 1503 H 142.483 -1.29532 1.29976 0
M  V30 1504 H 140.865 -3.87618 0.810431 0
M  V30 1505 H 142.039 -2.97097 3.52236 0
M  V30 1506 H 140.354 -2.80369 3.07867 0
M  V30 1507 H 142.951 -5.12049 1.5398 0
M  V30 1508 H 143.294 -4.16124 0.12117 0
M  V30 1509 H 143.827 -3.58696 1.71994 0
M  V30 1510 H 140.566 -4.80465 4.45907 0
M  V30 1511 H 140.086 -5.29474 2.81811 0
M  V30 1512 H 141.765 -5.52558 3.36584 0
M  V30 1513 N 141.898 -0.863906 -1.31812 0
M  V30 1514 C 143.175 -0.39275 -1.91616 0
M  V30 1515 C 143.555 1.12461 -1.7865 0
M  V30 1516 O 142.903 1.95045 -1.19037 0
M  V30 1517 C 143.113 -0.867385 -3.38049 0
M  V30 1518 C 144.461 -0.889966 -4.15168 0
M  V30 1519 O 145.485 -0.812635 -3.46806 0
M  V30 1520 O 144.344 -1.00079 -5.37258 0
M  V30 1521 H 141.438 -0.116358 -0.818773 0
M  V30 1522 H 143.984 -0.951418 -1.40521 0
M  V30 1523 H 142.756 -1.91081 -3.41473 0
M  V30 1524 H 142.379 -0.286687 -3.96565 0
M  V30 1525 N 143.376 1.44774 -0.622745 0
M  V30 1526 C 144.624 2.01721 -0.123655 0
M  V30 1527 C 144.945 1.49172 1.25589 0
M  V30 1528 O 144.215 0.691974 1.83272 0
M  V30 1529 H 142.795 0.745777 -0.0427225 0
M  V30 1530 H 145.457 1.77382 -0.807559 0
M  V30 1531 H 144.553 3.11984 -0.0849534 0
M  V30 1532 N 144.854 0.36279 1.53368 0
M  V30 1533 C 146.1 -0.228113 2.01513 0
M  V30 1534 C 146.433 -1.48648 1.2497 0
M  V30 1535 O 145.708 -1.91459 0.342616 0
M  V30 1536 C 145.991 -0.522884 3.56284 0
M  V30 1537 C 145.844 0.74892 4.43521 0
M  V30 1538 C 147.163 -1.32461 4.19693 0
M  V30 1539 H 144.282 -0.0814343 0.732487 0
M  V30 1540 H 146.924 0.48713 1.83649 0
M  V30 1541 H 145.074 -1.1322 3.71636 0
M  V30 1542 H 146.746 1.38648 4.39971 0
M  V30 1543 H 144.989 1.36986 4.11603 0
M  V30 1544 H 145.66 0.497667 5.49752 0
M  V30 1545 H 148.136 -0.809203 4.08156 0
M  V30 1546 H 147.012 -1.49961 5.28018 0
M  V30 1547 H 147.273 -2.33232 3.75573 0
M  V30 1548 N 146.332 -1.57332 0.0918853 0
M  V30 1549 C 147.56 -1.98574 -0.581048 0
M  V30 1550 C 147.975 -0.970903 -1.61923 0
M  V30 1551 O 147.332 0.0399054 -1.82456 0
M  V30 1552 C 147.383 -3.39872 -1.23164 0
M  V30 1553 O 147.104 -4.37469 -0.234989 0
M  V30 1554 C 148.605 -3.96099 -1.99049 0
M  V30 1555 H 145.825 -0.65261 -0.156018 0
M  V30 1556 H 148.369 -2.0379 0.170225 0
M  V30 1557 H 146.524 -3.35679 -1.93386 0
M  V30 1558 H 146.938 -5.19751 -0.70418 0
M  V30 1559 H 148.412 -4.97127 -2.39934 0
M  V30 1560 H 148.889 -3.3374 -2.85507 0
M  V30 1561 H 149.495 -4.03755 -1.3365 0
M  V30 1562 N 147.81 0.181792 -1.56548 0
M  V30 1563 C 149.04 0.914618 -1.85252 0
M  V30 1564 C 149.448 1.76791 -0.673914 0
M  V30 1565 O 148.791 1.80009 0.366416 0
M  V30 1566 C 148.853 1.85019 -3.08234 0
M  V30 1567 C 148.517 1.17754 -4.41569 0
M  V30 1568 C 149.514 0.548035 -5.17003 0
M  V30 1569 C 147.199 1.17742 -4.88305 0
M  V30 1570 C 149.193 -0.0726128 -6.37359 0
M  V30 1571 C 146.88 0.552946 -6.08593 0
M  V30 1572 C 147.878 -0.070978 -6.82963 0
M  V30 1573 O 147.566 -0.685635 -8.00971 0
M  V30 1574 H 147.298 0.271695 -0.618998 0
M  V30 1575 H 149.852 0.189944 -2.0452 0
M  V30 1576 H 148.082 2.61491 -2.84885 0
M  V30 1577 H 149.771 2.45195 -3.23472 0
M  V30 1578 H 150.537 0.540174 -4.81982 0
M  V30 1579 H 146.416 1.65246 -4.30366 0
M  V30 1580 H 149.96 -0.560213 -6.95347 0
M  V30 1581 H 145.857 0.558354 -6.43081 0
M  V30 1582 H 146.625 -0.58385 -8.16415 0
M  V30 1583 N 149.288 1.51039 0.449983 0
M  V30 1584 C 150.699 1.557 1.03026 0
M  V30 1585 C 151.05 0.372939 1.92623 0
M  V30 1586 O 150.175 -0.511771 2.10261 0
M  V30 1587 C 150.77 2.82171 1.87523 0
M  V30 1588 C 149.329 2.89444 2.40622 0
M  V30 1589 C 148.476 2.50228 1.19504 0
M  V30 1590 H 151.427 1.56999 0.231745 0
M  V30 1591 H 151.448 2.65219 2.72835 0
M  V30 1592 H 150.96 3.68331 1.22286 0
M  V30 1593 H 149.061 2.07685 3.0935 0
M  V30 1594 H 149.174 3.92816 2.74285 0
M  V30 1595 H 147.538 2.03139 1.53644 0
M  V30 1596 H 148.321 3.38719 0.558972 0
M  V30 1597 N 150.766 -0.704594 1.40972 0
M  V30 1598 C 152.014 -1.46169 1.39568 0
M  V30 1599 C 152.335 -1.95 0.00253745 0
M  V30 1600 O 151.605 -1.71095 -0.954114 0
M  V30 1601 H 150.185 -0.542326 0.513704 0
M  V30 1602 H 152.847 -0.834553 1.76128 0
M  V30 1603 H 151.943 -2.32922 2.07735 0
M  V30 1604 N 152.244 -1.26651 -0.937939 0
M  V30 1605 C 153.192 -1.08308 -2.05845 0
M  V30 1606 C 154.186 -0.0090757 -1.69398 0
M  V30 1607 O 155.392 -0.166007 -1.79233 0
M  V30 1608 H 151.767 -0.333416 -0.674046 0
M  V30 1609 H 153.738 -2.03261 -2.18467 0
M  V30 1610 C 152.487 -0.736229 -3.39816 0
M  V30 1611 H 151.81 -1.55453 -3.6834 0
M  V30 1612 H 153.25 -0.64769 -4.19024 0
M  V30 1613 C 151.709 0.558824 -3.32233 0
M  V30 1614 O 152.239 1.59621 -3.68624 0
M  V30 1615 N 150.445 0.550657 -2.85335 0
M  V30 1616 H 149.992 -0.293943 -2.55917 0
M  V30 1617 H 149.95 1.41726 -2.80644 0
M  V30 1618 N 153.722 1.14298 -1.08507 0
M  V30 1619 C 154.968 1.85633 -0.816581 0
M  V30 1620 C 155.301 1.82784 0.656021 0
M  V30 1621 O 154.576 1.25926 1.48233 0
M  V30 1622 C 154.859 3.34223 -1.34041 0
M  V30 1623 C 154.712 3.45639 -2.87843 0
M  V30 1624 C 156.031 4.29356 -0.9665 0
M  V30 1625 H 153.15 0.67402 -0.298104 0
M  V30 1626 H 155.792 1.34214 -1.34487 0
M  V30 1627 H 153.942 3.78144 -0.89104 0
M  V30 1628 H 155.614 3.10498 -3.41158 0
M  V30 1629 H 153.857 2.86817 -3.25451 0
M  V30 1630 H 154.528 4.50089 -3.19569 0
M  V30 1631 H 157.004 3.93457 -1.35391 0
M  V30 1632 H 155.88 5.3178 -1.3602 0
M  V30 1633 H 156.141 4.41919 0.126362 0
M  V30 1634 N 155.201 0.870884 1.31352 0
M  V30 1635 C 156.148 0.325425 2.28494 0
M  V30 1636 C 157.118 -0.576615 1.5577 0
M  V30 1637 O 158.303 -0.508059 1.83911 0
M  V30 1638 C 155.443 -0.466283 3.41935 0
M  V30 1639 C 154.556 0.463378 4.29508 0
M  V30 1640 C 153.691 -0.342544 5.30094 0
M  V30 1641 C 152.73 0.583486 6.09313 0
M  V30 1642 N 151.867 -0.186244 7.01853 0
M  V30 1643 H 156.707 1.15901 2.74538 0
M  V30 1644 H 154.244 0.58294 1.35056 0
M  V30 1645 H 156.202 -0.941085 4.06447 0
M  V30 1646 H 154.832 -1.26456 2.97 0
M  V30 1647 H 153.884 1.05663 3.65431 0
M  V30 1648 H 155.196 1.1734 4.84802 0
M  V30 1649 H 154.35 -0.879816 6.00287 0
M  V30 1650 H 153.089 -1.08585 4.75458 0
M  V30 1651 H 152.094 1.13251 5.3801 0
M  V30 1652 H 153.319 1.32566 6.66035 0
M  V30 1653 H 151.265 -0.912348 6.49625 0
M  V30 1654 H 151.182 0.464422 7.54572 0
M  V30 1655 H 152.45 -0.704716 7.76308 0
M  V30 1656 N 156.679 -1.44442 0.630414 0
M  V30 1657 C 157.589 -2.34476 -0.0761693 0
M  V30 1658 C 158.605 -1.52576 -0.836449 0
M  V30 1659 O 159.781 -1.85307 -0.788874 0
M  V30 1660 C 156.846 -3.30545 -1.04599 0
M  V30 1661 C 155.907 -4.28352 -0.28516 0
M  V30 1662 C 155.14 -5.19831 -1.20878 0
M  V30 1663 O 155.363 -5.15223 -2.44747 0
M  V30 1664 O 154.297 -5.97892 -0.693491 0
M  V30 1665 H 158.123 -2.96345 0.664324 0
M  V30 1666 H 155.708 -1.44203 0.39061 0
M  V30 1667 H 157.59 -3.89681 -1.60396 0
M  V30 1668 H 156.265 -2.7121 -1.76711 0
M  V30 1669 H 155.172 -3.72764 0.315837 0
M  V30 1670 H 156.505 -4.90605 0.395924 0
M  V30 1671 N 158.157 -0.370918 -1.53173 0
M  V30 1672 C 159.104 0.473035 -2.259 0
M  V30 1673 C 160.074 1.07311 -1.26781 0
M  V30 1674 O 161.259 1.1046 -1.55574 0
M  V30 1675 C 158.399 1.60405 -3.05556 0
M  V30 1676 C 157.512 1.02863 -4.19575 0
M  V30 1677 C 156.647 2.12918 -4.86661 0
M  V30 1678 C 155.686 1.52869 -5.92704 0
M  V30 1679 N 154.823 2.56779 -6.53459 0
M  V30 1680 H 159.663 -0.153649 -2.97604 0
M  V30 1681 H 157.2 -0.0875946 -1.46839 0
M  V30 1682 H 159.158 2.27034 -3.50016 0
M  V30 1683 H 157.788 2.20131 -2.36097 0
M  V30 1684 H 156.84 0.252465 -3.79561 0
M  V30 1685 H 158.152 0.549642 -4.95762 0
M  V30 1686 H 157.306 2.87356 -5.34333 0
M  V30 1687 H 156.045 2.6417 -4.09958 0
M  V30 1688 H 155.05 0.769479 -5.44389 0
M  V30 1689 H 156.275 1.02435 -6.7133 0
M  V30 1690 H 154.221 3.07235 -5.79606 0
M  V30 1691 H 154.138 2.13583 -7.25202 0
M  V30 1692 H 155.406 3.30903 -7.05779 0
M  V30 1693 N 159.635 1.57281 -0.100228 0
M  V30 1694 C 160.545 2.17833 0.870965 0
M  V30 1695 C 161.561 1.14921 1.30649 0
M  V30 1696 O 162.737 1.47313 1.37335 0
M  V30 1697 C 159.802 2.75085 2.1102 0
M  V30 1698 C 158.863 3.9297 1.72838 0
M  V30 1699 C 158.096 4.47482 2.90854 0
M  V30 1700 O 158.319 4.00922 4.05731 0
M  V30 1701 O 157.253 5.38433 2.69023 0
M  V30 1702 H 161.079 3.0124 0.38575 0
M  V30 1703 H 158.664 1.48881 0.124397 0
M  V30 1704 H 160.546 3.11656 2.83634 0
M  V30 1705 H 159.221 1.94721 2.58584 0
M  V30 1706 H 158.128 3.61201 0.973883 0
M  V30 1707 H 159.461 4.74713 1.30033 0
M  V30 1708 N 161.113 -0.173488 1.56642 0
M  V30 1709 C 162.359 -0.891784 1.8214 0
M  V30 1710 C 162.692 -1.8199 0.677736 0
M  V30 1711 O 161.967 -1.91842 -0.320446 0
M  V30 1712 C 162.25 -1.68933 3.18015 0
M  V30 1713 C 162.103 -0.784487 4.42906 0
M  V30 1714 C 163.422 -2.65748 3.50808 0
M  V30 1715 H 160.541 -0.322761 0.662567 0
M  V30 1716 H 163.183 -0.158095 1.89341 0
M  V30 1717 H 161.333 -2.31482 3.12007 0
M  V30 1718 H 163.005 -0.172046 4.60979 0
M  V30 1719 H 161.248 -0.0924117 4.33702 0
M  V30 1720 H 161.919 -1.37799 5.34524 0
M  V30 1721 H 164.395 -2.13327 3.57255 0
M  V30 1722 H 163.271 -3.18619 4.4696 0
M  V30 1723 H 163.532 -3.45842 2.75401 0
M  V30 1724 N 162.591 -1.51276 -0.441967 0
M  V30 1725 C 163.554 -1.7167 -1.51862 0
M  V30 1726 C 164.554 -0.586793 -1.49711 0
M  V30 1727 O 165.744 -0.854276 -1.51815 0
M  V30 1728 C 162.876 -1.76889 -2.91416 0
M  V30 1729 H 164.069 -2.67754 -1.35084 0
M  V30 1730 H 161.622 -1.41196 -0.670333 0
M  V30 1731 H 162.357 -0.826026 -3.13604 0
M  V30 1732 H 162.142 -2.59001 -2.94382 0
M  V30 1733 H 163.632 -1.94522 -3.69528 0
M  V30 1734 N 164.069 0.697108 -1.41344 0
M  V30 1735 C 165.016 1.81106 -1.43071 0
M  V30 1736 C 165.986 1.63632 -0.285275 0
M  V30 1737 O 167.171 1.84504 -0.486091 0
M  V30 1738 C 164.311 3.18975 -1.31715 0
M  V30 1739 C 163.424 3.47892 -2.56115 0
M  V30 1740 C 162.559 4.75367 -2.37064 0
M  V30 1741 C 161.598 4.97247 -3.56948 0
M  V30 1742 N 160.735 6.15947 -3.36977 0
M  V30 1743 H 165.575 1.78965 -2.38276 0
M  V30 1744 H 163.112 0.873975 -1.18322 0
M  V30 1745 H 165.07 3.98615 -1.23133 0
M  V30 1746 H 163.7 3.20297 -0.401183 0
M  V30 1747 H 162.752 2.62669 -2.75153 0
M  V30 1748 H 164.064 3.59962 -3.45295 0
M  V30 1749 H 163.218 5.63059 -2.25941 0
M  V30 1750 H 161.957 4.65541 -1.45338 0
M  V30 1751 H 160.962 4.08004 -3.68527 0
M  V30 1752 H 162.187 5.08934 -4.49626 0
M  V30 1753 H 160.133 6.07336 -2.47949 0
M  V30 1754 H 160.05 6.28777 -4.19732 0
M  V30 1755 H 161.318 7.06377 -3.29623 0
M  V30 1756 N 165.547 1.27147 0.931209 0
M  V30 1757 C 166.494 1.09568 2.03134 0
M  V30 1758 C 167.464 -0.00222433 1.661 0
M  V30 1759 O 168.649 0.159439 1.90133 0
M  V30 1760 C 165.789 0.745231 3.36957 0
M  V30 1761 C 164.902 1.92041 3.86968 0
M  V30 1762 C 164.037 1.51216 5.09222 0
M  V30 1763 C 163.076 2.65504 5.5152 0
M  V30 1764 N 162.213 2.25291 6.64972 0
M  V30 1765 H 167.053 2.03708 2.17502 0
M  V30 1766 H 164.59 1.01411 1.06556 0
M  V30 1767 H 166.548 0.522878 4.1391 0
M  V30 1768 H 165.178 -0.159202 3.22407 0
M  V30 1769 H 164.23 2.25541 3.06326 0
M  V30 1770 H 165.542 2.77787 4.1429 0
M  V30 1771 H 164.696 1.25084 5.93666 0
M  V30 1772 H 163.435 0.625749 4.83669 0
M  V30 1773 H 162.44 2.92354 4.65628 0
M  V30 1774 H 163.665 3.54761 5.7907 0
M  V30 1775 H 161.611 1.39098 6.41083 0
M  V30 1776 H 161.528 3.04577 6.91931 0
M  V30 1777 H 162.796 2.02398 7.52765 0
M  V30 1778 N 167.025 -1.13721 1.09112 0
M  V30 1779 C 167.957 -2.1871 0.685467 0
M  V30 1780 C 168.97 -1.60527 -0.271068 0
M  V30 1781 O 170.159 -1.78407 -0.0576148 0
M  V30 1782 C 167.259 -3.38898 -0.0111255 0
M  V30 1783 C 166.432 -4.26597 0.966131 0
M  V30 1784 C 165.491 -5.25324 0.303539 0
M  V30 1785 O 164.517 -5.61213 0.950177 0
M  V30 1786 N 165.719 -5.72779 -0.943651 0
M  V30 1787 H 168.484 -2.54126 1.58871 0
M  V30 1788 H 166.045 -1.29012 0.978143 0
M  V30 1789 H 168.037 -4.02014 -0.465517 0
M  V30 1790 H 166.607 -3.01747 -0.816565 0
M  V30 1791 H 165.827 -3.60306 1.59917 0
M  V30 1792 H 167.115 -4.82048 1.6281 0
M  V30 1793 H 166.513 -5.45762 -1.48862 0
M  V30 1794 H 165.07 -6.37847 -1.34142 0
M  V30 1795 N 168.503 -0.877838 -1.30888 0
M  V30 1796 C 169.733 -0.506678 -2.00291 0
M  V30 1797 C 170.141 0.907449 -1.66018 0
M  V30 1798 O 169.484 1.60719 -0.88967 0
M  V30 1799 C 169.546 -0.59323 -3.54572 0
M  V30 1800 C 169.21 -1.97038 -4.12341 0
M  V30 1801 C 170.207 -2.93889 -4.28865 0
M  V30 1802 C 167.892 -2.27383 -4.47886 0
M  V30 1803 C 169.886 -4.19224 -4.80136 0
M  V30 1804 C 167.573 -3.52965 -4.98857 0
M  V30 1805 C 168.571 -4.48701 -5.14934 0
M  V30 1806 O 168.259 -5.72056 -5.64808 0
M  V30 1807 H 167.991 -0.1951 -0.647234 0
M  V30 1808 H 170.545 -1.18301 -1.6791 0
M  V30 1809 H 168.775 0.140057 -3.86446 0
M  V30 1810 H 170.464 -0.234372 -4.05223 0
M  V30 1811 H 171.23 -2.71756 -4.01714 0
M  V30 1812 H 167.109 -1.53639 -4.34645 0
M  V30 1813 H 170.653 -4.93956 -4.92599 0
M  V30 1814 H 166.55 -3.74939 -5.25443 0
M  V30 1815 H 167.318 -5.74337 -5.83163 0
M  V30 1816 N 169.982 1.44106 -0.638065 0
M  V30 1817 C 170.892 2.34513 0.0637334 0
M  V30 1818 C 171.908 1.53018 0.828346 0
M  V30 1819 O 173.084 1.85723 0.779036 0
M  V30 1820 C 170.149 3.31095 1.02844 0
M  V30 1821 C 169.21 4.28497 0.26244 0
M  V30 1822 C 168.443 5.20465 1.1812 0
M  V30 1823 O 168.666 5.16514 2.42011 0
M  V30 1824 O 167.6 5.98251 0.661774 0
M  V30 1825 H 171.426 2.95989 -0.68003 0
M  V30 1826 H 169.011 1.43994 -0.398252 0
M  V30 1827 H 170.893 3.90526 1.58327 0
M  V30 1828 H 169.568 2.72144 1.7527 0
M  V30 1829 H 168.475 3.72592 -0.335602 0
M  V30 1830 H 169.808 4.90388 -0.421936 0
M  V30 1831 N 171.46 0.379036 1.52974 0
M  V30 1832 C 172.407 -0.461048 2.26148 0
M  V30 1833 C 173.377 -1.06637 1.27349 0
M  V30 1834 O 174.562 -1.09633 1.56157 0
M  V30 1835 C 171.702 -1.58782 3.06402 0
M  V30 1836 C 170.815 -1.00636 4.20115 0
M  V30 1837 C 169.95 -2.10334 4.87784 0
M  V30 1838 C 168.989 -1.49724 5.93506 0
M  V30 1839 N 168.126 -2.5331 6.54812 0
M  V30 1840 H 172.966 0.169429 2.97518 0
M  V30 1841 H 170.503 0.0953806 1.4679 0
M  V30 1842 H 172.461 -2.25174 3.51215 0
M  V30 1843 H 171.091 -2.18876 2.37261 0
M  V30 1844 H 170.143 -0.232332 3.7969 0
M  V30 1845 H 171.455 -0.523343 4.96047 0
M  V30 1846 H 170.609 -2.84519 5.35849 0
M  V30 1847 H 169.348 -2.61992 4.11353 0
M  V30 1848 H 168.353 -0.740598 5.44789 0
M  V30 1849 H 169.578 -0.988732 6.71864 0
M  V30 1850 H 167.524 -3.04156 5.81227 0
M  V30 1851 H 167.441 -2.09734 7.26325 0
M  V30 1852 H 168.709 -3.27155 7.07524 0
M  V30 1853 N 172.938 -1.57226 0.108567 0
M  V30 1854 C 173.901 -2.13602 -0.831082 0
M  V30 1855 C 174.901 -1.06841 -1.20173 0
M  V30 1856 O 176.091 -1.32666 -1.12895 0
M  V30 1857 C 173.223 -2.66769 -2.12243 0
M  V30 1858 H 174.416 -2.97951 -0.341317 0
M  V30 1859 H 171.969 -1.55667 -0.14057 0
M  V30 1860 H 172.704 -1.85977 -2.65675 0
M  V30 1861 H 172.489 -3.44839 -1.86625 0
M  V30 1862 H 173.979 -3.10332 -2.79435 0
M  V30 1863 N 174.416 0.165178 -1.56732 0
M  V30 1864 C 175.662 0.882112 -1.82611 0
M  V30 1865 C 175.995 1.81628 -0.687378 0
M  V30 1866 O 175.27 1.92009 0.310267 0
M  V30 1867 C 175.553 1.67245 -3.18906 0
M  V30 1868 C 175.406 0.760987 -4.43316 0
M  V30 1869 C 176.725 2.63884 -3.52212 0
M  V30 1870 H 173.844 0.319242 -0.664269 0
M  V30 1871 H 176.486 0.148052 -1.89422 0
M  V30 1872 H 174.636 2.29824 -3.1323 0
M  V30 1873 H 176.308 0.147596 -4.61064 0
M  V30 1874 H 174.551 0.0694102 -4.33744 0
M  V30 1875 H 175.222 1.34962 -5.35247 0
M  V30 1876 H 177.698 2.11429 -3.58381 0
M  V30 1877 H 176.574 3.16245 -4.48643 0
M  V30 1878 H 176.835 3.44377 -2.77231 0
M  V30 1879 N 175.894 1.51508 0.433938 0
M  V30 1880 C 177.119 1.68443 1.21003 0
M  V30 1881 C 177.544 0.382636 1.84167 0
M  V30 1882 O 176.902 -0.65755 1.68956 0
M  V30 1883 C 176.95 2.80405 2.26727 0
M  V30 1884 O 176.054 2.44245 3.32292 0
M  V30 1885 H 175.395 0.561536 0.354363 0
M  V30 1886 H 177.925 1.9809 0.512024 0
M  V30 1887 H 177.935 3.0459 2.71457 0
M  V30 1888 H 176.61 3.74867 1.80132 0
M  V30 1889 H 175.187 2.30644 2.93015 0
M  V30 1890 N 177.372 -0.689602 1.41712 0
M  V30 1891 C 178.304 -1.815 1.39966 0
M  V30 1892 C 179.317 -1.59995 0.300917 0
M  V30 1893 O 180.506 -1.69387 0.563039 0
M  V30 1894 C 177.606 -3.18364 1.16179 0
M  V30 1895 C 176.779 -3.66847 2.38206 0
M  V30 1896 C 175.838 -4.82398 2.10186 0
M  V30 1897 O 174.864 -4.93706 2.83272 0
M  V30 1898 N 176.066 -5.70064 1.0958 0
M  V30 1899 H 178.831 -1.83488 2.36965 0
M  V30 1900 H 176.392 -0.872149 1.36401 0
M  V30 1901 H 178.384 -3.93301 0.953756 0
M  V30 1902 H 176.954 -3.11365 0.27756 0
M  V30 1903 H 176.174 -2.82751 2.74673 0
M  V30 1904 H 177.462 -3.95978 3.19498 0
M  V30 1905 H 176.86 -5.63565 0.491019 0
M  V30 1906 H 175.417 -6.44874 0.947656 0
M  V30 1907 N 178.85 -1.27639 -0.924453 0
M  V30 1908 C 180.098 -1.13941 -1.66918 0
M  V30 1909 C 180.419 0.314589 -1.92446 0
M  V30 1910 O 179.689 1.21964 -1.53303 0
M  V30 1911 H 178.269 -0.418678 -0.618642 0
M  V30 1912 H 180.931 -1.60213 -1.10985 0
M  V30 1913 H 180.027 -1.67094 -2.63602 0
M  V30 1914 N 180.328 1.1314 -1.09713 0
M  V30 1915 C 181.275 2.18642 -0.739196 0
M  V30 1916 C 182.245 1.63706 0.280978 0
M  V30 1917 O 183.43 1.90111 0.161946 0
M  V30 1918 C 180.57 3.44685 -0.169102 0
M  V30 1919 C 179.683 4.13711 -1.24367 0
M  V30 1920 C 178.818 5.27379 -0.636019 0
M  V30 1921 C 177.857 5.88259 -1.69169 0
M  V30 1922 N 176.994 6.93352 -1.10485 0
M  V30 1923 H 181.834 2.48607 -1.64312 0
M  V30 1924 H 179.371 1.22066 -0.820875 0
M  V30 1925 H 181.329 4.16815 0.179256 0
M  V30 1926 H 179.959 3.15161 0.698079 0
M  V30 1927 H 179.011 3.39835 -1.70927 0
M  V30 1928 H 180.323 4.55037 -2.04311 0
M  V30 1929 H 179.477 6.06238 -0.236677 0
M  V30 1930 H 178.216 4.8731 0.194928 0
M  V30 1931 H 177.221 5.08092 -2.10055 0
M  V30 1932 H 178.446 6.30399 -2.52536 0
M  V30 1933 H 176.392 6.55335 -0.295234 0
M  V30 1934 H 176.309 7.33236 -1.84121 0
M  V30 1935 H 177.577 7.76057 -0.73181 0
M  V30 1936 N 181.806 0.884767 1.30421 0
M  V30 1937 C 183.034 0.518044 2.0031 0
M  V30 1938 C 183.449 -0.893408 1.66324 0
M  V30 1939 O 182.806 -1.5875 0.900262 0
M  V30 1940 C 182.857 0.682997 3.54989 0
M  V30 1941 O 182.578 2.03888 3.87764 0
M  V30 1942 C 184.079 0.31924 4.42149 0
M  V30 1943 H 181.299 0.200265 0.640418 0
M  V30 1944 H 183.843 1.19001 1.6631 0
M  V30 1945 H 181.998 0.0584052 3.87356 0
M  V30 1946 H 182.412 2.05735 4.82466 0
M  V30 1947 H 183.886 0.485555 5.4986 0
M  V30 1948 H 184.363 -0.742717 4.32875 0
M  V30 1949 H 184.969 0.920147 4.15227 0
M  V30 1950 N 183.284 -1.43765 0.645699 0
M  V30 1951 C 184.247 -2.29163 -0.0409488 0
M  V30 1952 C 185.247 -1.41813 -0.757996 0
M  V30 1953 O 186.437 -1.63527 -0.600382 0
M  V30 1954 C 183.569 -3.23716 -1.06869 0
M  V30 1955 H 184.762 -2.91366 0.710345 0
M  V30 1956 H 182.315 -1.5092 0.406547 0
M  V30 1957 H 183.05 -2.66393 -1.84947 0
M  V30 1958 H 182.835 -3.88105 -0.558277 0
M  V30 1959 H 184.325 -3.87831 -1.54845 0
M  V30 1960 N 184.763 -0.387143 -1.52771 0
M  V30 1961 C 186.011 0.195349 -2.01154 0
M  V30 1962 C 186.332 1.475 -1.27549 0
M  V30 1963 O 185.602 1.91878 -0.394924 0
M  V30 1964 H 184.182 0.075178 -0.743207 0
M  V30 1965 H 186.844 -0.518337 -1.87881 0
M  V30 1966 H 185.94 0.407096 -3.09434 0
M  V30 1967 N 186.241 1.57166 -0.116904 0
M  V30 1968 C 187.171 2.18222 0.830759 0
M  V30 1969 C 188.152 1.12167 1.27877 0
M  V30 1970 O 189.337 1.40394 1.34176 0
M  V30 1971 C 186.467 2.77996 2.08172 0
M  V30 1972 C 185.421 3.89614 1.77157 0
M  V30 1973 C 184.747 4.36187 3.09265 0
M  V30 1974 C 186.047 5.1181 1.04151 0
M  V30 1975 H 187.741 2.97664 0.321992 0
M  V30 1976 H 185.287 1.4318 0.153434 0
M  V30 1977 H 187.24 3.19366 2.74924 0
M  V30 1978 H 185.964 1.9584 2.6137 0
M  V30 1979 H 184.623 3.48816 1.12796 0
M  V30 1980 H 184.271 3.50893 3.60393 0
M  V30 1981 H 183.971 5.11455 2.89288 0
M  V30 1982 H 185.495 4.80207 3.77139 0
M  V30 1983 H 186.909 5.50214 1.61052 0
M  V30 1984 H 185.306 5.92648 0.942762 0
M  V30 1985 H 186.376 4.84892 0.0279022 0
M  V30 1986 N 187.719 -0.156864 1.56817 0
M  V30 1987 C 188.965 -0.872416 1.83076 0
M  V30 1988 C 189.298 -1.81261 0.697001 0
M  V30 1989 O 188.573 -1.92171 -0.30008 0
M  V30 1990 C 188.856 -1.65551 3.19789 0
M  V30 1991 C 188.709 -0.737467 4.43713 0
M  V30 1992 C 190.028 -2.62012 3.53606 0
M  V30 1993 H 187.147 -0.315715 0.665953 0
M  V30 1994 H 189.789 -0.138004 1.89498 0
M  V30 1995 H 187.939 -2.28159 3.14445 0
M  V30 1996 H 189.611 -0.123143 4.61136 0
M  V30 1997 H 187.854 -0.0464067 4.33775 0
M  V30 1998 H 188.525 -1.32122 5.35955 0
M  V30 1999 H 191.001 -2.09525 3.59497 0
M  V30 2000 H 189.877 -3.13861 4.50314 0
M  V30 2001 H 190.138 -3.42902 2.79053 0
M  V30 2002 N 189.197 -1.51736 -0.425897 0
M  V30 2003 C 190.144 -1.73875 -1.51776 0
M  V30 2004 C 191.114 -0.580702 -1.55618 0
M  V30 2005 O 192.299 -0.81641 -1.72451 0
M  V30 2006 C 189.439 -1.88012 -2.89388 0
M  V30 2007 C 188.552 -3.15606 -2.94986 0
M  V30 2008 C 187.687 -3.20271 -4.23793 0
M  V30 2009 C 186.726 -4.42134 -4.23302 0
M  V30 2010 N 185.863 -4.44284 -5.43651 0
M  V30 2011 H 190.703 -2.67071 -1.32201 0
M  V30 2012 H 188.24 -1.32351 -0.642008 0
M  V30 2013 H 190.198 -1.9419 -3.69251 0
M  V30 2014 H 188.828 -0.98213 -3.07496 0
M  V30 2015 H 187.88 -3.18681 -2.07717 0
M  V30 2016 H 189.192 -4.05486 -2.90486 0
M  V30 2017 H 188.346 -3.25428 -5.12036 0
M  V30 2018 H 187.085 -2.28299 -4.30965 0
M  V30 2019 H 186.09 -4.3714 -3.3345 0
M  V30 2020 H 187.315 -5.35382 -4.17783 0
M  V30 2021 H 185.261 -3.55188 -5.51523 0
M  V30 2022 H 185.178 -5.27988 -5.41078 0
M  V30 2023 H 186.446 -4.53649 -6.33895 0
M  V30 2024 N 190.675 0.682077 -1.42076 0
M  V30 2025 C 191.638 1.77756 -1.44691 0
M  V30 2026 C 192.638 1.5726 -0.335535 0
M  V30 2027 O 193.828 1.63686 -0.596037 0
M  V30 2028 C 190.96 3.16301 -1.27146 0
M  V30 2029 H 192.153 1.76826 -2.42224 0
M  V30 2030 H 189.706 0.891012 -1.28416 0
M  V30 2031 H 190.441 3.22862 -0.305075 0
M  V30 2032 H 190.226 3.32581 -2.07683 0
M  V30 2033 H 191.716 3.96241 -1.31843 0
M  V30 2034 N 192.153 1.28127 0.917671 0
M  V30 2035 C 193.378 1.18007 1.70555 0
M  V30 2036 C 193.803 -0.258257 1.86319 0
M  V30 2037 O 193.161 -1.1869 1.37049 0
M  V30 2038 C 193.209 1.87948 3.07746 0
M  V30 2039 O 192.313 1.18427 3.9503 0
M  V30 2040 H 191.654 0.409867 0.522403 0
M  V30 2041 H 194.184 1.69379 1.1477 0
M  V30 2042 H 194.194 1.95701 3.58001 0
M  V30 2043 H 192.869 2.92573 2.95591 0
M  V30 2044 H 191.446 1.18811 3.53466 0
M  V30 2045 N 193.631 -1.12557 1.10312 0
M  V30 2046 C 194.879 -1.83675 0.843091 0
M  V30 2047 C 195.2 -1.84435 -0.633131 0
M  V30 2048 O 194.47 -1.30657 -1.45964 0
M  V30 2049 H 193.05 -0.680138 0.308904 0
M  V30 2050 H 195.712 -1.36301 1.39313 0
M  V30 2051 H 194.808 -2.87908 1.2048 0
M  V30 2052 N 195.109 -0.891671 -1.2995 0
M  V30 2053 C 196.525 -0.58662 -1.48428 0
M  V30 2054 C 196.725 0.873951 -1.81561 0
M  V30 2055 O 195.781 1.65471 -1.90724 0
M  V30 2056 C 197.094 -1.50553 -2.60296 0
M  V30 2057 C 198.642 -1.50988 -2.74175 0
M  V30 2058 C 199.117 -2.41488 -3.89163 0
M  V30 2059 N 200.608 -2.39489 -3.96483 0
M  V30 2060 C 201.343 -3.06223 -4.84784 0
M  V30 2061 N 200.839 -3.82206 -5.77833 0
M  V30 2062 N 202.632 -2.95421 -4.78208 0
M  V30 2063 H 194.783 -1.83644 -1.06718 0
M  V30 2064 H 197.046 -0.786455 -0.529332 0
M  V30 2065 H 196.752 -2.54581 -2.42654 0
M  V30 2066 H 196.626 -1.22008 -3.56923 0
M  V30 2067 H 199.013 -0.47708 -2.91218 0
M  V30 2068 H 199.094 -1.83567 -1.78148 0
M  V30 2069 H 198.738 -3.44857 -3.72876 0
M  V30 2070 H 198.668 -2.06222 -4.84541 0
M  V30 2071 H 201.159 -1.84278 -3.29924 0
M  V30 2072 H 201.472 -4.302 -6.41988 0
M  V30 2073 H 199.817 -3.86313 -5.77743 0
M  V30 2074 H 203.008 -2.35581 -4.04499 0
M  V30 2075 H 203.181 -3.47704 -5.46814 0
M  V30 2076 N 196.587 1.43421 -0.653314 0
M  V30 2077 C 197.534 2.30768 0.0382271 0
M  V30 2078 C 198.504 1.44755 0.814576 0
M  V30 2079 O 199.689 1.73624 0.791162 0
M  V30 2080 C 196.829 3.30336 0.998599 0
M  V30 2081 C 195.942 4.31448 0.218342 0
M  V30 2082 C 195.077 5.18098 1.17252 0
M  V30 2083 C 194.116 6.10902 0.382702 0
M  V30 2084 N 193.253 6.90176 1.28848 0
M  V30 2085 H 198.093 2.89357 -0.712511 0
M  V30 2086 H 195.63 1.42548 -0.363128 0
M  V30 2087 H 197.588 3.86572 1.56901 0
M  V30 2088 H 196.218 2.73397 1.71621 0
M  V30 2089 H 195.27 3.77506 -0.46836 0
M  V30 2090 H 196.582 4.97227 -0.395812 0
M  V30 2091 H 195.736 5.7896 1.81356 0
M  V30 2092 H 194.475 4.52444 1.82058 0
M  V30 2093 H 193.48 5.49128 -0.27169 0
M  V30 2094 H 194.705 6.78598 -0.260957 0
M  V30 2095 H 192.651 6.27171 1.92334 0
M  V30 2096 H 192.568 7.52478 0.728887 0
M  V30 2097 H 193.836 7.55543 1.91766 0
M  V30 2098 N 198.065 0.39524 1.52563 0
M  V30 2099 C 198.995 -0.428384 2.29537 0
M  V30 2100 C 199.976 -1.05831 1.33169 0
M  V30 2101 O 201.161 -1.06995 1.62067 0
M  V30 2102 C 198.291 -1.55274 3.10656 0
M  V30 2103 C 197.245 -1.04855 4.14957 0
M  V30 2104 C 196.571 -2.26543 4.84337 0
M  V30 2105 C 197.871 -0.112324 5.22179 0
M  V30 2106 H 199.565 0.213867 2.98635 0
M  V30 2107 H 197.111 0.104298 1.43622 0
M  V30 2108 H 199.064 -2.1358 3.63265 0
M  V30 2109 H 197.788 -2.22266 2.39302 0
M  V30 2110 H 196.447 -0.487985 3.63338 0
M  V30 2111 H 196.095 -2.92059 4.09525 0
M  V30 2112 H 195.795 -1.93466 5.54837 0
M  V30 2113 H 197.319 -2.85481 5.39753 0
M  V30 2114 H 198.733 -0.603752 5.70112 0
M  V30 2115 H 197.13 0.128968 5.99961 0
M  V30 2116 H 198.2 0.837052 4.77621 0
M  V30 2117 N 199.544 -1.57102 0.125237 0
M  V30 2118 C 200.454 -2.19191 -0.8362 0
M  V30 2119 C 201.47 -1.16985 -1.28805 0
M  V30 2120 O 202.646 -1.49479 -1.34974 0
M  V30 2121 C 199.711 -2.78407 -2.06617 0
M  V30 2122 C 198.772 -3.9567 -1.66565 0
M  V30 2123 C 198.005 -4.52052 -2.83698 0
M  V30 2124 O 198.228 -4.07326 -3.99302 0
M  V30 2125 O 197.162 -5.42645 -2.60423 0
M  V30 2126 H 200.988 -3.01816 -0.337776 0
M  V30 2127 H 198.573 -1.4906 -0.100695 0
M  V30 2128 H 200.455 -3.16129 -2.7864 0
M  V30 2129 H 199.13 -1.9881 -2.55453 0
M  V30 2130 H 198.037 -3.62705 -0.916296 0
M  V30 2131 H 199.37 -4.76722 -1.22464 0
M  V30 2132 N 201.022 0.148545 -1.56898 0
M  V30 2133 C 201.969 1.18345 -1.98149 0
M  V30 2134 C 202.939 1.42772 -0.848848 0
M  V30 2135 O 204.124 1.55132 -1.11079 0
M  V30 2136 C 201.264 2.51231 -2.36594 0
M  V30 2137 C 200.377 2.33991 -3.63142 0
M  V30 2138 C 199.512 3.59902 -3.90697 0
M  V30 2139 C 198.551 3.37692 -5.1052 0
M  V30 2140 N 197.688 4.5573 -5.34092 0
M  V30 2141 H 202.528 0.82467 -2.86362 0
M  V30 2142 H 200.065 0.395756 -1.41676 0
M  V30 2143 H 202.023 3.28713 -2.56912 0
M  V30 2144 H 200.653 2.85059 -1.51463 0
M  V30 2145 H 199.705 1.47572 -3.50609 0
M  V30 2146 H 201.017 2.13539 -4.5078 0
M  V30 2147 H 200.171 4.45813 -4.11505 0
M  V30 2148 H 198.91 3.83357 -3.01477 0
M  V30 2149 H 197.915 2.5017 -4.89587 0
M  V30 2150 H 199.14 3.15637 -6.0129 0
M  V30 2151 H 197.086 4.79361 -4.47827 0
M  V30 2152 H 197.003 4.38274 -6.15996 0
M  V30 2153 H 198.271 5.42858 -5.59397 0
M  V30 2154 N 202.5 1.5196 0.417844 0
M  V30 2155 C 203.747 1.65591 1.16559 0
M  V30 2156 C 204.075 0.381565 1.90721 0
M  V30 2157 O 203.33 -0.635156 1.85106 0
M  V30 2158 C 203.629 2.82269 2.19223 0
M  V30 2159 C 203.295 4.20819 1.61933 0
M  V30 2160 C 201.957 4.58506 1.46033 0
M  V30 2161 C 204.309 5.07196 1.20008 0
M  V30 2162 C 201.637 5.80257 0.867113 0
M  V30 2163 C 203.989 6.29544 0.621086 0
M  V30 2164 C 202.653 6.65987 0.449144 0
M  V30 2165 H 201.923 0.605939 0.42652 0
M  V30 2166 H 204.57 1.86041 0.45397 0
M  V30 2167 H 202.875 2.56118 2.96498 0
M  V30 2168 H 204.572 2.90012 2.76936 0
M  V30 2169 H 201.162 3.91116 1.7529 0
M  V30 2170 H 205.346 4.7867 1.31105 0
M  V30 2171 H 200.602 6.07124 0.721833 0
M  V30 2172 H 204.776 6.95805 0.287798 0
M  V30 2173 H 202.403 7.60199 -0.012632 0
M  V30 2174 N 203.978 -0.674533 1.42435 0
M  V30 2175 C 205.206 -1.46283 1.46317 0
M  V30 2176 C 205.621 -1.88653 0.0745836 0
M  V30 2177 O 204.978 -1.58151 -0.91074 0
M  V30 2178 C 205.029 -2.71178 2.3905 0
M  V30 2179 O 204.75 -2.30586 3.72507 0
M  V30 2180 C 206.251 -3.64738 2.51955 0
M  V30 2181 H 203.471 -0.450104 0.497642 0
M  V30 2182 H 206.015 -0.828792 1.86953 0
M  V30 2183 H 204.17 -3.3077 2.01667 0
M  V30 2184 H 204.584 -3.11241 4.22172 0
M  V30 2185 H 206.058 -4.49096 3.20962 0
M  V30 2186 H 206.535 -4.10656 1.55752 0
M  V30 2187 H 207.141 -3.11038 2.90061 0
M  V30 2188 N 205.456 -1.28612 -0.910864 0
M  V30 2189 C 206.702 -1.16106 -1.66274 0
M  V30 2190 C 207.035 0.289113 -1.92036 0
M  V30 2191 O 206.31 1.21 -1.52281 0
M  V30 2192 C 206.593 -1.96309 -3.01885 0
M  V30 2193 C 206.446 -3.49405 -2.8326 0
M  V30 2194 C 207.765 -1.78076 -4.02463 0
M  V30 2195 H 204.884 -0.423152 -0.603417 0
M  V30 2196 H 207.526 -1.57961 -1.05586 0
M  V30 2197 H 205.676 -1.60742 -3.53687 0
M  V30 2198 H 207.348 -3.94894 -2.38446 0
M  V30 2199 H 205.591 -3.74893 -2.18261 0
M  V30 2200 H 206.262 -4.00784 -3.79574 0
M  V30 2201 H 208.738 -2.0912 -3.59733 0
M  V30 2202 H 207.614 -2.36561 -4.95308 0
M  V30 2203 H 207.875 -0.733008 -4.35981 0
M  V30 2204 N 206.934 1.1197 -1.10907 0
M  V30 2205 C 208.159 1.87942 -0.877064 0
M  V30 2206 C 208.584 1.79341 0.567314 0
M  V30 2207 O 207.942 1.15184 1.40009 0
M  V30 2208 C 207.99 3.34926 -1.33629 0
M  V30 2209 O 207.094 4.09303 -0.504447 0
M  V30 2210 H 206.435 0.583785 -0.316371 0
M  V30 2211 H 208.965 1.4157 -1.47712 0
M  V30 2212 H 208.975 3.8577 -1.32837 0
M  V30 2213 H 207.65 3.40504 -2.3881 0
M  V30 2214 H 206.227 3.68393 -0.577993 0
M  V30 2215 N 208.412 0.89855 1.29475 0
M  V30 2216 C 209.658 0.524658 1.95896 0
M  V30 2217 C 209.991 -0.926468 1.70676 0
M  V30 2218 O 209.266 -1.65665 1.01908 0
M  V30 2219 C 209.549 0.81633 3.50725 0
M  V30 2220 C 209.402 2.31907 3.85408 0
M  V30 2221 C 210.721 0.302038 4.39062 0
M  V30 2222 H 207.84 0.19209 0.711527 0
M  V30 2223 H 210.482 1.12502 1.53112 0
M  V30 2224 H 208.632 0.305369 3.87298 0
M  V30 2225 H 210.304 2.89949 3.58786 0
M  V30 2226 H 208.547 2.78027 3.32992 0
M  V30 2227 H 209.218 2.47373 4.93468 0
M  V30 2228 H 211.694 0.739551 4.09475 0
M  V30 2229 H 210.57 0.535331 5.46283 0
M  V30 2230 H 210.831 -0.797216 4.34853 0
M  V30 2231 N 209.89 -1.43072 0.660911 0
M  V30 2232 C 210.838 -2.32569 -0.0378199 0
M  V30 2233 C 211.832 -1.49046 -0.805092 0
M  V30 2234 O 213.038 -1.65206 -0.714624 0
M  V30 2235 H 209.413 -0.75136 -0.031019 0
M  V30 2236 H 211.384 -2.89216 0.734609 0
M  V30 2237 C 210.133 -3.33453 -0.985124 0
M  V30 2238 H 209.456 -3.97752 -0.404147 0
M  V30 2239 H 210.896 -3.98691 -1.44297 0
M  V30 2240 C 209.355 -2.64642 -2.08486 0
M  V30 2241 O 209.885 -2.46776 -3.16961 0
M  V30 2242 N 208.091 -2.23891 -1.8526 0
M  V30 2243 H 207.638 -2.38621 -0.970449 0
M  V30 2244 H 207.596 -1.78181 -2.59034 0
M  V30 2245 N 211.368 -0.403325 -1.52352 0
M  V30 2246 C 212.614 0.174605 -2.02047 0
M  V30 2247 C 212.947 1.45282 -1.28867 0
M  V30 2248 O 212.222 1.90483 -0.393257 0
M  V30 2249 C 212.505 0.428238 -3.57545 0
M  V30 2250 C 212.358 -0.866248 -4.4138 0
M  V30 2251 C 213.677 1.21287 -4.23057 0
M  V30 2252 H 210.796 0.0619851 -0.734389 0
M  V30 2253 H 213.438 -0.53565 -1.82293 0
M  V30 2254 H 211.588 1.03327 -3.74507 0
M  V30 2255 H 213.26 -1.50265 -4.3614 0
M  V30 2256 H 211.503 -1.47851 -4.07827 0
M  V30 2257 H 212.174 -0.643249 -5.48239 0
M  V30 2258 H 214.65 0.700703 -4.10158 0
M  V30 2259 H 213.526 1.35909 -5.31808 0
M  V30 2260 H 213.787 2.23193 -3.81625 0
M  V30 2261 N 212.846 1.57033 -0.133567 0
M  V30 2262 C 213.809 2.14897 0.796995 0
M  V30 2263 C 214.809 1.0874 1.18458 0
M  V30 2264 O 215.999 1.34446 1.1077 0
M  V30 2265 C 213.131 2.70112 2.07973 0
M  V30 2266 H 214.324 2.98457 0.293873 0
M  V30 2267 H 211.877 1.55871 0.115787 0
M  V30 2268 H 212.612 1.9018 2.62682 0
M  V30 2269 H 212.397 3.47764 1.81115 0
M  V30 2270 H 213.887 3.14738 2.74462 0
M  V30 2271 N 214.325 -0.140222 1.56975 0
M  V30 2272 C 215.288 -1.15689 1.97861 0
M  V30 2273 C 216.288 -1.3549 0.865974 0
M  V30 2274 O 217.478 -1.32367 1.13246 0
M  V30 2275 C 214.61 -2.51582 2.30042 0
M  V30 2276 H 215.803 -0.805971 2.88867 0
M  V30 2277 H 213.356 -0.383801 1.51515 0
M  V30 2278 H 214.091 -2.91632 1.41849 0
M  V30 2279 H 213.876 -2.38569 3.11171 0
M  V30 2280 H 215.366 -3.24792 2.62488 0
M  V30 2281 N 215.803 -1.52179 -0.40978 0
M  V30 2282 C 217.051 -1.65878 -1.15451 0
M  V30 2283 C 217.372 -0.390771 -1.91044 0
M  V30 2284 O 216.642 0.594323 -1.86667 0
M  V30 2285 H 215.222 -0.611405 -0.429177 0
M  V30 2286 H 217.884 -1.89219 -0.467134 0
M  V30 2287 H 216.98 -2.49954 -1.86894 0
M  V30 2288 N 217.281 0.66697 -1.42791 0
M  V30 2289 C 218.506 1.46004 -1.47301 0
M  V30 2290 C 218.931 1.87894 -0.0880317 0
M  V30 2291 O 218.289 1.56502 0.915253 0
M  V30 2292 C 218.337 2.68031 -2.41229 0
M  V30 2293 O 217.441 3.6659 -1.88906 0
M  V30 2294 H 216.782 0.43832 -0.49877 0
M  V30 2295 H 219.312 0.817391 -1.87563 0
M  V30 2296 H 219.322 3.1601 -2.58073 0
M  V30 2297 H 217.997 2.36883 -3.41847 0
M  V30 2298 H 216.574 3.25661 -1.81656 0
M  V30 2299 N 218.759 1.29093 0.90403 0
M  V30 2300 C 219.706 1.13853 2.00764 0
M  V30 2301 C 220.676 0.0330084 1.66067 0
M  V30 2302 O 221.861 0.199733 1.89752 0
M  V30 2303 C 219.001 0.816537 3.35301 0
M  V30 2304 C 218.114 2.00206 3.82807 0
M  V30 2305 C 217.249 1.61983 5.059 0
M  V30 2306 C 216.288 2.77143 5.45764 0
M  V30 2307 N 215.425 2.39346 6.60044 0
M  V30 2308 H 220.265 2.08276 2.13132 0
M  V30 2309 H 217.802 1.03648 1.04381 0
M  V30 2310 H 219.76 0.610557 4.12708 0
M  V30 2311 H 218.39 -0.090779 3.22672 0
M  V30 2312 H 217.442 2.31988 3.01473 0
M  V30 2313 H 218.754 2.86512 4.08304 0
M  V30 2314 H 217.908 1.37649 5.90879 0
M  V30 2315 H 216.647 0.728202 4.82233 0
M  V30 2316 H 215.652 3.02165 4.59322 0
M  V30 2317 H 216.877 3.66964 5.71414 0
M  V30 2318 H 214.823 1.52665 6.37989 0
M  V30 2319 H 214.74 3.19185 6.85315 0
M  V30 2320 H 216.008 2.1832 7.48303 0
M  V30 2321 N 220.237 -1.11381 1.11499 0
M  V30 2322 C 221.483 -1.83403 0.865512 0
M  V30 2323 C 221.816 -1.84459 -0.607329 0
M  V30 2324 O 221.091 -1.29811 -1.44842 0
M  V30 2325 C 221.374 -3.30552 1.42855 0
M  V30 2326 C 221.227 -3.37886 2.96906 0
M  V30 2327 C 222.546 -4.26643 1.08 0
M  V30 2328 H 219.665 -0.665879 0.31587 0
M  V30 2329 H 222.307 -1.30601 1.37998 0
M  V30 2330 H 220.457 -3.75648 0.990985 0
M  V30 2331 H 222.129 -3.01343 3.49271 0
M  V30 2332 H 220.372 -2.78088 3.32941 0
M  V30 2333 H 221.043 -4.41458 3.31389 0
M  V30 2334 H 223.519 -3.89729 1.45775 0
M  V30 2335 H 222.395 -5.27986 1.50072 0
M  V30 2336 H 222.656 -4.42099 -0.00915037 0
M  V30 2337 N 221.715 -0.905404 -1.28997 0
M  V30 2338 C 222.943 -0.549846 -1.9946 0
M  V30 2339 C 223.358 0.866834 -1.67724 0
M  V30 2340 O 222.715 1.57298 -0.925404 0
M  V30 2341 C 222.766 -0.739387 -3.53858 0
M  V30 2342 O 222.487 -2.10031 -3.84472 0
M  V30 2343 C 223.988 -0.389541 -4.41585 0
M  V30 2344 H 221.208 -0.210429 -0.637151 0
M  V30 2345 H 223.752 -1.21632 -1.64396 0
M  V30 2346 H 221.907 -0.120023 -3.87214 0
M  V30 2347 H 222.321 -2.13385 -4.79132 0
M  V30 2348 H 223.795 -0.572972 -5.49018 0
M  V30 2349 H 224.272 0.673756 -4.34001 0
M  V30 2350 H 224.878 -0.986089 -4.1371 0
M  V30 2351 N 223.193 1.4272 -0.668489 0
M  V30 2352 C 224.44 2.01624 -0.18814 0
M  V30 2353 C 224.768 1.5282 1.20317 0
M  V30 2354 O 224.023 0.718323 1.8204 0
M  V30 2355 C 224.322 3.57021 -0.164499 0
M  V30 2356 C 223.988 4.25232 -1.49962 0
M  V30 2357 C 222.65 4.4358 -1.8652 0
M  V30 2358 C 225.002 4.63727 -2.37921 0
M  V30 2359 C 222.33 4.97694 -3.10674 0
M  V30 2360 C 224.682 5.19218 -3.6138 0
M  V30 2361 C 223.346 5.3578 -3.98115 0
M  V30 2362 H 222.616 0.737795 -0.0688454 0
M  V30 2363 H 225.263 1.70991 -0.862225 0
M  V30 2364 H 223.568 3.87285 0.593079 0
M  V30 2365 H 225.265 4.00372 0.224271 0
M  V30 2366 H 221.855 4.11306 -1.20522 0
M  V30 2367 H 226.039 4.4923 -2.10964 0
M  V30 2368 H 221.295 5.08702 -3.39164 0
M  V30 2369 H 225.469 5.4799 -4.29743 0
M  V30 2370 H 223.096 5.77475 -4.94395 0
M  V30 2371 N 224.671 0.411399 1.52136 0
M  V30 2372 C 225.581 -0.419774 2.30814 0
M  V30 2373 C 226.597 -1.0515 1.38634 0
M  V30 2374 O 227.773 -1.05252 1.71709 0
M  V30 2375 C 224.838 -1.52019 3.11594 0
M  V30 2376 C 223.899 -0.91129 4.19516 0
M  V30 2377 C 223.132 -1.95927 4.96436 0
M  V30 2378 O 223.355 -3.17775 4.73683 0
M  V30 2379 O 222.289 -1.56423 5.81219 0
M  V30 2380 H 226.115 0.221805 3.02889 0
M  V30 2381 H 223.7 0.174547 1.48377 0
M  V30 2382 H 225.582 -2.15898 3.61892 0
M  V30 2383 H 224.257 -2.14633 2.42311 0
M  V30 2384 H 223.164 -0.235157 3.7336 0
M  V30 2385 H 224.497 -0.32904 4.91099 0
M  V30 2386 N 226.149 -1.5696 0.141893 0
M  V30 2387 C 227.079 -2.19516 -0.795936 0
M  V30 2388 C 228.06 -1.14187 -1.26077 0
M  V30 2389 O 229.245 -1.42511 -1.31925 0
M  V30 2390 C 226.375 -2.81272 -2.03723 0
M  V30 2391 C 225.329 -3.92384 -1.70936 0
M  V30 2392 C 224.655 -4.41052 -3.02287 0
M  V30 2393 C 225.955 -5.13403 -0.959954 0
M  V30 2394 H 227.649 -2.98138 -0.274596 0
M  V30 2395 H 225.195 -1.43406 -0.130636 0
M  V30 2396 H 227.148 -3.237 -2.69808 0
M  V30 2397 H 225.872 -1.99973 -2.58221 0
M  V30 2398 H 224.531 -3.50566 -1.07232 0
M  V30 2399 H 224.179 -3.56582 -3.54765 0
M  V30 2400 H 223.879 -5.15993 -2.81114 0
M  V30 2401 H 225.403 -4.86146 -3.69451 0
M  V30 2402 H 226.817 -5.52706 -1.52279 0
M  V30 2403 H 225.214 -5.94073 -0.848357 0
M  V30 2404 H 226.284 -4.84875 0.0492434 0
M  V30 2405 N 227.627 0.131896 -1.57047 0
M  V30 2406 C 228.855 0.856461 -1.88341 0
M  V30 2407 C 229.27 1.74042 -0.731757 0
M  V30 2408 O 228.627 1.80051 0.297945 0
M  V30 2409 C 228.678 1.70064 -3.18999 0
M  V30 2410 O 228.399 0.852278 -4.2973 0
M  V30 2411 C 229.9 2.53148 -3.63911 0
M  V30 2412 H 227.12 0.246885 -0.62393 0
M  V30 2413 H 229.664 0.120152 -2.04147 0
M  V30 2414 H 227.819 2.38984 -3.04902 0
M  V30 2415 H 228.233 1.43329 -5.04537 0
M  V30 2416 H 229.707 3.07931 -4.58129 0
M  V30 2417 H 230.184 3.29901 -2.89935 0
M  V30 2418 H 230.79 1.89492 -3.80753 0
M  V30 2419 N 229.106 1.52395 0.401703 0
M  V30 2420 C 230.336 1.70429 1.1678 0
M  V30 2421 C 230.744 0.416702 1.84554 0
M  V30 2422 O 230.087 -0.617697 1.73003 0
M  V30 2423 C 230.149 2.78919 2.26814 0
M  V30 2424 C 229.813 4.20437 1.79113 0
M  V30 2425 C 230.81 5.04028 1.27482 0
M  V30 2426 C 228.495 4.66704 1.85722 0
M  V30 2427 C 230.489 6.31961 0.830913 0
M  V30 2428 C 228.176 5.94625 1.40942 0
M  V30 2429 C 229.174 6.77082 0.897128 0
M  V30 2430 O 228.862 8.02607 0.455822 0
M  V30 2431 H 228.594 0.574272 0.356634 0
M  V30 2432 H 231.148 1.99767 0.477724 0
M  V30 2433 H 229.378 2.44973 2.99207 0
M  V30 2434 H 231.067 2.8548 2.88541 0
M  V30 2435 H 231.833 4.69471 1.21744 0
M  V30 2436 H 227.712 4.0262 2.24539 0
M  V30 2437 H 231.256 6.96271 0.430368 0
M  V30 2438 H 227.153 6.28688 1.46362 0
M  V30 2439 H 227.921 8.16453 0.578457 0
M  V30 2440 N 230.584 -0.659388 1.43143 0
M  V30 2441 C 231.494 -1.80167 1.50256 0
M  V30 2442 C 232.51 -1.69571 0.390106 0
M  V30 2443 O 233.686 -1.90849 0.643319 0
M  V30 2444 C 230.751 -3.16409 1.41725 0
M  V30 2445 C 229.812 -3.38848 2.63591 0
M  V30 2446 C 229.045 -4.68591 2.55458 0
M  V30 2447 O 229.268 -5.47532 1.59891 0
M  V30 2448 O 228.202 -4.92614 3.45854 0
M  V30 2449 H 232.028 -1.77121 2.46702 0
M  V30 2450 H 229.613 -0.817092 1.25076 0
M  V30 2451 H 231.495 -3.9768 1.39387 0
M  V30 2452 H 230.17 -3.20059 0.484118 0
M  V30 2453 H 229.077 -2.57366 2.71502 0
M  V30 2454 H 230.41 -3.4004 3.55856 0
M  V30 2455 N 232.062 -1.29571 -0.897171 0
M  V30 2456 C 232.972 -1.16808 -2.03453 0
M  V30 2457 C 233.988 -0.0907471 -1.73763 0
M  V30 2458 O 235.164 -0.303312 -1.99103 0
M  V30 2459 C 232.229 -0.848264 -3.36163 0
M  V30 2460 C 231.29 -2.0097 -3.79354 0
M  V30 2461 C 230.523 -1.70505 -5.05731 0
M  V30 2462 O 230.746 -0.62718 -5.66941 0
M  V30 2463 O 229.68 -2.5538 -5.45036 0
M  V30 2464 H 233.506 -2.12325 -2.17144 0
M  V30 2465 H 231.091 -1.09047 -1.02123 0
M  V30 2466 H 232.973 -0.684581 -4.15802 0
M  V30 2467 H 231.648 0.0771071 -3.23608 0
M  V30 2468 H 230.555 -2.22863 -3.00471 0
M  V30 2469 H 231.888 -2.91636 -3.96496 0
M  V30 2470 N 233.54 1.10788 -1.12088 0
M  V30 2471 C 234.47 2.19083 -0.807755 0
M  V30 2472 C 235.451 1.6858 0.226859 0
M  V30 2473 O 236.636 1.93997 0.0888475 0
M  V30 2474 C 233.766 3.46344 -0.257576 0
M  V30 2475 C 232.72 4.101 -1.22483 0
M  V30 2476 C 232.046 5.32016 -0.535052 0
M  V30 2477 C 233.346 4.54236 -2.57811 0
M  V30 2478 H 235.04 2.45534 -1.71328 0
M  V30 2479 H 232.586 1.1801 -0.825205 0
M  V30 2480 H 234.539 4.21392 -0.0262679 0
M  V30 2481 H 233.263 3.19373 0.683278 0
M  V30 2482 H 231.922 3.37054 -1.44189 0
M  V30 2483 H 231.57 5.01319 0.410827 0
M  V30 2484 H 231.27 5.75625 -1.18024 0
M  V30 2485 H 232.794 6.09799 -0.312695 0
M  V30 2486 H 234.208 5.20575 -2.40155 0
M  V30 2487 H 232.605 5.08682 -3.18375 0
M  V30 2488 H 233.675 3.6734 -3.16528 0
M  V30 2489 N 235.018 0.912232 1.28515 0
M  V30 2490 C 235.948 0.416403 2.29757 0
M  V30 2491 C 236.929 -0.515194 1.6211 0
M  V30 2492 O 238.114 -0.423253 1.89532 0
M  V30 2493 C 235.244 -0.34572 3.45575 0
M  V30 2494 C 234.198 0.496599 4.25109 0
M  V30 2495 C 233.524 -0.393771 5.33248 0
M  V30 2496 C 234.824 1.75307 4.92001 0
M  V30 2497 H 236.518 1.26249 2.7148 0
M  V30 2498 H 234.064 0.608515 1.30511 0
M  V30 2499 H 236.017 -0.703422 4.15488 0
M  V30 2500 H 234.741 -1.2257 3.02728 0
M  V30 2501 H 233.4 0.8368 3.56922 0
M  V30 2502 H 233.048 -1.27225 4.86644 0
M  V30 2503 H 232.748 0.166209 5.87365 0
M  V30 2504 H 234.272 -0.747389 6.06009 0
M  V30 2505 H 235.686 1.46437 5.54283 0
M  V30 2506 H 234.083 2.25534 5.56106 0
M  V30 2507 H 235.153 2.48176 4.16577 0
M  V30 2508 N 236.496 -1.42363 0.676048 0
M  V30 2509 C 237.443 -2.308 -0.00150904 0
M  V30 2510 C 238.413 -1.46032 -0.791444 0
M  V30 2511 O 239.598 -1.74861 -0.76344 0
M  V30 2512 C 236.738 -3.31883 -0.945919 0
M  V30 2513 C 235.851 -4.31741 -0.149675 0
M  V30 2514 C 234.986 -5.19898 -1.08995 0
M  V30 2515 C 234.025 -6.11434 -0.285465 0
M  V30 2516 N 233.162 -6.92138 -1.17851 0
M  V30 2517 H 238.002 -2.88187 0.758455 0
M  V30 2518 H 235.539 -1.41952 0.38576 0
M  V30 2519 H 237.497 -3.89019 -1.50731 0
M  V30 2520 H 236.127 -2.76093 -1.6725 0
M  V30 2521 H 235.179 -3.76713 0.528359 0
M  V30 2522 H 236.491 -4.96534 0.474866 0
M  V30 2523 H 235.645 -5.81772 -1.72123 0
M  V30 2524 H 234.384 -4.55284 -1.74837 0
M  V30 2525 H 233.389 -5.48627 0.359018 0
M  V30 2526 H 234.614 -6.78097 0.368883 0
M  V30 2527 H 232.56 -6.30152 -1.82332 0
M  V30 2528 H 232.477 -7.53542 -0.609082 0
M  V30 2529 H 233.745 -7.58499 -1.79722 0
M  V30 2530 N 237.974 -0.419461 -1.51915 0
M  V30 2531 C 239.39 -0.0708431 -1.59443 0
M  V30 2532 C 239.59 1.41796 -1.43164 0
M  V30 2533 O 238.646 2.18596 -1.26381 0
M  V30 2534 C 239.959 -0.574991 -2.95151 0
M  V30 2535 C 241.507 -0.533867 -3.08413 0
M  V30 2536 C 241.982 -1.01469 -4.46618 0
M  V30 2537 N 243.473 -0.971939 -4.52888 0
M  V30 2538 C 244.208 -1.31505 -5.58116 0
M  V30 2539 N 243.704 -1.73014 -6.70849 0
M  V30 2540 N 245.497 -1.23436 -5.48379 0
M  V30 2541 H 237.648 -1.38836 -1.60743 0
M  V30 2542 H 239.911 -0.570998 -0.756747 0
M  V30 2543 H 239.617 -1.61597 -3.12377 0
M  V30 2544 H 239.491 0.00979777 -3.77199 0
M  V30 2545 H 241.878 0.498086 -2.90866 0
M  V30 2546 H 241.959 -1.15484 -2.28248 0
M  V30 2547 H 241.603 -2.04502 -4.6491 0
M  V30 2548 H 241.533 -0.370433 -5.25295 0
M  V30 2549 H 244.024 -0.666893 -3.71969 0
M  V30 2550 H 244.337 -1.97479 -7.47143 0
M  V30 2551 H 242.682 -1.76926 -6.72103 0
M  V30 2552 H 245.873 -0.908869 -4.59192 0
M  V30 2553 H 246.046 -1.50506 -6.30279 0
M  V30 2554 N 239.452 1.56882 -0.150215 0
M  V30 2555 C 240.402 2.13501 0.800071 0
M  V30 2556 C 241.386 1.06368 1.20726 0
M  V30 2557 O 242.578 1.32538 1.17314 0
M  V30 2558 C 239.707 2.76271 2.03787 0
M  V30 2559 C 238.793 3.90533 1.65364 0
M  V30 2560 N 239.184 4.96259 0.977794 0
M  V30 2561 C 237.482 4.013 1.94613 0
M  V30 2562 C 238.183 5.76286 0.791794 0
M  V30 2563 N 237.159 5.27163 1.32666 0
M  V30 2564 H 240.961 2.92615 0.274517 0
M  V30 2565 H 238.475 1.62319 0.0512144 0
M  V30 2566 H 240.472 3.15197 2.72867 0
M  V30 2567 H 239.132 1.98631 2.56857 0
M  V30 2568 H 240.143 5.13953 0.638193 0
M  V30 2569 H 236.82 3.3474 2.4951 0
M  V30 2570 H 238.21 6.71401 0.258894 0
M  V30 2571 N 240.93 -0.123565 1.57115 0
M  V30 2572 C 241.877 -1.15177 2.00007 0
M  V30 2573 C 242.847 -1.41403 0.871454 0
M  V30 2574 O 244.032 -1.53346 1.13533 0
M  V30 2575 C 241.172 -2.47436 2.40561 0
M  V30 2576 C 240.285 -2.28184 3.66819 0
M  V30 2577 C 239.42 -3.53641 3.96373 0
M  V30 2578 C 238.459 -3.29528 5.15827 0
M  V30 2579 N 237.596 -4.47175 5.41275 0
M  V30 2580 H 242.436 -0.779008 2.87638 0
M  V30 2581 H 239.973 -0.373166 1.42288 0
M  V30 2582 H 241.931 -3.24584 2.62109 0
M  V30 2583 H 240.561 -2.82614 1.55978 0
M  V30 2584 H 239.613 -1.41976 3.52912 0
M  V30 2585 H 240.925 -2.0634 4.5412 0
M  V30 2586 H 240.079 -4.39209 4.18545 0
M  V30 2587 H 238.818 -3.78512 3.07538 0
M  V30 2588 H 237.823 -2.42349 4.93505 0
M  V30 2589 H 239.048 -3.06031 6.06236 0
M  V30 2590 H 236.994 -4.72175 4.55397 0
M  V30 2591 H 236.911 -4.28419 6.22891 0
M  V30 2592 H 238.179 -5.3389 5.67963 0
M  V30 2593 N 242.408 -1.52605 -0.393616 0
M  V30 2594 C 243.656 -1.67093 -1.13685 0
M  V30 2595 C 243.977 -0.411011 -1.90619 0
M  V30 2596 O 243.247 0.574491 -1.87287 0
M  V30 2597 H 241.827 -0.615923 -0.422668 0
M  V30 2598 H 244.489 -1.89704 -0.447039 0
M  V30 2599 H 243.585 -2.51922 -1.84232 0
M  V30 2600 N 243.887 0.651787 -1.4349 0
M  V30 2601 C 244.834 1.76462 -1.4876 0
M  V30 2602 C 245.804 1.62641 -0.337189 0
M  V30 2603 O 246.989 1.82864 -0.544544 0
M  V30 2604 C 244.129 3.14623 -1.41796 0
M  V30 2605 C 243.242 3.39568 -2.67053 0
M  V30 2606 C 242.377 4.67585 -2.52068 0
M  V30 2607 C 241.416 4.85639 -3.72587 0
M  V30 2608 N 240.553 6.04915 -3.56402 0
M  V30 2609 H 245.393 1.71293 -2.43849 0
M  V30 2610 H 242.93 0.835889 -1.21043 0
M  V30 2611 H 244.888 3.94496 -1.35753 0
M  V30 2612 H 243.518 3.18859 -0.50288 0
M  V30 2613 H 242.57 2.53783 -2.8337 0
M  V30 2614 H 243.882 3.48795 -3.56572 0
M  V30 2615 H 243.036 5.55586 -2.4374 0
M  V30 2616 H 241.775 4.60681 -1.60075 0
M  V30 2617 H 240.78 3.96073 -3.81321 0
M  V30 2618 H 242.005 4.94372 -4.65589 0
M  V30 2619 H 239.951 5.9914 -2.67146 0
M  V30 2620 H 239.868 6.15106 -4.39524 0
M  V30 2621 H 241.136 6.95533 -3.51929 0
M  V30 2622 N 245.365 1.30045 0.890287 0
M  V30 2623 C 246.595 1.21296 1.67245 0
M  V30 2624 C 247.003 -0.227471 1.87828 0
M  V30 2625 O 246.346 -1.16296 1.422 0
M  V30 2626 C 246.408 1.86519 3.07329 0
M  V30 2627 C 246.072 3.35837 3.09939 0
M  V30 2628 C 247.069 4.31915 2.89389 0
M  V30 2629 C 244.754 3.77196 3.31706 0
M  V30 2630 C 246.748 5.67325 2.90552 0
M  V30 2631 C 244.435 5.12725 3.32499 0
M  V30 2632 C 245.433 6.076 3.11947 0
M  V30 2633 O 245.121 7.40655 3.12547 0
M  V30 2634 H 244.853 0.4211 0.528821 0
M  V30 2635 H 247.407 1.72111 1.12103 0
M  V30 2636 H 245.637 1.30228 3.64112 0
M  V30 2637 H 247.326 1.71963 3.67673 0
M  V30 2638 H 248.092 4.01294 2.72375 0
M  V30 2639 H 243.971 3.03796 3.4674 0
M  V30 2640 H 247.515 6.41354 2.74429 0
M  V30 2641 H 243.412 5.42988 3.49047 0
M  V30 2642 H 244.18 7.49577 3.28749 0
M  V30 2643 N 246.843 -1.10192 1.12674 0
M  V30 2644 C 247.753 -2.20172 0.810026 0
M  V30 2645 C 248.769 -1.72821 -0.202188 0
M  V30 2646 O 249.945 -2.01369 -0.0351691 0
M  V30 2647 C 247.01 -3.45631 0.272007 0
M  V30 2648 C 246.071 -4.07704 1.34447 0
M  V30 2649 C 245.304 -5.27175 0.832029 0
M  V30 2650 O 245.527 -5.69425 -0.333284 0
M  V30 2651 O 244.461 -5.80168 1.60277 0
M  V30 2652 H 248.287 -2.49701 1.72867 0
M  V30 2653 H 245.872 -1.18977 0.903597 0
M  V30 2654 H 247.754 -4.21394 -0.0230219 0
M  V30 2655 H 246.429 -3.17723 -0.619164 0
M  V30 2656 H 245.336 -3.33614 1.6927 0
M  V30 2657 H 246.669 -4.3982 2.2095 0
M  V30 2658 N 248.321 -0.919034 -1.28029 0
M  V30 2659 C 249.254 -0.355887 -2.25408 0
M  V30 2660 C 250.232 0.542874 -1.5327 0
M  V30 2661 O 251.416 0.485338 -1.82145 0
M  V30 2662 C 248.543 0.490759 -3.35126 0
M  V30 2663 C 247.589 -0.343358 -4.25116 0
M  V30 2664 S 248.422 -1.75344 -5.05979 0
M  V30 2665 C 249.578 -0.914244 -6.19187 0
M  V30 2666 H 249.811 -1.18123 -2.72826 0
M  V30 2667 H 247.344 -0.720636 -1.36551 0
M  V30 2668 H 249.302 0.973404 -3.98792 0
M  V30 2669 H 247.963 1.29054 -2.86363 0
M  V30 2670 H 247.156 0.304266 -5.03081 0
M  V30 2671 H 246.758 -0.759851 -3.662 0
M  V30 2672 H 249.05 -0.146282 -6.77342 0
M  V30 2673 H 249.993 -1.66661 -6.88208 0
M  V30 2674 H 250.401 -0.460082 -5.62622 0
M  V30 2675 N 249.799 1.42003 -0.683588 0
M  V30 2676 C 251.029 2.05448 -0.217866 0
M  V30 2677 C 251.437 1.51491 1.13346 0
M  V30 2678 O 250.78 0.653048 1.717 0
M  V30 2679 C 250.842 3.59399 -0.0850118 0
M  V30 2680 C 250.506 4.36093 -1.36645 0
M  V30 2681 C 251.503 4.66169 -2.30179 0
M  V30 2682 C 249.188 4.75578 -1.61649 0
M  V30 2683 C 251.182 5.34676 -3.46988 0
M  V30 2684 C 248.869 5.43824 -2.78745 0
M  V30 2685 C 249.867 5.73299 -3.71238 0
M  V30 2686 O 249.555 6.40142 -4.86285 0
M  V30 2687 H 249.287 0.668344 -0.101454 0
M  V30 2688 H 251.841 1.82974 -0.933248 0
M  V30 2689 H 250.071 3.80566 0.686031 0
M  V30 2690 H 251.76 4.04457 0.341973 0
M  V30 2691 H 252.526 4.36156 -2.12115 0
M  V30 2692 H 248.405 4.52025 -0.905243 0
M  V30 2693 H 251.949 5.57599 -4.19201 0
M  V30 2694 H 247.846 5.73254 -2.96732 0
M  V30 2695 H 248.614 6.58636 -4.85944 0
M  V30 2696 N 251.277 0.427512 1.51691 0
M  V30 2697 C 252.207 -0.3796 2.30394 0
M  V30 2698 C 253.188 -1.02982 1.35384 0
M  V30 2699 O 254.373 -1.03534 1.643 0
M  V30 2700 C 251.503 -1.48649 3.1388 0
M  V30 2701 C 250.457 -0.960294 4.17088 0
M  V30 2702 C 249.783 -2.16219 4.89033 0
M  V30 2703 C 251.083 -0.00153679 5.223 0
M  V30 2704 H 252.777 0.277164 2.98114 0
M  V30 2705 H 250.323 0.134739 1.43368 0
M  V30 2706 H 252.276 -2.05826 3.67714 0
M  V30 2707 H 251 -2.1714 2.43962 0
M  V30 2708 H 249.659 -0.410806 3.64291 0
M  V30 2709 H 249.307 -2.83307 4.15628 0
M  V30 2710 H 249.007 -1.81654 5.58816 0
M  V30 2711 H 250.531 -2.73968 5.45687 0
M  V30 2712 H 251.945 -0.482687 5.71264 0
M  V30 2713 H 250.342 0.256199 5.99553 0
M  V30 2714 H 251.412 0.938174 4.75738 0
M  V30 2715 N 252.755 -1.56801 0.158532 0
M  V30 2716 C 253.702 -2.17337 -0.776729 0
M  V30 2717 C 254.672 -1.1096 -1.23601 0
M  V30 2718 O 255.857 -1.39054 -1.30647 0
M  V30 2719 C 252.997 -2.80822 -2.00582 0
M  V30 2720 C 252.11 -4.01624 -1.59129 0
M  V30 2721 C 251.245 -4.53072 -2.77306 0
M  V30 2722 C 250.284 -5.66314 -2.32282 0
M  V30 2723 N 249.421 -6.12329 -3.43508 0
M  V30 2724 H 254.261 -2.96918 -0.253701 0
M  V30 2725 H 251.798 -1.46661 -0.113504 0
M  V30 2726 H 253.756 -3.15779 -2.72652 0
M  V30 2727 H 252.386 -2.03866 -2.50277 0
M  V30 2728 H 251.438 -3.72571 -0.767806 0
M  V30 2729 H 252.75 -4.83633 -1.2207 0
M  V30 2730 H 251.904 -4.90145 -3.57551 0
M  V30 2731 H 250.643 -3.70095 -3.17617 0
M  V30 2732 H 249.648 -5.28806 -1.5048 0
M  V30 2733 H 250.873 -6.51085 -1.93043 0
M  V30 2734 H 248.819 -5.32284 -3.83418 0
M  V30 2735 H 248.736 -6.89293 -3.105 0
M  V30 2736 H 250.004 -6.5405 -4.24075 0
M  V30 2737 N 254.233 0.115231 -1.57178 0
M  V30 2738 C 255.479 0.82357 -1.85325 0
M  V30 2739 C 255.812 1.79349 -0.744814 0
M  V30 2740 O 255.087 1.92899 0.249024 0
M  V30 2741 C 255.37 1.57014 -3.24066 0
M  V30 2742 C 255.223 0.619565 -4.45513 0
M  V30 2743 C 256.542 2.52545 -3.60429 0
M  V30 2744 H 253.661 0.297948 -0.674089 0
M  V30 2745 H 256.303 0.0877138 -1.89797 0
M  V30 2746 H 254.453 2.19742 -3.20383 0
M  V30 2747 H 256.125 0.000837639 -4.613 0
M  V30 2748 H 254.368 -0.0686174 -4.33746 0
M  V30 2749 H 255.039 1.17866 -5.3927 0
M  V30 2750 H 257.515 1.9992 -3.64926 0
M  V30 2751 H 256.391 3.01811 -4.58477 0
M  V30 2752 H 256.652 3.35383 -2.88047 0
M  V30 2753 N 255.711 1.52812 0.385517 0
M  V30 2754 C 256.643 1.74096 1.49074 0
M  V30 2755 C 257.656 0.621462 1.50472 0
M  V30 2756 O 258.845 0.897245 1.54311 0
M  V30 2757 C 255.945 1.78774 2.87911 0
M  V30 2758 C 255.118 3.08134 3.10439 0
M  V30 2759 C 254.177 3.04313 4.29278 0
M  V30 2760 O 253.203 3.78168 4.25415 0
M  V30 2761 N 254.405 2.23741 5.35649 0
M  V30 2762 H 257.17 2.69455 1.31202 0
M  V30 2763 H 254.731 1.51343 0.575065 0
M  V30 2764 H 256.723 1.73721 3.65518 0
M  V30 2765 H 255.293 0.907869 2.99126 0
M  V30 2766 H 254.513 3.26649 2.20667 0
M  V30 2767 H 255.801 3.93662 3.22347 0
M  V30 2768 H 255.199 1.63211 5.41645 0
M  V30 2769 H 253.756 2.24524 6.11909 0
M  V30 2770 N 257.189 -0.644168 1.43834 0
M  V30 2771 C 258.6 -1.22554 1.40845 0
M  V30 2772 C 258.951 -1.9585 0.117115 0
M  V30 2773 O 258.076 -2.01734 -0.783086 0
M  V30 2774 C 258.671 -2.22907 2.55143 0
M  V30 2775 C 257.23 -2.76501 2.5539 0
M  V30 2776 C 256.377 -1.51287 2.32396 0
M  V30 2777 H 259.328 -0.43563 1.52604 0
M  V30 2778 H 259.349 -3.05259 2.2715 0
M  V30 2779 H 258.861 -1.69533 3.49114 0
M  V30 2780 H 256.962 -3.33914 1.65324 0
M  V30 2781 H 257.075 -3.23429 3.53455 0
M  V30 2782 H 255.439 -1.78957 1.81236 0
M  V30 2783 H 256.222 -0.998336 3.28463 0
M  V30 2784 N 258.668 -1.30515 -0.883378 0
M  V30 2785 C 259.615 -1.17032 -1.98927 0
M  V30 2786 C 260.585 -0.0594241 -1.65994 0
M  V30 2787 O 261.77 -0.229895 -1.8941 0
M  V30 2788 C 258.91 -0.869777 -3.33959 0
M  V30 2789 C 258.023 -2.06271 -3.79574 0
M  V30 2790 C 257.158 -1.70011 -5.03259 0
M  V30 2791 C 256.197 -2.8579 -5.41286 0
M  V30 2792 N 255.334 -2.49816 -6.56153 0
M  V30 2793 H 260.174 -2.1164 -2.09792 0
M  V30 2794 H 257.711 -1.05296 -1.02719 0
M  V30 2795 H 259.669 -0.676138 -4.11685 0
M  V30 2796 H 258.299 0.0394332 -3.22776 0
M  V30 2797 H 257.351 -2.36755 -2.97744 0
M  V30 2798 H 258.663 -2.92971 -4.03694 0
M  V30 2799 H 257.817 -1.47032 -5.88614 0
M  V30 2800 H 256.556 -0.804829 -4.81013 0
M  V30 2801 H 255.561 -3.09434 -4.54456 0
M  V30 2802 H 256.786 -3.76008 -5.65504 0
M  V30 2803 H 254.732 -1.62795 -6.35479 0
M  V30 2804 H 254.649 -3.30048 -6.8015 0
M  V30 2805 H 255.917 -2.30197 -7.44735 0
M  V30 2806 N 260.146 1.09593 -1.13257 0
M  V30 2807 C 261.078 2.16015 -0.766167 0
M  V30 2808 C 262.091 1.61423 0.211303 0
M  V30 2809 O 263.28 1.78498 -0.00863946 0
M  V30 2810 C 260.38 3.38706 -0.114662 0
M  V30 2811 C 259.553 4.22717 -1.12379 0
M  V30 2812 C 258.612 5.23835 -0.498301 0
M  V30 2813 O 257.638 5.573 -1.15781 0
M  V30 2814 N 258.84 5.75886 0.730417 0
M  V30 2815 H 261.605 2.48055 -1.68193 0
M  V30 2816 H 259.166 1.25292 -1.02535 0
M  V30 2817 H 261.158 4.03464 0.315991 0
M  V30 2818 H 259.728 3.04569 0.704011 0
M  V30 2819 H 258.948 3.54122 -1.73179 0
M  V30 2820 H 260.236 4.75673 -1.80589 0
M  V30 2821 H 259.634 5.50911 1.28504 0
M  V30 2822 H 258.191 6.42387 1.10376 0
M  V30 2823 N 261.624 0.925811 1.2754 0
M  V30 2824 C 262.554 0.440748 2.29303 0
M  V30 2825 C 263.535 -0.497971 1.62648 0
M  V30 2826 O 264.72 -0.403126 1.8997 0
M  V30 2827 C 261.85 -0.309048 3.45922 0
M  V30 2828 C 260.804 0.54166 4.24559 0
M  V30 2829 C 260.13 -0.337191 5.33636 0
M  V30 2830 C 261.43 1.80516 4.90114 0
M  V30 2831 H 263.124 1.29121 2.70126 0
M  V30 2832 H 260.67 0.622323 1.29858 0
M  V30 2833 H 262.623 -0.659315 4.1621 0
M  V30 2834 H 261.347 -1.19352 3.04011 0
M  V30 2835 H 260.006 0.874609 3.56014 0
M  V30 2836 H 259.654 -1.22056 4.87966 0
M  V30 2837 H 259.354 0.228497 5.87156 0
M  V30 2838 H 260.878 -0.683072 6.06767 0
M  V30 2839 H 262.292 1.52307 5.52698 0
M  V30 2840 H 260.689 2.3142 5.53683 0
M  V30 2841 H 261.759 2.52581 4.13921 0
M  V30 2842 N 263.102 -1.41638 0.69111 0
M  V30 2843 C 264.348 -2.01598 0.220519 0
M  V30 2844 C 264.681 -1.54594 -1.17535 0
M  V30 2845 O 263.956 -0.755177 -1.79241 0
M  V30 2846 C 264.239 -3.59062 0.273243 0
M  V30 2847 C 264.092 -4.16203 1.70573 0
M  V30 2848 C 265.411 -4.38546 -0.369457 0
M  V30 2849 H 262.53 -0.732468 0.0816045 0
M  V30 2850 H 265.172 -1.68445 0.878986 0
M  V30 2851 H 263.322 -3.87435 -0.287411 0
M  V30 2852 H 264.994 -3.98722 2.31989 0
M  V30 2853 H 263.237 -3.71414 2.2413 0
M  V30 2854 H 263.908 -5.25358 1.69419 0
M  V30 2855 H 266.384 -4.1596 0.107977 0
M  V30 2856 H 265.26 -5.48069 -0.302002 0
M  V30 2857 H 265.521 -4.17662 -1.44951 0
M  V30 2858 N 264.58 -0.43555 -1.51462 0
M  V30 2859 C 265.527 0.376797 -2.27703 0
M  V30 2860 C 266.497 1.01838 -1.31219 0
M  V30 2861 O 267.682 1.03762 -1.60119 0
M  V30 2862 C 264.822 1.47301 -3.12084 0
M  V30 2863 C 263.935 0.849744 -4.2356 0
M  V30 2864 C 263.07 1.92086 -4.95254 0
M  V30 2865 C 262.109 1.27593 -5.98654 0
M  V30 2866 N 261.246 2.28833 -6.63762 0
M  V30 2867 H 266.086 -0.279734 -2.96684 0
M  V30 2868 H 263.623 -0.149795 -1.46335 0
M  V30 2869 H 265.581 2.11984 -3.59331 0
M  V30 2870 H 264.211 2.0992 -2.45221 0
M  V30 2871 H 263.263 0.0912529 -3.80291 0
M  V30 2872 H 264.575 0.338878 -4.97648 0
M  V30 2873 H 263.729 2.64435 -5.46039 0
M  V30 2874 H 262.468 2.46545 -4.20793 0
M  V30 2875 H 261.473 0.537893 -5.47162 0
M  V30 2876 H 262.698 0.738693 -6.7507 0
M  V30 2877 H 260.644 2.82375 -5.92115 0
M  V30 2878 H 260.561 1.82632 -7.33608 0
M  V30 2879 H 261.829 3.00671 -7.19178 0
M  V30 2880 N 266.058 1.56714 -0.166846 0
M  V30 2881 C 267.008 2.14338 0.777382 0
M  V30 2882 C 267.992 1.07642 1.19591 0
M  V30 2883 O 269.184 1.33775 1.15902 0
M  V30 2884 C 266.313 2.78417 2.00846 0
M  V30 2885 C 265.399 3.92264 1.61212 0
M  V30 2886 N 265.79 4.97268 0.925104 0
M  V30 2887 C 264.088 4.03342 1.90346 0
M  V30 2888 C 264.789 5.77093 0.730627 0
M  V30 2889 N 263.765 5.2854 1.27067 0
M  V30 2890 H 267.567 2.9289 0.243466 0
M  V30 2891 H 265.081 1.62364 0.0339954 0
M  V30 2892 H 267.078 3.18073 2.69509 0
M  V30 2893 H 265.738 2.01344 2.54736 0
M  V30 2894 H 266.749 5.14601 0.583646 0
M  V30 2895 H 263.426 3.37368 2.45946 0
M  V30 2896 H 264.816 6.71638 0.187668 0
M  V30 2897 N 267.536 -0.106894 1.57237 0
M  V30 2898 C 268.783 -0.812526 1.85484 0
M  V30 2899 C 269.111 -1.79304 0.753687 0
M  V30 2900 O 268.366 -1.94047 -0.253853 0
M  V30 2901 C 268.665 -1.58628 3.20268 0
M  V30 2902 C 268.331 -0.748967 4.44636 0
M  V30 2903 C 266.993 -0.518104 4.78403 0
M  V30 2904 C 269.345 -0.166122 5.20935 0
M  V30 2905 C 266.673 0.305659 5.85903 0
M  V30 2906 C 269.025 0.644899 6.29304 0
M  V30 2907 C 267.689 0.885965 6.61594 0
M  V30 2908 H 266.959 -0.297324 0.678734 0
M  V30 2909 H 269.606 -0.0744332 1.91355 0
M  V30 2910 H 267.911 -2.39562 3.10028 0
M  V30 2911 H 269.608 -2.13643 3.39349 0
M  V30 2912 H 266.198 -0.939006 4.18187 0
M  V30 2913 H 270.382 -0.33167 4.95191 0
M  V30 2914 H 265.638 0.501528 6.0934 0
M  V30 2915 H 269.812 1.10345 6.87602 0
M  V30 2916 H 267.439 1.52609 7.44725 0
M  V30 2917 N 269.014 -1.53014 -0.377408 0
M  V30 2918 C 269.924 -1.81557 -1.48574 0
M  V30 2919 C 270.94 -0.703102 -1.59162 0
M  V30 2920 O 272.116 -0.99192 -1.75279 0
M  V30 2921 C 269.181 -1.9889 -2.83978 0
M  V30 2922 C 268.242 -3.22801 -2.83016 0
M  V30 2923 C 267.475 -3.39298 -4.11962 0
M  V30 2924 O 267.698 -2.60345 -5.0752 0
M  V30 2925 O 266.632 -4.32604 -4.18494 0
M  V30 2926 H 270.458 -2.75695 -1.27382 0
M  V30 2927 H 268.043 -1.38248 -0.566373 0
M  V30 2928 H 269.925 -2.11931 -3.6423 0
M  V30 2929 H 268.6 -1.07942 -3.05172 0
M  V30 2930 H 267.507 -3.15193 -2.01505 0
M  V30 2931 H 268.84 -4.13632 -2.66775 0
M  V30 2932 N 270.492 0.636531 -1.44174 0
M  V30 2933 C 271.741 1.39213 -1.45954 0
M  V30 2934 C 272.054 1.95374 -0.0939119 0
M  V30 2935 O 273.26 2.71498 0.0107767 0
M  V30 2936 C 271.716 2.52025 -2.56927 0
M  V30 2937 C 271.324 2.024 -3.99673 0
M  V30 2938 C 273.068 3.29269 -2.67922 0
M  V30 2939 C 270.975 3.12521 -5.0208 0
M  V30 2940 H 269.905 0.523132 -0.542999 0
M  V30 2941 H 272.556 0.685349 -1.70221 0
M  V30 2942 H 270.938 3.25253 -2.25891 0
M  V30 2943 H 272.112 1.36073 -4.40251 0
M  V30 2944 H 270.427 1.37987 -3.92872 0
M  V30 2945 H 273.024 4.11352 -3.41605 0
M  V30 2946 H 273.367 3.78397 -1.73555 0
M  V30 2947 H 273.9 2.63129 -2.98342 0
M  V30 2948 H 270.639 2.68343 -5.98057 0
M  V30 2949 H 270.159 3.77507 -4.66099 0
M  V30 2950 H 271.838 3.77385 -5.25538 0
M  V30 2951 N 271.97 1.30982 0.876444 0
M  V30 2952 C 272.88 1.2003 2.01569 0
M  V30 2953 C 273.896 0.11838 1.73597 0
M  V30 2954 O 275.072 0.33495 1.98595 0
M  V30 2955 C 272.137 0.901637 3.34771 0
M  V30 2956 C 271.198 2.06979 3.76109 0
M  V30 2957 C 270.431 1.78529 5.02954 0
M  V30 2958 O 270.654 0.717296 5.65872 0
M  V30 2959 O 269.588 2.64019 5.40905 0
M  V30 2960 H 273.414 2.15753 2.13739 0
M  V30 2961 H 270.999 1.10658 1.00375 0
M  V30 2962 H 272.881 0.750645 4.1466 0
M  V30 2963 H 271.556 -0.0256141 3.2369 0
M  V30 2964 H 270.463 2.27616 2.96887 0
M  V30 2965 H 271.796 2.97907 3.91807 0
M  V30 2966 N 273.449 -1.08991 1.13837 0
M  V30 2967 C 274.695 -1.81526 0.90422 0
M  V30 2968 C 275.028 -1.85706 -0.568066 0
M  V30 2969 O 274.303 -1.32855 -1.42056 0
M  V30 2970 C 274.586 -3.27447 1.49835 0
M  V30 2971 C 274.439 -3.31512 3.04006 0
M  V30 2972 C 275.758 -4.24256 1.17025 0
M  V30 2973 H 272.877 -0.659029 0.329923 0
M  V30 2974 H 275.519 -1.27644 1.40737 0
M  V30 2975 H 273.669 -3.73462 1.07044 0
M  V30 2976 H 275.341 -2.93867 3.55584 0
M  V30 2977 H 273.584 -2.70963 3.38765 0
M  V30 2978 H 274.255 -4.34329 3.40679 0
M  V30 2979 H 276.731 -3.86549 1.54009 0
M  V30 2980 H 275.607 -5.24684 1.61237 0
M  V30 2981 H 275.868 -4.42019 0.0846274 0
M  V30 2982 N 274.927 -0.932562 -1.27047 0
M  V30 2983 C 276.204 -0.49377 -1.89265 0
M  V30 2984 C 276.584 1.02833 -1.8436 0
M  V30 2985 O 275.932 1.88461 -1.29209 0
M  V30 2986 C 276.142 -1.04536 -3.32976 0
M  V30 2987 C 277.49 -1.10879 -4.09867 0
M  V30 2988 O 278.514 -0.995327 -3.42011 0
M  V30 2989 O 277.373 -1.28417 -5.31198 0
M  V30 2990 H 274.467 -0.159596 -0.811454 0
M  V30 2991 H 277.013 -1.02457 -1.3528 0
M  V30 2992 H 275.785 -2.08913 -3.30864 0
M  V30 2993 H 275.408 -0.496494 -3.94488 0
M  V30 2994 N 276.405 1.4127 -0.698611 0
M  V30 2995 C 277.654 2.00408 -0.227949 0
M  V30 2996 C 277.967 1.55981 1.18023 0
M  V30 2997 O 279.173 2.07699 1.74852 0
M  V30 2998 C 277.629 3.58129 -0.356636 0
M  V30 2999 C 277.237 4.11536 -1.77037 0
M  V30 3000 C 278.981 4.24466 0.0540969 0
M  V30 3001 C 276.888 5.61701 -1.85055 0
M  V30 3002 H 275.818 0.749586 -0.0814657 0
M  V30 3003 H 278.469 1.61713 -0.867249 0
M  V30 3004 H 276.851 3.94442 0.350965 0
M  V30 3005 H 278.025 3.86636 -2.50698 0
M  V30 3006 H 276.34 3.57736 -2.13105 0
M  V30 3007 H 278.937 5.34698 0.0146723 0
M  V30 3008 H 279.28 4.01687 1.09332 0
M  V30 3009 H 279.813 3.93198 -0.603337 0
M  V30 3010 H 276.552 5.89312 -2.8704 0
M  V30 3011 H 276.072 5.88519 -1.15783 0
M  V30 3012 H 277.751 6.26524 -1.61484 0
M  V30 3013 N 277.883 0.443576 1.51229 0
M  V30 3014 C 279.13 -0.120796 2.02139 0
M  V30 3015 C 279.458 -1.42166 1.32736 0
M  V30 3016 O 278.713 -1.90849 0.43301 0
M  V30 3017 C 279.012 -0.380579 3.55368 0
M  V30 3018 C 278.678 0.83523 4.43097 0
M  V30 3019 C 277.34 1.16864 4.66794 0
M  V30 3020 C 279.692 1.64601 4.94526 0
M  V30 3021 C 277.02 2.31339 5.39165 0
M  V30 3022 C 279.372 2.78181 5.68153 0
M  V30 3023 C 278.036 3.11969 5.90112 0
M  V30 3024 H 277.306 -0.0442023 0.73968 0
M  V30 3025 H 279.953 0.592046 1.82118 0
M  V30 3026 H 278.258 -1.17538 3.73754 0
M  V30 3027 H 279.955 -0.830777 3.923 0
M  V30 3028 H 276.545 0.565437 4.24854 0
M  V30 3029 H 280.729 1.40163 4.76097 0
M  V30 3030 H 275.985 2.57823 5.5438 0
M  V30 3031 H 280.159 3.41371 6.06992 0
M  V30 3032 H 277.786 4.00784 6.45969 0
M  V30 3033 N 279.361 -1.56624 0.175154 0
M  V30 3034 C 280.271 -2.21741 -0.766042 0
M  V30 3035 C 281.287 -1.21023 -1.25018 0
M  V30 3036 O 282.463 -1.53697 -1.3015 0
M  V30 3037 C 279.528 -2.84839 -1.97655 0
M  V30 3038 C 278.589 -4.00769 -1.53892 0
M  V30 3039 C 277.822 -4.60849 -2.69173 0
M  V30 3040 O 278.045 -4.19823 -3.86141 0
M  V30 3041 O 276.979 -5.50655 -2.43028 0
M  V30 3042 H 280.805 -3.02738 -0.241585 0
M  V30 3043 H 278.39 -1.49305 -0.053222 0
M  V30 3044 H 280.272 -3.24834 -2.68442 0
M  V30 3045 H 278.947 -2.06836 -2.48999 0
M  V30 3046 H 277.854 -3.65436 -0.80044 0
M  V30 3047 H 279.187 -4.80376 -1.07236 0
M  V30 3048 N 280.839 0.0985539 -1.57292 0
M  V30 3049 C 282.25 0.653457 -1.74891 0
M  V30 3050 C 282.601 1.7929 -0.796838 0
M  V30 3051 O 281.726 2.16385 0.0254886 0
M  V30 3052 C 282.321 1.19216 -3.17133 0
M  V30 3053 C 280.88 1.69316 -3.36168 0
M  V30 3054 C 280.027 0.601294 -2.70702 0
M  V30 3055 H 282.978 -0.127497 -1.58187 0
M  V30 3056 H 282.999 2.06154 -3.19814 0
M  V30 3057 H 282.511 0.362635 -3.86402 0
M  V30 3058 H 280.612 2.5468 -2.71972 0
M  V30 3059 H 280.725 1.78853 -4.44464 0
M  V30 3060 H 279.089 1.0399 -2.32504 0
M  V30 3061 H 279.872 -0.217592 -3.4261 0
M  V30 3062 N 282.317 1.53212 0.369288 0
M  V30 3063 C 283.249 1.75668 1.47219 0
M  V30 3064 C 284.262 0.637387 1.49804 0
M  V30 3065 O 285.451 0.913561 1.5335 0
M  V30 3066 C 282.551 1.81818 2.85999 0
M  V30 3067 C 281.724 3.11409 3.07153 0
M  V30 3068 C 280.783 3.08849 4.26026 0
M  V30 3069 O 279.809 3.82659 4.2138 0
M  V30 3070 N 281.011 2.29409 5.33246 0
M  V30 3071 H 283.776 2.70832 1.28337 0
M  V30 3072 H 281.337 1.51944 0.55898 0
M  V30 3073 H 283.329 1.77588 3.63655 0
M  V30 3074 H 281.899 0.939544 2.98146 0
M  V30 3075 H 281.119 3.28971 2.1719 0
M  V30 3076 H 282.407 3.97059 3.18154 0
M  V30 3077 H 281.805 1.68946 5.39883 0
M  V30 3078 H 280.362 2.31001 6.09493 0
M  V30 3079 N 283.795 -0.628877 1.44509 0
M  V30 3080 C 285.043 -1.38565 1.4712 0
M  V30 3081 C 285.364 -1.94712 0.105899 0
M  V30 3082 O 284.634 -1.75912 -0.862079 0
M  V30 3083 H 283.214 -0.514333 0.541729 0
M  V30 3084 H 285.876 -0.740018 1.80305 0
M  V30 3085 H 284.972 -2.21583 2.19789 0
M  V30 3086 N 285.273 -1.31445 -0.869486 0
M  V30 3087 C 286.522 -1.20517 -1.61736 0
M  V30 3088 C 286.835 0.235341 -1.94179 0
M  V30 3089 O 288.041 0.466312 -2.67465 0
M  V30 3090 C 286.497 -2.10982 -2.91573 0
M  V30 3091 C 286.105 -3.60032 -2.66611 0
M  V30 3092 C 287.849 -2.08856 -3.69567 0
M  V30 3093 C 285.756 -4.42503 -3.92358 0
M  V30 3094 H 284.686 -0.447493 -0.606849 0
M  V30 3095 H 287.337 -1.56303 -0.96133 0
M  V30 3096 H 285.719 -1.68095 -3.58553 0
M  V30 3097 H 286.893 -4.11167 -2.08035 0
M  V30 3098 H 285.208 -3.64139 -2.0197 0
M  V30 3099 H 287.805 -2.67716 -4.62852 0
M  V30 3100 H 288.148 -1.07582 -4.02159 0
M  V30 3101 H 288.681 -2.49945 -3.09471 0
M  V30 3102 H 285.42 -5.44533 -3.64916 0
M  V30 3103 H 284.94 -3.96125 -4.50383 0
M  V30 3104 H 286.619 -4.54741 -4.60238 0
M  V30 3105 N 286.751 1.08385 -1.14413 0
M  V30 3106 C 287.976 1.85057 -0.936413 0
M  V30 3107 C 288.401 1.81055 0.509971 0
M  V30 3108 O 287.759 1.1958 1.36273 0
M  V30 3109 C 287.807 3.30505 -1.44217 0
M  V30 3110 O 286.911 4.07491 -0.634409 0
M  V30 3111 H 286.252 0.573425 -0.334784 0
M  V30 3112 H 288.782 1.36799 -1.52142 0
M  V30 3113 H 288.792 3.81348 -1.45043 0
M  V30 3114 H 287.467 3.32734 -2.49522 0
M  V30 3115 H 286.044 3.66368 -0.694902 0
M  V30 3116 N 288.23 0.939286 1.26551 0
M  V30 3117 C 289.163 0.391702 2.24813 0
M  V30 3118 C 290.141 -0.518421 1.54114 0
M  V30 3119 O 291.325 -0.456299 1.82894 0
M  V30 3120 C 288.452 -0.437382 3.35864 0
M  V30 3121 C 287.498 0.410946 4.24516 0
M  V30 3122 S 288.331 1.83372 5.03125 0
M  V30 3123 C 289.487 1.01264 6.17654 0
M  V30 3124 H 289.72 1.22448 2.70913 0
M  V30 3125 H 287.253 0.742269 1.35387 0
M  V30 3126 H 289.211 -0.909837 4.0029 0
M  V30 3127 H 287.872 -1.24482 2.8838 0
M  V30 3128 H 287.065 -0.224191 5.03501 0
M  V30 3129 H 286.667 0.818014 3.64945 0
M  V30 3130 H 288.959 0.254023 6.77024 0
M  V30 3131 H 289.902 1.77589 6.85469 0
M  V30 3132 H 290.31 0.549532 5.61819 0
M  V30 3133 N 289.708 -1.40897 0.706093 0
M  V30 3134 C 290.638 -2.33418 0.0620085 0
M  V30 3135 C 291.619 -1.52385 -0.755827 0
M  V30 3136 O 292.804 -1.80886 -0.706674 0
M  V30 3137 C 289.934 -3.36293 -0.867445 0
M  V30 3138 C 288.888 -4.27716 -0.155932 0
M  V30 3139 C 288.214 -5.2105 -1.20046 0
M  V30 3140 C 289.514 -5.12944 0.984149 0
M  V30 3141 H 291.208 -2.87527 0.83477 0
M  V30 3142 H 288.754 -1.38249 0.402875 0
M  V30 3143 H 290.707 -3.99949 -1.32735 0
M  V30 3144 H 289.431 -2.80556 -1.67199 0
M  V30 3145 H 288.09 -3.65498 0.284047 0
M  V30 3146 H 287.738 -4.61624 -1.99781 0
M  V30 3147 H 287.438 -5.83056 -0.729328 0
M  V30 3148 H 288.962 -5.87584 -1.66066 0
M  V30 3149 H 290.376 -5.70109 0.604048 0
M  V30 3150 H 288.773 -5.83945 1.38304 0
M  V30 3151 H 289.843 -4.49485 1.81911 0
M  V30 3152 N 291.186 -0.45159 -1.50991 0
M  V30 3153 C 292.463 0.170707 -1.94854 0
M  V30 3154 C 292.843 1.58788 -1.39103 0
M  V30 3155 O 292.191 2.20913 -0.583921 0
M  V30 3156 C 292.401 0.133929 -3.48743 0
M  V30 3157 C 293.749 0.33248 -4.23296 0
M  V30 3158 O 294.773 0.211403 -3.55572 0
M  V30 3159 O 293.632 0.57486 -5.43468 0
M  V30 3160 H 290.726 0.122264 -0.817912 0
M  V30 3161 H 293.272 -0.510594 -1.61836 0
M  V30 3162 H 292.044 -0.856283 -3.81816 0
M  V30 3163 H 291.667 0.857529 -3.88242 0
M  V30 3164 N 292.664 1.56529 -0.183458 0
M  V30 3165 C 293.627 2.17324 0.728223 0
M  V30 3166 C 294.627 1.12453 1.14939 0
M  V30 3167 O 295.817 1.37902 1.06437 0
M  V30 3168 C 292.949 2.76591 1.99274 0
M  V30 3169 H 294.142 2.99241 0.198772 0
M  V30 3170 H 291.695 1.5616 0.0661391 0
M  V30 3171 H 292.43 1.98441 2.56499 0
M  V30 3172 H 292.215 3.5335 1.69959 0
M  V30 3173 H 293.705 3.23311 2.6431 0
M  V30 3174 N 294.142 -0.090211 1.57342 0
M  V30 3175 C 295.052 -1.12735 2.05738 0
M  V30 3176 C 296.068 -1.43557 0.983231 0
M  V30 3177 O 297.244 -1.54101 1.29672 0
M  V30 3178 C 294.309 -2.42659 2.47624 0
M  V30 3179 C 293.37 -2.18975 3.69254 0
M  V30 3180 C 292.603 -3.42704 4.09133 0
M  V30 3181 O 292.826 -4.51127 3.49057 0
M  V30 3182 O 291.76 -3.32003 5.02053 0
M  V30 3183 H 295.586 -0.746279 2.94388 0
M  V30 3184 H 293.171 -0.303064 1.46294 0
M  V30 3185 H 295.053 -3.19155 2.7517 0
M  V30 3186 H 293.728 -2.80182 1.62109 0
M  V30 3187 H 292.635 -1.40244 3.46818 0
M  V30 3188 H 293.968 -1.86342 4.55563 0
M  V30 3189 N 295.62 -1.53406 -0.361157 0
M  V30 3190 C 296.583 -1.79479 -1.42548 0
M  V30 3191 C 297.583 -0.665327 -1.4639 0
M  V30 3192 O 298.773 -0.933549 -1.47073 0
M  V30 3193 C 295.905 -1.92087 -2.8163 0
M  V30 3194 H 297.098 -2.74538 -1.20701 0
M  V30 3195 H 294.651 -1.4455 -0.594546 0
M  V30 3196 H 295.386 -0.991099 -3.08784 0
M  V30 3197 H 295.171 -2.74241 -2.80239 0
M  V30 3198 H 296.661 -2.13836 -3.58697 0
M  V30 3199 N 297.098 0.621204 -1.44841 0
M  V30 3200 C 298.323 1.41244 -1.51871 0
M  V30 3201 C 298.748 1.87519 -0.147764 0
M  V30 3202 O 298.106 1.59334 0.865 0
M  V30 3203 C 298.154 2.60221 -2.49634 0
M  V30 3204 O 297.258 3.60395 -2.00473 0
M  V30 3205 H 296.599 0.42223 -0.512463 0
M  V30 3206 H 299.129 0.757305 -1.90069 0
M  V30 3207 H 299.139 3.0764 -2.67996 0
M  V30 3208 H 297.814 2.25887 -3.4921 0
M  V30 3209 H 296.391 3.19717 -1.91925 0
M  V30 3210 N 298.576 1.31904 0.862503 0
M  V30 3211 C 299.823 1.22017 1.61611 0
M  V30 3212 C 300.151 -0.21991 1.93253 0
M  V30 3213 O 299.406 -1.17076 1.56817 0
M  V30 3214 C 299.705 2.01713 2.95037 0
M  V30 3215 C 299.371 3.51145 2.82857 0
M  V30 3216 C 298.033 3.91889 2.79243 0
M  V30 3217 C 300.385 4.46204 2.69353 0
M  V30 3218 C 297.713 5.25947 2.59993 0
M  V30 3219 C 300.065 5.80397 2.5164 0
M  V30 3220 C 298.729 6.20352 2.46413 0
M  V30 3221 H 297.999 0.44649 0.591378 0
M  V30 3222 H 300.646 1.63248 1.00111 0
M  V30 3223 H 298.951 1.53185 3.60613 0
M  V30 3224 H 300.648 1.91437 3.52353 0
M  V30 3225 H 297.238 3.1878 2.86491 0
M  V30 3226 H 301.422 4.15652 2.71196 0
M  V30 3227 H 296.678 5.5597 2.54376 0
M  V30 3228 H 300.852 6.53676 2.40169 0
M  V30 3229 H 298.479 7.24172 2.31256 0
M  V30 3230 N 300.054 -1.07777 1.14986 0
M  V30 3231 C 301.303 -1.79669 0.916617 0
M  V30 3232 C 301.616 -1.87474 -0.557917 0
M  V30 3233 O 302.822 -2.55845 -0.908617 0
M  V30 3234 C 301.278 -3.22848 1.59051 0
M  V30 3235 C 300.886 -3.23257 3.10176 0
M  V30 3236 C 302.63 -3.99379 1.43864 0
M  V30 3237 C 300.537 -4.61063 3.70372 0
M  V30 3238 H 299.467 -0.673349 0.33929 0
M  V30 3239 H 302.118 -1.21003 1.37951 0
M  V30 3240 H 300.5 -3.8168 1.0553 0
M  V30 3241 H 301.674 -2.74095 3.70417 0
M  V30 3242 H 299.989 -2.60222 3.25074 0
M  V30 3243 H 302.586 -5.0122 1.86232 0
M  V30 3244 H 302.929 -4.14511 0.385564 0
M  V30 3245 H 303.462 -3.47032 1.94457 0
M  V30 3246 H 300.201 -4.51135 4.7556 0
M  V30 3247 H 299.721 -5.1048 3.14913 0
M  V30 3248 H 301.4 -5.30034 3.71043 0
M  V30 3249 N 301.532 -0.945985 -1.26051 0
M  V30 3250 C 302.76 -0.613025 -1.9761 0
M  V30 3251 C 303.175 0.813035 -1.70397 0
M  V30 3252 O 302.532 1.54274 -0.974979 0
M  V30 3253 C 302.583 -0.85159 -3.51326 0
M  V30 3254 O 302.304 -2.22157 -3.77595 0
M  V30 3255 C 303.805 -0.529831 -4.40122 0
M  V30 3256 H 301.025 -0.230593 -0.630133 0
M  V30 3257 H 303.569 -1.268 -1.60443 0
M  V30 3258 H 301.724 -0.243151 -3.86636 0
M  V30 3259 H 302.138 -2.2852 -4.721 0
M  V30 3260 H 303.612 -0.747348 -5.46917 0
M  V30 3261 H 304.089 0.535341 -4.35925 0
M  V30 3262 H 304.695 -1.11721 -4.10364 0
M  V30 3263 N 303.011 1.40521 -0.713556 0
M  V30 3264 C 303.959 2.32549 -0.0485227 0
M  V30 3265 C 304.953 1.51931 0.74922 0
M  V30 3266 O 306.159 1.67745 0.652816 0
M  V30 3267 H 302.534 0.751994 0.00311138 0
M  V30 3268 H 304.505 2.86291 -0.841443 0
M  V30 3269 C 303.254 3.36879 0.860687 0
M  V30 3270 H 302.577 3.98978 0.256246 0
M  V30 3271 H 304.017 4.03772 1.294 0
M  V30 3272 C 302.476 2.72197 1.9852 0
M  V30 3273 O 303.006 2.5837 3.07584 0
M  V30 3274 N 301.212 2.30612 1.76823 0
M  V30 3275 H 300.759 2.42059 0.881217 0
M  V30 3276 H 300.717 1.87672 2.52243 0
M  V30 3277 N 304.489 0.459591 1.5075 0
M  V30 3278 C 305.766 -0.160371 1.94941 0
M  V30 3279 C 306.146 -1.58048 1.39943 0
M  V30 3280 O 305.494 -2.206 0.595629 0
M  V30 3281 C 305.704 -0.115432 3.48809 0
M  V30 3282 C 307.052 -0.310026 4.23467 0
M  V30 3283 O 308.076 -0.192543 3.55679 0
M  V30 3284 O 306.935 -0.546031 5.43765 0
M  V30 3285 H 304.029 -0.117925 0.818549 0
M  V30 3286 H 306.575 0.519169 1.61563 0
M  V30 3287 H 305.347 0.87652 3.81357 0
M  V30 3288 H 304.97 -0.836928 3.88692 0
M  V30 3289 N 305.967 -1.56429 0.191757 0
M  V30 3290 C 306.897 -2.21937 -0.725696 0
M  V30 3291 C 307.878 -1.1814 -1.2238 0
M  V30 3292 O 309.063 -1.46636 -1.27325 0
M  V30 3293 C 306.193 -2.87611 -1.94672 0
M  V30 3294 C 305.147 -3.97623 -1.58366 0
M  V30 3295 C 304.473 -4.50446 -2.88102 0
M  V30 3296 C 305.773 -5.16197 -0.796133 0
M  V30 3297 H 307.467 -2.98861 -0.179606 0
M  V30 3298 H 305.013 -1.43749 -0.0849464 0
M  V30 3299 H 306.966 -3.3212 -2.59373 0
M  V30 3300 H 305.69 -2.08087 -2.51728 0
M  V30 3301 H 304.349 -3.53801 -0.960247 0
M  V30 3302 H 303.997 -3.67688 -3.43241 0
M  V30 3303 H 303.697 -5.24675 -2.64556 0
M  V30 3304 H 305.221 -4.97654 -3.53798 0
M  V30 3305 H 306.635 -5.57271 -1.34618 0
M  V30 3306 H 305.032 -5.96471 -0.658928 0
M  V30 3307 H 306.102 -4.84473 0.203478 0
M  V30 3308 N 307.445 0.0818655 -1.57387 0
M  V30 3309 C 308.375 1.09885 -2.06028 0
M  V30 3310 C 309.356 1.4098 -0.951774 0
M  V30 3311 O 310.541 1.50781 -1.22387 0
M  V30 3312 C 307.671 2.4151 -2.4958 0
M  V30 3313 C 306.625 2.24792 -3.64215 0
M  V30 3314 C 305.951 3.61712 -3.93787 0
M  V30 3315 C 307.251 1.67749 -4.94629 0
M  V30 3316 H 308.945 0.694128 -2.91243 0
M  V30 3317 H 306.491 0.332448 -1.4011 0
M  V30 3318 H 308.444 3.12939 -2.82219 0
M  V30 3319 H 307.168 2.83943 -1.61381 0
M  V30 3320 H 305.827 1.55807 -3.31843 0
M  V30 3321 H 305.475 4.01697 -3.02735 0
M  V30 3322 H 305.175 3.51368 -4.70971 0
M  V30 3323 H 306.699 4.34587 -4.28913 0
M  V30 3324 H 308.113 2.29032 -5.25564 0
M  V30 3325 H 306.51 1.68128 -5.76067 0
M  V30 3326 H 307.58 0.638059 -4.80684 0
M  V30 3327 N 308.923 1.53595 0.353017 0
M  V30 3328 C 310.171 1.70049 1.09215 0
M  V30 3329 C 310.492 0.461406 1.89463 0
M  V30 3330 O 309.762 -0.524633 1.88744 0
M  V30 3331 H 308.342 0.626912 0.40619 0
M  V30 3332 H 311.004 1.90822 0.396585 0
M  V30 3333 H 310.1 2.56718 1.77488 0
M  V30 3334 N 310.401 -0.613514 1.45168 0
M  V30 3335 C 311.626 -1.40437 1.52618 0
M  V30 3336 C 312.051 -1.87438 0.157707 0
M  V30 3337 O 311.409 -1.59791 -0.856537 0
M  V30 3338 C 311.457 -2.58894 2.51011 0
M  V30 3339 O 310.561 -3.59326 2.02382 0
M  V30 3340 H 309.902 -0.419506 0.514695 0
M  V30 3341 H 312.432 -0.747215 1.90467 0
M  V30 3342 H 312.442 -3.06214 2.69624 0
M  V30 3343 H 311.117 -2.24032 3.50403 0
M  V30 3344 H 309.694 -3.18695 1.93618 0
M  V30 3345 N 311.879 -1.3236 -0.855495 0
M  V30 3346 C 312.842 -1.21164 -1.94556 0
M  V30 3347 C 313.842 -0.134908 -1.60233 0
M  V30 3348 O 315.032 -0.385249 -1.69887 0
M  V30 3349 C 312.164 -0.863192 -3.29791 0
M  V30 3350 H 313.357 -2.18038 -2.05911 0
M  V30 3351 H 310.91 -1.16179 -1.04557 0
M  V30 3352 H 311.645 0.103769 -3.24134 0
M  V30 3353 H 311.43 -1.64166 -3.56078 0
M  V30 3354 H 312.92 -0.809156 -4.09686 0
M  V30 3355 N 313.357 1.07166 -1.15556 0
M  V30 3356 C 314.287 2.16403 -0.877046 0
M  V30 3357 C 315.268 1.69217 0.173111 0
M  V30 3358 O 316.453 1.94181 0.027084 0
M  V30 3359 C 313.583 3.45349 -0.367632 0
M  V30 3360 C 312.537 4.05995 -1.35468 0
M  V30 3361 C 311.863 5.30045 -0.704038 0
M  V30 3362 C 313.163 4.45804 -2.72132 0
M  V30 3363 H 314.857 2.39959 -1.79053 0
M  V30 3364 H 312.403 1.15325 -0.862331 0
M  V30 3365 H 314.356 4.21095 -0.160317 0
M  V30 3366 H 313.08 3.21385 0.581326 0
M  V30 3367 H 311.739 3.32296 -1.54839 0
M  V30 3368 H 311.387 5.02373 0.251128 0
M  V30 3369 H 311.087 5.71579 -1.36277 0
M  V30 3370 H 312.611 6.08495 -0.50654 0
M  V30 3371 H 314.025 5.12671 -2.56595 0
M  V30 3372 H 312.422 4.98296 -3.34397 0
M  V30 3373 H 313.492 3.57083 -3.28054 0
M  V30 3374 N 314.835 0.952656 1.25548 0
M  V30 3375 C 316.063 0.623496 1.97282 0
M  V30 3376 C 316.478 -0.803987 1.70826 0
M  V30 3377 O 315.835 -1.53755 0.983147 0
M  V30 3378 C 315.886 0.870209 3.5087 0
M  V30 3379 O 315.607 2.24156 3.76412 0
M  V30 3380 C 317.108 0.553164 4.39835 0
M  V30 3381 H 314.328 0.233931 0.628902 0
M  V30 3382 H 316.872 1.27649 1.59768 0
M  V30 3383 H 315.027 0.263652 3.86502 0
M  V30 3384 H 315.441 2.31021 4.70882 0
M  V30 3385 H 316.915 0.776342 5.46513 0
M  V30 3386 H 317.392 -0.512215 4.36203 0
M  V30 3387 H 317.998 1.13896 4.09766 0
M  V30 3388 N 316.313 -1.40141 0.720998 0
M  V30 3389 C 317.26 -2.30688 0.071919 0
M  V30 3390 C 318.23 -1.48476 -0.744584 0
M  V30 3391 O 319.415 -1.77201 -0.707423 0
M  V30 3392 C 316.555 -3.34724 -0.839855 0
M  V30 3393 C 315.668 -4.31998 -0.0122438 0
M  V30 3394 C 314.803 -5.23102 -0.923995 0
M  V30 3395 C 313.842 -6.12033 -0.0907969 0
M  V30 3396 N 312.979 -6.95537 -0.957718 0
M  V30 3397 H 317.819 -2.85628 0.849755 0
M  V30 3398 H 315.356 -1.40653 0.430726 0
M  V30 3399 H 317.314 -3.93618 -1.38279 0
M  V30 3400 H 315.944 -2.81274 -1.58381 0
M  V30 3401 H 314.996 -3.74841 0.64794 0
M  V30 3402 H 316.308 -4.94772 0.632595 0
M  V30 3403 H 315.462 -5.86953 -1.53527 0
M  V30 3404 H 314.201 -4.60615 -1.60264 0
M  V30 3405 H 313.206 -5.47207 0.533377 0
M  V30 3406 H 314.431 -6.76581 0.584428 0
M  V30 3407 H 312.377 -6.35633 -1.62192 0
M  V30 3408 H 312.294 -7.55099 -0.36904 0
M  V30 3409 H 313.562 -7.63832 -1.555 0
M  V30 3410 N 317.792 -0.46758 -1.50504 0
M  V30 3411 C 319.017 0.0886943 -2.0721 0
M  V30 3412 C 319.442 1.33057 -1.32956 0
M  V30 3413 O 318.8 1.77354 -0.376197 0
M  V30 3414 C 318.848 0.359202 -3.58806 0
M  V30 3415 O 317.952 1.44034 -3.8643 0
M  V30 3416 H 317.293 -0.0114349 -0.663902 0
M  V30 3417 H 319.823 -0.657613 -1.93744 0
M  V30 3418 H 319.833 0.600742 -4.03553 0
M  V30 3419 H 318.508 -0.548311 -4.1227 0
M  V30 3420 H 317.085 1.18638 -3.53524 0
M  V30 3421 N 319.27 1.56325 -0.20005 0
M  V30 3422 C 320.517 1.97719 0.437411 0
M  V30 3423 C 320.845 1.08709 1.61284 0
M  V30 3424 O 320.1 0.127261 1.95286 0
M  V30 3425 C 320.399 3.4495 0.935103 0
M  V30 3426 C 320.065 4.5072 -0.12749 0
M  V30 3427 C 318.727 4.79368 -0.419451 0
M  V30 3428 C 321.079 5.14268 -0.847231 0
M  V30 3429 C 318.407 5.68854 -1.43604 0
M  V30 3430 C 320.759 6.04852 -1.85301 0
M  V30 3431 C 319.423 6.31855 -2.15211 0
M  V30 3432 H 318.693 0.723507 0.16006 0
M  V30 3433 H 321.34 1.89166 -0.298056 0
M  V30 3434 H 319.645 3.50599 1.74894 0
M  V30 3435 H 321.342 3.74337 1.43781 0
M  V30 3436 H 317.932 4.28458 0.11023 0
M  V30 3437 H 322.116 4.92222 -0.634901 0
M  V30 3438 H 317.372 5.88047 -1.67364 0
M  V30 3439 H 321.546 6.53152 -2.41591 0
M  V30 3440 H 319.173 7.00994 -2.94129 0
M  V30 3441 N 320.748 -0.0735177 1.57428 0
M  V30 3442 C 321.973 -0.789787 1.91774 0
M  V30 3443 C 322.398 -1.70413 0.796306 0
M  V30 3444 O 321.756 -1.79555 -0.250961 0
M  V30 3445 C 321.804 -1.5609 3.25067 0
M  V30 3446 O 320.908 -2.67144 3.14178 0
M  V30 3447 H 320.249 -0.215582 0.628029 0
M  V30 3448 H 322.779 -0.0422781 2.04556 0
M  V30 3449 H 322.789 -1.94052 3.58898 0
M  V30 3450 H 321.464 -0.890015 4.06265 0
M  V30 3451 H 320.041 -2.32052 2.91901 0
M  V30 3452 N 322.226 -1.5378 -0.344866 0
M  V30 3453 C 323.474 -1.70625 -1.08311 0
M  V30 3454 C 323.795 -0.471447 -1.89215 0
M  V30 3455 O 323.065 0.514616 -1.8902 0
M  V30 3456 H 321.645 -0.629058 -0.402859 0
M  V30 3457 H 324.307 -1.9103 -0.386459 0
M  V30 3458 H 323.403 -2.57656 -1.76124 0
M  V30 3459 N 323.704 0.605807 -1.45491 0
M  V30 3460 C 324.651 1.7164 -1.54299 0
M  V30 3461 C 325.621 1.61486 -0.388761 0
M  V30 3462 O 326.806 1.81039 -0.602445 0
M  V30 3463 C 323.946 3.09953 -1.51734 0
M  V30 3464 C 323.059 3.309 -2.77721 0
M  V30 3465 C 322.194 4.59329 -2.66816 0
M  V30 3466 C 321.233 4.7354 -3.87848 0
M  V30 3467 N 320.37 5.9327 -3.75467 0
M  V30 3468 H 325.21 1.63449 -2.49176 0
M  V30 3469 H 322.747 0.796957 -1.23641 0
M  V30 3470 H 324.705 3.89977 -1.48235 0
M  V30 3471 H 323.335 3.17098 -0.604068 0
M  V30 3472 H 322.387 2.44639 -2.913 0
M  V30 3473 H 323.699 3.37274 -3.67488 0
M  V30 3474 H 322.853 5.4755 -2.61292 0
M  V30 3475 H 321.592 4.55355 -1.74651 0
M  V30 3476 H 320.597 3.83741 -3.93729 0
M  V30 3477 H 321.822 4.79309 -4.81082 0
M  V30 3478 H 319.768 5.90338 -2.86072 0
M  V30 3479 H 319.685 6.00811 -4.5887 0
M  V30 3480 H 320.953 6.83984 -3.73879 0
M  V30 3481 N 325.182 1.32811 0.848464 0
M  V30 3482 C 326.129 1.22265 1.95755 0
M  V30 3483 C 327.099 0.103413 1.65778 0
M  V30 3484 O 328.284 0.280033 1.88734 0
M  V30 3485 C 325.424 0.958014 3.31536 0
M  V30 3486 C 324.537 2.16262 3.73971 0
M  V30 3487 C 323.672 1.83295 4.98575 0
M  V30 3488 C 322.711 3.00041 5.33518 0
M  V30 3489 N 321.848 2.67125 6.49299 0
M  V30 3490 H 326.688 2.17128 2.04107 0
M  V30 3491 H 324.225 1.07982 0.998913 0
M  V30 3492 H 326.183 0.785052 4.09747 0
M  V30 3493 H 324.813 0.046159 3.22767 0
M  V30 3494 H 323.865 2.44565 2.91362 0
M  V30 3495 H 325.177 3.03572 3.95785 0
M  V30 3496 H 324.331 1.62586 5.84509 0
M  V30 3497 H 323.07 0.932078 4.7871 0
M  V30 3498 H 322.075 3.21374 4.46093 0
M  V30 3499 H 323.3 3.90869 5.55336 0
M  V30 3500 H 321.246 1.79586 6.3094 0
M  V30 3501 H 321.163 3.47965 6.71161 0
M  V30 3502 H 322.431 2.49861 7.3837 0
M  V30 3503 N 326.66 -1.06551 1.16123 0
M  V30 3504 C 327.908 -1.78947 0.939267 0
M  V30 3505 C 328.229 -1.87532 -0.534476 0
M  V30 3506 O 327.499 -1.38211 -1.38833 0
M  V30 3507 H 326.079 -0.662807 0.344523 0
M  V30 3508 H 328.741 -1.28725 1.46342 0
M  V30 3509 H 327.837 -2.81117 1.35572 0
M  V30 3510 N 328.138 -0.959301 -1.25041 0
M  V30 3511 C 329.088 -0.453888 -2.23436 0
M  V30 3512 C 330.072 0.459461 -1.542 0
M  V30 3513 O 331.264 0.291752 -1.74579 0
M  V30 3514 C 328.393 0.262667 -3.42294 0
M  V30 3515 C 327.479 -0.669022 -4.1879 0
M  V30 3516 N 327.87 -1.80267 -4.72586 0
M  V30 3517 C 326.168 -0.47814 -4.4343 0
M  V30 3518 C 326.869 -2.38475 -5.3057 0
M  V30 3519 N 325.845 -1.67078 -5.17287 0
M  V30 3520 H 329.647 -1.319 -2.6264 0
M  V30 3521 H 327.161 -0.817358 -1.40332 0
M  V30 3522 H 329.158 0.641911 -4.11929 0
M  V30 3523 H 327.818 1.12432 -3.04613 0
M  V30 3524 H 328.829 -2.18442 -4.69578 0
M  V30 3525 H 325.506 0.340249 -4.16111 0
M  V30 3526 H 326.896 -3.34094 -5.8295 0
M  V30 3527 N 329.616 1.39756 -0.72842 0
M  V30 3528 C 330.862 2.00942 -0.273892 0
M  V30 3529 C 331.195 1.57656 1.13394 0
M  V30 3530 O 330.47 0.802434 1.77176 0
M  V30 3531 C 330.753 3.58211 -0.368346 0
M  V30 3532 C 330.606 4.11534 -1.81548 0
M  V30 3533 C 331.925 4.39372 0.253054 0
M  V30 3534 H 329.044 0.730047 -0.100996 0
M  V30 3535 H 331.686 1.66056 -0.923337 0
M  V30 3536 H 329.836 3.88061 0.184588 0
M  V30 3537 H 331.508 3.92431 -2.42478 0
M  V30 3538 H 329.751 3.65341 -2.33898 0
M  V30 3539 H 330.422 5.20682 -1.83288 0
M  V30 3540 H 332.898 4.15527 -0.218224 0
M  V30 3541 H 331.774 5.48677 0.156585 0
M  V30 3542 H 332.035 4.21358 1.33826 0
M  V30 3543 N 331.094 0.475555 1.50254 0
M  V30 3544 C 332.319 -0.0777042 2.07254 0
M  V30 3545 C 332.744 -1.3235 1.3366 0
M  V30 3546 O 332.102 -1.77152 0.385597 0
M  V30 3547 C 332.15 -0.340169 3.58992 0
M  V30 3548 O 331.254 -1.41982 3.87188 0
M  V30 3549 H 330.595 0.0149556 0.663832 0
M  V30 3550 H 333.125 0.667878 1.93392 0
M  V30 3551 H 333.135 -0.579332 4.03866 0
M  V30 3552 H 331.81 0.570167 4.11973 0
M  V30 3553 H 330.387 -1.16762 3.54148 0
M  V30 3554 N 332.573 -1.56217 0.208337 0
M  V30 3555 C 333.82 -1.97949 -0.42692 0
M  V30 3556 C 334.148 -1.09562 -1.60706 0
M  V30 3557 O 333.403 -0.137616 -1.95216 0
M  V30 3558 C 333.702 -3.45441 -0.916797 0
M  V30 3559 C 333.368 -4.50646 0.151391 0
M  V30 3560 C 332.03 -4.79139 0.444867 0
M  V30 3561 C 334.382 -5.13811 0.874492 0
M  V30 3562 C 331.71 -5.68084 1.46619 0
M  V30 3563 C 334.062 -6.03861 1.88506 0
M  V30 3564 C 332.726 -6.30704 2.18559 0
M  V30 3565 H 331.996 -0.724345 -0.156221 0
M  V30 3566 H 334.643 -1.89006 0.308084 0
M  V30 3567 H 332.948 -3.51521 -1.73032 0
M  V30 3568 H 334.645 -3.75094 -1.41794 0
M  V30 3569 H 331.235 -4.28511 -0.0875068 0
M  V30 3570 H 335.419 -4.91879 0.660996 0
M  V30 3571 H 330.675 -5.87151 1.7048 0
M  V30 3572 H 334.849 -6.51861 2.45051 0
M  V30 3573 H 332.476 -6.99424 2.97843 0
M  V30 3574 N 334.051 0.0651679 -1.57465 0
M  V30 3575 C 334.998 1.07675 -2.04144 0
M  V30 3576 C 335.968 1.38071 -0.923335 0
M  V30 3577 O 337.153 1.49026 -1.19146 0
M  V30 3578 C 334.293 2.38337 -2.49579 0
M  V30 3579 C 333.406 2.14413 -3.75035 0
M  V30 3580 C 332.541 3.38686 -4.09225 0
M  V30 3581 C 331.58 3.10156 -5.27702 0
M  V30 3582 N 330.717 4.26778 -5.57499 0
M  V30 3583 H 335.557 0.671716 -2.90331 0
M  V30 3584 H 333.094 0.3201 -1.43575 0
M  V30 3585 H 335.052 3.14632 -2.73975 0
M  V30 3586 H 333.682 2.7663 -1.6636 0
M  V30 3587 H 332.734 1.2878 -3.57939 0
M  V30 3588 H 334.046 1.89344 -4.61466 0
M  V30 3589 H 333.2 4.23373 -4.34558 0
M  V30 3590 H 331.939 3.66837 -3.21374 0
M  V30 3591 H 330.944 2.23866 -5.02159 0
M  V30 3592 H 332.169 2.8332 -6.17176 0
M  V30 3593 H 330.115 4.54948 -4.72608 0
M  V30 3594 H 330.032 4.05005 -6.38362 0
M  V30 3595 H 331.3 5.12443 -5.87386 0
M  V30 3596 N 335.529 1.53961 0.336706 0
M  V30 3597 C 336.94 1.62914 0.911925 0
M  V30 3598 C 337.291 0.514795 1.89326 0
M  V30 3599 O 336.416 -0.354395 2.13478 0
M  V30 3600 C 337.011 2.95304 1.66076 0
M  V30 3601 C 335.57 3.06496 2.18489 0
M  V30 3602 C 334.717 2.58403 1.00613 0
M  V30 3603 H 337.668 1.58285 0.114649 0
M  V30 3604 H 337.689 2.84727 2.5241 0
M  V30 3605 H 337.201 3.76387 0.946276 0
M  V30 3606 H 335.302 2.3006 2.93092 0
M  V30 3607 H 335.415 4.1208 2.44391 0
M  V30 3608 H 333.779 2.13977 1.38152 0
M  V30 3609 H 334.562 3.41932 0.306179 0
M  V30 3610 N 337.007 -0.598083 1.45811 0
M  V30 3611 C 338.232 -1.3881 1.54099 0
M  V30 3612 C 338.657 -1.8726 0.177578 0
M  V30 3613 O 338.015 -1.6069 -0.839541 0
M  V30 3614 C 338.063 -2.56217 2.53743 0
M  V30 3615 O 337.167 -3.5716 2.06182 0
M  V30 3616 H 336.508 -0.414024 0.519115 0
M  V30 3617 H 339.038 -0.726971 1.91249 0
M  V30 3618 H 339.048 -3.03337 2.72856 0
M  V30 3619 H 337.723 -2.20303 3.5276 0
M  V30 3620 H 336.3 -3.16624 1.96987 0
M  V30 3621 N 338.485 -1.33259 -0.841409 0
M  V30 3622 C 339.415 -1.25926 -1.96634 0
M  V30 3623 C 340.396 -0.140349 -1.6952 0
M  V30 3624 O 341.581 -0.329707 -1.91381 0
M  V30 3625 C 338.711 -0.99512 -3.32738 0
M  V30 3626 C 337.665 -2.0767 -3.74242 0
M  V30 3627 C 336.991 -1.66474 -5.08125 0
M  V30 3628 C 338.291 -3.49318 -3.88297 0
M  V30 3629 H 339.985 -2.20046 -2.03027 0
M  V30 3630 H 337.531 -1.05931 -0.975425 0
M  V30 3631 H 339.484 -0.930323 -4.11002 0
M  V30 3632 H 338.208 -0.0183004 -3.26595 0
M  V30 3633 H 336.867 -2.13187 -2.98239 0
M  V30 3634 H 336.515 -0.675012 -4.9845 0
M  V30 3635 H 336.215 -2.3885 -5.36865 0
M  V30 3636 H 337.739 -1.61455 -5.88867 0
M  V30 3637 H 339.153 -3.46316 -4.56879 0
M  V30 3638 H 337.55 -4.20158 -4.28471 0
M  V30 3639 H 338.62 -3.8801 -2.9082 0
M  V30 3640 N 339.963 1.05934 -1.16686 0
M  V30 3641 C 341.24 1.75643 -0.860747 0
M  V30 3642 C 341.62 2.01144 0.640641 0
M  V30 3643 O 340.968 1.64147 1.58959 0
M  V30 3644 C 341.178 3.05493 -1.68745 0
M  V30 3645 C 342.526 3.79581 -1.90271 0
M  V30 3646 O 343.55 3.15344 -1.65641 0
M  V30 3647 O 342.409 4.9499 -2.31618 0
M  V30 3648 H 339.503 0.763426 -0.317977 0
M  V30 3649 H 342.049 1.1217 -1.27342 0
M  V30 3650 H 340.821 2.8264 -2.70611 0
M  V30 3651 H 340.444 3.76702 -1.27206 0
M  V30 3652 N 341.441 0.965919 1.2453 0
M  V30 3653 C 342.373 0.452465 2.2469 0
M  V30 3654 C 343.386 -0.437821 1.56802 0
M  V30 3655 O 344.575 -0.244283 1.76821 0
M  V30 3656 C 341.675 -0.366258 3.36915 0
M  V30 3657 C 340.848 0.513701 4.34373 0
M  V30 3658 C 339.907 -0.248716 5.25612 0
M  V30 3659 O 338.933 0.356745 5.68081 0
M  V30 3660 N 340.135 -1.53877 5.59734 0
M  V30 3661 H 342.9 1.31361 2.69378 0
M  V30 3662 H 340.461 0.837541 1.38553 0
M  V30 3663 H 342.453 -0.884297 3.94921 0
M  V30 3664 H 341.023 -1.12832 2.91526 0
M  V30 3665 H 340.243 1.21273 3.75082 0
M  V30 3666 H 341.531 1.11391 4.96457 0
M  V30 3667 H 340.929 -2.05243 5.27154 0
M  V30 3668 H 339.486 -2.00254 6.20275 0
M  V30 3669 N 342.919 -1.39368 0.735821 0
M  V30 3670 C 343.851 -2.2913 0.0567723 0
M  V30 3671 C 344.864 -1.46859 -0.702589 0
M  V30 3672 O 346.053 -1.69925 -0.546616 0
M  V30 3673 C 343.153 -3.25492 -0.943823 0
M  V30 3674 C 342.326 -4.36709 -0.24581 0
M  V30 3675 C 341.385 -5.13376 -1.15463 0
M  V30 3676 O 340.411 -5.65683 -0.631803 0
M  V30 3677 N 341.613 -5.24656 -2.48427 0
M  V30 3678 H 344.378 -2.88047 0.827582 0
M  V30 3679 H 341.939 -1.50957 0.585112 0
M  V30 3680 H 343.931 -3.73657 -1.55443 0
M  V30 3681 H 342.501 -2.676 -1.61583 0
M  V30 3682 H 341.721 -3.9041 0.545286 0
M  V30 3683 H 343.009 -5.08244 0.237891 0
M  V30 3684 H 342.407 -4.83679 -2.93379 0
M  V30 3685 H 340.964 -5.76258 -3.04582 0
M  V30 3686 N 344.397 -0.483516 -1.5 0
M  V30 3687 C 345.813 -0.138404 -1.58999 0
M  V30 3688 C 346.013 1.35597 -1.4905 0
M  V30 3689 O 345.069 2.13039 -1.35539 0
M  V30 3690 C 346.382 -0.699658 -2.92447 0
M  V30 3691 C 347.93 -0.664195 -3.05872 0
M  V30 3692 C 348.405 -1.20321 -4.41913 0
M  V30 3693 N 349.896 -1.16315 -4.48358 0
M  V30 3694 C 350.631 -1.55058 -5.52037 0
M  V30 3695 N 350.127 -2.01311 -6.62907 0
M  V30 3696 N 351.92 -1.46584 -5.42651 0
M  V30 3697 H 344.071 -1.45529 -1.5471 0
M  V30 3698 H 346.334 -0.60258 -0.731848 0
M  V30 3699 H 346.04 -1.747 -3.05242 0
M  V30 3700 H 345.914 -0.150194 -3.76901 0
M  V30 3701 H 348.301 0.374272 -2.92717 0
M  V30 3702 H 348.382 -1.25061 -2.23144 0
M  V30 3703 H 348.026 -2.24037 -4.55818 0
M  V30 3704 H 347.956 -0.592896 -5.23252 0
M  V30 3705 H 350.447 -0.824058 -3.68806 0
M  V30 3706 H 350.76 -2.2899 -7.38095 0
M  V30 3707 H 349.105 -2.05273 -6.63994 0
M  V30 3708 H 352.296 -1.10281 -4.54924 0
M  V30 3709 H 352.469 -1.77103 -6.23329 0
M  V30 3710 N 345.875 1.56104 -0.216619 0
M  V30 3711 C 347.1 2.0301 0.424462 0
M  V30 3712 C 347.525 1.0955 1.52907 0
M  V30 3713 O 346.883 0.0827914 1.81111 0
M  V30 3714 C 346.931 3.4819 0.937883 0
M  V30 3715 O 346.035 3.57865 2.04955 0
M  V30 3716 H 345.376 0.656925 0.0966755 0
M  V30 3717 H 347.906 2.01859 -0.33381 0
M  V30 3718 H 347.916 3.88413 1.24897 0
M  V30 3719 H 346.591 4.15699 0.129387 0
M  V30 3720 H 345.168 3.29527 1.74546 0
M  V30 3721 N 347.353 -0.0568162 1.57498 0
M  V30 3722 C 348.593 -0.758273 1.89815 0
M  V30 3723 C 348.957 -1.73978 0.812132 0
M  V30 3724 O 350.158 -2.48744 1.01881 0
M  V30 3725 C 348.429 -1.43465 3.27342 0
M  V30 3726 S 349.988 -2.1691 3.81439 0
M  V30 3727 H 346.806 -0.251836 0.664906 0
M  V30 3728 H 349.408 -0.0137997 1.95495 0
M  V30 3729 H 348.112 -0.706693 4.0427 0
M  V30 3730 H 347.643 -2.21825 3.24896 0
M  V30 3731 H 349.658 -3.43658 3.5793 0
M  V30 3732 N 348.832 -1.54138 -0.328536 0
M  V30 3733 C 350.243 -1.63395 -0.903272 0
M  V30 3734 C 350.594 -0.524828 -1.8905 0
M  V30 3735 O 349.719 0.343068 -2.13663 0
M  V30 3736 C 350.314 -2.9618 -1.64507 0
M  V30 3737 C 348.873 -3.0765 -2.1686 0
M  V30 3738 C 348.02 -2.58933 -0.992416 0
M  V30 3739 H 350.971 -1.58344 -0.106253 0
M  V30 3740 H 350.992 -2.86061 -2.50897 0
M  V30 3741 H 350.504 -3.76884 -0.926302 0
M  V30 3742 H 348.605 -2.31611 -2.91868 0
M  V30 3743 H 348.718 -4.1337 -2.42202 0
M  V30 3744 H 347.082 -2.14706 -1.37016 0
M  V30 3745 H 347.865 -3.42089 -0.288041 0
M  V30 3746 N 350.31 0.590341 -1.46126 0
M  V30 3747 C 351.538 1.37504 -1.54597 0
M  V30 3748 C 351.953 1.87897 -0.184447 0
M  V30 3749 O 351.31 1.63192 0.816984 0
M  V30 3750 C 351.361 2.56779 -2.54454 0
M  V30 3751 O 351.082 2.08476 -3.85317 0
M  V30 3752 C 352.583 3.49427 -2.72792 0
M  V30 3753 H 349.803 0.420325 -0.523037 0
M  V30 3754 H 352.347 0.718383 -1.91467 0
M  V30 3755 H 350.502 3.1845 -2.20609 0
M  V30 3756 H 350.916 2.86097 -4.396 0
M  V30 3757 H 352.39 4.29619 -3.466 0
M  V30 3758 H 352.867 4.00876 -1.79429 0
M  V30 3759 H 353.473 2.93598 -3.07702 0
M  V30 3760 N 351.788 1.33704 0.83433 0
M  V30 3761 C 353.028 1.26754 1.60352 0
M  V30 3762 C 353.392 -0.163182 1.91305 0
M  V30 3763 O 354.593 -0.3567 2.66423 0
M  V30 3764 C 352.864 2.12262 2.8754 0
M  V30 3765 S 354.423 2.22549 3.78176 0
M  V30 3766 H 351.241 0.450879 0.549753 0
M  V30 3767 H 353.843 1.68788 0.986444 0
M  V30 3768 H 352.547 3.15238 2.62779 0
M  V30 3769 H 352.078 1.71082 3.54252 0
M  V30 3770 H 354.093 1.3899 4.76336 0
M  V30 3771 N 353.266 -1.05314 1.17247 0
M  V30 3772 C 354.494 -1.81971 0.984593 0
M  V30 3773 C 354.909 -1.82929 -0.467166 0
M  V30 3774 O 354.266 -1.25564 -1.32438 0
M  V30 3775 C 354.317 -3.28143 1.51672 0
M  V30 3776 O 354.038 -3.27347 2.91163 0
M  V30 3777 C 355.539 -4.21493 1.37326 0
M  V30 3778 H 352.759 -0.573455 0.348411 0
M  V30 3779 H 355.303 -1.32808 1.55506 0
M  V30 3780 H 353.458 -3.74582 0.988302 0
M  V30 3781 H 353.872 -4.18824 3.15732 0
M  V30 3782 H 355.346 -5.22043 1.79375 0
M  V30 3783 H 355.823 -4.38031 0.320169 0
M  V30 3784 H 356.429 -3.80909 1.89178 0
M  V30 3785 N 354.744 -0.972509 -1.24016 0
M  V30 3786 C 356.021 -0.553733 -1.87598 0
M  V30 3787 C 356.401 0.969158 -1.87538 0
M  V30 3788 O 355.749 1.84255 -1.35139 0
M  V30 3789 C 355.959 -1.15076 -3.29482 0
M  V30 3790 C 357.307 -1.23862 -4.06132 0
M  V30 3791 O 358.331 -1.10363 -3.38672 0
M  V30 3792 O 357.19 -1.45252 -5.26844 0
M  V30 3793 H 354.284 -0.185331 -0.805966 0
M  V30 3794 H 356.83 -1.06709 -1.31952 0
M  V30 3795 H 355.602 -2.19333 -3.2405 0
M  V30 3796 H 355.225 -0.621746 -3.92709 0
M  V30 3797 N 356.222 1.38976 -0.743202 0
M  V30 3798 C 357.447 2.05161 -0.303936 0
M  V30 3799 C 357.872 1.55677 1.05576 0
M  V30 3800 O 357.23 0.704131 1.67068 0
M  V30 3801 C 357.278 3.59138 -0.324373 0
M  V30 3802 O 356.382 4.06668 0.685204 0
M  V30 3803 H 355.723 0.649815 -0.136518 0
M  V30 3804 H 358.253 1.77852 -1.01142 0
M  V30 3805 H 358.263 4.07639 -0.171618 0
M  V30 3806 H 356.938 3.94515 -1.31647 0
M  V30 3807 H 355.515 3.69561 0.497913 0
M  V30 3808 N 357.7 0.491464 1.49741 0
M  V30 3809 C 358.63 -0.28154 2.31796 0
M  V30 3810 C 359.611 -0.971473 1.3963 0
M  V30 3811 O 360.796 -0.964719 1.68543 0
M  V30 3812 C 357.926 -1.35203 3.19902 0
M  V30 3813 C 356.88 -0.782529 4.20786 0
M  V30 3814 C 356.206 -1.95283 4.97764 0
M  V30 3815 C 357.506 0.21999 5.21837 0
M  V30 3816 H 359.2 0.403355 2.96671 0
M  V30 3817 H 356.746 0.195425 1.42668 0
M  V30 3818 H 358.699 -1.90045 3.76113 0
M  V30 3819 H 357.423 -2.06598 2.52953 0
M  V30 3820 H 356.082 -0.255928 3.65706 0
M  V30 3821 H 355.73 -2.65423 4.2727 0
M  V30 3822 H 355.43 -1.57789 5.66018 0
M  V30 3823 H 356.954 -2.50577 5.56816 0
M  V30 3824 H 358.368 -0.23996 5.72798 0
M  V30 3825 H 356.765 0.51026 5.97927 0
M  V30 3826 H 357.835 1.13911 4.7133 0
M  V30 3827 N 359.178 -1.55987 0.224894 0
M  V30 3828 C 360.108 -2.23426 -0.678457 0
M  V30 3829 C 361.089 -1.20709 -1.19847 0
M  V30 3830 O 362.274 -1.49304 -1.24186 0
M  V30 3831 C 359.404 -2.91676 -1.88527 0
M  V30 3832 C 358.358 -4.00893 -1.49896 0
M  V30 3833 C 357.684 -4.56455 -2.78483 0
M  V30 3834 C 358.984 -5.17769 -0.686461 0
M  V30 3835 H 360.678 -2.99175 -0.116173 0
M  V30 3836 H 358.224 -1.43897 -0.054436 0
M  V30 3837 H 360.177 -3.37547 -2.5227 0
M  V30 3838 H 358.901 -2.1338 -2.47258 0
M  V30 3839 H 357.56 -3.55758 -0.884985 0
M  V30 3840 H 357.208 -3.74886 -3.35365 0
M  V30 3841 H 356.908 -5.30169 -2.53368 0
M  V30 3842 H 358.432 -5.05047 -3.43162 0
M  V30 3843 H 359.846 -5.60001 -1.22767 0
M  V30 3844 H 358.243 -5.97735 -0.532259 0
M  V30 3845 H 359.313 -4.83932 0.306196 0
M  V30 3846 N 360.656 0.0484629 -1.57525 0
M  V30 3847 C 361.604 1.07359 -2.06341 0
M  V30 3848 C 362.598 1.3865 -0.973269 0
M  V30 3849 O 363.804 1.37783 -1.15827 0
M  V30 3850 H 360.179 0.363662 -0.65822 0
M  V30 3851 H 362.15 0.635916 -2.91545 0
M  V30 3852 C 360.899 2.37198 -2.54229 0
M  V30 3853 H 360.222 2.13977 -3.37719 0
M  V30 3854 H 361.662 3.07319 -2.92115 0
M  V30 3855 C 360.121 3.04805 -1.43511 0
M  V30 3856 O 360.651 3.93848 -0.79034 0
M  V30 3857 N 358.857 2.65811 -1.17444 0
M  V30 3858 H 358.404 1.93488 -1.70059 0
M  V30 3859 H 358.362 3.11366 -0.435737 0
M  V30 3860 N 362.134 1.5431 0.320358 0
M  V30 3861 C 363.382 1.72327 1.05583 0
M  V30 3862 C 363.703 0.50149 1.88441 0
M  V30 3863 O 362.973 -0.48448 1.89815 0
M  V30 3864 H 361.553 0.635387 0.3928 0
M  V30 3865 H 364.215 1.91621 0.356019 0
M  V30 3866 H 363.311 2.60426 1.72003 0
M  V30 3867 N 363.613 -0.582584 1.46437 0
M  V30 3868 C 364.89 -1.34276 1.4223 0
M  V30 3869 C 365.27 -2.10835 0.10583 0
M  V30 3870 O 364.618 -2.09485 -0.912596 0
M  V30 3871 C 364.828 -2.26865 2.65204 0
M  V30 3872 C 366.176 -2.88691 3.11356 0
M  V30 3873 O 367.2 -2.37178 2.65753 0
M  V30 3874 O 366.059 -3.82255 3.90568 0
M  V30 3875 H 363.153 -0.603326 0.565621 0
M  V30 3876 H 365.699 -0.603591 1.58603 0
M  V30 3877 H 364.471 -1.69724 3.52576 0
M  V30 3878 H 364.094 -3.08122 2.5129 0
M  V30 3879 N 365.091 -1.34144 -0.827227 0
M  V30 3880 C 366.338 -1.26258 -1.58319 0
M  V30 3881 C 366.666 0.168595 -1.93768 0
M  V30 3882 O 365.921 1.12877 -1.59866 0
M  V30 3883 C 366.22 -2.09464 -2.89585 0
M  V30 3884 C 365.886 -3.58521 -2.73448 0
M  V30 3885 C 364.548 -3.99155 -2.68754 0
M  V30 3886 C 366.9 -4.53189 -2.57428 0
M  V30 3887 C 364.228 -5.32656 -2.45957 0
M  V30 3888 C 366.58 -5.86864 -2.36163 0
M  V30 3889 C 365.244 -6.26667 -2.29879 0
M  V30 3890 H 364.514 -0.462013 -0.579332 0
M  V30 3891 H 367.161 -1.65845 -0.95748 0
M  V30 3892 H 365.466 -1.62692 -3.56425 0
M  V30 3893 H 367.163 -2.00712 -3.47154 0
M  V30 3894 H 363.753 -3.26264 -2.77939 0
M  V30 3895 H 367.937 -4.22696 -2.60081 0
M  V30 3896 H 363.193 -5.62519 -2.39546 0
M  V30 3897 H 367.367 -6.59813 -2.22754 0
M  V30 3898 H 364.994 -7.30049 -2.11975 0
M  V30 3899 N 366.569 1.04691 -1.17803 0
M  V30 3900 C 367.797 1.81446 -0.99423 0
M  V30 3901 C 368.212 1.83174 0.457459 0
M  V30 3902 O 367.569 1.26265 1.31771 0
M  V30 3903 C 367.62 3.27334 -1.5341 0
M  V30 3904 O 367.341 3.25798 -2.92895 0
M  V30 3905 C 368.842 4.20759 -1.39559 0
M  V30 3906 H 366.062 0.571599 -0.351447 0
M  V30 3907 H 368.606 1.31982 -1.56208 0
M  V30 3908 H 366.761 3.74052 -1.00815 0
M  V30 3909 H 367.175 4.17144 -3.17949 0
M  V30 3910 H 368.649 5.21084 -1.82141 0
M  V30 3911 H 369.126 4.37856 -0.343394 0
M  V30 3912 H 369.732 3.79901 -1.91195 0
M  V30 3913 N 368.047 0.979072 1.23499 0
M  V30 3914 C 369.296 0.642751 1.91185 0
M  V30 3915 C 369.609 -0.827253 1.77245 0
M  V30 3916 O 370.815 -1.27458 2.39722 0
M  V30 3917 C 369.271 1.09901 3.42709 0
M  V30 3918 C 368.879 2.59327 3.65313 0
M  V30 3919 C 370.623 0.836371 4.16179 0
M  V30 3920 C 368.53 2.98627 5.10467 0
M  V30 3921 H 367.46 0.236698 0.715884 0
M  V30 3922 H 370.111 1.1868 1.39955 0
M  V30 3923 H 368.493 0.48319 3.93041 0
M  V30 3924 H 369.667 3.26136 3.25533 0
M  V30 3925 H 367.982 2.83323 3.05151 0
M  V30 3926 H 370.579 1.10586 5.23139 0
M  V30 3927 H 370.922 -0.227509 4.15678 0
M  V30 3928 H 371.455 1.41371 3.71832 0
M  V30 3929 H 368.194 4.04133 5.16098 0
M  V30 3930 H 367.714 2.3651 5.51201 0
M  V30 3931 H 369.393 2.89159 5.78788 0
M  V30 3932 N 369.525 -1.3858 0.750561 0
M  V30 3933 C 370.753 -2.04471 0.316098 0
M  V30 3934 C 371.168 -1.56606 -1.05452 0
M  V30 3935 O 370.525 -0.737784 -1.66922 0
M  V30 3936 C 370.576 -3.60025 0.326275 0
M  V30 3937 O 370.297 -4.06133 1.6428 0
M  V30 3938 C 371.798 -4.43131 -0.122429 0
M  V30 3939 H 369.018 -0.65717 0.135528 0
M  V30 3940 H 371.562 -1.77329 1.01857 0
M  V30 3941 H 369.717 -3.86014 -0.327431 0
M  V30 3942 H 370.131 -5.00547 1.56693 0
M  V30 3943 H 371.605 -5.51963 -0.0641473 0
M  V30 3944 H 372.082 -4.23333 -1.16988 0
M  V30 3945 H 372.688 -4.22323 0.50229 0
M  V30 3946 N 371.003 -0.499398 -1.49478 0
M  V30 3947 C 372.233 0.0424839 -2.06556 0
M  V30 3948 C 372.641 1.31514 -1.36018 0
M  V30 3949 O 371.984 1.78555 -0.431718 0
M  V30 3950 C 372.046 0.368074 -3.57611 0
M  V30 3951 C 371.71 -0.806631 -4.49825 0
M  V30 3952 C 372.707 -1.69667 -4.91436 0
M  V30 3953 C 370.392 -1.00498 -4.92144 0
M  V30 3954 C 372.386 -2.76923 -5.74101 0
M  V30 3955 C 370.073 -2.08072 -5.74586 0
M  V30 3956 C 371.071 -2.96119 -6.15469 0
M  V30 3957 O 370.759 -4.01836 -6.96264 0
M  V30 3958 H 370.491 -0.0165165 -0.675798 0
M  V30 3959 H 373.045 -0.695497 -1.93267 0
M  V30 3960 H 371.275 1.15963 -3.68903 0
M  V30 3961 H 372.964 0.848381 -3.96935 0
M  V30 3962 H 373.73 -1.55524 -4.59388 0
M  V30 3963 H 369.609 -0.329036 -4.59824 0
M  V30 3964 H 373.153 -3.45676 -6.05932 0
M  V30 3965 H 369.05 -2.22211 -6.06047 0
M  V30 3966 H 369.818 -3.9917 -7.14567 0
M  V30 3967 N 372.481 1.55866 -0.233164 0
M  V30 3968 C 373.758 1.90471 0.444988 0
M  V30 3969 C 374.138 1.15209 1.7689 0
M  V30 3970 O 373.486 0.265119 2.26957 0
M  V30 3971 C 373.696 3.4333 0.626559 0
M  V30 3972 C 375.044 4.14319 0.92871 0
M  V30 3973 O 376.068 3.48993 0.712926 0
M  V30 3974 O 374.927 5.29846 1.33887 0
M  V30 3975 H 372.021 0.792347 0.236885 0
M  V30 3976 H 374.567 1.67437 -0.276211 0
M  V30 3977 H 373.339 3.90095 -0.306822 0
M  V30 3978 H 372.962 3.72181 1.39881 0
M  V30 3979 N 373.959 -0.0401083 1.57549 0
M  V30 3980 C 375.205 -0.734211 1.89043 0
M  V30 3981 C 375.538 -1.75591 0.829535 0
M  V30 3982 O 374.813 -1.93868 -0.156706 0
M  V30 3983 C 375.096 -1.41374 3.31188 0
M  V30 3984 C 374.949 -0.406299 4.47961 0
M  V30 3985 C 376.268 -2.35061 3.72068 0
M  V30 3986 H 373.387 -0.265447 0.687537 0
M  V30 3987 H 376.029 0.00294087 1.9 0
M  V30 3988 H 374.179 -2.04206 3.30503 0
M  V30 3989 H 375.851 0.219255 4.60779 0
M  V30 3990 H 374.094 0.275485 4.32924 0
M  V30 3991 H 374.765 -0.920022 5.44279 0
M  V30 3992 H 377.241 -1.82282 3.74049 0
M  V30 3993 H 376.117 -2.79593 4.72355 0
M  V30 3994 H 376.378 -3.21258 3.0372 0
M  V30 3995 N 375.437 -1.54477 -0.31217 0
M  V30 3996 C 376.385 -1.85395 -1.40469 0
M  V30 3997 C 377.379 -0.726749 -1.53019 0
M  V30 3998 O 378.585 -0.910582 -1.55269 0
M  V30 3999 H 374.96 -0.587845 -0.46898 0
M  V30 4000 H 376.931 -2.76736 -1.11623 0
M  V30 4001 C 375.68 -2.10811 -2.76503 0
M  V30 4002 H 375.003 -2.97014 -2.67625 0
M  V30 4003 H 376.443 -2.3639 -3.51988 0
M  V30 4004 C 374.902 -0.903165 -3.24568 0
M  V30 4005 O 375.432 -0.118085 -4.01526 0
M  V30 4006 N 373.638 -0.711634 -2.81752 0
M  V30 4007 H 373.185 -1.35171 -2.19286 0
M  V30 4008 H 373.143 0.0930473 -3.14262 0
M  V30 4009 N 376.915 0.57481 -1.46744 0
M  V30 4010 C 378.331 0.898981 -1.31873 0
M  V30 4011 C 378.531 1.99313 -0.29605 0
M  V30 4012 O 377.587 2.50728 0.298621 0
M  V30 4013 C 378.9 1.30886 -2.7072 0
M  V30 4014 C 380.448 1.42127 -2.78871 0
M  V30 4015 C 380.923 1.86478 -4.18318 0
M  V30 4016 N 382.414 1.93658 -4.20774 0
M  V30 4017 C 383.149 2.29267 -5.2557 0
M  V30 4018 N 382.645 2.63612 -6.40688 0
M  V30 4019 N 384.438 2.29889 -5.1294 0
M  V30 4020 H 376.589 -0.147839 -2.11885 0
M  V30 4021 H 378.852 -0.00347013 -0.947994 0
M  V30 4022 H 378.558 0.578853 -3.46904 0
M  V30 4023 H 378.432 2.26874 -3.01343 0
M  V30 4024 H 380.819 2.14213 -2.0297 0
M  V30 4025 H 380.9 0.443705 -2.51922 0
M  V30 4026 H 380.544 1.14968 -4.94717 0
M  V30 4027 H 380.474 2.85207 -4.42679 0
M  V30 4028 H 382.965 1.69574 -3.37718 0
M  V30 4029 H 383.278 2.89759 -7.16421 0
M  V30 4030 H 381.623 2.61232 -6.44036 0
M  V30 4031 H 384.814 2.02485 -4.22039 0
M  V30 4032 H 384.987 2.57312 -5.94722 0
M  V30 4033 N 378.394 1.34581 0.820102 0
M  V30 4034 C 379.304 1.28471 1.96297 0
M  V30 4035 C 380.32 0.191902 1.72939 0
M  V30 4036 O 381.496 0.418879 1.96996 0
M  V30 4037 C 378.561 1.04281 3.30645 0
M  V30 4038 C 377.622 2.22745 3.66992 0
M  V30 4039 C 376.855 1.997 4.9493 0
M  V30 4040 O 377.078 0.956656 5.6232 0
M  V30 4041 O 376.012 2.86723 5.2922 0
M  V30 4042 H 379.838 2.24624 2.04396 0
M  V30 4043 H 377.423 1.14816 0.955913 0
M  V30 4044 H 379.305 0.925841 4.11104 0
M  V30 4045 H 377.98 0.111697 3.23507 0
M  V30 4046 H 376.887 2.40003 2.86966 0
M  V30 4047 H 378.22 3.14257 3.78819 0
M  V30 4048 N 379.872 -1.04064 1.18357 0
M  V30 4049 C 381.097 -1.81454 1.00445 0
M  V30 4050 C 381.522 -1.82823 -0.442423 0
M  V30 4051 O 380.88 -1.24555 -1.31741 0
M  V30 4052 C 380.928 -3.24925 1.56384 0
M  V30 4053 O 380.032 -4.04856 0.785209 0
M  V30 4054 H 379.373 -0.560604 0.355835 0
M  V30 4055 H 381.903 -1.31059 1.57114 0
M  V30 4056 H 381.913 -3.75702 1.59097 0
M  V30 4057 H 380.588 -3.23244 2.61699 0
M  V30 4058 H 379.165 -3.63537 0.830399 0
M  V30 4059 N 381.35 -0.985608 -1.22978 0
M  V30 4060 C 382.761 -0.693593 -1.73338 0
M  V30 4061 C 383.112 0.789935 -1.79595 0
M  V30 4062 O 382.237 1.61771 -1.43733 0
M  V30 4063 C 382.832 -1.25235 -3.14804 0
M  V30 4064 C 381.391 -1.00987 -3.626 0
M  V30 4065 C 380.538 -1.37695 -2.40698 0
M  V30 4066 H 383.489 -1.15884 -1.08428 0
M  V30 4067 H 383.51 -0.627329 -3.75293 0
M  V30 4068 H 383.022 -2.33209 -3.10218 0
M  V30 4069 H 381.123 0.0535565 -3.72562 0
M  V30 4070 H 381.236 -1.66812 -4.49122 0
M  V30 4071 H 379.6 -0.795459 -2.4196 0
M  V30 4072 H 380.383 -2.46657 -2.38779 0
M  V30 4073 N 382.828 1.3818 -0.7579 0
M  V30 4074 C 384.076 1.99624 -0.315361 0
M  V30 4075 C 384.397 1.60464 1.10799 0
M  V30 4076 O 383.667 0.863507 1.75842 0
M  V30 4077 H 382.247 0.73831 -0.113611 0
M  V30 4078 H 384.909 1.68878 -0.972952 0
M  V30 4079 H 384.005 3.09754 -0.381931 0
M  V30 4080 N 384.306 0.507319 1.49211 0
M  V30 4081 C 385.254 -0.281364 2.30892 0
M  V30 4082 C 386.248 -0.95687 1.39787 0
M  V30 4083 O 387.454 -0.883838 1.56807 0
M  V30 4084 H 383.829 -0.109597 0.743971 0
M  V30 4085 H 385.8 0.42744 2.95323 0
M  V30 4086 C 384.549 -1.32918 3.21291 0
M  V30 4087 H 383.872 -0.818799 3.91326 0
M  V30 4088 H 385.312 -1.85288 3.81372 0
M  V30 4089 C 383.771 -2.35074 2.41333 0
M  V30 4090 O 384.301 -3.4108 2.12197 0
M  V30 4091 N 382.507 -2.07705 2.03241 0
M  V30 4092 H 382.054 -1.2152 2.27136 0
M  V30 4093 H 382.012 -2.76283 1.50051 0
M  V30 4094 N 385.784 -1.5574 0.241426 0
M  V30 4095 C 387.03 -1.99104 -0.385406 0
M  V30 4096 C 387.363 -1.1293 -1.57988 0
M  V30 4097 O 386.638 -0.191449 -1.93555 0
M  V30 4098 C 386.921 -3.51087 -0.800616 0
M  V30 4099 C 386.774 -4.48028 0.398874 0
M  V30 4100 C 388.093 -4.08015 -1.64959 0
M  V30 4101 H 385.212 -0.723848 -0.138614 0
M  V30 4102 H 387.854 -1.86903 0.341642 0
M  V30 4103 H 386.004 -3.61615 -1.4201 0
M  V30 4104 H 387.676 -4.49487 1.03726 0
M  V30 4105 H 385.919 -4.21077 1.04293 0
M  V30 4106 H 386.59 -5.51962 0.0651056 0
M  V30 4107 H 389.066 -4.00555 -1.12672 0
M  V30 4108 H 387.942 -5.14635 -1.90898 0
M  V30 4109 H 388.203 -3.56131 -2.61961 0
M  V30 4110 N 387.262 0.0317525 -1.57568 0
M  V30 4111 C 388.194 1.06073 -2.03178 0
M  V30 4112 C 389.207 1.32627 -0.944132 0
M  V30 4113 O 390.396 1.30162 -1.22148 0
M  V30 4114 C 387.496 2.40297 -2.38978 0
M  V30 4115 C 386.669 2.33137 -3.70089 0
M  V30 4116 C 385.728 3.49787 -3.9311 0
M  V30 4117 O 384.754 3.29403 -4.64201 0
M  V30 4118 N 385.956 4.71562 -3.38541 0
M  V30 4119 H 388.721 0.672006 -2.92069 0
M  V30 4120 H 386.282 0.219745 -1.60402 0
M  V30 4121 H 388.274 3.1705 -2.51518 0
M  V30 4122 H 386.844 2.71024 -1.55771 0
M  V30 4123 H 386.064 1.415 -3.67928 0
M  V30 4124 H 387.352 2.25493 -4.56104 0
M  V30 4125 H 386.75 4.91024 -2.80912 0
M  V30 4126 H 385.307 5.45689 -3.56464 0
M  V30 4127 N 388.74 1.54641 0.303973 0
M  V30 4128 C 389.989 1.7299 1.03717 0
M  V30 4129 C 390.302 0.521168 1.88529 0
M  V30 4130 O 391.508 0.586408 2.65092 0
M  V30 4131 C 389.964 3.06051 1.89369 0
M  V30 4132 C 389.572 4.34393 1.09574 0
M  V30 4133 C 391.316 3.3376 2.62306 0
M  V30 4134 C 389.223 5.58506 1.94486 0
M  V30 4135 H 388.153 0.64473 0.390947 0
M  V30 4136 H 390.804 1.81124 0.294328 0
M  V30 4137 H 389.186 2.91874 2.67629 0
M  V30 4138 H 390.36 4.59396 0.359485 0
M  V30 4139 H 388.675 4.13597 0.482324 0
M  V30 4140 H 391.272 4.23687 3.26181 0
M  V30 4141 H 391.615 2.52503 3.3098 0
M  V30 4142 H 392.148 3.48894 1.91097 0
M  V30 4143 H 388.887 6.42422 1.30287 0
M  V30 4144 H 388.407 5.37694 2.65792 0
M  V30 4145 H 390.086 5.95651 2.52605 0
M  V30 4146 N 390.218 -0.567019 1.47046 0
M  V30 4147 C 391.464 -1.32658 1.53394 0
M  V30 4148 C 391.797 -1.93254 0.19148 0
M  V30 4149 O 391.072 -1.77338 -0.798844 0
M  V30 4150 C 391.355 -2.44412 2.64452 0
M  V30 4151 C 391.208 -1.88749 4.08282 0
M  V30 4152 C 392.527 -3.46387 2.71485 0
M  V30 4153 H 389.646 -0.48098 0.558415 0
M  V30 4154 H 392.288 -0.635481 1.79058 0
M  V30 4155 H 390.438 -3.03363 2.427 0
M  V30 4156 H 392.11 -1.34134 4.41368 0
M  V30 4157 H 390.353 -1.19481 4.17021 0
M  V30 4158 H 391.024 -2.69491 4.81745 0
M  V30 4159 H 393.5 -2.9734 2.91081 0
M  V30 4160 H 392.376 -4.2202 3.50985 0
M  V30 4161 H 392.637 -4.04616 1.78153 0
M  V30 4162 N 391.696 -1.35014 -0.812953 0
M  V30 4163 C 392.644 -1.27435 -1.94585 0
M  V30 4164 C 393.638 -0.170494 -1.6854 0
M  V30 4165 O 394.844 -0.336085 -1.76835 0
M  V30 4166 H 391.219 -0.396144 -0.639198 0
M  V30 4167 H 393.19 -2.23158 -1.98098 0
M  V30 4168 C 391.939 -1.05677 -3.31252 0
M  V30 4169 H 391.262 -1.89853 -3.51846 0
M  V30 4170 H 392.702 -1.04413 -4.10943 0
M  V30 4171 C 391.161 0.239615 -3.36047 0
M  V30 4172 O 391.691 1.23759 -3.8216 0
M  V30 4173 N 389.897 0.276186 -2.89285 0
M  V30 4174 H 389.444 -0.53653 -2.51951 0
M  V30 4175 H 389.402 1.14332 -2.92875 0
M  V30 4176 N 393.175 1.03435 -1.18907 0
M  V30 4177 C 394.423 1.76394 -0.986382 0
M  V30 4178 C 394.744 1.88883 0.484567 0
M  V30 4179 O 394.014 1.41843 1.3512 0
M  V30 4180 H 392.594 0.65344 -0.361975 0
M  V30 4181 H 395.256 1.248 -1.49703 0
M  V30 4182 H 394.352 2.77424 -1.42978 0
M  V30 4183 N 394.653 0.992116 1.22453 0
M  V30 4184 C 395.883 0.684949 1.94915 0
M  V30 4185 C 396.291 -0.754292 1.73514 0
M  V30 4186 O 395.634 -1.52056 1.03076 0
M  V30 4187 C 395.696 0.910054 3.47791 0
M  V30 4188 C 395.36 2.33363 3.92926 0
M  V30 4189 C 396.357 3.31308 4.00663 0
M  V30 4190 C 394.042 2.66785 4.25595 0
M  V30 4191 C 396.036 4.6075 4.40441 0
M  V30 4192 C 393.723 3.96446 4.65053 0
M  V30 4193 C 394.721 4.9324 4.72444 0
M  V30 4194 O 394.409 6.20584 5.1101 0
M  V30 4195 H 394.141 0.25258 0.62704 0
M  V30 4196 H 396.695 1.32939 1.56577 0
M  V30 4197 H 394.925 0.208443 3.86138 0
M  V30 4198 H 396.614 0.598257 4.01467 0
M  V30 4199 H 397.38 3.0682 3.75615 0
M  V30 4200 H 393.259 1.92148 4.19047 0
M  V30 4201 H 396.803 5.363 4.46126 0
M  V30 4202 H 392.7 4.20724 4.89552 0
M  V30 4203 H 393.468 6.24509 5.29085 0
M  V30 4204 N 396.131 -1.37776 0.765217 0
M  V30 4205 C 397.378 -1.99849 0.326588 0
M  V30 4206 C 397.706 -1.60746 -1.09504 0
M  V30 4207 O 396.961 -0.84202 -1.76659 0
M  V30 4208 C 397.26 -3.5504 0.410053 0
M  V30 4209 C 396.926 -4.13891 1.78899 0
M  V30 4210 C 395.588 -4.29678 2.16635 0
M  V30 4211 C 397.94 -4.46236 2.69301 0
M  V30 4212 C 395.268 -4.7511 3.44221 0
M  V30 4213 C 397.62 -4.93089 3.9629 0
M  V30 4214 C 396.284 -5.07082 4.34078 0
M  V30 4215 H 395.554 -0.7313 0.119507 0
M  V30 4216 H 398.201 -1.64645 0.977968 0
M  V30 4217 H 396.506 -3.90451 -0.324878 0
M  V30 4218 H 398.203 -4.00966 0.0520699 0
M  V30 4219 H 394.793 -4.02026 1.48569 0
M  V30 4220 H 398.977 -4.3363 2.41409 0
M  V30 4221 H 394.233 -4.84129 3.73402 0
M  V30 4222 H 398.407 -5.17084 4.66472 0
M  V30 4223 H 396.034 -5.42046 5.33001 0
M  V30 4224 N 397.609 -0.515225 -1.4894 0
M  V30 4225 C 398.855 0.0242508 -2.02785 0
M  V30 4226 C 399.188 1.35323 -1.39289 0
M  V30 4227 O 398.463 1.87041 -0.533469 0
M  V30 4228 C 398.746 0.16184 -3.59736 0
M  V30 4229 C 398.599 -1.19127 -4.33738 0
M  V30 4230 C 399.918 0.895719 -4.30888 0
M  V30 4231 H 397.037 0.00733914 -0.736963 0
M  V30 4232 H 399.679 -0.669395 -1.77818 0
M  V30 4233 H 397.829 0.752624 -3.8114 0
M  V30 4234 H 399.501 -1.82202 -4.23792 0
M  V30 4235 H 397.744 -1.77695 -3.95736 0
M  V30 4236 H 398.415 -1.04815 -5.41957 0
M  V30 4237 H 400.891 0.394528 -4.14225 0
M  V30 4238 H 399.767 0.960859 -5.40425 0
M  V30 4239 H 400.028 1.9427 -3.97129 0
M  V30 4240 N 399.087 1.5561 -0.249682 0
M  V30 4241 C 400.037 2.18157 0.662673 0
M  V30 4242 C 401.021 1.1383 1.13717 0
M  V30 4243 O 402.213 1.39731 1.08648 0
M  V30 4244 C 399.342 2.88672 1.85805 0
M  V30 4245 C 398.428 4.00258 1.40193 0
M  V30 4246 N 398.819 5.01473 0.660213 0
M  V30 4247 C 397.117 4.12864 1.68698 0
M  V30 4248 C 397.818 5.80155 0.423695 0
M  V30 4249 N 396.794 5.34533 0.988721 0
M  V30 4250 H 400.596 2.93769 0.0878688 0
M  V30 4251 H 398.11 1.62316 -0.0521183 0
M  V30 4252 H 400.107 3.31912 2.5227 0
M  V30 4253 H 398.767 2.14564 2.43705 0
M  V30 4254 H 399.778 5.16971 0.310047 0
M  V30 4255 H 396.455 3.4993 2.27717 0
M  V30 4256 H 397.845 6.71688 -0.168616 0
M  V30 4257 N 400.565 -0.0233959 1.57583 0
M  V30 4258 C 401.812 -0.713063 1.8953 0
M  V30 4259 C 402.14 -1.75056 0.847673 0
M  V30 4260 O 401.395 -1.95119 -0.150636 0
M  V30 4261 C 401.694 -1.41428 3.28227 0
M  V30 4262 C 401.36 -0.512222 4.47981 0
M  V30 4263 C 400.022 -0.263785 4.80476 0
M  V30 4264 C 402.374 0.110248 5.21083 0
M  V30 4265 C 399.702 0.615804 5.83459 0
M  V30 4266 C 402.054 0.977573 6.25001 0
M  V30 4267 C 400.718 1.23542 6.55968 0
M  V30 4268 H 399.988 -0.260928 0.69354 0
M  V30 4269 H 402.635 0.0271047 1.91481 0
M  V30 4270 H 400.94 -2.22791 3.22291 0
M  V30 4271 H 402.637 -1.95355 3.50196 0
M  V30 4272 H 399.227 -0.716013 4.22577 0
M  V30 4273 H 403.411 -0.0687137 4.96252 0
M  V30 4274 H 398.667 0.82382 6.05824 0
M  V30 4275 H 402.841 1.46638 6.80786 0
M  V30 4276 H 400.468 1.91871 7.35588 0
M  V30 4277 N 402.043 -1.548 -0.295768 0
M  V30 4278 C 403.29 -1.74329 -1.03032 0
M  V30 4279 C 403.618 -0.531915 -1.87085 0
M  V30 4280 O 402.873 0.486052 -1.89568 0
M  V30 4281 C 403.172 -2.98797 -1.961 0
M  V30 4282 C 402.838 -4.32356 -1.2798 0
M  V30 4283 C 401.5 -4.68661 -1.09135 0
M  V30 4284 C 403.852 -5.15128 -0.793243 0
M  V30 4285 C 401.18 -5.85312 -0.403269 0
M  V30 4286 C 403.532 -6.32488 -0.118854 0
M  V30 4287 C 402.196 -6.6745 0.0815043 0
M  V30 4288 H 401.466 -0.637916 -0.37702 0
M  V30 4289 H 404.113 -1.8906 -0.304696 0
M  V30 4290 H 402.418 -2.78869 -2.75207 0
M  V30 4291 H 404.115 -3.11102 -2.53015 0
M  V30 4292 H 400.705 -4.03808 -1.43655 0
M  V30 4293 H 404.889 -4.87575 -0.92653 0
M  V30 4294 H 400.145 -6.1094 -0.237098 0
M  V30 4295 H 404.319 -6.95892 0.266035 0
M  V30 4296 H 401.946 -7.57695 0.616685 0
M  V30 4297 N 403.521 0.559213 -1.47345 0
M  V30 4298 C 404.484 1.64854 -1.59235 0
M  V30 4299 C 405.484 1.53851 -0.467607 0
M  V30 4300 O 406.674 1.58045 -0.732617 0
M  V30 4301 C 403.806 3.04388 -1.53496 0
M  V30 4302 H 404.999 1.55662 -2.56339 0
M  V30 4303 H 402.552 0.778973 -1.35505 0
M  V30 4304 H 403.287 3.19115 -0.577604 0
M  V30 4305 H 403.072 3.13783 -2.35123 0
M  V30 4306 H 404.562 3.83642 -1.6495 0
M  V30 4307 N 404.999 1.35443 0.805782 0
M  V30 4308 C 406.41 1.25768 1.37983 0
M  V30 4309 C 406.761 -0.10958 1.95894 0
M  V30 4310 O 405.886 -1.01056 1.91355 0
M  V30 4311 C 406.481 2.27727 2.5085 0
M  V30 4312 C 405.04 2.2179 3.04115 0
M  V30 4313 C 404.187 2.13393 1.77084 0
M  V30 4314 H 407.138 1.4656 0.608752 0
M  V30 4315 H 407.159 1.90422 3.29424 0
M  V30 4316 H 406.671 3.27227 2.08671 0
M  V30 4317 H 404.772 1.25703 3.50756 0
M  V30 4318 H 404.885 3.13788 3.62042 0
M  V30 4319 H 403.249 1.59384 1.98668 0
M  V30 4320 H 404.032 3.14755 1.37056 0
M  V30 4321 N 406.477 -1.02803 1.19454 0
M  V30 4322 C 407.409 -2.11181 0.890807 0
M  V30 4323 C 408.422 -1.6238 -0.116829 0
M  V30 4324 O 409.611 -1.78144 0.112694 0
M  V30 4325 C 406.711 -3.37461 0.311942 0
M  V30 4326 C 405.884 -4.15446 1.36834 0
M  V30 4327 C 404.943 -5.20039 0.802864 0
M  V30 4328 O 403.969 -5.49602 1.48077 0
M  V30 4329 N 405.171 -5.79165 -0.393417 0
M  V30 4330 H 407.936 -2.37827 1.82369 0
M  V30 4331 H 405.497 -1.19101 1.09666 0
M  V30 4332 H 407.489 -4.0462 -0.0802225 0
M  V30 4333 H 406.059 -3.08156 -0.52524 0
M  V30 4334 H 405.279 -3.43423 1.93531 0
M  V30 4335 H 406.567 -4.64335 2.08015 0
M  V30 4336 H 405.965 -5.57466 -0.961658 0
M  V30 4337 H 404.522 -6.47729 -0.727351 0
M  V30 4338 N 407.956 -0.998596 -1.21925 0
M  V30 4339 C 409.204 -0.676325 -1.90448 0
M  V30 4340 C 409.525 0.794719 -1.78071 0
M  V30 4341 O 408.795 1.5701 -1.17152 0
M  V30 4342 H 407.375 -0.247165 -0.704925 0
M  V30 4343 H 410.037 -1.26633 -1.48156 0
M  V30 4344 H 409.133 -0.943858 -2.97486 0
M  V30 4345 N 409.434 1.37368 -0.772513 0
M  V30 4346 C 410.364 2.32856 -0.173304 0
M  V30 4347 C 411.345 1.55818 0.682262 0
M  V30 4348 O 412.53 1.84052 0.619566 0
M  V30 4349 C 409.66 3.40048 0.706007 0
M  V30 4350 C 408.614 4.27973 -0.0483144 0
M  V30 4351 C 407.94 5.26184 0.950491 0
M  V30 4352 C 409.24 5.07665 -1.22776 0
M  V30 4353 H 410.934 2.83217 -0.971002 0
M  V30 4354 H 408.48 1.3617 -0.468377 0
M  V30 4355 H 410.433 4.05827 1.13501 0
M  V30 4356 H 409.157 2.88214 1.53623 0
M  V30 4357 H 407.816 3.63726 -0.458107 0
M  V30 4358 H 407.464 4.7063 1.77529 0
M  V30 4359 H 407.164 5.85872 0.450314 0
M  V30 4360 H 408.688 5.94838 1.37842 0
M  V30 4361 H 410.102 5.66578 -0.875366 0
M  V30 4362 H 408.499 5.76681 -1.66007 0
M  V30 4363 H 409.569 4.40294 -2.03149 0
M  V30 4364 N 410.912 0.523116 1.48665 0
M  V30 4365 C 412.323 0.0808997 1.86525 0
M  V30 4366 C 412.674 -1.33975 1.43336 0
M  V30 4367 O 411.799 -2.00221 0.821009 0
M  V30 4368 C 412.394 0.140037 3.3851 0
M  V30 4369 C 410.953 -0.246948 3.75589 0
M  V30 4370 C 410.1 0.502845 2.72703 0
M  V30 4371 H 413.051 0.734736 1.40667 0
M  V30 4372 H 413.072 -0.649945 3.74908 0
M  V30 4373 H 412.584 1.17412 3.69914 0
M  V30 4374 H 410.685 -1.28343 3.49798 0
M  V30 4375 H 410.798 0.0878859 4.79019 0
M  V30 4376 H 409.162 -0.0500581 2.54651 0
M  V30 4377 H 409.945 1.53743 3.0695 0
M  V30 4378 N 412.39 -1.55475 0.257931 0
M  V30 4379 C 413.636 -1.99502 -0.364266 0
M  V30 4380 C 413.969 -1.146 -1.56782 0
M  V30 4381 O 413.244 -0.211968 -1.93342 0
M  V30 4382 C 413.527 -3.51917 -0.763333 0
M  V30 4383 C 413.38 -4.4758 0.446371 0
M  V30 4384 C 414.699 -4.09742 -1.60623 0
M  V30 4385 H 411.818 -0.725277 -0.130929 0
M  V30 4386 H 414.46 -1.8653 0.361446 0
M  V30 4387 H 412.61 -3.63101 -1.38166 0
M  V30 4388 H 414.282 -4.48362 1.08487 0
M  V30 4389 H 412.525 -4.19947 1.08753 0
M  V30 4390 H 413.196 -5.51862 0.123645 0
M  V30 4391 H 415.672 -4.01727 -1.08418 0
M  V30 4392 H 414.548 -5.16631 -1.85429 0
M  V30 4393 H 414.809 -3.58889 -2.58169 0
M  V30 4394 N 413.868 0.0150385 -1.57593 0
M  V30 4395 C 415.114 0.704043 -1.90187 0
M  V30 4396 C 415.447 1.74249 -0.857366 0
M  V30 4397 O 414.722 1.94092 0.125843 0
M  V30 4398 C 415.005 1.36087 -3.33395 0
M  V30 4399 C 414.858 0.334981 -4.48551 0
M  V30 4400 C 416.177 2.29112 -3.7576 0
M  V30 4401 H 413.296 0.254475 -0.691673 0
M  V30 4402 H 415.938 -0.0331678 -1.89971 0
M  V30 4403 H 414.088 1.98922 -3.3371 0
M  V30 4404 H 415.76 -0.292534 -4.60372 0
M  V30 4405 H 414.003 -0.344325 -4.32431 0
M  V30 4406 H 414.674 0.833316 -5.45674 0
M  V30 4407 H 417.15 1.76308 -3.76902 0
M  V30 4408 H 416.026 2.72043 -4.76743 0
M  V30 4409 H 416.287 3.16385 -3.08793 0
M  V30 4410 N 415.346 1.54954 0.287554 0
M  V30 4411 C 416.757 1.65732 0.859634 0
M  V30 4412 C 417.108 0.574767 1.87592 0
M  V30 4413 O 416.233 -0.286299 2.14498 0
M  V30 4414 C 416.828 3.00438 1.56597 0
M  V30 4415 C 415.387 3.13292 2.08627 0
M  V30 4416 C 414.534 2.61473 0.923416 0
M  V30 4417 H 417.485 1.5857 0.0642338 0
M  V30 4418 H 417.506 2.92613 2.43224 0
M  V30 4419 H 417.018 3.79207 0.826053 0
M  V30 4420 H 415.119 2.39268 2.85625 0
M  V30 4421 H 415.232 4.19647 2.31157 0
M  V30 4422 H 413.596 2.18264 1.31275 0
M  V30 4423 H 414.379 3.42733 0.197241 0
M  V30 4424 N 416.824 -0.551391 1.4764 0
M  V30 4425 C 417.771 -1.65796 1.60563 0
M  V30 4426 C 418.741 -1.59932 0.448428 0
M  V30 4427 O 419.926 -1.78679 0.669222 0
M  V30 4428 C 417.066 -3.04108 1.63133 0
M  V30 4429 C 416.179 -3.20365 2.89811 0
M  V30 4430 C 415.314 -4.49109 2.8368 0
M  V30 4431 C 414.353 -4.58819 4.05156 0
M  V30 4432 N 413.49 -5.78926 3.97227 0
M  V30 4433 H 418.33 -1.54088 2.5507 0
M  V30 4434 H 415.867 -0.75052 1.26513 0
M  V30 4435 H 417.825 -3.84207 1.62606 0
M  V30 4436 H 416.455 -3.14637 0.721341 0
M  V30 4437 H 415.507 -2.33659 3.00179 0
M  V30 4438 H 416.819 -3.23402 3.79753 0
M  V30 4439 H 415.973 -5.37475 2.81434 0
M  V30 4440 H 414.712 -4.4856 1.91431 0
M  V30 4441 H 413.717 -3.68864 4.077 0
M  V30 4442 H 414.942 -4.61124 4.98539 0
M  V30 4443 H 412.888 -5.79314 3.07785 0
M  V30 4444 H 412.805 -5.83367 4.80853 0
M  V30 4445 H 414.073 -6.69637 3.99007 0
M  V30 4446 N 418.302 -1.35869 -0.798587 0
M  V30 4447 C 419.25 -1.29491 -1.93222 0
M  V30 4448 C 420.244 -0.18836 -1.6835 0
M  V30 4449 O 421.45 -0.354822 -1.76468 0
M  V30 4450 H 417.825 -0.402901 -0.63496 0
M  V30 4451 H 419.796 -2.25247 -1.9572 0
M  V30 4452 C 418.545 -1.09184 -3.30112 0
M  V30 4453 H 417.868 -1.93574 -3.49813 0
M  V30 4454 H 419.308 -1.08766 -4.09812 0
M  V30 4455 C 417.767 0.203959 -3.36282 0
M  V30 4456 O 418.297 1.19699 -3.83451 0
M  V30 4457 N 416.503 0.245488 -2.89561 0
M  V30 4458 H 416.05 -0.563223 -2.51367 0
M  V30 4459 H 416.008 1.11219 -2.94071 0
M  V30 4460 N 419.78 1.02168 -1.19998 0
M  V30 4461 C 421.026 1.75945 -1.00852 0
M  V30 4462 C 421.359 1.88702 0.458828 0
M  V30 4463 O 420.634 1.40911 1.34069 0
M  V30 4464 C 420.917 3.18154 -1.68671 0
M  V30 4465 C 420.77 3.13224 -3.22817 0
M  V30 4466 C 422.089 4.16711 -1.41561 0
M  V30 4467 H 419.208 0.638673 -0.367785 0
M  V30 4468 H 421.85 1.19222 -1.4794 0
M  V30 4469 H 420 3.66586 -1.28636 0
M  V30 4470 H 421.672 2.72635 -3.72112 0
M  V30 4471 H 419.915 2.50751 -3.53986 0
M  V30 4472 H 420.586 4.13728 -3.65422 0
M  V30 4473 H 423.062 3.76913 -1.76284 0
M  V30 4474 H 421.938 5.14391 -1.91553 0
M  V30 4475 H 422.199 4.40774 -0.342193 0
M  V30 4476 N 421.258 1.00505 1.21394 0
M  V30 4477 C 422.221 0.570459 2.21987 0
M  V30 4478 C 423.221 -0.353211 1.56873 0
M  V30 4479 O 424.411 -0.14349 1.73608 0
M  V30 4480 C 421.543 -0.168555 3.40483 0
M  V30 4481 H 422.736 1.46021 2.6195 0
M  V30 4482 H 420.289 0.793565 1.34656 0
M  V30 4483 H 421.024 -1.07374 3.06009 0
M  V30 4484 H 420.809 0.494823 3.88965 0
M  V30 4485 H 422.299 -0.460362 4.15055 0
M  V30 4486 N 422.737 -1.36956 0.779787 0
M  V30 4487 C 423.984 -1.99491 0.347766 0
M  V30 4488 C 424.312 -1.61898 -1.07793 0
M  V30 4489 O 423.567 -0.86071 -1.75756 0
M  V30 4490 C 423.866 -3.54585 0.447686 0
M  V30 4491 C 423.532 -4.1197 1.83279 0
M  V30 4492 C 422.194 -4.27356 2.2118 0
M  V30 4493 C 424.546 -4.43354 2.74019 0
M  V30 4494 C 421.874 -4.71432 3.4924 0
M  V30 4495 C 424.226 -4.88858 4.01497 0
M  V30 4496 C 422.89 -5.0245 4.39432 0
M  V30 4497 H 422.16 -0.729991 0.127257 0
M  V30 4498 H 424.807 -1.63599 0.995376 0
M  V30 4499 H 423.112 -3.90773 -0.283447 0
M  V30 4500 H 424.809 -4.00888 0.0945948 0
M  V30 4501 H 421.399 -4.00428 1.52825 0
M  V30 4502 H 425.583 -4.31045 2.45995 0
M  V30 4503 H 420.839 -4.80141 3.78516 0
M  V30 4504 H 425.013 -5.12108 4.71931 0
M  V30 4505 H 422.64 -5.36362 5.38721 0
M  V30 4506 N 424.215 -0.530993 -1.48385 0
M  V30 4507 C 425.461 0.00274135 -2.028 0
M  V30 4508 C 425.794 1.33838 -1.40716 0
M  V30 4509 O 425.069 1.86465 -0.553277 0
M  V30 4510 C 425.352 0.123676 -3.59888 0
M  V30 4511 C 425.205 -1.2372 -4.3245 0
M  V30 4512 C 426.524 0.849967 -4.31814 0
M  V30 4513 H 423.643 -0.000477758 -0.737 0
M  V30 4514 H 426.285 -0.688217 -1.77098 0
M  V30 4515 H 424.435 0.712157 -3.81917 0
M  V30 4516 H 426.107 -1.86687 -4.21836 0
M  V30 4517 H 424.35 -1.81882 -3.93829 0
M  V30 4518 H 425.021 -1.10557 -5.40815 0
M  V30 4519 H 427.497 0.350572 -4.14621 0
M  V30 4520 H 426.373 0.903486 -5.41413 0
M  V30 4521 H 426.634 1.90047 -3.99167 0
M  V30 4522 N 425.693 1.55336 -0.266172 0
M  V30 4523 C 426.942 1.98574 0.353749 0
M  V30 4524 C 427.255 1.15789 1.57646 0
M  V30 4525 O 428.461 1.49129 2.26876 0
M  V30 4526 C 426.917 3.53403 0.680747 0
M  V30 4527 C 426.525 4.44953 -0.52165 0
M  V30 4528 C 428.269 4.05251 1.26379 0
M  V30 4529 C 426.176 5.91156 -0.169736 0
M  V30 4530 H 425.106 0.741643 0.135949 0
M  V30 4531 H 427.757 1.79743 -0.369421 0
M  V30 4532 H 426.139 3.68001 1.46257 0
M  V30 4533 H 427.313 4.42121 -1.29869 0
M  V30 4534 H 425.628 4.03691 -1.02093 0
M  V30 4535 H 428.225 5.12021 1.54074 0
M  V30 4536 H 428.568 3.53749 2.19471 0
M  V30 4537 H 429.101 3.94057 0.544447 0
M  V30 4538 H 425.84 6.46736 -1.0683 0
M  V30 4539 H 425.36 5.97079 0.570717 0
M  V30 4540 H 427.039 6.4655 0.241245 0
M  V30 4541 N 427.171 -0.0066808 1.57599 0
M  V30 4542 C 428.448 -0.729586 1.81484 0
M  V30 4543 C 428.828 -1.92359 0.869558 0
M  V30 4544 O 428.176 -2.28348 -0.0832533 0
M  V30 4545 C 428.386 -1.1416 3.29801 0
M  V30 4546 C 429.734 -1.54823 3.95367 0
M  V30 4547 O 430.758 -1.23558 3.34084 0
M  V30 4548 O 429.617 -2.12937 5.03309 0
M  V30 4549 H 426.711 -0.354674 0.747085 0
M  V30 4550 H 429.257 0.0182609 1.6969 0
M  V30 4551 H 428.029 -0.290231 3.90222 0
M  V30 4552 H 427.652 -1.94876 3.46568 0
M  V30 4553 N 428.649 -1.55105 -0.279332 0
M  V30 4554 C 429.898 -1.74618 -1.00952 0
M  V30 4555 C 430.211 -0.551096 -1.87676 0
M  V30 4556 O 431.417 -0.628507 -2.64125 0
M  V30 4557 C 429.873 -3.09025 -1.84476 0
M  V30 4558 C 429.481 -4.36081 -1.0265 0
M  V30 4559 C 431.225 -3.37891 -2.56963 0
M  V30 4560 C 429.132 -5.6153 -1.85576 0
M  V30 4561 H 428.062 -0.650868 -0.38064 0
M  V30 4562 H 430.713 -1.81569 -0.265475 0
M  V30 4563 H 429.095 -2.96095 -2.62952 0
M  V30 4564 H 430.269 -4.59909 -0.286354 0
M  V30 4565 H 428.584 -4.14312 -0.416464 0
M  V30 4566 H 431.181 -4.28822 -3.19399 0
M  V30 4567 H 431.524 -2.57737 -3.26921 0
M  V30 4568 H 432.057 -3.5189 -1.85522 0
M  V30 4569 H 428.796 -6.44413 -1.2005 0
M  V30 4570 H 428.316 -5.41854 -2.57204 0
M  V30 4571 H 429.995 -5.99594 -2.43096 0
M  V30 4572 N 430.127 0.543554 -1.4793 0
M  V30 4573 C 431.352 1.32995 -1.59145 0
M  V30 4574 C 431.777 1.86472 -0.246956 0
M  V30 4575 O 431.135 1.63696 0.779324 0
M  V30 4576 C 431.183 2.46623 -2.63077 0
M  V30 4577 O 430.287 3.49261 -2.19295 0
M  V30 4578 H 429.628 0.394472 -0.534124 0
M  V30 4579 H 432.158 0.655489 -1.93816 0
M  V30 4580 H 432.168 2.93001 -2.83926 0
M  V30 4581 H 430.843 2.07059 -3.60693 0
M  V30 4582 H 429.42 3.09094 -2.08603 0
M  V30 4583 N 431.605 1.3629 0.791371 0
M  V30 4584 C 432.853 1.30154 1.5461 0
M  V30 4585 C 433.174 -0.119409 1.94634 0
M  V30 4586 O 432.444 -1.05924 1.64794 0
M  V30 4587 H 431.024 0.478784 0.573389 0
M  V30 4588 H 433.686 1.70565 0.94306 0
M  V30 4589 H 432.782 1.92762 2.45457 0
M  V30 4590 N 433.083 -1.0153 1.20538 0
M  V30 4591 C 434.308 -1.79283 1.04271 0
M  V30 4592 C 434.733 -1.8372 -0.403544 0
M  V30 4593 O 434.091 -1.27321 -1.2907 0
M  V30 4594 C 434.139 -3.21535 1.63241 0
M  V30 4595 O 433.243 -4.03099 0.870908 0
M  V30 4596 H 432.584 -0.55293 0.367647 0
M  V30 4597 H 435.114 -1.27696 1.59859 0
M  V30 4598 H 435.124 -3.72243 1.6703 0
M  V30 4599 H 433.799 -3.1762 2.68497 0
M  V30 4600 H 432.376 -3.61693 0.907323 0
M  V30 4601 N 434.561 -1.01147 -1.20859 0
M  V30 4602 C 435.494 -0.522108 -2.22147 0
M  V30 4603 C 436.472 0.427686 -1.56874 0
M  V30 4604 O 437.656 0.34889 -1.85243 0
M  V30 4605 C 434.783 0.240819 -3.37843 0
M  V30 4606 C 433.829 -0.657752 -4.21398 0
M  V30 4607 S 434.662 -2.12393 -4.91578 0
M  V30 4608 C 435.818 -1.37102 -6.10699 0
M  V30 4609 H 436.051 -1.38035 -2.63313 0
M  V30 4610 H 433.584 -0.819941 -1.30829 0
M  V30 4611 H 435.542 0.674908 -4.04914 0
M  V30 4612 H 434.203 1.07457 -2.95147 0
M  V30 4613 H 433.396 -0.0697456 -5.03952 0
M  V30 4614 H 432.998 -1.0294 -3.59555 0
M  V30 4615 H 435.29 -0.648315 -6.74391 0
M  V30 4616 H 436.233 -2.17252 -6.73949 0
M  V30 4617 H 436.641 -0.876154 -5.57659 0
M  V30 4618 N 436.039 1.36541 -0.78704 0
M  V30 4619 C 437.002 2.28413 -0.189778 0
M  V30 4620 C 438.002 1.48719 0.611499 0
M  V30 4621 O 439.192 1.68737 0.432842 0
M  V30 4622 C 436.324 3.32824 0.737638 0
M  V30 4623 H 437.517 2.82743 -0.999831 0
M  V30 4624 H 435.07 1.46065 -0.556298 0
M  V30 4625 H 435.805 2.83646 1.57212 0
M  V30 4626 H 435.59 3.91752 0.165044 0
M  V30 4627 H 437.08 4.0144 1.15047 0
M  V30 4628 N 437.518 0.538854 1.48102 0
M  V30 4629 C 438.766 0.00798599 2.02098 0
M  V30 4630 C 439.087 -1.33922 1.41739 0
M  V30 4631 O 438.357 -1.86932 0.585934 0
M  V30 4632 H 436.937 -3.62179e-05 0.747 0
M  V30 4633 H 439.599 0.7047 1.81714 0
M  V30 4634 H 438.695 -0.0937672 3.11959 0
M  V30 4635 N 438.996 -1.55193 0.274407 0
M  V30 4636 C 440.412 -1.59401 -0.0797543 0
M  V30 4637 C 440.612 -1.29162 -1.54659 0
M  V30 4638 O 439.668 -1.05215 -2.29534 0
M  V30 4639 C 440.981 -2.99257 0.294238 0
M  V30 4640 C 442.529 -3.12072 0.240796 0
M  V30 4641 C 443.004 -4.54194 0.589218 0
M  V30 4642 N 444.495 -4.60033 0.540744 0
M  V30 4643 C 445.23 -5.68027 0.783147 0
M  V30 4644 N 444.726 -6.8417 1.09013 0
M  V30 4645 N 446.519 -5.57572 0.711993 0
M  V30 4646 H 438.67 -1.73113 1.23067 0
M  V30 4647 H 440.933 -0.807197 0.497129 0
M  V30 4648 H 440.639 -3.26217 1.31435 0
M  V30 4649 H 440.513 -3.75427 -0.365281 0
M  V30 4650 H 442.9 -2.84877 -0.770024 0
M  V30 4651 H 442.981 -2.38117 0.934563 0
M  V30 4652 H 442.625 -4.82115 1.59772 0
M  V30 4653 H 442.555 -5.26448 -0.126331 0
M  V30 4654 H 445.046 -3.76599 0.313327 0
M  V30 4655 H 445.359 -7.6243 1.26178 0
M  V30 4656 H 443.704 -6.85787 1.12789 0
M  V30 4657 H 446.895 -4.65714 0.472014 0
M  V30 4658 H 447.068 -6.41659 0.90429 0
M  V30 4659 N 440.474 -0.00167713 -1.576 0
M  V30 4660 C 441.421 0.989195 -2.08527 0
M  V30 4661 C 442.391 1.34031 -0.981065 0
M  V30 4662 O 443.576 1.43839 -1.2536 0
M  V30 4663 C 440.716 2.27537 -2.59463 0
M  V30 4664 C 439.829 1.98314 -3.83791 0
M  V30 4665 C 438.964 3.21025 -4.23222 0
M  V30 4666 C 438.003 2.87495 -5.40382 0
M  V30 4667 N 437.14 4.02749 -5.75098 0
M  V30 4668 H 441.98 0.547973 -2.92919 0
M  V30 4669 H 439.517 0.258917 -1.44803 0
M  V30 4670 H 441.475 3.02729 -2.87073 0
M  V30 4671 H 440.105 2.69325 -1.77943 0
M  V30 4672 H 439.157 1.13482 -3.63078 0
M  V30 4673 H 440.469 1.69601 -4.69081 0
M  V30 4674 H 439.623 4.04561 -4.52123 0
M  V30 4675 H 438.362 3.52877 -3.36644 0
M  V30 4676 H 437.367 2.02367 -5.11202 0
M  V30 4677 H 438.592 2.56889 -6.28637 0
M  V30 4678 H 436.538 4.34494 -4.91478 0
M  V30 4679 H 436.455 3.77566 -6.54966 0
M  V30 4680 H 437.723 4.87068 -6.08592 0
M  V30 4681 N 441.952 1.55251 0.271103 0
M  V30 4682 C 442.882 1.9127 1.33933 0
M  V30 4683 C 443.863 0.77478 1.5143 0
M  V30 4684 O 445.048 1.03307 1.64442 0
M  V30 4685 C 442.178 2.18627 2.69851 0
M  V30 4686 C 441.132 3.34442 2.67081 0
M  V30 4687 C 440.458 3.47284 4.06569 0
M  V30 4688 C 441.758 4.70784 2.26185 0
M  V30 4689 H 443.452 2.80744 1.04035 0
M  V30 4690 H 440.998 1.35077 0.499017 0
M  V30 4691 H 442.951 2.42413 3.44694 0
M  V30 4692 H 441.675 1.25955 3.01335 0
M  V30 4693 H 440.334 3.10627 1.94695 0
M  V30 4694 H 439.982 2.52074 4.35279 0
M  V30 4695 H 439.682 4.25152 4.0561 0
M  V30 4696 H 441.206 3.73363 4.83148 0
M  V30 4697 H 442.62 4.94102 2.90751 0
M  V30 4698 H 441.017 5.51582 2.36384 0
M  V30 4699 H 442.087 4.69478 1.21319 0
M  V30 4700 N 443.43 -0.535701 1.48216 0
M  V30 4701 C 444.34 -1.66785 1.64985 0
M  V30 4702 C 445.356 -1.65654 0.532414 0
M  V30 4703 O 446.532 -1.8471 0.80275 0
M  V30 4704 C 443.597 -3.0326 1.68031 0
M  V30 4705 C 442.658 -3.1529 2.9136 0
M  V30 4706 C 441.891 -4.45255 2.94252 0
M  V30 4707 O 442.114 -5.32011 2.05719 0
M  V30 4708 O 441.048 -4.6153 3.86359 0
M  V30 4709 H 444.874 -1.55576 2.60825 0
M  V30 4710 H 442.459 -0.70815 1.31551 0
M  V30 4711 H 444.341 -3.84436 1.72589 0
M  V30 4712 H 443.016 -3.14805 0.753628 0
M  V30 4713 H 441.923 -2.3343 2.92337 0
M  V30 4714 H 443.256 -3.08658 3.83394 0
M  V30 4715 N 444.908 -1.36708 -0.784132 0
M  V30 4716 C 445.84 -1.27333 -1.90575 0
M  V30 4717 C 446.853 -0.191706 -1.61667 0
M  V30 4718 O 448.042 -0.446854 -1.72816 0
M  V30 4719 C 445.142 -0.943177 -3.25511 0
M  V30 4720 C 444.315 -2.12776 -3.82158 0
M  V30 4721 C 443.374 -1.76983 -4.95544 0
M  V30 4722 O 442.4 -2.49134 -5.11782 0
M  V30 4723 N 443.602 -0.706624 -5.76183 0
M  V30 4724 H 446.367 -2.23974 -1.99138 0
M  V30 4725 H 443.928 -1.30171 -0.962656 0
M  V30 4726 H 445.92 -0.684799 -3.98864 0
M  V30 4727 H 444.49 -0.0657333 -3.12531 0
M  V30 4728 H 443.71 -2.54863 -3.0073 0
M  V30 4729 H 444.998 -2.91904 -4.16737 0
M  V30 4730 H 444.396 -0.107643 -5.65598 0
M  V30 4731 H 442.953 -0.50808 -6.49817 0
M  V30 4732 N 446.386 1.0089 -1.21074 0
M  V30 4733 C 447.614 1.78191 -1.05145 0
M  V30 4734 C 448.029 1.84537 0.398952 0
M  V30 4735 O 447.386 1.30393 1.27687 0
M  V30 4736 C 447.437 3.22288 -1.63746 0
M  V30 4737 O 447.158 3.16315 -3.03111 0
M  V30 4738 C 448.659 4.16106 -1.52875 0
M  V30 4739 H 445.879 0.560129 -0.369454 0
M  V30 4740 H 448.423 1.26945 -1.60328 0
M  V30 4741 H 446.578 3.70655 -1.12664 0
M  V30 4742 H 446.992 4.06817 -3.31059 0
M  V30 4743 H 448.466 5.15026 -1.98626 0
M  V30 4744 H 448.943 4.36541 -0.482521 0
M  V30 4745 H 449.549 3.73625 -2.03185 0
M  V30 4746 N 447.864 1.01787 1.20321 0
M  V30 4747 C 448.811 0.589197 2.23153 0
M  V30 4748 C 449.781 -0.391367 1.61423 0
M  V30 4749 O 450.966 -0.290518 1.88575 0
M  V30 4750 C 448.106 -0.0650747 3.45039 0
M  V30 4751 C 447.219 0.960207 4.21194 0
M  V30 4752 C 446.354 0.276854 5.30478 0
M  V30 4753 C 445.393 1.2888 5.98378 0
M  V30 4754 N 444.53 0.632031 6.99249 0
M  V30 4755 H 449.37 1.47071 2.59179 0
M  V30 4756 H 446.907 0.736192 1.27352 0
M  V30 4757 H 448.865 -0.461552 4.14639 0
M  V30 4758 H 447.495 -0.910233 3.09701 0
M  V30 4759 H 446.547 1.47484 3.50646 0
M  V30 4760 H 447.859 1.72977 4.67847 0
M  V30 4761 H 447.013 -0.175056 6.06447 0
M  V30 4762 H 445.752 -0.525004 4.84866 0
M  V30 4763 H 444.757 1.75109 5.21169 0
M  V30 4764 H 445.982 2.09196 6.46076 0
M  V30 4765 H 443.928 -0.149935 6.55829 0
M  V30 4766 H 443.845 1.33964 7.44036 0
M  V30 4767 H 445.113 0.203755 7.79234 0
M  V30 4768 N 449.342 -1.36122 0.79427 0
M  V30 4769 C 450.252 -2.33769 0.197296 0
M  V30 4770 C 451.268 -1.61276 -0.653153 0
M  V30 4771 O 452.444 -1.9323 -0.5678 0
M  V30 4772 C 449.509 -3.40474 -0.654098 0
M  V30 4773 C 448.57 -4.28759 0.215411 0
M  V30 4774 C 447.803 -5.30368 -0.595443 0
M  V30 4775 O 448.026 -5.40211 -1.83107 0
M  V30 4776 O 446.96 -6.019 0.00721351 0
M  V30 4777 H 450.786 -2.86597 1.00478 0
M  V30 4778 H 448.371 -1.38676 0.555818 0
M  V30 4779 H 450.253 -4.05703 -1.13944 0
M  V30 4780 H 448.928 -2.89937 -1.43938 0
M  V30 4781 H 447.835 -3.66554 0.747615 0
M  V30 4782 H 449.168 -4.82661 0.964332 0
M  V30 4783 N 450.82 -0.546701 -1.47814 0
M  V30 4784 C 451.783 0.196287 -2.28358 0
M  V30 4785 C 452.783 0.852437 -1.36346 0
M  V30 4786 O 453.973 0.709913 -1.59078 0
M  V30 4787 C 451.105 1.28579 -3.15722 0
M  V30 4788 H 452.298 -0.511086 -2.95513 0
M  V30 4789 H 449.851 -0.303248 -1.5333 0
M  V30 4790 H 450.586 2.0259 -2.53235 0
M  V30 4791 H 450.371 0.820229 -3.83425 0
M  V30 4792 H 451.861 1.80793 -3.76435 0
M  V30 4793 N 452.299 1.55045 -0.282633 0
M  V30 4794 C 453.229 2.2579 0.595066 0
M  V30 4795 C 454.21 1.25074 1.15284 0
M  V30 4796 O 455.395 1.5381 1.18559 0
M  V30 4797 C 452.525 2.98472 1.77572 0
M  V30 4798 C 451.479 4.0618 1.34914 0
M  V30 4799 C 450.805 4.66477 2.6135 0
M  V30 4800 C 452.105 5.1996 0.493821 0
M  V30 4801 H 453.799 2.994 0.00505653 0
M  V30 4802 H 451.345 1.44 0.000992001 0
M  V30 4803 H 453.298 3.46677 2.39568 0
M  V30 4804 H 452.022 2.2241 2.39168 0
M  V30 4805 H 450.681 3.58797 0.752338 0
M  V30 4806 H 450.329 3.87074 3.2122 0
M  V30 4807 H 450.029 5.39207 2.33516 0
M  V30 4808 H 451.553 5.17435 3.24181 0
M  V30 4809 H 452.967 5.64172 1.01898 0
M  V30 4810 H 451.364 5.99299 0.310047 0
M  V30 4811 H 452.434 4.82462 -0.485593 0
M  V30 4812 N 453.777 0.010035 1.57597 0
M  V30 4813 C 454.707 -0.976857 2.12084 0
M  V30 4814 C 455.688 -1.35191 1.03235 0
M  V30 4815 O 456.873 -1.43389 1.3097 0
M  V30 4816 C 454.003 -2.26548 2.63236 0
M  V30 4817 C 452.957 -2.03175 3.76701 0
M  V30 4818 C 452.283 -3.38138 4.14206 0
M  V30 4819 C 453.583 -1.38625 5.03568 0
M  V30 4820 H 455.277 -0.523145 2.94794 0
M  V30 4821 H 452.823 -0.250195 1.4181 0
M  V30 4822 H 454.776 -2.95952 2.99984 0
M  V30 4823 H 453.5 -2.74051 1.77661 0
M  V30 4824 H 452.159 -1.36195 3.40362 0
M  V30 4825 H 451.807 -3.83363 3.25641 0
M  V30 4826 H 451.507 -3.23312 4.90656 0
M  V30 4827 H 453.031 -4.08841 4.53521 0
M  V30 4828 H 454.445 -1.98 5.38023 0
M  V30 4829 H 452.842 -1.34256 5.84889 0
M  V30 4830 H 453.912 -0.356722 4.83586 0
M  V30 4831 N 455.255 -1.55392 -0.262866 0
M  V30 4832 C 456.671 -1.47459 -0.610582 0
M  V30 4833 C 456.871 -0.697031 -1.8906 0
M  V30 4834 O 455.927 -0.219952 -2.5154 0
M  V30 4835 C 457.24 -2.91751 -0.728131 0
M  V30 4836 C 458.788 -3.02027 -0.821517 0
M  V30 4837 C 459.263 -4.47594 -0.97076 0
M  V30 4838 N 460.754 -4.51465 -1.03603 0
M  V30 4839 C 461.489 -5.61326 -1.17049 0
M  V30 4840 N 460.985 -6.81032 -1.2715 0
M  V30 4841 N 462.778 -5.49089 -1.20239 0
M  V30 4842 H 454.929 -2.04395 0.577632 0
M  V30 4843 H 457.192 -0.927287 0.197086 0
M  V30 4844 H 456.898 -3.51413 0.142132 0
M  V30 4845 H 456.772 -3.4134 -1.6052 0
M  V30 4846 H 459.159 -2.42456 -1.68224 0
M  V30 4847 H 459.24 -2.55674 0.0803688 0
M  V30 4848 H 458.884 -5.07771 -0.114655 0
M  V30 4849 H 458.814 -4.91613 -1.88745 0
M  V30 4850 H 461.305 -3.6524 -0.96996 0
M  V30 4851 H 461.618 -7.60511 -1.37271 0
M  V30 4852 H 459.963 -6.83824 -1.24136 0
M  V30 4853 H 463.154 -4.54507 -1.11985 0
M  V30 4854 H 463.327 -6.34749 -1.30373 0
M  V30 4855 N 456.733 0.527833 -1.48498 0
M  V30 4856 C 457.982 1.28003 -1.55878 0
M  V30 4857 C 458.295 1.9414 -0.238577 0
M  V30 4858 O 459.501 2.7083 -0.190643 0
M  V30 4859 C 457.957 2.32272 -2.74914 0
M  V30 4860 C 457.565 1.72196 -4.13585 0
M  V30 4861 C 459.309 3.08488 -2.91608 0
M  V30 4862 C 457.216 2.74417 -5.23879 0
M  V30 4863 H 456.146 0.481413 -0.580308 0
M  V30 4864 H 458.797 0.557195 -1.74836 0
M  V30 4865 H 457.179 3.07601 -2.49395 0
M  V30 4866 H 458.353 1.03041 -4.49132 0
M  V30 4867 H 456.668 1.08464 -4.02025 0
M  V30 4868 H 459.265 3.84879 -3.71177 0
M  V30 4869 H 459.608 3.64481 -2.01145 0
M  V30 4870 H 460.141 2.40274 -3.17038 0
M  V30 4871 H 456.88 2.23242 -6.16314 0
M  V30 4872 H 456.4 3.41893 -4.92818 0
M  V30 4873 H 458.079 3.37362 -5.52083 0
M  V30 4874 N 458.211 1.37122 0.776871 0
M  V30 4875 C 459.141 1.35164 1.90402 0
M  V30 4876 C 460.122 0.221069 1.68657 0
M  V30 4877 O 461.307 0.420642 1.8959 0
M  V30 4878 C 458.437 1.15274 3.27611 0
M  V30 4879 C 457.391 2.25289 3.63908 0
M  V30 4880 C 456.717 1.90527 4.99603 0
M  V30 4881 C 458.017 3.67446 3.71188 0
M  V30 4882 H 459.711 2.29482 1.92297 0
M  V30 4883 H 457.257 1.10465 0.923773 0
M  V30 4884 H 459.21 1.12536 4.06096 0
M  V30 4885 H 457.934 0.174102 3.26136 0
M  V30 4886 H 456.593 2.27174 2.87728 0
M  V30 4887 H 456.241 0.91206 4.94662 0
M  V30 4888 H 455.941 2.64193 5.24858 0
M  V30 4889 H 457.465 1.89367 5.80493 0
M  V30 4890 H 458.879 3.67719 4.39836 0
M  V30 4891 H 457.276 4.40123 4.07936 0
M  V30 4892 H 458.346 4.01443 2.71977 0
M  V30 4893 N 459.689 -1.00246 1.21608 0
M  V30 4894 C 460.599 -2.12515 0.993709 0
M  V30 4895 C 461.615 -1.73913 -0.0549939 0
M  V30 4896 O 462.791 -2.00943 0.135619 0
M  V30 4897 C 459.856 -3.42083 0.563953 0
M  V30 4898 C 458.917 -3.94843 1.68516 0
M  V30 4899 C 458.15 -5.18226 1.27582 0
M  V30 4900 O 458.373 -5.70201 0.150506 0
M  V30 4901 O 457.307 -5.64497 2.0887 0
M  V30 4902 H 461.133 -2.34152 1.93407 0
M  V30 4903 H 458.718 -1.10891 1.00118 0
M  V30 4904 H 460.6 -4.20073 0.334194 0
M  V30 4905 H 459.275 -3.21828 -0.347665 0
M  V30 4906 H 458.182 -3.18068 1.96935 0
M  V30 4907 H 459.515 -4.19512 2.5743 0
M  V30 4908 N 461.167 -1.02423 -1.1978 0
M  V30 4909 C 462.444 -0.632802 -1.85081 0
M  V30 4910 C 462.824 0.888745 -1.9148 0
M  V30 4911 O 462.172 1.78357 -1.42832 0
M  V30 4912 C 462.382 -1.28947 -3.24305 0
M  V30 4913 C 463.73 -1.40976 -4.00513 0
M  V30 4914 O 464.754 -1.24628 -3.33686 0
M  V30 4915 O 463.613 -1.67467 -5.20209 0
M  V30 4916 H 460.707 -0.219348 -0.79738 0
M  V30 4917 H 463.253 -1.12209 -1.27307 0
M  V30 4918 H 462.025 -2.3288 -3.14456 0
M  V30 4919 H 461.648 -0.787748 -3.89718 0
M  V30 4920 N 462.645 1.35699 -0.801477 0
M  V30 4921 C 463.578 2.2768 -0.153922 0
M  V30 4922 C 464.556 1.47832 0.67709 0
M  V30 4923 O 465.74 1.77104 0.645474 0
M  V30 4924 C 462.867 3.2943 0.786986 0
M  V30 4925 C 461.913 4.26485 0.0362447 0
M  V30 4926 S 462.746 5.19573 -1.2963 0
M  V30 4927 C 463.902 6.24866 -0.359705 0
M  V30 4928 H 464.135 2.82254 -0.9338 0
M  V30 4929 H 461.668 1.42421 -0.596283 0
M  V30 4930 H 463.626 3.8855 1.32436 0
M  V30 4931 H 462.287 2.73745 1.54021 0
M  V30 4932 H 461.48 4.98378 0.750668 0
M  V30 4933 H 461.082 3.71508 -0.431017 0
M  V30 4934 H 463.374 6.75957 0.456954 0
M  V30 4935 H 464.317 7.00307 -1.04768 0
M  V30 4936 H 464.725 5.64484 0.0423274 0
M  V30 4937 N 464.123 0.554532 1.47522 0
M  V30 4938 C 465.055 -0.232106 2.28022 0
M  V30 4939 C 466.068 -0.881865 1.36847 0
M  V30 4940 O 467.257 -0.756168 1.61692 0
M  V30 4941 C 464.357 -1.34604 3.11022 0
M  V30 4942 C 463.53 -0.793582 4.30141 0
M  V30 4943 C 462.589 -1.79168 4.94758 0
M  V30 4944 O 461.615 -1.33886 5.5323 0
M  V30 4945 N 462.817 -3.12495 4.89211 0
M  V30 4946 H 465.582 0.458407 2.96173 0
M  V30 4947 H 463.143 0.390433 1.57122 0
M  V30 4948 H 465.135 -2.01243 3.51118 0
M  V30 4949 H 463.705 -1.93983 2.45131 0
M  V30 4950 H 462.925 0.0495025 3.94169 0
M  V30 4951 H 464.213 -0.403776 5.07195 0
M  V30 4952 H 463.611 -3.51931 4.42901 0
M  V30 4953 H 462.168 -3.74698 5.33333 0
M  V30 4954 N 465.601 -1.54893 0.290851 0
M  V30 4955 C 466.511 -2.26812 -0.59945 0
M  V30 4956 C 467.527 -1.29963 -1.15696 0
M  V30 4957 O 468.703 -1.62928 -1.18391 0
M  V30 4958 C 465.768 -2.98716 -1.75982 0
M  V30 4959 C 464.829 -4.1108 -1.2374 0
M  V30 4960 C 464.062 -4.79546 -2.34246 0
M  V30 4961 O 464.285 -4.47309 -3.53936 0
M  V30 4962 O 463.219 -5.67165 -2.01512 0
M  V30 4963 H 467.045 -3.03696 -0.0163561 0
M  V30 4964 H 464.63 -1.49289 0.0576755 0
M  V30 4965 H 466.512 -3.43851 -2.43607 0
M  V30 4966 H 465.187 -2.24737 -2.3297 0
M  V30 4967 H 464.094 -3.70367 -0.527163 0
M  V30 4968 H 465.427 -4.87007 -0.71307 0
M  V30 4969 N 467.08 -0.0183926 -1.57589 0
M  V30 4970 C 467.99 0.982943 -2.13015 0
M  V30 4971 C 469.006 1.36443 -1.07979 0
M  V30 4972 O 470.182 1.44802 -1.3998 0
M  V30 4973 C 467.247 2.25024 -2.63752 0
M  V30 4974 C 466.308 1.93018 -3.83461 0
M  V30 4975 C 465.541 3.13706 -4.31769 0
M  V30 4976 O 465.764 4.2601 -3.79305 0
M  V30 4977 O 464.698 2.96629 -5.23732 0
M  V30 4978 H 468.524 0.541709 -2.9883 0
M  V30 4979 H 466.109 0.201565 -1.48034 0
M  V30 4980 H 467.991 2.99441 -2.96502 0
M  V30 4981 H 466.666 2.68349 -1.81026 0
M  V30 4982 H 465.573 1.16019 -3.55655 0
M  V30 4983 H 466.906 1.54516 -4.67317 0
M  V30 4984 N 468.558 1.5553 0.254621 0
M  V30 4985 C 469.835 1.6774 1.00611 0
M  V30 4986 C 470.215 0.555993 2.03647 0
M  V30 4987 O 469.563 -0.441583 2.24193 0
M  V30 4988 C 469.773 3.07725 1.6464 0
M  V30 4989 C 471.121 3.66074 2.15116 0
M  V30 4990 O 472.145 3.10476 1.74595 0
M  V30 4991 O 471.004 4.63526 2.89493 0
M  V30 4992 H 468.098 0.681958 0.467828 0
M  V30 4993 H 470.644 1.67863 0.24902 0
M  V30 4994 H 469.416 3.80792 0.900734 0
M  V30 4995 H 469.039 3.1158 2.46989 0
M  V30 4996 N 470.036 -0.519951 1.48776 0
M  V30 4997 C 471.266 -1.29783 1.60748 0
M  V30 4998 C 471.674 -1.87253 0.27072 0
M  V30 4999 O 471.017 -1.67628 -0.751438 0
M  V30 5000 C 471.079 -2.47984 2.60277 0
M  V30 5001 C 470.743 -2.11526 4.051 0
M  V30 5002 C 471.74 -1.66608 4.92481 0
M  V30 5003 C 469.425 -2.21742 4.50706 0
M  V30 5004 C 471.419 -1.32384 6.23501 0
M  V30 5005 C 469.106 -1.87129 5.81744 0
M  V30 5006 C 470.104 -1.42523 6.67964 0
M  V30 5007 O 469.792 -1.0837 7.96562 0
M  V30 5008 H 469.524 -0.400562 0.544542 0
M  V30 5009 H 472.078 -0.632879 1.95407 0
M  V30 5010 H 470.308 -3.17493 2.2076 0
M  V30 5011 H 471.997 -3.10036 2.61978 0
M  V30 5012 H 472.763 -1.58178 4.58481 0
M  V30 5013 H 468.642 -2.55415 3.83776 0
M  V30 5014 H 472.186 -0.974949 6.90754 0
M  V30 5015 H 468.083 -1.95204 6.15277 0
M  V30 5016 H 468.851 -1.21681 8.09405 0
M  V30 5017 N 471.514 -1.37532 -0.769588 0
M  V30 5018 C 472.444 -1.36172 -1.89682 0
M  V30 5019 C 473.425 -0.23001 -1.68538 0
M  V30 5020 O 474.61 -0.43069 -1.89364 0
M  V30 5021 C 471.74 -1.1701 -3.26995 0
M  V30 5022 C 470.694 -2.27216 -3.62708 0
M  V30 5023 C 470.02 -1.93174 -4.98586 0
M  V30 5024 C 471.32 -3.6941 -3.69234 0
M  V30 5025 H 473.014 -2.30499 -1.91078 0
M  V30 5026 H 470.56 -1.10953 -0.917902 0
M  V30 5027 H 472.513 -1.14688 -4.05493 0
M  V30 5028 H 471.237 -0.191395 -3.26039 0
M  V30 5029 H 469.896 -2.28697 -2.86519 0
M  V30 5030 H 469.544 -0.938281 -4.94171 0
M  V30 5031 H 469.244 -2.66973 -5.23449 0
M  V30 5032 H 470.768 -1.92443 -5.79481 0
M  V30 5033 H 472.182 -3.70047 -4.37879 0
M  V30 5034 H 470.579 -4.4228 -4.05597 0
M  V30 5035 H 471.649 -4.0288 -2.69844 0
M  V30 5036 N 472.992 0.995999 -1.22138 0
M  V30 5037 C 473.94 2.10673 -0.985876 0
M  V30 5038 C 474.934 1.69255 0.0699553 0
M  V30 5039 O 476.14 1.79812 -0.0822176 0
M  V30 5040 H 472.515 0.688865 -0.30161 0
M  V30 5041 H 474.486 2.27711 -1.92848 0
M  V30 5042 C 473.235 3.42881 -0.576909 0
M  V30 5043 H 472.558 3.75191 -1.38101 0
M  V30 5044 H 473.998 4.21589 -0.451518 0
M  V30 5045 C 472.457 3.29265 0.713196 0
M  V30 5046 O 472.987 3.60777 1.76643 0
M  V30 5047 N 471.193 2.82456 0.683162 0
M  V30 5048 H 470.74 2.5701 -0.174242 0
M  V30 5049 H 470.698 2.73727 1.54663 0
M  V30 5050 N 474.47 1.03057 1.19235 0
M  V30 5051 C 475.717 0.728019 1.88961 0
M  V30 5052 C 476.045 -0.743515 1.79728 0
M  V30 5053 O 475.3 -1.55729 1.1852 0
M  V30 5054 C 475.599 1.1268 3.39172 0
M  V30 5055 C 475.265 2.5969 3.68608 0
M  V30 5056 C 473.927 2.99854 3.76352 0
M  V30 5057 C 476.279 3.54793 3.81801 0
M  V30 5058 C 473.607 4.34031 3.94758 0
M  V30 5059 C 475.959 4.88675 4.0172 0
M  V30 5060 C 474.623 5.28526 4.07697 0
M  V30 5061 H 473.893 0.266401 0.691456 0
M  V30 5062 H 476.54 1.29373 1.41191 0
M  V30 5063 H 474.845 0.479722 3.88852 0
M  V30 5064 H 476.542 0.870203 3.91444 0
M  V30 5065 H 473.132 2.27575 3.63191 0
M  V30 5066 H 477.316 3.24914 3.7516 0
M  V30 5067 H 472.572 4.6444 3.97625 0
M  V30 5068 H 476.746 5.6228 4.1087 0
M  V30 5069 H 474.373 6.32506 4.21712 0
M  V30 5070 N 475.948 -1.35272 0.808662 0
M  V30 5071 C 477.197 -1.97963 0.386483 0
M  V30 5072 C 477.51 -1.64866 -1.05255 0
M  V30 5073 O 478.716 -2.20937 -1.57794 0
M  V30 5074 C 477.172 -3.54162 0.640096 0
M  V30 5075 C 476.78 -3.96166 2.0918 0
M  V30 5076 C 478.524 -4.23553 0.283376 0
M  V30 5077 C 476.431 -5.4522 2.29106 0
M  V30 5078 H 475.361 -0.740742 0.140774 0
M  V30 5079 H 478.012 -1.5431 0.993012 0
M  V30 5080 H 476.394 -3.95983 -0.0364117 0
M  V30 5081 H 477.568 -3.65491 2.80629 0
M  V30 5082 H 475.883 -3.3967 2.40859 0
M  V30 5083 H 478.48 -5.33124 0.410273 0
M  V30 5084 H 478.823 -4.09105 -0.770659 0
M  V30 5085 H 479.356 -3.8716 0.913884 0
M  V30 5086 H 476.095 -5.64638 3.32962 0
M  V30 5087 H 475.615 -5.77457 1.62184 0
M  V30 5088 H 477.294 -6.1171 2.1076 0
M  V30 5089 N 477.426 -0.562348 -1.47226 0
M  V30 5090 C 478.356 0.170627 -2.32876 0
M  V30 5091 C 479.337 0.903748 -1.44106 0
M  V30 5092 O 480.522 0.883206 -1.72954 0
M  V30 5093 C 477.652 1.19786 -3.25989 0
M  V30 5094 C 476.606 0.580875 -4.2404 0
M  V30 5095 C 475.932 1.71311 -5.06514 0
M  V30 5096 C 477.232 -0.468714 -5.20193 0
M  V30 5097 H 478.926 -0.544441 -2.94408 0
M  V30 5098 H 476.472 -0.263271 -1.41573 0
M  V30 5099 H 478.425 1.71884 -3.84752 0
M  V30 5100 H 477.149 1.94294 -2.62521 0
M  V30 5101 H 475.808 0.0811538 -3.6651 0
M  V30 5102 H 475.456 2.44736 -4.39447 0
M  V30 5103 H 475.156 1.30604 -5.72902 0
M  V30 5104 H 476.68 2.23725 -5.68137 0
M  V30 5105 H 478.094 -0.0336028 -5.7329 0
M  V30 5106 H 476.491 -0.794957 -5.94811 0
M  V30 5107 H 477.561 -1.36269 -4.65359 0
M  V30 5108 N 478.904 1.54736 -0.299062 0
M  V30 5109 C 480.151 2.00101 0.310784 0
M  V30 5110 C 480.479 1.18746 1.54045 0
M  V30 5111 O 479.734 0.251198 1.94081 0
M  V30 5112 C 480.033 3.50199 0.713835 0
M  V30 5113 C 479.699 4.48997 -0.413873 0
M  V30 5114 C 478.361 4.7573 -0.723462 0
M  V30 5115 C 480.713 5.07839 -1.17257 0
M  V30 5116 C 478.041 5.5857 -1.79491 0
M  V30 5117 C 480.393 5.91844 -2.23392 0
M  V30 5118 C 479.057 6.16889 -2.54959 0
M  V30 5119 H 478.327 0.732221 0.113724 0
M  V30 5120 H 480.974 1.86888 -0.417756 0
M  V30 5121 H 479.279 3.61012 1.52243 0
M  V30 5122 H 480.976 3.82723 1.19684 0
M  V30 5123 H 477.566 4.28292 -0.162476 0
M  V30 5124 H 481.75 4.87188 -0.946651 0
M  V30 5125 H 477.006 5.76213 -2.04423 0
M  V30 5126 H 481.18 6.36465 -2.8264 0
M  V30 5127 H 478.807 6.80869 -3.38114 0
M  V30 5128 N 480.382 0.0267497 1.57577 0
M  V30 5129 C 481.607 -0.666227 1.96408 0
M  V30 5130 C 482.032 -1.65004 0.903071 0
M  V30 5131 O 481.39 -1.80787 -0.136263 0
M  V30 5132 C 481.438 -1.35101 3.34335 0
M  V30 5133 O 480.542 -2.46623 3.30531 0
M  V30 5134 H 479.883 -0.175206 0.640468 0
M  V30 5135 H 482.413 0.0878977 2.04411 0
M  V30 5136 H 482.423 -1.70834 3.70513 0
M  V30 5137 H 481.098 -0.629844 4.11103 0
M  V30 5138 H 479.675 -2.13019 3.06068 0
M  V30 5139 N 481.861 -1.55662 -0.24637 0
M  V30 5140 C 483.109 -1.77168 -0.972411 0
M  V30 5141 C 483.43 -0.590827 -1.85834 0
M  V30 5142 O 482.7 0.393365 -1.9191 0
M  V30 5143 H 481.28 -0.653405 -0.362038 0
M  V30 5144 H 483.942 -1.93101 -0.264189 0
M  V30 5145 H 483.038 -2.68335 -1.59382 0
M  V30 5146 N 483.339 0.512053 -1.4905 0
M  V30 5147 C 484.616 1.27337 -1.48474 0
M  V30 5148 C 484.996 2.1009 -0.206301 0
M  V30 5149 O 484.344 2.136 0.811609 0
M  V30 5150 C 484.554 2.13954 -2.75726 0
M  V30 5151 C 485.902 2.73507 -3.24776 0
M  V30 5152 O 486.926 2.24229 -2.76767 0
M  V30 5153 O 485.785 3.63186 -4.08361 0
M  V30 5154 H 482.879 0.575652 -0.593762 0
M  V30 5155 H 485.425 0.527232 -1.61302 0
M  V30 5156 H 484.197 1.52709 -3.60272 0
M  V30 5157 H 483.82 2.95782 -2.65705 0
M  V30 5158 N 484.817 1.37938 0.762283 0
M  V30 5159 C 486.063 1.33866 1.52341 0
M  V30 5160 C 486.396 -0.0738961 1.94059 0
M  V30 5161 O 485.671 -1.03326 1.64785 0
M  V30 5162 C 485.954 2.28644 2.78197 0
M  V30 5163 C 485.807 3.78722 2.42672 0
M  V30 5164 C 487.126 2.21702 3.80179 0
M  V30 5165 H 484.245 0.487593 0.55265 0
M  V30 5166 H 486.887 1.68717 0.873767 0
M  V30 5167 H 485.037 1.99055 3.33631 0
M  V30 5168 H 486.709 4.18948 1.93081 0
M  V30 5169 H 484.952 3.96827 1.75244 0
M  V30 5170 H 485.623 4.40486 3.3268 0
M  V30 5171 H 488.099 2.47805 3.34263 0
M  V30 5172 H 486.975 2.90143 4.65949 0
M  V30 5173 H 487.236 1.21301 4.25133 0
M  V30 5174 N 486.295 -0.989507 1.22664 0
M  V30 5175 C 487.52 -1.77031 1.08051 0
M  V30 5176 C 487.945 -1.84535 -0.364483 0
M  V30 5177 O 487.303 -1.3003 -1.2634 0
M  V30 5178 C 487.351 -3.18 1.70024 0
M  V30 5179 O 486.455 -4.01161 0.956216 0
M  V30 5180 H 485.796 -0.545008 0.379292 0
M  V30 5181 H 488.326 -1.24277 1.62531 0
M  V30 5182 H 488.336 -3.68616 1.74888 0
M  V30 5183 H 487.011 -3.11853 2.75174 0
M  V30 5184 H 485.588 -3.59687 0.98384 0
M  V30 5185 N 487.773 -1.03688 -1.18687 0
M  V30 5186 C 489.001 -0.757918 -1.92518 0
M  V30 5187 C 489.416 0.684398 -1.75959 0
M  V30 5188 O 488.773 1.46617 -1.08673 0
M  V30 5189 C 488.824 -1.10985 -3.44042 0
M  V30 5190 O 488.545 -2.49554 -3.60076 0
M  V30 5191 C 490.046 -0.854844 -4.3498 0
M  V30 5192 H 487.266 -0.276699 -0.611293 0
M  V30 5193 H 489.81 -1.38352 -1.50595 0
M  V30 5194 H 487.965 -0.529279 -3.83767 0
M  V30 5195 H 488.379 -2.6291 -4.53849 0
M  V30 5196 H 489.853 -1.15098 -5.39867 0
M  V30 5197 H 490.33 0.210507 -4.38695 0
M  V30 5198 H 490.936 -1.41853 -4.00946 0
M  V30 5199 N 489.251 1.34841 -0.815825 0
M  V30 5200 C 490.497 1.99219 -0.410288 0
M  V30 5201 C 490.852 1.63532 1.01366 0
M  V30 5202 O 490.145 0.893093 1.69512 0
M  V30 5203 C 490.339 3.53273 -0.541541 0
M  V30 5204 C 490.168 4.03927 -1.9767 0
M  V30 5205 C 488.938 4.32852 -2.60706 0
M  V30 5206 C 491.136 4.21808 -2.9425 0
M  V30 5207 N 489.118 4.69494 -3.95536 0
M  V30 5208 C 490.489 4.6155 -4.13971 0
M  V30 5209 C 492.544 4.04038 -2.9096 0
M  V30 5210 C 491.247 4.85381 -5.30847 0
M  V30 5211 C 493.273 4.29031 -4.07046 0
M  V30 5212 C 492.635 4.69054 -5.25517 0
M  V30 5213 H 488.734 0.756494 -0.198094 0
M  V30 5214 H 491.318 1.63379 -1.05902 0
M  V30 5215 H 489.489 3.88323 0.0772544 0
M  V30 5216 H 491.221 4.04551 -0.109694 0
M  V30 5217 H 487.976 4.23503 -2.11995 0
M  V30 5218 H 488.4 4.92061 -4.64979 0
M  V30 5219 H 493.042 3.7223 -2.00512 0
M  V30 5220 H 490.76 5.16059 -6.21859 0
M  V30 5221 H 494.346 4.16826 -4.05891 0
M  V30 5222 H 493.226 4.88014 -6.1385 0
M  V30 5223 N 490.729 0.570148 1.46925 0
M  V30 5224 C 491.676 -0.170257 2.30171 0
M  V30 5225 C 492.646 -0.896099 1.39855 0
M  V30 5226 O 493.831 -0.889248 1.68811 0
M  V30 5227 C 490.971 -1.18605 3.24079 0
M  V30 5228 C 490.084 -0.464947 4.29491 0
M  V30 5229 C 489.219 -1.46716 5.10537 0
M  V30 5230 C 488.258 -0.731758 6.0771 0
M  V30 5231 N 487.395 -1.68142 6.81669 0
M  V30 5232 H 492.235 0.545713 2.92961 0
M  V30 5233 H 489.772 0.280938 1.44392 0
M  V30 5234 H 491.73 -1.78771 3.76957 0
M  V30 5235 H 490.36 -1.86989 2.63125 0
M  V30 5236 H 489.412 0.251506 3.79568 0
M  V30 5237 H 490.724 0.110548 4.98677 0
M  V30 5238 H 489.878 -2.14199 5.6763 0
M  V30 5239 H 488.617 -2.07658 4.41282 0
M  V30 5240 H 487.622 -0.0430787 5.49783 0
M  V30 5241 H 488.847 -0.127904 6.7898 0
M  V30 5242 H 486.793 -2.27918 6.15134 0
M  V30 5243 H 486.71 -1.15841 7.47072 0
M  V30 5244 H 487.978 -2.347 7.43328 0
M  V30 5245 N 492.207 -1.54576 0.307264 0
M  V30 5246 C 493.117 -2.27435 -0.57536 0
M  V30 5247 C 494.133 -1.31183 -1.14311 0
M  V30 5248 O 495.309 -1.64175 -1.16656 0
M  V30 5249 C 492.374 -3.00566 -1.72803 0
M  V30 5250 C 491.435 -4.12369 -1.19373 0
M  V30 5251 C 490.668 -4.82003 -2.29147 0
M  V30 5252 O 490.891 -4.51038 -3.49171 0
M  V30 5253 O 489.825 -5.69271 -1.95485 0
M  V30 5254 H 493.651 -3.03696 0.0158558 0
M  V30 5255 H 491.236 -1.49219 0.0735064 0
M  V30 5256 H 493.118 -3.46416 -2.39946 0
M  V30 5257 H 491.793 -2.27195 -2.30574 0
M  V30 5258 H 490.7 -3.70905 -0.487851 0
M  V30 5259 H 492.033 -4.87736 -0.661376 0
M  V30 5260 N 493.685 -0.035106 -1.57561 0
M  V30 5261 C 494.635 0.954034 -2.0708 0
M  V30 5262 C 495.619 1.2818 -0.972558 0
M  V30 5263 O 496.811 1.26691 -1.23606 0
M  V30 5264 C 493.94 2.23442 -2.60631 0
M  V30 5265 C 493.026 1.93475 -3.77396 0
M  V30 5266 N 493.417 1.33802 -4.87781 0
M  V30 5267 C 491.715 2.23434 -3.85996 0
M  V30 5268 C 492.416 1.21103 -5.68954 0
M  V30 5269 N 491.392 1.70855 -5.16052 0
M  V30 5270 H 495.194 0.487731 -2.89825 0
M  V30 5271 H 492.708 0.169759 -1.6151 0
M  V30 5272 H 494.705 2.95183 -2.94402 0
M  V30 5273 H 493.365 2.70693 -1.79319 0
M  V30 5274 H 494.376 1.01227 -5.07911 0
M  V30 5275 H 491.053 2.73317 -3.15601 0
M  V30 5276 H 492.443 0.749105 -6.67711 0
M  V30 5277 N 495.163 1.55791 0.238111 0
M  V30 5278 C 496.093 1.94068 1.29846 0
M  V30 5279 C 497.074 0.806726 1.49753 0
M  V30 5280 O 498.259 1.06772 1.62214 0
M  V30 5281 C 495.389 2.24302 2.65153 0
M  V30 5282 C 494.343 3.40032 2.59927 0
M  V30 5283 C 493.669 3.55829 3.99111 0
M  V30 5284 C 494.969 4.75476 2.16148 0
M  V30 5285 H 496.663 2.82887 0.980563 0
M  V30 5286 H 494.209 1.36105 0.470253 0
M  V30 5287 H 496.162 2.4967 3.39475 0
M  V30 5288 H 494.886 1.32318 2.98596 0
M  V30 5289 H 493.545 3.14687 1.88063 0
M  V30 5290 H 493.193 2.6125 4.29834 0
M  V30 5291 H 492.893 4.3366 3.96501 0
M  V30 5292 H 494.417 3.83528 4.7512 0
M  V30 5293 H 495.831 5.00158 2.80205 0
M  V30 5294 H 494.228 5.56472 2.24631 0
M  V30 5295 H 495.298 4.71946 1.11333 0
M  V30 5296 N 496.642 -0.504142 1.49319 0
M  V30 5297 C 497.888 -1.26033 1.58882 0
M  V30 5298 C 498.221 -1.92268 0.273274 0
M  V30 5299 O 497.496 -1.80567 -0.72291 0
M  V30 5300 C 497.779 -2.32976 2.7458 0
M  V30 5301 C 497.632 -1.71263 4.1592 0
M  V30 5302 C 498.951 -3.34561 2.85932 0
M  V30 5303 H 496.07 -0.456863 0.578312 0
M  V30 5304 H 498.712 -0.558965 1.81592 0
M  V30 5305 H 496.862 -2.92796 2.55348 0
M  V30 5306 H 498.534 -1.15294 4.4666 0
M  V30 5307 H 496.777 -1.01686 4.21714 0
M  V30 5308 H 497.448 -2.48816 4.92742 0
M  V30 5309 H 499.924 -2.84727 3.0343 0
M  V30 5310 H 498.8 -4.06754 3.68568 0
M  V30 5311 H 499.061 -3.96695 1.95154 0
M  V30 5312 N 498.12 -1.38341 -0.754957 0
M  V30 5313 C 499.052 -1.31347 -1.87831 0
M  V30 5314 C 500.065 -0.225955 -1.61224 0
M  V30 5315 O 501.254 -0.48341 -1.7183 0
M  V30 5316 C 498.354 -1.01201 -3.23437 0
M  V30 5317 C 497.527 -2.20834 -3.77559 0
M  V30 5318 C 496.586 -1.87454 -4.91678 0
M  V30 5319 O 495.612 -2.59934 -5.06382 0
M  V30 5320 N 496.814 -0.828682 -5.74555 0
M  V30 5321 H 499.579 -2.28147 -1.94342 0
M  V30 5322 H 497.14 -1.32184 -0.934828 0
M  V30 5323 H 499.132 -0.769249 -3.97322 0
M  V30 5324 H 497.702 -0.132011 -3.12321 0
M  V30 5325 H 496.922 -2.61184 -2.95256 0
M  V30 5326 H 498.21 -3.00678 -4.10451 0
M  V30 5327 H 497.608 -0.227591 -5.65242 0
M  V30 5328 H 496.165 -0.645802 -6.48593 0
M  V30 5329 N 499.598 0.982988 -1.23187 0
M  V30 5330 C 500.561 2.05649 -1.01198 0
M  V30 5331 C 501.561 1.6078 0.0252464 0
M  V30 5332 O 502.751 1.72878 -0.214243 0
M  V30 5333 C 499.883 3.36744 -0.530656 0
M  V30 5334 H 501.076 2.2659 -1.96461 0
M  V30 5335 H 498.629 1.15602 -1.05195 0
M  V30 5336 H 499.364 3.21492 0.425873 0
M  V30 5337 H 499.149 3.7065 -1.2791 0
M  V30 5338 H 500.639 4.15705 -0.397366 0
M  V30 5339 N 501.076 1.04316 1.18135 0
M  V30 5340 C 502.304 0.768117 1.92113 0
M  V30 5341 C 502.719 -0.675057 1.76319 0
M  V30 5342 O 502.076 -1.46038 1.09449 0
M  V30 5343 C 502.127 1.12808 3.43448 0
M  V30 5344 O 501.848 2.5146 3.58747 0
M  V30 5345 C 503.349 0.8779 4.3452 0
M  V30 5346 H 500.569 0.279937 0.609817 0
M  V30 5347 H 503.113 1.39149 1.49859 0
M  V30 5348 H 501.268 0.549623 3.83481 0
M  V30 5349 H 501.682 2.65313 4.52448 0
M  V30 5350 H 503.156 1.17959 5.39249 0
M  V30 5351 H 503.633 -0.187239 4.38801 0
M  V30 5352 H 504.239 1.43977 4.00188 0
M  V30 5353 N 502.554 -1.34406 0.822964 0
M  V30 5354 C 503.965 -1.8069 0.469879 0
M  V30 5355 C 504.316 -1.68223 -1.00972 0
M  V30 5356 O 503.441 -1.22226 -1.78577 0
M  V30 5357 C 504.036 -3.28064 0.846118 0
M  V30 5358 C 502.595 -3.72428 0.545402 0
M  V30 5359 C 501.742 -2.56116 1.06301 0
M  V30 5360 H 504.693 -1.22153 1.01313 0
M  V30 5361 H 504.714 -3.80205 0.149922 0
M  V30 5362 H 504.226 -3.37107 1.92304 0
M  V30 5363 H 502.327 -3.68924 -0.522109 0
M  V30 5364 H 502.44 -4.66548 1.0895 0
M  V30 5365 H 500.804 -2.50048 0.484554 0
M  V30 5366 H 501.587 -2.67928 2.14638 0
M  V30 5367 N 504.032 -0.577932 -1.46621 0
M  V30 5368 C 504.942 0.160651 -2.34049 0
M  V30 5369 C 505.958 0.890911 -1.49462 0
M  V30 5370 O 507.134 0.855166 -1.82343 0
M  V30 5371 C 504.199 1.16447 -3.26559 0
M  V30 5372 C 503.26 0.4394 -4.27045 0
M  V30 5373 C 502.493 1.3954 -5.15135 0
M  V30 5374 O 502.716 2.63162 -5.06065 0
M  V30 5375 O 501.65 0.908585 -5.95003 0
M  V30 5376 H 505.476 -0.557057 -2.98547 0
M  V30 5377 H 503.061 -0.338369 -1.45518 0
M  V30 5378 H 504.943 1.7434 -3.83645 0
M  V30 5379 H 503.618 1.86373 -2.64663 0
M  V30 5380 H 502.525 -0.181247 -3.73661 0
M  V30 5381 H 503.858 -0.218799 -4.91713 0
M  V30 5382 N 505.51 1.54411 -0.315457 0
M  V30 5383 C 506.458 2.25514 0.569771 0
M  V30 5384 C 507.452 1.2663 1.12522 0
M  V30 5385 O 508.658 1.44434 1.07419 0
M  V30 5386 H 505.033 0.724257 0.202376 0
M  V30 5387 H 507.004 2.98354 -0.0522895 0
M  V30 5388 C 505.753 3.02004 1.72305 0
M  V30 5389 H 505.076 3.77906 1.30488 0
M  V30 5390 H 506.516 3.55014 2.31821 0
M  V30 5391 C 504.975 2.09822 2.63583 0
M  V30 5392 O 505.505 1.67574 3.65078 0
M  V30 5393 N 503.711 1.75478 2.31637 0
M  V30 5394 H 503.258 2.10032 1.49145 0
M  V30 5395 H 503.216 1.14079 2.92973 0
M  V30 5396 N 506.988 0.0434614 1.5754 0
M  V30 5397 C 507.918 -0.931651 2.14109 0
M  V30 5398 C 508.899 -1.32971 1.06079 0
M  V30 5399 O 510.084 -1.40579 1.33982 0
M  V30 5400 C 507.214 -2.20914 2.67982 0
M  V30 5401 C 506.168 -1.95139 3.80926 0
M  V30 5402 C 505.494 -3.29276 4.21285 0
M  V30 5403 C 506.794 -1.27913 5.06395 0
M  V30 5404 H 508.488 -0.460497 2.95837 0
M  V30 5405 H 506.034 -0.220058 1.42309 0
M  V30 5406 H 507.987 -2.89522 3.06194 0
M  V30 5407 H 506.711 -2.70221 1.83434 0
M  V30 5408 H 505.37 -1.28945 3.43175 0
M  V30 5409 H 505.018 -3.76369 3.33699 0
M  V30 5410 H 504.718 -3.12831 4.97404 0
M  V30 5411 H 506.242 -3.99129 4.62091 0
M  V30 5412 H 507.656 -1.86544 5.42102 0
M  V30 5413 H 506.053 -1.2182 5.87605 0
M  V30 5414 H 507.123 -0.254066 4.84234 0
M  V30 5415 N 508.466 -1.55915 -0.229846 0
M  V30 5416 C 509.398 -1.88209 -1.30805 0
M  V30 5417 C 510.411 -0.769672 -1.43457 0
M  V30 5418 O 511.6 -1.04792 -1.44502 0
M  V30 5419 C 508.7 -2.06829 -2.68468 0
M  V30 5420 C 507.873 -3.37798 -2.77869 0
M  V30 5421 C 506.932 -3.45952 -3.96489 0
M  V30 5422 O 505.958 -4.19043 -3.85216 0
M  V30 5423 N 507.16 -2.76488 -5.10426 0
M  V30 5424 H 509.925 -2.81286 -1.03431 0
M  V30 5425 H 507.486 -1.5636 -0.41991 0
M  V30 5426 H 509.478 -2.09608 -3.46189 0
M  V30 5427 H 508.048 -1.20416 -2.88477 0
M  V30 5428 H 507.268 -3.4719 -1.86689 0
M  V30 5429 H 508.556 -4.24091 -2.81113 0
M  V30 5430 H 507.954 -2.16868 -5.2248 0
M  V30 5431 H 506.511 -2.84938 -5.8622 0
M  V30 5432 N 509.944 0.496216 -1.49584 0
M  V30 5433 C 510.854 1.62352 -1.69349 0
M  V30 5434 C 511.87 1.64184 -0.576147 0
M  V30 5435 O 513.046 1.82517 -0.85144 0
M  V30 5436 C 510.111 2.98698 -1.76013 0
M  V30 5437 C 509.172 3.07454 -2.99617 0
M  V30 5438 C 508.405 4.37296 -3.05953 0
M  V30 5439 O 508.628 5.2637 -2.19752 0
M  V30 5440 O 507.562 4.51124 -3.9846 0
M  V30 5441 H 511.388 1.48606 -2.64859 0
M  V30 5442 H 508.973 0.673022 -1.33382 0
M  V30 5443 H 510.855 3.79725 -1.82721 0
M  V30 5444 H 509.53 3.12696 -0.836828 0
M  V30 5445 H 508.437 2.25597 -2.98424 0
M  V30 5446 H 509.77 2.98385 -3.91443 0
M  V30 5447 N 511.423 1.38739 0.74761 0
M  V30 5448 C 512.386 1.36241 1.84312 0
M  V30 5449 C 513.386 0.261811 1.58654 0
M  V30 5450 O 514.576 0.519031 1.66288 0
M  V30 5451 C 511.708 1.12253 3.21888 0
M  V30 5452 H 512.901 2.33712 1.87933 0
M  V30 5453 H 510.454 1.2412 0.949946 0
M  V30 5454 H 511.189 0.154133 3.23934 0
M  V30 5455 H 510.974 1.91943 3.41907 0
M  V30 5456 H 512.464 1.13215 4.0196 0
M  V30 5457 N 512.901 -0.976442 1.23707 0
M  V30 5458 C 514.317 -1.24341 1.00058 0
M  V30 5459 C 514.517 -1.99315 -0.295932 0
M  V30 5460 O 513.573 -2.3123 -1.01435 0
M  V30 5461 C 514.886 -2.03909 2.21001 0
M  V30 5462 C 516.434 -2.17034 2.25534 0
M  V30 5463 C 516.909 -2.99994 3.46075 0
M  V30 5464 N 518.4 -3.07578 3.46338 0
M  V30 5465 C 519.135 -3.72104 4.36264 0
M  V30 5466 N 518.631 -4.3842 5.36432 0
M  V30 5467 N 520.424 -3.69029 4.23998 0
M  V30 5468 H 512.575 -0.47428 2.07037 0
M  V30 5469 H 514.838 -0.272167 0.908091 0
M  V30 5470 H 514.544 -1.56198 3.15111 0
M  V30 5471 H 514.418 -3.04654 2.22409 0
M  V30 5472 H 516.805 -2.63951 1.31961 0
M  V30 5473 H 516.886 -1.15664 2.28156 0
M  V30 5474 H 516.53 -2.53772 4.39957 0
M  V30 5475 H 516.46 -4.01541 3.40694 0
M  V30 5476 H 518.951 -2.60397 2.73865 0
M  V30 5477 H 519.264 -4.85447 6.013 0
M  V30 5478 H 517.609 -4.37116 5.40328 0
M  V30 5479 H 520.8 -3.16392 3.44984 0
M  V30 5480 H 520.973 -4.19034 4.94282 0
M  V30 5481 N 514.379 -1.04941 -1.1758 0
M  V30 5482 C 515.607 -0.778294 -1.91703 0
M  V30 5483 C 516.022 0.665697 -1.76675 0
M  V30 5484 O 515.379 1.45456 -1.10222 0
M  V30 5485 C 515.43 -1.14628 -3.42845 0
M  V30 5486 O 515.151 -2.53359 -3.57409 0
M  V30 5487 C 516.652 -0.900931 -4.34049 0
M  V30 5488 H 513.872 -0.283167 -0.608323 0
M  V30 5489 H 516.416 -1.39942 -1.49119 0
M  V30 5490 H 514.571 -0.569953 -3.83184 0
M  V30 5491 H 514.985 -2.67709 -4.51035 0
M  V30 5492 H 516.459 -1.20817 -5.38616 0
M  V30 5493 H 516.936 0.163966 -4.38894 0
M  V30 5494 H 517.542 -1.46097 -3.99419 0
M  V30 5495 N 515.857 1.33968 -0.830081 0
M  V30 5496 C 517.104 1.98063 -0.421566 0
M  V30 5497 C 517.432 1.65787 1.0171 0
M  V30 5498 O 516.687 0.925348 1.72441 0
M  V30 5499 C 516.986 3.52679 -0.57898 0
M  V30 5500 C 516.652 4.04884 -1.98443 0
M  V30 5501 C 515.314 4.18852 -2.36888 0
M  V30 5502 C 517.666 4.32879 -2.90285 0
M  V30 5503 C 514.994 4.58145 -3.66497 0
M  V30 5504 C 517.346 4.7362 -4.19364 0
M  V30 5505 C 516.01 4.85794 -4.57778 0
M  V30 5506 H 515.28 0.724765 -0.154262 0
M  V30 5507 H 517.927 1.59792 -1.05541 0
M  V30 5508 H 516.232 3.91556 0.138219 0
M  V30 5509 H 517.929 4.00261 -0.243317 0
M  V30 5510 H 514.519 3.9448 -1.67581 0
M  V30 5511 H 518.703 4.21619 -2.61823 0
M  V30 5512 H 513.959 4.65762 -3.96075 0
M  V30 5513 H 518.133 4.9424 -4.90612 0
M  V30 5514 H 515.76 5.15998 -5.58256 0
M  V30 5515 N 517.335 0.585699 1.46312 0
M  V30 5516 C 518.581 0.0725284 2.0267 0
M  V30 5517 C 518.914 -1.28523 1.45586 0
M  V30 5518 O 518.189 -1.84283 0.622101 0
M  V30 5519 C 518.472 0.0099788 3.60099 0
M  V30 5520 C 518.325 1.39685 4.27561 0
M  V30 5521 C 519.644 -0.689117 4.34671 0
M  V30 5522 H 516.763 0.0278307 0.736474 0
M  V30 5523 H 519.405 0.753472 1.74421 0
M  V30 5524 H 517.555 -0.56992 3.84297 0
M  V30 5525 H 519.227 2.02215 4.14617 0
M  V30 5526 H 517.47 1.96374 3.86807 0
M  V30 5527 H 518.141 1.30553 5.36339 0
M  V30 5528 H 520.617 -0.196446 4.15636 0
M  V30 5529 H 519.493 -0.701921 5.44393 0
M  V30 5530 H 519.754 -1.75101 4.05946 0
M  V30 5531 N 518.813 -1.54241 0.323641 0
M  V30 5532 C 519.76 -2.24339 -0.542277 0
M  V30 5533 C 520.73 -1.23421 -1.11159 0
M  V30 5534 O 521.915 -1.52104 -1.15192 0
M  V30 5535 C 519.055 -3.00479 -1.69725 0
M  V30 5536 C 518.168 -4.16214 -1.15716 0
M  V30 5537 C 517.303 -4.79884 -2.27783 0
M  V30 5538 C 516.342 -5.87722 -1.71023 0
M  V30 5539 N 515.479 -6.45254 -2.76752 0
M  V30 5540 H 520.319 -2.97935 0.0620613 0
M  V30 5541 H 517.856 -1.47039 0.0423993 0
M  V30 5542 H 519.814 -3.42869 -2.3769 0
M  V30 5543 H 518.444 -2.29217 -2.27288 0
M  V30 5544 H 517.496 -3.78605 -0.369063 0
M  V30 5545 H 518.808 -4.93838 -0.701832 0
M  V30 5546 H 517.962 -5.25243 -3.03651 0
M  V30 5547 H 516.701 -4.01641 -2.76652 0
M  V30 5548 H 515.706 -5.41765 -0.936518 0
M  V30 5549 H 516.931 -6.67863 -1.2303 0
M  V30 5550 H 514.877 -5.69884 -3.24912 0
M  V30 5551 H 514.794 -7.18292 -2.35782 0
M  V30 5552 H 516.062 -6.95269 -3.5245 0
M  V30 5553 N 520.291 -0.0518155 -1.57515 0
M  V30 5554 C 521.516 0.634896 -1.97443 0
M  V30 5555 C 521.941 1.63546 -0.929207 0
M  V30 5556 O 521.299 1.80981 0.107484 0
M  V30 5557 C 521.347 1.29765 -3.36442 0
M  V30 5558 O 520.451 2.41333 -3.34413 0
M  V30 5559 H 519.792 0.164994 -0.643174 0
M  V30 5560 H 522.322 -0.120407 -2.04245 0
M  V30 5561 H 522.332 1.64918 -3.73184 0
M  V30 5562 H 521.007 0.564361 -4.12053 0
M  V30 5563 H 519.584 2.08122 -3.09418 0
M  V30 5564 N 521.769 1.56035 0.221574 0
M  V30 5565 C 522.702 1.87427 1.30178 0
M  V30 5566 C 523.68 0.731658 1.45209 0
M  V30 5567 O 524.864 0.980016 1.61022 0
M  V30 5568 C 521.991 2.08127 2.67209 0
M  V30 5569 C 521.037 3.30813 2.69194 0
M  V30 5570 S 521.87 4.86738 2.23263 0
M  V30 5571 C 523.026 5.10474 3.62171 0
M  V30 5572 H 523.259 2.78756 1.03355 0
M  V30 5573 H 520.792 1.48469 0.423813 0
M  V30 5574 H 522.75 2.20736 3.46101 0
M  V30 5575 H 521.411 1.17595 2.91256 0
M  V30 5576 H 520.604 3.42341 3.6989 0
M  V30 5577 H 520.206 3.1706 1.98366 0
M  V30 5578 H 522.498 4.9937 4.5786 0
M  V30 5579 H 523.441 6.12359 3.55558 0
M  V30 5580 H 523.849 4.38208 3.55857 0
M  V30 5581 N 523.247 -0.488276 1.49845 0
M  V30 5582 C 524.157 -1.61451 1.70207 0
M  V30 5583 C 525.173 -1.63877 0.584846 0
M  V30 5584 O 526.349 -1.82063 0.861107 0
M  V30 5585 C 523.414 -2.9776 1.77594 0
M  V30 5586 C 522.475 -3.05861 3.01243 0
M  V30 5587 C 521.708 -4.35668 3.08268 0
M  V30 5588 O 521.931 -5.25197 2.22541 0
M  V30 5589 O 520.865 -4.49005 4.00847 0
M  V30 5590 H 524.691 -1.47199 2.65643 0
M  V30 5591 H 522.276 -0.665939 1.33737 0
M  V30 5592 H 524.158 -3.7875 1.84732 0
M  V30 5593 H 522.833 -3.12248 0.8534 0
M  V30 5594 H 521.74 -2.24012 2.99616 0
M  V30 5595 H 523.073 -2.96304 3.9302 0
M  V30 5596 N 524.725 -1.39134 -0.740242 0
M  V30 5597 C 526.002 -1.26584 -1.49117 0
M  V30 5598 C 526.382 0.126902 -2.10718 0
M  V30 5599 O 525.73 1.13765 -1.98166 0
M  V30 5600 C 525.94 -2.38619 -2.54681 0
M  V30 5601 C 527.288 -2.77685 -3.21211 0
M  V30 5602 O 528.312 -2.38029 -2.64991 0
M  V30 5603 O 527.171 -3.46115 -4.22926 0
M  V30 5604 H 524.265 -0.495769 -0.661923 0
M  V30 5605 H 526.811 -1.50995 -0.774514 0
M  V30 5606 H 525.583 -3.3175 -2.07504 0
M  V30 5607 H 525.206 -2.15845 -3.33911 0
M  V30 5608 N 526.204 0.969867 -1.24223 0
M  V30 5609 C 527.151 2.06407 -1.0327 0
M  V30 5610 C 528.121 1.66014 0.0533 0
M  V30 5611 O 529.306 1.90533 -0.100896 0
M  V30 5612 C 526.446 3.3909 -0.641262 0
M  V30 5613 C 525.559 3.9269 -1.80051 0
M  V30 5614 C 524.694 5.13631 -1.35486 0
M  V30 5615 C 523.733 5.59423 -2.48419 0
M  V30 5616 N 522.87 6.71586 -2.04737 0
M  V30 5617 H 527.71 2.23663 -1.96923 0
M  V30 5618 H 525.247 1.09624 -0.980862 0
M  V30 5619 H 527.205 4.15323 -0.395351 0
M  V30 5620 H 525.835 3.21765 0.258269 0
M  V30 5621 H 524.887 3.13116 -2.16014 0
M  V30 5622 H 526.199 4.22636 -2.64916 0
M  V30 5623 H 525.353 5.97231 -1.0677 0
M  V30 5624 H 524.092 4.85364 -0.476722 0
M  V30 5625 H 523.097 4.74398 -2.77897 0
M  V30 5626 H 524.322 5.89705 -3.36786 0
M  V30 5627 H 522.268 6.45058 -1.19318 0
M  V30 5628 H 522.185 7.0097 -2.83156 0
M  V30 5629 H 523.453 7.58633 -1.79154 0
M  V30 5630 N 527.682 1.05563 1.17022 0
M  V30 5631 C 528.93 0.76642 1.87004 0
M  V30 5632 C 529.251 -0.708854 1.8166 0
M  V30 5633 O 528.521 -1.51242 1.2451 0
M  V30 5634 H 527.101 0.280516 0.692329 0
M  V30 5635 H 529.763 1.33557 1.41945 0
M  V30 5636 H 528.859 1.08472 2.92644 0
M  V30 5637 N 529.16 -1.33526 0.837174 0
M  V30 5638 C 530.093 -2.27192 0.214233 0
M  V30 5639 C 531.071 -1.49575 -0.637657 0
M  V30 5640 O 532.255 -1.78753 -0.598291 0
M  V30 5641 C 529.382 -3.31401 -0.699367 0
M  V30 5642 C 528.428 -4.26431 0.0768429 0
M  V30 5643 S 529.261 -5.15954 1.4336 0
M  V30 5644 C 530.417 -6.23692 0.525251 0
M  V30 5645 H 530.65 -2.79679 1.00831 0
M  V30 5646 H 528.183 -1.4079 0.633834 0
M  V30 5647 H 530.141 -3.91924 -1.22088 0
M  V30 5648 H 528.802 -2.77732 -1.46709 0
M  V30 5649 H 527.995 -5.00193 -0.618268 0
M  V30 5650 H 527.597 -3.70235 0.529364 0
M  V30 5651 H 529.889 -6.76931 -0.277575 0
M  V30 5652 H 530.832 -6.97283 1.23299 0
M  V30 5653 H 531.24 -5.64398 0.107351 0
M  V30 5654 N 530.638 -0.59345 -1.46 0
M  V30 5655 C 531.866 -0.0890934 -2.06708 0
M  V30 5656 C 532.281 1.2205 -1.44046 0
M  V30 5657 O 531.638 1.74029 -0.549551 0
M  V30 5658 C 531.689 0.0720263 -3.61428 0
M  V30 5659 O 531.41 -1.18574 -4.21748 0
M  V30 5660 C 532.911 0.609487 -4.3909 0
M  V30 5661 H 530.131 -0.0623628 -0.668096 0
M  V30 5662 H 532.675 -0.817171 -1.87464 0
M  V30 5663 H 530.83 0.750369 -3.80063 0
M  V30 5664 H 531.244 -1.0064 -5.14754 0
M  V30 5665 H 532.718 0.671363 -5.47902 0
M  V30 5666 H 533.195 1.62878 -4.07882 0
M  V30 5667 H 533.801 -0.03434 -4.25286 0
M  V30 5668 N 532.116 1.54067 -0.331816 0
M  V30 5669 C 533.064 2.26105 0.54582 0
M  V30 5670 C 534.058 1.27816 1.11173 0
M  V30 5671 O 535.264 1.45565 1.05882 0
M  V30 5672 H 531.639 0.726363 0.194683 0
M  V30 5673 H 533.61 2.98282 -0.083931 0
M  V30 5674 C 532.359 3.03814 1.69092 0
M  V30 5675 H 531.682 3.79269 1.26473 0
M  V30 5676 H 533.122 3.57453 2.28043 0
M  V30 5677 C 531.581 2.12606 2.61343 0
M  V30 5678 O 532.111 1.71437 3.6328 0
M  V30 5679 N 530.317 1.77925 2.29763 0
M  V30 5680 H 529.864 2.11602 1.46909 0
M  V30 5681 H 529.822 1.1718 2.91747 0
M  V30 5682 N 533.594 0.0601682 1.57485 0
M  V30 5683 C 534.843 -0.611101 1.9222 0
M  V30 5684 C 535.156 -1.71469 0.941159 0
M  V30 5685 O 536.362 -2.44473 1.18089 0
M  V30 5686 C 534.818 -1.13832 3.41424 0
M  V30 5687 C 534.426 -0.0663596 4.47951 0
M  V30 5688 C 536.17 -1.78432 3.85178 0
M  V30 5689 C 534.077 -0.606965 5.88277 0
M  V30 5690 H 533.007 -0.232033 0.71741 0
M  V30 5691 H 535.658 0.130518 1.83035 0
M  V30 5692 H 534.04 -1.93254 3.45643 0
M  V30 5693 H 535.214 0.707682 4.55333 0
M  V30 5694 H 533.529 0.482715 4.13593 0
M  V30 5695 H 536.126 -2.1989 4.87394 0
M  V30 5696 H 536.469 -2.63966 3.21913 0
M  V30 5697 H 537.002 -1.05651 3.83514 0
M  V30 5698 H 533.741 0.21095 6.5516 0
M  V30 5699 H 533.261 -1.34879 5.84438 0
M  V30 5700 H 534.94 -1.08704 6.37803 0
M  V30 5701 N 535.072 -1.5615 -0.213296 0
M  V30 5702 C 536.02 -1.93953 -1.28394 0
M  V30 5703 C 537.014 -0.822592 -1.48087 0
M  V30 5704 O 538.22 -1.00748 -1.49164 0
M  V30 5705 H 534.595 -0.61648 -0.430646 0
M  V30 5706 H 536.566 -2.83275 -0.937977 0
M  V30 5707 C 535.315 -2.27969 -2.62537 0
M  V30 5708 H 534.638 -3.13432 -2.48194 0
M  V30 5709 H 536.078 -2.58297 -3.36242 0
M  V30 5710 C 534.537 -1.10775 -3.18167 0
M  V30 5711 O 535.067 -0.373201 -3.99963 0
M  V30 5712 N 533.273 -0.889377 -2.76656 0
M  V30 5713 H 532.82 -1.48843 -2.10246 0
M  V30 5714 H 532.778 -0.107 -3.14218 0
M  V30 5715 N 536.55 0.480323 -1.50102 0
M  V30 5716 C 537.827 1.24159 -1.51142 0
M  V30 5717 C 538.207 2.09605 -0.250818 0
M  V30 5718 O 537.555 2.15274 0.766118 0
M  V30 5719 C 537.765 2.08057 -2.80202 0
M  V30 5720 C 539.113 2.66556 -3.30504 0
M  V30 5721 O 540.137 2.18308 -2.81461 0
M  V30 5722 O 538.996 3.54442 -4.15973 0
M  V30 5723 H 536.09 0.562928 -0.605839 0
M  V30 5724 H 538.636 0.492899 -1.62384 0
M  V30 5725 H 537.408 1.45032 -3.6343 0
M  V30 5726 H 537.031 2.90079 -2.71919 0
M  V30 5727 N 538.028 1.39524 0.732853 0
M  V30 5728 C 539.276 1.36594 1.48951 0
M  V30 5729 C 539.597 -0.0367507 1.94965 0
M  V30 5730 O 538.867 -0.988391 1.69138 0
M  V30 5731 H 537.447 0.502673 0.552566 0
M  V30 5732 H 540.109 1.74411 0.869869 0
M  V30 5733 H 539.205 2.03 2.3706 0
M  V30 5734 N 539.506 -0.963266 1.24736 0
M  V30 5735 C 540.436 -2.07628 1.06832 0
M  V30 5736 C 541.417 -1.70088 -0.0200566 0
M  V30 5737 O 542.602 -1.93636 0.147854 0
M  V30 5738 C 539.732 -3.40636 0.677069 0
M  V30 5739 C 538.686 -3.9215 1.71471 0
M  V30 5740 C 538.012 -5.21553 1.1784 0
M  V30 5741 C 539.312 -4.19493 3.11164 0
M  V30 5742 H 541.006 -2.22864 1.9993 0
M  V30 5743 H 538.552 -1.07093 0.96266 0
M  V30 5744 H 540.505 -4.17941 0.538792 0
M  V30 5745 H 539.229 -3.25313 -0.289612 0
M  V30 5746 H 537.888 -3.17005 1.84128 0
M  V30 5747 H 537.536 -5.02593 0.202195 0
M  V30 5748 H 537.236 -5.56988 1.87185 0
M  V30 5749 H 538.76 -6.01463 1.05233 0
M  V30 5750 H 540.174 -4.87487 3.01711 0
M  V30 5751 H 538.571 -4.66165 3.77902 0
M  V30 5752 H 539.641 -3.26097 3.58871 0
M  V30 5753 N 540.985 -1.06182 -1.16461 0
M  V30 5754 C 541.915 -0.692861 -2.22984 0
M  V30 5755 C 542.896 0.314122 -1.67174 0
M  V30 5756 O 544.081 0.189499 -1.93273 0
M  V30 5757 C 541.211 -0.07732 -3.47214 0
M  V30 5758 C 540.165 -1.01015 -4.15909 0
M  V30 5759 C 539.491 -0.257973 -5.34077 0
M  V30 5760 C 540.791 -2.33868 -4.67015 0
M  V30 5761 H 542.485 -1.58343 -2.54102 0
M  V30 5762 H 540.031 -0.76279 -1.22137 0
M  V30 5763 H 541.984 0.19266 -4.20959 0
M  V30 5764 H 540.708 0.848254 -3.15392 0
M  V30 5765 H 539.367 -1.26486 -3.44088 0
M  V30 5766 H 539.015 0.670684 -4.98509 0
M  V30 5767 H 538.715 -0.879638 -5.80979 0
M  V30 5768 H 540.239 0.00448788 -6.106 0
M  V30 5769 H 541.653 -2.1279 -5.32347 0
M  V30 5770 H 540.05 -2.91522 -5.24533 0
M  V30 5771 H 541.12 -2.97019 -3.83286 0
M  V30 5772 N 542.463 1.3308 -0.844243 0
M  V30 5773 C 543.879 1.50447 -0.532729 0
M  V30 5774 C 544.079 1.78292 0.938837 0
M  V30 5775 O 543.135 1.84635 1.72239 0
M  V30 5776 C 544.448 2.65555 -1.41072 0
M  V30 5777 C 545.996 2.7944 -1.41005 0
M  V30 5778 C 546.471 3.97616 -2.27301 0
M  V30 5779 N 547.962 4.0486 -2.2504 0
M  V30 5780 C 548.697 4.95508 -2.88547 0
M  V30 5781 N 548.193 5.91236 -3.61126 0
M  V30 5782 N 549.986 4.88548 -2.77989 0
M  V30 5783 H 542.137 1.13269 -1.79677 0
M  V30 5784 H 544.4 0.55734 -0.766861 0
M  V30 5785 H 544.106 2.51675 -2.45668 0
M  V30 5786 H 543.98 3.61089 -1.09061 0
M  V30 5787 H 546.367 2.92749 -0.371784 0
M  V30 5788 H 546.448 1.8465 -1.77026 0
M  V30 5789 H 546.092 3.85066 -3.3119 0
M  V30 5790 H 546.022 4.91661 -1.88619 0
M  V30 5791 H 548.513 3.36353 -1.72264 0
M  V30 5792 H 548.826 6.57079 -4.06776 0
M  V30 5793 H 547.171 5.91295 -3.65234 0
M  V30 5794 H 550.362 4.12729 -2.20846 0
M  V30 5795 H 550.535 5.58994 -3.27765 0
M  V30 5796 N 543.941 0.601185 1.45683 0
M  V30 5797 C 545.189 0.0936957 2.01883 0
M  V30 5798 C 545.51 -1.2779 1.47291 0
M  V30 5799 O 544.78 -1.84279 0.664691 0
M  V30 5800 H 543.36 0.0316466 0.746329 0
M  V30 5801 H 546.022 0.781137 1.78562 0
M  V30 5802 H 545.118 0.0386297 3.12076 0
M  V30 5803 N 545.419 -1.53889 0.339982 0
M  V30 5804 C 546.668 -2.00035 -0.258604 0
M  V30 5805 C 546.981 -1.23179 -1.51942 0
M  V30 5806 O 548.187 -1.59784 -2.19503 0
M  V30 5807 C 546.643 -3.56249 -0.511359 0
M  V30 5808 C 546.251 -4.41957 0.733349 0
M  V30 5809 C 547.995 -4.1082 -1.069 0
M  V30 5810 C 545.902 -5.89673 0.451591 0
M  V30 5811 H 544.832 -0.747284 -0.10041 0
M  V30 5812 H 547.483 -1.77776 0.454758 0
M  V30 5813 H 545.865 -3.7456 -1.28533 0
M  V30 5814 H 547.039 -4.35421 1.50815 0
M  V30 5815 H 545.354 -3.9836 1.21237 0
M  V30 5816 H 547.951 -5.18789 -1.2947 0
M  V30 5817 H 548.294 -3.63817 -2.02343 0
M  V30 5818 H 548.827 -3.96205 -0.355817 0
M  V30 5819 H 545.566 -6.40903 1.37565 0
M  V30 5820 H 545.086 -5.99122 -0.285193 0
M  V30 5821 H 546.765 -6.46965 0.0675067 0
M  V30 5822 N 546.897 -0.0685191 -1.57451 0
M  V30 5823 C 548.122 0.613919 -1.98106 0
M  V30 5824 C 548.547 1.62551 -0.946501 0
M  V30 5825 O 547.905 1.81085 0.0882824 0
M  V30 5826 C 547.953 1.26189 -3.378 0
M  V30 5827 O 547.057 2.37773 -3.36954 0
M  V30 5828 H 546.398 0.158163 -0.644888 0
M  V30 5829 H 548.928 -0.142063 -2.04106 0
M  V30 5830 H 548.938 1.60951 -3.74912 0
M  V30 5831 H 547.613 0.520625 -4.12629 0
M  V30 5832 H 546.19 2.04829 -3.11608 0
M  V30 5833 N 548.375 1.56261 0.205012 0
M  V30 5834 C 549.308 1.88797 1.28183 0
M  V30 5835 C 550.286 0.747018 1.44424 0
M  V30 5836 O 551.47 0.997039 1.59973 0
M  V30 5837 C 548.597 2.10949 2.64987 0
M  V30 5838 C 547.643 3.33649 2.6567 0
M  V30 5839 S 548.476 4.89078 2.18088 0
M  V30 5840 C 549.632 5.14286 3.56736 0
M  V30 5841 H 549.865 2.79837 1.00393 0
M  V30 5842 H 547.398 1.48911 0.408042 0
M  V30 5843 H 549.356 2.24395 3.4374 0
M  V30 5844 H 548.017 1.20678 2.89993 0
M  V30 5845 H 547.21 3.46245 3.66239 0
M  V30 5846 H 546.812 3.19146 1.94992 0
M  V30 5847 H 549.104 5.04198 4.52537 0
M  V30 5848 H 550.047 6.16096 3.49043 0
M  V30 5849 H 550.455 4.41957 3.51189 0
M  V30 5850 N 549.853 -0.472356 1.50355 0
M  V30 5851 C 550.783 -1.57859 1.72055 0
M  V30 5852 C 551.764 -1.60283 0.569505 0
M  V30 5853 O 552.949 -1.7657 0.808503 0
M  V30 5854 C 550.079 -2.96191 1.81351 0
M  V30 5855 C 549.033 -3.08633 2.96529 0
M  V30 5856 C 548.359 -4.486 2.90968 0
M  V30 5857 C 549.659 -2.85969 4.37057 0
M  V30 5858 H 551.353 -1.39953 2.64676 0
M  V30 5859 H 548.899 -0.671846 1.27367 0
M  V30 5860 H 550.852 -3.73507 1.95117 0
M  V30 5861 H 549.576 -3.15251 0.853502 0
M  V30 5862 H 548.235 -2.33749 2.82413 0
M  V30 5863 H 547.883 -4.64577 1.92815 0
M  V30 5864 H 547.583 -4.57861 3.68289 0
M  V30 5865 H 549.107 -5.27938 3.0678 0
M  V30 5866 H 550.521 -3.53036 4.51706 0
M  V30 5867 H 548.918 -3.06677 5.15819 0
M  V30 5868 H 549.988 -1.81838 4.49514 0
M  V30 5869 N 551.331 -1.39911 -0.725443 0
M  V30 5870 C 552.279 -1.39552 -1.86086 0
M  V30 5871 C 553.273 -0.277334 -1.67114 0
M  V30 5872 O 554.479 -0.447865 -1.74339 0
M  V30 5873 H 550.854 -0.435993 -0.612711 0
M  V30 5874 H 552.825 -2.35305 -1.83505 0
M  V30 5875 C 551.574 -1.26529 -3.2386 0
M  V30 5876 H 550.897 -2.11845 -3.3906 0
M  V30 5877 H 552.337 -1.30336 -4.03471 0
M  V30 5878 C 550.796 0.0254168 -3.3689 0
M  V30 5879 O 551.326 0.992048 -3.89257 0
M  V30 5880 N 549.532 0.0916528 -2.90455 0
M  V30 5881 H 549.079 -0.695675 -2.48028 0
M  V30 5882 H 549.037 0.954745 -2.99553 0
M  V30 5883 N 552.809 0.956637 -1.25245 0
M  V30 5884 C 553.756 2.053 -1.05454 0
M  V30 5885 C 554.726 1.66062 0.0356889 0
M  V30 5886 O 555.911 1.90415 -0.121099 0
M  V30 5887 C 553.051 3.38391 -0.677191 0
M  V30 5888 C 552.164 3.90758 -1.84206 0
M  V30 5889 C 551.299 5.12165 -1.40926 0
M  V30 5890 C 550.338 5.56757 -2.54338 0
M  V30 5891 N 549.475 6.69376 -2.11848 0
M  V30 5892 H 554.315 2.21562 -1.99284 0
M  V30 5893 H 551.852 1.08578 -0.992434 0
M  V30 5894 H 553.81 4.1488 -0.43938 0
M  V30 5895 H 552.44 3.22021 0.224127 0
M  V30 5896 H 551.492 3.10808 -2.19323 0
M  V30 5897 H 552.804 4.19802 -2.69383 0
M  V30 5898 H 551.958 5.96065 -1.13098 0
M  V30 5899 H 550.697 4.84832 -0.528175 0
M  V30 5900 H 549.702 4.71423 -2.82913 0
M  V30 5901 H 550.927 5.861 -3.43022 0
M  V30 5902 H 548.873 6.43756 -1.26153 0
M  V30 5903 H 548.79 6.97927 -2.90574 0
M  V30 5904 H 550.058 7.5669 -1.87191 0
M  V30 5905 N 554.287 1.06798 1.15896 0
M  V30 5906 C 555.25 0.687328 2.18651 0
M  V30 5907 C 556.25 -0.269559 1.58524 0
M  V30 5908 O 557.44 -0.0512627 1.74125 0
M  V30 5909 C 554.572 0.0121642 3.40898 0
M  V30 5910 H 555.765 1.59701 2.53842 0
M  V30 5911 H 553.318 0.863828 1.3026 0
M  V30 5912 H 554.053 -0.910025 3.1127 0
M  V30 5913 H 553.838 0.700309 3.85795 0
M  V30 5914 H 555.328 -0.239703 4.16911 0
M  V30 5915 N 555.766 -1.3263 0.851289 0
M  V30 5916 C 557.182 -1.50162 0.5407 0
M  V30 5917 C 557.382 -1.78788 -0.929369 0
M  V30 5918 O 556.438 -1.85545 -1.71258 0
M  V30 5919 C 557.751 -2.64803 1.42478 0
M  V30 5920 C 559.299 -2.78688 1.42485 0
M  V30 5921 C 559.774 -3.96405 2.29407 0
M  V30 5922 N 561.265 -4.0366 2.27184 0
M  V30 5923 C 562 -4.93971 2.9117 0
M  V30 5924 N 561.496 -5.89313 3.64256 0
M  V30 5925 N 563.289 -4.87066 2.80576 0
M  V30 5926 H 555.44 -1.12315 1.80275 0
M  V30 5927 H 557.703 -0.553266 0.769806 0
M  V30 5928 H 557.409 -2.50368 2.46999 0
M  V30 5929 H 557.283 -3.60506 1.10974 0
M  V30 5930 H 559.67 -2.92547 0.387304 0
M  V30 5931 H 559.751 -1.83708 1.78002 0
M  V30 5932 H 559.395 -3.83304 3.33228 0
M  V30 5933 H 559.325 -4.90654 1.91224 0
M  V30 5934 H 561.816 -3.35435 1.74045 0
M  V30 5935 H 562.129 -6.54913 4.10255 0
M  V30 5936 H 560.474 -5.8935 3.68364 0
M  V30 5937 H 563.665 -4.11552 2.23031 0
M  V30 5938 H 563.838 -5.57248 3.30725 0
M  V30 5939 N 557.244 -0.608902 -1.45362 0
M  V30 5940 C 558.154 0.110969 -2.34337 0
M  V30 5941 C 559.17 0.859007 -1.51318 0
M  V30 5942 O 560.346 0.816296 -1.84116 0
M  V30 5943 C 557.411 1.09494 -3.28956 0
M  V30 5944 C 556.472 0.348718 -4.27881 0
M  V30 5945 C 555.705 1.28582 -5.17979 0
M  V30 5946 O 555.928 2.52369 -5.11533 0
M  V30 5947 O 554.862 0.782172 -5.96796 0
M  V30 5948 H 558.688 -0.620258 -2.97299 0
M  V30 5949 H 556.273 -0.36916 -1.44767 0
M  V30 5950 H 558.155 1.66163 -3.87257 0
M  V30 5951 H 556.83 1.80717 -2.68557 0
M  V30 5952 H 555.737 -0.260465 -3.73192 0
M  V30 5953 H 557.07 -0.323049 -4.91139 0
M  V30 5954 N 558.722 1.53707 -0.348139 0
M  V30 5955 C 559.632 2.28881 0.514857 0
M  V30 5956 C 560.648 1.34168 1.10793 0
M  V30 5957 O 561.824 1.6721 1.12262 0
M  V30 5958 C 558.889 3.05042 1.64774 0
M  V30 5959 C 557.95 4.15389 1.08398 0
M  V30 5960 C 557.183 4.87909 2.16287 0
M  V30 5961 O 557.406 4.60137 3.3709 0
M  V30 5962 O 556.34 5.74254 1.80323 0
M  V30 5963 H 560.166 3.03547 -0.0963699 0
M  V30 5964 H 557.751 1.48972 -0.113043 0
M  V30 5965 H 559.633 3.52656 2.30677 0
M  V30 5966 H 558.308 2.33228 2.24469 0
M  V30 5967 H 557.215 3.72068 0.389341 0
M  V30 5968 H 558.548 4.89318 0.531829 0
M  V30 5969 N 560.2 0.0768682 1.57412 0
M  V30 5970 C 561.15 -0.898795 2.09537 0
M  V30 5971 C 562.134 -1.25556 1.0062 0
M  V30 5972 O 563.326 -1.23369 1.26921 0
M  V30 5973 C 560.455 -2.16453 2.66464 0
M  V30 5974 C 559.541 -1.83401 3.82393 0
M  V30 5975 N 559.932 -1.20823 4.91157 0
M  V30 5976 C 558.23 -2.13121 3.91785 0
M  V30 5977 C 558.931 -1.05976 5.71965 0
M  V30 5978 N 557.907 -1.57113 5.204 0
M  V30 5979 H 561.709 -0.410718 2.91016 0
M  V30 5980 H 559.223 -0.126878 1.61904 0
M  V30 5981 H 561.22 -2.87274 3.02125 0
M  V30 5982 H 559.88 -2.65844 1.86433 0
M  V30 5983 H 560.891 -0.877249 5.10416 0
M  V30 5984 H 557.568 -2.64854 3.22736 0
M  V30 5985 H 558.958 -0.571809 6.69462 0
M  V30 5986 N 561.678 -1.56367 -0.196722 0
M  V30 5987 C 563.094 -1.49916 -0.54749 0
M  V30 5988 C 563.294 -0.77659 -1.85934 0
M  V30 5989 O 562.35 -0.32644 -2.50381 0
M  V30 5990 C 563.663 -2.94577 -0.603734 0
M  V30 5991 C 565.211 -3.05239 -0.692677 0
M  V30 5992 C 565.686 -4.51308 -0.780046 0
M  V30 5993 N 567.177 -4.55453 -0.843616 0
M  V30 5994 C 567.912 -5.65786 -0.931358 0
M  V30 5995 N 567.408 -6.85812 -0.981503 0
M  V30 5996 N 569.201 -5.53695 -0.968421 0
M  V30 5997 H 561.352 -2.01761 0.663803 0
M  V30 5998 H 563.615 -0.918094 0.236238 0
M  V30 5999 H 563.321 -3.50494 0.29105 0
M  V30 6000 H 563.195 -3.47841 -1.45898 0
M  V30 6001 H 565.582 -2.49372 -1.57789 0
M  V30 6002 H 565.663 -2.55103 0.188736 0
M  V30 6003 H 565.307 -5.078 0.100811 0
M  V30 6004 H 565.237 -4.99176 -1.67724 0
M  V30 6005 H 567.728 -3.69025 -0.814176 0
M  V30 6006 H 568.041 -7.65648 -1.04892 0
M  V30 6007 H 566.386 -6.88474 -0.950208 0
M  V30 6008 H 569.577 -4.58848 -0.926072 0
M  V30 6009 H 569.75 -6.39708 -1.03334 0
M  V30 6010 N 563.156 0.464375 -1.50603 0
M  V30 6011 C 564.405 1.21277 -1.61167 0
M  V30 6012 C 564.718 1.92953 -0.320704 0
M  V30 6013 O 565.924 2.69778 -0.30534 0
M  V30 6014 C 564.38 2.20403 -2.84518 0
M  V30 6015 C 563.988 1.54499 -4.20516 0
M  V30 6016 C 565.732 2.95843 -3.0443 0
M  V30 6017 C 563.639 2.51951 -5.35047 0
M  V30 6018 H 562.569 0.456367 -0.600204 0
M  V30 6019 H 565.22 0.48254 -1.77042 0
M  V30 6020 H 563.602 2.96746 -2.62217 0
M  V30 6021 H 564.776 0.83899 -4.53098 0
M  V30 6022 H 563.091 0.913152 -4.06264 0
M  V30 6023 H 565.688 3.6879 -3.87167 0
M  V30 6024 H 566.031 3.55622 -2.16423 0
M  V30 6025 H 566.564 2.26611 -3.26944 0
M  V30 6026 H 563.303 1.96901 -6.25228 0
M  V30 6027 H 562.823 3.20683 -5.06875 0
M  V30 6028 H 564.502 3.13643 -5.65895 0
M  V30 6029 N 564.634 1.40294 0.718013 0
M  V30 6030 C 566.045 1.34289 1.29705 0
M  V30 6031 C 566.396 0.0152228 1.96194 0
M  V30 6032 O 565.521 -0.88682 1.97394 0
M  V30 6033 C 566.116 2.43219 2.3586 0
M  V30 6034 C 564.675 2.40682 2.89394 0
M  V30 6035 C 563.822 2.24223 1.63154 0
M  V30 6036 H 566.773 1.50135 0.514312 0
M  V30 6037 H 566.794 2.10986 3.16647 0
M  V30 6038 H 566.306 3.39836 1.87439 0
M  V30 6039 H 564.407 1.47756 3.42051 0
M  V30 6040 H 564.52 3.36177 3.41353 0
M  V30 6041 H 562.884 1.71696 1.88129 0
M  V30 6042 H 563.667 3.22834 1.16761 0
M  V30 6043 N 566.112 -0.949982 1.2575 0
M  V30 6044 C 567.022 -2.08109 1.08295 0
M  V30 6045 C 568.038 -1.7399 0.0188181 0
M  V30 6046 O 569.214 -2.00187 0.220724 0
M  V30 6047 C 566.279 -3.39383 0.708534 0
M  V30 6048 C 565.34 -3.8734 1.85111 0
M  V30 6049 C 564.573 -5.12349 1.49447 0
M  V30 6050 O 564.796 -5.6905 0.392212 0
M  V30 6051 O 563.73 -5.5513 2.32624 0
M  V30 6052 H 567.556 -2.25738 2.03165 0
M  V30 6053 H 565.141 -1.06545 1.04731 0
M  V30 6054 H 567.023 -4.18277 0.512061 0
M  V30 6055 H 565.698 -3.23013 -0.210854 0
M  V30 6056 H 564.605 -3.09429 2.10248 0
M  V30 6057 H 565.938 -4.08216 2.74991 0
M  V30 6058 N 567.59 -1.07411 -1.15328 0
M  V30 6059 C 569.006 -0.799759 -1.38116 0
M  V30 6060 C 569.206 0.59572 -1.92493 0
M  V30 6061 O 568.262 1.35433 -2.13106 0
M  V30 6062 C 569.575 -1.87407 -2.35158 0
M  V30 6063 C 571.123 -1.89889 -2.48819 0
M  V30 6064 C 571.598 -2.96406 -3.49153 0
M  V30 6065 N 573.089 -2.95512 -3.56689 0
M  V30 6066 C 573.824 -3.74575 -4.34144 0
M  V30 6067 N 573.32 -4.63488 -5.14928 0
M  V30 6068 N 575.113 -3.62919 -4.29239 0
M  V30 6069 H 567.264 -1.97411 -0.78374 0
M  V30 6070 H 569.527 -0.856113 -0.407154 0
M  V30 6071 H 569.233 -2.8768 -2.0232 0
M  V30 6072 H 569.107 -1.73471 -3.34944 0
M  V30 6073 H 571.494 -0.902677 -2.80955 0
M  V30 6074 H 571.575 -2.07904 -1.49029 0
M  V30 6075 H 571.219 -3.96227 -3.17752 0
M  V30 6076 H 571.149 -2.75638 -4.48699 0
M  V30 6077 H 573.64 -2.31061 -2.99031 0
M  V30 6078 H 573.953 -5.20445 -5.71276 0
M  V30 6079 H 572.298 -4.67537 -5.14232 0
M  V30 6080 H 575.489 -2.92833 -3.65194 0
M  V30 6081 H 575.662 -4.24777 -4.89355 0
M  V30 6082 N 569.068 1.32177 -0.85831 0
M  V30 6083 C 570.293 2.01847 -0.476718 0
M  V30 6084 C 570.718 1.64065 0.920021 0
M  V30 6085 O 570.076 0.843189 1.60499 0
M  V30 6086 C 570.124 3.55097 -0.627578 0
M  V30 6087 O 569.228 4.11012 0.338086 0
M  V30 6088 H 568.569 0.635907 -0.191099 0
M  V30 6089 H 571.099 1.68641 -1.15851 0
M  V30 6090 H 571.109 4.04718 -0.516476 0
M  V30 6091 H 569.784 3.81938 -1.64609 0
M  V30 6092 H 568.361 3.72451 0.182917 0
M  V30 6093 N 570.547 0.616602 1.45037 0
M  V30 6094 C 571.775 0.121968 2.0654 0
M  V30 6095 C 572.19 -1.19743 1.45969 0
M  V30 6096 O 571.547 -1.73133 0.577168 0
M  V30 6097 C 571.598 -0.0145171 3.61497 0
M  V30 6098 O 571.319 1.25269 4.19809 0
M  V30 6099 C 572.82 -0.539555 4.40004 0
M  V30 6100 H 570.04 0.0729837 0.667019 0
M  V30 6101 H 572.584 0.846891 1.8614 0
M  V30 6102 H 570.739 -0.689809 3.81209 0
M  V30 6103 H 571.153 1.08816 5.13088 0
M  V30 6104 H 572.627 -0.584112 5.48901 0
M  V30 6105 H 573.104 -1.56368 4.10421 0
M  V30 6106 H 573.71 0.101995 4.25178 0
M  V30 6107 N 572.025 -1.5352 0.356285 0
M  V30 6108 C 573.25 -2.06007 -0.239961 0
M  V30 6109 C 573.675 -1.22872 -1.42422 0
M  V30 6110 O 573.033 -0.245516 -1.7963 0
M  V30 6111 C 573.081 -3.5522 -0.620587 0
M  V30 6112 O 572.185 -3.74864 -1.71902 0
M  V30 6113 H 571.526 -0.662961 -0.0371377 0
M  V30 6114 H 574.056 -1.98033 0.514194 0
M  V30 6115 H 574.066 -3.98081 -0.894197 0
M  V30 6116 H 572.741 -4.15175 0.245407 0
M  V30 6117 H 571.318 -3.43904 -1.44169 0
M  V30 6118 N 573.503 -0.0852151 -1.57369 0
M  V30 6119 C 574.752 0.580443 -1.93168 0
M  V30 6120 C 575.065 1.6995 -0.968319 0
M  V30 6121 O 576.271 2.42564 -1.21963 0
M  V30 6122 C 574.727 1.08386 -3.43192 0
M  V30 6123 C 574.335 -0.00491388 -4.48 0
M  V30 6124 C 576.079 1.72281 -3.87968 0
M  V30 6125 C 573.986 0.513299 -5.89168 0
M  V30 6126 H 572.916 0.22059 -0.72101 0
M  V30 6127 H 575.567 -0.159621 -1.82804 0
M  V30 6128 H 573.949 1.8773 -3.48674 0
M  V30 6129 H 575.123 -0.780032 -4.5415 0
M  V30 6130 H 573.438 -0.548453 -4.12772 0
M  V30 6131 H 576.035 2.12108 -4.9083 0
M  V30 6132 H 576.378 2.58811 -3.26071 0
M  V30 6133 H 576.911 0.995359 -3.85146 0
M  V30 6134 H 573.65 -0.315153 -6.54742 0
M  V30 6135 H 573.17 1.25564 -5.8651 0
M  V30 6136 H 574.849 0.985433 -6.39451 0
M  V30 6137 N 574.981 1.5647 0.188427 0
M  V30 6138 C 576.227 1.81281 0.909124 0
M  V30 6139 C 576.56 0.66034 1.82628 0
M  V30 6140 O 575.835 -0.338737 1.91528 0
M  V30 6141 C 576.118 3.16388 1.7196 0
M  V30 6142 C 575.971 4.42137 0.826714 0
M  V30 6143 C 577.29 3.48256 2.69083 0
M  V30 6144 H 574.409 0.659457 0.329068 0
M  V30 6145 H 577.051 1.89182 0.176156 0
M  V30 6146 H 575.201 3.09784 2.34448 0
M  V30 6147 H 576.873 4.60794 0.216025 0
M  V30 6148 H 575.116 4.33594 0.133792 0
M  V30 6149 H 575.787 5.33184 1.42893 0
M  V30 6150 H 578.263 3.55203 2.16726 0
M  V30 6151 H 577.139 4.43899 3.2287 0
M  V30 6152 H 577.4 2.72088 3.48455 0
M  V30 6153 N 576.459 -0.456382 1.50847 0
M  V30 6154 C 577.708 -1.2042 1.61808 0
M  V30 6155 C 578.021 -1.9278 0.330932 0
M  V30 6156 O 579.227 -2.69612 0.319643 0
M  V30 6157 C 577.683 -2.18891 2.85683 0
M  V30 6158 C 577.291 -1.52267 4.2133 0
M  V30 6159 C 579.035 -2.94224 3.05994 0
M  V30 6160 C 576.942 -2.4911 5.36375 0
M  V30 6161 H 575.872 -0.453177 0.602616 0
M  V30 6162 H 578.523 -0.473144 1.77295 0
M  V30 6163 H 576.905 -2.95351 2.63787 0
M  V30 6164 H 578.079 -0.814949 4.53536 0
M  V30 6165 H 576.394 -0.891594 4.06743 0
M  V30 6166 H 578.991 -3.66732 3.89117 0
M  V30 6167 H 579.334 -3.54469 2.18306 0
M  V30 6168 H 579.867 -2.24874 3.28141 0
M  V30 6169 H 576.606 -1.93582 6.26264 0
M  V30 6170 H 576.126 -3.17991 5.08569 0
M  V30 6171 H 577.805 -3.10637 5.67551 0
M  V30 6172 N 577.937 -1.40673 -0.710563 0
M  V30 6173 C 578.87 -1.35742 -1.83438 0
M  V30 6174 C 579.848 -0.226997 -1.61008 0
M  V30 6175 O 581.032 -0.411477 -1.83954 0
M  V30 6176 C 578.159 -1.11374 -3.19865 0
M  V30 6177 C 577.205 -2.26935 -3.61113 0
M  V30 6178 S 578.038 -3.89352 -3.67648 0
M  V30 6179 C 579.194 -3.67258 -5.06826 0
M  V30 6180 H 579.427 -2.30848 -1.87341 0
M  V30 6181 H 576.96 -1.27018 -0.877831 0
M  V30 6182 H 578.918 -0.980004 -3.9863 0
M  V30 6183 H 577.579 -0.179135 -3.13589 0
M  V30 6184 H 576.772 -2.0554 -4.60184 0
M  V30 6185 H 576.374 -2.36638 -2.89618 0
M  V30 6186 H 578.666 -3.26036 -5.93891 0
M  V30 6187 H 579.609 -4.65878 -5.33257 0
M  V30 6188 H 580.017 -3.0084 -4.77656 0
M  V30 6189 N 579.415 0.9433 -1.26252 0
M  V30 6190 C 580.345 2.05902 -1.10122 0
M  V30 6191 C 581.326 1.70099 -0.00700552 0
M  V30 6192 O 582.511 1.93377 -0.178641 0
M  V30 6193 C 579.641 3.39516 -0.731175 0
M  V30 6194 C 578.595 3.89372 -1.77688 0
M  V30 6195 C 577.921 5.19613 -1.26122 0
M  V30 6196 C 579.221 4.14489 -3.17799 0
M  V30 6197 H 580.915 2.19655 -2.03451 0
M  V30 6198 H 578.461 1.05548 -0.979576 0
M  V30 6199 H 580.414 4.17031 -0.605215 0
M  V30 6200 H 579.138 3.25733 0.23782 0
M  V30 6201 H 577.797 3.14036 -1.89148 0
M  V30 6202 H 577.445 5.02208 -0.282128 0
M  V30 6203 H 577.145 5.53939 -1.96023 0
M  V30 6204 H 578.669 5.99713 -1.14789 0
M  V30 6205 H 580.083 4.82625 -3.09428 0
M  V30 6206 H 578.48 4.60094 -3.85271 0
M  V30 6207 H 579.55 3.20347 -3.64014 0
M  V30 6208 N 580.893 1.08022 1.14757 0
M  V30 6209 C 582.121 0.828847 1.89572 0
M  V30 6210 C 582.536 -0.618621 1.78377 0
M  V30 6211 O 581.893 -1.42482 1.1404 0
M  V30 6212 C 581.944 1.23677 3.39685 0
M  V30 6213 O 581.665 2.62746 3.50566 0
M  V30 6214 C 583.166 1.01569 4.31507 0
M  V30 6215 H 580.386 0.299196 0.600602 0
M  V30 6216 H 582.93 1.43846 1.45357 0
M  V30 6217 H 581.085 0.671347 3.81539 0
M  V30 6218 H 581.499 2.79573 4.43778 0
M  V30 6219 H 582.973 1.35055 5.35223 0
M  V30 6220 H 583.45 -0.0475433 4.39174 0
M  V30 6221 H 584.056 1.56636 3.95405 0
M  V30 6222 N 582.371 -1.3172 0.865308 0
M  V30 6223 C 583.648 -1.91574 0.394789 0
M  V30 6224 C 584.028 -1.78769 -1.12271 0
M  V30 6225 O 583.376 -1.19245 -1.94918 0
M  V30 6226 C 583.586 -3.37957 0.870982 0
M  V30 6227 C 584.934 -4.15073 0.894384 0
M  V30 6228 O 585.958 -3.4672 0.816325 0
M  V30 6229 O 584.817 -5.37151 1.00651 0
M  V30 6230 H 581.911 -0.818649 0.117229 0
M  V30 6231 H 584.457 -1.4042 0.952913 0
M  V30 6232 H 583.229 -3.41269 1.91444 0
M  V30 6233 H 582.852 -3.96534 0.290907 0
M  V30 6234 N 583.85 -0.624285 -1.44708 0
M  V30 6235 C 585.098 -0.125802 -2.01708 0
M  V30 6236 C 585.418 1.2543 -1.49306 0
M  V30 6237 O 584.689 1.83198 -0.693924 0
M  V30 6238 H 583.269 -0.0435161 -0.745731 0
M  V30 6239 H 585.931 -0.809446 -1.77296 0
M  V30 6240 H 585.027 -0.0882734 -3.11975 0
M  V30 6241 N 585.328 1.53329 -0.364422 0
M  V30 6242 C 586.605 1.93557 0.281962 0
M  V30 6243 C 586.985 1.29786 1.6649 0
M  V30 6244 O 586.333 0.456512 2.23893 0
M  V30 6245 C 586.543 3.47405 0.333331 0
M  V30 6246 C 587.891 4.20699 0.574231 0
M  V30 6247 O 588.915 3.53779 0.414588 0
M  V30 6248 O 587.774 5.39287 0.885002 0
M  V30 6249 H 584.868 0.809573 0.168881 0
M  V30 6250 H 587.414 1.64494 -0.417121 0
M  V30 6251 H 586.186 3.86091 -0.636326 0
M  V30 6252 H 585.809 3.82697 1.07836 0
M  V30 6253 N 586.806 0.0935595 1.57322 0
M  V30 6254 C 587.769 -0.851426 2.12799 0
M  V30 6255 C 588.769 -1.21187 1.0569 0
M  V30 6256 O 589.959 -1.14156 1.31583 0
M  V30 6257 C 587.091 -2.14779 2.64731 0
M  V30 6258 H 588.284 -0.369733 2.97612 0
M  V30 6259 H 585.837 -0.155417 1.55525 0
M  V30 6260 H 586.572 -2.67437 1.83434 0
M  V30 6261 H 586.357 -1.89907 3.43042 0
M  V30 6262 H 587.847 -2.82383 3.07651 0
M  V30 6263 N 588.284 -1.56567 -0.180126 0
M  V30 6264 C 589.232 -1.96632 -1.24251 0
M  V30 6265 C 590.226 -0.853818 -1.46309 0
M  V30 6266 O 591.432 -1.0389 -1.46993 0
M  V30 6267 H 587.807 -0.625476 -0.417473 0
M  V30 6268 H 589.778 -2.85201 -0.877679 0
M  V30 6269 C 588.527 -2.33486 -2.57642 0
M  V30 6270 H 587.85 -3.18626 -2.4149 0
M  V30 6271 H 589.29 -2.65371 -3.30688 0
M  V30 6272 C 587.749 -1.17499 -3.15746 0
M  V30 6273 O 588.279 -0.457956 -3.99081 0
M  V30 6274 N 586.485 -0.94786 -2.74707 0
M  V30 6275 H 586.032 -1.53269 -2.07042 0
M  V30 6276 H 585.99 -0.173626 -3.1392 0
M  V30 6277 N 589.762 0.448376 -1.51087 0
M  V30 6278 C 591.008 1.20049 -1.6345 0
M  V30 6279 C 591.341 1.91121 -0.344444 0
M  V30 6280 O 590.616 1.83125 0.655396 0
M  V30 6281 C 590.899 2.22624 -2.83038 0
M  V30 6282 C 590.752 1.55708 -4.21989 0
M  V30 6283 C 592.071 3.23718 -2.98152 0
M  V30 6284 H 589.19 0.435085 -0.59487 0
M  V30 6285 H 591.832 0.491183 -1.83541 0
M  V30 6286 H 589.982 2.83117 -2.66039 0
M  V30 6287 H 591.654 0.986367 -4.50631 0
M  V30 6288 H 589.897 0.859647 -4.25197 0
M  V30 6289 H 590.568 2.30357 -5.01637 0
M  V30 6290 H 593.044 2.73269 -3.13788 0
M  V30 6291 H 591.92 3.92795 -3.83411 0
M  V30 6292 H 592.181 3.89179 -2.09743 0
M  V30 6293 N 591.24 1.41047 0.703093 0
M  V30 6294 C 592.488 1.39723 1.4602 0
M  V30 6295 C 592.809 0.00461257 1.94999 0
M  V30 6296 O 592.079 -0.952292 1.71196 0
M  V30 6297 H 590.659 0.514281 0.541779 0
M  V30 6298 H 593.321 1.76217 0.832678 0
M  V30 6299 H 592.417 2.07982 2.32701 0
M  V30 6300 N 592.718 -0.936591 1.26751 0
M  V30 6301 C 593.628 -2.06949 1.10496 0
M  V30 6302 C 594.644 -1.7396 0.037271 0
M  V30 6303 O 595.82 -1.99941 0.241944 0
M  V30 6304 C 592.885 -3.38612 0.744491 0
M  V30 6305 C 591.946 -3.85355 1.89209 0
M  V30 6306 C 591.179 -5.10735 1.54873 0
M  V30 6307 O 591.402 -5.68602 0.452546 0
M  V30 6308 O 590.336 -5.52632 2.38499 0
M  V30 6309 H 594.162 -2.23571 2.05547 0
M  V30 6310 H 591.747 -1.05428 1.05855 0
M  V30 6311 H 593.629 -4.17711 0.556396 0
M  V30 6312 H 592.304 -3.23218 -0.176582 0
M  V30 6313 H 591.211 -3.07182 2.13518 0
M  V30 6314 H 592.544 -4.05277 2.79305 0
M  V30 6315 N 594.196 -1.08629 -1.14182 0
M  V30 6316 C 595.421 -0.83902 -1.89671 0
M  V30 6317 C 595.846 0.603332 -1.78161 0
M  V30 6318 O 595.204 1.42301 -1.12339 0
M  V30 6319 C 595.252 -1.26854 -3.37551 0
M  V30 6320 O 594.356 -0.42188 -4.10236 0
M  V30 6321 H 593.697 -0.304545 -0.590041 0
M  V30 6322 H 596.227 -1.4483 -1.44518 0
M  V30 6323 H 596.237 -1.25038 -3.88368 0
M  V30 6324 H 594.912 -2.31901 -3.45246 0
M  V30 6325 H 593.489 -0.503654 -3.69483 0
M  V30 6326 N 595.674 1.31259 -0.872281 0
M  V30 6327 C 597.09 1.49283 -0.564521 0
M  V30 6328 C 597.29 1.80243 0.900807 0
M  V30 6329 O 596.346 1.88246 1.68284 0
M  V30 6330 C 597.659 2.62503 -1.46673 0
M  V30 6331 C 599.207 2.76386 -1.46901 0
M  V30 6332 C 599.682 3.92705 -2.35684 0
M  V30 6333 N 601.173 3.99995 -2.33577 0
M  V30 6334 C 601.908 4.89276 -2.98992 0
M  V30 6335 N 601.404 5.83443 -3.73585 0
M  V30 6336 N 603.197 4.82541 -2.88289 0
M  V30 6337 H 595.348 1.09432 -1.82039 0
M  V30 6338 H 597.611 0.540949 -0.77851 0
M  V30 6339 H 597.317 2.46407 -2.50951 0
M  V30 6340 H 597.191 3.58695 -1.16696 0
M  V30 6341 H 599.578 2.91894 -0.433796 0
M  V30 6342 H 599.659 1.80853 -1.80903 0
M  V30 6343 H 599.303 3.77954 -3.39283 0
M  V30 6344 H 599.233 4.87549 -1.99006 0
M  V30 6345 H 601.724 3.32624 -1.7936 0
M  V30 6346 H 602.037 6.48303 -4.20622 0
M  V30 6347 H 600.382 5.83415 -3.77694 0
M  V30 6348 H 603.573 4.07951 -2.2955 0
M  V30 6349 H 603.746 5.51916 -3.39549 0
M  V30 6350 N 597.152 0.631951 1.44375 0
M  V30 6351 C 598.563 0.219036 1.85411 0
M  V30 6352 C 598.914 -1.22974 1.52879 0
M  V30 6353 O 598.039 -1.93579 0.967266 0
M  V30 6354 C 598.634 0.39075 3.36539 0
M  V30 6355 C 597.193 0.0323351 3.76386 0
M  V30 6356 C 596.34 0.703744 2.68221 0
M  V30 6357 H 599.291 0.837056 1.3483 0
M  V30 6358 H 599.312 -0.370056 3.78696 0
M  V30 6359 H 598.824 1.44527 3.60185 0
M  V30 6360 H 596.925 -1.02042 3.58355 0
M  V30 6361 H 597.038 0.442969 4.77048 0
M  V30 6362 H 595.402 0.138974 2.54321 0
M  V30 6363 H 596.185 1.76088 2.947 0
M  V30 6364 N 598.631 -1.53133 0.372548 0
M  V30 6365 C 599.541 -2.29671 -0.478379 0
M  V30 6366 C 600.557 -1.35913 -1.08644 0
M  V30 6367 O 601.733 -1.68975 -1.09588 0
M  V30 6368 C 598.798 -3.07625 -1.599 0
M  V30 6369 C 597.859 -4.17061 -1.01776 0
M  V30 6370 C 597.092 -4.91289 -2.08497 0
M  V30 6371 O 597.315 -4.65442 -3.29727 0
M  V30 6372 O 596.249 -5.7705 -1.71164 0
M  V30 6373 H 600.075 -3.03355 0.144649 0
M  V30 6374 H 597.66 -1.48773 0.136729 0
M  V30 6375 H 599.542 -3.56281 -2.25038 0
M  V30 6376 H 598.217 -2.3677 -2.2073 0
M  V30 6377 H 597.124 -3.72641 -0.330098 0
M  V30 6378 H 598.457 -4.90102 -0.453915 0
M  V30 6379 N 600.109 -0.101901 -1.5727 0
M  V30 6380 C 601.056 0.854577 -2.14396 0
M  V30 6381 C 602.026 1.27521 -1.06432 0
M  V30 6382 O 603.211 1.35575 -1.34253 0
M  V30 6383 C 600.351 2.10576 -2.73408 0
M  V30 6384 C 599.464 1.73504 -3.95626 0
M  V30 6385 C 598.599 2.9346 -4.42781 0
M  V30 6386 C 597.638 2.52547 -5.57572 0
M  V30 6387 N 596.775 3.65359 -5.99547 0
M  V30 6388 H 601.615 0.360578 -2.9581 0
M  V30 6389 H 599.152 0.166303 -1.46157 0
M  V30 6390 H 601.11 2.83859 -3.05745 0
M  V30 6391 H 599.74 2.57463 -1.94711 0
M  V30 6392 H 598.792 0.901622 -3.6956 0
M  V30 6393 H 600.104 1.39426 -4.78917 0
M  V30 6394 H 599.258 3.74988 -4.76937 0
M  V30 6395 H 597.997 3.30753 -3.58404 0
M  V30 6396 H 597.002 1.69446 -5.23037 0
M  V30 6397 H 598.227 2.1639 -6.43702 0
M  V30 6398 H 596.173 4.02358 -5.18116 0
M  V30 6399 H 596.09 3.35148 -6.77652 0
M  V30 6400 H 597.358 4.47378 -6.38336 0
M  V30 6401 N 601.587 1.56661 0.17182 0
M  V30 6402 C 602.836 1.81158 0.886831 0
M  V30 6403 C 603.149 0.679072 1.83434 0
M  V30 6404 O 604.355 0.808964 2.59168 0
M  V30 6405 C 602.811 3.20999 1.6275 0
M  V30 6406 C 602.419 4.42117 0.723652 0
M  V30 6407 C 604.163 3.5479 2.33076 0
M  V30 6408 C 602.07 5.7298 1.46452 0
M  V30 6409 H 601 0.675543 0.334899 0
M  V30 6410 H 603.651 1.82967 0.139765 0
M  V30 6411 H 602.033 3.13506 2.4193 0
M  V30 6412 H 603.207 4.60789 -0.0311485 0
M  V30 6413 H 601.522 4.16197 0.130063 0
M  V30 6414 H 604.119 4.49806 2.89099 0
M  V30 6415 H 604.462 2.79646 3.08389 0
M  V30 6416 H 604.995 3.63834 1.6084 0
M  V30 6417 H 601.734 6.51152 0.753729 0
M  V30 6418 H 601.254 5.58285 2.19266 0
M  V30 6419 H 602.933 6.14916 2.01214 0
M  V30 6420 N 603.065 -0.440357 1.51323 0
M  V30 6421 C 603.997 -1.55254 1.68609 0
M  V30 6422 C 605.01 -1.52614 0.566812 0
M  V30 6423 O 606.199 -1.57445 0.841032 0
M  V30 6424 C 603.299 -2.94169 1.68279 0
M  V30 6425 C 602.472 -3.21346 2.96742 0
M  V30 6426 C 601.531 -4.3997 2.8864 0
M  V30 6427 O 600.557 -4.38771 3.62586 0
M  V30 6428 N 601.759 -5.43367 2.04285 0
M  V30 6429 H 604.524 -1.40831 2.6455 0
M  V30 6430 H 602.085 -0.629251 1.49171 0
M  V30 6431 H 604.077 -3.71543 1.60431 0
M  V30 6432 H 602.647 -3.02205 0.799441 0
M  V30 6433 H 601.867 -2.32299 3.18482 0
M  V30 6434 H 603.155 -3.3633 3.81785 0
M  V30 6435 H 602.553 -5.47176 1.43578 0
M  V30 6436 H 601.11 -6.19605 2.02318 0
M  V30 6437 N 604.543 -1.41418 -0.695603 0
M  V30 6438 C 605.453 -1.45622 -1.83933 0
M  V30 6439 C 606.469 -0.346825 -1.70508 0
M  V30 6440 O 607.645 -0.59454 -1.92424 0
M  V30 6441 C 604.71 -1.33627 -3.19914 0
M  V30 6442 C 603.771 -2.54882 -3.45447 0
M  V30 6443 C 603.004 -2.43449 -4.7494 0
M  V30 6444 O 603.227 -1.45905 -5.51424 0
M  V30 6445 O 602.161 -3.33206 -5.01256 0
M  V30 6446 H 605.987 -2.42114 -1.83342 0
M  V30 6447 H 603.572 -1.22956 -0.848658 0
M  V30 6448 H 605.454 -1.29221 -4.01098 0
M  V30 6449 H 604.129 -0.402508 -3.21188 0
M  V30 6450 H 603.036 -2.64865 -2.64192 0
M  V30 6451 H 604.369 -3.47087 -3.48987 0
M  V30 6452 N 606.021 0.929856 -1.27246 0
M  V30 6453 C 606.969 2.05151 -1.09616 0
M  V30 6454 C 607.963 1.69388 -0.0198617 0
M  V30 6455 O 609.169 1.79124 -0.177417 0
M  V30 6456 H 605.544 0.671909 -0.337701 0
M  V30 6457 H 607.515 2.17168 -2.04648 0
M  V30 6458 C 606.264 3.3934 -0.757851 0
M  V30 6459 H 605.587 3.67343 -1.57795 0
M  V30 6460 H 607.027 4.18603 -0.674358 0
M  V30 6461 C 605.486 3.32582 0.537658 0
M  V30 6462 O 606.016 3.69633 1.57271 0
M  V30 6463 N 604.222 2.8568 0.532478 0
M  V30 6464 H 603.769 2.55725 -0.310233 0
M  V30 6465 H 603.727 2.81541 1.39936 0
M  V30 6466 N 607.499 1.09233 1.13605 0
M  V30 6467 C 608.745 0.828385 1.8511 0
M  V30 6468 C 609.078 -0.64437 1.83198 0
M  V30 6469 O 608.353 -1.47428 1.26867 0
M  V30 6470 C 608.636 1.36167 3.33363 0
M  V30 6471 C 608.489 2.90038 3.438 0
M  V30 6472 C 609.808 0.993819 4.28732 0
M  V30 6473 H 606.927 0.30239 0.672108 0
M  V30 6474 H 609.569 1.35339 1.33355 0
M  V30 6475 H 607.719 0.9151 3.77569 0
M  V30 6476 H 609.391 3.43128 3.08319 0
M  V30 6477 H 607.634 3.27271 2.84739 0
M  V30 6478 H 608.305 3.22428 4.48045 0
M  V30 6479 H 610.781 1.37893 3.92587 0
M  V30 6480 H 609.657 1.39403 5.30903 0
M  V30 6481 H 609.918 -0.0982206 4.41991 0
M  V30 6482 N 608.977 -1.30795 0.87923 0
M  V30 6483 C 610.393 -1.48981 0.57243 0
M  V30 6484 C 610.593 -1.80719 -0.891236 0
M  V30 6485 O 609.649 -1.89136 -1.67283 0
M  V30 6486 C 610.962 -2.61721 1.48063 0
M  V30 6487 C 612.51 -2.75603 1.48365 0
M  V30 6488 C 612.985 -3.91449 2.37763 0
M  V30 6489 N 614.476 -3.98751 2.35695 0
M  V30 6490 C 615.211 -4.87684 3.01583 0
M  V30 6491 N 614.707 -5.81454 3.76674 0
M  V30 6492 N 616.5 -4.81005 2.90844 0
M  V30 6493 H 608.651 -1.08465 1.82617 0
M  V30 6494 H 610.914 -0.536813 0.781368 0
M  V30 6495 H 610.62 -2.45073 2.52254 0
M  V30 6496 H 610.494 -3.58071 1.18596 0
M  V30 6497 H 612.881 -2.9166 0.44927 0
M  V30 6498 H 612.962 -1.79891 1.81859 0
M  V30 6499 H 612.606 -3.76149 3.41283 0
M  V30 6500 H 612.536 -4.86487 2.01589 0
M  V30 6501 H 615.027 -3.31668 1.81121 0
M  V30 6502 H 615.34 -6.46063 4.24054 0
M  V30 6503 H 613.685 -5.81403 3.80782 0
M  V30 6504 H 616.876 -4.06728 2.31711 0
M  V30 6505 H 617.049 -5.50107 3.42471 0
M  V30 6506 N 610.455 -0.639598 -1.44038 0
M  V30 6507 C 611.403 0.0723409 -2.32487 0
M  V30 6508 C 612.397 0.827129 -1.47834 0
M  V30 6509 O 613.603 0.73907 -1.64127 0
M  V30 6510 H 609.978 0.0421696 -0.750817 0
M  V30 6511 H 611.949 -0.691593 -2.90275 0
M  V30 6512 C 610.698 1.03452 -3.31953 0
M  V30 6513 H 610.021 0.46315 -3.97108 0
M  V30 6514 H 611.461 1.502 -3.96505 0
M  V30 6515 C 609.92 2.12392 -2.61518 0
M  V30 6516 O 610.45 3.2059 -2.42044 0
M  V30 6517 N 608.656 1.88563 -2.21116 0
M  V30 6518 H 608.203 1.00577 -2.37154 0
M  V30 6519 H 608.161 2.61651 -1.74316 0
M  V30 6520 N 611.933 1.52934 -0.380664 0
M  V30 6521 C 612.896 2.24809 0.446473 0
M  V30 6522 C 613.896 1.26133 0.997347 0
M  V30 6523 O 615.086 1.50297 0.880714 0
M  V30 6524 C 612.218 2.99649 1.62553 0
M  V30 6525 H 613.411 2.99343 -0.182677 0
M  V30 6526 H 610.964 1.55736 -0.132618 0
M  V30 6527 H 611.699 2.29395 2.29235 0
M  V30 6528 H 611.484 3.72066 1.23732 0
M  V30 6529 H 612.974 3.54246 2.21133 0
M  V30 6530 N 613.412 0.11024 1.57214 0
M  V30 6531 C 614.661 -0.549638 1.94067 0
M  V30 6532 C 614.974 -1.68388 0.995234 0
M  V30 6533 O 616.18 -2.40593 1.25807 0
M  V30 6534 C 614.636 -1.02912 3.44873 0
M  V30 6535 C 614.244 0.0761861 4.47935 0
M  V30 6536 C 615.988 -1.66087 3.9066 0
M  V30 6537 C 613.895 -0.419502 5.8991 0
M  V30 6538 H 612.825 -0.209092 0.724428 0
M  V30 6539 H 615.476 0.188683 1.82527 0
M  V30 6540 H 613.858 -1.82159 3.51616 0
M  V30 6541 H 615.032 0.852185 4.52851 0
M  V30 6542 H 613.347 0.614052 4.11847 0
M  V30 6543 H 615.944 -2.04272 4.94143 0
M  V30 6544 H 616.287 -2.53591 3.30148 0
M  V30 6545 H 616.82 -0.933959 3.86681 0
M  V30 6546 H 613.559 0.419277 6.54158 0
M  V30 6547 H 613.079 -1.16217 5.88433 0
M  V30 6548 H 614.758 -0.883577 6.40938 0
M  V30 6549 N 614.89 -1.56749 -0.16351 0
M  V30 6550 C 616.138 -1.82074 -0.87713 0
M  V30 6551 C 616.459 -0.688503 -1.82441 0
M  V30 6552 O 615.729 0.291085 -1.93725 0
M  V30 6553 H 614.309 -0.671677 -0.326893 0
M  V30 6554 H 616.971 -1.9423 -0.161459 0
M  V30 6555 H 616.067 -2.76407 -1.44934 0
M  V30 6556 N 616.368 0.432326 -1.51554 0
M  V30 6557 C 617.616 1.17901 -1.64146 0
M  V30 6558 C 617.937 1.91604 -0.362367 0
M  V30 6559 O 617.207 1.85764 0.621968 0
M  V30 6560 H 615.787 0.438206 -0.604966 0
M  V30 6561 H 618.449 0.495172 -1.88505 0
M  V30 6562 H 617.545 1.90584 -2.47152 0
M  V30 6563 N 617.846 1.41785 0.688094 0
M  V30 6564 C 618.793 1.44221 1.80191 0
M  V30 6565 C 619.763 0.295688 1.63447 0
M  V30 6566 O 620.948 0.49783 1.84191 0
M  V30 6567 C 618.088 1.33743 3.1813 0
M  V30 6568 C 617.201 2.58325 3.46254 0
M  V30 6569 C 616.336 2.40086 4.73848 0
M  V30 6570 C 615.375 3.60107 4.94964 0
M  V30 6571 N 614.512 3.40892 6.13789 0
M  V30 6572 H 619.352 2.39411 1.77444 0
M  V30 6573 H 616.889 1.18876 0.866423 0
M  V30 6574 H 618.847 1.25669 3.97823 0
M  V30 6575 H 617.477 0.42157 3.20035 0
M  V30 6576 H 616.529 2.7682 2.60912 0
M  V30 6577 H 617.841 3.4758 3.57756 0
M  V30 6578 H 616.995 2.29522 5.61609 0
M  V30 6579 H 615.734 1.483 4.64606 0
M  V30 6580 H 614.739 3.71118 4.05649 0
M  V30 6581 H 615.964 4.52857 5.06061 0
M  V30 6582 H 613.91 2.51812 6.05745 0
M  V30 6583 H 613.827 4.23727 6.26092 0
M  V30 6584 H 615.095 3.34114 7.04264 0
M  V30 6585 N 619.324 -0.923095 1.27737 0
M  V30 6586 C 620.571 -1.67127 1.14345 0
M  V30 6587 C 620.899 -1.92017 -0.30982 0
M  V30 6588 O 620.154 -1.51185 -1.24264 0
M  V30 6589 C 620.453 -3.04125 1.8773 0
M  V30 6590 C 620.119 -2.98929 3.37568 0
M  V30 6591 C 618.781 -2.9722 3.78436 0
M  V30 6592 C 621.133 -2.89875 4.33154 0
M  V30 6593 C 618.461 -2.84244 5.13247 0
M  V30 6594 C 620.813 -2.7844 5.68026 0
M  V30 6595 C 619.477 -2.75083 6.08182 0
M  V30 6596 H 618.747 -0.611562 0.418417 0
M  V30 6597 H 621.394 -1.07618 1.584 0
M  V30 6598 H 619.699 -3.67366 1.36196 0
M  V30 6599 H 621.396 -3.609 1.74792 0
M  V30 6600 H 617.986 -3.0105 3.05069 0
M  V30 6601 H 622.17 -2.9029 4.02548 0
M  V30 6602 H 617.426 -2.80034 5.43499 0
M  V30 6603 H 621.6 -2.70401 6.4176 0
M  V30 6604 H 619.227 -2.64786 7.12596 0
M  V30 6605 N 620.802 -1.09834 -1.13024 0
M  V30 6606 C 622.213 -0.855651 -1.65938 0
M  V30 6607 C 622.564 0.615159 -1.86307 0
M  V30 6608 O 621.689 1.47335 -1.58497 0
M  V30 6609 C 622.284 -1.5467 -3.01434 0
M  V30 6610 C 620.843 -1.35088 -3.51323 0
M  V30 6611 C 619.99 -1.6001 -2.26478 0
M  V30 6612 H 622.941 -1.25691 -0.968889 0
M  V30 6613 H 622.962 -0.982179 -3.67605 0
M  V30 6614 H 622.474 -2.61715 -2.86578 0
M  V30 6615 H 620.575 -0.30179 -3.71376 0
M  V30 6616 H 620.688 -2.0886 -4.31178 0
M  V30 6617 H 619.052 -1.02246 -2.33276 0
M  V30 6618 H 619.835 -2.68293 -2.14182 0
M  V30 6619 N 622.28 1.30327 -0.886154 0
M  V30 6620 C 623.21 2.30549 -0.370028 0
M  V30 6621 C 624.191 1.61039 0.547751 0
M  V30 6622 O 625.376 1.8864 0.461353 0
M  V30 6623 C 622.506 3.44808 0.415275 0
M  V30 6624 C 621.46 4.26024 -0.41085 0
M  V30 6625 C 620.786 5.32347 0.501128 0
M  V30 6626 C 622.086 4.95433 -1.65359 0
M  V30 6627 H 623.78 2.73969 -1.20754 0
M  V30 6628 H 621.326 1.3171 -0.582097 0
M  V30 6629 H 623.279 4.13986 0.78699 0
M  V30 6630 H 622.003 3.00197 1.28644 0
M  V30 6631 H 620.662 3.58535 -0.764719 0
M  V30 6632 H 620.31 4.83982 1.37004 0
M  V30 6633 H 620.01 5.87581 -0.0478356 0
M  V30 6634 H 621.534 6.0438 0.869333 0
M  V30 6635 H 622.948 5.5712 -1.35239 0
M  V30 6636 H 621.345 5.60537 -2.14284 0
M  V30 6637 H 622.415 4.21493 -2.39733 0
M  V30 6638 N 623.758 0.647228 1.43697 0
M  V30 6639 C 624.988 0.16551 2.05936 0
M  V30 6640 C 625.396 -1.17164 1.48557 0
M  V30 6641 O 624.739 -1.73307 0.60914 0
M  V30 6642 C 624.801 -0.00648082 3.59499 0
M  V30 6643 C 624.465 1.25503 4.39429 0
M  V30 6644 C 625.462 2.18241 4.71876 0
M  V30 6645 C 623.147 1.49494 4.79538 0
M  V30 6646 C 625.141 3.33268 5.43333 0
M  V30 6647 C 622.828 2.64815 5.50742 0
M  V30 6648 C 623.826 3.56528 5.82561 0
M  V30 6649 O 623.514 4.69836 6.52311 0
M  V30 6650 H 623.246 0.0844124 0.670709 0
M  V30 6651 H 625.8 0.88638 1.8529 0
M  V30 6652 H 624.03 -0.782661 3.78697 0
M  V30 6653 H 625.719 -0.444794 4.03456 0
M  V30 6654 H 626.485 2.00946 4.41413 0
M  V30 6655 H 622.364 0.789912 4.54182 0
M  V30 6656 H 625.908 4.04874 5.68087 0
M  V30 6657 H 621.805 2.82047 5.8062 0
M  V30 6658 H 622.573 4.69024 6.70789 0
M  V30 6659 N 625.236 -1.5273 0.388769 0
M  V30 6660 C 626.184 -2.27975 -0.461527 0
M  V30 6661 C 627.178 -1.31854 -1.06352 0
M  V30 6662 O 628.384 -1.49394 -1.00406 0
M  V30 6663 H 624.759 -0.733088 -0.16759 0
M  V30 6664 H 626.73 -2.97765 0.194579 0
M  V30 6665 C 625.479 -3.09881 -1.577 0
M  V30 6666 H 624.802 -3.83701 -1.12309 0
M  V30 6667 H 626.242 -3.6567 -2.14619 0
M  V30 6668 C 624.701 -2.22159 -2.53272 0
M  V30 6669 O 625.231 -1.84802 -3.56667 0
M  V30 6670 N 623.437 -1.8633 -2.23001 0
M  V30 6671 H 622.984 -2.16909 -1.38954 0
M  V30 6672 H 622.942 -1.27927 -2.87197 0
M  V30 6673 N 626.714 -0.118576 -1.57153 0
M  V30 6674 C 627.644 0.828436 -2.1831 0
M  V30 6675 C 628.625 1.27758 -1.12303 0
M  V30 6676 O 629.81 1.34026 -1.40537 0
M  V30 6677 C 626.94 2.07876 -2.78217 0
M  V30 6678 C 625.894 1.76742 -3.89803 0
M  V30 6679 C 625.22 3.08801 -4.36516 0
M  V30 6680 C 626.52 1.03606 -5.11921 0
M  V30 6681 H 628.214 0.318824 -2.97698 0
M  V30 6682 H 625.76 0.151911 -1.43196 0
M  V30 6683 H 627.713 2.74584 -3.19659 0
M  V30 6684 H 626.437 2.61161 -1.96118 0
M  V30 6685 H 625.096 1.12424 -3.48936 0
M  V30 6686 H 624.744 3.6002 -3.51276 0
M  V30 6687 H 624.444 2.88743 -5.11763 0
M  V30 6688 H 625.968 3.76627 -4.80608 0
M  V30 6689 H 627.382 1.60467 -5.50385 0
M  V30 6690 H 625.779 0.936454 -5.92748 0
M  V30 6691 H 626.849 0.0227421 -4.84895 0
M  V30 6692 N 628.193 1.56834 0.155195 0
M  V30 6693 C 629.441 1.82536 0.867462 0
M  V30 6694 C 629.762 0.698168 1.82073 0
M  V30 6695 O 629.032 -0.280807 1.93877 0
M  V30 6696 H 627.612 0.673401 0.323327 0
M  V30 6697 H 630.274 1.94313 0.151156 0
M  V30 6698 H 629.37 2.77171 1.43466 0
M  V30 6699 N 629.671 -0.424282 1.51781 0
M  V30 6700 C 630.918 -1.1726 1.65095 0
M  V30 6701 C 631.246 -1.90881 0.373477 0
M  V30 6702 O 630.501 -1.84835 -0.642997 0
M  V30 6703 C 630.8 -2.20418 2.81337 0
M  V30 6704 C 630.466 -1.63715 4.20129 0
M  V30 6705 C 629.128 -1.47975 4.57883 0
M  V30 6706 C 631.48 -1.22157 5.06682 0
M  V30 6707 C 628.808 -0.891703 5.79884 0
M  V30 6708 C 631.16 -0.647767 6.29275 0
M  V30 6709 C 629.824 -0.477371 6.65791 0
M  V30 6710 H 629.094 -0.429085 0.604125 0
M  V30 6711 H 631.741 -0.461852 1.85847 0
M  V30 6712 H 630.046 -2.97581 2.54859 0
M  V30 6713 H 631.743 -2.78163 2.88836 0
M  V30 6714 H 628.333 -1.76946 3.90369 0
M  V30 6715 H 632.517 -1.33133 4.7811 0
M  V30 6716 H 627.773 -0.747563 6.06813 0
M  V30 6717 H 631.947 -0.317291 6.95677 0
M  V30 6718 H 629.574 -0.0195936 7.60197 0
M  V30 6719 N 631.149 -1.42148 -0.680565 0
M  V30 6720 C 632.397 -1.42029 -1.43779 0
M  V30 6721 C 632.718 -0.0356347 -1.94967 0
M  V30 6722 O 631.988 0.924936 -1.7269 0
M  V30 6723 H 630.568 -0.522835 -0.533529 0
M  V30 6724 H 633.23 -1.7752 -0.804538 0
M  V30 6725 H 632.326 -2.11658 -2.29363 0
M  V30 6726 N 632.627 0.916307 -1.28225 0
M  V30 6727 C 633.575 2.03977 -1.11786 0
M  V30 6728 C 634.569 1.69358 -0.0378265 0
M  V30 6729 O 635.775 1.78925 -0.196405 0
M  V30 6730 H 632.15 0.66829 -0.344809 0
M  V30 6731 H 634.121 2.14985 -2.06939 0
M  V30 6732 C 632.87 3.38518 -0.7938 0
M  V30 6733 H 632.193 3.65649 -1.61682 0
M  V30 6734 H 633.633 4.17864 -0.718719 0
M  V30 6735 C 632.092 3.33134 0.502353 0
M  V30 6736 O 632.622 3.71281 1.53341 0
M  V30 6737 N 630.828 2.86229 0.502147 0
M  V30 6738 H 630.375 2.55382 -0.337338 0
M  V30 6739 H 630.333 2.83009 1.36942 0
M  V30 6740 N 634.105 1.10431 1.1244 0
M  V30 6741 C 635.053 0.747974 2.20246 0
M  V30 6742 C 636.047 -0.255848 1.67457 0
M  V30 6743 O 637.253 -0.116221 1.79624 0
M  V30 6744 H 633.628 0.223946 0.71788 0
M  V30 6745 H 635.599 1.6661 2.47556 0
M  V30 6746 C 634.348 0.195957 3.47147 0
M  V30 6747 H 633.671 0.959606 3.88113 0
M  V30 6748 H 635.111 -0.0153154 4.23997 0
M  V30 6749 C 633.57 -1.07132 3.19413 0
M  V30 6750 O 634.1 -2.15284 3.3914 0
M  V30 6751 N 632.306 -0.98994 2.73219 0
M  V30 6752 H 631.853 -0.109736 2.57366 0
M  V30 6753 H 631.811 -1.83856 2.55038 0
M  V30 6754 N 635.583 -1.29855 0.893053 0
M  V30 6755 C 636.513 -2.3035 0.382249 0
M  V30 6756 C 637.494 -1.61328 -0.539203 0
M  V30 6757 O 638.679 -1.88882 -0.451342 0
M  V30 6758 C 635.809 -3.45024 -0.396983 0
M  V30 6759 C 634.763 -4.258 0.433437 0
M  V30 6760 C 634.089 -5.32605 -0.472889 0
M  V30 6761 C 635.389 -4.94549 1.67984 0
M  V30 6762 H 637.083 -2.73325 1.22205 0
M  V30 6763 H 634.629 -1.314 0.589073 0
M  V30 6764 H 636.582 -4.14398 -0.765024 0
M  V30 6765 H 635.306 -3.00875 -1.2705 0
M  V30 6766 H 633.965 -3.58125 0.783723 0
M  V30 6767 H 633.613 -4.84702 -1.34435 0
M  V30 6768 H 633.313 -5.87547 0.0789958 0
M  V30 6769 H 634.837 -6.04832 -0.837269 0
M  V30 6770 H 636.251 -5.56395 1.38192 0
M  V30 6771 H 634.648 -5.59393 2.17254 0
M  V30 6772 H 635.718 -4.20215 2.41965 0
M  V30 6773 N 637.061 -0.65484 -1.43351 0
M  V30 6774 C 638.009 0.0476784 -2.32551 0
M  V30 6775 C 639.003 0.811403 -1.48703 0
M  V30 6776 O 640.209 0.721621 -1.64902 0
M  V30 6777 H 636.584 0.0342038 -0.751222 0
M  V30 6778 H 638.555 -0.722342 -2.89525 0
M  V30 6779 C 637.304 0.999251 -3.33032 0
M  V30 6780 H 636.627 0.421005 -3.97577 0
M  V30 6781 H 638.067 1.45986 -3.98076 0
M  V30 6782 C 636.526 2.09606 -2.63756 0
M  V30 6783 O 637.056 3.18004 -2.4543 0
M  V30 6784 N 635.262 1.86207 -2.23103 0
M  V30 6785 H 634.809 0.980555 -2.38208 0
M  V30 6786 H 634.767 2.59787 -1.77081 0
M  V30 6787 N 638.539 1.52521 -0.396863 0
M  V30 6788 C 639.769 2.05792 0.182485 0
M  V30 6789 C 640.177 1.26784 1.40436 0
M  V30 6790 O 639.52 0.309617 1.81072 0
M  V30 6791 C 639.582 3.54291 0.609781 0
M  V30 6792 C 639.246 4.5426 -0.499674 0
M  V30 6793 C 640.243 5.01812 -1.35944 0
M  V30 6794 C 637.928 4.97827 -0.668864 0
M  V30 6795 C 639.922 5.91562 -2.37346 0
M  V30 6796 C 637.609 5.87376 -1.68621 0
M  V30 6797 C 638.607 6.34137 -2.53692 0
M  V30 6798 O 638.295 7.21915 -3.53686 0
M  V30 6799 H 638.027 0.675362 0.0293583 0
M  V30 6800 H 640.581 1.97539 -0.56281 0
M  V30 6801 H 638.811 3.60188 1.40717 0
M  V30 6802 H 640.5 3.90267 1.11565 0
M  V30 6803 H 641.266 4.68879 -1.24008 0
M  V30 6804 H 637.145 4.60997 -0.0163971 0
M  V30 6805 H 640.689 6.27983 -3.03782 0
M  V30 6806 H 636.586 6.19723 -1.80593 0
M  V30 6807 H 637.354 7.39996 -3.49784 0
M  V30 6808 N 640.017 0.126909 1.57088 0
M  V30 6809 C 640.965 -0.837618 2.16995 0
M  V30 6810 C 641.959 -1.26974 1.12133 0
M  V30 6811 O 643.165 -1.24056 1.30423 0
M  V30 6812 H 639.54 -0.288256 0.694559 0
M  V30 6813 H 641.511 -0.307957 2.96807 0
M  V30 6814 C 640.26 -2.07474 2.79016 0
M  V30 6815 H 639.583 -1.75117 3.59408 0
M  V30 6816 H 641.023 -2.72949 3.24461 0
M  V30 6817 C 639.482 -2.86967 1.76498 0
M  V30 6818 O 640.012 -3.82625 1.22316 0
M  V30 6819 N 638.218 -2.51111 1.46258 0
M  V30 6820 H 637.765 -1.73389 1.90509 0
M  V30 6821 H 637.723 -3.04594 0.779085 0
M  V30 6822 N 641.495 -1.56914 -0.146875 0
M  V30 6823 C 642.742 -1.83356 -0.859467 0
M  V30 6824 C 643.07 -0.707811 -1.81164 0
M  V30 6825 O 642.325 0.303155 -1.93338 0
M  V30 6826 C 642.624 -3.16128 -1.66727 0
M  V30 6827 C 642.29 -4.42586 -0.861881 0
M  V30 6828 C 640.952 -4.76929 -0.639687 0
M  V30 6829 C 643.304 -5.20344 -0.298643 0
M  V30 6830 C 640.632 -5.86491 0.156451 0
M  V30 6831 C 642.984 -6.30742 0.484536 0
M  V30 6832 C 641.648 -6.63635 0.717306 0
M  V30 6833 H 640.918 -0.670947 -0.314501 0
M  V30 6834 H 643.565 -1.91104 -0.123108 0
M  V30 6835 H 641.87 -3.03831 -2.47374 0
M  V30 6836 H 643.567 -3.33802 -2.2221 0
M  V30 6837 H 640.157 -4.15662 -1.04513 0
M  V30 6838 H 644.341 -4.94186 -0.457585 0
M  V30 6839 H 639.597 -6.10419 0.346292 0
M  V30 6840 H 643.771 -6.90188 0.928105 0
M  V30 6841 H 641.398 -7.48367 1.33607 0
M  V30 6842 N 642.974 0.416227 -1.52004 0
M  V30 6843 C 643.904 1.51365 -1.77795 0
M  V30 6844 C 644.885 1.58059 -0.628601 0
M  V30 6845 O 646.07 1.73447 -0.873478 0
M  V30 6846 C 643.2 2.89256 -1.92219 0
M  V30 6847 C 642.154 2.97415 -3.0778 0
M  V30 6848 C 641.48 4.37492 -3.07417 0
M  V30 6849 C 642.78 2.69551 -4.47369 0
M  V30 6850 H 644.474 1.30033 -2.69688 0
M  V30 6851 H 642.02 0.624112 -1.29772 0
M  V30 6852 H 643.973 3.66008 -2.08845 0
M  V30 6853 H 642.697 3.11866 -0.969917 0
M  V30 6854 H 641.356 2.23107 -2.90893 0
M  V30 6855 H 641.004 4.571 -2.09925 0
M  V30 6856 H 640.704 4.43877 -3.85029 0
M  V30 6857 H 642.228 5.16188 -3.26162 0
M  V30 6858 H 643.642 3.36028 -4.64497 0
M  V30 6859 H 642.039 2.87321 -5.26846 0
M  V30 6860 H 643.109 1.65029 -4.55953 0
M  V30 6861 N 644.452 1.42507 0.673017 0
M  V30 6862 C 645.362 1.4853 1.81593 0
M  V30 6863 C 646.378 0.373907 1.69935 0
M  V30 6864 O 647.554 0.625078 1.91454 0
M  V30 6865 C 644.619 1.387 3.17747 0
M  V30 6866 C 643.68 2.60346 3.41348 0
M  V30 6867 C 642.913 2.50975 4.71007 0
M  V30 6868 O 643.136 1.54659 5.49033 0
M  V30 6869 O 642.07 3.41138 4.95892 0
M  V30 6870 H 645.896 2.45001 1.79467 0
M  V30 6871 H 643.481 1.2429 0.82899 0
M  V30 6872 H 645.363 1.35586 3.98992 0
M  V30 6873 H 644.038 0.453555 3.20507 0
M  V30 6874 H 642.945 2.69034 2.59945 0
M  V30 6875 H 644.278 3.52595 3.43421 0
M  V30 6876 N 645.93 -0.909495 1.28709 0
M  V30 6877 C 646.878 -2.03381 1.12866 0
M  V30 6878 C 647.872 -1.69335 0.0468074 0
M  V30 6879 O 649.078 -1.78819 0.205891 0
M  V30 6880 H 645.453 -0.666452 0.348348 0
M  V30 6881 H 647.424 -2.13885 2.08077 0
M  V30 6882 C 646.173 -3.38092 0.811742 0
M  V30 6883 H 645.496 -3.64786 1.63619 0
M  V30 6884 H 646.936 -4.17477 0.740869 0
M  V30 6885 C 645.395 -3.33395 -0.484679 0
M  V30 6886 O 645.925 -3.72089 -1.5137 0
M  V30 6887 N 644.131 -2.86491 -0.486961 0
M  V30 6888 H 643.678 -2.55199 0.350877 0
M  V30 6889 H 643.636 -2.83731 -1.3544 0
M  V30 6890 N 647.408 -1.11026 -1.11852 0
M  V30 6891 C 648.341 -0.708501 -2.16923 0
M  V30 6892 C 649.319 0.293196 -1.59935 0
M  V30 6893 O 650.503 0.190641 -1.87533 0
M  V30 6894 C 647.63 -0.0463705 -3.38668 0
M  V30 6895 C 646.676 -1.01252 -4.14307 0
M  V30 6896 S 647.509 -2.53291 -4.71809 0
M  V30 6897 C 648.665 -1.88366 -5.96883 0
M  V30 6898 H 648.898 -1.59854 -2.50667 0
M  V30 6899 H 646.431 -0.927869 -1.2341 0
M  V30 6900 H 648.389 0.329314 -4.09177 0
M  V30 6901 H 647.05 0.820562 -3.03192 0
M  V30 6902 H 646.243 -0.496596 -5.01548 0
M  V30 6903 H 645.845 -1.33042 -3.49537 0
M  V30 6904 H 648.137 -1.21753 -6.6647 0
M  V30 6905 H 649.08 -2.73588 -6.53112 0
M  V30 6906 H 649.488 -1.34562 -5.48227 0
M  V30 6907 N 648.886 1.2938 -0.899927 0
M  V30 6908 C 649.849 2.25983 -0.382677 0
M  V30 6909 C 650.849 1.53366 0.483259 0
M  V30 6910 O 652.039 1.71798 0.28828 0
M  V30 6911 C 649.171 3.37878 0.452915 0
M  V30 6912 H 650.364 2.73252 -1.23586 0
M  V30 6913 H 647.917 1.40825 -0.678088 0
M  V30 6914 H 648.652 2.95949 1.32608 0
M  V30 6915 H 648.437 3.91742 -0.167562 0
M  V30 6916 H 649.927 4.09746 0.806107 0
M  V30 6917 N 650.364 0.662433 1.43002 0
M  V30 6918 C 651.294 -0.00979809 2.33498 0
M  V30 6919 C 652.275 -0.802329 1.49989 0
M  V30 6920 O 653.46 -0.761964 1.78627 0
M  V30 6921 C 650.59 -0.970446 3.33466 0
M  V30 6922 C 649.544 -0.287383 4.27034 0
M  V30 6923 C 648.87 -1.36012 5.17112 0
M  V30 6924 C 650.17 0.82595 5.15728 0
M  V30 6925 H 651.864 0.745959 2.89958 0
M  V30 6926 H 649.41 0.360172 1.39423 0
M  V30 6927 H 651.363 -1.44971 3.95679 0
M  V30 6928 H 650.087 -1.75748 2.75282 0
M  V30 6929 H 648.746 0.17152 3.66199 0
M  V30 6930 H 648.394 -2.13882 4.55262 0
M  V30 6931 H 648.094 -0.908276 5.80538 0
M  V30 6932 H 649.618 -1.84056 5.82199 0
M  V30 6933 H 651.032 0.42845 5.71697 0
M  V30 6934 H 649.429 1.20282 5.87922 0
M  V30 6935 H 650.499 1.68003 4.54866 0
M  V30 6936 N 651.842 -1.52309 0.404946 0
M  V30 6937 C 652.752 -2.30634 -0.429555 0
M  V30 6938 C 653.768 -1.38187 -1.05737 0
M  V30 6939 O 654.944 -1.71261 -1.05979 0
M  V30 6940 C 652.009 -3.10947 -1.53339 0
M  V30 6941 C 651.07 -4.19126 -0.929065 0
M  V30 6942 C 650.303 -4.95601 -1.9803 0
M  V30 6943 O 650.526 -4.72331 -3.1978 0
M  V30 6944 O 649.46 -5.80551 -1.58886 0
M  V30 6945 H 653.286 -3.0298 0.208963 0
M  V30 6946 H 650.871 -1.4845 0.168255 0
M  V30 6947 H 652.753 -3.60974 -2.1743 0
M  V30 6948 H 651.428 -2.41399 -2.15658 0
M  V30 6949 H 650.335 -3.73257 -0.250982 0
M  V30 6950 H 651.668 -4.90955 -0.349855 0
M  V30 6951 N 653.32 -0.135238 -1.57019 0
M  V30 6952 C 654.268 0.826099 -2.17436 0
M  V30 6953 C 655.262 1.26378 -1.12805 0
M  V30 6954 O 656.468 1.23363 -1.31079 0
M  V30 6955 H 652.843 0.284568 -0.696078 0
M  V30 6956 H 654.814 0.292212 -2.96966 0
M  V30 6957 C 653.563 2.05991 -2.80112 0
M  V30 6958 H 652.886 1.73209 -3.60331 0
M  V30 6959 H 654.326 2.71225 -3.25903 0
M  V30 6960 C 652.785 2.86027 -1.78017 0
M  V30 6961 O 653.315 3.81971 -1.24344 0
M  V30 6962 N 651.521 2.50332 -1.47588 0
M  V30 6963 H 651.068 1.72377 -1.91426 0
M  V30 6964 H 651.026 3.04177 -0.795228 0
M  V30 6965 N 654.798 1.5699 0.138552 0
M  V30 6966 C 655.748 1.9532 1.17619 0
M  V30 6967 C 656.732 0.825545 1.38107 0
M  V30 6968 O 657.924 1.08908 1.39528 0
M  V30 6969 C 655.053 2.34451 2.50774 0
M  V30 6970 C 654.139 3.53805 2.33844 0
M  V30 6971 N 654.53 4.70088 1.86685 0
M  V30 6972 C 652.828 3.59055 2.64567 0
M  V30 6973 C 653.529 5.52165 1.82998 0
M  V30 6974 N 652.505 4.94108 2.26624 0
M  V30 6975 H 656.307 2.82694 0.803809 0
M  V30 6976 H 653.821 1.5866 0.346519 0
M  V30 6977 H 655.818 2.60119 3.25797 0
M  V30 6978 H 654.478 1.48431 2.88788 0
M  V30 6979 H 655.489 4.93681 1.56523 0
M  V30 6980 H 652.166 2.83596 3.06398 0
M  V30 6981 H 653.556 6.55407 1.47957 0
M  V30 6982 N 656.276 -0.40816 1.52223 0
M  V30 6983 C 657.524 -1.15274 1.66001 0
M  V30 6984 C 657.845 -1.91003 0.392803 0
M  V30 6985 O 657.115 -1.8673 -0.592336 0
M  V30 6986 H 655.695 -0.428526 0.611861 0
M  V30 6987 H 658.357 -0.46512 1.89269 0
M  V30 6988 H 657.453 -1.86628 2.50153 0
M  V30 6989 N 657.755 -1.42862 -0.66545 0
M  V30 6990 C 659.002 -1.4383 -1.42546 0
M  V30 6991 C 659.33 -0.0581114 -1.94413 0
M  V30 6992 O 658.585 0.935002 -1.71919 0
M  V30 6993 C 658.884 -2.4175 -2.63233 0
M  V30 6994 C 658.55 -3.87915 -2.29854 0
M  V30 6995 C 657.212 -4.27726 -2.20463 0
M  V30 6996 C 659.564 -4.80074 -2.02924 0
M  V30 6997 C 656.892 -5.57666 -1.82279 0
M  V30 6998 C 659.244 -6.10366 -1.66242 0
M  V30 6999 C 657.908 -6.49167 -1.55367 0
M  V30 7000 H 657.178 -0.52631 -0.521612 0
M  V30 7001 H 659.825 -1.75863 -0.757914 0
M  V30 7002 H 658.13 -2.03077 -3.35063 0
M  V30 7003 H 659.827 -2.39759 -3.21429 0
M  V30 7004 H 656.417 -3.564 -2.3807 0
M  V30 7005 H 660.601 -4.50097 -2.09108 0
M  V30 7006 H 655.857 -5.8658 -1.72436 0
M  V30 7007 H 660.031 -6.81258 -1.44432 0
M  V30 7008 H 657.658 -7.49761 -1.2555 0
M  V30 7009 N 659.233 0.902656 -1.29189 0
M  V30 7010 C 660.196 1.98797 -1.14071 0
M  V30 7011 C 661.196 1.60615 -0.0770549 0
M  V30 7012 O 662.386 1.71165 -0.323753 0
M  V30 7013 C 659.518 3.32688 -0.743739 0
M  V30 7014 H 660.711 2.13637 -2.10473 0
M  V30 7015 H 658.264 1.08678 -1.12334 0
M  V30 7016 H 658.999 3.23549 0.220554 0
M  V30 7017 H 658.784 3.61765 -1.51223 0
M  V30 7018 H 660.274 4.12337 -0.660935 0
M  V30 7019 N 660.711 1.11618 1.11262 0
M  V30 7020 C 662.127 0.850468 1.35053 0
M  V30 7021 C 662.327 -0.523868 1.94571 0
M  V30 7022 O 661.383 -1.2743 2.17986 0
M  V30 7023 C 662.696 1.96005 2.28041 0
M  V30 7024 C 664.244 1.98993 2.416 0
M  V30 7025 C 664.719 3.0916 3.37911 0
M  V30 7026 N 666.21 3.08547 3.45475 0
M  V30 7027 C 666.945 3.9043 4.19943 0
M  V30 7028 N 666.441 4.8228 4.97371 0
M  V30 7029 N 668.234 3.786 4.15474 0
M  V30 7030 H 660.385 2.00184 0.709932 0
M  V30 7031 H 662.648 0.870635 0.375099 0
M  V30 7032 H 662.354 2.9499 1.91503 0
M  V30 7033 H 662.228 1.85782 3.28275 0
M  V30 7034 H 664.615 1.00633 2.77411 0
M  V30 7035 H 664.696 2.13292 1.4121 0
M  V30 7036 H 664.34 4.07748 3.02827 0
M  V30 7037 H 664.27 2.92102 4.3816 0
M  V30 7038 H 666.761 2.42 2.90249 0
M  V30 7039 H 667.074 5.41289 5.51567 0
M  V30 7040 H 665.419 4.863 4.96525 0
M  V30 7041 H 668.61 3.06185 3.54074 0
M  V30 7042 H 668.783 4.42647 4.73253 0
M  V30 7043 N 662.189 -1.289 0.906776 0
M  V30 7044 C 663.605 -1.47733 0.603902 0
M  V30 7045 C 663.805 -1.82568 -0.852702 0
M  V30 7046 O 662.861 -1.92642 -1.63234 0
M  V30 7047 C 664.174 -2.58522 1.53581 0
M  V30 7048 C 665.722 -2.72394 1.54177 0
M  V30 7049 C 666.197 -3.86318 2.46013 0
M  V30 7050 N 667.688 -3.93661 2.441 0
M  V30 7051 C 668.423 -4.81177 3.11859 0
M  V30 7052 N 667.919 -5.73333 3.88923 0
M  V30 7053 N 669.712 -4.74728 3.00981 0
M  V30 7054 H 661.863 -1.04567 1.84877 0
M  V30 7055 H 664.126 -0.520118 0.792579 0
M  V30 7056 H 663.832 -2.39667 2.57396 0
M  V30 7057 H 663.706 -3.55475 1.26165 0
M  V30 7058 H 666.093 -2.90641 0.511034 0
M  V30 7059 H 666.174 -1.75993 1.85634 0
M  V30 7060 H 665.818 -3.68826 3.49185 0
M  V30 7061 H 665.748 -4.82102 2.11862 0
M  V30 7062 H 668.239 -3.27751 1.88115 0
M  V30 7063 H 668.552 -6.36923 4.37663 0
M  V30 7064 H 666.897 -5.73196 3.93029 0
M  V30 7065 H 670.088 -4.01722 2.40286 0
M  V30 7066 H 670.261 -5.42719 3.54062 0
M  V30 7067 N 663.667 -0.670007 -1.42649 0
M  V30 7068 C 664.916 -0.187526 -2.00826 0
M  V30 7069 C 665.229 1.21142 -1.53571 0
M  V30 7070 O 666.435 1.79001 -2.04134 0
M  V30 7071 C 664.891 -0.284409 -3.58774 0
M  V30 7072 C 664.499 -1.6871 -4.15019 0
M  V30 7073 C 666.243 0.139605 -4.2427 0
M  V30 7074 C 664.15 -1.73701 -5.65316 0
M  V30 7075 H 663.08 -0.0663468 -0.751075 0
M  V30 7076 H 665.731 -0.834492 -1.63427 0
M  V30 7077 H 664.113 0.430364 -3.93655 0
M  V30 7078 H 665.287 -2.42857 -3.91608 0
M  V30 7079 H 663.602 -2.05855 -3.61957 0
M  V30 7080 H 666.199 0.122398 -5.3456 0
M  V30 7081 H 666.542 1.17403 -3.99402 0
M  V30 7082 H 667.075 -0.523995 -3.94334 0
M  V30 7083 H 663.814 -2.75109 -5.94975 0
M  V30 7084 H 663.334 -1.03903 -5.90732 0
M  V30 7085 H 665.013 -1.48829 -6.2965 0
M  V30 7086 N 665.145 1.52092 -0.413018 0
M  V30 7087 C 666.375 2.05974 0.160648 0
M  V30 7088 C 666.783 1.28267 1.39084 0
M  V30 7089 O 666.126 0.328805 1.80733 0
M  V30 7090 C 666.188 3.54918 0.572169 0
M  V30 7091 C 665.852 4.53705 -0.547826 0
M  V30 7092 C 666.849 5.00342 -1.41259 0
M  V30 7093 C 664.534 4.97089 -0.721627 0
M  V30 7094 C 666.528 5.89011 -2.43607 0
M  V30 7095 C 664.215 5.85554 -1.74841 0
M  V30 7096 C 665.213 6.3141 -2.60403 0
M  V30 7097 O 664.901 7.18123 -3.61323 0
M  V30 7098 H 664.633 0.675636 0.0221936 0
M  V30 7099 H 667.187 1.96931 -0.58373 0
M  V30 7100 H 665.417 3.61661 1.36889 0
M  V30 7101 H 667.106 3.91428 1.0742 0
M  V30 7102 H 667.872 4.67537 -1.28974 0
M  V30 7103 H 663.751 4.60954 -0.0652911 0
M  V30 7104 H 667.295 6.24725 -3.10425 0
M  V30 7105 H 663.192 6.17773 -1.87156 0
M  V30 7106 H 663.96 7.36244 -3.57613 0
M  V30 7107 N 666.623 0.143563 1.56945 0
M  V30 7108 C 667.533 -0.810562 2.20152 0
M  V30 7109 C 668.549 -1.27431 1.1848 0
M  V30 7110 O 669.725 -1.33221 1.51044 0
M  V30 7111 C 666.79 -2.03353 2.80799 0
M  V30 7112 C 665.851 -1.61936 3.97587 0
M  V30 7113 C 665.084 -2.78403 4.55332 0
M  V30 7114 O 665.307 -3.94521 4.11958 0
M  V30 7115 O 664.241 -2.54073 5.45647 0
M  V30 7116 H 668.067 -0.30253 3.02189 0
M  V30 7117 H 665.652 -0.0832925 1.49168 0
M  V30 7118 H 667.534 -2.74932 3.19359 0
M  V30 7119 H 666.209 -2.53116 2.01777 0
M  V30 7120 H 665.116 -0.873904 3.6375 0
M  V30 7121 H 666.449 -1.16892 4.78118 0
M  V30 7122 N 668.101 -1.57061 -0.130224 0
M  V30 7123 C 669.378 -1.75205 -0.869631 0
M  V30 7124 C 669.758 -0.716063 -1.98584 0
M  V30 7125 O 669.106 0.262032 -2.26993 0
M  V30 7126 C 669.316 -3.19835 -1.39666 0
M  V30 7127 C 670.664 -3.82011 -1.85345 0
M  V30 7128 O 671.688 -3.23368 -1.49371 0
M  V30 7129 O 670.547 -4.85064 -2.51744 0
M  V30 7130 H 667.641 -0.716977 -0.412157 0
M  V30 7131 H 670.187 -1.69311 -0.11484 0
M  V30 7132 H 668.959 -3.86745 -0.595288 0
M  V30 7133 H 668.582 -3.30222 -2.21448 0
M  V30 7134 N 669.579 0.400081 -1.52437 0
M  V30 7135 C 670.804 1.17221 -1.71096 0
M  V30 7136 C 671.229 1.83269 -0.423565 0
M  V30 7137 O 670.587 1.70378 0.619751 0
M  V30 7138 C 670.635 2.20425 -2.85386 0
M  V30 7139 O 669.739 3.26769 -2.51586 0
M  V30 7140 H 669.08 0.341766 -0.569291 0
M  V30 7141 H 671.61 0.467772 -1.99181 0
M  V30 7142 H 671.62 2.64605 -3.10561 0
M  V30 7143 H 670.295 1.71737 -3.78786 0
M  V30 7144 H 668.872 2.87804 -2.37114 0
M  V30 7145 N 671.057 1.43213 0.657864 0
M  V30 7146 C 672.334 1.35063 1.41483 0
M  V30 7147 C 672.714 -0.0038314 2.111 0
M  V30 7148 O 672.062 -1.02018 2.04462 0
M  V30 7149 C 672.272 2.53061 2.40335 0
M  V30 7150 C 673.62 2.9594 3.04474 0
M  V30 7151 O 674.644 2.53074 2.50663 0
M  V30 7152 O 673.503 3.70184 4.02027 0
M  V30 7153 H 670.597 0.533517 0.631893 0
M  V30 7154 H 673.143 1.55253 0.685162 0
M  V30 7155 H 671.915 3.43283 1.87809 0
M  V30 7156 H 671.538 2.34945 3.20759 0
M  V30 7157 N 672.536 -0.895792 1.29666 0
M  V30 7158 C 673.499 -1.98189 1.15124 0
M  V30 7159 C 674.499 -1.60572 0.0855717 0
M  V30 7160 O 675.689 -1.70991 0.332826 0
M  V30 7161 C 672.821 -3.32289 0.761372 0
M  V30 7162 H 674.014 -2.12518 2.11603 0
M  V30 7163 H 671.567 -1.0808 1.12908 0
M  V30 7164 H 672.302 -3.23662 -0.203393 0
M  V30 7165 H 672.087 -3.60958 1.53139 0
M  V30 7166 H 673.577 -4.1198 0.682792 0
M  V30 7167 N 674.014 -1.12206 -1.10668 0
M  V30 7168 C 675.291 -0.787382 -1.79052 0
M  V30 7169 C 675.671 0.723267 -1.98323 0
M  V30 7170 O 675.019 1.6561 -1.57434 0
M  V30 7171 C 675.229 -1.55968 -3.1221 0
M  V30 7172 C 676.577 -1.74413 -3.87125 0
M  V30 7173 O 677.601 -1.5246 -3.21923 0
M  V30 7174 O 676.46 -2.10952 -5.04144 0
M  V30 7175 H 673.554 -0.286137 -0.775922 0
M  V30 7176 H 676.1 -1.22595 -1.1734 0
M  V30 7177 H 674.872 -2.58692 -2.93588 0
M  V30 7178 H 674.495 -1.1152 -3.8164 0
M  V30 7179 N 675.492 1.28418 -0.913599 0
M  V30 7180 C 676.422 2.29713 -0.418847 0
M  V30 7181 C 677.403 1.62165 0.513469 0
M  V30 7182 O 678.588 1.89576 0.421235 0
M  V30 7183 C 675.718 3.45612 0.342042 0
M  V30 7184 C 674.672 4.25056 -0.501123 0
M  V30 7185 C 673.998 5.3329 0.388097 0
M  V30 7186 C 675.298 4.91814 -1.75831 0
M  V30 7187 H 676.992 2.71346 -1.26538 0
M  V30 7188 H 674.538 1.30446 -0.609903 0
M  V30 7189 H 676.491 4.15562 0.699 0
M  V30 7190 H 675.215 3.02858 1.22248 0
M  V30 7191 H 673.874 3.56833 -0.840598 0
M  V30 7192 H 673.522 4.8678 1.26707 0
M  V30 7193 H 673.222 5.87347 -0.172459 0
M  V30 7194 H 674.746 6.06088 0.74094 0
M  V30 7195 H 676.16 5.54126 -1.47026 0
M  V30 7196 H 674.557 5.55866 -2.26126 0
M  V30 7197 H 675.627 4.16313 -2.4862 0
M  V30 7198 N 676.97 0.677563 1.42291 0
M  V30 7199 C 677.902 -0.0380218 2.29168 0
M  V30 7200 C 678.915 -0.762714 1.43828 0
M  V30 7201 O 680.104 -0.616413 1.67519 0
M  V30 7202 C 677.204 -1.07761 3.21311 0
M  V30 7203 C 676.377 -0.42618 4.35319 0
M  V30 7204 C 675.436 -1.36592 5.08162 0
M  V30 7205 O 674.462 -0.865174 5.62586 0
M  V30 7206 N 675.664 -2.69909 5.13935 0
M  V30 7207 H 678.429 0.707766 2.91223 0
M  V30 7208 H 675.99 0.52219 1.53247 0
M  V30 7209 H 677.982 -1.70761 3.6691 0
M  V30 7210 H 676.552 -1.72511 2.60689 0
M  V30 7211 H 675.772 0.383385 3.92331 0
M  V30 7212 H 677.06 0.0275277 5.08793 0
M  V30 7213 H 676.458 -3.13129 4.71134 0
M  V30 7214 H 675.015 -3.2815 5.6317 0
M  V30 7215 N 678.448 -1.51871 0.421078 0
M  V30 7216 C 679.378 -2.30231 -0.389363 0
M  V30 7217 C 680.359 -1.34946 -1.03555 0
M  V30 7218 O 681.544 -1.63859 -1.04229 0
M  V30 7219 C 678.674 -3.13247 -1.49979 0
M  V30 7220 C 677.628 -4.16677 -0.977966 0
M  V30 7221 C 676.954 -4.88112 -2.1829 0
M  V30 7222 C 678.254 -5.22295 -0.0236775 0
M  V30 7223 H 679.948 -2.98229 0.264524 0
M  V30 7224 H 677.494 -1.43424 0.12866 0
M  V30 7225 H 679.447 -3.66838 -2.07383 0
M  V30 7226 H 678.171 -2.4304 -2.18173 0
M  V30 7227 H 676.83 -3.64114 -0.426245 0
M  V30 7228 H 676.478 -4.14423 -2.85066 0
M  V30 7229 H 676.178 -5.58041 -1.84021 0
M  V30 7230 H 677.702 -5.44521 -2.76278 0
M  V30 7231 H 679.116 -5.71055 -0.506899 0
M  V30 7232 H 677.513 -5.99656 0.230782 0
M  V30 7233 H 678.583 -4.76131 0.917999 0
M  V30 7234 N 679.926 -0.151884 -1.56866 0
M  V30 7235 C 680.858 0.817008 -2.14144 0
M  V30 7236 C 681.871 1.20735 -1.0921 0
M  V30 7237 O 683.06 1.15058 -1.36469 0
M  V30 7238 C 680.16 2.10844 -2.65326 0
M  V30 7239 C 679.333 1.88471 -3.94712 0
M  V30 7240 C 678.392 3.01649 -4.31155 0
M  V30 7241 O 677.418 2.73127 -4.9939 0
M  V30 7242 N 678.62 4.28947 -3.91132 0
M  V30 7243 H 681.385 0.327448 -2.97906 0
M  V30 7244 H 678.946 0.0315313 -1.61869 0
M  V30 7245 H 680.938 2.85616 -2.86715 0
M  V30 7246 H 679.508 2.51049 -1.86262 0
M  V30 7247 H 678.728 0.977088 -3.81899 0
M  V30 7248 H 680.016 1.70866 -4.79252 0
M  V30 7249 H 679.414 4.54986 -3.36161 0
M  V30 7250 H 677.971 5.00484 -4.17563 0
M  V30 7251 N 681.404 1.57128 0.121893 0
M  V30 7252 C 682.652 1.84335 0.828548 0
M  V30 7253 C 682.973 0.736632 1.80551 0
M  V30 7254 O 682.243 -0.23962 1.94429 0
M  V30 7255 H 680.823 0.680108 0.30897 0
M  V30 7256 H 683.485 1.9459 0.109906 0
M  V30 7257 H 682.581 2.80152 1.37554 0
M  V30 7258 N 682.882 -0.391992 1.52647 0
M  V30 7259 C 684.129 -1.13732 1.67545 0
M  V30 7260 C 684.457 -1.90045 0.413881 0
M  V30 7261 O 683.712 -1.86157 -0.603646 0
M  V30 7262 C 684.011 -2.14401 2.85949 0
M  V30 7263 C 683.677 -1.54767 4.23507 0
M  V30 7264 C 682.339 -1.38229 4.60919 0
M  V30 7265 C 684.691 -1.11382 5.0916 0
M  V30 7266 C 682.019 -0.7685 5.81645 0
M  V30 7267 C 684.371 -0.514143 6.30507 0
M  V30 7268 C 683.035 -0.33604 6.66654 0
M  V30 7269 H 682.305 -0.416174 0.613091 0
M  V30 7270 H 684.952 -0.422327 1.86785 0
M  V30 7271 H 683.257 -2.92108 2.61114 0
M  V30 7272 H 684.954 -2.71974 2.94671 0
M  V30 7273 H 681.544 -1.68626 3.94035 0
M  V30 7274 H 685.728 -1.22962 4.80826 0
M  V30 7275 H 680.984 -0.618681 6.08262 0
M  V30 7276 H 685.158 -0.169657 6.96193 0
M  V30 7277 H 682.785 0.14166 7.60068 0
M  V30 7278 N 684.36 -1.4356 -0.65026 0
M  V30 7279 C 685.59 -1.48563 -1.4357 0
M  V30 7280 C 685.998 -0.103041 -1.88919 0
M  V30 7281 O 685.341 0.897602 -1.60277 0
M  V30 7282 C 685.403 -2.37181 -2.70158 0
M  V30 7283 C 685.067 -3.84673 -2.4673 0
M  V30 7284 C 686.064 -4.75704 -2.09765 0
M  V30 7285 C 683.749 -4.29189 -2.60963 0
M  V30 7286 C 685.743 -6.09249 -1.87334 0
M  V30 7287 C 683.43 -5.62787 -2.38147 0
M  V30 7288 C 684.428 -6.52634 -2.01389 0
M  V30 7289 O 684.116 -7.83761 -1.78813 0
M  V30 7290 H 683.848 -0.506743 -0.447423 0
M  V30 7291 H 686.402 -1.89001 -0.80423 0
M  V30 7292 H 684.632 -1.91636 -3.35876 0
M  V30 7293 H 686.321 -2.33354 -3.32116 0
M  V30 7294 H 687.087 -4.42589 -1.98343 0
M  V30 7295 H 682.966 -3.59529 -2.88548 0
M  V30 7296 H 686.51 -6.7934 -1.58567 0
M  V30 7297 H 682.407 -5.95469 -2.49173 0
M  V30 7298 H 683.175 -7.95368 -1.93214 0
M  V30 7299 N 685.838 0.888903 -1.30139 0
M  V30 7300 C 686.748 2.02705 -1.18101 0
M  V30 7301 C 687.764 1.73702 -0.101809 0
M  V30 7302 O 688.94 1.98906 -0.315984 0
M  V30 7303 C 686.005 3.35616 -0.869651 0
M  V30 7304 C 685.066 3.78067 -2.03381 0
M  V30 7305 C 684.299 5.04635 -1.73721 0
M  V30 7306 O 684.522 5.66531 -0.663267 0
M  V30 7307 O 683.456 5.43399 -2.58845 0
M  V30 7308 H 687.282 2.15788 -2.13704 0
M  V30 7309 H 684.867 1.01426 -1.09695 0
M  V30 7310 H 686.749 4.15358 -0.711043 0
M  V30 7311 H 685.424 3.23651 0.0565002 0
M  V30 7312 H 684.331 2.99046 -2.24772 0
M  V30 7313 H 685.664 3.94631 -2.94155 0
M  V30 7314 N 687.317 1.12792 1.10072 0
M  V30 7315 C 688.227 0.812369 2.20086 0
M  V30 7316 C 689.243 -0.200349 1.72843 0
M  V30 7317 O 690.419 -0.0330262 2.01373 0
M  V30 7318 C 687.484 0.275685 3.45602 0
M  V30 7319 C 686.545 1.34881 4.07561 0
M  V30 7320 C 685.778 0.837639 5.27086 0
M  V30 7321 O 686.001 -0.327224 5.69461 0
M  V30 7322 O 684.935 1.60894 5.79997 0
M  V30 7323 H 688.761 1.73133 2.49517 0
M  V30 7324 H 686.346 0.904863 1.18881 0
M  V30 7325 H 688.228 -0.0185375 4.21396 0
M  V30 7326 H 686.903 -0.615783 3.17789 0
M  V30 7327 H 685.81 1.69625 3.33434 0
M  V30 7328 H 687.143 2.21418 4.39585 0
M  V30 7329 N 688.795 -1.27931 0.920396 0
M  V30 7330 C 690.041 -1.94977 0.557832 0
M  V30 7331 C 690.374 -1.72224 -0.897365 0
M  V30 7332 O 689.649 -1.04705 -1.63912 0
M  V30 7333 C 689.932 -3.49289 0.875741 0
M  V30 7334 C 689.785 -3.81416 2.38416 0
M  V30 7335 C 691.104 -4.38486 0.376517 0
M  V30 7336 H 688.223 -0.708164 0.20414 0
M  V30 7337 H 690.865 -1.5118 1.15085 0
M  V30 7338 H 689.015 -3.86724 0.371062 0
M  V30 7339 H 690.687 -3.53813 2.95997 0
M  V30 7340 H 688.93 -3.28225 2.83639 0
M  V30 7341 H 689.601 -4.89198 2.55713 0
M  V30 7342 H 692.077 -4.08161 0.808945 0
M  V30 7343 H 690.953 -5.45296 0.627976 0
M  V30 7344 H 691.214 -4.36143 -0.723293 0
M  V30 7345 N 690.273 -0.685099 -1.4193 0
M  V30 7346 C 691.236 -0.0222632 -2.29189 0
M  V30 7347 C 692.236 0.7186 -1.4385 0
M  V30 7348 O 693.426 0.555058 -1.6512 0
M  V30 7349 C 690.558 0.979013 -3.2654 0
M  V30 7350 H 691.751 -0.790424 -2.89296 0
M  V30 7351 H 689.304 -0.448012 -1.49742 0
M  V30 7352 H 690.039 1.77531 -2.71392 0
M  V30 7353 H 689.824 0.451037 -3.89497 0
M  V30 7354 H 691.314 1.44091 -3.91954 0
M  V30 7355 N 691.751 1.51645 -0.429126 0
M  V30 7356 C 692.699 2.29119 0.400921 0
M  V30 7357 C 693.693 1.34628 1.02819 0
M  V30 7358 O 694.899 1.52004 0.964098 0
M  V30 7359 H 691.274 0.737273 0.148095 0
M  V30 7360 H 693.245 2.97144 -0.273457 0
M  V30 7361 C 691.994 3.13953 1.49429 0
M  V30 7362 H 691.317 3.86544 1.02097 0
M  V30 7363 H 692.757 3.71232 2.04849 0
M  V30 7364 C 691.216 2.28796 2.47293 0
M  V30 7365 O 691.746 1.94193 3.51642 0
M  V30 7366 N 689.952 1.92177 2.17982 0
M  V30 7367 H 689.499 2.20517 1.33154 0
M  V30 7368 H 689.457 1.35497 2.83704 0
M  V30 7369 N 693.229 0.160201 1.56784 0
M  V30 7370 C 694.64 -0.358417 1.83227 0
M  V30 7371 C 694.991 -1.63831 1.07952 0
M  V30 7372 O 694.116 -2.13885 0.328995 0
M  V30 7373 C 694.711 -0.657058 3.32368 0
M  V30 7374 C 693.27 -1.12015 3.59346 0
M  V30 7375 C 692.417 -0.15015 2.76893 0
M  V30 7376 H 695.368 0.384669 1.53967 0
M  V30 7377 H 695.389 -1.51033 3.49241 0
M  V30 7378 H 694.901 0.274647 3.87127 0
M  V30 7379 H 693.002 -2.06734 3.09987 0
M  V30 7380 H 693.115 -1.037 4.67743 0
M  V30 7381 H 691.479 -0.645361 2.46388 0
M  V30 7382 H 692.262 0.775379 3.34429 0
M  V30 7383 N 694.707 -1.5719 -0.113559 0
M  V30 7384 C 695.637 -2.03772 -1.14013 0
M  V30 7385 C 696.618 -0.923176 -1.42869 0
M  V30 7386 O 697.803 -1.19325 -1.53216 0
M  V30 7387 C 694.933 -2.44663 -2.4649 0
M  V30 7388 C 693.887 -3.59612 -2.32085 0
M  V30 7389 C 693.213 -3.8642 -3.69573 0
M  V30 7390 C 694.513 -4.91149 -1.7768 0
M  V30 7391 H 696.207 -2.89785 -0.752665 0
M  V30 7392 H 693.753 -1.39412 -0.360609 0
M  V30 7393 H 695.706 -2.75857 -3.18561 0
M  V30 7394 H 694.43 -1.55628 -2.87137 0
M  V30 7395 H 693.089 -3.28636 -1.62461 0
M  V30 7396 H 692.737 -2.94581 -4.07715 0
M  V30 7397 H 692.437 -4.63797 -3.60786 0
M  V30 7398 H 693.961 -4.2007 -4.4314 0
M  V30 7399 H 695.375 -5.20843 -2.39574 0
M  V30 7400 H 693.772 -5.72562 -1.79701 0
M  V30 7401 H 694.842 -4.79301 -0.734776 0
M  V30 7402 N 696.185 0.383891 -1.52853 0
M  V30 7403 C 697.115 1.47559 -1.80965 0
M  V30 7404 C 698.096 1.5669 -0.661986 0
M  V30 7405 O 699.281 1.71556 -0.910072 0
M  V30 7406 C 696.411 2.85114 -1.98312 0
M  V30 7407 C 695.365 2.9082 -3.14019 0
M  V30 7408 C 694.691 4.30873 -3.16627 0
M  V30 7409 C 695.991 2.60001 -4.52986 0
M  V30 7410 H 697.685 1.24283 -2.72386 0
M  V30 7411 H 695.231 0.596445 -1.31067 0
M  V30 7412 H 697.184 3.61496 -2.16561 0
M  V30 7413 H 695.908 3.09738 -1.03585 0
M  V30 7414 H 694.567 2.16886 -2.9556 0
M  V30 7415 H 694.215 4.52545 -2.19573 0
M  V30 7416 H 693.915 4.3561 -3.94357 0
M  V30 7417 H 695.439 5.09154 -3.37038 0
M  V30 7418 H 696.853 3.261 -4.71521 0
M  V30 7419 H 695.25 2.76081 -5.32822 0
M  V30 7420 H 696.32 1.5532 -4.59351 0
M  V30 7421 N 697.663 1.43903 0.642637 0
M  V30 7422 C 698.891 1.4954 1.42988 0
M  V30 7423 C 699.306 0.116588 1.8844 0
M  V30 7424 O 698.663 -0.875285 1.60141 0
M  V30 7425 C 698.714 2.45031 2.65785 0
M  V30 7426 O 698.435 3.77551 2.22232 0
M  V30 7427 C 699.936 2.60017 3.59035 0
M  V30 7428 H 697.156 0.507544 0.438907 0
M  V30 7429 H 699.7 1.88752 0.786942 0
M  V30 7430 H 697.855 2.08985 3.26196 0
M  V30 7431 H 698.269 4.29001 3.01759 0
M  V30 7432 H 699.743 3.30887 4.41835 0
M  V30 7433 H 700.22 1.64861 4.07084 0
M  V30 7434 H 700.826 2.96918 3.045 0
M  V30 7435 N 699.141 -0.881989 1.30609 0
M  V30 7436 C 700.389 -1.63082 1.19368 0
M  V30 7437 C 700.71 -1.93376 -0.251147 0
M  V30 7438 O 699.98 -1.5723 -1.16857 0
M  V30 7439 H 698.56 -0.604542 0.438791 0
M  V30 7440 H 701.222 -1.05658 1.63776 0
M  V30 7441 H 700.318 -2.57966 1.7567 0
M  V30 7442 N 700.619 -1.13374 -1.09472 0
M  V30 7443 C 701.865 -0.896516 -1.81908 0
M  V30 7444 C 702.198 0.575933 -1.85463 0
M  V30 7445 O 701.473 1.42618 -1.32251 0
M  V30 7446 C 701.756 -1.48445 -3.28079 0
M  V30 7447 C 701.609 -3.02598 -3.32798 0
M  V30 7448 C 702.928 -1.15226 -4.24748 0
M  V30 7449 H 700.047 -0.327127 -0.660422 0
M  V30 7450 H 702.689 -1.40195 -1.2824 0
M  V30 7451 H 700.839 -1.0546 -3.73912 0
M  V30 7452 H 702.511 -3.54335 -2.95372 0
M  V30 7453 H 700.754 -3.37613 -2.72397 0
M  V30 7454 H 701.425 -3.38835 -4.3577 0
M  V30 7455 H 703.901 -1.52369 -3.87199 0
M  V30 7456 H 702.777 -1.59012 -5.25363 0
M  V30 7457 H 703.038 -0.0658891 -4.42051 0
M  V30 7458 N 702.098 1.27442 -0.927168 0
M  V30 7459 C 703.008 2.30599 -0.431448 0
M  V30 7460 C 704.024 1.67028 0.48761 0
M  V30 7461 O 705.2 1.97962 0.370546 0
M  V30 7462 C 702.265 3.45327 0.308292 0
M  V30 7463 C 701.326 4.24418 -0.645615 0
M  V30 7464 C 700.559 5.33667 0.0589164 0
M  V30 7465 O 700.782 5.5589 1.27838 0
M  V30 7466 O 699.716 5.98774 -0.612638 0
M  V30 7467 H 703.542 2.75036 -1.28797 0
M  V30 7468 H 701.127 1.32382 -0.692495 0
M  V30 7469 H 703.009 4.15107 0.725555 0
M  V30 7470 H 701.684 3.02945 1.14043 0
M  V30 7471 H 700.591 3.57174 -1.11255 0
M  V30 7472 H 701.924 4.70512 -1.44496 0
M  V30 7473 N 703.576 0.692616 1.41565 0
M  V30 7474 C 704.509 -0.025063 2.28186 0
M  V30 7475 C 705.487 -0.790912 1.42068 0
M  V30 7476 O 706.671 -0.782344 1.71498 0
M  V30 7477 C 703.798 -1.04285 3.22246 0
M  V30 7478 C 702.844 -0.370515 4.24888 0
M  V30 7479 S 703.677 0.884942 5.28137 0
M  V30 7480 C 704.833 -0.131324 6.25762 0
M  V30 7481 H 705.066 0.709626 2.88707 0
M  V30 7482 H 702.599 0.482783 1.46658 0
M  V30 7483 H 704.557 -1.62493 3.7697 0
M  V30 7484 H 703.218 -1.7501 2.60827 0
M  V30 7485 H 702.411 -1.13911 4.90959 0
M  V30 7486 H 702.013 0.138411 3.73744 0
M  V30 7487 H 704.305 -0.985527 6.70294 0
M  V30 7488 H 705.248 0.495384 7.06365 0
M  V30 7489 H 705.656 -0.484777 5.62415 0
M  V30 7490 N 705.054 -1.51416 0.437162 0
M  V30 7491 C 705.964 -2.31493 -0.380537 0
M  V30 7492 C 706.98 -1.40399 -1.02782 0
M  V30 7493 O 708.156 -1.73471 -1.02323 0
M  V30 7494 C 705.221 -3.1413 -1.46709 0
M  V30 7495 C 704.282 -4.21003 -0.839953 0
M  V30 7496 C 703.515 -4.9969 -1.87473 0
M  V30 7497 O 703.738 -4.79008 -3.09689 0
M  V30 7498 O 702.672 -5.8379 -1.46536 0
M  V30 7499 H 706.498 -3.02469 0.273183 0
M  V30 7500 H 704.083 -1.48059 0.199706 0
M  V30 7501 H 705.965 -3.65505 -2.09724 0
M  V30 7502 H 704.64 -2.45919 -2.10489 0
M  V30 7503 H 703.547 -3.73706 -0.171752 0
M  V30 7504 H 704.88 -4.91587 -0.245638 0
M  V30 7505 N 706.532 -0.168513 -1.56696 0
M  V30 7506 C 707.762 0.482802 -2.0088 0
M  V30 7507 C 708.17 1.57537 -1.0478 0
M  V30 7508 O 707.513 1.83656 -0.0402746 0
M  V30 7509 C 707.575 1.1236 -3.4149 0
M  V30 7510 C 707.239 0.173027 -4.56672 0
M  V30 7511 C 708.236 -0.607565 -5.16338 0
M  V30 7512 C 705.921 0.0696691 -5.02252 0
M  V30 7513 C 707.915 -1.47874 -6.2001 0
M  V30 7514 C 705.602 -0.805096 -6.05773 0
M  V30 7515 C 706.6 -1.57789 -6.64524 0
M  V30 7516 O 706.288 -2.43804 -7.66038 0
M  V30 7517 H 706.02 0.128246 -0.663723 0
M  V30 7518 H 708.574 -0.266532 -2.03663 0
M  V30 7519 H 706.804 1.921 -3.35611 0
M  V30 7520 H 708.493 1.67683 -3.69645 0
M  V30 7521 H 709.259 -0.53787 -4.82008 0
M  V30 7522 H 705.138 0.660957 -4.56237 0
M  V30 7523 H 708.682 -2.0824 -6.65794 0
M  V30 7524 H 704.579 -0.876005 -6.39528 0
M  V30 7525 H 705.347 -2.37289 -7.83349 0
M  V30 7526 N 708.01 1.57248 0.105221 0
M  V30 7527 C 709.421 1.74612 0.660865 0
M  V30 7528 C 709.772 0.789231 1.79626 0
M  V30 7529 O 708.897 -0.0346611 2.16372 0
M  V30 7530 C 709.492 3.16624 1.20559 0
M  V30 7531 C 708.051 3.35447 1.7074 0
M  V30 7532 C 707.198 2.70445 0.612764 0
M  V30 7533 H 710.149 1.5824 -0.12079 0
M  V30 7534 H 710.17 3.18937 2.07508 0
M  V30 7535 H 709.682 3.86245 0.379012 0
M  V30 7536 H 707.783 2.7089 2.5583 0
M  V30 7537 H 707.896 4.43702 1.80736 0
M  V30 7538 H 706.26 2.32061 1.04975 0
M  V30 7539 H 707.043 3.42699 -0.203066 0
M  V30 7540 N 709.488 -0.375779 1.53054 0
M  V30 7541 C 710.398 -1.48381 1.81715 0
M  V30 7542 C 711.414 -1.59087 0.704795 0
M  V30 7543 O 712.59 -1.75174 0.993785 0
M  V30 7544 C 709.655 -2.83767 1.99192 0
M  V30 7545 C 708.716 -2.82673 3.23102 0
M  V30 7546 C 707.949 -4.11601 3.39736 0
M  V30 7547 O 708.172 -5.07243 2.60885 0
M  V30 7548 O 707.106 -4.18034 4.33049 0
M  V30 7549 H 710.932 -1.27089 2.7583 0
M  V30 7550 H 708.517 -0.564902 1.38308 0
M  V30 7551 H 710.399 -3.64004 2.12318 0
M  V30 7552 H 709.074 -3.05057 1.08267 0
M  V30 7553 H 707.981 -2.0117 3.15407 0
M  V30 7554 H 709.314 -2.66335 4.13916 0
M  V30 7555 N 710.966 -1.44241 -0.634997 0
M  V30 7556 C 711.914 -1.51103 -1.76835 0
M  V30 7557 C 712.908 -0.383051 -1.65012 0
M  V30 7558 O 714.114 -0.557832 -1.71138 0
M  V30 7559 H 710.489 -0.474076 -0.583743 0
M  V30 7560 H 712.46 -2.46499 -1.68169 0
M  V30 7561 C 711.209 -1.4687 -3.15158 0
M  V30 7562 H 710.532 -2.32979 -3.24901 0
M  V30 7563 H 711.972 -1.55731 -3.94365 0
M  V30 7564 C 710.431 -0.188884 -3.3637 0
M  V30 7565 O 710.961 0.742487 -3.94778 0
M  V30 7566 N 709.167 -0.0932516 -2.9045 0
M  V30 7567 H 708.714 -0.852004 -2.43102 0
M  V30 7568 H 708.672 0.762308 -3.05018 0
M  V30 7569 N 712.444 0.87505 -1.31075 0
M  V30 7570 C 713.407 1.96333 -1.18263 0
M  V30 7571 C 714.407 1.60416 -0.111106 0
M  V30 7572 O 715.597 1.7044 -0.359987 0
M  V30 7573 C 712.729 3.31036 -0.81414 0
M  V30 7574 H 713.922 2.09125 -2.14958 0
M  V30 7575 H 711.475 1.06271 -1.14614 0
M  V30 7576 H 712.21 3.23944 0.151875 0
M  V30 7577 H 711.995 3.58476 -1.58862 0
M  V30 7578 H 713.485 4.10842 -0.748249 0
M  V30 7579 N 713.922 1.13953 1.08869 0
M  V30 7580 C 715.171 0.899431 1.80536 0
M  V30 7581 C 715.484 -0.575781 1.86933 0
M  V30 7582 O 716.69 -0.932988 2.54966 0
M  V30 7583 C 715.146 1.55963 3.24351 0
M  V30 7584 C 714.754 3.07077 3.26202 0
M  V30 7585 C 716.498 1.40046 4.00733 0
M  V30 7586 C 714.405 3.65955 4.64576 0
M  V30 7587 H 713.335 0.332849 0.676556 0
M  V30 7588 H 715.986 1.3679 1.22314 0
M  V30 7589 H 714.368 1.01883 3.82669 0
M  V30 7590 H 715.542 3.67785 2.77617 0
M  V30 7591 H 713.857 3.22576 2.63312 0
M  V30 7592 H 716.454 1.81441 5.02974 0
M  V30 7593 H 716.797 0.345993 4.1486 0
M  V30 7594 H 717.33 1.91137 3.48872 0
M  V30 7595 H 714.069 4.71234 4.55652 0
M  V30 7596 H 713.589 3.10027 5.13462 0
M  V30 7597 H 715.268 3.65968 5.33551 0
M  V30 7598 N 715.4 -1.26948 0.933913 0
M  V30 7599 C 716.33 -2.29017 0.45534 0
M  V30 7600 C 717.311 -1.62961 -0.487605 0
M  V30 7601 O 718.496 -1.90223 -0.391022 0
M  V30 7602 C 715.626 -3.46112 -0.287015 0
M  V30 7603 C 714.58 -4.24205 0.568682 0
M  V30 7604 C 713.906 -5.3384 -0.303206 0
M  V30 7605 C 715.206 -4.88954 1.83633 0
M  V30 7606 H 716.9 -2.69298 1.30839 0
M  V30 7607 H 714.446 -1.29459 0.630579 0
M  V30 7608 H 716.399 -4.16622 -0.6328 0
M  V30 7609 H 715.123 -3.04765 -1.17414 0
M  V30 7610 H 713.782 -3.5545 0.897261 0
M  V30 7611 H 713.43 -4.88734 -1.18947 0
M  V30 7612 H 713.13 -5.86998 0.265879 0
M  V30 7613 H 714.654 -6.0719 -0.644423 0
M  V30 7614 H 716.068 -5.51717 1.55823 0
M  V30 7615 H 714.465 -5.52198 2.34941 0
M  V30 7616 H 715.535 -4.12305 2.55211 0
M  V30 7617 N 716.879 -0.700114 -1.41195 0
M  V30 7618 C 718.156 -0.160836 -1.94938 0
M  V30 7619 C 718.536 1.33014 -1.63922 0
M  V30 7620 O 717.884 2.07878 -0.948636 0
M  V30 7621 C 718.094 -0.456991 -3.45995 0
M  V30 7622 C 719.442 -0.387207 -4.22831 0
M  V30 7623 O 720.466 -0.392164 -3.54035 0
M  V30 7624 O 719.325 -0.351267 -5.4537 0
M  V30 7625 H 716.419 -0.0176304 -0.826812 0
M  V30 7626 H 718.965 -0.776586 -1.50888 0
M  V30 7627 H 717.737 -1.48884 -3.61869 0
M  V30 7628 H 717.36 0.189503 -3.97148 0
M  V30 7629 N 718.357 1.51182 -0.445186 0
M  V30 7630 C 719.287 2.30821 0.352686 0
M  V30 7631 C 720.268 1.36576 1.01395 0
M  V30 7632 O 721.453 1.65497 1.01609 0
M  V30 7633 C 718.583 3.15593 1.44976 0
M  V30 7634 C 717.537 4.1818 0.911553 0
M  V30 7635 C 716.863 4.91523 2.10497 0
M  V30 7636 C 718.163 5.22266 -0.059418 0
M  V30 7637 H 719.857 2.97771 -0.311936 0
M  V30 7638 H 717.403 1.43201 -0.151461 0
M  V30 7639 H 719.356 3.70091 2.01521 0
M  V30 7640 H 718.08 2.4648 2.14278 0
M  V30 7641 H 716.739 3.64746 0.368264 0
M  V30 7642 H 716.387 4.18906 2.78437 0
M  V30 7643 H 716.087 5.60898 1.7512 0
M  V30 7644 H 717.611 5.48847 2.6758 0
M  V30 7645 H 719.025 5.71789 0.415985 0
M  V30 7646 H 717.422 5.99213 -0.326152 0
M  V30 7647 H 718.492 4.7461 -0.993631 0
M  V30 7648 N 719.835 0.176821 1.56605 0
M  V30 7649 C 721.063 -0.472828 2.01425 0
M  V30 7650 C 721.478 -1.56436 1.05703 0
M  V30 7651 O 720.835 -1.82405 0.058808 0
M  V30 7652 C 720.886 -1.04607 3.46034 0
M  V30 7653 O 720.607 0.00189608 4.381 0
M  V30 7654 C 722.108 -1.7734 4.06282 0
M  V30 7655 H 719.328 -0.120503 0.660091 0
M  V30 7656 H 721.872 0.280166 2.02572 0
M  V30 7657 H 720.027 -1.74953 3.45645 0
M  V30 7658 H 720.441 -0.422118 5.22799 0
M  V30 7659 H 721.915 -2.12703 5.09374 0
M  V30 7660 H 722.392 -2.67043 3.4869 0
M  V30 7661 H 722.998 -1.11623 4.10391 0
M  V30 7662 N 721.313 -1.57302 -0.09688 0
M  V30 7663 C 722.245 -1.98618 -1.14384 0
M  V30 7664 C 723.258 -0.888483 -1.36418 0
M  V30 7665 O 724.447 -1.16661 -1.35101 0
M  V30 7666 C 721.547 -2.28838 -2.49973 0
M  V30 7667 C 720.72 -3.60132 -2.48241 0
M  V30 7668 C 719.779 -3.7831 -3.65743 0
M  V30 7669 O 718.805 -4.50183 -3.48316 0
M  V30 7670 N 720.007 -3.18752 -4.85157 0
M  V30 7671 H 722.772 -2.8904 -0.792202 0
M  V30 7672 H 720.333 -1.59356 -0.285883 0
M  V30 7673 H 722.325 -2.38193 -3.27179 0
M  V30 7674 H 720.895 -1.44431 -2.77233 0
M  V30 7675 H 720.115 -3.61763 -1.56593 0
M  V30 7676 H 721.403 -4.46389 -2.4416 0
M  V30 7677 H 720.801 -2.60368 -5.0222 0
M  V30 7678 H 719.358 -3.33595 -5.59962 0
M  V30 7679 N 722.791 0.367657 -1.53252 0
M  V30 7680 C 723.739 1.47061 -1.8021 0
M  V30 7681 C 724.733 1.55539 -0.671112 0
M  V30 7682 O 725.939 1.58451 -0.854014 0
M  V30 7683 H 722.314 0.489868 -0.570555 0
M  V30 7684 H 724.285 1.21527 -2.72532 0
M  V30 7685 C 723.034 2.83924 -2.00706 0
M  V30 7686 H 722.357 2.78158 -2.87172 0
M  V30 7687 H 723.797 3.60281 -2.23547 0
M  V30 7688 C 722.256 3.27613 -0.785568 0
M  V30 7689 O 722.786 4.01691 0.0267459 0
M  V30 7690 N 720.992 2.84134 -0.609597 0
M  V30 7691 H 720.539 2.24017 -1.27178 0
M  V30 7692 H 720.497 3.13723 0.206281 0
M  V30 7693 N 724.269 1.44576 0.627338 0
M  V30 7694 C 725.497 1.51048 1.41394 0
M  V30 7695 C 725.912 0.136568 1.88305 0
M  V30 7696 O 725.269 -0.858251 1.6106 0
M  V30 7697 C 725.32 2.47837 2.63172 0
M  V30 7698 O 725.041 3.79887 2.18215 0
M  V30 7699 C 726.542 2.63811 3.56257 0
M  V30 7700 H 723.762 0.512171 0.4335 0
M  V30 7701 H 726.306 1.89576 0.766878 0
M  V30 7702 H 724.461 2.12433 3.23961 0
M  V30 7703 H 724.875 4.32177 2.97192 0
M  V30 7704 H 726.349 3.35554 4.38301 0
M  V30 7705 H 726.826 1.69169 4.05313 0
M  V30 7706 H 727.432 3.0013 3.01333 0
M  V30 7707 N 725.747 -0.868086 1.31537 0
M  V30 7708 C 726.977 -1.65162 1.24118 0
M  V30 7709 C 727.385 -1.88187 -0.195558 0
M  V30 7710 O 726.728 -1.44154 -1.13866 0
M  V30 7711 C 726.79 -3.04119 1.91708 0
M  V30 7712 C 726.454 -3.04194 3.4105 0
M  V30 7713 C 727.451 -2.82016 4.36764 0
M  V30 7714 C 725.136 -3.25256 3.82772 0
M  V30 7715 C 727.13 -2.80881 5.72175 0
M  V30 7716 C 724.817 -3.23749 5.18295 0
M  V30 7717 C 725.815 -3.01589 6.12808 0
M  V30 7718 O 725.503 -2.9993 7.45853 0
M  V30 7719 H 725.235 -0.521597 0.430015 0
M  V30 7720 H 727.789 -1.09165 1.73989 0
M  V30 7721 H 726.019 -3.61849 1.36389 0
M  V30 7722 H 727.708 -3.64701 1.78179 0
M  V30 7723 H 728.474 -2.65525 4.05859 0
M  V30 7724 H 724.353 -3.41534 3.09638 0
M  V30 7725 H 727.897 -2.63503 6.45919 0
M  V30 7726 H 723.794 -3.39781 5.48834 0
M  V30 7727 H 724.562 -3.15979 7.55049 0
M  V30 7728 N 727.225 -1.14528 -1.08264 0
M  V30 7729 C 728.157 -0.791325 -2.15106 0
M  V30 7730 C 729.17 0.192449 -1.61659 0
M  V30 7731 O 730.359 -0.0294704 -1.78476 0
M  V30 7732 C 727.459 -0.154183 -3.38549 0
M  V30 7733 C 726.632 -1.17305 -4.21377 0
M  V30 7734 C 725.691 -0.559401 -5.23218 0
M  V30 7735 O 724.717 -1.22277 -5.55911 0
M  V30 7736 N 725.919 0.663159 -5.767 0
M  V30 7737 H 728.684 -1.71076 -2.46075 0
M  V30 7738 H 726.245 -1.0399 -1.24087 0
M  V30 7739 H 728.237 0.268884 -4.03806 0
M  V30 7740 H 726.807 0.668418 -3.0537 0
M  V30 7741 H 726.027 -1.773 -3.52077 0
M  V30 7742 H 727.315 -1.86128 -4.73533 0
M  V30 7743 H 726.713 1.22066 -5.52373 0
M  V30 7744 H 725.27 1.02871 -6.43631 0
M  V30 7745 N 728.703 1.26451 -0.940633 0
M  V30 7746 C 729.653 2.24086 -0.420669 0
M  V30 7747 C 730.637 1.53501 0.482301 0
M  V30 7748 O 731.829 1.74127 0.317636 0
M  V30 7749 C 728.958 3.41866 0.313452 0
M  V30 7750 C 728.044 4.19737 -0.606779 0
M  V30 7751 N 728.435 4.7521 -1.73232 0
M  V30 7752 C 726.733 4.44091 -0.41226 0
M  V30 7753 C 727.434 5.34052 -2.30572 0
M  V30 7754 N 726.41 5.1971 -1.59381 0
M  V30 7755 H 730.212 2.64569 -1.27986 0
M  V30 7756 H 727.726 1.4153 -0.796436 0
M  V30 7757 H 729.723 4.1093 0.702991 0
M  V30 7758 H 728.383 3.0291 1.16942 0
M  V30 7759 H 729.394 4.72769 -2.11447 0
M  V30 7760 H 726.071 4.1556 0.401984 0
M  V30 7761 H 727.461 5.87845 -3.25404 0
M  V30 7762 N 730.181 0.707592 1.40822 0
M  V30 7763 C 731.428 0.243671 2.01029 0
M  V30 7764 C 731.756 -1.16057 1.5608 0
M  V30 7765 O 731.011 -1.7999 0.768251 0
M  V30 7766 C 731.31 0.262892 3.56432 0
M  V30 7767 C 730.976 1.61632 4.20935 0
M  V30 7768 C 729.638 1.98682 4.38268 0
M  V30 7769 C 731.99 2.50619 4.5699 0
M  V30 7770 C 729.318 3.2428 4.88937 0
M  V30 7771 C 731.67 3.75562 5.09054 0
M  V30 7772 C 730.334 4.12739 5.24598 0
M  V30 7773 H 729.604 0.0891654 0.735616 0
M  V30 7774 H 732.251 0.909051 1.68548 0
M  V30 7775 H 730.556 -0.486052 3.88773 0
M  V30 7776 H 732.253 -0.113775 4.00839 0
M  V30 7777 H 728.843 1.31818 4.07826 0
M  V30 7778 H 733.027 2.23272 4.43242 0
M  V30 7779 H 728.283 3.53064 4.99155 0
M  V30 7780 H 732.457 4.44692 5.35931 0
M  V30 7781 H 730.084 5.10132 5.63622 0
M  V30 7782 N 731.66 -1.50943 0.453197 0
M  V30 7783 C 732.89 -2.06328 -0.105981 0
M  V30 7784 C 733.298 -1.31909 -1.35634 0
M  V30 7785 O 732.641 -0.376607 -1.79798 0
M  V30 7786 C 732.703 -3.5631 -0.477868 0
M  V30 7787 C 732.367 -4.52093 0.667925 0
M  V30 7788 C 733.364 -4.96421 1.54475 0
M  V30 7789 C 731.049 -4.95001 0.853168 0
M  V30 7790 C 733.043 -5.82346 2.59138 0
M  V30 7791 C 730.73 -5.80713 1.90305 0
M  V30 7792 C 731.728 -6.24284 2.77053 0
M  V30 7793 O 731.416 -7.08291 3.80236 0
M  V30 7794 H 731.148 -0.675986 -0.00427247 0
M  V30 7795 H 733.702 -1.95314 0.635738 0
M  V30 7796 H 731.932 -3.65163 -1.27252 0
M  V30 7797 H 733.621 -3.94138 -0.970039 0
M  V30 7798 H 734.387 -4.63953 1.41324 0
M  V30 7799 H 730.266 -4.60619 0.187482 0
M  V30 7800 H 733.81 -6.16276 3.2688 0
M  V30 7801 H 729.707 -6.12593 2.03469 0
M  V30 7802 H 730.475 -7.26504 3.77007 0
M  V30 7803 N 733.138 -0.185124 -1.56509 0
M  V30 7804 C 734.415 0.503348 -1.89013 0
M  V30 7805 C 734.795 1.80349 -1.09715 0
M  V30 7806 O 734.143 2.27665 -0.195203 0
M  V30 7807 C 734.353 0.731839 -3.41241 0
M  V30 7808 C 735.701 1.05568 -4.11267 0
M  V30 7809 O 736.725 0.819906 -3.46635 0
M  V30 7810 O 735.584 1.50116 -5.25478 0
M  V30 7811 H 732.678 0.261139 -0.784688 0
M  V30 7812 H 735.224 -0.224592 -1.68207 0
M  V30 7813 H 733.996 -0.18672 -3.90854 0
M  V30 7814 H 733.619 1.5126 -3.67704 0
M  V30 7815 N 734.616 1.57351 0.0885366 0
M  V30 7816 C 735.864 1.86051 0.789262 0
M  V30 7817 C 736.185 0.774763 1.78948 0
M  V30 7818 O 735.455 -0.198324 1.94894 0
M  V30 7819 H 734.035 0.686508 0.294475 0
M  V30 7820 H 736.697 1.94779 0.0686055 0
M  V30 7821 H 735.793 2.83007 1.31581 0
M  V30 7822 N 736.094 -0.359525 1.53444 0
M  V30 7823 C 737.319 -1.12644 1.74144 0
M  V30 7824 C 737.744 -1.82082 0.472007 0
M  V30 7825 O 737.102 -1.71962 -0.57436 0
M  V30 7826 C 737.15 -2.12781 2.9113 0
M  V30 7827 O 736.254 -3.19984 2.60162 0
M  V30 7828 H 735.595 -0.326553 0.578152 0
M  V30 7829 H 738.125 -0.414798 2.00351 0
M  V30 7830 H 738.135 -2.56278 3.17467 0
M  V30 7831 H 736.81 -1.61634 3.83207 0
M  V30 7832 H 735.387 -2.81417 2.44661 0
M  V30 7833 N 737.572 -1.44907 -0.619662 0
M  V30 7834 C 738.482 -1.55168 -1.75955 0
M  V30 7835 C 739.498 -0.43672 -1.6843 0
M  V30 7836 O 740.674 -0.695704 -1.89002 0
M  V30 7837 C 737.739 -1.50397 -3.12381 0
M  V30 7838 C 736.8 -2.72835 -3.31451 0
M  V30 7839 C 736.033 -2.68283 -4.61368 0
M  V30 7840 O 736.256 -1.74929 -5.42914 0
M  V30 7841 O 735.19 -3.59308 -4.82889 0
M  V30 7842 H 739.016 -2.51493 -1.7025 0
M  V30 7843 H 736.601 -1.27282 -0.782289 0
M  V30 7844 H 738.483 -1.50301 -3.93685 0
M  V30 7845 H 737.158 -0.572197 -3.18603 0
M  V30 7846 H 736.065 -2.78496 -2.49781 0
M  V30 7847 H 737.398 -3.65098 -3.30098 0
M  V30 7848 N 739.05 0.861098 -1.31996 0
M  V30 7849 C 740.299 1.60965 -1.21545 0
M  V30 7850 C 740.612 1.94325 0.222972 0
M  V30 7851 O 741.818 2.67757 0.449272 0
M  V30 7852 C 740.274 2.90223 -2.12834 0
M  V30 7853 C 739.882 2.64313 -3.61722 0
M  V30 7854 C 741.626 3.68229 -2.11205 0
M  V30 7855 C 739.533 3.89532 -4.44993 0
M  V30 7856 H 738.463 0.603988 -0.451348 0
M  V30 7857 H 741.114 0.951358 -1.56912 0
M  V30 7858 H 739.496 3.57475 -1.70375 0
M  V30 7859 H 740.67 2.05413 -4.12483 0
M  V30 7860 H 738.985 1.99647 -3.65418 0
M  V30 7861 H 741.582 4.61138 -2.70658 0
M  V30 7862 H 741.925 4.01466 -1.1014 0
M  V30 7863 H 742.458 3.07873 -2.51911 0
M  V30 7864 H 739.197 3.61441 -5.46846 0
M  V30 7865 H 738.717 4.47851 -3.98985 0
M  V30 7866 H 740.396 4.57334 -4.57663 0
M  V30 7867 N 740.528 1.15101 1.07655 0
M  V30 7868 C 741.774 0.925343 1.80458 0
M  V30 7869 C 742.107 -0.546354 1.86356 0
M  V30 7870 O 741.382 -1.40496 1.34503 0
M  V30 7871 C 741.665 1.53646 3.25676 0
M  V30 7872 C 741.518 3.07854 3.27942 0
M  V30 7873 C 742.837 1.21968 4.22861 0
M  V30 7874 H 739.956 0.337592 0.655134 0
M  V30 7875 H 742.598 1.42217 1.25993 0
M  V30 7876 H 740.748 1.11395 3.72187 0
M  V30 7877 H 742.42 3.58989 2.89697 0
M  V30 7878 H 740.663 3.41904 2.66991 0
M  V30 7879 H 741.334 3.45725 4.30324 0
M  V30 7880 H 743.81 1.5851 3.84726 0
M  V30 7881 H 742.686 1.67349 5.22767 0
M  V30 7882 H 742.947 0.136207 4.4189 0
M  V30 7883 N 742.006 -1.2595 0.947325 0
M  V30 7884 C 743.252 -1.9375 0.599064 0
M  V30 7885 C 743.585 -1.74088 -0.860632 0
M  V30 7886 O 742.86 -1.08158 -1.61654 0
M  V30 7887 C 743.143 -3.47353 0.949634 0
M  V30 7888 C 742.996 -3.76273 2.46452 0
M  V30 7889 C 744.315 -4.37589 0.469442 0
M  V30 7890 H 741.434 -0.703674 0.219115 0
M  V30 7891 H 744.076 -1.48705 1.18266 0
M  V30 7892 H 742.226 -3.8585 0.453008 0
M  V30 7893 H 743.898 -3.47455 3.03435 0
M  V30 7894 H 742.141 -3.22135 2.90537 0
M  V30 7895 H 742.812 -4.83664 2.66032 0
M  V30 7896 H 745.288 -4.06353 0.89534 0
M  V30 7897 H 744.164 -5.43841 0.7435 0
M  V30 7898 H 744.425 -4.37579 -0.630618 0
M  V30 7899 N 743.484 -0.715051 -1.40445 0
M  V30 7900 C 744.447 -0.0708726 -2.2909 0
M  V30 7901 C 745.447 0.687926 -1.45342 0
M  V30 7902 O 746.637 0.519908 -1.66261 0
M  V30 7903 C 743.769 0.909528 -3.28543 0
M  V30 7904 H 744.962 -0.851611 -2.87555 0
M  V30 7905 H 742.515 -0.479674 -1.48758 0
M  V30 7906 H 743.25 1.71734 -2.75096 0
M  V30 7907 H 743.035 0.368318 -3.90366 0
M  V30 7908 H 744.525 1.35744 -3.94922 0
M  V30 7909 N 744.962 1.50701 -0.461195 0
M  V30 7910 C 746.21 2.01867 0.0970051 0
M  V30 7911 C 746.531 1.34591 1.41104 0
M  V30 7912 O 745.801 0.488041 1.89723 0
M  V30 7913 H 744.381 0.74599 0.0388392 0
M  V30 7914 H 747.043 1.85129 -0.609357 0
M  V30 7915 H 746.139 3.11051 0.255688 0
M  V30 7916 N 746.441 0.193421 1.56409 0
M  V30 7917 C 747.857 -0.162447 1.58771 0
M  V30 7918 C 748.057 -1.6116 1.20954 0
M  V30 7919 O 747.113 -2.3469 0.931497 0
M  V30 7920 C 748.426 0.138391 3.00381 0
M  V30 7921 C 749.974 0.0783649 3.12902 0
M  V30 7922 C 750.449 0.352491 4.56642 0
M  V30 7923 N 751.94 0.30105 4.62221 0
M  V30 7924 C 752.675 0.487028 5.71328 0
M  V30 7925 N 752.171 0.733265 6.88909 0
M  V30 7926 N 753.964 0.4214 5.60518 0
M  V30 7927 H 746.115 1.13909 1.79272 0
M  V30 7928 H 748.378 0.454528 0.83193 0
M  V30 7929 H 748.084 1.14312 3.32604 0
M  V30 7930 H 747.958 -0.559804 3.73023 0
M  V30 7931 H 750.345 -0.916963 2.80492 0
M  V30 7932 H 750.426 0.809611 2.4265 0
M  V30 7933 H 750.07 1.34513 4.89764 0
M  V30 7934 H 750 -0.399624 5.25081 0
M  V30 7935 H 752.491 0.117279 3.77718 0
M  V30 7936 H 752.804 0.86403 7.67955 0
M  V30 7937 H 751.149 0.770138 6.9072 0
M  V30 7938 H 754.34 0.229461 4.67537 0
M  V30 7939 H 754.513 0.569758 6.4549 0
M  V30 7940 N 747.919 -1.57396 -0.0801906 0
M  V30 7941 C 748.849 -2.06145 -1.09665 0
M  V30 7942 C 749.83 -0.953273 -1.40878 0
M  V30 7943 O 751.015 -1.22548 -1.50651 0
M  V30 7944 C 748.145 -2.49836 -2.41245 0
M  V30 7945 C 747.099 -3.64454 -2.24405 0
M  V30 7946 C 746.425 -3.94172 -3.61293 0
M  V30 7947 C 747.725 -4.94807 -1.67223 0
M  V30 7948 H 749.419 -2.91316 -0.691028 0
M  V30 7949 H 746.965 -1.40145 -0.330957 0
M  V30 7950 H 748.918 -2.82552 -3.12638 0
M  V30 7951 H 747.642 -1.61683 -2.83771 0
M  V30 7952 H 746.301 -3.32008 -1.55454 0
M  V30 7953 H 745.949 -3.03163 -4.01374 0
M  V30 7954 H 745.649 -4.71345 -3.50867 0
M  V30 7955 H 747.173 -4.29376 -4.3413 0
M  V30 7956 H 748.587 -5.25807 -2.28472 0
M  V30 7957 H 746.984 -5.76245 -1.67515 0
M  V30 7958 H 748.054 -4.80751 -0.632944 0
M  V30 7959 N 749.397 0.351382 -1.53633 0
M  V30 7960 C 750.643 1.09411 -1.70754 0
M  V30 7961 C 750.976 1.88544 -0.465293 0
M  V30 7962 O 750.251 1.86923 0.537608 0
M  V30 7963 C 750.534 2.04173 -2.96623 0
M  V30 7964 C 750.387 1.28556 -4.31038 0
M  V30 7965 C 751.706 3.04102 -3.18136 0
M  V30 7966 H 748.825 0.396373 -0.621335 0
M  V30 7967 H 751.467 0.373464 -1.86293 0
M  V30 7968 H 749.617 2.65625 -2.83506 0
M  V30 7969 H 751.289 0.697786 -4.55992 0
M  V30 7970 H 749.532 0.587498 -4.29803 0
M  V30 7971 H 750.203 1.97989 -5.15271 0
M  V30 7972 H 752.679 2.5276 -3.30532 0
M  V30 7973 H 751.555 3.67616 -4.07615 0
M  V30 7974 H 751.816 3.75053 -2.34068 0
M  V30 7975 N 750.875 1.45233 0.611969 0
M  V30 7976 C 752.152 1.39495 1.37115 0
M  V30 7977 C 752.532 0.0633303 2.11005 0
M  V30 7978 O 751.88 -0.954617 2.07604 0
M  V30 7979 C 752.09 2.60579 2.32163 0
M  V30 7980 C 753.438 3.05477 2.94905 0
M  V30 7981 O 754.462 2.60921 2.42485 0
M  V30 7982 O 753.321 3.82787 3.90047 0
M  V30 7983 H 750.415 0.55335 0.614599 0
M  V30 7984 H 752.961 1.57355 0.635423 0
M  V30 7985 H 751.733 3.49085 1.76793 0
M  V30 7986 H 751.356 2.45031 3.13122 0
M  V30 7987 N 752.353 -0.854086 1.3245 0
M  V30 7988 C 753.263 -1.99503 1.23434 0
M  V30 7989 C 754.279 -1.73371 0.147828 0
M  V30 7990 O 755.455 -1.97998 0.368609 0
M  V30 7991 C 752.52 -3.33192 0.958328 0
M  V30 7992 C 751.581 -3.72542 2.13333 0
M  V30 7993 C 750.814 -4.99852 1.8704 0
M  V30 7994 O 751.037 -5.64573 0.813239 0
M  V30 7995 O 749.971 -5.36345 2.73161 0
M  V30 7996 H 753.797 -2.10046 2.1935 0
M  V30 7997 H 751.382 -0.984823 1.12346 0
M  V30 7998 H 753.264 -4.13327 0.820918 0
M  V30 7999 H 751.939 -3.23687 0.0293299 0
M  V30 8000 H 750.846 -2.92981 2.32622 0
M  V30 8001 H 752.179 -3.86694 3.04514 0
M  V30 8002 N 753.831 -1.1567 -1.07043 0
M  V30 8003 C 755.108 -0.843948 -1.76456 0
M  V30 8004 C 755.488 0.659806 -2.00524 0
M  V30 8005 O 754.836 1.60518 -1.62623 0
M  V30 8006 C 755.046 -1.65822 -3.0709 0
M  V30 8007 C 756.394 -1.8664 -3.8138 0
M  V30 8008 O 757.418 -1.62624 -3.1691 0
M  V30 8009 O 756.277 -2.26884 -4.97178 0
M  V30 8010 H 753.371 -0.310677 -0.766426 0
M  V30 8011 H 755.917 -1.26266 -1.1338 0
M  V30 8012 H 754.689 -2.67902 -2.85209 0
M  V30 8013 H 754.312 -1.23605 -3.77899 0
M  V30 8014 N 755.309 1.25446 -0.953992 0
M  V30 8015 C 756.242 2.24341 -0.417912 0
M  V30 8016 C 757.22 1.54709 0.5004 0
M  V30 8017 O 758.404 1.83414 0.434923 0
M  V30 8018 C 755.531 3.36352 0.398155 0
M  V30 8019 C 754.577 4.24007 -0.460461 0
M  V30 8020 S 755.41 5.00951 -1.89231 0
M  V30 8021 C 756.566 6.1643 -1.08465 0
M  V30 8022 H 756.799 2.69465 -1.25602 0
M  V30 8023 H 754.332 1.34512 -0.758018 0
M  V30 8024 H 756.29 4.01325 0.863059 0
M  V30 8025 H 754.951 2.89813 1.21108 0
M  V30 8026 H 754.144 5.03728 0.165415 0
M  V30 8027 H 753.746 3.63965 -0.860549 0
M  V30 8028 H 756.038 6.76681 -0.333017 0
M  V30 8029 H 756.981 6.8335 -1.85577 0
M  V30 8030 H 757.389 5.61139 -0.615062 0
M  V30 8031 N 756.787 0.722489 1.40064 0
M  V30 8032 C 757.735 0.063329 2.32514 0
M  V30 8033 C 758.729 -0.73953 1.52405 0
M  V30 8034 O 759.935 -0.642122 1.68157 0
M  V30 8035 H 756.31 0.00167692 0.751998 0
M  V30 8036 H 758.281 0.859656 2.85749 0
M  V30 8037 C 757.03 -0.839219 3.3742 0
M  V30 8038 H 756.353 -0.230836 3.99133 0
M  V30 8039 H 757.793 -1.26827 4.04587 0
M  V30 8040 C 756.252 -1.96783 2.73456 0
M  V30 8041 O 756.782 -3.05933 2.60323 0
M  V30 8042 N 754.988 -1.75351 2.31734 0
M  V30 8043 H 754.535 -0.865787 2.42615 0
M  V30 8044 H 754.493 -2.51043 1.89275 0
M  V30 8045 N 758.265 -1.50454 0.469181 0
M  V30 8046 C 759.49 -2.0722 -0.0864892 0
M  V30 8047 C 759.915 -1.33098 -1.32916 0
M  V30 8048 O 759.273 -0.378084 -1.77314 0
M  V30 8049 C 759.321 -3.58845 -0.355384 0
M  V30 8050 O 758.425 -3.86583 -1.43622 0
M  V30 8051 H 757.766 -0.663889 0.0121414 0
M  V30 8052 H 760.296 -1.93674 0.659674 0
M  V30 8053 H 760.306 -4.03617 -0.596447 0
M  V30 8054 H 758.981 -4.12211 0.552698 0
M  V30 8055 H 757.558 -3.5365 -1.18262 0
M  V30 8056 N 759.743 -0.201713 -1.56304 0
M  V30 8057 C 760.99 0.435307 -1.97766 0
M  V30 8058 C 761.318 1.61169 -1.0888 0
M  V30 8059 O 760.573 1.95272 -0.12934 0
M  V30 8060 C 760.872 0.931432 -3.45049 0
M  V30 8061 C 760.538 -0.132287 -4.50706 0
M  V30 8062 C 759.2 -0.424552 -4.79323 0
M  V30 8063 C 761.552 -0.852703 -5.14177 0
M  V30 8064 C 758.88 -1.4421 -5.68701 0
M  V30 8065 C 761.232 -1.85944 -6.04655 0
M  V30 8066 C 759.896 -2.15884 -6.31625 0
M  V30 8067 H 759.166 0.15929 -0.723676 0
M  V30 8068 H 761.813 -0.300069 -1.89134 0
M  V30 8069 H 760.118 1.7452 -3.50785 0
M  V30 8070 H 761.815 1.43383 -3.74489 0
M  V30 8071 H 758.405 0.105671 -4.2847 0
M  V30 8072 H 762.589 -0.640139 -4.92154 0
M  V30 8073 H 757.845 -1.6799 -5.87869 0
M  V30 8074 H 762.019 -2.42286 -6.52894 0
M  V30 8075 H 759.646 -2.94875 -7.0068 0
M  V30 8076 N 761.222 1.57436 0.0718424 0
M  V30 8077 C 762.169 2.03686 1.08539 0
M  V30 8078 C 763.139 0.917474 1.38462 0
M  V30 8079 O 764.324 1.18513 1.4953 0
M  V30 8080 C 761.464 2.48566 2.39393 0
M  V30 8081 C 760.577 3.74122 2.16001 0
M  V30 8082 C 759.712 4.07786 3.40418 0
M  V30 8083 C 758.751 5.26383 3.1239 0
M  V30 8084 N 757.888 5.55685 4.29138 0
M  V30 8085 H 762.728 2.90043 0.684018 0
M  V30 8086 H 760.265 1.43438 0.326183 0
M  V30 8087 H 762.223 2.72639 3.15791 0
M  V30 8088 H 760.853 1.65186 2.77333 0
M  V30 8089 H 759.905 3.57389 1.30296 0
M  V30 8090 H 761.217 4.60659 1.91298 0
M  V30 8091 H 760.371 4.32759 4.25211 0
M  V30 8092 H 759.11 3.19817 3.68197 0
M  V30 8093 H 758.115 5.01206 2.25993 0
M  V30 8094 H 759.34 6.1597 2.85934 0
M  V30 8095 H 757.286 4.70675 4.56948 0
M  V30 8096 H 757.203 6.3664 4.07708 0
M  V30 8097 H 758.471 5.85209 5.14928 0
M  V30 8098 N 762.7 -0.34323 1.53817 0
M  V30 8099 C 763.663 -1.40444 1.8113 0
M  V30 8100 C 764.663 -1.45604 0.682366 0
M  V30 8101 O 765.853 -1.45974 0.950649 0
M  V30 8102 C 762.985 -2.79369 1.95361 0
M  V30 8103 H 764.178 -1.17489 2.75928 0
M  V30 8104 H 761.731 -0.577636 1.45234 0
M  V30 8105 H 762.466 -3.07607 1.02707 0
M  V30 8106 H 762.251 -2.7702 2.77493 0
M  V30 8107 H 763.741 -3.56178 2.18008 0
M  V30 8108 N 764.178 -1.45556 -0.604258 0
M  V30 8109 C 765.455 -1.40221 -1.36373 0
M  V30 8110 C 765.835 -0.0745195 -2.10968 0
M  V30 8111 O 765.183 0.943594 -2.08107 0
M  V30 8112 C 765.393 -2.61807 -2.30777 0
M  V30 8113 C 766.741 -3.07037 -2.93281 0
M  V30 8114 O 767.765 -2.62203 -2.41097 0
M  V30 8115 O 766.624 -3.8485 -3.88011 0
M  V30 8116 H 763.718 -0.556602 -0.611656 0
M  V30 8117 H 766.264 -1.57689 -0.627069 0
M  V30 8118 H 765.036 -3.50017 -1.74939 0
M  V30 8119 H 764.659 -2.46688 -3.11818 0
M  V30 8120 N 765.656 0.84705 -1.32902 0
M  V30 8121 C 766.902 1.60414 -1.24078 0
M  V30 8122 C 767.235 1.93217 0.195105 0
M  V30 8123 O 766.51 1.58001 1.13428 0
M  V30 8124 C 766.793 2.91951 -2.108 0
M  V30 8125 C 766.646 2.6588 -3.62805 0
M  V30 8126 C 767.965 3.93299 -1.97494 0
M  V30 8127 H 765.084 0.58206 -0.452079 0
M  V30 8128 H 767.726 0.977562 -1.62922 0
M  V30 8129 H 765.876 3.45425 -1.77802 0
M  V30 8130 H 767.548 2.18902 -4.06054 0
M  V30 8131 H 765.791 1.99716 -3.85092 0
M  V30 8132 H 766.462 3.59574 -4.1882 0
M  V30 8133 H 768.938 3.49105 -2.26417 0
M  V30 8134 H 767.814 4.8318 -2.60438 0
M  V30 8135 H 768.075 4.31887 -0.944782 0
M  V30 8136 N 767.134 1.16236 1.06428 0
M  V30 8137 C 768.081 0.86769 2.13869 0
M  V30 8138 C 769.051 -0.183298 1.65086 0
M  V30 8139 O 770.236 -0.0488002 1.90738 0
M  V30 8140 C 767.376 0.373427 3.43074 0
M  V30 8141 C 766.489 1.48708 4.05598 0
M  V30 8142 C 765.624 0.947977 5.22673 0
M  V30 8143 C 764.663 2.03793 5.77178 0
M  V30 8144 N 763.8 1.51451 6.85571 0
M  V30 8145 H 768.64 1.78781 2.38414 0
M  V30 8146 H 766.177 0.891892 1.16977 0
M  V30 8147 H 768.135 0.0685035 4.17144 0
M  V30 8148 H 766.765 -0.509752 3.1875 0
M  V30 8149 H 765.817 1.908 3.29089 0
M  V30 8150 H 767.129 2.30964 4.42105 0
M  V30 8151 H 766.283 0.596154 6.03764 0
M  V30 8152 H 765.022 0.0947081 4.87608 0
M  V30 8153 H 764.027 2.39847 4.94726 0
M  V30 8154 H 765.252 2.89514 6.14295 0
M  V30 8155 H 763.198 0.683755 6.52427 0
M  V30 8156 H 763.115 2.27325 7.21013 0
M  V30 8157 H 764.383 1.19123 7.70344 0
M  V30 8158 N 768.612 -1.24939 0.960631 0
M  V30 8159 C 769.86 -1.92437 0.617441 0
M  V30 8160 C 770.181 -1.75543 -0.849101 0
M  V30 8161 O 769.451 -1.12269 -1.60538 0
M  V30 8162 H 768.031 -0.712192 0.225371 0
M  V30 8163 H 770.693 -1.5198 1.22017 0
M  V30 8164 H 769.789 -3.00247 0.851933 0
M  V30 8165 N 770.09 -0.729906 -1.39679 0
M  V30 8166 C 771.04 -0.0627678 -2.27914 0
M  V30 8167 C 772.024 0.717867 -1.43998 0
M  V30 8168 O 773.216 0.587713 -1.66958 0
M  V30 8169 C 770.345 0.847564 -3.32673 0
M  V30 8170 C 769.431 0.0613515 -4.24056 0
M  V30 8171 N 769.822 -0.962863 -4.96551 0
M  V30 8172 C 768.12 0.291773 -4.45045 0
M  V30 8173 C 768.821 -1.43652 -5.63683 0
M  V30 8174 N 767.797 -0.756044 -5.38317 0
M  V30 8175 H 771.599 -0.847545 -2.81414 0
M  V30 8176 H 769.113 -0.563776 -1.523 0
M  V30 8177 H 771.11 1.34094 -3.94746 0
M  V30 8178 H 769.77 1.63156 -2.80732 0
M  V30 8179 H 770.781 -1.34409 -5.00154 0
M  V30 8180 H 767.458 1.05097 -4.04056 0
M  V30 8181 H 768.848 -2.28835 -6.31731 0
M  V30 8182 N 771.568 1.50203 -0.477153 0
M  V30 8183 C 772.816 2.01959 0.0755889 0
M  V30 8184 C 773.137 1.3608 1.39668 0
M  V30 8185 O 772.407 0.508136 1.89195 0
M  V30 8186 H 770.987 0.74636 0.0309248 0
M  V30 8187 H 773.649 1.84473 -0.628959 0
M  V30 8188 H 772.745 3.11305 0.222683 0
M  V30 8189 N 773.046 0.209999 1.56195 0
M  V30 8190 C 774.009 -0.691232 2.18528 0
M  V30 8191 C 775.009 -1.13013 1.14388 0
M  V30 8192 O 776.199 -1.04081 1.39688 0
M  V30 8193 C 773.331 -1.94551 2.79934 0
M  V30 8194 H 774.524 -0.147953 2.99535 0
M  V30 8195 H 772.077 -0.0396243 1.5625 0
M  V30 8196 H 772.812 -2.53094 2.02766 0
M  V30 8197 H 772.597 -1.63938 3.56184 0
M  V30 8198 H 774.087 -2.58785 3.2775 0
M  V30 8199 N 774.524 -1.57472 -0.0634922 0
M  V30 8200 C 775.752 -1.91887 -0.773767 0
M  V30 8201 C 776.167 -0.806733 -1.70696 0
M  V30 8202 O 775.524 0.219383 -1.81177 0
M  V30 8203 C 775.575 -3.26092 -1.56034 0
M  V30 8204 O 775.296 -4.33029 -0.66464 0
M  V30 8205 C 776.797 -3.74573 -2.37087 0
M  V30 8206 H 774.017 -0.634074 -0.219525 0
M  V30 8207 H 776.561 -2.04476 -0.0312828 0
M  V30 8208 H 774.716 -3.15004 -2.25502 0
M  V30 8209 H 775.13 -5.10291 -1.21258 0
M  V30 8210 H 776.604 -4.71084 -2.87722 0
M  V30 8211 H 777.081 -3.04003 -3.16984 0
M  V30 8212 H 777.687 -3.88631 -1.72759 0
M  V30 8213 N 776.003 0.335068 -1.53997 0
M  V30 8214 C 776.951 1.43206 -1.83289 0
M  V30 8215 C 777.945 1.54081 -0.703953 0
M  V30 8216 O 779.151 1.56603 -0.887432 0
M  V30 8217 H 775.526 0.477655 -0.580818 0
M  V30 8218 H 777.497 1.15719 -2.75049 0
M  V30 8219 C 776.246 2.79602 -2.06683 0
M  V30 8220 H 775.569 2.72004 -2.93008 0
M  V30 8221 H 777.009 3.55459 -2.31139 0
M  V30 8222 C 775.468 3.25873 -0.854883 0
M  V30 8223 O 775.998 4.01657 -0.0584648 0
M  V30 8224 N 774.204 2.82777 -0.669729 0
M  V30 8225 H 773.751 2.21269 -1.31901 0
M  V30 8226 H 773.709 3.1409 0.13969 0
M  V30 8227 N 777.481 1.45874 0.596531 0
M  V30 8228 C 778.758 1.40942 1.35627 0
M  V30 8229 C 779.138 0.0857066 2.10926 0
M  V30 8230 O 778.486 -0.932544 2.08605 0
M  V30 8231 C 778.696 2.63027 2.29386 0
M  V30 8232 C 780.044 3.08588 2.91649 0
M  V30 8233 O 781.068 2.63478 2.39704 0
M  V30 8234 O 779.927 3.86902 3.85965 0
M  V30 8235 H 777.021 0.559838 0.608696 0
M  V30 8236 H 779.567 1.5802 0.618698 0
M  V30 8237 H 778.339 3.5094 1.7308 0
M  V30 8238 H 777.962 2.48338 3.10506 0
M  V30 8239 N 778.959 -0.83999 1.33349 0
M  V30 8240 C 779.889 -1.965 1.26135 0
M  V30 8241 C 780.87 -1.69505 0.142152 0
M  V30 8242 O 782.055 -1.91346 0.331743 0
M  V30 8243 C 779.185 -3.32632 0.99866 0
M  V30 8244 C 778.139 -3.74021 2.08068 0
M  V30 8245 C 777.465 -5.07947 1.67014 0
M  V30 8246 C 778.765 -3.87925 3.49731 0
M  V30 8247 H 780.459 -2.02793 2.20262 0
M  V30 8248 H 778.005 -0.974297 1.06035 0
M  V30 8249 H 779.958 -4.10903 0.934696 0
M  V30 8250 H 778.682 -3.26593 0.0217759 0
M  V30 8251 H 777.341 -2.98012 2.13505 0
M  V30 8252 H 776.989 -4.98378 0.680316 0
M  V30 8253 H 776.689 -5.36611 2.39422 0
M  V30 8254 H 778.213 -5.88695 1.62082 0
M  V30 8255 H 779.627 -4.5651 3.46802 0
M  V30 8256 H 778.024 -4.28023 4.20614 0
M  V30 8257 H 779.094 -2.90407 3.88319 0
M  V30 8258 N 780.437 -1.16799 -1.0581 0
M  V30 8259 C 781.665 -0.97687 -1.82387 0
M  V30 8260 C 782.08 0.474917 -1.82729 0
M  V30 8261 O 781.437 1.3297 -1.25001 0
M  V30 8262 C 781.488 -1.50279 -3.28783 0
M  V30 8263 O 781.209 -2.89772 -3.28578 0
M  V30 8264 C 782.71 -1.35538 -4.22071 0
M  V30 8265 H 779.93 -0.345977 -0.574927 0
M  V30 8266 H 782.474 -1.54942 -1.33466 0
M  V30 8267 H 780.629 -0.972414 -3.74997 0
M  V30 8268 H 781.043 -3.13954 -4.20159 0
M  V30 8269 H 782.517 -1.7716 -5.22799 0
M  V30 8270 H 782.994 -0.301598 -4.38163 0
M  V30 8271 H 783.6 -1.87562 -3.81708 0
M  V30 8272 N 781.915 1.24427 -0.967243 0
M  V30 8273 C 783.162 1.92487 -0.62888 0
M  V30 8274 C 783.49 1.75623 0.835871 0
M  V30 8275 O 782.745 1.1027 1.61675 0
M  V30 8276 C 783.044 3.44568 -0.949096 0
M  V30 8277 C 782.71 3.816 -2.40192 0
M  V30 8278 C 781.372 3.9142 -2.799 0
M  V30 8279 C 783.724 3.99715 -3.34481 0
M  V30 8280 C 781.052 4.16771 -4.12939 0
M  V30 8281 C 783.404 4.26562 -4.67148 0
M  V30 8282 C 782.068 4.34601 -5.06634 0
M  V30 8283 H 781.338 0.704361 -0.230124 0
M  V30 8284 H 783.985 1.4772 -1.21864 0
M  V30 8285 H 782.29 3.90819 -0.277085 0
M  V30 8286 H 783.987 3.95436 -0.665692 0
M  V30 8287 H 780.577 3.74522 -2.08402 0
M  V30 8288 H 784.761 3.91531 -3.04987 0
M  V30 8289 H 780.017 4.21214 -4.43158 0
M  V30 8290 H 784.191 4.39523 -5.40178 0
M  V30 8291 H 781.818 4.53998 -6.09746 0
M  V30 8292 N 783.393 0.737304 1.3929 0
M  V30 8293 C 784.621 0.296573 2.04763 0
M  V30 8294 C 785.036 -1.06941 1.55592 0
M  V30 8295 O 784.393 -1.67619 0.721822 0
M  V30 8296 C 784.444 0.291906 3.6032 0
M  V30 8297 O 784.165 1.60397 4.07682 0
M  V30 8298 C 785.666 -0.164708 4.42994 0
M  V30 8299 H 782.886 0.129251 0.658434 0
M  V30 8300 H 785.43 1.0016 1.78293 0
M  V30 8301 H 783.585 -0.364251 3.85684 0
M  V30 8302 H 783.999 1.51909 5.0202 0
M  V30 8303 H 785.473 -0.116814 5.51876 0
M  V30 8304 H 785.95 -1.21022 4.22197 0
M  V30 8305 H 786.556 0.461968 4.22784 0
M  V30 8306 N 784.871 -1.49948 0.485112 0
M  V30 8307 C 785.781 -2.32587 -0.306697 0
M  V30 8308 C 786.797 -1.43598 -0.982632 0
M  V30 8309 O 787.973 -1.76638 -0.967519 0
M  V30 8310 C 785.038 -3.18638 -1.3664 0
M  V30 8311 C 784.099 -4.23462 -0.705589 0
M  V30 8312 C 783.332 -5.05401 -1.7148 0
M  V30 8313 O 783.555 -4.88618 -2.94293 0
M  V30 8314 O 782.489 -5.88157 -1.27889 0
M  V30 8315 H 786.315 -3.01447 0.369272 0
M  V30 8316 H 783.9 -1.47349 0.246709 0
M  V30 8317 H 785.782 -3.71992 -1.9799 0
M  V30 8318 H 784.457 -2.52491 -2.02559 0
M  V30 8319 H 783.364 -3.74063 -0.0527733 0
M  V30 8320 H 784.697 -4.92119 -0.0891187 0
M  V30 8321 N 786.349 -0.21828 -1.56081 0
M  V30 8322 C 787.259 0.704602 -2.23769 0
M  V30 8323 C 788.275 1.21633 -1.24425 0
M  V30 8324 O 789.451 1.25862 -1.57228 0
M  V30 8325 C 786.516 1.89725 -2.90182 0
M  V30 8326 C 785.577 1.42782 -4.0486 0
M  V30 8327 C 784.81 2.56361 -4.68097 0
M  V30 8328 O 785.033 3.74417 -4.30312 0
M  V30 8329 O 783.967 2.2775 -5.57148 0
M  V30 8330 H 787.793 0.158007 -3.03289 0
M  V30 8331 H 785.378 0.0120279 -1.49395 0
M  V30 8332 H 787.26 2.59382 -3.32113 0
M  V30 8333 H 785.935 2.432 -2.13624 0
M  V30 8334 H 784.842 0.699359 -3.67505 0
M  V30 8335 H 786.175 0.939474 -4.83151 0
M  V30 8336 N 787.827 1.57504 0.0551401 0
M  V30 8337 C 789.073 1.88334 0.752216 0
M  V30 8338 C 789.406 0.812742 1.76375 0
M  V30 8339 O 788.681 -0.175198 1.93709 0
M  V30 8340 C 788.964 3.29824 1.44528 0
M  V30 8341 C 788.817 4.47553 0.449026 0
M  V30 8342 C 790.136 3.69808 2.38601 0
M  V30 8343 H 787.255 0.684973 0.271995 0
M  V30 8344 H 789.897 1.89994 0.0151895 0
M  V30 8345 H 788.047 3.28539 2.07351 0
M  V30 8346 H 789.719 4.60967 -0.175277 0
M  V30 8347 H 787.962 4.33168 -0.234162 0
M  V30 8348 H 788.633 5.43376 0.971917 0
M  V30 8349 H 791.109 3.72293 1.85842 0
M  V30 8350 H 789.985 4.69665 2.84088 0
M  V30 8351 H 790.246 3.00641 3.24141 0
M  V30 8352 N 789.305 -0.326896 1.54172 0
M  V30 8353 C 790.582 -1.08326 1.62864 0
M  V30 8354 C 790.962 -2.06018 0.46039 0
M  V30 8355 O 790.31 -2.21889 -0.545685 0
M  V30 8356 C 790.52 -1.78816 2.9971 0
M  V30 8357 C 791.868 -2.31958 3.55641 0
M  V30 8358 O 792.892 -1.88888 3.01993 0
M  V30 8359 O 791.751 -3.10801 4.49517 0
M  V30 8360 H 788.845 -0.499131 0.659392 0
M  V30 8361 H 791.391 -0.327054 1.66519 0
M  V30 8362 H 790.163 -1.07739 3.76176 0
M  V30 8363 H 789.786 -2.61255 2.99719 0
M  V30 8364 N 790.784 -1.46188 -0.588786 0
M  V30 8365 C 791.717 -1.508 -1.71274 0
M  V30 8366 C 792.695 -0.362635 -1.58505 0
M  V30 8367 O 793.879 -0.565899 -1.79805 0
M  V30 8368 C 791.006 -1.38082 -3.09275 0
M  V30 8369 C 790.052 -2.56723 -3.40581 0
M  V30 8370 S 790.885 -4.1911 -3.33327 0
M  V30 8371 C 792.041 -4.08891 -4.73877 0
M  V30 8372 H 792.274 -2.45895 -1.67102 0
M  V30 8373 H 789.807 -1.34 -0.767025 0
M  V30 8374 H 791.765 -1.31432 -3.88891 0
M  V30 8375 H 790.426 -0.444259 -3.10942 0
M  V30 8376 H 789.619 -2.43801 -4.41109 0
M  V30 8377 H 789.221 -2.60332 -2.68521 0
M  V30 8378 H 791.513 -3.75196 -5.64123 0
M  V30 8379 H 792.456 -5.09395 -4.91856 0
M  V30 8380 H 792.864 -3.40239 -4.50441 0
M  V30 8381 N 792.262 0.832906 -1.33792 0
M  V30 8382 C 793.209 1.94314 -1.24541 0
M  V30 8383 C 794.179 1.65646 -0.122753 0
M  V30 8384 O 795.364 1.88394 -0.30204 0
M  V30 8385 C 792.504 3.30395 -0.996641 0
M  V30 8386 C 791.617 3.71422 -2.20612 0
M  V30 8387 C 790.752 4.96401 -1.89101 0
M  V30 8388 C 789.791 5.2998 -3.06247 0
M  V30 8389 N 788.928 6.46137 -2.74685 0
M  V30 8390 H 793.768 2.01559 -2.19495 0
M  V30 8391 H 791.305 0.986243 -1.09141 0
M  V30 8392 H 793.263 4.08803 -0.832817 0
M  V30 8393 H 791.893 3.22691 -0.0838242 0
M  V30 8394 H 790.945 2.88488 -2.47949 0
M  V30 8395 H 792.257 3.92215 -3.0817 0
M  V30 8396 H 791.411 5.82572 -1.69396 0
M  V30 8397 H 790.15 4.7759 -0.987882 0
M  V30 8398 H 789.155 4.42312 -3.26559 0
M  V30 8399 H 790.38 5.50737 -3.97323 0
M  V30 8400 H 788.326 6.28801 -1.86938 0
M  V30 8401 H 788.243 6.67054 -3.55774 0
M  V30 8402 H 789.511 7.35403 -2.58461 0
M  V30 8403 N 793.74 1.17359 1.05189 0
M  V30 8404 C 794.65 0.904984 2.16442 0
M  V30 8405 C 795.666 -0.12686 1.73537 0
M  V30 8406 O 796.842 0.0524127 2.01332 0
M  V30 8407 C 793.907 0.422019 3.44122 0
M  V30 8408 C 792.968 1.52045 4.01473 0
M  V30 8409 C 792.201 1.06044 5.23059 0
M  V30 8410 O 792.424 -0.0854023 5.70336 0
M  V30 8411 O 791.358 1.85349 5.72651 0
M  V30 8412 H 795.184 1.8356 2.41949 0
M  V30 8413 H 792.769 0.95447 1.14936 0
M  V30 8414 H 794.651 0.160208 4.21095 0
M  V30 8415 H 793.326 -0.480444 3.20115 0
M  V30 8416 H 792.233 1.83615 3.25939 0
M  V30 8417 H 793.566 2.39863 4.29798 0
M  V30 8418 N 795.218 -1.23913 0.973828 0
M  V30 8419 C 796.151 -2.23647 0.45355 0
M  V30 8420 C 797.129 -1.55485 -0.475724 0
M  V30 8421 O 798.313 -1.84083 -0.405689 0
M  V30 8422 C 795.44 -3.36942 -0.344594 0
M  V30 8423 C 794.486 -4.23221 0.527859 0
M  V30 8424 S 795.319 -4.97877 1.97177 0
M  V30 8425 C 796.475 -6.14627 1.18258 0
M  V30 8426 H 796.708 -2.67433 1.29873 0
M  V30 8427 H 794.241 -1.33289 0.779322 0
M  V30 8428 H 796.199 -4.02647 -0.799103 0
M  V30 8429 H 794.86 -2.91703 -1.16482 0
M  V30 8430 H 794.053 -5.03928 -0.0852555 0
M  V30 8431 H 793.655 -3.6255 0.918344 0
M  V30 8432 H 795.947 -6.76066 0.440629 0
M  V30 8433 H 796.89 -6.80311 1.96425 0
M  V30 8434 H 797.298 -5.6009 0.704256 0
M  V30 8435 N 796.696 -0.74468 -1.38897 0
M  V30 8436 C 797.606 -0.112892 -2.34328 0
M  V30 8437 C 798.622 0.71087 -1.58816 0
M  V30 8438 O 799.798 0.637092 -1.91058 0
M  V30 8439 C 796.863 0.776417 -3.37894 0
M  V30 8440 C 795.924 -0.0606999 -4.29257 0
M  V30 8441 C 795.157 0.786258 -5.27877 0
M  V30 8442 O 795.38 2.02463 -5.33259 0
M  V30 8443 O 794.314 0.209781 -6.01534 0
M  V30 8444 H 798.14 -0.900801 -2.90033 0
M  V30 8445 H 795.725 -0.505462 -1.4059 0
M  V30 8446 H 797.607 1.28496 -4.01331 0
M  V30 8447 H 796.282 1.54297 -2.84559 0
M  V30 8448 H 795.189 -0.614984 -3.69011 0
M  V30 8449 H 796.522 -0.789702 -4.85824 0
M  V30 8450 N 798.174 1.49689 -0.493057 0
M  V30 8451 C 799.121 2.28976 0.28959 0
M  V30 8452 C 800.091 1.35011 0.967536 0
M  V30 8453 O 801.276 1.63964 0.975736 0
M  V30 8454 C 798.416 3.1748 1.35279 0
M  V30 8455 C 797.529 4.26496 0.687418 0
M  V30 8456 C 796.664 5.02226 1.73038 0
M  V30 8457 C 795.703 6.03089 1.04645 0
M  V30 8458 N 794.84 6.72014 2.03325 0
M  V30 8459 H 799.68 2.954 -0.392798 0
M  V30 8460 H 797.217 1.45657 -0.205554 0
M  V30 8461 H 799.175 3.67162 1.98111 0
M  V30 8462 H 797.805 2.53057 2.00405 0
M  V30 8463 H 796.857 3.80362 -0.0540001 0
M  V30 8464 H 798.169 4.98578 0.14864 0
M  V30 8465 H 797.323 5.55737 2.43395 0
M  V30 8466 H 796.062 4.29899 2.303 0
M  V30 8467 H 795.067 5.48817 0.328606 0
M  V30 8468 H 796.292 6.77398 0.480428 0
M  V30 8469 H 794.238 6.02464 2.59564 0
M  V30 8470 H 794.155 7.40046 1.54492 0
M  V30 8471 H 795.423 7.30133 2.72995 0
M  V30 8472 N 799.652 0.226554 1.55963 0
M  V30 8473 C 800.615 -0.668015 2.19249 0
M  V30 8474 C 801.615 -1.11794 1.1558 0
M  V30 8475 O 802.805 -1.02593 1.40784 0
M  V30 8476 C 799.937 -1.91571 2.81981 0
M  V30 8477 H 801.13 -0.116175 2.99675 0
M  V30 8478 H 798.683 -0.0230497 1.56283 0
M  V30 8479 H 799.418 -2.50929 2.05439 0
M  V30 8480 H 799.203 -1.6015 3.57903 0
M  V30 8481 H 800.693 -2.55294 3.30477 0
M  V30 8482 N 801.13 -1.57531 -0.0467866 0
M  V30 8483 C 802.06 -2.08425 -1.05268 0
M  V30 8484 C 803.041 -0.982941 -1.38825 0
M  V30 8485 O 804.226 -1.25716 -1.48018 0
M  V30 8486 C 801.356 -2.54897 -2.35891 0
M  V30 8487 C 800.31 -3.69132 -2.16623 0
M  V30 8488 C 799.636 -4.01747 -3.52851 0
M  V30 8489 C 800.936 -4.98243 -1.56689 0
M  V30 8490 H 802.63 -2.92716 -0.62908 0
M  V30 8491 H 800.176 -1.40816 -0.301156 0
M  V30 8492 H 802.129 -2.8912 -3.06574 0
M  V30 8493 H 800.853 -1.67666 -2.80278 0
M  V30 8494 H 799.512 -3.35231 -1.48377 0
M  V30 8495 H 799.16 -3.11608 -3.94853 0
M  V30 8496 H 798.86 -4.78681 -3.4079 0
M  V30 8497 H 800.384 -4.38487 -4.24925 0
M  V30 8498 H 801.798 -5.30535 -2.17268 0
M  V30 8499 H 800.195 -5.79669 -1.55255 0
M  V30 8500 H 801.265 -4.81986 -0.530827 0
M  V30 8501 N 802.608 0.318715 -1.54344 0
M  V30 8502 C 803.54 1.41364 -1.80413 0
M  V30 8503 C 804.553 1.47627 -0.686294 0
M  V30 8504 O 805.742 1.50264 -0.963486 0
M  V30 8505 C 802.842 2.79867 -1.91123 0
M  V30 8506 C 802.015 2.96749 -3.21339 0
M  V30 8507 C 801.074 4.15642 -3.22689 0
M  V30 8508 O 800.1 4.08571 -3.96306 0
M  V30 8509 N 801.302 5.25416 -2.46817 0
M  V30 8510 H 804.067 1.19363 -2.74905 0
M  V30 8511 H 801.628 0.508722 -1.537 0
M  V30 8512 H 803.62 3.57619 -1.89448 0
M  V30 8513 H 802.19 2.94896 -1.03706 0
M  V30 8514 H 801.41 2.06257 -3.35934 0
M  V30 8515 H 802.698 3.04927 -4.07304 0
M  V30 8516 H 802.096 5.34037 -1.86605 0
M  V30 8517 H 800.653 6.01569 -2.50915 0
M  V30 8518 N 804.086 1.46499 0.581025 0
M  V30 8519 C 804.996 1.59778 1.71779 0
M  V30 8520 C 806.012 0.481223 1.67213 0
M  V30 8521 O 807.188 0.74557 1.87091 0
M  V30 8522 C 804.253 1.58626 3.08283 0
M  V30 8523 C 803.314 2.81527 3.241 0
M  V30 8524 C 802.547 2.80421 4.54092 0
M  V30 8525 O 802.77 1.89262 5.38085 0
M  V30 8526 O 801.704 3.71984 4.73193 0
M  V30 8527 H 805.53 2.55918 1.63523 0
M  V30 8528 H 803.115 1.29311 0.748267 0
M  V30 8529 H 804.997 1.60686 3.89561 0
M  V30 8530 H 803.672 0.656467 3.16973 0
M  V30 8531 H 802.579 2.85021 2.42309 0
M  V30 8532 H 803.912 3.73721 3.20302 0
M  V30 8533 N 805.565 -0.825799 1.34232 0
M  V30 8534 C 806.981 -1.11848 1.13851 0
M  V30 8535 C 807.181 -2.01405 -0.0619031 0
M  V30 8536 O 806.237 -2.41465 -0.738287 0
M  V30 8537 C 807.55 -1.76797 2.43235 0
M  V30 8538 C 809.098 -1.89304 2.49265 0
M  V30 8539 C 809.573 -2.57669 3.78643 0
M  V30 8540 N 811.064 -2.65171 3.79788 0
M  V30 8541 C 811.799 -3.1879 4.76614 0
M  V30 8542 N 811.295 -3.72995 5.83821 0
M  V30 8543 N 813.088 -3.17164 4.64073 0
M  V30 8544 H 805.239 -0.230049 2.11151 0
M  V30 8545 H 807.502 -0.164609 0.9336 0
M  V30 8546 H 807.208 -1.18455 3.31152 0
M  V30 8547 H 807.082 -2.76693 2.56361 0
M  V30 8548 H 809.469 -2.46796 1.6179 0
M  V30 8549 H 809.55 -0.883191 2.4007 0
M  V30 8550 H 809.194 -2.00833 4.66507 0
M  V30 8551 H 809.124 -3.59152 3.8512 0
M  V30 8552 H 811.615 -2.26746 3.02315 0
M  V30 8553 H 811.928 -4.12151 6.53721 0
M  V30 8554 H 810.273 -3.71246 5.87538 0
M  V30 8555 H 813.464 -2.74082 3.79469 0
M  V30 8556 H 813.637 -3.58647 5.397 0
M  V30 8557 N 807.043 -1.17915 -1.04565 0
M  V30 8558 C 808.32 -0.881187 -1.74627 0
M  V30 8559 C 808.7 0.617123 -2.01878 0
M  V30 8560 O 808.048 1.57032 -1.65991 0
M  V30 8561 C 808.258 -1.72299 -3.03503 0
M  V30 8562 C 809.606 -1.94688 -3.77335 0
M  V30 8563 O 810.63 -1.6931 -3.13389 0
M  V30 8564 O 809.489 -2.37379 -4.92253 0
M  V30 8565 H 806.583 -0.326864 -0.759664 0
M  V30 8566 H 809.129 -1.28642 -1.10676 0
M  V30 8567 H 807.901 -2.73891 -2.79462 0
M  V30 8568 H 807.524 -1.31593 -3.75192 0
M  V30 8569 N 808.521 1.23394 -0.980386 0
M  V30 8570 C 809.751 1.9556 -0.666319 0
M  V30 8571 C 810.159 1.72786 0.770815 0
M  V30 8572 O 809.502 1.0162 1.53033 0
M  V30 8573 C 809.564 3.48643 -0.876825 0
M  V30 8574 C 809.228 3.95135 -2.29602 0
M  V30 8575 C 810.225 4.03806 -3.2747 0
M  V30 8576 C 807.91 4.28122 -2.62711 0
M  V30 8577 C 809.904 4.44818 -4.56526 0
M  V30 8578 C 807.591 4.68814 -3.9199 0
M  V30 8579 C 808.589 4.77129 -4.88709 0
M  V30 8580 O 808.277 5.16908 -6.15679 0
M  V30 8581 H 808.009 0.629422 -0.246585 0
M  V30 8582 H 810.563 1.57839 -1.31438 0
M  V30 8583 H 808.793 3.86319 -0.171587 0
M  V30 8584 H 810.482 4.0202 -0.55992 0
M  V30 8585 H 811.248 3.78526 -3.03222 0
M  V30 8586 H 807.127 4.20861 -1.8814 0
M  V30 8587 H 810.671 4.51223 -5.32018 0
M  V30 8588 H 806.568 4.93545 -4.16033 0
M  V30 8589 H 807.336 5.3502 -6.19432 0
M  V30 8590 N 809.999 0.752036 1.385 0
M  V30 8591 C 811.248 0.304294 1.99391 0
M  V30 8592 C 811.561 -1.11982 1.60373 0
M  V30 8593 O 812.767 -1.66795 2.14223 0
M  V30 8594 C 811.223 0.493101 3.56506 0
M  V30 8595 C 810.831 1.9262 4.04477 0
M  V30 8596 C 812.575 0.107994 4.24363 0
M  V30 8597 C 810.482 2.06365 5.54227 0
M  V30 8598 H 809.412 0.110024 0.745929 0
M  V30 8599 H 812.063 0.928355 1.58284 0
M  V30 8600 H 810.445 -0.20012 3.95494 0
M  V30 8601 H 811.619 2.65276 3.76783 0
M  V30 8602 H 809.934 2.26608 3.49339 0
M  V30 8603 H 812.531 0.189474 5.34364 0
M  V30 8604 H 812.874 -0.939165 4.05568 0
M  V30 8605 H 813.407 0.753011 3.90608 0
M  V30 8606 H 810.146 3.0933 5.77923 0
M  V30 8607 H 809.666 1.38167 5.83669 0
M  V30 8608 H 811.345 1.85286 6.19902 0
M  V30 8609 N 811.477 -1.49425 0.500989 0
M  V30 8610 C 812.724 -2.02453 -0.0435355 0
M  V30 8611 C 813.052 -1.38067 -1.36995 0
M  V30 8612 O 812.307 -0.505557 -1.89057 0
M  V30 8613 C 812.606 -3.56562 -0.24463 0
M  V30 8614 C 812.272 -4.39585 1.00379 0
M  V30 8615 C 810.934 -4.61992 1.346 0
M  V30 8616 C 813.286 -4.87881 1.83361 0
M  V30 8617 C 810.614 -5.2994 2.51755 0
M  V30 8618 C 812.966 -5.57119 2.99669 0
M  V30 8619 C 811.63 -5.77771 3.3427 0
M  V30 8620 H 810.9 -0.740829 -0.0159308 0
M  V30 8621 H 813.547 -1.79725 0.661143 0
M  V30 8622 H 811.852 -3.77969 -1.03183 0
M  V30 8623 H 813.549 -3.95185 -0.6804 0
M  V30 8624 H 810.139 -4.22385 0.727225 0
M  V30 8625 H 814.323 -4.70398 1.58237 0
M  V30 8626 H 809.579 -5.44133 2.788 0
M  V30 8627 H 813.753 -5.93516 3.64296 0
M  V30 8628 H 811.38 -6.30197 4.25154 0
M  V30 8629 N 812.955 -0.234822 -1.55841 0
M  V30 8630 C 814.203 0.392483 -1.98252 0
M  V30 8631 C 814.524 1.59344 -1.12404 0
M  V30 8632 O 813.794 1.94834 -0.204055 0
M  V30 8633 H 812.374 0.147999 -0.732192 0
M  V30 8634 H 815.036 -0.330804 -1.92072 0
M  V30 8635 H 814.132 0.709829 -3.03921 0
M  V30 8636 N 814.433 1.57553 0.0384317 0
M  V30 8637 C 815.381 2.07021 1.06043 0
M  V30 8638 C 816.375 0.982078 1.38028 0
M  V30 8639 O 817.581 1.16702 1.37042 0
M  V30 8640 H 813.956 0.660522 0.359464 0
M  V30 8641 H 815.927 2.91944 0.617339 0
M  V30 8642 C 814.676 2.55734 2.35574 0
M  V30 8643 H 813.999 3.39074 2.11822 0
M  V30 8644 H 815.439 2.94066 3.05452 0
M  V30 8645 C 813.898 1.45449 3.03885 0
M  V30 8646 O 814.428 0.815402 3.93337 0
M  V30 8647 N 812.634 1.19134 2.65058 0
M  V30 8648 H 812.181 1.71288 1.92401 0
M  V30 8649 H 812.139 0.455554 3.11082 0
M  V30 8650 N 815.911 -0.310526 1.54511 0
M  V30 8651 C 817.141 -1.06456 1.77061 0
M  V30 8652 C 817.549 -1.81755 0.525528 0
M  V30 8653 O 816.892 -1.76365 -0.513904 0
M  V30 8654 C 816.954 -2.09856 2.91892 0
M  V30 8655 C 816.618 -1.53838 4.30329 0
M  V30 8656 C 817.615 -0.973358 5.10707 0
M  V30 8657 C 815.3 -1.57688 4.76906 0
M  V30 8658 C 817.294 -0.454283 6.35779 0
M  V30 8659 C 814.981 -1.05393 6.01943 0
M  V30 8660 C 815.979 -0.493595 6.81214 0
M  V30 8661 O 815.667 0.0214506 8.03897 0
M  V30 8662 H 815.399 -0.321913 0.594431 0
M  V30 8663 H 817.953 -0.358289 2.02251 0
M  V30 8664 H 816.183 -2.84137 2.62304 0
M  V30 8665 H 817.872 -2.71085 3.02106 0
M  V30 8666 H 818.638 -0.936588 4.75871 0
M  V30 8667 H 814.517 -2.00242 4.1524 0
M  V30 8668 H 818.061 -0.0162657 6.97598 0
M  V30 8669 H 813.958 -1.08782 6.36268 0
M  V30 8670 H 814.726 -0.0927478 8.18447 0
M  V30 8671 N 817.389 -1.46805 -0.573248 0
M  V30 8672 C 818.638 -1.51868 -1.32736 0
M  V30 8673 C 818.951 -0.178765 -1.94781 0
M  V30 8674 O 820.157 -0.107272 -2.71288 0
M  V30 8675 C 818.613 -2.67641 -2.40616 0
M  V30 8676 C 818.221 -4.08094 -1.84832 0
M  V30 8677 C 819.965 -2.81984 -3.17309 0
M  V30 8678 C 817.872 -5.15193 -2.90397 0
M  V30 8679 H 816.802 -0.56523 -0.49903 0
M  V30 8680 H 819.453 -1.7304 -0.610695 0
M  V30 8681 H 817.835 -2.39818 -3.15124 0
M  V30 8682 H 819.009 -4.45751 -1.16803 0
M  V30 8683 H 817.324 -3.985 -1.20775 0
M  V30 8684 H 819.921 -3.59166 -3.96111 0
M  V30 8685 H 820.264 -1.89842 -3.70494 0
M  V30 8686 H 820.797 -3.095 -2.4991 0
M  V30 8687 H 817.536 -6.09158 -2.42088 0
M  V30 8688 H 817.056 -4.82071 -3.56886 0
M  V30 8689 H 818.735 -5.41448 -3.54179 0
M  V30 8690 N 818.867 0.818669 -1.34668 0
M  V30 8691 C 819.777 1.9616 -1.2868 0
M  V30 8692 C 820.793 1.72918 -0.193742 0
M  V30 8693 O 821.969 1.96951 -0.420975 0
M  V30 8694 C 819.034 3.30534 -1.04633 0
M  V30 8695 C 818.095 3.66755 -2.23136 0
M  V30 8696 C 817.328 4.94717 -2.00227 0
M  V30 8697 O 817.551 5.62218 -0.96264 0
M  V30 8698 O 816.485 5.28915 -2.87286 0
M  V30 8699 H 820.311 2.04157 -2.24842 0
M  V30 8700 H 817.896 0.954691 -1.14917 0
M  V30 8701 H 819.778 4.11005 -0.930216 0
M  V30 8702 H 818.453 3.23495 -0.115139 0
M  V30 8703 H 817.36 2.8671 -2.40308 0
M  V30 8704 H 818.693 3.78484 -3.1466 0
M  V30 8705 N 820.346 1.18468 1.03938 0
M  V30 8706 C 821.762 0.934635 1.29371 0
M  V30 8707 C 821.962 -0.399067 1.97509 0
M  V30 8708 O 821.018 -1.13309 2.25648 0
M  V30 8709 C 822.331 2.10111 2.15114 0
M  V30 8710 C 823.879 2.13955 2.28456 0
M  V30 8711 C 824.354 3.30024 3.17566 0
M  V30 8712 N 825.845 3.29893 3.25153 0
M  V30 8713 C 826.58 4.16346 3.94263 0
M  V30 8714 N 826.076 5.12934 4.65693 0
M  V30 8715 N 827.869 4.04256 3.90556 0
M  V30 8716 H 820.02 2.04294 0.581185 0
M  V30 8717 H 822.283 0.892727 0.318971 0
M  V30 8718 H 821.989 3.06572 1.72355 0
M  V30 8719 H 821.863 2.06283 3.15796 0
M  V30 8720 H 824.25 1.18072 2.7045 0
M  V30 8721 H 824.331 2.2184 1.2736 0
M  V30 8722 H 823.975 4.26181 2.76283 0
M  V30 8723 H 823.905 3.19376 4.18697 0
M  V30 8724 H 826.396 2.59969 2.74271 0
M  V30 8725 H 826.709 5.75271 5.16026 0
M  V30 8726 H 825.054 5.16893 4.64593 0
M  V30 8727 H 828.245 3.28083 3.33885 0
M  V30 8728 H 828.418 4.71848 4.44144 0
M  V30 8729 N 821.824 -1.22873 0.986916 0
M  V30 8730 C 822.754 -2.2688 0.552064 0
M  V30 8731 C 823.735 -1.64883 -0.418048 0
M  V30 8732 O 824.92 -1.9171 -0.30999 0
M  V30 8733 C 822.05 -3.47018 -0.139959 0
M  V30 8734 C 821.004 -4.21411 0.748091 0
M  V30 8735 C 820.33 -5.34645 -0.0765132 0
M  V30 8736 C 821.63 -4.80726 2.04206 0
M  V30 8737 H 823.324 -2.63507 1.42143 0
M  V30 8738 H 820.87 -1.26668 0.68492 0
M  V30 8739 H 822.823 -4.18931 -0.455527 0
M  V30 8740 H 821.547 -3.0947 -1.04382 0
M  V30 8741 H 820.206 -3.51325 1.04721 0
M  V30 8742 H 819.854 -4.93339 -0.981109 0
M  V30 8743 H 819.554 -5.85342 0.514606 0
M  V30 8744 H 821.078 -6.09377 -0.386313 0
M  V30 8745 H 822.492 -5.44612 1.79083 0
M  V30 8746 H 820.889 -5.41737 2.5815 0
M  V30 8747 H 821.959 -4.01109 2.72469 0
M  V30 8748 N 823.302 -0.75937 -1.38099 0
M  V30 8749 C 824.548 -0.327559 -2.00745 0
M  V30 8750 C 824.903 1.08042 -1.592 0
M  V30 8751 O 824.196 1.7306 -0.822236 0
M  V30 8752 C 824.39 -0.394999 -3.55211 0
M  V30 8753 C 824.219 -1.80798 -4.11755 0
M  V30 8754 C 822.989 -2.42585 -4.43262 0
M  V30 8755 C 825.187 -2.76556 -4.33614 0
M  V30 8756 N 823.169 -3.75784 -4.85448 0
M  V30 8757 C 824.54 -3.94532 -4.78273 0
M  V30 8758 C 826.595 -2.74004 -4.15724 0
M  V30 8759 C 825.298 -5.10322 -5.06916 0
M  V30 8760 C 827.324 -3.88957 -4.45496 0
M  V30 8761 C 826.686 -5.05672 -4.90383 0
M  V30 8762 H 822.785 -0.166644 -0.764038 0
M  V30 8763 H 825.369 -0.99056 -1.67619 0
M  V30 8764 H 823.54 0.237761 -3.87672 0
M  V30 8765 H 825.272 0.0576828 -4.04659 0
M  V30 8766 H 822.027 -1.94302 -4.31907 0
M  V30 8767 H 822.451 -4.44234 -5.10867 0
M  V30 8768 H 827.093 -1.84948 -3.80203 0
M  V30 8769 H 824.811 -5.99988 -5.41332 0
M  V30 8770 H 828.397 -3.88308 -4.33253 0
M  V30 8771 H 827.277 -5.93146 -5.1298 0
M  V30 8772 N 824.78 1.49157 -0.508906 0
M  V30 8773 C 825.743 2.27784 0.25434 0
M  V30 8774 C 826.743 1.34132 0.88686 0
M  V30 8775 O 827.933 1.5722 0.750168 0
M  V30 8776 C 825.065 3.12347 1.36573 0
M  V30 8777 H 826.258 2.96718 -0.435714 0
M  V30 8778 H 823.811 1.54052 -0.264128 0
M  V30 8779 H 824.546 2.47997 2.08969 0
M  V30 8780 H 824.331 3.81213 0.917543 0
M  V30 8781 H 825.821 3.71712 1.90315 0
M  V30 8782 N 826.258 0.243083 1.55714 0
M  V30 8783 C 827.488 -0.38641 2.02954 0
M  V30 8784 C 827.896 -1.52358 1.12177 0
M  V30 8785 O 827.239 -1.83255 0.127853 0
M  V30 8786 C 827.301 -0.959388 3.46462 0
M  V30 8787 C 826.965 0.0450546 4.56978 0
M  V30 8788 C 827.962 0.853224 5.12851 0
M  V30 8789 C 825.647 0.170041 5.02012 0
M  V30 8790 C 827.641 1.77288 6.12248 0
M  V30 8791 C 825.328 1.0932 6.01242 0
M  V30 8792 C 826.326 1.89315 6.56238 0
M  V30 8793 O 826.014 2.80075 7.53534 0
M  V30 8794 H 825.746 -0.0964333 0.669086 0
M  V30 8795 H 828.3 0.363399 2.0216 0
M  V30 8796 H 826.53 -1.75869 3.44394 0
M  V30 8797 H 828.219 -1.49856 3.77224 0
M  V30 8798 H 828.985 0.767229 4.78893 0
M  V30 8799 H 824.864 -0.442528 4.58871 0
M  V30 8800 H 828.408 2.39768 6.55101 0
M  V30 8801 H 824.305 1.18013 6.3462 0
M  V30 8802 H 825.073 2.74393 7.71136 0
M  V30 8803 N 827.736 -1.57571 -0.0300757 0
M  V30 8804 C 828.666 -2.0953 -1.03051 0
M  V30 8805 C 829.647 -0.99761 -1.37774 0
M  V30 8806 O 830.832 -1.27279 -1.46676 0
M  V30 8807 C 827.962 -2.57385 -2.33174 0
M  V30 8808 C 826.916 -3.71409 -2.12696 0
M  V30 8809 C 826.242 -4.05467 -3.4857 0
M  V30 8810 C 827.542 -4.99877 -1.51396 0
M  V30 8811 H 829.236 -2.93367 -0.597999 0
M  V30 8812 H 826.782 -1.41127 -0.286203 0
M  V30 8813 H 828.735 -2.92355 -3.03491 0
M  V30 8814 H 827.459 -1.70629 -2.78484 0
M  V30 8815 H 826.118 -3.36786 -1.44813 0
M  V30 8816 H 825.766 -3.15779 -3.91526 0
M  V30 8817 H 825.466 -4.82269 -3.35694 0
M  V30 8818 H 826.99 -4.4297 -4.2025 0
M  V30 8819 H 828.404 -5.3281 -2.11629 0
M  V30 8820 H 826.801 -5.81283 -1.49098 0
M  V30 8821 H 827.871 -4.82522 -0.479676 0
M  V30 8822 N 829.214 0.302327 -1.54673 0
M  V30 8823 C 830.442 1.05669 -1.77881 0
M  V30 8824 C 830.857 1.80983 -0.537648 0
M  V30 8825 O 830.214 1.7573 0.492467 0
M  V30 8826 C 830.265 2.03828 -2.98557 0
M  V30 8827 O 829.986 1.3157 -4.17877 0
M  V30 8828 C 831.487 2.91314 -3.34143 0
M  V30 8829 H 828.707 0.313436 -0.593295 0
M  V30 8830 H 831.251 0.342003 -2.0162 0
M  V30 8831 H 829.406 2.70801 -2.7703 0
M  V30 8832 H 829.82 1.97481 -4.85903 0
M  V30 8833 H 831.294 3.56042 -4.21827 0
M  V30 8834 H 831.771 3.59544 -2.52239 0
M  V30 8835 H 832.377 2.29874 -3.57824 0
M  V30 8836 N 830.692 1.47107 0.565454 0
M  V30 8837 C 831.941 1.5257 1.31929 0
M  V30 8838 C 832.254 0.189092 1.94684 0
M  V30 8839 O 833.46 0.121657 2.71227 0
M  V30 8840 C 831.916 2.68914 2.39193 0
M  V30 8841 C 831.524 4.09069 1.82665 0
M  V30 8842 C 833.268 2.83663 3.1581 0
M  V30 8843 C 831.175 5.16726 2.87661 0
M  V30 8844 H 830.105 0.567869 0.496025 0
M  V30 8845 H 832.756 1.73361 0.60151 0
M  V30 8846 H 831.138 2.41486 3.13848 0
M  V30 8847 H 832.312 4.46364 1.14438 0
M  V30 8848 H 830.627 3.99135 1.1866 0
M  V30 8849 H 833.224 3.61261 3.94201 0
M  V30 8850 H 833.567 1.91804 3.69482 0
M  V30 8851 H 834.1 3.10821 2.48265 0
M  V30 8852 H 830.839 6.10433 2.38854 0
M  V30 8853 H 830.359 4.83957 3.54324 0
M  V30 8854 H 832.038 5.43319 3.51303 0
M  V30 8855 N 832.17 -0.811516 1.35101 0
M  V30 8856 C 833.08 -1.95475 1.29718 0
M  V30 8857 C 834.096 -1.72813 0.202909 0
M  V30 8858 O 835.272 -1.96725 0.431414 0
M  V30 8859 C 832.337 -3.29975 1.06385 0
M  V30 8860 C 831.398 -3.65566 2.25077 0
M  V30 8861 C 830.631 -4.93648 2.02848 0
M  V30 8862 O 830.854 -5.617 0.992442 0
M  V30 8863 O 829.788 -5.27384 2.90087 0
M  V30 8864 H 833.614 -2.02961 2.25921 0
M  V30 8865 H 831.199 -0.948583 1.15422 0
M  V30 8866 H 833.081 -4.10506 0.951999 0
M  V30 8867 H 831.756 -3.2343 0.132294 0
M  V30 8868 H 830.663 -2.85432 2.41825 0
M  V30 8869 H 831.996 -3.7681 3.16662 0
M  V30 8870 N 833.648 -1.19017 -1.03309 0
M  V30 8871 C 834.58 -0.881847 -2.11556 0
M  V30 8872 C 835.593 0.123711 -1.62329 0
M  V30 8873 O 836.782 -0.105141 -1.7819 0
M  V30 8874 C 833.882 -0.297634 -3.37591 0
M  V30 8875 C 833.055 -1.35072 -4.16022 0
M  V30 8876 C 832.114 -0.780812 -5.20375 0
M  V30 8877 O 831.14 -1.45745 -5.50224 0
M  V30 8878 N 832.342 0.417964 -5.78993 0
M  V30 8879 H 835.107 -1.81359 -2.38598 0
M  V30 8880 H 832.668 -1.0916 -1.19565 0
M  V30 8881 H 834.66 0.097374 -4.04583 0
M  V30 8882 H 833.23 0.538299 -3.0793 0
M  V30 8883 H 832.45 -1.92074 -3.4424 0
M  V30 8884 H 833.738 -2.06044 -4.65213 0
M  V30 8885 H 833.136 0.985281 -5.57054 0
M  V30 8886 H 831.693 0.754802 -6.47415 0
M  V30 8887 N 835.127 1.22348 -0.993418 0
M  V30 8888 C 836.057 2.26584 -0.564088 0
M  V30 8889 C 837.038 1.65102 0.409298 0
M  V30 8890 O 838.223 1.91872 0.299819 0
M  V30 8891 C 835.353 3.47087 0.121554 0
M  V30 8892 C 834.307 4.21009 -0.770429 0
M  V30 8893 C 833.633 5.34678 0.0481586 0
M  V30 8894 C 834.933 4.79636 -2.06752 0
M  V30 8895 H 836.627 2.62749 -1.43538 0
M  V30 8896 H 834.173 1.26303 -0.691628 0
M  V30 8897 H 836.126 4.19166 0.433303 0
M  V30 8898 H 834.85 3.1002 1.0274 0
M  V30 8899 H 833.509 3.50764 -1.06583 0
M  V30 8900 H 833.157 4.93852 0.954933 0
M  V30 8901 H 832.857 5.85061 -0.545641 0
M  V30 8902 H 834.381 6.09573 0.353991 0
M  V30 8903 H 835.795 5.43654 -1.81969 0
M  V30 8904 H 834.192 5.4036 -2.61019 0
M  V30 8905 H 835.262 3.99659 -2.74592 0
M  V30 8906 N 836.605 0.766683 1.37694 0
M  V30 8907 C 837.535 0.163432 2.32927 0
M  V30 8908 C 838.516 -0.688861 1.55527 0
M  V30 8909 O 839.701 -0.627363 1.83787 0
M  V30 8910 C 836.831 -0.720416 3.39746 0
M  V30 8911 C 835.785 0.0301718 4.27989 0
M  V30 8912 C 835.111 -0.972788 5.25776 0
M  V30 8913 C 836.411 1.20623 5.0818 0
M  V30 8914 H 838.105 0.958988 2.83626 0
M  V30 8915 H 835.651 0.462601 1.36367 0
M  V30 8916 H 837.604 -1.15221 4.05342 0
M  V30 8917 H 836.328 -1.54844 2.8756 0
M  V30 8918 H 834.987 0.442685 3.63917 0
M  V30 8919 H 834.635 -1.79522 4.69873 0
M  V30 8920 H 834.335 -0.475145 5.85676 0
M  V30 8921 H 835.859 -1.40362 5.94248 0
M  V30 8922 H 837.273 0.851341 5.66944 0
M  V30 8923 H 835.67 1.63561 5.7738 0
M  V30 8924 H 836.74 2.01281 4.41151 0
M  V30 8925 N 838.083 -1.48885 0.516809 0
M  V30 8926 C 838.993 -2.33185 -0.257293 0
M  V30 8927 C 840.009 -1.4565 -0.951952 0
M  V30 8928 O 841.185 -1.78651 -0.929834 0
M  V30 8929 C 838.25 -3.21465 -1.29851 0
M  V30 8930 C 837.311 -4.24863 -0.615608 0
M  V30 8931 C 836.544 -5.08925 -1.60722 0
M  V30 8932 O 836.767 -4.9475 -2.83863 0
M  V30 8933 O 835.701 -5.90737 -1.15384 0
M  V30 8934 H 839.527 -3.00596 0.433131 0
M  V30 8935 H 837.112 -1.46792 0.277908 0
M  V30 8936 H 838.994 -3.76108 -1.90055 0
M  V30 8937 H 837.669 -2.5673 -1.97158 0
M  V30 8938 H 836.576 -3.74091 0.0265829 0
M  V30 8939 H 837.909 -4.92198 0.0152871 0
M  V30 8940 N 839.561 -0.251338 -1.55583 0
M  V30 8941 C 840.508 0.646337 -2.21565 0
M  V30 8942 C 841.478 1.16796 -1.18102 0
M  V30 8943 O 842.663 1.22162 -1.46564 0
M  V30 8944 C 839.803 1.83557 -2.92234 0
M  V30 8945 C 838.916 1.35006 -4.10363 0
M  V30 8946 C 838.051 2.4992 -4.68736 0
M  V30 8947 C 837.09 1.98253 -5.79105 0
M  V30 8948 N 836.227 3.06551 -6.31642 0
M  V30 8949 H 841.067 0.0769881 -2.97901 0
M  V30 8950 H 838.604 0.026238 -1.47077 0
M  V30 8951 H 840.562 2.53425 -3.31408 0
M  V30 8952 H 839.192 2.37733 -2.18364 0
M  V30 8953 H 838.244 0.545274 -3.76472 0
M  V30 8954 H 839.556 0.931435 -4.90026 0
M  V30 8955 H 838.71 3.27823 -5.10507 0
M  V30 8956 H 837.449 2.95086 -3.88298 0
M  V30 8957 H 836.454 1.18822 -5.36807 0
M  V30 8958 H 837.679 1.54051 -6.61396 0
M  V30 8959 H 835.625 3.51143 -5.54107 0
M  V30 8960 H 835.542 2.69033 -7.06511 0
M  V30 8961 H 836.81 3.84499 -6.78071 0
M  V30 8962 N 841.039 1.57585 0.0217189 0
M  V30 8963 C 842.455 1.55072 0.377484 0
M  V30 8964 C 842.655 0.978423 1.76151 0
M  V30 8965 O 841.711 0.602688 2.45202 0
M  V30 8966 C 843.024 2.99462 0.272605 0
M  V30 8967 C 844.572 3.11047 0.349148 0
M  V30 8968 C 845.047 4.57182 0.273636 0
M  V30 8969 N 846.538 4.62007 0.332206 0
M  V30 8970 C 847.273 5.72631 0.296782 0
M  V30 8971 N 846.769 6.92472 0.21322 0
M  V30 8972 N 848.562 5.61028 0.347053 0
M  V30 8973 H 840.713 1.93133 -0.883925 0
M  V30 8974 H 842.976 0.886151 -0.33681 0
M  V30 8975 H 842.682 3.45088 -0.67878 0
M  V30 8976 H 842.556 3.61901 1.06335 0
M  V30 8977 H 844.943 2.65364 1.29097 0
M  V30 8978 H 845.024 2.51425 -0.471085 0
M  V30 8979 H 844.668 5.03534 -0.664548 0
M  V30 8980 H 844.598 5.14724 1.11207 0
M  V30 8981 H 847.089 3.75788 0.399003 0
M  V30 8982 H 847.402 7.72563 0.191492 0
M  V30 8983 H 845.747 6.94769 0.179161 0
M  V30 8984 H 848.938 4.66298 0.410378 0
M  V30 8985 H 849.111 6.47229 0.315979 0
M  V30 8986 N 842.517 -0.29412 1.54831 0
M  V30 8987 C 843.464 -1.36296 1.86258 0
M  V30 8988 C 844.434 -1.50061 0.712097 0
M  V30 8989 O 845.619 -1.64809 0.961381 0
M  V30 8990 C 842.759 -2.72187 2.12151 0
M  V30 8991 C 841.872 -2.66816 3.39755 0
M  V30 8992 C 841.007 -3.94747 3.55455 0
M  V30 8993 C 840.046 -3.838 4.76827 0
M  V30 8994 N 839.183 -5.03521 4.89296 0
M  V30 8995 H 844.023 -1.08796 2.7743 0
M  V30 8996 H 841.56 -0.526069 1.37371 0
M  V30 8997 H 843.518 -3.51225 2.25159 0
M  V30 8998 H 842.148 -2.97934 1.24237 0
M  V30 8999 H 841.2 -1.79605 3.3533 0
M  V30 9000 H 842.512 -2.5462 4.28917 0
M  V30 9001 H 841.666 -4.82223 3.68166 0
M  V30 9002 H 840.405 -4.09785 2.64438 0
M  V30 9003 H 839.41 -2.94708 4.64141 0
M  V30 9004 H 840.635 -3.70301 5.69258 0
M  V30 9005 H 838.581 -5.1901 4.01204 0
M  V30 9006 H 838.498 -4.93775 5.72471 0
M  V30 9007 H 839.766 -5.92629 5.06371 0
M  V30 9008 N 843.995 -1.47404 -0.557645 0
M  V30 9009 C 844.943 -1.60265 -1.68576 0
M  V30 9010 C 845.937 -0.469982 -1.6275 0
M  V30 9011 O 847.143 -0.647764 -1.67941 0
M  V30 9012 H 843.518 -0.504353 -0.557792 0
M  V30 9013 H 845.489 -2.55066 -1.54867 0
M  V30 9014 C 844.238 -1.63369 -3.0693 0
M  V30 9015 H 843.561 -2.49874 -3.12095 0
M  V30 9016 H 845.001 -1.76417 -3.85556 0
M  V30 9017 C 843.46 -0.366921 -3.34896 0
M  V30 9018 O 843.99 0.53218 -3.98159 0
M  V30 9019 N 842.196 -0.247082 -2.89548 0
M  V30 9020 H 841.743 -0.979669 -2.38244 0
M  V30 9021 H 841.701 0.599552 -3.0863 0
M  V30 9022 N 845.473 0.80434 -1.35529 0
M  V30 9023 C 846.436 1.89788 -1.28503 0
M  V30 9024 C 847.436 1.59601 -0.195983 0
M  V30 9025 O 848.626 1.68292 -0.449827 0
M  V30 9026 C 845.758 3.26255 -0.98847 0
M  V30 9027 H 846.951 1.97436 -2.25741 0
M  V30 9028 H 844.504 1.00046 -1.20086 0
M  V30 9029 H 845.239 3.24294 -0.0200541 0
M  V30 9030 H 845.024 3.49551 -1.77641 0
M  V30 9031 H 846.514 4.06298 -0.964975 0
M  V30 9032 N 846.951 1.19563 1.02676 0
M  V30 9033 C 847.901 0.903055 2.09354 0
M  V30 9034 C 848.885 -0.133009 1.60349 0
M  V30 9035 O 850.077 0.0729744 1.7685 0
M  V30 9036 C 847.206 0.445852 3.40392 0
M  V30 9037 C 846.292 1.51477 3.96126 0
M  V30 9038 N 846.683 2.73474 4.25495 0
M  V30 9039 C 844.981 1.37856 4.2416 0
M  V30 9040 C 845.682 3.42348 4.7029 0
M  V30 9041 N 844.658 2.69746 4.71952 0
M  V30 9042 H 848.46 1.83023 2.29956 0
M  V30 9043 H 845.974 1.08812 1.20556 0
M  V30 9044 H 847.971 0.21769 4.16331 0
M  V30 9045 H 846.631 -0.47482 3.2121 0
M  V30 9046 H 847.642 3.10217 4.14711 0
M  V30 9047 H 844.319 0.521512 4.1423 0
M  V30 9048 H 845.709 4.46686 5.01917 0
M  V30 9049 N 848.429 -1.21819 0.999893 0
M  V30 9050 C 849.677 -1.90375 0.678351 0
M  V30 9051 C 849.998 -1.78155 -0.792824 0
M  V30 9052 O 849.268 -1.17319 -1.56885 0
M  V30 9053 H 847.848 -0.704661 0.247915 0
M  V30 9054 H 850.51 -1.48021 1.2679 0
M  V30 9055 H 849.606 -2.97385 0.947023 0
M  V30 9056 N 849.908 -0.773975 -1.37286 0
M  V30 9057 C 850.818 -0.162571 -2.34036 0
M  V30 9058 C 851.834 0.677022 -1.60289 0
M  V30 9059 O 853.01 0.596423 -1.92366 0
M  V30 9060 C 850.075 0.70457 -3.39465 0
M  V30 9061 C 849.136 -0.151738 -4.29032 0
M  V30 9062 C 848.369 0.674111 -5.29426 0
M  V30 9063 O 848.592 1.91107 -5.37433 0
M  V30 9064 O 847.526 0.0821398 -6.01844 0
M  V30 9065 H 851.352 -0.962119 -2.88057 0
M  V30 9066 H 848.937 -0.53517 -1.39486 0
M  V30 9067 H 850.819 1.19954 -4.03967 0
M  V30 9068 H 849.494 1.48227 -2.87768 0
M  V30 9069 H 848.401 -0.693118 -3.67623 0
M  V30 9070 H 849.734 -0.892575 -4.84039 0
M  V30 9071 N 851.386 1.48609 -0.524698 0
M  V30 9072 C 852.296 2.33318 0.244923 0
M  V30 9073 C 853.312 1.46153 0.944214 0
M  V30 9074 O 854.488 1.79141 0.920347 0
M  V30 9075 C 851.553 3.22149 1.28144 0
M  V30 9076 C 850.614 4.25184 0.593068 0
M  V30 9077 C 849.847 5.0977 1.5802 0
M  V30 9078 O 850.07 4.96249 2.81235 0
M  V30 9079 O 849.004 5.9134 1.1225 0
M  V30 9080 H 852.83 3.00362 -0.449066 0
M  V30 9081 H 850.415 1.46643 -0.285689 0
M  V30 9082 H 852.297 3.77111 1.88057 0
M  V30 9083 H 850.972 2.57772 1.95793 0
M  V30 9084 H 849.879 3.74071 -0.0464214 0
M  V30 9085 H 851.212 4.92183 -0.0413893 0
M  V30 9086 N 852.864 0.259585 1.55447 0
M  V30 9087 C 853.811 -0.634578 2.21905 0
M  V30 9088 C 854.781 -1.16168 1.18719 0
M  V30 9089 O 855.966 -1.21383 1.4721 0
M  V30 9090 C 853.106 -1.82005 2.93203 0
M  V30 9091 C 852.219 -1.32828 4.11073 0
M  V30 9092 C 851.354 -2.47431 4.70055 0
M  V30 9093 C 850.393 -1.95179 5.80148 0
M  V30 9094 N 849.53 -3.03197 6.33258 0
M  V30 9095 H 854.37 -0.0611886 2.97937 0
M  V30 9096 H 851.907 -0.0184378 1.47088 0
M  V30 9097 H 853.865 -2.51664 3.32748 0
M  V30 9098 H 852.495 -2.36571 2.19622 0
M  V30 9099 H 851.547 -0.525301 3.76756 0
M  V30 9100 H 852.859 -0.905435 4.90513 0
M  V30 9101 H 852.013 -3.25111 5.12238 0
M  V30 9102 H 850.752 -2.93023 3.89857 0
M  V30 9103 H 849.757 -1.15974 5.37429 0
M  V30 9104 H 850.982 -1.50541 6.62204 0
M  V30 9105 H 848.928 -3.48199 5.55961 0
M  V30 9106 H 848.845 -2.65282 7.07928 0
M  V30 9107 H 850.113 -3.80898 6.80101 0
M  V30 9108 N 854.342 -1.57594 -0.0133615 0
M  V30 9109 C 855.252 -2.10991 -1.02566 0
M  V30 9110 C 856.268 -1.05208 -1.3859 0
M  V30 9111 O 857.444 -1.37034 -1.47593 0
M  V30 9112 C 854.509 -2.59165 -2.30292 0
M  V30 9113 C 853.57 -3.79495 -2.00704 0
M  V30 9114 C 852.803 -4.25361 -3.22341 0
M  V30 9115 O 853.026 -3.70645 -4.33565 0
M  V30 9116 O 851.96 -5.17649 -3.07121 0
M  V30 9117 H 855.786 -2.97678 -0.601806 0
M  V30 9118 H 853.371 -1.47598 -0.23135 0
M  V30 9119 H 855.253 -2.90409 -3.05354 0
M  V30 9120 H 853.928 -1.75582 -2.71942 0
M  V30 9121 H 852.835 -3.53245 -1.23161 0
M  V30 9122 H 854.168 -4.64109 -1.639 0
M  V30 9123 N 855.82 0.285905 -1.54985 0
M  V30 9124 C 856.768 1.37302 -1.87752 0
M  V30 9125 C 857.762 1.51763 -0.752616 0
M  V30 9126 O 858.968 1.53701 -0.936805 0
M  V30 9127 H 855.343 0.458935 -0.59572 0
M  V30 9128 H 857.314 1.0691 -2.78591 0
M  V30 9129 C 856.063 2.72885 -2.15474 0
M  V30 9130 H 855.386 2.62545 -3.01513 0
M  V30 9131 H 856.826 3.47925 -2.42331 0
M  V30 9132 C 855.285 3.22989 -0.958124 0
M  V30 9133 O 855.815 4.01268 -0.186219 0
M  V30 9134 N 854.021 2.80503 -0.759354 0
M  V30 9135 H 853.568 2.16961 -1.38874 0
M  V30 9136 H 853.526 3.14375 0.0396937 0
M  V30 9137 N 857.298 1.47698 0.54982 0
M  V30 9138 C 858.228 1.63622 1.66583 0
M  V30 9139 C 859.209 0.485477 1.63025 0
M  V30 9140 O 860.394 0.715692 1.80531 0
M  V30 9141 C 857.524 1.65721 3.05211 0
M  V30 9142 C 856.478 2.80097 3.2362 0
M  V30 9143 C 855.804 2.67272 4.63109 0
M  V30 9144 C 857.104 4.21612 3.08286 0
M  V30 9145 H 858.798 2.57049 1.53512 0
M  V30 9146 H 856.344 1.23705 0.737099 0
M  V30 9147 H 858.297 1.75451 3.83138 0
M  V30 9148 H 857.021 0.688593 3.19258 0
M  V30 9149 H 855.68 2.69889 2.48104 0
M  V30 9150 H 855.328 1.68422 4.73965 0
M  V30 9151 H 855.028 3.44008 4.76374 0
M  V30 9152 H 856.552 2.78942 5.43161 0
M  V30 9153 H 857.966 4.32758 3.76024 0
M  V30 9154 H 856.363 4.99193 3.33057 0
M  V30 9155 H 857.433 4.39462 2.04942 0
M  V30 9156 N 858.776 -0.797141 1.35954 0
M  V30 9157 C 860.004 -1.5858 1.32891 0
M  V30 9158 C 860.419 -1.88578 -0.0915564 0
M  V30 9159 O 859.776 -1.49532 -1.04625 0
M  V30 9160 C 859.827 -2.91143 2.14284 0
M  V30 9161 O 859.548 -2.62442 3.50793 0
M  V30 9162 C 861.049 -3.85476 2.18914 0
M  V30 9163 H 858.269 -0.492111 0.456144 0
M  V30 9164 H 860.813 -0.98994 1.78943 0
M  V30 9165 H 858.968 -3.47219 1.71807 0
M  V30 9166 H 859.382 -3.4715 3.93175 0
M  V30 9167 H 860.856 -4.75574 2.80238 0
M  V30 9168 H 861.333 -4.22758 1.19047 0
M  V30 9169 H 861.939 -3.35334 2.61593 0
M  V30 9170 N 860.254 -1.20106 -1.0204 0
M  V30 9171 C 861.217 -0.948261 -2.08664 0
M  V30 9172 C 862.217 0.0746753 -1.60627 0
M  V30 9173 O 863.407 -0.160981 -1.73455 0
M  V30 9174 C 860.539 -0.426854 -3.38217 0
M  V30 9175 H 861.732 -1.894 -2.32524 0
M  V30 9176 H 859.285 -1.0159 -1.18782 0
M  V30 9177 H 860.02 0.524532 -3.2003 0
M  V30 9178 H 859.805 -1.16451 -3.74408 0
M  V30 9179 H 861.295 -0.269346 -4.1673 0
M  V30 9180 N 861.732 1.21287 -1.00634 0
M  V30 9181 C 863.148 1.42467 -0.719389 0
M  V30 9182 C 863.348 1.88767 0.704927 0
M  V30 9183 O 862.404 2.05004 1.47409 0
M  V30 9184 C 863.717 2.455 -1.73639 0
M  V30 9185 C 865.265 2.59281 -1.75335 0
M  V30 9186 C 865.74 3.65547 -2.75934 0
M  V30 9187 N 867.231 3.73019 -2.74611 0
M  V30 9188 C 867.966 4.54873 -3.4911 0
M  V30 9189 N 867.462 5.40614 -4.33253 0
M  V30 9190 N 869.255 4.49309 -3.37754 0
M  V30 9191 H 861.406 0.895454 -1.92602 0
M  V30 9192 H 863.669 0.455491 -0.831404 0
M  V30 9193 H 863.375 2.18455 -2.75627 0
M  V30 9194 H 863.249 3.44325 -1.54014 0
M  V30 9195 H 865.636 2.85661 -0.740377 0
M  V30 9196 H 865.717 1.60685 -1.99032 0
M  V30 9197 H 865.361 3.39911 -3.77389 0
M  V30 9198 H 865.291 4.63741 -2.49503 0
M  V30 9199 H 867.782 3.11766 -2.13565 0
M  V30 9200 H 868.095 6.0013 -4.86892 0
M  V30 9201 H 866.44 5.40151 -4.37335 0
M  V30 9202 H 869.631 3.81357 -2.71449 0
M  V30 9203 H 869.804 5.12867 -3.9607 0
M  V30 9204 N 863.21 0.781244 1.36873 0
M  V30 9205 C 864.173 0.180094 2.28491 0
M  V30 9206 C 865.173 -0.617798 1.48458 0
M  V30 9207 O 866.363 -0.439991 1.68552 0
M  V30 9208 C 863.495 -0.751741 3.32508 0
M  V30 9209 H 864.688 0.987837 2.83164 0
M  V30 9210 H 862.241 0.550102 1.463 0
M  V30 9211 H 862.976 -1.58413 2.82977 0
M  V30 9212 H 862.761 -0.181649 3.91679 0
M  V30 9213 H 864.251 -1.16748 4.00949 0
M  V30 9214 N 864.689 -1.48329 0.532571 0
M  V30 9215 C 865.619 -2.32485 -0.217511 0
M  V30 9216 C 866.6 -1.42255 -0.932598 0
M  V30 9217 O 867.785 -1.7114 -0.917873 0
M  V30 9218 C 864.915 -3.23509 -1.26329 0
M  V30 9219 C 863.869 -4.22784 -0.666191 0
M  V30 9220 C 863.195 -5.0296 -1.81482 0
M  V30 9221 C 864.495 -5.21031 0.363813 0
M  V30 9222 H 866.189 -2.95445 0.485014 0
M  V30 9223 H 863.735 -1.42075 0.234694 0
M  V30 9224 H 865.688 -3.81211 -1.79601 0
M  V30 9225 H 864.412 -2.58554 -1.99543 0
M  V30 9226 H 863.071 -3.66272 -0.15498 0
M  V30 9227 H 862.719 -4.34427 -2.5354 0
M  V30 9228 H 862.419 -5.70154 -1.4212 0
M  V30 9229 H 863.943 -5.63514 -2.35126 0
M  V30 9230 H 865.357 -5.73241 -0.0819079 0
M  V30 9231 H 863.754 -5.96292 0.674956 0
M  V30 9232 H 864.824 -4.6801 1.26865 0
M  V30 9233 N 866.167 -0.267825 -1.55308 0
M  V30 9234 C 867.444 0.402449 -1.91415 0
M  V30 9235 C 867.824 1.7428 -1.1912 0
M  V30 9236 O 867.172 2.2631 -0.315609 0
M  V30 9237 C 867.382 0.549926 -3.4464 0
M  V30 9238 C 868.73 0.836188 -4.16285 0
M  V30 9239 O 869.754 0.635009 -3.50494 0
M  V30 9240 O 868.613 1.22051 -5.32697 0
M  V30 9241 H 865.707 0.219177 -0.797427 0
M  V30 9242 H 868.253 -0.313439 -1.6678 0
M  V30 9243 H 867.025 -0.393641 -3.89315 0
M  V30 9244 H 866.648 1.31556 -3.75205 0
M  V30 9245 N 867.645 1.57599 0.00500368 0
M  V30 9246 C 868.575 2.11143 0.99705 0
M  V30 9247 C 869.556 1.0194 1.3617 0
M  V30 9248 O 870.741 1.29596 1.44632 0
M  V30 9249 C 867.871 2.61062 2.2905 0
M  V30 9250 C 866.825 3.74745 2.0676 0
M  V30 9251 C 866.151 4.10961 3.42075 0
M  V30 9252 C 867.451 5.02222 1.43424 0
M  V30 9253 H 869.145 2.94281 0.551251 0
M  V30 9254 H 866.691 1.41565 0.263715 0
M  V30 9255 H 868.644 2.97146 2.98801 0
M  V30 9256 H 867.368 1.75038 2.75734 0
M  V30 9257 H 866.027 3.39047 1.39436 0
M  V30 9258 H 865.675 3.21968 3.86453 0
M  V30 9259 H 865.375 4.87549 3.27979 0
M  V30 9260 H 866.899 4.49599 4.1315 0
M  V30 9261 H 868.313 5.36109 2.03125 0
M  V30 9262 H 866.71 5.83581 1.39831 0
M  V30 9263 H 867.78 4.83224 0.40285 0
M  V30 9264 N 869.123 -0.277682 1.55134 0
M  V30 9265 C 870.348 -1.03254 1.7987 0
M  V30 9266 C 870.773 -1.79324 0.567861 0
M  V30 9267 O 870.131 -1.74764 -0.4824 0
M  V30 9268 C 870.179 -1.9705 3.02 0
M  V30 9269 O 869.283 -3.05744 2.76757 0
M  V30 9270 H 868.624 -0.295447 0.594649 0
M  V30 9271 H 871.154 -0.308013 2.02268 0
M  V30 9272 H 871.164 -2.3909 3.30606 0
M  V30 9273 H 869.839 -1.41094 3.91236 0
M  V30 9274 H 868.416 -2.68052 2.59235 0
M  V30 9275 N 870.601 -1.47988 -0.541979 0
M  V30 9276 C 871.531 -1.64503 -1.65713 0
M  V30 9277 C 872.512 -0.494116 -1.62765 0
M  V30 9278 O 873.697 -0.725256 -1.80149 0
M  V30 9279 C 870.827 -1.67337 -3.04328 0
M  V30 9280 C 869.781 -2.81809 -3.2213 0
M  V30 9281 C 869.107 -2.69724 -4.61685 0
M  V30 9282 C 870.407 -4.23241 -3.06046 0
M  V30 9283 H 872.101 -2.5786 -1.52147 0
M  V30 9284 H 869.647 -1.24094 -0.730529 0
M  V30 9285 H 871.6 -1.77481 -3.82202 0
M  V30 9286 H 870.324 -0.705514 -3.18889 0
M  V30 9287 H 868.983 -2.71201 -2.46669 0
M  V30 9288 H 868.631 -1.70934 -4.73065 0
M  V30 9289 H 868.331 -3.4653 -4.74543 0
M  V30 9290 H 869.855 -2.81818 -5.41674 0
M  V30 9291 H 871.269 -4.34746 -3.73723 0
M  V30 9292 H 869.666 -5.00952 -3.30405 0
M  V30 9293 H 870.736 -4.40543 -2.02609 0
M  V30 9294 N 872.079 0.78992 -1.36375 0
M  V30 9295 C 873.026 1.90254 -1.3066 0
M  V30 9296 C 873.996 1.65171 -0.17539 0
M  V30 9297 O 875.181 1.87338 -0.361824 0
M  V30 9298 C 872.321 3.27057 -1.10125 0
M  V30 9299 C 871.434 3.64215 -2.32317 0
M  V30 9300 C 870.569 4.90134 -2.04798 0
M  V30 9301 C 869.608 5.19969 -3.22953 0
M  V30 9302 N 868.745 6.37071 -2.95102 0
M  V30 9303 H 873.585 1.94474 -2.25796 0
M  V30 9304 H 871.122 0.951022 -1.12223 0
M  V30 9305 H 873.08 4.05947 -0.962453 0
M  V30 9306 H 871.71 3.22261 -0.186444 0
M  V30 9307 H 870.762 2.80454 -2.57002 0
M  V30 9308 H 872.074 3.82212 -3.20492 0
M  V30 9309 H 871.228 5.76888 -1.87845 0
M  V30 9310 H 869.967 4.74205 -1.13932 0
M  V30 9311 H 868.972 4.31699 -3.40465 0
M  V30 9312 H 870.197 5.37817 -4.14644 0
M  V30 9313 H 868.143 6.22535 -2.06848 0
M  V30 9314 H 868.06 6.55398 -3.76815 0
M  V30 9315 H 869.328 7.26808 -2.81727 0
M  V30 9316 N 873.557 1.20646 1.01402 0
M  V30 9317 C 874.787 1.04238 1.78376 0
M  V30 9318 C 875.195 -0.411327 1.84675 0
M  V30 9319 O 874.538 -1.29734 1.30057 0
M  V30 9320 C 874.6 1.55349 3.24202 0
M  V30 9321 C 874.264 3.03684 3.41504 0
M  V30 9322 C 875.261 4.01318 3.30514 0
M  V30 9323 C 872.946 3.42698 3.67237 0
M  V30 9324 C 874.94 5.35956 3.45007 0
M  V30 9325 C 872.627 4.77491 3.81373 0
M  V30 9326 C 873.625 5.73929 3.70263 0
M  V30 9327 O 873.313 7.06277 3.83963 0
M  V30 9328 H 873.045 0.366978 0.567718 0
M  V30 9329 H 875.599 1.60235 1.28506 0
M  V30 9330 H 873.829 0.93739 3.75166 0
M  V30 9331 H 875.518 1.34921 3.8282 0
M  V30 9332 H 876.284 3.72522 3.10568 0
M  V30 9333 H 872.163 2.68175 3.74971 0
M  V30 9334 H 875.707 6.11212 3.36252 0
M  V30 9335 H 871.604 5.05977 4.00821 0
M  V30 9336 H 872.372 7.13561 4.00965 0
M  V30 9337 N 875.035 -1.20752 1.01276 0
M  V30 9338 C 875.985 -2.21252 0.550602 0
M  V30 9339 C 876.969 -1.56052 -0.391985 0
M  V30 9340 O 878.161 -1.75682 -0.215575 0
M  V30 9341 C 875.29 -3.43112 -0.113601 0
M  V30 9342 C 874.376 -4.15485 0.850465 0
M  V30 9343 N 874.767 -4.64301 2.00643 0
M  V30 9344 C 873.065 -4.40932 0.670476 0
M  V30 9345 C 873.766 -5.197 2.61317 0
M  V30 9346 N 872.742 -5.09534 1.8941 0
M  V30 9347 H 876.544 -2.56657 1.43194 0
M  V30 9348 H 874.058 -1.36646 0.877597 0
M  V30 9349 H 876.055 -4.1433 -0.462211 0
M  V30 9350 H 874.715 -3.09213 -0.990825 0
M  V30 9351 H 875.726 -4.59637 2.38651 0
M  V30 9352 H 872.403 -4.17197 -0.159016 0
M  V30 9353 H 873.793 -5.67873 3.59123 0
M  V30 9354 N 876.513 -0.788492 -1.36457 0
M  V30 9355 C 877.76 -0.360461 -1.99266 0
M  V30 9356 C 878.088 1.0676 -1.62581 0
M  V30 9357 O 877.343 1.75205 -0.871884 0
M  V30 9358 C 877.642 -0.470255 -3.54293 0
M  V30 9359 C 877.308 -1.85899 -4.10795 0
M  V30 9360 C 875.97 -2.23896 -4.25939 0
M  V30 9361 C 878.322 -2.76836 -4.41601 0
M  V30 9362 C 875.65 -3.52235 -4.69199 0
M  V30 9363 C 878.002 -4.04602 -4.86292 0
M  V30 9364 C 876.666 -4.42623 -4.99641 0
M  V30 9365 H 875.936 -0.131902 -0.729166 0
M  V30 9366 H 878.583 -1.00577 -1.62962 0
M  V30 9367 H 876.888 0.258559 -3.90946 0
M  V30 9368 H 878.585 -0.120119 -4.0082 0
M  V30 9369 H 875.175 -1.55372 -3.99447 0
M  V30 9370 H 879.359 -2.48735 -4.2947 0
M  V30 9371 H 874.615 -3.81565 -4.77722 0
M  V30 9372 H 878.789 -4.75182 -5.09092 0
M  V30 9373 H 876.416 -5.42125 -5.32921 0
M  V30 9374 N 877.991 1.48044 -0.54043 0
M  V30 9375 C 879.237 2.02797 -0.0101718 0
M  V30 9376 C 879.57 1.41565 1.32939 0
M  V30 9377 O 878.845 0.565139 1.86109 0
M  V30 9378 C 879.128 3.59959 0.100758 0
M  V30 9379 C 878.981 4.31654 -1.26471 0
M  V30 9380 C 880.3 4.32347 0.822455 0
M  V30 9381 H 877.419 0.736982 -0.00517052 0
M  V30 9382 H 880.061 1.76656 -0.69948 0
M  V30 9383 H 878.211 3.82363 0.687824 0
M  V30 9384 H 879.883 4.20639 -1.89369 0
M  V30 9385 H 878.126 3.92663 -1.84386 0
M  V30 9386 H 878.797 5.401 -1.13998 0
M  V30 9387 H 881.273 4.14835 0.324164 0
M  V30 9388 H 880.149 5.41978 0.868993 0
M  V30 9389 H 880.41 4.00369 1.87501 0
M  V30 9390 N 879.47 0.276058 1.55163 0
M  V30 9391 C 880.698 -0.343772 2.04024 0
M  V30 9392 C 881.113 -1.49397 1.15438 0
M  V30 9393 O 880.47 -1.81662 0.174692 0
M  V30 9394 C 880.521 -0.823885 3.51986 0
M  V30 9395 O 880.242 0.280507 4.37201 0
M  V30 9396 C 881.743 -1.51143 4.16738 0
M  V30 9397 H 878.963 -0.07828 0.666418 0
M  V30 9398 H 881.507 0.408427 2.0038 0
M  V30 9399 H 879.662 -1.52617 3.56071 0
M  V30 9400 H 880.076 -0.0887831 5.24425 0
M  V30 9401 H 881.55 -1.79878 5.2187 0
M  V30 9402 H 882.027 -2.44327 3.64967 0
M  V30 9403 H 882.633 -0.852975 4.16659 0
M  V30 9404 N 880.948 -1.576 0.00335426 0
M  V30 9405 C 882.359 -1.7875 -0.539008 0
M  V30 9406 C 882.71 -0.911097 -1.73763 0
M  V30 9407 O 881.835 -0.114476 -2.16097 0
M  V30 9408 C 882.43 -3.24177 -0.984611 0
M  V30 9409 C 880.989 -3.46412 -1.47226 0
M  V30 9410 C 880.136 -2.74024 -0.425004 0
M  V30 9411 H 883.087 -1.57032 0.229511 0
M  V30 9412 H 883.108 -3.32474 -1.85044 0
M  V30 9413 H 882.62 -3.87938 -0.112035 0
M  V30 9414 H 880.721 -2.8787 -2.36562 0
M  V30 9415 H 880.834 -4.55098 -1.49741 0
M  V30 9416 H 879.198 -2.38741 -0.887394 0
M  V30 9417 H 879.981 -3.40486 0.438662 0
M  V30 9418 N 882.426 0.269451 -1.5528 0
M  V30 9419 C 883.356 1.33729 -1.91413 0
M  V30 9420 C 884.337 1.51348 -0.776391 0
M  V30 9421 O 885.522 1.64332 -1.03482 0
M  V30 9422 C 882.652 2.69618 -2.18914 0
M  V30 9423 C 881.606 2.66725 -3.34726 0
M  V30 9424 C 880.932 4.06199 -3.47716 0
M  V30 9425 C 882.232 2.25684 -4.71025 0
M  V30 9426 H 883.926 1.03736 -2.80854 0
M  V30 9427 H 881.472 0.497579 -1.3513 0
M  V30 9428 H 883.425 3.44436 -2.42779 0
M  V30 9429 H 882.149 3.01201 -1.26275 0
M  V30 9430 H 880.808 1.94365 -3.10834 0
M  V30 9431 H 880.456 4.3501 -2.52537 0
M  V30 9432 H 880.156 4.05157 -4.25583 0
M  V30 9433 H 881.68 4.8275 -3.73877 0
M  V30 9434 H 883.094 2.90225 -4.94411 0
M  V30 9435 H 881.491 2.35797 -5.51833 0
M  V30 9436 H 882.561 1.20819 -4.69607 0
M  V30 9437 N 883.904 1.48273 0.534124 0
M  V30 9438 C 885.132 1.59734 1.31501 0
M  V30 9439 C 885.547 0.256047 1.87056 0
M  V30 9440 O 884.904 -0.754086 1.66192 0
M  V30 9441 C 884.955 2.64072 2.46877 0
M  V30 9442 O 884.676 3.92995 1.93613 0
M  V30 9443 C 886.177 2.85933 3.38758 0
M  V30 9444 H 883.397 0.538703 0.40005 0
M  V30 9445 H 885.941 1.9407 0.644762 0
M  V30 9446 H 884.096 2.32606 3.09795 0
M  V30 9447 H 884.51 4.50203 2.69106 0
M  V30 9448 H 885.984 3.62749 4.16073 0
M  V30 9449 H 886.461 1.94603 3.93734 0
M  V30 9450 H 887.067 3.18687 2.81636 0
M  V30 9451 N 885.382 -0.782676 1.36792 0
M  V30 9452 C 886.607 -1.57676 1.34733 0
M  V30 9453 C 887.032 -1.87979 -0.0675253 0
M  V30 9454 O 886.39 -1.48404 -1.04144 0
M  V30 9455 C 886.438 -2.87047 2.18257 0
M  V30 9456 O 885.542 -3.80946 1.57969 0
M  V30 9457 H 884.883 -0.478034 0.460846 0
M  V30 9458 H 887.413 -0.969578 1.80168 0
M  V30 9459 H 887.423 -3.36254 2.31079 0
M  V30 9460 H 886.098 -2.64319 3.21104 0
M  V30 9461 H 884.675 -3.39558 1.54126 0
M  V30 9462 N 886.86 -1.21182 -1.00761 0
M  V30 9463 C 887.793 -0.912033 -2.09182 0
M  V30 9464 C 888.771 0.139421 -1.62001 0
M  V30 9465 O 889.955 0.0110272 -1.88497 0
M  V30 9466 C 887.082 -0.368957 -3.36684 0
M  V30 9467 C 886.128 -1.4028 -4.0277 0
M  V30 9468 S 886.961 -2.97108 -4.45519 0
M  V30 9469 C 888.117 -2.444 -5.76211 0
M  V30 9470 H 888.35 -1.83019 -2.34289 0
M  V30 9471 H 885.883 -1.04127 -1.14004 0
M  V30 9472 H 887.841 -0.0621883 -4.10453 0
M  V30 9473 H 886.502 0.527841 -3.09633 0
M  V30 9474 H 885.695 -0.97238 -4.94531 0
M  V30 9475 H 885.297 -1.65752 -3.35265 0
M  V30 9476 H 887.589 -1.84723 -6.51831 0
M  V30 9477 H 888.532 -3.34593 -6.24062 0
M  V30 9478 H 888.94 -1.86203 -5.32906 0
M  V30 9479 N 888.338 1.20213 -1.01915 0
M  V30 9480 C 889.584 1.89928 -0.711007 0
M  V30 9481 C 889.917 1.7881 0.75767 0
M  V30 9482 O 889.192 1.17399 1.55073 0
M  V30 9483 C 889.475 3.41225 -1.15053 0
M  V30 9484 C 889.328 3.61264 -2.67971 0
M  V30 9485 C 890.647 4.34108 -0.72377 0
M  V30 9486 H 887.766 0.689702 -0.259768 0
M  V30 9487 H 890.408 1.41557 -1.26734 0
M  V30 9488 H 888.558 3.82552 -0.677199 0
M  V30 9489 H 890.23 3.29173 -3.23176 0
M  V30 9490 H 888.473 3.04647 -3.08824 0
M  V30 9491 H 889.144 4.67331 -2.93779 0
M  V30 9492 H 891.62 4.00442 -1.13073 0
M  V30 9493 H 890.496 5.38581 -1.05931 0
M  V30 9494 H 890.757 4.40512 0.374424 0
M  V30 9495 N 889.816 0.795718 1.36037 0
M  V30 9496 C 891.062 0.371574 1.99367 0
M  V30 9497 C 891.395 -1.0557 1.62999 0
M  V30 9498 O 890.67 -1.73051 0.887895 0
M  V30 9499 C 890.953 0.542622 3.55988 0
M  V30 9500 C 890.806 2.01404 4.0219 0
M  V30 9501 C 892.125 -0.0384527 4.40083 0
M  V30 9502 H 889.244 0.136483 0.724252 0
M  V30 9503 H 891.886 1.00323 1.61355 0
M  V30 9504 H 890.036 0.0049053 3.885 0
M  V30 9505 H 891.708 2.6133 3.80137 0
M  V30 9506 H 889.951 2.51439 3.53498 0
M  V30 9507 H 890.622 2.08466 5.11122 0
M  V30 9508 H 893.098 0.420634 4.13968 0
M  V30 9509 H 891.974 0.111214 5.48787 0
M  V30 9510 H 892.235 -1.13116 4.27384 0
M  V30 9511 N 891.294 -1.47756 0.548274 0
M  V30 9512 C 892.522 -2.06884 0.0254873 0
M  V30 9513 C 892.937 -1.40225 -1.26422 0
M  V30 9514 O 892.294 -0.495776 -1.75637 0
M  V30 9515 C 892.345 -3.61036 -0.183134 0
M  V30 9516 O 892.066 -4.25195 1.05549 0
M  V30 9517 C 893.567 -4.37008 -0.744222 0
M  V30 9518 H 890.787 -0.669697 0.041789 0
M  V30 9519 H 893.331 -1.89888 0.759138 0
M  V30 9520 H 891.486 -3.77576 -0.866886 0
M  V30 9521 H 891.9 -5.17606 0.847629 0
M  V30 9522 H 893.374 -5.45579 -0.839529 0
M  V30 9523 H 893.851 -4.0268 -1.75344 0
M  V30 9524 H 894.457 -4.25191 -0.0964542 0
M  V30 9525 N 892.772 -0.284283 -1.55015 0
M  V30 9526 C 893.719 0.599194 -2.22886 0
M  V30 9527 C 894.689 1.14264 -1.20553 0
M  V30 9528 O 895.874 1.19025 -1.49123 0
M  V30 9529 C 893.014 1.77317 -2.96062 0
M  V30 9530 C 892.127 1.26271 -4.13134 0
M  V30 9531 C 891.262 2.39922 -4.73931 0
M  V30 9532 C 890.301 1.85925 -5.8318 0
M  V30 9533 N 889.438 2.93084 -6.38002 0
M  V30 9534 H 894.278 0.0137816 -2.97997 0
M  V30 9535 H 891.815 -0.00496503 -1.47099 0
M  V30 9536 H 893.773 2.46339 -3.36709 0
M  V30 9537 H 892.403 2.33047 -2.23358 0
M  V30 9538 H 891.455 0.465296 -3.77544 0
M  V30 9539 H 892.767 0.827284 -4.91892 0
M  V30 9540 H 891.921 3.1692 -5.17346 0
M  V30 9541 H 890.66 2.86784 -3.9447 0
M  V30 9542 H 889.665 1.07409 -5.39206 0
M  V30 9543 H 890.89 1.39987 -6.64515 0
M  V30 9544 H 888.836 3.3931 -5.61431 0
M  V30 9545 H 888.753 2.53986 -7.12058 0
M  V30 9546 H 890.021 3.7003 -6.86075 0
M  V30 9547 N 894.251 1.57596 -0.0117121 0
M  V30 9548 C 895.662 1.79033 0.529521 0
M  V30 9549 C 896.013 0.920299 1.73277 0
M  V30 9550 O 895.138 0.125934 2.16033 0
M  V30 9551 C 895.733 3.24695 0.967405 0
M  V30 9552 C 894.292 3.47188 1.45387 0
M  V30 9553 C 893.439 2.74245 0.410466 0
M  V30 9554 H 896.39 1.56908 -0.237836 0
M  V30 9555 H 896.411 3.33451 1.83278 0
M  V30 9556 H 895.923 3.87992 0.0914605 0
M  V30 9557 H 894.024 2.89121 2.35032 0
M  V30 9558 H 894.137 4.55886 1.47325 0
M  V30 9559 H 892.501 2.39209 0.874721 0
M  V30 9560 H 893.284 3.40248 -0.456713 0
M  V30 9561 N 895.729 -0.261212 1.5542 0
M  V30 9562 C 896.639 -1.34493 1.92221 0
M  V30 9563 C 897.655 -1.53421 0.82086 0
M  V30 9564 O 898.831 -1.6732 1.12099 0
M  V30 9565 C 895.896 -2.68209 2.19692 0
M  V30 9566 C 894.957 -2.57927 3.43179 0
M  V30 9567 C 894.19 -3.85266 3.69331 0
M  V30 9568 O 894.413 -4.86493 2.97793 0
M  V30 9569 O 893.347 -3.8476 4.62865 0
M  V30 9570 H 897.173 -1.06278 2.84497 0
M  V30 9571 H 894.758 -0.460752 1.42118 0
M  V30 9572 H 896.64 -3.47252 2.38734 0
M  V30 9573 H 895.315 -2.96186 1.30597 0
M  V30 9574 H 894.222 -1.77219 3.2946 0
M  V30 9575 H 895.555 -2.34898 4.32532 0
M  V30 9576 N 897.207 -1.48554 -0.526253 0
M  V30 9577 C 898.484 -1.47252 -1.28748 0
M  V30 9578 C 898.864 -0.186245 -2.10277 0
M  V30 9579 O 898.212 0.831954 -2.12816 0
M  V30 9580 C 898.422 -2.73672 -2.16575 0
M  V30 9581 C 899.77 -3.22151 -2.76593 0
M  V30 9582 O 900.794 -2.74614 -2.2686 0
M  V30 9583 O 899.653 -4.04877 -3.67066 0
M  V30 9584 H 896.747 -0.588242 -0.581292 0
M  V30 9585 H 899.293 -1.60792 -0.5426 0
M  V30 9586 H 898.065 -3.58798 -1.56139 0
M  V30 9587 H 897.688 -2.6287 -2.98304 0
M  V30 9588 N 898.685 0.775411 -1.37205 0
M  V30 9589 C 899.633 1.90996 -1.32752 0
M  V30 9590 C 900.627 1.68006 -0.216907 0
M  V30 9591 O 901.833 1.7584 -0.384723 0
M  V30 9592 H 898.208 0.62803 -0.413621 0
M  V30 9593 H 900.179 1.91869 -2.28536 0
M  V30 9594 C 898.928 3.28211 -1.14772 0
M  V30 9595 H 898.251 3.46477 -1.99484 0
M  V30 9596 H 899.691 4.07907 -1.15706 0
M  V30 9597 C 898.15 3.3658 0.146852 0
M  V30 9598 O 898.68 3.85428 1.13173 0
M  V30 9599 N 896.886 2.89936 0.196305 0
M  V30 9600 H 896.433 2.50375 -0.605807 0
M  V30 9601 H 896.391 2.95916 1.06212 0
M  V30 9602 N 900.163 1.21714 1.00117 0
M  V30 9603 C 901.073 0.99597 2.12409 0
M  V30 9604 C 902.089 -0.0531431 1.73919 0
M  V30 9605 O 903.265 0.137757 2.00928 0
M  V30 9606 C 900.33 0.567593 3.42022 0
M  V30 9607 C 899.391 1.68936 3.94663 0
M  V30 9608 C 898.624 1.28133 5.1809 0
M  V30 9609 O 898.847 0.156574 5.70185 0
M  V30 9610 O 897.781 2.0947 5.64275 0
M  V30 9611 H 901.607 1.93657 2.33946 0
M  V30 9612 H 899.192 1.00236 1.10784 0
M  V30 9613 H 901.074 0.338664 4.20037 0
M  V30 9614 H 899.749 -0.34424 3.21864 0
M  V30 9615 H 898.656 1.97274 3.17858 0
M  V30 9616 H 899.989 2.57876 4.19238 0
M  V30 9617 N 901.641 -1.19671 1.02551 0
M  V30 9618 C 902.918 -1.85014 0.634771 0
M  V30 9619 C 903.298 -1.91574 -0.886706 0
M  V30 9620 O 902.646 -1.43022 -1.78205 0
M  V30 9621 C 902.856 -3.24167 1.29292 0
M  V30 9622 C 904.204 -4.00363 1.41402 0
M  V30 9623 O 905.228 -3.33553 1.24983 0
M  V30 9624 O 904.087 -5.2003 1.6802 0
M  V30 9625 H 901.181 -0.797147 0.220196 0
M  V30 9626 H 903.727 -1.27188 1.12345 0
M  V30 9627 H 902.499 -3.14208 2.33215 0
M  V30 9628 H 902.122 -3.89634 0.791895 0
M  V30 9629 N 903.119 -0.802921 -1.35613 0
M  V30 9630 C 904.029 -0.212177 -2.33639 0
M  V30 9631 C 905.045 0.642871 -1.61689 0
M  V30 9632 O 906.221 0.555485 -1.93588 0
M  V30 9633 C 903.286 0.632406 -3.40883 0
M  V30 9634 C 902.347 -0.242708 -4.28613 0
M  V30 9635 C 901.58 0.56166 -5.30736 0
M  V30 9636 O 901.803 1.79664 -5.41366 0
M  V30 9637 O 900.737 -0.0455387 -6.01883 0
M  V30 9638 H 904.563 -1.023 -2.85952 0
M  V30 9639 H 902.148 -0.564636 -1.38319 0
M  V30 9640 H 904.03 1.11358 -4.0642 0
M  V30 9641 H 902.705 1.42089 -2.90848 0
M  V30 9642 H 901.612 -0.77094 -3.6607 0
M  V30 9643 H 902.945 -0.995046 -4.82037 0
M  V30 9644 N 904.597 1.47463 -0.556102 0
M  V30 9645 C 906.013 1.58134 -0.21579 0
M  V30 9646 C 906.213 1.55486 1.28166 0
M  V30 9647 O 905.269 1.45768 2.06174 0
M  V30 9648 C 906.582 2.88686 -0.841464 0
M  V30 9649 C 908.13 3.02268 -0.812591 0
M  V30 9650 C 908.605 4.35518 -1.41731 0
M  V30 9651 N 910.096 4.42151 -1.38045 0
M  V30 9652 C 910.831 5.43817 -1.81799 0
M  V30 9653 N 910.327 6.52299 -2.33404 0
M  V30 9654 N 912.12 5.34855 -1.72877 0
M  V30 9655 H 904.271 1.47428 -1.52901 0
M  V30 9656 H 906.534 0.701586 -0.637559 0
M  V30 9657 H 906.24 2.96358 -1.8938 0
M  V30 9658 H 906.114 3.7572 -0.333846 0
M  V30 9659 H 908.501 2.94194 0.231056 0
M  V30 9660 H 908.582 2.16779 -1.35796 0
M  V30 9661 H 908.226 4.44348 -2.46002 0
M  V30 9662 H 908.156 5.19737 -0.847402 0
M  V30 9663 H 910.647 3.64348 -1.00296 0
M  V30 9664 H 910.96 7.26047 -2.64717 0
M  V30 9665 H 909.305 6.53192 -2.37414 0
M  V30 9666 H 912.496 4.49004 -1.32338 0
M  V30 9667 H 912.669 6.13949 -2.07294 0
M  V30 9668 N 906.075 0.2925 1.54862 0
M  V30 9669 C 907.038 -0.574423 2.21885 0
M  V30 9670 C 908.038 -1.06791 1.20218 0
M  V30 9671 O 909.228 -0.9653 1.45009 0
M  V30 9672 C 906.36 -1.79438 2.89853 0
M  V30 9673 H 907.553 0.0110319 2.99898 0
M  V30 9674 H 905.106 0.043256 1.5624 0
M  V30 9675 H 905.841 -2.4199 2.15897 0
M  V30 9676 H 905.626 -1.44827 3.64373 0
M  V30 9677 H 907.116 -2.41048 3.41007 0
M  V30 9678 N 907.553 -1.57587 0.0200696 0
M  V30 9679 C 908.802 -1.90602 -0.659822 0
M  V30 9680 C 909.115 -0.897216 -1.73808 0
M  V30 9681 O 910.321 -1.11829 -2.47399 0
M  V30 9682 C 908.777 -3.38416 -1.22484 0
M  V30 9683 C 908.385 -4.47637 -0.180339 0
M  V30 9684 C 910.129 -3.80513 -1.88176 0
M  V30 9685 C 908.036 -5.86542 -0.756482 0
M  V30 9686 H 906.966 -0.711272 -0.250216 0
M  V30 9687 H 909.617 -1.83308 0.0838942 0
M  V30 9688 H 907.999 -3.40613 -2.01987 0
M  V30 9689 H 909.173 -4.56987 0.591573 0
M  V30 9690 H 907.488 -4.14687 0.377302 0
M  V30 9691 H 910.085 -4.8164 -2.32222 0
M  V30 9692 H 910.428 -3.15091 -2.72073 0
M  V30 9693 H 910.961 -3.80701 -1.15377 0
M  V30 9694 H 907.7 -6.55485 0.0441468 0
M  V30 9695 H 907.22 -5.80816 -1.49709 0
M  V30 9696 H 908.899 -6.3483 -1.249 0
M  V30 9697 N 909.032 0.252966 -1.55557 0
M  V30 9698 C 909.995 1.29645 -1.8901 0
M  V30 9699 C 910.995 1.41378 -0.766096 0
M  V30 9700 O 912.185 1.40183 -1.03414 0
M  V30 9701 C 909.317 2.67504 -2.11316 0
M  V30 9702 H 910.51 1.01202 -2.82309 0
M  V30 9703 H 908.063 0.491977 -1.48355 0
M  V30 9704 H 908.798 3.01095 -1.20466 0
M  V30 9705 H 908.583 2.6037 -2.93172 0
M  V30 9706 H 910.073 3.42861 -2.38403 0
M  V30 9707 N 910.51 1.48831 0.518367 0
M  V30 9708 C 911.787 1.47933 1.27966 0
M  V30 9709 C 912.167 0.197393 2.10175 0
M  V30 9710 O 911.515 -0.820656 2.13255 0
M  V30 9711 C 911.725 2.74816 2.15121 0
M  V30 9712 C 913.073 3.23613 2.74881 0
M  V30 9713 O 914.097 2.75814 2.254 0
M  V30 9714 O 912.956 4.06818 3.64913 0
M  V30 9715 H 910.05 0.591316 0.578164 0
M  V30 9716 H 912.596 1.61077 0.534065 0
M  V30 9717 H 911.368 3.59621 1.54234 0
M  V30 9718 H 910.991 2.64449 2.96905 0
M  V30 9719 N 911.988 -0.768124 1.37614 0
M  V30 9720 C 912.935 -1.88151 1.33671 0
M  V30 9721 C 913.905 -1.64871 0.201645 0
M  V30 9722 O 915.09 -1.86739 0.391582 0
M  V30 9723 C 912.23 -3.25264 1.15314 0
M  V30 9724 C 911.343 -3.60473 2.38082 0
M  V30 9725 C 910.478 -4.86814 2.12569 0
M  V30 9726 C 909.517 -5.14765 3.31184 0
M  V30 9727 N 908.654 -6.32295 3.052 0
M  V30 9728 H 913.494 -1.90857 2.28862 0
M  V30 9729 H 911.031 -0.933048 1.13722 0
M  V30 9730 H 912.989 -4.04364 1.02691 0
M  V30 9731 H 911.619 -3.21924 0.237689 0
M  V30 9732 H 910.671 -2.7633 2.61431 0
M  V30 9733 H 911.983 -3.77065 3.26532 0
M  V30 9734 H 911.137 -5.73826 1.96999 0
M  V30 9735 H 909.876 -4.72333 1.21462 0
M  V30 9736 H 908.881 -4.26227 3.4729 0
M  V30 9737 H 910.106 -5.31153 4.23147 0
M  V30 9738 H 908.052 -6.19166 2.16726 0
M  V30 9739 H 907.969 -6.4932 3.87195 0
M  V30 9740 H 909.237 -7.22234 2.93254 0
M  V30 9741 N 913.466 -1.22244 -0.994698 0
M  V30 9742 C 914.877 -1.043 -1.5485 0
M  V30 9743 C 915.228 0.394102 -1.92201 0
M  V30 9744 O 914.353 1.27883 -1.74571 0
M  V30 9745 C 914.948 -1.88708 -2.8138 0
M  V30 9746 C 913.507 -1.75067 -3.3321 0
M  V30 9747 C 912.654 -1.85286 -2.06312 0
M  V30 9748 H 915.605 -1.36115 -0.815988 0
M  V30 9749 H 915.626 -1.40342 -3.53673 0
M  V30 9750 H 915.138 -2.93296 -2.54164 0
M  V30 9751 H 913.239 -0.732047 -3.65338 0
M  V30 9752 H 913.352 -2.57632 -4.03934 0
M  V30 9753 H 911.716 -1.28706 -2.19788 0
M  V30 9754 H 912.499 -2.91401 -1.81494 0
M  V30 9755 N 914.944 1.19125 -1.03184 0
M  V30 9756 C 916.192 1.8851 -0.728587 0
M  V30 9757 C 916.513 1.80195 0.74531 0
M  V30 9758 O 915.783 1.21437 1.5372 0
M  V30 9759 H 914.363 0.69784 -0.266511 0
M  V30 9760 H 917.025 1.44607 -1.3067 0
M  V30 9761 H 916.121 2.9477 -1.02554 0
M  V30 9762 N 916.422 0.810101 1.35185 0
M  V30 9763 C 917.332 0.224565 2.33523 0
M  V30 9764 C 918.348 -0.634287 1.62027 0
M  V30 9765 O 919.524 -0.545211 1.9388 0
M  V30 9766 C 916.589 -0.614319 3.41214 0
M  V30 9767 C 915.65 0.265435 4.28479 0
M  V30 9768 C 914.883 -0.533506 5.31027 0
M  V30 9769 O 915.106 -1.7679 5.42311 0
M  V30 9770 O 914.04 0.0774573 6.0185 0
M  V30 9771 H 917.866 1.03815 2.85405 0
M  V30 9772 H 915.451 0.571964 1.38018 0
M  V30 9773 H 917.333 -1.09201 4.07005 0
M  V30 9774 H 916.008 -1.40545 2.91597 0
M  V30 9775 H 914.915 0.790343 3.65656 0
M  V30 9776 H 916.248 1.0206 4.81503 0
M  V30 9777 N 917.9 -1.47166 0.563914 0
M  V30 9778 C 919.177 -1.95586 -0.0236172 0
M  V30 9779 C 919.557 -1.50655 -1.47872 0
M  V30 9780 O 918.905 -0.748479 -2.15894 0
M  V30 9781 C 919.115 -3.48762 0.128841 0
M  V30 9782 C 920.463 -4.24598 -0.0130544 0
M  V30 9783 O 921.487 -3.56155 0.0567242 0
M  V30 9784 O 920.346 -5.46253 -0.164332 0
M  V30 9785 H 917.44 -0.824793 -0.0603789 0
M  V30 9786 H 919.986 -1.57536 0.63091 0
M  V30 9787 H 918.758 -3.74291 1.14113 0
M  V30 9788 H 918.381 -3.93594 -0.56299 0
M  V30 9789 N 919.378 -0.300708 -1.54705 0
M  V30 9790 C 920.341 0.562648 -2.22187 0
M  V30 9791 C 921.341 1.06152 -1.20782 0
M  V30 9792 O 922.531 0.957596 -1.45519 0
M  V30 9793 C 919.663 1.77899 -2.908 0
M  V30 9794 H 920.856 -0.0269361 -2.99888 0
M  V30 9795 H 918.409 -0.0515412 -1.56215 0
M  V30 9796 H 919.144 2.40841 -2.17177 0
M  V30 9797 H 918.929 1.42892 -3.65136 0
M  V30 9798 H 920.419 2.39236 -3.42281 0
M  V30 9799 N 920.856 1.57574 -0.0284266 0
M  V30 9800 C 921.766 2.13637 0.96936 0
M  V30 9801 C 922.782 1.08845 1.35752 0
M  V30 9802 O 923.958 1.40899 1.43908 0
M  V30 9803 C 921.023 2.65179 2.2334 0
M  V30 9804 C 920.084 3.84683 1.90572 0
M  V30 9805 C 919.317 4.33758 3.1095 0
M  V30 9806 O 919.54 3.82009 4.23586 0
M  V30 9807 O 918.474 5.2561 2.93288 0
M  V30 9808 H 922.3 2.99169 0.52267 0
M  V30 9809 H 919.885 1.48159 0.192135 0
M  V30 9810 H 921.767 2.98402 2.97547 0
M  V30 9811 H 920.442 1.82731 2.67191 0
M  V30 9812 H 919.349 3.56386 1.13753 0
M  V30 9813 H 920.682 4.68292 1.51538 0
M  V30 9814 N 922.334 -0.244713 1.55689 0
M  V30 9815 C 923.297 -1.2864 1.89695 0
M  V30 9816 C 924.297 -1.40969 0.773583 0
M  V30 9817 O 925.487 -1.39632 1.04156 0
M  V30 9818 C 922.619 -2.66379 2.12732 0
M  V30 9819 H 923.812 -0.997033 2.82841 0
M  V30 9820 H 921.365 -0.484103 1.48614 0
M  V30 9821 H 922.1 -3.00452 1.22062 0
M  V30 9822 H 921.885 -2.58812 2.94549 0
M  V30 9823 H 923.375 -3.41592 2.40218 0
M  V30 9824 N 923.813 -1.49104 -0.510467 0
M  V30 9825 C 925.041 -1.61806 -1.28944 0
M  V30 9826 C 925.456 -0.285774 -1.86625 0
M  V30 9827 O 924.813 0.727551 -1.67371 0
M  V30 9828 C 924.864 -2.67966 -2.42645 0
M  V30 9829 O 924.585 -3.96026 -1.87337 0
M  V30 9830 C 926.086 -2.91286 -3.34166 0
M  V30 9831 H 923.306 -0.544999 -0.391429 0
M  V30 9832 H 925.85 -1.95071 -0.613805 0
M  V30 9833 H 924.005 -2.37505 -3.06056 0
M  V30 9834 H 924.419 -4.54427 -2.61909 0
M  V30 9835 H 925.893 -3.69323 -4.1025 0
M  V30 9836 H 926.37 -2.00842 -3.90588 0
M  V30 9837 H 926.976 -3.23127 -2.76531 0
M  V30 9838 N 925.291 0.760815 -1.38019 0
M  V30 9839 C 926.702 1.33773 -1.30237 0
M  V30 9840 C 927.053 1.96148 0.0451153 0
M  V30 9841 O 926.178 1.94574 0.9471 0
M  V30 9842 C 926.773 2.43227 -2.35851 0
M  V30 9843 C 925.332 2.96659 -2.31669 0
M  V30 9844 C 924.479 1.69972 -2.191 0
M  V30 9845 H 927.43 0.560237 -1.48482 0
M  V30 9846 H 927.451 3.22985 -2.01149 0
M  V30 9847 H 926.963 1.978 -3.33911 0
M  V30 9848 H 925.064 3.46433 -1.37167 0
M  V30 9849 H 925.177 3.51529 -3.25521 0
M  V30 9850 H 923.541 1.9332 -1.65829 0
M  V30 9851 H 924.324 1.26633 -3.19091 0
M  V30 9852 N 926.769 1.22769 0.988202 0
M  V30 9853 C 928.015 1.05665 1.73097 0
M  V30 9854 C 928.348 -0.406615 1.89895 0
M  V30 9855 O 927.623 -1.30132 1.44554 0
M  V30 9856 C 927.906 1.77381 3.13382 0
M  V30 9857 C 927.759 3.31332 3.04203 0
M  V30 9858 C 929.078 1.52999 4.12649 0
M  V30 9859 H 926.197 0.385258 0.628288 0
M  V30 9860 H 928.839 1.51171 1.15097 0
M  V30 9861 H 926.989 1.38696 3.62899 0
M  V30 9862 H 928.661 3.79489 2.6227 0
M  V30 9863 H 926.904 3.60767 2.40894 0
M  V30 9864 H 927.575 3.76692 4.03493 0
M  V30 9865 H 930.051 1.86611 3.71908 0
M  V30 9866 H 928.927 2.05666 5.08913 0
M  V30 9867 H 929.188 0.463615 4.39662 0
M  V30 9868 N 928.247 -1.18576 1.03814 0
M  V30 9869 C 929.472 -1.92978 0.759873 0
M  V30 9870 C 929.897 -1.75514 -0.676486 0
M  V30 9871 O 929.255 -1.06359 -1.46824 0
M  V30 9872 C 929.303 -3.42507 1.12788 0
M  V30 9873 O 928.407 -4.1163 0.251886 0
M  V30 9874 H 927.748 -0.602129 0.279886 0
M  V30 9875 H 930.278 -1.50383 1.3873 0
M  V30 9876 H 930.288 -3.93206 1.08872 0
M  V30 9877 H 928.963 -3.5454 2.17427 0
M  V30 9878 H 927.54 -3.7125 0.350441 0
M  V30 9879 N 929.725 -0.817259 -1.34754 0
M  V30 9880 C 931.136 -0.462215 -1.80888 0
M  V30 9881 C 931.487 1.01685 -1.67794 0
M  V30 9882 O 930.612 1.79094 -1.21468 0
M  V30 9883 C 931.207 -0.832204 -3.2842 0
M  V30 9884 C 929.766 -0.52961 -3.72655 0
M  V30 9885 C 928.913 -1.05214 -2.56564 0
M  V30 9886 H 931.864 -1.00795 -1.22581 0
M  V30 9887 H 931.885 -0.133804 -3.80265 0
M  V30 9888 H 931.397 -1.90873 -3.37919 0
M  V30 9889 H 929.498 0.537743 -3.68699 0
M  V30 9890 H 929.611 -1.06971 -4.67005 0
M  V30 9891 H 927.975 -0.473949 -2.50251 0
M  V30 9892 H 928.758 -2.135 -2.68836 0
M  V30 9893 N 931.203 1.46865 -0.571711 0
M  V30 9894 C 932.166 2.28658 0.157499 0
M  V30 9895 C 933.166 1.37773 0.829172 0
M  V30 9896 O 934.356 1.6026 0.682811 0
M  V30 9897 C 931.488 3.17859 1.23202 0
M  V30 9898 H 932.681 2.94603 -0.561171 0
M  V30 9899 H 930.234 1.52793 -0.329229 0
M  V30 9900 H 930.969 2.56637 1.98262 0
M  V30 9901 H 930.754 3.84762 0.755031 0
M  V30 9902 H 932.244 3.7945 1.74378 0
M  V30 9903 N 932.681 0.308908 1.54543 0
M  V30 9904 C 933.614 -0.605854 2.20011 0
M  V30 9905 C 934.592 -1.1269 1.17216 0
M  V30 9906 O 935.776 -1.19363 1.45893 0
M  V30 9907 C 932.903 -1.82977 2.85021 0
M  V30 9908 C 931.949 -1.44126 4.0141 0
M  V30 9909 S 932.782 -0.490445 5.33249 0
M  V30 9910 C 933.938 -1.72198 6.01746 0
M  V30 9911 H 934.171 -0.0496911 2.97258 0
M  V30 9912 H 931.704 0.0930238 1.5412 0
M  V30 9913 H 933.662 -2.53211 3.23102 0
M  V30 9914 H 932.323 -2.35711 2.07604 0
M  V30 9915 H 931.516 -2.35288 4.45708 0
M  V30 9916 H 931.118 -0.818788 3.64927 0
M  V30 9917 H 933.41 -2.66147 6.23034 0
M  V30 9918 H 934.353 -1.32142 6.95661 0
M  V30 9919 H 934.761 -1.90229 5.31482 0
M  V30 9920 N 934.159 -1.57557 0.0367827 0
M  V30 9921 C 935.384 -1.96828 -0.653707 0
M  V30 9922 C 935.809 -0.913559 -1.64425 0
M  V30 9923 O 935.167 0.124749 -1.8087 0
M  V30 9924 C 935.215 -3.35189 -1.32969 0
M  V30 9925 O 934.319 -3.32095 -2.44513 0
M  V30 9926 H 933.66 -0.64157 -0.171124 0
M  V30 9927 H 936.19 -2.04351 0.100912 0
M  V30 9928 H 936.2 -3.71593 -1.68472 0
M  V30 9929 H 934.875 -4.11496 -0.603654 0
M  V30 9930 H 933.452 -3.07418 -2.11065 0
M  V30 9931 N 935.637 0.236453 -1.55816 0
M  V30 9932 C 936.867 0.978873 -1.81939 0
M  V30 9933 C 937.275 1.79041 -0.611647 0
M  V30 9934 O 936.618 1.78616 0.429172 0
M  V30 9935 C 936.68 1.9569 -3.01572 0
M  V30 9936 C 936.344 1.33131 -4.37178 0
M  V30 9937 C 937.341 0.728585 -5.1477 0
M  V30 9938 C 935.026 1.34755 -4.83887 0
M  V30 9939 C 937.02 0.150427 -6.37222 0
M  V30 9940 C 934.707 0.765539 -6.06286 0
M  V30 9941 C 935.705 0.168017 -6.82793 0
M  V30 9942 O 935.393 -0.404976 -8.02879 0
M  V30 9943 H 935.125 0.293186 -0.609113 0
M  V30 9944 H 937.679 0.261384 -2.0373 0
M  V30 9945 H 935.909 2.71298 -2.75562 0
M  V30 9946 H 937.598 2.56362 -3.14695 0
M  V30 9947 H 938.364 0.708477 -4.79797 0
M  V30 9948 H 934.243 1.80202 -4.24321 0
M  V30 9949 H 937.787 -0.316586 -6.96881 0
M  V30 9950 H 933.684 0.78301 -6.40733 0
M  V30 9951 H 934.452 -0.29785 -8.17958 0
M  V30 9952 N 937.115 1.49373 0.502552 0
M  V30 9953 C 938.045 1.68839 1.61294 0
M  V30 9954 C 939.026 0.537096 1.61398 0
M  V30 9955 O 940.211 0.772764 1.78163 0
M  V30 9956 C 937.341 1.75347 2.99784 0
M  V30 9957 C 936.295 2.90251 3.14545 0
M  V30 9958 C 935.621 2.8187 4.54371 0
M  V30 9959 C 936.921 4.31207 2.94717 0
M  V30 9960 H 938.615 2.61803 1.45257 0
M  V30 9961 H 936.161 1.25987 0.697371 0
M  V30 9962 H 938.114 1.87552 3.77362 0
M  V30 9963 H 936.838 0.789814 3.16906 0
M  V30 9964 H 935.497 2.77646 2.39392 0
M  V30 9965 H 935.145 1.83416 4.68367 0
M  V30 9966 H 934.845 3.5899 4.65188 0
M  V30 9967 H 936.369 2.96081 5.34012 0
M  V30 9968 H 937.783 4.44501 3.62065 0
M  V30 9969 H 936.18 5.09536 3.17007 0
M  V30 9970 H 937.25 4.45759 1.90857 0
M  V30 9971 N 938.594 -0.753485 1.38421 0
M  V30 9972 C 939.822 -1.54272 1.37868 0
M  V30 9973 C 940.237 -1.88774 -0.0315155 0
M  V30 9974 O 939.594 -1.52785 -0.998148 0
M  V30 9975 C 939.645 -2.84179 2.23438 0
M  V30 9976 O 939.366 -2.51149 3.58965 0
M  V30 9977 C 940.867 -3.78316 2.31067 0
M  V30 9978 H 938.087 -0.47735 0.47157 0
M  V30 9979 H 940.631 -0.932509 1.82001 0
M  V30 9980 H 938.786 -3.41577 1.82767 0
M  V30 9981 H 939.2 -3.34466 4.04021 0
M  V30 9982 H 940.674 -4.66418 2.95226 0
M  V30 9983 H 941.151 -4.18757 1.32436 0
M  V30 9984 H 941.757 -3.26842 2.72129 0
M  V30 9985 N 940.072 -1.23292 -0.981677 0
M  V30 9986 C 941.297 -1.09176 -1.76339 0
M  V30 9987 C 941.722 0.352726 -1.84763 0
M  V30 9988 O 941.08 1.25509 -1.30832 0
M  V30 9989 C 941.128 -1.72046 -3.16911 0
M  V30 9990 O 940.232 -0.98174 -4.00544 0
M  V30 9991 H 939.573 -0.382755 -0.542581 0
M  V30 9992 H 942.103 -1.63319 -1.23239 0
M  V30 9993 H 942.113 -1.77232 -3.67495 0
M  V30 9994 H 940.788 -2.77154 -3.10095 0
M  V30 9995 H 939.365 -1.00672 -3.59054 0
M  V30 9996 N 941.55 1.18024 -1.04442 0
M  V30 9997 C 942.78 1.91753 -0.769044 0
M  V30 9998 C 943.188 1.76629 0.678141 0
M  V30 9999 O 942.531 1.09589 1.47431 0
M  V30 10000 C 942.593 3.43505 -1.0604 0
M  V30 10001 C 942.257 3.82409 -2.50225 0
M  V30 10002 C 943.254 3.8588 -3.48414 0
M  V30 10003 C 940.939 4.13594 -2.85036 0
M  V30 10004 C 942.933 4.19993 -4.79463 0
M  V30 10005 C 940.62 4.47377 -4.1629 0
M  V30 10006 C 941.618 4.50553 -5.13314 0
M  V30 10007 O 941.306 4.83546 -6.42214 0
M  V30 10008 H 941.038 0.615466 -0.279603 0
M  V30 10009 H 943.592 1.5065 -1.3962 0
M  V30 10010 H 941.822 3.84866 -0.376125 0
M  V30 10011 H 943.511 3.98486 -0.772235 0
M  V30 10012 H 944.277 3.6192 -3.2286 0
M  V30 10013 H 940.156 4.10297 -2.10185 0
M  V30 10014 H 943.7 4.22387 -5.55189 0
M  V30 10015 H 939.597 4.70798 -4.4161 0
M  V30 10016 H 940.365 5.01433 -6.46921 0
M  V30 10017 N 943.028 0.824394 1.34319 0
M  V30 10018 C 943.96 0.204805 2.28283 0
M  V30 10019 C 944.973 -0.606162 1.51094 0
M  V30 10020 O 946.162 -0.435602 1.73103 0
M  V30 10021 C 943.262 -0.73139 3.30914 0
M  V30 10022 C 942.435 0.0370723 4.37384 0
M  V30 10023 C 941.494 -0.820272 5.19767 0
M  V30 10024 O 940.52 -0.264721 5.68584 0
M  V30 10025 N 941.722 -2.13984 5.39621 0
M  V30 10026 H 944.487 1.0121 2.82093 0
M  V30 10027 H 942.048 0.681494 1.46858 0
M  V30 10028 H 944.04 -1.30958 3.82926 0
M  V30 10029 H 942.61 -1.43943 2.77487 0
M  V30 10030 H 941.83 0.796578 3.86068 0
M  V30 10031 H 943.118 0.566014 5.05642 0
M  V30 10032 H 942.516 -2.61492 5.01636 0
M  V30 10033 H 941.073 -2.66685 5.94746 0
M  V30 10034 N 944.506 -1.46559 0.579492 0
M  V30 10035 C 945.917 -1.8608 0.152052 0
M  V30 10036 C 946.268 -1.48346 -1.28405 0
M  V30 10037 O 945.393 -0.89685 -1.9694 0
M  V30 10038 C 945.988 -3.37729 0.269171 0
M  V30 10039 C 944.547 -3.76258 -0.103376 0
M  V30 10040 C 943.694 -2.70584 0.60659 0
M  V30 10041 H 946.645 -1.3776 0.787904 0
M  V30 10042 H 946.666 -3.77116 -0.506339 0
M  V30 10043 H 946.178 -3.65162 1.31448 0
M  V30 10044 H 944.279 -3.54443 -1.14895 0
M  V30 10045 H 944.392 -4.78335 0.270701 0
M  V30 10046 H 942.756 -2.54656 0.0471984 0
M  V30 10047 H 943.539 -3.00856 1.65349 0
M  V30 10048 N 945.984 -0.3171 -1.54377 0
M  V30 10049 C 947.395 0.172287 -1.85903 0
M  V30 10050 C 947.746 1.52141 -1.23885 0
M  V30 10051 O 946.871 2.0949 -0.542476 0
M  V30 10052 C 947.466 0.319392 -3.37291 0
M  V30 10053 C 946.025 0.752998 -3.68791 0
M  V30 10054 C 945.172 -0.129143 -2.76999 0
M  V30 10055 H 948.123 -0.537597 -1.49317 0
M  V30 10056 H 948.144 1.15137 -3.62662 0
M  V30 10057 H 947.656 -0.662671 -3.82401 0
M  V30 10058 H 945.757 1.74504 -3.2921 0
M  V30 10059 H 945.87 0.561228 -4.75801 0
M  V30 10060 H 944.234 0.394242 -2.5163 0
M  V30 10061 H 945.017 -1.10785 -3.24933 0
M  V30 10062 N 947.462 1.57535 -0.0451378 0
M  V30 10063 C 948.394 2.08109 0.960372 0
M  V30 10064 C 949.407 1.0077 1.27864 0
M  V30 10065 O 950.596 1.28351 1.24049 0
M  V30 10066 C 947.696 2.50414 2.28355 0
M  V30 10067 C 946.869 3.8102 2.14808 0
M  V30 10068 C 945.928 4.09702 3.30198 0
M  V30 10069 O 944.954 4.79715 3.0637 0
M  V30 10070 N 946.156 3.61138 4.54489 0
M  V30 10071 H 948.921 2.94999 0.528752 0
M  V30 10072 H 946.482 1.61283 0.141248 0
M  V30 10073 H 948.474 2.66683 3.04405 0
M  V30 10074 H 947.044 1.68805 2.63104 0
M  V30 10075 H 946.264 3.74392 1.23387 0
M  V30 10076 H 947.552 4.66559 2.02978 0
M  V30 10077 H 946.95 3.04527 4.76739 0
M  V30 10078 H 945.507 3.82656 5.27653 0
M  V30 10079 N 948.94 -0.228186 1.55939 0
M  V30 10080 C 949.888 -1.30239 1.92719 0
M  V30 10081 C 950.882 -1.48865 0.808424 0
M  V30 10082 O 952.088 -1.50118 0.993204 0
M  V30 10083 H 948.463 -0.436509 0.612343 0
M  V30 10084 H 950.434 -0.964965 2.82367 0
M  V30 10085 C 949.183 -2.647 2.25453 0
M  V30 10086 H 948.506 -2.51173 3.1105 0
M  V30 10087 H 949.946 -3.38691 2.55077 0
M  V30 10088 C 948.405 -3.1921 1.07734 0
M  V30 10089 O 948.935 -4.00301 0.335019 0
M  V30 10090 N 947.141 -2.77492 0.862938 0
M  V30 10091 H 946.688 -2.11657 1.4683 0
M  V30 10092 H 946.646 -3.14306 0.0770119 0
M  V30 10093 N 950.418 -1.49637 -0.494624 0
M  V30 10094 C 951.829 -1.52573 -1.07603 0
M  V30 10095 C 952.18 -0.315591 -1.93645 0
M  V30 10096 O 951.305 0.573966 -2.08649 0
M  V30 10097 C 951.9 -2.7648 -1.95817 0
M  V30 10098 C 950.459 -2.82173 -2.49109 0
M  V30 10099 C 949.606 -2.4657 -1.2688 0
M  V30 10100 H 952.557 -1.56242 -0.278251 0
M  V30 10101 H 952.578 -2.57003 -2.80588 0
M  V30 10102 H 952.09 -3.64538 -1.33167 0
M  V30 10103 H 950.191 -1.9841 -3.15379 0
M  V30 10104 H 950.304 -3.84501 -2.85825 0
M  V30 10105 H 948.668 -1.98489 -1.59607 0
M  V30 10106 H 949.451 -3.3691 -0.659281 0
M  V30 10107 N 951.896 0.746133 -1.38819 0
M  V30 10108 C 953.126 1.53316 -1.38484 0
M  V30 10109 C 953.534 1.89183 0.0253332 0
M  V30 10110 O 952.877 1.5382 1.00424 0
M  V30 10111 C 952.939 2.85623 -2.18311 0
M  V30 10112 C 952.603 2.72253 -3.67052 0
M  V30 10113 C 953.6 2.41547 -4.60381 0
M  V30 10114 C 951.285 2.89472 -4.10501 0
M  V30 10115 C 953.279 2.28226 -5.9514 0
M  V30 10116 C 950.966 2.7577 -5.45338 0
M  V30 10117 C 951.964 2.45191 -6.37472 0
M  V30 10118 O 951.652 2.31561 -7.69828 0
M  V30 10119 H 951.384 0.480763 -0.475229 0
M  V30 10120 H 953.938 0.93057 -1.83111 0
M  V30 10121 H 952.168 3.481 -1.68414 0
M  V30 10122 H 953.857 3.47178 -2.10291 0
M  V30 10123 H 954.623 2.27905 -4.28117 0
M  V30 10124 H 950.502 3.12269 -3.3913 0
M  V30 10125 H 954.046 2.04279 -6.6702 0
M  V30 10126 H 949.943 2.88987 -5.77197 0
M  V30 10127 H 950.711 2.46716 -7.80432 0
M  V30 10128 N 953.375 1.23811 0.975125 0
M  V30 10129 C 954.605 1.0986 1.7497 0
M  V30 10130 C 955.013 -0.352366 1.8589 0
M  V30 10131 O 954.356 -1.2553 1.34119 0
M  V30 10132 C 954.418 1.65584 3.19096 0
M  V30 10133 C 954.082 3.14395 3.3167 0
M  V30 10134 C 955.079 4.1163 3.17579 0
M  V30 10135 C 952.764 3.54208 3.56149 0
M  V30 10136 C 954.758 5.46661 3.27781 0
M  V30 10137 C 952.445 4.89382 3.65989 0
M  V30 10138 C 953.443 5.85418 3.51817 0
M  V30 10139 O 953.131 7.18135 3.61299 0
M  V30 10140 H 952.863 0.384854 0.555755 0
M  V30 10141 H 955.417 1.64242 1.23343 0
M  V30 10142 H 953.647 1.05627 3.71994 0
M  V30 10143 H 955.336 1.47032 3.78334 0
M  V30 10144 H 956.102 3.82214 2.98559 0
M  V30 10145 H 951.981 2.79968 3.66249 0
M  V30 10146 H 955.525 6.21601 3.16636 0
M  V30 10147 H 951.422 5.18473 3.84521 0
M  V30 10148 H 952.19 7.25956 3.78061 0
M  V30 10149 N 954.853 -1.17469 1.05066 0
M  V30 10150 C 956.083 -1.91343 0.779202 0
M  V30 10151 C 956.491 -1.76986 -0.668764 0
M  V30 10152 O 955.834 -1.1037 -1.46848 0
M  V30 10153 C 955.896 -3.42938 1.0786 0
M  V30 10154 C 955.56 -3.81076 2.52249 0
M  V30 10155 C 956.557 -3.84027 3.50456 0
M  V30 10156 C 954.242 -4.12076 2.87225 0
M  V30 10157 C 956.236 -4.17445 4.81683 0
M  V30 10158 C 953.923 -4.45163 4.18656 0
M  V30 10159 C 954.921 -4.47825 5.15696 0
M  V30 10160 O 954.609 -4.80133 6.44769 0
M  V30 10161 H 954.341 -0.613974 0.282863 0
M  V30 10162 H 956.895 -1.49907 1.40417 0
M  V30 10163 H 955.125 -3.84662 0.39653 0
M  V30 10164 H 956.814 -3.98071 0.793357 0
M  V30 10165 H 957.58 -3.60203 3.24775 0
M  V30 10166 H 953.459 -4.09176 2.12358 0
M  V30 10167 H 957.003 -4.19437 5.57421 0
M  V30 10168 H 952.9 -4.68449 4.44101 0
M  V30 10169 H 953.668 -4.97995 6.49571 0
M  V30 10170 N 956.331 -0.831506 -1.3388 0
M  V30 10171 C 957.577 -0.424302 -1.98312 0
M  V30 10172 C 957.91 1.01211 -1.65741 0
M  V30 10173 O 957.185 1.70636 -0.933464 0
M  V30 10174 C 957.468 -0.636815 -3.54424 0
M  V30 10175 C 957.321 -2.11997 -3.96708 0
M  V30 10176 C 958.64 -0.0782411 -4.4003 0
M  V30 10177 H 955.759 -0.155637 -0.720379 0
M  V30 10178 H 958.401 -1.04566 -1.58638 0
M  V30 10179 H 956.551 -0.107907 -3.8835 0
M  V30 10180 H 958.223 -2.71317 -3.73075 0
M  V30 10181 H 956.466 -2.60723 -3.46707 0
M  V30 10182 H 957.137 -2.21944 -5.05416 0
M  V30 10183 H 959.613 -0.530243 -4.12708 0
M  V30 10184 H 958.489 -0.256676 -5.483 0
M  V30 10185 H 958.75 1.01745 -4.30233 0
M  V30 10186 N 957.809 1.4625 -0.587256 0
M  V30 10187 C 959.086 1.95599 -0.00750181 0
M  V30 10188 C 959.466 1.52989 1.45457 0
M  V30 10189 O 958.814 0.782731 2.14676 0
M  V30 10190 C 959.024 3.48513 -0.184309 0
M  V30 10191 C 960.372 4.24565 -0.0544972 0
M  V30 10192 O 961.396 3.5602 -0.113378 0
M  V30 10193 O 960.255 5.46445 0.0774075 0
M  V30 10194 H 957.349 0.825649 0.0472495 0
M  V30 10195 H 959.895 1.56512 -0.655893 0
M  V30 10196 H 958.667 3.72428 -1.20053 0
M  V30 10197 H 958.29 3.9444 0.500301 0
M  V30 10198 N 959.287 0.325282 1.54207 0
M  V30 10199 C 960.535 -0.276229 2.00203 0
M  V30 10200 C 960.856 -1.52519 1.21503 0
M  V30 10201 O 960.126 -1.93313 0.317302 0
M  V30 10202 H 958.706 -0.105059 0.739575 0
M  V30 10203 H 961.368 0.442225 1.89817 0
M  V30 10204 H 960.464 -0.531427 3.07542 0
M  V30 10205 N 960.765 -1.57509 0.0534917 0
M  V30 10206 C 962.042 -1.84137 -0.659767 0
M  V30 10207 C 962.422 -0.942362 -1.88899 0
M  V30 10208 O 961.77 -0.00398566 -2.285 0
M  V30 10209 C 961.98 -3.33919 -1.01486 0
M  V30 10210 C 963.328 -4.00989 -1.39616 0
M  V30 10211 O 964.352 -3.38557 -1.10713 0
M  V30 10212 O 963.211 -5.11071 -1.93567 0
M  V30 10213 H 960.305 -0.760081 -0.325893 0
M  V30 10214 H 962.851 -1.69497 0.0830315 0
M  V30 10215 H 961.623 -3.91046 -0.141041 0
M  V30 10216 H 961.246 -3.53755 -1.81503 0
M  V30 10217 N 962.243 0.219913 -1.56058 0
M  V30 10218 C 963.654 0.786766 -1.69313 0
M  V30 10219 C 964.005 1.84916 -0.655782 0
M  V30 10220 O 963.13 2.1554 0.192772 0
M  V30 10221 C 963.725 1.43387 -3.06962 0
M  V30 10222 C 962.284 1.94809 -3.22066 0
M  V30 10223 C 961.431 0.808863 -2.65241 0
M  V30 10224 H 964.382 -0.00476777 -1.58699 0
M  V30 10225 H 964.403 2.30272 -3.02911 0
M  V30 10226 H 963.915 0.660405 -3.8244 0
M  V30 10227 H 962.016 2.74952 -2.5146 0
M  V30 10228 H 962.129 2.12694 -4.293 0
M  V30 10229 H 960.493 1.21661 -2.23765 0
M  V30 10230 H 961.276 0.0480458 -3.43266 0
M  V30 10231 N 963.721 1.49897 0.486681 0
M  V30 10232 C 964.671 1.6401 1.58381 0
M  V30 10233 C 965.655 0.495215 1.5309 0
M  V30 10234 O 966.847 0.748876 1.60377 0
M  V30 10235 C 963.976 1.72321 2.96918 0
M  V30 10236 C 963.062 2.92435 3.07152 0
M  V30 10237 N 963.453 4.16326 2.87238 0
M  V30 10238 C 961.751 2.90669 3.38271 0
M  V30 10239 C 962.452 4.97144 3.02031 0
M  V30 10240 N 961.428 4.3079 3.31544 0
M  V30 10241 H 965.23 2.57506 1.41661 0
M  V30 10242 H 962.744 1.46867 0.693106 0
M  V30 10243 H 964.741 1.80532 3.75784 0
M  V30 10244 H 963.401 0.799724 3.14697 0
M  V30 10245 H 964.412 4.46076 2.63128 0
M  V30 10246 H 961.089 2.07758 3.62137 0
M  V30 10247 H 962.479 6.05611 2.91006 0
M  V30 10248 N 965.199 -0.738761 1.39212 0
M  V30 10249 C 966.446 -1.49824 1.36231 0
M  V30 10250 C 966.774 -1.94453 -0.0429552 0
M  V30 10251 O 966.029 -1.6683 -1.02304 0
M  V30 10252 C 966.328 -2.75435 2.2775 0
M  V30 10253 C 965.994 -2.49694 3.75451 0
M  V30 10254 C 964.656 -2.42383 4.15697 0
M  V30 10255 C 967.008 -2.27587 4.68885 0
M  V30 10256 C 964.336 -2.11001 5.47444 0
M  V30 10257 C 966.688 -1.97723 6.00906 0
M  V30 10258 C 965.352 -1.88879 6.4022 0
M  V30 10259 H 964.622 -0.548247 0.498504 0
M  V30 10260 H 967.269 -0.848244 1.71689 0
M  V30 10261 H 965.574 -3.45159 1.85398 0
M  V30 10262 H 967.271 -3.33449 2.22739 0
M  V30 10263 H 963.861 -2.56261 3.43552 0
M  V30 10264 H 968.045 -2.32206 4.38628 0
M  V30 10265 H 963.301 -2.02673 5.76831 0
M  V30 10266 H 967.475 -1.79625 6.72836 0
M  V30 10267 H 965.102 -1.64327 7.42227 0
M  V30 10268 N 966.677 -1.24326 -0.968545 0
M  V30 10269 C 967.926 -1.07647 -1.70572 0
M  V30 10270 C 968.239 0.384821 -1.91777 0
M  V30 10271 O 969.445 0.671782 -2.63058 0
M  V30 10272 C 967.901 -1.87799 -3.07017 0
M  V30 10273 C 967.509 -3.38333 -2.93658 0
M  V30 10274 C 969.253 -1.79647 -3.84613 0
M  V30 10275 C 967.16 -4.10831 -4.25407 0
M  V30 10276 H 966.09 -0.399216 -0.639642 0
M  V30 10277 H 968.741 -1.484 -1.07934 0
M  V30 10278 H 967.123 -1.3986 -3.7048 0
M  V30 10279 H 968.297 -3.93845 -2.39213 0
M  V30 10280 H 966.612 -3.47427 -2.29528 0
M  V30 10281 H 969.209 -2.31116 -4.82172 0
M  V30 10282 H 969.552 -0.761553 -4.09275 0
M  V30 10283 H 970.085 -2.25261 -3.27875 0
M  V30 10284 H 966.824 -5.14679 -4.05939 0
M  V30 10285 H 966.344 -3.60105 -4.79671 0
M  V30 10286 H 968.023 -4.17783 -4.94031 0
M  V30 10287 N 968.156 1.1691 -1.05688 0
M  V30 10288 C 969.405 1.86629 -0.765022 0
M  V30 10289 C 969.718 1.82223 0.710918 0
M  V30 10290 O 970.924 2.47462 1.11691 0
M  V30 10291 C 969.38 3.34886 -1.3183 0
M  V30 10292 C 968.988 3.47781 -2.82404 0
M  V30 10293 C 970.732 4.099 -1.10372 0
M  V30 10294 C 968.639 4.9009 -3.31008 0
M  V30 10295 H 967.569 0.699082 -0.282491 0
M  V30 10296 H 970.22 1.31989 -1.27481 0
M  V30 10297 H 968.602 3.89094 -0.736312 0
M  V30 10298 H 969.776 3.03765 -3.46502 0
M  V30 10299 H 968.091 2.86193 -3.02461 0
M  V30 10300 H 970.688 5.14894 -1.4418 0
M  V30 10301 H 971.031 4.16279 -0.0417372 0
M  V30 10302 H 971.564 3.61913 -1.65117 0
M  V30 10303 H 968.303 4.88887 -4.36657 0
M  V30 10304 H 967.823 5.34756 -2.71655 0
M  V30 10305 H 969.502 5.58881 -3.25977 0
M  V30 10306 N 969.634 0.838594 1.33437 0
M  V30 10307 C 970.566 0.229006 2.28053 0
M  V30 10308 C 971.579 -0.590103 1.51729 0
M  V30 10309 O 972.768 -0.417218 1.73556 0
M  V30 10310 C 969.868 -0.696251 3.31671 0
M  V30 10311 C 969.041 0.0834606 4.3732 0
M  V30 10312 C 968.1 -0.765097 5.20608 0
M  V30 10313 O 967.126 -0.2044 5.68833 0
M  V30 10314 N 968.328 -2.08249 5.4186 0
M  V30 10315 H 971.093 1.04196 2.81004 0
M  V30 10316 H 968.654 0.697031 1.46127 0
M  V30 10317 H 970.646 -1.26889 3.84293 0
M  V30 10318 H 969.216 -1.40992 2.78998 0
M  V30 10319 H 968.436 0.837481 3.85201 0
M  V30 10320 H 969.724 0.619613 5.05013 0
M  V30 10321 H 969.122 -2.56156 5.04381 0
M  V30 10322 H 967.679 -2.60362 5.97541 0
M  V30 10323 N 971.112 -1.45937 0.595003 0
M  V30 10324 C 972.361 -2.01529 0.0829531 0
M  V30 10325 C 972.674 -1.47071 -1.28955 0
M  V30 10326 O 973.88 -1.94561 -1.89363 0
M  V30 10327 C 972.336 -3.59767 0.0976597 0
M  V30 10328 C 971.944 -4.23223 1.46924 0
M  V30 10329 C 973.688 -4.22972 -0.359805 0
M  V30 10330 C 971.595 -5.73576 1.44101 0
M  V30 10331 H 970.525 -0.753508 0.0272425 0
M  V30 10332 H 973.176 -1.67541 0.748473 0
M  V30 10333 H 971.558 -3.90888 -0.634268 0
M  V30 10334 H 972.732 -4.03695 2.22187 0
M  V30 10335 H 971.047 -3.72161 1.86775 0
M  V30 10336 H 973.644 -5.33202 -0.39991 0
M  V30 10337 H 973.987 -3.92765 -1.37991 0
M  V30 10338 H 974.52 -3.96523 0.31845 0
M  V30 10339 H 971.259 -6.08462 2.43831 0
M  V30 10340 H 970.779 -5.95332 0.730767 0
M  V30 10341 H 972.458 -6.36531 1.1592 0
M  V30 10342 N 972.59 -0.333456 -1.54032 0
M  V30 10343 C 974.001 0.15256 -1.86076 0
M  V30 10344 C 974.352 1.50819 -1.25492 0
M  V30 10345 O 973.477 2.08903 -0.564665 0
M  V30 10346 C 974.072 0.283599 -3.37611 0
M  V30 10347 C 972.631 0.713841 -3.69569 0
M  V30 10348 C 971.778 -0.158515 -2.76847 0
M  V30 10349 H 974.729 -0.553404 -1.48738 0
M  V30 10350 H 974.75 1.11284 -3.63863 0
M  V30 10351 H 974.262 -0.703193 -3.81676 0
M  V30 10352 H 972.363 1.71002 -3.31042 0
M  V30 10353 H 972.476 0.510731 -4.7637 0
M  V30 10354 H 970.84 0.367531 -2.52034 0
M  V30 10355 H 971.623 -1.14226 -3.2374 0
M  V30 10356 N 974.068 1.57479 -0.061844 0
M  V30 10357 C 974.978 2.15645 0.923826 0
M  V30 10358 C 975.994 1.117 1.33413 0
M  V30 10359 O 977.17 1.4392 1.40887 0
M  V30 10360 C 974.235 2.69857 2.17665 0
M  V30 10361 C 973.296 3.88638 1.8237 0
M  V30 10362 C 972.529 4.40256 3.01679 0
M  V30 10363 O 972.752 3.90908 4.15388 0
M  V30 10364 O 971.686 5.31713 2.82073 0
M  V30 10365 H 975.512 3.0021 0.459094 0
M  V30 10366 H 973.097 1.48534 0.160665 0
M  V30 10367 H 974.979 3.04647 2.9115 0
M  V30 10368 H 973.654 1.88357 2.63255 0
M  V30 10369 H 972.561 3.58719 1.06167 0
M  V30 10370 H 973.894 4.71401 1.4157 0
M  V30 10371 N 975.546 -0.211634 1.56173 0
M  V30 10372 C 976.493 -1.26231 1.93221 0
M  V30 10373 C 977.463 -1.46076 0.790641 0
M  V30 10374 O 978.648 -1.59482 1.04739 0
M  V30 10375 C 975.788 -2.60559 2.26281 0
M  V30 10376 C 974.901 -2.48431 3.5342 0
M  V30 10377 C 974.036 -3.7535 3.7588 0
M  V30 10378 C 973.075 -3.57985 4.96501 0
M  V30 10379 N 972.212 -4.76877 5.15299 0
M  V30 10380 H 977.052 -0.939367 2.82807 0
M  V30 10381 H 974.589 -0.452511 1.39967 0
M  V30 10382 H 976.547 -3.38796 2.43461 0
M  V30 10383 H 975.177 -2.9093 1.39855 0
M  V30 10384 H 974.229 -1.61577 3.44379 0
M  V30 10385 H 975.541 -2.31526 4.41811 0
M  V30 10386 H 974.695 -4.62029 3.9321 0
M  V30 10387 H 973.434 -3.95191 2.85788 0
M  V30 10388 H 972.439 -2.69691 4.79111 0
M  V30 10389 H 973.664 -3.39605 5.88086 0
M  V30 10390 H 971.61 -4.97013 4.28152 0
M  V30 10391 H 971.527 -4.62735 5.9784 0
M  V30 10392 H 972.795 -5.64954 5.37073 0
M  V30 10393 N 977.024 -1.50153 -0.478725 0
M  V30 10394 C 978.301 -1.51274 -1.23999 0
M  V30 10395 C 978.681 -0.253048 -2.09578 0
M  V30 10396 O 978.029 0.763827 -2.15355 0
M  V30 10397 C 978.239 -2.80423 -2.07759 0
M  V30 10398 C 979.587 -3.30788 -2.66204 0
M  V30 10399 O 980.611 -2.81693 -2.18008 0
M  V30 10400 O 979.47 -4.1635 -3.53999 0
M  V30 10401 H 976.564 -0.606438 -0.562283 0
M  V30 10402 H 979.11 -1.62436 -0.491171 0
M  V30 10403 H 977.882 -3.63584 -1.44645 0
M  V30 10404 H 977.505 -2.72228 -2.89789 0
M  V30 10405 N 978.502 0.731368 -1.39602 0
M  V30 10406 C 979.779 1.48308 -1.27531 0
M  V30 10407 C 980.159 2.10795 0.113482 0
M  V30 10408 O 979.507 1.98886 1.12501 0
M  V30 10409 C 979.717 2.53156 -2.40235 0
M  V30 10410 C 981.065 3.19436 -2.79725 0
M  V30 10411 O 982.089 2.6347 -2.39712 0
M  V30 10412 O 980.948 4.20714 -3.48801 0
M  V30 10413 H 978.042 0.658753 -0.499973 0
M  V30 10414 H 980.588 0.764884 -1.51485 0
M  V30 10415 H 979.36 2.05387 -3.33064 0
M  V30 10416 H 978.983 3.3253 -2.17966 0
M  V30 10417 N 979.98 1.24838 0.961938 0
M  V30 10418 C 980.943 1.04674 2.03902 0
M  V30 10419 C 981.943 0.00204674 1.608 0
M  V30 10420 O 983.133 0.243555 1.72489 0
M  V30 10421 C 980.265 0.587736 3.35795 0
M  V30 10422 H 981.458 2.00278 2.23223 0
M  V30 10423 H 979.011 1.07142 1.138 0
M  V30 10424 H 979.746 -0.371244 3.22168 0
M  V30 10425 H 979.531 1.34182 3.68426 0
M  V30 10426 H 981.021 0.467867 4.14971 0
M  V30 10427 N 981.458 -1.16348 1.06306 0
M  V30 10428 C 982.388 -2.2291 0.695234 0
M  V30 10429 C 983.369 -1.67208 -0.312343 0
M  V30 10430 O 984.554 -1.93293 -0.187442 0
M  V30 10431 C 981.684 -3.47205 0.0810149 0
M  V30 10432 C 980.638 -4.15801 1.01458 0
M  V30 10433 C 979.964 -5.3405 0.263656 0
M  V30 10434 C 981.264 -4.66766 2.34365 0
M  V30 10435 H 982.958 -2.53934 1.58613 0
M  V30 10436 H 980.504 -1.22056 0.76409 0
M  V30 10437 H 982.457 -4.2098 -0.18818 0
M  V30 10438 H 981.181 -3.15482 -0.844897 0
M  V30 10439 H 979.84 -3.43954 1.26852 0
M  V30 10440 H 979.488 -4.9858 -0.665378 0
M  V30 10441 H 979.188 -5.80885 0.88582 0
M  V30 10442 H 980.712 -6.106 0.00200994 0
M  V30 10443 H 982.126 -5.3212 2.13356 0
M  V30 10444 H 980.523 -5.24223 2.9208 0
M  V30 10445 H 981.593 -3.82969 2.97426 0
M  V30 10446 N 982.937 -0.845659 -1.3299 0
M  V30 10447 C 984.177 -0.450819 -1.99366 0
M  V30 10448 C 984.541 0.973297 -1.65502 0
M  V30 10449 O 985.742 1.47222 -2.24898 0
M  V30 10450 C 984.013 -0.672825 -3.5101 0
M  V30 10451 S 985.572 -0.374216 -4.37201 0
M  V30 10452 H 982.39 -0.169273 -0.690556 0
M  V30 10453 H 984.992 -1.09642 -1.61861 0
M  V30 10454 H 983.696 -1.70855 -3.73145 0
M  V30 10455 H 983.227 -0.0133185 -3.93398 0
M  V30 10456 H 985.242 0.803342 -4.89654 0
M  V30 10457 N 984.415 1.45619 -0.602734 0
M  V30 10458 C 985.662 2.02272 -0.0960337 0
M  V30 10459 C 985.99 1.47177 1.27159 0
M  V30 10460 O 985.245 0.634593 1.85125 0
M  V30 10461 C 985.544 3.574 -0.00157909 0
M  V30 10462 C 985.21 4.31626 -1.30422 0
M  V30 10463 C 983.872 4.51622 -1.66106 0
M  V30 10464 C 986.224 4.74091 -2.16535 0
M  V30 10465 C 983.552 5.11338 -2.87663 0
M  V30 10466 C 985.904 5.35151 -3.37336 0
M  V30 10467 C 984.568 5.53371 -3.73278 0
M  V30 10468 H 983.838 0.740166 -0.0351412 0
M  V30 10469 H 986.485 1.74744 -0.783382 0
M  V30 10470 H 984.79 3.84179 0.769008 0
M  V30 10471 H 986.487 3.98934 0.406549 0
M  V30 10472 H 983.077 4.16372 -1.01647 0
M  V30 10473 H 987.261 4.5838 -1.90266 0
M  V30 10474 H 982.517 5.23634 -3.15622 0
M  V30 10475 H 986.691 5.67011 -4.04316 0
M  V30 10476 H 984.318 5.99412 -4.67556 0
M  V30 10477 N 985.893 0.34162 1.53853 0
M  V30 10478 C 986.841 -0.531412 2.26448 0
M  V30 10479 C 987.835 -1.10357 1.28521 0
M  V30 10480 O 989.041 -1.04953 1.46236 0
M  V30 10481 H 985.416 -0.190054 0.727588 0
M  V30 10482 H 987.387 0.102922 2.98222 0
M  V30 10483 C 986.136 -1.67154 3.04885 0
M  V30 10484 H 985.459 -1.24055 3.80066 0
M  V30 10485 H 986.899 -2.25762 3.58898 0
M  V30 10486 C 985.358 -2.59984 2.14266 0
M  V30 10487 O 985.888 -3.62181 1.73746 0
M  V30 10488 N 984.094 -2.28625 1.79385 0
M  V30 10489 H 983.641 -1.45559 2.12533 0
M  V30 10490 H 983.599 -2.90995 1.19035 0
M  V30 10491 N 987.371 -1.57444 0.0701946 0
M  V30 10492 C 988.62 -1.92605 -0.598849 0
M  V30 10493 C 988.933 -0.952058 -1.70866 0
M  V30 10494 O 990.139 -1.19643 -2.43716 0
M  V30 10495 C 988.595 -3.42142 -1.11655 0
M  V30 10496 C 988.203 -4.47984 -0.0378355 0
M  V30 10497 C 989.947 -3.86307 -1.75975 0
M  V30 10498 C 987.854 -5.88652 -0.569495 0
M  V30 10499 H 986.784 -0.718873 -0.22746 0
M  V30 10500 H 989.435 -1.82948 0.14217 0
M  V30 10501 H 987.817 -3.46866 -1.91049 0
M  V30 10502 H 988.991 -4.54874 0.736661 0
M  V30 10503 H 987.306 -4.13277 0.50904 0
M  V30 10504 H 989.903 -4.88784 -2.16782 0
M  V30 10505 H 990.246 -3.23587 -2.61911 0
M  V30 10506 H 990.779 -3.84179 -1.03206 0
M  V30 10507 H 987.518 -6.55013 0.252662 0
M  V30 10508 H 987.038 -5.85285 -1.31155 0
M  V30 10509 H 988.717 -6.38482 -1.04641 0
M  V30 10510 N 988.849 0.203349 -1.56283 0
M  V30 10511 C 990.126 0.950415 -1.70958 0
M  V30 10512 C 990.506 2.01708 -0.622647 0
M  V30 10513 O 989.854 2.25523 0.367635 0
M  V30 10514 C 990.064 1.54434 -3.12971 0
M  V30 10515 C 991.412 2.02964 -3.72949 0
M  V30 10516 O 992.436 1.64293 -3.16048 0
M  V30 10517 O 991.295 2.74097 -4.72793 0
M  V30 10518 H 988.389 0.445154 -0.69697 0
M  V30 10519 H 990.935 0.193695 -1.68591 0
M  V30 10520 H 989.707 0.77505 -3.83547 0
M  V30 10521 H 989.33 2.36611 -3.19532 0
M  V30 10522 N 990.327 1.50405 0.470755 0
M  V30 10523 C 991.237 1.7208 1.59454 0
M  V30 10524 C 992.253 0.603932 1.63183 0
M  V30 10525 O 993.429 0.882296 1.81046 0
M  V30 10526 C 990.494 1.81057 2.95667 0
M  V30 10527 C 989.555 3.04792 3.02324 0
M  V30 10528 C 988.788 3.13332 4.3204 0
M  V30 10529 O 989.011 2.28655 5.22564 0
M  V30 10530 O 987.945 4.0606 4.44296 0
M  V30 10531 H 991.771 2.67343 1.44089 0
M  V30 10532 H 989.356 1.34505 0.650286 0
M  V30 10533 H 991.238 1.8914 3.76569 0
M  V30 10534 H 989.913 0.889782 3.11231 0
M  V30 10535 H 988.82 3.0221 2.205 0
M  V30 10536 H 990.153 3.96451 2.91698 0
M  V30 10537 N 991.805 -0.723954 1.39988 0
M  V30 10538 C 992.768 -1.81973 1.3935 0
M  V30 10539 C 993.768 -1.58187 0.288702 0
M  V30 10540 O 994.958 -1.65383 0.547181 0
M  V30 10541 C 992.09 -3.19937 1.177 0
M  V30 10542 H 993.283 -1.83939 2.36868 0
M  V30 10543 H 990.836 -0.928742 1.25714 0
M  V30 10544 H 991.571 -3.23625 0.209093 0
M  V30 10545 H 991.356 -3.386 1.97719 0
M  V30 10546 H 992.846 -3.99981 1.20022 0
M  V30 10547 N 993.283 -1.25346 -0.955304 0
M  V30 10548 C 994.694 -1.09173 -1.51453 0
M  V30 10549 C 995.045 0.332755 -1.93358 0
M  V30 10550 O 994.17 1.22264 -1.78551 0
M  V30 10551 C 994.765 -1.97564 -2.75234 0
M  V30 10552 C 993.324 -1.85579 -3.27471 0
M  V30 10553 C 992.471 -1.91755 -2.00313 0
M  V30 10554 H 995.422 -1.38642 -0.772271 0
M  V30 10555 H 995.443 -1.51523 -3.49029 0
M  V30 10556 H 994.955 -3.01233 -2.44704 0
M  V30 10557 H 993.056 -0.847906 -3.62824 0
M  V30 10558 H 993.169 -2.70353 -3.95533 0
M  V30 10559 H 991.533 -1.35633 -2.15582 0
M  V30 10560 H 992.316 -2.97028 -1.72132 0
M  V30 10561 N 994.761 1.15782 -1.06922 0
M  V30 10562 C 996.009 1.86097 -0.788192 0
M  V30 10563 C 996.33 1.82475 0.687606 0
M  V30 10564 O 995.6 1.26266 1.49778 0
M  V30 10565 H 994.18 0.689008 -0.288577 0
M  V30 10566 H 996.842 1.40377 -1.35205 0
M  V30 10567 H 995.938 2.91358 -1.1188 0
M  V30 10568 N 996.239 0.8527 1.3254 0
M  V30 10569 C 997.467 0.469044 2.01513 0
M  V30 10570 C 997.882 -0.933701 1.64096 0
M  V30 10571 O 997.239 -1.60898 0.861283 0
M  V30 10572 C 997.29 0.596228 3.56549 0
M  V30 10573 O 997.011 1.94371 3.92621 0
M  V30 10574 C 998.512 0.211324 4.42796 0
M  V30 10575 H 995.732 0.184589 0.645111 0
M  V30 10576 H 998.276 1.1491 1.69163 0
M  V30 10577 H 996.431 -0.0360712 3.87383 0
M  V30 10578 H 996.845 1.93909 4.87339 0
M  V30 10579 H 998.319 0.351324 5.50881 0
M  V30 10580 H 998.796 -0.848055 4.30935 0
M  V30 10581 H 999.402 0.818617 4.17347 0
M  V30 10582 N 997.718 -1.45297 0.610449 0
M  V30 10583 C 998.964 -2.02518 0.106917 0
M  V30 10584 C 999.297 -1.47747 -1.26034 0
M  V30 10585 O 998.572 -0.65329 -1.832 0
M  V30 10586 C 998.855 -3.6003 0.0710975 0
M  V30 10587 C 998.708 -4.25128 1.46922 0
M  V30 10588 C 1000.03 -4.35778 -0.61524 0
M  V30 10589 H 997.146 -0.735896 0.040327 0
M  V30 10590 H 999.788 -1.73117 0.782968 0
M  V30 10591 H 997.938 -3.85209 -0.504611 0
M  V30 10592 H 999.61 -4.11125 2.09223 0
M  V30 10593 H 997.853 -3.83418 2.02911 0
M  V30 10594 H 998.524 -5.34046 1.39637 0
M  V30 10595 H 1001 -4.1591 -0.125871 0
M  V30 10596 H 999.876 -5.45506 -0.609419 0
M  V30 10597 H 1000.14 -4.08859 -1.68186 0
M  V30 10598 N 999.196 -0.349774 -1.5367 0
M  V30 10599 C 1000.13 0.496338 -2.28164 0
M  V30 10600 C 1001.11 1.09737 -1.29968 0
M  V30 10601 O 1002.29 1.11759 -1.58819 0
M  V30 10602 C 999.422 1.64428 -3.0591 0
M  V30 10603 C 998.376 1.17127 -4.11661 0
M  V30 10604 C 997.702 2.40822 -4.77398 0
M  V30 10605 C 999.002 0.267293 -5.21616 0
M  V30 10606 H 1000.7 -0.125117 -2.99138 0
M  V30 10607 H 998.242 -0.0616152 -1.43868 0
M  V30 10608 H 1000.19 2.2427 -3.56765 0
M  V30 10609 H 998.919 2.29272 -2.32598 0
M  V30 10610 H 997.578 0.595634 -3.61729 0
M  V30 10611 H 997.226 3.04088 -4.00674 0
M  V30 10612 H 996.926 2.09852 -5.48849 0
M  V30 10613 H 998.45 3.01378 -5.3104 0
M  V30 10614 H 999.864 0.772734 -5.68068 0
M  V30 10615 H 998.261 0.0491991 -6.0008 0
M  V30 10616 H 999.331 -0.694892 -4.79895 0
M  V30 10617 N 1000.67 1.57404 -0.0785433 0
M  V30 10618 C 1002.09 1.57158 0.2781 0
M  V30 10619 C 1002.29 1.08847 1.69572 0
M  V30 10620 O 1001.35 0.757407 2.40873 0
M  V30 10621 C 1002.66 3.00589 0.0816067 0
M  V30 10622 C 1004.21 3.12637 0.150627 0
M  V30 10623 C 1004.68 4.57997 -0.0176685 0
M  V30 10624 N 1006.17 4.63185 0.0377145 0
M  V30 10625 C 1006.91 5.7336 -0.0679907 0
M  V30 10626 N 1006.4 6.92426 -0.227598 0
M  V30 10627 N 1008.2 5.62099 -0.0104424 0
M  V30 10628 H 1000.35 1.87121 -1.00496 0
M  V30 10629 H 1002.61 0.862937 -0.392484 0
M  V30 10630 H 1002.32 3.40072 -0.896869 0
M  V30 10631 H 1002.19 3.67931 0.831046 0
M  V30 10632 H 1004.58 2.73037 1.11959 0
M  V30 10633 H 1004.66 2.4792 -0.630028 0
M  V30 10634 H 1004.3 4.98288 -0.983431 0
M  V30 10635 H 1004.23 5.20754 0.782475 0
M  V30 10636 H 1006.72 3.77564 0.159208 0
M  V30 10637 H 1007.04 7.72217 -0.300217 0
M  V30 10638 H 1005.38 6.94502 -0.263049 0
M  V30 10639 H 1008.57 4.67964 0.112999 0
M  V30 10640 H 1008.75 6.47928 -0.0962747 0
M  V30 10641 N 1002.15 -0.195058 1.56388 0
M  V30 10642 C 1003.08 -1.24444 1.97575 0
M  V30 10643 C 1004.06 -1.47471 0.847717 0
M  V30 10644 O 1005.25 -1.59208 1.11205 0
M  V30 10645 C 1002.38 -2.58866 2.31529 0
M  V30 10646 C 1001.33 -2.50451 3.47071 0
M  V30 10647 C 1000.66 -3.89146 3.667 0
M  V30 10648 C 1001.96 -2.02953 4.81256 0
M  V30 10649 H 1003.65 -0.902178 2.85484 0
M  V30 10650 H 1001.2 -0.43254 1.3735 0
M  V30 10651 H 1003.15 -3.3246 2.58936 0
M  V30 10652 H 1001.87 -2.94833 1.40502 0
M  V30 10653 H 1000.53 -1.79313 3.19754 0
M  V30 10654 H 1000.18 -4.22466 2.73004 0
M  V30 10655 H 999.882 -3.84391 4.44429 0
M  V30 10656 H 1001.41 -4.64363 3.96484 0
M  V30 10657 H 1002.82 -2.66306 5.07695 0
M  V30 10658 H 1001.22 -2.092 5.62455 0
M  V30 10659 H 1002.29 -0.982757 4.74837 0
M  V30 10660 N 1003.63 -1.50653 -0.462772 0
M  V30 10661 C 1004.88 -1.61296 -1.21105 0
M  V30 10662 C 1005.19 -0.322757 -1.92919 0
M  V30 10663 O 1006.4 -0.308211 -2.69745 0
M  V30 10664 C 1004.85 -2.84752 -2.201 0
M  V30 10665 C 1004.46 -4.20681 -1.54051 0
M  V30 10666 C 1006.21 -3.04744 -2.95518 0
M  V30 10667 C 1004.11 -5.35314 -2.51381 0
M  V30 10668 H 1003.04 -0.60069 -0.455728 0
M  V30 10669 H 1005.69 -1.77093 -0.480656 0
M  V30 10670 H 1004.08 -2.62532 -2.96467 0
M  V30 10671 H 1005.25 -4.53187 -0.834168 0
M  V30 10672 H 1003.56 -4.06361 -0.908828 0
M  V30 10673 H 1006.16 -3.87559 -3.68378 0
M  V30 10674 H 1006.5 -2.16802 -3.55391 0
M  V30 10675 H 1007.04 -3.27185 -2.26263 0
M  V30 10676 H 1003.78 -6.25437 -1.96235 0
M  V30 10677 H 1003.3 -5.07216 -3.20144 0
M  V30 10678 H 1004.98 -5.66229 -3.1304 0
M  V30 10679 N 1005.11 0.71652 -1.4037 0
M  V30 10680 C 1006.04 1.84138 -1.36477 0
M  V30 10681 C 1007.05 1.6054 -0.27033 0
M  V30 10682 O 1008.24 1.70431 -0.530612 0
M  V30 10683 C 1005.34 3.20523 -1.10082 0
M  V30 10684 C 1004.52 3.71326 -2.31162 0
M  V30 10685 C 1003.57 4.86322 -2.00942 0
M  V30 10686 O 1002.6 4.99022 -2.73799 0
M  V30 10687 N 1003.8 5.72051 -0.986812 0
M  V30 10688 H 1006.57 1.87977 -2.3342 0
M  V30 10689 H 1004.13 0.89802 -1.34712 0
M  V30 10690 H 1006.12 3.95049 -0.878526 0
M  V30 10691 H 1004.69 3.11838 -0.21809 0
M  V30 10692 H 1003.91 2.87941 -2.69227 0
M  V30 10693 H 1005.2 4.02003 -3.11883 0
M  V30 10694 H 1004.6 5.64399 -0.383381 0
M  V30 10695 H 1003.15 6.46565 -0.824419 0
M  V30 10696 N 1006.59 1.25851 0.948643 0
M  V30 10697 C 1007.86 1.01717 1.67072 0
M  V30 10698 C 1008.24 -0.454749 2.06144 0
M  V30 10699 O 1007.59 -1.43345 1.77945 0
M  V30 10700 C 1007.8 1.95872 2.88852 0
M  V30 10701 C 1009.15 2.24057 3.60671 0
M  V30 10702 O 1010.17 1.93678 2.98944 0
M  V30 10703 O 1009.03 2.75745 4.71833 0
M  V30 10704 H 1006.13 0.386198 0.731287 0
M  V30 10705 H 1008.67 1.37031 1.00104 0
M  V30 10706 H 1007.44 2.95233 2.56814 0
M  V30 10707 H 1007.07 1.60992 3.63548 0
M  V30 10708 N 1008.06 -1.15214 1.07534 0
M  V30 10709 C 1009.03 -2.18209 0.701237 0
M  V30 10710 C 1010.03 -1.58693 -0.25946 0
M  V30 10711 O 1011.22 -1.74154 -0.0401744 0
M  V30 10712 C 1008.35 -3.40883 0.0338703 0
M  V30 10713 H 1009.54 -2.5282 1.61314 0
M  V30 10714 H 1007.1 -1.29707 0.872105 0
M  V30 10715 H 1007.83 -3.11843 -0.890187 0
M  V30 10716 H 1007.62 -3.85342 0.72486 0
M  V30 10717 H 1009.11 -4.17056 -0.213152 0
M  V30 10718 N 1009.54 -0.859717 -1.32086 0
M  V30 10719 C 1010.79 -0.466271 -1.97367 0
M  V30 10720 C 1011.12 0.976728 -1.6785 0
M  V30 10721 O 1010.4 1.68618 -0.969449 0
M  V30 10722 C 1010.68 -0.711851 -3.52994 0
M  V30 10723 C 1010.53 -2.20364 -3.92122 0
M  V30 10724 C 1011.85 -0.17156 -4.39765 0
M  V30 10725 H 1008.97 -0.170883 -0.716916 0
M  V30 10726 H 1011.61 -1.07907 -1.56384 0
M  V30 10727 H 1009.76 -0.190258 -3.88034 0
M  V30 10728 H 1011.43 -2.7917 -3.67236 0
M  V30 10729 H 1009.68 -2.68019 -3.41099 0
M  V30 10730 H 1010.35 -2.32615 -5.00594 0
M  V30 10731 H 1012.82 -0.617665 -4.1149 0
M  V30 10732 H 1011.7 -0.372921 -5.47632 0
M  V30 10733 H 1011.96 0.925959 -4.32294 0
M  V30 10734 N 1011.02 1.44971 -0.618145 0
M  V30 10735 C 1012.25 2.06527 -0.124165 0
M  V30 10736 C 1012.66 1.46097 1.19588 0
M  V30 10737 O 1012.02 0.57901 1.73071 0
M  V30 10738 C 1012.07 3.61498 0.0106701 0
M  V30 10739 O 1011.79 4.19675 -1.25716 0
M  V30 10740 C 1013.29 4.40061 0.534872 0
M  V30 10741 H 1010.51 0.666941 -0.0736935 0
M  V30 10742 H 1013.06 1.8605 -0.848871 0
M  V30 10743 H 1011.21 3.81282 0.685752 0
M  V30 10744 H 1011.63 5.12972 -1.09362 0
M  V30 10745 H 1013.1 5.48963 0.57827 0
M  V30 10746 H 1013.58 4.10587 1.55931 0
M  V30 10747 H 1014.18 4.25167 -0.10652 0
M  V30 10748 N 1012.5 0.357919 1.53482 0
M  V30 10749 C 1013.75 -0.2337 2.00744 0
M  V30 10750 C 1014.07 -1.49908 1.2471 0
M  V30 10751 O 1013.34 -1.92597 0.358235 0
M  V30 10752 H 1011.92 -0.0893474 0.741637 0
M  V30 10753 H 1014.58 0.482388 1.88836 0
M  V30 10754 H 1013.68 -0.466073 3.086 0
M  V30 10755 N 1013.98 -1.5736 0.0868897 0
M  V30 10756 C 1014.91 -2.16596 -0.872252 0
M  V30 10757 C 1015.89 -1.09706 -1.29995 0
M  V30 10758 O 1017.07 -1.37808 -1.36831 0
M  V30 10759 C 1014.2 -2.73972 -2.1344 0
M  V30 10760 C 1013.16 -3.86163 -1.8456 0
M  V30 10761 C 1012.48 -4.30206 -3.17533 0
M  V30 10762 C 1013.78 -5.0973 -1.13899 0
M  V30 10763 H 1015.48 -2.96995 -0.378738 0
M  V30 10764 H 1013.02 -1.42861 -0.18073 0
M  V30 10765 H 1014.98 -3.14062 -2.80968 0
M  V30 10766 H 1013.7 -1.90817 -2.6506 0
M  V30 10767 H 1012.36 -3.466 -1.19432 0
M  V30 10768 H 1012.01 -3.43951 -3.67024 0
M  V30 10769 H 1011.71 -5.05841 -2.98996 0
M  V30 10770 H 1013.23 -4.72922 -3.86234 0
M  V30 10771 H 1014.64 -5.4704 -1.71523 0
M  V30 10772 H 1013.04 -5.90741 -1.05569 0
M  V30 10773 H 1014.11 -4.8475 -0.120432 0
M  V30 10774 N 1015.45 0.186762 -1.56489 0
M  V30 10775 C 1016.68 0.921832 -1.85229 0
M  V30 10776 C 1017.1 1.76496 -0.670416 0
M  V30 10777 O 1016.45 1.78899 0.360758 0
M  V30 10778 C 1016.51 1.81121 -3.12854 0
M  V30 10779 O 1016.23 1.00211 -4.26485 0
M  V30 10780 C 1017.73 2.65725 -3.54831 0
M  V30 10781 H 1014.95 0.268563 -0.61491 0
M  V30 10782 H 1017.49 0.191505 -2.03601 0
M  V30 10783 H 1015.65 2.49506 -2.96354 0
M  V30 10784 H 1016.06 1.60893 -4.99213 0
M  V30 10785 H 1017.53 3.23771 -4.47075 0
M  V30 10786 H 1018.01 3.39843 -2.78215 0
M  V30 10787 H 1018.62 2.02698 -3.7389 0
M  V30 10788 N 1016.93 1.50896 0.454776 0
M  V30 10789 C 1018.18 1.6294 1.20741 0
M  V30 10790 C 1018.51 0.336339 1.91265 0
M  V30 10791 O 1017.79 -0.663153 1.82846 0
M  V30 10792 C 1018.07 2.82092 2.23822 0
M  V30 10793 C 1017.92 4.21326 1.57495 0
M  V30 10794 C 1019.24 2.96777 3.24979 0
M  V30 10795 H 1016.36 0.59302 0.437603 0
M  V30 10796 H 1019 1.83331 0.498959 0
M  V30 10797 H 1017.15 2.64837 2.84243 0
M  V30 10798 H 1018.82 4.50209 1.00546 0
M  V30 10799 H 1017.07 4.24829 0.877664 0
M  V30 10800 H 1017.74 5.00656 2.32482 0
M  V30 10801 H 1020.21 3.12627 2.74597 0
M  V30 10802 H 1019.09 3.81742 3.94416 0
M  V30 10803 H 1019.35 2.08091 3.90065 0
M  V30 10804 N 1018.41 -0.709066 1.40748 0
M  V30 10805 C 1019.36 -1.84445 1.41714 0
M  V30 10806 C 1020.35 -1.66779 0.296818 0
M  V30 10807 O 1021.56 -1.73805 0.468181 0
M  V30 10808 H 1017.93 -0.607581 0.443114 0
M  V30 10809 H 1019.9 -1.80747 2.3743 0
M  V30 10810 C 1018.65 -3.22362 1.303 0
M  V30 10811 H 1017.98 -3.36565 2.15787 0
M  V30 10812 H 1019.42 -4.01922 1.35036 0
M  V30 10813 C 1017.88 -3.36897 0.0139015 0
M  V30 10814 O 1018.41 -3.90389 -0.946553 0
M  V30 10815 N 1016.61 -2.90543 -0.0577491 0
M  V30 10816 H 1016.16 -2.472 0.724574 0
M  V30 10817 H 1016.12 -3.00647 -0.919721 0
M  V30 10818 N 1019.89 -1.26353 -0.941956 0
M  V30 10819 C 1021.14 -1.1163 -1.68473 0
M  V30 10820 C 1021.46 0.34108 -1.91994 0
M  V30 10821 O 1020.73 1.24065 -1.51607 0
M  V30 10822 H 1019.31 -0.410113 -0.624353 0
M  V30 10823 H 1021.97 -1.58669 -1.13182 0
M  V30 10824 H 1021.07 -1.63445 -2.6588 0
M  V30 10825 N 1021.37 1.14642 -1.08144 0
M  V30 10826 C 1022.3 2.19283 -0.6669 0
M  V30 10827 C 1023.31 1.60292 0.284668 0
M  V30 10828 O 1024.5 1.78352 0.0727383 0
M  V30 10829 C 1021.6 3.38877 0.0398572 0
M  V30 10830 C 1020.77 4.274 -0.929929 0
M  V30 10831 C 1019.83 5.25562 -0.258991 0
M  V30 10832 O 1018.86 5.61999 -0.902563 0
M  V30 10833 N 1020.06 5.71958 0.992177 0
M  V30 10834 H 1022.83 2.55464 -1.5671 0
M  V30 10835 H 1020.39 1.29836 -0.96717 0
M  V30 10836 H 1022.38 4.01605 0.499583 0
M  V30 10837 H 1020.95 3.01043 0.842118 0
M  V30 10838 H 1020.17 3.61649 -1.56857 0
M  V30 10839 H 1021.46 4.83411 -1.58717 0
M  V30 10840 H 1020.86 5.44481 1.53484 0
M  V30 10841 H 1019.41 6.36687 1.39544 0
M  V30 10842 N 1022.85 0.866709 1.31628 0
M  V30 10843 C 1024.09 0.472185 1.96095 0
M  V30 10844 C 1024.41 -0.979873 1.69286 0
M  V30 10845 O 1025.61 -1.48039 2.27589 0
M  V30 10846 C 1024.07 0.793468 3.51044 0
M  V30 10847 C 1023.68 2.26206 3.86697 0
M  V30 10848 C 1025.42 0.467255 4.21921 0
M  V30 10849 C 1023.33 2.52593 5.34743 0
M  V30 10850 H 1022.26 0.172846 0.733921 0
M  V30 10851 H 1024.91 1.05916 1.49847 0
M  V30 10852 H 1023.29 0.135783 3.95767 0
M  V30 10853 H 1024.47 2.96254 3.52945 0
M  V30 10854 H 1022.78 2.55399 3.28877 0
M  V30 10855 H 1025.38 0.641669 5.30836 0
M  V30 10856 H 1025.72 -0.592065 4.12068 0
M  V30 10857 H 1026.25 1.08134 3.82821 0
M  V30 10858 H 1022.99 3.57196 5.49628 0
M  V30 10859 H 1022.51 1.87136 5.6986 0
M  V30 10860 H 1024.19 2.37156 6.01968 0
M  V30 10861 N 1024.32 -1.44642 0.625825 0
M  V30 10862 C 1025.55 -2.06458 0.135116 0
M  V30 10863 C 1025.97 -1.46729 -1.18811 0
M  V30 10864 O 1025.32 -0.58818 -1.72762 0
M  V30 10865 C 1025.37 -3.61499 0.00850114 0
M  V30 10866 O 1025.1 -4.19002 1.2794 0
M  V30 10867 C 1026.6 -4.40339 -0.511527 0
M  V30 10868 H 1023.82 -0.666541 0.0772294 0
M  V30 10869 H 1026.36 -1.85597 0.858726 0
M  V30 10870 H 1024.52 -3.81641 -0.665522 0
M  V30 10871 H 1024.93 -5.12385 1.12081 0
M  V30 10872 H 1026.4 -5.49262 -0.549149 0
M  V30 10873 H 1026.88 -4.11409 -1.53752 0
M  V30 10874 H 1027.49 -4.25104 0.129066 0
M  V30 10875 N 1025.8 -0.366053 -1.5329 0
M  V30 10876 C 1027.05 0.223051 -2.00865 0
M  V30 10877 C 1027.37 1.49244 -1.25504 0
M  V30 10878 O 1026.64 1.92404 -0.368444 0
M  V30 10879 H 1025.22 0.085413 -0.742101 0
M  V30 10880 H 1027.88 -0.492396 -1.88578 0
M  V30 10881 H 1026.98 0.449701 -3.08843 0
M  V30 10882 N 1027.28 1.57312 -0.0952337 0
M  V30 10883 C 1028.56 1.85822 0.610715 0
M  V30 10884 C 1028.94 0.992114 1.86334 0
M  V30 10885 O 1028.28 0.0645669 2.28409 0
M  V30 10886 C 1028.49 3.36492 0.925967 0
M  V30 10887 C 1029.84 4.0455 1.28936 0
M  V30 10888 O 1030.87 3.41374 1.01698 0
M  V30 10889 O 1029.73 5.16024 1.79949 0
M  V30 10890 H 1026.82 0.768454 0.305626 0
M  V30 10891 H 1029.37 1.69217 -0.127941 0
M  V30 10892 H 1028.14 3.91282 0.0373127 0
M  V30 10893 H 1027.76 3.58443 1.7206 0
M  V30 10894 N 1028.76 -0.17846 1.56586 0
M  V30 10895 C 1029.7 -1.22104 1.95855 0
M  V30 10896 C 1030.67 -1.44366 0.821447 0
M  V30 10897 O 1031.86 -1.57224 1.08098 0
M  V30 10898 C 1029 -2.55701 2.31757 0
M  V30 10899 C 1028.11 -2.40879 3.5861 0
M  V30 10900 C 1027.25 -3.67293 3.83757 0
M  V30 10901 C 1026.29 -3.47373 5.03982 0
M  V30 10902 N 1025.42 -4.65839 5.25298 0
M  V30 10903 H 1030.26 -0.879168 2.84736 0
M  V30 10904 H 1027.8 -0.422721 1.40895 0
M  V30 10905 H 1029.76 -3.33556 2.50592 0
M  V30 10906 H 1028.39 -2.87898 1.45995 0
M  V30 10907 H 1027.44 -1.54236 3.47729 0
M  V30 10908 H 1028.75 -2.22102 4.46623 0
M  V30 10909 H 1027.91 -4.53584 4.02922 0
M  V30 10910 H 1026.65 -3.89041 2.94107 0
M  V30 10911 H 1025.65 -2.59467 4.84723 0
M  V30 10912 H 1026.88 -3.27055 5.95157 0
M  V30 10913 H 1024.82 -4.8782 4.38598 0
M  V30 10914 H 1024.74 -4.4995 6.0752 0
M  V30 10915 H 1026.01 -5.53435 5.48936 0
M  V30 10916 N 1030.24 -1.51135 -0.446768 0
M  V30 10917 C 1031.65 -1.39101 -0.782504 0
M  V30 10918 C 1031.85 -0.46599 -1.96038 0
M  V30 10919 O 1030.91 0.0823679 -2.52366 0
M  V30 10920 C 1032.22 -2.80953 -1.07173 0
M  V30 10921 C 1033.77 -2.90038 -1.17673 0
M  V30 10922 C 1034.24 -4.32777 -1.49894 0
M  V30 10923 N 1035.73 -4.3584 -1.56837 0
M  V30 10924 C 1036.47 -5.43305 -1.83322 0
M  V30 10925 N 1035.97 -6.60945 -2.07662 0
M  V30 10926 N 1037.76 -5.30775 -1.85026 0
M  V30 10927 H 1029.91 -2.09835 0.329114 0
M  V30 10928 H 1032.17 -0.944199 0.0848054 0
M  V30 10929 H 1031.88 -3.50591 -0.279037 0
M  V30 10930 H 1031.75 -3.197 -2.00179 0
M  V30 10931 H 1034.14 -2.20603 -1.96005 0
M  V30 10932 H 1034.22 -2.54801 -0.225892 0
M  V30 10933 H 1033.86 -5.02757 -0.720924 0
M  V30 10934 H 1033.79 -4.6552 -2.46168 0
M  V30 10935 H 1036.29 -3.51023 -1.39968 0
M  V30 10936 H 1036.6 -7.38643 -2.27214 0
M  V30 10937 H 1034.94 -6.64077 -2.05003 0
M  V30 10938 H 1038.13 -4.37858 -1.65523 0
M  V30 10939 H 1038.31 -6.14609 -2.05329 0
M  V30 10940 N 1031.71 0.701592 -1.41122 0
M  V30 10941 C 1032.96 1.45871 -1.39879 0
M  V30 10942 C 1033.28 1.94999 -0.00668769 0
M  V30 10943 O 1032.55 1.71298 0.95047 0
M  V30 10944 H 1031.13 0.541231 -0.514857 0
M  V30 10945 H 1033.79 0.830803 -1.76306 0
M  V30 10946 H 1032.89 2.32479 -2.0823 0
M  V30 10947 N 1033.19 1.2685 0.935242 0
M  V30 10948 C 1034.42 1.15645 1.72165 0
M  V30 10949 C 1034.84 -0.283909 1.85945 0
M  V30 10950 O 1034.2 -1.20567 1.354 0
M  V30 10951 C 1034.25 1.83689 3.10307 0
M  V30 10952 O 1033.35 1.12972 3.96625 0
M  V30 10953 H 1032.69 0.402629 0.528002 0
M  V30 10954 H 1035.22 1.67781 1.17093 0
M  V30 10955 H 1035.23 1.90749 3.60664 0
M  V30 10956 H 1033.91 2.88472 2.99595 0
M  V30 10957 H 1032.48 1.13929 3.5507 0
M  V30 10958 N 1034.67 -1.14067 1.0875 0
M  V30 10959 C 1036.08 -1.66747 0.839778 0
M  V30 10960 C 1036.43 -1.85711 -0.632909 0
M  V30 10961 O 1035.56 -1.57084 -1.48841 0
M  V30 10962 C 1036.15 -3.02896 1.51787 0
M  V30 10963 C 1034.71 -3.52596 1.3173 0
M  V30 10964 C 1033.86 -2.27994 1.57841 0
M  V30 10965 H 1036.81 -0.980838 1.24761 0
M  V30 10966 H 1036.83 -3.68526 0.947057 0
M  V30 10967 H 1036.34 -2.89062 2.58969 0
M  V30 10968 H 1034.44 -3.71647 0.266339 0
M  V30 10969 H 1034.56 -4.33151 2.04736 0
M  V30 10970 H 1032.92 -2.34241 1.00015 0
M  V30 10971 H 1033.7 -2.16732 2.66237 0
M  V30 10972 N 1036.15 -0.873678 -1.31166 0
M  V30 10973 C 1037.43 -0.40698 -1.91319 0
M  V30 10974 C 1037.81 1.1113 -1.79481 0
M  V30 10975 O 1037.15 1.94155 -1.20483 0
M  V30 10976 C 1037.36 -0.892484 -3.37396 0
M  V30 10977 C 1038.71 -0.920795 -4.14496 0
M  V30 10978 O 1039.74 -0.838386 -3.46193 0
M  V30 10979 O 1038.59 -1.04069 -5.365 0
M  V30 10980 H 1035.69 -0.122439 -0.817886 0
M  V30 10981 H 1038.23 -0.961835 -1.3981 0
M  V30 10982 H 1037.01 -1.93613 -3.40044 0
M  V30 10983 H 1036.63 -0.31615 -3.96341 0
M  V30 10984 N 1037.63 1.44308 -0.633487 0
M  V30 10985 C 1038.85 2.06897 -0.144347 0
M  V30 10986 C 1039.28 1.47045 1.173 0
M  V30 10987 O 1038.63 0.572806 1.72013 0
M  V30 10988 C 1038.68 3.60571 -0.0456324 0
M  V30 10989 O 1037.79 4.0015 0.997682 0
M  V30 10990 H 1037.13 0.658427 -0.0858499 0
M  V30 10991 H 1039.66 1.85142 -0.870833 0
M  V30 10992 H 1039.67 4.07745 0.144178 0
M  V30 10993 H 1038.34 4.03515 -1.0074 0
M  V30 10994 H 1036.92 3.64603 0.782252 0
M  V30 10995 N 1039.1 0.374177 1.53094 0
M  V30 10996 C 1040.05 -0.468226 2.26001 0
M  V30 10997 C 1041.02 -1.07041 1.27009 0
M  V30 10998 O 1042.21 -1.10129 1.55809 0
M  V30 10999 C 1039.35 -1.59754 3.05896 0
M  V30 11000 C 1038.46 -1.01969 4.19793 0
M  V30 11001 C 1037.59 -2.11882 4.87113 0
M  V30 11002 C 1036.63 -1.51607 5.93028 0
M  V30 11003 N 1035.77 -2.55388 6.54004 0
M  V30 11004 H 1040.61 0.159983 2.9757 0
M  V30 11005 H 1038.15 0.0907196 1.4682 0
M  V30 11006 H 1040.11 -2.26288 3.50499 0
M  V30 11007 H 1038.74 -2.19628 2.36565 0
M  V30 11008 H 1037.79 -0.244386 3.79614 0
M  V30 11009 H 1039.1 -0.539089 4.95878 0
M  V30 11010 H 1038.25 -2.86218 5.34943 0
M  V30 11011 H 1036.99 -2.63297 4.10519 0
M  V30 11012 H 1036 -0.757891 5.44551 0
M  V30 11013 H 1037.22 -1.01006 6.71546 0
M  V30 11014 H 1035.17 -3.06 5.80258 0
M  V30 11015 H 1035.09 -2.12039 7.25655 0
M  V30 11016 H 1036.35 -3.294 7.06481 0
M  V30 11017 N 1040.58 -1.57259 0.103575 0
M  V30 11018 C 1041.81 -1.99 -0.566275 0
M  V30 11019 C 1042.23 -0.982909 -1.61197 0
M  V30 11020 O 1041.58 0.026345 -1.82481 0
M  V30 11021 C 1041.63 -3.40778 -1.20635 0
M  V30 11022 O 1041.35 -4.37632 -0.202472 0
M  V30 11023 C 1042.86 -3.97567 -1.961 0
M  V30 11024 H 1040.08 -0.653751 -0.151164 0
M  V30 11025 H 1042.62 -2.03658 0.185365 0
M  V30 11026 H 1040.77 -3.37107 -1.90886 0
M  V30 11027 H 1041.19 -5.2026 -0.665535 0
M  V30 11028 H 1042.66 -4.98897 -2.36233 0
M  V30 11029 H 1043.14 -3.35853 -2.83018 0
M  V30 11030 H 1043.75 -4.04737 -1.30645 0
M  V30 11031 N 1042.06 0.170153 -1.56679 0
M  V30 11032 C 1043.48 0.521966 -1.50823 0
M  V30 11033 C 1043.68 1.84589 -0.808037 0
M  V30 11034 O 1042.73 2.49791 -0.368891 0
M  V30 11035 C 1044.05 0.553648 -2.95559 0
M  V30 11036 C 1045.59 0.640769 -3.06371 0
M  V30 11037 C 1046.07 0.703332 -4.52567 0
M  V30 11038 N 1047.56 0.76619 -4.56819 0
M  V30 11039 C 1048.29 0.835192 -5.67285 0
M  V30 11040 N 1047.79 0.864957 -6.87379 0
M  V30 11041 N 1049.58 0.874302 -5.55259 0
M  V30 11042 H 1041.73 -0.697952 -2.00605 0
M  V30 11043 H 1044 -0.251787 -0.913952 0
M  V30 11044 H 1043.7 -0.350498 -3.49949 0
M  V30 11045 H 1043.58 1.39973 -3.50268 0
M  V30 11046 H 1045.96 1.53534 -2.52015 0
M  V30 11047 H 1046.05 -0.232008 -2.54746 0
M  V30 11048 H 1045.69 -0.186986 -5.07556 0
M  V30 11049 H 1045.62 1.59227 -5.0195 0
M  V30 11050 H 1048.11 0.751424 -3.70354 0
M  V30 11051 H 1048.42 0.918814 -7.67318 0
M  V30 11052 H 1046.77 0.833215 -6.89987 0
M  V30 11053 H 1049.96 0.848057 -4.60354 0
M  V30 11054 H 1050.13 0.924615 -6.4137 0
M  V30 11055 N 1043.54 1.5137 0.438746 0
M  V30 11056 C 1044.49 1.72582 1.53245 0
M  V30 11057 C 1045.46 0.567488 1.56105 0
M  V30 11058 O 1046.64 0.80176 1.73137 0
M  V30 11059 C 1043.78 1.85551 2.90972 0
M  V30 11060 C 1042.89 3.13094 2.97652 0
M  V30 11061 C 1042.03 3.16666 4.26493 0
M  V30 11062 C 1041.07 4.38529 4.27035 0
M  V30 11063 N 1040.2 4.39659 5.47398 0
M  V30 11064 H 1045.04 2.65941 1.3446 0
M  V30 11065 H 1042.58 1.31801 0.653206 0
M  V30 11066 H 1044.54 1.91053 3.70884 0
M  V30 11067 H 1043.17 0.956025 3.08318 0
M  V30 11068 H 1042.22 3.16909 2.10412 0
M  V30 11069 H 1043.53 4.03009 2.93914 0
M  V30 11070 H 1042.69 3.21075 5.14777 0
M  V30 11071 H 1041.43 2.24637 4.32885 0
M  V30 11072 H 1040.43 4.34297 3.37144 0
M  V30 11073 H 1041.66 5.31821 4.22307 0
M  V30 11074 H 1039.6 3.50499 5.54514 0
M  V30 11075 H 1039.52 5.23382 5.45534 0
M  V30 11076 H 1040.79 4.48259 6.37718 0
M  V30 11077 N 1045.02 -0.694098 1.41492 0
M  V30 11078 C 1046.24 -1.48286 1.44288 0
M  V30 11079 C 1046.66 -1.88737 0.0485783 0
M  V30 11080 O 1046.02 -1.56881 -0.932449 0
M  V30 11081 C 1046.07 -2.74446 2.3529 0
M  V30 11082 O 1045.79 -2.35698 3.69294 0
M  V30 11083 C 1047.29 -3.68175 2.46905 0
M  V30 11084 H 1044.51 -0.45692 0.491391 0
M  V30 11085 H 1047.05 -0.854477 1.85793 0
M  V30 11086 H 1045.21 -3.33518 1.9709 0
M  V30 11087 H 1045.62 -3.17029 4.17843 0
M  V30 11088 H 1047.1 -4.53476 3.14743 0
M  V30 11089 H 1047.57 -4.12763 1.50078 0
M  V30 11090 H 1048.18 -3.15006 2.85747 0
M  V30 11091 N 1046.49 -1.27344 -0.928501 0
M  V30 11092 C 1047.72 -1.16278 -1.70772 0
M  V30 11093 C 1048.13 0.283131 -1.8707 0
M  V30 11094 O 1047.48 1.20466 -1.38685 0
M  V30 11095 C 1047.54 -1.77313 -3.1273 0
M  V30 11096 C 1047.2 -3.26488 -3.19773 0
M  V30 11097 C 1048.2 -4.23133 -3.02083 0
M  V30 11098 C 1045.88 -3.67182 -3.42757 0
M  V30 11099 C 1047.88 -5.5845 -3.07267 0
M  V30 11100 C 1045.56 -5.02629 -3.47574 0
M  V30 11101 C 1046.56 -5.98072 -3.29847 0
M  V30 11102 O 1046.25 -7.3105 -3.34397 0
M  V30 11103 H 1045.98 -0.405215 -0.541089 0
M  V30 11104 H 1048.54 -1.68707 -1.17163 0
M  V30 11105 H 1046.77 -1.19361 -3.67818 0
M  V30 11106 H 1048.46 -1.60972 -3.72616 0
M  V30 11107 H 1049.22 -3.93031 -2.84168 0
M  V30 11108 H 1045.1 -2.93369 -3.55606 0
M  V30 11109 H 1048.64 -6.32924 -2.93348 0
M  V30 11110 H 1044.54 -5.32387 -3.65013 0
M  V30 11111 H 1045.31 -7.39488 -3.50857 0
M  V30 11112 N 1047.97 1.13488 -1.09353 0
M  V30 11113 C 1049.22 1.84748 -0.829126 0
M  V30 11114 C 1049.55 1.83485 0.645247 0
M  V30 11115 O 1048.8 1.26767 1.49093 0
M  V30 11116 C 1049.1 3.32584 -1.30854 0
M  V30 11117 C 1048.77 3.54028 -2.7924 0
M  V30 11118 C 1047.43 3.59588 -3.19765 0
M  V30 11119 C 1049.78 3.62058 -3.74918 0
M  V30 11120 C 1047.11 3.70712 -4.54741 0
M  V30 11121 C 1049.46 3.7471 -5.09682 0
M  V30 11122 C 1048.13 3.78523 -5.49797 0
M  V30 11123 H 1047.4 0.67604 -0.303399 0
M  V30 11124 H 1050.04 1.33989 -1.36818 0
M  V30 11125 H 1048.35 3.85689 -0.689275 0
M  V30 11126 H 1050.04 3.86166 -1.08059 0
M  V30 11127 H 1046.63 3.50354 -2.4688 0
M  V30 11128 H 1050.82 3.57043 -3.44723 0
M  V30 11129 H 1046.07 3.71931 -4.8526 0
M  V30 11130 H 1050.25 3.79866 -5.83674 0
M  V30 11131 H 1047.88 3.86895 -6.54382 0
M  V30 11132 N 1049.45 0.880621 1.30701 0
M  V30 11133 C 1050.7 0.495894 1.95922 0
M  V30 11134 C 1051.02 -0.957214 1.69889 0
M  V30 11135 O 1050.29 -1.67245 1.0201 0
M  V30 11136 H 1048.87 0.180394 0.724891 0
M  V30 11137 H 1051.53 1.12274 1.59313 0
M  V30 11138 H 1050.63 0.662508 3.04987 0
M  V30 11139 N 1050.93 -1.4397 0.641131 0
M  V30 11140 C 1051.88 -2.30728 -0.0577905 0
M  V30 11141 C 1052.85 -1.44059 -0.826819 0
M  V30 11142 O 1054.03 -1.72947 -0.805853 0
M  V30 11143 C 1051.17 -3.29478 -1.02657 0
M  V30 11144 C 1050.28 -4.31247 -0.254913 0
M  V30 11145 C 1049.42 -5.17085 -1.2164 0
M  V30 11146 C 1048.46 -6.10556 -0.434481 0
M  V30 11147 N 1047.6 -6.89059 -1.34694 0
M  V30 11148 H 1052.44 -2.8995 0.687953 0
M  V30 11149 H 1049.97 -1.4285 0.351029 0
M  V30 11150 H 1051.93 -3.85228 -1.60173 0
M  V30 11151 H 1050.56 -2.71932 -1.73933 0
M  V30 11152 H 1049.61 -3.77889 0.436338 0
M  V30 11153 H 1050.92 -4.97545 0.353642 0
M  V30 11154 H 1050.08 -5.77402 -1.86258 0
M  V30 11155 H 1048.82 -4.50885 -1.85888 0
M  V30 11156 H 1047.82 -5.49339 0.225125 0
M  V30 11157 H 1049.05 -6.78795 0.203415 0
M  V30 11158 H 1046.99 -6.25518 -1.97644 0
M  V30 11159 H 1046.91 -7.51833 -0.792657 0
M  V30 11160 H 1048.18 -7.5389 -1.98165 0
M  V30 11161 N 1052.41 -0.382291 -1.52893 0
M  V30 11162 C 1053.34 0.447829 -2.29165 0
M  V30 11163 C 1054.32 1.06956 -1.32267 0
M  V30 11164 O 1055.5 1.08365 -1.61154 0
M  V30 11165 C 1052.63 1.57902 -3.09329 0
M  V30 11166 C 1051.59 1.08369 -4.14053 0
M  V30 11167 C 1050.91 2.30641 -4.82399 0
M  V30 11168 C 1052.21 0.156591 -5.22065 0
M  V30 11169 H 1053.91 -0.188541 -2.98806 0
M  V30 11170 H 1051.45 -0.0921179 -1.43705 0
M  V30 11171 H 1053.41 2.16652 -3.61442 0
M  V30 11172 H 1052.13 2.24287 -2.37409 0
M  V30 11173 H 1050.79 0.518772 -3.62911 0
M  V30 11174 H 1050.44 2.9552 -4.07034 0
M  V30 11175 H 1050.14 1.98163 -5.53177 0
M  V30 11176 H 1051.66 2.90047 -5.37313 0
M  V30 11177 H 1053.08 0.652065 -5.6958 0
M  V30 11178 H 1051.47 -0.0780978 -6.00049 0
M  V30 11179 H 1052.54 -0.796529 -4.78313 0
M  V30 11180 N 1053.89 1.57202 -0.111913 0
M  V30 11181 C 1055.13 1.94565 0.546713 0
M  V30 11182 C 1055.45 0.995644 1.67666 0
M  V30 11183 O 1054.72 0.0506681 1.95834 0
M  V30 11184 H 1053.3 0.718334 0.204951 0
M  V30 11185 H 1055.97 1.94074 -0.179193 0
M  V30 11186 H 1055.06 2.9742 0.945931 0
M  V30 11187 N 1055.36 -0.161842 1.56767 0
M  V30 11188 C 1056.61 -0.875278 1.81719 0
M  V30 11189 C 1056.93 -1.82998 0.690739 0
M  V30 11190 O 1058.13 -2.58648 0.82545 0
M  V30 11191 C 1056.59 -1.60703 3.22029 0
M  V30 11192 C 1056.2 -0.695486 4.42569 0
M  V30 11193 C 1057.94 -2.30813 3.56266 0
M  V30 11194 C 1055.85 -1.42801 5.73901 0
M  V30 11195 H 1054.78 -0.330591 0.677662 0
M  V30 11196 H 1057.43 -0.128112 1.83052 0
M  V30 11197 H 1055.81 -2.39929 3.1504 0
M  V30 11198 H 1056.98 0.0604882 4.6076 0
M  V30 11199 H 1055.3 -0.10356 4.16271 0
M  V30 11200 H 1057.9 -2.86229 4.51638 0
M  V30 11201 H 1058.24 -3.06603 2.81604 0
M  V30 11202 H 1058.77 -1.5852 3.64851 0
M  V30 11203 H 1055.51 -0.712253 6.51619 0
M  V30 11204 H 1055.03 -2.15707 5.5967 0
M  V30 11205 H 1056.71 -1.97295 6.16185 0
M  V30 11206 N 1056.84 -1.516 -0.430713 0
M  V30 11207 C 1057.8 -1.72794 -1.50582 0
M  V30 11208 C 1058.8 -0.597903 -1.49271 0
M  V30 11209 O 1059.99 -0.865535 -1.51176 0
M  V30 11210 C 1057.13 -1.79049 -2.90093 0
M  V30 11211 H 1058.32 -2.68751 -1.33091 0
M  V30 11212 H 1055.87 -1.4169 -0.659822 0
M  V30 11213 H 1056.61 -0.849309 -3.12981 0
M  V30 11214 H 1056.39 -2.61181 -2.92449 0
M  V30 11215 H 1057.88 -1.97262 -3.68072 0
M  V30 11216 N 1058.32 0.686584 -1.41858 0
M  V30 11217 C 1059.27 1.82167 -1.4463 0
M  V30 11218 C 1060.26 1.66286 -0.323313 0
M  V30 11219 O 1061.47 1.73038 -0.495773 0
M  V30 11220 H 1057.84 0.600454 -0.452724 0
M  V30 11221 H 1059.81 1.76947 -2.40276 0
M  V30 11222 C 1058.56 3.20248 -1.35412 0
M  V30 11223 H 1057.89 3.33089 -2.21115 0
M  V30 11224 H 1059.33 3.99723 -1.41413 0
M  V30 11225 C 1057.78 3.36832 -0.0674972 0
M  V30 11226 O 1058.31 3.91845 0.884325 0
M  V30 11227 N 1056.52 2.90598 0.011519 0
M  V30 11228 H 1056.07 2.46016 -0.76381 0
M  V30 11229 H 1056.03 3.02072 0.871774 0
M  V30 11230 N 1059.8 1.27835 0.921735 0
M  V30 11231 C 1060.76 1.11108 2.00469 0
M  V30 11232 C 1061.76 0.053203 1.60712 0
M  V30 11233 O 1062.95 0.298308 1.71627 0
M  V30 11234 C 1060.08 0.694269 3.33755 0
M  V30 11235 H 1061.28 2.07279 2.16738 0
M  V30 11236 H 1058.83 1.10708 1.10333 0
M  V30 11237 H 1059.56 -0.268561 3.23186 0
M  V30 11238 H 1059.35 1.45836 3.6397 0
M  V30 11239 H 1060.84 0.59965 4.13272 0
M  V30 11240 N 1061.28 -1.12907 1.09954 0
M  V30 11241 C 1062.21 -2.18194 0.701701 0
M  V30 11242 C 1063.22 -1.60724 -0.259131 0
M  V30 11243 O 1064.41 -1.78445 -0.0443549 0
M  V30 11244 C 1061.51 -3.38897 0.0140602 0
M  V30 11245 C 1060.68 -4.25867 0.997807 0
M  V30 11246 C 1059.74 -5.25084 0.34257 0
M  V30 11247 O 1058.77 -5.60492 0.991857 0
M  V30 11248 N 1059.97 -5.73464 -0.901058 0
M  V30 11249 H 1062.73 -2.52939 1.60755 0
M  V30 11250 H 1060.3 -1.28281 0.987703 0
M  V30 11251 H 1062.29 -4.02349 -0.435628 0
M  V30 11252 H 1060.86 -3.02345 -0.794118 0
M  V30 11253 H 1060.08 -3.59107 1.6259 0
M  V30 11254 H 1061.37 -4.80825 1.66388 0
M  V30 11255 H 1060.76 -5.46854 -1.44802 0
M  V30 11256 H 1059.32 -6.38827 -1.29398 0
M  V30 11257 N 1062.75 -0.88754 -1.30232 0
M  V30 11258 C 1063.69 -0.300814 -2.26209 0
M  V30 11259 C 1064.66 0.580088 -1.519 0
M  V30 11260 O 1065.85 0.529611 -1.80907 0
M  V30 11261 C 1062.98 0.572336 -3.33829 0
M  V30 11262 C 1062.02 -0.239589 -4.25827 0
M  V30 11263 S 1062.85 -1.62953 -5.10104 0
M  V30 11264 C 1064.01 -0.762979 -6.21232 0
M  V30 11265 H 1064.24 -1.11435 -2.75626 0
M  V30 11266 H 1061.78 -0.687123 -1.38268 0
M  V30 11267 H 1063.73 1.07036 -3.963 0
M  V30 11268 H 1062.4 1.35999 -2.83131 0
M  V30 11269 H 1061.59 0.426854 -5.02189 0
M  V30 11270 H 1061.19 -0.670325 -3.67944 0
M  V30 11271 H 1063.48 0.0189354 -6.77497 0
M  V30 11272 H 1064.43 -1.49829 -6.92067 0
M  V30 11273 H 1064.83 -0.322747 -5.63577 0
M  V30 11274 N 1064.23 1.43628 -0.648757 0
M  V30 11275 C 1065.51 1.95391 -0.0904551 0
M  V30 11276 C 1065.89 1.59021 1.38837 0
M  V30 11277 O 1065.24 0.873078 2.11163 0
M  V30 11278 C 1065.45 3.47418 -0.33196 0
M  V30 11279 C 1066.8 4.23952 -0.234521 0
M  V30 11280 O 1067.82 3.55218 -0.264276 0
M  V30 11281 O 1066.68 5.46282 -0.154428 0
M  V30 11282 H 1063.77 0.82691 0.0121884 0
M  V30 11283 H 1066.32 1.5359 -0.721685 0
M  V30 11284 H 1065.09 3.67001 -1.35741 0
M  V30 11285 H 1064.71 3.96207 0.332556 0
M  V30 11286 N 1065.71 0.390394 1.52688 0
M  V30 11287 C 1066.96 -0.191445 2.01593 0
M  V30 11288 C 1067.29 -1.46723 1.27681 0
M  V30 11289 O 1066.54 -1.92248 0.365972 0
M  V30 11290 C 1066.84 -0.50468 3.53819 0
M  V30 11291 C 1066.51 0.679691 4.45748 0
M  V30 11292 C 1065.17 1.0046 4.70597 0
M  V30 11293 C 1067.52 1.47198 4.99982 0
M  V30 11294 C 1064.85 2.12334 5.46929 0
M  V30 11295 C 1067.2 2.58133 5.77538 0
M  V30 11296 C 1065.86 2.91131 6.00665 0
M  V30 11297 H 1065.13 -0.0700548 0.737681 0
M  V30 11298 H 1067.78 0.527965 1.84078 0
M  V30 11299 H 1066.09 -1.30543 3.69413 0
M  V30 11300 H 1067.78 -0.967524 3.89153 0
M  V30 11301 H 1064.37 0.416446 4.26572 0
M  V30 11302 H 1068.56 1.2342 4.80709 0
M  V30 11303 H 1063.81 2.38269 5.63061 0
M  V30 11304 H 1067.99 3.19925 6.18564 0
M  V30 11305 H 1065.61 3.77938 6.59596 0
M  V30 11306 N 1067.19 -1.57141 0.120249 0
M  V30 11307 C 1068.12 -2.12454 -0.859987 0
M  V30 11308 C 1069.13 -1.06755 -1.22911 0
M  V30 11309 O 1070.32 -1.34124 -1.17784 0
M  V30 11310 C 1067.42 -2.61024 -2.16147 0
M  V30 11311 C 1066.6 -3.90835 -1.96385 0
M  V30 11312 C 1065.65 -4.2499 -3.10274 0
M  V30 11313 O 1064.68 -4.93786 -2.83133 0
M  V30 11314 N 1065.88 -3.82411 -4.36741 0
M  V30 11315 H 1068.65 -2.97186 -0.387402 0
M  V30 11316 H 1066.21 -1.61773 -0.0641376 0
M  V30 11317 H 1068.2 -2.80903 -2.91334 0
M  V30 11318 H 1066.77 -1.81166 -2.5475 0
M  V30 11319 H 1065.99 -3.79853 -1.05383 0
M  V30 11320 H 1067.28 -4.75712 -1.80487 0
M  V30 11321 H 1066.68 -3.26926 -4.61666 0
M  V30 11322 H 1065.23 -4.07395 -5.08795 0
M  V30 11323 N 1068.67 0.153526 -1.5685 0
M  V30 11324 C 1069.91 0.868517 -1.83261 0
M  V30 11325 C 1070.25 1.81112 -0.700857 0
M  V30 11326 O 1069.52 1.92235 0.295989 0
M  V30 11327 C 1069.8 1.6487 -3.2014 0
M  V30 11328 C 1069.66 0.728021 -4.43869 0
M  V30 11329 C 1070.98 2.61259 -3.54163 0
M  V30 11330 H 1068.09 0.314297 -0.666623 0
M  V30 11331 H 1070.74 0.133971 -1.89527 0
M  V30 11332 H 1068.89 2.2749 -3.1493 0
M  V30 11333 H 1070.56 0.113328 -4.61161 0
M  V30 11334 H 1068.8 0.0371744 -4.33784 0
M  V30 11335 H 1069.47 1.30981 -5.36235 0
M  V30 11336 H 1071.95 2.0876 -3.59942 0
M  V30 11337 H 1070.82 3.12902 -4.50981 0
M  V30 11338 H 1071.09 3.42307 -2.79782 0
M  V30 11339 N 1070.14 1.51827 0.422667 0
M  V30 11340 C 1071.05 1.77066 1.53899 0
M  V30 11341 C 1072.07 0.655541 1.61179 0
M  V30 11342 O 1073.25 0.939448 1.78147 0
M  V30 11343 C 1070.31 1.90372 2.89758 0
M  V30 11344 C 1069.37 3.14256 2.92475 0
M  V30 11345 C 1068.61 3.26918 4.21853 0
M  V30 11346 O 1068.83 2.45164 5.15025 0
M  V30 11347 O 1067.76 4.19989 4.31153 0
M  V30 11348 H 1071.59 2.71791 1.35511 0
M  V30 11349 H 1069.17 1.36506 0.607165 0
M  V30 11350 H 1071.06 2.01024 3.70361 0
M  V30 11351 H 1069.73 0.988347 3.08242 0
M  V30 11352 H 1068.64 3.09072 2.10773 0
M  V30 11353 H 1069.97 4.0553 2.78937 0
M  V30 11354 N 1071.62 -0.679052 1.4222 0
M  V30 11355 C 1072.87 -1.44125 1.42674 0
M  V30 11356 C 1073.2 -1.94156 0.041438 0
M  V30 11357 O 1072.48 -1.70628 -0.93361 0
M  V30 11358 C 1072.76 -2.64133 2.44756 0
M  V30 11359 C 1072.61 -2.19761 3.9246 0
M  V30 11360 C 1073.93 -3.66347 2.43881 0
M  V30 11361 H 1071.05 -0.522729 0.519541 0
M  V30 11362 H 1073.69 -0.772067 1.73606 0
M  V30 11363 H 1071.84 -3.21225 2.1851 0
M  V30 11364 H 1073.51 -1.67869 4.29671 0
M  V30 11365 H 1071.76 -1.51377 4.06531 0
M  V30 11366 H 1072.43 -3.05944 4.59459 0
M  V30 11367 H 1074.9 -3.18963 2.67211 0
M  V30 11368 H 1073.78 -4.47902 3.17293 0
M  V30 11369 H 1074.04 -4.17183 1.46325 0
M  V30 11370 N 1073.1 -1.28322 -0.914942 0
M  V30 11371 C 1074.33 -1.18254 -1.69775 0
M  V30 11372 C 1074.74 0.258978 -1.87015 0
M  V30 11373 O 1074.1 1.17514 -1.3963 0
M  V30 11374 C 1074.15 -1.8753 -3.09054 0
M  V30 11375 O 1073.87 -3.26051 -2.92613 0
M  V30 11376 C 1075.37 -1.83749 -4.03424 0
M  V30 11377 H 1072.59 -0.41055 -0.530744 0
M  V30 11378 H 1075.14 -1.69425 -1.14523 0
M  V30 11379 H 1073.29 -1.40233 -3.61128 0
M  V30 11380 H 1073.71 -3.60729 -3.80756 0
M  V30 11381 H 1075.18 -2.36813 -4.98622 0
M  V30 11382 H 1075.66 -0.809601 -4.31674 0
M  V30 11383 H 1076.26 -2.3072 -3.57279 0
M  V30 11384 N 1074.58 1.12322 -1.10551 0
M  V30 11385 C 1075.81 1.87679 -0.87087 0
M  V30 11386 C 1076.22 1.79711 0.578733 0
M  V30 11387 O 1075.58 1.17185 1.39907 0
M  V30 11388 C 1075.63 3.36846 -1.31213 0
M  V30 11389 O 1075.35 3.44626 -2.70489 0
M  V30 11390 C 1076.85 4.29138 -1.11156 0
M  V30 11391 H 1074.07 0.593788 -0.3125 0
M  V30 11392 H 1076.62 1.42116 -1.47048 0
M  V30 11393 H 1074.77 3.79948 -0.756169 0
M  V30 11394 H 1075.18 4.37441 -2.89389 0
M  V30 11395 H 1076.66 5.32082 -1.46944 0
M  V30 11396 H 1077.14 4.39171 -0.0502963 0
M  V30 11397 H 1077.74 3.91818 -1.65405 0
M  V30 11398 N 1076.06 0.894434 1.2976 0
M  V30 11399 C 1076.97 0.372622 2.31622 0
M  V30 11400 C 1077.98 -0.52996 1.65733 0
M  V30 11401 O 1079.16 -0.420807 1.96955 0
M  V30 11402 C 1076.22 -0.396076 3.4443 0
M  V30 11403 C 1075.28 0.537394 4.25923 0
M  V30 11404 C 1074.52 -0.194713 5.33345 0
M  V30 11405 O 1074.74 -1.41943 5.52457 0
M  V30 11406 O 1073.67 0.460055 6.00139 0
M  V30 11407 H 1077.5 1.21756 2.78225 0
M  V30 11408 H 1075.09 0.65858 1.34101 0
M  V30 11409 H 1076.97 -0.830962 4.13126 0
M  V30 11410 H 1075.64 -1.21716 2.99945 0
M  V30 11411 H 1074.55 1.02129 3.5989 0
M  V30 11412 H 1075.88 1.32475 4.74037 0
M  V30 11413 N 1077.53 -1.43282 0.656365 0
M  V30 11414 C 1078.48 -2.30776 -0.0333155 0
M  V30 11415 C 1079.45 -1.44928 -0.811493 0
M  V30 11416 O 1080.64 -1.73792 -0.787465 0
M  V30 11417 C 1077.78 -3.30548 -0.991566 0
M  V30 11418 C 1076.89 -4.31493 -0.209159 0
M  V30 11419 C 1076.02 -5.18346 -1.16149 0
M  V30 11420 C 1075.06 -6.10983 -0.369699 0
M  V30 11421 N 1074.2 -6.90449 -1.27378 0
M  V30 11422 H 1079.04 -2.89204 0.718668 0
M  V30 11423 H 1076.58 -1.4247 0.366161 0
M  V30 11424 H 1078.54 -3.86905 -1.56078 0
M  V30 11425 H 1077.17 -2.73762 -1.71039 0
M  V30 11426 H 1076.22 -3.77405 0.476394 0
M  V30 11427 H 1077.53 -4.97142 0.406394 0
M  V30 11428 H 1076.68 -5.79345 -1.80124 0
M  V30 11429 H 1075.42 -4.52831 -1.81095 0
M  V30 11430 H 1074.43 -5.49069 0.283377 0
M  V30 11431 H 1075.65 -6.78541 0.275399 0
M  V30 11432 H 1073.6 -6.27579 -1.90999 0
M  V30 11433 H 1073.52 -7.52631 -0.71287 0
M  V30 11434 H 1074.78 -7.5595 -1.90158 0
M  V30 11435 N 1079.01 -0.398486 -1.52479 0
M  V30 11436 C 1080.26 0.182046 -2.00877 0
M  V30 11437 C 1080.58 1.47128 -1.2889 0
M  V30 11438 O 1081.78 2.13242 -1.68048 0
M  V30 11439 C 1080.24 0.374978 -3.57941 0
M  V30 11440 C 1079.85 -0.901544 -4.38835 0
M  V30 11441 C 1081.59 0.911378 -4.14601 0
M  V30 11442 C 1079.5 -0.676385 -5.87519 0
M  V30 11443 H 1078.43 0.0718068 -0.750573 0
M  V30 11444 H 1081.08 -0.522297 -1.7591 0
M  V30 11445 H 1079.46 1.14139 -3.79194 0
M  V30 11446 H 1080.63 -1.67329 -4.29346 0
M  V30 11447 H 1078.95 -1.36357 -3.93441 0
M  V30 11448 H 1081.55 1.09569 -5.23353 0
M  V30 11449 H 1081.89 1.88306 -3.71277 0
M  V30 11450 H 1082.42 0.204296 -3.97275 0
M  V30 11451 H 1079.16 -1.61933 -6.35184 0
M  V30 11452 H 1078.68 0.0562542 -5.99774 0
M  V30 11453 H 1080.36 -0.314454 -6.46235 0
M  V30 11454 N 1080.49 1.57075 -0.12858 0
M  V30 11455 C 1081.72 1.99876 0.534544 0
M  V30 11456 C 1082.13 1.00843 1.59612 0
M  V30 11457 O 1081.49 0.00268947 1.825 0
M  V30 11458 C 1081.54 3.42654 1.15198 0
M  V30 11459 O 1081.26 4.37899 0.132823 0
M  V30 11460 C 1082.76 4.00637 1.8975 0
M  V30 11461 H 1079.98 0.656073 0.140744 0
M  V30 11462 H 1082.53 2.03337 -0.217742 0
M  V30 11463 H 1080.68 3.40101 1.85499 0
M  V30 11464 H 1081.1 5.21253 0.582682 0
M  V30 11465 H 1082.57 5.02592 2.28266 0
M  V30 11466 H 1083.05 3.40313 2.7764 0
M  V30 11467 H 1083.65 4.06764 1.2419 0
M  V30 11468 N 1081.97 -0.145205 1.5693 0
M  V30 11469 C 1082.9 -1.18096 2.01434 0
M  V30 11470 C 1083.88 -1.447 0.894204 0
M  V30 11471 O 1085.07 -1.55589 1.16214 0
M  V30 11472 C 1082.2 -2.51369 2.39647 0
M  V30 11473 C 1081.15 -2.39283 3.54863 0
M  V30 11474 C 1080.48 -3.77283 3.78895 0
M  V30 11475 C 1081.78 -1.8754 4.87469 0
M  V30 11476 H 1083.47 -0.810897 2.8821 0
M  V30 11477 H 1081.02 -0.388624 1.38657 0
M  V30 11478 H 1082.97 -3.24054 2.69382 0
M  V30 11479 H 1081.69 -2.90214 1.49811 0
M  V30 11480 H 1080.35 -1.6905 3.25296 0
M  V30 11481 H 1080 -4.13567 2.86307 0
M  V30 11482 H 1079.7 -3.70057 4.56433 0
M  V30 11483 H 1081.22 -4.51514 4.11057 0
M  V30 11484 H 1082.64 -2.50019 5.1591 0
M  V30 11485 H 1081.03 -1.912 5.68826 0
M  V30 11486 H 1082.1 -0.831194 4.77723 0
M  V30 11487 N 1083.45 -1.52049 -0.414609 0
M  V30 11488 C 1084.69 -1.67041 -1.16056 0
M  V30 11489 C 1085.05 -0.392768 -1.88348 0
M  V30 11490 O 1084.34 0.612547 -1.81545 0
M  V30 11491 C 1084.54 -2.82735 -2.18622 0
M  V30 11492 C 1084.36 -4.21627 -1.564 0
M  V30 11493 C 1083.13 -4.87234 -1.33907 0
M  V30 11494 C 1085.33 -5.03924 -1.02785 0
M  V30 11495 N 1083.31 -6.10175 -0.67521 0
M  V30 11496 C 1084.69 -6.18056 -0.490589 0
M  V30 11497 C 1086.74 -4.89293 -0.921791 0
M  V30 11498 C 1085.44 -7.19159 0.14234 0
M  V30 11499 C 1087.47 -5.90625 -0.302724 0
M  V30 11500 C 1086.83 -7.04044 0.223891 0
M  V30 11501 H 1082.93 -0.664947 -0.411544 0
M  V30 11502 H 1085.51 -1.89339 -0.453743 0
M  V30 11503 H 1083.69 -2.62062 -2.86668 0
M  V30 11504 H 1085.42 -2.86792 -2.85539 0
M  V30 11505 H 1082.17 -4.45499 -1.60709 0
M  V30 11506 H 1082.6 -6.76042 -0.360062 0
M  V30 11507 H 1087.24 -4.01838 -1.31477 0
M  V30 11508 H 1084.96 -8.06244 0.547392 0
M  V30 11509 H 1088.54 -5.81375 -0.222252 0
M  V30 11510 H 1087.42 -7.81111 0.695377 0
M  V30 11511 N 1084.93 0.6715 -1.42579 0
M  V30 11512 C 1085.87 1.80623 -1.46554 0
M  V30 11513 C 1086.87 1.65934 -0.340932 0
M  V30 11514 O 1088.07 1.72502 -0.514098 0
M  V30 11515 H 1084.45 0.595619 -0.459067 0
M  V30 11516 H 1086.42 1.74388 -2.42139 0
M  V30 11517 C 1085.17 3.18794 -1.38801 0
M  V30 11518 H 1084.49 3.30725 -2.24635 0
M  V30 11519 H 1085.93 3.98201 -1.45645 0
M  V30 11520 C 1084.39 3.36742 -0.103219 0
M  V30 11521 O 1084.92 3.92761 0.842715 0
M  V30 11522 N 1083.13 2.90594 -0.0193034 0
M  V30 11523 H 1082.67 2.45192 -0.78986 0
M  V30 11524 H 1082.63 3.0298 0.839686 0
M  V30 11525 N 1086.4 1.28806 0.908124 0
M  V30 11526 C 1087.82 1.06634 1.18749 0
M  V30 11527 C 1088.02 -0.187729 2.00624 0
M  V30 11528 O 1087.08 -0.88784 2.36376 0
M  V30 11529 C 1088.39 2.31703 1.91661 0
M  V30 11530 C 1089.94 2.36939 2.04521 0
M  V30 11531 C 1090.41 3.61789 2.80843 0
M  V30 11532 N 1091.9 3.62462 2.88402 0
M  V30 11533 C 1092.64 4.55746 3.47971 0
M  V30 11534 N 1092.13 5.59353 4.08774 0
M  V30 11535 N 1093.93 4.43331 3.45564 0
M  V30 11536 H 1086.08 2.09299 0.36164 0
M  V30 11537 H 1088.34 0.921479 0.222668 0
M  V30 11538 H 1088.05 3.23096 1.38931 0
M  V30 11539 H 1087.92 2.38556 2.92183 0
M  V30 11540 H 1090.31 1.4604 2.5643 0
M  V30 11541 H 1090.39 2.34077 1.03159 0
M  V30 11542 H 1090.03 4.53035 2.29612 0
M  V30 11543 H 1089.96 3.61907 3.82532 0
M  V30 11544 H 1092.45 2.87544 2.45208 0
M  V30 11545 H 1092.77 6.26668 4.52224 0
M  V30 11546 H 1091.11 5.63173 4.07261 0
M  V30 11547 H 1094.3 3.61587 2.97276 0
M  V30 11548 H 1094.48 5.16216 3.91695 0
M  V30 11549 N 1087.88 -1.11734 1.11145 0
M  V30 11550 C 1088.84 -2.15868 0.770303 0
M  V30 11551 C 1089.84 -1.59438 -0.208842 0
M  V30 11552 O 1091.03 -1.74193 0.0152516 0
M  V30 11553 C 1088.17 -3.40603 0.142303 0
M  V30 11554 H 1089.36 -2.4756 1.69276 0
M  V30 11555 H 1086.91 -1.26867 0.912929 0
M  V30 11556 H 1087.65 -3.14517 -0.790526 0
M  V30 11557 H 1087.43 -3.8284 0.847087 0
M  V30 11558 H 1088.92 -4.17523 -0.0803608 0
M  V30 11559 N 1089.36 -0.901303 -1.29284 0
M  V30 11560 C 1090.61 -0.528826 -1.95784 0
M  V30 11561 C 1090.94 0.922833 -1.70873 0
M  V30 11562 O 1090.21 1.65448 -1.0226 0
M  V30 11563 C 1090.5 -0.823793 -3.50551 0
M  V30 11564 C 1090.35 -2.32727 -3.84913 0
M  V30 11565 C 1091.67 -0.311382 -4.38997 0
M  V30 11566 H 1088.79 -0.193604 -0.711116 0
M  V30 11567 H 1091.43 -1.12828 -1.52872 0
M  V30 11568 H 1089.58 -0.313612 -3.87232 0
M  V30 11569 H 1091.25 -2.90712 -3.58168 0
M  V30 11570 H 1089.49 -2.78735 -3.32399 0
M  V30 11571 H 1090.17 -2.48423 -4.9294 0
M  V30 11572 H 1092.64 -0.748265 -4.09317 0
M  V30 11573 H 1091.52 -0.546957 -5.46168 0
M  V30 11574 H 1091.78 0.787959 -4.35021 0
M  V30 11575 N 1090.84 1.42931 -0.663954 0
M  V30 11576 C 1092.25 1.84877 -0.260283 0
M  V30 11577 C 1092.6 1.5558 1.19538 0
M  V30 11578 O 1091.72 1.01015 1.91377 0
M  V30 11579 C 1092.32 3.35585 -0.465618 0
M  V30 11580 C 1090.88 3.76221 -0.116169 0
M  V30 11581 C 1090.03 2.66587 -0.763317 0
M  V30 11582 H 1092.98 1.32932 -0.866882 0
M  V30 11583 H 1093 3.79427 0.285608 0
M  V30 11584 H 1092.51 3.56877 -1.52515 0
M  V30 11585 H 1090.61 3.60539 0.940342 0
M  V30 11586 H 1090.72 4.75943 -0.549123 0
M  V30 11587 H 1089.09 2.53948 -0.19559 0
M  V30 11588 H 1089.87 2.90704 -1.82609 0
M  V30 11589 N 1092.32 0.406567 1.52266 0
M  V30 11590 C 1093.54 -0.172101 2.06685 0
M  V30 11591 C 1093.97 -1.38306 1.27488 0
M  V30 11592 O 1093.32 -1.78726 0.304441 0
M  V30 11593 C 1093.37 -0.503463 3.57068 0
M  V30 11594 O 1092.48 -1.59485 3.80314 0
M  V30 11595 H 1091.82 -0.0153209 0.663823 0
M  V30 11596 H 1094.35 0.579025 1.96236 0
M  V30 11597 H 1094.36 -0.762833 4.00805 0
M  V30 11598 H 1093.03 0.381775 4.14144 0
M  V30 11599 H 1091.61 -1.32784 3.48458 0
M  V30 11600 N 1093.79 -1.57004 0.136909 0
M  V30 11601 C 1095.02 -2.00156 -0.523936 0
M  V30 11602 C 1095.44 -1.01688 -1.59075 0
M  V30 11603 O 1094.79 -0.0123678 -1.82496 0
M  V30 11604 C 1094.85 -3.4326 -1.13379 0
M  V30 11605 O 1094.57 -4.37963 -0.109598 0
M  V30 11606 C 1096.07 -4.01637 -1.87623 0
M  V30 11607 H 1093.29 -0.65681 -0.137263 0
M  V30 11608 H 1095.83 -2.03219 0.228522 0
M  V30 11609 H 1093.99 -3.4108 -1.83693 0
M  V30 11610 H 1094.4 -5.21555 -0.55503 0
M  V30 11611 H 1095.87 -5.03795 -2.25597 0
M  V30 11612 H 1096.35 -3.41781 -2.75831 0
M  V30 11613 H 1096.96 -4.07417 -1.22031 0
M  V30 11614 N 1095.27 0.136881 -1.57004 0
M  V30 11615 C 1096.52 0.847775 -1.83899 0
M  V30 11616 C 1096.85 1.80709 -0.719332 0
M  V30 11617 O 1096.1 1.93527 0.290838 0
M  V30 11618 C 1096.4 1.64711 -3.17183 0
M  V30 11619 C 1096.07 0.833683 -4.43126 0
M  V30 11620 C 1094.73 0.609306 -4.77327 0
M  V30 11621 C 1097.08 0.265504 -5.20523 0
M  V30 11622 C 1094.41 -0.193793 -5.8638 0
M  V30 11623 C 1096.76 -0.524688 -6.3042 0
M  V30 11624 C 1095.43 -0.759548 -6.63164 0
M  V30 11625 H 1094.7 0.310223 -0.672936 0
M  V30 11626 H 1097.34 0.110937 -1.91178 0
M  V30 11627 H 1095.65 2.45435 -3.054 0
M  V30 11628 H 1097.34 2.20081 -3.3521 0
M  V30 11629 H 1093.93 1.01864 -4.16319 0
M  V30 11630 H 1098.12 0.426109 -4.94467 0
M  V30 11631 H 1093.37 -0.385153 -6.10186 0
M  V30 11632 H 1097.55 -0.972033 -6.89583 0
M  V30 11633 H 1095.18 -1.38369 -7.47501 0
M  V30 11634 N 1096.75 1.52266 0.40654 0
M  V30 11635 C 1097.98 1.70598 1.17945 0
M  V30 11636 C 1098.4 0.415793 1.83447 0
M  V30 11637 O 1097.76 -0.626968 1.70114 0
M  V30 11638 C 1097.81 2.84449 2.21633 0
M  V30 11639 O 1096.91 2.50199 3.27833 0
M  V30 11640 H 1096.25 0.567837 0.344177 0
M  V30 11641 H 1098.78 1.98981 0.476211 0
M  V30 11642 H 1098.79 3.09436 2.65919 0
M  V30 11643 H 1097.47 3.78055 1.73341 0
M  V30 11644 H 1096.04 2.35892 2.88807 0
M  V30 11645 N 1098.23 -0.663929 1.42933 0
M  V30 11646 C 1099.47 -1.42446 1.45192 0
M  V30 11647 C 1099.83 -1.92269 0.0710678 0
M  V30 11648 O 1099.12 -1.68688 -0.908565 0
M  V30 11649 C 1099.32 -2.62976 2.4203 0
M  V30 11650 C 1099.15 -2.24948 3.89395 0
M  V30 11651 C 1097.92 -2.13786 4.57847 0
M  V30 11652 C 1100.11 -1.85907 4.79524 0
M  V30 11653 N 1098.1 -1.68976 5.90187 0
M  V30 11654 C 1099.47 -1.52099 6.01054 0
M  V30 11655 C 1101.52 -1.72995 4.6688 0
M  V30 11656 C 1100.22 -1.06673 7.11346 0
M  V30 11657 C 1102.25 -1.28975 5.77165 0
M  V30 11658 C 1101.61 -0.960968 6.97814 0
M  V30 11659 H 1097.71 -0.517312 0.58644 0
M  V30 11660 H 1100.3 -0.765097 1.79037 0
M  V30 11661 H 1098.47 -3.26586 2.10229 0
M  V30 11662 H 1100.2 -3.29624 2.34798 0
M  V30 11663 H 1096.95 -2.33203 4.12206 0
M  V30 11664 H 1097.38 -1.48964 6.60408 0
M  V30 11665 H 1102.02 -1.97057 3.7407 0
M  V30 11666 H 1099.74 -0.813591 8.03994 0
M  V30 11667 H 1103.32 -1.19489 5.69398 0
M  V30 11668 H 1102.2 -0.625522 7.81701 0
M  V30 11669 N 1099.71 -1.29285 -0.901281 0
M  V30 11670 C 1100.64 -1.16832 -2.0217 0
M  V30 11671 C 1101.62 -0.0629265 -1.69984 0
M  V30 11672 O 1102.8 -0.242123 -1.92685 0
M  V30 11673 C 1099.93 -0.842406 -3.36929 0
M  V30 11674 C 1098.89 -1.90394 -3.8332 0
M  V30 11675 C 1098.21 -1.43138 -5.15185 0
M  V30 11676 C 1099.51 -3.31254 -4.03817 0
M  V30 11677 H 1101.21 -2.10562 -2.12847 0
M  V30 11678 H 1098.75 -1.01375 -1.0227 0
M  V30 11679 H 1100.71 -0.741999 -4.14816 0
M  V30 11680 H 1099.43 0.130598 -3.26339 0
M  V30 11681 H 1098.09 -1.99371 -3.07647 0
M  V30 11682 H 1097.74 -0.447091 -5.01009 0
M  V30 11683 H 1097.44 -2.14129 -5.47195 0
M  V30 11684 H 1098.96 -1.34444 -5.95615 0
M  V30 11685 H 1100.37 -3.25129 -4.72191 0
M  V30 11686 H 1098.77 -4.00189 -4.47178 0
M  V30 11687 H 1099.84 -3.74349 -3.08206 0
M  V30 11688 N 1101.18 1.11143 -1.11736 0
M  V30 11689 C 1102.46 1.79384 -0.779785 0
M  V30 11690 C 1102.84 1.98015 0.731668 0
M  V30 11691 O 1102.19 1.56731 1.66276 0
M  V30 11692 C 1102.4 3.12868 -1.54643 0
M  V30 11693 C 1103.75 3.8786 -1.7277 0
M  V30 11694 O 1104.77 3.22566 -1.51094 0
M  V30 11695 O 1103.63 5.05034 -2.08813 0
M  V30 11696 H 1100.72 0.777128 -0.282845 0
M  V30 11697 H 1103.27 1.17858 -1.22096 0
M  V30 11698 H 1102.04 2.94682 -2.57446 0
M  V30 11699 H 1101.67 3.82109 -1.09901 0
M  V30 11700 N 1102.66 0.908147 1.28804 0
M  V30 11701 C 1103.89 0.55409 1.99343 0
M  V30 11702 C 1104.31 -0.863262 1.67908 0
M  V30 11703 O 1103.66 -1.571 0.92875 0
M  V30 11704 C 1103.71 0.746916 3.537 0
M  V30 11705 O 1103.43 2.10849 3.84024 0
M  V30 11706 C 1104.94 0.398939 4.41501 0
M  V30 11707 H 1102.16 0.211784 0.636701 0
M  V30 11708 H 1104.7 1.21981 1.64137 0
M  V30 11709 H 1102.85 0.128264 3.87188 0
M  V30 11710 H 1103.27 2.14404 4.78676 0
M  V30 11711 H 1104.74 0.584656 5.48895 0
M  V30 11712 H 1105.22 -0.664517 4.34144 0
M  V30 11713 H 1105.83 0.994892 4.135 0
M  V30 11714 N 1104.14 -1.42577 0.671525 0
M  V30 11715 C 1105.39 -2.01882 0.192716 0
M  V30 11716 C 1105.72 -1.52959 -1.19654 0
M  V30 11717 O 1104.99 -0.730404 -1.80265 0
M  V30 11718 C 1105.28 -3.59404 0.223734 0
M  V30 11719 C 1105.13 -4.18514 1.64821 0
M  V30 11720 C 1106.45 -4.37996 -0.429858 0
M  V30 11721 H 1103.57 -0.733523 0.0715026 0
M  V30 11722 H 1106.21 -1.69641 0.855689 0
M  V30 11723 H 1104.36 -3.87003 -0.340776 0
M  V30 11724 H 1106.03 -4.01881 2.26472 0
M  V30 11725 H 1104.28 -3.74467 2.1899 0
M  V30 11726 H 1104.95 -5.27643 1.62162 0
M  V30 11727 H 1107.42 -4.16069 0.0506433 0
M  V30 11728 H 1106.3 -5.476 -0.377503 0
M  V30 11729 H 1106.56 -4.15625 -1.50693 0
M  V30 11730 N 1105.62 -0.414636 -1.52048 0
M  V30 11731 C 1106.85 0.158686 -2.06291 0
M  V30 11732 C 1107.26 1.38397 -1.2842 0
M  V30 11733 O 1106.62 1.79351 -0.337539 0
M  V30 11734 C 1106.67 0.503634 -3.57975 0
M  V30 11735 O 1106.39 -0.672996 -4.329 0
M  V30 11736 C 1107.89 1.13009 -4.28653 0
M  V30 11737 H 1105.11 0.0179622 -0.67076 0
M  V30 11738 H 1107.66 -0.587177 -1.95889 0
M  V30 11739 H 1105.81 1.19939 -3.68366 0
M  V30 11740 H 1106.22 -0.383735 -5.23094 0
M  V30 11741 H 1107.7 1.32162 -5.35945 0
M  V30 11742 H 1108.18 2.10476 -3.85482 0
M  V30 11743 H 1108.78 0.474379 -4.22646 0
M  V30 11744 N 1107.1 1.56929 -0.145233 0
M  V30 11745 C 1108.34 1.96358 0.50707 0
M  V30 11746 C 1108.68 1.03005 1.64632 0
M  V30 11747 O 1107.95 0.0721045 1.94366 0
M  V30 11748 C 1108.23 3.45502 1.01492 0
M  V30 11749 C 1108.09 4.49633 -0.122708 0
M  V30 11750 C 1109.41 3.97103 1.89729 0
M  V30 11751 H 1106.52 0.713958 0.182848 0
M  V30 11752 H 1109.17 1.8865 -0.226102 0
M  V30 11753 H 1107.32 3.52202 1.6397 0
M  V30 11754 H 1108.99 4.55013 -0.758988 0
M  V30 11755 H 1107.23 4.26691 -0.782109 0
M  V30 11756 H 1107.9 5.51318 0.27432 0
M  V30 11757 H 1110.38 3.92871 1.37082 0
M  V30 11758 H 1109.25 5.01927 2.22173 0
M  V30 11759 H 1109.52 3.39354 2.83357 0
M  V30 11760 N 1108.58 -0.128553 1.57075 0
M  V30 11761 C 1109.8 -0.85245 1.88523 0
M  V30 11762 C 1110.22 -1.73886 0.735459 0
M  V30 11763 O 1109.58 -1.80114 -0.294113 0
M  V30 11764 C 1109.63 -1.69384 3.19361 0
M  V30 11765 O 1109.35 -0.84313 4.2991 0
M  V30 11766 C 1110.85 -2.52373 3.64449 0
M  V30 11767 H 1108.07 -0.245556 0.624454 0
M  V30 11768 H 1110.61 -0.115807 2.04172 0
M  V30 11769 H 1108.77 -2.38335 3.0541 0
M  V30 11770 H 1109.18 -1.42255 5.0484 0
M  V30 11771 H 1110.66 -3.06955 4.58784 0
M  V30 11772 H 1111.13 -3.29283 2.90636 0
M  V30 11773 H 1111.74 -1.88681 3.81155 0
M  V30 11774 N 1110.05 -1.5248 -0.398459 0
M  V30 11775 C 1110.99 -1.72826 -1.50545 0
M  V30 11776 C 1112 -0.608683 -1.50993 0
M  V30 11777 O 1113.19 -0.88413 -1.55066 0
M  V30 11778 C 1110.29 -1.76327 -2.89417 0
M  V30 11779 C 1109.46 -3.05491 -3.1304 0
M  V30 11780 C 1108.52 -3.00663 -4.31843 0
M  V30 11781 O 1107.55 -3.74548 -4.28605 0
M  V30 11782 N 1108.75 -2.19191 -5.37527 0
M  V30 11783 H 1111.51 -2.68333 -1.33482 0
M  V30 11784 H 1109.07 -1.5085 -0.587875 0
M  V30 11785 H 1111.07 -1.70616 -3.66977 0
M  V30 11786 H 1109.64 -0.882476 -2.99885 0
M  V30 11787 H 1108.86 -3.24767 -2.23428 0
M  V30 11788 H 1110.14 -3.90915 -3.25673 0
M  V30 11789 H 1109.54 -1.58613 -5.43009 0
M  V30 11790 H 1108.1 -2.19328 -6.1379 0
M  V30 11791 N 1111.53 0.65634 -1.43283 0
M  V30 11792 C 1112.81 1.41339 -1.35213 0
M  V30 11793 C 1113.19 2.111 0.00158494 0
M  V30 11794 O 1112.54 2.0457 1.018 0
M  V30 11795 C 1112.75 2.40066 -2.53317 0
M  V30 11796 C 1114.09 3.04159 -2.96264 0
M  V30 11797 O 1115.12 2.50393 -2.53341 0
M  V30 11798 O 1113.98 4.01633 -3.70612 0
M  V30 11799 H 1111.07 0.631325 -0.534189 0
M  V30 11800 H 1113.62 0.68351 -1.55326 0
M  V30 11801 H 1112.39 1.87444 -3.43483 0
M  V30 11802 H 1112.01 3.20509 -2.35287 0
M  V30 11803 N 1113.01 1.29761 0.894412 0
M  V30 11804 C 1114.26 1.17806 1.64214 0
M  V30 11805 C 1114.58 -0.269588 1.93127 0
M  V30 11806 O 1113.85 -1.18352 1.56107 0
M  V30 11807 H 1112.43 0.433002 0.608702 0
M  V30 11808 H 1115.09 1.6276 1.07216 0
M  V30 11809 H 1114.19 1.73201 2.5963 0
M  V30 11810 N 1114.49 -1.10549 1.12324 0
M  V30 11811 C 1115.42 -2.18911 0.812416 0
M  V30 11812 C 1116.4 -1.68628 -0.22327 0
M  V30 11813 O 1117.58 -1.94015 -0.0847184 0
M  V30 11814 C 1114.71 -3.46288 0.264947 0
M  V30 11815 C 1113.67 -4.09838 1.23356 0
M  V30 11816 C 1112.99 -5.31901 0.546374 0
M  V30 11817 C 1114.29 -4.53686 2.58778 0
M  V30 11818 H 1115.99 -2.45169 1.71851 0
M  V30 11819 H 1113.53 -1.17834 0.827715 0
M  V30 11820 H 1115.49 -4.21385 0.0352364 0
M  V30 11821 H 1114.21 -3.19517 -0.676479 0
M  V30 11822 H 1112.87 -3.36746 1.44906 0
M  V30 11823 H 1112.52 -5.01406 -0.400157 0
M  V30 11824 H 1112.22 -5.75372 1.19249 0
M  V30 11825 H 1113.74 -6.09731 0.325673 0
M  V30 11826 H 1115.16 -5.20063 2.41263 0
M  V30 11827 H 1113.55 -5.08003 3.19457 0
M  V30 11828 H 1114.62 -3.66665 3.17309 0
M  V30 11829 N 1115.97 -0.914965 -1.28321 0
M  V30 11830 C 1117.19 -0.564023 -1.99583 0
M  V30 11831 C 1117.62 0.847821 -1.6791 0
M  V30 11832 O 1116.97 1.56682 -0.912171 0
M  V30 11833 C 1117.02 -0.781368 -3.52033 0
M  V30 11834 O 1116.13 0.159072 -4.12093 0
M  V30 11835 H 1115.47 -0.218565 -0.626997 0
M  V30 11836 H 1118 -1.23074 -1.63444 0
M  V30 11837 H 1118.01 -0.691946 -4.0209 0
M  V30 11838 H 1116.68 -1.81059 -3.7442 0
M  V30 11839 H 1115.26 0.0208145 -3.72894 0
M  V30 11840 N 1117.44 1.42219 -0.679077 0
M  V30 11841 C 1118.38 2.28152 0.0468359 0
M  V30 11842 C 1119.35 1.41307 0.804433 0
M  V30 11843 O 1120.54 1.70744 0.798673 0
M  V30 11844 C 1117.67 3.21236 1.07355 0
M  V30 11845 C 1116.71 4.24515 0.411042 0
M  V30 11846 S 1117.54 5.28958 -0.834506 0
M  V30 11847 C 1118.7 6.25608 0.191029 0
M  V30 11848 H 1118.93 2.89371 -0.682045 0
M  V30 11849 H 1116.47 1.47112 -0.468767 0
M  V30 11850 H 1118.42 3.75402 1.66082 0
M  V30 11851 H 1117.09 2.59145 1.7749 0
M  V30 11852 H 1116.28 4.89849 1.1859 0
M  V30 11853 H 1115.88 3.73859 -0.102742 0
M  V30 11854 H 1118.17 6.69323 1.04944 0
M  V30 11855 H 1119.12 7.06806 -0.427959 0
M  V30 11856 H 1119.52 5.61926 0.538422 0
M  V30 11857 N 1118.92 0.422693 1.51826 0
M  V30 11858 C 1119.85 -0.440987 2.23899 0
M  V30 11859 C 1120.83 -1.03685 1.25252 0
M  V30 11860 O 1122.02 -1.08212 1.54345 0
M  V30 11861 C 1119.14 -1.61331 2.97809 0
M  V30 11862 C 1118.19 -1.13954 4.10995 0
M  V30 11863 S 1119.02 -0.0935426 5.35418 0
M  V30 11864 C 1120.18 -1.27087 6.12862 0
M  V30 11865 H 1120.41 0.170945 2.96808 0
M  V30 11866 H 1117.94 0.20709 1.53005 0
M  V30 11867 H 1119.9 -2.28546 3.40994 0
M  V30 11868 H 1118.56 -2.19662 2.24516 0
M  V30 11869 H 1117.76 -2.01578 4.61933 0
M  V30 11870 H 1117.36 -0.545838 3.69995 0
M  V30 11871 H 1119.65 -2.19199 6.4106 0
M  V30 11872 H 1120.59 -0.801752 7.03546 0
M  V30 11873 H 1121 -1.50281 5.44129 0
M  V30 11874 N 1120.4 -1.5685 0.153553 0
M  V30 11875 C 1121.65 -1.95509 -0.495911 0
M  V30 11876 C 1121.96 -1.04129 -1.65579 0
M  V30 11877 O 1123.17 -1.32394 -2.37032 0
M  V30 11878 C 1121.62 -3.47579 -0.933622 0
M  V30 11879 C 1121.23 -4.47555 0.199684 0
M  V30 11880 C 1122.98 -3.95092 -1.55251 0
M  V30 11881 C 1120.88 -5.90843 -0.256663 0
M  V30 11882 H 1119.81 -0.729919 -0.189035 0
M  V30 11883 H 1122.46 -1.81938 0.238947 0
M  V30 11884 H 1120.85 -3.56506 -1.72394 0
M  V30 11885 H 1122.02 -4.50329 0.976744 0
M  V30 11886 H 1120.33 -4.09997 0.727394 0
M  V30 11887 H 1122.93 -4.99588 -1.90567 0
M  V30 11888 H 1123.27 -3.37015 -2.4439 0
M  V30 11889 H 1123.81 -3.89109 -0.826969 0
M  V30 11890 H 1120.55 -6.52753 0.599515 0
M  V30 11891 H 1120.07 -5.91414 -0.999458 0
M  V30 11892 H 1121.75 -6.43131 -0.70649 0
M  V30 11893 N 1121.88 0.120221 -1.57141 0
M  V30 11894 C 1122.83 1.16654 -2.01233 0
M  V30 11895 C 1123.82 1.42943 -0.909053 0
M  V30 11896 O 1125.03 1.4292 -1.09426 0
M  V30 11897 H 1121.4 0.393289 -0.640958 0
M  V30 11898 H 1123.37 0.768156 -2.88343 0
M  V30 11899 C 1122.12 2.4854 -2.43152 0
M  V30 11900 H 1121.44 2.29149 -3.27614 0
M  V30 11901 H 1122.88 3.20315 -2.77802 0
M  V30 11902 C 1121.34 3.1103 -1.29468 0
M  V30 11903 O 1121.87 3.97042 -0.609982 0
M  V30 11904 N 1120.08 2.70888 -1.05205 0
M  V30 11905 H 1119.63 2.01039 -1.61062 0
M  V30 11906 H 1119.58 3.13028 -0.293347 0
M  V30 11907 N 1123.36 1.52689 0.390367 0
M  V30 11908 C 1124.77 1.41909 0.730338 0
M  V30 11909 C 1124.97 0.538427 1.94173 0
M  V30 11910 O 1124.03 0.0113527 2.52497 0
M  V30 11911 C 1125.34 2.84737 0.966714 0
M  V30 11912 C 1126.89 2.94206 1.06827 0
M  V30 11913 C 1127.36 4.38042 1.33728 0
M  V30 11914 N 1128.86 4.4136 1.40553 0
M  V30 11915 C 1129.59 5.49735 1.63031 0
M  V30 11916 N 1129.09 6.68197 1.82988 0
M  V30 11917 N 1130.88 5.37276 1.65199 0
M  V30 11918 H 1123.03 2.08469 -0.406766 0
M  V30 11919 H 1125.29 0.940401 -0.11979 0
M  V30 11920 H 1125 3.51385 0.148725 0
M  V30 11921 H 1124.87 3.26909 1.88176 0
M  V30 11922 H 1127.26 2.27726 1.87683 0
M  V30 11923 H 1127.34 2.55463 0.131168 0
M  V30 11924 H 1126.99 5.05087 0.533832 0
M  V30 11925 H 1126.92 4.74336 2.28721 0
M  V30 11926 H 1129.41 3.55976 1.26844 0
M  V30 11927 H 1129.72 7.46567 1.99643 0
M  V30 11928 H 1128.06 6.71228 1.80215 0
M  V30 11929 H 1131.26 4.437 1.49158 0
M  V30 11930 H 1131.43 6.21806 1.82377 0
M  V30 11931 N 1124.83 -0.648732 1.43629 0
M  V30 11932 C 1125.78 -1.76145 1.49136 0
M  V30 11933 C 1126.75 -1.62569 0.340649 0
M  V30 11934 O 1127.94 -1.82748 0.548435 0
M  V30 11935 C 1125.08 -3.14321 1.42466 0
M  V30 11936 C 1124.19 -3.38999 2.67776 0
M  V30 11937 C 1123.32 -4.67047 2.53062 0
M  V30 11938 C 1122.36 -4.84845 3.7362 0
M  V30 11939 N 1121.5 -6.04155 3.57689 0
M  V30 11940 H 1126.34 -1.70774 2.44213 0
M  V30 11941 H 1123.88 -0.833311 1.2122 0
M  V30 11942 H 1125.84 -3.94206 1.36592 0
M  V30 11943 H 1124.47 -3.18751 0.509666 0
M  V30 11944 H 1123.52 -2.53179 2.83909 0
M  V30 11945 H 1124.83 -3.48035 3.57314 0
M  V30 11946 H 1123.98 -5.55066 2.44922 0
M  V30 11947 H 1122.72 -4.60339 1.61056 0
M  V30 11948 H 1121.73 -3.95261 3.82163 0
M  V30 11949 H 1122.95 -4.9338 4.6664 0
M  V30 11950 H 1120.9 -5.9857 2.6842 0
M  V30 11951 H 1120.82 -6.14169 4.40832 0
M  V30 11952 H 1122.08 -6.94782 3.53409 0
M  V30 11953 N 1126.31 -1.30234 -0.887518 0
M  V30 11954 C 1127.26 -1.16302 -2.01436 0
M  V30 11955 C 1128.25 -0.0755422 -1.69231 0
M  V30 11956 O 1129.46 -0.236213 -1.78443 0
M  V30 11957 H 1125.84 -0.35961 -0.660443 0
M  V30 11958 H 1127.81 -2.11677 -2.10322 0
M  V30 11959 C 1126.56 -0.869009 -3.36665 0
M  V30 11960 H 1125.88 -1.69787 -3.61956 0
M  V30 11961 H 1127.32 -0.811621 -4.16159 0
M  V30 11962 C 1125.78 0.428021 -3.3417 0
M  V30 11963 O 1126.31 1.45033 -3.74604 0
M  V30 11964 N 1124.51 0.438264 -2.87276 0
M  V30 11965 H 1124.06 -0.394142 -2.54567 0
M  V30 11966 H 1124.02 1.30604 -2.85989 0
M  V30 11967 N 1127.79 1.09952 -1.12909 0
M  V30 11968 C 1128.72 2.15689 -0.745217 0
M  V30 11969 C 1129.7 1.60409 0.266007 0
M  V30 11970 O 1130.89 1.8783 0.158783 0
M  V30 11971 C 1128.01 3.38541 -0.103846 0
M  V30 11972 C 1127.06 4.12529 -1.0827 0
M  V30 11973 S 1127.89 4.67442 -2.61262 0
M  V30 11974 C 1129.05 5.936 -1.9847 0
M  V30 11975 H 1129.28 2.47918 -1.64086 0
M  V30 11976 H 1126.81 1.21817 -0.948682 0
M  V30 11977 H 1128.77 4.09677 0.259816 0
M  V30 11978 H 1127.43 3.04541 0.768982 0
M  V30 11979 H 1126.63 5.00632 -0.581653 0
M  V30 11980 H 1126.23 3.47228 -1.38955 0
M  V30 11981 H 1128.52 6.64308 -1.33048 0
M  V30 11982 H 1129.46 6.48374 -2.84634 0
M  V30 11983 H 1129.87 5.45864 -1.43848 0
M  V30 11984 N 1129.27 0.921757 1.27833 0
M  V30 11985 C 1130.51 0.559906 1.94918 0
M  V30 11986 C 1130.85 -0.895532 1.72319 0
M  V30 11987 O 1130.12 -1.638 1.04879 0
M  V30 11988 C 1130.41 0.879458 3.49196 0
M  V30 11989 C 1130.26 2.38821 3.81162 0
M  V30 11990 C 1131.58 0.381183 4.38446 0
M  V30 11991 H 1128.7 0.204893 0.707946 0
M  V30 11992 H 1131.34 1.15246 1.51058 0
M  V30 11993 H 1129.49 0.375177 3.86684 0
M  V30 11994 H 1131.16 2.96373 3.53498 0
M  V30 11995 H 1129.4 2.83988 3.27923 0
M  V30 11996 H 1130.07 2.56234 4.88926 0
M  V30 11997 H 1132.55 0.813289 4.08075 0
M  V30 11998 H 1131.43 0.633778 5.45229 0
M  V30 11999 H 1131.69 -0.718651 4.3622 0
M  V30 12000 N 1130.75 -1.41857 0.686609 0
M  V30 12001 C 1131.99 -2.01666 0.214118 0
M  V30 12002 C 1132.33 -1.5422 -1.18025 0
M  V30 12003 O 1131.6 -0.749482 -1.7948 0
M  V30 12004 C 1131.88 -3.59147 0.261841 0
M  V30 12005 C 1131.74 -4.16742 1.69251 0
M  V30 12006 C 1133.06 -4.38427 -0.383378 0
M  V30 12007 H 1130.17 -0.732724 0.0792785 0
M  V30 12008 H 1132.82 -1.68724 0.873633 0
M  V30 12009 H 1130.97 -3.87342 -0.29971 0
M  V30 12010 H 1132.64 -3.99456 2.30722 0
M  V30 12011 H 1130.88 -3.72124 2.2295 0
M  V30 12012 H 1131.55 -5.25894 1.6775 0
M  V30 12013 H 1134.03 -4.15992 0.0947701 0
M  V30 12014 H 1132.9 -5.4797 -0.319401 0
M  V30 12015 H 1133.17 -4.172 -1.46276 0
M  V30 12016 N 1132.22 -0.430739 -1.51599 0
M  V30 12017 C 1133.45 0.139197 -2.06932 0
M  V30 12018 C 1133.87 1.3626 -1.29672 0
M  V30 12019 O 1133.23 1.78219 -0.332836 0
M  V30 12020 C 1133.28 0.446593 -3.57824 0
M  V30 12021 O 1132.38 1.53414 -3.82803 0
M  V30 12022 H 1131.73 0.00475812 -0.663983 0
M  V30 12023 H 1134.26 -0.610171 -1.9529 0
M  V30 12024 H 1134.27 0.698972 -4.01968 0
M  V30 12025 H 1132.94 -0.447613 -4.13484 0
M  V30 12026 H 1131.52 1.27224 -3.50526 0
M  V30 12027 N 1133.7 1.56767 -0.161869 0
M  V30 12028 C 1134.95 1.96594 0.485496 0
M  V30 12029 C 1135.28 1.04743 1.63887 0
M  V30 12030 O 1134.53 0.079602 1.95538 0
M  V30 12031 C 1134.83 3.42567 1.01894 0
M  V30 12032 C 1134.5 4.50897 -0.0175419 0
M  V30 12033 C 1133.16 4.80249 -0.302429 0
M  V30 12034 C 1135.51 5.16181 -0.721572 0
M  V30 12035 C 1132.84 5.72187 -1.2969 0
M  V30 12036 C 1135.19 6.09191 -1.70496 0
M  V30 12037 C 1133.86 6.36915 -1.99739 0
M  V30 12038 H 1133.13 0.719388 0.177656 0
M  V30 12039 H 1135.77 1.89837 -0.251839 0
M  V30 12040 H 1134.08 3.4623 1.83391 0
M  V30 12041 H 1135.77 3.70719 1.52867 0
M  V30 12042 H 1132.36 4.28062 0.21468 0
M  V30 12043 H 1136.55 4.93624 -0.514681 0
M  V30 12044 H 1131.8 5.91953 -1.52974 0
M  V30 12045 H 1135.98 6.58849 -2.25591 0
M  V30 12046 H 1133.61 7.07958 -2.76948 0
M  V30 12047 N 1135.18 -0.111886 1.57202 0
M  V30 12048 C 1136.43 -0.816794 1.84859 0
M  V30 12049 C 1136.75 -1.80079 0.748113 0
M  V30 12050 O 1136.02 -1.94578 -0.227235 0
M  V30 12051 H 1134.6 -0.304633 0.682061 0
M  V30 12052 H 1137.26 -0.097513 1.94656 0
M  V30 12053 H 1136.36 -1.35768 2.81022 0
M  V30 12054 N 1136.66 -1.52894 -0.382264 0
M  V30 12055 C 1137.94 -1.58853 -1.14127 0
M  V30 12056 C 1138.32 -0.38582 -2.07544 0
M  V30 12057 O 1137.66 0.625323 -2.19777 0
M  V30 12058 C 1137.87 -2.93068 -1.89504 0
M  V30 12059 C 1139.22 -3.47048 -2.44629 0
M  V30 12060 O 1140.25 -2.94987 -1.99652 0
M  V30 12061 O 1139.1 -4.3802 -3.26804 0
M  V30 12062 H 1136.2 -0.640969 -0.522578 0
M  V30 12063 H 1138.74 -1.65231 -0.386873 0
M  V30 12064 H 1137.52 -3.72047 -1.2123 0
M  V30 12065 H 1137.14 -2.90106 -2.7189 0
M  V30 12066 N 1138.14 0.641106 -1.43971 0
M  V30 12067 C 1139.39 1.39807 -1.4594 0
M  V30 12068 C 1139.71 1.94795 -0.0893874 0
M  V30 12069 O 1138.98 1.75175 0.876962 0
M  V30 12070 H 1137.56 0.518908 -0.537349 0
M  V30 12071 H 1140.22 0.755278 -1.79671 0
M  V30 12072 H 1139.31 2.23439 -2.17903 0
M  V30 12073 N 1139.62 1.30703 0.880598 0
M  V30 12074 C 1140.86 1.19955 1.63519 0
M  V30 12075 C 1141.19 -0.244214 1.92658 0
M  V30 12076 O 1140.47 -1.17412 1.55063 0
M  V30 12077 C 1140.75 2.03302 2.97221 0
M  V30 12078 C 1140.61 3.55921 2.75028 0
M  V30 12079 C 1141.92 1.87421 3.98198 0
M  V30 12080 H 1139.04 0.43712 0.593376 0
M  V30 12081 H 1141.69 1.60382 1.01871 0
M  V30 12082 H 1139.84 1.68953 3.49839 0
M  V30 12083 H 1141.51 4.00352 2.29164 0
M  V30 12084 H 1139.75 3.79885 2.09452 0
M  V30 12085 H 1140.42 4.09533 3.70117 0
M  V30 12086 H 1142.9 2.17459 3.54755 0
M  V30 12087 H 1141.77 2.48057 4.89652 0
M  V30 12088 H 1142.03 0.834563 4.34151 0
M  V30 12089 N 1141.09 -1.09351 1.1349 0
M  V30 12090 C 1142.32 -1.85304 0.920324 0
M  V30 12091 C 1142.74 -1.81182 -0.530883 0
M  V30 12092 O 1142.09 -1.20853 -1.36751 0
M  V30 12093 C 1142.14 -3.33249 1.40098 0
M  V30 12094 O 1141.87 -3.37333 2.79531 0
M  V30 12095 C 1143.37 -4.2604 1.22495 0
M  V30 12096 H 1140.59 -0.585294 0.328134 0
M  V30 12097 H 1143.13 -1.38168 1.50765 0
M  V30 12098 H 1141.29 -3.7781 0.85664 0
M  V30 12099 H 1141.7 -4.29614 3.00885 0
M  V30 12100 H 1143.17 -5.27999 1.61 0
M  V30 12101 H 1143.65 -4.38883 0.166717 0
M  V30 12102 H 1144.26 -3.87295 1.75735 0
M  V30 12103 N 1142.57 -0.928524 -1.27343 0
M  V30 12104 C 1143.82 -0.569392 -1.9433 0
M  V30 12105 C 1144.15 0.889481 -1.7297 0
M  V30 12106 O 1143.4 1.6499 -1.05247 0
M  V30 12107 C 1143.7 -0.84269 -3.47323 0
M  V30 12108 C 1143.37 -2.28344 -3.88806 0
M  V30 12109 C 1142.03 -2.67731 -3.99842 0
M  V30 12110 C 1144.38 -3.22031 -4.09811 0
M  V30 12111 C 1141.71 -3.99928 -4.29272 0
M  V30 12112 C 1144.06 -4.5381 -4.40725 0
M  V30 12113 C 1142.72 -4.93031 -4.49975 0
M  V30 12114 H 1141.99 -0.208355 -0.711104 0
M  V30 12115 H 1144.64 -1.17264 -1.51398 0
M  V30 12116 H 1142.95 -0.156775 -3.91486 0
M  V30 12117 H 1144.64 -0.543779 -3.97296 0
M  V30 12118 H 1141.23 -1.96787 -3.80753 0
M  V30 12119 H 1145.42 -2.92803 -4.00724 0
M  V30 12120 H 1140.67 -4.29996 -4.34642 0
M  V30 12121 H 1144.85 -5.26407 -4.55926 0
M  V30 12122 H 1142.47 -5.95497 -4.72533 0
M  V30 12123 N 1144.05 1.41491 -0.694123 0
M  V30 12124 C 1145.3 2.0155 -0.224809 0
M  V30 12125 C 1145.63 1.54844 1.17205 0
M  V30 12126 O 1144.9 0.75899 1.7908 0
M  V30 12127 C 1145.19 3.59003 -0.280884 0
M  V30 12128 C 1145.04 4.15839 -1.71458 0
M  V30 12129 C 1146.36 4.38624 0.360122 0
M  V30 12130 H 1143.48 0.732293 -0.0831632 0
M  V30 12131 H 1146.12 1.68258 -0.882569 0
M  V30 12132 H 1144.27 3.87496 0.279164 0
M  V30 12133 H 1145.94 3.98227 -2.32837 0
M  V30 12134 H 1144.18 3.70936 -2.2492 0
M  V30 12135 H 1144.86 5.24997 -1.70536 0
M  V30 12136 H 1147.33 4.15936 -0.11683 0
M  V30 12137 H 1146.21 5.48132 0.290337 0
M  V30 12138 H 1146.47 4.1797 1.44062 0
M  V30 12139 N 1145.53 0.438773 1.51369 0
M  V30 12140 C 1146.77 -0.127401 2.02399 0
M  V30 12141 C 1147.11 -1.42235 1.32223 0
M  V30 12142 O 1146.38 -1.89513 0.437607 0
M  V30 12143 C 1146.66 -0.344673 3.58447 0
M  V30 12144 C 1146.52 0.969027 4.39238 0
M  V30 12145 C 1147.84 -1.11381 4.25773 0
M  V30 12146 H 1144.96 -0.0448281 0.735635 0
M  V30 12147 H 1147.6 0.57805 1.80993 0
M  V30 12148 H 1145.75 -0.945582 3.76817 0
M  V30 12149 H 1147.42 1.60403 4.32514 0
M  V30 12150 H 1145.66 1.57329 4.04265 0
M  V30 12151 H 1146.33 0.771029 5.46589 0
M  V30 12152 H 1148.81 -0.604785 4.11681 0
M  V30 12153 H 1147.69 -1.23459 5.34835 0
M  V30 12154 H 1147.95 -2.14225 3.8673 0
M  V30 12155 N 1147.01 -1.56678 0.170181 0
M  V30 12156 C 1148.25 -1.9714 -0.475767 0
M  V30 12157 C 1148.58 -1.05611 -1.62972 0
M  V30 12158 O 1147.86 -0.103017 -1.94227 0
M  V30 12159 C 1148.14 -3.47072 -0.959828 0
M  V30 12160 C 1148 -4.4938 0.194225 0
M  V30 12161 C 1149.31 -4.00071 -1.83387 0
M  V30 12162 H 1146.43 -0.716776 -0.171466 0
M  V30 12163 H 1149.08 -1.88266 0.256086 0
M  V30 12164 H 1147.23 -3.54766 -1.58346 0
M  V30 12165 H 1148.9 -4.53748 0.83128 0
M  V30 12166 H 1147.14 -4.25393 0.849893 0
M  V30 12167 H 1147.81 -5.51685 -0.186575 0
M  V30 12168 H 1150.29 -3.95002 -1.30815 0
M  V30 12169 H 1149.16 -5.05398 -2.14159 0
M  V30 12170 H 1149.42 -3.43819 -2.77923 0
M  V30 12171 N 1148.48 0.103547 -1.57259 0
M  V30 12172 C 1149.41 1.12714 -2.04494 0
M  V30 12173 C 1150.39 1.42278 -0.932255 0
M  V30 12174 O 1151.58 1.52453 -1.20298 0
M  V30 12175 C 1148.71 2.44927 -2.46228 0
M  V30 12176 C 1147.66 2.2979 -3.61082 0
M  V30 12177 C 1146.99 3.67105 -3.88765 0
M  V30 12178 C 1148.29 1.7455 -4.9227 0
M  V30 12179 H 1149.98 0.734198 -2.90258 0
M  V30 12180 H 1147.53 0.351725 -1.39638 0
M  V30 12181 H 1149.48 3.16798 -2.77879 0
M  V30 12182 H 1148.21 2.8614 -1.57453 0
M  V30 12183 H 1146.87 1.60366 -3.29664 0
M  V30 12184 H 1146.51 4.05831 -2.97171 0
M  V30 12185 H 1146.21 3.57825 -4.66084 0
M  V30 12186 H 1147.74 4.40456 -4.22884 0
M  V30 12187 H 1149.15 2.36253 -5.22358 0
M  V30 12188 H 1147.55 1.76051 -5.73695 0
M  V30 12189 H 1148.62 0.704242 -4.79759 0
M  V30 12190 N 1149.96 1.53094 0.37415 0
M  V30 12191 C 1150.91 1.75307 1.45779 0
M  V30 12192 C 1151.9 0.607409 1.48994 0
M  V30 12193 O 1153.09 0.865777 1.5438 0
M  V30 12194 C 1150.22 1.93871 2.83318 0
M  V30 12195 C 1149.3 3.14413 2.84614 0
M  V30 12196 N 1149.69 4.36486 2.55565 0
M  V30 12197 C 1147.99 3.14961 3.15778 0
M  V30 12198 C 1148.69 5.18178 2.64322 0
M  V30 12199 N 1147.67 4.54196 2.98675 0
M  V30 12200 H 1151.47 2.67305 1.22169 0
M  V30 12201 H 1148.98 1.51603 0.582254 0
M  V30 12202 H 1150.98 2.0791 3.61357 0
M  V30 12203 H 1149.64 1.03096 3.07898 0
M  V30 12204 H 1150.65 4.64366 2.29314 0
M  V30 12205 H 1147.33 2.34048 3.45728 0
M  V30 12206 H 1148.72 6.25529 2.45282 0
M  V30 12207 N 1151.44 -0.633461 1.44309 0
M  V30 12208 C 1152.37 -1.75868 1.4698 0
M  V30 12209 C 1153.38 -1.58691 0.363469 0
M  V30 12210 O 1154.57 -1.67048 0.629075 0
M  V30 12211 C 1151.67 -3.1356 1.28582 0
M  V30 12212 C 1150.85 -3.57217 2.52418 0
M  V30 12213 C 1149.91 -4.73779 2.28954 0
M  V30 12214 O 1148.93 -4.8221 3.02428 0
M  V30 12215 N 1150.13 -5.65324 1.31866 0
M  V30 12216 H 1152.9 -1.74048 2.43983 0
M  V30 12217 H 1150.46 -0.817952 1.39718 0
M  V30 12218 H 1152.45 -3.89255 1.10736 0
M  V30 12219 H 1151.02 -3.10036 0.399529 0
M  V30 12220 H 1150.24 -2.71755 2.85557 0
M  V30 12221 H 1151.53 -3.83136 3.3479 0
M  V30 12222 H 1150.93 -5.61204 0.71179 0
M  V30 12223 H 1149.48 -6.40659 1.19998 0
M  V30 12224 N 1152.92 -1.31168 -0.873655 0
M  V30 12225 C 1154.16 -1.20821 -1.62881 0
M  V30 12226 C 1154.5 0.233994 -1.92785 0
M  V30 12227 O 1153.77 1.16588 -1.55684 0
M  V30 12228 C 1154.06 -2.04875 -2.96139 0
M  V30 12229 C 1153.91 -3.57375 -2.73136 0
M  V30 12230 C 1155.23 -1.8953 -3.97198 0
M  V30 12231 H 1152.35 -0.44026 -0.59105 0
M  V30 12232 H 1154.99 -1.6092 -1.01019 0
M  V30 12233 H 1153.14 -1.70806 -3.48938 0
M  V30 12234 H 1154.81 -4.01561 -2.27038 0
M  V30 12235 H 1153.05 -3.8099 -2.07434 0
M  V30 12236 H 1153.72 -4.1149 -3.6794 0
M  V30 12237 H 1156.2 -2.19337 -3.53596 0
M  V30 12238 H 1155.08 -2.5065 -4.8833 0
M  V30 12239 H 1155.34 -0.857576 -4.33703 0
M  V30 12240 N 1154.4 1.08748 -1.14068 0
M  V30 12241 C 1155.64 1.81504 -0.918035 0
M  V30 12242 C 1156 1.84381 0.549671 0
M  V30 12243 O 1155.29 1.30612 1.40183 0
M  V30 12244 C 1155.48 3.26734 -1.44843 0
M  V30 12245 C 1155.31 3.38006 -2.96617 0
M  V30 12246 C 1154.08 3.49401 -3.6503 0
M  V30 12247 C 1156.28 3.29952 -3.94507 0
M  V30 12248 N 1154.26 3.49428 -5.04751 0
M  V30 12249 C 1155.63 3.3693 -5.20459 0
M  V30 12250 C 1157.69 3.13666 -3.86676 0
M  V30 12251 C 1156.39 3.29299 -6.39496 0
M  V30 12252 C 1158.42 3.07363 -5.05254 0
M  V30 12253 C 1157.78 3.1494 -6.30073 0
M  V30 12254 H 1153.88 0.67814 -0.389423 0
M  V30 12255 H 1156.46 1.29916 -1.45017 0
M  V30 12256 H 1154.63 3.76776 -0.943112 0
M  V30 12257 H 1156.37 3.87537 -1.16606 0
M  V30 12258 H 1153.12 3.53145 -3.15572 0
M  V30 12259 H 1153.55 3.53007 -5.77681 0
M  V30 12260 H 1158.19 3.06673 -2.91053 0
M  V30 12261 H 1155.91 3.35054 -7.35367 0
M  V30 12262 H 1159.49 2.95887 -5.00941 0
M  V30 12263 H 1158.37 3.10088 -7.20288 0
M  V30 12264 N 1155.87 0.935264 1.26849 0
M  V30 12265 C 1156.82 0.438896 2.26588 0
M  V30 12266 C 1157.79 -0.498267 1.5845 0
M  V30 12267 O 1158.98 -0.415771 1.86215 0
M  V30 12268 C 1156.12 -0.295293 3.43834 0
M  V30 12269 C 1155.23 0.676857 4.26665 0
M  V30 12270 C 1154.36 -0.0779349 5.31143 0
M  V30 12271 C 1153.4 0.886425 6.05648 0
M  V30 12272 N 1152.54 0.163771 7.01909 0
M  V30 12273 H 1157.38 1.29439 2.6842 0
M  V30 12274 H 1154.92 0.649523 1.31983 0
M  V30 12275 H 1156.88 -0.737354 4.10632 0
M  V30 12276 H 1155.51 -1.11497 3.02933 0
M  V30 12277 H 1154.56 1.23744 3.5971 0
M  V30 12278 H 1155.87 1.41355 4.78351 0
M  V30 12279 H 1155.02 -0.579557 6.03926 0
M  V30 12280 H 1153.76 -0.84755 4.80279 0
M  V30 12281 H 1152.77 1.39923 5.31697 0
M  V30 12282 H 1153.99 1.65595 6.58601 0
M  V30 12283 H 1151.94 -0.58746 6.53364 0
M  V30 12284 H 1151.86 0.839902 7.5132 0
M  V30 12285 H 1153.12 -0.316951 7.78855 0
M  V30 12286 N 1157.35 -1.41121 0.701616 0
M  V30 12287 C 1158.3 -2.30765 0.040121 0
M  V30 12288 C 1159.27 -1.47436 -0.764975 0
M  V30 12289 O 1160.45 -1.76209 -0.731775 0
M  V30 12290 C 1157.59 -3.33535 -0.885903 0
M  V30 12291 C 1156.71 -4.3194 -0.0717765 0
M  V30 12292 C 1155.84 -5.21779 -0.995996 0
M  V30 12293 C 1154.88 -6.11849 -0.175133 0
M  V30 12294 N 1154.02 -6.94151 -1.05348 0
M  V30 12295 H 1158.86 -2.86772 0.810312 0
M  V30 12296 H 1156.4 -1.41233 0.411301 0
M  V30 12297 H 1158.35 -3.91675 -1.4369 0
M  V30 12298 H 1156.98 -2.79065 -1.62243 0
M  V30 12299 H 1156.04 -3.75698 0.596221 0
M  V30 12300 H 1157.35 -4.95597 0.56435 0
M  V30 12301 H 1156.5 -5.84782 -1.61601 0
M  V30 12302 H 1155.24 -4.58363 -1.66597 0
M  V30 12303 H 1154.25 -5.4789 0.457916 0
M  V30 12304 H 1155.47 -6.77322 0.491133 0
M  V30 12305 H 1153.42 -6.33338 -1.70936 0
M  V30 12306 H 1153.33 -7.54518 -0.473065 0
M  V30 12307 H 1154.6 -7.61617 -1.66012 0
M  V30 12308 N 1158.83 -0.446794 -1.51134 0
M  V30 12309 C 1159.78 0.378002 -2.24845 0
M  V30 12310 C 1160.76 0.982126 -1.27448 0
M  V30 12311 O 1161.96 0.8987 -1.52487 0
M  V30 12312 C 1159.09 1.4733 -3.10079 0
M  V30 12313 C 1158.17 0.878102 -4.1491 0
M  V30 12314 N 1158.56 0.0129452 -5.05798 0
M  V30 12315 C 1156.86 1.14468 -4.3106 0
M  V30 12316 C 1157.56 -0.322333 -5.80806 0
M  V30 12317 N 1156.54 0.296438 -5.42791 0
M  V30 12318 H 1160.34 -0.28885 -2.92477 0
M  V30 12319 H 1157.85 -0.259439 -1.60314 0
M  V30 12320 H 1159.85 2.07713 -3.6147 0
M  V30 12321 H 1158.51 2.14239 -2.43992 0
M  V30 12322 H 1159.52 -0.354177 -5.16688 0
M  V30 12323 H 1156.2 1.81056 -3.76198 0
M  V30 12324 H 1157.59 -1.02693 -6.64006 0
M  V30 12325 N 1160.31 1.56586 -0.178487 0
M  V30 12326 C 1161.72 1.83633 0.337009 0
M  V30 12327 C 1162.07 1.09857 1.6256 0
M  V30 12328 O 1161.2 0.353933 2.13486 0
M  V30 12329 C 1161.79 3.33112 0.618225 0
M  V30 12330 C 1160.35 3.60629 1.07814 0
M  V30 12331 C 1159.5 2.7705 0.117825 0
M  V30 12332 H 1162.45 1.53508 -0.402612 0
M  V30 12333 H 1162.47 3.5098 1.46947 0
M  V30 12334 H 1161.98 3.8678 -0.319808 0
M  V30 12335 H 1160.08 3.12378 2.03103 0
M  V30 12336 H 1160.19 4.68921 0.982339 0
M  V30 12337 H 1158.56 2.47125 0.616563 0
M  V30 12338 H 1159.34 3.33501 -0.814356 0
M  V30 12339 N 1161.79 -0.095206 1.57312 0
M  V30 12340 C 1163.03 -0.799903 1.86358 0
M  V30 12341 C 1163.37 -1.78386 0.767593 0
M  V30 12342 O 1162.64 -1.93201 -0.224439 0
M  V30 12343 C 1162.92 -1.52875 3.26039 0
M  V30 12344 C 1162.78 -0.562781 4.46265 0
M  V30 12345 C 1164.1 -2.47935 3.63616 0
M  V30 12346 H 1161.21 -0.289339 0.677829 0
M  V30 12347 H 1163.86 -0.0635369 1.89894 0
M  V30 12348 H 1162.01 -2.15645 3.23156 0
M  V30 12349 H 1163.68 0.0579068 4.61264 0
M  V30 12350 H 1161.92 0.123847 4.33623 0
M  V30 12351 H 1162.59 -1.10989 5.40727 0
M  V30 12352 H 1165.07 -1.95257 3.67442 0
M  V30 12353 H 1163.94 -2.95948 4.62283 0
M  V30 12354 H 1164.21 -3.31687 2.92294 0
M  V30 12355 N 1163.26 -1.53291 -0.366026 0
M  V30 12356 C 1164.21 -1.76077 -1.44847 0
M  V30 12357 C 1165.2 -0.615302 -1.4867 0
M  V30 12358 O 1166.39 -0.873952 -1.53919 0
M  V30 12359 C 1163.52 -1.95371 -2.82286 0
M  V30 12360 C 1162.61 -3.15918 -2.82943 0
M  V30 12361 N 1163 -4.37835 -2.53247 0
M  V30 12362 C 1161.29 -3.16631 -3.14103 0
M  V30 12363 C 1162 -5.19573 -2.6157 0
M  V30 12364 N 1160.97 -4.55773 -2.96263 0
M  V30 12365 H 1164.77 -2.67949 -1.2075 0
M  V30 12366 H 1162.29 -1.5191 -0.574206 0
M  V30 12367 H 1164.28 -2.09823 -3.6025 0
M  V30 12368 H 1162.94 -1.04727 -3.07347 0
M  V30 12369 H 1163.96 -4.65575 -2.26848 0
M  V30 12370 H 1160.63 -2.35878 -3.44482 0
M  V30 12371 H 1162.02 -6.26821 -2.41961 0
M  V30 12372 N 1164.74 0.6258 -1.44643 0
M  V30 12373 C 1166.16 0.944569 -1.28647 0
M  V30 12374 C 1166.36 2.00227 -0.226134 0
M  V30 12375 O 1165.41 2.4953 0.386161 0
M  V30 12376 C 1166.73 1.40278 -2.65975 0
M  V30 12377 C 1168.28 1.51797 -2.73727 0
M  V30 12378 C 1168.75 2.01 -4.11537 0
M  V30 12379 N 1170.24 2.08262 -4.13741 0
M  V30 12380 C 1170.98 2.47515 -5.17227 0
M  V30 12381 N 1170.47 2.85867 -6.31072 0
M  V30 12382 N 1172.27 2.47695 -5.04583 0
M  V30 12383 H 1164.42 -0.0736157 -2.12272 0
M  V30 12384 H 1166.68 0.0296998 -0.947535 0
M  V30 12385 H 1166.39 0.699871 -3.44666 0
M  V30 12386 H 1166.26 2.37279 -2.93221 0
M  V30 12387 H 1168.65 2.21183 -1.95351 0
M  V30 12388 H 1168.73 0.531574 -2.50216 0
M  V30 12389 H 1168.37 1.32207 -4.90391 0
M  V30 12390 H 1168.3 3.0052 -4.32429 0
M  V30 12391 H 1170.79 1.81286 -3.31578 0
M  V30 12392 H 1171.11 3.14647 -7.05845 0
M  V30 12393 H 1169.45 2.83605 -6.34502 0
M  V30 12394 H 1172.64 2.17127 -4.14697 0
M  V30 12395 H 1172.81 2.77962 -5.85356 0
M  V30 12396 N 1166.22 1.31629 0.866686 0
M  V30 12397 C 1167.5 1.12136 1.60265 0
M  V30 12398 C 1167.88 -0.322729 2.08618 0
M  V30 12399 O 1167.23 -1.31738 1.86701 0
M  V30 12400 C 1167.44 2.13845 2.7581 0
M  V30 12401 C 1168.78 2.46541 3.45692 0
M  V30 12402 O 1169.81 2.12298 2.86021 0
M  V30 12403 O 1168.67 3.05194 4.53342 0
M  V30 12404 H 1165.76 0.431923 0.705246 0
M  V30 12405 H 1168.31 1.43119 0.911863 0
M  V30 12406 H 1167.08 3.10967 2.37518 0
M  V30 12407 H 1166.7 1.83786 3.52574 0
M  V30 12408 N 1167.7 -1.08142 1.14644 0
M  V30 12409 C 1168.95 -1.80582 0.916327 0
M  V30 12410 C 1169.27 -1.86355 -0.556969 0
M  V30 12411 O 1168.53 -1.33736 -1.42875 0
M  V30 12412 C 1168.83 -3.25962 1.46573 0
M  V30 12413 C 1168.49 -3.40302 2.95814 0
M  V30 12414 C 1167.16 -3.43922 3.36557 0
M  V30 12415 C 1169.51 -3.43758 3.91765 0
M  V30 12416 C 1166.84 -3.48594 4.7191 0
M  V30 12417 C 1169.19 -3.49965 5.26979 0
M  V30 12418 C 1167.85 -3.5186 5.67231 0
M  V30 12419 H 1167.12 -0.660795 0.335308 0
M  V30 12420 H 1169.77 -1.27309 1.43055 0
M  V30 12421 H 1168.07 -3.81961 0.872507 0
M  V30 12422 H 1169.77 -3.80571 1.2636 0
M  V30 12423 H 1166.36 -3.38176 2.63315 0
M  V30 12424 H 1170.55 -3.40189 3.61366 0
M  V30 12425 H 1165.8 -3.48355 5.02453 0
M  V30 12426 H 1169.98 -3.51585 6.01133 0
M  V30 12427 H 1167.6 -3.55233 6.72097 0
M  V30 12428 N 1169.18 -0.941978 -1.26351 0
M  V30 12429 C 1170.11 -0.469913 -2.28723 0
M  V30 12430 C 1171.09 0.477218 -1.63269 0
M  V30 12431 O 1172.27 0.378902 -1.90468 0
M  V30 12432 C 1169.4 0.264971 -3.46288 0
M  V30 12433 C 1168.36 -0.595682 -4.23834 0
M  V30 12434 C 1167.68 0.269208 -5.34022 0
M  V30 12435 C 1168.98 -1.86743 -4.87775 0
M  V30 12436 H 1170.68 -1.32551 -2.6846 0
M  V30 12437 H 1168.22 -0.638809 -1.29055 0
M  V30 12438 H 1170.18 0.606259 -4.17016 0
M  V30 12439 H 1168.9 1.15471 -3.05506 0
M  V30 12440 H 1167.56 -0.919875 -3.54872 0
M  V30 12441 H 1167.21 1.15832 -4.89481 0
M  V30 12442 H 1166.91 -0.30325 -5.86817 0
M  V30 12443 H 1168.43 0.605748 -6.07588 0
M  V30 12444 H 1169.85 -1.59333 -5.50714 0
M  V30 12445 H 1168.24 -2.38452 -5.50691 0
M  V30 12446 H 1169.31 -2.57831 -4.10671 0
M  V30 12447 N 1170.66 1.40747 -0.709091 0
M  V30 12448 C 1171.9 2.00606 -0.245324 0
M  V30 12449 C 1172.22 1.56489 1.16346 0
M  V30 12450 O 1171.49 0.801456 1.78755 0
M  V30 12451 H 1170.07 0.741833 -0.0877098 0
M  V30 12452 H 1172.74 1.72178 -0.913271 0
M  V30 12453 H 1171.83 3.10901 -0.273322 0
M  V30 12454 N 1172.13 0.454803 1.50895 0
M  V30 12455 C 1173.38 -0.10577 2.02224 0
M  V30 12456 C 1173.71 -1.41176 1.33789 0
M  V30 12457 O 1172.96 -1.90522 0.447181 0
M  V30 12458 C 1173.26 -0.354159 3.55641 0
M  V30 12459 C 1172.93 0.868136 4.42464 0
M  V30 12460 C 1171.59 1.2033 4.65912 0
M  V30 12461 C 1173.94 1.68272 4.93289 0
M  V30 12462 C 1171.27 2.3534 5.37431 0
M  V30 12463 C 1173.62 2.82396 5.6607 0
M  V30 12464 C 1172.29 3.16346 5.87777 0
M  V30 12465 H 1171.56 -0.0387041 0.739989 0
M  V30 12466 H 1174.2 0.605564 1.81673 0
M  V30 12467 H 1172.51 -1.14757 3.74617 0
M  V30 12468 H 1174.21 -0.8016 3.92906 0
M  V30 12469 H 1170.8 0.596995 4.24422 0
M  V30 12470 H 1174.98 1.43698 4.75042 0
M  V30 12471 H 1170.24 2.61936 5.52449 0
M  V30 12472 H 1174.41 3.45873 6.04438 0
M  V30 12473 H 1172.04 4.05574 6.42973 0
M  V30 12474 N 1173.61 -1.56489 0.186789 0
M  V30 12475 C 1174.84 -2.01429 -0.459326 0
M  V30 12476 C 1175.25 -1.06611 -1.56303 0
M  V30 12477 O 1174.59 -0.0617053 -1.83596 0
M  V30 12478 C 1174.65 -3.42778 -1.08367 0
M  V30 12479 C 1174.32 -4.56843 -0.119719 0
M  V30 12480 C 1175.32 -5.15594 0.667782 0
M  V30 12481 C 1173 -5.02299 -0.0110494 0
M  V30 12482 C 1174.99 -6.18242 1.551 0
M  V30 12483 C 1172.68 -6.04793 0.875738 0
M  V30 12484 C 1173.68 -6.62637 1.65534 0
M  V30 12485 O 1173.37 -7.63141 2.52728 0
M  V30 12486 H 1173.1 -0.665175 -0.120492 0
M  V30 12487 H 1175.65 -2.03338 0.290283 0
M  V30 12488 H 1173.88 -3.3783 -1.8817 0
M  V30 12489 H 1175.57 -3.71577 -1.63357 0
M  V30 12490 H 1176.34 -4.81348 0.594085 0
M  V30 12491 H 1172.22 -4.56977 -0.607667 0
M  V30 12492 H 1175.76 -6.63319 2.15995 0
M  V30 12493 H 1171.66 -6.38462 0.950581 0
M  V30 12494 H 1172.43 -7.80527 2.46415 0
M  V30 12495 N 1175.09 0.086862 -1.5736 0
M  V30 12496 C 1176.34 0.790008 -1.8678 0
M  V30 12497 C 1176.67 1.77977 -0.777042 0
M  V30 12498 O 1175.94 1.93317 0.21419 0
M  V30 12499 C 1176.23 1.51143 -3.26845 0
M  V30 12500 C 1176.08 0.539106 -4.46558 0
M  V30 12501 C 1177.4 2.46003 -3.64926 0
M  V30 12502 H 1174.52 0.285741 -0.679354 0
M  V30 12503 H 1177.16 0.0534655 -1.89925 0
M  V30 12504 H 1175.31 2.13928 -3.24295 0
M  V30 12505 H 1176.98 -0.0823679 -4.61226 0
M  V30 12506 H 1175.22 -0.146842 -4.33551 0
M  V30 12507 H 1175.9 1.0812 -5.41308 0
M  V30 12508 H 1178.37 1.93306 -3.68473 0
M  V30 12509 H 1177.25 2.93493 -4.63846 0
M  V30 12510 H 1177.51 3.30133 -2.94049 0
M  V30 12511 N 1176.57 1.53483 0.357892 0
M  V30 12512 C 1177.81 1.70289 1.10134 0
M  V30 12513 C 1178.15 0.457296 1.88739 0
M  V30 12514 O 1177.42 -0.545527 1.86693 0
M  V30 12515 C 1177.7 2.95755 2.05429 0
M  V30 12516 C 1177.56 4.30489 1.30382 0
M  V30 12517 C 1178.88 3.16844 3.05447 0
M  V30 12518 H 1176 0.61965 0.399003 0
M  V30 12519 H 1178.64 1.86133 0.381357 0
M  V30 12520 H 1176.79 2.82377 2.66825 0
M  V30 12521 H 1178.46 4.55692 0.71711 0
M  V30 12522 H 1176.7 4.2955 0.605712 0
M  V30 12523 H 1177.37 5.14427 2.00171 0
M  V30 12524 H 1179.85 3.29458 2.54159 0
M  V30 12525 H 1178.73 4.06053 3.69341 0
M  V30 12526 H 1178.99 2.32476 3.76041 0
M  V30 12527 N 1178.05 -0.61812 1.44973 0
M  V30 12528 C 1179.32 -1.37705 1.38913 0
M  V30 12529 C 1179.7 -2.1103 0.054385 0
M  V30 12530 O 1179.05 -2.07197 -0.963409 0
M  V30 12531 C 1179.26 -2.33265 2.59593 0
M  V30 12532 C 1180.61 -2.96197 3.04224 0
M  V30 12533 O 1181.63 -2.43589 2.59891 0
M  V30 12534 O 1180.49 -3.91666 3.8113 0
M  V30 12535 H 1177.59 -0.61694 0.55074 0
M  V30 12536 H 1180.13 -0.642088 1.57084 0
M  V30 12537 H 1178.9 -1.78271 3.48332 0
M  V30 12538 H 1178.53 -3.14158 2.43702 0
M  V30 12539 N 1179.52 -1.32087 -0.859693 0
M  V30 12540 C 1180.75 -1.25486 -1.6513 0
M  V30 12541 C 1181.17 0.175015 -1.87284 0
M  V30 12542 O 1180.53 1.12468 -1.42199 0
M  V30 12543 C 1180.58 -2.01469 -2.9907 0
M  V30 12544 O 1179.68 -1.35904 -3.89363 0
M  V30 12545 H 1179.02 -0.432728 -0.503629 0
M  V30 12546 H 1181.55 -1.74322 -1.07112 0
M  V30 12547 H 1181.56 -2.11452 -3.4893 0
M  V30 12548 H 1180.24 -3.05448 -2.82266 0
M  V30 12549 H 1178.82 -1.34437 -3.47823 0
M  V30 12550 N 1181 1.07532 -1.15215 0
M  V30 12551 C 1181.95 2.12909 -0.815714 0
M  V30 12552 C 1182.94 1.59662 0.1992 0
M  V30 12553 O 1184.13 1.77 0.000215597 0
M  V30 12554 C 1181.26 3.41945 -0.304717 0
M  V30 12555 C 1180.34 4.0205 -1.34968 0
M  V30 12556 N 1180.73 4.36439 -2.55646 0
M  V30 12557 C 1179.03 4.29498 -1.20199 0
M  V30 12558 C 1179.73 4.84044 -3.22609 0
M  V30 12559 N 1178.71 4.82702 -2.5 0
M  V30 12560 H 1182.51 2.37327 -1.73358 0
M  V30 12561 H 1180.02 1.24952 -1.03734 0
M  V30 12562 H 1182.02 4.16875 -0.0453503 0
M  V30 12563 H 1180.68 3.18971 0.607235 0
M  V30 12564 H 1181.69 4.27184 -2.92804 0
M  V30 12565 H 1178.37 4.16032 -0.349781 0
M  V30 12566 H 1179.76 5.19959 -4.2555 0
M  V30 12567 N 1182.48 0.948665 1.2585 0
M  V30 12568 C 1183.9 0.652147 1.45668 0
M  V30 12569 C 1184.1 -0.792217 1.85273 0
M  V30 12570 O 1183.15 -1.56812 1.97905 0
M  V30 12571 C 1184.47 1.61998 2.53332 0
M  V30 12572 C 1186.01 1.6305 2.67178 0
M  V30 12573 C 1186.49 2.58582 3.78021 0
M  V30 12574 N 1187.98 2.56911 3.85423 0
M  V30 12575 C 1188.71 3.27511 4.70664 0
M  V30 12576 N 1188.21 4.07563 5.60236 0
M  V30 12577 N 1190 3.16427 4.64576 0
M  V30 12578 H 1182.15 1.88215 0.984325 0
M  V30 12579 H 1184.42 0.809251 0.493778 0
M  V30 12580 H 1184.12 2.65137 2.31075 0
M  V30 12581 H 1184 1.37784 3.51134 0
M  V30 12582 H 1186.38 0.606315 2.88804 0
M  V30 12583 H 1186.47 1.9132 1.69795 0
M  V30 12584 H 1186.11 3.61122 3.57146 0
M  V30 12585 H 1186.04 2.27598 4.74875 0
M  V30 12586 H 1188.53 1.9879 3.21389 0
M  V30 12587 H 1188.84 4.58367 6.22189 0
M  V30 12588 H 1187.19 4.11662 5.59964 0
M  V30 12589 H 1190.38 2.53364 3.93604 0
M  V30 12590 H 1190.55 3.71714 5.30785 0
M  V30 12591 N 1183.96 -1.40369 0.716545 0
M  V30 12592 C 1184.89 -2.28196 0.013671 0
M  V30 12593 C 1185.87 -1.4339 -0.766685 0
M  V30 12594 O 1187.05 -1.72801 -0.753123 0
M  V30 12595 C 1184.18 -3.23969 -0.988006 0
M  V30 12596 C 1183.23 -4.25455 -0.298345 0
M  V30 12597 S 1184.06 -5.26559 0.974456 0
M  V30 12598 C 1185.22 -6.25895 -0.0250932 0
M  V30 12599 H 1185.45 -2.87461 0.758526 0
M  V30 12600 H 1182.98 -1.45817 0.507606 0
M  V30 12601 H 1184.94 -3.79674 -1.56071 0
M  V30 12602 H 1183.6 -2.63759 -1.70557 0
M  V30 12603 H 1182.79 -4.92821 -1.05561 0
M  V30 12604 H 1182.4 -3.73455 0.201828 0
M  V30 12605 H 1184.69 -6.7187 -0.871615 0
M  V30 12606 H 1185.63 -7.05422 0.615206 0
M  V30 12607 H 1186.04 -5.63156 -0.389248 0
M  V30 12608 N 1185.44 -0.462799 -1.50652 0
M  V30 12609 C 1186.66 0.0952726 -2.07181 0
M  V30 12610 C 1187.09 1.33479 -1.32533 0
M  V30 12611 O 1186.44 1.77473 -0.370564 0
M  V30 12612 C 1186.49 0.370592 -3.58691 0
M  V30 12613 O 1185.6 1.4526 -3.85971 0
M  V30 12614 H 1184.94 -0.00932702 -0.663934 0
M  V30 12615 H 1187.47 -0.651458 -1.93951 0
M  V30 12616 H 1187.48 0.613551 -4.0336 0
M  V30 12617 H 1186.15 -0.535219 -4.12442 0
M  V30 12618 H 1184.73 1.1976 -3.53146 0
M  V30 12619 N 1186.91 1.56388 -0.195085 0
M  V30 12620 C 1187.88 2.17859 0.712053 0
M  V30 12621 C 1188.88 1.13304 1.141 0
M  V30 12622 O 1190.07 1.38689 1.05409 0
M  V30 12623 C 1187.2 2.78065 1.97213 0
M  V30 12624 H 1188.39 2.9938 0.176529 0
M  V30 12625 H 1185.95 1.56205 0.0545322 0
M  V30 12626 H 1186.68 2.00342 2.55017 0
M  V30 12627 H 1186.47 3.54603 1.67329 0
M  V30 12628 H 1187.96 3.25266 2.619 0
M  V30 12629 N 1188.39 -0.0785156 1.57404 0
M  V30 12630 C 1189.32 -1.12058 1.99939 0
M  V30 12631 C 1190.34 -1.35372 0.904343 0
M  V30 12632 O 1191.53 -1.33731 1.1823 0
M  V30 12633 C 1188.63 -2.47285 2.31739 0
M  V30 12634 C 1187.8 -2.44021 3.63005 0
M  V30 12635 C 1186.86 -3.61303 3.82552 0
M  V30 12636 O 1185.88 -3.43039 4.54217 0
M  V30 12637 N 1187.09 -4.81404 3.24392 0
M  V30 12638 H 1189.85 -0.758416 2.89945 0
M  V30 12639 H 1187.41 -0.267266 1.59679 0
M  V30 12640 H 1189.4 -3.24377 2.41995 0
M  V30 12641 H 1187.97 -2.75529 1.47657 0
M  V30 12642 H 1187.19 -1.52361 3.63565 0
M  V30 12643 H 1188.48 -2.38934 4.49208 0
M  V30 12644 H 1187.88 -4.99147 2.66211 0
M  V30 12645 H 1186.44 -5.56031 3.40107 0
M  V30 12646 N 1189.87 -1.5367 -0.349747 0
M  V30 12647 C 1191.1 -1.74547 -1.11089 0
M  V30 12648 C 1191.51 -0.481741 -1.82551 0
M  V30 12649 O 1190.87 0.546272 -1.74132 0
M  V30 12650 C 1190.92 -2.92148 -2.12913 0
M  V30 12651 O 1190.64 -4.13633 -1.44358 0
M  V30 12652 C 1192.14 -3.25027 -3.01451 0
M  V30 12653 H 1189.36 -0.583376 -0.331532 0
M  V30 12654 H 1191.91 -2.00473 -0.403841 0
M  V30 12655 H 1190.06 -2.68572 -2.79192 0
M  V30 12656 H 1190.48 -4.79601 -2.12329 0
M  V30 12657 H 1191.95 -4.10679 -3.68845 0
M  V30 12658 H 1192.43 -2.41064 -3.67131 0
M  V30 12659 H 1193.03 -3.50586 -2.40768 0
M  V30 12660 N 1191.35 0.610423 -1.45298 0
M  V30 12661 C 1192.3 1.71552 -1.5018 0
M  V30 12662 C 1193.28 1.56697 -0.365357 0
M  V30 12663 O 1194.47 1.66082 -0.612029 0
M  V30 12664 C 1191.6 3.10298 -1.46867 0
M  V30 12665 C 1190.69 3.30549 -2.65703 0
M  V30 12666 N 1191.08 3.21073 -3.90827 0
M  V30 12667 C 1189.38 3.6141 -2.6134 0
M  V30 12668 C 1190.08 3.42577 -4.70123 0
M  V30 12669 N 1189.06 3.66434 -4.01531 0
M  V30 12670 H 1192.86 1.62714 -2.44747 0
M  V30 12671 H 1190.37 0.813587 -1.40551 0
M  V30 12672 H 1192.37 3.89575 -1.48449 0
M  V30 12673 H 1191.03 3.20286 -0.533548 0
M  V30 12674 H 1192.04 2.99537 -4.2249 0
M  V30 12675 H 1188.72 3.78253 -1.76722 0
M  V30 12676 H 1190.11 3.40669 -5.79132 0
M  V30 12677 N 1192.83 1.32541 0.852676 0
M  V30 12678 C 1194.07 1.22971 1.60383 0
M  V30 12679 C 1194.4 -0.208009 1.93887 0
M  V30 12680 O 1193.67 -1.13326 1.59794 0
M  V30 12681 H 1192.25 0.452149 0.594618 0
M  V30 12682 H 1194.91 1.66089 1.01983 0
M  V30 12683 H 1194 1.81373 2.53989 0
M  V30 12684 N 1194.3 -1.0692 1.15784 0
M  V30 12685 C 1195.23 -2.16216 0.881649 0
M  V30 12686 C 1196.22 -1.69253 -0.16951 0
M  V30 12687 O 1197.4 -1.94186 -0.0229511 0
M  V30 12688 C 1194.53 -3.4527 0.374982 0
M  V30 12689 C 1193.48 -4.05706 1.36332 0
M  V30 12690 C 1192.81 -5.29894 0.715317 0
M  V30 12691 C 1194.11 -4.45224 2.7308 0
M  V30 12692 H 1195.8 -2.39577 1.79563 0
M  V30 12693 H 1193.35 -1.15141 0.864784 0
M  V30 12694 H 1195.3 -4.2106 0.169279 0
M  V30 12695 H 1194.03 -3.21508 -0.574485 0
M  V30 12696 H 1192.69 -3.31965 1.55546 0
M  V30 12697 H 1192.33 -5.02425 -0.240436 0
M  V30 12698 H 1192.03 -5.71287 1.37494 0
M  V30 12699 H 1193.56 -6.08386 0.519489 0
M  V30 12700 H 1194.97 -5.12124 2.57686 0
M  V30 12701 H 1193.37 -4.97583 3.35457 0
M  V30 12702 H 1194.44 -3.56384 3.28813 0
M  V30 12703 N 1195.78 -0.955326 -1.25345 0
M  V30 12704 C 1196.71 -0.494145 -2.28211 0
M  V30 12705 C 1197.69 0.459875 -1.63766 0
M  V30 12706 O 1198.88 0.358679 -1.90859 0
M  V30 12707 C 1196.01 0.228228 -3.46549 0
M  V30 12708 C 1194.96 -0.640601 -4.23179 0
M  V30 12709 C 1194.29 0.212553 -5.34277 0
M  V30 12710 C 1195.59 -1.91906 -4.85767 0
M  V30 12711 H 1197.28 -1.35391 -2.67039 0
M  V30 12712 H 1194.83 -0.652462 -1.2837 0
M  V30 12713 H 1196.78 0.561995 -4.17636 0
M  V30 12714 H 1195.51 1.12224 -3.06714 0
M  V30 12715 H 1194.16 -0.957462 -3.53876 0
M  V30 12716 H 1193.81 1.10634 -4.90682 0
M  V30 12717 H 1193.51 -0.365473 -5.86462 0
M  V30 12718 H 1195.04 0.541271 -6.08196 0
M  V30 12719 H 1196.45 -1.65165 -5.48993 0
M  V30 12720 H 1194.85 -2.44279 -5.48131 0
M  V30 12721 H 1195.92 -2.62173 -4.07914 0
M  V30 12722 N 1197.26 1.39987 -0.723979 0
M  V30 12723 C 1198.51 2.00334 -0.266587 0
M  V30 12724 C 1198.83 1.57714 1.14679 0
M  V30 12725 O 1198.1 0.82037 1.77895 0
M  V30 12726 H 1196.68 0.740861 -0.095573 0
M  V30 12727 H 1199.34 1.712 -0.931481 0
M  V30 12728 H 1198.44 3.10594 -0.306282 0
M  V30 12729 N 1198.74 0.470782 1.50404 0
M  V30 12730 C 1199.67 -0.359838 2.26358 0
M  V30 12731 C 1200.68 -0.95735 1.31676 0
M  V30 12732 O 1201.87 -0.84581 1.57189 0
M  V30 12733 C 1198.97 -1.51864 3.02969 0
M  V30 12734 C 1198.15 -1.03397 4.25003 0
M  V30 12735 C 1197.21 -2.06679 4.83911 0
M  V30 12736 O 1196.23 -1.64754 5.44835 0
M  V30 12737 N 1197.43 -3.39484 4.70883 0
M  V30 12738 H 1200.2 0.291299 2.98281 0
M  V30 12739 H 1197.76 0.301549 1.59067 0
M  V30 12740 H 1199.75 -2.2065 3.39258 0
M  V30 12741 H 1198.32 -2.07448 2.33846 0
M  V30 12742 H 1197.54 -0.172012 3.93825 0
M  V30 12743 H 1198.83 -0.68807 5.04126 0
M  V30 12744 H 1198.23 -3.76256 4.22431 0
M  V30 12745 H 1196.78 -4.04068 5.11441 0
M  V30 12746 N 1200.22 -1.56282 0.203376 0
M  V30 12747 C 1201.46 -1.97812 -0.433202 0
M  V30 12748 C 1201.79 -1.09052 -1.61053 0
M  V30 12749 O 1201.05 -0.131417 -1.95258 0
M  V30 12750 C 1201.35 -3.45148 -0.927759 0
M  V30 12751 C 1201.01 -4.50692 0.137083 0
M  V30 12752 C 1199.67 -4.79278 0.429652 0
M  V30 12753 C 1202.03 -5.14086 0.858174 0
M  V30 12754 C 1199.35 -5.68547 1.44815 0
M  V30 12755 C 1201.71 -6.04457 1.86588 0
M  V30 12756 C 1200.37 -6.31395 2.16556 0
M  V30 12757 H 1199.64 -0.723846 -0.15852 0
M  V30 12758 H 1202.29 -1.89102 0.302082 0
M  V30 12759 H 1200.59 -3.5097 -1.74147 0
M  V30 12760 H 1202.29 -3.74642 -1.42984 0
M  V30 12761 H 1198.88 -4.28481 -0.101111 0
M  V30 12762 H 1203.06 -4.92086 0.645376 0
M  V30 12763 H 1198.32 -5.87689 1.68615 0
M  V30 12764 H 1202.49 -6.52636 2.4298 0
M  V30 12765 H 1200.12 -7.00366 2.9562 0
M  V30 12766 N 1201.7 0.070167 -1.57444 0
M  V30 12767 C 1202.94 0.769014 -1.8733 0
M  V30 12768 C 1203.27 1.77496 -0.79533 0
M  V30 12769 O 1202.53 1.94586 0.208495 0
M  V30 12770 C 1202.82 1.5111 -3.23883 0
M  V30 12771 C 1202.49 0.644988 -4.46263 0
M  V30 12772 C 1201.15 0.406307 -4.79482 0
M  V30 12773 C 1203.5 0.0444938 -5.21181 0
M  V30 12774 C 1200.83 -0.442322 -5.8503 0
M  V30 12775 C 1203.18 -0.791599 -6.27628 0
M  V30 12776 C 1201.85 -1.04014 -6.59346 0
M  V30 12777 H 1201.12 0.281402 -0.685488 0
M  V30 12778 H 1203.77 0.029752 -1.91477 0
M  V30 12779 H 1202.07 2.32261 -3.15535 0
M  V30 12780 H 1203.77 2.05665 -3.44242 0
M  V30 12781 H 1200.36 0.841148 -4.20265 0
M  V30 12782 H 1204.54 0.216005 -4.9583 0
M  V30 12783 H 1199.8 -0.643607 -6.08003 0
M  V30 12784 H 1203.97 -1.26363 -6.8484 0
M  V30 12785 H 1201.6 -1.69949 -7.4096 0
M  V30 12786 N 1203.17 1.53854 0.341593 0
M  V30 12787 C 1204.11 1.78295 1.44027 0
M  V30 12788 C 1205.12 0.664303 1.4863 0
M  V30 12789 O 1206.31 0.941073 1.51678 0
M  V30 12790 C 1203.41 1.86947 2.82673 0
M  V30 12791 C 1202.58 3.16898 3.01487 0
M  V30 12792 C 1201.64 3.16483 4.20386 0
M  V30 12793 O 1200.67 3.90197 4.14409 0
M  V30 12794 N 1201.87 2.3899 5.29022 0
M  V30 12795 H 1204.63 2.73102 1.23431 0
M  V30 12796 H 1202.19 1.52928 0.531483 0
M  V30 12797 H 1204.19 1.84118 3.60392 0
M  V30 12798 H 1202.76 0.993169 2.96403 0
M  V30 12799 H 1201.98 3.32835 2.11221 0
M  V30 12800 H 1203.26 4.02733 3.1094 0
M  V30 12801 H 1202.66 1.78657 5.36748 0
M  V30 12802 H 1201.22 2.41957 6.05227 0
M  V30 12803 N 1204.65 -0.602709 1.4562 0
M  V30 12804 C 1206.06 -1.1847 1.44297 0
M  V30 12805 C 1206.41 -1.95434 0.17316 0
M  V30 12806 O 1205.54 -2.03894 -0.724986 0
M  V30 12807 C 1206.13 -2.15508 2.61422 0
M  V30 12808 C 1204.69 -2.69073 2.63204 0
M  V30 12809 C 1203.84 -1.44568 2.36633 0
M  V30 12810 H 1206.79 -0.391745 1.53789 0
M  V30 12811 H 1206.81 -2.98628 2.35799 0
M  V30 12812 H 1206.32 -1.59464 3.53826 0
M  V30 12813 H 1204.42 -3.29042 1.7482 0
M  V30 12814 H 1204.54 -3.13173 3.62573 0
M  V30 12815 H 1202.9 -1.73692 1.86287 0
M  V30 12816 H 1203.68 -0.903852 3.31188 0
M  V30 12817 N 1206.13 -1.32992 -0.845635 0
M  V30 12818 C 1207.38 -1.24065 -1.60044 0
M  V30 12819 C 1207.7 0.195282 -1.93517 0
M  V30 12820 O 1206.96 1.1507 -1.58296 0
M  V30 12821 C 1207.26 -2.05454 -2.92444 0
M  V30 12822 C 1206.92 -3.54718 -2.78362 0
M  V30 12823 C 1205.59 -3.95413 -2.74229 0
M  V30 12824 C 1207.94 -4.49598 -2.63649 0
M  V30 12825 C 1205.27 -5.29216 -2.53274 0
M  V30 12826 C 1207.62 -5.83554 -2.44228 0
M  V30 12827 C 1206.28 -6.2344 -2.38493 0
M  V30 12828 H 1205.55 -0.453985 -0.585644 0
M  V30 12829 H 1208.2 -1.6451 -0.980244 0
M  V30 12830 H 1206.5 -1.57765 -3.58633 0
M  V30 12831 H 1208.2 -1.95909 -3.49887 0
M  V30 12832 H 1204.79 -3.22403 -2.82409 0
M  V30 12833 H 1208.98 -4.19072 -2.65881 0
M  V30 12834 H 1204.23 -5.59164 -2.47275 0
M  V30 12835 H 1208.41 -6.56681 -2.31825 0
M  V30 12836 H 1206.03 -7.27058 -2.22015 0
M  V30 12837 N 1207.61 1.06304 -1.1635 0
M  V30 12838 C 1208.88 1.75916 -0.855166 0
M  V30 12839 C 1209.26 2.0094 0.647024 0
M  V30 12840 O 1208.61 1.63642 1.59479 0
M  V30 12841 C 1208.82 3.06028 -1.67774 0
M  V30 12842 C 1210.17 3.80184 -1.89065 0
M  V30 12843 O 1211.19 3.15868 -1.64639 0
M  V30 12844 O 1210.05 4.95723 -2.30045 0
M  V30 12845 H 1207.15 0.764432 -0.315551 0
M  V30 12846 H 1209.69 1.12574 -1.26985 0
M  V30 12847 H 1208.47 2.83498 -2.69712 0
M  V30 12848 H 1208.09 3.77104 -1.26009 0
M  V30 12849 N 1209.09 0.96196 1.24836 0
M  V30 12850 C 1210.33 0.620715 1.92752 0
M  V30 12851 C 1210.66 -0.843308 1.75267 0
M  V30 12852 O 1209.92 -1.62141 1.09584 0
M  V30 12853 C 1210.21 0.934481 3.44967 0
M  V30 12854 C 1209.88 2.38572 3.82615 0
M  V30 12855 C 1208.54 2.78238 3.92603 0
M  V30 12856 C 1210.89 3.32784 4.01129 0
M  V30 12857 C 1208.22 4.11169 4.18518 0
M  V30 12858 C 1210.57 4.65336 4.28539 0
M  V30 12859 C 1209.24 5.04788 4.36745 0
M  V30 12860 H 1208.51 0.227136 0.70533 0
M  V30 12861 H 1211.16 1.21237 1.48236 0
M  V30 12862 H 1209.46 0.260516 3.90933 0
M  V30 12863 H 1211.16 0.648923 3.95715 0
M  V30 12864 H 1207.75 2.06812 3.75402 0
M  V30 12865 H 1211.93 3.03325 3.9282 0
M  V30 12866 H 1207.19 4.41368 4.23089 0
M  V30 12867 H 1211.36 5.3831 4.41809 0
M  V30 12868 H 1208.99 6.07816 4.56579 0
M  V30 12869 N 1210.56 -1.39601 0.731392 0
M  V30 12870 C 1211.51 -2.30628 0.0890606 0
M  V30 12871 C 1212.48 -1.49025 -0.73353 0
M  V30 12872 O 1213.67 -1.77722 -0.694234 0
M  V30 12873 C 1210.81 -3.35339 -0.814956 0
M  V30 12874 C 1209.92 -4.31995 0.0198606 0
M  V30 12875 C 1209.05 -5.23774 -0.885095 0
M  V30 12876 C 1208.09 -6.12083 -0.045311 0
M  V30 12877 N 1207.23 -6.9623 -0.906002 0
M  V30 12878 H 1212.07 -2.84988 0.870958 0
M  V30 12879 H 1209.61 -1.40329 0.441166 0
M  V30 12880 H 1211.56 -3.94634 -1.3535 0
M  V30 12881 H 1210.19 -2.82443 -1.56287 0
M  V30 12882 H 1209.25 -3.74349 0.675778 0
M  V30 12883 H 1210.56 -4.94289 0.669346 0
M  V30 12884 H 1209.71 -5.88078 -1.49161 0
M  V30 12885 H 1208.45 -4.61794 -1.56837 0
M  V30 12886 H 1207.46 -5.46795 0.574028 0
M  V30 12887 H 1208.68 -6.76128 0.634692 0
M  V30 12888 H 1206.63 -6.36821 -1.57463 0
M  V30 12889 H 1206.54 -7.55352 -0.312914 0
M  V30 12890 H 1207.81 -7.64967 -1.49819 0
M  V30 12891 N 1212.04 -0.478751 -1.50152 0
M  V30 12892 C 1213.29 0.073694 -2.02666 0
M  V30 12893 C 1213.62 1.38679 -1.35947 0
M  V30 12894 O 1212.9 1.88286 -0.4877 0
M  V30 12895 C 1213.18 0.249516 -3.59235 0
M  V30 12896 C 1213.03 -1.08514 -4.36514 0
M  V30 12897 C 1214.35 1.00053 -4.28576 0
M  V30 12898 H 1211.47 0.0253082 -0.736565 0
M  V30 12899 H 1214.11 -0.625834 -1.79397 0
M  V30 12900 H 1212.26 0.845343 -3.79192 0
M  V30 12901 H 1213.93 -1.71814 -4.28109 0
M  V30 12902 H 1212.18 -1.67992 -3.99952 0
M  V30 12903 H 1212.85 -0.915676 -5.44352 0
M  V30 12904 H 1215.32 0.495422 -4.1314 0
M  V30 12905 H 1214.2 1.09236 -5.37921 0
M  V30 12906 H 1214.46 2.03896 -3.92274 0
M  V30 12907 N 1213.52 1.56172 -0.211661 0
M  V30 12908 C 1214.75 2.02874 0.430905 0
M  V30 12909 C 1215.17 1.09064 1.53254 0
M  V30 12910 O 1214.53 0.0770408 1.81136 0
M  V30 12911 C 1214.58 3.4789 0.948933 0
M  V30 12912 O 1213.68 3.57213 2.0609 0
M  V30 12913 H 1213.02 0.656614 0.0987607 0
M  V30 12914 H 1215.55 2.01964 -0.327399 0
M  V30 12915 H 1215.56 3.88015 1.2613 0
M  V30 12916 H 1214.24 4.15656 0.142584 0
M  V30 12917 H 1212.81 3.28971 1.75592 0
M  V30 12918 N 1215 -0.0618163 1.57479 0
M  V30 12919 C 1216.28 -0.792636 1.7882 0
M  V30 12920 C 1216.66 -1.95283 0.801724 0
M  V30 12921 O 1216 -2.27917 -0.163095 0
M  V30 12922 C 1216.21 -1.25629 3.25605 0
M  V30 12923 C 1217.56 -1.68561 3.89708 0
M  V30 12924 O 1218.59 -1.35171 3.29556 0
M  V30 12925 O 1217.44 -2.30417 4.95551 0
M  V30 12926 H 1214.54 -0.380595 0.734218 0
M  V30 12927 H 1217.08 -0.0411205 1.6965 0
M  V30 12928 H 1215.86 -0.426582 3.88968 0
M  V30 12929 H 1215.48 -2.06882 3.39537 0
M  V30 12930 N 1216.48 -1.54033 -0.333429 0
M  V30 12931 C 1217.73 -1.70979 -1.07 0
M  V30 12932 C 1218.04 -0.485095 -1.89489 0
M  V30 12933 O 1219.24 -0.535712 -2.66162 0
M  V30 12934 C 1217.7 -3.02382 -1.95175 0
M  V30 12935 C 1217.31 -4.32223 -1.17844 0
M  V30 12936 C 1219.05 -3.28693 -2.68628 0
M  V30 12937 C 1216.96 -5.54693 -2.05109 0
M  V30 12938 H 1215.89 -0.637152 -0.403179 0
M  V30 12939 H 1218.54 -1.80529 -0.328839 0
M  V30 12940 H 1216.92 -2.86714 -2.73151 0
M  V30 12941 H 1218.1 -4.58626 -0.447089 0
M  V30 12942 H 1216.41 -4.12601 -0.561166 0
M  V30 12943 H 1219.01 -4.17385 -3.34207 0
M  V30 12944 H 1219.35 -2.46141 -3.35738 0
M  V30 12945 H 1219.88 -3.45183 -1.9772 0
M  V30 12946 H 1216.62 -6.39818 -1.42523 0
M  V30 12947 H 1216.14 -5.32524 -2.76005 0
M  V30 12948 H 1217.82 -5.90722 -2.63926 0
M  V30 12949 N 1217.95 0.594978 -1.45938 0
M  V30 12950 C 1219.37 0.917069 -1.30622 0
M  V30 12951 C 1219.57 1.99702 -0.268554 0
M  V30 12952 O 1218.63 2.50293 0.333146 0
M  V30 12953 C 1219.94 1.34604 -2.68891 0
M  V30 12954 C 1221.49 1.45957 -2.76886 0
M  V30 12955 C 1221.96 1.92225 -4.15708 0
M  V30 12956 N 1223.45 1.99439 -4.18065 0
M  V30 12957 C 1224.19 2.36488 -5.22361 0
M  V30 12958 N 1223.68 2.72416 -6.36994 0
M  V30 12959 N 1225.48 2.36936 -5.09723 0
M  V30 12960 H 1217.63 -0.118625 -2.12068 0
M  V30 12961 H 1219.89 0.00959453 -0.947951 0
M  V30 12962 H 1219.6 0.626605 -3.46073 0
M  V30 12963 H 1219.47 2.31006 -2.98188 0
M  V30 12964 H 1221.86 2.16989 -1.99999 0
M  V30 12965 H 1221.94 0.47838 -2.51287 0
M  V30 12966 H 1221.58 1.21775 -4.93085 0
M  V30 12967 H 1221.51 2.9128 -4.38707 0
M  V30 12968 H 1224 1.74212 -3.35349 0
M  V30 12969 H 1224.32 2.99604 -7.1236 0
M  V30 12970 H 1222.66 2.70083 -6.40375 0
M  V30 12971 H 1225.85 2.08282 -4.19209 0
M  V30 12972 H 1226.03 2.65483 -5.9112 0
M  V30 12973 N 1219.43 1.33438 0.838571 0
M  V30 12974 C 1220.84 1.22366 1.41009 0
M  V30 12975 C 1221.19 -0.157317 1.95568 0
M  V30 12976 O 1220.32 -1.05692 1.88834 0
M  V30 12977 C 1220.91 2.21542 2.56329 0
M  V30 12978 C 1219.47 2.14309 3.09433 0
M  V30 12979 C 1218.62 2.09012 1.82235 0
M  V30 12980 H 1221.57 1.45032 0.64431 0
M  V30 12981 H 1221.59 1.82332 3.33969 0
M  V30 12982 H 1221.1 3.22042 2.16589 0
M  V30 12983 H 1219.21 1.17113 3.53717 0
M  V30 12984 H 1219.32 3.04866 3.69586 0
M  V30 12985 H 1217.68 1.54492 2.02495 0
M  V30 12986 H 1218.47 3.11319 1.4469 0
M  V30 12987 N 1220.91 -1.05686 1.16912 0
M  V30 12988 C 1222.16 -1.78244 0.95254 0
M  V30 12989 C 1222.48 -1.87924 -0.520525 0
M  V30 12990 O 1221.75 -1.39239 -1.37802 0
M  V30 12991 H 1220.33 -0.660228 0.349439 0
M  V30 12992 H 1222.99 -1.27634 1.47294 0
M  V30 12993 H 1222.09 -2.80102 1.37657 0
M  V30 12994 N 1222.39 -0.968567 -1.24324 0
M  V30 12995 C 1223.61 -0.648166 -1.97012 0
M  V30 12996 C 1224.04 0.775842 -1.71354 0
M  V30 12997 O 1223.4 1.52672 -0.977804 0
M  V30 12998 C 1223.44 -0.929974 -3.48402 0
M  V30 12999 O 1222.55 -0.015854 -4.12397 0
M  V30 13000 H 1221.89 -0.244961 -0.617163 0
M  V30 13001 H 1224.42 -1.29895 -1.58077 0
M  V30 13002 H 1224.43 -0.861863 -3.98793 0
M  V30 13003 H 1223.1 -1.96776 -3.66404 0
M  V30 13004 H 1221.68 -0.137361 -3.72647 0
M  V30 13005 N 1223.87 1.39211 -0.738786 0
M  V30 13006 C 1225.14 1.9442 -0.214533 0
M  V30 13007 C 1225.52 1.67528 1.28443 0
M  V30 13008 O 1224.87 1.0056 2.05183 0
M  V30 13009 C 1225.08 3.44603 -0.552232 0
M  V30 13010 C 1226.43 4.21602 -0.503663 0
M  V30 13011 O 1227.45 3.52819 -0.489647 0
M  V30 13012 O 1226.31 5.44194 -0.50153 0
M  V30 13013 H 1223.41 0.826011 -0.0404247 0
M  V30 13014 H 1225.95 1.48689 -0.817902 0
M  V30 13015 H 1224.72 3.57626 -1.58806 0
M  V30 13016 H 1224.35 3.9752 0.0799096 0
M  V30 13017 N 1225.34 0.486708 1.49896 0
M  V30 13018 C 1226.76 0.0353906 1.86666 0
M  V30 13019 C 1227.11 -1.3743 1.40026 0
M  V30 13020 O 1226.23 -2.02163 0.77194 0
M  V30 13021 C 1226.83 0.0574475 3.38751 0
M  V30 13022 C 1225.39 -0.338464 3.74875 0
M  V30 13023 C 1224.53 0.436196 2.73848 0
M  V30 13024 H 1227.48 0.700215 1.42417 0
M  V30 13025 H 1227.5 -0.741175 3.73212 0
M  V30 13026 H 1227.02 1.08356 3.72667 0
M  V30 13027 H 1225.12 -1.36835 3.46565 0
M  V30 13028 H 1225.23 -0.0289519 4.79091 0
M  V30 13029 H 1223.59 -0.112141 2.54453 0
M  V30 13030 H 1224.38 1.46212 3.10608 0
M  V30 13031 N 1226.82 -1.56058 0.219941 0
M  V30 13032 C 1228.05 -2.02652 -0.417101 0
M  V30 13033 C 1228.47 -1.09977 -1.53461 0
M  V30 13034 O 1227.82 -0.109088 -1.82174 0
M  V30 13035 C 1227.87 -3.48787 -0.950244 0
M  V30 13036 O 1227.6 -4.37928 0.12271 0
M  V30 13037 C 1229.1 -4.11018 -1.66069 0
M  V30 13038 H 1226.32 -0.663163 -0.102254 0
M  V30 13039 H 1228.86 -2.01722 0.335923 0
M  V30 13040 H 1227.02 -3.50338 -1.65355 0
M  V30 13041 H 1227.43 -5.23764 -0.277785 0
M  V30 13042 H 1228.9 -5.15046 -1.98575 0
M  V30 13043 H 1229.38 -3.55921 -2.57326 0
M  V30 13044 H 1229.99 -4.13313 -1.00263 0
M  V30 13045 N 1228.3 0.053464 -1.57509 0
M  V30 13046 C 1229.25 1.06155 -2.04939 0
M  V30 13047 C 1230.22 1.37382 -0.93357 0
M  V30 13048 O 1231.4 1.48137 -1.2025 0
M  V30 13049 C 1228.54 2.36476 -2.51343 0
M  V30 13050 C 1227.66 2.1162 -3.76618 0
M  V30 13051 C 1226.79 3.35636 -4.11731 0
M  V30 13052 C 1225.83 3.06226 -5.29993 0
M  V30 13053 N 1224.97 4.22623 -5.60655 0
M  V30 13054 H 1229.81 0.650122 -2.90822 0
M  V30 13055 H 1227.34 0.309421 -1.43809 0
M  V30 13056 H 1229.3 3.12588 -2.76306 0
M  V30 13057 H 1227.93 2.75386 -1.68411 0
M  V30 13058 H 1226.98 1.26116 -3.58886 0
M  V30 13059 H 1228.3 1.85909 -4.6286 0
M  V30 13060 H 1227.45 4.20132 -4.37692 0
M  V30 13061 H 1226.19 3.64439 -3.24092 0
M  V30 13062 H 1225.19 2.20128 -5.03809 0
M  V30 13063 H 1226.42 2.78726 -6.19265 0
M  V30 13064 H 1224.37 4.51424 -4.75976 0
M  V30 13065 H 1224.28 4.0025 -6.41355 0
M  V30 13066 H 1225.55 5.08063 -5.91178 0
M  V30 13067 N 1229.78 1.54207 0.325255 0
M  V30 13068 C 1231.19 1.63587 0.899793 0
M  V30 13069 C 1231.54 0.528851 1.88938 0
M  V30 13070 O 1230.67 -0.33852 2.13736 0
M  V30 13071 C 1231.26 2.9653 1.63877 0
M  V30 13072 C 1229.82 3.08111 2.16205 0
M  V30 13073 C 1228.97 2.59144 0.986903 0
M  V30 13074 H 1231.92 1.58366 0.102883 0
M  V30 13075 H 1231.94 2.86595 2.50287 0
M  V30 13076 H 1231.45 3.7708 0.918279 0
M  V30 13077 H 1229.55 2.32232 2.91375 0
M  V30 13078 H 1229.67 4.13885 2.41322 0
M  V30 13079 H 1228.03 2.14997 1.36558 0
M  V30 13080 H 1228.81 3.4215 0.28076 0
M  V30 13081 N 1231.26 -0.58723 1.46251 0
M  V30 13082 C 1232.53 -1.34727 1.41802 0
M  V30 13083 C 1232.91 -2.10867 0.0991354 0
M  V30 13084 O 1232.26 -2.09194 -0.919242 0
M  V30 13085 C 1232.47 -2.27706 2.64482 0
M  V30 13086 C 1233.82 -2.89678 3.10438 0
M  V30 13087 O 1234.84 -2.38021 2.64999 0
M  V30 13088 O 1233.7 -3.83493 3.89352 0
M  V30 13089 H 1230.8 -0.605119 0.563702 0
M  V30 13090 H 1233.34 -0.608623 1.5841 0
M  V30 13091 H 1232.12 -1.70842 3.52035 0
M  V30 13092 H 1231.74 -3.08918 2.50311 0
M  V30 13093 N 1232.74 -1.33881 -0.831482 0
M  V30 13094 C 1233.7 -1.24654 -1.92339 0
M  V30 13095 C 1234.7 -0.163788 -1.59964 0
M  V30 13096 O 1235.89 -0.415829 -1.69164 0
M  V30 13097 C 1233.02 -0.922537 -3.2818 0
M  V30 13098 H 1234.21 -2.21717 -2.01944 0
M  V30 13099 H 1231.77 -1.18046 -1.02445 0
M  V30 13100 H 1232.5 0.0452872 -3.24268 0
M  V30 13101 H 1232.29 -1.70562 -3.53059 0
M  V30 13102 H 1233.78 -0.88292 -4.0816 0
M  V30 13103 N 1234.21 1.05064 -1.1747 0
M  V30 13104 C 1235.44 1.81761 -0.988464 0
M  V30 13105 C 1235.86 1.83028 0.463272 0
M  V30 13106 O 1235.21 1.25846 1.32171 0
M  V30 13107 C 1235.26 3.2782 -1.5237 0
M  V30 13108 O 1234.99 3.26726 -2.91859 0
M  V30 13109 C 1236.49 4.212 -1.38223 0
M  V30 13110 H 1233.71 0.572712 -0.349631 0
M  V30 13111 H 1236.25 1.32477 -1.55789 0
M  V30 13112 H 1234.41 3.7437 -0.996272 0
M  V30 13113 H 1234.82 4.18151 -3.16623 0
M  V30 13114 H 1236.29 5.2166 -1.80485 0
M  V30 13115 H 1236.77 4.37962 -0.329491 0
M  V30 13116 H 1237.38 3.80506 -1.89988 0
M  V30 13117 N 1235.69 0.975146 1.23809 0
M  V30 13118 C 1236.62 0.530389 2.27396 0
M  V30 13119 C 1237.6 -0.433763 1.64476 0
M  V30 13120 O 1238.79 -0.32827 1.91405 0
M  V30 13121 C 1235.92 -0.173066 3.46869 0
M  V30 13122 C 1234.87 0.707844 4.22106 0
M  V30 13123 C 1234.2 -0.127527 5.34548 0
M  V30 13124 C 1235.5 1.99609 4.82652 0
M  V30 13125 H 1237.19 1.39622 2.64851 0
M  V30 13126 H 1234.74 0.672802 1.27316 0
M  V30 13127 H 1236.69 -0.495481 4.18477 0
M  V30 13128 H 1235.41 -1.0733 3.0846 0
M  V30 13129 H 1234.07 1.01364 3.52308 0
M  V30 13130 H 1233.72 -1.02814 4.9238 0
M  V30 13131 H 1233.42 0.458728 5.85807 0
M  V30 13132 H 1234.95 -0.444443 6.0898 0
M  V30 13133 H 1236.36 1.73878 5.46296 0
M  V30 13134 H 1234.76 2.52969 5.44175 0
M  V30 13135 H 1235.83 2.68629 4.03691 0
M  V30 13136 N 1237.17 -1.38817 0.746158 0
M  V30 13137 C 1238.42 -2.00577 0.299458 0
M  V30 13138 C 1238.75 -1.59087 -1.11378 0
M  V30 13139 O 1238.02 -0.824932 -1.7614 0
M  V30 13140 C 1238.31 -3.57713 0.413932 0
M  V30 13141 C 1238.16 -4.09189 1.86774 0
M  V30 13142 C 1239.48 -4.39659 -0.197082 0
M  V30 13143 H 1236.6 -0.728702 0.110285 0
M  V30 13144 H 1239.24 -1.64866 0.944408 0
M  V30 13145 H 1237.39 -3.88265 -0.135155 0
M  V30 13146 H 1239.06 -3.89311 2.47456 0
M  V30 13147 H 1237.3 -3.62333 2.38532 0
M  V30 13148 H 1237.98 -5.18305 1.89904 0
M  V30 13149 H 1240.45 -4.15216 0.271121 0
M  V30 13150 H 1239.33 -5.48832 -0.0867011 0
M  V30 13151 H 1239.59 -4.23028 -1.2845 0
M  V30 13152 N 1238.65 -0.49465 -1.49636 0
M  V30 13153 C 1239.89 0.0521945 -2.02733 0
M  V30 13154 C 1240.23 1.3723 -1.37411 0
M  V30 13155 O 1239.5 1.87758 -0.507642 0
M  V30 13156 C 1239.78 0.2114 -3.59479 0
M  V30 13157 C 1239.64 -1.13138 -4.35339 0
M  V30 13158 C 1240.96 0.955015 -4.29613 0
M  V30 13159 H 1238.08 0.0174946 -0.736792 0
M  V30 13160 H 1240.72 -0.644827 -1.78723 0
M  V30 13161 H 1238.87 0.805078 -3.80067 0
M  V30 13162 H 1240.54 -1.76345 -4.26263 0
M  V30 13163 H 1238.78 -1.72224 -3.98147 0
M  V30 13164 H 1239.45 -0.97336 -5.4335 0
M  V30 13165 H 1241.93 0.451575 -4.13642 0
M  V30 13166 H 1240.81 1.03524 -5.39049 0
M  V30 13167 H 1241.07 1.99724 -3.94414 0
M  V30 13168 N 1240.13 1.55939 -0.228214 0
M  V30 13169 C 1241.07 2.20581 0.679157 0
M  V30 13170 C 1242.04 1.16355 1.18536 0
M  V30 13171 O 1243.23 1.44735 1.24324 0
M  V30 13172 C 1240.37 2.89477 1.87875 0
M  V30 13173 C 1239.48 4.08313 1.41083 0
M  V30 13174 C 1238.62 4.64974 2.56851 0
M  V30 13175 C 1237.65 5.76098 2.06828 0
M  V30 13176 N 1236.79 6.27021 3.15894 0
M  V30 13177 H 1241.63 2.97753 0.121203 0
M  V30 13178 H 1239.17 1.47021 0.0480688 0
M  V30 13179 H 1241.13 3.2761 2.58317 0
M  V30 13180 H 1239.76 2.14811 2.40948 0
M  V30 13181 H 1238.81 3.75621 0.601102 0
M  V30 13182 H 1240.12 4.8859 1.00408 0
M  V30 13183 H 1239.27 5.05584 3.35365 0
M  V30 13184 H 1238.01 3.83875 3.00818 0
M  V30 13185 H 1237.02 5.34984 1.26778 0
M  V30 13186 H 1238.24 6.59037 1.63852 0
M  V30 13187 H 1236.19 5.48833 3.5933 0
M  V30 13188 H 1236.11 7.02439 2.79491 0
M  V30 13189 H 1237.37 6.72289 3.94523 0
M  V30 13190 N 1241.6 -0.0451101 1.57535 0
M  V30 13191 C 1242.55 -1.0692 2.06569 0
M  V30 13192 C 1243.55 -1.38443 0.976218 0
M  V30 13193 O 1244.75 -1.37536 1.1612 0
M  V30 13194 H 1241.13 -0.36226 0.658993 0
M  V30 13195 H 1243.1 -0.629709 2.9168 0
M  V30 13196 C 1241.85 -2.36656 2.54733 0
M  V30 13197 H 1241.17 -2.13257 3.38174 0
M  V30 13198 H 1242.61 -3.06696 2.92769 0
M  V30 13199 C 1241.07 -3.04499 1.4416 0
M  V30 13200 O 1241.6 -3.93679 0.798721 0
M  V30 13201 N 1239.81 -2.6556 1.18009 0
M  V30 13202 H 1239.35 -1.93126 1.7047 0
M  V30 13203 H 1239.31 -3.11272 0.442363 0
M  V30 13204 N 1243.08 -1.54377 -0.317073 0
M  V30 13205 C 1244.03 -1.80597 -1.39172 0
M  V30 13206 C 1245.02 -0.662289 -1.46637 0
M  V30 13207 O 1246.21 -0.922477 -1.51061 0
M  V30 13208 C 1243.34 -2.04252 -2.75927 0
M  V30 13209 C 1242.42 -3.2476 -2.72749 0
M  V30 13210 N 1242.81 -4.45671 -2.39189 0
M  V30 13211 C 1241.11 -3.26464 -3.03871 0
M  V30 13212 C 1241.81 -5.27631 -2.44908 0
M  V30 13213 N 1240.79 -4.64968 -2.81613 0
M  V30 13214 H 1244.59 -2.71655 -1.12164 0
M  V30 13215 H 1242.11 -1.5366 -0.525586 0
M  V30 13216 H 1244.1 -2.21178 -3.53392 0
M  V30 13217 H 1242.76 -1.14452 -3.0386 0
M  V30 13218 H 1243.77 -4.72556 -2.11922 0
M  V30 13219 H 1240.45 -2.46718 -3.36803 0
M  V30 13220 H 1241.84 -6.34202 -2.21896 0
M  V30 13221 N 1244.56 0.579466 -1.4656 0
M  V30 13222 C 1245.49 1.70291 -1.53406 0
M  V30 13223 C 1246.51 1.57232 -0.422116 0
M  V30 13224 O 1247.69 1.64598 -0.69064 0
M  V30 13225 C 1244.79 3.08572 -1.40131 0
M  V30 13226 C 1243.97 3.47602 -2.65502 0
M  V30 13227 C 1243.03 4.64955 -2.4638 0
M  V30 13228 O 1242.05 4.70653 -3.20116 0
M  V30 13229 N 1243.25 5.60041 -1.52756 0
M  V30 13230 H 1246.02 1.64873 -2.50274 0
M  V30 13231 H 1243.58 0.765533 -1.42658 0
M  V30 13232 H 1245.57 3.84877 -1.25106 0
M  V30 13233 H 1244.14 3.0834 -0.514322 0
M  V30 13234 H 1243.36 2.60969 -2.95446 0
M  V30 13235 H 1244.65 3.70446 -3.48779 0
M  V30 13236 H 1244.05 5.58176 -0.919587 0
M  V30 13237 H 1242.61 6.35764 -1.43693 0
M  V30 13238 N 1246.04 1.3432 0.824371 0
M  V30 13239 C 1246.97 1.2842 1.95014 0
M  V30 13240 C 1247.95 0.161925 1.69328 0
M  V30 13241 O 1249.13 0.354052 1.90945 0
M  V30 13242 C 1246.26 1.03741 3.31444 0
M  V30 13243 C 1245.22 2.12419 3.71567 0
M  V30 13244 C 1244.54 1.72931 5.05963 0
M  V30 13245 C 1245.84 3.54235 3.83817 0
M  V30 13246 H 1247.54 2.22614 2.00209 0
M  V30 13247 H 1245.08 1.07165 0.961856 0
M  V30 13248 H 1247.04 0.982586 4.09784 0
M  V30 13249 H 1245.76 0.0598892 3.26545 0
M  V30 13250 H 1244.42 2.16968 2.955 0
M  V30 13251 H 1244.07 0.738433 4.9755 0
M  V30 13252 H 1243.77 2.45668 5.3378 0
M  V30 13253 H 1245.29 1.68941 5.86763 0
M  V30 13254 H 1246.71 3.52106 4.52432 0
M  V30 13255 H 1245.1 4.25581 4.23085 0
M  V30 13256 H 1246.17 3.91682 2.85856 0
M  V30 13257 N 1247.52 -1.0444 1.18026 0
M  V30 13258 C 1248.77 -1.7697 0.9677 0
M  V30 13259 C 1249.08 -1.88995 -0.503994 0
M  V30 13260 O 1250.28 -2.58342 -0.834968 0
M  V30 13261 C 1248.74 -3.1816 1.68232 0
M  V30 13262 C 1248.35 -3.14241 3.19307 0
M  V30 13263 C 1250.09 -3.95095 1.55244 0
M  V30 13264 C 1248 -4.50266 3.83425 0
M  V30 13265 H 1246.93 -0.663355 0.358436 0
M  V30 13266 H 1249.58 -1.17003 1.4136 0
M  V30 13267 H 1247.96 -3.78501 1.16418 0
M  V30 13268 H 1249.14 -2.63373 3.78115 0
M  V30 13269 H 1247.45 -2.50805 3.32394 0
M  V30 13270 H 1250.05 -4.95681 2.00511 0
M  V30 13271 H 1250.39 -4.13236 0.504125 0
M  V30 13272 H 1250.92 -3.4132 2.04317 0
M  V30 13273 H 1247.66 -4.37329 4.88286 0
M  V30 13274 H 1247.18 -5.01251 3.29404 0
M  V30 13275 H 1248.86 -5.1919 3.86071 0
M  V30 13276 N 1248.99 -0.981699 -1.2329 0
M  V30 13277 C 1250.24 -0.652266 -1.92024 0
M  V30 13278 C 1250.57 0.812297 -1.76396 0
M  V30 13279 O 1249.85 1.5861 -1.12575 0
M  V30 13280 C 1250.13 -1.04506 -3.44602 0
M  V30 13281 C 1249.98 -2.56735 -3.69333 0
M  V30 13282 C 1251.3 -0.589937 -4.36128 0
M  V30 13283 H 1248.42 -0.238437 -0.697364 0
M  V30 13284 H 1251.06 -1.22322 -1.45387 0
M  V30 13285 H 1249.21 -0.559242 -3.84454 0
M  V30 13286 H 1250.89 -3.12901 -3.38955 0
M  V30 13287 H 1249.13 -2.9931 -3.14 0
M  V30 13288 H 1249.8 -2.79269 -4.76144 0
M  V30 13289 H 1252.28 -1.00706 -4.0373 0
M  V30 13290 H 1251.15 -0.893192 -5.41584 0
M  V30 13291 H 1251.41 0.509707 -4.39152 0
M  V30 13292 N 1250.47 1.3842 -0.753509 0
M  V30 13293 C 1251.7 2.04403 -0.320449 0
M  V30 13294 C 1252.12 1.5683 1.05118 0
M  V30 13295 O 1251.47 0.741335 1.66765 0
M  V30 13296 C 1251.52 3.59954 -0.333937 0
M  V30 13297 O 1251.24 4.05782 -1.65144 0
M  V30 13298 C 1252.75 4.43156 0.112997 0
M  V30 13299 H 1249.97 0.656881 -0.136927 0
M  V30 13300 H 1252.51 1.77112 -1.02234 0
M  V30 13301 H 1250.66 3.86083 0.319215 0
M  V30 13302 H 1251.08 5.00213 -1.57757 0
M  V30 13303 H 1252.55 5.51975 0.0523995 0
M  V30 13304 H 1253.03 4.23581 1.16087 0
M  V30 13305 H 1253.64 4.22216 -0.511278 0
M  V30 13306 N 1251.95 0.502579 1.49372 0
M  V30 13307 C 1253.37 0.158641 1.5881 0
M  V30 13308 C 1253.57 -1.33688 1.50764 0
M  V30 13309 O 1252.62 -2.11295 1.38241 0
M  V30 13310 C 1253.94 0.736843 2.91532 0
M  V30 13311 C 1255.48 0.703093 3.05001 0
M  V30 13312 C 1255.96 1.25938 4.40345 0
M  V30 13313 N 1257.45 1.22015 4.46841 0
M  V30 13314 C 1258.18 1.62076 5.50017 0
M  V30 13315 N 1257.68 2.09736 6.6029 0
M  V30 13316 N 1259.47 1.53482 5.4074 0
M  V30 13317 H 1251.62 1.47487 1.52844 0
M  V30 13318 H 1253.89 0.611851 0.724115 0
M  V30 13319 H 1253.59 1.78573 3.02992 0
M  V30 13320 H 1253.47 0.198178 3.76679 0
M  V30 13321 H 1255.85 -0.336965 2.9317 0
M  V30 13322 H 1255.94 1.27892 2.21534 0
M  V30 13323 H 1255.58 2.29823 4.52928 0
M  V30 13324 H 1255.51 0.659481 5.22454 0
M  V30 13325 H 1258 0.870957 3.67726 0
M  V30 13326 H 1258.31 2.3837 7.35119 0
M  V30 13327 H 1256.66 2.13712 6.61326 0
M  V30 13328 H 1259.85 1.16065 4.53483 0
M  V30 13329 H 1260.02 1.85026 6.21023 0
M  V30 13330 N 1253.43 -1.55816 0.23648 0
M  V30 13331 C 1254.68 -1.98294 -0.390373 0
M  V30 13332 C 1255 -1.12573 -1.59224 0
M  V30 13333 O 1254.27 -0.206128 -1.94813 0
M  V30 13334 H 1252.85 -0.732349 -0.14722 0
M  V30 13335 H 1255.51 -1.92037 0.332848 0
M  V30 13336 H 1254.61 -3.03996 -0.706595 0
M  V30 13337 N 1254.91 0.036755 -1.57557 0
M  V30 13338 C 1256.13 0.744813 -1.93565 0
M  V30 13339 C 1256.56 1.68508 -0.835863 0
M  V30 13340 O 1255.91 1.80091 0.208986 0
M  V30 13341 C 1255.96 1.48461 -3.28621 0
M  V30 13342 O 1255.07 2.59739 -3.20327 0
M  V30 13343 H 1254.41 0.200866 -0.632889 0
M  V30 13344 H 1256.94 -0.00547543 -2.04599 0
M  V30 13345 H 1256.95 1.85622 -3.63329 0
M  V30 13346 H 1255.62 0.794953 -4.08232 0
M  V30 13347 H 1254.2 2.25176 -2.97237 0
M  V30 13348 N 1256.39 1.54543 0.308881 0
M  V30 13349 C 1257.32 1.81309 1.40212 0
M  V30 13350 C 1258.33 0.69568 1.47187 0
M  V30 13351 O 1259.52 0.973034 1.49647 0
M  V30 13352 C 1256.62 1.92901 2.78644 0
M  V30 13353 C 1255.79 3.23222 2.94697 0
M  V30 13354 C 1254.85 3.25329 4.13579 0
M  V30 13355 O 1253.88 3.989 4.06039 0
M  V30 13356 N 1255.08 2.50158 5.23833 0
M  V30 13357 H 1257.84 2.75659 1.1761 0
M  V30 13358 H 1255.41 1.54021 0.498925 0
M  V30 13359 H 1257.4 1.91721 3.56406 0
M  V30 13360 H 1255.97 1.05582 2.9423 0
M  V30 13361 H 1255.19 3.37241 2.04113 0
M  V30 13362 H 1256.48 4.09238 3.02328 0
M  V30 13363 H 1255.87 1.90002 5.32838 0
M  V30 13364 H 1254.43 2.5474 5.99959 0
M  V30 13365 N 1257.86 -0.571685 1.46866 0
M  V30 13366 C 1258.81 -1.67992 1.58263 0
M  V30 13367 C 1259.78 -1.60535 0.426345 0
M  V30 13368 O 1260.97 -1.79584 0.644534 0
M  V30 13369 C 1258.11 -3.06327 1.58927 0
M  V30 13370 C 1257.22 -3.24328 2.85369 0
M  V30 13371 C 1256.35 -4.52976 2.77464 0
M  V30 13372 C 1255.39 -4.64359 3.98795 0
M  V30 13373 N 1254.53 -5.84345 3.89211 0
M  V30 13374 H 1259.37 -1.57589 2.52922 0
M  V30 13375 H 1256.91 -0.767883 1.25467 0
M  V30 13376 H 1258.86 -3.86411 1.57296 0
M  V30 13377 H 1257.49 -3.15601 0.677912 0
M  V30 13378 H 1256.55 -2.37774 2.96931 0
M  V30 13379 H 1257.86 -3.28605 3.7526 0
M  V30 13380 H 1257.01 -5.41303 2.74001 0
M  V30 13381 H 1255.75 -4.51155 1.85231 0
M  V30 13382 H 1254.76 -3.74448 4.02578 0
M  V30 13383 H 1255.98 -4.6795 4.92137 0
M  V30 13384 H 1253.93 -5.835 2.99772 0
M  V30 13385 H 1253.84 -5.89938 4.72768 0
M  V30 13386 H 1255.11 -6.75072 3.89741 0
M  V30 13387 N 1259.34 -1.34755 -0.817236 0
M  V30 13388 C 1260.62 -1.18007 -1.55993 0
M  V30 13389 C 1261 0.245079 -2.09673 0
M  V30 13390 O 1260.35 1.24718 -1.91462 0
M  V30 13391 C 1260.56 -2.23934 -2.67684 0
M  V30 13392 C 1261.9 -2.59201 -3.36303 0
M  V30 13393 O 1262.93 -2.22767 -2.77945 0
M  V30 13394 O 1261.79 -3.21809 -4.41702 0
M  V30 13395 H 1258.88 -0.4578 -0.688729 0
M  V30 13396 H 1261.43 -1.46405 -0.858117 0
M  V30 13397 H 1260.2 -3.19568 -2.25813 0
M  V30 13398 H 1259.82 -1.96745 -3.4551 0
M  V30 13399 N 1260.82 1.03812 -1.18578 0
M  V30 13400 C 1262.05 1.8044 -1.00623 0
M  V30 13401 C 1262.46 1.83808 0.448451 0
M  V30 13402 O 1261.8 1.27417 1.32328 0
M  V30 13403 C 1261.86 3.27266 -1.48785 0
M  V30 13404 C 1261.53 3.47553 -2.96742 0
M  V30 13405 C 1262.52 3.38533 -3.94578 0
M  V30 13406 C 1260.21 3.74067 -3.3523 0
M  V30 13407 C 1262.2 3.55735 -5.28896 0
M  V30 13408 C 1259.89 3.90916 -4.6971 0
M  V30 13409 C 1260.89 3.81751 -5.66352 0
M  V30 13410 O 1260.58 3.98115 -6.98398 0
M  V30 13411 H 1260.31 0.574996 -0.355465 0
M  V30 13412 H 1262.86 1.31708 -1.57614 0
M  V30 13413 H 1261.09 3.76979 -0.861613 0
M  V30 13414 H 1262.78 3.85461 -1.27181 0
M  V30 13415 H 1263.55 3.18011 -3.66189 0
M  V30 13416 H 1259.43 3.80298 -2.60566 0
M  V30 13417 H 1262.97 3.48498 -6.04314 0
M  V30 13418 H 1258.87 4.10934 -4.97799 0
M  V30 13419 H 1259.63 4.1526 -7.05338 0
M  V30 13420 N 1262.3 0.988223 1.22768 0
M  V30 13421 C 1263.71 0.69816 1.4352 0
M  V30 13422 C 1263.91 -0.732872 1.877 0
M  V30 13423 O 1262.97 -1.50436 2.02793 0
M  V30 13424 C 1264.28 1.69975 2.4805 0
M  V30 13425 C 1265.83 1.71467 2.61855 0
M  V30 13426 C 1266.31 2.70477 3.69603 0
M  V30 13427 N 1267.8 2.69043 3.77055 0
M  V30 13428 C 1268.53 3.42319 4.60006 0
M  V30 13429 N 1268.03 4.2518 5.46986 0
M  V30 13430 N 1269.82 3.31047 4.54274 0
M  V30 13431 H 1261.97 1.91251 0.923948 0
M  V30 13432 H 1264.23 0.82455 0.467783 0
M  V30 13433 H 1263.94 2.72354 2.22523 0
M  V30 13434 H 1263.81 1.48885 3.46573 0
M  V30 13435 H 1266.2 0.697889 2.86729 0
M  V30 13436 H 1266.28 1.96625 1.63622 0
M  V30 13437 H 1265.93 3.72302 3.45476 0
M  V30 13438 H 1265.86 2.42591 4.67394 0
M  V30 13439 H 1268.35 2.08914 3.14902 0
M  V30 13440 H 1268.66 4.77929 6.07292 0
M  V30 13441 H 1267.01 4.29268 5.46584 0
M  V30 13442 H 1270.2 2.65758 3.85345 0
M  V30 13443 H 1270.37 3.88413 5.1869 0
M  V30 13444 N 1263.78 -1.38018 0.760839 0
M  V30 13445 C 1264.72 -2.30387 0.13796 0
M  V30 13446 C 1265.69 -1.50548 -0.701754 0
M  V30 13447 O 1266.88 -1.79154 -0.656381 0
M  V30 13448 C 1264.02 -3.36993 -0.743642 0
M  V30 13449 C 1263.13 -4.31856 0.111489 0
M  V30 13450 C 1262.27 -5.25534 -0.773796 0
M  V30 13451 C 1261.3 -6.12042 0.0845311 0
M  V30 13452 N 1260.44 -6.97995 -0.758118 0
M  V30 13453 H 1265.28 -2.83077 0.931212 0
M  V30 13454 H 1262.82 -1.39361 0.470833 0
M  V30 13455 H 1264.78 -3.97417 -1.26948 0
M  V30 13456 H 1263.41 -2.85695 -1.50261 0
M  V30 13457 H 1262.46 -3.72832 0.755031 0
M  V30 13458 H 1263.77 -4.92758 0.774042 0
M  V30 13459 H 1262.92 -5.9111 -1.36653 0
M  V30 13460 H 1261.66 -4.65017 -1.47006 0
M  V30 13461 H 1260.67 -5.45455 0.689883 0
M  V30 13462 H 1261.89 -6.74629 0.777966 0
M  V30 13463 H 1259.84 -6.40018 -1.4392 0
M  V30 13464 H 1259.76 -7.55846 -0.152623 0
M  V30 13465 H 1261.02 -7.67973 -1.33559 0
M  V30 13466 N 1265.25 -0.510493 -1.49103 0
M  V30 13467 C 1266.53 0.0941122 -1.95373 0
M  V30 13468 C 1266.91 1.53207 -1.45227 0
M  V30 13469 O 1266.26 2.18452 -0.670161 0
M  V30 13470 C 1266.47 -0.00302507 -3.49 0
M  V30 13471 C 1267.82 0.166117 -4.24275 0
M  V30 13472 O 1268.84 0.0717097 -3.56128 0
M  V30 13473 O 1267.7 0.361155 -5.45305 0
M  V30 13474 H 1264.79 0.0900741 -0.82208 0
M  V30 13475 H 1267.34 -0.573707 -1.59708 0
M  V30 13476 H 1266.11 -1.00545 -3.78162 0
M  V30 13477 H 1265.73 0.704518 -3.91308 0
M  V30 13478 N 1266.73 1.55688 -0.24474 0
M  V30 13479 C 1267.69 2.20014 0.642382 0
M  V30 13480 C 1268.69 1.16877 1.10437 0
M  V30 13481 O 1269.88 1.41972 1.00943 0
M  V30 13482 C 1267.02 2.84198 1.88267 0
M  V30 13483 H 1268.21 2.9979 0.0811937 0
M  V30 13484 H 1265.76 1.56299 0.00480917 0
M  V30 13485 H 1266.5 2.08354 2.48514 0
M  V30 13486 H 1266.28 3.59747 1.55963 0
M  V30 13487 H 1267.77 3.33434 2.5142 0
M  V30 13488 N 1268.21 -0.0283989 1.57574 0
M  V30 13489 C 1269.43 -0.734537 1.93957 0
M  V30 13490 C 1269.86 -1.68062 0.844787 0
M  V30 13491 O 1269.22 -1.802 -0.199432 0
M  V30 13492 C 1269.27 -1.46716 3.29404 0
M  V30 13493 O 1268.37 -2.58036 3.217 0
M  V30 13494 H 1267.71 -0.197507 0.633946 0
M  V30 13495 H 1270.24 0.0163258 2.04593 0
M  V30 13496 H 1270.25 -1.83693 3.64309 0
M  V30 13497 H 1268.93 -0.773292 4.08648 0
M  V30 13498 H 1267.5 -2.23597 2.98427 0
M  V30 13499 N 1269.69 -1.54705 -0.300681 0
M  V30 13500 C 1270.94 -1.73211 -1.03349 0
M  V30 13501 C 1271.25 -0.52518 -1.88418 0
M  V30 13502 O 1272.46 -0.592049 -2.64966 0
M  V30 13503 C 1270.91 -3.06453 -1.88717 0
M  V30 13504 C 1270.52 -4.34625 -1.0865 0
M  V30 13505 C 1272.26 -3.34317 -2.61595 0
M  V30 13506 C 1270.17 -5.58919 -1.93297 0
M  V30 13507 H 1269.1 -0.64556 -0.389574 0
M  V30 13508 H 1271.75 -1.81186 -0.290472 0
M  V30 13509 H 1270.13 -2.92443 -2.67008 0
M  V30 13510 H 1271.31 -4.59471 -0.349707 0
M  V30 13511 H 1269.62 -4.13699 -0.473521 0
M  V30 13512 H 1272.22 -4.2438 -3.25278 0
M  V30 13513 H 1272.56 -2.53207 -3.30442 0
M  V30 13514 H 1273.1 -3.493 -1.90354 0
M  V30 13515 H 1269.83 -6.42697 -1.2892 0
M  V30 13516 H 1269.35 -5.38258 -2.64647 0
M  V30 13517 H 1271.03 -5.96187 -2.51336 0
M  V30 13518 N 1271.17 0.563888 -1.47167 0
M  V30 13519 C 1272.41 1.31875 -1.53145 0
M  V30 13520 C 1272.74 1.94047 -0.192518 0
M  V30 13521 O 1272.01 1.79577 0.782872 0
M  V30 13522 H 1270.59 0.489694 -0.5641 0
M  V30 13523 H 1273.25 0.658976 -1.83422 0
M  V30 13524 H 1272.34 2.11574 -2.2944 0
M  V30 13525 N 1272.64 1.35187 0.810078 0
M  V30 13526 C 1273.87 1.31371 1.59841 0
M  V30 13527 C 1274.29 -0.109547 1.88482 0
M  V30 13528 O 1273.64 -1.06047 1.48527 0
M  V30 13529 C 1273.7 2.11496 2.93175 0
M  V30 13530 O 1273.42 3.48273 2.65777 0
M  V30 13531 C 1274.92 2.15226 3.87547 0
M  V30 13532 H 1272.14 0.451428 0.496441 0
M  V30 13533 H 1274.68 1.7799 1.00697 0
M  V30 13534 H 1272.84 1.68486 3.48843 0
M  V30 13535 H 1273.25 3.89845 3.50886 0
M  V30 13536 H 1274.72 2.75687 4.78226 0
M  V30 13537 H 1275.2 1.15007 4.23875 0
M  V30 13538 H 1275.81 2.58382 3.37815 0
M  V30 13539 N 1274.12 -1.03182 1.19127 0
M  V30 13540 C 1275.07 -2.11394 0.926339 0
M  V30 13541 C 1276.04 -1.65528 -0.137703 0
M  V30 13542 O 1277.22 -1.908 0.00381804 0
M  V30 13543 C 1274.36 -3.41913 0.467894 0
M  V30 13544 C 1273.48 -4.01343 1.59837 0
M  V30 13545 C 1272.61 -5.1986 1.09175 0
M  V30 13546 C 1271.65 -5.71339 2.19632 0
M  V30 13547 N 1270.79 -6.81133 1.703 0
M  V30 13548 H 1275.63 -2.33393 1.85288 0
M  V30 13549 H 1273.17 -1.14473 0.923811 0
M  V30 13550 H 1275.12 -4.16796 0.183513 0
M  V30 13551 H 1273.75 -3.20034 -0.421656 0
M  V30 13552 H 1272.81 -3.23702 1.99803 0
M  V30 13553 H 1274.12 -4.35568 2.43068 0
M  V30 13554 H 1273.27 -6.0189 0.762427 0
M  V30 13555 H 1272.01 -4.87161 0.22914 0
M  V30 13556 H 1271.02 -4.87923 2.53399 0
M  V30 13557 H 1272.24 -6.06078 3.06344 0
M  V30 13558 H 1270.19 -6.50293 0.863415 0
M  V30 13559 H 1270.1 -7.1447 2.47122 0
M  V30 13560 H 1271.37 -7.66766 1.40321 0
M  V30 13561 N 1275.6 -0.99472 -1.22242 0
M  V30 13562 C 1276.85 -0.672596 -1.91322 0
M  V30 13563 C 1277.18 0.793542 -1.77247 0
M  V30 13564 O 1276.45 1.57407 -1.14251 0
M  V30 13565 C 1276.74 -1.08155 -3.43474 0
M  V30 13566 C 1276.59 -2.60638 -3.6659 0
M  V30 13567 C 1277.91 -0.636161 -4.35478 0
M  V30 13568 H 1275.03 -0.24582 -0.694796 0
M  V30 13569 H 1277.67 -1.23857 -1.44082 0
M  V30 13570 H 1275.82 -0.599987 -3.83839 0
M  V30 13571 H 1277.49 -3.16479 -3.35617 0
M  V30 13572 H 1275.74 -3.02624 -3.10808 0
M  V30 13573 H 1276.41 -2.84304 -4.73155 0
M  V30 13574 H 1278.88 -1.04982 -4.02639 0
M  V30 13575 H 1277.76 -0.950584 -5.40606 0
M  V30 13576 H 1278.02 0.4631 -4.39668 0
M  V30 13577 N 1277.08 1.37613 -0.768148 0
M  V30 13578 C 1278.32 2.00075 -0.331331 0
M  V30 13579 C 1278.66 1.60839 1.08833 0
M  V30 13580 O 1277.93 0.852849 1.74805 0
M  V30 13581 C 1278.22 3.57009 -0.470789 0
M  V30 13582 C 1278.07 4.06166 -1.9326 0
M  V30 13583 C 1279.39 4.39916 0.127111 0
M  V30 13584 H 1276.51 0.726855 -0.121864 0
M  V30 13585 H 1279.15 1.63343 -0.970518 0
M  V30 13586 H 1277.3 3.88431 0.0733688 0
M  V30 13587 H 1278.97 3.85325 -2.53618 0
M  V30 13588 H 1277.21 3.58492 -2.44266 0
M  V30 13589 H 1277.88 5.15219 -1.98125 0
M  V30 13590 H 1280.36 4.14732 -0.337144 0
M  V30 13591 H 1279.24 5.489 -0.000624226 0
M  V30 13592 H 1279.5 4.25018 1.21704 0
M  V30 13593 N 1278.56 0.518393 1.4883 0
M  V30 13594 C 1279.8 -0.0180482 2.04392 0
M  V30 13595 C 1280.16 -1.32666 1.38794 0
M  V30 13596 O 1281.36 -1.94842 1.85176 0
M  V30 13597 C 1279.63 -0.149457 3.57087 0
M  V30 13598 S 1281.19 -0.637636 4.34142 0
M  V30 13599 H 1278.01 0.00651981 0.71097 0
M  V30 13600 H 1280.61 0.69632 1.82679 0
M  V30 13601 H 1279.32 0.807977 4.02368 0
M  V30 13602 H 1278.85 -0.888549 3.83234 0
M  V30 13603 H 1280.86 -1.90406 4.58214 0
M  V30 13604 N 1280.03 -1.55556 0.252993 0
M  V30 13605 C 1281.28 -2.00122 -0.363693 0
M  V30 13606 C 1281.64 -1.13821 -1.55121 0
M  V30 13607 O 1280.93 -0.195137 -1.90604 0
M  V30 13608 C 1281.12 -3.47925 -0.817484 0
M  V30 13609 C 1280.95 -4.48528 0.32452 0
M  V30 13610 C 1279.72 -4.98908 0.801175 0
M  V30 13611 C 1281.92 -5.01196 1.15358 0
M  V30 13612 N 1279.9 -5.83269 1.91495 0
M  V30 13613 C 1281.27 -5.82787 2.11563 0
M  V30 13614 C 1283.33 -4.83484 1.18945 0
M  V30 13615 C 1282.03 -6.48557 3.11073 0
M  V30 13616 C 1284.06 -5.50036 2.17288 0
M  V30 13617 C 1283.42 -6.31421 3.12229 0
M  V30 13618 H 1279.52 -0.775724 -0.0988716 0
M  V30 13619 H 1282.1 -1.91114 0.371964 0
M  V30 13620 H 1280.27 -3.57319 -1.52242 0
M  V30 13621 H 1282 -3.79357 -1.40963 0
M  V30 13622 H 1278.76 -4.72039 0.384265 0
M  V30 13623 H 1279.18 -6.30145 2.47479 0
M  V30 13624 H 1283.83 -4.20187 0.469296 0
M  V30 13625 H 1281.54 -7.11016 3.84034 0
M  V30 13626 H 1285.13 -5.38283 2.20777 0
M  V30 13627 H 1284.01 -6.82009 3.87083 0
M  V30 13628 N 1281.51 0.0200419 -1.57587 0
M  V30 13629 C 1282.76 0.709027 -1.89681 0
M  V30 13630 C 1283.09 1.74876 -0.851396 0
M  V30 13631 O 1282.34 1.95151 0.146483 0
M  V30 13632 C 1282.64 1.40729 -3.28527 0
M  V30 13633 C 1282.31 0.502686 -4.48089 0
M  V30 13634 C 1280.97 0.253558 -4.80532 0
M  V30 13635 C 1283.32 -0.121338 -5.21059 0
M  V30 13636 C 1280.65 -0.628221 -5.83327 0
M  V30 13637 C 1283 -0.990873 -6.24792 0
M  V30 13638 C 1281.67 -1.24937 -6.55703 0
M  V30 13639 H 1280.94 0.259451 -0.694094 0
M  V30 13640 H 1283.58 -0.03118 -1.91475 0
M  V30 13641 H 1281.89 2.22105 -3.22764 0
M  V30 13642 H 1283.58 1.94609 -3.50611 0
M  V30 13643 H 1280.17 0.707018 -4.22728 0
M  V30 13644 H 1284.36 0.0581516 -4.96266 0
M  V30 13645 H 1279.61 -0.836712 -6.05648 0
M  V30 13646 H 1283.79 -1.48087 -6.80473 0
M  V30 13647 H 1281.42 -1.93436 -7.35178 0
M  V30 13648 N 1282.99 1.54862 0.292472 0
M  V30 13649 C 1284.24 1.74807 1.02813 0
M  V30 13650 C 1284.57 0.536935 1.8663 0
M  V30 13651 O 1283.84 -0.465854 1.88839 0
M  V30 13652 C 1284.13 3.04202 1.927 0
M  V30 13653 C 1283.98 4.35631 1.12006 0
M  V30 13654 C 1285.3 3.29514 2.91734 0
M  V30 13655 H 1282.42 0.636015 0.372362 0
M  V30 13656 H 1285.06 1.87583 0.302069 0
M  V30 13657 H 1283.21 2.9344 2.54608 0
M  V30 13658 H 1284.88 4.58323 0.52319 0
M  V30 13659 H 1283.13 4.31733 0.42298 0
M  V30 13660 H 1283.8 5.22454 1.78172 0
M  V30 13661 H 1286.27 3.39941 2.39957 0
M  V30 13662 H 1285.15 4.21352 3.51786 0
M  V30 13663 H 1285.41 2.48216 3.65843 0
M  V30 13664 N 1284.47 -0.556076 1.47464 0
M  V30 13665 C 1285.42 -1.6586 1.56444 0
M  V30 13666 C 1286.4 -1.55233 0.423262 0
M  V30 13667 O 1287.59 -1.63696 0.673247 0
M  V30 13668 C 1284.72 -3.04633 1.58283 0
M  V30 13669 C 1283.81 -3.2046 2.77788 0
M  V30 13670 N 1284.2 -3.06347 4.02474 0
M  V30 13671 C 1282.5 -3.51462 2.74573 0
M  V30 13672 C 1283.2 -3.24893 4.82514 0
M  V30 13673 N 1282.18 -3.51278 4.14855 0
M  V30 13674 H 1285.98 -1.53519 2.50618 0
M  V30 13675 H 1283.49 -0.760862 1.43474 0
M  V30 13676 H 1285.49 -3.83797 1.62806 0
M  V30 13677 H 1284.15 -3.18085 0.652052 0
M  V30 13678 H 1285.16 -2.8365 4.33316 0
M  V30 13679 H 1281.84 -3.71434 1.90639 0
M  V30 13680 H 1283.23 -3.1894 5.91377 0
M  V30 13681 N 1285.95 -1.35615 -0.802897 0
M  V30 13682 C 1286.9 -1.28877 -1.93632 0
M  V30 13683 C 1287.89 -0.183014 -1.68408 0
M  V30 13684 O 1289.1 -0.349218 -1.7658 0
M  V30 13685 H 1285.47 -0.400883 -0.636236 0
M  V30 13686 H 1287.44 -2.24624 -1.96435 0
M  V30 13687 C 1286.19 -1.08136 -3.30457 0
M  V30 13688 H 1285.51 -1.92463 -3.50426 0
M  V30 13689 H 1286.95 -1.07464 -4.10155 0
M  V30 13690 C 1285.41 0.214635 -3.36216 0
M  V30 13691 O 1285.94 1.20916 -3.8307 0
M  V30 13692 N 1284.15 0.25468 -2.89482 0
M  V30 13693 H 1283.7 -0.555239 -2.51545 0
M  V30 13694 H 1283.65 1.12152 -2.93716 0
M  V30 13695 N 1287.43 1.02549 -1.19673 0
M  V30 13696 C 1288.37 2.13015 -0.934209 0
M  V30 13697 C 1289.37 1.69035 0.111208 0
M  V30 13698 O 1290.57 1.79959 -0.0383449 0
M  V30 13699 H 1286.95 0.696015 -0.284722 0
M  V30 13700 H 1288.92 2.32346 -1.87238 0
M  V30 13701 C 1287.67 3.44185 -0.493124 0
M  V30 13702 H 1286.99 3.78447 -1.28911 0
M  V30 13703 H 1288.43 4.22565 -0.348577 0
M  V30 13704 C 1286.89 3.27427 0.793277 0
M  V30 13705 O 1287.42 3.56362 1.85388 0
M  V30 13706 N 1285.63 2.80706 0.751837 0
M  V30 13707 H 1285.17 2.57359 -0.111517 0
M  V30 13708 H 1285.13 2.69874 1.61292 0
M  V30 13709 N 1288.9 1.00119 1.21713 0
M  V30 13710 C 1290.15 0.680377 1.90303 0
M  V30 13711 C 1290.47 -0.790927 1.7824 0
M  V30 13712 O 1289.74 -1.5676 1.17486 0
M  V30 13713 H 1288.32 0.248665 0.704397 0
M  V30 13714 H 1290.98 1.26948 1.47886 0
M  V30 13715 H 1290.08 0.950188 2.97284 0
M  V30 13716 N 1290.38 -1.37203 0.775435 0
M  V30 13717 C 1291.29 -2.34019 0.165062 0
M  V30 13718 C 1292.31 -1.6036 -0.675316 0
M  V30 13719 O 1293.48 -1.9243 -0.594375 0
M  V30 13720 C 1290.55 -3.3954 -0.700957 0
M  V30 13721 C 1289.61 -4.29015 0.156304 0
M  V30 13722 C 1288.84 -5.29497 -0.668476 0
M  V30 13723 O 1289.07 -5.37636 -1.90535 0
M  V30 13724 O 1288 -6.01852 -0.0757351 0
M  V30 13725 H 1291.83 -2.87955 0.965184 0
M  V30 13726 H 1289.41 -1.39429 0.536654 0
M  V30 13727 H 1291.29 -4.04094 -1.19524 0
M  V30 13728 H 1289.97 -2.87926 -1.4792 0
M  V30 13729 H 1288.87 -3.67549 0.69703 0
M  V30 13730 H 1290.21 -4.83944 0.897725 0
M  V30 13731 N 1291.86 -0.526279 -1.48553 0
M  V30 13732 C 1293.11 0.00914839 -2.02098 0
M  V30 13733 C 1293.43 1.35119 -1.40598 0
M  V30 13734 O 1292.7 1.87422 -0.570065 0
M  V30 13735 H 1291.28 0.00636935 -0.746973 0
M  V30 13736 H 1293.94 -0.689269 -1.82305 0
M  V30 13737 H 1293.04 0.120212 -3.11868 0
M  V30 13738 N 1293.34 1.5542 -0.261239 0
M  V30 13739 C 1294.27 2.24949 0.626126 0
M  V30 13740 C 1295.25 1.23474 1.16997 0
M  V30 13741 O 1296.43 1.52161 1.20667 0
M  V30 13742 C 1293.56 2.95996 1.81669 0
M  V30 13743 C 1292.52 4.04282 1.40499 0
M  V30 13744 C 1291.84 4.62831 2.67753 0
M  V30 13745 C 1293.14 5.1923 0.56543 0
M  V30 13746 H 1294.84 2.99364 0.0463164 0
M  V30 13747 H 1292.38 1.43985 0.0208366 0
M  V30 13748 H 1294.34 3.43343 2.44323 0
M  V30 13749 H 1293.06 2.19093 2.42211 0
M  V30 13750 H 1291.72 3.57726 0.801712 0
M  V30 13751 H 1291.37 3.82611 3.26524 0
M  V30 13752 H 1291.07 5.35938 2.40925 0
M  V30 13753 H 1292.59 5.12918 3.31281 0
M  V30 13754 H 1294.01 5.62714 1.09663 0
M  V30 13755 H 1292.4 5.98814 0.392607 0
M  V30 13756 H 1293.47 4.83086 -0.419059 0
M  V30 13757 N 1294.82 -0.0116844 1.57596 0
M  V30 13758 C 1296.06 -0.698089 1.89234 0
M  V30 13759 C 1296.38 -1.75581 0.862016 0
M  V30 13760 O 1297.58 -2.49602 1.06822 0
M  V30 13761 C 1296.04 -1.29277 3.3588 0
M  V30 13762 C 1295.65 -0.27049 4.47183 0
M  V30 13763 C 1297.39 -1.95805 3.76644 0
M  V30 13764 C 1295.3 -0.874502 5.84899 0
M  V30 13765 H 1294.23 -0.264495 0.706087 0
M  V30 13766 H 1296.88 0.0469451 1.8344 0
M  V30 13767 H 1295.26 -2.08809 3.36474 0
M  V30 13768 H 1296.44 0.499381 4.58086 0
M  V30 13769 H 1294.75 0.293676 4.15363 0
M  V30 13770 H 1297.35 -2.41879 4.76863 0
M  V30 13771 H 1297.69 -2.78366 3.09545 0
M  V30 13772 H 1298.22 -1.23023 3.78299 0
M  V30 13773 H 1294.96 -0.0879263 6.55441 0
M  V30 13774 H 1294.48 -1.61381 5.77682 0
M  V30 13775 H 1296.16 -1.37665 6.32185 0
M  V30 13776 N 1296.29 -1.55015 -0.284256 0
M  V30 13777 C 1297.57 -1.6579 -1.03794 0
M  V30 13778 C 1297.95 -0.517029 -2.04671 0
M  V30 13779 O 1297.3 0.484287 -2.23309 0
M  V30 13780 C 1297.51 -3.04527 -1.70483 0
M  V30 13781 C 1298.86 -3.61903 -2.22062 0
M  V30 13782 O 1299.88 -3.07087 -1.80488 0
M  V30 13783 O 1298.74 -4.57917 -2.98286 0
M  V30 13784 H 1295.83 -0.672906 -0.480757 0
M  V30 13785 H 1298.38 -1.67357 -0.281009 0
M  V30 13786 H 1297.15 -3.79004 -0.973238 0
M  V30 13787 H 1296.77 -3.0681 -2.5289 0
M  V30 13788 N 1297.77 0.548248 -1.47757 0
M  V30 13789 C 1299.02 1.30243 -1.54535 0
M  V30 13790 C 1299.34 1.93832 -0.213089 0
M  V30 13791 O 1298.61 1.80397 0.763782 0
M  V30 13792 H 1297.19 0.483684 -0.569262 0
M  V30 13793 H 1299.85 0.639485 -1.8411 0
M  V30 13794 H 1298.95 2.09128 -2.31672 0
M  V30 13795 N 1299.25 1.36039 0.795694 0
M  V30 13796 C 1300.5 1.30112 1.5556 0
M  V30 13797 C 1300.83 -0.121197 1.93821 0
M  V30 13798 O 1300.1 -1.07313 1.62216 0
M  V30 13799 C 1300.39 2.21792 2.8369 0
M  V30 13800 C 1300.24 3.72691 2.51836 0
M  V30 13801 C 1301.56 2.12365 3.85472 0
M  V30 13802 H 1298.68 0.473971 0.564376 0
M  V30 13803 H 1301.32 1.66536 0.91465 0
M  V30 13804 H 1299.47 1.9086 3.38386 0
M  V30 13805 H 1301.14 4.14115 2.0324 0
M  V30 13806 H 1299.38 3.92436 1.84869 0
M  V30 13807 H 1300.06 4.32242 3.43323 0
M  V30 13808 H 1302.53 2.3958 3.40207 0
M  V30 13809 H 1301.41 2.78695 4.72885 0
M  V30 13810 H 1301.67 1.10898 4.27965 0
M  V30 13811 N 1300.73 -1.01913 1.20215 0
M  V30 13812 C 1301.68 -2.08774 0.916367 0
M  V30 13813 C 1302.66 -1.60431 -0.122796 0
M  V30 13814 O 1303.85 -1.76799 0.0842336 0
M  V30 13815 C 1300.98 -3.40102 0.467517 0
M  V30 13816 C 1300.07 -3.95153 1.53997 0
M  V30 13817 N 1300.46 -4.23745 2.76178 0
M  V30 13818 C 1298.76 -4.23274 1.40554 0
M  V30 13819 C 1299.46 -4.681 3.45336 0
M  V30 13820 N 1298.44 -4.70224 2.72745 0
M  V30 13821 H 1302.24 -2.28786 1.84484 0
M  V30 13822 H 1299.75 -1.19861 1.09577 0
M  V30 13823 H 1301.75 -4.16184 0.244195 0
M  V30 13824 H 1300.41 -3.21505 -0.454358 0
M  V30 13825 H 1301.42 -4.12728 3.12852 0
M  V30 13826 H 1298.1 -4.1389 0.547877 0
M  V30 13827 H 1299.49 -4.99063 4.49873 0
M  V30 13828 N 1302.21 -1.00763 -1.2118 0
M  V30 13829 C 1303.43 -0.710746 -1.94309 0
M  V30 13830 C 1303.85 0.727103 -1.74237 0
M  V30 13831 O 1303.21 1.49223 -1.05065 0
M  V30 13832 C 1303.26 -1.02562 -3.46646 0
M  V30 13833 O 1302.98 -2.40699 -3.66054 0
M  V30 13834 C 1304.48 -0.748517 -4.36935 0
M  V30 13835 H 1301.7 -0.26171 -0.617858 0
M  V30 13836 H 1304.24 -1.34639 -1.53924 0
M  V30 13837 H 1302.4 -0.435537 -3.84944 0
M  V30 13838 H 1302.81 -2.51764 -4.60125 0
M  V30 13839 H 1304.29 -1.01899 -5.42513 0
M  V30 13840 H 1304.76 0.317423 -4.38051 0
M  V30 13841 H 1305.37 -1.32033 -4.04286 0
M  V30 13842 N 1303.68 1.3679 -0.7827 0
M  V30 13843 C 1304.96 1.93639 -0.276278 0
M  V30 13844 C 1305.34 1.7153 1.23048 0
M  V30 13845 O 1304.69 1.07037 2.01879 0
M  V30 13846 C 1304.9 3.42672 -0.661586 0
M  V30 13847 C 1306.25 4.19786 -0.637538 0
M  V30 13848 O 1307.27 3.51082 -0.601645 0
M  V30 13849 O 1306.13 5.42323 -0.674408 0
M  V30 13850 H 1303.22 0.824307 -0.0666832 0
M  V30 13851 H 1305.77 1.46012 -0.864792 0
M  V30 13852 H 1304.54 3.52393 -1.70103 0
M  V30 13853 H 1304.17 3.97573 -0.0465987 0
M  V30 13854 N 1305.16 0.53415 1.48272 0
M  V30 13855 C 1306.39 0.00573642 2.06599 0
M  V30 13856 C 1306.8 -1.28303 1.3905 0
M  V30 13857 O 1306.14 -1.77499 0.473274 0
M  V30 13858 C 1306.21 -0.28451 3.58372 0
M  V30 13859 C 1305.87 0.911397 4.4782 0
M  V30 13860 C 1306.87 1.81091 4.87342 0
M  V30 13861 C 1304.55 1.11957 4.89664 0
M  V30 13862 C 1306.55 2.90246 5.67482 0
M  V30 13863 C 1304.23 2.21426 5.69573 0
M  V30 13864 C 1305.23 3.10403 6.08391 0
M  V30 13865 O 1304.92 4.17977 6.86695 0
M  V30 13866 H 1304.65 0.0322847 0.675229 0
M  V30 13867 H 1307.2 0.740415 1.91591 0
M  V30 13868 H 1305.43 -1.07321 3.71509 0
M  V30 13869 H 1307.12 -0.755508 3.98807 0
M  V30 13870 H 1307.89 1.66204 4.55633 0
M  V30 13871 H 1303.77 0.436266 4.58931 0
M  V30 13872 H 1307.31 3.59724 5.97699 0
M  V30 13873 H 1303.21 2.36295 6.00695 0
M  V30 13874 H 1303.98 4.15738 7.05056 0
M  V30 13875 N 1306.64 -1.55279 0.269478 0
M  V30 13876 C 1307.89 -1.98649 -0.349522 0
M  V30 13877 C 1308.2 -1.16125 -1.57399 0
M  V30 13878 O 1309.41 -1.49612 -2.26558 0
M  V30 13879 C 1307.86 -3.53547 -0.673224 0
M  V30 13880 C 1307.47 -4.44841 0.531119 0
M  V30 13881 C 1309.22 -4.05519 -1.25516 0
M  V30 13882 C 1307.12 -5.91119 0.182317 0
M  V30 13883 H 1306.05 -0.74193 -0.13437 0
M  V30 13884 H 1308.7 -1.79664 0.373246 0
M  V30 13885 H 1307.09 -3.68311 -1.45474 0
M  V30 13886 H 1308.26 -4.41843 1.3081 0
M  V30 13887 H 1306.58 -4.03472 1.02952 0
M  V30 13888 H 1309.17 -5.12347 -1.52984 0
M  V30 13889 H 1309.52 -3.54215 -2.18718 0
M  V30 13890 H 1310.05 -3.94172 -0.536059 0
M  V30 13891 H 1306.79 -6.46507 1.08206 0
M  V30 13892 H 1306.31 -5.97199 -0.558008 0
M  V30 13893 H 1307.99 -6.466 -0.227484 0
M  V30 13894 N 1308.12 0.00332656 -1.576 0
M  V30 13895 C 1309.36 0.68989 -1.90705 0
M  V30 13896 C 1309.7 1.73608 -0.870291 0
M  V30 13897 O 1308.97 1.94181 0.111416 0
M  V30 13898 C 1309.26 1.33605 -3.34397 0
M  V30 13899 C 1309.11 0.301638 -4.48787 0
M  V30 13900 C 1310.43 2.26313 -3.77453 0
M  V30 13901 H 1307.55 0.249328 -0.693545 0
M  V30 13902 H 1310.19 -0.0472847 -1.89941 0
M  V30 13903 H 1308.34 1.96437 -3.35179 0
M  V30 13904 H 1310.01 -0.326738 -4.60141 0
M  V30 13905 H 1308.25 -0.376451 -4.32163 0
M  V30 13906 H 1308.92 0.792741 -5.46278 0
M  V30 13907 H 1311.4 1.73502 -3.78201 0
M  V30 13908 H 1310.28 2.68492 -4.78752 0
M  V30 13909 H 1310.54 3.14082 -3.11135 0
M  V30 13910 N 1309.6 1.55164 0.276031 0
M  V30 13911 C 1311.01 1.66367 0.847293 0
M  V30 13912 C 1311.36 0.588692 1.8716 0
M  V30 13913 O 1310.48 -0.27035 2.14705 0
M  V30 13914 C 1311.08 3.01593 1.5436 0
M  V30 13915 C 1309.64 3.14833 2.06293 0
M  V30 13916 C 1308.78 2.62152 0.903959 0
M  V30 13917 H 1311.74 1.58613 0.0524478 0
M  V30 13918 H 1311.76 2.94412 2.41043 0
M  V30 13919 H 1311.27 3.7981 0.797849 0
M  V30 13920 H 1309.37 2.41384 2.83839 0
M  V30 13921 H 1309.48 4.21353 2.28032 0
M  V30 13922 H 1307.85 2.19233 1.29649 0
M  V30 13923 H 1308.63 3.4287 0.171765 0
M  V30 13924 N 1311.07 -0.540404 1.48045 0
M  V30 13925 C 1312.02 -1.66695 1.62221 0
M  V30 13926 C 1313.02 -1.6219 0.488943 0
M  V30 13927 O 1314.22 -1.67173 0.66732 0
M  V30 13928 H 1310.6 -0.551868 0.510828 0
M  V30 13929 H 1312.57 -1.51879 2.56856 0
M  V30 13930 C 1311.32 -3.05002 1.6694 0
M  V30 13931 H 1310.64 -3.09157 2.53499 0
M  V30 13932 H 1312.08 -3.8347 1.80904 0
M  V30 13933 C 1310.54 -3.34445 0.40598 0
M  V30 13934 O 1311.07 -3.98753 -0.485676 0
M  V30 13935 N 1309.28 -2.8924 0.280857 0
M  V30 13936 H 1308.82 -2.37085 1.00741 0
M  V30 13937 H 1308.78 -3.09309 -0.563493 0
M  V30 13938 N 1312.55 -1.36459 -0.788468 0
M  V30 13939 C 1313.48 -1.33545 -1.91541 0
M  V30 13940 C 1314.46 -0.206762 -1.68839 0
M  V30 13941 O 1315.65 -0.404553 -1.89939 0
M  V30 13942 C 1312.78 -1.12492 -3.28577 0
M  V30 13943 C 1311.73 -2.22196 -3.65805 0
M  V30 13944 C 1311.06 -1.86285 -5.01201 0
M  V30 13945 C 1312.36 -3.64286 -3.7429 0
M  V30 13946 H 1314.05 -2.27844 -1.94236 0
M  V30 13947 H 1311.6 -1.09677 -0.933105 0
M  V30 13948 H 1313.55 -1.09089 -4.07035 0
M  V30 13949 H 1312.28 -0.146446 -3.26272 0
M  V30 13950 H 1310.93 -2.24727 -2.89644 0
M  V30 13951 H 1310.58 -0.87009 -4.95417 0
M  V30 13952 H 1310.28 -2.59734 -5.27079 0
M  V30 13953 H 1311.81 -1.84439 -5.82078 0
M  V30 13954 H 1313.22 -3.63977 -4.42937 0
M  V30 13955 H 1311.62 -4.36648 -4.11653 0
M  V30 13956 H 1312.69 -3.99123 -2.75371 0
M  V30 13957 N 1314.03 1.01274 -1.20754 0
M  V30 13958 C 1315.28 1.74932 -1.02005 0
M  V30 13959 C 1315.61 1.89285 0.447372 0
M  V30 13960 O 1314.86 1.41838 1.34835 0
M  V30 13961 C 1315.16 3.16862 -1.65329 0
M  V30 13962 C 1314.83 3.22476 -3.15151 0
M  V30 13963 C 1313.49 3.23715 -3.56036 0
M  V30 13964 C 1315.84 3.20332 -4.11141 0
M  V30 13965 C 1313.17 3.20487 -4.91431 0
M  V30 13966 C 1315.52 3.18646 -5.46487 0
M  V30 13967 C 1314.18 3.18191 -5.8678 0
M  V30 13968 H 1313.45 0.640121 -0.373264 0
M  V30 13969 H 1316.1 1.18751 -1.50234 0
M  V30 13970 H 1314.41 3.76225 -1.09372 0
M  V30 13971 H 1316.1 3.72556 -1.48333 0
M  V30 13972 H 1312.69 3.22249 -2.82584 0
M  V30 13973 H 1316.88 3.18541 -3.80585 0
M  V30 13974 H 1312.13 3.18468 -5.21908 0
M  V30 13975 H 1316.31 3.1594 -6.20609 0
M  V30 13976 H 1313.93 3.15443 -6.91664 0
M  V30 13977 O 1315.55 1.14119 1.14277 0
M  V30 13978 H 1316.24 0.861155 1.73505 0
M  V30 END ATOM
M  V30 BEGIN BOND
M  V30 END BOND
M  V30 END CTAB
M  END
$$$$
