drugbank_target|Q06110 Antitumor antibiotic C-1027 apoprotein (DB03933)
 OpenBabel12092120033D

  0  0  0     0  0            999 V3000
M  V30 BEGIN CTAB
M  V30 COUNTS 1909 1926 0 0 0
M  V30 BEGIN ATOM
M  V30 1 H -0.908 1.98254 -0.117106 0
M  V30 2 N 0 1.576 0 0
M  V30 3 C 0.933 2.03868 1.02534 0
M  V30 4 C 1.911 0.928543 1.3348 0
M  V30 5 O 3.095 1.19667 1.45644 0
M  V30 6 C 0.222 2.43627 2.35294 0
M  V30 7 C -0.732 3.65373 2.2001 0
M  V30 8 S 0.101 5.13292 1.52614 0
M  V30 9 C 1.257 5.56322 2.86805 0
M  V30 10 H 1.49 2.90518 0.631377 0
M  V30 11 H -0.977 1.52953 0.210867 0
M  V30 12 H 0.981 2.67203 3.11629 0
M  V30 13 H -0.358 1.57376 2.7183 0
M  V30 14 H -1.165 3.90944 3.18086 0
M  V30 15 H -1.563 3.418 1.51819 0
M  V30 16 H 0.729 5.58782 3.83104 0
M  V30 17 H 1.672 6.56266 2.65933 0
M  V30 18 H 2.08 4.83886 2.90714 0
M  V30 19 N 1.4781 -0.272755 1.55222 0
M  V30 20 C 2.7031 -1.02683 1.80197 0
M  V30 21 C 3.1281 -1.79142 0.573551 0
M  V30 22 O 2.4861 -1.74917 -0.476849 0
M  V30 23 C 2.5341 -1.9609 3.02624 0
M  V30 24 O 1.6381 -3.04863 2.77727 0
M  V30 25 H 0.9791 -0.293557 0.595584 0
M  V30 26 H 3.5091 -0.30159 2.02365 0
M  V30 27 H 3.5191 -2.38039 3.31363 0
M  V30 28 H 2.1941 -1.39851 3.91682 0
M  V30 29 H 0.7711 -2.67228 2.60084 0
M  V30 30 N 2.9562 -1.48159 -0.537278 0
M  V30 31 C 3.8862 -1.65029 -1.6519 0
M  V30 32 C 4.8672 -0.499281 -1.62607 0
M  V30 33 O 6.0522 -0.730972 -1.79918 0
M  V30 34 C 3.1822 -1.68303 -3.03795 0
M  V30 35 C 2.1362 -2.8283 -3.21234 0
M  V30 36 C 1.4622 -2.71189 -4.60826 0
M  V30 37 C 2.7622 -4.24211 -3.04701 0
M  V30 38 H 4.4562 -2.58341 -1.51328 0
M  V30 39 H 2.0022 -1.24325 -0.726585 0
M  V30 40 H 3.9552 -1.78693 -3.81637 0
M  V30 41 H 2.6792 -0.715635 -3.18663 0
M  V30 42 H 1.3382 -2.71983 -2.45807 0
M  V30 43 H 0.9862 -1.72435 -4.7252 0
M  V30 44 H 0.6862 -3.48035 -4.7344 0
M  V30 45 H 2.2102 -2.83537 -5.40777 0
M  V30 46 H 3.6242 -4.3593 -3.72341 0
M  V30 47 H 2.0212 -5.01998 -3.28813 0
M  V30 48 H 3.0912 -4.41184 -2.01209 0
M  V30 49 N 4.4343 0.785586 -1.36625 0
M  V30 50 C 5.8503 1.08419 -1.17122 0
M  V30 51 C 6.0503 2.015 0.00208491 0
M  V30 52 O 5.1063 2.43551 0.666278 0
M  V30 53 C 6.4193 1.69498 -2.48377 0
M  V30 54 C 7.9673 1.81821 -2.54775 0
M  V30 55 C 8.4423 2.46315 -3.86126 0
M  V30 56 N 9.9333 2.53779 -3.87492 0
M  V30 57 C 10.6683 3.045 -4.85868 0
M  V30 58 N 10.1643 3.55499 -5.94637 0
M  V30 59 N 11.9573 3.03247 -4.73284 0
M  V30 60 H 4.1083 0.167264 -2.1174 0
M  V30 61 H 6.3713 0.13682 -0.938075 0
M  V30 62 H 6.0773 1.08571 -3.34522 0
M  V30 63 H 5.9513 2.6896 -2.64462 0
M  V30 64 H 8.3383 2.41884 -1.69045 0
M  V30 65 H 8.4193 0.811532 -2.42586 0
M  V30 66 H 8.0633 1.86895 -4.72263 0
M  V30 67 H 7.9933 3.47561 -3.95612 0
M  V30 68 H 10.4843 2.17672 -3.08913 0
M  V30 69 H 10.7973 3.92562 -6.65669 0
M  V30 70 H 9.1423 3.5364 -5.98301 0
M  V30 71 H 12.3333 2.62696 -3.87438 0
M  V30 72 H 12.5063 3.42467 -5.50109 0
M  V30 73 N 5.9124 1.20967 1.01018 0
M  V30 74 C 6.8624 0.93182 2.08089 0
M  V30 75 C 7.8464 -0.110898 1.60517 0
M  V30 76 O 9.0384 0.0973392 1.76732 0
M  V30 77 C 6.1674 0.492719 3.39746 0
M  V30 78 C 5.2534 1.56922 3.94 0
M  V30 79 N 5.6444 2.79312 4.21686 0
M  V30 80 C 3.9424 1.43688 4.2222 0
M  V30 81 C 4.6434 3.48797 4.65527 0
M  V30 82 N 3.6194 2.76224 4.68189 0
M  V30 83 H 7.4214 1.86175 2.27412 0
M  V30 84 H 4.9354 1.10463 1.19045 0
M  V30 85 H 6.9324 0.275044 4.15992 0
M  V30 86 H 5.5924 -0.430509 3.21833 0
M  V30 87 H 6.6034 3.15903 4.10397 0
M  V30 88 H 3.2804 0.578548 4.13472 0
M  V30 89 H 4.6704 4.53561 4.95714 0
M  V30 90 N 7.3905 -1.2043 1.01659 0
M  V30 91 C 8.3235 -2.21924 0.531521 0
M  V30 92 C 9.3015 -1.57054 -0.421032 0
M  V30 93 O 10.4855 -1.85389 -0.341035 0
M  V30 94 C 7.6125 -3.37942 -0.226496 0
M  V30 95 C 6.6585 -4.21115 0.67561 0
M  V30 96 S 7.4915 -4.90674 2.14475 0
M  V30 97 C 8.6475 -6.10113 1.3969 0
M  V30 98 H 8.8805 -2.62725 1.3915 0
M  V30 99 H 6.4135 -1.30481 0.825479 0
M  V30 100 H 8.3715 -4.05196 -0.657738 0
M  V30 101 H 7.0325 -2.956 -1.06205 0
M  V30 102 H 6.2255 -5.03918 0.091108 0
M  V30 103 H 5.8275 -3.59115 1.04463 0
M  V30 104 H 8.1195 -6.7411 0.676897 0
M  V30 105 H 9.0625 -6.73022 2.20107 0
M  V30 106 H 9.4705 -5.57283 0.899786 0
M  V30 107 N 8.8686 -0.792821 -1.36206 0
M  V30 108 C 10.0936 -0.377701 -2.03932 0
M  V30 109 C 10.5186 0.998947 -1.59382 0
M  V30 110 O 9.8766 1.64421 -0.763903 0
M  V30 111 C 9.9246 -0.453635 -3.57735 0
M  V30 112 O 9.0286 0.538151 -4.08874 0
M  V30 113 H 8.3696 -0.159855 -0.644471 0
M  V30 114 H 10.8996 -1.07488 -1.7409 0
M  V30 115 H 10.9096 -0.318464 -4.06755 0
M  V30 116 H 9.5846 -1.45784 -3.89512 0
M  V30 117 H 8.1616 0.364359 -3.71116 0
M  V30 118 N 10.3467 1.47872 -0.545128 0
M  V30 119 C 11.7627 1.5829 -0.204032 0
M  V30 120 C 11.9627 1.54529 1.29317 0
M  V30 121 O 11.0187 1.44232 2.07252 0
M  V30 122 C 12.3317 2.89304 -0.819987 0
M  V30 123 C 13.8797 3.02864 -0.790105 0
M  V30 124 C 14.3547 4.3656 -1.38491 0
M  V30 125 N 15.8457 4.43165 -1.34755 0
M  V30 126 C 16.5807 5.45153 -1.77753 0
M  V30 127 N 16.0767 6.54016 -2.2855 0
M  V30 128 N 17.8697 5.36125 -1.68897 0
M  V30 129 H 10.0207 1.4856 -1.51802 0
M  V30 130 H 12.2837 0.706305 -0.632327 0
M  V30 131 H 11.9897 2.97757 -1.87173 0
M  V30 132 H 11.8637 3.75957 -0.305915 0
M  V30 133 H 14.2507 2.94014 0.252913 0
M  V30 134 H 14.3317 2.17782 -1.34181 0
M  V30 135 H 13.9757 4.46164 -2.42693 0
M  V30 136 H 13.9057 5.20353 -0.808754 0
M  V30 137 H 16.3967 3.65083 -0.975855 0
M  V30 138 H 16.7097 7.27994 -2.59314 0
M  V30 139 H 15.0547 6.54938 -2.32553 0
M  V30 140 H 18.2457 4.49975 -1.28998 0
M  V30 141 H 18.4187 6.15472 -2.02726 0
M  V30 142 N 11.8248 0.280983 1.55075 0
M  V30 143 C 13.2408 -0.0729964 1.59433 0
M  V30 144 C 13.4408 -1.5411 1.29817 0
M  V30 145 O 12.4968 -2.29086 1.06187 0
M  V30 146 C 13.8098 0.306921 2.9913 0
M  V30 147 C 15.3578 0.254023 3.11968 0
M  V30 148 C 15.8328 0.608467 4.5394 0
M  V30 149 N 17.3238 0.560241 4.59799 0
M  V30 150 C 18.0588 0.80722 5.6769 0
M  V30 151 N 17.5548 1.11912 6.83701 0
M  V30 152 N 19.3478 0.735623 5.57266 0
M  V30 153 H 11.4988 1.238 1.7259 0
M  V30 154 H 13.7618 0.500547 0.805082 0
M  V30 155 H 13.4678 1.32816 3.25657 0
M  V30 156 H 13.3418 -0.349363 3.75579 0
M  V30 157 H 15.7288 -0.75794 2.852 0
M  V30 158 H 15.8098 0.944649 2.37718 0
M  V30 159 H 15.4538 1.61814 4.81434 0
M  V30 160 H 15.3838 -0.104013 5.26497 0
M  V30 161 H 17.8748 0.329288 3.76463 0
M  V30 162 H 18.1878 1.29409 7.61888 0
M  V30 163 H 16.5328 1.15695 6.85303 0
M  V30 164 H 19.7238 0.491752 4.6551 0
M  V30 165 H 19.8968 0.931482 6.4127 0
M  V30 166 N 13.3029 -1.57598 0.00835791 0
M  V30 167 C 14.2659 -2.07884 -0.965242 0
M  V30 168 C 15.2659 -0.989825 -1.26725 0
M  V30 169 O 16.4559 -1.25218 -1.21104 0
M  V30 170 C 13.5879 -2.52731 -2.28779 0
M  V30 171 H 14.7809 -2.95178 -0.530112 0
M  V30 172 H 12.3339 -1.54458 -0.239283 0
M  V30 173 H 13.0689 -1.68705 -2.76964 0
M  V30 174 H 12.8539 -3.32272 -2.08177 0
M  V30 175 H 14.3439 -2.91933 -2.98605 0
M  V30 176 N 14.781 0.264519 -1.55364 0
M  V30 177 C 16.006 1.01726 -1.80739 0
M  V30 178 C 16.431 1.78836 -0.583044 0
M  V30 179 O 15.789 1.75167 0.467566 0
M  V30 180 C 15.837 1.94482 -3.03659 0
M  V30 181 O 14.941 3.03386 -2.7934 0
M  V30 182 H 14.282 0.290395 -0.597132 0
M  V30 183 H 16.812 0.290854 -2.02522 0
M  V30 184 H 16.822 2.36278 -3.32621 0
M  V30 185 H 15.497 1.37772 -3.92418 0
M  V30 186 H 14.074 2.65844 -2.61498 0
M  V30 187 N 16.2591 1.48442 0.529413 0
M  V30 188 C 17.6751 1.34575 0.858004 0
M  V30 189 C 17.8751 0.3572 1.98309 0
M  V30 190 O 16.9311 -0.221379 2.51528 0
M  V30 191 C 18.2441 2.74617 1.22499 0
M  V30 192 C 19.7921 2.83109 1.33484 0
M  V30 193 C 20.2671 4.23854 1.73526 0
M  V30 194 N 21.7581 4.2653 1.80628 0
M  V30 195 C 22.4931 5.32372 2.12997 0
M  V30 196 N 21.9891 6.48491 2.43786 0
M  V30 197 N 23.7821 5.19766 2.14008 0
M  V30 198 H 15.9331 2.1133 -0.212925 0
M  V30 199 H 18.1961 0.947439 -0.0326199 0
M  V30 200 H 17.9021 3.4852 0.471905 0
M  V30 201 H 17.7761 3.08177 2.17501 0
M  V30 202 H 20.1631 2.09462 2.0787 0
M  V30 203 H 20.2441 2.53168 0.366027 0
M  V30 204 H 19.8881 4.98018 0.997013 0
M  V30 205 H 19.8181 4.5124 2.71459 0
M  V30 206 H 22.3091 3.42772 1.59108 0
M  V30 207 H 22.6221 7.24993 2.67592 0
M  V30 208 H 20.9671 6.51765 2.41304 0
M  V30 209 H 24.1581 4.28066 1.89412 0
M  V30 210 H 24.3311 6.02354 2.38902 0
M  V30 211 N 17.7372 -0.778329 1.37039 0
M  V30 212 C 18.9842 -1.53665 1.31884 0
M  V30 213 C 19.3122 -1.9425 -0.0986303 0
M  V30 214 O 18.5672 -1.63832 -1.07041 0
M  V30 215 C 18.8662 -2.81845 2.19768 0
M  V30 216 C 18.5322 -2.60345 3.68146 0
M  V30 217 C 17.1942 -2.5419 4.08584 0
M  V30 218 C 19.5462 -2.40923 4.62175 0
M  V30 219 C 16.8742 -2.26594 5.41177 0
M  V30 220 C 19.2262 -2.14852 5.94997 0
M  V30 221 C 17.8902 -2.07137 6.34547 0
M  V30 222 H 17.1602 -0.562299 0.482598 0
M  V30 223 H 19.8072 -0.897069 1.69189 0
M  V30 224 H 18.1122 -3.50328 1.75436 0
M  V30 225 H 19.8092 -3.39692 2.13097 0
M  V30 226 H 16.3992 -2.65996 3.36072 0
M  V30 227 H 20.5832 -2.44673 4.31797 0
M  V30 228 H 15.8392 -2.19111 5.70789 0
M  V30 229 H 20.0132 -1.98822 6.67415 0
M  V30 230 H 17.6402 -1.85518 7.37216 0
M  V30 231 N 19.2153 -1.21501 -1.00376 0
M  V30 232 C 20.4633 -1.03095 -1.73827 0
M  V30 233 C 20.7843 0.436341 -1.90055 0
M  V30 234 O 20.0543 1.31466 -1.45236 0
M  V30 235 H 18.6343 -0.378487 -0.644016 0
M  V30 236 H 21.2963 -1.52831 -1.20949 0
M  V30 237 H 20.3923 -1.49991 -2.73695 0
M  V30 238 N 20.6934 1.19889 -1.02296 0
M  V30 239 C 21.9394 1.89701 -0.717033 0
M  V30 240 C 22.2724 1.7905 0.751989 0
M  V30 241 O 21.5474 1.17891 1.547 0
M  V30 242 C 21.8304 3.40858 -1.16136 0
M  V30 243 C 21.6834 3.60411 -2.69117 0
M  V30 244 C 23.0024 4.33876 -0.737549 0
M  V30 245 H 20.1214 0.688874 -0.261957 0
M  V30 246 H 22.7634 1.41154 -1.27183 0
M  V30 247 H 20.9134 3.82335 -0.689342 0
M  V30 248 H 22.5854 3.28145 -3.2422 0
M  V30 249 H 20.8284 3.03665 -3.0979 0
M  V30 250 H 21.4994 4.66396 -2.95261 0
M  V30 251 H 23.9754 4.00081 -1.14344 0
M  V30 252 H 22.8514 5.38242 -1.0764 0
M  V30 253 H 23.1124 4.40628 0.360436 0
M  V30 254 N 22.1715 0.800033 1.35784 0
M  V30 255 C 23.4175 0.377901 1.99248 0
M  V30 256 C 23.7505 -1.05052 1.63333 0
M  V30 257 O 23.0255 -1.72768 0.893385 0
M  V30 258 C 23.3085 0.553922 3.55814 0
M  V30 259 C 23.1615 2.0268 4.01548 0
M  V30 260 C 24.4805 -0.0244802 4.40093 0
M  V30 261 H 21.5995 0.138782 0.723815 0
M  V30 262 H 24.2415 1.00835 1.61035 0
M  V30 263 H 22.3915 0.0172398 3.88496 0
M  V30 264 H 24.0635 2.62536 3.79305 0
M  V30 265 H 22.3065 2.5256 3.52698 0
M  V30 266 H 22.9775 2.10087 5.10458 0
M  V30 267 H 25.4535 0.433775 4.13833 0
M  V30 268 H 24.3295 0.128637 5.48749 0
M  V30 269 H 24.5905 -1.11758 4.27741 0
M  V30 270 N 23.6496 -1.47581 0.552962 0
M  V30 271 C 24.6126 -2.28439 -0.186605 0
M  V30 272 C 25.6126 -1.36706 -0.84665 0
M  V30 273 O 26.8026 -1.59378 -0.703164 0
M  V30 274 C 23.9346 -3.16264 -1.2724 0
M  V30 275 H 25.1276 -2.95294 0.523609 0
M  V30 276 H 22.6806 -1.532 0.309745 0
M  V30 277 H 23.4156 -2.54091 -2.01514 0
M  V30 278 H 23.2006 -3.83769 -0.803968 0
M  V30 279 H 24.6906 -3.77198 -1.79196 0
M  V30 280 N 25.1277 -0.289203 -1.54924 0
M  V30 281 C 26.3737 0.323998 -2.00195 0
M  V30 282 C 26.7067 1.54441 -1.17735 0
M  V30 283 O 25.9817 1.92875 -0.250878 0
M  V30 284 C 26.2647 0.692276 -3.53383 0
M  V30 285 C 26.1177 -0.536457 -4.46589 0
M  V30 286 C 27.4367 1.52335 -4.12895 0
M  V30 287 H 24.5557 0.116289 -0.727768 0
M  V30 288 H 27.1977 -0.398954 -1.85764 0
M  V30 289 H 25.3477 1.30822 -3.65811 0
M  V30 290 H 27.0197 -1.17499 -4.46085 0
M  V30 291 H 25.2627 -1.17192 -4.1767 0
M  V30 292 H 25.9337 -0.234806 -5.515 0
M  V30 293 H 28.4097 1.00302 -4.0383 0
M  V30 294 H 27.2857 1.74982 -5.20262 0
M  V30 295 H 27.5467 2.50886 -3.64018 0
M  V30 296 N 26.6058 1.57591 -0.0167156 0
M  V30 297 C 27.5688 2.08393 0.954204 0
M  V30 298 C 28.5688 0.996531 1.26198 0
M  V30 299 O 29.7588 1.25858 1.20438 0
M  V30 300 C 26.8908 2.5394 2.27436 0
M  V30 301 H 28.0838 2.95455 0.514451 0
M  V30 302 H 25.6368 1.54582 0.231089 0
M  V30 303 H 26.3718 1.70171 2.76066 0
M  V30 304 H 26.1568 3.33371 2.06412 0
M  V30 305 H 27.6468 2.93512 2.97053 0
M  V30 306 N 28.0839 -0.256276 1.55502 0
M  V30 307 C 29.3089 -1.00766 1.81276 0
M  V30 308 C 29.7339 -1.78524 0.59252 0
M  V30 309 O 29.0919 -1.75413 -0.45827 0
M  V30 310 C 29.1399 -1.92869 3.04687 0
M  V30 311 O 28.2439 -3.019 2.80945 0
M  V30 312 H 27.5849 -0.287224 0.598664 0
M  V30 313 H 30.1149 -0.280109 2.02674 0
M  V30 314 H 30.1249 -2.34511 3.33869 0
M  V30 315 H 28.7999 -1.35689 3.93143 0
M  V30 316 H 27.3769 -2.64454 2.62904 0
M  V30 317 N 29.562 -1.4872 -0.521534 0
M  V30 318 C 30.811 -1.56419 -1.27341 0
M  V30 319 C 31.124 -0.246805 -1.94037 0
M  V30 320 O 32.33 -0.202122 -2.70747 0
M  V30 321 C 30.786 -2.75896 -2.31105 0
M  V30 322 C 30.394 -4.14311 -1.70441 0
M  V30 323 C 32.138 -2.92913 -3.07249 0
M  V30 324 C 30.045 -5.25038 -2.72194 0
M  V30 325 H 28.975 -0.582344 -0.478949 0
M  V30 326 H 31.626 -1.75071 -0.549779 0
M  V30 327 H 30.008 -2.50697 -3.06541 0
M  V30 328 H 31.182 -4.49564 -1.01136 0
M  V30 329 H 29.497 -4.02482 -1.06759 0
M  V30 330 H 32.094 -3.72805 -3.83302 0
M  V30 331 H 32.437 -2.02689 -3.63625 0
M  V30 332 H 32.97 -3.18054 -2.38928 0
M  V30 333 H 29.709 -6.17255 -2.20627 0
M  V30 334 H 29.229 -4.94263 -3.39801 0
M  V30 335 H 30.908 -5.53508 -3.35019 0
M  V30 336 N 31.0401 0.771051 -1.3745 0
M  V30 337 C 32.2881 1.52661 -1.32435 0
M  V30 338 C 32.6091 1.9479 0.0905024 0
M  V30 339 O 31.8791 1.66348 1.03466 0
M  V30 340 H 30.4591 0.566218 -0.487244 0
M  V30 341 H 33.1211 0.917636 -1.71946 0
M  V30 342 H 32.2171 2.42568 -1.96385 0
M  V30 343 N 32.5182 1.22032 0.997298 0
M  V30 344 C 33.4482 1.01065 2.10495 0
M  V30 345 C 34.4292 -0.0669542 1.69968 0
M  V30 346 O 35.6142 0.0943987 1.9397 0
M  V30 347 C 32.7442 0.582874 3.42374 0
M  V30 348 C 31.6982 1.60592 3.96729 0
M  V30 349 C 31.0242 1.03412 5.24605 0
M  V30 350 C 32.3242 2.99478 4.27914 0
M  V30 351 H 34.0182 1.93708 2.28292 0
M  V30 352 H 31.5642 0.932761 1.09707 0
M  V30 353 H 33.5172 0.423332 4.19268 0
M  V30 354 H 32.2412 -0.379213 3.24391 0
M  V30 355 H 30.9002 1.75316 3.21963 0
M  V30 356 H 30.5482 0.063518 5.0296 0
M  V30 357 H 30.2482 1.71754 5.61938 0
M  V30 358 H 31.7722 0.886066 6.04137 0
M  V30 359 H 33.1862 2.88153 4.95622 0
M  V30 360 H 31.5832 3.64903 4.76409 0
M  V30 361 H 32.6532 3.49742 3.3587 0
M  V30 362 N 33.9963 -1.19345 1.0293 0
M  V30 363 C 34.9593 -2.20793 0.615069 0
M  V30 364 C 35.9593 -1.57553 -0.321533 0
M  V30 365 O 37.1493 -1.73862 -0.108483 0
M  V30 366 C 34.2813 -3.40754 -0.0999222 0
M  V30 367 H 35.4743 -2.58955 1.51269 0
M  V30 368 H 33.0273 -1.3303 0.820534 0
M  V30 369 H 33.7623 -3.0811 -1.01187 0
M  V30 370 H 33.5473 -3.87889 0.57309 0
M  V30 371 H 35.0373 -4.15898 -0.376645 0
M  V30 372 N 35.4744 -0.807222 -1.35358 0
M  V30 373 C 36.4374 -0.223665 -2.28106 0
M  V30 374 C 37.4374 0.589354 -1.4961 0
M  V30 375 O 38.6274 0.407745 -1.69361 0
M  V30 376 C 35.7594 0.688149 -3.33882 0
M  V30 377 H 36.9524 -1.04169 -2.81227 0
M  V30 378 H 34.5054 -0.577921 -1.45223 0
M  V30 379 H 35.2404 1.52984 -2.85948 0
M  V30 380 H 35.0254 0.10687 -3.91954 0
M  V30 381 H 36.5154 1.09075 -4.03104 0
M  V30 382 N 36.9525 1.47285 -0.560781 0
M  V30 383 C 37.9155 2.28535 0.174488 0
M  V30 384 C 38.9155 1.37153 0.839388 0
M  V30 385 O 40.1055 1.59748 0.694702 0
M  V30 386 C 37.2375 3.16934 1.25561 0
M  V30 387 H 38.4305 2.95012 -0.539262 0
M  V30 388 H 35.9835 1.53034 -0.317865 0
M  V30 389 H 36.7185 2.55157 2.00164 0
M  V30 390 H 36.5035 3.8419 0.783604 0
M  V30 391 H 37.9935 3.78143 1.77193 0
M  V30 392 N 38.4306 0.297415 1.54768 0
M  V30 393 C 39.3936 -0.567375 2.22066 0
M  V30 394 C 40.3936 -1.06409 1.20556 0
M  V30 395 O 41.5836 -0.960691 1.45315 0
M  V30 396 C 38.7156 -1.78517 2.90421 0
M  V30 397 H 39.9086 0.0205534 2.99893 0
M  V30 398 H 37.4616 0.0482163 1.56226 0
M  V30 399 H 38.1966 -2.41303 2.16664 0
M  V30 400 H 37.9816 -1.43669 3.64831 0
M  V30 401 H 39.4716 -2.39964 3.41771 0
M  V30 402 N 39.9087 -1.5758 0.0250728 0
M  V30 403 C 40.8407 -2.06869 -0.986796 0
M  V30 404 C 41.8537 -0.991332 -1.29137 0
M  V30 405 O 43.0427 -1.26761 -1.25674 0
M  V30 406 C 40.1427 -2.47486 -2.31525 0
M  V30 407 C 39.3157 -3.78253 -2.19643 0
M  V30 408 C 38.3747 -4.05464 -3.35388 0
M  V30 409 O 37.4007 -4.75774 -3.12454 0
M  V30 410 N 38.6027 -3.55321 -4.59051 0
M  V30 411 H 41.3677 -2.94302 -0.566276 0
M  V30 412 H 38.9287 -1.6109 -0.161776 0
M  V30 413 H 40.9207 -2.62785 -3.07776 0
M  V30 414 H 39.4907 -1.65441 -2.65232 0
M  V30 415 H 38.7107 -3.7279 -1.28144 0
M  V30 416 H 39.9987 -4.63936 -2.08903 0
M  V30 417 H 39.3967 -2.98431 -4.80578 0
M  V30 418 H 37.9537 -3.75905 -5.32483 0
M  V30 419 N 41.3868 0.248026 -1.55636 0
M  V30 420 C 42.6118 0.998028 -1.81808 0
M  V30 421 C 43.0368 1.78207 -0.601979 0
M  V30 422 O 42.3948 1.75653 0.448961 0
M  V30 423 C 42.4428 1.9125 -3.05705 0
M  V30 424 O 41.5468 3.00406 -2.82542 0
M  V30 425 H 40.8878 0.284045 -0.600179 0
M  V30 426 H 43.4178 0.269357 -2.02819 0
M  V30 427 H 43.4278 2.32737 -3.35108 0
M  V30 428 H 42.1028 1.33602 -3.93857 0
M  V30 429 H 40.6798 2.63056 -2.64303 0
M  V30 430 N 42.8649 1.48995 0.513639 0
M  V30 431 C 44.1109 1.58076 1.27042 0
M  V30 432 C 44.4439 0.261026 1.92438 0
M  V30 433 O 43.7189 -0.734393 1.80103 0
M  V30 434 C 44.0019 2.73091 2.34719 0
M  V30 435 C 43.8549 4.14821 1.73907 0
M  V30 436 C 45.1739 2.83796 3.36375 0
M  V30 437 H 42.2929 0.575391 0.460536 0
M  V30 438 H 44.9349 1.81232 0.570516 0
M  V30 439 H 43.0849 2.53479 2.94416 0
M  V30 440 H 44.7569 4.45917 1.18135 0
M  V30 441 H 42.9999 4.21058 1.0437 0
M  V30 442 H 43.6709 4.91147 2.51949 0
M  V30 443 H 46.1469 3.01611 2.86653 0
M  V30 444 H 45.0229 3.65971 4.09093 0
M  V30 445 H 45.2839 1.92624 3.9793 0
M  V30 446 N 44.343 -0.763751 1.37857 0
M  V30 447 C 45.306 -1.85889 1.34081 0
M  V30 448 C 46.306 -1.58949 0.243277 0
M  V30 449 O 47.496 -1.66882 0.499589 0
M  V30 450 C 44.628 -3.23176 1.08489 0
M  V30 451 H 45.821 -1.90648 2.31502 0
M  V30 452 H 43.374 -0.964367 1.23003 0
M  V30 453 H 44.109 -3.24091 0.116318 0
M  V30 454 H 43.894 -3.44124 1.8794 0
M  V30 455 H 45.384 -4.03254 1.08517 0
M  V30 456 N 45.8211 -1.22559 -0.990812 0
M  V30 457 C 47.0681 -1.05141 -1.73065 0
M  V30 458 C 47.3961 0.413191 -1.9006 0
M  V30 459 O 46.6511 1.32257 -1.44245 0
M  V30 460 C 46.9501 -1.71011 -3.13831 0
M  V30 461 C 46.6161 -3.20911 -3.16745 0
M  V30 462 C 45.2781 -3.61812 -3.17247 0
M  V30 463 C 47.6301 -4.16846 -3.12872 0
M  V30 464 C 44.9581 -4.97127 -3.1158 0
M  V30 465 C 47.3101 -5.5214 -3.08746 0
M  V30 466 C 45.9741 -5.92419 -3.07565 0
M  V30 467 H 45.2441 -0.384738 -0.633291 0
M  V30 468 H 47.8911 -1.5235 -1.16025 0
M  V30 469 H 46.1961 -1.16133 -3.74193 0
M  V30 470 H 47.8931 -1.55023 -3.69823 0
M  V30 471 H 44.4831 -2.88344 -3.17105 0
M  V30 472 H 48.6671 -3.86263 -3.11632 0
M  V30 473 H 43.9231 -5.27562 -3.09012 0
M  V30 474 H 48.0971 -6.26201 -3.04705 0
M  V30 475 H 45.7241 -6.97236 -3.02929 0
M  V30 476 N 47.2992 1.18797 -1.03562 0
M  V30 477 C 48.2622 2.20464 -0.626769 0
M  V30 478 C 49.2622 1.57721 0.313173 0
M  V30 479 O 50.4522 1.73917 0.0992615 0
M  V30 480 C 47.5842 3.40802 0.0818498 0
M  V30 481 H 48.7772 2.58149 -1.5264 0
M  V30 482 H 46.3302 1.32593 -0.827578 0
M  V30 483 H 47.0652 3.08642 0.995518 0
M  V30 484 H 46.8502 3.8758 -0.593652 0
M  V30 485 H 48.3402 4.16092 0.354584 0
M  V30 486 N 48.7773 0.814389 1.34928 0
M  V30 487 C 49.7403 0.235759 2.27984 0
M  V30 488 C 50.7403 -0.581412 1.49921 0
M  V30 489 O 51.9303 -0.398758 1.69575 0
M  V30 490 C 49.0623 -0.670433 3.34242 0
M  V30 491 H 50.2553 1.05659 2.80671 0
M  V30 492 H 47.8083 0.585614 1.44915 0
M  V30 493 H 48.5433 -1.51466 2.86755 0
M  V30 494 H 48.3283 -0.0860822 3.92005 0
M  V30 495 H 49.8183 -1.06935 4.03676 0
M  V30 496 N 50.2554 -1.46986 0.568584 0
M  V30 497 C 51.6664 -1.86188 0.138219 0
M  V30 498 C 52.0174 -1.47388 -1.29504 0
M  V30 499 O 51.1424 -0.88219 -1.97602 0
M  V30 500 C 51.7374 -3.3792 0.244065 0
M  V30 501 C 50.2964 -3.76171 -0.131335 0
M  V30 502 C 49.4434 -2.71027 0.586465 0
M  V30 503 H 52.3944 -1.38342 0.777645 0
M  V30 504 H 52.4154 -3.76729 -0.534351 0
M  V30 505 H 51.9274 -3.66128 1.28731 0
M  V30 506 H 50.0284 -3.5358 -1.17526 0
M  V30 507 H 50.1414 -4.78523 0.235146 0
M  V30 508 H 48.5054 -2.54684 0.0282722 0
M  V30 509 H 49.2884 -3.02077 1.63109 0
M  V30 510 N 51.7335 -0.305618 -1.54608 0
M  V30 511 C 52.6965 0.555591 -2.22364 0
M  V30 512 C 53.6965 1.05768 -1.21119 0
M  V30 513 O 54.8865 0.952972 -1.45822 0
M  V30 514 C 52.0185 1.76974 -2.91364 0
M  V30 515 H 53.2115 -0.0364572 -2.99878 0
M  V30 516 H 50.7645 -0.0565007 -1.56198 0
M  V30 517 H 51.4995 2.40151 -2.17941 0
M  V30 518 H 51.2845 1.41732 -3.65588 0
M  V30 519 H 52.7745 2.38148 -3.43038 0
M  V30 520 N 53.2116 1.57565 -0.0334293 0
M  V30 521 C 54.4586 1.91978 0.644272 0
M  V30 522 C 54.7866 0.910231 1.71887 0
M  V30 523 O 54.0416 -0.0801961 1.95536 0
M  V30 524 C 54.3406 3.33112 1.29504 0
M  V30 525 C 54.0066 4.49537 0.350388 0
M  V30 526 C 52.6686 4.81115 0.0903974 0
M  V30 527 C 55.0206 5.20347 -0.298032 0
M  V30 528 C 52.3486 5.8086 -0.825746 0
M  V30 529 C 54.7006 6.2107 -1.20226 0
M  V30 530 C 53.3646 6.51088 -1.4711 0
M  V30 531 H 52.6346 0.702496 0.235756 0
M  V30 532 H 55.2816 1.91259 -0.0961176 0
M  V30 533 H 53.5866 3.30113 2.11028 0
M  V30 534 H 55.2836 3.57011 1.82603 0
M  V30 535 H 51.8736 4.24883 0.563205 0
M  V30 536 H 56.0576 4.96178 -0.110234 0
M  V30 537 H 51.3136 6.02461 -1.04169 0
M  V30 538 H 55.4876 6.75057 -1.71086 0
M  V30 539 H 53.1146 7.28193 -2.18264 0
M  V30 540 N 54.6897 -0.239769 1.55765 0
M  V30 541 C 55.9147 -0.988373 1.82335 0
M  V30 542 C 56.3397 -1.77886 0.611421 0
M  V30 543 O 55.6977 -1.75889 -0.439639 0
M  V30 544 C 55.7457 -1.89627 3.06715 0
M  V30 545 O 54.8497 -2.98904 2.84131 0
M  V30 546 H 54.1907 -0.280858 0.601677 0
M  V30 547 H 56.7207 -0.258597 2.02959 0
M  V30 548 H 56.7307 -2.30957 3.36338 0
M  V30 549 H 55.4057 -1.31511 3.9456 0
M  V30 550 H 53.9827 -2.61651 2.65694 0
M  V30 551 N 56.1678 -1.49265 -0.50573 0
M  V30 552 C 57.4138 -1.58748 -1.26202 0
M  V30 553 C 57.7468 -0.271227 -1.92297 0
M  V30 554 O 57.0218 0.724831 -1.80489 0
M  V30 555 C 57.3048 -2.74332 -2.33268 0
M  V30 556 C 57.1578 -4.15737 -1.71705 0
M  V30 557 C 58.4768 -2.85576 -3.34865 0
M  V30 558 H 55.5958 -0.577826 -0.457478 0
M  V30 559 H 58.2378 -1.81532 -0.560897 0
M  V30 560 H 56.3878 -2.55036 -2.93068 0
M  V30 561 H 58.0598 -4.46537 -1.15769 0
M  V30 562 H 56.3028 -4.21605 -1.02135 0
M  V30 563 H 56.9738 -4.92477 -2.49341 0
M  V30 564 H 59.4498 -3.03127 -2.8505 0
M  V30 565 H 58.3258 -3.68135 -4.07146 0
M  V30 566 H 58.5868 -1.94732 -3.96903 0
M  V30 567 N 57.6459 0.756429 -1.3826 0
M  V30 568 C 58.8709 1.55077 -1.37717 0
M  V30 569 C 59.2959 1.88073 0.03164 0
M  V30 570 O 58.6539 1.50364 1.01293 0
M  V30 571 C 58.7019 2.8283 -2.23695 0
M  V30 572 O 57.8059 3.77862 -1.6521 0
M  V30 573 H 57.1469 0.469152 -0.469885 0
M  V30 574 H 59.6769 0.935019 -1.81985 0
M  V30 575 H 59.6869 3.31783 -2.37453 0
M  V30 576 H 58.3619 2.58144 -3.2609 0
M  V30 577 H 56.9389 3.36555 -1.60578 0
M  V30 578 N 59.124 1.23083 0.984299 0
M  V30 579 C 60.535 1.05609 1.5396 0
M  V30 580 C 60.886 -0.377793 1.92528 0
M  V30 581 O 60.011 -1.26398 1.75649 0
M  V30 582 C 60.606 1.91087 2.7977 0
M  V30 583 C 59.165 1.77885 3.31713 0
M  V30 584 C 58.312 1.87028 2.04733 0
M  V30 585 H 61.263 1.36802 0.804419 0
M  V30 586 H 61.284 1.43336 3.5247 0
M  V30 587 H 60.796 2.9544 2.51668 0
M  V30 588 H 58.897 0.762995 3.64704 0
M  V30 589 H 59.01 2.61047 4.01735 0
M  V30 590 H 57.374 1.30565 2.18689 0
M  V30 591 H 58.157 2.92929 1.79017 0
M  V30 592 N 60.6021 -1.18246 1.0419 0
M  V30 593 C 61.5651 -2.20128 0.638452 0
M  V30 594 C 62.5651 -1.57885 -0.304805 0
M  V30 595 O 63.7551 -1.73967 -0.0900369 0
M  V30 596 C 60.8871 -3.4084 -0.0637751 0
M  V30 597 H 62.0801 -2.57336 1.54007 0
M  V30 598 H 59.6331 -1.32152 0.834598 0
M  V30 599 H 60.3681 -3.09166 -0.979136 0
M  V30 600 H 60.1531 -3.8726 0.614198 0
M  V30 601 H 61.6431 -4.16274 -0.332512 0
M  V30 602 N 62.0802 -0.821533 -1.34494 0
M  V30 603 C 63.3052 -0.420873 -2.03085 0
M  V30 604 C 63.7302 0.964915 -1.61465 0
M  V30 605 O 63.0882 1.62763 -0.798607 0
M  V30 606 C 63.1362 -0.529414 -3.56693 0
M  V30 607 O 62.2402 0.451302 -4.09923 0
M  V30 608 H 61.5812 -0.173489 -0.640935 0
M  V30 609 H 64.1112 -1.11157 -1.71771 0
M  V30 610 H 64.1212 -0.404671 -4.05988 0
M  V30 611 H 62.7962 -1.54014 -3.86332 0
M  V30 612 H 61.3732 0.285558 -3.71805 0
M  V30 613 N 63.5583 1.46682 -0.576371 0
M  V30 614 C 64.8063 2.02013 -0.0594163 0
M  V30 615 C 65.1273 1.45101 1.30271 0
M  V30 616 O 64.3973 0.633317 1.8538 0
M  V30 617 H 62.9773 0.746759 -0.0189745 0
M  V30 618 H 65.6393 1.79862 -0.750717 0
M  V30 619 H 64.7353 3.12097 0.014345 0
M  V30 620 N 65.0364 0.313813 1.54444 0
M  V30 621 C 65.9664 -0.549454 2.26943 0
M  V30 622 C 66.9474 -1.12741 1.27372 0
M  V30 623 O 68.1324 -1.15436 1.56167 0
M  V30 624 C 65.2624 -1.71523 3.01989 0
M  V30 625 C 64.2164 -1.26703 4.08816 0
M  V30 626 C 63.5424 -2.51898 4.71647 0
M  V30 627 C 64.8424 -0.388962 5.2085 0
M  V30 628 H 66.5364 0.0552661 2.99349 0
M  V30 629 H 64.0824 0.0280207 1.43973 0
M  V30 630 H 66.0354 -2.32535 3.51433 0
M  V30 631 H 64.7594 -2.34639 2.27183 0
M  V30 632 H 63.4184 -0.679896 3.6024 0
M  V30 633 H 63.0664 -3.13356 3.93468 0
M  V30 634 H 62.7664 -2.22605 5.43802 0
M  V30 635 H 64.2904 -3.1369 5.23861 0
M  V30 636 H 65.7044 -0.905107 5.6611 0
M  V30 637 H 64.1014 -0.18924 5.99802 0
M  V30 638 H 65.1714 0.582699 4.81386 0
M  V30 639 N 66.5145 -1.57545 0.0417849 0
M  V30 640 C 67.7395 -1.97035 -0.647455 0
M  V30 641 C 68.1645 -0.918775 -1.64135 0
M  V30 642 O 67.5225 0.119006 -1.80909 0
M  V30 643 C 67.5705 -3.35609 -1.31905 0
M  V30 644 O 66.6745 -3.3287 -2.43457 0
M  V30 645 H 66.0155 -0.64211 -0.169086 0
M  V30 646 H 68.5455 -2.04318 0.107399 0
M  V30 647 H 68.5555 -3.72126 -1.67291 0
M  V30 648 H 67.2305 -4.11685 -0.590586 0
M  V30 649 H 65.8075 -3.08087 -2.10088 0
M  V30 650 N 67.9926 0.231505 -1.5589 0
M  V30 651 C 69.2696 0.981096 -1.69215 0
M  V30 652 C 69.6496 2.02799 -0.586164 0
M  V30 653 O 68.9976 2.24823 0.408253 0
M  V30 654 C 69.2076 1.60054 -3.10135 0
M  V30 655 C 70.5556 2.09658 -3.69227 0
M  V30 656 O 71.5796 1.69967 -3.13033 0
M  V30 657 O 70.4386 2.8258 -4.67772 0
M  V30 658 H 67.5326 0.457653 -0.688827 0
M  V30 659 H 70.0786 0.224073 -1.68214 0
M  V30 660 H 68.8506 0.844105 -3.82087 0
M  V30 661 H 68.4736 2.42336 -3.15212 0
M  V30 662 N 69.4707 1.49531 0.497807 0
M  V30 663 C 70.7187 1.58865 1.24926 0
M  V30 664 C 71.0397 0.278721 1.92998 0
M  V30 665 O 70.3097 -0.702144 1.82885 0
M  V30 666 H 68.8897 0.585343 0.464094 0
M  V30 667 H 71.5517 1.86174 0.57666 0
M  V30 668 H 70.6477 2.38633 2.01149 0
M  V30 669 N 70.9488 -0.749086 1.3866 0
M  V30 670 C 71.8808 -1.87273 1.32142 0
M  V30 671 C 72.8938 -1.61127 0.232787 0
M  V30 672 O 74.0828 -1.71623 0.49069 0
M  V30 673 C 71.1828 -3.23005 1.02571 0
M  V30 674 C 70.3558 -3.7662 2.22433 0
M  V30 675 C 69.4148 -4.90879 1.89537 0
M  V30 676 O 68.4408 -5.05276 2.62078 0
M  V30 677 N 69.6428 -5.74198 0.853031 0
M  V30 678 H 72.4078 -1.93373 2.28969 0
M  V30 679 H 69.9688 -0.929216 1.32579 0
M  V30 680 H 71.9608 -3.96992 0.786085 0
M  V30 681 H 70.5308 -3.12262 0.145249 0
M  V30 682 H 69.7508 -2.94147 2.62434 0
M  V30 683 H 71.0388 -4.09173 3.02415 0
M  V30 684 H 70.4368 -5.6514 0.25155 0
M  V30 685 H 68.9938 -6.48313 0.67329 0
M  V30 686 N 72.4269 -1.23603 -0.977757 0
M  V30 687 C 73.6519 -1.09735 -1.75991 0
M  V30 688 C 74.0769 0.346858 -1.84874 0
M  V30 689 O 73.4349 1.25093 -1.3123 0
M  V30 690 C 73.4829 -1.73051 -3.16363 0
M  V30 691 O 72.5869 -0.994452 -4.0023 0
M  V30 692 H 71.9279 -0.384476 -0.541364 0
M  V30 693 H 74.4579 -1.6371 -1.2272 0
M  V30 694 H 74.4679 -1.78398 -3.66931 0
M  V30 695 H 73.1429 -2.78137 -3.09213 0
M  V30 696 H 71.7199 -1.01812 -3.58732 0
M  V30 697 N 73.905 1.17692 -1.04816 0
M  V30 698 C 75.151 1.88137 -0.75711 0
M  V30 699 C 75.484 1.80604 0.713841 0
M  V30 700 O 74.759 1.21146 1.52164 0
M  V30 701 C 75.042 3.38318 -1.2334 0
M  V30 702 C 74.895 3.54622 -2.76701 0
M  V30 703 C 76.214 4.32214 -0.829415 0
M  V30 704 H 73.333 0.683163 -0.27651 0
M  V30 705 H 75.975 1.38424 -1.30149 0
M  V30 706 H 74.125 3.80787 -0.770286 0
M  V30 707 H 75.797 3.21194 -3.31107 0
M  V30 708 H 74.04 2.97026 -3.16161 0
M  V30 709 H 74.711 4.60028 -3.05088 0
M  V30 710 H 77.187 3.97565 -1.22805 0
M  V30 711 H 76.063 5.35838 -1.19033 0
M  V30 712 H 76.324 4.41294 0.266891 0
M  V30 713 N 75.3831 0.828654 1.34056 0
M  V30 714 C 76.6081 0.431637 2.02859 0
M  V30 715 C 77.0331 -0.956339 1.61975 0
M  V30 716 O 76.3911 -1.62338 0.807228 0
M  V30 717 C 76.4391 0.548323 3.56407 0
M  V30 718 O 75.5431 -0.429556 4.10157 0
M  V30 719 H 74.8841 0.176886 0.640006 0
M  V30 720 H 77.4141 1.12066 1.71179 0
M  V30 721 H 77.4241 0.426196 4.05768 0
M  V30 722 H 76.0991 1.5606 3.8551 0
M  V30 723 H 74.6761 -0.265836 3.71951 0
M  V30 724 N 76.8612 -1.46375 0.584142 0
M  V30 725 C 78.1072 -2.02678 0.0703716 0
M  V30 726 C 78.4402 -1.4545 -1.28678 0
M  V30 727 O 77.7152 -0.62014 -1.84349 0
M  V30 728 C 77.9982 -3.60099 0.00614674 0
M  V30 729 C 77.8512 -4.27709 1.3923 0
M  V30 730 C 79.1702 -4.34598 -0.693742 0
M  V30 731 H 76.2892 -0.736504 0.027047 0
M  V30 732 H 78.9312 -1.74501 0.751615 0
M  V30 733 H 77.0812 -3.84236 -0.574009 0
M  V30 734 H 78.7532 -4.14832 2.01773 0
M  V30 735 H 76.9962 -3.87016 1.95962 0
M  V30 736 H 77.6672 -5.36478 1.29982 0
M  V30 737 H 80.1432 -4.15615 -0.200869 0
M  V30 738 H 79.0192 -5.44318 -0.707714 0
M  V30 739 H 79.2802 -4.05759 -1.75533 0
M  V30 740 N 78.3393 -0.321999 -1.54275 0
M  V30 741 C 79.5643 0.285791 -2.05422 0
M  V30 742 C 79.9893 1.45124 -1.19669 0
M  V30 743 O 79.3473 1.80132 -0.205441 0
M  V30 744 C 79.3953 0.69956 -3.53749 0
M  V30 745 O 78.4993 1.8021 -3.70942 0
M  V30 746 H 77.8403 0.0518962 -0.661969 0
M  V30 747 H 80.3703 -0.469954 -1.9913 0
M  V30 748 H 80.3803 0.982649 -3.9599 0
M  V30 749 H 79.0553 -0.152864 -4.15619 0
M  V30 750 H 77.6323 1.51794 -3.40607 0
M  V30 751 N 79.8174 1.5752 -0.0501392 0
M  V30 752 C 81.0634 1.92936 0.624798 0
M  V30 753 C 81.3964 0.928685 1.70555 0
M  V30 754 O 80.6714 -0.0454779 1.94447 0
M  V30 755 C 80.9544 3.38737 1.22185 0
M  V30 756 C 80.8074 4.49552 0.149218 0
M  V30 757 C 82.1264 3.84913 2.13378 0
M  V30 758 H 79.2454 0.701604 0.225657 0
M  V30 759 H 81.8874 1.89671 -0.111693 0
M  V30 760 H 80.0374 3.4165 1.84953 0
M  V30 761 H 81.7094 4.58768 -0.482648 0
M  V30 762 H 79.9524 4.30638 -0.522841 0
M  V30 763 H 80.6234 5.48653 0.606966 0
M  V30 764 H 83.0994 3.8387 1.60572 0
M  V30 765 H 81.9754 4.87584 2.52097 0
M  V30 766 H 82.2364 3.21611 3.03346 0
M  V30 767 N 81.2955 -0.223234 1.56011 0
M  V30 768 C 82.5205 -0.968978 1.83373 0
M  V30 769 C 82.9455 -1.77227 0.630254 0
M  V30 770 O 82.3035 -1.76345 -0.420959 0
M  V30 771 C 82.3515 -1.86363 3.08709 0
M  V30 772 O 81.4555 -2.95873 2.87285 0
M  V30 773 H 80.7965 -0.274461 0.604622 0
M  V30 774 H 83.3265 -0.237056 2.03222 0
M  V30 775 H 83.3365 -2.27376 3.38768 0
M  V30 776 H 82.0115 -1.27319 3.95933 0
M  V30 777 H 80.5885 -2.58818 2.68454 0
M  V30 778 N 82.7736 -1.49793 -0.48987 0
M  V30 779 C 84.0216 -1.59525 -1.24081 0
M  V30 780 C 84.3426 -0.288953 -1.92847 0
M  V30 781 O 83.6126 0.692436 -1.83254 0
M  V30 782 H 82.1926 -0.587796 -0.460983 0
M  V30 783 H 84.8546 -1.86477 -0.566778 0
M  V30 784 H 83.9506 -2.39696 -1.99881 0
M  V30 785 N 84.2517 0.741722 -1.39055 0
M  V30 786 C 85.2147 1.83733 -1.37021 0
M  V30 787 C 86.2147 1.58542 -0.268534 0
M  V30 788 O 87.4047 1.66067 -0.526076 0
M  V30 789 C 84.5367 3.2141 -1.13617 0
M  V30 790 H 85.7297 1.86941 -2.34506 0
M  V30 791 H 83.2827 0.944676 -1.24521 0
M  V30 792 H 84.0177 3.23865 -0.167863 0
M  V30 793 H 83.8027 3.4109 -1.93391 0
M  V30 794 H 85.2927 4.01477 -1.14918 0
M  V30 795 N 85.7298 1.2412 0.971189 0
M  V30 796 C 86.6928 1.03156 2.04674 0
M  V30 797 C 87.6928 -0.00990322 1.60797 0
M  V30 798 O 88.8828 0.230729 1.72665 0
M  V30 799 C 86.0148 0.562765 3.36223 0
M  V30 800 H 87.2078 1.98614 2.24705 0
M  V30 801 H 84.7608 1.06293 1.14593 0
M  V30 802 H 85.4958 -0.395176 3.21883 0
M  V30 803 H 85.2808 1.31441 3.69413 0
M  V30 804 H 86.7708 0.437015 4.15307 0
M  V30 805 N 87.2079 -1.17134 1.05439 0
M  V30 806 C 88.1709 -2.19439 0.661764 0
M  V30 807 C 89.1709 -1.58199 -0.288042 0
M  V30 808 O 90.3609 -1.74053 -0.0715803 0
M  V30 809 C 87.4929 -3.40889 -0.0276209 0
M  V30 810 H 88.6859 -2.55688 1.56728 0
M  V30 811 H 86.2389 -1.31259 0.848567 0
M  V30 812 H 86.9739 -3.10187 -0.94629 0
M  V30 813 H 86.7589 -3.86586 0.655238 0
M  V30 814 H 88.2489 -4.16603 -0.288342 0
M  V30 815 N 88.686 -0.835752 -1.33615 0
M  V30 816 C 89.934 -0.429109 -1.97492 0
M  V30 817 C 90.255 1.01433 -1.66543 0
M  V30 818 O 89.525 1.70611 -0.962744 0
M  V30 819 H 88.105 -0.155686 -0.730596 0
M  V30 820 H 90.767 -1.06802 -1.63031 0
M  V30 821 H 89.863 -0.55861 -3.0706 0
M  V30 822 N 90.1641 1.46063 -0.591896 0
M  V30 823 C 91.0741 2.34192 0.13831 0
M  V30 824 C 92.0901 1.50305 0.876608 0
M  V30 825 O 93.2661 1.8315 0.837728 0
M  V30 826 C 90.3311 3.27656 1.13326 0
M  V30 827 C 89.3921 4.27445 0.39863 0
M  V30 828 C 88.6251 5.16443 1.34618 0
M  V30 829 O 88.8481 5.08553 2.58321 0
M  V30 830 O 87.7821 5.95843 0.851768 0
M  V30 831 H 91.6081 2.98002 -0.58552 0
M  V30 832 H 89.1931 1.45188 -0.352239 0
M  V30 833 H 91.0751 3.85291 1.70671 0
M  V30 834 H 89.7501 2.6643 1.83839 0
M  V30 835 H 88.6571 3.73471 -0.216895 0
M  V30 836 H 89.9901 4.91482 -0.265709 0
M  V30 837 N 91.6422 0.330177 1.54103 0
M  V30 838 C 92.8702 -0.272179 2.05102 0
M  V30 839 C 93.2852 -1.45267 1.20595 0
M  V30 840 O 92.6422 -1.8094 0.238144 0
M  V30 841 C 92.6932 -0.70023 3.54653 0
M  V30 842 O 92.4142 0.433301 4.35952 0
M  V30 843 C 93.9152 -1.3647 4.21771 0
M  V30 844 H 91.1352 -0.0549159 0.668749 0
M  V30 845 H 93.6792 0.478285 1.98828 0
M  V30 846 H 91.8342 -1.40066 3.61193 0
M  V30 847 H 92.2482 0.0947539 5.24414 0
M  V30 848 H 93.7222 -1.61509 5.27843 0
M  V30 849 H 94.1992 -2.31409 3.73292 0
M  V30 850 H 94.8052 -0.706675 4.19388 0
M  V30 851 N 93.1203 -1.57491 0.0584922 0
M  V30 852 C 94.3503 -1.9701 -0.622134 0
M  V30 853 C 94.7583 -0.935034 -1.6448 0
M  V30 854 O 94.1013 0.0882904 -1.83488 0
M  V30 855 C 94.1633 -3.32794 -1.35972 0
M  V30 856 C 93.8273 -4.54343 -0.492043 0
M  V30 857 C 94.8243 -5.19323 0.244901 0
M  V30 858 C 92.5093 -5.00534 -0.420821 0
M  V30 859 C 94.5033 -6.28835 1.04143 0
M  V30 860 C 92.1903 -6.09921 0.379389 0
M  V30 861 C 93.1883 -6.73933 1.10919 0
M  V30 862 O 92.8763 -7.81216 1.89623 0
M  V30 863 H 92.6083 -0.653127 -0.174359 0
M  V30 864 H 95.1623 -2.05029 0.123418 0
M  V30 865 H 93.3923 -3.21351 -2.15105 0
M  V30 866 H 95.0813 -3.5701 -1.93129 0
M  V30 867 H 95.8473 -4.8459 0.19939 0
M  V30 868 H 91.7263 -4.50496 -0.978474 0
M  V30 869 H 95.2703 -6.7873 1.61157 0
M  V30 870 H 91.1673 -6.44089 0.426512 0
M  V30 871 H 91.9353 -7.98029 1.81913 0
M  V30 872 N 94.5984 0.214957 -1.56127 0
M  V30 873 C 95.8284 0.953707 -1.8327 0
M  V30 874 C 96.2364 1.78181 -0.636262 0
M  V30 875 O 95.5794 1.79191 0.404516 0
M  V30 876 C 95.6414 1.91516 -3.0424 0
M  V30 877 C 95.3054 1.27094 -4.38972 0
M  V30 878 C 96.3024 0.657575 -5.15725 0
M  V30 879 C 93.9874 1.28073 -4.85698 0
M  V30 880 C 95.9814 0.0625968 -6.37369 0
M  V30 881 C 93.6684 0.681914 -6.07283 0
M  V30 882 C 94.6664 0.0739046 -6.8296 0
M  V30 883 O 94.3544 -0.515582 -8.02245 0
M  V30 884 H 94.0864 0.284764 -0.613095 0
M  V30 885 H 96.6404 0.233283 -2.04071 0
M  V30 886 H 94.8704 2.67475 -2.79274 0
M  V30 887 H 96.5594 2.52001 -3.18198 0
M  V30 888 H 97.3254 0.642288 -4.80728 0
M  V30 889 H 93.2044 1.74337 -4.26764 0
M  V30 890 H 96.7484 -0.412593 -6.96379 0
M  V30 891 H 92.6454 0.694636 -6.41752 0
M  V30 892 H 93.4134 -0.410544 -8.1747 0
M  V30 893 N 96.0765 1.50051 0.48192 0
M  V30 894 C 97.3255 1.59741 1.23149 0
M  V30 895 C 97.6385 0.298163 1.93314 0
M  V30 896 O 98.8445 0.273835 2.70116 0
M  V30 897 C 97.3005 2.81926 2.23708 0
M  V30 898 C 96.9085 4.18685 1.59396 0
M  V30 899 C 98.6525 3.00956 2.99375 0
M  V30 900 C 96.5595 5.3207 2.58178 0
M  V30 901 H 95.4895 0.594838 0.46334 0
M  V30 902 H 98.1405 1.76467 0.503169 0
M  V30 903 H 96.5225 2.58736 2.99786 0
M  V30 904 H 97.6965 4.52088 0.891811 0
M  V30 905 H 96.0115 4.05171 0.960503 0
M  V30 906 H 98.6085 3.82836 3.73283 0
M  V30 907 H 98.9515 2.12258 3.58123 0
M  V30 908 H 99.4845 3.24277 2.30411 0
M  V30 909 H 96.2235 6.22888 2.04184 0
M  V30 910 H 95.7435 5.03098 3.26577 0
M  V30 911 H 97.4225 5.62196 3.20225 0
M  V30 912 N 97.5546 -0.734337 1.39446 0
M  V30 913 C 98.5176 -1.83004 1.37994 0
M  V30 914 C 99.5176 -1.58397 0.276938 0
M  V30 915 O 100.708 -1.65785 0.534875 0
M  V30 916 C 97.8396 -3.20802 1.1532 0
M  V30 917 H 99.0326 -1.85694 2.35494 0
M  V30 918 H 96.5856 -0.938059 1.25021 0
M  V30 919 H 97.3206 -3.23772 0.185036 0
M  V30 920 H 97.1056 -3.4006 1.95197 0
M  V30 921 H 98.5956 -4.00862 1.17046 0
M  V30 922 N 99.0327 -1.24633 -0.964593 0
M  V30 923 C 99.9647 -0.999302 -2.06268 0
M  V30 924 C 100.978 0.0323226 -1.62768 0
M  V30 925 O 102.167 -0.205079 -1.77318 0
M  V30 926 C 99.2667 -0.486816 -3.35385 0
M  V30 927 C 98.4397 -1.5823 -4.07777 0
M  V30 928 C 97.4987 -1.07191 -5.15166 0
M  V30 929 O 96.5247 -1.76426 -5.41168 0
M  V30 930 N 97.7267 0.0920373 -5.80427 0
M  V30 931 H 100.492 -1.94477 -2.28033 0
M  V30 932 H 98.0527 -1.15704 -1.13244 0
M  V30 933 H 100.045 -0.130066 -4.04491 0
M  V30 934 H 98.6147 0.364459 -3.10468 0
M  V30 935 H 97.8347 -2.11109 -3.32906 0
M  V30 936 H 99.1227 -2.31854 -4.52903 0
M  V30 937 H 98.5207 0.670784 -5.61709 0
M  V30 938 H 97.0777 0.389905 -6.50633 0
M  V30 939 N 100.511 1.16574 -1.06058 0
M  V30 940 C 101.751 1.88723 -0.78504 0
M  V30 941 C 102.115 1.79706 0.676006 0
M  V30 942 O 103.316 2.46757 1.06603 0
M  V30 943 C 101.587 3.34338 -1.26304 0
M  V30 944 S 103.146 4.24366 -1.1162 0
M  V30 945 H 99.9638 0.651448 -0.284846 0
M  V30 946 H 102.566 1.40732 -1.35701 0
M  V30 947 H 101.27 3.38439 -2.32136 0
M  V30 948 H 100.801 3.87378 -0.685719 0
M  V30 949 H 102.816 4.96179 -0.0456539 0
M  V30 950 N 101.989 0.842826 1.3317 0
M  V30 951 C 102.952 0.284065 2.27433 0
M  V30 952 C 103.952 -0.54948 1.5112 0
M  V30 953 O 105.142 -0.362699 1.70382 0
M  V30 954 C 102.274 -0.599384 3.35589 0
M  V30 955 H 103.467 1.11589 2.78366 0
M  V30 956 H 101.02 0.616221 1.4364 0
M  V30 957 H 101.755 -1.45349 2.89904 0
M  V30 958 H 101.54 -0.00291266 3.921 0
M  V30 959 H 103.03 -0.983488 4.05854 0
M  V30 960 N 103.467 -1.45747 0.599634 0
M  V30 961 C 104.878 -1.85853 0.177681 0
M  V30 962 C 105.229 -1.50102 -1.26348 0
M  V30 963 O 104.354 -0.923905 -1.95686 0
M  V30 964 C 104.949 -3.37326 0.315688 0
M  V30 965 C 103.508 -3.76365 -0.0515144 0
M  V30 966 C 102.655 -2.69722 0.643822 0
M  V30 967 H 105.606 -1.36661 0.806814 0
M  V30 968 H 105.627 -3.77778 -0.454321 0
M  V30 969 H 105.139 -3.63315 1.36468 0
M  V30 970 H 103.24 -3.55993 -1.09999 0
M  V30 971 H 103.353 -4.77916 0.336594 0
M  V30 972 H 101.717 -2.54567 0.0822881 0
M  V30 973 H 102.5 -2.98549 1.6948 0
M  V30 974 N 104.945 -0.338344 -1.53925 0
M  V30 975 C 106.191 0.260143 -2.01125 0
M  V30 976 C 106.524 1.50617 -1.22589 0
M  V30 977 O 105.799 1.91979 -0.312113 0
M  V30 978 C 106.082 0.579499 -3.55407 0
M  V30 979 C 105.935 -0.678264 -4.44657 0
M  V30 980 C 107.254 1.39122 -4.17532 0
M  V30 981 H 104.373 0.0930772 -0.731099 0
M  V30 982 H 107.015 -0.457852 -1.84401 0
M  V30 983 H 105.165 1.19118 -3.69788 0
M  V30 984 H 106.837 -1.31631 -4.42121 0
M  V30 985 H 105.08 -1.3042 -4.13731 0
M  V30 986 H 105.751 -0.410143 -5.50474 0
M  V30 987 H 108.227 0.874035 -4.06817 0
M  V30 988 H 107.103 1.58342 -5.25565 0
M  V30 989 H 107.364 2.39178 -3.71815 0
M  V30 990 N 106.423 1.57458 -0.0668435 0
M  V30 991 C 107.671 1.92919 0.602214 0
M  V30 992 C 107.992 0.947215 1.70449 0
M  V30 993 O 107.262 -0.00544117 1.95899 0
M  V30 994 H 105.842 0.71217 0.22544 0
M  V30 995 H 108.504 1.94508 -0.123535 0
M  V30 996 H 107.6 2.94589 1.03073 0
M  V30 997 N 107.901 -0.206675 1.56239 0
M  V30 998 C 109.149 -0.927007 1.79586 0
M  V30 999 C 109.47 -1.8427 0.637929 0
M  V30 1000 O 108.74 -1.92849 -0.344398 0
M  V30 1001 H 107.32 -0.345292 0.662407 0
M  V30 1002 H 109.982 -0.21496 1.93711 0
M  V30 1003 H 109.078 -1.52501 2.72305 0
M  V30 1004 N 109.379 -1.50304 -0.473955 0
M  V30 1005 C 110.311 -1.65109 -1.58971 0
M  V30 1006 C 111.324 -0.532676 -1.53839 0
M  V30 1007 O 112.513 -0.805751 -1.59279 0
M  V30 1008 C 109.613 -1.61684 -2.97845 0
M  V30 1009 C 108.786 -2.8951 -3.27876 0
M  V30 1010 C 107.845 -2.78768 -4.4629 0
M  V30 1011 O 106.871 -3.52722 -4.46739 0
M  V30 1012 N 108.073 -1.9213 -5.47783 0
M  V30 1013 H 110.838 -2.61347 -1.46689 0
M  V30 1014 H 108.399 -1.47732 -0.662324 0
M  V30 1015 H 110.391 -1.52114 -3.75024 0
M  V30 1016 H 108.961 -0.731925 -3.03911 0
M  V30 1017 H 108.181 -3.13228 -2.39336 0
M  V30 1018 H 109.469 -3.74199 -3.4475 0
M  V30 1019 H 108.867 -1.31353 -5.50239 0
M  V30 1020 H 107.424 -1.88466 -6.23958 0
M  V30 1021 N 110.857 0.726932 -1.39834 0
M  V30 1022 C 112.134 1.47902 -1.28001 0
M  V30 1023 C 112.514 2.1083 0.106789 0
M  V30 1024 O 111.862 1.99242 1.11869 0
M  V30 1025 C 112.072 2.52392 -2.41038 0
M  V30 1026 C 113.42 3.18546 -2.80737 0
M  V30 1027 O 114.444 2.62708 -2.40547 0
M  V30 1028 O 113.303 4.19604 -3.50135 0
M  V30 1029 H 110.397 0.657163 -0.502062 0
M  V30 1030 H 112.943 0.760071 -1.51727 0
M  V30 1031 H 111.715 2.04329 -3.33715 0
M  V30 1032 H 111.338 3.31837 -2.19021 0
M  V30 1033 N 112.336 1.25143 0.95797 0
M  V30 1034 C 113.299 1.05321 2.03569 0
M  V30 1035 C 114.299 0.007152 1.60798 0
M  V30 1036 O 115.489 0.24903 1.72411 0
M  V30 1037 C 112.621 0.598394 3.35607 0
M  V30 1038 H 113.814 2.00986 2.22586 0
M  V30 1039 H 111.367 1.07502 1.13459 0
M  V30 1040 H 112.102 -0.361014 3.22284 0
M  V30 1041 H 111.887 1.35351 3.67998 0
M  V30 1042 H 113.377 0.48104 4.1482 0
M  V30 1043 N 113.814 -1.1601 1.06675 0
M  V30 1044 C 115.054 -1.88304 0.795037 0
M  V30 1045 C 115.418 -1.80062 -0.666466 0
M  V30 1046 O 116.619 -2.47319 -1.05293 0
M  V30 1047 C 114.89 -3.33664 1.28076 0
M  V30 1048 S 116.449 -4.23768 1.13868 0
M  V30 1049 H 113.267 -0.649928 0.288296 0
M  V30 1050 H 115.869 -1.4001 1.36445 0
M  V30 1051 H 114.573 -3.37203 2.33927 0
M  V30 1052 H 114.104 -3.87009 0.706253 0
M  V30 1053 H 116.119 -4.96148 0.0719668 0
M  V30 1054 N 115.292 -0.849877 -1.32721 0
M  V30 1055 C 116.24 -0.279745 -2.30912 0
M  V30 1056 C 117.234 0.594278 -1.58634 0
M  V30 1057 O 118.44 0.482613 -1.73409 0
M  V30 1058 H 114.815 -0.0717521 -0.748569 0
M  V30 1059 H 116.786 -1.12222 -2.76494 0
M  V30 1060 C 115.535 0.521108 -3.43773 0
M  V30 1061 H 114.858 -0.142141 -3.99547 0
M  V30 1062 H 116.298 0.885693 -4.14646 0
M  V30 1063 C 114.757 1.70442 -2.90605 0
M  V30 1064 O 115.287 2.8034 -2.87702 0
M  V30 1065 N 113.493 1.52991 -2.47067 0
M  V30 1066 H 113.04 0.635914 -2.49628 0
M  V30 1067 H 112.998 2.32311 -2.11847 0
M  V30 1068 N 116.77 1.45427 -0.607355 0
M  V30 1069 C 118.181 1.85756 -0.187535 0
M  V30 1070 C 118.532 1.5077 1.25551 0
M  V30 1071 O 117.657 0.93427 1.95193 0
M  V30 1072 C 118.252 3.37154 -0.333572 0
M  V30 1073 C 116.811 3.76387 0.0315542 0
M  V30 1074 C 115.958 2.69377 -0.658117 0
M  V30 1075 H 118.909 1.36231 -0.81405 0
M  V30 1076 H 118.93 3.78014 0.43428 0
M  V30 1077 H 118.442 3.62586 -1.38393 0
M  V30 1078 H 116.543 3.56571 1.0811 0
M  V30 1079 H 116.656 4.77731 -0.361935 0
M  V30 1080 H 115.02 2.5452 -0.0957873 0
M  V30 1081 H 115.803 2.97646 -1.7106 0
M  V30 1082 N 118.248 0.346503 1.53744 0
M  V30 1083 C 119.211 -0.496439 2.23759 0
M  V30 1084 C 120.211 -1.0252 1.2388 0
M  V30 1085 O 121.401 -0.913974 1.48297 0
M  V30 1086 C 118.533 -1.69187 2.95954 0
M  V30 1087 H 119.726 0.115952 2.99676 0
M  V30 1088 H 117.279 0.0978939 1.55993 0
M  V30 1089 H 118.014 -2.34288 2.24231 0
M  V30 1090 H 117.799 -1.31989 3.69217 0
M  V30 1091 H 119.289 -2.28969 3.49232 0
M  V30 1092 N 119.726 -1.57421 0.075193 0
M  V30 1093 C 120.954 -1.97946 -0.602076 0
M  V30 1094 C 121.369 -0.953674 -1.62943 0
M  V30 1095 O 120.726 0.0592551 -1.82404 0
M  V30 1096 C 120.777 -3.38546 -1.26762 0
M  V30 1097 O 120.498 -4.37195 -0.281376 0
M  V30 1098 C 121.999 -3.93966 -2.03239 0
M  V30 1099 H 119.219 -0.650918 -0.162931 0
M  V30 1100 H 121.763 -2.03959 0.148601 0
M  V30 1101 H 119.918 -3.33609 -1.96936 0
M  V30 1102 H 120.332 -5.18975 -0.759267 0
M  V30 1103 H 121.806 -4.94555 -2.45193 0
M  V30 1104 H 122.283 -3.30693 -2.8903 0
M  V30 1105 H 122.889 -4.02315 -1.37924 0
M  V30 1106 N 121.204 0.198386 -1.56346 0
M  V30 1107 C 122.167 1.22952 -1.93431 0
M  V30 1108 C 123.167 1.38611 -0.815092 0
M  V30 1109 O 124.357 1.36479 -1.08255 0
M  V30 1110 C 121.489 2.59946 -2.20546 0
M  V30 1111 H 122.682 0.912626 -2.85677 0
M  V30 1112 H 120.235 0.43977 -1.49986 0
M  V30 1113 H 120.97 2.96696 -1.30927 0
M  V30 1114 H 120.755 2.49953 -3.02102 0
M  V30 1115 H 122.245 3.3431 -2.50253 0
M  V30 1116 N 122.682 1.50554 0.465978 0
M  V30 1117 C 123.91 1.65563 1.24083 0
M  V30 1118 C 124.325 0.341051 1.85694 0
M  V30 1119 O 123.682 -0.677543 1.69457 0
M  V30 1120 C 123.733 2.75051 2.34583 0
M  V30 1121 O 123.454 4.01413 1.75497 0
M  V30 1122 C 124.955 3.01078 3.25372 0
M  V30 1123 H 122.175 0.55638 0.375077 0
M  V30 1124 H 124.719 1.96807 0.555624 0
M  V30 1125 H 122.874 2.46486 2.9887 0
M  V30 1126 H 123.288 4.62002 2.48303 0
M  V30 1127 H 124.762 3.81339 3.99105 0
M  V30 1128 H 125.239 2.12349 3.84453 0
M  V30 1129 H 125.845 3.31194 2.66816 0
M  V30 1130 N 124.16 -0.719506 1.40217 0
M  V30 1131 C 125.385 -1.51371 1.4178 0
M  V30 1132 C 125.81 -1.88091 0.0182355 0
M  V30 1133 O 125.168 -1.52997 -0.972707 0
M  V30 1134 C 125.216 -2.768 2.31115 0
M  V30 1135 O 124.32 -3.73349 1.7517 0
M  V30 1136 H 123.661 -0.456529 0.482159 0
M  V30 1137 H 126.191 -0.88644 1.844 0
M  V30 1138 H 126.201 -3.25371 2.46167 0
M  V30 1139 H 124.876 -2.49407 3.3282 0
M  V30 1140 H 123.453 -3.32179 1.69444 0
M  V30 1141 N 125.638 -1.25649 -0.95132 0
M  V30 1142 C 126.885 -1.10594 -1.69633 0
M  V30 1143 C 127.213 0.352515 -1.91279 0
M  V30 1144 O 126.468 1.27601 -1.4838 0
M  V30 1145 C 126.767 -1.80909 -3.08231 0
M  V30 1146 C 126.433 -3.30825 -3.06375 0
M  V30 1147 C 125.095 -3.71722 -3.05576 0
M  V30 1148 C 127.447 -4.26589 -2.99452 0
M  V30 1149 C 124.775 -5.06788 -2.95606 0
M  V30 1150 C 127.127 -5.61683 -2.91024 0
M  V30 1151 C 125.791 -6.01904 -2.88562 0
M  V30 1152 H 125.061 -0.404691 -0.620731 0
M  V30 1153 H 127.708 -1.55964 -1.11119 0
M  V30 1154 H 126.013 -1.27979 -3.70309 0
M  V30 1155 H 127.71 -1.6671 -3.64704 0
M  V30 1156 H 124.3 -2.98287 -3.07771 0
M  V30 1157 H 128.484 -3.95982 -2.99185 0
M  V30 1158 H 123.74 -5.37126 -2.92071 0
M  V30 1159 H 127.914 -6.35578 -2.84629 0
M  V30 1160 H 125.541 -7.06521 -2.80593 0
M  V30 1161 N 127.117 1.15442 -1.07289 0
M  V30 1162 C 128.345 1.90096 -0.81676 0
M  V30 1163 C 128.76 1.7798 0.629966 0
M  V30 1164 O 128.117 1.1313 1.43206 0
M  V30 1165 C 128.168 3.40466 -1.21512 0
M  V30 1166 O 127.889 3.52232 -2.60508 0
M  V30 1167 C 129.39 4.32145 -0.988198 0
M  V30 1168 H 126.61 0.602495 -0.295366 0
M  V30 1169 H 129.154 1.4627 -1.42918 0
M  V30 1170 H 127.309 3.81958 -0.647039 0
M  V30 1171 H 127.723 4.45549 -2.76742 0
M  V30 1172 H 129.197 5.36072 -1.31645 0
M  V30 1173 H 129.674 4.39135 0.0755063 0
M  V30 1174 H 130.28 3.96395 -1.54115 0
M  V30 1175 N 128.595 0.856903 1.32268 0
M  V30 1176 C 129.823 0.475439 2.01363 0
M  V30 1177 C 130.238 -0.928486 1.64392 0
M  V30 1178 O 129.595 -1.60624 0.866387 0
M  V30 1179 C 129.646 0.607545 3.56358 0
M  V30 1180 O 129.367 1.95617 3.92002 0
M  V30 1181 C 130.868 0.225382 4.42727 0
M  V30 1182 H 128.088 0.186636 0.644521 0
M  V30 1183 H 130.632 1.15446 1.68797 0
M  V30 1184 H 128.787 -0.0237719 3.87393 0
M  V30 1185 H 129.201 1.95455 4.86721 0
M  V30 1186 H 130.675 0.368813 5.50767 0
M  V30 1187 H 131.152 -0.834369 4.31202 0
M  V30 1188 H 131.758 0.831864 4.17085 0
M  V30 1189 N 130.073 -1.45103 0.615059 0
M  V30 1190 C 131.35 -1.95549 0.0448276 0
M  V30 1191 C 131.73 -1.55737 -1.4251 0
M  V30 1192 O 131.078 -0.823556 -2.13143 0
M  V30 1193 C 131.288 -3.48098 0.250785 0
M  V30 1194 C 132.636 -4.24384 0.135509 0
M  V30 1195 O 133.66 -3.55738 0.181299 0
M  V30 1196 O 132.519 -5.46493 0.0268878 0
M  V30 1197 H 129.613 -0.8264 -0.0314845 0
M  V30 1198 H 132.159 -1.55232 0.685642 0
M  V30 1199 H 130.931 -3.7007 1.27139 0
M  V30 1200 H 130.554 -3.95323 -0.424937 0
M  V30 1201 N 131.551 -0.354651 -1.53558 0
M  V30 1202 C 132.514 0.484566 -2.24019 0
M  V30 1203 C 133.514 1.01861 -1.24422 0
M  V30 1204 O 134.704 0.906097 -1.4878 0
M  V30 1205 C 131.836 1.67615 -2.96847 0
M  V30 1206 H 133.029 -0.131843 -2.9961 0
M  V30 1207 H 130.582 -0.106165 -1.55939 0
M  V30 1208 H 131.317 2.33095 -2.25471 0
M  V30 1209 H 131.102 1.30029 -3.69912 0
M  V30 1210 H 132.592 2.27114 -3.50441 0
M  V30 1211 N 133.029 1.57378 -0.0835403 0
M  V30 1212 C 134.254 1.98682 0.594987 0
M  V30 1213 C 134.679 0.961969 1.61641 0
M  V30 1214 O 134.037 -0.0709989 1.81161 0
M  V30 1215 C 134.085 3.38988 1.2296 0
M  V30 1216 O 133.189 3.39208 2.34546 0
M  V30 1217 H 132.53 0.646368 0.152002 0
M  V30 1218 H 135.06 2.03961 -0.161533 0
M  V30 1219 H 135.07 3.76431 1.57366 0
M  V30 1220 H 133.745 4.13107 0.481228 0
M  V30 1221 H 132.322 3.13548 2.01846 0
M  V30 1222 N 134.507 -0.190092 1.56449 0
M  V30 1223 C 135.755 -0.907908 1.80559 0
M  V30 1224 C 136.076 -1.83583 0.657438 0
M  V30 1225 O 135.346 -1.93203 -0.323924 0
M  V30 1226 H 133.926 -0.338247 0.666032 0
M  V30 1227 H 136.588 -0.194403 1.93928 0
M  V30 1228 H 135.684 -1.49604 2.73907 0
M  V30 1229 N 135.985 -1.50799 -0.457987 0
M  V30 1230 C 136.948 -1.7005 -1.53674 0
M  V30 1231 C 137.948 -0.570881 -1.50325 0
M  V30 1232 O 139.138 -0.838126 -1.52712 0
M  V30 1233 C 136.27 -1.73788 -2.93276 0
M  V30 1234 H 137.463 -2.66306 -1.37917 0
M  V30 1235 H 135.016 -1.40477 -0.685271 0
M  V30 1236 H 135.751 -0.792717 -3.14462 0
M  V30 1237 H 135.536 -2.55864 -2.97113 0
M  V30 1238 H 137.026 -1.90591 -3.71571 0
M  V30 1239 N 137.463 0.71206 -1.40597 0
M  V30 1240 C 138.426 1.80785 -1.40888 0
M  V30 1241 C 139.426 1.57937 -0.302103 0
M  V30 1242 O 140.616 1.64913 -0.561182 0
M  V30 1243 C 137.748 3.18927 -1.20409 0
M  V30 1244 H 138.941 1.81924 -2.38419 0
M  V30 1245 H 136.494 0.91805 -1.26497 0
M  V30 1246 H 137.229 3.23436 -0.236522 0
M  V30 1247 H 137.014 3.36911 -2.00582 0
M  V30 1248 H 138.504 3.98949 -1.23408 0
M  V30 1249 N 138.941 1.26152 0.944643 0
M  V30 1250 C 140.166 1.14363 1.7302 0
M  V30 1251 C 140.591 -0.29772 1.85729 0
M  V30 1252 O 139.949 -1.2157 1.34501 0
M  V30 1253 C 139.997 1.81378 3.11664 0
M  V30 1254 O 139.101 1.10022 3.97453 0
M  V30 1255 H 138.442 0.398694 0.53098 0
M  V30 1256 H 140.972 1.66906 1.18337 0
M  V30 1257 H 140.982 1.88064 3.62072 0
M  V30 1258 H 139.657 2.86237 3.0173 0
M  V30 1259 H 138.234 1.11287 3.55907 0
M  V30 1260 N 140.419 -1.14872 1.07899 0
M  V30 1261 C 141.666 -1.85789 0.805532 0
M  V30 1262 C 141.994 -1.82649 -0.668561 0
M  V30 1263 O 141.249 -1.24858 -1.50695 0
M  V30 1264 C 141.548 -3.34223 1.26609 0
M  V30 1265 C 141.214 -3.57555 2.74709 0
M  V30 1266 C 139.876 -3.63631 3.1516 0
M  V30 1267 C 142.228 -3.66803 3.70277 0
M  V30 1268 C 139.556 -3.76473 4.49983 0
M  V30 1269 C 141.908 -3.8117 5.04869 0
M  V30 1270 C 140.572 -3.85494 5.44932 0
M  V30 1271 H 139.842 -0.679849 0.294765 0
M  V30 1272 H 142.489 -1.3572 1.35101 0
M  V30 1273 H 140.794 -3.86536 0.640103 0
M  V30 1274 H 142.491 -3.87511 1.03132 0
M  V30 1275 H 139.081 -3.5347 2.42398 0
M  V30 1276 H 143.265 -3.61404 3.40149 0
M  V30 1277 H 138.521 -3.7808 4.80484 0
M  V30 1278 H 142.695 -3.87268 5.78789 0
M  V30 1279 H 140.322 -3.95197 6.49403 0
M  V30 1280 N 141.898 -0.863906 -1.31812 0
M  V30 1281 C 143.123 -0.48527 -2.01643 0
M  V30 1282 C 143.548 0.913058 -1.64453 0
M  V30 1283 O 142.906 1.6014 -0.849985 0
M  V30 1284 C 142.954 -0.642625 -3.54828 0
M  V30 1285 O 142.058 0.320659 -4.11151 0
M  V30 1286 H 141.399 -0.193793 -0.635091 0
M  V30 1287 H 143.929 -1.16565 -1.68148 0
M  V30 1288 H 143.939 -0.533628 -4.04495 0
M  V30 1289 H 142.614 -1.66227 -3.81237 0
M  V30 1290 H 141.191 0.167126 -3.72525 0
M  V30 1291 N 143.376 1.44774 -0.622745 0
M  V30 1292 C 144.623 2.02121 -0.1239 0
M  V30 1293 C 144.951 1.48915 1.25118 0
M  V30 1294 O 144.206 0.660045 1.84233 0
M  V30 1295 C 144.505 3.57364 -0.0508323 0
M  V30 1296 C 144.171 4.29787 -1.36358 0
M  V30 1297 C 142.833 4.4929 -1.72314 0
M  V30 1298 C 145.185 4.71062 -2.23048 0
M  V30 1299 C 142.513 5.07325 -2.94682 0
M  V30 1300 C 144.865 5.30452 -3.44679 0
M  V30 1301 C 143.529 5.48175 -3.80868 0
M  V30 1302 H 142.799 0.739612 -0.0453381 0
M  V30 1303 H 145.446 1.73648 -0.807389 0
M  V30 1304 H 143.751 3.85202 0.715991 0
M  V30 1305 H 145.448 3.99456 0.351533 0
M  V30 1306 H 142.038 4.14932 -1.07375 0
M  V30 1307 H 146.222 4.55715 -1.96565 0
M  V30 1308 H 141.478 5.19235 -3.22809 0
M  V30 1309 H 145.652 5.61385 -4.12092 0
M  V30 1310 H 143.279 5.92912 -4.75773 0
M  V30 1311 N 144.854 0.36279 1.53368 0
M  V30 1312 C 146.1 -0.228113 2.01513 0
M  V30 1313 C 146.433 -1.48648 1.2497 0
M  V30 1314 O 145.708 -1.91459 0.342616 0
M  V30 1315 C 145.991 -0.522884 3.56284 0
M  V30 1316 C 145.844 0.74892 4.43521 0
M  V30 1317 C 147.163 -1.32461 4.19693 0
M  V30 1318 H 144.282 -0.0814343 0.732487 0
M  V30 1319 H 146.924 0.48713 1.83649 0
M  V30 1320 H 145.074 -1.1322 3.71636 0
M  V30 1321 H 146.746 1.38648 4.39971 0
M  V30 1322 H 144.989 1.36986 4.11603 0
M  V30 1323 H 145.66 0.497667 5.49752 0
M  V30 1324 H 148.136 -0.809203 4.08156 0
M  V30 1325 H 147.012 -1.49961 5.28018 0
M  V30 1326 H 147.273 -2.33232 3.75573 0
M  V30 1327 N 146.332 -1.57332 0.0918853 0
M  V30 1328 C 147.578 -1.94524 -0.573425 0
M  V30 1329 C 147.911 -0.973578 -1.68033 0
M  V30 1330 O 147.186 -0.00609226 -1.94499 0
M  V30 1331 C 147.469 -3.41858 -1.13161 0
M  V30 1332 C 147.322 -4.4979 -0.0299747 0
M  V30 1333 C 148.641 -3.90435 -2.03098 0
M  V30 1334 H 145.76 -0.70734 -0.206975 0
M  V30 1335 H 148.402 -1.89309 0.161942 0
M  V30 1336 H 146.552 -3.46433 -1.7583 0
M  V30 1337 H 148.224 -4.57327 0.604112 0
M  V30 1338 H 146.467 -4.291 0.636833 0
M  V30 1339 H 147.138 -5.50069 -0.461287 0
M  V30 1340 H 149.614 -3.87992 -1.50338 0
M  V30 1341 H 148.49 -4.94097 -2.39081 0
M  V30 1342 H 148.751 -3.29541 -2.94712 0
M  V30 1343 N 147.81 0.181792 -1.56548 0
M  V30 1344 C 149.226 0.53316 -1.50431 0
M  V30 1345 C 149.426 1.85184 -0.794297 0
M  V30 1346 O 148.482 2.50058 -0.350318 0
M  V30 1347 C 149.795 0.575597 -2.9514 0
M  V30 1348 C 151.343 0.663519 -3.05886 0
M  V30 1349 C 151.818 0.736946 -4.52032 0
M  V30 1350 N 153.309 0.800118 -4.56237 0
M  V30 1351 C 154.044 0.877327 -5.66649 0
M  V30 1352 N 153.54 0.916016 -6.86718 0
M  V30 1353 N 155.333 0.915542 -5.54594 0
M  V30 1354 H 147.484 -0.683025 -2.01118 0
M  V30 1355 H 149.747 -0.244988 -0.915797 0
M  V30 1356 H 149.453 -0.324482 -3.502 0
M  V30 1357 H 149.327 1.42572 -3.49218 0
M  V30 1358 H 151.714 1.55403 -2.50867 0
M  V30 1359 H 151.795 -0.21307 -2.54911 0
M  V30 1360 H 151.439 -0.149262 -5.07681 0
M  V30 1361 H 151.369 1.62953 -5.00753 0
M  V30 1362 H 153.86 0.778926 -3.69785 0
M  V30 1363 H 154.173 0.975813 -7.66614 0
M  V30 1364 H 152.518 0.884469 -6.89349 0
M  V30 1365 H 155.709 0.882245 -4.59711 0
M  V30 1366 H 155.882 0.972253 -6.40665 0
M  V30 1367 N 149.288 1.51039 0.449983 0
M  V30 1368 C 150.235 1.71439 1.54523 0
M  V30 1369 C 151.205 0.555871 1.56522 0
M  V30 1370 O 152.39 0.788871 1.73728 0
M  V30 1371 C 149.53 1.83384 2.92343 0
M  V30 1372 C 148.643 3.10873 2.9997 0
M  V30 1373 C 147.778 3.13488 4.28834 0
M  V30 1374 C 146.817 4.35343 4.30282 0
M  V30 1375 N 145.954 4.35579 5.5065 0
M  V30 1376 H 150.794 2.64934 1.36433 0
M  V30 1377 H 148.331 1.31312 0.662982 0
M  V30 1378 H 150.289 1.88291 3.72293 0
M  V30 1379 H 148.919 0.933086 3.0902 0
M  V30 1380 H 147.971 3.15336 2.12761 0
M  V30 1381 H 149.283 4.00814 2.96901 0
M  V30 1382 H 148.437 3.17241 5.17149 0
M  V30 1383 H 147.176 2.21414 4.34543 0
M  V30 1384 H 146.181 4.3178 3.40362 0
M  V30 1385 H 147.406 5.28668 4.26248 0
M  V30 1386 H 145.352 3.46369 5.57104 0
M  V30 1387 H 145.269 5.19313 5.49409 0
M  V30 1388 H 146.537 4.43507 6.41032 0
M  V30 1389 N 150.766 -0.704594 1.40972 0
M  V30 1390 C 151.991 -1.49858 1.43378 0
M  V30 1391 C 152.416 -1.88061 0.038184 0
M  V30 1392 O 151.774 -1.5402 -0.956425 0
M  V30 1393 C 151.822 -2.74333 2.34038 0
M  V30 1394 O 150.926 -3.7147 1.7912 0
M  V30 1395 H 150.267 -0.45139 0.486974 0
M  V30 1396 H 152.797 -0.866832 1.8533 0
M  V30 1397 H 152.807 -3.22741 2.49604 0
M  V30 1398 H 151.482 -2.45863 3.35446 0
M  V30 1399 H 150.059 -3.30363 1.72958 0
M  V30 1400 N 152.244 -1.26651 -0.937939 0
M  V30 1401 C 153.474 -1.15006 -1.71631 0
M  V30 1402 C 153.882 0.297026 -1.86854 0
M  V30 1403 O 153.225 1.21493 -1.37786 0
M  V30 1404 C 153.287 -1.74984 -3.14039 0
M  V30 1405 C 152.951 -3.24103 -3.2219 0
M  V30 1406 C 153.948 -4.20877 -3.05219 0
M  V30 1407 C 151.633 -3.64625 -3.45476 0
M  V30 1408 C 153.627 -5.56151 -3.11408 0
M  V30 1409 C 151.314 -5.00032 -3.513 0
M  V30 1410 C 152.312 -5.95604 -3.34282 0
M  V30 1411 O 152 -7.28545 -3.3982 0
M  V30 1412 H 151.732 -0.401183 -0.544085 0
M  V30 1413 H 154.286 -1.67832 -1.18413 0
M  V30 1414 H 152.516 -1.16624 -3.68695 0
M  V30 1415 H 154.205 -1.58199 -3.73802 0
M  V30 1416 H 154.971 -3.90908 -2.87081 0
M  V30 1417 H 150.85 -2.90718 -3.57777 0
M  V30 1418 H 154.394 -6.30727 -2.98043 0
M  V30 1419 H 150.291 -5.29659 -3.68959 0
M  V30 1420 H 151.059 -7.3686 -3.56343 0
M  V30 1421 N 153.722 1.14298 -1.08507 0
M  V30 1422 C 154.95 1.89219 -0.836876 0
M  V30 1423 C 155.365 1.78638 0.611054 0
M  V30 1424 O 154.722 1.14643 1.41998 0
M  V30 1425 C 154.773 3.39158 -1.25116 0
M  V30 1426 O 154.494 3.49449 -2.64229 0
M  V30 1427 C 155.995 4.31073 -1.03398 0
M  V30 1428 H 153.215 0.599328 -0.301739 0
M  V30 1429 H 155.759 1.44746 -1.44461 0
M  V30 1430 H 153.914 3.81251 -0.687514 0
M  V30 1431 H 154.328 4.42589 -2.81452 0
M  V30 1432 H 155.802 5.34646 -1.37323 0
M  V30 1433 H 156.279 4.3919 0.0289259 0
M  V30 1434 H 156.885 3.94738 -1.58311 0
M  V30 1435 N 155.201 0.870884 1.31352 0
M  V30 1436 C 156.449 0.48132 1.96285 0
M  V30 1437 C 156.77 -0.969813 1.69173 0
M  V30 1438 O 156.04 -1.67998 1.00764 0
M  V30 1439 H 154.62 0.175002 0.726212 0
M  V30 1440 H 157.282 1.11087 1.60143 0
M  V30 1441 H 156.378 0.639825 3.05471 0
M  V30 1442 N 156.679 -1.44442 0.630414 0
M  V30 1443 C 157.904 -2.06927 0.139944 0
M  V30 1444 C 158.329 -1.46795 -1.17613 0
M  V30 1445 O 157.687 -0.569144 -1.72135 0
M  V30 1446 C 157.735 -3.6058 0.0379581 0
M  V30 1447 O 156.839 -3.99937 -1.0062 0
M  V30 1448 H 156.18 -0.658608 0.0844483 0
M  V30 1449 H 158.71 -1.85327 0.866891 0
M  V30 1450 H 158.72 -4.07714 -0.152856 0
M  V30 1451 H 157.395 -4.03728 0.998809 0
M  V30 1452 H 155.972 -3.64436 -0.79001 0
M  V30 1453 N 158.157 -0.370918 -1.53173 0
M  V30 1454 C 159.385 0.217704 -2.05751 0
M  V30 1455 C 159.8 1.42018 -1.24404 0
M  V30 1456 O 159.157 1.80245 -0.286033 0
M  V30 1457 C 159.208 0.605954 -3.56385 0
M  V30 1458 O 158.929 -0.548734 -4.3465 0
M  V30 1459 C 160.43 1.2524 -4.25241 0
M  V30 1460 H 157.65 0.0371659 -0.66997 0
M  V30 1461 H 160.194 -0.530832 -1.9749 0
M  V30 1462 H 158.349 1.3044 -3.6478 0
M  V30 1463 H 158.763 -0.23376 -5.23979 0
M  V30 1464 H 160.237 1.47458 -5.3194 0
M  V30 1465 H 160.714 2.2143 -3.79296 0
M  V30 1466 H 161.32 0.595233 -4.21114 0
M  V30 1467 N 159.635 1.57281 -0.100228 0
M  V30 1468 C 161.046 1.81725 0.428107 0
M  V30 1469 C 161.397 1.01619 1.67833 0
M  V30 1470 O 160.522 0.247098 2.14985 0
M  V30 1471 C 161.117 3.29617 0.78347 0
M  V30 1472 C 159.676 3.54808 1.25653 0
M  V30 1473 C 158.823 2.76118 0.255752 0
M  V30 1474 H 161.774 1.55324 -0.325608 0
M  V30 1475 H 161.795 3.4322 1.64256 0
M  V30 1476 H 161.307 3.87893 -0.12665 0
M  V30 1477 H 159.408 3.01868 2.18418 0
M  V30 1478 H 159.521 4.63443 1.21482 0
M  V30 1479 H 157.885 2.43745 0.738956 0
M  V30 1480 H 158.668 3.37145 -0.647136 0
M  V30 1481 N 161.113 -0.173488 1.56642 0
M  V30 1482 C 162.023 -1.23482 1.99473 0
M  V30 1483 C 163.039 -1.48567 0.905752 0
M  V30 1484 O 164.215 -1.60758 1.21321 0
M  V30 1485 C 161.28 -2.55444 2.34413 0
M  V30 1486 C 160.341 -2.38241 3.57127 0
M  V30 1487 C 159.574 -3.63909 3.90392 0
M  V30 1488 O 159.797 -4.68996 3.24653 0
M  V30 1489 O 158.731 -3.58149 4.83749 0
M  V30 1490 H 162.557 -0.901279 2.90018 0
M  V30 1491 H 160.142 -0.380185 1.44482 0
M  V30 1492 H 162.024 -3.33292 2.57865 0
M  V30 1493 H 160.699 -2.88382 1.4703 0
M  V30 1494 H 159.606 -1.58431 3.38896 0
M  V30 1495 H 160.939 -2.10228 4.45045 0
M  V30 1496 N 162.591 -1.51276 -0.441967 0
M  V30 1497 C 163.839 -1.63392 -1.18943 0
M  V30 1498 C 164.16 -0.350159 -1.9183 0
M  V30 1499 O 163.43 0.633784 -1.85364 0
M  V30 1500 H 162.01 -0.602164 -0.442049 0
M  V30 1501 H 164.672 -1.88186 -0.507165 0
M  V30 1502 H 163.768 -2.45934 -1.92154 0
M  V30 1503 N 164.069 0.697108 -1.41344 0
M  V30 1504 C 165.297 1.48593 -1.43972 0
M  V30 1505 C 165.712 1.88747 -0.0445612 0
M  V30 1506 O 165.069 1.56682 0.935785 0
M  V30 1507 C 165.12 2.74946 -2.34706 0
M  V30 1508 O 164.841 2.36484 -3.68791 0
M  V30 1509 C 166.342 3.687 -2.46121 0
M  V30 1510 H 163.562 0.457964 -0.490418 0
M  V30 1511 H 166.106 0.858429 -1.8561 0
M  V30 1512 H 164.261 3.33937 -1.9638 0
M  V30 1513 H 164.675 3.17918 -4.17167 0
M  V30 1514 H 166.149 4.54145 -3.13777 0
M  V30 1515 H 166.626 4.13081 -1.49199 0
M  V30 1516 H 167.232 3.15613 -2.85076 0
M  V30 1517 N 165.547 1.27147 0.931209 0
M  V30 1518 C 166.958 1.12044 1.49342 0
M  V30 1519 C 167.309 -0.295795 1.93957 0
M  V30 1520 O 166.434 -1.18835 1.80852 0
M  V30 1521 C 167.029 2.02781 2.71414 0
M  V30 1522 C 165.588 1.91794 3.2387 0
M  V30 1523 C 164.735 1.95543 1.96617 0
M  V30 1524 H 167.686 1.40091 0.745672 0
M  V30 1525 H 167.707 1.58156 3.46074 0
M  V30 1526 H 167.219 3.05848 2.38911 0
M  V30 1527 H 165.32 0.916992 3.6114 0
M  V30 1528 H 165.433 2.77852 3.90302 0
M  V30 1529 H 163.797 1.39722 2.12955 0
M  V30 1530 H 164.58 3.00259 1.66432 0
M  V30 1531 N 167.025 -1.13721 1.09112 0
M  V30 1532 C 168.271 -1.85198 0.826414 0
M  V30 1533 C 168.604 -1.83129 -0.646319 0
M  V30 1534 O 167.879 -1.2671 -1.47563 0
M  V30 1535 C 168.162 -3.33507 1.35812 0
M  V30 1536 C 168.015 -3.44108 2.89672 0
M  V30 1537 C 169.334 -4.28838 0.989256 0
M  V30 1538 H 166.453 -0.67243 0.301675 0
M  V30 1539 H 169.095 -1.33499 1.35197 0
M  V30 1540 H 167.245 -3.77666 0.911082 0
M  V30 1541 H 168.917 -3.08684 3.428 0
M  V30 1542 H 167.16 -2.85087 3.26967 0
M  V30 1543 H 167.831 -4.48388 3.21951 0
M  V30 1544 H 170.307 -3.92734 1.37475 0
M  V30 1545 H 169.183 -5.31051 1.38838 0
M  V30 1546 H 169.444 -4.4198 -0.102924 0
M  V30 1547 N 168.503 -0.877838 -1.30888 0
M  V30 1548 C 169.751 -0.491723 -1.96027 0
M  V30 1549 C 170.072 0.960827 -1.69685 0
M  V30 1550 O 169.342 1.67462 -1.01654 0
M  V30 1551 H 167.922 -0.17885 -0.725273 0
M  V30 1552 H 170.584 -1.11935 -1.59551 0
M  V30 1553 H 169.68 -0.656016 -3.05128 0
M  V30 1554 N 169.982 1.44106 -0.638065 0
M  V30 1555 C 171.207 2.0685 -0.150916 0
M  V30 1556 C 171.632 1.47417 1.16833 0
M  V30 1557 O 170.99 0.578264 1.71831 0
M  V30 1558 C 171.038 3.60555 -0.05708 0
M  V30 1559 O 170.142 4.00465 0.984972 0
M  V30 1560 H 169.483 0.658151 -0.0879399 0
M  V30 1561 H 172.013 1.84865 -0.876707 0
M  V30 1562 H 172.023 4.07789 0.131232 0
M  V30 1563 H 170.698 4.03193 -1.02021 0
M  V30 1564 H 169.275 3.64849 0.770672 0
M  V30 1565 N 171.46 0.379036 1.52974 0
M  V30 1566 C 172.706 -0.206727 2.01744 0
M  V30 1567 C 173.039 -1.47314 1.26539 0
M  V30 1568 O 172.314 -1.91084 0.362903 0
M  V30 1569 C 172.597 -0.485066 3.56818 0
M  V30 1570 C 172.45 0.795919 4.42702 0
M  V30 1571 C 173.769 -1.28003 4.21074 0
M  V30 1572 H 170.888 -0.0736607 0.73331 0
M  V30 1573 H 173.53 0.506581 1.83122 0
M  V30 1574 H 171.68 -1.09272 3.72816 0
M  V30 1575 H 173.352 1.43307 4.38476 0
M  V30 1576 H 171.595 1.41344 4.10127 0
M  V30 1577 H 172.266 0.555947 5.49193 0
M  V30 1578 H 174.742 -0.765867 4.08991 0
M  V30 1579 H 173.618 -1.44352 5.29579 0
M  V30 1580 H 173.879 -2.29236 3.78026 0
M  V30 1581 N 172.938 -1.57226 0.108567 0
M  V30 1582 C 174.215 -1.86333 -0.594939 0
M  V30 1583 C 174.595 -1.00788 -1.85486 0
M  V30 1584 O 173.943 -0.0839293 -2.28346 0
M  V30 1585 C 174.153 -3.37265 -0.897405 0
M  V30 1586 C 175.501 -4.05629 -1.25501 0
M  V30 1587 O 176.525 -3.42224 -0.987998 0
M  V30 1588 O 175.384 -5.17531 -1.75567 0
M  V30 1589 H 172.478 -0.771018 -0.2991 0
M  V30 1590 H 175.024 -1.69102 0.142283 0
M  V30 1591 H 173.796 -3.913 -0.00413806 0
M  V30 1592 H 173.419 -3.59889 -1.69014 0
M  V30 1593 N 174.416 0.165178 -1.56732 0
M  V30 1594 C 175.656 0.887231 -1.8414 0
M  V30 1595 C 176.02 1.79159 -0.690353 0
M  V30 1596 O 177.221 2.55172 -0.845032 0
M  V30 1597 C 175.492 1.65674 -3.16681 0
M  V30 1598 S 177.051 2.42671 -3.6559 0
M  V30 1599 H 173.869 0.297042 -0.645978 0
M  V30 1600 H 176.471 0.148439 -1.94936 0
M  V30 1601 H 175.175 0.983507 -3.98441 0
M  V30 1602 H 174.706 2.43679 -3.08843 0
M  V30 1603 H 176.721 3.67499 -3.33406 0
M  V30 1604 N 175.894 1.51508 0.433938 0
M  V30 1605 C 176.857 1.72473 1.50949 0
M  V30 1606 C 177.857 0.594725 1.49398 0
M  V30 1607 O 179.047 0.862315 1.5136 0
M  V30 1608 C 176.179 1.78431 2.90474 0
M  V30 1609 H 177.372 2.68467 1.33662 0
M  V30 1610 H 174.925 1.41549 0.662836 0
M  V30 1611 H 175.66 0.842645 3.13161 0
M  V30 1612 H 175.445 2.60558 2.93005 0
M  V30 1613 H 176.935 1.96479 3.68491 0
M  V30 1614 N 177.372 -0.689602 1.41712 0
M  V30 1615 C 178.6 -1.47827 1.44758 0
M  V30 1616 C 179.015 -1.88721 0.0545703 0
M  V30 1617 O 178.372 -1.57176 -0.927463 0
M  V30 1618 C 178.423 -2.73698 2.3616 0
M  V30 1619 O 178.144 -2.34524 3.7004 0
M  V30 1620 C 179.645 -3.67389 2.48072 0
M  V30 1621 H 176.865 -0.455357 0.49284 0
M  V30 1622 H 179.409 -0.848574 1.86063 0
M  V30 1623 H 177.564 -3.32891 1.98148 0
M  V30 1624 H 177.978 -3.15701 4.18847 0
M  V30 1625 H 179.452 -4.52475 3.16181 0
M  V30 1626 H 179.929 -4.12284 1.51388 0
M  V30 1627 H 180.535 -3.14097 2.86746 0
M  V30 1628 N 178.85 -1.27639 -0.924453 0
M  V30 1629 C 179.813 -1.10681 -2.00705 0
M  V30 1630 C 180.813 -0.0497823 -1.60723 0
M  V30 1631 O 182.003 -0.294654 -1.7169 0
M  V30 1632 C 179.135 -0.687164 -3.33902 0
M  V30 1633 H 180.328 -2.06817 -2.17179 0
M  V30 1634 H 177.881 -1.10473 -1.10569 0
M  V30 1635 H 178.616 0.275439 -3.23128 0
M  V30 1636 H 178.401 -1.45061 -3.6428 0
M  V30 1637 H 179.891 -0.590853 -4.13399 0
M  V30 1638 N 180.328 1.1314 -1.09713 0
M  V30 1639 C 181.291 2.16831 -0.742751 0
M  V30 1640 C 182.291 1.59159 0.229129 0
M  V30 1641 O 183.481 1.74199 0.00693237 0
M  V30 1642 C 180.613 3.40756 -0.0989168 0
M  V30 1643 H 181.806 2.49695 -1.66109 0
M  V30 1644 H 179.359 1.2802 -0.896699 0
M  V30 1645 H 180.094 3.13485 0.830514 0
M  V30 1646 H 179.879 3.83888 -0.798265 0
M  V30 1647 H 181.369 4.17386 0.133524 0
M  V30 1648 N 181.806 0.884767 1.30421 0
M  V30 1649 C 183.046 0.509806 1.9794 0
M  V30 1650 C 183.41 -0.923736 1.68319 0
M  V30 1651 O 184.611 -1.40481 2.29169 0
M  V30 1652 C 182.882 0.776732 3.48858 0
M  V30 1653 S 184.441 0.503843 4.35898 0
M  V30 1654 H 181.259 0.189699 0.685227 0
M  V30 1655 H 183.861 1.14399 1.58535 0
M  V30 1656 H 182.565 1.81857 3.67908 0
M  V30 1657 H 182.096 0.1301 3.93185 0
M  V30 1658 H 184.111 -0.657625 4.91823 0
M  V30 1659 N 183.284 -1.43765 0.645699 0
M  V30 1660 C 184.232 -2.32516 -0.0624849 0
M  V30 1661 C 185.226 -1.48183 -0.820855 0
M  V30 1662 O 186.432 -1.64439 -0.732106 0
M  V30 1663 H 182.807 -0.750989 -0.0389864 0
M  V30 1664 H 184.778 -2.89979 0.703892 0
M  V30 1665 C 183.527 -3.32389 -1.02044 0
M  V30 1666 H 182.85 -3.97301 -0.446312 0
M  V30 1667 H 184.29 -3.97138 -1.48517 0
M  V30 1668 C 182.749 -2.62416 -2.11281 0
M  V30 1669 O 183.279 -2.434 -3.19561 0
M  V30 1670 N 181.485 -2.21913 -1.87624 0
M  V30 1671 H 181.032 -2.37578 -0.995703 0
M  V30 1672 H 180.99 -1.75424 -2.6091 0
M  V30 1673 N 184.763 -0.387143 -1.52771 0
M  V30 1674 C 185.693 0.440551 -2.29306 0
M  V30 1675 C 186.674 1.06535 -1.32606 0
M  V30 1676 O 187.859 1.07853 -1.61497 0
M  V30 1677 C 184.989 1.56919 -3.09829 0
M  V30 1678 C 183.943 1.07054 -4.14395 0
M  V30 1679 C 183.269 2.29109 -4.83129 0
M  V30 1680 C 184.569 0.140015 -5.22112 0
M  V30 1681 H 186.263 -0.198026 -2.98744 0
M  V30 1682 H 183.809 -0.09668 -1.43675 0
M  V30 1683 H 185.762 2.15503 -3.62128 0
M  V30 1684 H 184.486 2.23532 -2.3812 0
M  V30 1685 H 183.145 0.507247 -3.63074 0
M  V30 1686 H 182.793 2.94227 -4.0797 0
M  V30 1687 H 182.493 1.96406 -5.53804 0
M  V30 1688 H 184.017 2.88339 -5.38231 0
M  V30 1689 H 185.431 0.633978 -5.69784 0
M  V30 1690 H 183.828 -0.0971485 -6.00021 0
M  V30 1691 H 184.898 -0.811711 -4.78058 0
M  V30 1692 N 186.241 1.57166 -0.116904 0
M  V30 1693 C 187.489 1.94737 0.540533 0
M  V30 1694 C 187.81 1.00096 1.67349 0
M  V30 1695 O 187.08 0.0568854 1.95817 0
M  V30 1696 H 185.66 0.718981 0.202669 0
M  V30 1697 H 188.322 1.94017 -0.185353 0
M  V30 1698 H 187.418 2.97719 0.936483 0
M  V30 1699 N 187.719 -0.156864 1.56817 0
M  V30 1700 C 188.682 -1.17781 1.96622 0
M  V30 1701 C 189.682 -1.36401 0.851555 0
M  V30 1702 O 190.872 -1.33561 1.11836 0
M  V30 1703 C 188.004 -2.54008 2.27361 0
M  V30 1704 H 189.197 -0.836564 2.87996 0
M  V30 1705 H 186.75 -0.39985 1.51099 0
M  V30 1706 H 187.485 -2.9312 1.38748 0
M  V30 1707 H 187.27 -2.41856 3.08623 0
M  V30 1708 H 188.76 -3.27558 2.59029 0
M  V30 1709 N 189.197 -1.51736 -0.425897 0
M  V30 1710 C 190.445 -1.64644 -1.17204 0
M  V30 1711 C 190.766 -0.370486 -1.91448 0
M  V30 1712 O 190.036 0.614088 -1.86026 0
M  V30 1713 H 188.616 -0.606819 -0.435638 0
M  V30 1714 H 191.278 -1.88713 -0.487177 0
M  V30 1715 H 190.374 -2.47958 -1.89534 0
M  V30 1716 N 190.675 0.682077 -1.42076 0
M  V30 1717 C 191.623 1.81707 -1.45208 0
M  V30 1718 C 192.617 1.66183 -0.328591 0
M  V30 1719 O 193.823 1.7288 -0.501264 0
M  V30 1720 H 190.198 0.599014 -0.454628 0
M  V30 1721 H 192.169 1.76183 -2.40836 0
M  V30 1722 C 190.918 3.19816 -1.36428 0
M  V30 1723 H 190.241 3.32385 -2.22171 0
M  V30 1724 H 191.681 3.99272 -1.42681 0
M  V30 1725 C 190.14 3.36809 -0.078191 0
M  V30 1726 O 190.67 3.92124 0.87188 0
M  V30 1727 N 188.876 2.906 0.00229266 0
M  V30 1728 H 188.423 2.45772 -0.771616 0
M  V30 1729 H 188.381 3.02347 0.862179 0
M  V30 1730 N 192.153 1.28127 0.917671 0
M  V30 1731 C 193.378 1.18007 1.70555 0
M  V30 1732 C 193.803 -0.258257 1.86319 0
M  V30 1733 O 193.161 -1.1869 1.37049 0
M  V30 1734 C 193.209 1.87948 3.07746 0
M  V30 1735 O 192.313 1.18427 3.9503 0
M  V30 1736 H 191.654 0.409867 0.522403 0
M  V30 1737 H 194.184 1.69379 1.1477 0
M  V30 1738 H 194.194 1.95701 3.58001 0
M  V30 1739 H 192.869 2.92573 2.95591 0
M  V30 1740 H 191.446 1.18811 3.53466 0
M  V30 1741 N 193.631 -1.12557 1.10312 0
M  V30 1742 C 194.879 -1.83675 0.843091 0
M  V30 1743 C 195.2 -1.84435 -0.633131 0
M  V30 1744 O 194.47 -1.30657 -1.45964 0
M  V30 1745 H 193.05 -0.680138 0.308904 0
M  V30 1746 H 195.712 -1.36301 1.39313 0
M  V30 1747 H 194.808 -2.87908 1.2048 0
M  V30 1748 N 195.109 -0.891671 -1.2995 0
M  V30 1749 C 196.039 -0.379797 -2.30391 0
M  V30 1750 C 197.02 0.540919 -1.6127 0
M  V30 1751 O 198.205 0.453352 -1.88834 0
M  V30 1752 C 195.335 0.400654 -3.44981 0
M  V30 1753 C 194.289 -0.428905 -4.25846 0
M  V30 1754 C 193.615 0.478557 -5.32554 0
M  V30 1755 C 194.915 -1.67458 -4.94727 0
M  V30 1756 H 196.609 -1.21914 -2.73454 0
M  V30 1757 H 194.155 -0.587675 -1.31462 0
M  V30 1758 H 196.108 0.769434 -4.14316 0
M  V30 1759 H 194.832 1.27371 -3.0074 0
M  V30 1760 H 193.491 -0.779911 -3.58208 0
M  V30 1761 H 193.139 1.34951 -4.84559 0
M  V30 1762 H 192.839 -0.0727433 -5.87555 0
M  V30 1763 H 194.363 0.843705 -6.04743 0
M  V30 1764 H 195.777 -1.376 -5.56542 0
M  V30 1765 H 194.174 -2.16659 -5.59624 0
M  V30 1766 H 195.244 -2.41518 -4.20473 0
M  V30 1767 N 196.587 1.43421 -0.653314 0
M  V30 1768 C 197.864 1.95361 -0.0966581 0
M  V30 1769 C 198.244 1.59461 1.38331 0
M  V30 1770 O 197.592 0.879777 2.10884 0
M  V30 1771 C 197.802 3.47311 -0.342988 0
M  V30 1772 C 199.15 4.23875 -0.24798 0
M  V30 1773 O 200.174 3.55133 -0.275553 0
M  V30 1774 O 199.033 5.4623 -0.171771 0
M  V30 1775 H 196.127 0.826945 0.00956291 0
M  V30 1776 H 198.673 1.5336 -0.726558 0
M  V30 1777 H 197.445 3.66569 -1.36906 0
M  V30 1778 H 197.068 3.9631 0.319975 0
M  V30 1779 N 198.065 0.39524 1.52563 0
M  V30 1780 C 198.995 -0.428384 2.29537 0
M  V30 1781 C 199.976 -1.05831 1.33169 0
M  V30 1782 O 201.161 -1.06995 1.62067 0
M  V30 1783 C 198.291 -1.55274 3.10656 0
M  V30 1784 C 197.245 -1.04855 4.14957 0
M  V30 1785 C 196.571 -2.26543 4.84337 0
M  V30 1786 C 197.871 -0.112324 5.22179 0
M  V30 1787 H 199.565 0.213867 2.98635 0
M  V30 1788 H 197.111 0.104298 1.43622 0
M  V30 1789 H 199.064 -2.1358 3.63265 0
M  V30 1790 H 197.788 -2.22266 2.39302 0
M  V30 1791 H 196.447 -0.487985 3.63338 0
M  V30 1792 H 196.095 -2.92059 4.09525 0
M  V30 1793 H 195.795 -1.93466 5.54837 0
M  V30 1794 H 197.319 -2.85481 5.39753 0
M  V30 1795 H 198.733 -0.603752 5.70112 0
M  V30 1796 H 197.13 0.128968 5.99961 0
M  V30 1797 H 198.2 0.837052 4.77621 0
M  V30 1798 N 199.544 -1.57102 0.125237 0
M  V30 1799 C 200.792 -1.95021 -0.530198 0
M  V30 1800 C 201.113 -1.00982 -1.66816 0
M  V30 1801 O 200.383 -0.0672693 -1.95784 0
M  V30 1802 H 198.963 -0.720046 -0.198853 0
M  V30 1803 H 201.625 -1.93916 0.19564 0
M  V30 1804 H 200.721 -2.98211 -0.920681 0
M  V30 1805 N 201.022 0.148545 -1.56898 0
M  V30 1806 C 201.972 1.1886 -1.94567 0
M  V30 1807 C 202.956 1.3863 -0.816735 0
M  V30 1808 O 204.148 1.40218 -1.08018 0
M  V30 1809 C 201.277 2.52262 -2.32849 0
M  V30 1810 C 200.363 2.36092 -3.52309 0
M  V30 1811 N 200.754 1.89674 -4.6889 0
M  V30 1812 C 199.052 2.66848 -3.57363 0
M  V30 1813 C 199.753 1.86511 -5.50989 0
M  V30 1814 N 198.729 2.29766 -4.92655 0
M  V30 1815 H 202.531 0.821793 -2.82177 0
M  V30 1816 H 200.045 0.356615 -1.58436 0
M  V30 1817 H 202.042 3.27447 -2.58039 0
M  V30 1818 H 200.702 2.89727 -1.46589 0
M  V30 1819 H 201.713 1.59663 -4.92674 0
M  V30 1820 H 198.39 3.08198 -2.81639 0
M  V30 1821 H 199.78 1.52128 -6.54452 0
M  V30 1822 N 202.5 1.5196 0.417844 0
M  V30 1823 C 203.746 1.65836 1.16732 0
M  V30 1824 C 204.079 0.382881 1.90388 0
M  V30 1825 O 203.354 -0.618368 1.84408 0
M  V30 1826 C 203.637 2.87466 2.16876 0
M  V30 1827 C 203.49 4.25041 1.47174 0
M  V30 1828 C 204.809 3.04613 3.17646 0
M  V30 1829 H 201.928 0.603515 0.423011 0
M  V30 1830 H 204.57 1.84494 0.454105 0
M  V30 1831 H 202.72 2.71689 2.777 0
M  V30 1832 H 204.392 4.52527 0.895376 0
M  V30 1833 H 202.635 4.26843 0.773806 0
M  V30 1834 H 203.306 5.06176 2.20204 0
M  V30 1835 H 205.782 3.1923 2.66892 0
M  V30 1836 H 204.658 3.91247 3.8499 0
M  V30 1837 H 204.919 2.17541 3.84874 0
M  V30 1838 N 203.978 -0.674533 1.42435 0
M  V30 1839 C 204.941 -1.76986 1.45632 0
M  V30 1840 C 205.941 -1.5708 0.343871 0
M  V30 1841 O 207.131 -1.63367 0.604709 0
M  V30 1842 C 204.263 -3.15623 1.28822 0
M  V30 1843 H 205.456 -1.75539 2.43158 0
M  V30 1844 H 203.009 -0.884189 1.28887 0
M  V30 1845 H 203.744 -3.22696 0.322193 0
M  V30 1846 H 203.529 -3.31475 2.09444 0
M  V30 1847 H 205.019 -3.95537 1.33942 0
M  V30 1848 N 205.456 -1.28612 -0.910864 0
M  V30 1849 C 206.386 -1.15326 -2.03032 0
M  V30 1850 C 207.367 -0.0502924 -1.70026 0
M  V30 1851 O 208.552 -0.227797 -1.92859 0
M  V30 1852 C 205.682 -0.817343 -3.37545 0
M  V30 1853 C 204.636 -1.8754 -3.84724 0
M  V30 1854 C 203.962 -1.39305 -5.16235 0
M  V30 1855 C 205.262 -3.28244 -4.06267 0
M  V30 1856 H 206.956 -2.08975 -2.14406 0
M  V30 1857 H 204.502 -1.00612 -1.03021 0
M  V30 1858 H 206.455 -0.711151 -4.15356 0
M  V30 1859 H 205.179 0.154846 -3.26233 0
M  V30 1860 H 203.838 -1.97079 -3.09121 0
M  V30 1861 H 203.486 -0.409846 -5.01328 0
M  V30 1862 H 203.186 -2.10057 -5.48771 0
M  V30 1863 H 204.71 -1.30014 -5.96598 0
M  V30 1864 H 206.124 -3.21611 -4.74594 0
M  V30 1865 H 204.521 -3.96855 -4.5014 0
M  V30 1866 H 205.591 -3.72048 -3.10979 0
M  V30 1867 N 206.934 1.1197 -1.10907 0
M  V30 1868 C 208.162 1.87402 -0.876824 0
M  V30 1869 C 208.577 1.79894 0.573025 0
M  V30 1870 O 207.934 1.17629 1.39534 0
M  V30 1871 C 207.985 3.36428 -1.32282 0
M  V30 1872 O 207.706 3.43765 -2.71582 0
M  V30 1873 C 209.207 4.28783 -1.12518 0
M  V30 1874 H 206.427 0.592793 -0.314384 0
M  V30 1875 H 208.971 1.41649 -1.47499 0
M  V30 1876 H 207.126 3.79706 -0.768229 0
M  V30 1877 H 207.54 4.3652 -2.90776 0
M  V30 1878 H 209.014 5.31613 -1.48633 0
M  V30 1879 H 209.491 4.39153 -0.0642394 0
M  V30 1880 H 210.097 3.91291 -1.66648 0
M  V30 1881 N 208.412 0.89855 1.29475 0
M  V30 1882 C 209.659 0.523882 1.95606 0
M  V30 1883 C 209.987 -0.929608 1.70847 0
M  V30 1884 O 209.242 -1.67401 1.01367 0
M  V30 1885 C 209.541 0.761398 3.49195 0
M  V30 1886 C 209.207 2.19207 3.94029 0
M  V30 1887 C 207.869 2.58326 4.05982 0
M  V30 1888 C 210.221 3.12379 4.17216 0
M  V30 1889 C 207.549 3.898 4.38489 0
M  V30 1890 C 209.901 4.43401 4.51197 0
M  V30 1891 C 208.565 4.82394 4.61359 0
M  V30 1892 H 207.835 0.191702 0.715773 0
M  V30 1893 H 210.482 1.13699 1.54094 0
M  V30 1894 H 208.787 0.0653622 3.91745 0
M  V30 1895 H 210.484 0.450904 3.98457 0
M  V30 1896 H 207.074 1.87846 3.85242 0
M  V30 1897 H 211.258 2.83371 4.07449 0
M  V30 1898 H 206.514 4.19734 4.44559 0
M  V30 1899 H 210.688 5.15623 4.68087 0
M  V30 1900 H 208.315 5.84306 4.86303 0
M  V30 1901 N 209.89 -1.43072 0.660911 0
M  V30 1902 C 211.138 -2.01323 0.177094 0
M  V30 1903 C 211.459 -1.5245 -1.2159 0
M  V30 1904 O 210.729 -0.740322 -1.81373 0
M  V30 1905 H 209.309 -0.744382 0.0624804 0
M  V30 1906 H 211.971 -1.75179 0.854305 0
M  V30 1907 H 211.067 -3.11649 0.167641 0
M  V30 1908 O 211.407 -0.545482 -1.52009 0
M  V30 1909 H 212.098 -0.0397754 -1.93659 0
M  V30 END ATOM
M  V30 BEGIN BOND
M  V30 END BOND
M  V30 END CTAB
M  END
$$$$
