drugbank_target|Q06319 Acyl-CoA dehydrogenase, short-chain specific (DB03059; DB03147)
 OpenBabel12092120263D

  0  0  0     0  0            999 V3000
M  V30 BEGIN CTAB
M  V30 COUNTS 5808 5855 0 0 0
M  V30 BEGIN ATOM
M  V30 1 H -0.908 1.98254 -0.117106 0
M  V30 2 N 0 1.576 0 0
M  V30 3 C 0.933 2.03868 1.02534 0
M  V30 4 C 1.911 0.928543 1.3348 0
M  V30 5 O 3.095 1.19667 1.45644 0
M  V30 6 C 0.222 2.43627 2.35294 0
M  V30 7 C -0.732 3.65373 2.2001 0
M  V30 8 S 0.101 5.13292 1.52614 0
M  V30 9 C 1.257 5.56322 2.86805 0
M  V30 10 H 1.49 2.90518 0.631377 0
M  V30 11 H -0.977 1.52953 0.210867 0
M  V30 12 H 0.981 2.67203 3.11629 0
M  V30 13 H -0.358 1.57376 2.7183 0
M  V30 14 H -1.165 3.90944 3.18086 0
M  V30 15 H -1.563 3.418 1.51819 0
M  V30 16 H 0.729 5.58782 3.83104 0
M  V30 17 H 1.672 6.56266 2.65933 0
M  V30 18 H 2.08 4.83886 2.90714 0
M  V30 19 N 1.4781 -0.272755 1.55222 0
M  V30 20 C 2.7551 -1.02562 1.66555 0
M  V30 21 C 3.1351 -2.04282 0.532189 0
M  V30 22 O 2.4831 -2.23662 -0.467717 0
M  V30 23 C 2.6931 -1.6822 3.05782 0
M  V30 24 C 4.0411 -2.19373 3.63539 0
M  V30 25 O 5.0651 -1.78206 3.08417 0
M  V30 26 O 3.9241 -2.94883 4.60115 0
M  V30 27 H 1.0181 -0.475755 0.676451 0
M  V30 28 H 3.5641 -0.268593 1.67561 0
M  V30 29 H 2.3361 -0.945112 3.79715 0
M  V30 30 H 1.9591 -2.50609 3.08676 0
M  V30 31 N 2.9562 -1.48159 -0.537278 0
M  V30 32 C 4.2032 -1.55804 -1.29349 0
M  V30 33 C 4.5312 -0.228802 -1.9315 0
M  V30 34 O 3.7862 0.780242 -1.79473 0
M  V30 35 C 4.0852 -2.63956 -2.40961 0
M  V30 36 C 3.7512 -4.0662 -1.94861 0
M  V30 37 C 2.4132 -4.45452 -1.82006 0
M  V30 38 C 4.7652 -4.96055 -1.59933 0
M  V30 39 C 2.0932 -5.71531 -1.32547 0
M  V30 40 C 4.4452 -6.22617 -1.11939 0
M  V30 41 C 3.1092 -6.60312 -0.976951 0
M  V30 42 H 2.3792 -0.570129 -0.473322 0
M  V30 43 H 5.0262 -1.81845 -0.600372 0
M  V30 44 H 3.3312 -2.31747 -3.15912 0
M  V30 45 H 5.0282 -2.67089 -2.99107 0
M  V30 46 H 1.6182 -3.75949 -2.05815 0
M  V30 47 H 5.8022 -4.66738 -1.68728 0
M  V30 48 H 1.0582 -5.99468 -1.202 0
M  V30 49 H 5.2322 -6.91318 -0.839811 0
M  V30 50 H 2.8592 -7.57895 -0.591501 0
M  V30 51 N 4.4343 0.785586 -1.36625 0
M  V30 52 C 5.3823 1.91978 -1.31329 0
M  V30 53 C 6.3763 1.68162 -0.204416 0
M  V30 54 O 7.5823 1.76122 -0.371645 0
M  V30 55 H 3.9573 0.631087 -0.408942 0
M  V30 56 H 5.9283 1.93562 -2.27104 0
M  V30 57 C 4.6773 3.29055 -1.12329 0
M  V30 58 H 4.0003 3.4795 -1.96903 0
M  V30 59 H 5.4403 4.08756 -1.12671 0
M  V30 60 C 3.8993 3.36461 0.171861 0
M  V30 61 O 4.4293 3.84576 1.16035 0
M  V30 62 N 2.6353 2.89782 0.217846 0
M  V30 63 H 2.1823 2.50819 -0.587183 0
M  V30 64 H 2.1403 2.95119 1.08408 0
M  V30 65 N 5.9124 1.20967 1.01018 0
M  V30 66 C 6.8424 0.988272 2.11555 0
M  V30 67 C 7.8234 -0.0849778 1.69888 0
M  V30 68 O 9.0084 0.0738202 1.9406 0
M  V30 69 C 6.1384 0.546528 3.42973 0
M  V30 70 C 5.0924 1.56375 3.9841 0
M  V30 71 C 4.4184 0.97842 5.25672 0
M  V30 72 C 5.7184 2.94922 4.31066 0
M  V30 73 H 7.4124 1.91276 2.30334 0
M  V30 74 H 4.9584 0.921073 1.1069 0
M  V30 75 H 6.9114 0.378839 4.19694 0
M  V30 76 H 5.6354 -0.413598 3.23971 0
M  V30 77 H 4.2944 1.71891 3.23804 0
M  V30 78 H 3.9424 0.0101688 5.02999 0
M  V30 79 H 3.6424 1.65784 5.63728 0
M  V30 80 H 5.1664 0.821939 6.05043 0
M  V30 81 H 6.5804 2.8288 4.9865 0
M  V30 82 H 4.9774 3.5983 4.80253 0
M  V30 83 H 6.0474 3.4616 3.39561 0
M  V30 84 N 7.3905 -1.2043 1.01659 0
M  V30 85 C 8.6185 -1.93777 0.725132 0
M  V30 86 C 9.0335 -1.74772 -0.714166 0
M  V30 87 O 8.3905 -1.06169 -1.4844 0
M  V30 88 C 8.4415 -3.45876 1.05129 0
M  V30 89 O 8.1625 -3.6426 2.43406 0
M  V30 90 C 9.6635 -4.36368 0.780891 0
M  V30 91 H 6.8835 -0.615901 0.266284 0
M  V30 92 H 9.4275 -1.52922 1.35776 0
M  V30 93 H 7.5825 -3.8461 0.464065 0
M  V30 94 H 7.9965 -4.58246 2.55169 0
M  V30 95 H 9.4705 -5.41743 1.05918 0
M  V30 96 H 9.9475 -4.38275 -0.284937 0
M  V30 97 H 10.5535 -4.03296 1.35027 0
M  V30 98 N 8.8686 -0.792821 -1.36206 0
M  V30 99 C 10.1456 -0.290627 -1.93429 0
M  V30 100 C 10.5256 1.21773 -1.72437 0
M  V30 101 O 9.8736 2.0108 -1.08531 0
M  V30 102 C 10.0836 -0.686973 -3.42172 0
M  V30 103 C 11.4316 -0.668643 -4.19302 0
M  V30 104 O 12.4556 -0.627658 -3.50626 0
M  V30 105 O 11.3146 -0.714597 -5.41808 0
M  V30 106 H 8.4086 -0.0727927 -0.82379 0
M  V30 107 H 10.9546 -0.875593 -1.45367 0
M  V30 108 H 9.7266 -1.72711 -3.51122 0
M  V30 109 H 9.3496 -0.0760733 -3.97527 0
M  V30 110 N 10.3467 1.47872 -0.545128 0
M  V30 111 C 11.5957 2.01695 -0.0145033 0
M  V30 112 C 11.9087 1.42609 1.33873 0
M  V30 113 O 13.1147 1.88021 1.95858 0
M  V30 114 C 11.5707 3.59892 0.0245068 0
M  V30 115 C 11.1787 4.27966 -1.32475 0
M  V30 116 C 12.9227 4.21507 0.50316 0
M  V30 117 C 10.8297 5.78136 -1.2455 0
M  V30 118 H 9.7597 0.753998 -0.00165172 0
M  V30 119 H 12.4107 1.69985 -0.691175 0
M  V30 120 H 10.7927 3.88509 0.766575 0
M  V30 121 H 11.9667 4.11003 -2.08357 0
M  V30 122 H 10.2817 3.78286 -1.74036 0
M  V30 123 H 12.8787 5.31538 0.580656 0
M  V30 124 H 13.2217 3.87855 1.51243 0
M  V30 125 H 13.7547 3.97376 -0.183681 0
M  V30 126 H 10.4937 6.16388 -2.23039 0
M  V30 127 H 10.0137 5.97469 -0.528282 0
M  V30 128 H 11.6927 6.40099 -0.942488 0
M  V30 129 N 11.8248 0.280983 1.55075 0
M  V30 130 C 12.7568 -0.637268 2.20163 0
M  V30 131 C 13.7698 -1.11298 1.18813 0
M  V30 132 O 14.9588 -1.03388 1.4551 0
M  V30 133 C 12.0588 -1.88199 2.81841 0
M  V30 134 C 11.2318 -1.55211 4.08936 0
M  V30 135 C 10.2908 -2.64991 4.54606 0
M  V30 136 O 9.3168 -2.30929 5.2025 0
M  V30 137 N 10.5188 -3.95161 4.25238 0
M  V30 138 H 13.2838 -0.0801694 2.99593 0
M  V30 139 H 10.8448 0.102329 1.61576 0
M  V30 140 H 12.8368 -2.60948 3.09335 0
M  V30 141 H 11.4068 -2.34799 2.06369 0
M  V30 142 H 10.6268 -0.658185 3.88666 0
M  V30 143 H 11.9148 -1.30681 4.91732 0
M  V30 144 H 11.3128 -4.25653 3.72607 0
M  V30 145 H 9.8698 -4.6427 4.5749 0
M  V30 146 N 13.3029 -1.57598 0.00835791 0
M  V30 147 C 14.2349 -2.05811 -1.00868 0
M  V30 148 C 15.2479 -0.977579 -1.30182 0
M  V30 149 O 16.4369 -1.25421 -1.27011 0
M  V30 150 C 13.5369 -2.45016 -2.34137 0
M  V30 151 C 12.7099 -3.75903 -2.23643 0
M  V30 152 C 11.7689 -4.01884 -3.3967 0
M  V30 153 O 10.7949 -4.72433 -3.17483 0
M  V30 154 N 11.9969 -3.50432 -4.62793 0
M  V30 155 H 14.7619 -2.93684 -0.597458 0
M  V30 156 H 12.3229 -1.60909 -0.178852 0
M  V30 157 H 14.3149 -2.59506 -3.10546 0
M  V30 158 H 12.8849 -1.62618 -2.66972 0
M  V30 159 H 12.1049 -3.7141 -1.32091 0
M  V30 160 H 13.3929 -4.61695 -2.13812 0
M  V30 161 H 12.7909 -2.93317 -4.83716 0
M  V30 162 H 11.3479 -3.70236 -5.3644 0
M  V30 163 N 14.781 0.264519 -1.55364 0
M  V30 164 C 16.058 1.01677 -1.67096 0
M  V30 165 C 16.438 2.03996 -0.543015 0
M  V30 166 O 15.786 2.23907 0.45585 0
M  V30 167 C 15.996 1.66596 -3.0667 0
M  V30 168 C 17.344 2.17442 -3.64697 0
M  V30 169 O 18.368 1.76568 -3.09358 0
M  V30 170 O 17.227 2.92439 -4.61673 0
M  V30 171 H 14.321 0.472161 -0.678965 0
M  V30 172 H 16.867 0.259703 -1.67701 0
M  V30 173 H 15.639 0.924962 -3.80211 0
M  V30 174 H 15.262 2.48968 -3.10001 0
M  V30 175 N 16.2591 1.48442 0.529413 0
M  V30 176 C 17.5061 1.56488 1.28521 0
M  V30 177 C 17.8341 0.239042 1.93025 0
M  V30 178 O 17.0891 -0.770713 1.79885 0
M  V30 179 C 17.3881 2.6523 2.39558 0
M  V30 180 C 17.0541 4.07648 1.92702 0
M  V30 181 C 15.7161 4.46411 1.79641 0
M  V30 182 C 18.0681 4.96896 1.573 0
M  V30 183 C 15.3961 5.72226 1.29514 0
M  V30 184 C 17.7481 6.23202 1.08636 0
M  V30 185 C 16.4121 6.60821 0.941919 0
M  V30 186 H 15.6821 0.572631 0.470292 0
M  V30 187 H 18.3291 1.82161 0.59072 0
M  V30 188 H 16.6341 2.33419 3.14679 0
M  V30 189 H 18.3311 2.68671 2.97686 0
M  V30 190 H 14.9211 3.77036 2.03819 0
M  V30 191 H 19.1051 4.67626 1.66251 0
M  V30 192 H 14.3611 6.00097 1.17019 0
M  V30 193 H 18.5351 6.91753 0.803136 0
M  V30 194 H 16.1621 7.58198 0.5513 0
M  V30 195 N 17.7372 -0.778329 1.37039 0
M  V30 196 C 18.6672 -1.90546 1.34962 0
M  V30 197 C 19.6482 -1.68681 0.219274 0
M  V30 198 O 20.8332 -1.89634 0.418624 0
M  V30 199 C 17.9632 -3.27734 1.14925 0
M  V30 200 C 16.9172 -3.64147 2.24902 0
M  V30 201 C 16.2432 -4.99806 1.89996 0
M  V30 202 C 17.5432 -3.71579 3.67051 0
M  V30 203 H 19.2372 -1.92541 2.29277 0
M  V30 204 H 16.7832 -0.924948 1.10366 0
M  V30 205 H 18.7362 -4.06215 1.12104 0
M  V30 206 H 17.4602 -3.26154 0.170631 0
M  V30 207 H 16.1192 -2.8797 2.26868 0
M  V30 208 H 15.7672 -4.94759 0.906796 0
M  V30 209 H 15.4672 -5.25139 2.63634 0
M  V30 210 H 16.9912 -5.80694 1.88749 0
M  V30 211 H 18.4052 -4.40227 3.67251 0
M  V30 212 H 16.8022 -4.08405 4.39688 0
M  V30 213 H 17.8722 -2.72404 4.01154 0
M  V30 214 N 19.2153 -1.21501 -1.00376 0
M  V30 215 C 20.1623 -0.975387 -2.09177 0
M  V30 216 C 21.1323 0.0990615 -1.65804 0
M  V30 217 O 22.3173 -0.0483147 -1.90739 0
M  V30 218 C 19.4573 -0.547507 -3.40729 0
M  V30 219 C 18.5703 -1.69153 -3.97506 0
M  V30 220 C 17.7053 -1.2127 -5.17172 0
M  V30 221 C 16.7443 -2.32897 -5.66061 0
M  V30 222 N 15.8813 -1.86138 -6.76976 0
M  V30 223 H 20.7213 -1.9068 -2.29009 0
M  V30 224 H 18.2583 -0.950257 -1.12288 0
M  V30 225 H 20.2163 -0.280667 -4.16255 0
M  V30 226 H 18.8463 0.346904 -3.20931 0
M  V30 227 H 17.8983 -2.07298 -3.18954 0
M  V30 228 H 19.2103 -2.5316 -4.29781 0
M  V30 229 H 18.3643 -0.902591 -5.99948 0
M  V30 230 H 17.1033 -0.342692 -4.86495 0
M  V30 231 H 16.1083 -2.64709 -4.81881 0
M  V30 232 H 17.3333 -3.20396 -5.98768 0
M  V30 233 H 15.2793 -1.01484 -6.48103 0
M  V30 234 H 15.1963 -2.63717 -7.08512 0
M  V30 235 H 16.4643 -1.58165 -7.63285 0
M  V30 236 N 20.6934 1.19889 -1.02296 0
M  V30 237 C 21.6234 2.25141 -0.619174 0
M  V30 238 C 22.6044 1.66051 0.368915 0
M  V30 239 O 23.7894 1.92546 0.252941 0
M  V30 240 C 20.9194 3.4728 0.0368783 0
M  V30 241 C 19.8734 4.19005 -0.872865 0
M  V30 242 C 19.1994 5.34637 -0.0822402 0
M  V30 243 C 20.4994 4.74452 -2.18387 0
M  V30 244 H 22.1934 2.59171 -1.49903 0
M  V30 245 H 19.7394 1.24579 -0.722222 0
M  V30 246 H 21.6924 4.20098 0.330958 0
M  V30 247 H 20.4164 3.12433 0.95149 0
M  V30 248 H 19.0754 3.48061 -1.15105 0
M  V30 249 H 18.7234 4.96034 0.83422 0
M  V30 250 H 18.4234 5.83557 -0.688149 0
M  V30 251 H 19.9474 6.10255 0.205238 0
M  V30 252 H 21.3614 5.39055 -1.95172 0
M  V30 253 H 19.7584 5.33834 -2.74119 0
M  V30 254 H 20.8284 3.92844 -2.84257 0
M  V30 255 N 22.1715 0.800033 1.35784 0
M  V30 256 C 23.1345 0.211565 2.28221 0
M  V30 257 C 24.1345 -0.59728 1.49296 0
M  V30 258 O 25.3245 -0.416721 1.69142 0
M  V30 259 C 22.4565 -0.705846 3.33513 0
M  V30 260 H 23.6495 1.02677 2.81776 0
M  V30 261 H 21.2025 0.570211 1.45528 0
M  V30 262 H 21.9375 -1.54498 2.85133 0
M  V30 263 H 21.7225 -0.127655 3.91892 0
M  V30 264 H 23.2125 -1.11211 4.02519 0
M  V30 265 N 23.6496 -1.47581 0.552962 0
M  V30 266 C 24.5996 -2.26961 -0.217423 0
M  V30 267 C 25.5836 -1.34099 -0.889168 0
M  V30 268 O 26.7756 -1.58483 -0.788176 0
M  V30 269 C 23.9046 -3.19756 -1.24944 0
M  V30 270 C 22.9906 -4.20097 -0.581327 0
M  V30 271 N 23.3816 -5.04614 0.346171 0
M  V30 272 C 21.6796 -4.38099 -0.835767 0
M  V30 273 C 22.3806 -5.77052 0.733854 0
M  V30 274 N 21.3566 -5.43526 0.0896567 0
M  V30 275 H 25.1586 -2.89688 0.495761 0
M  V30 276 H 22.6726 -1.58068 0.372597 0
M  V30 277 H 24.6696 -3.75305 -1.81527 0
M  V30 278 H 23.3296 -2.58585 -1.96376 0
M  V30 279 H 24.3406 -5.12869 0.720098 0
M  V30 280 H 21.0176 -3.88102 -1.53892 0
M  V30 281 H 22.4076 -6.5504 1.49574 0
M  V30 282 N 25.1277 -0.289203 -1.54924 0
M  V30 283 C 26.4047 0.376032 -1.91951 0
M  V30 284 C 26.7847 1.72622 -1.21511 0
M  V30 285 O 26.1327 2.25853 -0.346767 0
M  V30 286 C 26.3427 0.502378 -3.45365 0
M  V30 287 C 27.6907 0.778741 -4.17398 0
M  V30 288 O 28.7147 0.586647 -3.51336 0
M  V30 289 O 27.5737 1.14698 -5.34328 0
M  V30 290 H 24.6677 0.208167 -0.800372 0
M  V30 291 H 27.2137 -0.336394 -1.66332 0
M  V30 292 H 25.9857 -0.447255 -3.88736 0
M  V30 293 H 25.6087 1.26373 -3.76982 0
M  V30 294 N 26.6058 1.57591 -0.0167156 0
M  V30 295 C 27.8528 1.91283 0.664597 0
M  V30 296 C 28.1808 0.891949 1.72842 0
M  V30 297 O 27.4358 -0.100931 1.9544 0
M  V30 298 C 27.7348 3.3172 1.33029 0
M  V30 299 C 27.4008 4.4914 0.398047 0
M  V30 300 C 26.0628 4.80992 0.141421 0
M  V30 301 C 28.4148 5.20634 -0.242825 0
M  V30 302 C 25.7428 5.81703 -0.764092 0
M  V30 303 C 28.0948 6.22311 -1.13632 0
M  V30 304 C 26.7588 6.52611 -1.40196 0
M  V30 305 H 26.0288 0.699956 0.243193 0
M  V30 306 H 28.6758 1.9135 -0.0758267 0
M  V30 307 H 26.9808 3.27856 2.14517 0
M  V30 308 H 28.6778 3.55055 1.86379 0
M  V30 309 H 25.2678 4.24262 0.608238 0
M  V30 310 H 29.4518 4.96267 -0.0576019 0
M  V30 311 H 24.7078 6.03532 -0.977732 0
M  V30 312 H 28.8818 6.76834 -1.63917 0
M  V30 313 H 26.5088 7.30467 -2.10529 0
M  V30 314 N 28.0839 -0.256276 1.55502 0
M  V30 315 C 29.3319 -0.983672 1.76545 0
M  V30 316 C 29.6529 -1.86206 0.578982 0
M  V30 317 O 28.9229 -1.91656 -0.405577 0
M  V30 318 H 27.5029 -0.366191 0.651086 0
M  V30 319 H 30.1649 -0.276479 1.92929 0
M  V30 320 H 29.2609 -1.61087 2.67315 0
M  V30 321 N 29.562 -1.4872 -0.521534 0
M  V30 322 C 30.472 -1.66569 -1.65203 0
M  V30 323 C 31.488 -0.548197 -1.65139 0
M  V30 324 O 32.664 -0.820339 -1.83936 0
M  V30 325 C 29.729 -1.70917 -3.01642 0
M  V30 326 C 28.79 -2.94356 -3.12495 0
M  V30 327 C 28.023 -2.98487 -4.42426 0
M  V30 328 O 28.246 -2.10786 -5.30024 0
M  V30 329 O 27.18 -3.90746 -4.57822 0
M  V30 330 H 31.006 -2.62298 -1.5308 0
M  V30 331 H 28.591 -1.3222 -0.695565 0
M  V30 332 H 30.473 -1.7625 -3.82771 0
M  V30 333 H 29.148 -0.783633 -3.14071 0
M  V30 334 H 28.055 -2.94552 -2.3063 0
M  V30 335 H 29.388 -3.86322 -3.04986 0
M  V30 336 N 31.0401 0.771051 -1.3745 0
M  V30 337 C 31.9871 1.88435 -1.3327 0
M  V30 338 C 32.9571 1.64914 -0.198136 0
M  V30 339 O 34.1421 1.86821 -0.387606 0
M  V30 340 C 31.2821 3.25509 -1.14622 0
M  V30 341 C 30.3951 3.60979 -2.37314 0
M  V30 342 C 29.5301 4.87265 -2.11533 0
M  V30 343 C 28.5691 5.15469 -3.30088 0
M  V30 344 N 27.7061 6.32944 -3.03853 0
M  V30 345 H 32.5461 1.91344 -2.28455 0
M  V30 346 H 30.0831 0.935466 -1.13523 0
M  V30 347 H 32.0411 4.04582 -1.01831 0
M  V30 348 H 30.6711 3.21974 -0.230837 0
M  V30 349 H 29.7231 2.76885 -2.60842 0
M  V30 350 H 31.0351 3.77759 -3.25729 0
M  V30 351 H 30.1891 5.74244 -1.95777 0
M  V30 352 H 28.9281 4.7259 -1.20457 0
M  V30 353 H 27.9331 4.26966 -3.46382 0
M  V30 354 H 29.1581 5.32052 -4.22016 0
M  V30 355 H 27.1041 6.19625 -2.15407 0
M  V30 356 H 27.0211 6.50143 -3.85812 0
M  V30 357 H 28.2891 7.22857 -2.91716 0
M  V30 358 N 32.5182 1.22032 0.997298 0
M  V30 359 C 33.4652 0.986467 2.08656 0
M  V30 360 C 34.4352 -0.0902671 1.65855 0
M  V30 361 O 35.6202 0.0584294 1.90711 0
M  V30 362 C 32.7602 0.565569 3.40434 0
M  V30 363 C 31.8732 1.71259 3.96604 0
M  V30 364 C 31.0082 1.24011 5.16522 0
M  V30 365 C 30.0472 2.35896 5.64818 0
M  V30 366 N 29.1842 1.89726 6.7598 0
M  V30 367 H 34.0242 1.91892 2.27994 0
M  V30 368 H 31.5612 0.956199 1.11782 0
M  V30 369 H 33.5192 0.302738 4.161 0
M  V30 370 H 32.1492 -0.329879 3.2111 0
M  V30 371 H 31.2012 2.08986 3.17851 0
M  V30 372 H 32.5132 2.55436 4.28432 0
M  V30 373 H 31.6672 0.934395 5.99461 0
M  V30 374 H 30.4062 0.368487 4.86306 0
M  V30 375 H 29.4112 2.67261 4.8047 0
M  V30 376 H 30.6362 3.23567 5.97061 0
M  V30 377 H 28.5822 1.0492 6.47555 0
M  V30 378 H 28.4992 2.67471 7.07103 0
M  V30 379 H 29.7672 1.62211 7.62435 0
M  V30 380 N 33.9963 -1.19345 1.0293 0
M  V30 381 C 34.9263 -2.2481 0.631105 0
M  V30 382 C 35.9073 -1.66245 -0.360104 0
M  V30 383 O 37.0923 -1.92677 -0.242726 0
M  V30 384 C 34.2223 -3.47295 -0.0184607 0
M  V30 385 C 33.1763 -4.18536 0.895073 0
M  V30 386 C 32.5023 -5.34586 0.110592 0
M  V30 387 C 33.8023 -4.73287 2.209 0
M  V30 388 H 35.4963 -2.58372 1.51275 0
M  V30 389 H 33.0423 -1.24194 0.728818 0
M  V30 390 H 34.9953 -4.20268 -0.308675 0
M  V30 391 H 33.7193 -3.12933 -0.934907 0
M  V30 392 H 32.3783 -3.47446 1.16949 0
M  V30 393 H 32.0263 -4.96469 -0.807902 0
M  V30 394 H 31.7263 -5.83183 0.719087 0
M  V30 395 H 33.2503 -6.10355 -0.172871 0
M  V30 396 H 34.6643 -5.38013 1.98028 0
M  V30 397 H 33.0613 -5.32373 2.76946 0
M  V30 398 H 34.1313 -3.91331 2.86336 0
M  V30 399 N 35.4744 -0.807222 -1.35358 0
M  V30 400 C 36.4374 -0.223665 -2.28106 0
M  V30 401 C 37.4374 0.589354 -1.4961 0
M  V30 402 O 38.6274 0.407745 -1.69361 0
M  V30 403 C 35.7594 0.688149 -3.33882 0
M  V30 404 H 36.9524 -1.04169 -2.81227 0
M  V30 405 H 34.5054 -0.577921 -1.45223 0
M  V30 406 H 35.2404 1.52984 -2.85948 0
M  V30 407 H 35.0254 0.10687 -3.91954 0
M  V30 408 H 36.5154 1.09075 -4.03104 0
M  V30 409 N 36.9525 1.47285 -0.560781 0
M  V30 410 C 38.3635 1.86258 -0.128343 0
M  V30 411 C 38.7145 1.46699 1.30284 0
M  V30 412 O 37.8395 0.871698 1.98067 0
M  V30 413 C 38.4345 3.38044 -0.22614 0
M  V30 414 C 36.9935 3.76096 0.151283 0
M  V30 415 C 36.1405 2.71335 -0.572084 0
M  V30 416 H 39.0915 1.38752 -0.770297 0
M  V30 417 H 39.1125 3.76441 0.554322 0
M  V30 418 H 38.6245 3.66806 -1.26788 0
M  V30 419 H 36.7255 3.52951 1.19399 0
M  V30 420 H 36.8385 4.78641 -0.209765 0
M  V30 421 H 35.2025 2.54696 -0.0147653 0
M  V30 422 H 35.9855 3.02938 -1.61504 0
M  V30 423 N 38.4306 0.297415 1.54768 0
M  V30 424 C 39.6586 -0.315623 2.04478 0
M  V30 425 C 40.0736 -1.47792 1.17486 0
M  V30 426 O 39.4306 -1.81404 0.19971 0
M  V30 427 C 39.4816 -0.7753 3.53088 0
M  V30 428 O 39.2026 0.340732 4.36773 0
M  V30 429 C 40.7036 -1.45386 4.18781 0
M  V30 430 H 37.9236 -0.0690887 0.667434 0
M  V30 431 H 40.4676 0.436003 1.99798 0
M  V30 432 H 38.6226 -1.47696 3.58141 0
M  V30 433 H 39.0366 -0.0165035 5.24497 0
M  V30 434 H 40.5106 -1.72669 5.24299 0
M  V30 435 H 40.9876 -2.39275 3.68299 0
M  V30 436 H 41.5936 -0.795475 4.17795 0
M  V30 437 N 39.9087 -1.5758 0.0250728 0
M  V30 438 C 41.1547 -1.91917 -0.655413 0
M  V30 439 C 41.4877 -0.901433 -1.72011 0
M  V30 440 O 40.7627 0.0764069 -1.9435 0
M  V30 441 C 41.0457 -3.36751 -1.27558 0
M  V30 442 C 40.8987 -4.49258 -0.220719 0
M  V30 443 C 42.2177 -3.81469 -2.19475 0
M  V30 444 H 39.3367 -0.697925 -0.23679 0
M  V30 445 H 41.9787 -1.89825 0.0815036 0
M  V30 446 H 40.1287 -3.38664 -1.90365 0
M  V30 447 H 41.8007 -4.59478 0.409601 0
M  V30 448 H 40.0437 -4.31415 0.454264 0
M  V30 449 H 40.7147 -5.47618 -0.694175 0
M  V30 450 H 43.1907 -3.81266 -1.66659 0
M  V30 451 H 42.0667 -4.83512 -2.59822 0
M  V30 452 H 42.3277 -3.16744 -3.08424 0
M  V30 453 N 41.3868 0.248026 -1.55636 0
M  V30 454 C 42.6148 0.993808 -1.81469 0
M  V30 455 C 43.0298 1.78991 -0.60064 0
M  V30 456 O 42.3868 1.77345 0.430682 0
M  V30 457 C 42.4378 1.93258 -3.05506 0
M  V30 458 O 42.1588 1.16869 -4.22224 0
M  V30 459 C 43.6598 2.79444 -3.4413 0
M  V30 460 H 40.8798 0.292486 -0.603898 0
M  V30 461 H 43.4238 0.271253 -2.02693 0
M  V30 462 H 41.5788 2.60943 -2.86335 0
M  V30 463 H 41.9928 1.80359 -4.92515 0
M  V30 464 H 43.4668 3.41066 -4.34026 0
M  V30 465 H 43.9438 3.50499 -2.64665 0
M  V30 466 H 44.5498 2.17214 -3.65648 0
M  V30 467 N 42.8649 1.48995 0.513639 0
M  V30 468 C 43.7749 1.67443 1.64317 0
M  V30 469 C 44.7909 0.556947 1.64846 0
M  V30 470 O 45.9669 0.830082 1.83498 0
M  V30 471 C 43.0319 1.72515 3.00732 0
M  V30 472 C 42.0929 2.96009 3.1093 0
M  V30 473 C 41.3259 3.00829 4.40837 0
M  V30 474 O 41.5489 2.13594 5.28898 0
M  V30 475 O 40.4829 3.93168 4.55744 0
M  V30 476 H 44.3089 2.63106 1.51687 0
M  V30 477 H 41.8939 1.32588 0.688543 0
M  V30 478 H 43.7759 1.78277 3.81831 0
M  V30 479 H 42.4509 0.800278 3.13651 0
M  V30 480 H 41.3579 2.9577 2.29065 0
M  V30 481 H 42.6909 3.87934 3.02933 0
M  V30 482 N 44.343 -0.763751 1.37857 0
M  V30 483 C 45.759 -1.06542 1.18832 0
M  V30 484 C 45.959 -2.01478 0.0299722 0
M  V30 485 O 45.015 -2.4458 -0.627447 0
M  V30 486 C 46.328 -1.65525 2.51042 0
M  V30 487 C 47.876 -1.77745 2.57635 0
M  V30 488 C 48.351 -2.4014 3.89996 0
M  V30 489 N 49.842 -2.47582 3.91481 0
M  V30 490 C 50.577 -2.96732 4.9065 0
M  V30 491 N 50.073 -3.45993 6.00217 0
M  V30 492 N 51.866 -2.95679 4.78048 0
M  V30 493 H 44.017 -0.133556 2.1198 0
M  V30 494 H 46.28 -0.121879 0.940133 0
M  V30 495 H 45.986 -1.03236 3.36207 0
M  V30 496 H 45.86 -2.64719 2.68707 0
M  V30 497 H 48.247 -2.39164 1.72872 0
M  V30 498 H 48.328 -0.772836 2.43846 0
M  V30 499 H 47.972 -1.79358 4.75177 0
M  V30 500 H 47.902 -3.41223 4.01092 0
M  V30 501 H 50.393 -2.1273 3.12337 0
M  V30 502 H 50.706 -3.81922 6.7183 0
M  V30 503 H 49.051 -3.44077 6.03851 0
M  V30 504 H 52.242 -2.56499 3.91568 0
M  V30 505 H 52.415 -3.33672 5.55488 0
M  V30 506 N 45.8211 -1.22559 -0.990812 0
M  V30 507 C 47.0981 -0.959875 -1.70428 0
M  V30 508 C 47.4781 0.524455 -2.04481 0
M  V30 509 O 46.8261 1.49302 -1.72977 0
M  V30 510 C 47.0361 -1.85955 -2.95333 0
M  V30 511 C 48.3841 -2.11687 -3.68068 0
M  V30 512 O 49.4081 -1.8342 -3.05345 0
M  V30 513 O 48.2671 -2.59572 -4.80921 0
M  V30 514 H 45.3611 -0.361154 -0.743974 0
M  V30 515 H 47.9071 -1.33554 -1.04697 0
M  V30 516 H 46.6791 -2.86346 -2.66687 0
M  V30 517 H 46.3021 -1.4856 -3.68803 0
M  V30 518 N 47.2992 1.18797 -1.03562 0
M  V30 519 C 48.2492 2.20161 -0.592724 0
M  V30 520 C 49.2332 1.56772 0.362133 0
M  V30 521 O 50.4252 1.76062 0.182009 0
M  V30 522 C 47.5542 3.43266 0.0481024 0
M  V30 523 C 46.6402 4.13786 -0.9296 0
M  V30 524 N 47.0312 4.60388 -2.09467 0
M  V30 525 C 45.3292 4.39572 -0.754499 0
M  V30 526 C 46.0302 5.14619 -2.71187 0
M  V30 527 N 45.0062 5.05826 -1.991 0
M  V30 528 H 48.8082 2.53877 -1.48066 0
M  V30 529 H 46.3222 1.34946 -0.903514 0
M  V30 530 H 48.3192 4.15136 0.383058 0
M  V30 531 H 46.9792 3.11048 0.931636 0
M  V30 532 H 47.9902 4.54999 -2.47379 0
M  V30 533 H 44.6672 4.17425 0.0793713 0
M  V30 534 H 46.0572 5.60917 -3.69895 0
M  V30 535 N 48.7773 0.814389 1.34928 0
M  V30 536 C 49.7243 0.22822 2.29669 0
M  V30 537 C 50.6943 -0.642164 1.53184 0
M  V30 538 O 51.8793 -0.585605 1.81591 0
M  V30 539 C 49.0193 -0.61089 3.3965 0
M  V30 540 C 48.1323 0.280792 4.31086 0
M  V30 541 C 47.2673 -0.567067 5.28165 0
M  V30 542 C 46.3063 0.324531 6.11239 0
M  V30 543 N 45.4433 -0.483756 7.00431 0
M  V30 544 H 50.2833 1.04153 2.79206 0
M  V30 545 H 47.8203 0.525133 1.37407 0
M  V30 546 H 49.7783 -1.11263 4.0209 0
M  V30 547 H 48.4083 -1.38939 2.91369 0
M  V30 548 H 47.4603 0.900688 3.69583 0
M  V30 549 H 48.7723 0.966723 4.89342 0
M  V30 550 H 47.9263 -1.13363 5.96015 0
M  V30 551 H 46.6653 -1.28654 4.70425 0
M  V30 552 H 45.6703 0.903298 5.42329 0
M  V30 553 H 46.8953 1.04198 6.71059 0
M  V30 554 H 44.8413 -1.18706 6.45171 0
M  V30 555 H 44.7583 0.143965 7.55863 0
M  V30 556 H 46.0263 -1.03334 7.7262 0
M  V30 557 N 50.2554 -1.46986 0.568584 0
M  V30 558 C 51.5034 -2.02041 0.0487022 0
M  V30 559 C 51.8244 -1.44408 -1.31039 0
M  V30 560 O 51.0944 -0.623477 -1.85714 0
M  V30 561 H 49.6744 -0.746849 0.015014 0
M  V30 562 H 52.3364 -1.80257 0.741168 0
M  V30 563 H 51.4324 -3.12085 -0.0308961 0
M  V30 564 N 51.7335 -0.305618 -1.54608 0
M  V30 565 C 52.9825 0.303098 -1.9941 0
M  V30 566 C 53.2955 1.54648 -1.19764 0
M  V30 567 O 54.5015 2.23007 -1.54855 0
M  V30 568 C 52.9575 0.590588 -3.55021 0
M  V30 569 C 52.5655 -0.634719 -4.43481 0
M  V30 570 C 54.3095 1.16025 -4.08336 0
M  V30 571 C 52.2165 -0.320126 -5.90533 0
M  V30 572 H 51.1465 0.117031 -0.744862 0
M  V30 573 H 53.7975 -0.415045 -1.78745 0
M  V30 574 H 52.1795 1.36845 -3.71604 0
M  V30 575 H 53.3535 -1.41079 -4.38672 0
M  V30 576 H 51.6685 -1.12333 -4.00962 0
M  V30 577 H 54.2655 1.40994 -5.15776 0
M  V30 578 H 54.6085 2.10397 -3.5922 0
M  V30 579 H 55.1415 0.443985 -3.95315 0
M  V30 580 H 51.8805 -1.23254 -6.43808 0
M  V30 581 H 51.4005 0.418579 -5.98338 0
M  V30 582 H 53.0795 0.0766241 -6.46955 0
M  V30 583 N 53.2116 1.57565 -0.0334293 0
M  V30 584 C 54.4416 1.95996 0.653398 0
M  V30 585 C 54.8496 0.908749 1.65947 0
M  V30 586 O 54.1926 -0.117471 1.83324 0
M  V30 587 C 54.2546 3.30589 1.41249 0
M  V30 588 C 53.9186 4.53503 0.564263 0
M  V30 589 C 54.9156 5.19647 -0.16225 0
M  V30 590 C 52.6006 4.99801 0.500398 0
M  V30 591 C 54.5946 6.30412 -0.941255 0
M  V30 592 C 52.2816 6.10448 -0.282308 0
M  V30 593 C 53.2796 6.75612 -1.00184 0
M  V30 594 O 52.9676 7.84134 -1.77171 0
M  V30 595 H 52.6996 0.65027 0.184728 0
M  V30 596 H 55.2536 2.05199 -0.0907841 0
M  V30 597 H 53.4836 3.17888 2.20191 0
M  V30 598 H 55.1726 3.53892 1.98784 0
M  V30 599 H 55.9386 4.84846 -0.12227 0
M  V30 600 H 51.8176 4.48883 1.05002 0
M  V30 601 H 55.3616 6.81208 -1.50339 0
M  V30 602 H 51.2586 6.44686 -0.323989 0
M  V30 603 H 52.0266 8.00822 -1.69194 0
M  V30 604 N 54.6897 -0.239769 1.55765 0
M  V30 605 C 55.9667 -0.990056 1.68693 0
M  V30 606 C 56.3467 -2.03107 0.5754 0
M  V30 607 O 55.6947 -2.24604 -0.42017 0
M  V30 608 C 55.9047 -1.61696 3.09282 0
M  V30 609 C 57.2527 -2.11613 3.6811 0
M  V30 610 O 58.2767 -1.71624 3.12127 0
M  V30 611 O 57.1357 -2.85057 4.66267 0
M  V30 612 H 54.2297 -0.461299 0.686391 0
M  V30 613 H 56.7757 -0.232991 1.68093 0
M  V30 614 H 55.5477 -0.864357 3.81634 0
M  V30 615 H 55.1707 -2.44005 3.13923 0
M  V30 616 N 56.1678 -1.49265 -0.50573 0
M  V30 617 C 57.1148 -1.65585 -1.6078 0
M  V30 618 C 58.0848 -0.497396 -1.58478 0
M  V30 619 O 59.2698 -0.72385 -1.76536 0
M  V30 620 C 56.4098 -1.72408 -2.98948 0
M  V30 621 C 55.5228 -2.99525 -3.11301 0
M  V30 622 C 54.6578 -2.97356 -4.40174 0
M  V30 623 C 53.6968 -4.19074 -4.46143 0
M  V30 624 N 52.8338 -4.14841 -5.66437 0
M  V30 625 H 57.6738 -2.59688 -1.46172 0
M  V30 626 H 55.2108 -1.28761 -0.711261 0
M  V30 627 H 57.1688 -1.74344 -3.79025 0
M  V30 628 H 55.7988 -0.817753 -3.1227 0
M  V30 629 H 54.8508 -3.07222 -2.24318 0
M  V30 630 H 56.1628 -3.89518 -3.11572 0
M  V30 631 H 55.3168 -2.97829 -5.28567 0
M  V30 632 H 54.0558 -2.05133 -4.42461 0
M  V30 633 H 53.0608 -4.1885 -3.56153 0
M  V30 634 H 54.2858 -5.12483 -4.45575 0
M  V30 635 H 52.2318 -3.25453 -5.69575 0
M  V30 636 H 52.1488 -4.98564 -5.68304 0
M  V30 637 H 53.4168 -4.1941 -6.57051 0
M  V30 638 N 57.6459 0.756429 -1.3826 0
M  V30 639 C 58.5559 1.9009 -1.37488 0
M  V30 640 C 59.5719 1.71855 -0.272366 0
M  V30 641 O 60.7479 1.94827 -0.510318 0
M  V30 642 C 57.8129 3.25421 -1.19592 0
M  V30 643 C 56.8739 3.56202 -2.39622 0
M  V30 644 C 56.1069 4.85075 -2.2257 0
M  V30 645 O 56.3299 5.57246 -1.21793 0
M  V30 646 O 55.2639 5.15269 -3.11098 0
M  V30 647 H 59.0899 1.93695 -2.33914 0
M  V30 648 H 56.6749 0.901313 -1.1915 0
M  V30 649 H 58.5569 4.06337 -1.11661 0
M  V30 650 H 57.2319 3.22634 -0.262486 0
M  V30 651 H 56.1389 2.75458 -2.53128 0
M  V30 652 H 57.4719 3.63747 -3.31586 0
M  V30 653 N 59.124 1.23083 0.984299 0
M  V30 654 C 60.054 1.03292 2.09411 0
M  V30 655 C 61.035 -0.048923 1.7003 0
M  V30 656 O 62.22 0.114967 1.93859 0
M  V30 657 C 59.35 0.619155 3.41736 0
M  V30 658 C 58.304 1.64791 3.95004 0
M  V30 659 C 57.63 1.0897 5.23478 0
M  V30 660 C 58.93 3.03999 4.24714 0
M  V30 661 H 60.624 1.96119 2.26225 0
M  V30 662 H 58.17 0.944344 1.08711 0
M  V30 663 H 60.123 0.467777 4.18796 0
M  V30 664 H 58.847 -0.344786 3.24775 0
M  V30 665 H 57.506 1.78721 3.20085 0
M  V30 666 H 57.154 0.11686 5.02864 0
M  V30 667 H 56.854 1.77704 5.60085 0
M  V30 668 H 58.378 0.950093 6.03163 0
M  V30 669 H 59.792 2.93393 4.92538 0
M  V30 670 H 58.189 3.69936 4.72512 0
M  V30 671 H 59.259 3.53285 3.32142 0
M  V30 672 N 60.6021 -1.18246 1.0419 0
M  V30 673 C 61.8511 -1.87588 0.741194 0
M  V30 674 C 62.1641 -1.81303 -0.734066 0
M  V30 675 O 63.3701 -2.46019 -1.14834 0
M  V30 676 C 61.8261 -3.36538 1.27555 0
M  V30 677 C 61.4341 -3.51349 2.77953 0
M  V30 678 C 63.1781 -4.11273 1.05143 0
M  V30 679 C 61.0851 -4.94265 3.2474 0
M  V30 680 H 60.0151 -0.702622 0.273565 0
M  V30 681 H 62.6661 -1.33601 1.25789 0
M  V30 682 H 61.0481 -3.9 0.686703 0
M  V30 683 H 62.2221 -3.08153 3.42605 0
M  V30 684 H 60.5371 -2.90022 2.98791 0
M  V30 685 H 63.1341 -5.16689 1.37611 0
M  V30 686 H 63.4771 -4.16298 -0.0112774 0
M  V30 687 H 64.0101 -3.63987 1.60495 0
M  V30 688 H 60.7491 -4.94408 4.30396 0
M  V30 689 H 60.2691 -5.38172 2.64823 0
M  V30 690 H 61.9481 -5.62987 3.18834 0
M  V30 691 N 62.0802 -0.821533 -1.34494 0
M  V30 692 C 63.3572 -0.33159 -1.92769 0
M  V30 693 C 63.7372 1.18088 -1.74981 0
M  V30 694 O 63.0852 1.98733 -1.12772 0
M  V30 695 C 63.2952 -0.759398 -3.40638 0
M  V30 696 C 64.6432 -0.757433 -4.1779 0
M  V30 697 O 65.6672 -0.70189 -3.49216 0
M  V30 698 O 64.5262 -0.829361 -5.4017 0
M  V30 699 H 61.6202 -0.0902502 -0.822061 0
M  V30 700 H 64.1662 -0.906231 -1.43477 0
M  V30 701 H 62.9382 -1.8012 -3.47379 0
M  V30 702 H 62.5612 -0.160378 -3.97276 0
M  V30 703 N 63.5583 1.46682 -0.576371 0
M  V30 704 C 64.4683 2.34032 0.163141 0
M  V30 705 C 65.4843 1.49367 0.892501 0
M  V30 706 O 66.6603 1.82252 0.857106 0
M  V30 707 C 63.7253 3.26435 1.16795 0
M  V30 708 C 62.7863 4.26998 0.443944 0
M  V30 709 C 62.0193 5.14986 1.40088 0
M  V30 710 O 62.2423 5.05785 2.637 0
M  V30 711 O 61.1763 5.94906 0.914917 0
M  V30 712 H 65.0023 2.98607 -0.55388 0
M  V30 713 H 62.5873 1.45554 -0.336821 0
M  V30 714 H 64.4693 3.83459 1.74748 0
M  V30 715 H 63.1443 2.64465 1.86655 0
M  V30 716 H 62.0513 3.7368 -0.177271 0
M  V30 717 H 63.3843 4.91736 -0.213566 0
M  V30 718 N 65.0364 0.313813 1.54444 0
M  V30 719 C 65.9664 -0.549454 2.26943 0
M  V30 720 C 66.9474 -1.12741 1.27372 0
M  V30 721 O 68.1324 -1.15436 1.56167 0
M  V30 722 C 65.2624 -1.71523 3.01989 0
M  V30 723 C 64.2164 -1.26703 4.08816 0
M  V30 724 C 63.5424 -2.51898 4.71647 0
M  V30 725 C 64.8424 -0.388962 5.2085 0
M  V30 726 H 66.5364 0.0552661 2.99349 0
M  V30 727 H 64.0824 0.0280207 1.43973 0
M  V30 728 H 66.0354 -2.32535 3.51433 0
M  V30 729 H 64.7594 -2.34639 2.27183 0
M  V30 730 H 63.4184 -0.679896 3.6024 0
M  V30 731 H 63.0664 -3.13356 3.93468 0
M  V30 732 H 62.7664 -2.22605 5.43802 0
M  V30 733 H 64.2904 -3.1369 5.23861 0
M  V30 734 H 65.7044 -0.905107 5.6611 0
M  V30 735 H 64.1014 -0.18924 5.99802 0
M  V30 736 H 65.1714 0.582699 4.81386 0
M  V30 737 N 66.5145 -1.57545 0.0417849 0
M  V30 738 C 67.4445 -2.14009 -0.933929 0
M  V30 739 C 68.4255 -1.05938 -1.33083 0
M  V30 740 O 69.6105 -1.33833 -1.40721 0
M  V30 741 C 66.7405 -2.67747 -2.21199 0
M  V30 742 C 65.6945 -3.80718 -1.95544 0
M  V30 743 C 65.0205 -4.20935 -3.29724 0
M  V30 744 C 66.3205 -5.06258 -1.28452 0
M  V30 745 H 68.0145 -2.95788 -0.463645 0
M  V30 746 H 65.5605 -1.42285 -0.221573 0
M  V30 747 H 67.5135 -3.05886 -2.89848 0
M  V30 748 H 66.2375 -1.83147 -2.70416 0
M  V30 749 H 64.8965 -3.43037 -1.2931 0
M  V30 750 H 64.5445 -3.33298 -3.76724 0
M  V30 751 H 64.2445 -4.9707 -3.13361 0
M  V30 752 H 65.7685 -4.61666 -3.9962 0
M  V30 753 H 67.1825 -5.41903 -1.8712 0
M  V30 754 H 65.5795 -5.87475 -1.22445 0
M  V30 755 H 66.6495 -4.84207 -0.259219 0
M  V30 756 N 67.9926 0.231505 -1.5589 0
M  V30 757 C 69.2176 0.978689 -1.82856 0
M  V30 758 C 69.6426 1.77559 -0.620846 0
M  V30 759 O 69.0006 1.76119 0.430305 0
M  V30 760 C 69.0486 1.87997 -3.07716 0
M  V30 761 O 68.1526 2.97393 -2.85712 0
M  V30 762 H 67.4936 0.277663 -0.603158 0
M  V30 763 H 70.0236 0.24783 -2.03093 0
M  V30 764 H 70.0336 2.2917 -3.37558 0
M  V30 765 H 68.7086 1.29417 -3.95252 0
M  V30 766 H 67.2856 2.60238 -2.67078 0
M  V30 767 N 69.4707 1.49531 0.497807 0
M  V30 768 C 70.4007 1.6935 1.60757 0
M  V30 769 C 71.3817 0.542218 1.61227 0
M  V30 770 O 72.5667 0.778417 1.77917 0
M  V30 771 C 69.6967 1.76298 2.99226 0
M  V30 772 C 68.6507 2.91248 3.13622 0
M  V30 773 C 67.9767 2.83312 4.53474 0
M  V30 774 C 69.2767 4.3214 2.93346 0
M  V30 775 H 70.9707 2.62263 1.44425 0
M  V30 776 H 68.5167 1.26208 0.693367 0
M  V30 777 H 70.4697 1.88749 3.76765 0
M  V30 778 H 69.1937 0.799871 3.16654 0
M  V30 779 H 67.8527 2.78404 2.38509 0
M  V30 780 H 67.5007 1.84902 4.67782 0
M  V30 781 H 67.2007 3.60465 4.64046 0
M  V30 782 H 68.7247 2.97775 5.33069 0
M  V30 783 H 70.1387 4.45649 3.60652 0
M  V30 784 H 68.5357 5.1054 3.15387 0
M  V30 785 H 69.6057 4.46363 1.89441 0
M  V30 786 N 70.9488 -0.749086 1.3866 0
M  V30 787 C 72.1968 -1.50535 1.34847 0
M  V30 788 C 72.5178 -1.94909 -0.0595016 0
M  V30 789 O 71.7878 -1.67973 -1.00806 0
M  V30 790 H 70.3678 -0.558395 0.49619 0
M  V30 791 H 73.0298 -0.890165 1.73384 0
M  V30 792 H 72.1258 -2.39413 2.00219 0
M  V30 793 N 72.4269 -1.23603 -0.977757 0
M  V30 794 C 73.6759 -1.06377 -1.71368 0
M  V30 795 C 73.9889 0.399062 -1.91486 0
M  V30 796 O 75.1949 0.691312 -2.62551 0
M  V30 797 C 73.6509 -1.85512 -3.08404 0
M  V30 798 C 73.2589 -3.36141 -2.96164 0
M  V30 799 C 75.0029 -1.76783 -3.85938 0
M  V30 800 C 72.9099 -4.07659 -4.28449 0
M  V30 801 H 71.8399 -0.394452 -0.642591 0
M  V30 802 H 74.4909 -1.47594 -1.09034 0
M  V30 803 H 72.8729 -1.37103 -3.71509 0
M  V30 804 H 74.0469 -3.92056 -2.42133 0
M  V30 805 H 72.3619 -3.45712 -2.32104 0
M  V30 806 H 74.9589 -2.27526 -4.83876 0
M  V30 807 H 75.3019 -0.731116 -4.0983 0
M  V30 808 H 75.8349 -2.22818 -3.2954 0
M  V30 809 H 72.5739 -5.11648 -4.09752 0
M  V30 810 H 72.0939 -3.5653 -4.82334 0
M  V30 811 H 73.7729 -4.141 -4.97122 0
M  V30 812 N 73.905 1.17692 -1.04816 0
M  V30 813 C 75.133 1.91786 -0.776254 0
M  V30 814 C 75.548 1.76604 0.667577 0
M  V30 815 O 74.905 1.10067 1.45573 0
M  V30 816 C 74.956 3.42967 -1.14263 0
M  V30 817 O 74.677 3.57678 -2.52978 0
M  V30 818 C 76.178 4.34144 -0.896311 0
M  V30 819 H 73.398 0.608624 -0.282519 0
M  V30 820 H 75.942 1.49268 -1.39783 0
M  V30 821 H 74.097 3.83245 -0.565874 0
M  V30 822 H 74.511 4.51319 -2.67229 0
M  V30 823 H 75.985 5.38744 -1.20244 0
M  V30 824 H 76.462 4.38876 0.168636 0
M  V30 825 H 77.068 3.99574 -1.45672 0
M  V30 826 N 75.3831 0.828654 1.34056 0
M  V30 827 C 76.6311 0.41863 1.97717 0
M  V30 828 C 76.9521 -1.02314 1.66002 0
M  V30 829 O 76.2221 -1.71119 0.953683 0
M  V30 830 H 74.8021 0.151809 0.731412 0
M  V30 831 H 77.4641 1.05936 1.63596 0
M  V30 832 H 76.5601 0.542318 3.07352 0
M  V30 833 N 76.8612 -1.46375 0.584142 0
M  V30 834 C 77.8242 -2.28784 -0.138108 0
M  V30 835 C 78.8242 -1.38471 -0.817462 0
M  V30 836 O 80.0142 -1.60833 -0.669199 0
M  V30 837 C 77.1462 -3.18892 -1.20503 0
M  V30 838 H 78.3392 -2.94117 0.586127 0
M  V30 839 H 75.8922 -1.52509 0.342171 0
M  V30 840 H 76.6272 -2.58309 -1.96079 0
M  V30 841 H 76.4122 -3.85388 -0.722384 0
M  V30 842 H 77.9022 -3.80914 -1.71155 0
M  V30 843 N 78.3393 -0.321999 -1.54275 0
M  V30 844 C 79.5693 0.282642 -2.04658 0
M  V30 845 C 79.9773 1.46453 -1.19784 0
M  V30 846 O 79.3203 1.82367 -0.220932 0
M  V30 847 C 79.3823 0.781857 -3.50895 0
M  V30 848 C 79.0463 -0.277517 -4.56157 0
M  V30 849 C 80.0433 -1.11307 -5.07845 0
M  V30 850 C 77.7283 -0.425256 -5.00497 0
M  V30 851 C 79.7223 -2.08211 -6.02434 0
M  V30 852 C 77.4093 -1.39771 -5.94901 0
M  V30 853 C 78.4073 -2.2246 -6.45756 0
M  V30 854 O 78.0953 -3.18054 -7.38307 0
M  V30 855 H 77.8273 0.0622636 -0.673126 0
M  V30 856 H 80.3813 -0.465792 -2.00049 0
M  V30 857 H 78.6113 1.58118 -3.52896 0
M  V30 858 H 80.3003 1.30467 -3.84361 0
M  V30 859 H 81.0663 -1.00991 -4.74369 0
M  V30 860 H 76.9453 0.20847 -4.60528 0
M  V30 861 H 80.4893 -2.72791 -6.42052 0
M  V30 862 H 76.3863 -1.50152 -6.27794 0
M  V30 863 H 77.1543 -3.13275 -7.56175 0
M  V30 864 N 79.8174 1.5752 -0.0501392 0
M  V30 865 C 81.0644 1.9265 0.623874 0
M  V30 866 C 81.3924 0.928411 1.70912 0
M  V30 867 O 80.6474 -0.0594525 1.9561 0
M  V30 868 C 80.9464 3.34467 1.25963 0
M  V30 869 C 80.6124 4.49883 0.302689 0
M  V30 870 C 79.2744 4.81184 0.0393636 0
M  V30 871 C 81.6264 5.20002 -0.353205 0
M  V30 872 C 78.9544 5.79951 -0.887308 0
M  V30 873 C 81.3064 6.1976 -1.26806 0
M  V30 874 C 79.9704 6.49491 -1.54007 0
M  V30 875 H 79.2404 0.704957 0.228292 0
M  V30 876 H 81.8874 1.91146 -0.116398 0
M  V30 877 H 80.1924 3.32333 2.07514 0
M  V30 878 H 81.8894 3.58928 1.78806 0
M  V30 879 H 78.4794 4.25457 0.518109 0
M  V30 880 H 82.6634 4.96033 -0.162854 0
M  V30 881 H 77.9194 6.01322 -1.10553 0
M  V30 882 H 82.0934 6.73205 -1.78236 0
M  V30 883 H 79.7204 7.25837 -2.25976 0
M  V30 884 N 81.2955 -0.223234 1.56011 0
M  V30 885 C 82.2055 -1.29766 1.95443 0
M  V30 886 C 83.2215 -1.51373 0.858028 0
M  V30 887 O 84.3975 -1.64536 1.16146 0
M  V30 888 C 81.4625 -2.62772 2.26167 0
M  V30 889 C 80.5235 -2.49482 3.49367 0
M  V30 890 C 79.7565 -3.76145 3.78616 0
M  V30 891 O 79.9795 -4.79087 3.09568 0
M  V30 892 O 78.9135 -3.73358 4.72109 0
M  V30 893 H 82.7395 -0.99309 2.87004 0
M  V30 894 H 80.3245 -0.425958 1.43199 0
M  V30 895 H 82.2065 -3.41327 2.47131 0
M  V30 896 H 80.8815 -2.92913 1.37781 0
M  V30 897 H 79.7885 -1.69133 3.33684 0
M  V30 898 H 81.1215 -2.2428 4.38131 0
M  V30 899 N 82.7736 -1.49793 -0.48987 0
M  V30 900 C 83.6836 -1.70036 -1.61632 0
M  V30 901 C 84.6996 -0.583102 -1.63939 0
M  V30 902 O 85.8756 -0.859169 -1.82154 0
M  V30 903 C 82.9406 -1.77277 -2.97949 0
M  V30 904 C 82.0016 -3.00918 -3.06181 0
M  V30 905 C 81.2346 -3.07804 -4.35996 0
M  V30 906 O 81.4576 -2.21982 -5.25433 0
M  V30 907 O 80.3916 -4.00369 -4.49431 0
M  V30 908 H 84.2176 -2.65486 -1.47482 0
M  V30 909 H 81.8026 -1.33666 -0.667362 0
M  V30 910 H 83.6846 -1.84329 -3.78947 0
M  V30 911 H 82.3596 -0.850076 -3.12339 0
M  V30 912 H 81.2666 -2.99377 -2.2433 0
M  V30 913 H 82.5996 -3.92704 -2.96723 0
M  V30 914 N 84.2517 0.741722 -1.39055 0
M  V30 915 C 85.1987 1.85566 -1.37237 0
M  V30 916 C 86.1687 1.64457 -0.233072 0
M  V30 917 O 87.3537 1.85957 -0.427147 0
M  V30 918 C 84.4937 3.23004 -1.215 0
M  V30 919 C 83.6067 3.55864 -2.44918 0
M  V30 920 C 82.7417 4.82669 -2.21821 0
M  V30 921 C 81.7807 5.08351 -3.40948 0
M  V30 922 N 80.9177 6.26356 -3.17211 0
M  V30 923 H 85.7577 1.86455 -2.32462 0
M  V30 924 H 83.2947 0.911176 -1.15482 0
M  V30 925 H 85.2527 4.02331 -1.10389 0
M  V30 926 H 83.8827 3.21411 -0.29908 0
M  V30 927 H 82.9347 2.7129 -2.66657 0
M  V30 928 H 84.2467 3.70765 -3.33668 0
M  V30 929 H 83.4007 5.69962 -2.07914 0
M  V30 930 H 82.1397 4.69929 -1.30454 0
M  V30 931 H 81.1447 4.19522 -3.55361 0
M  V30 932 H 82.3697 5.22981 -4.33207 0
M  V30 933 H 80.3157 6.14917 -2.28502 0
M  V30 934 H 80.2327 6.41813 -3.99515 0
M  V30 935 H 81.5007 7.16506 -3.06984 0
M  V30 936 N 85.7298 1.2412 0.971189 0
M  V30 937 C 86.9598 1.10415 1.7462 0
M  V30 938 C 87.3678 -0.346462 1.86001 0
M  V30 939 O 86.7108 -1.25104 1.34517 0
M  V30 940 C 86.7728 1.66596 3.18568 0
M  V30 941 C 86.4368 3.15446 3.3067 0
M  V30 942 C 87.4338 4.12636 3.16271 0
M  V30 943 C 85.1188 3.55337 3.55022 0
M  V30 944 C 87.1128 5.47699 3.26044 0
M  V30 945 C 84.7998 4.90542 3.64434 0
M  V30 946 C 85.7978 5.86532 3.49956 0
M  V30 947 O 85.4858 7.19279 3.59017 0
M  V30 948 H 85.2178 0.386616 0.55453 0
M  V30 949 H 87.7718 1.64633 1.22821 0
M  V30 950 H 86.0018 1.06808 3.71657 0
M  V30 951 H 87.6908 1.48232 3.77865 0
M  V30 952 H 88.4568 3.8316 2.97344 0
M  V30 953 H 84.3358 2.8113 3.65359 0
M  V30 954 H 87.8798 6.22603 3.14661 0
M  V30 955 H 83.7768 5.19691 3.82873 0
M  V30 956 H 84.5448 7.27153 3.75754 0
M  V30 957 N 87.2079 -1.17134 1.05439 0
M  V30 958 C 88.4559 -1.87085 0.764429 0
M  V30 959 C 88.7769 -1.81584 -0.710787 0
M  V30 960 O 88.0469 -1.24349 -1.51374 0
M  V30 961 H 86.6269 -0.692627 0.279779 0
M  V30 962 H 89.2889 -1.42087 1.33406 0
M  V30 963 H 88.3849 -2.92759 1.0816 0
M  V30 964 N 88.686 -0.835752 -1.33615 0
M  V30 965 C 89.934 -0.429109 -1.97492 0
M  V30 966 C 90.255 1.01433 -1.66543 0
M  V30 967 O 89.525 1.70611 -0.962744 0
M  V30 968 H 88.105 -0.155686 -0.730596 0
M  V30 969 H 90.767 -1.06802 -1.63031 0
M  V30 970 H 89.863 -0.55861 -3.0706 0
M  V30 971 N 90.1641 1.46063 -0.591896 0
M  V30 972 C 91.3891 2.07226 -0.0850314 0
M  V30 973 C 91.8141 1.43625 1.21463 0
M  V30 974 O 91.1721 0.523305 1.73583 0
M  V30 975 C 91.2201 3.60554 0.0576567 0
M  V30 976 O 90.3241 3.97128 1.11188 0
M  V30 977 H 89.6651 0.660615 -0.0669568 0
M  V30 978 H 92.1951 1.8756 -0.81745 0
M  V30 979 H 92.2051 4.07165 0.2609 0
M  V30 980 H 90.8801 4.06235 -0.891416 0
M  V30 981 H 89.4571 3.62213 0.886356 0
M  V30 982 N 91.6422 0.330177 1.54103 0
M  V30 983 C 92.8902 -0.269871 2.0029 0
M  V30 984 C 93.2112 -1.52133 1.21986 0
M  V30 985 O 92.4812 -1.93212 0.323438 0
M  V30 986 H 91.0612 -0.10271 0.739905 0
M  V30 987 H 93.7232 0.448249 1.89675 0
M  V30 988 H 92.8192 -0.52166 3.07709 0
M  V30 989 N 93.1203 -1.57491 0.0584922 0
M  V30 990 C 94.3973 -1.84346 -0.653918 0
M  V30 991 C 94.7773 -0.948355 -1.88599 0
M  V30 992 O 94.1253 -0.0112403 -2.28497 0
M  V30 993 C 94.3353 -3.34239 -1.00425 0
M  V30 994 C 95.6833 -4.01431 -1.38342 0
M  V30 995 O 96.7073 -3.38907 -1.09637 0
M  V30 996 O 95.5663 -5.11683 -1.91943 0
M  V30 997 H 92.6603 -0.761112 -0.323478 0
M  V30 998 H 95.2063 -1.6947 0.0884125 0
M  V30 999 H 93.9783 -3.91089 -0.128625 0
M  V30 1000 H 93.6013 -3.54329 -1.80378 0
M  V30 1001 N 94.5984 0.214957 -1.56127 0
M  V30 1002 C 95.8754 0.963093 -1.70247 0
M  V30 1003 C 96.2554 2.02166 -0.60764 0
M  V30 1004 O 95.6034 2.25244 0.384385 0
M  V30 1005 C 95.8134 1.56756 -3.11815 0
M  V30 1006 C 97.1614 2.0573 -3.7143 0
M  V30 1007 O 98.1854 1.66637 -3.14818 0
M  V30 1008 O 97.0444 2.77603 -4.70743 0
M  V30 1009 H 94.1384 0.450321 -0.693643 0
M  V30 1010 H 96.6844 0.206219 -1.68442 0
M  V30 1011 H 95.4564 0.803533 -3.82961 0
M  V30 1012 H 95.0794 2.3898 -3.17765 0
M  V30 1013 N 96.0765 1.50051 0.48192 0
M  V30 1014 C 97.3245 1.60181 1.23234 0
M  V30 1015 C 97.6455 0.299176 1.92691 0
M  V30 1016 O 96.9155 -0.682708 1.83619 0
M  V30 1017 H 95.4955 0.590232 0.457859 0
M  V30 1018 H 98.1575 1.86775 0.556881 0
M  V30 1019 H 97.2535 2.40753 1.98607 0
M  V30 1020 N 97.5546 -0.734337 1.39446 0
M  V30 1021 C 98.8026 -1.49096 1.36436 0
M  V30 1022 C 99.1236 -1.94961 -0.0388255 0
M  V30 1023 O 98.3936 -1.69033 -0.990191 0
M  V30 1024 H 96.9736 -0.5531 0.502085 0
M  V30 1025 H 99.6356 -0.871725 1.74319 0
M  V30 1026 H 98.7316 -2.37276 2.02747 0
M  V30 1027 N 99.0327 -1.24633 -0.964593 0
M  V30 1028 C 100.31 -0.995809 -1.68354 0
M  V30 1029 C 100.69 0.480964 -2.05548 0
M  V30 1030 O 100.038 1.45599 -1.76105 0
M  V30 1031 C 100.248 -1.92177 -2.91323 0
M  V30 1032 C 101.596 -2.19446 -3.63495 0
M  V30 1033 O 102.62 -1.89855 -3.01386 0
M  V30 1034 O 101.479 -2.69714 -4.75307 0
M  V30 1035 H 98.5727 -0.376854 -0.736146 0
M  V30 1036 H 101.119 -1.35745 -1.0184 0
M  V30 1037 H 99.8907 -2.91938 -2.60553 0
M  V30 1038 H 99.5137 -1.56349 -3.65569 0
M  V30 1039 N 100.511 1.16574 -1.06058 0
M  V30 1040 C 101.757 1.87324 -0.777022 0
M  V30 1041 C 102.09 1.81351 0.694645 0
M  V30 1042 O 101.365 1.22753 1.50871 0
M  V30 1043 C 101.648 3.36991 -1.26922 0
M  V30 1044 C 101.501 3.51667 -2.80447 0
M  V30 1045 C 102.82 4.3131 -0.87521 0
M  V30 1046 H 99.9388 0.680191 -0.28374 0
M  V30 1047 H 102.581 1.37036 -1.3161 0
M  V30 1048 H 100.731 3.79949 -0.81063 0
M  V30 1049 H 102.403 3.17664 -3.34495 0
M  V30 1050 H 100.646 2.93656 -3.19294 0
M  V30 1051 H 101.317 4.56766 -3.0995 0
M  V30 1052 H 103.793 3.9624 -1.27014 0
M  V30 1053 H 102.669 5.34545 -1.2471 0
M  V30 1054 H 102.93 4.41552 0.220071 0
M  V30 1055 N 101.989 0.842826 1.3317 0
M  V30 1056 C 102.919 0.294028 2.31641 0
M  V30 1057 C 103.9 -0.600401 1.59151 0
M  V30 1058 O 105.085 -0.523124 1.87022 0
M  V30 1059 C 102.215 -0.528416 3.43257 0
M  V30 1060 C 101.169 0.27056 4.27144 0
M  V30 1061 C 100.495 -0.675881 5.30411 0
M  V30 1062 C 101.795 1.48981 5.00602 0
M  V30 1063 H 103.489 1.11681 2.77791 0
M  V30 1064 H 101.035 0.538478 1.33553 0
M  V30 1065 H 102.988 -0.922674 4.11175 0
M  V30 1066 H 101.712 -1.38445 2.95805 0
M  V30 1067 H 100.371 0.646427 3.60856 0
M  V30 1068 H 100.019 -1.52842 4.79216 0
M  V30 1069 H 99.7189 -0.145374 5.8742 0
M  V30 1070 H 101.243 -1.06757 6.01195 0
M  V30 1071 H 102.657 1.16849 5.61266 0
M  V30 1072 H 101.054 1.95739 5.6728 0
M  V30 1073 H 102.124 2.25746 4.29147 0
M  V30 1074 N 103.467 -1.45747 0.599634 0
M  V30 1075 C 104.692 -2.07178 0.0960198 0
M  V30 1076 C 105.117 -1.44268 -1.207 0
M  V30 1077 O 104.475 -0.532503 -1.73303 0
M  V30 1078 C 104.523 -3.60579 -0.0385348 0
M  V30 1079 O 103.627 -3.97713 -1.0908 0
M  V30 1080 H 102.968 -0.660251 0.0704593 0
M  V30 1081 H 105.498 -1.87124 0.827385 0
M  V30 1082 H 105.508 -4.07298 -0.239304 0
M  V30 1083 H 104.183 -4.05756 0.912947 0
M  V30 1084 H 102.76 -3.62678 -0.867135 0
M  V30 1085 N 104.945 -0.338344 -1.53925 0
M  V30 1086 C 106.175 0.260919 -2.04946 0
M  V30 1087 C 106.583 1.45174 -1.2133 0
M  V30 1088 O 105.926 1.82122 -0.240262 0
M  V30 1089 C 105.988 0.744596 -3.51704 0
M  V30 1090 C 105.652 -0.325883 -4.55837 0
M  V30 1091 C 106.649 -1.16687 -5.06636 0
M  V30 1092 C 104.334 -0.478317 -5.00017 0
M  V30 1093 C 106.328 -2.14588 -6.00192 0
M  V30 1094 C 104.015 -1.46073 -5.93385 0
M  V30 1095 C 105.013 -2.29297 -6.4336 0
M  V30 1096 O 104.701 -3.25867 -7.34892 0
M  V30 1097 H 104.433 0.0551207 -0.673749 0
M  V30 1098 H 106.987 -0.486984 -1.99544 0
M  V30 1099 H 105.217 1.54366 -3.54553 0
M  V30 1100 H 106.906 1.26383 -3.85723 0
M  V30 1101 H 107.672 -1.06016 -4.73271 0
M  V30 1102 H 103.551 0.159613 -4.60724 0
M  V30 1103 H 107.095 -2.79585 -6.39123 0
M  V30 1104 H 102.992 -1.56802 -6.26166 0
M  V30 1105 H 103.76 -3.21278 -7.5281 0
M  V30 1106 N 106.423 1.57458 -0.0668435 0
M  V30 1107 C 107.672 1.92477 0.602947 0
M  V30 1108 C 107.985 0.948419 1.71068 0
M  V30 1109 O 109.191 1.19124 2.43971 0
M  V30 1110 C 107.647 3.41903 1.12383 0
M  V30 1111 C 107.255 4.47975 0.04737 0
M  V30 1112 C 108.999 3.85931 1.76797 0
M  V30 1113 C 106.906 5.88529 0.582022 0
M  V30 1114 H 105.836 0.718387 0.22899 0
M  V30 1115 H 108.487 1.82978 -0.138276 0
M  V30 1116 H 106.869 3.46459 1.91787 0
M  V30 1117 H 108.043 4.55029 -0.726978 0
M  V30 1118 H 106.358 4.13384 -0.500243 0
M  V30 1119 H 108.955 4.88322 2.17821 0
M  V30 1120 H 109.298 3.23029 2.62599 0
M  V30 1121 H 109.831 3.83958 1.04024 0
M  V30 1122 H 106.57 6.55065 -0.238721 0
M  V30 1123 H 106.09 5.85004 1.324 0
M  V30 1124 H 107.769 6.38258 1.05999 0
M  V30 1125 N 107.901 -0.206675 1.56239 0
M  V30 1126 C 108.831 -1.25909 1.96645 0
M  V30 1127 C 109.812 -1.48097 0.836734 0
M  V30 1128 O 110.997 -1.6003 1.10019 0
M  V30 1129 C 108.127 -2.6058 2.29599 0
M  V30 1130 C 107.081 -2.53024 3.452 0
M  V30 1131 C 106.407 -3.91861 3.63798 0
M  V30 1132 C 107.707 -2.06524 4.79734 0
M  V30 1133 H 109.401 -0.923369 2.84806 0
M  V30 1134 H 106.947 -0.442735 1.37025 0
M  V30 1135 H 108.9 -3.34375 2.56459 0
M  V30 1136 H 107.624 -2.95869 1.38307 0
M  V30 1137 H 106.283 -1.81684 3.18412 0
M  V30 1138 H 105.931 -4.24483 2.69857 0
M  V30 1139 H 105.631 -3.87683 4.4156 0
M  V30 1140 H 107.155 -4.67296 3.93022 0
M  V30 1141 H 108.569 -2.70072 5.05702 0
M  V30 1142 H 106.966 -2.13374 5.60885 0
M  V30 1143 H 108.036 -1.01802 4.74093 0
M  V30 1144 N 109.379 -1.50304 -0.473955 0
M  V30 1145 C 110.342 -1.6841 -1.55469 0
M  V30 1146 C 111.342 -0.554905 -1.50922 0
M  V30 1147 O 112.532 -0.821882 -1.53593 0
M  V30 1148 C 109.664 -1.70667 -2.95102 0
M  V30 1149 H 110.857 -2.64828 -1.40733 0
M  V30 1150 H 108.41 -1.39742 -0.700132 0
M  V30 1151 H 109.145 -0.75932 -3.15285 0
M  V30 1152 H 108.93 -2.52698 -2.9981 0
M  V30 1153 H 110.42 -1.8664 -3.73571 0
M  V30 1154 N 110.857 0.726932 -1.39834 0
M  V30 1155 C 112.103 1.48884 -1.377 0
M  V30 1156 C 112.436 1.94185 0.0244852 0
M  V30 1157 O 111.711 1.67361 0.990986 0
M  V30 1158 C 111.994 2.72288 -2.3565 0
M  V30 1159 C 111.847 2.32956 -3.84775 0
M  V30 1160 C 113.166 3.74414 -2.31306 0
M  V30 1161 H 110.285 0.540062 -0.5015 0
M  V30 1162 H 112.927 0.830547 -1.70886 0
M  V30 1163 H 111.077 3.28457 -2.07481 0
M  V30 1164 H 112.749 1.82356 -4.23726 0
M  V30 1165 H 110.992 1.65088 -4.01159 0
M  V30 1166 H 111.663 3.21362 -4.4881 0
M  V30 1167 H 114.139 3.27849 -2.56231 0
M  V30 1168 H 113.015 4.58414 -3.01907 0
M  V30 1169 H 113.276 4.21909 -1.32081 0
M  V30 1170 N 112.336 1.25143 0.95797 0
M  V30 1171 C 113.246 1.06968 2.08794 0
M  V30 1172 C 114.262 0.00773911 1.73998 0
M  V30 1173 O 115.438 0.207972 2.00323 0
M  V30 1174 C 112.503 0.68691 3.39827 0
M  V30 1175 C 111.564 1.82641 3.88511 0
M  V30 1176 C 110.797 1.46181 5.1329 0
M  V30 1177 O 111.02 0.355971 5.69288 0
M  V30 1178 O 109.954 2.29085 5.566 0
M  V30 1179 H 113.78 2.01723 2.27027 0
M  V30 1180 H 111.365 1.04051 1.07209 0
M  V30 1181 H 113.247 0.485417 4.18595 0
M  V30 1182 H 111.922 -0.231417 3.22872 0
M  V30 1183 H 110.829 2.08274 3.10762 0
M  V30 1184 H 112.162 2.72386 4.09959 0
M  V30 1185 N 113.814 -1.1601 1.06675 0
M  V30 1186 C 114.724 -2.24156 0.692179 0
M  V30 1187 C 115.74 -1.71507 -0.293513 0
M  V30 1188 O 116.916 -2.009 -0.141861 0
M  V30 1189 C 113.981 -3.46587 0.0884131 0
M  V30 1190 C 113.042 -4.14257 1.12646 0
M  V30 1191 C 112.275 -5.30844 0.551416 0
M  V30 1192 O 112.498 -5.66858 -0.634656 0
M  V30 1193 O 111.432 -5.87848 1.29298 0
M  V30 1194 H 115.258 -2.58513 1.59388 0
M  V30 1195 H 112.843 -1.23599 0.83926 0
M  V30 1196 H 114.725 -4.20679 -0.246361 0
M  V30 1197 H 113.4 -3.13994 -0.786712 0
M  V30 1198 H 112.307 -3.42118 1.51348 0
M  V30 1199 H 113.64 -4.50914 1.97325 0
M  V30 1200 N 115.292 -0.849877 -1.32721 0
M  V30 1201 C 116.222 -0.306308 -2.31482 0
M  V30 1202 C 117.203 0.591952 -1.59468 0
M  V30 1203 O 118.388 0.513199 -1.87296 0
M  V30 1204 C 115.518 0.510204 -3.43532 0
M  V30 1205 C 114.472 -0.293209 -4.26994 0
M  V30 1206 C 113.798 0.647743 -5.30762 0
M  V30 1207 C 115.098 -1.51634 -4.99804 0
M  V30 1208 H 116.792 -1.13153 -2.77195 0
M  V30 1209 H 114.338 -0.545553 -1.33266 0
M  V30 1210 H 116.291 0.900856 -4.11658 0
M  V30 1211 H 115.015 1.36874 -2.96535 0
M  V30 1212 H 113.674 -0.665555 -3.60508 0
M  V30 1213 H 113.322 1.50299 -4.8002 0
M  V30 1214 H 113.022 0.11422 -5.87489 0
M  V30 1215 H 114.546 1.03567 -6.01753 0
M  V30 1216 H 115.96 -1.19824 -5.60638 0
M  V30 1217 H 114.357 -1.98745 -5.66234 0
M  V30 1218 H 115.427 -2.28018 -4.27943 0
M  V30 1219 N 116.77 1.45427 -0.607355 0
M  V30 1220 C 117.733 2.28974 0.101693 0
M  V30 1221 C 118.733 1.39754 0.795329 0
M  V30 1222 O 119.923 1.61878 0.643527 0
M  V30 1223 C 117.055 3.20768 1.15414 0
M  V30 1224 H 118.248 2.93147 -0.632844 0
M  V30 1225 H 115.801 1.51945 -0.366391 0
M  V30 1226 H 116.536 2.61395 1.91945 0
M  V30 1227 H 116.321 3.86489 0.66098 0
M  V30 1228 H 117.811 3.83589 1.65073 0
M  V30 1229 N 118.248 0.346503 1.53744 0
M  V30 1230 C 119.195 -0.508914 2.25119 0
M  V30 1231 C 120.165 -1.09315 1.25058 0
M  V30 1232 O 121.35 -1.12921 1.53797 0
M  V30 1233 C 118.49 -1.65246 3.02965 0
M  V30 1234 C 117.603 -1.09525 4.17886 0
M  V30 1235 C 116.738 -2.20634 4.83212 0
M  V30 1236 C 115.777 -1.62279 5.90196 0
M  V30 1237 N 114.914 -2.67143 6.49291 0
M  V30 1238 H 119.754 0.106283 2.9781 0
M  V30 1239 H 117.291 0.0642227 1.4696 0
M  V30 1240 H 119.249 -2.32574 3.4636 0
M  V30 1241 H 117.879 -2.2386 2.32565 0
M  V30 1242 H 116.931 -0.312818 3.79112 0
M  V30 1243 H 118.243 -0.628444 4.94825 0
M  V30 1244 H 117.397 -2.95821 5.29693 0
M  V30 1245 H 116.136 -2.70659 4.05703 0
M  V30 1246 H 115.141 -0.855989 5.43096 0
M  V30 1247 H 116.366 -1.13102 6.69615 0
M  V30 1248 H 114.312 -3.16417 5.74645 0
M  V30 1249 H 114.229 -2.25093 7.21713 0
M  V30 1250 H 115.497 -3.4209 7.00425 0
M  V30 1251 N 119.726 -1.57421 0.075193 0
M  V30 1252 C 120.956 -1.97659 -0.601203 0
M  V30 1253 C 121.364 -0.952427 -1.63479 0
M  V30 1254 O 120.707 0.0688241 -1.83571 0
M  V30 1255 C 120.769 -3.34218 -1.32434 0
M  V30 1256 C 120.433 -4.5484 -0.443826 0
M  V30 1257 C 121.43 -5.19034 0.299969 0
M  V30 1258 C 119.115 -5.00952 -0.367709 0
M  V30 1259 C 121.109 -6.27695 1.10807 0
M  V30 1260 C 118.796 -6.09484 0.444058 0
M  V30 1261 C 119.794 -6.72719 1.18061 0
M  V30 1262 O 119.482 -7.79161 1.97898 0
M  V30 1263 H 119.214 -0.65494 -0.167422 0
M  V30 1264 H 121.768 -2.04886 0.145157 0
M  V30 1265 H 119.998 -3.23615 -2.11685 0
M  V30 1266 H 121.687 -3.59038 -1.89331 0
M  V30 1267 H 122.453 -4.84351 0.250776 0
M  V30 1268 H 118.332 -4.51509 -0.930638 0
M  V30 1269 H 121.876 -6.76982 1.68347 0
M  V30 1270 H 117.773 -6.43601 0.494803 0
M  V30 1271 H 118.541 -7.96055 1.90367 0
M  V30 1272 N 121.204 0.198386 -1.56346 0
M  V30 1273 C 122.481 0.944982 -1.71258 0
M  V30 1274 C 122.861 2.0151 -0.629048 0
M  V30 1275 O 122.209 2.25639 0.360473 0
M  V30 1276 C 122.419 1.5344 -3.1346 0
M  V30 1277 C 123.767 2.01778 -3.73591 0
M  V30 1278 O 124.791 1.63288 -3.16568 0
M  V30 1279 O 123.65 2.72594 -4.73661 0
M  V30 1280 H 120.744 0.442939 -0.69838 0
M  V30 1281 H 123.29 0.188342 -1.68652 0
M  V30 1282 H 122.062 0.762869 -3.83792 0
M  V30 1283 H 121.685 2.35596 -3.20282 0
M  V30 1284 N 122.682 1.50554 0.465978 0
M  V30 1285 C 123.645 1.69233 1.54574 0
M  V30 1286 C 124.645 0.562901 1.50626 0
M  V30 1287 O 125.835 0.830016 1.53155 0
M  V30 1288 C 122.967 1.7223 2.94193 0
M  V30 1289 H 124.16 2.65571 1.39327 0
M  V30 1290 H 121.713 1.40111 0.692711 0
M  V30 1291 H 122.448 0.77603 3.14878 0
M  V30 1292 H 122.233 2.54285 2.98466 0
M  V30 1293 H 123.723 1.88618 3.72576 0
M  V30 1294 N 124.16 -0.719506 1.40217 0
M  V30 1295 C 125.408 -1.47641 1.3801 0
M  V30 1296 C 125.729 -1.94992 -0.018145 0
M  V30 1297 O 124.999 -1.70073 -0.972207 0
M  V30 1298 H 123.579 -0.547744 0.507923 0
M  V30 1299 H 126.241 -0.853187 1.75233 0
M  V30 1300 H 125.337 -2.35112 2.05253 0
M  V30 1301 N 125.638 -1.25649 -0.95132 0
M  V30 1302 C 126.884 -1.10757 -1.69884 0
M  V30 1303 C 127.217 0.350061 -1.91019 0
M  V30 1304 O 126.492 1.25783 -1.48354 0
M  V30 1305 C 126.775 -1.86606 -3.07978 0
M  V30 1306 C 126.628 -3.40217 -2.94232 0
M  V30 1307 C 127.947 -1.65182 -4.07925 0
M  V30 1308 H 125.066 -0.40374 -0.616574 0
M  V30 1309 H 127.708 -1.54521 -1.10558 0
M  V30 1310 H 125.858 -1.49409 -3.58621 0
M  V30 1311 H 127.53 -3.87108 -2.50889 0
M  V30 1312 H 125.773 -3.67759 -2.30078 0
M  V30 1313 H 126.444 -3.88505 -3.92133 0
M  V30 1314 H 128.92 -1.9757 -3.66204 0
M  V30 1315 H 127.796 -2.20683 -5.02583 0
M  V30 1316 H 128.057 -0.593933 -4.38092 0
M  V30 1317 N 127.117 1.15442 -1.07289 0
M  V30 1318 C 128.08 2.18358 -0.696591 0
M  V30 1319 C 129.08 1.58637 0.262837 0
M  V30 1320 O 130.27 1.74145 0.0438809 0
M  V30 1321 C 127.402 3.4089 -0.0266151 0
M  V30 1322 H 128.595 2.53162 -1.60776 0
M  V30 1323 H 126.148 1.29893 -0.869342 0
M  V30 1324 H 126.883 3.11653 0.896822 0
M  V30 1325 H 126.668 3.85495 -0.716657 0
M  V30 1326 H 128.158 4.17009 0.222028 0
M  V30 1327 N 128.595 0.856903 1.32268 0
M  V30 1328 C 129.844 0.457599 1.96441 0
M  V30 1329 C 130.157 -0.992426 1.68553 0
M  V30 1330 O 131.363 -1.49727 2.26482 0
M  V30 1331 C 129.819 0.767358 3.51624 0
M  V30 1332 C 129.427 2.23326 3.88367 0
M  V30 1333 C 131.171 0.435887 4.22256 0
M  V30 1334 C 129.078 2.48613 5.36606 0
M  V30 1335 H 128.008 0.167387 0.735185 0
M  V30 1336 H 130.659 1.048 1.5063 0
M  V30 1337 H 129.041 0.106367 3.95857 0
M  V30 1338 H 130.215 2.93623 3.55137 0
M  V30 1339 H 128.53 2.52948 3.30766 0
M  V30 1340 H 131.127 0.602202 5.31298 0
M  V30 1341 H 131.47 -0.622672 4.11617 0
M  V30 1342 H 132.003 1.05286 3.83614 0
M  V30 1343 H 128.742 3.53101 5.52268 0
M  V30 1344 H 128.262 1.82896 5.71235 0
M  V30 1345 H 129.941 2.32676 6.03714 0
M  V30 1346 N 130.073 -1.45103 0.615059 0
M  V30 1347 C 131.301 -2.06553 0.11977 0
M  V30 1348 C 131.716 -1.45842 -1.19898 0
M  V30 1349 O 131.073 -0.575325 -1.73194 0
M  V30 1350 C 131.124 -3.61495 -0.018364 0
M  V30 1351 O 130.845 -4.19942 1.24822 0
M  V30 1352 C 132.346 -4.39947 -0.544237 0
M  V30 1353 H 129.566 -0.667096 0.0722739 0
M  V30 1354 H 132.11 -1.8623 0.84491 0
M  V30 1355 H 130.265 -3.81135 -0.693865 0
M  V30 1356 H 130.679 -5.13204 1.0827 0
M  V30 1357 H 132.153 -5.48838 -0.589953 0
M  V30 1358 H 132.63 -4.10255 -1.56805 0
M  V30 1359 H 133.236 -4.25188 0.0974703 0
M  V30 1360 N 131.551 -0.354651 -1.53558 0
M  V30 1361 C 132.481 0.489091 -2.2832 0
M  V30 1362 C 133.462 1.09324 -1.30316 0
M  V30 1363 O 134.647 1.11255 -1.59173 0
M  V30 1364 C 131.777 1.63456 -3.0643 0
M  V30 1365 C 130.731 1.1582 -4.12031 0
M  V30 1366 C 130.057 2.39305 -4.7816 0
M  V30 1367 C 131.357 0.250731 -5.21698 0
M  V30 1368 H 133.051 -0.134614 -2.99097 0
M  V30 1369 H 130.597 -0.0661826 -1.43848 0
M  V30 1370 H 132.55 2.23136 -3.57475 0
M  V30 1371 H 131.274 2.28533 -2.33325 0
M  V30 1372 H 129.933 0.584146 -3.61916 0
M  V30 1373 H 129.581 3.02814 -4.01637 0
M  V30 1374 H 129.281 2.08109 -5.49513 0
M  V30 1375 H 130.805 2.99691 -5.31994 0
M  V30 1376 H 132.219 0.754695 -5.68311 0
M  V30 1377 H 130.616 0.0301468 -6.00092 0
M  V30 1378 H 131.686 -0.710125 -4.79672 0
M  V30 1379 N 133.029 1.57378 -0.0835403 0
M  V30 1380 C 134.254 1.98682 0.594987 0
M  V30 1381 C 134.679 0.961969 1.61641 0
M  V30 1382 O 134.037 -0.0709989 1.81161 0
M  V30 1383 C 134.085 3.38988 1.2296 0
M  V30 1384 O 133.189 3.39208 2.34546 0
M  V30 1385 H 132.53 0.646368 0.152002 0
M  V30 1386 H 135.06 2.03961 -0.161533 0
M  V30 1387 H 135.07 3.76431 1.57366 0
M  V30 1388 H 133.745 4.13107 0.481228 0
M  V30 1389 H 132.322 3.13548 2.01846 0
M  V30 1390 N 134.507 -0.190092 1.56449 0
M  V30 1391 C 135.47 -1.21925 1.9408 0
M  V30 1392 C 136.47 -1.38176 0.822431 0
M  V30 1393 O 137.66 -1.35903 1.08977 0
M  V30 1394 C 134.792 -2.58773 2.21922 0
M  V30 1395 H 135.985 -0.897464 2.86157 0
M  V30 1396 H 133.538 -0.43181 1.50217 0
M  V30 1397 H 134.273 -2.95998 1.32499 0
M  V30 1398 H 134.058 -2.48348 3.03424 0
M  V30 1399 H 135.548 -3.32978 2.52022 0
M  V30 1400 N 135.985 -1.50799 -0.457987 0
M  V30 1401 C 137.213 -1.66218 -1.23203 0
M  V30 1402 C 137.628 -0.350894 -1.85511 0
M  V30 1403 O 136.985 0.668546 -1.69814 0
M  V30 1404 C 137.036 -2.76291 -2.33121 0
M  V30 1405 O 136.757 -4.02338 -1.73366 0
M  V30 1406 C 138.258 -3.028 -3.2377 0
M  V30 1407 H 135.478 -0.558361 -0.372121 0
M  V30 1408 H 138.022 -1.97099 -0.545179 0
M  V30 1409 H 136.177 -2.48068 -2.97558 0
M  V30 1410 H 136.591 -4.63312 -2.4585 0
M  V30 1411 H 138.065 -3.8345 -3.97077 0
M  V30 1412 H 138.542 -2.14385 -3.83322 0
M  V30 1413 H 139.148 -3.32604 -2.65056 0
M  V30 1414 N 137.463 0.71206 -1.40597 0
M  V30 1415 C 138.709 1.47416 -1.39271 0
M  V30 1416 C 139.042 1.942 0.00388791 0
M  V30 1417 O 138.317 1.68403 0.973179 0
M  V30 1418 C 138.6 2.69774 -2.38525 0
M  V30 1419 C 138.453 2.28861 -3.87224 0
M  V30 1420 C 139.772 3.71939 -2.35264 0
M  V30 1421 H 136.891 0.534713 -0.5072 0
M  V30 1422 H 139.533 0.812375 -1.71757 0
M  V30 1423 H 137.683 3.26238 -2.10953 0
M  V30 1424 H 139.355 1.77852 -4.25636 0
M  V30 1425 H 137.598 1.60824 -4.02887 0
M  V30 1426 H 138.269 3.16584 -4.52193 0
M  V30 1427 H 140.745 3.25113 -2.59694 0
M  V30 1428 H 139.621 4.55186 -3.06753 0
M  V30 1429 H 139.882 4.20484 -1.36549 0
M  V30 1430 N 138.941 1.26152 0.944643 0
M  V30 1431 C 140.166 1.14363 1.7302 0
M  V30 1432 C 140.591 -0.29772 1.85729 0
M  V30 1433 O 139.949 -1.2157 1.34501 0
M  V30 1434 C 139.997 1.81378 3.11664 0
M  V30 1435 O 139.101 1.10022 3.97453 0
M  V30 1436 H 138.442 0.398694 0.53098 0
M  V30 1437 H 140.972 1.66906 1.18337 0
M  V30 1438 H 140.982 1.88064 3.62072 0
M  V30 1439 H 139.657 2.86237 3.0173 0
M  V30 1440 H 138.234 1.11287 3.55907 0
M  V30 1441 N 140.419 -1.14872 1.07899 0
M  V30 1442 C 141.349 -2.2193 0.725887 0
M  V30 1443 C 142.33 -1.67622 -0.28927 0
M  V30 1444 O 143.515 -1.93533 -0.160787 0
M  V30 1445 C 140.645 -3.47061 0.128856 0
M  V30 1446 C 139.599 -4.14363 1.07178 0
M  V30 1447 C 138.925 -5.33636 0.337229 0
M  V30 1448 C 140.225 -4.63492 2.40775 0
M  V30 1449 H 141.919 -2.51724 1.62097 0
M  V30 1450 H 139.465 -1.20991 0.780838 0
M  V30 1451 H 141.418 -4.21199 -0.130147 0
M  V30 1452 H 140.142 -3.16617 -0.80134 0
M  V30 1453 H 138.801 -3.42173 1.3158 0
M  V30 1454 H 138.449 -4.99449 -0.596606 0
M  V30 1455 H 138.149 -5.79609 0.965788 0
M  V30 1456 H 139.673 -6.10539 0.0861567 0
M  V30 1457 H 141.087 -5.2913 2.20669 0
M  V30 1458 H 139.484 -5.20148 2.99276 0
M  V30 1459 H 140.554 -3.78834 3.02676 0
M  V30 1460 N 141.898 -0.863906 -1.31812 0
M  V30 1461 C 143.138 -0.47825 -1.98726 0
M  V30 1462 C 143.502 0.950397 -1.66828 0
M  V30 1463 O 144.703 1.44109 -2.26905 0
M  V30 1464 C 142.974 -0.721134 -3.50049 0
M  V30 1465 S 144.533 -0.434432 -4.36644 0
M  V30 1466 H 141.351 -0.178773 -0.688158 0
M  V30 1467 H 143.953 -1.11862 -1.60334 0
M  V30 1468 H 142.657 -1.75981 -3.70755 0
M  V30 1469 H 142.188 -0.0675315 -3.93342 0
M  V30 1470 H 144.203 0.735786 -4.90714 0
M  V30 1471 N 143.376 1.44774 -0.622745 0
M  V30 1472 C 144.339 2.29069 0.0774015 0
M  V30 1473 C 145.339 1.4059 0.780461 0
M  V30 1474 O 146.529 1.62551 0.626322 0
M  V30 1475 C 143.661 3.21974 1.12006 0
M  V30 1476 H 144.854 2.92459 -0.663901 0
M  V30 1477 H 142.407 1.51548 -0.382486 0
M  V30 1478 H 143.142 2.63417 1.89162 0
M  V30 1479 H 142.927 3.87168 0.619951 0
M  V30 1480 H 144.417 3.85318 1.60995 0
M  V30 1481 N 144.854 0.36279 1.53368 0
M  V30 1482 C 145.802 -0.500155 2.27159 0
M  V30 1483 C 146.796 -1.08575 1.3003 0
M  V30 1484 O 148.002 -1.02927 1.47668 0
M  V30 1485 H 144.377 -0.180009 0.730138 0
M  V30 1486 H 146.348 0.14401 2.98052 0
M  V30 1487 C 145.097 -1.62937 3.07159 0
M  V30 1488 H 144.42 -1.18806 3.8174 0
M  V30 1489 H 145.86 -2.20795 3.61975 0
M  V30 1490 C 144.319 -2.57007 2.17829 0
M  V30 1491 O 144.849 -3.59752 1.78721 0
M  V30 1492 N 143.055 -2.26131 1.82518 0
M  V30 1493 H 142.602 -1.42616 2.14519 0
M  V30 1494 H 142.56 -2.89327 1.23034 0
M  V30 1495 N 146.332 -1.57332 0.0918853 0
M  V30 1496 C 147.743 -1.81496 -0.437739 0
M  V30 1497 C 148.094 -1.00727 -1.6837 0
M  V30 1498 O 147.219 -0.235694 -2.15113 0
M  V30 1499 C 147.814 -3.29197 -0.800939 0
M  V30 1500 C 146.373 -3.54136 -1.27532 0
M  V30 1501 C 145.52 -2.75979 -0.270392 0
M  V30 1502 H 148.471 -1.55494 0.317366 0
M  V30 1503 H 148.492 -3.42344 -1.66074 0
M  V30 1504 H 148.004 -3.87955 0.106078 0
M  V30 1505 H 146.105 -3.00705 -2.20016 0
M  V30 1506 H 146.218 -4.62792 -1.23938 0
M  V30 1507 H 144.582 -2.43349 -0.751872 0
M  V30 1508 H 145.365 -3.37484 0.629248 0
M  V30 1509 N 147.81 0.181792 -1.56548 0
M  V30 1510 C 149.059 0.898348 -1.8059 0
M  V30 1511 C 149.372 1.83862 -0.667379 0
M  V30 1512 O 150.578 2.59678 -0.792446 0
M  V30 1513 C 149.034 1.64791 -3.19956 0
M  V30 1514 C 148.642 0.751789 -4.41647 0
M  V30 1515 C 150.386 2.35331 -3.53298 0
M  V30 1516 C 148.293 1.50098 -5.72035 0
M  V30 1517 H 147.223 0.339194 -0.673397 0
M  V30 1518 H 149.874 0.151413 -1.82874 0
M  V30 1519 H 148.256 2.43921 -3.11959 0
M  V30 1520 H 149.43 -0.0018076 -4.608 0
M  V30 1521 H 147.745 0.156562 -4.16106 0
M  V30 1522 H 150.342 2.91958 -4.47956 0
M  V30 1523 H 150.685 3.10164 -2.77676 0
M  V30 1524 H 151.218 1.63154 -3.62803 0
M  V30 1525 H 147.957 0.795175 -6.50659 0
M  V30 1526 H 147.477 2.22817 -5.56878 0
M  V30 1527 H 149.156 2.05125 -6.13622 0
M  V30 1528 N 149.288 1.51039 0.449983 0
M  V30 1529 C 150.534 1.64287 1.19923 0
M  V30 1530 C 150.889 0.348701 1.89214 0
M  V30 1531 O 150.182 -0.654751 1.80065 0
M  V30 1532 C 150.376 2.77556 2.25161 0
M  V30 1533 C 150.205 4.17862 1.66198 0
M  V30 1534 C 148.975 4.83976 1.45243 0
M  V30 1535 C 151.173 5.01388 1.14519 0
M  V30 1536 N 149.155 6.08433 0.817437 0
M  V30 1537 C 150.526 6.16743 0.634705 0
M  V30 1538 C 152.581 4.87008 1.03574 0
M  V30 1539 C 151.284 7.19295 0.0255452 0
M  V30 1540 C 153.31 5.89757 0.440489 0
M  V30 1541 C 152.672 7.04375 -0.0595112 0
M  V30 1542 H 148.771 0.655161 0.426952 0
M  V30 1543 H 151.355 1.88228 0.49781 0
M  V30 1544 H 149.526 2.553 2.92706 0
M  V30 1545 H 151.258 2.80049 2.92155 0
M  V30 1546 H 148.013 4.41627 1.71063 0
M  V30 1547 H 148.437 6.75017 0.517747 0
M  V30 1548 H 153.079 3.9866 1.4082 0
M  V30 1549 H 150.797 8.07302 -0.359071 0
M  V30 1550 H 154.383 5.80698 0.35788 0
M  V30 1551 H 153.263 7.82521 -0.512882 0
M  V30 1552 N 150.766 -0.704594 1.40972 0
M  V30 1553 C 151.698 -1.82974 1.38033 0
M  V30 1554 C 152.711 -1.60305 0.283931 0
M  V30 1555 O 153.9 -1.69975 0.545042 0
M  V30 1556 C 151 -3.19578 1.12795 0
M  V30 1557 C 150.173 -3.69352 2.34302 0
M  V30 1558 C 149.232 -4.84601 2.05058 0
M  V30 1559 O 148.258 -4.96682 2.7802 0
M  V30 1560 N 149.46 -5.71194 1.03528 0
M  V30 1561 H 152.225 -1.85991 2.35005 0
M  V30 1562 H 149.786 -0.886567 1.35468 0
M  V30 1563 H 151.778 -3.9429 0.911987 0
M  V30 1564 H 150.348 -3.11642 0.24452 0
M  V30 1565 H 149.568 -2.85649 2.71659 0
M  V30 1566 H 150.856 -3.99345 3.1528 0
M  V30 1567 H 150.254 -5.64054 0.431217 0
M  V30 1568 H 148.811 -6.45843 0.879205 0
M  V30 1569 N 152.244 -1.26651 -0.937939 0
M  V30 1570 C 153.491 -1.12387 -1.6845 0
M  V30 1571 C 153.819 0.332208 -1.91642 0
M  V30 1572 O 153.074 1.2602 -1.49725 0
M  V30 1573 C 153.373 -1.84168 -3.06295 0
M  V30 1574 C 153.039 -3.34056 -3.02849 0
M  V30 1575 C 151.701 -3.74942 -3.01616 0
M  V30 1576 C 154.053 -4.29741 -2.9491 0
M  V30 1577 C 151.381 -5.09894 -2.90215 0
M  V30 1578 C 153.733 -5.64738 -2.8505 0
M  V30 1579 C 152.397 -6.0493 -2.82162 0
M  V30 1580 H 151.667 -0.411252 -0.616403 0
M  V30 1581 H 154.314 -1.57134 -1.09459 0
M  V30 1582 H 152.619 -1.319 -3.6893 0
M  V30 1583 H 154.316 -1.70569 -3.62915 0
M  V30 1584 H 150.906 -3.01534 -3.0459 0
M  V30 1585 H 155.09 -3.99133 -2.94969 0
M  V30 1586 H 150.346 -5.40194 -2.86358 0
M  V30 1587 H 154.52 -6.38561 -2.77872 0
M  V30 1588 H 152.147 -7.09457 -2.73084 0
M  V30 1589 N 153.722 1.14298 -1.08507 0
M  V30 1590 C 154.97 1.84993 -0.813763 0
M  V30 1591 C 155.291 1.83405 0.662393 0
M  V30 1592 O 154.561 1.28319 1.48024 0
M  V30 1593 H 153.141 0.684966 -0.298045 0
M  V30 1594 H 155.803 1.385 -1.37126 0
M  V30 1595 H 154.899 2.89788 -1.15884 0
M  V30 1596 N 155.201 0.870884 1.31352 0
M  V30 1597 C 156.429 0.49677 2.00848 0
M  V30 1598 C 156.844 -0.910998 1.65367 0
M  V30 1599 O 156.201 -1.59696 0.883374 0
M  V30 1600 C 156.252 0.645308 3.55694 0
M  V30 1601 O 155.973 1.99764 3.89905 0
M  V30 1602 C 157.474 0.272326 4.42463 0
M  V30 1603 H 154.694 0.193462 0.642506 0
M  V30 1604 H 157.238 1.1723 1.67563 0
M  V30 1605 H 155.393 0.0173176 3.87396 0
M  V30 1606 H 155.807 2.00607 4.84621 0
M  V30 1607 H 157.281 0.427208 5.50344 0
M  V30 1608 H 157.758 -0.788587 4.32062 0
M  V30 1609 H 158.364 0.876054 4.1618 0
M  V30 1610 N 156.679 -1.44442 0.630414 0
M  V30 1611 C 157.589 -2.34476 -0.0761693 0
M  V30 1612 C 158.605 -1.52576 -0.836449 0
M  V30 1613 O 159.781 -1.85307 -0.788874 0
M  V30 1614 C 156.846 -3.30545 -1.04599 0
M  V30 1615 C 155.907 -4.28352 -0.28516 0
M  V30 1616 C 155.14 -5.19831 -1.20878 0
M  V30 1617 O 155.363 -5.15223 -2.44747 0
M  V30 1618 O 154.297 -5.97892 -0.693491 0
M  V30 1619 H 158.123 -2.96345 0.664324 0
M  V30 1620 H 155.708 -1.44203 0.39061 0
M  V30 1621 H 157.59 -3.89681 -1.60396 0
M  V30 1622 H 156.265 -2.7121 -1.76711 0
M  V30 1623 H 155.172 -3.72764 0.315837 0
M  V30 1624 H 156.505 -4.90605 0.395924 0
M  V30 1625 N 158.157 -0.370918 -1.53173 0
M  V30 1626 C 159.12 0.460778 -2.24521 0
M  V30 1627 C 160.12 1.00536 -1.25496 0
M  V30 1628 O 161.31 0.890266 -1.49733 0
M  V30 1629 C 158.442 1.64457 -2.98608 0
M  V30 1630 H 159.635 -0.163613 -2.99453 0
M  V30 1631 H 157.188 -0.122699 -1.55818 0
M  V30 1632 H 157.923 2.30691 -2.2793 0
M  V30 1633 H 157.708 1.26099 -3.7127 0
M  V30 1634 H 159.198 2.23384 -3.5283 0
M  V30 1635 N 159.635 1.57281 -0.100228 0
M  V30 1636 C 160.567 2.11342 0.886972 0
M  V30 1637 C 161.58 1.05182 1.24261 0
M  V30 1638 O 162.769 1.32613 1.19483 0
M  V30 1639 C 159.869 2.5825 2.19454 0
M  V30 1640 C 159.042 3.88302 2.01346 0
M  V30 1641 C 158.101 4.21004 3.15661 0
M  V30 1642 O 157.127 4.9014 2.89398 0
M  V30 1643 N 158.329 3.76818 4.41575 0
M  V30 1644 H 161.094 2.96668 0.425216 0
M  V30 1645 H 158.655 1.61678 0.0847334 0
M  V30 1646 H 160.647 2.7717 2.94888 0
M  V30 1647 H 159.217 1.77907 2.57037 0
M  V30 1648 H 158.437 3.7848 1.10212 0
M  V30 1649 H 159.725 4.73375 1.8653 0
M  V30 1650 H 159.123 3.2102 4.65792 0
M  V30 1651 H 157.68 4.00882 5.13942 0
M  V30 1652 N 161.113 -0.173488 1.56642 0
M  V30 1653 C 162.06 -1.21482 1.96242 0
M  V30 1654 C 163.03 -1.44104 0.826027 0
M  V30 1655 O 164.215 -1.5688 1.08597 0
M  V30 1656 C 161.355 -2.54964 2.32567 0
M  V30 1657 C 160.468 -2.39739 3.59373 0
M  V30 1658 C 159.603 -3.66072 3.84921 0
M  V30 1659 C 158.642 -3.45771 5.05083 0
M  V30 1660 N 157.779 -4.64169 5.26775 0
M  V30 1661 H 162.619 -0.870123 2.85014 0
M  V30 1662 H 160.156 -0.418245 1.41029 0
M  V30 1663 H 162.114 -3.32758 2.5165 0
M  V30 1664 H 160.744 -2.87433 1.46908 0
M  V30 1665 H 159.796 -1.53131 3.48217 0
M  V30 1666 H 161.108 -2.20683 4.47326 0
M  V30 1667 H 160.262 -4.52303 4.0436 0
M  V30 1668 H 159.001 -3.88105 2.9534 0
M  V30 1669 H 158.006 -2.57927 4.85545 0
M  V30 1670 H 159.231 -3.25163 5.96193 0
M  V30 1671 H 157.177 -4.86425 4.40144 0
M  V30 1672 H 157.094 -4.48019 6.08946 0
M  V30 1673 H 158.362 -5.51689 5.5069 0
M  V30 1674 N 162.591 -1.51276 -0.441967 0
M  V30 1675 C 163.501 -1.75092 -1.56141 0
M  V30 1676 C 164.517 -0.634963 -1.62001 0
M  V30 1677 O 165.693 -0.916686 -1.79329 0
M  V30 1678 C 162.758 -1.86666 -2.92158 0
M  V30 1679 C 161.819 -3.10506 -2.96453 0
M  V30 1680 C 161.052 -3.21519 -4.25982 0
M  V30 1681 O 161.275 -2.38586 -5.18105 0
M  V30 1682 O 160.209 -4.14465 -4.36466 0
M  V30 1683 H 164.035 -2.70044 -1.38961 0
M  V30 1684 H 161.62 -1.35722 -0.624499 0
M  V30 1685 H 163.502 -1.96292 -3.72891 0
M  V30 1686 H 162.177 -0.949014 -3.09476 0
M  V30 1687 H 161.084 -3.06363 -2.14692 0
M  V30 1688 H 162.417 -4.01945 -2.84079 0
M  V30 1689 N 164.069 0.697108 -1.41344 0
M  V30 1690 C 165.016 1.81106 -1.43071 0
M  V30 1691 C 165.986 1.63632 -0.285275 0
M  V30 1692 O 167.171 1.84504 -0.486091 0
M  V30 1693 C 164.311 3.18975 -1.31715 0
M  V30 1694 C 163.424 3.47892 -2.56115 0
M  V30 1695 C 162.559 4.75367 -2.37064 0
M  V30 1696 C 161.598 4.97247 -3.56948 0
M  V30 1697 N 160.735 6.15947 -3.36977 0
M  V30 1698 H 165.575 1.78965 -2.38276 0
M  V30 1699 H 163.112 0.873975 -1.18322 0
M  V30 1700 H 165.07 3.98615 -1.23133 0
M  V30 1701 H 163.7 3.20297 -0.401183 0
M  V30 1702 H 162.752 2.62669 -2.75153 0
M  V30 1703 H 164.064 3.59962 -3.45295 0
M  V30 1704 H 163.218 5.63059 -2.25941 0
M  V30 1705 H 161.957 4.65541 -1.45338 0
M  V30 1706 H 160.962 4.08004 -3.68527 0
M  V30 1707 H 162.187 5.08934 -4.49626 0
M  V30 1708 H 160.133 6.07336 -2.47949 0
M  V30 1709 H 160.05 6.28777 -4.19732 0
M  V30 1710 H 161.318 7.06377 -3.29623 0
M  V30 1711 N 165.547 1.27147 0.931209 0
M  V30 1712 C 166.794 1.13278 1.67852 0
M  V30 1713 C 167.122 -0.32204 1.91815 0
M  V30 1714 O 166.377 -1.25224 1.50391 0
M  V30 1715 C 166.676 1.8579 3.05314 0
M  V30 1716 C 166.342 3.35657 3.01073 0
M  V30 1717 C 165.004 3.76536 2.99623 0
M  V30 1718 C 167.356 4.31299 2.92627 0
M  V30 1719 C 164.684 5.11426 2.87506 0
M  V30 1720 C 167.036 5.66242 2.82051 0
M  V30 1721 C 165.7 6.06418 2.7895 0
M  V30 1722 H 164.97 0.414515 0.614214 0
M  V30 1723 H 167.617 1.57712 1.08624 0
M  V30 1724 H 165.922 1.33854 3.68226 0
M  V30 1725 H 167.619 1.72491 3.62005 0
M  V30 1726 H 164.209 3.03146 3.02986 0
M  V30 1727 H 168.393 4.00692 2.92848 0
M  V30 1728 H 163.649 5.41705 2.83489 0
M  V30 1729 H 167.823 6.40026 2.74481 0
M  V30 1730 H 165.45 7.10895 2.69318 0
M  V30 1731 N 167.025 -1.13721 1.09112 0
M  V30 1732 C 167.955 -2.21148 0.749385 0
M  V30 1733 C 168.936 -1.6792 -0.271475 0
M  V30 1734 O 170.121 -1.93693 -0.140251 0
M  V30 1735 C 167.251 -3.46905 0.165659 0
M  V30 1736 C 166.205 -4.13203 1.11567 0
M  V30 1737 C 165.531 -5.33248 0.393809 0
M  V30 1738 C 166.831 -4.60912 2.45678 0
M  V30 1739 H 168.525 -2.4999 1.64758 0
M  V30 1740 H 166.071 -1.20156 0.793626 0
M  V30 1741 H 168.024 -4.21313 -0.085466 0
M  V30 1742 H 166.748 -3.17449 -0.767714 0
M  V30 1743 H 165.407 -3.40758 1.35202 0
M  V30 1744 H 165.055 -5.00054 -0.543599 0
M  V30 1745 H 164.755 -5.78552 1.02721 0
M  V30 1746 H 166.279 -6.10413 0.150908 0
M  V30 1747 H 167.693 -5.26759 2.26269 0
M  V30 1748 H 166.09 -5.16944 3.04776 0
M  V30 1749 H 167.16 -3.75603 3.06677 0
M  V30 1750 N 168.503 -0.877838 -1.30888 0
M  V30 1751 C 169.749 -0.493426 -1.96706 0
M  V30 1752 C 170.082 0.953504 -1.6918 0
M  V30 1753 O 169.357 1.67266 -0.992594 0
M  V30 1754 C 169.64 -0.760429 -3.51979 0
M  V30 1755 C 169.493 -2.25747 -3.89048 0
M  V30 1756 C 170.812 -0.232148 -4.39487 0
M  V30 1757 H 167.931 -0.180746 -0.714493 0
M  V30 1758 H 170.573 -1.10052 -1.54882 0
M  V30 1759 H 168.723 -0.243715 -3.87735 0
M  V30 1760 H 170.395 -2.84204 -3.63354 0
M  V30 1761 H 168.638 -2.72694 -3.37373 0
M  V30 1762 H 169.309 -2.39491 -4.97341 0
M  V30 1763 H 171.785 -0.674314 -4.106 0
M  V30 1764 H 170.661 -0.448355 -5.47066 0
M  V30 1765 H 170.922 0.866297 -4.33529 0
M  V30 1766 N 169.982 1.44106 -0.638065 0
M  V30 1767 C 171.393 1.85316 -0.226894 0
M  V30 1768 C 171.744 1.53399 1.22324 0
M  V30 1769 O 170.869 0.975463 1.93167 0
M  V30 1770 C 171.464 3.3637 -0.405013 0
M  V30 1771 C 170.023 3.76369 -0.0482902 0
M  V30 1772 C 169.17 2.67921 -0.715108 0
M  V30 1773 H 172.121 1.34474 -0.842764 0
M  V30 1774 H 172.142 3.7885 0.354 0
M  V30 1775 H 171.654 3.59569 -1.46053 0
M  V30 1776 H 169.755 3.58784 1.00522 0
M  V30 1777 H 169.868 4.76856 -0.463187 0
M  V30 1778 H 168.232 2.54259 -0.149753 0
M  V30 1779 H 169.015 2.93951 -1.77335 0
M  V30 1780 N 171.46 0.379036 1.52974 0
M  V30 1781 C 172.39 -0.452706 2.29069 0
M  V30 1782 C 173.371 -1.07237 1.32039 0
M  V30 1783 O 174.556 -1.08708 1.60923 0
M  V30 1784 C 171.686 -1.5856 3.08992 0
M  V30 1785 C 170.64 -1.0925 4.13822 0
M  V30 1786 C 169.966 -2.31668 4.81907 0
M  V30 1787 C 171.266 -0.167702 5.22031 0
M  V30 1788 H 172.96 0.182181 2.98845 0
M  V30 1789 H 170.506 0.0890592 1.43724 0
M  V30 1790 H 172.459 -2.1742 3.6098 0
M  V30 1791 H 171.183 -2.24792 2.36931 0
M  V30 1792 H 169.842 -0.526494 3.628 0
M  V30 1793 H 169.49 -2.96386 4.06404 0
M  V30 1794 H 169.19 -1.9934 5.52754 0
M  V30 1795 H 170.714 -2.91189 5.36695 0
M  V30 1796 H 172.128 -0.664186 5.6944 0
M  V30 1797 H 170.525 0.0653265 6.00064 0
M  V30 1798 H 171.595 0.786347 4.78482 0
M  V30 1799 N 172.938 -1.57226 0.108567 0
M  V30 1800 C 174.184 -1.95121 -0.552761 0
M  V30 1801 C 174.517 -0.991345 -1.66991 0
M  V30 1802 O 173.792 -0.0267211 -1.94482 0
M  V30 1803 C 174.075 -3.43039 -1.09528 0
M  V30 1804 C 173.928 -4.49797 0.0177332 0
M  V30 1805 C 175.247 -3.92567 -1.98945 0
M  V30 1806 H 172.366 -0.709496 -0.199461 0
M  V30 1807 H 175.008 -1.89126 0.182011 0
M  V30 1808 H 173.158 -3.48279 -1.72146 0
M  V30 1809 H 174.83 -4.56661 0.652584 0
M  V30 1810 H 173.073 -4.284 0.682309 0
M  V30 1811 H 173.744 -5.50528 -0.402919 0
M  V30 1812 H 176.22 -3.89565 -1.46214 0
M  V30 1813 H 175.096 -4.96605 -2.33827 0
M  V30 1814 H 175.357 -3.32648 -2.91201 0
M  V30 1815 N 174.416 0.165178 -1.56732 0
M  V30 1816 C 175.326 1.22423 -2.00125 0
M  V30 1817 C 176.342 1.48084 -0.913619 0
M  V30 1818 O 177.518 1.60112 -1.22172 0
M  V30 1819 C 174.583 2.54197 -2.35764 0
M  V30 1820 C 173.644 2.36343 -3.58386 0
M  V30 1821 C 172.877 3.61834 -3.92316 0
M  V30 1822 O 173.1 4.67267 -3.27135 0
M  V30 1823 O 172.034 3.55579 -4.85641 0
M  V30 1824 H 175.86 0.885886 -2.90492 0
M  V30 1825 H 173.445 0.372518 -1.44681 0
M  V30 1826 H 175.327 3.3192 -2.59629 0
M  V30 1827 H 174.002 2.87598 -1.48557 0
M  V30 1828 H 172.909 1.56632 -3.39731 0
M  V30 1829 H 174.242 2.07865 -4.46154 0
M  V30 1830 N 175.894 1.51508 0.433938 0
M  V30 1831 C 177.142 1.6402 1.18075 0
M  V30 1832 C 177.463 0.360328 1.91642 0
M  V30 1833 O 176.733 -0.623945 1.85698 0
M  V30 1834 H 175.313 0.6045 0.43885 0
M  V30 1835 H 177.975 1.88452 0.497178 0
M  V30 1836 H 177.071 2.46949 1.90847 0
M  V30 1837 N 177.372 -0.689602 1.41712 0
M  V30 1838 C 178.6 -1.47827 1.44758 0
M  V30 1839 C 179.015 -1.88721 0.0545703 0
M  V30 1840 O 178.372 -1.57176 -0.927463 0
M  V30 1841 C 178.423 -2.73698 2.3616 0
M  V30 1842 O 178.144 -2.34524 3.7004 0
M  V30 1843 C 179.645 -3.67389 2.48072 0
M  V30 1844 H 176.865 -0.455357 0.49284 0
M  V30 1845 H 179.409 -0.848574 1.86063 0
M  V30 1846 H 177.564 -3.32891 1.98148 0
M  V30 1847 H 177.978 -3.15701 4.18847 0
M  V30 1848 H 179.452 -4.52475 3.16181 0
M  V30 1849 H 179.929 -4.12284 1.51388 0
M  V30 1850 H 180.535 -3.14097 2.86746 0
M  V30 1851 N 178.85 -1.27639 -0.924453 0
M  V30 1852 C 179.797 -1.10644 -2.0255 0
M  V30 1853 C 180.767 -0.00658438 -1.66099 0
M  V30 1854 O 181.952 -0.16952 -1.90045 0
M  V30 1855 C 179.092 -0.76309 -3.36557 0
M  V30 1856 C 178.205 -1.94091 -3.85944 0
M  V30 1857 C 177.34 -1.53914 -5.08413 0
M  V30 1858 C 176.379 -2.68425 -5.50104 0
M  V30 1859 N 175.516 -2.28815 -6.63768 0
M  V30 1860 H 180.356 -2.04858 -2.16419 0
M  V30 1861 H 177.893 -1.01974 -1.06017 0
M  V30 1862 H 179.851 -0.544822 -4.13627 0
M  V30 1863 H 178.481 0.142102 -3.22487 0
M  V30 1864 H 177.533 -2.27162 -3.05125 0
M  V30 1865 H 178.845 -2.7998 -4.12811 0
M  V30 1866 H 177.999 -1.28231 -5.92994 0
M  V30 1867 H 176.738 -0.651391 -4.8333 0
M  V30 1868 H 175.743 -2.94819 -4.64071 0
M  V30 1869 H 176.968 -3.57826 -5.7718 0
M  V30 1870 H 174.914 -1.42495 -6.40337 0
M  V30 1871 H 174.831 -3.08242 -6.90306 0
M  V30 1872 H 176.099 -2.06387 -7.51681 0
M  V30 1873 N 180.328 1.1314 -1.09713 0
M  V30 1874 C 181.258 2.20748 -0.761102 0
M  V30 1875 C 182.239 1.68061 0.262566 0
M  V30 1876 O 183.424 1.93765 0.129977 0
M  V30 1877 C 180.554 3.46812 -0.184054 0
M  V30 1878 C 179.508 4.12606 -1.13757 0
M  V30 1879 C 178.834 5.33031 -0.422083 0
M  V30 1880 C 180.134 4.59603 -2.48118 0
M  V30 1881 H 181.828 2.49113 -1.66082 0
M  V30 1882 H 179.374 1.19734 -0.799987 0
M  V30 1883 H 181.327 4.21353 0.0631215 0
M  V30 1884 H 180.051 3.17851 0.750868 0
M  V30 1885 H 178.71 3.40036 -1.37007 0
M  V30 1886 H 178.358 5.00335 0.517072 0
M  V30 1887 H 178.058 5.77999 -1.05788 0
M  V30 1888 H 179.582 6.10325 -0.183277 0
M  V30 1889 H 180.996 5.25552 -2.29059 0
M  V30 1890 H 179.393 5.15321 -3.07514 0
M  V30 1891 H 180.463 3.73971 -3.08665 0
M  V30 1892 N 181.806 0.884767 1.30421 0
M  V30 1893 C 183.054 0.502112 1.95763 0
M  V30 1894 C 183.375 -0.951815 1.70192 0
M  V30 1895 O 182.645 -1.6692 1.0254 0
M  V30 1896 H 181.225 0.182694 0.724315 0
M  V30 1897 H 183.887 1.1278 1.58955 0
M  V30 1898 H 182.983 0.672188 3.04775 0
M  V30 1899 N 183.284 -1.43765 0.645699 0
M  V30 1900 C 184.247 -2.29163 -0.0409488 0
M  V30 1901 C 185.247 -1.41813 -0.757996 0
M  V30 1902 O 186.437 -1.63527 -0.600382 0
M  V30 1903 C 183.569 -3.23716 -1.06869 0
M  V30 1904 H 184.762 -2.91366 0.710345 0
M  V30 1905 H 182.315 -1.5092 0.406547 0
M  V30 1906 H 183.05 -2.66393 -1.84947 0
M  V30 1907 H 182.835 -3.88105 -0.558277 0
M  V30 1908 H 184.325 -3.87831 -1.54845 0
M  V30 1909 N 184.763 -0.387143 -1.52771 0
M  V30 1910 C 186.01 0.195735 -2.01552 0
M  V30 1911 C 186.338 1.46995 -1.27369 0
M  V30 1912 O 185.593 1.92325 -0.361879 0
M  V30 1913 C 185.892 0.512209 -3.53711 0
M  V30 1914 C 185.558 -0.670202 -4.45891 0
M  V30 1915 C 184.22 -0.994586 -4.70809 0
M  V30 1916 C 186.572 -1.46134 -5.00294 0
M  V30 1917 C 183.9 -2.11169 -5.4738 0
M  V30 1918 C 186.252 -2.56903 -5.78086 0
M  V30 1919 C 184.916 -2.89852 -6.01284 0
M  V30 1920 H 184.186 0.0716246 -0.73753 0
M  V30 1921 H 186.833 -0.524046 -1.8419 0
M  V30 1922 H 185.138 1.31329 -3.69134 0
M  V30 1923 H 186.835 0.975804 -3.88946 0
M  V30 1924 H 183.425 -0.407366 -4.2666 0
M  V30 1925 H 187.609 -1.22397 -4.80971 0
M  V30 1926 H 182.865 -2.3707 -5.63567 0
M  V30 1927 H 187.039 -3.18608 -6.19243 0
M  V30 1928 H 184.666 -3.76533 -6.60399 0
M  V30 1929 N 186.241 1.57166 -0.116904 0
M  V30 1930 C 187.489 1.94737 0.540533 0
M  V30 1931 C 187.81 1.00096 1.67349 0
M  V30 1932 O 187.08 0.0568854 1.95817 0
M  V30 1933 H 185.66 0.718981 0.202669 0
M  V30 1934 H 188.322 1.94017 -0.185353 0
M  V30 1935 H 187.418 2.97719 0.936483 0
M  V30 1936 N 187.719 -0.156864 1.56817 0
M  V30 1937 C 188.649 -1.19589 2.00551 0
M  V30 1938 C 189.63 -1.4536 0.883426 0
M  V30 1939 O 190.815 -1.56449 1.15054 0
M  V30 1940 C 187.945 -2.53143 2.37773 0
M  V30 1941 C 186.899 -2.41913 3.53075 0
M  V30 1942 C 186.225 -3.80088 3.76081 0
M  V30 1943 C 187.525 -1.91157 4.86062 0
M  V30 1944 H 189.219 -0.832293 2.87599 0
M  V30 1945 H 186.765 -0.398918 1.38364 0
M  V30 1946 H 188.718 -3.26047 2.66967 0
M  V30 1947 H 187.442 -2.91319 1.4765 0
M  V30 1948 H 186.101 -1.71462 3.24031 0
M  V30 1949 H 185.749 -4.15683 2.83225 0
M  V30 1950 H 185.449 -3.73439 4.53671 0
M  V30 1951 H 186.973 -4.54556 4.0769 0
M  V30 1952 H 188.387 -2.53846 5.14038 0
M  V30 1953 H 186.784 -1.95422 5.67389 0
M  V30 1954 H 187.854 -0.866673 4.77092 0
M  V30 1955 N 189.197 -1.51736 -0.425897 0
M  V30 1956 C 190.425 -1.68794 -1.1965 0
M  V30 1957 C 190.84 -0.390164 -1.84725 0
M  V30 1958 O 190.197 0.632376 -1.71194 0
M  V30 1959 C 190.248 -2.81174 -2.27208 0
M  V30 1960 O 189.969 -4.05925 -1.64793 0
M  V30 1961 C 191.47 -3.09599 -3.17275 0
M  V30 1962 H 188.69 -0.566128 -0.360194 0
M  V30 1963 H 191.234 -1.98211 -0.503249 0
M  V30 1964 H 189.389 -2.54324 -2.9223 0
M  V30 1965 H 189.803 -4.68423 -2.35967 0
M  V30 1966 H 191.277 -3.91786 -3.88854 0
M  V30 1967 H 191.754 -2.22468 -3.78688 0
M  V30 1968 H 192.36 -3.38151 -2.57941 0
M  V30 1969 N 190.675 0.682077 -1.42076 0
M  V30 1970 C 191.585 1.82535 -1.47371 0
M  V30 1971 C 192.601 1.7017 -0.363079 0
M  V30 1972 O 193.777 1.91848 -0.612875 0
M  V30 1973 C 190.842 3.18624 -1.36674 0
M  V30 1974 C 189.903 3.42999 -2.58167 0
M  V30 1975 C 189.136 4.72595 -2.4797 0
M  V30 1976 O 189.359 5.50006 -1.5116 0
M  V30 1977 O 188.293 4.98054 -3.37974 0
M  V30 1978 H 192.119 1.81023 -2.43853 0
M  V30 1979 H 189.704 0.836887 -1.2376 0
M  V30 1980 H 191.586 3.99847 -1.33043 0
M  V30 1981 H 190.261 3.20789 -0.433138 0
M  V30 1982 H 189.168 2.61653 -2.67373 0
M  V30 1983 H 190.501 3.45659 -3.50401 0
M  V30 1984 N 192.153 1.28127 0.917671 0
M  V30 1985 C 193.564 1.13622 1.48145 0
M  V30 1986 C 193.915 -0.275207 1.9426 0
M  V30 1987 O 193.04 -1.1691 1.82102 0
M  V30 1988 C 193.635 2.05648 2.69248 0
M  V30 1989 C 192.194 1.95219 3.21818 0
M  V30 1990 C 191.341 1.97618 1.94532 0
M  V30 1991 H 194.292 1.40874 0.730772 0
M  V30 1992 H 194.313 1.61818 3.44377 0
M  V30 1993 H 193.825 3.08365 2.35653 0
M  V30 1994 H 191.926 0.955244 3.60147 0
M  V30 1995 H 192.039 2.81976 3.87333 0
M  V30 1996 H 190.403 1.41973 2.11461 0
M  V30 1997 H 191.186 3.02007 1.63238 0
M  V30 1998 N 193.631 -1.12557 1.10312 0
M  V30 1999 C 194.579 -2.20325 0.745629 0
M  V30 2000 C 195.573 -1.67429 -0.25763 0
M  V30 2001 O 196.779 -1.79612 -0.118132 0
M  V30 2002 H 193.154 -0.718118 0.223182 0
M  V30 2003 H 195.125 -2.47733 1.66346 0
M  V30 2004 C 193.874 -3.47168 0.192262 0
M  V30 2005 H 193.197 -3.88215 0.955475 0
M  V30 2006 H 194.637 -4.23995 -0.0198274 0
M  V30 2007 C 193.096 -3.19298 -1.07472 0
M  V30 2008 O 193.626 -3.3891 -2.15645 0
M  V30 2009 N 191.832 -2.73113 -0.992847 0
M  V30 2010 H 191.379 -2.57354 -0.112474 0
M  V30 2011 H 191.337 -2.54842 -1.84127 0
M  V30 2012 N 195.109 -0.891671 -1.2995 0
M  V30 2013 C 196.072 -0.36828 -2.26222 0
M  V30 2014 C 197.072 0.493014 -1.53056 0
M  V30 2015 O 198.262 0.299213 -1.71611 0
M  V30 2016 C 195.394 0.47442 -3.37583 0
M  V30 2017 H 196.587 -1.21844 -2.74033 0
M  V30 2018 H 194.14 -0.669107 -1.41254 0
M  V30 2019 H 194.875 1.34489 -2.95099 0
M  V30 2020 H 194.66 -0.142615 -3.91841 0
M  V30 2021 H 196.15 0.83218 -4.09224 0
M  V30 2022 N 196.587 1.43421 -0.653314 0
M  V30 2023 C 197.835 2.01414 -0.166415 0
M  V30 2024 C 198.156 1.51803 1.22397 0
M  V30 2025 O 197.426 0.730693 1.81763 0
M  V30 2026 H 196.006 0.744703 -0.0585319 0
M  V30 2027 H 198.668 1.75629 -0.845003 0
M  V30 2028 H 197.764 3.11734 -0.151111 0
M  V30 2029 N 198.065 0.39524 1.52563 0
M  V30 2030 C 199.293 -0.184943 2.06072 0
M  V30 2031 C 199.708 -1.40021 1.26647 0
M  V30 2032 O 199.065 -1.79767 0.314672 0
M  V30 2033 C 199.116 -0.549179 3.57304 0
M  V30 2034 O 198.837 0.617813 4.33722 0
M  V30 2035 C 200.338 -1.18459 4.2718 0
M  V30 2036 H 197.558 -0.0265025 0.670476 0
M  V30 2037 H 200.102 0.562184 1.96621 0
M  V30 2038 H 198.257 -1.2462 3.66809 0
M  V30 2039 H 198.671 0.317091 5.23541 0
M  V30 2040 H 200.145 -1.38976 5.34219 0
M  V30 2041 H 200.622 -2.15368 3.82771 0
M  V30 2042 H 201.228 -0.528163 4.22008 0
M  V30 2043 N 199.544 -1.57102 0.125237 0
M  V30 2044 C 200.821 -1.86953 -0.575142 0
M  V30 2045 C 201.201 -1.02749 -1.84407 0
M  V30 2046 O 200.549 -0.108144 -2.28244 0
M  V30 2047 C 200.759 -3.38198 -0.861583 0
M  V30 2048 C 202.107 -4.06937 -1.21192 0
M  V30 2049 O 203.131 -3.43252 -0.951645 0
M  V30 2050 O 201.99 -5.19364 -1.70068 0
M  V30 2051 H 199.084 -0.774147 -0.290906 0
M  V30 2052 H 201.63 -1.68942 0.160211 0
M  V30 2053 H 200.402 -3.91282 0.0373647 0
M  V30 2054 H 200.025 -3.61661 -1.65188 0
M  V30 2055 N 201.022 0.148545 -1.56898 0
M  V30 2056 C 201.985 1.16736 -1.97244 0
M  V30 2057 C 202.985 1.35947 -0.858777 0
M  V30 2058 O 204.175 1.32966 -1.12542 0
M  V30 2059 C 201.307 2.52798 -2.28705 0
M  V30 2060 H 202.5 0.821279 -2.88435 0
M  V30 2061 H 200.053 0.391831 -1.51309 0
M  V30 2062 H 200.788 2.92381 -1.403 0
M  V30 2063 H 200.573 2.40216 -3.09901 0
M  V30 2064 H 202.063 3.26179 -2.60762 0
M  V30 2065 N 202.5 1.5196 0.417844 0
M  V30 2066 C 203.725 1.69717 1.1921 0
M  V30 2067 C 204.15 0.402148 1.83751 0
M  V30 2068 O 203.508 -0.639593 1.69643 0
M  V30 2069 C 203.556 2.82794 2.2374 0
M  V30 2070 O 202.66 2.47756 3.29683 0
M  V30 2071 H 202.001 0.565263 0.348387 0
M  V30 2072 H 204.531 1.98621 0.490985 0
M  V30 2073 H 204.541 3.07452 2.68212 0
M  V30 2074 H 203.216 3.76756 1.76146 0
M  V30 2075 H 201.793 2.33739 2.90552 0
M  V30 2076 N 203.978 -0.674533 1.42435 0
M  V30 2077 C 205.226 -1.43175 1.42637 0
M  V30 2078 C 205.547 -1.94951 0.0438992 0
M  V30 2079 O 204.817 -1.7308 -0.917607 0
M  V30 2080 H 203.397 -0.531307 0.525092 0
M  V30 2081 H 206.059 -0.797006 1.77859 0
M  V30 2082 H 205.155 -2.28463 2.12629 0
M  V30 2083 N 205.456 -1.28612 -0.910864 0
M  V30 2084 C 206.388 -1.08589 -2.01844 0
M  V30 2085 C 207.401 -0.0367419 -1.62759 0
M  V30 2086 O 208.59 -0.280101 -1.76289 0
M  V30 2087 C 205.69 -0.628626 -3.33019 0
M  V30 2088 C 204.863 -1.75382 -4.00699 0
M  V30 2089 C 203.922 -1.28945 -5.10156 0
M  V30 2090 O 202.948 -1.9922 -5.33198 0
M  V30 2091 N 204.15 -0.154224 -5.80295 0
M  V30 2092 H 206.915 -2.03973 -2.19579 0
M  V30 2093 H 204.476 -1.20403 -1.08234 0
M  V30 2094 H 206.468 -0.301508 -4.03575 0
M  V30 2095 H 205.038 0.232451 -3.11735 0
M  V30 2096 H 204.258 -2.25039 -3.23653 0
M  V30 2097 H 205.546 -2.50854 -4.42662 0
M  V30 2098 H 204.944 0.43194 -5.64049 0
M  V30 2099 H 203.501 0.113599 -6.51701 0
M  V30 2100 N 206.934 1.1197 -1.10907 0
M  V30 2101 C 207.866 2.17592 -0.720175 0
M  V30 2102 C 208.879 1.60938 0.245495 0
M  V30 2103 O 210.068 1.78476 0.0292245 0
M  V30 2104 C 207.168 3.38873 -0.0427917 0
M  V30 2105 C 206.341 4.25006 -1.03388 0
M  V30 2106 C 205.4 5.24774 -0.387075 0
M  V30 2107 O 204.426 5.59631 -1.03934 0
M  V30 2108 N 205.628 5.74208 0.852407 0
M  V30 2109 H 208.393 2.51567 -1.62893 0
M  V30 2110 H 205.954 1.27439 -0.998543 0
M  V30 2111 H 207.946 4.02703 0.401501 0
M  V30 2112 H 206.516 3.03007 0.768456 0
M  V30 2113 H 205.736 3.57716 -1.65629 0
M  V30 2114 H 207.024 4.79397 -1.70458 0
M  V30 2115 H 206.422 5.48062 1.40161 0
M  V30 2116 H 204.979 6.39901 1.23977 0
M  V30 2117 N 208.412 0.89855 1.29475 0
M  V30 2118 C 209.64 0.539261 1.99749 0
M  V30 2119 C 210.055 -0.875716 1.67262 0
M  V30 2120 O 209.412 -1.57786 0.917049 0
M  V30 2121 C 209.463 0.72061 3.54245 0
M  V30 2122 O 209.184 2.07989 3.8558 0
M  V30 2123 C 210.685 0.366118 4.41786 0
M  V30 2124 H 207.905 0.207047 0.638258 0
M  V30 2125 H 210.449 1.20758 1.65039 0
M  V30 2126 H 208.604 0.0994862 3.87272 0
M  V30 2127 H 209.018 2.10841 4.80257 0
M  V30 2128 H 210.492 0.543848 5.49314 0
M  V30 2129 H 210.969 -0.696763 4.33638 0
M  V30 2130 H 211.575 0.964135 4.14228 0
M  V30 2131 N 209.89 -1.43072 0.660911 0
M  V30 2132 C 211.139 -2.00942 0.174735 0
M  V30 2133 C 211.452 -1.52797 -1.22117 0
M  V30 2134 O 212.658 -2.02991 -1.80297 0
M  V30 2135 C 211.114 -3.58948 0.261559 0
M  V30 2136 C 210.722 -4.16085 1.66064 0
M  V30 2137 C 212.466 -4.24173 -0.166617 0
M  V30 2138 C 210.373 -5.6641 1.70098 0
M  V30 2139 H 209.303 -0.751483 0.0615631 0
M  V30 2140 H 211.954 -1.63955 0.824069 0
M  V30 2141 H 210.336 -3.93372 -0.455421 0
M  V30 2142 H 211.51 -3.93147 2.40359 0
M  V30 2143 H 209.825 -3.6326 2.03546 0
M  V30 2144 H 212.422 -5.34471 -0.156433 0
M  V30 2145 H 212.765 -3.98647 -1.19943 0
M  V30 2146 H 213.298 -3.94659 0.498875 0
M  V30 2147 H 210.037 -5.96715 2.71315 0
M  V30 2148 H 209.557 -5.91382 1.00139 0
M  V30 2149 H 211.236 -6.30585 1.44816 0
M  V30 2150 N 211.368 -0.403325 -1.52352 0
M  V30 2151 C 212.331 0.413051 -2.25447 0
M  V30 2152 C 213.331 0.978513 -1.276 0
M  V30 2153 O 214.521 0.858305 -1.51587 0
M  V30 2154 C 211.653 1.58087 -3.02029 0
M  V30 2155 H 212.846 -0.227094 -2.99039 0
M  V30 2156 H 210.399 -0.155722 -1.55522 0
M  V30 2157 H 211.134 2.25804 -2.32772 0
M  V30 2158 H 210.919 1.18195 -3.73861 0
M  V30 2159 H 212.409 2.1585 -3.57489 0
M  V30 2160 N 212.846 1.57033 -0.133567 0
M  V30 2161 C 214.074 2.00044 0.528195 0
M  V30 2162 C 214.489 1.01349 1.59291 0
M  V30 2163 O 213.846 0.00848369 1.82498 0
M  V30 2164 C 213.897 3.43018 1.1411 0
M  V30 2165 O 213.618 4.37939 0.11892 0
M  V30 2166 C 215.119 4.01237 1.88477 0
M  V30 2167 H 212.339 0.656517 0.138661 0
M  V30 2168 H 214.883 2.03267 -0.224196 0
M  V30 2169 H 213.038 3.40688 1.84418 0
M  V30 2170 H 213.452 5.21436 0.56613 0
M  V30 2171 H 214.926 5.03314 2.26669 0
M  V30 2172 H 215.403 3.41193 2.76558 0
M  V30 2173 H 216.009 4.07156 1.22898 0
M  V30 2174 N 214.325 -0.140222 1.56975 0
M  V30 2175 C 215.272 -1.17292 1.98774 0
M  V30 2176 C 216.242 -1.4232 0.856408 0
M  V30 2177 O 217.427 -1.54541 1.119 0
M  V30 2178 C 214.567 -2.49973 2.37923 0
M  V30 2179 C 213.68 -2.32062 3.64378 0
M  V30 2180 C 212.815 -3.57825 3.926 0
M  V30 2181 C 211.854 -3.3498 5.12303 0
M  V30 2182 N 210.991 -4.52891 5.36502 0
M  V30 2183 H 215.831 -0.809472 2.86795 0
M  V30 2184 H 213.368 -0.388237 1.41884 0
M  V30 2185 H 215.326 -3.27346 2.58652 0
M  V30 2186 H 213.956 -2.84252 1.52972 0
M  V30 2187 H 213.008 -1.45711 3.51387 0
M  V30 2188 H 214.32 -2.11145 4.51906 0
M  V30 2189 H 213.474 -4.43624 4.13863 0
M  V30 2190 H 212.213 -3.81753 3.03506 0
M  V30 2191 H 211.218 -2.4757 4.90906 0
M  V30 2192 H 212.443 -3.12444 6.02956 0
M  V30 2193 H 210.389 -4.76979 4.50363 0
M  V30 2194 H 210.306 -4.35001 6.18312 0
M  V30 2195 H 211.574 -5.39884 5.62268 0
M  V30 2196 N 215.803 -1.52179 -0.40978 0
M  V30 2197 C 216.751 -1.76086 -1.51975 0
M  V30 2198 C 217.745 -0.627964 -1.57331 0
M  V30 2199 O 218.951 -0.809993 -1.60745 0
M  V30 2200 H 215.326 -0.556829 -0.505416 0
M  V30 2201 H 217.297 -2.69077 -1.28996 0
M  V30 2202 C 216.046 -1.92799 -2.8935 0
M  V30 2203 H 215.369 -2.79392 -2.85972 0
M  V30 2204 H 216.809 -2.13527 -3.66309 0
M  V30 2205 C 215.268 -0.694923 -3.29655 0
M  V30 2206 O 215.798 0.13751 -4.01465 0
M  V30 2207 N 214.004 -0.53101 -2.85707 0
M  V30 2208 H 213.551 -1.20952 -2.27439 0
M  V30 2209 H 213.509 0.292718 -3.13034 0
M  V30 2210 N 217.281 0.66697 -1.42791 0
M  V30 2211 C 218.558 1.4234 -1.34159 0
M  V30 2212 C 218.938 2.11093 0.0172729 0
M  V30 2213 O 218.286 2.03808 1.03318 0
M  V30 2214 C 218.496 2.41942 -2.51526 0
M  V30 2215 C 219.844 3.06353 -2.93995 0
M  V30 2216 O 220.868 2.52269 -2.51473 0
M  V30 2217 O 219.727 4.04376 -3.67617 0
M  V30 2218 H 216.821 0.635277 -0.529483 0
M  V30 2219 H 219.367 0.695034 -1.54814 0
M  V30 2220 H 218.139 1.89991 -3.42081 0
M  V30 2221 H 217.762 3.22249 -2.32898 0
M  V30 2222 N 218.759 1.29093 0.90403 0
M  V30 2223 C 220.036 1.075 1.63411 0
M  V30 2224 C 220.416 -0.382346 2.07609 0
M  V30 2225 O 219.764 -1.37031 1.82851 0
M  V30 2226 C 219.974 2.05858 2.81822 0
M  V30 2227 C 221.322 2.36539 3.52611 0
M  V30 2228 O 222.346 2.04019 2.91984 0
M  V30 2229 O 221.205 2.92085 4.61897 0
M  V30 2230 H 218.299 0.411547 0.717327 0
M  V30 2231 H 220.845 1.40449 0.952479 0
M  V30 2232 H 219.617 3.04037 2.46327 0
M  V30 2233 H 219.24 1.73613 3.57693 0
M  V30 2234 N 220.237 -1.11381 1.11499 0
M  V30 2235 C 221.485 -1.8277 0.862524 0
M  V30 2236 C 221.806 -1.85097 -0.613534 0
M  V30 2237 O 221.076 -1.32198 -1.4457 0
M  V30 2238 H 219.656 -0.676823 0.316101 0
M  V30 2239 H 222.318 -1.34816 1.4075 0
M  V30 2240 H 221.414 -2.86614 1.23527 0
M  V30 2241 N 221.715 -0.905404 -1.28997 0
M  V30 2242 C 222.943 -0.549846 -1.9946 0
M  V30 2243 C 223.358 0.866834 -1.67724 0
M  V30 2244 O 222.715 1.57298 -0.925404 0
M  V30 2245 C 222.766 -0.739387 -3.53858 0
M  V30 2246 O 222.487 -2.10031 -3.84472 0
M  V30 2247 C 223.988 -0.389541 -4.41585 0
M  V30 2248 H 221.208 -0.210429 -0.637151 0
M  V30 2249 H 223.752 -1.21632 -1.64396 0
M  V30 2250 H 221.907 -0.120023 -3.87214 0
M  V30 2251 H 222.321 -2.13385 -4.79132 0
M  V30 2252 H 223.795 -0.572972 -5.49018 0
M  V30 2253 H 224.272 0.673756 -4.34001 0
M  V30 2254 H 224.878 -0.986089 -4.1371 0
M  V30 2255 N 223.193 1.4272 -0.668489 0
M  V30 2256 C 224.423 2.05668 -0.196063 0
M  V30 2257 C 224.831 1.5028 1.14946 0
M  V30 2258 O 224.174 0.6348 1.72383 0
M  V30 2259 C 224.236 3.59469 -0.0468879 0
M  V30 2260 C 223.9 4.37518 -1.32012 0
M  V30 2261 C 224.897 4.68584 -2.25222 0
M  V30 2262 C 222.582 4.77266 -1.56596 0
M  V30 2263 C 224.576 5.38326 -3.41297 0
M  V30 2264 C 222.263 5.4675 -2.72962 0
M  V30 2265 C 223.261 5.77204 -3.65137 0
M  V30 2266 O 222.949 6.45264 -4.79468 0
M  V30 2267 H 222.681 0.669382 -0.0943599 0
M  V30 2268 H 225.235 1.83954 -0.913788 0
M  V30 2269 H 223.465 3.79817 0.726357 0
M  V30 2270 H 225.154 4.04071 0.384852 0
M  V30 2271 H 225.92 4.38382 -2.07477 0
M  V30 2272 H 221.799 4.52959 -0.857249 0
M  V30 2273 H 225.343 5.62014 -4.13263 0
M  V30 2274 H 221.24 5.76369 -2.90635 0
M  V30 2275 H 222.008 6.63753 -4.78931 0
M  V30 2276 N 224.671 0.411399 1.52136 0
M  V30 2277 C 225.899 -0.163076 2.06256 0
M  V30 2278 C 226.314 -1.3867 1.28125 0
M  V30 2279 O 225.671 -1.79423 0.333721 0
M  V30 2280 C 225.722 -0.511252 3.57867 0
M  V30 2281 O 225.443 0.66378 4.33042 0
M  V30 2282 C 226.944 -1.13921 4.28412 0
M  V30 2283 H 224.164 -0.0193897 0.67072 0
M  V30 2284 H 226.708 0.583007 1.96013 0
M  V30 2285 H 224.863 -1.20723 3.6811 0
M  V30 2286 H 225.277 0.372601 5.23175 0
M  V30 2287 H 226.751 -1.33302 5.35663 0
M  V30 2288 H 227.228 -2.11296 3.85033 0
M  V30 2289 H 227.834 -0.483373 4.22544 0
M  V30 2290 N 226.149 -1.5696 0.141893 0
M  V30 2291 C 227.079 -2.19516 -0.795936 0
M  V30 2292 C 228.06 -1.14187 -1.26077 0
M  V30 2293 O 229.245 -1.42511 -1.31925 0
M  V30 2294 C 226.375 -2.81272 -2.03723 0
M  V30 2295 C 225.329 -3.92384 -1.70936 0
M  V30 2296 C 224.655 -4.41052 -3.02287 0
M  V30 2297 C 225.955 -5.13403 -0.959954 0
M  V30 2298 H 227.649 -2.98138 -0.274596 0
M  V30 2299 H 225.195 -1.43406 -0.130636 0
M  V30 2300 H 227.148 -3.237 -2.69808 0
M  V30 2301 H 225.872 -1.99973 -2.58221 0
M  V30 2302 H 224.531 -3.50566 -1.07232 0
M  V30 2303 H 224.179 -3.56582 -3.54765 0
M  V30 2304 H 223.879 -5.15993 -2.81114 0
M  V30 2305 H 225.403 -4.86146 -3.69451 0
M  V30 2306 H 226.817 -5.52706 -1.52279 0
M  V30 2307 H 225.214 -5.94073 -0.848357 0
M  V30 2308 H 226.284 -4.84875 0.0492434 0
M  V30 2309 N 227.627 0.131896 -1.57047 0
M  V30 2310 C 228.575 1.18146 -2.0036 0
M  V30 2311 C 229.569 1.43614 -0.898406 0
M  V30 2312 O 230.775 1.43729 -1.08361 0
M  V30 2313 H 227.15 0.398042 -0.638018 0
M  V30 2314 H 229.121 0.789564 -2.87765 0
M  V30 2315 C 227.87 2.50341 -2.41298 0
M  V30 2316 H 227.193 2.31578 -3.25902 0
M  V30 2317 H 228.633 3.22371 -2.75414 0
M  V30 2318 C 227.092 3.11984 -1.27153 0
M  V30 2319 O 227.622 3.97484 -0.580459 0
M  V30 2320 N 225.828 2.71662 -1.03189 0
M  V30 2321 H 225.375 2.02231 -1.59564 0
M  V30 2322 H 225.333 3.13238 -0.270077 0
M  V30 2323 N 229.106 1.52395 0.401703 0
M  V30 2324 C 230.354 1.66488 1.14569 0
M  V30 2325 C 230.675 0.400897 1.90835 0
M  V30 2326 O 229.945 -0.584415 1.8698 0
M  V30 2327 H 228.525 0.613672 0.425929 0
M  V30 2328 H 231.187 1.89464 0.457093 0
M  V30 2329 H 230.283 2.50942 1.85566 0
M  V30 2330 N 230.584 -0.659388 1.43143 0
M  V30 2331 C 231.809 -1.45221 1.48073 0
M  V30 2332 C 232.234 -1.87845 0.097995 0
M  V30 2333 O 231.592 -1.56985 -0.90694 0
M  V30 2334 C 231.64 -2.66748 2.42647 0
M  V30 2335 O 230.744 -3.65583 1.90848 0
M  V30 2336 H 230.085 -0.435669 0.501088 0
M  V30 2337 H 232.615 -0.807432 1.87994 0
M  V30 2338 H 232.625 -3.14637 2.59745 0
M  V30 2339 H 231.3 -2.35067 3.43098 0
M  V30 2340 H 229.877 -3.24693 1.83381 0
M  V30 2341 N 232.062 -1.29571 -0.897171 0
M  V30 2342 C 233.009 -1.14916 -2.00158 0
M  V30 2343 C 233.979 -0.0418149 -1.66047 0
M  V30 2344 O 235.164 -0.209793 -1.89643 0
M  V30 2345 C 232.304 -0.834307 -3.34863 0
M  V30 2346 C 231.417 -2.02234 -3.8174 0
M  V30 2347 C 230.552 -1.64664 -5.05034 0
M  V30 2348 C 229.591 -2.80033 -5.44286 0
M  V30 2349 N 228.728 -2.42843 -6.58765 0
M  V30 2350 H 233.568 -2.09403 -2.12025 0
M  V30 2351 H 231.105 -1.042 -1.0383 0
M  V30 2352 H 233.063 -0.632436 -4.12379 0
M  V30 2353 H 231.693 0.0736656 -3.22716 0
M  V30 2354 H 230.745 -2.33583 -3.00238 0
M  V30 2355 H 232.057 -2.88673 -4.06779 0
M  V30 2356 H 231.211 -1.4078 -5.9014 0
M  V30 2357 H 229.95 -0.753766 -4.8184 0
M  V30 2358 H 228.955 -3.04596 -4.57713 0
M  V30 2359 H 230.18 -3.69989 -5.6946 0
M  V30 2360 H 228.126 -1.56046 -6.3717 0
M  V30 2361 H 228.043 -3.22815 -6.83613 0
M  V30 2362 H 229.311 -2.22285 -7.47134 0
M  V30 2363 N 233.54 1.10788 -1.12088 0
M  V30 2364 C 234.789 1.82036 -0.868659 0
M  V30 2365 C 235.102 1.85929 0.607426 0
M  V30 2366 O 236.308 2.53346 0.97613 0
M  V30 2367 C 234.764 3.26951 -1.50435 0
M  V30 2368 C 234.372 3.31367 -3.01496 0
M  V30 2369 C 236.116 4.03053 -1.33225 0
M  V30 2370 C 234.023 4.7072 -3.58017 0
M  V30 2371 H 232.953 0.682108 -0.321318 0
M  V30 2372 H 235.604 1.24618 -1.34694 0
M  V30 2373 H 233.986 3.84343 -0.953735 0
M  V30 2374 H 235.16 2.83819 -3.6302 0
M  V30 2375 H 233.475 2.6875 -3.18061 0
M  V30 2376 H 236.072 5.05981 -1.72878 0
M  V30 2377 H 236.415 4.15387 -0.275529 0
M  V30 2378 H 236.948 3.52066 -1.85188 0
M  V30 2379 H 233.687 4.63585 -4.63432 0
M  V30 2380 H 233.207 5.1865 -3.01268 0
M  V30 2381 H 234.886 5.39685 -3.56859 0
M  V30 2382 N 235.018 0.912232 1.28515 0
M  V30 2383 C 236.265 0.544599 1.95039 0
M  V30 2384 C 236.593 -0.911435 1.71823 0
M  V30 2385 O 235.848 -1.66317 1.03137 0
M  V30 2386 C 236.147 0.798392 3.48368 0
M  V30 2387 C 235.813 2.23374 3.91682 0
M  V30 2388 C 234.475 2.62617 4.03219 0
M  V30 2389 C 236.827 3.16786 4.13879 0
M  V30 2390 C 234.155 3.94429 4.3433 0
M  V30 2391 C 236.507 4.48161 4.46469 0
M  V30 2392 C 235.171 4.8726 4.56217 0
M  V30 2393 H 234.441 0.199283 0.7137 0
M  V30 2394 H 237.088 1.15327 1.52879 0
M  V30 2395 H 235.393 0.106908 3.91654 0
M  V30 2396 H 237.09 0.493141 3.97956 0
M  V30 2397 H 233.68 1.91922 3.83228 0
M  V30 2398 H 237.864 2.87677 4.0442 0
M  V30 2399 H 233.12 4.24426 4.40082 0
M  V30 2400 H 237.294 5.20559 4.62592 0
M  V30 2401 H 234.921 5.89431 4.80078 0
M  V30 2402 N 236.496 -1.42363 0.676048 0
M  V30 2403 C 237.745 -2.00745 0.196037 0
M  V30 2404 C 238.058 -1.54083 -1.20489 0
M  V30 2405 O 239.264 -2.04891 -1.78134 0
M  V30 2406 C 237.72 -3.58651 0.299616 0
M  V30 2407 C 237.328 -4.143 1.70468 0
M  V30 2408 C 239.072 -4.24326 -0.121619 0
M  V30 2409 C 236.979 -5.64574 1.76096 0
M  V30 2410 H 235.909 -0.750787 0.0695301 0
M  V30 2411 H 238.56 -1.63072 0.841412 0
M  V30 2412 H 236.942 -3.93833 -0.413673 0
M  V30 2413 H 238.116 -3.90575 2.44515 0
M  V30 2414 H 236.431 -3.61081 2.07387 0
M  V30 2415 H 239.028 -5.34607 -0.0997362 0
M  V30 2416 H 239.371 -3.99897 -1.15708 0
M  V30 2417 H 239.904 -3.94108 0.540706 0
M  V30 2418 H 236.643 -5.93804 2.77628 0
M  V30 2419 H 236.163 -5.90286 1.06406 0
M  V30 2420 H 237.842 -6.29013 1.51496 0
M  V30 2421 N 237.974 -0.419461 -1.51915 0
M  V30 2422 C 239.202 0.152136 -2.0634 0
M  V30 2423 C 239.617 1.37988 -1.28859 0
M  V30 2424 O 238.974 1.79243 -0.343232 0
M  V30 2425 C 239.025 0.492266 -3.58133 0
M  V30 2426 O 238.746 -0.686736 -4.32684 0
M  V30 2427 C 240.247 1.11648 -4.2901 0
M  V30 2428 H 237.467 0.0158325 -0.670813 0
M  V30 2429 H 240.011 -0.593394 -1.95702 0
M  V30 2430 H 238.166 1.18769 -3.68745 0
M  V30 2431 H 238.58 -0.400341 -5.2297 0
M  V30 2432 H 240.054 1.3046 -5.36362 0
M  V30 2433 H 240.531 2.09251 -3.86148 0
M  V30 2434 H 241.137 0.460958 -4.22795 0
M  V30 2435 N 239.452 1.56882 -0.150215 0
M  V30 2436 C 240.4 2.18214 0.805313 0
M  V30 2437 C 241.394 1.14006 1.25296 0
M  V30 2438 O 242.6 1.3225 1.22107 0
M  V30 2439 H 238.975 0.698762 0.277913 0
M  V30 2440 H 240.946 2.97231 0.263862 0
M  V30 2441 C 239.695 2.82065 2.03309 0
M  V30 2442 H 239.018 3.61968 1.69763 0
M  V30 2443 H 240.458 3.28477 2.68103 0
M  V30 2444 C 238.917 1.80739 2.84315 0
M  V30 2445 O 239.447 1.27983 3.80767 0
M  V30 2446 N 237.653 1.4997 2.48913 0
M  V30 2447 H 237.2 1.93062 1.70542 0
M  V30 2448 H 237.158 0.824217 3.03404 0
M  V30 2449 N 240.93 -0.123565 1.57115 0
M  V30 2450 C 242.178 -0.83051 1.84247 0
M  V30 2451 C 242.499 -1.80629 0.73471 0
M  V30 2452 O 241.769 -1.94403 -0.241688 0
M  V30 2453 H 240.349 -0.309694 0.679778 0
M  V30 2454 H 243.011 -0.111976 1.94578 0
M  V30 2455 H 242.107 -1.37852 2.80006 0
M  V30 2456 N 242.408 -1.52605 -0.393616 0
M  V30 2457 C 243.656 -1.67093 -1.13685 0
M  V30 2458 C 243.977 -0.411011 -1.90619 0
M  V30 2459 O 243.247 0.574491 -1.87287 0
M  V30 2460 H 241.827 -0.615923 -0.422668 0
M  V30 2461 H 244.489 -1.89704 -0.447039 0
M  V30 2462 H 243.585 -2.51922 -1.84232 0
M  V30 2463 N 243.887 0.651787 -1.4349 0
M  V30 2464 C 244.85 1.74647 -1.48429 0
M  V30 2465 C 245.85 1.56513 -0.368817 0
M  V30 2466 O 247.04 1.62385 -0.630623 0
M  V30 2467 C 244.172 3.13533 -1.33827 0
M  V30 2468 H 245.365 1.71649 -2.4592 0
M  V30 2469 H 242.918 0.863573 -1.30277 0
M  V30 2470 H 243.653 3.22142 -0.37349 0
M  V30 2471 H 243.438 3.28101 -2.14691 0
M  V30 2472 H 244.928 3.93356 -1.40218 0
M  V30 2473 N 245.365 1.30045 0.890287 0
M  V30 2474 C 246.328 1.15963 1.977 0
M  V30 2475 C 247.328 0.0923777 1.60534 0
M  V30 2476 O 248.518 0.340071 1.70848 0
M  V30 2477 C 245.65 0.775451 3.31963 0
M  V30 2478 H 246.843 2.12502 2.11619 0
M  V30 2479 H 244.396 1.13366 1.07601 0
M  V30 2480 H 245.131 -0.189671 3.23745 0
M  V30 2481 H 244.916 1.54668 3.60306 0
M  V30 2482 H 246.406 0.700251 4.11687 0
M  V30 2483 N 246.843 -1.10192 1.12674 0
M  V30 2484 C 248.12 -1.78717 0.794965 0
M  V30 2485 C 248.5 -1.98628 -0.714853 0
M  V30 2486 O 247.848 -1.58135 -1.64941 0
M  V30 2487 C 248.058 -3.11546 1.5729 0
M  V30 2488 C 249.406 -3.86382 1.76052 0
M  V30 2489 O 250.43 -3.21274 1.53823 0
M  V30 2490 O 249.289 -5.03246 2.13087 0
M  V30 2491 H 246.383 -0.774702 0.289423 0
M  V30 2492 H 248.929 -1.16819 1.23091 0
M  V30 2493 H 247.701 -2.92489 2.59935 0
M  V30 2494 H 247.324 -3.81164 1.13137 0
M  V30 2495 N 248.321 -0.919034 -1.28029 0
M  V30 2496 C 249.57 -0.550802 -1.94034 0
M  V30 2497 C 249.883 0.910877 -1.73096 0
M  V30 2498 O 251.089 1.3875 -2.33368 0
M  V30 2499 C 249.545 -0.934249 -3.47563 0
M  V30 2500 C 249.153 -2.41602 -3.7727 0
M  V30 2501 C 250.897 -0.636854 -4.19696 0
M  V30 2502 C 248.804 -2.73932 -5.24133 0
M  V30 2503 H 247.734 -0.202273 -0.726362 0
M  V30 2504 H 250.385 -1.11867 -1.45458 0
M  V30 2505 H 248.767 -0.295115 -3.94899 0
M  V30 2506 H 249.941 -3.10233 -3.40723 0
M  V30 2507 H 248.256 -2.68441 -3.18321 0
M  V30 2508 H 250.853 -0.855005 -5.2782 0
M  V30 2509 H 251.196 0.425575 -4.14119 0
M  V30 2510 H 251.729 -1.23469 -3.78154 0
M  V30 2511 H 248.468 -3.79049 -5.34792 0
M  V30 2512 H 247.988 -2.09942 -5.61858 0
M  V30 2513 H 249.667 -2.61215 -5.91925 0
M  V30 2514 N 249.799 1.42003 -0.683588 0
M  V30 2515 C 251.029 2.05448 -0.217866 0
M  V30 2516 C 251.437 1.51491 1.13346 0
M  V30 2517 O 250.78 0.653048 1.717 0
M  V30 2518 C 250.842 3.59399 -0.0850118 0
M  V30 2519 C 250.506 4.36093 -1.36645 0
M  V30 2520 C 251.503 4.66169 -2.30179 0
M  V30 2521 C 249.188 4.75578 -1.61649 0
M  V30 2522 C 251.182 5.34676 -3.46988 0
M  V30 2523 C 248.869 5.43824 -2.78745 0
M  V30 2524 C 249.867 5.73299 -3.71238 0
M  V30 2525 O 249.555 6.40142 -4.86285 0
M  V30 2526 H 249.287 0.668344 -0.101454 0
M  V30 2527 H 251.841 1.82974 -0.933248 0
M  V30 2528 H 250.071 3.80566 0.686031 0
M  V30 2529 H 251.76 4.04457 0.341973 0
M  V30 2530 H 252.526 4.36156 -2.12115 0
M  V30 2531 H 248.405 4.52025 -0.905243 0
M  V30 2532 H 251.949 5.57599 -4.19201 0
M  V30 2533 H 247.846 5.73254 -2.96732 0
M  V30 2534 H 248.614 6.58636 -4.85944 0
M  V30 2535 N 251.277 0.427512 1.51691 0
M  V30 2536 C 252.526 -0.143679 2.01188 0
M  V30 2537 C 252.839 -1.44642 1.31674 0
M  V30 2538 O 254.045 -2.09997 1.72086 0
M  V30 2539 C 252.501 -0.306602 3.58592 0
M  V30 2540 C 252.109 0.985125 4.37035 0
M  V30 2541 C 253.853 -0.832091 4.16265 0
M  V30 2542 C 251.76 0.788382 5.86122 0
M  V30 2543 H 250.69 -0.0574701 0.751807 0
M  V30 2544 H 253.341 0.555772 1.74881 0
M  V30 2545 H 251.723 -1.06882 3.81303 0
M  V30 2546 H 252.897 1.75492 4.26074 0
M  V30 2547 H 251.212 1.4384 3.90767 0
M  V30 2548 H 253.809 -0.995617 5.25349 0
M  V30 2549 H 254.152 -1.81186 3.74803 0
M  V30 2550 H 254.685 -0.128444 3.97593 0
M  V30 2551 H 251.424 1.74025 6.31978 0
M  V30 2552 H 250.944 0.0582143 5.99772 0
M  V30 2553 H 252.623 0.437722 6.45518 0
M  V30 2554 N 252.755 -1.56801 0.158532 0
M  V30 2555 C 254.001 -1.96781 -0.490405 0
M  V30 2556 C 254.334 -1.04397 -1.63753 0
M  V30 2557 O 253.609 -0.0885805 -1.94298 0
M  V30 2558 C 253.892 -3.4635 -0.985594 0
M  V30 2559 C 253.745 -4.49512 0.160824 0
M  V30 2560 C 255.064 -3.98697 -1.86355 0
M  V30 2561 H 252.183 -0.715482 -0.176788 0
M  V30 2562 H 254.825 -1.88451 0.242088 0
M  V30 2563 H 252.975 -3.53579 -1.60978 0
M  V30 2564 H 254.647 -4.54353 0.797537 0
M  V30 2565 H 252.89 -4.26013 0.818256 0
M  V30 2566 H 253.561 -5.51531 -0.227569 0
M  V30 2567 H 256.037 -3.94019 -1.33746 0
M  V30 2568 H 254.913 -5.03792 -2.17909 0
M  V30 2569 H 255.174 -3.41744 -2.8047 0
M  V30 2570 N 254.233 0.115231 -1.57178 0
M  V30 2571 C 255.48 0.822351 -1.8505 0
M  V30 2572 C 255.808 1.79701 -0.744168 0
M  V30 2573 O 255.063 1.93909 0.26414 0
M  V30 2574 C 255.362 1.60324 -3.19423 0
M  V30 2575 C 255.028 0.772536 -4.44233 0
M  V30 2576 C 253.69 0.543468 -4.78121 0
M  V30 2577 C 256.042 0.193746 -5.2084 0
M  V30 2578 C 253.37 -0.274583 -5.86057 0
M  V30 2579 C 255.722 -0.611517 -6.29637 0
M  V30 2580 C 254.386 -0.850867 -6.62055 0
M  V30 2581 H 253.656 0.30092 -0.677147 0
M  V30 2582 H 256.303 0.0845802 -1.91313 0
M  V30 2583 H 254.608 2.41203 -3.08753 0
M  V30 2584 H 256.305 2.1544 -3.38211 0
M  V30 2585 H 252.895 0.96117 -4.17683 0
M  V30 2586 H 257.079 0.357926 -4.95008 0
M  V30 2587 H 252.335 -0.469206 -6.09597 0
M  V30 2588 H 256.509 -1.06697 -6.88178 0
M  V30 2589 H 254.136 -1.48657 -7.45523 0
M  V30 2590 N 255.711 1.52812 0.385517 0
M  V30 2591 C 256.674 1.77188 1.45386 0
M  V30 2592 C 257.674 0.641953 1.4743 0
M  V30 2593 O 258.864 0.910033 1.4854 0
M  V30 2594 C 255.996 1.87582 2.8465 0
M  V30 2595 H 257.189 2.72583 1.25054 0
M  V30 2596 H 254.742 1.43586 0.617467 0
M  V30 2597 H 255.477 0.941849 3.10322 0
M  V30 2598 H 255.262 2.69748 2.84567 0
M  V30 2599 H 256.752 2.08102 3.62054 0
M  V30 2600 N 257.189 -0.644168 1.43834 0
M  V30 2601 C 258.122 -1.76906 1.44151 0
M  V30 2602 C 259.1 -1.59774 0.301857 0
M  V30 2603 O 260.284 -1.81834 0.496841 0
M  V30 2604 C 257.411 -3.14321 1.26174 0
M  V30 2605 C 256.457 -3.50134 2.43533 0
M  V30 2606 S 257.29 -3.49085 4.06079 0
M  V30 2607 C 258.446 -4.89142 3.90501 0
M  V30 2608 H 258.679 -1.76368 2.39336 0
M  V30 2609 H 256.212 -0.817624 1.30974 0
M  V30 2610 H 258.17 -3.93625 1.16489 0
M  V30 2611 H 256.831 -3.12412 0.325224 0
M  V30 2612 H 256.024 -4.50095 2.26783 0
M  V30 2613 H 255.626 -2.78264 2.4989 0
M  V30 2614 H 257.918 -5.78036 3.53385 0
M  V30 2615 H 258.861 -5.10945 4.90246 0
M  V30 2616 H 259.269 -4.63102 3.22795 0
M  V30 2617 N 258.668 -1.30515 -0.883378 0
M  V30 2618 C 259.896 -1.22359 -1.66841 0
M  V30 2619 C 260.311 0.213296 -1.87591 0
M  V30 2620 O 259.668 1.14075 -1.42454 0
M  V30 2621 C 259.719 -1.95011 -3.04389 0
M  V30 2622 O 259.44 -3.3309 -2.84575 0
M  V30 2623 C 260.941 -1.93532 -3.98824 0
M  V30 2624 H 258.161 -0.423371 -0.520575 0
M  V30 2625 H 260.705 -1.72167 -1.10357 0
M  V30 2626 H 258.86 -1.48997 -3.57601 0
M  V30 2627 H 259.274 -3.69907 -3.71846 0
M  V30 2628 H 260.748 -2.48902 -4.92699 0
M  V30 2629 H 261.225 -0.914627 -4.29571 0
M  V30 2630 H 261.831 -2.39364 -3.51547 0
M  V30 2631 N 260.146 1.09593 -1.13257 0
M  V30 2632 C 261.423 1.78293 -0.804432 0
M  V30 2633 C 261.803 1.99004 0.70431 0
M  V30 2634 O 261.151 1.59007 1.641 0
M  V30 2635 C 261.361 3.10707 -1.5894 0
M  V30 2636 C 262.709 3.85443 -1.78099 0
M  V30 2637 O 263.733 3.20454 -1.55525 0
M  V30 2638 O 262.592 5.02108 -2.15753 0
M  V30 2639 H 259.686 0.773156 -0.293528 0
M  V30 2640 H 262.232 1.16164 -1.23709 0
M  V30 2641 H 261.004 2.91106 -2.61482 0
M  V30 2642 H 260.627 3.80558 -1.15157 0
M  V30 2643 N 261.624 0.925811 1.2754 0
M  V30 2644 C 262.571 0.422045 2.26908 0
M  V30 2645 C 263.541 -0.510029 1.58076 0
M  V30 2646 O 264.726 -0.429599 1.85901 0
M  V30 2647 C 261.866 -0.320837 3.43605 0
M  V30 2648 C 260.979 0.64513 4.27156 0
M  V30 2649 C 260.114 -0.117405 5.3107 0
M  V30 2650 C 259.153 0.841391 6.0629 0
M  V30 2651 N 258.29 0.111604 7.02011 0
M  V30 2652 H 263.13 1.27441 2.69375 0
M  V30 2653 H 260.667 0.639697 1.32462 0
M  V30 2654 H 262.625 -0.76785 4.10073 0
M  V30 2655 H 261.255 -1.13745 3.02096 0
M  V30 2656 H 260.307 1.21067 3.6062 0
M  V30 2657 H 261.619 1.37797 4.79389 0
M  V30 2658 H 260.773 -0.624422 6.03478 0
M  V30 2659 H 259.512 -0.883219 4.79636 0
M  V30 2660 H 258.517 1.35967 5.32722 0
M  V30 2661 H 259.742 1.60696 6.59813 0
M  V30 2662 H 257.688 -0.635999 6.5291 0
M  V30 2663 H 257.605 0.784044 7.51923 0
M  V30 2664 H 258.873 -0.374823 7.78598 0
M  V30 2665 N 263.102 -1.41638 0.69111 0
M  V30 2666 C 264.327 -2.06148 0.227583 0
M  V30 2667 C 264.752 -1.51652 -1.11281 0
M  V30 2668 O 264.11 -0.64164 -1.69566 0
M  V30 2669 C 264.158 -3.60095 0.190858 0
M  V30 2670 O 263.262 -4.03845 -0.835664 0
M  V30 2671 H 262.603 -0.654434 0.112306 0
M  V30 2672 H 265.133 -1.81484 0.944714 0
M  V30 2673 H 265.143 -4.07995 0.020207 0
M  V30 2674 H 263.818 -3.99129 1.16915 0
M  V30 2675 H 262.395 -3.67458 -0.63473 0
M  V30 2676 N 264.58 -0.43555 -1.51462 0
M  V30 2677 C 265.527 0.376797 -2.27703 0
M  V30 2678 C 266.497 1.01838 -1.31219 0
M  V30 2679 O 267.682 1.03762 -1.60119 0
M  V30 2680 C 264.822 1.47301 -3.12084 0
M  V30 2681 C 263.935 0.849744 -4.2356 0
M  V30 2682 C 263.07 1.92086 -4.95254 0
M  V30 2683 C 262.109 1.27593 -5.98654 0
M  V30 2684 N 261.246 2.28833 -6.63762 0
M  V30 2685 H 266.086 -0.279734 -2.96684 0
M  V30 2686 H 263.623 -0.149795 -1.46335 0
M  V30 2687 H 265.581 2.11984 -3.59331 0
M  V30 2688 H 264.211 2.0992 -2.45221 0
M  V30 2689 H 263.263 0.0912529 -3.80291 0
M  V30 2690 H 264.575 0.338878 -4.97648 0
M  V30 2691 H 263.729 2.64435 -5.46039 0
M  V30 2692 H 262.468 2.46545 -4.20793 0
M  V30 2693 H 261.473 0.537893 -5.47162 0
M  V30 2694 H 262.698 0.738693 -6.7507 0
M  V30 2695 H 260.644 2.82375 -5.92115 0
M  V30 2696 H 260.561 1.82632 -7.33608 0
M  V30 2697 H 261.829 3.00671 -7.19178 0
M  V30 2698 N 266.058 1.56714 -0.166846 0
M  V30 2699 C 267.306 1.96358 0.478305 0
M  V30 2700 C 267.627 1.0537 1.6408 0
M  V30 2701 O 266.897 0.119154 1.95537 0
M  V30 2702 H 265.477 0.725065 0.179692 0
M  V30 2703 H 268.139 1.93329 -0.246985 0
M  V30 2704 H 267.235 3.00547 0.841292 0
M  V30 2705 N 267.536 -0.106894 1.57237 0
M  V30 2706 C 268.484 -1.14944 2.02215 0
M  V30 2707 C 269.478 -1.42167 0.92114 0
M  V30 2708 O 270.684 -1.41987 1.10634 0
M  V30 2709 H 267.059 -0.387841 0.64427 0
M  V30 2710 H 269.03 -0.743683 2.88984 0
M  V30 2711 C 267.779 -2.4647 2.4525 0
M  V30 2712 H 267.102 -2.26363 3.29545 0
M  V30 2713 H 268.542 -3.17948 2.80508 0
M  V30 2714 C 267.001 -3.09921 1.321 0
M  V30 2715 O 267.531 -3.9651 0.643622 0
M  V30 2716 N 265.737 -2.69986 1.07497 0
M  V30 2717 H 265.284 -1.99667 1.62761 0
M  V30 2718 H 265.242 -3.12769 0.319876 0
M  V30 2719 N 269.014 -1.53014 -0.377408 0
M  V30 2720 C 269.964 -1.74996 -1.46152 0
M  V30 2721 C 270.948 -0.604236 -1.49123 0
M  V30 2722 O 272.14 -0.862489 -1.54564 0
M  V30 2723 C 269.269 -1.93267 -2.8373 0
M  V30 2724 C 268.355 -3.13807 -2.85283 0
M  V30 2725 N 268.746 -4.35941 -2.56493 0
M  V30 2726 C 267.044 -3.14288 -3.16448 0
M  V30 2727 C 267.745 -5.17615 -2.65424 0
M  V30 2728 N 266.721 -4.53559 -2.99641 0
M  V30 2729 H 270.523 -2.67044 -1.22738 0
M  V30 2730 H 268.037 -1.51479 -0.585479 0
M  V30 2731 H 270.034 -2.0714 -3.61799 0
M  V30 2732 H 268.694 -1.0244 -3.08117 0
M  V30 2733 H 269.705 -4.63876 -2.30302 0
M  V30 2734 H 266.382 -2.33312 -3.46225 0
M  V30 2735 H 267.772 -6.25006 -2.46612 0
M  V30 2736 N 270.492 0.636531 -1.44174 0
M  V30 2737 C 271.74 1.39343 -1.46383 0
M  V30 2738 C 272.061 1.94766 -0.0955715 0
M  V30 2739 O 271.331 1.75452 0.871395 0
M  V30 2740 H 269.911 0.517199 -0.538994 0
M  V30 2741 H 272.573 0.74957 -1.7991 0
M  V30 2742 H 271.669 2.22746 -2.18611 0
M  V30 2743 N 271.97 1.30982 0.876444 0
M  V30 2744 C 273.219 1.19658 1.62373 0
M  V30 2745 C 273.532 -0.245636 1.94052 0
M  V30 2746 O 274.738 -0.48049 2.67214 0
M  V30 2747 C 273.194 2.09433 2.92687 0
M  V30 2748 C 272.802 3.58613 2.68516 0
M  V30 2749 C 274.546 2.06893 3.70669 0
M  V30 2750 C 272.453 4.40416 3.94699 0
M  V30 2751 H 271.383 0.444268 0.609214 0
M  V30 2752 H 274.034 1.55791 0.969605 0
M  V30 2753 H 272.416 1.66191 3.59439 0
M  V30 2754 H 273.59 4.10058 2.10212 0
M  V30 2755 H 271.905 3.63063 2.03898 0
M  V30 2756 H 274.502 2.65258 4.64265 0
M  V30 2757 H 274.845 1.05448 4.02724 0
M  V30 2758 H 275.378 2.48301 3.10792 0
M  V30 2759 H 272.117 5.42591 3.67798 0
M  V30 2760 H 271.637 3.93731 4.52477 0
M  V30 2761 H 273.316 4.52294 4.62644 0
M  V30 2762 N 273.449 -1.08991 1.13837 0
M  V30 2763 C 274.677 -1.85011 0.926202 0
M  V30 2764 C 275.092 -1.8135 -0.525127 0
M  V30 2765 O 274.449 -1.21287 -1.36366 0
M  V30 2766 C 274.5 -3.32802 1.41155 0
M  V30 2767 O 274.221 -3.36444 2.80601 0
M  V30 2768 C 275.722 -4.25649 1.23847 0
M  V30 2769 H 272.942 -0.584249 0.32999 0
M  V30 2770 H 275.486 -1.37688 1.51202 0
M  V30 2771 H 273.641 -3.77536 0.868631 0
M  V30 2772 H 274.055 -4.28657 3.02248 0
M  V30 2773 H 275.529 -5.27485 1.62675 0
M  V30 2774 H 276.006 -4.38828 0.18065 0
M  V30 2775 H 276.612 -3.86735 1.76964 0
M  V30 2776 N 274.927 -0.932562 -1.27047 0
M  V30 2777 C 275.89 -0.440064 -2.24936 0
M  V30 2778 C 276.89 0.444071 -1.54547 0
M  V30 2779 O 278.08 0.244465 -1.72476 0
M  V30 2780 C 275.212 0.36678 -3.38921 0
M  V30 2781 H 276.405 -1.305 -2.70018 0
M  V30 2782 H 273.958 -0.713707 -1.39054 0
M  V30 2783 H 274.693 1.25033 -2.99228 0
M  V30 2784 H 274.478 -0.267204 -3.91188 0
M  V30 2785 H 275.968 0.701567 -4.11665 0
M  V30 2786 N 276.405 1.4127 -0.698611 0
M  V30 2787 C 277.652 2.0118 -0.230865 0
M  V30 2788 C 277.98 1.55338 1.17049 0
M  V30 2789 O 277.235 0.756775 1.80475 0
M  V30 2790 C 277.534 3.56592 -0.240192 0
M  V30 2791 C 277.2 4.21955 -1.58948 0
M  V30 2792 C 275.862 4.39524 -1.95887 0
M  V30 2793 C 278.214 4.58576 -2.47704 0
M  V30 2794 C 275.542 4.90992 -3.2116 0
M  V30 2795 C 277.894 5.11435 -3.72313 0
M  V30 2796 C 276.558 5.27215 -4.0939 0
M  V30 2797 H 275.828 0.736169 -0.0844796 0
M  V30 2798 H 278.475 1.69124 -0.8983 0
M  V30 2799 H 276.78 3.88456 0.510797 0
M  V30 2800 H 278.477 4.00758 0.139296 0
M  V30 2801 H 275.067 4.08657 -1.29219 0
M  V30 2802 H 279.251 4.44654 -2.20445 0
M  V30 2803 H 274.507 5.01393 -3.49878 0
M  V30 2804 H 278.681 5.38752 -4.4127 0
M  V30 2805 H 276.308 5.66859 -5.06533 0
M  V30 2806 N 277.883 0.443576 1.51229 0
M  V30 2807 C 279.132 -0.122332 2.01329 0
M  V30 2808 C 279.445 -1.43237 1.33201 0
M  V30 2809 O 280.651 -2.0816 1.74304 0
M  V30 2810 C 279.107 -0.268551 3.58897 0
M  V30 2811 C 278.715 1.03142 4.35965 0
M  V30 2812 C 280.459 -0.787894 4.17124 0
M  V30 2813 C 278.366 0.850504 5.85252 0
M  V30 2814 H 277.296 -0.0494929 0.752374 0
M  V30 2815 H 279.947 0.574289 1.74282 0
M  V30 2816 H 278.329 -1.02832 3.82415 0
M  V30 2817 H 279.503 1.80001 4.24189 0
M  V30 2818 H 277.818 1.47977 3.89219 0
M  V30 2819 H 280.415 -0.939841 5.26375 0
M  V30 2820 H 280.758 -1.77201 3.76703 0
M  V30 2821 H 281.291 -0.0862669 3.97706 0
M  V30 2822 H 278.03 1.80718 6.30096 0
M  V30 2823 H 277.55 0.121825 5.99676 0
M  V30 2824 H 279.229 0.506163 6.45017 0
M  V30 2825 N 279.361 -1.56624 0.175154 0
M  V30 2826 C 280.291 -2.21155 -0.749195 0
M  V30 2827 C 281.272 -1.16836 -1.23626 0
M  V30 2828 O 282.457 -1.45277 -1.28873 0
M  V30 2829 C 279.587 -2.8553 -1.97711 0
M  V30 2830 C 278.541 -3.95921 -1.62575 0
M  V30 2831 C 277.867 -4.47365 -2.92864 0
M  V30 2832 C 279.167 -5.15323 -0.850838 0
M  V30 2833 H 280.861 -2.98653 -0.211295 0
M  V30 2834 H 278.407 -1.43651 -0.100188 0
M  V30 2835 H 280.36 -3.2935 -2.62881 0
M  V30 2836 H 279.084 -2.05406 -2.53921 0
M  V30 2837 H 277.743 -3.52762 -0.997719 0
M  V30 2838 H 277.391 -3.64027 -3.47122 0
M  V30 2839 H 277.091 -5.21839 -2.70106 0
M  V30 2840 H 278.615 -4.93873 -3.59056 0
M  V30 2841 H 280.029 -5.55812 -1.40521 0
M  V30 2842 H 278.426 -5.95739 -0.722154 0
M  V30 2843 H 279.496 -4.84661 0.152082 0
M  V30 2844 N 280.839 0.0985539 -1.57292 0
M  V30 2845 C 281.749 1.13824 -2.05137 0
M  V30 2846 C 282.765 1.44076 -0.975604 0
M  V30 2847 O 283.941 1.54786 -1.28853 0
M  V30 2848 C 281.006 2.43969 -2.46333 0
M  V30 2849 C 280.067 2.2093 -3.68087 0
M  V30 2850 C 279.3 3.44869 -4.0731 0
M  V30 2851 O 279.523 4.52972 -3.46659 0
M  V30 2852 O 278.457 3.34661 -5.00285 0
M  V30 2853 H 282.283 0.761881 -2.93988 0
M  V30 2854 H 279.868 0.310818 -1.46131 0
M  V30 2855 H 281.75 3.20609 -2.73473 0
M  V30 2856 H 280.425 2.81038 -1.60621 0
M  V30 2857 H 279.332 1.42081 -3.46069 0
M  V30 2858 H 280.665 1.88755 -4.54568 0
M  V30 2859 N 282.317 1.53212 0.369288 0
M  V30 2860 C 283.594 1.59815 1.12776 0
M  V30 2861 C 283.974 0.403402 2.0721 0
M  V30 2862 O 283.322 -0.606667 2.20299 0
M  V30 2863 C 283.532 2.94664 1.87013 0
M  V30 2864 C 284.88 3.49109 2.41677 0
M  V30 2865 O 285.904 2.96669 1.97144 0
M  V30 2866 O 284.763 4.40775 3.23079 0
M  V30 2867 H 281.857 0.645376 0.517125 0
M  V30 2868 H 284.403 1.65553 0.37285 0
M  V30 2869 H 283.175 3.73061 1.18071 0
M  V30 2870 H 282.798 2.92401 2.69421 0
M  V30 2871 N 283.795 -0.628877 1.44509 0
M  V30 2872 C 285.043 -1.38565 1.4712 0
M  V30 2873 C 285.364 -1.94712 0.105899 0
M  V30 2874 O 284.634 -1.75912 -0.862079 0
M  V30 2875 H 283.214 -0.514333 0.541729 0
M  V30 2876 H 285.876 -0.740018 1.80305 0
M  V30 2877 H 284.972 -2.21583 2.19789 0
M  V30 2878 N 285.273 -1.31445 -0.869486 0
M  V30 2879 C 286.501 -1.24122 -1.65534 0
M  V30 2880 C 286.916 0.193387 -1.87807 0
M  V30 2881 O 286.273 1.12557 -1.43656 0
M  V30 2882 C 286.324 -1.98229 -3.02304 0
M  V30 2883 O 286.045 -3.3609 -2.81026 0
M  V30 2884 C 287.546 -1.97751 -3.96749 0
M  V30 2885 H 284.766 -0.428868 -0.516055 0
M  V30 2886 H 287.31 -1.73328 -1.08525 0
M  V30 2887 H 285.465 -1.52782 -3.56001 0
M  V30 2888 H 285.879 -3.7383 -3.67902 0
M  V30 2889 H 287.353 -2.54114 -4.90031 0
M  V30 2890 H 287.83 -0.960137 -4.28577 0
M  V30 2891 H 288.436 -2.43079 -3.48988 0
M  V30 2892 N 286.751 1.08385 -1.14413 0
M  V30 2893 C 288.162 1.62258 -0.923535 0
M  V30 2894 C 288.513 1.88691 0.537595 0
M  V30 2895 O 287.638 1.64454 1.40655 0
M  V30 2896 C 288.233 2.94781 -1.67002 0
M  V30 2897 C 286.792 3.45437 -1.495 0
M  V30 2898 C 285.939 2.19668 -1.69238 0
M  V30 2899 H 288.89 0.916086 -1.2959 0
M  V30 2900 H 288.911 3.63229 -1.13334 0
M  V30 2901 H 288.423 2.7551 -2.73342 0
M  V30 2902 H 286.524 3.6981 -0.455097 0
M  V30 2903 H 286.637 4.22173 -2.2651 0
M  V30 2904 H 285.001 2.28849 -1.11804 0
M  V30 2905 H 285.784 2.02905 -2.7692 0
M  V30 2906 N 288.23 0.939286 1.26551 0
M  V30 2907 C 289.478 0.58469 1.93457 0
M  V30 2908 C 289.799 -0.878774 1.74076 0
M  V30 2909 O 289.069 -1.62421 1.09528 0
M  V30 2910 H 287.649 0.21325 0.715914 0
M  V30 2911 H 290.311 1.1942 1.54029 0
M  V30 2912 H 289.407 0.800849 3.0165 0
M  V30 2913 N 289.708 -1.40897 0.706093 0
M  V30 2914 C 290.955 -2.01054 0.241531 0
M  V30 2915 C 291.283 -1.55956 -1.16223 0
M  V30 2916 O 290.538 -0.766336 -1.80072 0
M  V30 2917 C 290.837 -3.5646 0.259099 0
M  V30 2918 C 290.503 -4.21106 1.61184 0
M  V30 2919 C 289.165 -4.38479 1.98216 0
M  V30 2920 C 291.517 -4.57256 2.50132 0
M  V30 2921 C 288.845 -4.89282 3.2376 0
M  V30 2922 C 291.197 -5.09454 3.7502 0
M  V30 2923 C 289.861 -5.25037 4.12181 0
M  V30 2924 H 289.131 -0.73571 0.0883825 0
M  V30 2925 H 291.778 -1.68645 0.907257 0
M  V30 2926 H 290.083 -3.88721 -0.490189 0
M  V30 2927 H 291.78 -4.00826 -0.11804 0
M  V30 2928 H 288.37 -4.07966 1.31384 0
M  V30 2929 H 292.554 -4.43479 2.228 0
M  V30 2930 H 287.81 -4.99531 3.52532 0
M  V30 2931 H 291.984 -5.36404 4.44121 0
M  V30 2932 H 289.611 -5.64164 5.09532 0
M  V30 2933 N 291.186 -0.45159 -1.50991 0
M  V30 2934 C 292.414 0.108334 -2.06616 0
M  V30 2935 C 292.829 1.35224 -1.31757 0
M  V30 2936 O 292.186 1.78475 -0.381174 0
M  V30 2937 C 292.237 0.41619 -3.59096 0
M  V30 2938 O 291.958 -0.778361 -4.3113 0
M  V30 2939 C 293.459 1.02523 -4.31282 0
M  V30 2940 H 290.679 0.00159995 -0.670998 0
M  V30 2941 H 293.223 -0.634771 -1.94399 0
M  V30 2942 H 291.378 1.10921 -3.71181 0
M  V30 2943 H 291.792 -0.511181 -5.22003 0
M  V30 2944 H 293.266 1.19053 -5.39009 0
M  V30 2945 H 293.743 2.01013 -3.905 0
M  V30 2946 H 294.349 0.371173 -4.23677 0
M  V30 2947 N 292.664 1.56529 -0.183458 0
M  V30 2948 C 293.894 2.01331 0.463612 0
M  V30 2949 C 294.302 1.06278 1.5653 0
M  V30 2950 O 293.645 0.0577976 1.83609 0
M  V30 2951 C 293.707 3.42547 1.09096 0
M  V30 2952 C 293.371 4.56817 0.129442 0
M  V30 2953 C 294.368 5.15734 -0.656807 0
M  V30 2954 C 292.053 5.02295 0.02174 0
M  V30 2955 C 294.047 6.1857 -1.53784 0
M  V30 2956 C 291.734 6.04978 -0.862864 0
M  V30 2957 C 292.732 6.62988 -1.64123 0
M  V30 2958 O 292.42 7.63677 -2.51103 0
M  V30 2959 H 292.152 0.664917 0.121907 0
M  V30 2960 H 294.706 2.034 -0.285954 0
M  V30 2961 H 292.936 3.37428 1.88889 0
M  V30 2962 H 294.625 3.71228 1.64148 0
M  V30 2963 H 295.391 4.81473 -0.583839 0
M  V30 2964 H 291.27 4.56847 0.617392 0
M  V30 2965 H 294.814 6.63777 -2.14583 0
M  V30 2966 H 290.711 6.38663 -0.93699 0
M  V30 2967 H 291.479 7.81049 -2.44753 0
M  V30 2968 N 294.142 -0.090211 1.57342 0
M  V30 2969 C 295.39 -0.791241 1.85967 0
M  V30 2970 C 295.711 -1.7903 0.772859 0
M  V30 2971 O 294.981 -1.94872 -0.200398 0
M  V30 2972 H 293.561 -0.295205 0.686195 0
M  V30 2973 H 296.223 -0.0706782 1.94772 0
M  V30 2974 H 295.319 -1.31882 2.82867 0
M  V30 2975 N 295.62 -1.53406 -0.361157 0
M  V30 2976 C 296.567 -1.80156 -1.44265 0
M  V30 2977 C 297.537 -0.646183 -1.53015 0
M  V30 2978 O 298.722 -0.888818 -1.68833 0
M  V30 2979 C 295.862 -2.00116 -2.81154 0
M  V30 2980 C 294.975 -3.27833 -2.81335 0
M  V30 2981 C 294.11 -3.37957 -4.09828 0
M  V30 2982 C 293.149 -4.59689 -4.04168 0
M  V30 2983 N 292.286 -4.66942 -5.24318 0
M  V30 2984 H 297.126 -2.72438 -1.20754 0
M  V30 2985 H 294.663 -1.34954 -0.585296 0
M  V30 2986 H 296.621 -2.09677 -3.60682 0
M  V30 2987 H 295.251 -1.11167 -3.03054 0
M  V30 2988 H 294.303 -3.27204 -1.94014 0
M  V30 2989 H 295.615 -4.17442 -2.73027 0
M  V30 2990 H 294.769 -3.46853 -4.97773 0
M  V30 2991 H 293.508 -2.46372 -4.20894 0
M  V30 2992 H 292.513 -4.50889 -3.14609 0
M  V30 2993 H 293.738 -5.5262 -3.947 0
M  V30 2994 H 291.684 -3.7826 -5.35962 0
M  V30 2995 H 291.601 -5.50462 -5.18197 0
M  V30 2996 H 292.869 -4.80127 -6.14084 0
M  V30 2997 N 297.098 0.621204 -1.44841 0
M  V30 2998 C 298.045 1.73267 -1.5247 0
M  V30 2999 C 299.015 1.6189 -0.371611 0
M  V30 3000 O 300.2 1.81668 -0.58321 0
M  V30 3001 C 297.34 3.11545 -1.48438 0
M  V30 3002 C 296.453 3.33827 -2.74196 0
M  V30 3003 C 295.588 4.62133 -2.61929 0
M  V30 3004 C 294.627 4.77627 -3.82804 0
M  V30 3005 N 293.764 5.97219 -3.69153 0
M  V30 3006 H 298.604 1.66082 -2.47428 0
M  V30 3007 H 296.141 0.810026 -1.22788 0
M  V30 3008 H 298.099 3.91528 -1.4409 0
M  V30 3009 H 296.729 3.1772 -0.570402 0
M  V30 3010 H 295.781 2.47715 -2.88689 0
M  V30 3011 H 297.093 3.41153 -3.6389 0
M  V30 3012 H 296.247 5.50291 -2.5547 0
M  V30 3013 H 294.986 4.57182 -1.69811 0
M  V30 3014 H 293.991 3.87896 -3.89637 0
M  V30 3015 H 295.216 4.84385 -4.75971 0
M  V30 3016 H 293.162 5.93339 -2.79794 0
M  V30 3017 H 293.079 6.05644 -4.52472 0
M  V30 3018 H 294.347 6.87912 -3.66603 0
M  V30 3019 N 298.576 1.31904 0.862503 0
M  V30 3020 C 299.486 1.22161 2.00285 0
M  V30 3021 C 300.502 0.136785 1.73462 0
M  V30 3022 O 301.678 0.355994 1.98229 0
M  V30 3023 C 298.743 0.937093 3.33796 0
M  V30 3024 C 297.804 2.10957 3.73893 0
M  V30 3025 C 297.037 1.83853 5.01033 0
M  V30 3026 O 297.26 0.777274 5.65079 0
M  V30 3027 O 296.194 2.69741 5.38074 0
M  V30 3028 H 300.02 2.18008 2.11439 0
M  V30 3029 H 297.605 1.11716 0.991957 0
M  V30 3030 H 299.487 0.794583 4.13841 0
M  V30 3031 H 298.162 0.00871894 3.23699 0
M  V30 3032 H 297.069 2.30752 2.94456 0
M  V30 3033 H 298.402 3.02046 3.88625 0
M  V30 3034 N 300.054 -1.07777 1.14986 0
M  V30 3035 C 301.331 -1.7699 0.832695 0
M  V30 3036 C 301.711 -2.001 -0.672561 0
M  V30 3037 O 301.059 -1.61598 -1.6155 0
M  V30 3038 C 301.269 -3.08139 1.63863 0
M  V30 3039 C 302.617 -3.8256 1.84208 0
M  V30 3040 O 303.641 -3.17939 1.60603 0
M  V30 3041 O 302.5 -4.98612 2.23714 0
M  V30 3042 H 299.594 -0.768389 0.305791 0
M  V30 3043 H 302.14 -1.14182 1.25541 0
M  V30 3044 H 300.912 -2.86909 2.6608 0
M  V30 3045 H 300.535 -3.78678 1.21197 0
M  V30 3046 N 301.532 -0.945985 -1.26051 0
M  V30 3047 C 302.479 -0.45809 -2.26208 0
M  V30 3048 C 303.449 0.484816 -1.58867 0
M  V30 3049 O 304.634 0.399969 -1.86561 0
M  V30 3050 C 301.774 0.266131 -3.44072 0
M  V30 3051 C 300.887 -0.713005 -4.26075 0
M  V30 3052 C 300.022 0.0329013 -5.3119 0
M  V30 3053 C 299.061 -0.93774 -6.04874 0
M  V30 3054 N 298.198 -0.223274 -7.01745 0
M  V30 3055 H 303.038 -1.3171 -2.67313 0
M  V30 3056 H 300.575 -0.66069 -1.31428 0
M  V30 3057 H 302.533 0.702514 -4.11243 0
M  V30 3058 H 301.163 1.08925 -3.03867 0
M  V30 3059 H 300.215 -1.26789 -3.58648 0
M  V30 3060 H 301.527 -1.45406 -4.77136 0
M  V30 3061 H 300.681 0.528335 -6.04395 0
M  V30 3062 H 299.42 0.806801 -4.8098 0
M  V30 3063 H 298.425 -1.44425 -5.30492 0
M  V30 3064 H 299.65 -1.71172 -6.57173 0
M  V30 3065 H 297.596 0.532046 -6.53839 0
M  V30 3066 H 297.513 -0.90357 -7.50581 0
M  V30 3067 H 298.781 0.250907 -7.79096 0
M  V30 3068 N 303.011 1.40521 -0.713556 0
M  V30 3069 C 303.944 2.28198 -0.00881422 0
M  V30 3070 C 304.922 1.43227 0.769735 0
M  V30 3071 O 306.106 1.72641 0.756799 0
M  V30 3072 C 303.233 3.23758 0.994899 0
M  V30 3073 C 302.279 4.25391 0.3074 0
M  V30 3074 S 303.112 5.26765 -0.963247 0
M  V30 3075 C 304.268 6.25888 0.0384143 0
M  V30 3076 H 304.501 2.87622 -0.752407 0
M  V30 3077 H 302.034 1.45925 -0.504502 0
M  V30 3078 H 303.992 3.79341 1.56879 0
M  V30 3079 H 302.653 2.63396 1.71118 0
M  V30 3080 H 301.846 4.92596 1.0661 0
M  V30 3081 H 301.448 3.73497 -0.193879 0
M  V30 3082 H 303.74 6.71683 0.885912 0
M  V30 3083 H 304.683 7.05552 -0.60019 0
M  V30 3084 H 305.091 5.63072 0.401233 0
M  V30 3085 N 304.489 0.459591 1.5075 0
M  V30 3086 C 305.737 -0.0991532 2.01857 0
M  V30 3087 C 306.058 -1.41247 1.34441 0
M  V30 3088 O 305.328 -1.89775 0.486022 0
M  V30 3089 H 303.908 -0.039633 0.745948 0
M  V30 3090 H 306.57 0.607387 1.85194 0
M  V30 3091 H 305.666 -0.258998 3.11023 0
M  V30 3092 N 305.967 -1.56429 0.191757 0
M  V30 3093 C 307.216 -1.9666 -0.448088 0
M  V30 3094 C 307.529 -1.08136 -1.62991 0
M  V30 3095 O 308.735 -1.38135 -2.33733 0
M  V30 3096 C 307.191 -3.49753 -0.848585 0
M  V30 3097 C 306.799 -4.46935 0.308764 0
M  V30 3098 C 308.543 -3.9876 -1.4557 0
M  V30 3099 C 306.45 -5.91293 -0.112506 0
M  V30 3100 H 305.38 -0.734312 -0.171179 0
M  V30 3101 H 308.031 -1.81301 0.283242 0
M  V30 3102 H 306.413 -3.60604 -1.63649 0
M  V30 3103 H 307.587 -4.47813 1.08627 0
M  V30 3104 H 305.902 -4.08102 0.827158 0
M  V30 3105 H 308.499 -5.04086 -1.78328 0
M  V30 3106 H 308.842 -3.42875 -2.36099 0
M  V30 3107 H 309.375 -3.9101 -0.731836 0
M  V30 3108 H 306.114 -6.51097 0.758514 0
M  V30 3109 H 305.634 -5.93676 -0.854941 0
M  V30 3110 H 307.313 -6.44663 -0.549448 0
M  V30 3111 N 307.445 0.0818655 -1.57387 0
M  V30 3112 C 308.395 1.10501 -1.99433 0
M  V30 3113 C 309.379 1.35041 -0.874798 0
M  V30 3114 O 310.571 1.35511 -1.13868 0
M  V30 3115 C 307.7 2.42159 -2.43339 0
M  V30 3116 C 306.786 2.20937 -3.62005 0
M  V30 3117 N 307.177 1.69616 -4.76512 0
M  V30 3118 C 305.475 2.51451 -3.68359 0
M  V30 3119 C 306.176 1.62973 -5.58404 0
M  V30 3120 N 305.152 2.08664 -5.01956 0
M  V30 3121 H 308.954 0.701373 -2.85408 0
M  V30 3122 H 306.468 0.289096 -1.59806 0
M  V30 3123 H 308.465 3.16208 -2.71695 0
M  V30 3124 H 307.125 2.83249 -1.58746 0
M  V30 3125 H 308.136 1.38624 -4.99003 0
M  V30 3126 H 304.813 2.95975 -2.94457 0
M  V30 3127 H 306.203 1.24233 -6.60315 0
M  V30 3128 N 308.923 1.53595 0.353017 0
M  V30 3129 C 310.151 1.74311 1.1146 0
M  V30 3130 C 310.566 0.477854 1.82653 0
M  V30 3131 O 309.923 -0.549977 1.74016 0
M  V30 3132 C 309.974 2.91694 2.13534 0
M  V30 3133 O 309.695 4.13325 1.45238 0
M  V30 3134 C 311.196 3.24384 3.02142 0
M  V30 3135 H 308.416 0.582669 0.332773 0
M  V30 3136 H 310.96 2.00386 0.408107 0
M  V30 3137 H 309.115 2.67977 2.79763 0
M  V30 3138 H 309.529 4.79148 2.13349 0
M  V30 3139 H 311.003 4.09893 3.69718 0
M  V30 3140 H 311.48 2.40282 3.67643 0
M  V30 3141 H 312.086 3.50073 2.41514 0
M  V30 3142 N 310.401 -0.613514 1.45168 0
M  V30 3143 C 311.626 -1.40437 1.52618 0
M  V30 3144 C 312.051 -1.87438 0.157707 0
M  V30 3145 O 311.409 -1.59791 -0.856537 0
M  V30 3146 C 311.457 -2.58894 2.51011 0
M  V30 3147 O 310.561 -3.59326 2.02382 0
M  V30 3148 H 309.902 -0.419506 0.514695 0
M  V30 3149 H 312.432 -0.747215 1.90467 0
M  V30 3150 H 312.442 -3.06214 2.69624 0
M  V30 3151 H 311.117 -2.24032 3.50403 0
M  V30 3152 H 309.694 -3.18695 1.93618 0
M  V30 3153 N 311.879 -1.3236 -0.855495 0
M  V30 3154 C 312.811 -1.17052 -1.97057 0
M  V30 3155 C 313.824 -0.10574 -1.62456 0
M  V30 3156 O 315.013 -0.354619 -1.74942 0
M  V30 3157 C 312.113 -0.769305 -3.30053 0
M  V30 3158 C 311.286 -1.9222 -3.929 0
M  V30 3159 C 310.345 -1.50466 -5.04228 0
M  V30 3160 O 309.371 -2.21655 -5.24269 0
M  V30 3161 N 310.573 -0.400209 -5.79119 0
M  V30 3162 H 313.338 -2.13103 -2.1073 0
M  V30 3163 H 310.899 -1.24885 -1.0303 0
M  V30 3164 H 312.891 -0.472407 -4.01933 0
M  V30 3165 H 311.461 0.100025 -3.1244 0
M  V30 3166 H 310.681 -2.38563 -3.13817 0
M  V30 3167 H 311.969 -2.69403 -4.31624 0
M  V30 3168 H 311.367 0.192319 -5.65373 0
M  V30 3169 H 309.924 -0.162912 -6.51596 0
M  V30 3170 N 313.357 1.07166 -1.15556 0
M  V30 3171 C 314.585 1.83514 -0.955519 0
M  V30 3172 C 315 1.82163 0.49621 0
M  V30 3173 O 314.357 1.23441 1.34419 0
M  V30 3174 C 314.408 3.30515 -1.46432 0
M  V30 3175 O 314.129 3.31937 -2.85918 0
M  V30 3176 C 315.63 4.23625 -1.30603 0
M  V30 3177 H 312.85 0.578926 -0.339244 0
M  V30 3178 H 315.394 1.35265 -1.53374 0
M  V30 3179 H 313.549 3.76106 -0.928584 0
M  V30 3180 H 313.963 4.23794 -3.09029 0
M  V30 3181 H 315.437 5.24831 -1.71047 0
M  V30 3182 H 315.914 4.38485 -0.250441 0
M  V30 3183 H 316.52 3.83871 -1.83094 0
M  V30 3184 N 314.835 0.952656 1.25548 0
M  V30 3185 C 315.768 0.415525 2.24385 0
M  V30 3186 C 316.746 -0.502046 1.54655 0
M  V30 3187 O 317.93 -0.436875 1.83368 0
M  V30 3188 C 315.057 -0.401734 3.36309 0
M  V30 3189 C 314.103 0.455949 4.24056 0
M  V30 3190 S 314.936 1.88698 5.01152 0
M  V30 3191 C 316.092 1.07809 6.16545 0
M  V30 3192 H 316.325 1.25315 2.69599 0
M  V30 3193 H 313.858 0.756587 1.34592 0
M  V30 3194 H 315.816 -0.867329 4.01233 0
M  V30 3195 H 314.477 -1.21416 2.89684 0
M  V30 3196 H 313.67 -0.170776 5.03711 0
M  V30 3197 H 313.272 0.856675 3.64056 0
M  V30 3198 H 315.564 0.325816 6.76716 0
M  V30 3199 H 316.507 1.84849 6.83547 0
M  V30 3200 H 316.915 0.60909 5.61204 0
M  V30 3201 N 316.313 -1.40141 0.720998 0
M  V30 3202 C 317.223 -2.34486 0.0731031 0
M  V30 3203 C 318.239 -1.57587 -0.737723 0
M  V30 3204 O 319.415 -1.89949 -0.669429 0
M  V30 3205 C 316.48 -3.36528 -0.833656 0
M  V30 3206 C 315.541 -4.29298 -0.0121673 0
M  V30 3207 C 314.774 -5.26466 -0.875742 0
M  V30 3208 O 314.997 -5.29745 -2.11485 0
M  V30 3209 O 313.931 -6.01092 -0.31185 0
M  V30 3210 H 317.757 -2.9152 0.851444 0
M  V30 3211 H 315.342 -1.41427 0.481527 0
M  V30 3212 H 317.224 -3.99093 -1.35289 0
M  V30 3213 H 315.899 -2.81899 -1.59105 0
M  V30 3214 H 314.806 -3.70001 0.552262 0
M  V30 3215 H 316.139 -4.87094 0.707129 0
M  V30 3216 N 317.792 -0.46758 -1.50504 0
M  V30 3217 C 318.722 0.318381 -2.31319 0
M  V30 3218 C 319.703 0.993564 -1.38066 0
M  V30 3219 O 320.888 0.991411 -1.66987 0
M  V30 3220 C 318.018 1.40275 -3.17711 0
M  V30 3221 C 316.972 0.849373 -4.19487 0
M  V30 3222 C 316.298 2.03177 -4.94594 0
M  V30 3223 C 317.598 -0.136942 -5.2212 0
M  V30 3224 H 319.292 -0.356106 -2.97275 0
M  V30 3225 H 316.838 -0.172703 -1.42961 0
M  V30 3226 H 318.791 1.96004 -3.73042 0
M  V30 3227 H 317.515 2.10596 -2.49634 0
M  V30 3228 H 316.174 0.314076 -3.65252 0
M  V30 3229 H 315.822 2.72187 -4.22993 0
M  V30 3230 H 315.522 1.66774 -5.63436 0
M  V30 3231 H 317.046 2.59403 -5.52759 0
M  V30 3232 H 318.46 0.331056 -5.72343 0
M  V30 3233 H 316.857 -0.41507 -5.98663 0
M  V30 3234 H 317.927 -1.06398 -4.73083 0
M  V30 3235 N 319.27 1.56325 -0.20005 0
M  V30 3236 C 320.516 1.98012 0.438059 0
M  V30 3237 C 320.849 1.08702 1.60927 0
M  V30 3238 O 320.124 0.140064 1.93995 0
M  V30 3239 C 320.407 3.48841 0.893419 0
M  V30 3240 C 320.26 4.48928 -0.279947 0
M  V30 3241 C 321.579 4.03498 1.75719 0
M  V30 3242 H 318.698 0.719918 0.157757 0
M  V30 3243 H 321.34 1.87743 -0.291968 0
M  V30 3244 H 319.49 3.57723 1.51547 0
M  V30 3245 H 321.162 4.52079 -0.91772 0
M  V30 3246 H 319.405 4.23694 -0.930919 0
M  V30 3247 H 320.076 5.5194 0.0812601 0
M  V30 3248 H 322.552 3.97427 1.23253 0
M  V30 3249 H 321.428 5.09393 2.04476 0
M  V30 3250 H 321.689 3.4906 2.71311 0
M  V30 3251 N 320.748 -0.0735177 1.57428 0
M  V30 3252 C 321.995 -0.772999 1.87166 0
M  V30 3253 C 322.323 -1.77665 0.791551 0
M  V30 3254 O 321.578 -1.94541 -0.212636 0
M  V30 3255 C 321.877 -1.51799 3.23561 0
M  V30 3256 C 321.543 -0.654484 4.46125 0
M  V30 3257 C 320.205 -0.416511 4.79394 0
M  V30 3258 C 322.557 -0.0555862 5.2117 0
M  V30 3259 C 319.885 0.429869 5.85123 0
M  V30 3260 C 322.237 0.778239 6.27795 0
M  V30 3261 C 320.901 1.0261 6.59566 0
M  V30 3262 H 320.171 -0.282861 0.684888 0
M  V30 3263 H 322.818 -0.0338272 1.9147 0
M  V30 3264 H 321.123 -2.32932 3.1504 0
M  V30 3265 H 322.82 -2.06397 3.43804 0
M  V30 3266 H 319.41 -0.850091 4.20085 0
M  V30 3267 H 323.594 -0.226558 4.95783 0
M  V30 3268 H 318.85 0.630665 6.08139 0
M  V30 3269 H 323.024 1.24906 6.85107 0
M  V30 3270 H 320.651 1.68371 7.4132 0
M  V30 3271 N 322.226 -1.5378 -0.344866 0
M  V30 3272 C 323.158 -1.77988 -1.44406 0
M  V30 3273 C 324.171 -0.661138 -1.48771 0
M  V30 3274 O 325.36 -0.937842 -1.51877 0
M  V30 3275 C 322.46 -1.86345 -2.8307 0
M  V30 3276 C 321.633 -3.16256 -3.0216 0
M  V30 3277 C 320.692 -3.15588 -4.21059 0
M  V30 3278 O 319.718 -3.89314 -4.15239 0
M  V30 3279 N 320.92 -2.37864 -5.29529 0
M  V30 3280 H 323.685 -2.72839 -1.24012 0
M  V30 3281 H 321.246 -1.52814 -0.534737 0
M  V30 3282 H 323.238 -1.83351 -3.60783 0
M  V30 3283 H 321.808 -0.986858 -2.96614 0
M  V30 3284 H 321.028 -3.32385 -2.11929 0
M  V30 3285 H 322.316 -4.0207 -3.11797 0
M  V30 3286 H 321.714 -1.77514 -5.37127 0
M  V30 3287 H 320.271 -2.40668 -6.05741 0
M  V30 3288 N 323.704 0.605807 -1.45491 0
M  V30 3289 C 324.981 1.36522 -1.40075 0
M  V30 3290 C 325.361 2.10976 -0.0722744 0
M  V30 3291 O 324.709 2.08007 0.945808 0
M  V30 3292 C 324.919 2.31056 -2.61561 0
M  V30 3293 C 326.267 2.93608 -3.06724 0
M  V30 3294 O 327.291 2.41376 -2.61946 0
M  V30 3295 O 326.15 3.88421 -3.84437 0
M  V30 3296 H 323.244 0.612248 -0.555951 0
M  V30 3297 H 325.79 0.628747 -1.57623 0
M  V30 3298 H 324.562 1.75311 -3.49831 0
M  V30 3299 H 324.185 3.12081 -2.46356 0
M  V30 3300 N 325.182 1.32811 0.848464 0
M  V30 3301 C 326.428 1.23907 1.60546 0
M  V30 3302 C 326.761 -0.197161 1.93197 0
M  V30 3303 O 326.036 -1.13596 1.5788 0
M  V30 3304 C 326.319 2.10489 2.92175 0
M  V30 3305 C 326.172 3.62522 2.66266 0
M  V30 3306 C 327.491 1.97075 3.93509 0
M  V30 3307 H 324.61 0.451459 0.58254 0
M  V30 3308 H 327.252 1.62818 0.979296 0
M  V30 3309 H 325.402 1.77434 3.45614 0
M  V30 3310 H 327.074 4.05821 2.19334 0
M  V30 3311 H 325.317 3.84879 2.00126 0
M  V30 3312 H 325.988 4.18437 3.6002 0
M  V30 3313 H 328.464 2.26045 3.49346 0
M  V30 3314 H 327.34 2.59923 4.83457 0
M  V30 3315 H 327.601 0.940186 4.31987 0
M  V30 3316 N 326.66 -1.06551 1.16123 0
M  V30 3317 C 327.607 -2.13961 0.865414 0
M  V30 3318 C 328.577 -1.65066 -0.185055 0
M  V30 3319 O 329.762 -1.90732 -0.05083 0
M  V30 3320 C 326.902 -3.43113 0.369776 0
M  V30 3321 C 326.015 -4.05756 1.48276 0
M  V30 3322 C 325.15 -5.22773 0.942414 0
M  V30 3323 C 324.189 -5.77395 2.03179 0
M  V30 3324 N 323.326 -6.85731 1.50721 0
M  V30 3325 H 328.166 -2.38605 1.78527 0
M  V30 3326 H 325.703 -1.17072 0.890646 0
M  V30 3327 H 327.661 -4.17151 0.0640643 0
M  V30 3328 H 326.291 -3.18695 -0.513143 0
M  V30 3329 H 325.343 -3.29292 1.9045 0
M  V30 3330 H 326.655 -4.42351 2.30493 0
M  V30 3331 H 325.809 -6.03827 0.589729 0
M  V30 3332 H 324.548 -4.87618 0.0895191 0
M  V30 3333 H 323.553 -4.94981 2.3932 0
M  V30 3334 H 324.778 -6.14603 2.8886 0
M  V30 3335 H 322.724 -6.52499 0.676811 0
M  V30 3336 H 322.641 -7.21254 2.26557 0
M  V30 3337 H 323.909 -7.7047 1.18303 0
M  V30 3338 N 328.138 -0.959301 -1.25041 0
M  V30 3339 C 329.384 -0.617525 -1.9317 0
M  V30 3340 C 329.717 0.843981 -1.74902 0
M  V30 3341 O 328.992 1.60615 -1.09696 0
M  V30 3342 C 329.275 -0.982736 -3.46431 0
M  V30 3343 C 329.128 -2.50032 -3.73904 0
M  V30 3344 C 330.447 -0.511176 -4.37121 0
M  V30 3345 H 327.566 -0.22582 -0.701552 0
M  V30 3346 H 330.208 -1.19679 -1.4757 0
M  V30 3347 H 328.358 -0.489806 -3.854 0
M  V30 3348 H 330.03 -3.06737 -3.44544 0
M  V30 3349 H 328.273 -2.93598 -3.19348 0
M  V30 3350 H 328.944 -2.70635 -4.81103 0
M  V30 3351 H 331.42 -0.934075 -4.0548 0
M  V30 3352 H 330.296 -0.795361 -5.43107 0
M  V30 3353 H 330.557 0.588834 -4.38161 0
M  V30 3354 N 329.616 1.39756 -0.72842 0
M  V30 3355 C 331.027 1.83498 -0.344289 0
M  V30 3356 C 331.378 1.60868 1.12321 0
M  V30 3357 O 330.503 1.09634 1.86573 0
M  V30 3358 C 331.098 3.33114 -0.618112 0
M  V30 3359 C 329.657 3.753 -0.287549 0
M  V30 3360 C 328.804 2.62831 -0.884048 0
M  V30 3361 H 331.755 1.28842 -0.926578 0
M  V30 3362 H 331.776 3.80334 0.112349 0
M  V30 3363 H 331.288 3.49553 -1.68625 0
M  V30 3364 H 329.389 3.64451 0.775012 0
M  V30 3365 H 329.502 4.72945 -0.765512 0
M  V30 3366 H 327.866 2.52792 -0.311149 0
M  V30 3367 H 328.649 2.82078 -1.95671 0
M  V30 3368 N 331.094 0.475555 1.50254 0
M  V30 3369 C 332.057 -0.305016 2.27161 0
M  V30 3370 C 333.057 -0.916519 1.32123 0
M  V30 3371 O 334.247 -0.785003 1.5551 0
M  V30 3372 C 331.379 -1.43496 3.09227 0
M  V30 3373 H 332.572 0.369511 2.97615 0
M  V30 3374 H 330.125 0.229747 1.54602 0
M  V30 3375 H 330.86 -2.14441 2.43281 0
M  V30 3376 H 330.645 -1.00223 3.79075 0
M  V30 3377 H 332.135 -1.98548 3.67381 0
M  V30 3378 N 332.573 -1.56217 0.208337 0
M  V30 3379 C 333.483 -2.23316 -0.718836 0
M  V30 3380 C 334.499 -1.23648 -1.22422 0
M  V30 3381 O 335.675 -1.56423 -1.26861 0
M  V30 3382 C 332.74 -2.88968 -1.91568 0
M  V30 3383 C 331.801 -4.03943 -1.45357 0
M  V30 3384 C 331.034 -4.66455 -2.59337 0
M  V30 3385 O 331.257 -4.27919 -3.77149 0
M  V30 3386 O 330.191 -5.55686 -2.31293 0
M  V30 3387 H 334.017 -3.03182 -0.177315 0
M  V30 3388 H 331.602 -1.49384 -0.0215402 0
M  V30 3389 H 333.484 -3.30455 -2.61491 0
M  V30 3390 H 332.159 -2.12071 -2.44556 0
M  V30 3391 H 331.066 -3.67052 -0.722746 0
M  V30 3392 H 332.399 -4.82543 -0.970219 0
M  V30 3393 N 334.051 0.0651679 -1.57465 0
M  V30 3394 C 334.999 1.09542 -2.05191 0
M  V30 3395 C 335.993 1.39675 -0.958509 0
M  V30 3396 O 337.199 1.39003 -1.14359 0
M  V30 3397 H 333.574 0.370623 -0.654326 0
M  V30 3398 H 335.545 0.666802 -2.90854 0
M  V30 3399 C 334.294 2.39881 -2.51699 0
M  V30 3400 H 333.617 2.17547 -3.3543 0
M  V30 3401 H 335.057 3.104 -2.88839 0
M  V30 3402 C 333.516 3.0631 -1.40271 0
M  V30 3403 O 334.046 3.94664 -0.748523 0
M  V30 3404 N 332.252 2.67041 -1.14618 0
M  V30 3405 H 331.799 1.95281 -1.67997 0
M  V30 3406 H 331.757 3.1181 -0.402688 0
M  V30 3407 N 335.529 1.53961 0.336706 0
M  V30 3408 C 336.462 1.77255 1.43722 0
M  V30 3409 C 337.44 0.62193 1.50236 0
M  V30 3410 O 338.624 0.857874 1.67847 0
M  V30 3411 C 335.751 1.87733 2.81912 0
M  V30 3412 C 334.797 3.09933 2.92991 0
M  V30 3413 S 335.63 4.68836 2.58753 0
M  V30 3414 C 336.786 4.82202 3.99039 0
M  V30 3415 H 337.019 2.70322 1.23748 0
M  V30 3416 H 334.552 1.44917 0.532777 0
M  V30 3417 H 336.51 1.94455 3.61521 0
M  V30 3418 H 335.171 0.956666 2.99177 0
M  V30 3419 H 334.364 3.1396 3.94265 0
M  V30 3420 H 333.966 3.01472 2.21338 0
M  V30 3421 H 336.258 4.64032 4.9364 0
M  V30 3422 H 337.201 5.84298 4.00002 0
M  V30 3423 H 337.609 4.10604 3.87382 0
M  V30 3424 N 337.007 -0.598083 1.45811 0
M  V30 3425 C 337.937 -1.71873 1.58057 0
M  V30 3426 C 338.918 -1.64533 0.431615 0
M  V30 3427 O 340.103 -1.82787 0.65595 0
M  V30 3428 C 337.233 -3.10495 1.55597 0
M  V30 3429 C 336.187 -3.32654 2.69305 0
M  V30 3430 C 335.513 -4.71646 2.51902 0
M  V30 3431 C 336.813 -3.21981 4.11248 0
M  V30 3432 H 338.507 -1.61881 2.51863 0
M  V30 3433 H 336.053 -0.777372 1.21214 0
M  V30 3434 H 338.006 -3.88699 1.6276 0
M  V30 3435 H 336.73 -3.2135 0.583255 0
M  V30 3436 H 335.389 -2.56843 2.61586 0
M  V30 3437 H 335.037 -4.79246 1.52748 0
M  V30 3438 H 334.737 -4.87426 3.2816 0
M  V30 3439 H 336.261 -5.52038 2.60933 0
M  V30 3440 H 337.675 -3.90049 4.20161 0
M  V30 3441 H 336.072 -3.49289 4.87972 0
M  V30 3442 H 337.142 -2.1928 4.32486 0
M  V30 3443 N 338.485 -1.33259 -0.841409 0
M  V30 3444 C 339.733 -1.24326 -1.59334 0
M  V30 3445 C 340.054 0.191564 -1.94057 0
M  V30 3446 O 339.324 1.11967 -1.60749 0
M  V30 3447 H 337.904 -0.457174 -0.590763 0
M  V30 3448 H 340.566 -1.66947 -1.00571 0
M  V30 3449 H 339.662 -1.8352 -2.52442 0
M  V30 3450 N 339.963 1.05934 -1.16686 0
M  V30 3451 C 340.873 2.17014 -0.891183 0
M  V30 3452 C 341.889 1.73453 0.137907 0
M  V30 3453 O 343.065 2.01361 -0.039592 0
M  V30 3454 C 340.13 3.44384 -0.400099 0
M  V30 3455 C 339.191 4.02433 -1.49486 0
M  V30 3456 C 338.424 5.23723 -1.02711 0
M  V30 3457 O 338.647 5.7027 0.121716 0
M  V30 3458 O 337.581 5.7382 -1.81699 0
M  V30 3459 H 341.407 2.43113 -1.82015 0
M  V30 3460 H 338.992 1.15541 -0.947132 0
M  V30 3461 H 340.874 4.21189 -0.133392 0
M  V30 3462 H 339.549 3.19802 0.500817 0
M  V30 3463 H 338.456 3.27102 -1.81535 0
M  V30 3464 H 339.789 4.31317 -2.37121 0
M  V30 3465 N 341.441 0.965919 1.2453 0
M  V30 3466 C 342.351 0.502154 2.29163 0
M  V30 3467 C 343.367 -0.436017 1.68448 0
M  V30 3468 O 344.543 -0.309497 1.99008 0
M  V30 3469 C 341.608 -0.201956 3.46111 0
M  V30 3470 C 340.669 0.775821 4.22232 0
M  V30 3471 C 339.902 0.105217 5.33596 0
M  V30 3472 O 340.125 -1.10683 5.59558 0
M  V30 3473 O 339.059 0.796475 5.96607 0
M  V30 3474 H 342.885 1.37194 2.70946 0
M  V30 3475 H 340.47 0.732875 1.30189 0
M  V30 3476 H 342.352 -0.597564 4.17142 0
M  V30 3477 H 341.027 -1.04673 3.06309 0
M  V30 3478 H 339.934 1.22185 3.53584 0
M  V30 3479 H 341.267 1.58896 4.65846 0
M  V30 3480 N 342.919 -1.39368 0.735821 0
M  V30 3481 C 344.167 -2.00101 0.283562 0
M  V30 3482 C 344.488 -1.5868 -1.13338 0
M  V30 3483 O 343.758 -0.835423 -1.77193 0
M  V30 3484 H 342.338 -0.740024 0.101851 0
M  V30 3485 H 345 -1.70404 0.945962 0
M  V30 3486 H 344.096 -3.10323 0.332604 0
M  V30 3487 N 344.397 -0.483516 -1.5 0
M  V30 3488 C 345.344 0.304164 -2.28787 0
M  V30 3489 C 346.314 0.976114 -1.34392 0
M  V30 3490 O 347.499 0.986156 -1.63339 0
M  V30 3491 C 344.639 1.37298 -3.16612 0
M  V30 3492 C 343.752 0.714561 -4.26049 0
M  V30 3493 C 342.887 1.76232 -5.01114 0
M  V30 3494 C 341.926 1.08483 -6.0241 0
M  V30 3495 N 341.063 2.076 -6.70706 0
M  V30 3496 H 345.903 -0.373981 -2.95644 0
M  V30 3497 H 343.44 -0.196275 -1.45785 0
M  V30 3498 H 345.398 2.00445 -3.65893 0
M  V30 3499 H 344.028 2.02012 -2.51776 0
M  V30 3500 H 343.08 -0.0297798 -3.80388 0
M  V30 3501 H 344.392 0.180383 -4.98474 0
M  V30 3502 H 343.546 2.46929 -5.54176 0
M  V30 3503 H 342.285 2.33033 -4.28424 0
M  V30 3504 H 341.29 0.363545 -5.48597 0
M  V30 3505 H 342.515 0.523551 -6.77079 0
M  V30 3506 H 340.461 2.63394 -6.00799 0
M  V30 3507 H 340.378 1.59201 -7.39047 0
M  V30 3508 H 341.646 2.77639 -7.2838 0
M  V30 3509 N 345.875 1.56104 -0.216619 0
M  V30 3510 C 347.123 1.97781 0.415593 0
M  V30 3511 C 347.444 1.10536 1.60645 0
M  V30 3512 O 346.714 0.181303 1.95059 0
M  V30 3513 H 345.294 0.730415 0.156534 0
M  V30 3514 H 347.956 1.92445 -0.308366 0
M  V30 3515 H 347.052 3.03072 0.74525 0
M  V30 3516 N 347.353 -0.0568162 1.57498 0
M  V30 3517 C 348.6 -0.753104 1.87975 0
M  V30 3518 C 348.928 -1.76815 0.81035 0
M  V30 3519 O 348.183 -1.94756 -0.19199 0
M  V30 3520 C 348.482 -1.48359 3.25153 0
M  V30 3521 C 348.148 -0.60713 4.46794 0
M  V30 3522 C 346.81 -0.365642 4.79809 0
M  V30 3523 C 349.162 -0.000305978 5.212 0
M  V30 3524 C 346.49 0.491905 5.84634 0
M  V30 3525 C 348.842 0.844781 6.26934 0
M  V30 3526 C 347.506 1.096 6.58441 0
M  V30 3527 H 346.776 -0.27558 0.687849 0
M  V30 3528 H 349.423 -0.0135173 1.91495 0
M  V30 3529 H 347.728 -2.29577 3.17492 0
M  V30 3530 H 349.425 -2.02739 3.45974 0
M  V30 3531 H 346.015 -0.805487 4.20963 0
M  V30 3532 H 350.199 -0.173961 4.95995 0
M  V30 3533 H 345.455 0.695131 6.07436 0
M  V30 3534 H 349.629 1.32165 6.83744 0
M  V30 3535 H 347.256 1.76224 7.39492 0
M  V30 3536 N 348.832 -1.54138 -0.328536 0
M  V30 3537 C 349.779 -1.83176 -1.40411 0
M  V30 3538 C 350.749 -0.678494 -1.5161 0
M  V30 3539 O 351.934 -0.92443 -1.6691 0
M  V30 3540 C 349.074 -2.06035 -2.76846 0
M  V30 3541 C 348.187 -3.33727 -2.74318 0
M  V30 3542 C 347.322 -3.46574 -4.02567 0
M  V30 3543 C 346.361 -4.68159 -3.94327 0
M  V30 3544 N 345.498 -4.77959 -5.14296 0
M  V30 3545 H 350.338 -2.74938 -1.14948 0
M  V30 3546 H 347.875 -1.36166 -0.556538 0
M  V30 3547 H 349.833 -2.1728 -3.56153 0
M  V30 3548 H 348.463 -1.1757 -3.00628 0
M  V30 3549 H 347.515 -3.31246 -1.8703 0
M  V30 3550 H 348.827 -4.23139 -2.64111 0
M  V30 3551 H 347.981 -3.57333 -4.90304 0
M  V30 3552 H 346.72 -2.55245 -4.15574 0
M  V30 3553 H 345.725 -4.57461 -3.04974 0
M  V30 3554 H 346.95 -5.60868 -3.82889 0
M  V30 3555 H 344.896 -3.89544 -5.27818 0
M  V30 3556 H 344.813 -5.6133 -5.06404 0
M  V30 3557 H 346.081 -4.93044 -6.03761 0
M  V30 3558 N 350.31 0.590341 -1.46126 0
M  V30 3559 C 351.559 1.34499 -1.50309 0
M  V30 3560 C 351.872 1.94977 -0.156021 0
M  V30 3561 O 353.078 2.71395 -0.0756037 0
M  V30 3562 C 351.534 2.43723 -2.64815 0
M  V30 3563 C 351.142 1.89582 -4.0591 0
M  V30 3564 C 352.886 3.20579 -2.78262 0
M  V30 3565 C 350.793 2.9639 -5.11769 0
M  V30 3566 H 349.723 0.505593 -0.559368 0
M  V30 3567 H 352.374 0.630848 -1.72315 0
M  V30 3568 H 350.756 3.17902 -2.36124 0
M  V30 3569 H 351.93 1.21997 -4.44357 0
M  V30 3570 H 350.245 1.25418 -3.97063 0
M  V30 3571 H 352.842 4.00276 -3.54519 0
M  V30 3572 H 353.185 3.72684 -1.85505 0
M  V30 3573 H 353.718 2.53505 -3.06562 0
M  V30 3574 H 350.457 2.49181 -6.06291 0
M  V30 3575 H 349.977 3.62487 -4.77873 0
M  V30 3576 H 351.656 3.60474 -5.37278 0
M  V30 3577 N 351.788 1.33704 0.83433 0
M  V30 3578 C 352.751 1.24244 1.92603 0
M  V30 3579 C 353.751 0.160383 1.59998 0
M  V30 3580 O 354.941 0.412228 1.69252 0
M  V30 3581 C 352.073 0.91555 3.28376 0
M  V30 3582 H 353.266 2.21287 2.02416 0
M  V30 3583 H 350.819 1.17827 1.02696 0
M  V30 3584 H 351.554 -0.0521886 3.24258 0
M  V30 3585 H 351.339 1.69811 3.53422 0
M  V30 3586 H 352.829 0.874231 4.08347 0
M  V30 3587 N 353.266 -1.05314 1.17247 0
M  V30 3588 C 354.199 -2.12512 0.831507 0
M  V30 3589 C 355.177 -1.61351 -0.201168 0
M  V30 3590 O 356.361 -1.88317 -0.0829831 0
M  V30 3591 C 353.488 -3.37848 0.24015 0
M  V30 3592 C 352.534 -4.07832 1.24801 0
M  V30 3593 S 353.367 -4.56537 2.79882 0
M  V30 3594 C 354.523 -5.85122 2.22223 0
M  V30 3595 H 354.756 -2.41106 1.7394 0
M  V30 3596 H 352.289 -1.17896 0.996988 0
M  V30 3597 H 354.247 -4.10391 -0.0945588 0
M  V30 3598 H 352.908 -3.07392 -0.645668 0
M  V30 3599 H 352.101 -4.97883 0.78287 0
M  V30 3600 H 351.703 -3.41348 1.52831 0
M  V30 3601 H 353.995 -6.58408 1.59703 0
M  V30 3602 H 354.938 -6.36381 3.10523 0
M  V30 3603 H 355.346 -5.39626 1.65722 0
M  V30 3604 N 354.744 -0.972509 -1.24016 0
M  V30 3605 C 355.677 -0.45117 -2.23696 0
M  V30 3606 C 356.655 0.477378 -1.55434 0
M  V30 3607 O 357.839 0.407647 -1.84039 0
M  V30 3608 C 354.966 0.34818 -3.36906 0
M  V30 3609 C 354.012 -0.523355 -4.23277 0
M  V30 3610 S 354.845 -1.96647 -4.98087 0
M  V30 3611 C 356.001 -1.17604 -6.14752 0
M  V30 3612 H 356.234 -1.29588 -2.67571 0
M  V30 3613 H 353.767 -0.777903 -1.33372 0
M  V30 3614 H 355.725 0.803387 -4.02562 0
M  V30 3615 H 354.386 1.16792 -2.91579 0
M  V30 3616 H 353.579 0.0906181 -5.03919 0
M  V30 3617 H 353.181 -0.914485 -3.62647 0
M  V30 3618 H 355.473 -0.433434 -6.76112 0
M  V30 3619 H 356.416 -1.95701 -6.8052 0
M  V30 3620 H 356.824 -0.698295 -5.60164 0
M  V30 3621 N 356.222 1.38976 -0.743202 0
M  V30 3622 C 357.45 2.04636 -0.30525 0
M  V30 3623 C 357.865 1.56044 1.06281 0
M  V30 3624 O 357.222 0.728921 1.67311 0
M  V30 3625 C 357.273 3.60193 -0.307177 0
M  V30 3626 O 356.994 4.06998 -1.62124 0
M  V30 3627 C 358.495 4.4306 0.145928 0
M  V30 3628 H 355.715 0.65788 -0.132041 0
M  V30 3629 H 358.259 1.77866 -1.00915 0
M  V30 3630 H 356.414 3.85835 0.347898 0
M  V30 3631 H 356.828 5.01371 -1.54036 0
M  V30 3632 H 358.302 5.51921 0.0934183 0
M  V30 3633 H 358.779 4.22706 1.19231 0
M  V30 3634 H 359.385 4.22584 -0.479886 0
M  V30 3635 N 357.7 0.491464 1.49741 0
M  V30 3636 C 358.63 -0.28154 2.31796 0
M  V30 3637 C 359.611 -0.971473 1.3963 0
M  V30 3638 O 360.796 -0.964719 1.68543 0
M  V30 3639 C 357.926 -1.35203 3.19902 0
M  V30 3640 C 356.88 -0.782529 4.20786 0
M  V30 3641 C 356.206 -1.95283 4.97764 0
M  V30 3642 C 357.506 0.21999 5.21837 0
M  V30 3643 H 359.2 0.403355 2.96671 0
M  V30 3644 H 356.746 0.195425 1.42668 0
M  V30 3645 H 358.699 -1.90045 3.76113 0
M  V30 3646 H 357.423 -2.06598 2.52953 0
M  V30 3647 H 356.082 -0.255928 3.65706 0
M  V30 3648 H 355.73 -2.65423 4.2727 0
M  V30 3649 H 355.43 -1.57789 5.66018 0
M  V30 3650 H 356.954 -2.50577 5.56816 0
M  V30 3651 H 358.368 -0.23996 5.72798 0
M  V30 3652 H 356.765 0.51026 5.97927 0
M  V30 3653 H 357.835 1.13911 4.7133 0
M  V30 3654 N 359.178 -1.55987 0.224894 0
M  V30 3655 C 360.455 -1.90232 -0.455083 0
M  V30 3656 C 360.835 -1.14269 -1.77499 0
M  V30 3657 O 360.183 -0.253079 -2.27094 0
M  V30 3658 C 360.393 -3.42993 -0.644758 0
M  V30 3659 C 361.741 -4.13821 -0.950669 0
M  V30 3660 O 362.765 -3.4861 -0.731423 0
M  V30 3661 O 361.624 -5.29128 -1.36695 0
M  V30 3662 H 358.718 -0.79108 -0.241084 0
M  V30 3663 H 361.264 -1.67581 0.267327 0
M  V30 3664 H 360.036 -3.90252 0.28613 0
M  V30 3665 H 359.659 -3.71434 -1.41853 0
M  V30 3666 N 360.656 0.0484629 -1.57525 0
M  V30 3667 C 361.904 0.741657 -1.88 0
M  V30 3668 C 362.225 1.76918 -0.820054 0
M  V30 3669 O 361.495 1.95335 0.148661 0
M  V30 3670 H 360.075 0.276908 -0.69378 0
M  V30 3671 H 362.737 0.019013 -1.94891 0
M  V30 3672 H 361.833 1.24336 -2.86264 0
M  V30 3673 N 362.134 1.5431 0.320358 0
M  V30 3674 C 363.382 1.72327 1.05583 0
M  V30 3675 C 363.703 0.50149 1.88441 0
M  V30 3676 O 362.973 -0.48448 1.89815 0
M  V30 3677 H 361.553 0.635387 0.3928 0
M  V30 3678 H 364.215 1.91621 0.356019 0
M  V30 3679 H 363.311 2.60426 1.72003 0
M  V30 3680 N 363.613 -0.582584 1.46437 0
M  V30 3681 C 365.029 -0.905962 1.31394 0
M  V30 3682 C 365.229 -1.99468 0.285476 0
M  V30 3683 O 364.285 -2.50566 -0.311914 0
M  V30 3684 C 365.598 -1.3232 2.70022 0
M  V30 3685 C 367.146 -1.43604 2.78113 0
M  V30 3686 C 367.621 -1.88694 4.17323 0
M  V30 3687 N 369.112 -1.95887 4.19741 0
M  V30 3688 C 369.847 -2.32051 5.24347 0
M  V30 3689 N 369.343 -2.67006 6.39281 0
M  V30 3690 N 371.136 -2.32606 5.11713 0
M  V30 3691 H 363.287 0.1366 2.1196 0
M  V30 3692 H 365.55 -0.00155736 0.947999 0
M  V30 3693 H 365.256 -0.597242 3.46592 0
M  V30 3694 H 365.13 -2.28469 3.00136 0
M  V30 3695 H 367.517 -2.15286 2.01832 0
M  V30 3696 H 367.598 -0.457059 2.51684 0
M  V30 3697 H 367.242 -1.1759 4.941 0
M  V30 3698 H 367.172 -2.8755 4.4116 0
M  V30 3699 H 369.663 -1.71362 3.36814 0
M  V30 3700 H 369.976 -2.93554 7.14875 0
M  V30 3701 H 368.321 -2.64644 6.42642 0
M  V30 3702 H 371.512 -2.04721 4.2096 0
M  V30 3703 H 371.685 -2.60462 5.93349 0
M  V30 3704 N 365.091 -1.34144 -0.827227 0
M  V30 3705 C 366.34 -1.25602 -1.5782 0
M  V30 3706 C 366.653 0.173445 -1.94829 0
M  V30 3707 O 367.859 0.380984 -2.68814 0
M  V30 3708 C 366.315 -2.20151 -2.84713 0
M  V30 3709 C 365.923 -3.68331 -2.55021 0
M  V30 3710 C 367.667 -2.20508 -3.62735 0
M  V30 3711 C 365.574 -4.54762 -3.78082 0
M  V30 3712 H 364.504 -0.466573 -0.592306 0
M  V30 3713 H 367.155 -1.59283 -0.911116 0
M  V30 3714 H 365.537 -1.79417 -3.53023 0
M  V30 3715 H 366.711 -4.17577 -1.94849 0
M  V30 3716 H 365.026 -3.7038 -1.90283 0
M  V30 3717 H 367.623 -2.82306 -4.54101 0
M  V30 3718 H 367.966 -1.20322 -3.98533 0
M  V30 3719 H 368.499 -2.59664 -3.01362 0
M  V30 3720 H 365.238 -5.55867 -3.47407 0
M  V30 3721 H 364.758 -4.10254 -4.37552 0
M  V30 3722 H 366.437 -4.69153 -4.45538 0
M  V30 3723 N 366.569 1.04691 -1.17803 0
M  V30 3724 C 367.817 1.7743 -0.967617 0
M  V30 3725 C 368.138 1.88359 0.504574 0
M  V30 3726 O 367.408 1.40402 1.36617 0
M  V30 3727 H 365.988 0.657242 -0.355024 0
M  V30 3728 H 368.65 1.2638 -1.48371 0
M  V30 3729 H 367.746 2.78924 -1.40027 0
M  V30 3730 N 368.047 0.979072 1.23499 0
M  V30 3731 C 369.293 0.648178 1.92163 0
M  V30 3732 C 369.626 -0.816049 1.76222 0
M  V30 3733 O 368.901 -1.58849 1.12237 0
M  V30 3734 C 369.184 1.03773 3.44824 0
M  V30 3735 C 369.037 2.55948 3.69879 0
M  V30 3736 C 370.356 0.580653 4.36253 0
M  V30 3737 H 367.475 0.236952 0.69787 0
M  V30 3738 H 370.117 1.22012 1.45647 0
M  V30 3739 H 368.267 0.551058 3.84572 0
M  V30 3740 H 369.939 3.12179 3.3962 0
M  V30 3741 H 368.182 2.98641 3.14636 0
M  V30 3742 H 368.853 2.78255 4.76737 0
M  V30 3743 H 371.329 0.998465 4.03943 0
M  V30 3744 H 370.205 0.881663 5.41773 0
M  V30 3745 H 370.466 -0.519052 4.39042 0
M  V30 3746 N 369.525 -1.3858 0.750561 0
M  V30 3747 C 370.488 -2.28836 0.129152 0
M  V30 3748 C 371.488 -1.47045 -0.650714 0
M  V30 3749 O 372.678 -1.6753 -0.477428 0
M  V30 3750 C 369.81 -3.30751 -0.825622 0
M  V30 3751 H 371.003 -2.85294 0.924516 0
M  V30 3752 H 368.556 -1.47489 0.517376 0
M  V30 3753 H 369.291 -2.79378 -1.64677 0
M  V30 3754 H 369.076 -3.91177 -0.268852 0
M  V30 3755 H 370.566 -3.98249 -1.2565 0
M  V30 3756 N 371.003 -0.499398 -1.49478 0
M  V30 3757 C 371.966 0.268838 -2.27618 0
M  V30 3758 C 372.966 0.895383 -1.33565 0
M  V30 3759 O 374.156 0.760164 -1.56739 0
M  V30 3760 C 371.288 1.38559 -3.11471 0
M  V30 3761 H 372.481 -0.416812 -2.96989 0
M  V30 3762 H 370.034 -0.254313 -1.54217 0
M  V30 3763 H 370.769 2.10544 -2.46661 0
M  V30 3764 H 370.554 0.941797 -3.80621 0
M  V30 3765 H 372.044 1.92678 -3.70493 0
M  V30 3766 N 372.481 1.55866 -0.233164 0
M  V30 3767 C 373.413 2.18099 0.704668 0
M  V30 3768 C 374.426 1.15334 1.14899 0
M  V30 3769 O 375.615 1.42262 1.07814 0
M  V30 3770 C 372.715 2.7592 1.96777 0
M  V30 3771 C 371.888 4.03969 1.67713 0
M  V30 3772 C 370.947 4.46242 2.78845 0
M  V30 3773 O 369.973 5.12903 2.46818 0
M  V30 3774 N 371.175 4.12886 4.08051 0
M  V30 3775 H 373.94 2.99205 0.172258 0
M  V30 3776 H 371.501 1.61815 -0.0525945 0
M  V30 3777 H 373.493 3.01165 2.70337 0
M  V30 3778 H 372.063 1.99051 2.41034 0
M  V30 3779 H 371.283 3.86459 0.777391 0
M  V30 3780 H 372.571 4.8748 1.4574 0
M  V30 3781 H 371.969 3.59342 4.3691 0
M  V30 3782 H 370.526 4.42997 4.78118 0
M  V30 3783 N 373.959 -0.0401083 1.57549 0
M  V30 3784 C 374.922 -1.02871 2.04817 0
M  V30 3785 C 375.922 -1.29708 0.950388 0
M  V30 3786 O 377.112 -1.24897 1.21435 0
M  V30 3787 C 374.244 -2.36443 2.45576 0
M  V30 3788 H 375.437 -0.620631 2.93408 0
M  V30 3789 H 372.99 -0.286667 1.53649 0
M  V30 3790 H 373.725 -2.82021 1.60108 0
M  V30 3791 H 373.51 -2.18296 3.25713 0
M  V30 3792 H 375 -3.07441 2.82612 0
M  V30 3793 N 375.437 -1.54477 -0.31217 0
M  V30 3794 C 376.367 -1.87652 -1.38957 0
M  V30 3795 C 377.348 -0.734358 -1.53431 0
M  V30 3796 O 378.533 -0.98911 -1.67123 0
M  V30 3797 C 375.663 -2.11396 -2.75552 0
M  V30 3798 C 374.617 -3.27243 -2.75855 0
M  V30 3799 C 373.943 -3.36382 -4.15633 0
M  V30 3800 C 375.243 -4.64622 -2.38587 0
M  V30 3801 H 376.937 -2.77887 -1.11442 0
M  V30 3802 H 374.483 -1.33707 -0.534655 0
M  V30 3803 H 376.436 -2.33189 -3.51 0
M  V30 3804 H 375.16 -1.17921 -3.04569 0
M  V30 3805 H 373.819 -3.05356 -2.02863 0
M  V30 3806 H 373.467 -2.40445 -4.41809 0
M  V30 3807 H 373.167 -4.14249 -4.1674 0
M  V30 3808 H 374.691 -3.60422 -4.92877 0
M  V30 3809 H 376.105 -4.86219 -3.03749 0
M  V30 3810 H 374.502 -5.45121 -2.50925 0
M  V30 3811 H 375.572 -4.66097 -1.33723 0
M  V30 3812 N 376.915 0.57481 -1.46744 0
M  V30 3813 C 378.163 1.33009 -1.52161 0
M  V30 3814 C 378.484 1.94185 -0.178092 0
M  V30 3815 O 377.754 1.7899 0.796196 0
M  V30 3816 H 376.334 0.493873 -0.560445 0
M  V30 3817 H 378.996 0.672589 -1.82927 0
M  V30 3818 H 378.092 2.13273 -2.27862 0
M  V30 3819 N 378.394 1.34581 0.820102 0
M  V30 3820 C 379.643 1.26437 1.57151 0
M  V30 3821 C 379.956 -0.163111 1.94919 0
M  V30 3822 O 381.162 -0.366722 2.69012 0
M  V30 3823 C 379.618 2.21658 2.83541 0
M  V30 3824 C 379.226 3.69679 2.53065 0
M  V30 3825 C 380.97 2.22428 3.61561 0
M  V30 3826 C 378.877 4.56761 3.75664 0
M  V30 3827 H 377.807 0.469707 0.589823 0
M  V30 3828 H 380.458 1.59763 0.902656 0
M  V30 3829 H 378.84 1.81287 3.52067 0
M  V30 3830 H 380.014 4.18605 1.92631 0
M  V30 3831 H 378.329 3.71384 1.88316 0
M  V30 3832 H 380.926 2.8471 4.52597 0
M  V30 3833 H 381.269 1.22434 3.97889 0
M  V30 3834 H 381.802 2.61259 2.99981 0
M  V30 3835 H 378.541 5.57702 3.44454 0
M  V30 3836 H 378.061 4.12568 4.35371 0
M  V30 3837 H 379.74 4.71509 4.43044 0
M  V30 3838 N 379.872 -1.04064 1.18357 0
M  V30 3839 C 380.835 -2.10243 0.912707 0
M  V30 3840 C 381.835 -1.60477 -0.101928 0
M  V30 3841 O 383.025 -1.73703 0.131517 0
M  V30 3842 C 380.157 -3.38893 0.369387 0
M  V30 3843 H 381.35 -2.35706 1.85426 0
M  V30 3844 H 378.903 -1.20489 0.995594 0
M  V30 3845 H 379.638 -3.19094 -0.578776 0
M  V30 3846 H 379.423 -3.76331 1.1008 0
M  V30 3847 H 380.913 -4.17128 0.198575 0
M  V30 3848 N 381.35 -0.985608 -1.22978 0
M  V30 3849 C 382.26 -0.538548 -2.28335 0
M  V30 3850 C 383.276 0.409163 -1.69121 0
M  V30 3851 O 384.452 0.277797 -1.99475 0
M  V30 3852 C 381.517 0.146867 -3.46389 0
M  V30 3853 C 380.578 -0.842896 -4.20944 0
M  V30 3854 C 379.811 -0.190095 -5.33361 0
M  V30 3855 O 380.034 1.01767 -5.61248 0
M  V30 3856 O 378.968 -0.891289 -5.95264 0
M  V30 3857 H 382.794 -1.41487 -2.68729 0
M  V30 3858 H 380.379 -0.753495 -1.29007 0
M  V30 3859 H 382.261 0.531125 -4.1804 0
M  V30 3860 H 380.936 0.997871 -3.07935 0
M  V30 3861 H 379.843 -1.27795 -3.51595 0
M  V30 3862 H 381.176 -1.66287 -4.6326 0
M  V30 3863 N 382.828 1.3818 -0.7579 0
M  V30 3864 C 383.791 2.28764 -0.141286 0
M  V30 3865 C 384.791 1.47388 0.642907 0
M  V30 3866 O 385.981 1.67781 0.468536 0
M  V30 3867 C 383.113 3.31184 0.808069 0
M  V30 3868 H 384.306 2.848 -0.939633 0
M  V30 3869 H 381.859 1.47212 -0.525191 0
M  V30 3870 H 382.594 2.80247 1.63193 0
M  V30 3871 H 382.379 3.91314 0.248104 0
M  V30 3872 H 383.869 3.98909 1.23536 0
M  V30 3873 N 384.306 0.507319 1.49211 0
M  V30 3874 C 385.269 -0.256763 2.27757 0
M  V30 3875 C 386.269 -0.888287 1.34038 0
M  V30 3876 O 387.459 -0.751841 1.5714 0
M  V30 3877 C 384.591 -1.36905 3.12202 0
M  V30 3878 H 385.784 0.432557 2.96764 0
M  V30 3879 H 383.337 0.262488 1.5408 0
M  V30 3880 H 384.072 -2.09233 2.47775 0
M  V30 3881 H 383.857 -0.921599 3.81115 0
M  V30 3882 H 385.347 -1.9071 3.7151 0
M  V30 3883 N 385.784 -1.5574 0.241426 0
M  V30 3884 C 386.714 -2.24133 -0.654722 0
M  V30 3885 C 387.695 -1.21974 -1.1856 0
M  V30 3886 O 388.88 -1.50612 -1.22595 0
M  V30 3887 C 386.01 -2.93659 -1.85423 0
M  V30 3888 C 384.964 -4.0246 -1.45636 0
M  V30 3889 C 384.29 -4.59383 -2.73626 0
M  V30 3890 C 385.59 -5.18468 -0.631506 0
M  V30 3891 H 387.284 -2.99281 -0.0844353 0
M  V30 3892 H 384.83 -1.43947 -0.0391707 0
M  V30 3893 H 386.783 -3.40203 -2.48676 0
M  V30 3894 H 385.507 -2.15991 -2.44981 0
M  V30 3895 H 384.166 -3.56676 -0.847202 0
M  V30 3896 H 383.814 -3.78422 -3.3137 0
M  V30 3897 H 383.514 -5.32826 -2.4773 0
M  V30 3898 H 385.038 -5.08658 -3.37786 0
M  V30 3899 H 386.452 -5.61272 -1.1682 0
M  V30 3900 H 384.849 -5.98266 -0.468831 0
M  V30 3901 H 385.919 -4.8358 0.357506 0
M  V30 3902 N 387.262 0.0317525 -1.57568 0
M  V30 3903 C 388.225 1.01783 -2.0536 0
M  V30 3904 C 389.225 1.29203 -0.957253 0
M  V30 3905 O 390.415 1.24251 -1.22095 0
M  V30 3906 C 387.547 2.35137 -2.46827 0
M  V30 3907 H 388.74 0.605062 -2.93733 0
M  V30 3908 H 386.293 0.278514 -1.53799 0
M  V30 3909 H 387.028 2.81168 -1.61602 0
M  V30 3910 H 386.813 2.16566 -3.26866 0
M  V30 3911 H 388.303 3.05938 -2.84239 0
M  V30 3912 N 388.74 1.54641 0.303973 0
M  V30 3913 C 390.017 1.64455 1.05896 0
M  V30 3914 C 390.397 0.490923 2.05312 0
M  V30 3915 O 389.745 -0.512685 2.22674 0
M  V30 3916 C 389.955 3.02331 1.74347 0
M  V30 3917 C 391.303 3.59045 2.26653 0
M  V30 3918 O 392.327 3.04764 1.84384 0
M  V30 3919 O 391.186 4.54081 3.04093 0
M  V30 3920 H 388.28 0.666729 0.489287 0
M  V30 3921 H 390.826 1.66986 0.302298 0
M  V30 3922 H 389.598 3.77734 1.02142 0
M  V30 3923 H 389.221 3.03565 2.56777 0
M  V30 3924 N 390.218 -0.567019 1.47046 0
M  V30 3925 C 391.181 -1.65696 1.58359 0
M  V30 3926 C 392.181 -1.54097 0.459441 0
M  V30 3927 O 393.371 -1.58432 0.724225 0
M  V30 3928 C 390.503 -3.05197 1.51879 0
M  V30 3929 H 391.696 -1.57019 2.5551 0
M  V30 3930 H 389.249 -0.786148 1.3509 0
M  V30 3931 H 389.984 -3.19417 0.560673 0
M  V30 3932 H 389.769 -3.15025 2.33455 0
M  V30 3933 H 391.259 -3.84511 1.62913 0
M  V30 3934 N 391.696 -1.35014 -0.812953 0
M  V30 3935 C 392.942 -1.2812 -1.57204 0
M  V30 3936 C 393.275 0.145869 -1.93651 0
M  V30 3937 O 392.55 1.0937 -1.60836 0
M  V30 3938 C 392.833 -2.18162 -2.86492 0
M  V30 3939 C 392.686 -3.69454 -2.56561 0
M  V30 3940 C 394.005 -2.07439 -3.88145 0
M  V30 3941 H 391.124 -0.466746 -0.570366 0
M  V30 3942 H 393.766 -1.65357 -0.935783 0
M  V30 3943 H 391.916 -1.86535 -3.40789 0
M  V30 3944 H 393.588 -4.11493 -2.08497 0
M  V30 3945 H 391.831 -3.9005 -1.89851 0
M  V30 3946 H 392.502 -4.27835 -3.48799 0
M  V30 3947 H 394.978 -2.35228 -3.4323 0
M  V30 3948 H 393.854 -2.7265 -4.76396 0
M  V30 3949 H 394.115 -1.05439 -4.29343 0
M  V30 3950 N 393.175 1.03435 -1.18907 0
M  V30 3951 C 394.085 2.15075 -0.937015 0
M  V30 3952 C 395.101 1.73706 0.101085 0
M  V30 3953 O 396.277 2.01232 -0.0822948 0
M  V30 3954 C 393.342 3.43458 -0.473057 0
M  V30 3955 C 392.403 3.99172 -1.57989 0
M  V30 3956 C 391.636 5.21427 -1.13797 0
M  V30 3957 O 391.859 5.704 0.000725941 0
M  V30 3958 O 390.793 5.69837 -1.9383 0
M  V30 3959 H 394.619 2.39198 -1.87131 0
M  V30 3960 H 392.204 1.13506 -0.971427 0
M  V30 3961 H 394.086 4.20811 -0.222702 0
M  V30 3962 H 392.761 3.20793 0.432869 0
M  V30 3963 H 391.668 3.23178 -1.88433 0
M  V30 3964 H 393.001 4.2619 -2.46217 0
M  V30 3965 N 394.653 0.992116 1.22453 0
M  V30 3966 C 395.883 0.684949 1.94915 0
M  V30 3967 C 396.291 -0.754292 1.73514 0
M  V30 3968 O 395.634 -1.52056 1.03076 0
M  V30 3969 C 395.696 0.910054 3.47791 0
M  V30 3970 C 395.36 2.33363 3.92926 0
M  V30 3971 C 396.357 3.31308 4.00663 0
M  V30 3972 C 394.042 2.66785 4.25595 0
M  V30 3973 C 396.036 4.6075 4.40441 0
M  V30 3974 C 393.723 3.96446 4.65053 0
M  V30 3975 C 394.721 4.9324 4.72444 0
M  V30 3976 O 394.409 6.20584 5.1101 0
M  V30 3977 H 394.141 0.25258 0.62704 0
M  V30 3978 H 396.695 1.32939 1.56577 0
M  V30 3979 H 394.925 0.208443 3.86138 0
M  V30 3980 H 396.614 0.598257 4.01467 0
M  V30 3981 H 397.38 3.0682 3.75615 0
M  V30 3982 H 393.259 1.92148 4.19047 0
M  V30 3983 H 396.803 5.363 4.46126 0
M  V30 3984 H 392.7 4.20724 4.89552 0
M  V30 3985 H 393.468 6.24509 5.29085 0
M  V30 3986 N 396.131 -1.37776 0.765217 0
M  V30 3987 C 397.356 -2.04651 0.336537 0
M  V30 3988 C 397.781 -1.57337 -1.03086 0
M  V30 3989 O 397.139 -0.730621 -1.65927 0
M  V30 3990 C 397.187 -3.58577 0.381468 0
M  V30 3991 O 396.291 -4.07706 -0.62042 0
M  V30 3992 H 395.632 -0.64756 0.146838 0
M  V30 3993 H 398.162 -1.76221 1.03959 0
M  V30 3994 H 398.172 -4.07314 0.236448 0
M  V30 3995 H 396.847 -3.9237 1.37907 0
M  V30 3996 H 395.424 -3.70306 -0.439056 0
M  V30 3997 N 397.609 -0.515225 -1.4894 0
M  V30 3998 C 398.556 0.255567 -2.29381 0
M  V30 3999 C 399.526 0.947387 -1.36432 0
M  V30 4000 O 400.711 0.951288 -1.65394 0
M  V30 4001 C 397.851 1.30551 -3.19453 0
M  V30 4002 C 396.964 0.624029 -4.27469 0
M  V30 4003 C 396.099 1.65563 -5.0474 0
M  V30 4004 C 395.138 0.956802 -6.04576 0
M  V30 4005 N 394.275 1.93326 -6.74959 0
M  V30 4006 H 399.115 -0.436607 -2.94784 0
M  V30 4007 H 396.652 -0.227154 -1.45336 0
M  V30 4008 H 398.61 1.92639 -3.70062 0
M  V30 4009 H 397.24 1.96626 -2.56004 0
M  V30 4010 H 396.292 -0.110459 -3.8024 0
M  V30 4011 H 397.604 0.0746092 -4.98744 0
M  V30 4012 H 396.758 2.35119 -5.59289 0
M  V30 4013 H 395.497 2.23893 -4.3327 0
M  V30 4014 H 394.502 0.247097 -5.49244 0
M  V30 4015 H 395.727 0.379814 -6.78037 0
M  V30 4016 H 393.673 2.50591 -6.06251 0
M  V30 4017 H 393.59 1.43489 -7.42258 0
M  V30 4018 H 394.858 2.62126 -7.34105 0
M  V30 4019 N 399.087 1.5561 -0.249682 0
M  V30 4020 C 400.019 2.18834 0.681496 0
M  V30 4021 C 401.032 1.16546 1.1367 0
M  V30 4022 O 402.221 1.43397 1.06299 0
M  V30 4023 C 399.321 2.77992 1.9384 0
M  V30 4024 C 398.494 4.05725 1.63419 0
M  V30 4025 C 397.553 4.49174 2.74096 0
M  V30 4026 O 396.579 5.15492 2.41364 0
M  V30 4027 N 397.781 4.17191 4.03649 0
M  V30 4028 H 400.546 2.9937 0.140514 0
M  V30 4029 H 398.107 1.6175 -0.0697541 0
M  V30 4030 H 400.099 3.04015 2.67127 0
M  V30 4031 H 398.669 2.01596 2.38909 0
M  V30 4032 H 397.889 3.87261 0.736358 0
M  V30 4033 H 399.177 4.88999 1.40562 0
M  V30 4034 H 398.575 3.63955 4.33074 0
M  V30 4035 H 397.132 4.48043 4.73393 0
M  V30 4036 N 400.565 -0.0233959 1.57583 0
M  V30 4037 C 401.981 -0.379134 1.55031 0
M  V30 4038 C 402.181 -1.76255 0.976548 0
M  V30 4039 O 401.237 -2.45266 0.600078 0
M  V30 4040 C 402.55 -0.275792 2.99433 0
M  V30 4041 C 404.098 -0.352458 3.11009 0
M  V30 4042 C 404.573 -0.278501 4.57152 0
M  V30 4043 N 406.064 -0.337123 4.61972 0
M  V30 4044 C 406.799 -0.302876 5.726 0
M  V30 4045 N 406.295 -0.220589 6.92449 0
M  V30 4046 N 408.088 -0.353023 5.6099 0
M  V30 4047 H 400.239 0.881869 1.93227 0
M  V30 4048 H 402.502 0.335867 0.886509 0
M  V30 4049 H 402.208 0.675108 3.4516 0
M  V30 4050 H 402.082 -1.06721 3.61788 0
M  V30 4051 H 404.469 -1.29379 2.65226 0
M  V30 4052 H 404.55 0.468409 2.51475 0
M  V30 4053 H 404.194 0.659189 5.03604 0
M  V30 4054 H 404.124 -1.11755 5.14605 0
M  V30 4055 H 406.615 -0.403002 3.75745 0
M  V30 4056 H 406.928 -0.199713 7.72542 0
M  V30 4057 H 405.273 -0.186555 6.9475 0
M  V30 4058 H 408.464 -0.415339 4.66254 0
M  V30 4059 H 408.637 -0.322866 6.47195 0
M  V30 4060 N 402.043 -1.548 -0.295768 0
M  V30 4061 C 403.289 -1.74588 -1.03184 0
M  V30 4062 C 403.622 -0.532962 -1.86744 0
M  V30 4063 O 402.897 0.469872 -1.88739 0
M  V30 4064 C 403.18 -3.03791 -1.93347 0
M  V30 4065 C 403.033 -4.35392 -1.12933 0
M  V30 4066 C 404.352 -3.28892 -2.92435 0
M  V30 4067 H 401.471 -0.635221 -0.373715 0
M  V30 4068 H 404.113 -1.87519 -0.30606 0
M  V30 4069 H 402.263 -2.92898 -2.55232 0
M  V30 4070 H 403.935 -4.58211 -0.532943 0
M  V30 4071 H 402.178 -4.31642 -0.432168 0
M  V30 4072 H 402.849 -5.22074 -1.79284 0
M  V30 4073 H 405.325 -3.39429 -2.4068 0
M  V30 4074 H 404.201 -4.20603 -3.52682 0
M  V30 4075 H 404.462 -2.47437 -3.6637 0
M  V30 4076 N 403.521 0.559213 -1.47345 0
M  V30 4077 C 404.453 1.68161 -1.55738 0
M  V30 4078 C 405.466 1.56636 -0.443744 0
M  V30 4079 O 406.655 1.6363 -0.713258 0
M  V30 4080 C 403.755 3.06611 -1.4437 0
M  V30 4081 C 402.928 3.4391 -2.70268 0
M  V30 4082 C 401.987 4.61515 -2.52765 0
M  V30 4083 O 401.013 4.66197 -3.26572 0
M  V30 4084 N 402.215 5.57883 -1.6046 0
M  V30 4085 H 404.98 1.61408 -2.52522 0
M  V30 4086 H 402.541 0.7458 -1.43699 0
M  V30 4087 H 404.533 3.83117 -1.30398 0
M  V30 4088 H 403.103 3.07602 -0.556766 0
M  V30 4089 H 402.323 2.56873 -2.99015 0
M  V30 4090 H 403.611 3.65605 -3.53851 0
M  V30 4091 H 403.009 5.56855 -0.996422 0
M  V30 4092 H 401.566 6.33723 -1.52441 0
M  V30 4093 N 404.999 1.35443 0.805782 0
M  V30 4094 C 406.246 1.28761 1.56291 0
M  V30 4095 C 406.574 -0.137747 1.94012 0
M  V30 4096 O 405.829 -1.1032 1.61642 0
M  V30 4097 C 406.128 2.14045 2.86216 0
M  V30 4098 C 405.794 3.62826 2.67709 0
M  V30 4099 C 404.456 4.0338 2.6237 0
M  V30 4100 C 406.808 4.57227 2.50186 0
M  V30 4101 C 404.136 5.36501 2.37451 0
M  V30 4102 C 406.488 5.90547 2.26797 0
M  V30 4103 C 405.152 6.30245 2.1988 0
M  V30 4104 H 404.422 0.471171 0.571908 0
M  V30 4105 H 407.069 1.67347 0.930974 0
M  V30 4106 H 405.374 1.68342 3.53791 0
M  V30 4107 H 407.071 2.0621 3.43917 0
M  V30 4108 H 403.661 3.30644 2.72713 0
M  V30 4109 H 407.845 4.2678 2.53323 0
M  V30 4110 H 403.101 5.66259 2.30567 0
M  V30 4111 H 407.275 6.63274 2.12228 0
M  V30 4112 H 404.902 7.33328 2.00333 0
M  V30 4113 N 406.477 -1.02803 1.19454 0
M  V30 4114 C 407.725 -1.75869 0.995722 0
M  V30 4115 C 408.046 -1.89138 -0.474543 0
M  V30 4116 O 407.316 -1.42558 -1.34366 0
M  V30 4117 H 405.896 -0.651511 0.365435 0
M  V30 4118 H 408.558 -1.24004 1.50363 0
M  V30 4119 H 407.654 -2.76661 1.44447 0
M  V30 4120 N 407.956 -0.998596 -1.21925 0
M  V30 4121 C 408.903 -0.553621 -2.24062 0
M  V30 4122 C 409.873 0.416999 -1.6078 0
M  V30 4123 O 411.058 0.320482 -1.88089 0
M  V30 4124 C 408.198 0.119959 -3.44891 0
M  V30 4125 C 407.311 -0.893077 -4.22668 0
M  V30 4126 C 406.446 -0.192424 -5.30851 0
M  V30 4127 C 405.485 -1.19344 -6.00353 0
M  V30 4128 N 404.622 -0.520707 -7.00166 0
M  V30 4129 H 409.462 -1.4293 -2.61486 0
M  V30 4130 H 406.999 -0.715838 -1.28507 0
M  V30 4131 H 408.957 0.527459 -4.13852 0
M  V30 4132 H 407.587 0.959389 -3.08214 0
M  V30 4133 H 406.639 -1.41886 -3.52948 0
M  V30 4134 H 407.951 -1.65512 -4.70539 0
M  V30 4135 H 407.105 0.271515 -6.06092 0
M  V30 4136 H 405.844 0.602075 -4.83969 0
M  V30 4137 H 404.849 -1.66795 -5.23889 0
M  V30 4138 H 406.074 -1.98891 -6.49322 0
M  V30 4139 H 404.02 0.254252 -6.55507 0
M  V30 4140 H 403.937 -1.2211 -7.46073 0
M  V30 4141 H 405.205 -0.0797596 -7.79459 0
M  V30 4142 N 409.434 1.37368 -0.772513 0
M  V30 4143 C 410.845 1.8231 -0.402493 0
M  V30 4144 C 411.196 1.6436 1.07146 0
M  V30 4145 O 410.321 1.15514 1.82991 0
M  V30 4146 C 410.916 3.30979 -0.723776 0
M  V30 4147 C 409.475 3.74195 -0.406802 0
M  V30 4148 C 408.622 2.59885 -0.967218 0
M  V30 4149 H 411.573 1.25829 -0.967099 0
M  V30 4150 H 411.594 3.80499 -0.00870832 0
M  V30 4151 H 411.106 3.44011 -1.7966 0
M  V30 4152 H 409.207 3.66732 0.658673 0
M  V30 4153 H 409.32 4.7027 -0.915588 0
M  V30 4154 H 407.684 2.51674 -0.391416 0
M  V30 4155 H 408.467 2.7571 -2.04546 0
M  V30 4156 N 410.912 0.523116 1.48665 0
M  V30 4157 C 411.842 -0.23231 2.32342 0
M  V30 4158 C 412.823 -0.941637 1.41659 0
M  V30 4159 O 414.008 -0.928751 1.70552 0
M  V30 4160 C 411.138 -1.28387 3.22698 0
M  V30 4161 C 410.092 -0.693098 4.22351 0
M  V30 4162 C 409.418 -1.8468 5.01794 0
M  V30 4163 C 410.718 0.33063 5.21252 0
M  V30 4164 H 412.412 0.466192 2.95748 0
M  V30 4165 H 409.958 0.225643 1.42221 0
M  V30 4166 H 411.911 -1.82024 3.80059 0
M  V30 4167 H 410.635 -2.01186 2.57278 0
M  V30 4168 H 409.294 -0.178299 3.66166 0
M  V30 4169 H 408.942 -2.56301 4.32804 0
M  V30 4170 H 408.642 -1.45747 5.69238 0
M  V30 4171 H 410.166 -2.38709 5.62006 0
M  V30 4172 H 411.58 -0.118407 5.73178 0
M  V30 4173 H 409.977 0.636974 5.9671 0
M  V30 4174 H 411.047 1.23883 4.68808 0
M  V30 4175 N 412.39 -1.55475 0.257931 0
M  V30 4176 C 413.63 -2.01112 -0.365129 0
M  V30 4177 C 413.994 -1.1423 -1.54323 0
M  V30 4178 O 415.195 -1.49371 -2.23477 0
M  V30 4179 C 413.466 -3.49353 -0.754117 0
M  V30 4180 S 415.025 -4.16992 -1.36614 0
M  V30 4181 H 411.843 -0.701737 -0.114397 0
M  V30 4182 H 414.445 -1.91855 0.375747 0
M  V30 4183 H 413.149 -4.10246 0.112441 0
M  V30 4184 H 412.68 -3.6256 -1.52689 0
M  V30 4185 H 414.695 -4.19191 -2.65505 0
M  V30 4186 N 413.868 0.0150385 -1.57593 0
M  V30 4187 C 414.815 1.01126 -2.07466 0
M  V30 4188 C 415.785 1.35064 -0.966794 0
M  V30 4189 O 416.97 1.4516 -1.23827 0
M  V30 4190 C 414.11 2.30276 -2.57035 0
M  V30 4191 C 413.223 2.02373 -3.81666 0
M  V30 4192 C 412.358 3.25496 -4.19793 0
M  V30 4193 C 411.397 2.93211 -5.37303 0
M  V30 4194 N 410.534 4.08826 -5.70794 0
M  V30 4195 H 415.374 0.57901 -2.92321 0
M  V30 4196 H 412.911 0.27426 -1.44521 0
M  V30 4197 H 414.869 3.05757 -2.83846 0
M  V30 4198 H 413.499 2.71197 -1.75077 0
M  V30 4199 H 412.551 1.17327 -3.61854 0
M  V30 4200 H 413.863 1.74567 -4.67256 0
M  V30 4201 H 413.017 4.09333 -4.47807 0
M  V30 4202 H 411.756 3.56428 -3.32882 0
M  V30 4203 H 410.761 2.07777 -5.09027 0
M  V30 4204 H 411.986 2.63542 -6.25877 0
M  V30 4205 H 409.932 4.39682 -4.86842 0
M  V30 4206 H 409.849 3.84491 -6.50924 0
M  V30 4207 H 411.117 4.93496 -6.03392 0
M  V30 4208 N 415.346 1.54954 0.287554 0
M  V30 4209 C 416.593 1.74873 1.02106 0
M  V30 4210 C 416.921 0.541829 1.86801 0
M  V30 4211 O 416.176 -0.475992 1.89823 0
M  V30 4212 C 416.475 2.99833 1.94512 0
M  V30 4213 C 416.141 4.33029 1.25686 0
M  V30 4214 C 414.803 4.69233 1.06649 0
M  V30 4215 C 417.155 5.15542 0.765913 0
M  V30 4216 C 414.483 5.85518 0.372222 0
M  V30 4217 C 416.835 6.32542 0.0853101 0
M  V30 4218 C 415.499 6.67398 -0.1169 0
M  V30 4219 H 414.769 0.639906 0.373632 0
M  V30 4220 H 417.416 1.89219 0.294665 0
M  V30 4221 H 415.721 2.80325 2.73725 0
M  V30 4222 H 417.418 3.1244 2.51361 0
M  V30 4223 H 414.008 4.04564 1.41512 0
M  V30 4224 H 418.192 4.88059 0.90066 0
M  V30 4225 H 413.448 6.11057 0.204695 0
M  V30 4226 H 417.622 6.95741 -0.302936 0
M  V30 4227 H 415.249 7.57357 -0.656859 0
M  V30 4228 N 416.824 -0.551391 1.4764 0
M  V30 4229 C 417.756 -1.67333 1.56628 0
M  V30 4230 C 418.769 -1.56398 0.452045 0
M  V30 4231 O 419.958 -1.6325 0.721926 0
M  V30 4232 C 417.058 -3.05841 1.45994 0
M  V30 4233 C 416.231 -3.42472 2.72088 0
M  V30 4234 C 415.29 -4.60168 2.55209 0
M  V30 4235 O 414.316 -4.64458 3.2904 0
M  V30 4236 N 415.518 -5.57024 1.63416 0
M  V30 4237 H 418.283 -1.60066 2.53375 0
M  V30 4238 H 415.844 -0.738169 1.44093 0
M  V30 4239 H 417.836 -3.8242 1.32428 0
M  V30 4240 H 416.406 -3.07302 0.573071 0
M  V30 4241 H 415.626 -2.55284 3.00373 0
M  V30 4242 H 416.914 -3.63723 3.55785 0
M  V30 4243 H 416.312 -5.56319 1.02594 0
M  V30 4244 H 414.869 -6.32906 1.558 0
M  V30 4245 N 418.302 -1.35869 -0.798587 0
M  V30 4246 C 419.527 -1.32883 -1.59238 0
M  V30 4247 C 419.952 0.0894587 -1.87887 0
M  V30 4248 O 419.31 1.05869 -1.47178 0
M  V30 4249 C 419.358 -2.14892 -2.89575 0
M  V30 4250 O 418.462 -1.53512 -3.82763 0
M  V30 4251 H 417.803 -0.455236 -0.48338 0
M  V30 4252 H 420.333 -1.79024 -0.990539 0
M  V30 4253 H 420.343 -2.27139 -3.38928 0
M  V30 4254 H 419.018 -3.17998 -2.68049 0
M  V30 4255 H 417.595 -1.50153 -3.41334 0
M  V30 4256 N 419.78 1.02168 -1.19998 0
M  V30 4257 C 421.029 1.75091 -1.0013 0
M  V30 4258 C 421.342 1.89923 0.467835 0
M  V30 4259 O 422.548 2.59888 0.785515 0
M  V30 4260 C 421.004 3.14892 -1.74273 0
M  V30 4261 C 420.612 3.0809 -3.25245 0
M  V30 4262 C 422.356 3.9206 -1.62755 0
M  V30 4263 C 420.263 4.42867 -3.91948 0
M  V30 4264 H 419.193 0.656394 -0.37103 0
M  V30 4265 H 421.844 1.14284 -1.43567 0
M  V30 4266 H 420.226 3.7621 -1.2362 0
M  V30 4267 H 421.4 2.5611 -3.83072 0
M  V30 4268 H 419.715 2.44416 -3.3712 0
M  V30 4269 H 422.312 4.91764 -2.09934 0
M  V30 4270 H 422.655 4.12199 -0.582894 0
M  V30 4271 H 423.188 3.37359 -2.10793 0
M  V30 4272 H 419.927 4.27931 -4.96543 0
M  V30 4273 H 419.447 4.94874 -3.3891 0
M  V30 4274 H 421.126 5.11728 -3.95909 0
M  V30 4275 N 421.258 1.00505 1.21394 0
M  V30 4276 C 422.483 0.706367 1.95001 0
M  V30 4277 C 422.908 -0.72463 1.73582 0
M  V30 4278 O 422.266 -1.49702 1.0227 0
M  V30 4279 C 422.314 1.03299 3.45487 0
M  V30 4280 O 421.418 0.138275 4.12168 0
M  V30 4281 H 420.759 0.263175 0.609619 0
M  V30 4282 H 423.289 1.34531 1.54151 0
M  V30 4283 H 423.299 0.979872 3.96059 0
M  V30 4284 H 421.974 2.07567 3.60401 0
M  V30 4285 H 420.551 0.247928 3.72075 0
M  V30 4286 N 422.737 -1.36956 0.779787 0
M  V30 4287 C 423.984 -1.99491 0.347766 0
M  V30 4288 C 424.312 -1.61898 -1.07793 0
M  V30 4289 O 423.567 -0.86071 -1.75756 0
M  V30 4290 C 423.866 -3.54585 0.447686 0
M  V30 4291 C 423.532 -4.1197 1.83279 0
M  V30 4292 C 422.194 -4.27356 2.2118 0
M  V30 4293 C 424.546 -4.43354 2.74019 0
M  V30 4294 C 421.874 -4.71432 3.4924 0
M  V30 4295 C 424.226 -4.88858 4.01497 0
M  V30 4296 C 422.89 -5.0245 4.39432 0
M  V30 4297 H 422.16 -0.729991 0.127257 0
M  V30 4298 H 424.807 -1.63599 0.995376 0
M  V30 4299 H 423.112 -3.90773 -0.283447 0
M  V30 4300 H 424.809 -4.00888 0.0945948 0
M  V30 4301 H 421.399 -4.00428 1.52825 0
M  V30 4302 H 425.583 -4.31045 2.45995 0
M  V30 4303 H 420.839 -4.80141 3.78516 0
M  V30 4304 H 425.013 -5.12108 4.71931 0
M  V30 4305 H 422.64 -5.36362 5.38721 0
M  V30 4306 N 424.215 -0.530993 -1.48385 0
M  V30 4307 C 425.162 0.231223 -2.29639 0
M  V30 4308 C 426.132 0.932864 -1.37429 0
M  V30 4309 O 427.317 0.933692 -1.66394 0
M  V30 4310 C 424.457 1.27155 -3.2082 0
M  V30 4311 C 423.57 0.578655 -4.28107 0
M  V30 4312 C 422.705 1.602 -5.06467 0
M  V30 4313 C 421.744 0.892625 -6.05556 0
M  V30 4314 N 420.881 1.86157 -6.76971 0
M  V30 4315 H 425.721 -0.467848 -2.94305 0
M  V30 4316 H 423.258 -0.242556 -1.45086 0
M  V30 4317 H 425.216 1.88703 -3.72085 0
M  V30 4318 H 423.846 1.939 -2.58075 0
M  V30 4319 H 422.898 -0.150782 -3.80101 0
M  V30 4320 H 424.21 0.0217065 -4.98795 0
M  V30 4321 H 423.364 2.29173 -5.61751 0
M  V30 4322 H 422.103 2.19285 -4.35621 0
M  V30 4323 H 421.108 0.188829 -5.49476 0
M  V30 4324 H 422.333 0.307878 -6.78402 0
M  V30 4325 H 420.279 2.44147 -6.08875 0
M  V30 4326 H 420.196 1.35608 -7.43738 0
M  V30 4327 H 421.464 2.54325 -7.36844 0
M  V30 4328 N 425.693 1.55336 -0.266172 0
M  V30 4329 C 426.623 2.25146 0.618981 0
M  V30 4330 C 427.604 1.23845 1.16604 0
M  V30 4331 O 428.789 1.52544 1.20183 0
M  V30 4332 C 425.919 2.96572 1.80728 0
M  V30 4333 C 424.873 4.04726 1.39215 0
M  V30 4334 C 424.199 4.63678 2.66283 0
M  V30 4335 C 425.499 5.19407 0.548942 0
M  V30 4336 H 427.193 2.99377 0.0368116 0
M  V30 4337 H 424.739 1.43991 0.0162651 0
M  V30 4338 H 426.692 3.44116 2.43232 0
M  V30 4339 H 425.416 2.19861 2.41514 0
M  V30 4340 H 424.075 3.57979 0.790351 0
M  V30 4341 H 423.723 3.83646 3.25308 0
M  V30 4342 H 423.423 5.367 2.39222 0
M  V30 4343 H 424.947 5.13967 3.29651 0
M  V30 4344 H 426.361 5.63059 1.07876 0
M  V30 4345 H 424.758 5.98936 0.373593 0
M  V30 4346 H 425.828 4.8295 -0.434394 0
M  V30 4347 N 427.171 -0.0066808 1.57599 0
M  V30 4348 C 428.134 -0.985035 2.06953 0
M  V30 4349 C 429.134 -1.27663 0.977687 0
M  V30 4350 O 430.324 -1.22293 1.24057 0
M  V30 4351 C 427.456 -2.3118 2.50536 0
M  V30 4352 H 428.649 -0.558255 2.94658 0
M  V30 4353 H 426.202 -0.254011 1.54222 0
M  V30 4354 H 426.937 -2.78561 1.66054 0
M  V30 4355 H 426.722 -2.11338 3.3027 0
M  V30 4356 H 428.212 -3.01377 2.8907 0
M  V30 4357 N 428.649 -1.55105 -0.279332 0
M  V30 4358 C 429.926 -1.66119 -1.03267 0
M  V30 4359 C 430.306 -0.523525 -2.04505 0
M  V30 4360 O 429.654 0.477194 -2.23462 0
M  V30 4361 C 429.864 -3.05067 -1.69515 0
M  V30 4362 C 431.212 -3.62606 -2.20912 0
M  V30 4363 O 432.236 -3.07659 -1.79512 0
M  V30 4364 O 431.095 -4.58861 -2.96831 0
M  V30 4365 H 428.189 -0.674429 -0.478618 0
M  V30 4366 H 430.735 -1.67446 -0.275694 0
M  V30 4367 H 429.507 -3.79311 -0.9612 0
M  V30 4368 H 429.13 -3.07611 -2.51915 0
M  V30 4369 N 430.127 0.543554 -1.4793 0
M  V30 4370 C 431.06 1.66556 -1.55995 0
M  V30 4371 C 432.038 1.57315 -0.411205 0
M  V30 4372 O 433.222 1.7798 -0.620922 0
M  V30 4373 C 430.349 3.04883 -1.47527 0
M  V30 4374 C 429.395 3.32526 -2.67074 0
M  V30 4375 S 430.228 3.20282 -4.29162 0
M  V30 4376 C 431.384 4.61079 -4.23269 0
M  V30 4377 H 431.617 1.59462 -2.50917 0
M  V30 4378 H 429.15 0.725456 -1.36296 0
M  V30 4379 H 431.108 3.84665 -1.43328 0
M  V30 4380 H 429.769 3.09429 -0.539665 0
M  V30 4381 H 428.962 4.33403 -2.5725 0
M  V30 4382 H 428.564 2.60389 -2.68466 0
M  V30 4383 H 430.856 5.52318 -3.92365 0
M  V30 4384 H 431.799 4.75959 -5.24279 0
M  V30 4385 H 432.207 4.39766 -3.5393 0
M  V30 4386 N 431.605 1.3629 0.791371 0
M  V30 4387 C 432.552 1.30458 1.90393 0
M  V30 4388 C 433.522 0.173632 1.6519 0
M  V30 4389 O 434.707 0.35983 1.87376 0
M  V30 4390 C 431.847 1.09777 3.27174 0
M  V30 4391 C 430.96 2.31929 3.64462 0
M  V30 4392 C 430.095 2.04276 4.90352 0
M  V30 4393 C 429.134 3.224 5.20312 0
M  V30 4394 N 428.271 2.94424 6.37385 0
M  V30 4395 H 433.111 2.25589 1.94714 0
M  V30 4396 H 430.648 1.12122 0.952216 0
M  V30 4397 H 432.606 0.958133 4.06049 0
M  V30 4398 H 431.236 0.183014 3.22281 0
M  V30 4399 H 430.288 2.56703 2.80727 0
M  V30 4400 H 431.6 3.20085 3.82553 0
M  V30 4401 H 430.754 1.87231 5.77087 0
M  V30 4402 H 429.493 1.13428 4.74326 0
M  V30 4403 H 428.498 3.40005 4.32061 0
M  V30 4404 H 429.723 4.14071 5.38258 0
M  V30 4405 H 427.669 2.06185 6.22755 0
M  V30 4406 H 427.586 3.76118 6.55798 0
M  V30 4407 H 428.854 2.80953 7.27108 0
M  V30 4408 N 433.083 -1.0153 1.20538 0
M  V30 4409 C 434.016 -2.09759 0.898695 0
M  V30 4410 C 434.994 -1.61909 -0.149733 0
M  V30 4411 O 436.178 -1.88486 -0.0230293 0
M  V30 4412 C 433.305 -3.36913 0.347512 0
M  V30 4413 C 432.351 -4.03655 1.37713 0
M  V30 4414 S 433.184 -4.47402 2.94265 0
M  V30 4415 C 434.34 -5.77756 2.40726 0
M  V30 4416 H 434.573 -2.3545 1.81523 0
M  V30 4417 H 432.106 -1.14665 1.03399 0
M  V30 4418 H 434.064 -4.10484 0.0360518 0
M  V30 4419 H 432.725 -3.09291 -0.547546 0
M  V30 4420 H 431.918 -4.9514 0.940872 0
M  V30 4421 H 431.52 -3.36313 1.63614 0
M  V30 4422 H 433.812 -6.52994 1.80569 0
M  V30 4423 H 434.755 -6.2618 3.30612 0
M  V30 4424 H 435.163 -5.34081 1.82806 0
M  V30 4425 N 434.561 -1.01147 -1.20859 0
M  V30 4426 C 435.493 -0.535546 -2.22855 0
M  V30 4427 C 436.506 0.379323 -1.58319 0
M  V30 4428 O 437.695 0.178489 -1.77605 0
M  V30 4429 C 434.795 0.240962 -3.38042 0
M  V30 4430 C 433.968 -0.674562 -4.32167 0
M  V30 4431 C 433.027 0.053467 -5.26173 0
M  V30 4432 O 432.053 -0.567339 -5.66366 0
M  V30 4433 N 433.255 1.32997 -5.65059 0
M  V30 4434 H 436.02 -1.41268 -2.64317 0
M  V30 4435 H 433.581 -0.888386 -1.35349 0
M  V30 4436 H 435.573 0.737115 -3.97931 0
M  V30 4437 H 434.143 1.01935 -2.95513 0
M  V30 4438 H 433.363 -1.35111 -3.70322 0
M  V30 4439 H 434.651 -1.2974 -4.91981 0
M  V30 4440 H 434.049 1.85536 -5.34409 0
M  V30 4441 H 432.606 1.77095 -6.2728 0
M  V30 4442 N 436.039 1.36541 -0.78704 0
M  V30 4443 C 437.288 1.98552 -0.35494 0
M  V30 4444 C 437.601 1.63171 1.07864 0
M  V30 4445 O 438.807 2.18399 1.61289 0
M  V30 4446 C 437.263 3.55136 -0.583671 0
M  V30 4447 C 436.871 3.99444 -2.02851 0
M  V30 4448 C 438.615 4.2395 -0.215957 0
M  V30 4449 C 436.522 5.48796 -2.20403 0
M  V30 4450 H 435.452 0.742888 -0.128972 0
M  V30 4451 H 438.103 1.5587 -0.968337 0
M  V30 4452 H 436.485 3.95875 0.0994046 0
M  V30 4453 H 437.659 3.6991 -2.74779 0
M  V30 4454 H 435.974 3.43459 -2.35425 0
M  V30 4455 H 438.571 5.33709 -0.325405 0
M  V30 4456 H 438.914 4.07827 0.835646 0
M  V30 4457 H 439.447 3.88565 -0.852175 0
M  V30 4458 H 436.186 5.69864 -3.23937 0
M  V30 4459 H 435.706 5.79964 -1.52977 0
M  V30 4460 H 437.385 6.14986 -2.01002 0
M  V30 4461 N 437.518 0.538854 1.48102 0
M  V30 4462 C 438.428 -0.222648 2.33541 0
M  V30 4463 C 439.444 -0.930225 1.47047 0
M  V30 4464 O 440.62 -0.903211 1.80011 0
M  V30 4465 C 437.685 -1.25064 3.23357 0
M  V30 4466 C 436.746 -0.552469 4.2573 0
M  V30 4467 C 435.979 -1.53149 5.11254 0
M  V30 4468 O 436.202 -2.76487 4.9891 0
M  V30 4469 O 435.136 -1.06602 5.92385 0
M  V30 4470 H 438.962 0.477707 2.99919 0
M  V30 4471 H 436.547 0.299669 1.46364 0
M  V30 4472 H 438.429 -1.8445 3.78888 0
M  V30 4473 H 437.104 -1.93325 2.59629 0
M  V30 4474 H 436.011 0.082114 3.7401 0
M  V30 4475 H 437.344 0.0883526 4.92121 0
M  V30 4476 N 438.996 -1.55193 0.274407 0
M  V30 4477 C 439.959 -2.212 -0.600279 0
M  V30 4478 C 440.959 -1.18963 -1.08187 0
M  V30 4479 O 442.149 -1.43873 -0.982158 0
M  V30 4480 C 439.281 -2.87739 -1.82809 0
M  V30 4481 H 440.474 -2.9989 -0.0239682 0
M  V30 4482 H 438.027 -1.5628 0.0250192 0
M  V30 4483 H 438.762 -2.13058 -2.44493 0
M  V30 4484 H 438.547 -3.62658 -1.49069 0
M  V30 4485 H 440.037 -3.38171 -2.45011 0
M  V30 4486 N 440.474 -0.00167713 -1.576 0
M  V30 4487 C 441.437 0.974046 -2.07473 0
M  V30 4488 C 442.437 1.27143 -0.984444 0
M  V30 4489 O 443.627 1.21633 -1.24703 0
M  V30 4490 C 440.759 2.29849 -2.51759 0
M  V30 4491 H 441.952 0.54262 -2.9495 0
M  V30 4492 H 439.505 0.245829 -1.54355 0
M  V30 4493 H 440.24 2.77677 -1.67529 0
M  V30 4494 H 440.025 2.09584 -3.31386 0
M  V30 4495 H 441.515 2.9984 -2.90664 0
M  V30 4496 N 441.952 1.55251 0.271103 0
M  V30 4497 C 443.368 1.47133 0.618393 0
M  V30 4498 C 443.568 0.686994 1.89427 0
M  V30 4499 O 442.624 0.206609 2.51653 0
M  V30 4500 C 443.937 2.91361 0.743593 0
M  V30 4501 C 445.485 3.01587 0.837522 0
M  V30 4502 C 445.96 4.47073 0.994483 0
M  V30 4503 N 447.451 4.50909 1.05996 0
M  V30 4504 C 448.186 5.60698 1.20024 0
M  V30 4505 N 447.682 6.80348 1.30759 0
M  V30 4506 N 449.475 5.48444 1.23149 0
M  V30 4507 H 441.626 2.04698 -0.566784 0
M  V30 4508 H 443.889 0.928319 -0.192165 0
M  V30 4509 H 443.595 3.51483 -0.123493 0
M  V30 4510 H 443.469 3.40484 1.62328 0
M  V30 4511 H 445.856 2.4156 1.69507 0
M  V30 4512 H 445.937 2.55713 -0.0668086 0
M  V30 4513 H 445.581 5.07703 0.141582 0
M  V30 4514 H 445.511 4.90605 1.91349 0
M  V30 4515 H 448.002 3.6472 0.989316 0
M  V30 4516 H 448.315 7.59772 1.41303 0
M  V30 4517 H 446.66 6.83156 1.27761 0
M  V30 4518 H 449.851 4.53907 1.14394 0
M  V30 4519 H 450.024 6.34049 1.33738 0
M  V30 4520 N 443.43 -0.535701 1.48216 0
M  V30 4521 C 444.378 -1.66179 1.62749 0
M  V30 4522 C 445.372 -1.62034 0.49409 0
M  V30 4523 O 446.578 -1.6696 0.672624 0
M  V30 4524 H 442.953 -0.550244 0.512578 0
M  V30 4525 H 444.924 -1.51063 2.57337 0
M  V30 4526 C 443.673 -3.04471 1.67907 0
M  V30 4527 H 442.996 -3.08351 2.54479 0
M  V30 4528 H 444.436 -3.82894 1.82121 0
M  V30 4529 C 442.895 -3.34314 0.416596 0
M  V30 4530 O 443.425 -3.98905 -0.473014 0
M  V30 4531 N 441.631 -2.89149 0.290038 0
M  V30 4532 H 441.178 -2.36764 1.01493 0
M  V30 4533 H 441.136 -3.09486 -0.55367 0
M  V30 4534 N 444.908 -1.36708 -0.784132 0
M  V30 4535 C 445.838 -1.34153 -1.91116 0
M  V30 4536 C 446.819 -0.212121 -1.68772 0
M  V30 4537 O 448.004 -0.410581 -1.8981 0
M  V30 4538 C 445.134 -1.13535 -3.28218 0
M  V30 4539 C 444.088 -2.23356 -3.65097 0
M  V30 4540 C 443.414 -1.87875 -5.00607 0
M  V30 4541 C 444.714 -3.65473 -3.73131 0
M  V30 4542 H 446.408 -2.28459 -1.93512 0
M  V30 4543 H 443.954 -1.09973 -0.929618 0
M  V30 4544 H 445.907 -1.10381 -4.06687 0
M  V30 4545 H 444.631 -0.156804 -3.26223 0
M  V30 4546 H 443.29 -2.25645 -2.88929 0
M  V30 4547 H 442.938 -0.885814 -4.95139 0
M  V30 4548 H 442.638 -2.61406 -5.26252 0
M  V30 4549 H 444.162 -1.86286 -5.81489 0
M  V30 4550 H 445.576 -3.65382 -4.41779 0
M  V30 4551 H 443.973 -4.37953 -4.10265 0
M  V30 4552 H 445.043 -3.99995 -2.74102 0
M  V30 4553 N 446.386 1.0089 -1.21074 0
M  V30 4554 C 447.632 1.74866 -1.02712 0
M  V30 4555 C 447.965 1.89178 0.438787 0
M  V30 4556 O 447.24 1.42325 1.32567 0
M  V30 4557 C 447.523 3.16347 -1.72036 0
M  V30 4558 C 447.376 3.09782 -3.26121 0
M  V30 4559 C 448.695 4.15187 -1.45973 0
M  V30 4560 H 445.814 0.634736 -0.374539 0
M  V30 4561 H 448.456 1.17646 -1.49196 0
M  V30 4562 H 446.606 3.65201 -1.32517 0
M  V30 4563 H 448.278 2.68673 -3.74983 0
M  V30 4564 H 446.521 2.46982 -3.56626 0
M  V30 4565 H 447.192 4.09829 -3.6979 0
M  V30 4566 H 449.668 3.75022 -1.80272 0
M  V30 4567 H 448.544 5.12331 -1.96999 0
M  V30 4568 H 448.805 4.40386 -0.388924 0
M  V30 4569 N 447.864 1.01787 1.20321 0
M  V30 4570 C 449.094 0.72614 1.93419 0
M  V30 4571 C 449.502 -0.717317 1.75075 0
M  V30 4572 O 448.845 -1.49836 1.06278 0
M  V30 4573 C 448.907 0.983621 3.45782 0
M  V30 4574 C 448.571 2.41645 3.87888 0
M  V30 4575 C 449.568 3.39732 3.93545 0
M  V30 4576 C 447.253 2.75752 4.19841 0
M  V30 4577 C 449.247 4.69988 4.30569 0
M  V30 4578 C 446.934 4.06221 4.56539 0
M  V30 4579 C 447.932 5.0315 4.61876 0
M  V30 4580 O 447.62 6.31284 4.97731 0
M  V30 4581 H 447.352 0.265824 0.621541 0
M  V30 4582 H 449.906 1.3623 1.53722 0
M  V30 4583 H 448.136 0.290301 3.85609 0
M  V30 4584 H 449.825 0.683279 4.00108 0
M  V30 4585 H 450.591 3.14718 3.69022 0
M  V30 4586 H 446.47 2.00993 4.14877 0
M  V30 4587 H 450.014 5.45642 4.3465 0
M  V30 4588 H 445.911 4.31013 4.80518 0
M  V30 4589 H 446.679 6.35591 5.15719 0
M  V30 4590 N 449.342 -1.36122 0.79427 0
M  V30 4591 C 450.289 -2.29982 0.194101 0
M  V30 4592 C 451.259 -1.52214 -0.664833 0
M  V30 4593 O 452.444 -1.80702 -0.612498 0
M  V30 4594 C 449.584 -3.38706 -0.661244 0
M  V30 4595 C 448.697 -4.31456 0.216766 0
M  V30 4596 C 447.832 -5.27265 -0.645411 0
M  V30 4597 C 446.871 -6.11653 0.233756 0
M  V30 4598 N 446.008 -6.99636 -0.587682 0
M  V30 4599 H 450.848 -2.80722 0.999965 0
M  V30 4600 H 448.385 -1.38172 0.504677 0
M  V30 4601 H 450.343 -4.00394 -1.17219 0
M  V30 4602 H 448.973 -2.89274 -1.43249 0
M  V30 4603 H 448.025 -3.7088 0.845724 0
M  V30 4604 H 449.337 -4.90724 0.893973 0
M  V30 4605 H 448.491 -5.94266 -1.22198 0
M  V30 4606 H 447.23 -4.68463 -1.35623 0
M  V30 4607 H 446.235 -5.4361 0.82269 0
M  V30 4608 H 447.46 -6.72531 0.942247 0
M  V30 4609 H 445.406 -6.43337 -1.2827 0
M  V30 4610 H 445.323 -7.55993 0.0317402 0
M  V30 4611 H 446.591 -7.71001 -1.14792 0
M  V30 4612 N 450.82 -0.546701 -1.47814 0
M  V30 4613 C 451.783 0.196287 -2.28358 0
M  V30 4614 C 452.783 0.852437 -1.36346 0
M  V30 4615 O 453.973 0.709913 -1.59078 0
M  V30 4616 C 451.105 1.28579 -3.15722 0
M  V30 4617 H 452.298 -0.511086 -2.95513 0
M  V30 4618 H 449.851 -0.303248 -1.5333 0
M  V30 4619 H 450.586 2.0259 -2.53235 0
M  V30 4620 H 450.371 0.820229 -3.83425 0
M  V30 4621 H 451.861 1.80793 -3.76435 0
M  V30 4622 N 452.299 1.55045 -0.282633 0
M  V30 4623 C 453.262 2.21515 0.588539 0
M  V30 4624 C 454.262 1.19535 1.07554 0
M  V30 4625 O 455.452 1.44391 0.974514 0
M  V30 4626 C 452.584 2.88704 1.8128 0
M  V30 4627 H 453.777 2.99899 0.00806397 0
M  V30 4628 H 451.33 1.56265 -0.0333067 0
M  V30 4629 H 452.065 2.14352 2.43359 0
M  V30 4630 H 451.85 3.63443 1.47144 0
M  V30 4631 H 453.34 3.39465 2.43214 0
M  V30 4632 N 453.777 0.010035 1.57597 0
M  V30 4633 C 455.017 -0.677084 1.9286 0
M  V30 4634 C 455.381 -1.70377 0.885192 0
M  V30 4635 O 456.582 -2.44199 1.12339 0
M  V30 4636 C 454.853 -1.29452 3.33132 0
M  V30 4637 S 456.412 -2.00537 3.90295 0
M  V30 4638 H 453.23 -0.223409 0.674989 0
M  V30 4639 H 455.832 0.0691289 1.95378 0
M  V30 4640 H 454.536 -0.534593 4.06903 0
M  V30 4641 H 454.067 -2.07845 3.34012 0
M  V30 4642 H 456.082 -3.28168 3.72183 0
M  V30 4643 N 455.255 -1.55392 -0.262866 0
M  V30 4644 C 456.202 -1.88966 -1.32516 0
M  V30 4645 C 457.172 -0.742187 -1.48596 0
M  V30 4646 O 458.357 -0.99439 -1.62839 0
M  V30 4647 C 455.497 -2.17592 -2.67858 0
M  V30 4648 C 454.61 -3.45061 -2.59917 0
M  V30 4649 C 453.745 -3.63336 -3.87505 0
M  V30 4650 C 452.784 -4.84462 -3.74116 0
M  V30 4651 N 451.921 -4.99342 -4.93561 0
M  V30 4652 H 456.761 -2.79566 -1.03184 0
M  V30 4653 H 454.298 -1.38404 -0.498285 0
M  V30 4654 H 456.256 -2.3219 -3.46617 0
M  V30 4655 H 454.886 -1.30215 -2.95371 0
M  V30 4656 H 453.938 -3.38881 -1.72812 0
M  V30 4657 H 455.25 -4.3396 -2.45926 0
M  V30 4658 H 454.404 -3.77807 -4.74707 0
M  V30 4659 H 453.143 -2.72641 -4.04374 0
M  V30 4660 H 452.148 -4.69985 -2.85297 0
M  V30 4661 H 453.373 -5.76603 -3.58757 0
M  V30 4662 H 451.319 -4.1158 -5.10821 0
M  V30 4663 H 451.236 -5.82303 -4.82141 0
M  V30 4664 H 452.504 -5.18208 -5.82306 0
M  V30 4665 N 456.733 0.527833 -1.48498 0
M  V30 4666 C 457.68 1.6322 -1.6318 0
M  V30 4667 C 458.65 1.59199 -0.473815 0
M  V30 4668 O 459.835 1.77591 -0.697563 0
M  V30 4669 C 456.975 3.01474 -1.67951 0
M  V30 4670 C 456.088 3.15713 -2.94871 0
M  V30 4671 C 455.223 4.44539 -2.90789 0
M  V30 4672 C 454.262 4.52315 -4.12404 0
M  V30 4673 N 453.399 5.72533 -4.06387 0
M  V30 4674 H 458.239 1.50011 -2.57489 0
M  V30 4675 H 455.776 0.730298 -1.27691 0
M  V30 4676 H 457.734 3.81572 -1.68698 0
M  V30 4677 H 456.364 3.1345 -0.771306 0
M  V30 4678 H 455.416 2.28854 -3.03859 0
M  V30 4679 H 456.728 3.1732 -3.8485 0
M  V30 4680 H 455.882 5.3293 -2.89949 0
M  V30 4681 H 454.621 4.45457 -1.98542 0
M  V30 4682 H 453.626 3.62331 -4.13517 0
M  V30 4683 H 454.851 4.53134 -5.05812 0
M  V30 4684 H 452.797 5.74344 -3.16962 0
M  V30 4685 H 452.714 5.75643 -4.90073 0
M  V30 4686 H 453.982 6.63204 -4.0961 0
M  V30 4687 N 458.211 1.37122 0.776871 0
M  V30 4688 C 459.143 1.28342 1.89897 0
M  V30 4689 C 460.156 0.200277 1.61563 0
M  V30 4690 O 461.345 0.456012 1.72577 0
M  V30 4691 C 458.445 0.960427 3.25006 0
M  V30 4692 C 457.618 2.148 3.81025 0
M  V30 4693 C 456.677 1.79608 4.94598 0
M  V30 4694 O 455.703 2.51845 5.10454 0
M  V30 4695 N 456.905 0.737171 5.758 0
M  V30 4696 H 459.67 2.25027 1.97947 0
M  V30 4697 H 457.231 1.3068 0.955739 0
M  V30 4698 H 459.223 0.705942 3.98495 0
M  V30 4699 H 457.793 0.0823066 3.12492 0
M  V30 4700 H 457.013 2.56454 2.99374 0
M  V30 4701 H 458.301 2.9411 4.15183 0
M  V30 4702 H 457.699 0.137637 5.65533 0
M  V30 4703 H 456.256 0.542534 6.49538 0
M  V30 4704 N 459.689 -1.00246 1.21608 0
M  V30 4705 C 460.599 -2.12515 0.993709 0
M  V30 4706 C 461.615 -1.73913 -0.0549939 0
M  V30 4707 O 462.791 -2.00943 0.135619 0
M  V30 4708 C 459.856 -3.42083 0.563953 0
M  V30 4709 C 458.917 -3.94843 1.68516 0
M  V30 4710 C 458.15 -5.18226 1.27582 0
M  V30 4711 O 458.373 -5.70201 0.150506 0
M  V30 4712 O 457.307 -5.64497 2.0887 0
M  V30 4713 H 461.133 -2.34152 1.93407 0
M  V30 4714 H 458.718 -1.10891 1.00118 0
M  V30 4715 H 460.6 -4.20073 0.334194 0
M  V30 4716 H 459.275 -3.21828 -0.347665 0
M  V30 4717 H 458.182 -3.18068 1.96935 0
M  V30 4718 H 459.515 -4.19512 2.5743 0
M  V30 4719 N 461.167 -1.02423 -1.1978 0
M  V30 4720 C 462.415 -0.716569 -1.8897 0
M  V30 4721 C 462.736 0.756769 -1.79716 0
M  V30 4722 O 462.006 1.5449 -1.20456 0
M  V30 4723 H 460.586 -0.262062 -0.699523 0
M  V30 4724 H 463.248 -1.29747 -1.45436 0
M  V30 4725 H 462.344 -1.00675 -2.95417 0
M  V30 4726 N 462.645 1.35699 -0.801477 0
M  V30 4727 C 463.592 2.29876 -0.206294 0
M  V30 4728 C 464.562 1.52565 0.656752 0
M  V30 4729 O 465.747 1.81024 0.602906 0
M  V30 4730 C 462.887 3.39052 0.643272 0
M  V30 4731 C 462 4.31335 -0.239644 0
M  V30 4732 C 461.135 5.27599 0.61744 0
M  V30 4733 C 460.174 6.11521 -0.26619 0
M  V30 4734 N 459.311 6.99938 0.550571 0
M  V30 4735 H 464.151 2.80187 -1.01484 0
M  V30 4736 H 461.688 1.37902 -0.511997 0
M  V30 4737 H 463.646 4.0101 1.15094 0
M  V30 4738 H 462.276 2.9003 1.41713 0
M  V30 4739 H 461.328 3.70426 -0.865381 0
M  V30 4740 H 462.64 4.90243 -0.919985 0
M  V30 4741 H 461.794 5.94906 1.19045 0
M  V30 4742 H 460.533 4.69176 1.33137 0
M  V30 4743 H 459.538 5.43166 -0.851507 0
M  V30 4744 H 460.763 6.72022 -0.9779 0
M  V30 4745 H 458.709 6.44008 1.24856 0
M  V30 4746 H 458.626 7.55966 -0.071832 0
M  V30 4747 H 459.894 7.71599 1.10702 0
M  V30 4748 N 464.123 0.554532 1.47522 0
M  V30 4749 C 465.534 0.120446 1.86311 0
M  V30 4750 C 465.885 -1.30904 1.46145 0
M  V30 4751 O 465.01 -1.98434 0.863294 0
M  V30 4752 C 465.605 0.211808 3.38137 0
M  V30 4753 C 464.164 -0.167224 3.76028 0
M  V30 4754 C 463.311 0.560576 2.71575 0
M  V30 4755 H 466.262 0.764408 1.39077 0
M  V30 4756 H 466.283 -0.570275 3.76202 0
M  V30 4757 H 465.795 1.25232 3.6734 0
M  V30 4758 H 463.896 -1.20894 3.52442 0
M  V30 4759 H 464.009 0.189473 4.78725 0
M  V30 4760 H 462.373 0.00396836 2.547 0
M  V30 4761 H 463.156 1.60219 3.0362 0
M  V30 4762 N 465.601 -1.54893 0.290851 0
M  V30 4763 C 466.848 -1.99933 -0.321391 0
M  V30 4764 C 467.176 -1.17927 -1.54672 0
M  V30 4765 O 466.431 -0.240902 -1.94212 0
M  V30 4766 C 466.73 -3.49815 -0.732397 0
M  V30 4767 C 466.396 -4.4921 0.390056 0
M  V30 4768 C 465.058 -4.76107 0.698223 0
M  V30 4769 C 467.41 -5.08453 1.14562 0
M  V30 4770 C 464.738 -5.59514 1.76526 0
M  V30 4771 C 467.09 -5.9302 2.2025 0
M  V30 4772 C 465.754 -6.18232 2.51684 0
M  V30 4773 H 465.024 -0.731608 -0.117605 0
M  V30 4774 H 467.671 -1.87107 0.407839 0
M  V30 4775 H 465.976 -3.60199 -1.54155 0
M  V30 4776 H 467.673 -3.82083 -1.21712 0
M  V30 4777 H 464.263 -4.28372 0.13976 0
M  V30 4778 H 468.447 -4.87683 0.920801 0
M  V30 4779 H 463.703 -5.77289 2.01364 0
M  V30 4780 H 467.877 -6.37955 2.7926 0
M  V30 4781 H 465.504 -6.82653 3.34499 0
M  V30 4782 N 467.08 -0.0183926 -1.57589 0
M  V30 4783 C 468.308 0.673046 -1.95647 0
M  V30 4784 C 468.723 1.66275 -0.894312 0
M  V30 4785 O 468.08 1.82072 0.124975 0
M  V30 4786 C 468.131 1.38884 -3.33756 0
M  V30 4787 O 467.852 0.438806 -4.35897 0
M  V30 4788 C 469.353 2.1731 -3.86383 0
M  V30 4789 H 466.573 0.186292 -0.644621 0
M  V30 4790 H 469.117 -0.0749748 -2.04363 0
M  V30 4791 H 467.272 2.08835 -3.26293 0
M  V30 4792 H 467.686 0.945869 -5.15901 0
M  V30 4793 H 469.16 2.62863 -4.85394 0
M  V30 4794 H 469.637 3.00764 -3.20059 0
M  V30 4795 H 470.243 1.52339 -3.97081 0
M  V30 4796 N 468.558 1.5553 0.254621 0
M  V30 4797 C 469.804 1.77262 0.985193 0
M  V30 4798 C 470.137 0.582286 1.85265 0
M  V30 4799 O 469.412 -0.419666 1.89919 0
M  V30 4800 C 469.695 3.0881 1.85225 0
M  V30 4801 C 469.548 4.38233 1.0135 0
M  V30 4802 C 470.867 3.3653 2.83612 0
M  V30 4803 H 467.986 0.644906 0.356742 0
M  V30 4804 H 470.628 1.88264 0.256236 0
M  V30 4805 H 468.778 2.99562 2.47376 0
M  V30 4806 H 470.45 4.59463 0.411269 0
M  V30 4807 H 468.693 4.32636 0.317574 0
M  V30 4808 H 469.364 5.26644 1.65379 0
M  V30 4809 H 471.84 3.45691 2.31596 0
M  V30 4810 H 470.716 4.29805 3.41407 0
M  V30 4811 H 470.977 2.57064 3.59681 0
M  V30 4812 N 470.036 -0.519951 1.48776 0
M  V30 4813 C 471.313 -1.28123 1.47797 0
M  V30 4814 C 471.693 -2.10196 0.195157 0
M  V30 4815 O 471.041 -2.13167 -0.822925 0
M  V30 4816 C 471.251 -2.15413 2.74587 0
M  V30 4817 C 472.599 -2.75225 3.23321 0
M  V30 4818 O 473.623 -2.25694 2.75574 0
M  V30 4819 O 472.482 -3.65346 4.06429 0
M  V30 4820 H 469.576 -0.578793 0.590701 0
M  V30 4821 H 472.122 -0.535779 1.6102 0
M  V30 4822 H 470.894 -1.54617 3.59457 0
M  V30 4823 H 470.517 -2.97186 2.64132 0
M  V30 4824 N 471.514 -1.37532 -0.769588 0
M  V30 4825 C 472.477 -1.33292 -1.86456 0
M  V30 4826 C 473.477 -0.236537 -1.59051 0
M  V30 4827 O 474.667 -0.492511 -1.67093 0
M  V30 4828 C 471.799 -1.07118 -3.23633 0
M  V30 4829 H 472.992 -2.30692 -1.91628 0
M  V30 4830 H 470.545 -1.22593 -0.969572 0
M  V30 4831 H 471.28 -0.102578 -3.24138 0
M  V30 4832 H 471.065 -1.86479 -3.44917 0
M  V30 4833 H 472.555 -1.06806 -4.03711 0
M  V30 4834 N 472.992 0.995999 -1.22138 0
M  V30 4835 C 473.955 2.06711 -0.990109 0
M  V30 4836 C 474.955 1.60744 0.0422978 0
M  V30 4837 O 476.145 1.73095 -0.195895 0
M  V30 4838 C 473.277 3.37288 -0.49491 0
M  V30 4839 H 474.47 2.28661 -1.94047 0
M  V30 4840 H 472.023 1.16711 -1.03963 0
M  V30 4841 H 472.758 3.21022 0.459948 0
M  V30 4842 H 472.543 3.71986 -1.23971 0
M  V30 4843 H 474.033 4.16103 -0.353253 0
M  V30 4844 N 474.47 1.03057 1.19235 0
M  V30 4845 C 475.719 0.72326 1.88287 0
M  V30 4846 C 476.032 -0.751333 1.80594 0
M  V30 4847 O 477.238 -1.17176 2.44912 0
M  V30 4848 C 475.694 1.24338 3.3774 0
M  V30 4849 C 475.302 2.74587 3.53986 0
M  V30 4850 C 477.046 1.01213 4.12257 0
M  V30 4851 C 474.953 3.20009 4.97341 0
M  V30 4852 H 473.883 0.266848 0.705201 0
M  V30 4853 H 476.534 1.24509 1.34795 0
M  V30 4854 H 474.916 0.649457 3.90638 0
M  V30 4855 H 476.09 3.39649 3.11408 0
M  V30 4856 H 474.405 2.9601 2.9286 0
M  V30 4857 H 477.002 1.32675 5.17978 0
M  V30 4858 H 477.345 -0.051001 4.16269 0
M  V30 4859 H 477.878 1.57014 3.65501 0
M  V30 4860 H 474.617 4.25659 4.98493 0
M  V30 4861 H 474.137 2.59676 5.40674 0
M  V30 4862 H 475.816 3.13447 5.66003 0
M  V30 4863 N 475.948 -1.35272 0.808662 0
M  V30 4864 C 476.911 -2.28082 0.226093 0
M  V30 4865 C 477.911 -1.49673 -0.587762 0
M  V30 4866 O 479.101 -1.69404 -0.405943 0
M  V30 4867 C 476.233 -3.33955 -0.684596 0
M  V30 4868 H 477.426 -2.81116 1.04469 0
M  V30 4869 H 474.979 -1.45162 0.579466 0
M  V30 4870 H 475.714 -2.86111 -1.5268 0
M  V30 4871 H 475.499 -3.91965 -0.102699 0
M  V30 4872 H 476.989 -4.03219 -1.08646 0
M  V30 4873 N 477.426 -0.562348 -1.47226 0
M  V30 4874 C 478.373 0.182461 -2.30078 0
M  V30 4875 C 479.343 0.903503 -1.39377 0
M  V30 4876 O 480.528 0.898188 -1.68337 0
M  V30 4877 C 477.668 1.20322 -3.23445 0
M  V30 4878 C 476.781 0.487717 -4.29238 0
M  V30 4879 C 475.916 1.49422 -5.09752 0
M  V30 4880 C 474.955 0.763976 -6.07314 0
M  V30 4881 N 474.092 1.71755 -6.80768 0
M  V30 4882 H 478.932 -0.530169 -2.93246 0
M  V30 4883 H 476.469 -0.273276 -1.44539 0
M  V30 4884 H 478.427 1.80768 -3.76004 0
M  V30 4885 H 477.057 1.88382 -2.6213 0
M  V30 4886 H 476.109 -0.231374 -3.79696 0
M  V30 4887 H 477.421 -0.0841003 -4.98729 0
M  V30 4888 H 476.575 2.17206 -5.66486 0
M  V30 4889 H 475.314 2.09995 -4.40174 0
M  V30 4890 H 474.319 0.0722344 -5.49753 0
M  V30 4891 H 475.544 0.16391 -6.78902 0
M  V30 4892 H 473.49 2.31177 -6.13916 0
M  V30 4893 H 473.407 1.19802 -7.46447 0
M  V30 4894 H 474.675 2.38638 -7.42073 0
M  V30 4895 N 478.904 1.54736 -0.299062 0
M  V30 4896 C 480.32 1.59507 0.0543849 0
M  V30 4897 C 480.52 1.31606 1.52585 0
M  V30 4898 O 479.576 1.08853 2.27832 0
M  V30 4899 C 480.889 2.98751 -0.34181 0
M  V30 4900 C 482.437 3.1165 -0.290414 0
M  V30 4901 C 482.912 4.53199 -0.661402 0
M  V30 4902 N 484.403 4.59114 -0.613863 0
M  V30 4903 C 485.138 5.66709 -0.873417 0
M  V30 4904 N 484.634 6.82349 -1.19884 0
M  V30 4905 N 486.427 5.56369 -0.800608 0
M  V30 4906 H 478.578 1.71133 -1.25806 0
M  V30 4907 H 480.841 0.799186 -0.509908 0
M  V30 4908 H 480.547 3.24085 -1.36608 0
M  V30 4909 H 480.421 3.75961 0.305508 0
M  V30 4910 H 482.808 2.86066 0.724605 0
M  V30 4911 H 482.889 2.366 -0.972327 0
M  V30 4912 H 482.533 4.79513 -1.67422 0
M  V30 4913 H 482.463 5.26583 0.0425612 0
M  V30 4914 H 484.954 3.76053 -0.3732 0
M  V30 4915 H 485.267 7.60326 -1.38291 0
M  V30 4916 H 483.612 6.83906 -1.23685 0
M  V30 4917 H 486.803 4.64904 -0.546045 0
M  V30 4918 H 486.976 6.40139 -1.00626 0
M  V30 4919 N 480.382 0.0267497 1.57577 0
M  V30 4920 C 481.628 -0.653371 1.91987 0
M  V30 4921 C 481.961 -1.71915 0.903263 0
M  V30 4922 O 481.236 -1.94358 -0.0743387 0
M  V30 4923 C 481.519 -1.272 3.36886 0
M  V30 4924 C 481.372 -0.215938 4.49281 0
M  V30 4925 C 482.691 -2.19069 3.81703 0
M  V30 4926 H 479.81 -0.236047 0.698177 0
M  V30 4927 H 482.452 0.0835236 1.89816 0
M  V30 4928 H 480.602 -1.90005 3.38866 0
M  V30 4929 H 482.274 0.41449 4.59434 0
M  V30 4930 H 480.517 0.458855 4.31366 0
M  V30 4931 H 481.188 -0.688347 5.47691 0
M  V30 4932 H 483.664 -1.66253 3.81444 0
M  V30 4933 H 482.54 -2.59307 4.83788 0
M  V30 4934 H 482.801 -3.08087 3.17072 0
M  V30 4935 N 481.861 -1.55662 -0.24637 0
M  V30 4936 C 482.824 -1.89558 -1.28842 0
M  V30 4937 C 483.824 -0.772082 -1.41052 0
M  V30 4938 O 485.014 -1.04007 -1.39743 0
M  V30 4939 C 482.146 -2.12449 -2.66605 0
M  V30 4940 H 483.339 -2.82735 -1.00004 0
M  V30 4941 H 480.892 -1.48562 -0.485684 0
M  V30 4942 H 481.627 -1.21742 -3.00582 0
M  V30 4943 H 481.412 -2.94273 -2.59125 0
M  V30 4944 H 482.902 -2.39854 -3.41847 0
M  V30 4945 N 483.339 0.512053 -1.4905 0
M  V30 4946 C 484.564 1.2959 -1.6193 0
M  V30 4947 C 484.989 1.85906 -0.286454 0
M  V30 4948 O 484.347 1.65312 0.744426 0
M  V30 4949 C 484.395 2.40987 -2.68249 0
M  V30 4950 O 483.499 3.44531 -2.26654 0
M  V30 4951 H 482.84 0.383053 -0.542371 0
M  V30 4952 H 485.37 0.614231 -1.95162 0
M  V30 4953 H 485.38 2.86913 -2.90078 0
M  V30 4954 H 484.055 1.99361 -3.65004 0
M  V30 4955 H 482.632 3.046 -2.15112 0
M  V30 4956 N 484.817 1.37938 0.762283 0
M  V30 4957 C 486.094 1.24196 1.51112 0
M  V30 4958 C 486.474 -0.160409 2.1049 0
M  V30 4959 O 485.822 -1.16904 1.96331 0
M  V30 4960 C 486.032 2.34537 2.58445 0
M  V30 4961 C 487.38 2.7254 3.25588 0
M  V30 4962 O 488.404 2.33783 2.68745 0
M  V30 4963 O 487.263 3.39343 4.28379 0
M  V30 4964 H 484.357 0.485175 0.669727 0
M  V30 4965 H 486.903 1.49743 0.798438 0
M  V30 4966 H 485.675 3.28406 2.12756 0
M  V30 4967 H 485.298 2.10505 3.37303 0
M  V30 4968 N 486.295 -0.989507 1.22664 0
M  V30 4969 C 487.541 -1.7321 1.05481 0
M  V30 4970 C 487.874 -1.89852 -0.408635 0
M  V30 4971 O 487.149 -1.44416 -1.30285 0
M  V30 4972 C 487.432 -3.1357 1.77047 0
M  V30 4973 C 487.285 -3.04555 3.31008 0
M  V30 4974 C 488.604 -4.12812 1.5256 0
M  V30 4975 H 485.723 -0.628697 0.384589 0
M  V30 4976 H 488.365 -1.15258 1.51049 0
M  V30 4977 H 486.515 -3.63046 1.3831 0
M  V30 4978 H 488.187 -2.62674 3.7921 0
M  V30 4979 H 486.43 -2.41278 3.6051 0
M  V30 4980 H 487.101 -4.03894 3.76263 0
M  V30 4981 H 489.577 -3.72106 1.86215 0
M  V30 4982 H 488.453 -5.09132 2.05124 0
M  V30 4983 H 488.714 -4.39711 0.458936 0
M  V30 4984 N 487.773 -1.03688 -1.18687 0
M  V30 4985 C 488.736 -0.629115 -2.20397 0
M  V30 4986 C 489.736 0.311495 -1.57754 0
M  V30 4987 O 490.926 0.0974107 -1.73927 0
M  V30 4988 C 488.058 0.0782231 -3.4081 0
M  V30 4989 H 489.251 -1.52915 -2.57987 0
M  V30 4990 H 486.804 -0.828988 -1.32505 0
M  V30 4991 H 487.539 0.992233 -3.08748 0
M  V30 4992 H 487.324 -0.597776 -3.87517 0
M  V30 4993 H 488.814 0.350156 -4.16129 0
M  V30 4994 N 489.251 1.34841 -0.815825 0
M  V30 4995 C 490.184 2.27504 -0.178062 0
M  V30 4996 C 491.162 1.48542 0.661373 0
M  V30 4997 O 492.346 1.77779 0.626653 0
M  V30 4998 C 489.473 3.30246 0.752002 0
M  V30 4999 C 488.519 4.26499 -0.00899172 0
M  V30 5000 S 489.352 5.18169 -1.35134 0
M  V30 5001 C 490.508 6.24449 -0.42596 0
M  V30 5002 H 490.741 2.81248 -0.963684 0
M  V30 5003 H 488.274 1.41781 -0.611355 0
M  V30 5004 H 490.232 3.89933 1.28308 0
M  V30 5005 H 488.893 2.75363 1.51109 0
M  V30 5006 H 488.086 4.99146 0.697766 0
M  V30 5007 H 487.688 3.7103 -0.470396 0
M  V30 5008 H 489.98 6.76404 0.385234 0
M  V30 5009 H 490.923 6.99156 -1.1219 0
M  V30 5010 H 491.331 5.64497 -0.0175461 0
M  V30 5011 N 490.729 0.570148 1.46925 0
M  V30 5012 C 492.145 0.23087 1.57921 0
M  V30 5013 C 492.345 -1.26676 1.56702 0
M  V30 5014 O 491.401 -2.04774 1.47729 0
M  V30 5015 C 492.714 0.868973 2.8787 0
M  V30 5016 C 494.262 0.841397 3.01479 0
M  V30 5017 C 494.737 1.45881 4.34146 0
M  V30 5018 N 496.228 1.42258 4.40814 0
M  V30 5019 C 496.963 1.8698 5.42057 0
M  V30 5020 N 496.459 2.39618 6.50042 0
M  V30 5021 N 498.252 1.77972 5.33181 0
M  V30 5022 H 490.403 1.54301 1.45962 0
M  V30 5023 H 492.666 0.644224 0.69547 0
M  V30 5024 H 492.372 1.922 2.94537 0
M  V30 5025 H 492.246 0.369682 3.75384 0
M  V30 5026 H 494.633 -0.202973 2.94401 0
M  V30 5027 H 494.714 1.37858 2.15474 0
M  V30 5028 H 494.358 2.50231 4.4198 0
M  V30 5029 H 494.288 0.896958 5.18905 0
M  V30 5030 H 496.779 1.03768 3.63374 0
M  V30 5031 H 497.092 2.71633 7.23488 0
M  V30 5032 H 495.437 2.43636 6.50897 0
M  V30 5033 H 498.628 1.36617 4.4772 0
M  V30 5034 H 498.801 2.13143 6.11943 0
M  V30 5035 N 492.207 -1.54576 0.307264 0
M  V30 5036 C 493.453 -2.0056 -0.300612 0
M  V30 5037 C 493.786 -1.1953 -1.53057 0
M  V30 5038 O 493.061 -0.27337 -1.92569 0
M  V30 5039 C 493.344 -3.54167 -0.650987 0
M  V30 5040 C 493.197 -4.45933 0.588539 0
M  V30 5041 C 494.516 -4.14645 -1.47506 0
M  V30 5042 H 491.635 -0.729075 -0.107788 0
M  V30 5043 H 494.277 -1.85286 0.420606 0
M  V30 5044 H 492.427 -3.67313 -1.26544 0
M  V30 5045 H 494.099 -4.44683 1.22697 0
M  V30 5046 H 492.342 -4.16274 1.22058 0
M  V30 5047 H 493.013 -5.51189 0.299153 0
M  V30 5048 H 495.489 -4.04973 -0.955821 0
M  V30 5049 H 494.365 -5.22269 -1.68899 0
M  V30 5050 H 494.626 -3.66921 -2.4662 0
M  V30 5051 N 493.685 -0.035106 -1.57561 0
M  V30 5052 C 494.913 0.652258 -1.9635 0
M  V30 5053 C 495.328 1.65317 -0.911897 0
M  V30 5054 O 494.685 1.82194 0.105657 0
M  V30 5055 C 494.736 1.35337 -3.35211 0
M  V30 5056 O 494.457 0.392548 -4.36338 0
M  V30 5057 C 495.958 2.13199 -3.88666 0
M  V30 5058 H 493.178 0.179444 -0.646561 0
M  V30 5059 H 495.722 -0.0966459 -2.04271 0
M  V30 5060 H 493.877 2.05362 -3.28489 0
M  V30 5061 H 494.291 0.891097 -5.16875 0
M  V30 5062 H 495.765 2.577 -4.88154 0
M  V30 5063 H 496.242 2.97353 -3.23231 0
M  V30 5064 H 496.848 1.48118 -3.98674 0
M  V30 5065 N 495.163 1.55791 0.238111 0
M  V30 5066 C 496.391 1.82098 0.982233 0
M  V30 5067 C 496.806 0.612025 1.78605 0
M  V30 5068 O 496.163 -0.419381 1.77616 0
M  V30 5069 C 496.214 3.0673 1.91309 0
M  V30 5070 O 495.935 4.2296 1.14179 0
M  V30 5071 C 497.436 3.45903 2.77248 0
M  V30 5072 H 494.656 0.605748 0.288635 0
M  V30 5073 H 497.2 2.02862 0.258341 0
M  V30 5074 H 495.355 2.87991 2.59114 0
M  V30 5075 H 495.769 4.93653 1.7722 0
M  V30 5076 H 497.243 4.36189 3.38295 0
M  V30 5077 H 497.72 2.66891 3.48806 0
M  V30 5078 H 498.326 3.67024 2.14881 0
M  V30 5079 N 496.642 -0.504142 1.49319 0
M  V30 5080 C 497.552 -1.63248 1.68486 0
M  V30 5081 C 498.568 -1.64488 0.567432 0
M  V30 5082 O 499.744 -1.82966 0.841749 0
M  V30 5083 C 496.809 -2.99627 1.74426 0
M  V30 5084 C 495.87 -3.09039 2.97982 0
M  V30 5085 C 495.103 -4.38913 3.0363 0
M  V30 5086 O 495.326 -5.27528 2.16958 0
M  V30 5087 O 494.26 -4.53231 3.96062 0
M  V30 5088 H 498.086 -1.50008 2.64067 0
M  V30 5089 H 495.671 -0.680086 1.33023 0
M  V30 5090 H 497.553 -3.80689 1.80705 0
M  V30 5091 H 496.228 -3.13136 0.820233 0
M  V30 5092 H 495.135 -2.27177 2.97223 0
M  V30 5093 H 496.468 -3.00456 3.89855 0
M  V30 5094 N 498.12 -1.38341 -0.754957 0
M  V30 5095 C 499.083 -1.35262 -1.85032 0
M  V30 5096 C 500.083 -0.253393 -1.58791 0
M  V30 5097 O 501.273 -0.510205 -1.66561 0
M  V30 5098 C 498.405 -1.10544 -3.22479 0
M  V30 5099 H 499.598 -2.32712 -1.8917 0
M  V30 5100 H 497.151 -1.23614 -0.956515 0
M  V30 5101 H 497.886 -0.136952 -3.24011 0
M  V30 5102 H 497.671 -1.90127 -3.4292 0
M  V30 5103 H 499.161 -1.11082 -4.02555 0
M  V30 5104 N 499.598 0.982988 -1.23187 0
M  V30 5105 C 500.844 1.72648 -1.06398 0
M  V30 5106 C 501.177 1.90066 0.398561 0
M  V30 5107 O 500.452 1.45105 1.29518 0
M  V30 5108 C 500.735 3.12627 -1.78707 0
M  V30 5109 C 500.588 3.02795 -3.32618 0
M  V30 5110 C 501.907 4.11997 -1.54747 0
M  V30 5111 H 499.026 0.626649 -0.387918 0
M  V30 5112 H 501.668 1.14455 -1.51658 0
M  V30 5113 H 499.818 3.62308 -1.40234 0
M  V30 5114 H 501.49 2.60659 -3.80598 0
M  V30 5115 H 499.733 2.39362 -3.61785 0
M  V30 5116 H 500.404 4.01893 -3.78399 0
M  V30 5117 H 502.88 3.71114 -1.88186 0
M  V30 5118 H 501.756 5.08037 -2.07821 0
M  V30 5119 H 502.017 4.39462 -0.482249 0
M  V30 5120 N 501.076 1.04316 1.18135 0
M  V30 5121 C 502.008 0.594444 2.21357 0
M  V30 5122 C 503.021 -0.337215 1.59269 0
M  V30 5123 O 504.21 -0.131337 1.78016 0
M  V30 5124 C 501.31 -0.151251 3.38562 0
M  V30 5125 C 500.483 0.788907 4.30227 0
M  V30 5126 C 499.542 0.0860572 5.2613 0
M  V30 5127 O 498.568 0.717302 5.64662 0
M  V30 5128 N 499.77 -1.17969 5.68387 0
M  V30 5129 H 502.535 1.48227 2.60478 0
M  V30 5130 H 500.096 0.92396 1.32946 0
M  V30 5131 H 502.088 -0.631352 3.99745 0
M  V30 5132 H 500.658 -0.940639 2.98112 0
M  V30 5133 H 499.878 1.44882 3.6661 0
M  V30 5134 H 501.166 1.42738 4.88368 0
M  V30 5135 H 500.564 -1.71302 5.3914 0
M  V30 5136 H 499.121 -1.60402 6.31755 0
M  V30 5137 N 502.554 -1.34406 0.822964 0
M  V30 5138 C 503.803 -1.97542 0.407458 0
M  V30 5139 C 504.116 -1.65973 -1.035 0
M  V30 5140 O 505.322 -2.22598 -1.55442 0
M  V30 5141 C 503.778 -3.53463 0.677623 0
M  V30 5142 C 503.386 -3.93925 2.1337 0
M  V30 5143 C 505.13 -4.23229 0.328284 0
M  V30 5144 C 503.037 -5.42759 2.34876 0
M  V30 5145 H 501.967 -0.739207 0.148623 0
M  V30 5146 H 504.618 -1.53248 1.00932 0
M  V30 5147 H 503 -3.96 0.00558965 0
M  V30 5148 H 504.174 -3.62494 2.8449 0
M  V30 5149 H 502.489 -3.37097 2.44448 0
M  V30 5150 H 505.086 -5.32659 0.466794 0
M  V30 5151 H 505.429 -4.09899 -0.727224 0
M  V30 5152 H 505.962 -3.86169 0.954896 0
M  V30 5153 H 502.701 -5.61075 3.38932 0
M  V30 5154 H 502.221 -5.75704 1.68299 0
M  V30 5155 H 503.9 -6.0944 2.17236 0
M  V30 5156 N 504.032 -0.577932 -1.46621 0
M  V30 5157 C 505.279 -0.0616879 -2.02406 0
M  V30 5158 C 505.607 1.29638 -1.44997 0
M  V30 5159 O 504.862 1.86176 -0.60308 0
M  V30 5160 C 505.161 0.0590832 -3.57351 0
M  V30 5161 C 504.827 -1.23077 -4.33777 0
M  V30 5162 C 503.489 -1.58416 -4.54376 0
M  V30 5163 C 505.841 -2.08457 -4.77698 0
M  V30 5164 C 503.169 -2.78943 -5.16147 0
M  V30 5165 C 505.521 -3.28204 -5.408 0
M  V30 5166 C 504.185 -3.63832 -5.59627 0
M  V30 5167 H 503.455 -0.0225732 -0.740656 0
M  V30 5168 H 506.102 -0.753609 -1.76048 0
M  V30 5169 H 504.407 0.834104 -3.82818 0
M  V30 5170 H 506.104 0.474202 -3.98186 0
M  V30 5171 H 502.694 -0.945652 -4.18038 0
M  V30 5172 H 506.878 -1.82459 -4.61544 0
M  V30 5173 H 502.134 -3.06689 -5.28916 0
M  V30 5174 H 506.308 -3.94634 -5.73792 0
M  V30 5175 H 503.935 -4.57315 -6.07262 0
M  V30 5176 N 505.51 1.54411 -0.315457 0
M  V30 5177 C 506.758 2.00023 0.288971 0
M  V30 5178 C 507.079 1.20529 1.5329 0
M  V30 5179 O 506.349 0.304986 1.93511 0
M  V30 5180 H 504.929 0.738891 0.109766 0
M  V30 5181 H 507.591 1.90094 -0.430129 0
M  V30 5182 H 506.687 3.07198 0.550999 0
M  V30 5183 N 506.988 0.0434614 1.5754 0
M  V30 5184 C 508.236 -0.630786 1.92004 0
M  V30 5185 C 508.557 -1.71836 0.921807 0
M  V30 5186 O 507.827 -1.9587 -0.034522 0
M  V30 5187 H 506.407 -0.235988 0.708745 0
M  V30 5188 H 509.069 0.0946462 1.9467 0
M  V30 5189 H 508.165 -1.07434 2.93026 0
M  V30 5190 N 508.466 -1.55915 -0.229846 0
M  V30 5191 C 509.696 -1.82352 -0.971152 0
M  V30 5192 C 510.104 -0.619231 -1.7878 0
M  V30 5193 O 509.447 0.421597 -1.78797 0
M  V30 5194 C 509.509 -3.02399 -1.9441 0
M  V30 5195 C 509.173 -4.37739 -1.31277 0
M  V30 5196 C 510.17 -5.15074 -0.706757 0
M  V30 5197 C 507.855 -4.84454 -1.32702 0
M  V30 5198 C 509.849 -6.37281 -0.123413 0
M  V30 5199 C 507.536 -6.06605 -0.739831 0
M  V30 5200 C 508.534 -6.82858 -0.139071 0
M  V30 5201 O 508.222 -8.027 0.439007 0
M  V30 5202 H 507.954 -0.61035 -0.290601 0
M  V30 5203 H 510.508 -2.03839 -0.252746 0
M  V30 5204 H 508.738 -2.76709 -2.70128 0
M  V30 5205 H 510.427 -3.15779 -2.55026 0
M  V30 5206 H 511.193 -4.80093 -0.688131 0
M  V30 5207 H 507.072 -4.25081 -1.78402 0
M  V30 5208 H 510.616 -6.96741 0.346124 0
M  V30 5209 H 506.513 -6.4106 -0.755841 0
M  V30 5210 H 507.281 -8.17824 0.332521 0
M  V30 5211 N 509.944 0.496216 -1.49584 0
M  V30 5212 C 511.192 1.24756 -1.58998 0
M  V30 5213 C 511.513 1.92968 -0.280775 0
M  V30 5214 O 510.783 1.82959 0.700198 0
M  V30 5215 H 509.363 0.463471 -0.585836 0
M  V30 5216 H 512.025 0.574678 -1.86235 0
M  V30 5217 H 511.121 2.00895 -2.38847 0
M  V30 5218 N 511.423 1.38739 0.74761 0
M  V30 5219 C 512.653 1.3832 1.53464 0
M  V30 5220 C 513.061 -0.0273464 1.8918 0
M  V30 5221 O 512.404 -1.00588 1.53713 0
M  V30 5222 C 512.466 2.18007 2.85855 0
M  V30 5223 C 512.13 3.66762 2.72644 0
M  V30 5224 C 513.127 4.60124 2.42037 0
M  V30 5225 C 510.812 4.10193 2.89909 0
M  V30 5226 C 512.806 5.94897 2.28859 0
M  V30 5227 C 510.493 5.45045 2.7635 0
M  V30 5228 C 511.491 6.37211 2.45869 0
M  V30 5229 O 511.179 7.69581 2.3238 0
M  V30 5230 H 510.911 0.474718 0.481268 0
M  V30 5231 H 513.465 1.83012 0.932518 0
M  V30 5232 H 511.695 1.68043 3.48279 0
M  V30 5233 H 513.384 2.09921 3.47402 0
M  V30 5234 H 514.15 4.27874 2.28361 0
M  V30 5235 H 510.029 3.38797 3.1263 0
M  V30 5236 H 513.573 6.66802 2.04989 0
M  V30 5237 H 509.47 5.76889 2.89601 0
M  V30 5238 H 510.238 7.80169 2.47546 0
M  V30 5239 N 512.901 -0.976442 1.23707 0
M  V30 5240 C 514.126 -1.75875 1.09922 0
M  V30 5241 C 514.551 -1.84911 -0.34489 0
M  V30 5242 O 513.909 -1.31363 -1.24954 0
M  V30 5243 C 513.957 -3.16179 1.73388 0
M  V30 5244 O 513.061 -4.00124 0.99871 0
M  V30 5245 H 512.402 -0.540954 0.385052 0
M  V30 5246 H 514.932 -1.22546 1.6384 0
M  V30 5247 H 514.942 -3.66741 1.78788 0
M  V30 5248 H 513.617 -3.08917 2.78466 0
M  V30 5249 H 512.194 -3.58624 1.02193 0
M  V30 5250 N 514.379 -1.04941 -1.1758 0
M  V30 5251 C 515.289 -0.658826 -2.25159 0
M  V30 5252 C 516.305 0.318941 -1.71052 0
M  V30 5253 O 517.481 0.171669 -2.00667 0
M  V30 5254 C 514.546 -0.0369522 -3.4668 0
M  V30 5255 C 513.607 -1.06484 -4.15884 0
M  V30 5256 C 512.84 -0.472551 -5.31604 0
M  V30 5257 O 513.063 0.718736 -5.65854 0
M  V30 5258 O 511.997 -1.20557 -5.89703 0
M  V30 5259 H 515.823 -1.55533 -2.60851 0
M  V30 5260 H 513.408 -0.820819 -1.24832 0
M  V30 5261 H 515.29 0.308784 -4.20267 0
M  V30 5262 H 513.965 0.833238 -3.12792 0
M  V30 5263 H 512.872 -1.46253 -3.44327 0
M  V30 5264 H 514.205 -1.9061 -4.53794 0
M  V30 5265 N 515.857 1.33968 -0.830081 0
M  V30 5266 C 516.767 2.33164 -0.259207 0
M  V30 5267 C 517.783 1.62951 0.610164 0
M  V30 5268 O 518.959 1.94668 0.516369 0
M  V30 5269 C 516.024 3.42088 0.563598 0
M  V30 5270 C 515.085 4.28037 -0.329014 0
M  V30 5271 C 514.318 5.3176 0.454616 0
M  V30 5272 O 514.541 5.44876 1.6872 0
M  V30 5273 O 513.475 6.01669 -0.166794 0
M  V30 5274 H 517.301 2.83832 -1.08041 0
M  V30 5275 H 514.886 1.37154 -0.59239 0
M  V30 5276 H 516.768 4.08581 1.03147 0
M  V30 5277 H 515.443 2.93651 1.36201 0
M  V30 5278 H 514.35 3.64443 -0.844538 0
M  V30 5279 H 515.683 4.79934 -1.09196 0
M  V30 5280 N 517.335 0.585699 1.46312 0
M  V30 5281 C 518.565 0.0780166 2.06453 0
M  V30 5282 C 518.973 -1.2336 1.43454 0
M  V30 5283 O 518.316 -1.75734 0.535086 0
M  V30 5284 C 518.378 -0.158951 3.59148 0
M  V30 5285 C 518.042 1.06752 4.44357 0
M  V30 5286 C 519.039 1.98031 4.80708 0
M  V30 5287 C 516.724 1.2902 4.85447 0
M  V30 5288 C 518.718 3.09924 5.5698 0
M  V30 5289 C 516.405 2.41218 5.61478 0
M  V30 5290 C 517.403 3.31499 5.97158 0
M  V30 5291 O 517.091 4.41747 6.71651 0
M  V30 5292 H 516.823 0.0558894 0.673686 0
M  V30 5293 H 519.377 0.806994 1.88883 0
M  V30 5294 H 517.607 -0.942575 3.75037 0
M  V30 5295 H 519.296 -0.615513 4.01206 0
M  V30 5296 H 520.062 1.82043 4.49539 0
M  V30 5297 H 515.941 0.596567 4.57124 0
M  V30 5298 H 519.485 3.80415 5.84748 0
M  V30 5299 H 515.382 2.57167 5.9206 0
M  V30 5300 H 516.15 4.40152 6.90079 0
M  V30 5301 N 518.813 -1.54241 0.323641 0
M  V30 5302 C 520.224 -1.85975 -0.164405 0
M  V30 5303 C 520.575 -1.24529 -1.51615 0
M  V30 5304 O 519.7 -0.551351 -2.09258 0
M  V30 5305 C 520.295 -3.37424 -0.305091 0
M  V30 5306 C 518.854 -3.69107 -0.737358 0
M  V30 5307 C 518.001 -2.76942 0.140884 0
M  V30 5308 H 520.952 -1.49088 0.543922 0
M  V30 5309 H 520.973 -3.63147 -1.13598 0
M  V30 5310 H 520.485 -3.82116 0.678876 0
M  V30 5311 H 518.586 -3.29947 -1.73107 0
M  V30 5312 H 518.699 -4.76035 -0.541053 0
M  V30 5313 H 517.063 -2.51795 -0.383572 0
M  V30 5314 H 517.846 -3.24461 1.12162 0
M  V30 5315 N 520.291 -0.0518155 -1.57515 0
M  V30 5316 C 521.537 0.622745 -1.93002 0
M  V30 5317 C 521.87 1.70456 -0.930499 0
M  V30 5318 O 521.145 1.94452 0.0434086 0
M  V30 5319 C 521.428 1.21824 -3.38867 0
M  V30 5320 C 521.281 0.144434 -4.49568 0
M  V30 5321 C 522.6 2.12968 -3.8514 0
M  V30 5322 H 519.719 0.22491 -0.701844 0
M  V30 5323 H 522.361 -0.113711 -1.89659 0
M  V30 5324 H 520.511 1.8459 -3.41846 0
M  V30 5325 H 522.183 -0.48753 -4.58717 0
M  V30 5326 H 520.426 -0.527424 -4.30582 0
M  V30 5327 H 521.097 0.601127 -5.48717 0
M  V30 5328 H 523.573 1.60163 -3.8404 0
M  V30 5329 H 522.449 2.51578 -4.87852 0
M  V30 5330 H 522.71 3.03004 -3.21934 0
M  V30 5331 N 521.769 1.56035 0.221574 0
M  V30 5332 C 522.732 1.91584 1.2581 0
M  V30 5333 C 523.732 0.794425 1.39805 0
M  V30 5334 O 524.922 1.06217 1.38071 0
M  V30 5335 C 522.054 2.16663 2.63192 0
M  V30 5336 H 523.247 2.8429 0.954935 0
M  V30 5337 H 520.8 1.49316 0.461988 0
M  V30 5338 H 521.535 1.26508 2.98607 0
M  V30 5339 H 521.32 2.98358 2.5441 0
M  V30 5340 H 522.81 2.45262 3.37988 0
M  V30 5341 N 523.247 -0.488276 1.49845 0
M  V30 5342 C 524.663 -0.820566 1.3689 0
M  V30 5343 C 524.863 -1.97248 0.411752 0
M  V30 5344 O 523.919 -2.52042 -0.151931 0
M  V30 5345 C 525.232 -1.1488 2.77891 0
M  V30 5346 C 526.78 -1.25626 2.86683 0
M  V30 5347 C 527.255 -1.61772 4.28479 0
M  V30 5348 N 528.746 -1.68797 4.31349 0
M  V30 5349 C 529.481 -1.98235 5.38043 0
M  V30 5350 N 528.977 -2.2581 6.54967 0
M  V30 5351 N 530.77 -1.99593 5.2547 0
M  V30 5352 H 522.921 0.271123 2.10662 0
M  V30 5353 H 525.184 0.058735 0.946179 0
M  V30 5354 H 524.89 -0.375614 3.49688 0
M  V30 5355 H 524.764 -2.08919 3.14058 0
M  V30 5356 H 527.151 -2.02014 2.15114 0
M  V30 5357 H 527.232 -0.296072 2.54081 0
M  V30 5358 H 526.876 -0.859295 5.00578 0
M  V30 5359 H 526.806 -2.58912 4.58554 0
M  V30 5360 H 529.297 -1.49595 3.4703 0
M  V30 5361 H 529.61 -2.47497 7.32096 0
M  V30 5362 H 527.955 -2.23239 6.58171 0
M  V30 5363 H 531.146 -1.77535 4.33127 0
M  V30 5364 H 531.319 -2.222 6.08713 0
M  V30 5365 N 524.725 -1.39134 -0.740242 0
M  V30 5366 C 525.675 -1.33928 -1.84519 0
M  V30 5367 C 526.659 -0.221097 -1.59374 0
M  V30 5368 O 527.851 -0.458195 -1.70967 0
M  V30 5369 C 524.98 -1.17991 -3.22387 0
M  V30 5370 C 524.066 -2.34488 -3.53378 0
M  V30 5371 N 524.457 -3.59954 -3.5534 0
M  V30 5372 C 522.755 -2.27331 -3.83714 0
M  V30 5373 C 523.456 -4.36962 -3.83978 0
M  V30 5374 N 522.432 -3.66482 -4.01487 0
M  V30 5375 H 526.234 -2.28907 -1.84333 0
M  V30 5376 H 523.748 -1.32555 -0.938237 0
M  V30 5377 H 525.745 -1.12345 -4.01478 0
M  V30 5378 H 524.405 -0.23957 -3.23815 0
M  V30 5379 H 525.416 -3.93448 -3.36778 0
M  V30 5380 H 522.093 -1.41531 -3.92779 0
M  V30 5381 H 523.483 -5.45692 -3.92008 0
M  V30 5382 N 526.204 0.969867 -1.24223 0
M  V30 5383 C 527.137 2.06279 -0.975926 0
M  V30 5384 C 528.115 1.62353 0.0895385 0
M  V30 5385 O 529.299 1.88442 -0.0469418 0
M  V30 5386 C 526.426 3.35391 -0.472315 0
M  V30 5387 C 525.472 3.98266 -1.526 0
M  V30 5388 S 526.305 4.36172 -3.10667 0
M  V30 5389 C 527.461 5.68423 -2.62003 0
M  V30 5390 H 527.694 2.28551 -1.90137 0
M  V30 5391 H 525.227 1.10748 -1.07584 0
M  V30 5392 H 527.185 4.10068 -0.188376 0
M  V30 5393 H 525.846 3.1111 0.432378 0
M  V30 5394 H 525.039 4.91307 -1.12399 0
M  V30 5395 H 524.641 3.30009 -1.75983 0
M  V30 5396 H 526.933 6.45842 -2.0468 0
M  V30 5397 H 527.876 6.13478 -3.53625 0
M  V30 5398 H 528.284 5.26928 -2.02502 0
M  V30 5399 N 527.682 1.05563 1.17022 0
M  V30 5400 C 529.098 0.777684 1.39371 0
M  V30 5401 C 529.298 -0.626269 1.91521 0
M  V30 5402 O 528.354 -1.38806 2.10924 0
M  V30 5403 C 529.667 1.83642 2.3811 0
M  V30 5404 C 531.215 1.85907 2.51809 0
M  V30 5405 C 531.69 2.90813 3.53824 0
M  V30 5406 N 533.181 2.898 3.61345 0
M  V30 5407 C 533.916 3.6762 4.40049 0
M  V30 5408 N 533.412 4.55237 5.22237 0
M  V30 5409 N 535.205 3.56044 4.34959 0
M  V30 5410 H 527.356 1.9614 0.815047 0
M  V30 5411 H 529.619 0.849527 0.420722 0
M  V30 5412 H 529.325 2.84425 2.06871 0
M  V30 5413 H 529.199 1.6812 3.37662 0
M  V30 5414 H 531.586 0.857865 2.82356 0
M  V30 5415 H 531.667 2.05506 1.52318 0
M  V30 5416 H 531.311 3.91122 3.24015 0
M  V30 5417 H 531.241 2.68465 4.53028 0
M  V30 5418 H 533.732 2.26274 3.02669 0
M  V30 5419 H 534.045 5.11291 5.79484 0
M  V30 5420 H 532.39 4.59296 5.21605 0
M  V30 5421 H 535.581 2.86986 3.69806 0
M  V30 5422 H 535.754 4.16938 4.96051 0
M  V30 5423 N 529.16 -1.33526 0.837174 0
M  V30 5424 C 530.437 -1.92369 0.354065 0
M  V30 5425 C 530.817 -1.76348 -1.16038 0
M  V30 5426 O 530.165 -1.15083 -1.97403 0
M  V30 5427 C 530.375 -3.39728 0.799101 0
M  V30 5428 C 531.723 -4.16877 0.806139 0
M  V30 5429 O 532.747 -3.48373 0.742597 0
M  V30 5430 O 531.606 -5.39166 0.892345 0
M  V30 5431 H 528.7 -0.820952 0.0998378 0
M  V30 5432 H 531.246 -1.42409 0.922913 0
M  V30 5433 H 530.018 -3.45254 1.84162 0
M  V30 5434 H 529.641 -3.97062 0.206731 0
M  V30 5435 N 530.638 -0.59345 -1.46 0
M  V30 5436 C 531.601 0.123538 -2.28867 0
M  V30 5437 C 532.601 0.808628 -1.38989 0
M  V30 5438 O 533.791 0.658945 -1.61256 0
M  V30 5439 C 530.923 1.1847 -3.19653 0
M  V30 5440 H 532.116 -0.604843 -2.93737 0
M  V30 5441 H 529.669 -0.351875 -1.52288 0
M  V30 5442 H 530.404 1.94431 -2.59552 0
M  V30 5443 H 530.189 0.69783 -3.8584 0
M  V30 5444 H 531.679 1.68726 -3.81997 0
M  V30 5445 N 532.116 1.54067 -0.331816 0
M  V30 5446 C 533.063 2.24623 0.530372 0
M  V30 5447 C 534.033 1.24009 1.10503 0
M  V30 5448 O 535.218 1.52712 1.14384 0
M  V30 5449 C 532.358 3.01374 1.68129 0
M  V30 5450 C 531.471 4.16821 1.13507 0
M  V30 5451 C 530.606 4.81085 2.25234 0
M  V30 5452 C 529.645 5.88621 1.67903 0
M  V30 5453 N 528.782 6.46713 2.73326 0
M  V30 5454 H 533.622 2.97898 -0.0778607 0
M  V30 5455 H 531.159 1.47014 -0.0501965 0
M  V30 5456 H 533.117 3.44125 2.35868 0
M  V30 5457 H 531.747 2.30419 2.26069 0
M  V30 5458 H 530.799 3.78796 0.348979 0
M  V30 5459 H 532.111 4.94203 0.675633 0
M  V30 5460 H 531.265 5.26846 3.00862 0
M  V30 5461 H 530.004 4.03102 2.74518 0
M  V30 5462 H 529.009 5.42254 0.907773 0
M  V30 5463 H 530.234 6.68506 1.19487 0
M  V30 5464 H 528.18 5.71599 3.21886 0
M  V30 5465 H 528.097 7.19532 2.3197 0
M  V30 5466 H 529.365 6.97129 3.48758 0
M  V30 5467 N 533.594 0.0601682 1.57485 0
M  V30 5468 C 534.843 -0.611101 1.9222 0
M  V30 5469 C 535.156 -1.71469 0.941159 0
M  V30 5470 O 536.362 -2.44473 1.18089 0
M  V30 5471 C 534.818 -1.13832 3.41424 0
M  V30 5472 C 534.426 -0.0663596 4.47951 0
M  V30 5473 C 536.17 -1.78432 3.85178 0
M  V30 5474 C 534.077 -0.606965 5.88277 0
M  V30 5475 H 533.007 -0.232033 0.71741 0
M  V30 5476 H 535.658 0.130518 1.83035 0
M  V30 5477 H 534.04 -1.93254 3.45643 0
M  V30 5478 H 535.214 0.707682 4.55333 0
M  V30 5479 H 533.529 0.482715 4.13593 0
M  V30 5480 H 536.126 -2.1989 4.87394 0
M  V30 5481 H 536.469 -2.63966 3.21913 0
M  V30 5482 H 537.002 -1.05651 3.83514 0
M  V30 5483 H 533.741 0.21095 6.5516 0
M  V30 5484 H 533.261 -1.34879 5.84438 0
M  V30 5485 H 534.94 -1.08704 6.37803 0
M  V30 5486 N 535.072 -1.5615 -0.213296 0
M  V30 5487 C 536.3 -1.83638 -0.953139 0
M  V30 5488 C 536.715 -0.640362 -1.77609 0
M  V30 5489 O 536.072 0.391071 -1.78261 0
M  V30 5490 C 536.123 -3.09735 -1.86405 0
M  V30 5491 O 535.844 -4.24723 -1.07435 0
M  V30 5492 C 537.345 -3.5027 -2.71709 0
M  V30 5493 H 534.565 -0.610263 -0.278962 0
M  V30 5494 H 537.109 -2.03247 -0.226035 0
M  V30 5495 H 535.264 -2.92077 -2.545 0
M  V30 5496 H 535.678 -4.9641 -1.69343 0
M  V30 5497 H 537.152 -4.41515 -3.31313 0
M  V30 5498 H 537.629 -2.72406 -3.44516 0
M  V30 5499 H 538.235 -3.70396 -2.09015 0
M  V30 5500 N 536.55 0.480323 -1.50102 0
M  V30 5501 C 537.482 1.59669 -1.64433 0
M  V30 5502 C 538.495 1.54063 -0.52615 0
M  V30 5503 O 539.684 1.59619 -0.798992 0
M  V30 5504 C 536.784 2.98527 -1.6042 0
M  V30 5505 C 535.957 3.291 -2.88117 0
M  V30 5506 C 535.016 4.47468 -2.76873 0
M  V30 5507 O 534.042 4.4823 -3.50825 0
M  V30 5508 N 535.244 5.48593 -1.89806 0
M  V30 5509 H 538.009 1.47795 -2.60723 0
M  V30 5510 H 535.57 0.66858 -1.4745 0
M  V30 5511 H 537.562 3.75666 -1.50523 0
M  V30 5512 H 536.132 3.04218 -0.719036 0
M  V30 5513 H 535.352 2.40662 -3.12211 0
M  V30 5514 H 536.64 3.46334 -3.72734 0
M  V30 5515 H 536.038 5.50791 -1.2902 0
M  V30 5516 H 534.595 6.24752 -1.85819 0
M  V30 5517 N 538.028 1.39524 0.732853 0
M  V30 5518 C 539.277 1.36175 1.48792 0
M  V30 5519 C 539.59 -0.0388195 1.95561 0
M  V30 5520 O 540.796 -0.194899 2.708 0
M  V30 5521 C 539.252 2.39242 2.68871 0
M  V30 5522 C 538.86 3.85024 2.29042 0
M  V30 5523 C 540.604 2.44972 3.46683 0
M  V30 5524 C 538.511 4.79727 3.45856 0
M  V30 5525 H 537.441 0.506267 0.558757 0
M  V30 5526 H 540.092 1.65181 0.799226 0
M  V30 5527 H 538.474 2.0331 3.39825 0
M  V30 5528 H 539.648 4.30008 1.6562 0
M  V30 5529 H 537.963 3.82609 1.64316 0
M  V30 5530 H 540.56 3.12918 4.33574 0
M  V30 5531 H 540.903 1.4749 3.89297 0
M  V30 5532 H 541.436 2.79808 2.82759 0
M  V30 5533 H 538.175 5.78479 3.08289 0
M  V30 5534 H 537.695 4.39421 4.08251 0
M  V30 5535 H 539.374 4.98731 4.12161 0
M  V30 5536 N 539.506 -0.963266 1.24736 0
M  V30 5537 C 540.736 -1.73913 1.11524 0
M  V30 5538 C 541.144 -1.86218 -0.334612 0
M  V30 5539 O 540.487 -1.3531 -1.24245 0
M  V30 5540 C 540.549 -3.17501 1.68622 0
M  V30 5541 C 540.213 -3.28655 3.17546 0
M  V30 5542 C 541.21 -3.13637 4.14642 0
M  V30 5543 C 538.895 -3.52753 3.5759 0
M  V30 5544 C 540.889 -3.2255 5.49764 0
M  V30 5545 C 538.576 -3.61303 4.92852 0
M  V30 5546 C 539.574 -3.46214 5.88748 0
M  V30 5547 O 539.262 -3.5443 7.2155 0
M  V30 5548 H 538.994 -0.552057 0.390139 0
M  V30 5549 H 541.548 -1.2177 1.65412 0
M  V30 5550 H 539.778 -3.70969 1.09172 0
M  V30 5551 H 541.467 -3.76914 1.50635 0
M  V30 5552 H 542.233 -2.94899 3.85045 0
M  V30 5553 H 538.112 -3.63561 2.83451 0
M  V30 5554 H 541.656 -3.1069 6.24594 0
M  V30 5555 H 537.553 -3.79556 5.22118 0
M  V30 5556 H 538.321 -3.71116 7.29531 0
M  V30 5557 N 540.985 -1.06182 -1.16461 0
M  V30 5558 C 541.895 -0.682671 -2.24448 0
M  V30 5559 C 542.911 0.30078 -1.71381 0
M  V30 5560 O 544.087 0.150376 -2.00838 0
M  V30 5561 C 541.152 -0.0737202 -3.46622 0
M  V30 5562 C 540.213 -1.10889 -4.14731 0
M  V30 5563 C 539.446 -0.528908 -5.31073 0
M  V30 5564 O 539.669 0.65868 -5.66584 0
M  V30 5565 O 538.603 -1.26805 -5.88391 0
M  V30 5566 H 542.429 -1.58291 -2.59187 0
M  V30 5567 H 540.014 -0.834013 -1.23954 0
M  V30 5568 H 541.896 0.264192 -4.20571 0
M  V30 5569 H 540.571 0.800015 -3.13658 0
M  V30 5570 H 539.478 -1.49896 -3.42756 0
M  V30 5571 H 540.811 -1.95412 -4.51747 0
M  V30 5572 N 542.463 1.3308 -0.844243 0
M  V30 5573 C 543.711 1.97215 -0.441676 0
M  V30 5574 C 544.032 1.67185 1.0037 0
M  V30 5575 O 543.302 0.973588 1.69994 0
M  V30 5576 H 541.882 0.72959 -0.160335 0
M  V30 5577 H 544.544 1.62348 -1.07838 0
M  V30 5578 H 543.64 3.06698 -0.57815 0
M  V30 5579 N 543.941 0.601185 1.45683 0
M  V30 5580 C 545.169 0.100054 2.06658 0
M  V30 5581 C 545.584 -1.21285 1.44691 0
M  V30 5582 O 544.941 -1.73735 0.558772 0
M  V30 5583 C 544.992 -0.0528579 3.61461 0
M  V30 5584 O 544.713 1.20809 4.21114 0
M  V30 5585 C 546.214 -0.586193 4.39407 0
M  V30 5586 H 543.434 0.065905 0.667756 0
M  V30 5587 H 545.978 0.827101 1.87028 0
M  V30 5588 H 544.133 -0.730203 3.80456 0
M  V30 5589 H 544.547 1.03368 5.14213 0
M  V30 5590 H 546.021 -0.642297 5.4825 0
M  V30 5591 H 546.498 -1.60713 4.0874 0
M  V30 5592 H 547.104 0.0568935 4.25262 0
M  V30 5593 N 545.419 -1.53889 0.339982 0
M  V30 5594 C 546.367 -2.26391 -0.533822 0
M  V30 5595 C 547.361 -1.28404 -1.10493 0
M  V30 5596 O 548.567 -1.46124 -1.05108 0
M  V30 5597 H 544.942 -0.727385 -0.190828 0
M  V30 5598 H 546.913 -2.98233 0.0997484 0
M  V30 5599 C 545.662 -3.04707 -1.67479 0
M  V30 5600 H 544.985 -3.79934 -1.2446 0
M  V30 5601 H 546.425 -3.58657 -2.26144 0
M  V30 5602 C 544.884 -2.13989 -2.60212 0
M  V30 5603 O 545.414 -1.73361 -3.62366 0
M  V30 5604 N 543.62 -1.79141 -2.28816 0
M  V30 5605 H 543.167 -2.12378 -1.45785 0
M  V30 5606 H 543.125 -1.18725 -2.91121 0
M  V30 5607 N 546.897 -0.0685191 -1.57451 0
M  V30 5608 C 547.807 0.914677 -2.16034 0
M  V30 5609 C 548.823 1.32938 -1.12265 0
M  V30 5610 O 549.999 1.40275 -1.44516 0
M  V30 5611 C 547.064 2.16519 -2.70777 0
M  V30 5612 C 546.125 1.80721 -3.89408 0
M  V30 5613 C 545.358 2.9981 -4.41531 0
M  V30 5614 O 545.581 4.13727 -3.92666 0
M  V30 5615 O 544.515 2.79817 -5.32903 0
M  V30 5616 H 548.341 0.446364 -3.00402 0
M  V30 5617 H 545.926 0.154367 -1.486 0
M  V30 5618 H 547.808 2.89856 -3.05878 0
M  V30 5619 H 546.483 2.62454 -1.89471 0
M  V30 5620 H 545.39 1.04646 -3.59166 0
M  V30 5621 H 546.723 1.39571 -4.71997 0
M  V30 5622 N 548.375 1.56261 0.205012 0
M  V30 5623 C 549.621 1.80306 0.9283 0
M  V30 5624 C 549.954 0.640932 1.83319 0
M  V30 5625 O 549.229 -0.359032 1.91158 0
M  V30 5626 C 549.512 3.14547 1.75306 0
M  V30 5627 C 549.365 4.41236 0.873562 0
M  V30 5628 C 550.684 3.45382 2.72762 0
M  V30 5629 H 547.803 0.655929 0.336044 0
M  V30 5630 H 550.445 1.88984 0.196211 0
M  V30 5631 H 548.595 3.0728 2.37721 0
M  V30 5632 H 550.267 4.60539 0.264887 0
M  V30 5633 H 548.51 4.33427 0.179773 0
M  V30 5634 H 549.181 5.31639 1.48541 0
M  V30 5635 H 551.657 3.52884 2.20481 0
M  V30 5636 H 550.533 4.40449 3.2756 0
M  V30 5637 H 550.794 2.68377 3.51321 0
M  V30 5638 N 549.853 -0.472356 1.50355 0
M  V30 5639 C 550.785 -1.58795 1.65278 0
M  V30 5640 C 551.798 -1.53782 0.534313 0
M  V30 5641 O 552.987 -1.59193 0.807446 0
M  V30 5642 C 550.087 -2.97672 1.62001 0
M  V30 5643 C 549.26 -3.27568 2.89859 0
M  V30 5644 C 548.319 -4.45993 2.79242 0
M  V30 5645 O 547.345 -4.46364 3.53197 0
M  V30 5646 N 548.547 -5.47578 1.92713 0
M  V30 5647 H 551.312 -1.46411 2.61503 0
M  V30 5648 H 548.873 -0.660751 1.47803 0
M  V30 5649 H 550.865 -3.74862 1.52513 0
M  V30 5650 H 549.435 -3.03832 0.735159 0
M  V30 5651 H 548.655 -2.39003 3.13483 0
M  V30 5652 H 549.943 -3.44352 3.74565 0
M  V30 5653 H 549.341 -5.50099 1.31939 0
M  V30 5654 H 547.898 -6.23757 1.8913 0
M  V30 5655 N 551.331 -1.39911 -0.725443 0
M  V30 5656 C 552.261 -1.42138 -1.85254 0
M  V30 5657 C 553.242 -0.283513 -1.67721 0
M  V30 5658 O 554.427 -0.490717 -1.87898 0
M  V30 5659 C 551.557 -1.27354 -3.23107 0
M  V30 5660 C 550.511 -2.3864 -3.55296 0
M  V30 5661 C 549.837 -2.08939 -4.92188 0
M  V30 5662 C 551.137 -3.8097 -3.57295 0
M  V30 5663 H 552.831 -2.36461 -1.83648 0
M  V30 5664 H 550.377 -1.13817 -0.882138 0
M  V30 5665 H 552.33 -1.2753 -4.01639 0
M  V30 5666 H 551.054 -0.295025 -3.25265 0
M  V30 5667 H 549.713 -2.37696 -2.79099 0
M  V30 5668 H 549.361 -1.09502 -4.90936 0
M  V30 5669 H 549.061 -2.83491 -5.14691 0
M  V30 5670 H 550.585 -2.10781 -5.73065 0
M  V30 5671 H 551.999 -3.8379 -4.25885 0
M  V30 5672 H 550.396 -4.5496 -3.9132 0
M  V30 5673 H 551.466 -4.11261 -2.5689 0
M  V30 5674 N 552.809 0.956637 -1.25245 0
M  V30 5675 C 553.742 2.05232 -0.99775 0
M  V30 5676 C 554.72 1.62439 0.0723137 0
M  V30 5677 O 555.904 1.88381 -0.066926 0
M  V30 5678 C 553.031 3.34871 -0.507861 0
M  V30 5679 C 552.077 3.96625 -1.56815 0
M  V30 5680 S 552.91 4.32853 -3.15276 0
M  V30 5681 C 554.066 5.65613 -2.68017 0
M  V30 5682 H 554.299 2.26521 -1.9255 0
M  V30 5683 H 551.832 1.09601 -1.08752 0
M  V30 5684 H 553.79 4.09845 -0.231858 0
M  V30 5685 H 552.451 3.11551 0.399356 0
M  V30 5686 H 551.644 4.90087 -1.17604 0
M  V30 5687 H 551.246 3.28124 -1.79473 0
M  V30 5688 H 553.538 6.43635 -2.11518 0
M  V30 5689 H 554.481 6.09693 -3.60112 0
M  V30 5690 H 554.889 5.24751 -2.0808 0
M  V30 5691 N 554.287 1.06798 1.15896 0
M  V30 5692 C 555.533 0.788934 1.86825 0
M  V30 5693 C 555.866 -0.683084 1.8179 0
M  V30 5694 O 555.141 -1.50086 1.23711 0
M  V30 5695 C 555.424 1.29065 3.36176 0
M  V30 5696 C 555.277 2.8268 3.49874 0
M  V30 5697 C 556.596 0.902655 4.30744 0
M  V30 5698 H 553.715 0.288066 0.678371 0
M  V30 5699 H 556.357 1.32479 1.36195 0
M  V30 5700 H 554.507 0.834806 3.79425 0
M  V30 5701 H 556.179 3.36511 3.15528 0
M  V30 5702 H 554.422 3.21157 2.91617 0
M  V30 5703 H 555.093 3.12852 4.54783 0
M  V30 5704 H 557.569 1.29535 3.95424 0
M  V30 5705 H 556.445 1.28111 5.3374 0
M  V30 5706 H 556.706 -0.191951 4.41683 0
M  V30 5707 N 555.766 -1.3263 0.851289 0
M  V30 5708 C 556.994 -2.01563 0.466899 0
M  V30 5709 C 557.409 -1.63996 -0.935447 0
M  V30 5710 O 556.766 -0.85957 -1.6099 0
M  V30 5711 C 556.817 -3.56613 0.592433 0
M  V30 5712 O 556.538 -3.92828 1.93954 0
M  V30 5713 C 558.039 -4.42818 0.206612 0
M  V30 5714 H 555.259 -0.645307 0.183902 0
M  V30 5715 H 557.803 -1.69285 1.1473 0
M  V30 5716 H 555.958 -3.87379 -0.0401936 0
M  V30 5717 H 556.372 -4.87545 1.9339 0
M  V30 5718 H 557.846 -5.50918 0.345462 0
M  V30 5719 H 558.323 -4.30844 -0.85264 0
M  V30 5720 H 558.929 -4.17434 0.814176 0
M  V30 5721 N 557.244 -0.608902 -1.45362 0
M  V30 5722 C 558.492 -0.104401 -2.0183 0
M  V30 5723 C 558.813 1.27007 -1.47967 0
M  V30 5724 O 558.083 1.83924 -0.674455 0
M  V30 5725 H 556.663 -0.0356042 -0.746151 0
M  V30 5726 H 559.325 -0.790596 -1.78145 0
M  V30 5727 H 558.421 -0.0551793 -3.12051 0
M  V30 5728 N 558.722 1.53707 -0.348139 0
M  V30 5729 C 559.97 2.00591 0.246478 0
M  V30 5730 C 560.291 1.23753 1.50699 0
M  V30 5731 O 559.561 0.345964 1.92821 0
M  V30 5732 H 558.141 0.741053 0.0940679 0
M  V30 5733 H 560.803 1.89139 -0.470354 0
M  V30 5734 H 559.899 3.08297 0.485714 0
M  V30 5735 N 560.2 0.0768682 1.57412 0
M  V30 5736 C 561.163 -0.873949 2.11884 0
M  V30 5737 C 562.163 -1.22301 1.04398 0
M  V30 5738 O 563.353 -1.15545 1.30365 0
M  V30 5739 C 560.485 -2.17575 2.62438 0
M  V30 5740 H 561.678 -0.401278 2.97203 0
M  V30 5741 H 559.231 -0.171904 1.55352 0
M  V30 5742 H 559.966 -2.69368 1.80587 0
M  V30 5743 H 559.751 -1.93534 3.41009 0
M  V30 5744 H 561.241 -2.85631 3.04639 0
M  V30 5745 N 561.678 -1.56367 -0.196722 0
M  V30 5746 C 562.608 -1.97442 -1.24655 0
M  V30 5747 C 563.589 -0.846147 -1.47561 0
M  V30 5748 O 564.774 -1.11035 -1.59326 0
M  V30 5749 C 561.904 -2.31253 -2.59112 0
M  V30 5750 C 560.858 -3.46804 -2.50821 0
M  V30 5751 C 560.184 -3.66286 -3.89536 0
M  V30 5752 C 561.484 -4.8104 -2.03465 0
M  V30 5753 H 563.178 -2.85388 -0.905216 0
M  V30 5754 H 560.724 -1.37304 -0.434002 0
M  V30 5755 H 562.677 -2.58583 -3.32736 0
M  V30 5756 H 561.401 -1.40188 -2.94983 0
M  V30 5757 H 560.06 -3.19563 -1.79653 0
M  V30 5758 H 559.708 -2.72555 -4.22756 0
M  V30 5759 H 559.408 -4.4402 -3.84864 0
M  V30 5760 H 560.932 -3.9599 -4.64784 0
M  V30 5761 H 562.346 -5.07411 -2.66846 0
M  V30 5762 H 560.743 -5.62232 -2.09798 0
M  V30 5763 H 561.813 -4.74732 -0.98781 0
M  V30 5764 N 563.156 0.464375 -1.50603 0
M  V30 5765 C 564.086 1.56944 -1.72889 0
M  V30 5766 C 565.067 1.59979 -0.577997 0
M  V30 5767 O 566.252 1.76138 -0.817855 0
M  V30 5768 C 563.382 2.95225 -1.8292 0
M  V30 5769 C 562.336 3.07056 -2.98162 0
M  V30 5770 C 561.662 4.47051 -2.93343 0
M  V30 5771 C 562.962 2.83648 -4.38567 0
M  V30 5772 H 564.656 1.38547 -2.65415 0
M  V30 5773 H 562.202 0.665082 -1.27721 0
M  V30 5774 H 564.155 3.72467 -1.97095 0
M  V30 5775 H 562.879 3.14793 -0.870209 0
M  V30 5776 H 561.538 2.32248 -2.83648 0
M  V30 5777 H 561.186 4.63547 -1.95276 0
M  V30 5778 H 560.886 4.55902 -3.70712 0
M  V30 5779 H 562.41 5.26304 -3.09575 0
M  V30 5780 H 563.824 3.50636 -4.53572 0
M  V30 5781 H 562.221 3.03937 -5.17438 0
M  V30 5782 H 563.291 1.79451 -4.50472 0
M  V30 5783 N 564.634 1.40294 0.718013 0
M  V30 5784 C 566.05 1.2227 1.02577 0
M  V30 5785 C 566.25 0.0961976 2.0127 0
M  V30 5786 O 565.306 -0.546695 2.46511 0
M  V30 5787 C 566.619 2.56348 1.57182 0
M  V30 5788 C 568.167 2.6334 1.69178 0
M  V30 5789 C 568.642 3.9768 2.27188 0
M  V30 5790 N 570.133 3.99409 2.34578 0
M  V30 5791 C 570.868 5.00141 2.8044 0
M  V30 5792 N 570.364 6.11268 3.26073 0
M  V30 5793 N 572.157 4.87511 2.79802 0
M  V30 5794 H 564.308 2.12304 0.0637899 0
M  V30 5795 H 566.571 0.943632 0.0909036 0
M  V30 5796 H 566.277 3.3942 0.921262 0
M  V30 5797 H 566.151 2.77266 2.55741 0
M  V30 5798 H 568.538 1.80641 2.33351 0
M  V30 5799 H 568.619 2.46255 0.692247 0
M  V30 5800 H 568.263 4.80817 1.63638 0
M  V30 5801 H 568.193 4.12093 3.27852 0
M  V30 5802 H 570.684 3.19162 2.02346 0
M  V30 5803 H 570.997 6.84023 3.59628 0
M  V30 5804 H 569.342 6.14837 3.24038 0
M  V30 5805 H 572.533 3.9979 2.43487 0
M  V30 5806 H 572.706 5.66158 3.15228 0
M  V30 5807 O 566.151 -0.859563 1.36725 0
M  V30 5808 H 566.842 -1.49937 1.22632 0
M  V30 END ATOM
M  V30 BEGIN BOND
M  V30 END BOND
M  V30 END CTAB
M  END
$$$$
