drugbank_target|Q06323 Proteasome activator complex subunit 1 (DB09130)
 OpenBabel12092121053D

  0  0  0     0  0            999 V3000
M  V30 BEGIN CTAB
M  V30 COUNTS 4080 4114 0 0 0
M  V30 BEGIN ATOM
M  V30 1 H -0.908 1.98254 -0.117106 0
M  V30 2 N 0 1.576 0 0
M  V30 3 C 0.933 2.03868 1.02534 0
M  V30 4 C 1.911 0.928543 1.3348 0
M  V30 5 O 3.095 1.19667 1.45644 0
M  V30 6 C 0.222 2.43627 2.35294 0
M  V30 7 C -0.732 3.65373 2.2001 0
M  V30 8 S 0.101 5.13292 1.52614 0
M  V30 9 C 1.257 5.56322 2.86805 0
M  V30 10 H 1.49 2.90518 0.631377 0
M  V30 11 H -0.977 1.52953 0.210867 0
M  V30 12 H 0.981 2.67203 3.11629 0
M  V30 13 H -0.358 1.57376 2.7183 0
M  V30 14 H -1.165 3.90944 3.18086 0
M  V30 15 H -1.563 3.418 1.51819 0
M  V30 16 H 0.729 5.58782 3.83104 0
M  V30 17 H 1.672 6.56266 2.65933 0
M  V30 18 H 2.08 4.83886 2.90714 0
M  V30 19 N 1.4781 -0.272755 1.55222 0
M  V30 20 C 2.4411 -1.32041 1.87344 0
M  V30 21 C 3.4411 -1.42342 0.74803 0
M  V30 22 O 4.6311 -1.41488 1.0162 0
M  V30 23 C 1.7631 -2.70173 2.07893 0
M  V30 24 H 2.9561 -1.04789 2.80997 0
M  V30 25 H 0.5091 -0.51083 1.47717 0
M  V30 26 H 1.2441 -3.02605 1.16622 0
M  V30 27 H 1.0291 -2.64082 2.89833 0
M  V30 28 H 2.5191 -3.45869 2.34017 0
M  V30 29 N 2.9562 -1.48159 -0.537278 0
M  V30 30 C 3.8892 -1.567 -1.65893 0
M  V30 31 C 4.8672 -0.41787 -1.57139 0
M  V30 32 O 6.0512 -0.628461 -1.77715 0
M  V30 33 C 3.1782 -1.48818 -3.04255 0
M  V30 34 C 2.2242 -2.68482 -3.31391 0
M  V30 35 S 3.0572 -4.30516 -3.1846 0
M  V30 36 C 4.2132 -4.2522 -4.59281 0
M  V30 37 H 4.4462 -2.5159 -1.58397 0
M  V30 38 H 1.9792 -1.36602 -0.719672 0
M  V30 39 H 3.9372 -1.44958 -3.84054 0
M  V30 40 H 2.5982 -0.552777 -3.09198 0
M  V30 41 H 1.7912 -2.59085 -4.32309 0
M  V30 42 H 1.3932 -2.69567 -2.59248 0
M  V30 43 H 3.6852 -3.94703 -5.5065 0
M  V30 44 H 4.6282 -5.26292 -4.73732 0
M  V30 45 H 5.0362 -3.55791 -4.38261 0
M  V30 46 N 4.4343 0.785586 -1.36625 0
M  V30 47 C 5.3643 1.91259 -1.33949 0
M  V30 48 C 6.3453 1.68795 -0.210325 0
M  V30 49 O 7.5303 1.89854 -0.408561 0
M  V30 50 C 4.6603 3.28339 -1.13186 0
M  V30 51 C 3.6143 3.65335 -2.22967 0
M  V30 52 C 2.9403 5.00806 -1.87342 0
M  V30 53 C 4.2403 3.7352 -3.65075 0
M  V30 54 H 5.9343 1.93755 -2.28253 0
M  V30 55 H 3.4803 0.930788 -1.09874 0
M  V30 56 H 5.4333 4.06804 -1.09948 0
M  V30 57 H 4.1573 3.2624 -0.153332 0
M  V30 58 H 2.8163 2.89169 -2.25337 0
M  V30 59 H 2.4643 4.95233 -0.880545 0
M  V30 60 H 2.1643 5.26529 -2.60846 0
M  V30 61 H 3.6883 5.81687 -1.85667 0
M  V30 62 H 5.1023 4.42168 -3.64911 0
M  V30 63 H 3.4993 4.10731 -4.37516 0
M  V30 64 H 4.5693 2.74527 -3.99703 0
M  V30 65 N 5.9124 1.20967 1.01018 0
M  V30 66 C 7.3284 0.965905 1.27053 0
M  V30 67 C 7.5284 -0.350785 1.98423 0
M  V30 68 O 6.5844 -1.07773 2.28344 0
M  V30 69 C 7.8974 2.15294 2.09926 0
M  V30 70 C 9.4454 2.19463 2.23171 0
M  V30 71 C 9.9204 3.3767 3.09424 0
M  V30 72 N 11.4114 3.37724 3.17012 0
M  V30 73 C 12.1464 4.25837 3.83993 0
M  V30 74 N 11.6424 5.24138 4.53047 0
M  V30 75 N 13.4354 4.1366 3.80581 0
M  V30 76 H 5.5864 2.0565 0.531194 0
M  V30 77 H 7.8494 0.90024 0.297106 0
M  V30 78 H 7.5554 3.10684 1.64828 0
M  V30 79 H 7.4294 2.13923 3.10672 0
M  V30 80 H 9.8164 1.24632 2.6749 0
M  V30 81 H 9.8974 2.2488 1.21912 0
M  V30 82 H 9.5414 4.32791 2.65808 0
M  V30 83 H 9.4714 3.29491 4.10784 0
M  V30 84 H 11.9624 2.6658 2.6785 0
M  V30 85 H 12.2754 5.87684 5.01844 0
M  V30 86 H 10.6204 5.28068 4.5185 0
M  V30 87 H 13.8114 3.36127 3.25785 0
M  V30 88 H 13.9844 4.82538 4.32505 0
M  V30 89 N 7.3905 -1.2043 1.01659 0
M  V30 90 C 8.6365 -1.90079 0.706963 0
M  V30 91 C 8.9695 -1.78648 -0.761474 0
M  V30 92 O 8.2445 -1.17069 -1.55323 0
M  V30 93 C 8.5275 -3.41469 1.14327 0
M  V30 94 C 8.3805 -3.61833 2.67201 0
M  V30 95 C 9.6995 -4.34261 0.714529 0
M  V30 96 H 6.8185 -0.690254 0.2583 0
M  V30 97 H 9.4605 -1.41826 1.26433 0
M  V30 98 H 7.6105 -3.82696 0.669056 0
M  V30 99 H 9.2825 -3.2986 3.22475 0
M  V30 100 H 7.5255 -3.05304 3.08175 0
M  V30 101 H 8.1965 -4.67955 2.92783 0
M  V30 102 H 10.6725 -4.00682 1.12221 0
M  V30 103 H 9.5485 -5.38806 1.04784 0
M  V30 104 H 9.8095 -4.40431 -0.383799 0
M  V30 105 N 8.8686 -0.792821 -1.36206 0
M  V30 106 C 9.8006 -0.151469 -2.28699 0
M  V30 107 C 10.8136 0.641262 -1.49638 0
M  V30 108 O 12.0026 0.475885 -1.72039 0
M  V30 109 C 9.1026 0.808424 -3.29117 0
M  V30 110 C 8.2756 0.0650202 -4.37352 0
M  V30 111 C 7.3346 0.941358 -5.17711 0
M  V30 112 O 6.3606 0.397352 -5.67811 0
M  V30 113 N 7.5626 2.2652 -5.3448 0
M  V30 114 H 10.3276 -0.945982 -2.84379 0
M  V30 115 H 7.8886 -0.647032 -1.48409 0
M  V30 116 H 9.8806 1.3986 -3.79765 0
M  V30 117 H 8.4506 1.5038 -2.74052 0
M  V30 118 H 7.6706 -0.706255 -3.87822 0
M  V30 119 H 8.9586 -0.447847 -5.06825 0
M  V30 120 H 8.3566 2.73128 -4.95396 0
M  V30 121 H 6.9136 2.80493 -5.88359 0
M  V30 122 N 10.3467 1.47872 -0.545128 0
M  V30 123 C 11.7577 1.86384 -0.108581 0
M  V30 124 C 12.1087 1.45309 1.31832 0
M  V30 125 O 11.2337 0.850641 1.9898 0
M  V30 126 C 11.8287 3.38265 -0.190274 0
M  V30 127 C 10.3877 3.75914 0.191164 0
M  V30 128 C 9.5347 2.71926 -0.543273 0
M  V30 129 H 12.4857 1.39561 -0.755537 0
M  V30 130 H 12.5067 3.75831 0.594217 0
M  V30 131 H 12.0187 3.6813 -1.2289 0
M  V30 132 H 10.1197 3.51665 1.23136 0
M  V30 133 H 10.2327 4.78836 -0.158987 0
M  V30 134 H 8.5967 2.54697 0.0122495 0
M  V30 135 H 9.3797 3.04634 -1.58282 0
M  V30 136 N 11.8248 0.280983 1.55075 0
M  V30 137 C 12.7348 -0.61388 2.26426 0
M  V30 138 C 13.7508 -1.16521 1.29224 0
M  V30 139 O 14.9268 -1.19426 1.62171 0
M  V30 140 C 11.9918 -1.7788 2.9759 0
M  V30 141 C 11.0528 -1.26355 4.10284 0
M  V30 142 C 10.2858 -2.37295 4.78045 0
M  V30 143 O 10.5088 -3.56777 4.45047 0
M  V30 144 O 9.4428 -2.05119 5.65871 0
M  V30 145 H 13.2688 -0.0356932 3.03679 0
M  V30 146 H 10.8538 0.0481686 1.49322 0
M  V30 147 H 12.7358 -2.45791 3.42293 0
M  V30 148 H 11.4108 -2.34397 2.23249 0
M  V30 149 H 10.3178 -0.550735 3.70024 0
M  V30 150 H 11.6508 -0.744065 4.86543 0
M  V30 151 N 13.3029 -1.57598 0.00835791 0
M  V30 152 C 14.2659 -2.07884 -0.965242 0
M  V30 153 C 15.2659 -0.989825 -1.26725 0
M  V30 154 O 16.4559 -1.25218 -1.21104 0
M  V30 155 C 13.5879 -2.52731 -2.28779 0
M  V30 156 H 14.7809 -2.95178 -0.530112 0
M  V30 157 H 12.3339 -1.54458 -0.239283 0
M  V30 158 H 13.0689 -1.68705 -2.76964 0
M  V30 159 H 12.8539 -3.32272 -2.08177 0
M  V30 160 H 14.3439 -2.91933 -2.98605 0
M  V30 161 N 14.781 0.264519 -1.55364 0
M  V30 162 C 15.713 1.34965 -1.85248 0
M  V30 163 C 16.726 1.45136 -0.737525 0
M  V30 164 O 17.915 1.46801 -1.01547 0
M  V30 165 C 15.015 2.73008 -2.00797 0
M  V30 166 C 14.188 2.85324 -3.31525 0
M  V30 167 C 13.247 4.04097 -3.37034 0
M  V30 168 O 12.273 3.94455 -4.10358 0
M  V30 169 N 13.475 5.16458 -2.65049 0
M  V30 170 H 16.24 1.09672 -2.78913 0
M  V30 171 H 13.801 0.454635 -1.55386 0
M  V30 172 H 15.793 3.50772 -2.01844 0
M  V30 173 H 14.363 2.91087 -1.1396 0
M  V30 174 H 13.583 1.94377 -3.42945 0
M  V30 175 H 14.871 2.9049 -4.17724 0
M  V30 176 H 14.269 5.27181 -2.05175 0
M  V30 177 H 12.826 5.92422 -2.71809 0
M  V30 178 N 16.2591 1.48442 0.529413 0
M  V30 179 C 17.2221 1.62524 1.61612 0
M  V30 180 C 18.2221 0.498509 1.52877 0
M  V30 181 O 19.4121 0.76431 1.56537 0
M  V30 182 C 16.5441 1.59597 3.01233 0
M  V30 183 H 17.7371 2.59423 1.50465 0
M  V30 184 H 15.2901 1.37047 0.751514 0
M  V30 185 H 16.0251 0.641781 3.17886 0
M  V30 186 H 15.8101 2.41397 3.08982 0
M  V30 187 H 17.3001 1.72646 3.80241 0
M  V30 188 N 17.7372 -0.778329 1.37039 0
M  V30 189 C 18.6842 -1.89139 1.32269 0
M  V30 190 C 19.6542 -1.65017 0.189387 0
M  V30 191 O 20.8392 -1.87024 0.377693 0
M  V30 192 C 17.9792 -3.26112 1.12894 0
M  V30 193 C 17.0922 -3.62233 2.35396 0
M  V30 194 C 16.2272 -4.8838 2.08946 0
M  V30 195 C 15.2662 -5.17212 3.2735 0
M  V30 196 N 14.4032 -6.34546 3.00492 0
M  V30 197 H 19.2432 -1.92552 2.27437 0
M  V30 198 H 16.7802 -0.941473 1.13025 0
M  V30 199 H 18.7382 -4.05116 0.996835 0
M  V30 200 H 17.3682 -3.22091 0.213758 0
M  V30 201 H 16.4202 -2.78265 2.5937 0
M  V30 202 H 17.7322 -3.79481 3.23721 0
M  V30 203 H 16.8862 -5.75274 1.92729 0
M  V30 204 H 15.6252 -4.73222 1.17949 0
M  V30 205 H 14.6302 -4.28796 3.44113 0
M  V30 206 H 15.8552 -5.34283 4.19188 0
M  V30 207 H 13.8012 -6.20759 2.12118 0
M  V30 208 H 13.7182 -6.52179 3.82358 0
M  V30 209 H 14.9862 -7.24394 2.87879 0
M  V30 210 N 19.2153 -1.21501 -1.00376 0
M  V30 211 C 20.4613 -1.03452 -1.74429 0
M  V30 212 C 20.7943 0.430764 -1.89362 0
M  V30 213 O 20.0693 1.31962 -1.42886 0
M  V30 214 C 20.3523 -1.73375 -3.15615 0
M  V30 215 C 20.2053 -3.27431 -3.08397 0
M  V30 216 C 21.5243 -1.47732 -4.14564 0
M  V30 217 H 18.6433 -0.377226 -0.633143 0
M  V30 218 H 21.2853 -1.49693 -1.17013 0
M  V30 219 H 19.4353 -1.34064 -3.64636 0
M  V30 220 H 21.1073 -3.76119 -2.67081 0
M  V30 221 H 19.3503 -3.5767 -2.45468 0
M  V30 222 H 20.0213 -3.71524 -4.08258 0
M  V30 223 H 22.4973 -1.8186 -3.74254 0
M  V30 224 H 21.3733 -1.99169 -5.11491 0
M  V30 225 H 21.6343 -0.407589 -4.40217 0
M  V30 226 N 20.6934 1.19889 -1.02296 0
M  V30 227 C 21.9704 1.85148 -0.630832 0
M  V30 228 C 22.3504 1.91385 0.890782 0
M  V30 229 O 21.6984 1.42642 1.78509 0
M  V30 230 C 21.9084 3.24442 -1.28602 0
M  V30 231 C 23.2564 4.00663 -1.4055 0
M  V30 232 O 24.2804 3.33818 -1.24273 0
M  V30 233 O 23.1394 5.20387 -1.66913 0
M  V30 234 H 20.2334 0.797613 -0.218499 0
M  V30 235 H 22.7794 1.27427 -1.12074 0
M  V30 236 H 21.5514 3.14704 -2.32545 0
M  V30 237 H 21.1744 3.89802 -0.7836 0
M  V30 238 N 22.1715 0.800033 1.35784 0
M  V30 239 C 23.4175 0.377901 1.99248 0
M  V30 240 C 23.7505 -1.05052 1.63333 0
M  V30 241 O 23.0255 -1.72768 0.893385 0
M  V30 242 C 23.3085 0.553922 3.55814 0
M  V30 243 C 23.1615 2.0268 4.01548 0
M  V30 244 C 24.4805 -0.0244802 4.40093 0
M  V30 245 H 21.5995 0.138782 0.723815 0
M  V30 246 H 24.2415 1.00835 1.61035 0
M  V30 247 H 22.3915 0.0172398 3.88496 0
M  V30 248 H 24.0635 2.62536 3.79305 0
M  V30 249 H 22.3065 2.5256 3.52698 0
M  V30 250 H 22.9775 2.10087 5.10458 0
M  V30 251 H 25.4535 0.433775 4.13833 0
M  V30 252 H 24.3295 0.128637 5.48749 0
M  V30 253 H 24.5905 -1.11758 4.27741 0
M  V30 254 N 23.6496 -1.47581 0.552962 0
M  V30 255 C 24.8966 -2.02482 0.0273243 0
M  V30 256 C 25.2246 -1.42776 -1.32081 0
M  V30 257 O 24.4796 -0.571393 -1.87173 0
M  V30 258 C 24.7786 -3.57199 -0.119728 0
M  V30 259 C 24.4446 -4.35804 1.15697 0
M  V30 260 C 23.1066 -4.57 1.50681 0
M  V30 261 C 25.4586 -4.81167 2.00319 0
M  V30 262 C 22.7866 -5.20807 2.70142 0
M  V30 263 C 25.1386 -5.46293 3.18978 0
M  V30 264 C 23.8026 -5.65722 3.54281 0
M  V30 265 H 23.0726 -0.740933 0.00999866 0
M  V30 266 H 25.7196 -1.77302 0.72362 0
M  V30 267 H 24.0246 -3.81348 -0.89896 0
M  V30 268 H 25.7216 -3.97324 -0.541718 0
M  V30 269 H 22.3116 -4.19582 0.874561 0
M  V30 270 H 26.4956 -4.64574 1.74599 0
M  V30 271 H 21.7516 -5.34045 2.97668 0
M  V30 272 H 25.9256 -5.80407 3.84838 0
M  V30 273 H 23.5526 -6.14936 4.46942 0
M  V30 274 N 25.1277 -0.289203 -1.54924 0
M  V30 275 C 26.5437 0.0645403 -1.59469 0
M  V30 276 C 26.7437 1.53419 -1.30632 0
M  V30 277 O 25.7997 2.2852 -1.074 0
M  V30 278 C 27.1127 -0.32278 -2.98963 0
M  V30 279 C 28.6607 -0.270564 -3.11828 0
M  V30 280 C 29.1357 -0.632532 -4.53611 0
M  V30 281 N 30.6267 -0.584617 -4.59496 0
M  V30 282 C 31.3617 -0.837314 -5.67254 0
M  V30 283 N 30.8577 -1.15536 -6.83098 0
M  V30 284 N 32.6507 -0.765166 -5.56868 0
M  V30 285 H 24.8017 -1.24714 -1.71931 0
M  V30 286 H 27.0647 -0.504809 -0.802416 0
M  V30 287 H 26.7707 -1.34541 -3.24948 0
M  V30 288 H 26.6447 0.32944 -3.75759 0
M  V30 289 H 29.0317 0.742805 -2.85598 0
M  V30 290 H 29.1127 -0.957242 -2.37214 0
M  V30 291 H 28.7567 -1.64365 -4.80569 0
M  V30 292 H 28.6867 0.07609 -5.26545 0
M  V30 293 H 31.1777 -0.349248 -3.76283 0
M  V30 294 H 31.4907 -1.33447 -7.61191 0
M  V30 295 H 29.8357 -1.19328 -6.84679 0
M  V30 296 H 33.0267 -0.516432 -4.65243 0
M  V30 297 H 33.1997 -0.965477 -6.40767 0
M  V30 298 N 26.6058 1.57591 -0.0167156 0
M  V30 299 C 27.5158 2.1291 0.98521 0
M  V30 300 C 28.5318 1.07834 1.36557 0
M  V30 301 O 29.7078 1.39826 1.44951 0
M  V30 302 C 26.7728 2.63512 2.25305 0
M  V30 303 C 25.8338 3.83256 1.93426 0
M  V30 304 C 25.0668 4.31435 3.14165 0
M  V30 305 O 25.2898 3.78851 4.26413 0
M  V30 306 O 24.2238 5.23416 2.97186 0
M  V30 307 H 28.0498 2.98772 0.544888 0
M  V30 308 H 25.6348 1.48012 0.203141 0
M  V30 309 H 27.5168 2.96183 2.99756 0
M  V30 310 H 26.1918 1.8074 2.68542 0
M  V30 311 H 25.0988 3.55531 1.16398 0
M  V30 312 H 26.4318 4.67153 1.55013 0
M  V30 313 N 28.0839 -0.256276 1.55502 0
M  V30 314 C 29.3609 -1.00789 1.67633 0
M  V30 315 C 29.7409 -2.03706 0.553826 0
M  V30 316 O 29.0889 -2.24145 -0.443969 0
M  V30 317 C 29.2989 -1.64968 3.07549 0
M  V30 318 C 30.6469 -2.15505 3.65845 0
M  V30 319 O 31.6709 -1.74925 3.1029 0
M  V30 320 O 30.5299 -2.89986 4.63217 0
M  V30 321 H 27.6239 -0.468553 0.681459 0
M  V30 322 H 30.1699 -0.250806 1.67836 0
M  V30 323 H 28.9419 -0.904785 3.80696 0
M  V30 324 H 28.5649 -2.47321 3.11317 0
M  V30 325 N 29.562 -1.4872 -0.521534 0
M  V30 326 C 30.492 -1.66771 -1.63431 0
M  V30 327 C 31.473 -0.516499 -1.62069 0
M  V30 328 O 32.658 -0.750013 -1.79132 0
M  V30 329 C 29.788 -1.71515 -3.01993 0
M  V30 330 C 28.742 -2.86222 -3.18216 0
M  V30 331 C 28.068 -2.76061 -4.57924 0
M  V30 332 C 29.368 -4.27419 -3.00184 0
M  V30 333 H 31.062 -2.59932 -1.48579 0
M  V30 334 H 28.608 -1.25089 -0.713358 0
M  V30 335 H 30.561 -1.82731 -3.7972 0
M  V30 336 H 29.285 -0.749393 -3.17886 0
M  V30 337 H 27.944 -2.74575 -2.42908 0
M  V30 338 H 27.592 -1.77437 -4.70665 0
M  V30 339 H 27.292 -3.53037 -4.69722 0
M  V30 340 H 28.816 -2.89256 -5.37739 0
M  V30 341 H 30.23 -4.39855 -3.67697 0
M  V30 342 H 28.627 -5.05458 -3.2347 0
M  V30 343 H 29.697 -4.43293 -1.96518 0
M  V30 344 N 31.0401 0.771051 -1.3745 0
M  V30 345 C 32.2801 1.54264 -1.34096 0
M  V30 346 C 32.6441 1.91858 0.0737639 0
M  V30 347 O 33.8451 2.67797 0.23203 0
M  V30 348 C 32.1161 2.77326 -2.25445 0
M  V30 349 S 33.6751 3.67383 -2.39948 0
M  V30 350 H 30.4931 0.528122 -0.476034 0
M  V30 351 H 33.0951 0.906633 -1.73206 0
M  V30 352 H 31.7991 2.47788 -3.27153 0
M  V30 353 H 31.3301 3.45886 -1.87421 0
M  V30 354 H 33.3451 4.69334 -1.61059 0
M  V30 355 N 32.5182 1.22032 0.997298 0
M  V30 356 C 33.7462 1.06841 1.7718 0
M  V30 357 C 34.1612 -0.381325 1.84909 0
M  V30 358 O 33.5182 -1.26437 1.31605 0
M  V30 359 C 33.5692 1.66814 3.20711 0
M  V30 360 O 33.2902 3.06116 3.13408 0
M  V30 361 C 34.7912 1.56838 4.14628 0
M  V30 362 H 32.0112 0.374782 0.556578 0
M  V30 363 H 34.5552 1.61532 1.2541 0
M  V30 364 H 32.7102 1.16196 3.69564 0
M  V30 365 H 33.1242 3.34926 4.0364 0
M  V30 366 H 34.5982 2.03532 5.13107 0
M  V30 367 H 35.0752 0.524155 4.36061 0
M  V30 368 H 35.6812 2.06741 3.7167 0
M  V30 369 N 33.9963 -1.19345 1.0293 0
M  V30 370 C 34.9433 -2.2258 0.610464 0
M  V30 371 C 35.9133 -1.6179 -0.375946 0
M  V30 372 O 37.0983 -1.88844 -0.272511 0
M  V30 373 C 34.2383 -3.45085 -0.0321473 0
M  V30 374 C 33.3513 -4.20258 1.00035 0
M  V30 375 C 32.4863 -5.3019 0.32746 0
M  V30 376 C 31.5253 -5.97121 1.34584 0
M  V30 377 N 30.6623 -6.98615 0.698726 0
M  V30 378 H 35.5023 -2.57764 1.49538 0
M  V30 379 H 33.0393 -1.26644 0.748311 0
M  V30 380 H 34.9973 -4.15061 -0.421966 0
M  V30 381 H 33.6273 -3.10555 -0.88064 0
M  V30 382 H 32.6793 -3.49223 1.50823 0
M  V30 383 H 33.9913 -4.66175 1.77433 0
M  V30 384 H 33.1453 -6.06587 -0.11718 0
M  V30 385 H 31.8843 -4.85345 -0.478713 0
M  V30 386 H 30.8893 -5.19474 1.80074 0
M  V30 387 H 32.1143 -6.4405 2.15352 0
M  V30 388 H 30.0603 -6.55942 -0.0873471 0
M  V30 389 H 29.9773 -7.42724 1.41058 0
M  V30 390 H 31.2453 -7.79004 0.278102 0
M  V30 391 N 35.4744 -0.807222 -1.35358 0
M  V30 392 C 36.7024 -0.400377 -2.02989 0
M  V30 393 C 37.1174 0.988859 -1.60832 0
M  V30 394 O 36.4744 1.63729 -0.806175 0
M  V30 395 C 36.5254 -0.474867 -3.58368 0
M  V30 396 O 36.2464 -1.80933 -3.98992 0
M  V30 397 C 37.7474 -0.0609112 -4.43258 0
M  V30 398 H 34.9674 -0.162587 -0.651004 0
M  V30 399 H 37.5114 -1.09102 -1.72965 0
M  V30 400 H 35.6664 0.167534 -3.87038 0
M  V30 401 H 36.0804 -1.77256 -4.9364 0
M  V30 402 H 37.5544 -0.164145 -5.51756 0
M  V30 403 H 38.0314 0.993831 -4.27808 0
M  V30 404 H 38.6374 -0.676492 -4.19885 0
M  V30 405 N 36.9525 1.47285 -0.560781 0
M  V30 406 C 37.8625 2.33846 0.187954 0
M  V30 407 C 38.8785 1.48412 0.908293 0
M  V30 408 O 40.0545 1.81332 0.876388 0
M  V30 409 C 37.1195 3.25178 1.2025 0
M  V30 410 C 36.1805 4.26504 0.489208 0
M  V30 411 C 35.4135 5.13472 1.45542 0
M  V30 412 O 35.6365 5.02959 2.6905 0
M  V30 413 O 34.5705 5.93902 0.977963 0
M  V30 414 H 38.3965 2.99177 -0.522177 0
M  V30 415 H 35.9815 1.45903 -0.321364 0
M  V30 416 H 37.8635 3.81584 1.78805 0
M  V30 417 H 36.5385 2.6247 1.89449 0
M  V30 418 H 35.4455 3.73847 -0.137627 0
M  V30 419 H 36.7785 4.91935 -0.161399 0
M  V30 420 N 38.4306 0.297415 1.54768 0
M  V30 421 C 39.3786 -0.596051 2.24833 0
M  V30 422 C 40.3726 -1.13992 1.25308 0
M  V30 423 O 41.5786 -1.09098 1.4317 0
M  V30 424 H 37.9536 -0.210814 0.721846 0
M  V30 425 H 39.9246 0.0174667 2.98395 0
M  V30 426 C 38.6736 -1.75818 2.99972 0
M  V30 427 H 37.9966 -1.3489 3.76357 0
M  V30 428 H 39.4366 -2.35949 3.52284 0
M  V30 429 C 37.8956 -2.66014 2.06732 0
M  V30 430 O 38.4256 -3.67009 1.63302 0
M  V30 431 N 36.6316 -2.33669 1.72763 0
M  V30 432 H 36.1786 -1.51586 2.08277 0
M  V30 433 H 36.1366 -2.94285 1.10652 0
M  V30 434 N 39.9087 -1.5758 0.0250728 0
M  V30 435 C 40.8387 -2.13007 -0.956575 0
M  V30 436 C 41.8197 -1.0452 -1.342 0
M  V30 437 O 43.0047 -1.32332 -1.42133 0
M  V30 438 C 40.1347 -2.65386 -2.24026 0
M  V30 439 C 39.0887 -3.78623 -1.99571 0
M  V30 440 C 38.4147 -4.17414 -3.3417 0
M  V30 441 C 39.7147 -5.04867 -1.33814 0
M  V30 442 H 41.4087 -2.9528 -0.494991 0
M  V30 443 H 38.9547 -1.42042 -0.236651 0
M  V30 444 H 40.9077 -3.02794 -2.93076 0
M  V30 445 H 39.6317 -1.80268 -2.72343 0
M  V30 446 H 38.2907 -3.41646 -1.32941 0
M  V30 447 H 37.9387 -3.29284 -3.80238 0
M  V30 448 H 37.6387 -4.93719 -3.18615 0
M  V30 449 H 39.1627 -4.57402 -4.04495 0
M  V30 450 H 40.5767 -5.39888 -1.92857 0
M  V30 451 H 38.9737 -5.86144 -1.28669 0
M  V30 452 H 40.0437 -4.83904 -0.310561 0
M  V30 453 N 41.3868 0.248026 -1.55636 0
M  V30 454 C 42.3168 1.31079 -1.93237 0
M  V30 455 C 43.2978 1.50264 -0.797174 0
M  V30 456 O 44.4828 1.62891 -1.05737 0
M  V30 457 C 41.6128 2.66575 -2.22609 0
M  V30 458 C 40.5668 2.62087 -3.3837 0
M  V30 459 C 39.8928 4.01369 -3.53281 0
M  V30 460 C 41.1928 2.19171 -4.7409 0
M  V30 461 H 42.8868 0.998556 -2.82257 0
M  V30 462 H 40.4328 0.47891 -1.35803 0
M  V30 463 H 42.3858 3.41057 -2.47503 0
M  V30 464 H 41.1098 2.99432 -1.30414 0
M  V30 465 H 39.7688 1.90063 -3.13483 0
M  V30 466 H 39.4168 4.31489 -2.58508 0
M  V30 467 H 39.1168 3.99254 -4.31127 0
M  V30 468 H 40.6408 4.77552 -3.80495 0
M  V30 469 H 42.0548 2.83384 -4.98363 0
M  V30 470 H 40.4518 2.2817 -5.5503 0
M  V30 471 H 41.5218 1.14336 -4.71227 0
M  V30 472 N 42.8649 1.48995 0.513639 0
M  V30 473 C 44.1129 1.57531 1.26604 0
M  V30 474 C 44.4339 0.258236 1.93283 0
M  V30 475 O 43.7039 -0.721502 1.8213 0
M  V30 476 H 42.2839 0.580387 0.470276 0
M  V30 477 H 44.9459 1.85552 0.596373 0
M  V30 478 H 44.0419 2.36486 2.03669 0
M  V30 479 N 44.343 -0.763751 1.37857 0
M  V30 480 C 45.568 -1.55805 1.36893 0
M  V30 481 C 45.993 -1.88054 -0.0416135 0
M  V30 482 O 45.351 -1.49825 -1.02089 0
M  V30 483 C 45.399 -2.84012 2.22192 0
M  V30 484 O 44.503 -3.78732 1.63204 0
M  V30 485 H 43.844 -0.471638 0.46739 0
M  V30 486 H 46.374 -0.944657 1.81487 0
M  V30 487 H 46.384 -3.33037 2.35691 0
M  V30 488 H 45.059 -2.59869 3.24716 0
M  V30 489 H 43.636 -3.37402 1.58791 0
M  V30 490 N 45.8211 -1.22559 -0.990812 0
M  V30 491 C 47.0511 -1.07623 -1.76355 0
M  V30 492 C 47.4591 0.37601 -1.85426 0
M  V30 493 O 46.8021 1.27228 -1.32509 0
M  V30 494 C 46.8641 -1.61507 -3.21179 0
M  V30 495 C 46.5281 -3.10146 -3.35646 0
M  V30 496 C 47.5251 -4.07553 -3.22796 0
M  V30 497 C 45.2101 -3.49644 -3.60631 0
M  V30 498 C 47.2041 -5.42442 -3.34716 0
M  V30 499 C 44.8911 -4.84682 -3.72192 0
M  V30 500 C 45.8891 -5.8089 -3.59243 0
M  V30 501 O 45.5771 -7.13476 -3.70415 0
M  V30 502 H 45.3091 -0.377745 -0.560611 0
M  V30 503 H 47.8631 -1.62658 -1.25425 0
M  V30 504 H 46.0931 -1.00881 -3.73309 0
M  V30 505 H 47.7821 -1.42202 -3.80175 0
M  V30 506 H 48.5481 -3.78381 -3.03403 0
M  V30 507 H 44.4271 -2.75282 -3.69785 0
M  V30 508 H 47.9711 -6.17518 -3.24526 0
M  V30 509 H 43.8681 -5.13534 -3.91092 0
M  V30 510 H 44.6361 -7.21083 -3.87275 0
M  V30 511 N 47.2992 1.18797 -1.03562 0
M  V30 512 C 48.5462 1.8865 -0.736023 0
M  V30 513 C 48.8742 1.80041 0.735889 0
M  V30 514 O 48.1292 1.19179 1.55225 0
M  V30 515 C 48.4282 3.38692 -1.14117 0
M  V30 516 C 48.0942 3.67504 -2.6125 0
M  V30 517 C 46.7562 3.75078 -3.01447 0
M  V30 518 C 49.1082 3.80293 -3.56408 0
M  V30 519 C 46.4362 3.92915 -4.35701 0
M  V30 520 C 48.7882 3.99645 -4.90374 0
M  V30 521 C 47.4522 4.05453 -5.30249 0
M  V30 522 H 46.7222 0.690321 -0.26933 0
M  V30 523 H 49.3692 1.40641 -1.29971 0
M  V30 524 H 47.6742 3.88645 -0.496202 0
M  V30 525 H 49.3712 3.91072 -0.886789 0
M  V30 526 H 45.9612 3.62223 -2.29113 0
M  V30 527 H 50.1452 3.73779 -3.26501 0
M  V30 528 H 45.4012 3.95653 -4.66121 0
M  V30 529 H 49.5752 4.08482 -5.64017 0
M  V30 530 H 47.2022 4.19027 -6.34288 0
M  V30 531 N 48.7773 0.814389 1.34928 0
M  V30 532 C 50.1883 0.458364 1.80986 0
M  V30 533 C 50.5393 -1.02042 1.67577 0
M  V30 534 O 49.6643 -1.79352 1.21086 0
M  V30 535 C 50.2593 0.825212 3.28597 0
M  V30 536 C 48.8183 0.521677 3.72767 0
M  V30 537 C 47.9653 1.04668 2.56788 0
M  V30 538 H 50.9163 1.00533 1.22795 0
M  V30 539 H 50.9373 0.12571 3.80292 0
M  V30 540 H 50.4493 1.90154 3.38324 0
M  V30 541 H 48.5503 -0.545589 3.68584 0
M  V30 542 H 48.6633 1.05977 4.67232 0
M  V30 543 H 47.0273 0.468622 2.50352 0
M  V30 544 H 47.8103 2.12927 2.6929 0
M  V30 545 N 50.2554 -1.46986 0.568584 0
M  V30 546 C 51.2024 -2.30153 -0.172707 0
M  V30 547 C 52.1724 -1.39759 -0.897586 0
M  V30 548 O 53.3574 -1.68716 -0.891044 0
M  V30 549 C 50.4974 -3.23952 -1.1895 0
M  V30 550 C 49.6104 -4.29441 -0.469517 0
M  V30 551 C 48.7454 -5.1038 -1.47259 0
M  V30 552 C 47.7844 -6.07632 -0.738225 0
M  V30 553 N 46.9214 -6.8149 -1.68868 0
M  V30 554 H 51.7614 -2.93019 0.542596 0
M  V30 555 H 49.2984 -1.44422 0.279401 0
M  V30 556 H 51.2564 -3.76767 -1.79173 0
M  V30 557 H 49.8864 -2.62926 -1.87269 0
M  V30 558 H 48.9384 -3.79594 0.247467 0
M  V30 559 H 50.2504 -4.98689 0.105241 0
M  V30 560 H 49.4044 -5.67402 -2.14803 0
M  V30 561 H 48.1434 -4.4106 -2.08128 0
M  V30 562 H 47.1484 -5.49778 -0.0489293 0
M  V30 563 H 48.3734 -6.78966 -0.135129 0
M  V30 564 H 46.3194 -6.14891 -2.28573 0
M  V30 565 H 46.2364 -7.46948 -1.16636 0
M  V30 566 H 47.5044 -7.43078 -2.3549 0
M  V30 567 N 51.7335 -0.305618 -1.54608 0
M  V30 568 C 52.6805 0.568421 -2.23691 0
M  V30 569 C 53.6505 1.12592 -1.22116 0
M  V30 570 O 54.8355 1.16959 -1.50749 0
M  V30 571 C 51.9755 1.7322 -2.98477 0
M  V30 572 C 51.0885 1.20566 -4.14835 0
M  V30 573 C 50.2235 2.33368 -4.77193 0
M  V30 574 C 49.2625 1.7787 -5.85686 0
M  V30 575 N 48.3995 2.84263 -6.4198 0
M  V30 576 H 53.2395 -0.0272867 -2.97988 0
M  V30 577 H 50.7765 -0.0252363 -1.47078 0
M  V30 578 H 52.7345 2.41675 -3.40072 0
M  V30 579 H 51.3645 2.29947 -2.26548 0
M  V30 580 H 50.4165 0.413223 -3.78149 0
M  V30 581 H 51.7285 0.759417 -4.92985 0
M  V30 582 H 50.8825 3.09761 -5.21664 0
M  V30 583 H 49.6215 2.8132 -3.98385 0
M  V30 584 H 48.6265 0.99968 -5.40635 0
M  V30 585 H 49.8515 1.30816 -6.66381 0
M  V30 586 H 47.7975 3.31541 -5.66053 0
M  V30 587 H 47.7145 2.44149 -7.15491 0
M  V30 588 H 48.9825 3.6054 -6.91109 0
M  V30 589 N 53.2116 1.57565 -0.0334293 0
M  V30 590 C 54.4606 1.91155 0.643639 0
M  V30 591 C 54.7736 0.91192 1.73042 0
M  V30 592 O 55.9796 1.13923 2.46442 0
M  V30 593 C 54.4356 3.39443 1.1961 0
M  V30 594 C 54.0436 4.47774 0.142381 0
M  V30 595 C 55.7876 3.82094 1.84944 0
M  V30 596 C 53.6946 5.87162 0.706727 0
M  V30 597 H 52.6246 0.713368 0.244176 0
M  V30 598 H 55.2756 1.8323 -0.0994323 0
M  V30 599 H 53.6576 3.42313 1.99092 0
M  V30 600 H 54.8316 4.56469 -0.630296 0
M  V30 601 H 53.1466 4.14352 -0.412446 0
M  V30 602 H 55.7436 4.83591 2.2813 0
M  V30 603 H 56.0866 3.17386 2.69392 0
M  V30 604 H 56.6196 3.81665 1.12145 0
M  V30 605 H 53.3586 6.55424 -0.0997178 0
M  V30 606 H 52.8786 5.82064 1.44779 0
M  V30 607 H 54.5576 6.35866 1.19514 0
M  V30 608 N 54.6897 -0.239769 1.55765 0
M  V30 609 C 55.9147 -0.988373 1.82335 0
M  V30 610 C 56.3397 -1.77886 0.611421 0
M  V30 611 O 55.6977 -1.75889 -0.439639 0
M  V30 612 C 55.7457 -1.89627 3.06715 0
M  V30 613 O 54.8497 -2.98904 2.84131 0
M  V30 614 H 54.1907 -0.280858 0.601677 0
M  V30 615 H 56.7207 -0.258597 2.02959 0
M  V30 616 H 56.7307 -2.30957 3.36338 0
M  V30 617 H 55.4057 -1.31511 3.9456 0
M  V30 618 H 53.9827 -2.61651 2.65694 0
M  V30 619 N 56.1678 -1.49265 -0.50573 0
M  V30 620 C 57.0778 -1.68312 -1.63427 0
M  V30 621 C 58.0938 -0.565682 -1.64548 0
M  V30 622 O 59.2698 -0.839801 -1.83055 0
M  V30 623 C 56.3348 -1.74107 -2.99813 0
M  V30 624 C 55.3958 -2.97653 -3.09356 0
M  V30 625 C 54.6288 -3.03163 -4.39236 0
M  V30 626 O 54.8518 -2.16396 -5.27758 0
M  V30 627 O 53.7858 -3.9558 -4.53652 0
M  V30 628 H 57.6118 -2.63907 -1.50289 0
M  V30 629 H 55.1968 -1.32951 -0.681502 0
M  V30 630 H 57.0788 -1.803 -3.80881 0
M  V30 631 H 55.7538 -0.816901 -3.13223 0
M  V30 632 H 54.6608 -2.96981 -2.27493 0
M  V30 633 H 55.9938 -3.89535 -3.00871 0
M  V30 634 N 57.6459 0.756429 -1.3826 0
M  V30 635 C 58.5759 1.88374 -1.37976 0
M  V30 636 C 59.5569 1.68311 -0.246082 0
M  V30 637 O 60.7419 1.88944 -0.44874 0
M  V30 638 C 57.8719 3.25864 -1.20125 0
M  V30 639 C 56.8259 3.60523 -2.30666 0
M  V30 640 C 56.1519 4.9672 -1.97923 0
M  V30 641 C 57.4519 3.65692 -3.72916 0
M  V30 642 H 59.1459 1.88869 -2.32312 0
M  V30 643 H 56.6919 0.907272 -1.11824 0
M  V30 644 H 58.6449 4.0438 -1.18552 0
M  V30 645 H 57.3689 3.25841 -0.222498 0
M  V30 646 H 56.0279 2.84324 -2.3142 0
M  V30 647 H 55.6759 4.93253 -0.985393 0
M  V30 648 H 55.3759 5.20878 -2.71955 0
M  V30 649 H 56.8999 5.77618 -1.97964 0
M  V30 650 H 58.3139 4.34328 -3.74208 0
M  V30 651 H 56.7109 4.01358 -4.4613 0
M  V30 652 H 57.7809 2.65987 -4.05436 0
M  V30 653 N 59.124 1.23083 0.984299 0
M  V30 654 C 60.401 0.9689 1.69917 0
M  V30 655 C 60.781 -0.513604 2.04757 0
M  V30 656 O 60.129 -1.48383 1.73767 0
M  V30 657 C 60.339 1.87518 2.94343 0
M  V30 658 C 61.687 2.13636 3.6694 0
M  V30 659 O 62.711 1.85036 3.04368 0
M  V30 660 O 61.57 2.62119 4.79537 0
M  V30 661 H 58.664 0.365095 0.742048 0
M  V30 662 H 61.21 1.34107 1.03987 0
M  V30 663 H 59.982 2.87756 2.65164 0
M  V30 664 H 59.605 1.50514 3.6801 0
M  V30 665 N 60.6021 -1.18246 1.0419 0
M  V30 666 C 61.5651 -2.20128 0.638452 0
M  V30 667 C 62.5651 -1.57885 -0.304805 0
M  V30 668 O 63.7551 -1.73967 -0.0900369 0
M  V30 669 C 60.8871 -3.4084 -0.0637751 0
M  V30 670 H 62.0801 -2.57336 1.54007 0
M  V30 671 H 59.6331 -1.32152 0.834598 0
M  V30 672 H 60.3681 -3.09166 -0.979136 0
M  V30 673 H 60.1531 -3.8726 0.614198 0
M  V30 674 H 61.6431 -4.16274 -0.332512 0
M  V30 675 N 62.0802 -0.821533 -1.34494 0
M  V30 676 C 63.3272 -0.408946 -1.98328 0
M  V30 677 C 63.6552 1.02764 -1.65136 0
M  V30 678 O 62.9102 1.73026 -0.914349 0
M  V30 679 C 63.2092 -0.556512 -3.53041 0
M  V30 680 C 62.8752 -1.95861 -4.0614 0
M  V30 681 C 61.5372 -2.34217 -4.20352 0
M  V30 682 C 63.8892 -2.87523 -4.34718 0
M  V30 683 C 61.2172 -3.63572 -4.6047 0
M  V30 684 C 63.5692 -4.1634 -4.76281 0
M  V30 685 C 62.2332 -4.54675 -4.88699 0
M  V30 686 H 61.5032 -0.149644 -0.725732 0
M  V30 687 H 64.1502 -1.04521 -1.6046 0
M  V30 688 H 62.4552 0.163148 -3.9146 0
M  V30 689 H 64.1522 -0.217826 -4.00408 0
M  V30 690 H 60.7422 -1.65066 -3.95539 0
M  V30 691 H 64.9262 -2.59133 -4.23277 0
M  V30 692 H 60.1822 -3.93101 -4.68275 0
M  V30 693 H 64.3562 -4.87455 -4.97354 0
M  V30 694 H 61.9832 -5.54959 -5.19542 0
M  V30 695 N 63.5583 1.46682 -0.576371 0
M  V30 696 C 64.4883 2.33028 0.148397 0
M  V30 697 C 65.4693 1.44961 0.889956 0
M  V30 698 O 66.6543 1.73789 0.866662 0
M  V30 699 C 63.7843 3.27117 1.1667 0
M  V30 700 C 62.7383 4.24575 0.540386 0
M  V30 701 C 62.0643 5.08126 1.6647 0
M  V30 702 C 63.3643 5.19722 -0.518331 0
M  V30 703 H 65.0583 2.93875 -0.572509 0
M  V30 704 H 62.6043 1.41315 -0.276768 0
M  V30 705 H 64.5573 3.86374 1.68204 0
M  V30 706 H 63.2813 2.64364 1.9178 0
M  V30 707 H 61.9403 3.66571 0.0461769 0
M  V30 708 H 61.5883 4.41762 2.40531 0
M  V30 709 H 61.2883 5.74122 1.25131 0
M  V30 710 H 62.8123 5.70246 2.18293 0
M  V30 711 H 64.2263 5.73232 -0.0883058 0
M  V30 712 H 62.6233 5.94026 -0.851679 0
M  V30 713 H 63.6933 4.64037 -1.40703 0
M  V30 714 N 65.0364 0.313813 1.54444 0
M  V30 715 C 65.9834 -0.55655 2.23989 0
M  V30 716 C 66.9534 -1.11943 1.22711 0
M  V30 717 O 68.1384 -1.16158 1.51367 0
M  V30 718 C 65.2784 -1.71635 2.99392 0
M  V30 719 C 64.3914 -1.18364 4.15468 0
M  V30 720 C 63.5264 -2.30834 4.78424 0
M  V30 721 C 62.5654 -1.74762 5.86622 0
M  V30 722 N 61.7024 -2.80855 6.43479 0
M  V30 723 H 66.5424 0.0430893 2.97969 0
M  V30 724 H 64.0794 0.0330359 1.47063 0
M  V30 725 H 66.0374 -2.39868 3.41349 0
M  V30 726 H 64.6674 -2.28742 2.27765 0
M  V30 727 H 63.7194 -0.393163 3.78363 0
M  V30 728 H 65.0314 -0.733262 4.93381 0
M  V30 729 H 64.1854 -3.0699 5.23299 0
M  V30 730 H 62.9244 -2.79204 3.99871 0
M  V30 731 H 61.9294 -0.970995 5.41158 0
M  V30 732 H 63.1544 -1.2728 6.67066 0
M  V30 733 H 61.1004 -3.28535 5.67804 0
M  V30 734 H 61.0174 -2.40351 7.16776 0
M  V30 735 H 62.2854 -3.5687 6.93011 0
M  V30 736 N 66.5145 -1.57545 0.0417849 0
M  V30 737 C 67.4245 -2.14451 -0.951213 0
M  V30 738 C 68.4405 -1.09992 -1.34825 0
M  V30 739 O 69.6165 -1.42114 -1.42708 0
M  V30 740 C 66.6815 -2.67063 -2.21084 0
M  V30 741 C 65.7425 -3.86284 -1.87304 0
M  V30 742 C 64.9755 -4.36378 -3.07261 0
M  V30 743 O 65.1985 -3.85587 -4.20332 0
M  V30 744 O 64.1325 -5.28077 -2.88822 0
M  V30 745 H 67.9585 -2.99601 -0.497287 0
M  V30 746 H 65.5435 -1.48317 -0.179567 0
M  V30 747 H 67.4255 -3.00914 -2.95006 0
M  V30 748 H 66.1005 -1.84989 -2.65633 0
M  V30 749 H 65.0075 -3.57338 -1.10727 0
M  V30 750 H 66.3405 -4.6956 -1.47562 0
M  V30 751 N 67.9926 0.231505 -1.5589 0
M  V30 752 C 69.4036 0.799327 -1.68724 0
M  V30 753 C 69.7546 1.85398 -0.642022 0
M  V30 754 O 68.8796 2.1539 0.208784 0
M  V30 755 C 69.4746 1.45664 -3.05888 0
M  V30 756 C 68.0336 1.97197 -3.20609 0
M  V30 757 C 67.1806 0.828552 -2.64632 0
M  V30 758 H 70.1316 0.00702616 -1.58698 0
M  V30 759 H 70.1526 2.32517 -3.01191 0
M  V30 760 H 69.6646 0.688808 -3.81939 0
M  V30 761 H 67.7656 2.76813 -2.4941 0
M  V30 762 H 67.8786 2.15878 -4.27707 0
M  V30 763 H 66.2426 1.23321 -2.22854 0
M  V30 764 H 67.0256 0.0735544 -3.43221 0
M  V30 765 N 69.4707 1.49531 0.497807 0
M  V30 766 C 70.4337 1.65916 1.58128 0
M  V30 767 C 71.4337 0.530825 1.51786 0
M  V30 768 O 72.6237 0.797342 1.54881 0
M  V30 769 C 69.7557 1.65951 2.9778 0
M  V30 770 H 70.9487 2.62556 1.44929 0
M  V30 771 H 68.5017 1.38611 0.722275 0
M  V30 772 H 69.2367 0.709065 3.16453 0
M  V30 773 H 69.0217 2.47897 3.03792 0
M  V30 774 H 70.5117 1.80673 3.76493 0
M  V30 775 N 70.9488 -0.749086 1.3866 0
M  V30 776 C 71.8788 -1.8764 1.38973 0
M  V30 777 C 72.8598 -1.68178 0.255004 0
M  V30 778 O 74.0448 -1.88704 0.458754 0
M  V30 779 C 71.1748 -3.25222 1.21851 0
M  V30 780 C 70.1288 -3.59295 2.32575 0
M  V30 781 C 69.4548 -4.95663 2.00555 0
M  V30 782 C 70.7548 -3.63709 3.7485 0
M  V30 783 H 72.4488 -1.87635 2.3331 0
M  V30 784 H 69.9948 -0.901329 1.12303 0
M  V30 785 H 71.9478 -4.03746 1.20695 0
M  V30 786 H 70.6718 -3.25719 0.239775 0
M  V30 787 H 69.3308 -2.83093 2.32925 0
M  V30 788 H 68.9788 -4.92724 1.01154 0
M  V30 789 H 68.6788 -5.19429 2.74714 0
M  V30 790 H 70.2028 -5.7656 2.01024 0
M  V30 791 H 71.6168 -4.32338 3.76506 0
M  V30 792 H 70.0138 -3.98986 4.48252 0
M  V30 793 H 71.0838 -2.63834 4.06841 0
M  V30 794 N 72.4269 -1.23603 -0.977757 0
M  V30 795 C 73.3749 -1.01704 -2.09187 0
M  V30 796 C 74.3689 0.0448214 -1.69341 0
M  V30 797 O 75.5749 -0.108902 -1.7967 0
M  V30 798 H 71.9499 -0.311803 -0.684312 0
M  V30 799 H 73.9209 -1.96207 -2.24823 0
M  V30 800 C 72.6699 -0.627746 -3.41986 0
M  V30 801 H 71.9929 -1.43656 -3.73099 0
M  V30 802 H 73.4329 -0.514053 -4.20872 0
M  V30 803 C 71.8919 0.664238 -3.30287 0
M  V30 804 O 72.4219 1.71268 -3.6336 0
M  V30 805 N 70.6279 0.641156 -2.83439 0
M  V30 806 H 70.1749 -0.212376 -2.56723 0
M  V30 807 H 70.1329 1.50583 -2.75993 0
M  V30 808 N 73.905 1.17692 -1.04816 0
M  V30 809 C 74.815 2.25229 -0.65643 0
M  V30 810 C 75.831 1.71018 0.320761 0
M  V30 811 O 77.007 2.00649 0.173805 0
M  V30 812 C 74.072 3.46684 -0.0332629 0
M  V30 813 C 73.133 4.15997 -1.06042 0
M  V30 814 C 72.366 5.31654 -0.466893 0
M  V30 815 O 72.589 5.65777 0.724758 0
M  V30 816 O 71.523 5.89831 -1.1993 0
M  V30 817 H 75.349 2.61016 -1.55255 0
M  V30 818 H 72.934 1.24919 -0.81949 0
M  V30 819 H 74.816 4.20234 0.313256 0
M  V30 820 H 73.491 3.12703 0.836566 0
M  V30 821 H 72.398 3.44482 -1.45886 0
M  V30 822 H 73.731 4.53996 -1.90127 0
M  V30 823 N 75.3831 0.828654 1.34056 0
M  V30 824 C 76.3461 0.259927 2.27721 0
M  V30 825 C 77.3461 -0.565478 1.50529 0
M  V30 826 O 78.5361 -0.38075 1.69988 0
M  V30 827 C 75.6681 -0.634944 3.34935 0
M  V30 828 H 76.8611 1.0863 2.79534 0
M  V30 829 H 74.4141 0.600951 1.44285 0
M  V30 830 H 75.1491 -1.48416 2.88346 0
M  V30 831 H 74.9341 -0.0444999 3.92075 0
M  V30 832 H 76.4241 -1.02648 4.04788 0
M  V30 833 N 76.8612 -1.46375 0.584142 0
M  V30 834 C 77.8092 -2.32042 -0.161047 0
M  V30 835 C 78.8032 -1.44569 -0.882966 0
M  V30 836 O 80.0092 -1.61186 -0.801191 0
M  V30 837 H 76.3842 -0.748659 -0.0708033 0
M  V30 838 H 78.3552 -2.92704 0.580269 0
M  V30 839 C 77.1042 -3.27762 -1.1605 0
M  V30 840 H 76.4272 -3.95051 -0.614419 0
M  V30 841 H 77.8672 -3.90481 -1.65228 0
M  V30 842 C 76.3262 -2.53218 -2.22221 0
M  V30 843 O 76.8562 -2.29628 -3.29597 0
M  V30 844 N 75.0622 -2.13756 -1.96868 0
M  V30 845 H 74.6092 -2.33142 -1.09557 0
M  V30 846 H 74.5672 -1.642 -2.68115 0
M  V30 847 N 78.3393 -0.321999 -1.54275 0
M  V30 848 C 79.2693 0.537411 -2.27231 0
M  V30 849 C 80.2503 1.12064 -1.27968 0
M  V30 850 O 81.4353 1.14606 -1.56777 0
M  V30 851 C 78.5653 1.69919 -3.02894 0
M  V30 852 C 77.5193 1.24534 -4.09482 0
M  V30 853 C 76.8453 2.49394 -4.72977 0
M  V30 854 C 78.1453 0.361335 -5.21049 0
M  V30 855 H 79.8393 -0.0711406 -2.99315 0
M  V30 856 H 77.3853 -0.0356555 -1.43956 0
M  V30 857 H 79.3383 2.30668 -3.52662 0
M  V30 858 H 78.0623 2.33431 -2.28424 0
M  V30 859 H 76.7213 0.660782 -3.60596 0
M  V30 860 H 76.3693 3.11265 -3.95124 0
M  V30 861 H 76.0693 2.19718 -5.44975 0
M  V30 862 H 77.5933 3.10908 -5.25517 0
M  V30 863 H 79.0073 0.875072 -5.66582 0
M  V30 864 H 77.4043 0.157428 -5.99893 0
M  V30 865 H 78.4743 -0.60822 -4.8107 0
M  V30 866 N 79.8174 1.5752 -0.0501392 0
M  V30 867 C 81.0424 1.97376 0.636997 0
M  V30 868 C 81.4674 0.927466 1.63645 0
M  V30 869 O 80.8254 -0.10941 1.8097 0
M  V30 870 C 80.8734 3.36304 1.30123 0
M  V30 871 O 79.9774 3.34156 2.41689 0
M  V30 872 H 79.3184 0.642998 0.165679 0
M  V30 873 H 81.8484 2.04258 -0.118233 0
M  V30 874 H 81.8584 3.73008 1.65315 0
M  V30 875 H 80.5334 4.11993 0.568746 0
M  V30 876 H 79.1104 3.09196 2.08451 0
M  V30 877 N 81.2955 -0.223234 1.56011 0
M  V30 878 C 82.2435 -1.29627 1.93131 0
M  V30 879 C 83.2375 -1.48608 0.813146 0
M  V30 880 O 84.4435 -1.49802 0.997966 0
M  V30 881 H 80.8185 -0.434563 0.613726 0
M  V30 882 H 82.7895 -0.955995 2.82672 0
M  V30 883 C 81.5385 -2.63983 2.26292 0
M  V30 884 H 80.8615 -2.50185 3.11846 0
M  V30 885 H 82.3015 -3.3788 2.56151 0
M  V30 886 C 80.7605 -3.18866 1.08747 0
M  V30 887 O 81.2905 -4.00192 0.347727 0
M  V30 888 N 79.4965 -2.77217 0.871743 0
M  V30 889 H 79.0435 -2.1119 1.47501 0
M  V30 890 H 79.0015 -3.1428 0.0869905 0
M  V30 891 N 82.7736 -1.49793 -0.48987 0
M  V30 892 C 83.7036 -1.70201 -1.59856 0
M  V30 893 C 84.6846 -0.55076 -1.60937 0
M  V30 894 O 85.8696 -0.787841 -1.77501 0
M  V30 895 C 82.9996 -1.77882 -2.98287 0
M  V30 896 C 81.9536 -2.92907 -3.12073 0
M  V30 897 C 81.2796 -2.85712 -4.51965 0
M  V30 898 C 82.5796 -4.3369 -2.91051 0
M  V30 899 H 84.2736 -2.63025 -1.43032 0
M  V30 900 H 81.8196 -1.26574 -0.686664 0
M  V30 901 H 83.7726 -1.90744 -3.75759 0
M  V30 902 H 82.4966 -0.816653 -3.16225 0
M  V30 903 H 81.1556 -2.79665 -2.37029 0
M  V30 904 H 80.8036 -1.8738 -4.66795 0
M  V30 905 H 80.5036 -3.62921 -4.62128 0
M  V30 906 H 82.0276 -3.00598 -5.31482 0
M  V30 907 H 83.4416 -4.47555 -3.58284 0
M  V30 908 H 81.8386 -5.12205 -3.12675 0
M  V30 909 H 82.9086 -4.47362 -1.87071 0
M  V30 910 N 84.2517 0.741722 -1.39055 0
M  V30 911 C 85.1987 1.85566 -1.37237 0
M  V30 912 C 86.1687 1.64457 -0.233072 0
M  V30 913 O 87.3537 1.85957 -0.427147 0
M  V30 914 C 84.4937 3.23004 -1.215 0
M  V30 915 C 83.6067 3.55864 -2.44918 0
M  V30 916 C 82.7417 4.82669 -2.21821 0
M  V30 917 C 81.7807 5.08351 -3.40948 0
M  V30 918 N 80.9177 6.26356 -3.17211 0
M  V30 919 H 85.7577 1.86455 -2.32462 0
M  V30 920 H 83.2947 0.911176 -1.15482 0
M  V30 921 H 85.2527 4.02331 -1.10389 0
M  V30 922 H 83.8827 3.21411 -0.29908 0
M  V30 923 H 82.9347 2.7129 -2.66657 0
M  V30 924 H 84.2467 3.70765 -3.33668 0
M  V30 925 H 83.4007 5.69962 -2.07914 0
M  V30 926 H 82.1397 4.69929 -1.30454 0
M  V30 927 H 81.1447 4.19522 -3.55361 0
M  V30 928 H 82.3697 5.22981 -4.33207 0
M  V30 929 H 80.3157 6.14917 -2.28502 0
M  V30 930 H 80.2327 6.41813 -3.99515 0
M  V30 931 H 81.5007 7.16506 -3.06984 0
M  V30 932 N 85.7298 1.2412 0.971189 0
M  V30 933 C 86.6928 1.03156 2.04674 0
M  V30 934 C 87.6928 -0.00990322 1.60797 0
M  V30 935 O 88.8828 0.230729 1.72665 0
M  V30 936 C 86.0148 0.562765 3.36223 0
M  V30 937 H 87.2078 1.98614 2.24705 0
M  V30 938 H 84.7608 1.06293 1.14593 0
M  V30 939 H 85.4958 -0.395176 3.21883 0
M  V30 940 H 85.2808 1.31441 3.69413 0
M  V30 941 H 86.7708 0.437015 4.15307 0
M  V30 942 N 87.2079 -1.17134 1.05439 0
M  V30 943 C 88.6189 -1.69084 0.791676 0
M  V30 944 C 88.9699 -1.83822 -0.685839 0
M  V30 945 O 88.0949 -1.52757 -1.53278 0
M  V30 946 C 88.6899 -3.07119 1.4305 0
M  V30 947 C 87.2489 -3.56225 1.21577 0
M  V30 948 C 86.3959 -2.32421 1.51247 0
M  V30 949 H 89.3469 -1.01617 1.219 0
M  V30 950 H 89.3679 -3.71087 0.84112 0
M  V30 951 H 88.8799 -2.9636 2.50584 0
M  V30 952 H 86.9809 -3.72257 0.159787 0
M  V30 953 H 87.0939 -4.38837 1.92246 0
M  V30 954 H 85.4579 -2.3701 0.932653 0
M  V30 955 H 86.2409 -2.24268 2.5992 0
M  V30 956 N 88.686 -0.835752 -1.33615 0
M  V30 957 C 89.616 -0.281739 -2.31794 0
M  V30 958 C 90.597 0.608833 -1.58831 0
M  V30 959 O 91.782 0.533035 -1.86741 0
M  V30 960 C 88.912 0.546612 -3.42971 0
M  V30 961 C 87.866 -0.247904 -4.27281 0
M  V30 962 C 87.192 0.704001 -5.30045 0
M  V30 963 C 88.492 -1.46324 -5.01385 0
M  V30 964 H 90.186 -1.10206 -2.78379 0
M  V30 965 H 87.732 -0.531388 -1.33837 0
M  V30 966 H 89.685 0.944467 -4.1068 0
M  V30 967 H 88.409 1.40011 -2.95067 0
M  V30 968 H 87.068 -0.627281 -3.61194 0
M  V30 969 H 86.716 1.55381 -4.78399 0
M  V30 970 H 86.416 0.176524 -5.87335 0
M  V30 971 H 87.94 1.09944 -6.0062 0
M  V30 972 H 89.354 -1.13871 -5.61877 0
M  V30 973 H 87.751 -1.92728 -5.6831 0
M  V30 974 H 88.821 -2.23467 -4.30338 0
M  V30 975 N 90.1641 1.46063 -0.591896 0
M  V30 976 C 91.4411 1.95595 -0.0137119 0
M  V30 977 C 91.8211 1.5345 1.4497 0
M  V30 978 O 91.1691 0.789543 2.14426 0
M  V30 979 C 91.3791 3.48453 -0.195373 0
M  V30 980 C 92.7271 4.24546 -0.0679765 0
M  V30 981 O 93.7511 3.55982 -0.124681 0
M  V30 982 O 92.6101 5.46467 0.0600579 0
M  V30 983 H 89.7041 0.825795 0.0446279 0
M  V30 984 H 92.2501 1.56303 -0.660859 0
M  V30 985 H 91.0221 3.72045 -1.21235 0
M  V30 986 H 90.6451 3.94597 0.487775 0
M  V30 987 N 91.6422 0.330177 1.54103 0
M  V30 988 C 92.8912 -0.271336 1.99867 0
M  V30 989 C 93.2042 -1.52723 1.22209 0
M  V30 990 O 94.4102 -2.20515 1.58383 0
M  V30 991 C 92.8662 -0.534032 3.55916 0
M  V30 992 C 92.4742 0.705193 4.42415 0
M  V30 993 C 94.2182 -1.09514 4.1013 0
M  V30 994 C 92.1252 0.414035 5.89949 0
M  V30 995 H 91.0552 -0.105166 0.74663 0
M  V30 996 H 93.7062 0.443429 1.78062 0
M  V30 997 H 92.0882 -1.30915 3.73734 0
M  V30 998 H 93.2622 1.4804 4.36372 0
M  V30 999 H 91.5772 1.18698 3.99124 0
M  V30 1000 H 94.1742 -1.3277 5.17954 0
M  V30 1001 H 94.5172 -2.04656 3.62521 0
M  V30 1002 H 95.0502 -0.381038 3.95971 0
M  V30 1003 H 91.7892 1.33481 6.41766 0
M  V30 1004 H 91.3092 -0.323336 5.98928 0
M  V30 1005 H 92.9882 0.0263105 6.46995 0
M  V30 1006 N 93.1203 -1.57491 0.0584922 0
M  V30 1007 C 94.5313 -1.80526 -0.476138 0
M  V30 1008 C 94.8823 -0.971334 -1.70469 0
M  V30 1009 O 94.0073 -0.190012 -2.15564 0
M  V30 1010 C 94.6023 -3.27424 -0.870587 0
M  V30 1011 C 93.1613 -3.51351 -1.35015 0
M  V30 1012 C 92.3083 -2.75343 -0.32887 0
M  V30 1013 H 95.2593 -1.56133 0.284312 0
M  V30 1014 H 95.2803 -3.38745 -1.73299 0
M  V30 1015 H 94.7923 -3.88093 0.0237627 0
M  V30 1016 H 92.8933 -2.95971 -2.26345 0
M  V30 1017 H 93.0063 -4.60059 -1.33726 0
M  V30 1018 H 91.3703 -2.417 -0.803321 0
M  V30 1019 H 92.1533 -3.38743 0.557521 0
M  V30 1020 N 94.5984 0.214957 -1.56127 0
M  V30 1021 C 95.8444 0.939762 -1.79712 0
M  V30 1022 C 96.1774 1.83723 -0.629247 0
M  V30 1023 O 95.4524 1.90925 0.371197 0
M  V30 1024 C 95.7354 1.77306 -3.13424 0
M  V30 1025 C 95.5884 0.90164 -4.40671 0
M  V30 1026 C 96.9074 2.74956 -3.43638 0
M  V30 1027 H 94.0264 0.340214 -0.653776 0
M  V30 1028 H 96.6684 0.20824 -1.88855 0
M  V30 1029 H 94.8184 2.39673 -3.0576 0
M  V30 1030 H 96.4904 0.294206 -4.60361 0
M  V30 1031 H 94.7334 0.207368 -4.33304 0
M  V30 1032 H 95.4044 1.51923 -5.30682 0
M  V30 1033 H 97.8804 2.22724 -3.51473 0
M  V30 1034 H 96.7564 3.30358 -4.38355 0
M  V30 1035 H 97.0174 3.53023 -2.66134 0
M  V30 1036 N 96.0765 1.50051 0.48192 0
M  V30 1037 C 97.4875 1.5348 1.06305 0
M  V30 1038 C 97.8385 0.331997 1.93371 0
M  V30 1039 O 96.9635 -0.556256 2.09129 0
M  V30 1040 C 97.5585 2.7813 1.93466 0
M  V30 1041 C 96.1175 2.84275 2.46707 0
M  V30 1042 C 95.2645 2.47637 1.24785 0
M  V30 1043 H 98.2155 1.56472 0.264995 0
M  V30 1044 H 98.2365 2.59372 2.78399 0
M  V30 1045 H 97.7485 3.65654 1.30072 0
M  V30 1046 H 95.8495 2.01077 3.13686 0
M  V30 1047 H 95.9625 3.8691 2.82555 0
M  V30 1048 H 94.3265 1.99835 1.57918 0
M  V30 1049 H 95.1095 3.37457 0.630694 0
M  V30 1050 N 97.5546 -0.734337 1.39446 0
M  V30 1051 C 98.8316 -1.48579 1.27215 0
M  V30 1052 C 99.2116 -2.1077 -0.117968 0
M  V30 1053 O 98.5596 -1.98646 -1.12924 0
M  V30 1054 C 98.7696 -2.53667 2.39696 0
M  V30 1055 C 100.118 -3.20031 2.79044 0
M  V30 1056 O 101.142 -2.6398 2.39151 0
M  V30 1057 O 100.001 -4.21455 3.47905 0
M  V30 1058 H 97.0946 -0.659816 0.49857 0
M  V30 1059 H 99.6406 -0.768106 1.51322 0
M  V30 1060 H 98.4126 -2.06096 3.32626 0
M  V30 1061 H 98.0356 -3.32994 2.17258 0
M  V30 1062 N 99.0327 -1.24633 -0.964593 0
M  V30 1063 C 100.444 -1.08045 -1.5226 0
M  V30 1064 C 100.795 0.347116 -1.93105 0
M  V30 1065 O 99.9197 1.23588 -1.77637 0
M  V30 1066 C 100.515 -1.95514 -2.76695 0
M  V30 1067 C 99.0737 -1.8314 -3.28841 0
M  V30 1068 C 98.2207 -1.90262 -2.01732 0
M  V30 1069 H 101.172 -1.38064 -0.782553 0
M  V30 1070 H 101.193 -1.48925 -3.50145 0
M  V30 1071 H 100.705 -2.99407 -2.46936 0
M  V30 1072 H 98.8057 -0.82092 -3.63444 0
M  V30 1073 H 98.9187 -2.67406 -3.97531 0
M  V30 1074 H 97.2827 -1.34027 -2.16584 0
M  V30 1075 H 98.0657 -2.9574 -1.74334 0
M  V30 1076 N 100.511 1.16574 -1.06058 0
M  V30 1077 C 101.757 1.87324 -0.777022 0
M  V30 1078 C 102.09 1.81351 0.694645 0
M  V30 1079 O 101.365 1.22753 1.50871 0
M  V30 1080 C 101.648 3.36991 -1.26922 0
M  V30 1081 C 101.501 3.51667 -2.80447 0
M  V30 1082 C 102.82 4.3131 -0.87521 0
M  V30 1083 H 99.9388 0.680191 -0.28374 0
M  V30 1084 H 102.581 1.37036 -1.3161 0
M  V30 1085 H 100.731 3.79949 -0.81063 0
M  V30 1086 H 102.403 3.17664 -3.34495 0
M  V30 1087 H 100.646 2.93656 -3.19294 0
M  V30 1088 H 101.317 4.56766 -3.0995 0
M  V30 1089 H 103.793 3.9624 -1.27014 0
M  V30 1090 H 102.669 5.34545 -1.2471 0
M  V30 1091 H 102.93 4.41552 0.220071 0
M  V30 1092 N 101.989 0.842826 1.3317 0
M  V30 1093 C 102.936 0.276885 2.29133 0
M  V30 1094 C 103.906 -0.609527 1.54512 0
M  V30 1095 O 105.091 -0.546955 1.82792 0
M  V30 1096 C 102.231 -0.538707 3.40869 0
M  V30 1097 C 101.344 0.372169 4.30394 0
M  V30 1098 C 100.479 -0.454908 5.29249 0
M  V30 1099 C 99.5179 0.45411 6.10413 0
M  V30 1100 N 98.6549 -0.335075 7.013 0
M  V30 1101 H 103.495 1.10052 2.76934 0
M  V30 1102 H 101.032 0.554161 1.36262 0
M  V30 1103 H 102.99 -1.02709 4.0436 0
M  V30 1104 H 101.62 -1.32727 2.9425 0
M  V30 1105 H 100.672 0.97888 3.6759 0
M  V30 1106 H 101.984 1.0703 4.87182 0
M  V30 1107 H 101.138 -1.00695 5.98285 0
M  V30 1108 H 99.8769 -1.18646 4.73048 0
M  V30 1109 H 98.8819 1.01813 5.40291 0
M  V30 1110 H 100.107 1.18409 6.68697 0
M  V30 1111 H 98.0529 -1.04994 6.47543 0
M  V30 1112 H 97.9699 0.304262 7.55387 0
M  V30 1113 H 99.2379 -0.869224 7.74638 0
M  V30 1114 N 103.467 -1.45747 0.599634 0
M  V30 1115 C 104.377 -2.34262 -0.125888 0
M  V30 1116 C 105.393 -1.50768 -0.868625 0
M  V30 1117 O 106.569 -1.83592 -0.828003 0
M  V30 1118 C 103.634 -3.28252 -1.11587 0
M  V30 1119 C 102.695 -4.27651 -0.375956 0
M  V30 1120 C 101.928 -5.1715 -1.31877 0
M  V30 1121 O 102.151 -5.09916 -2.55621 0
M  V30 1122 O 101.085 -5.96286 -0.820157 0
M  V30 1123 H 104.911 -2.97688 0.601315 0
M  V30 1124 H 102.496 -1.44999 0.359934 0
M  V30 1125 H 104.378 -3.86191 -1.68626 0
M  V30 1126 H 103.053 -2.67401 -1.82424 0
M  V30 1127 H 101.96 -3.7335 0.236698 0
M  V30 1128 H 103.293 -4.91334 0.29177 0
M  V30 1129 N 104.945 -0.338344 -1.53925 0
M  V30 1130 C 105.892 0.520845 -2.24846 0
M  V30 1131 C 106.862 1.09976 -1.24477 0
M  V30 1132 O 108.047 1.13735 -1.53196 0
M  V30 1133 C 105.187 1.6685 -3.02084 0
M  V30 1134 C 104.3 1.11739 -4.17299 0
M  V30 1135 C 103.435 2.23193 -4.82036 0
M  V30 1136 C 102.474 1.65407 -5.89328 0
M  V30 1137 N 101.611 2.70582 -6.47866 0
M  V30 1138 H 106.451 -0.0904881 -2.97863 0
M  V30 1139 H 103.988 -0.0564282 -1.46992 0
M  V30 1140 H 105.946 2.34407 -3.45122 0
M  V30 1141 H 104.576 2.2509 -2.31375 0
M  V30 1142 H 103.628 0.332919 -3.7894 0
M  V30 1143 H 104.94 0.654677 -4.94485 0
M  V30 1144 H 104.094 2.98626 -5.28117 0
M  V30 1145 H 102.833 2.72807 -4.04262 0
M  V30 1146 H 101.838 0.884779 -5.42634 0
M  V30 1147 H 103.063 1.16652 -6.69006 0
M  V30 1148 H 101.009 3.1946 -5.72959 0
M  V30 1149 H 100.926 2.28917 -7.20509 0
M  V30 1150 H 102.194 3.45799 -6.98601 0
M  V30 1151 N 106.423 1.57458 -0.0668435 0
M  V30 1152 C 107.333 2.15937 0.916975 0
M  V30 1153 C 108.349 1.12123 1.33058 0
M  V30 1154 O 109.525 1.44366 1.40429 0
M  V30 1155 C 106.59 2.70547 2.16807 0
M  V30 1156 C 105.651 3.89215 1.81135 0
M  V30 1157 C 104.884 4.41211 3.0028 0
M  V30 1158 O 105.107 3.92225 4.14144 0
M  V30 1159 O 104.041 5.32605 2.80384 0
M  V30 1160 H 107.867 3.00354 0.449561 0
M  V30 1161 H 105.452 1.48584 0.155949 0
M  V30 1162 H 107.334 3.0557 2.90181 0
M  V30 1163 H 106.009 1.89192 2.62656 0
M  V30 1164 H 104.916 3.59054 1.05028 0
M  V30 1165 H 106.249 4.71848 1.40073 0
M  V30 1166 N 107.901 -0.206675 1.56239 0
M  V30 1167 C 108.848 -1.25617 1.93621 0
M  V30 1168 C 109.818 -1.45824 0.795274 0
M  V30 1169 O 111.003 -1.59148 1.05245 0
M  V30 1170 C 108.143 -2.59839 2.27107 0
M  V30 1171 C 107.256 -2.47308 3.54207 0
M  V30 1172 C 106.391 -3.74155 3.7707 0
M  V30 1173 C 105.43 -3.56407 4.97635 0
M  V30 1174 N 104.567 -4.75238 5.1681 0
M  V30 1175 H 109.407 -0.930383 2.83104 0
M  V30 1176 H 106.944 -0.448065 1.4011 0
M  V30 1177 H 108.902 -3.38021 2.44535 0
M  V30 1178 H 107.532 -2.90485 1.40778 0
M  V30 1179 H 106.584 -1.60483 3.4489 0
M  V30 1180 H 107.896 -2.30122 4.42544 0
M  V30 1181 H 107.05 -4.60778 3.94675 0
M  V30 1182 H 105.789 -3.94282 2.87042 0
M  V30 1183 H 104.794 -2.68168 4.79964 0
M  V30 1184 H 106.019 -3.37736 5.89161 0
M  V30 1185 H 103.965 -4.95651 4.29728 0
M  V30 1186 H 103.882 -4.60835 5.99306 0
M  V30 1187 H 105.15 -5.63246 5.38864 0
M  V30 1188 N 109.379 -1.50304 -0.473955 0
M  V30 1189 C 110.289 -1.7174 -1.5982 0
M  V30 1190 C 111.305 -0.600457 -1.63311 0
M  V30 1191 O 112.481 -0.878441 -1.81233 0
M  V30 1192 C 109.546 -1.80427 -2.96052 0
M  V30 1193 C 108.607 -3.04148 -3.02972 0
M  V30 1194 C 107.84 -3.12411 -4.32706 0
M  V30 1195 O 108.063 -2.27542 -5.23049 0
M  V30 1196 O 106.997 -4.05113 -4.45159 0
M  V30 1197 H 110.823 -2.67035 -1.44657 0
M  V30 1198 H 108.408 -1.34366 -0.653148 0
M  V30 1199 H 110.29 -1.88338 -3.7697 0
M  V30 1200 H 108.965 -0.883156 -3.11419 0
M  V30 1201 H 107.872 -3.0174 -2.21142 0
M  V30 1202 H 109.205 -3.95829 -2.92541 0
M  V30 1203 N 110.857 0.726932 -1.39834 0
M  V30 1204 C 111.767 1.87131 -1.41489 0
M  V30 1205 C 112.783 1.71239 -0.308757 0
M  V30 1206 O 113.959 1.93701 -0.551529 0
M  V30 1207 C 111.024 3.22811 -1.26468 0
M  V30 1208 C 110.085 3.51039 -2.47124 0
M  V30 1209 C 109.318 4.80245 -2.3281 0
M  V30 1210 O 109.541 5.54537 -1.33585 0
M  V30 1211 O 108.475 5.08554 -3.21957 0
M  V30 1212 H 112.301 1.8869 -2.3797 0
M  V30 1213 H 109.886 0.875837 -1.21035 0
M  V30 1214 H 111.768 4.03877 -1.20255 0
M  V30 1215 H 110.443 3.22005 -0.330862 0
M  V30 1216 H 109.35 2.70027 -2.58914 0
M  V30 1217 H 110.683 3.56632 -3.39227 0
M  V30 1218 N 112.336 1.25143 0.95797 0
M  V30 1219 C 113.752 1.01892 1.22842 0
M  V30 1220 C 113.952 -0.266311 1.99732 0
M  V30 1221 O 113.008 -0.979913 2.3271 0
M  V30 1222 C 114.321 2.24004 2.00606 0
M  V30 1223 C 115.869 2.28731 2.13662 0
M  V30 1224 C 116.344 3.5049 2.94823 0
M  V30 1225 N 117.835 3.50866 3.02403 0
M  V30 1226 C 118.57 4.4174 3.65586 0
M  V30 1227 N 118.066 5.42882 4.30408 0
M  V30 1228 N 119.859 4.29429 3.62694 0
M  V30 1229 H 112.01 2.07718 0.443493 0
M  V30 1230 H 114.273 0.912031 0.258657 0
M  V30 1231 H 113.979 3.17395 1.51503 0
M  V30 1232 H 113.853 2.26907 3.01319 0
M  V30 1233 H 116.24 1.35865 2.61963 0
M  V30 1234 H 116.321 2.29848 1.12265 0
M  V30 1235 H 115.965 4.43676 2.47213 0
M  V30 1236 H 115.895 3.46617 3.96439 0
M  V30 1237 H 118.386 2.777 2.56302 0
M  V30 1238 H 118.699 6.0844 4.76467 0
M  V30 1239 H 117.044 5.46758 4.29047 0
M  V30 1240 H 120.235 3.49643 3.11236 0
M  V30 1241 H 120.408 5.00448 4.1165 0
M  V30 1242 N 113.814 -1.1601 1.06675 0
M  V30 1243 C 114.761 -2.20525 0.680967 0
M  V30 1244 C 115.731 -1.62904 -0.324283 0
M  V30 1245 O 116.916 -1.89615 -0.212294 0
M  V30 1246 C 114.056 -3.45013 0.0776551 0
M  V30 1247 C 113.169 -4.16863 1.13355 0
M  V30 1248 C 112.304 -5.2888 0.49597 0
M  V30 1249 C 111.343 -5.92537 1.53513 0
M  V30 1250 N 110.48 -6.96038 0.920631 0
M  V30 1251 H 115.32 -2.52876 1.57663 0
M  V30 1252 H 112.857 -1.24199 0.788223 0
M  V30 1253 H 114.815 -4.16193 -0.289704 0
M  V30 1254 H 113.445 -3.132 -0.781393 0
M  V30 1255 H 112.497 -3.44248 1.61857 0
M  V30 1256 H 113.809 -4.60294 1.92174 0
M  V30 1257 H 112.963 -6.06653 0.0758604 0
M  V30 1258 H 111.702 -4.86622 -0.324062 0
M  V30 1259 H 110.707 -5.13482 1.9651 0
M  V30 1260 H 111.932 -6.36873 2.35733 0
M  V30 1261 H 109.878 -6.55888 0.12138 0
M  V30 1262 H 109.795 -7.3786 1.64616 0
M  V30 1263 H 111.063 -7.77725 0.525795 0
M  V30 1264 N 115.292 -0.849877 -1.32721 0
M  V30 1265 C 116.239 -0.289033 -2.28983 0
M  V30 1266 C 117.209 0.601324 -1.54833 0
M  V30 1267 O 118.394 0.537253 -1.8308 0
M  V30 1268 C 115.534 0.520623 -3.4115 0
M  V30 1269 C 114.647 -0.394989 -4.3019 0
M  V30 1270 C 113.782 0.426834 -5.29482 0
M  V30 1271 C 112.821 -0.486476 -6.10164 0
M  V30 1272 N 111.958 0.297879 -7.01468 0
M  V30 1273 H 116.798 -1.11519 -2.76347 0
M  V30 1274 H 114.335 -0.56138 -1.35967 0
M  V30 1275 H 116.293 1.00563 -4.04899 0
M  V30 1276 H 114.923 1.31165 -2.9495 0
M  V30 1277 H 113.975 -0.99836 -3.67065 0
M  V30 1278 H 115.287 -1.09612 -4.86607 0
M  V30 1279 H 114.441 0.975205 -5.98811 0
M  V30 1280 H 113.18 1.16136 -4.73671 0
M  V30 1281 H 112.185 -1.04677 -5.39743 0
M  V30 1282 H 113.41 -1.21953 -6.6806 0
M  V30 1283 H 111.356 1.01558 -6.48091 0
M  V30 1284 H 111.273 -0.344318 -7.55216 0
M  V30 1285 H 112.541 0.828131 -7.75089 0
M  V30 1286 N 116.77 1.45427 -0.607355 0
M  V30 1287 C 117.702 2.2871 0.149752 0
M  V30 1288 C 118.715 1.39937 0.831958 0
M  V30 1289 O 119.904 1.64313 0.697385 0
M  V30 1290 C 117.004 3.15673 1.23304 0
M  V30 1291 C 116.177 4.32722 0.637996 0
M  V30 1292 C 115.236 5.00895 1.61215 0
M  V30 1293 O 114.262 5.57697 1.13854 0
M  V30 1294 N 115.464 5.00159 2.94655 0
M  V30 1295 H 118.229 2.94328 -0.564882 0
M  V30 1296 H 115.79 1.55612 -0.446823 0
M  V30 1297 H 117.782 3.58144 1.88454 0
M  V30 1298 H 116.352 2.51965 1.8502 0
M  V30 1299 H 115.572 3.93734 -0.191572 0
M  V30 1300 H 116.86 5.08321 0.220665 0
M  V30 1301 H 116.258 4.553 3.35735 0
M  V30 1302 H 114.815 5.46495 3.55228 0
M  V30 1303 N 118.248 0.346503 1.53744 0
M  V30 1304 C 119.18 -0.543316 2.22667 0
M  V30 1305 C 120.193 -1.06159 1.23427 0
M  V30 1306 O 121.382 -0.971235 1.49764 0
M  V30 1307 C 118.482 -1.76076 2.89569 0
M  V30 1308 C 117.655 -1.37727 4.15151 0
M  V30 1309 C 116.714 -2.45471 4.65436 0
M  V30 1310 O 115.74 -2.08655 5.29577 0
M  V30 1311 N 116.942 -3.7677 4.41616 0
M  V30 1312 H 119.707 0.0469703 2.99663 0
M  V30 1313 H 117.268 0.170766 1.60997 0
M  V30 1314 H 119.26 -2.47593 3.20125 0
M  V30 1315 H 117.83 -2.25835 2.16142 0
M  V30 1316 H 117.05 -0.492746 3.91108 0
M  V30 1317 H 118.338 -1.09708 4.96832 0
M  V30 1318 H 117.736 -4.09467 3.90325 0
M  V30 1319 H 116.293 -4.44448 4.7677 0
M  V30 1320 N 119.726 -1.57421 0.075193 0
M  V30 1321 C 120.636 -2.1642 -0.905511 0
M  V30 1322 C 121.652 -1.12828 -1.32461 0
M  V30 1323 O 122.828 -1.45109 -1.39661 0
M  V30 1324 C 119.893 -2.71693 -2.15369 0
M  V30 1325 C 118.954 -3.90171 -1.79068 0
M  V30 1326 C 118.187 -4.42798 -2.97936 0
M  V30 1327 O 118.41 -3.94416 -4.12058 0
M  V30 1328 O 117.344 -5.34085 -2.77555 0
M  V30 1329 H 121.17 -3.00588 -0.433626 0
M  V30 1330 H 118.755 -1.48664 -0.148067 0
M  V30 1331 H 120.637 -3.07104 -2.88557 0
M  V30 1332 H 119.312 -1.90582 -2.61649 0
M  V30 1333 H 118.219 -3.59606 -1.03122 0
M  V30 1334 H 119.552 -4.72584 -1.37569 0
M  V30 1335 N 121.204 0.198386 -1.56346 0
M  V30 1336 C 122.151 1.24589 -1.94284 0
M  V30 1337 C 123.121 1.454 -0.802997 0
M  V30 1338 O 124.306 1.58588 -1.06087 0
M  V30 1339 C 121.446 2.58631 -2.28482 0
M  V30 1340 C 120.559 2.45426 -3.55514 0
M  V30 1341 C 119.694 3.7215 -3.79049 0
M  V30 1342 C 118.733 3.53763 -4.99518 0
M  V30 1343 N 117.87 4.72491 -5.19323 0
M  V30 1344 H 122.71 0.915356 -2.83593 0
M  V30 1345 H 120.247 0.440629 -1.40346 0
M  V30 1346 H 122.205 3.3672 -2.46324 0
M  V30 1347 H 120.835 2.89734 -1.42317 0
M  V30 1348 H 119.887 1.58652 -3.45737 0
M  V30 1349 H 121.199 2.27772 -4.43758 0
M  V30 1350 H 120.353 4.58679 -3.97113 0
M  V30 1351 H 119.092 3.92754 -2.89129 0
M  V30 1352 H 118.097 2.65619 -4.8138 0
M  V30 1353 H 119.322 3.34607 -5.90944 0
M  V30 1354 H 117.268 4.93365 -4.3235 0
M  V30 1355 H 117.185 4.5765 -6.01741 0
M  V30 1356 H 118.453 5.6038 -5.41843 0
M  V30 1357 N 122.682 1.50554 0.465978 0
M  V30 1358 C 123.592 1.72585 1.58907 0
M  V30 1359 C 124.608 0.60911 1.6299 0
M  V30 1360 O 125.784 0.88804 1.80765 0
M  V30 1361 C 122.849 1.81995 2.95091 0
M  V30 1362 C 121.91 3.05751 3.01355 0
M  V30 1363 C 121.143 3.14702 4.31043 0
M  V30 1364 O 121.366 2.30313 5.21835 0
M  V30 1365 O 120.3 4.07468 4.43005 0
M  V30 1366 H 124.126 2.67799 1.43239 0
M  V30 1367 H 121.711 1.34711 0.646013 0
M  V30 1368 H 123.593 1.90335 3.75966 0
M  V30 1369 H 122.268 0.899659 3.10947 0
M  V30 1370 H 121.175 3.02908 2.19539 0
M  V30 1371 H 122.508 3.97375 2.90437 0
M  V30 1372 N 124.16 -0.719506 1.40217 0
M  V30 1373 C 125.437 -1.47221 1.28784 0
M  V30 1374 C 125.817 -2.10883 -0.0956067 0
M  V30 1375 O 125.165 -1.99833 -1.10811 0
M  V30 1376 C 125.375 -2.5111 2.42373 0
M  V30 1377 C 126.723 -3.17053 2.82423 0
M  V30 1378 O 127.747 -2.61429 2.41937 0
M  V30 1379 O 126.606 -4.17742 3.52355 0
M  V30 1380 H 123.7 -0.654491 0.50554 0
M  V30 1381 H 126.246 -0.752014 1.52128 0
M  V30 1382 H 125.018 -2.02556 3.34793 0
M  V30 1383 H 124.641 -3.3067 2.20778 0
M  V30 1384 N 125.638 -1.25649 -0.95132 0
M  V30 1385 C 126.585 -1.06323 -2.04851 0
M  V30 1386 C 127.555 0.0286491 -1.66075 0
M  V30 1387 O 128.74 -0.12917 -1.90362 0
M  V30 1388 C 125.88 -0.691529 -3.381 0
M  V30 1389 C 124.993 -1.85861 -3.89974 0
M  V30 1390 C 124.128 -1.43096 -5.11563 0
M  V30 1391 C 123.167 -2.56696 -5.55674 0
M  V30 1392 N 122.304 -2.14684 -6.68472 0
M  V30 1393 H 127.144 -2.00222 -2.20715 0
M  V30 1394 H 124.681 -0.997027 -1.08156 0
M  V30 1395 H 126.639 -0.456963 -4.1469 0
M  V30 1396 H 125.269 0.210474 -3.22113 0
M  V30 1397 H 124.321 -2.20639 -3.09875 0
M  V30 1398 H 125.633 -2.71161 -4.18657 0
M  V30 1399 H 124.787 -1.15624 -5.9558 0
M  V30 1400 H 123.526 -0.548722 -4.84603 0
M  V30 1401 H 122.531 -2.84909 -4.7022 0
M  V30 1402 H 123.756 -3.45503 -5.8464 0
M  V30 1403 H 121.702 -1.28881 -6.43215 0
M  V30 1404 H 121.619 -2.9353 -6.96689 0
M  V30 1405 H 122.887 -1.90397 -7.5589 0
M  V30 1406 N 127.117 1.15442 -1.07289 0
M  V30 1407 C 128.394 1.82306 -0.708792 0
M  V30 1408 C 128.774 1.94991 0.808807 0
M  V30 1409 O 128.122 1.50085 1.72298 0
M  V30 1410 C 128.332 3.18695 -1.42247 0
M  V30 1411 C 129.68 3.94341 -1.57417 0
M  V30 1412 O 130.704 3.28247 -1.38319 0
M  V30 1413 O 129.563 5.12839 -1.88834 0
M  V30 1414 H 126.657 0.787628 -0.252132 0
M  V30 1415 H 129.203 1.22559 -1.17377 0
M  V30 1416 H 127.975 3.04557 -2.45684 0
M  V30 1417 H 127.598 3.86128 -0.948223 0
M  V30 1418 N 128.595 0.856903 1.32268 0
M  V30 1419 C 129.505 0.306131 2.32594 0
M  V30 1420 C 130.521 -0.577209 1.64147 0
M  V30 1421 O 131.697 -0.477043 1.95669 0
M  V30 1422 C 128.762 -0.494561 3.43154 0
M  V30 1423 C 127.823 0.415186 4.27288 0
M  V30 1424 C 127.056 -0.347387 5.32568 0
M  V30 1425 O 127.279 -1.57708 5.48165 0
M  V30 1426 O 126.213 0.287982 6.01211 0
M  V30 1427 H 130.039 1.13737 2.81598 0
M  V30 1428 H 127.624 0.619902 1.35932 0
M  V30 1429 H 129.506 -0.948944 4.10576 0
M  V30 1430 H 128.181 -1.30257 2.96336 0
M  V30 1431 H 127.088 0.917793 3.62667 0
M  V30 1432 H 128.421 1.18844 4.77637 0
M  V30 1433 N 130.073 -1.45103 0.615059 0
M  V30 1434 C 131.02 -2.30586 -0.0993978 0
M  V30 1435 C 131.99 -1.42544 -0.852669 0
M  V30 1436 O 133.175 -1.71465 -0.836917 0
M  V30 1437 C 130.315 -3.27572 -1.08583 0
M  V30 1438 C 129.428 -4.30717 -0.332656 0
M  V30 1439 C 128.563 -5.14807 -1.30947 0
M  V30 1440 C 127.602 -6.09673 -0.544538 0
M  V30 1441 N 126.739 -6.86517 -1.47101 0
M  V30 1442 H 131.579 -2.91144 0.635542 0
M  V30 1443 H 129.116 -1.4346 0.325206 0
M  V30 1444 H 131.074 -3.82276 -1.67095 0
M  V30 1445 H 129.704 -2.68751 -1.78809 0
M  V30 1446 H 128.756 -3.78615 0.368107 0
M  V30 1447 H 130.068 -4.98102 0.263842 0
M  V30 1448 H 129.222 -5.73948 -1.96643 0
M  V30 1449 H 127.961 -4.47458 -1.9399 0
M  V30 1450 H 126.966 -5.49656 0.126003 0
M  V30 1451 H 128.191 -6.79052 0.080947 0
M  V30 1452 H 126.137 -6.21851 -2.08895 0
M  V30 1453 H 126.054 -7.50281 -0.928137 0
M  V30 1454 H 127.322 -7.50194 -2.11731 0
M  V30 1455 N 131.551 -0.354651 -1.53558 0
M  V30 1456 C 132.498 0.496968 -2.25386 0
M  V30 1457 C 133.468 1.0865 -1.25636 0
M  V30 1458 O 134.653 1.12104 -1.54394 0
M  V30 1459 C 131.793 1.63637 -3.03837 0
M  V30 1460 C 130.906 1.07307 -4.18461 0
M  V30 1461 C 130.041 2.18068 -4.84376 0
M  V30 1462 C 129.08 1.59147 -5.91049 0
M  V30 1463 N 128.217 2.63695 -6.50699 0
M  V30 1464 H 133.057 -0.122075 -2.9775 0
M  V30 1465 H 130.594 -0.0720154 -1.46924 0
M  V30 1466 H 132.552 2.30734 -3.47589 0
M  V30 1467 H 131.182 2.22623 -2.33749 0
M  V30 1468 H 130.234 0.292708 -3.79272 0
M  V30 1469 H 131.546 0.602193 -4.95152 0
M  V30 1470 H 130.7 2.93007 -5.31255 0
M  V30 1471 H 129.439 2.68504 -4.07133 0
M  V30 1472 H 128.444 0.827175 -5.43542 0
M  V30 1473 H 129.669 1.09549 -6.70206 0
M  V30 1474 H 127.615 3.13365 -5.76315 0
M  V30 1475 H 127.532 2.21263 -7.22896 0
M  V30 1476 H 128.8 3.3837 -7.02229 0
M  V30 1477 N 133.029 1.57378 -0.0835403 0
M  V30 1478 C 133.976 2.13384 0.879539 0
M  V30 1479 C 134.946 1.04936 1.28754 0
M  V30 1480 O 136.131 1.32662 1.37133 0
M  V30 1481 C 133.271 2.70932 2.13752 0
M  V30 1482 C 132.384 3.93575 1.7811 0
M  V30 1483 C 131.519 4.39326 2.98607 0
M  V30 1484 C 130.558 5.54587 2.59037 0
M  V30 1485 N 129.695 5.95243 3.72331 0
M  V30 1486 H 134.535 2.9537 0.395076 0
M  V30 1487 H 132.072 1.45953 0.183349 0
M  V30 1488 H 134.03 3.02411 2.87408 0
M  V30 1489 H 132.66 1.91693 2.59718 0
M  V30 1490 H 131.712 3.68483 0.94469 0
M  V30 1491 H 133.024 4.77258 1.45005 0
M  V30 1492 H 132.178 4.72528 3.80529 0
M  V30 1493 H 130.917 3.5452 3.34913 0
M  V30 1494 H 129.922 5.21024 1.75539 0
M  V30 1495 H 131.147 6.41133 2.23887 0
M  V30 1496 H 129.093 5.13385 4.08378 0
M  V30 1497 H 129.01 6.73694 3.43034 0
M  V30 1498 H 130.278 6.33072 4.54797 0
M  V30 1499 N 134.507 -0.190092 1.56449 0
M  V30 1500 C 135.755 -0.907908 1.80559 0
M  V30 1501 C 136.076 -1.83583 0.657438 0
M  V30 1502 O 135.346 -1.93203 -0.323924 0
M  V30 1503 H 133.926 -0.338247 0.666032 0
M  V30 1504 H 136.588 -0.194403 1.93928 0
M  V30 1505 H 135.684 -1.49604 2.73907 0
M  V30 1506 N 135.985 -1.50799 -0.457987 0
M  V30 1507 C 136.895 -1.73426 -1.57989 0
M  V30 1508 C 137.911 -0.617745 -1.62665 0
M  V30 1509 O 139.087 -0.897614 -1.80291 0
M  V30 1510 C 136.152 -1.83557 -2.94122 0
M  V30 1511 C 135.213 -3.07345 -2.99729 0
M  V30 1512 C 134.446 -3.16983 -4.29368 0
M  V30 1513 O 134.669 -2.33077 -5.20607 0
M  V30 1514 O 133.603 -4.09812 -4.40837 0
M  V30 1515 H 137.429 -2.68555 -1.41817 0
M  V30 1516 H 135.014 -1.35052 -0.638859 0
M  V30 1517 H 136.896 -1.92326 -3.74952 0
M  V30 1518 H 135.571 -0.916137 -3.10465 0
M  V30 1519 H 134.478 -3.04068 -2.1793 0
M  V30 1520 H 135.811 -3.9891 -2.88326 0
M  V30 1521 N 137.463 0.71206 -1.40597 0
M  V30 1522 C 138.74 1.46536 -1.29563 0
M  V30 1523 C 139.12 2.10931 0.0844217 0
M  V30 1524 O 138.468 2.00418 1.0975 0
M  V30 1525 C 138.678 2.49821 -2.43701 0
M  V30 1526 C 140.026 3.15551 -2.841 0
M  V30 1527 O 141.05 2.60142 -2.4332 0
M  V30 1528 O 139.909 4.15867 -3.54566 0
M  V30 1529 H 137.003 0.651801 -0.509004 0
M  V30 1530 H 139.549 0.743935 -1.52524 0
M  V30 1531 H 138.321 2.00778 -3.35863 0
M  V30 1532 H 137.944 3.29495 -2.22528 0
M  V30 1533 N 138.941 1.26152 0.944643 0
M  V30 1534 C 139.851 1.09176 2.07648 0
M  V30 1535 C 140.867 0.0261935 1.7398 0
M  V30 1536 O 142.043 0.229208 2.00091 0
M  V30 1537 C 139.108 0.722915 3.39079 0
M  V30 1538 C 138.169 1.86752 3.86552 0
M  V30 1539 C 137.402 1.51617 5.11711 0
M  V30 1540 O 137.625 0.416331 5.68879 0
M  V30 1541 O 136.559 2.34975 5.54139 0
M  V30 1542 H 140.385 2.0412 2.24875 0
M  V30 1543 H 137.97 1.05182 1.061 0
M  V30 1544 H 139.852 0.529787 4.18056 0
M  V30 1545 H 138.527 -0.197159 3.23099 0
M  V30 1546 H 137.434 2.11558 3.08535 0
M  V30 1547 H 138.767 2.76719 4.07047 0
M  V30 1548 N 140.419 -1.14872 1.07899 0
M  V30 1549 C 141.696 -1.81928 0.71845 0
M  V30 1550 C 142.076 -1.95417 -0.798455 0
M  V30 1551 O 141.424 -1.50997 -1.715 0
M  V30 1552 C 141.634 -3.17937 1.43935 0
M  V30 1553 C 142.982 -3.93501 1.59506 0
M  V30 1554 O 144.006 -3.27509 1.40058 0
M  V30 1555 O 142.865 -5.1183 1.91551 0
M  V30 1556 H 139.959 -0.78628 0.256305 0
M  V30 1557 H 142.505 -1.21934 1.18026 0
M  V30 1558 H 141.277 -3.0325 2.47295 0
M  V30 1559 H 140.9 -3.85619 0.968687 0
M  V30 1560 N 141.898 -0.863906 -1.31812 0
M  V30 1561 C 142.845 -0.313303 -2.28664 0
M  V30 1562 C 143.815 0.584868 -1.55462 0
M  V30 1563 O 145 0.517805 -1.83639 0
M  V30 1564 C 142.14 0.48441 -3.41683 0
M  V30 1565 C 141.253 -0.440594 -4.29747 0
M  V30 1566 C 140.388 0.370652 -5.29905 0
M  V30 1567 C 139.427 -0.551164 -6.09613 0
M  V30 1568 N 138.564 0.223462 -7.01744 0
M  V30 1569 H 143.404 -1.14444 -2.75148 0
M  V30 1570 H 140.941 -0.575769 -1.35364 0
M  V30 1571 H 142.899 0.962627 -4.05943 0
M  V30 1572 H 141.529 1.28029 -2.96325 0
M  V30 1573 H 140.581 -1.03724 -3.65986 0
M  V30 1574 H 141.893 -1.14767 -4.85417 0
M  V30 1575 H 141.047 0.911638 -5.99812 0
M  V30 1576 H 139.786 1.11105 -4.74876 0
M  V30 1577 H 138.791 -1.10396 -5.38603 0
M  V30 1578 H 140.016 -1.29032 -6.66729 0
M  V30 1579 H 137.962 0.946787 -6.49132 0
M  V30 1580 H 137.879 -0.424399 -7.54808 0
M  V30 1581 H 139.147 0.745876 -7.75923 0
M  V30 1582 N 143.376 1.44774 -0.622745 0
M  V30 1583 C 144.624 2.01721 -0.123655 0
M  V30 1584 C 144.945 1.49172 1.25589 0
M  V30 1585 O 144.215 0.691974 1.83272 0
M  V30 1586 H 142.795 0.745777 -0.0427225 0
M  V30 1587 H 145.457 1.77382 -0.807559 0
M  V30 1588 H 144.553 3.11984 -0.0849534 0
M  V30 1589 N 144.854 0.36279 1.53368 0
M  V30 1590 C 146.265 -0.117022 1.86333 0
M  V30 1591 C 146.616 -1.48397 1.28347 0
M  V30 1592 O 145.741 -2.07787 0.604428 0
M  V30 1593 C 146.336 -0.21912 3.38091 0
M  V30 1594 C 144.895 -0.643184 3.70864 0
M  V30 1595 C 144.042 0.211318 2.76494 0
M  V30 1596 H 146.993 0.581687 1.47655 0
M  V30 1597 H 147.014 -1.04319 3.6592 0
M  V30 1598 H 146.526 0.775902 3.80265 0
M  V30 1599 H 144.627 -1.64654 3.34245 0
M  V30 1600 H 144.74 -0.41973 4.77258 0
M  V30 1601 H 143.104 -0.319367 2.5269 0
M  V30 1602 H 143.887 1.20383 3.21501 0
M  V30 1603 N 146.332 -1.57332 0.0918853 0
M  V30 1604 C 147.743 -1.81496 -0.437739 0
M  V30 1605 C 148.094 -1.00727 -1.6837 0
M  V30 1606 O 147.219 -0.235694 -2.15113 0
M  V30 1607 C 147.814 -3.29197 -0.800939 0
M  V30 1608 C 146.373 -3.54136 -1.27532 0
M  V30 1609 C 145.52 -2.75979 -0.270392 0
M  V30 1610 H 148.471 -1.55494 0.317366 0
M  V30 1611 H 148.492 -3.42344 -1.66074 0
M  V30 1612 H 148.004 -3.87955 0.106078 0
M  V30 1613 H 146.105 -3.00705 -2.20016 0
M  V30 1614 H 146.218 -4.62792 -1.23938 0
M  V30 1615 H 144.582 -2.43349 -0.751872 0
M  V30 1616 H 145.365 -3.37484 0.629248 0
M  V30 1617 N 147.81 0.181792 -1.56548 0
M  V30 1618 C 149.05 0.906711 -1.83189 0
M  V30 1619 C 149.414 1.79882 -0.671312 0
M  V30 1620 O 150.615 2.56054 -0.81792 0
M  V30 1621 C 148.886 1.69023 -3.14906 0
M  V30 1622 S 150.445 2.46535 -3.62996 0
M  V30 1623 H 147.263 0.303877 -0.642791 0
M  V30 1624 H 149.865 0.169107 -1.94767 0
M  V30 1625 H 148.569 1.02571 -3.97376 0
M  V30 1626 H 148.1 2.46941 -3.06241 0
M  V30 1627 H 150.115 3.71014 -3.29489 0
M  V30 1628 N 149.288 1.51039 0.449983 0
M  V30 1629 C 150.536 1.62759 1.19808 0
M  V30 1630 C 150.857 0.339981 1.92013 0
M  V30 1631 O 150.127 -0.643606 1.85026 0
M  V30 1632 H 148.707 0.599811 0.445237 0
M  V30 1633 H 151.369 1.87914 0.517138 0
M  V30 1634 H 150.465 2.44911 1.93455 0
M  V30 1635 N 150.766 -0.704594 1.40972 0
M  V30 1636 C 152.177 -1.28418 1.3552 0
M  V30 1637 C 152.528 -1.96171 0.0339434 0
M  V30 1638 O 151.653 -1.98231 -0.867944 0
M  V30 1639 C 152.248 -2.33528 2.45459 0
M  V30 1640 C 150.807 -2.87085 2.43433 0
M  V30 1641 C 149.954 -1.61007 2.2577 0
M  V30 1642 H 152.905 -0.499963 1.50619 0
M  V30 1643 H 152.926 -3.14619 2.13998 0
M  V30 1644 H 152.438 -1.84187 3.41609 0
M  V30 1645 H 150.539 -3.40626 1.51013 0
M  V30 1646 H 150.652 -3.3813 3.39419 0
M  V30 1647 H 149.016 -1.86482 1.73483 0
M  V30 1648 H 149.799 -1.13675 3.23933 0
M  V30 1649 N 152.244 -1.26651 -0.937939 0
M  V30 1650 C 153.49 -1.12553 -1.687 0
M  V30 1651 C 153.823 0.329782 -1.91379 0
M  V30 1652 O 153.098 1.24202 -1.4968 0
M  V30 1653 C 153.381 -1.89862 -3.05981 0
M  V30 1654 C 153.234 -3.43318 -2.90607 0
M  V30 1655 C 154.553 -1.69499 -4.0615 0
M  V30 1656 H 151.672 -0.410257 -0.612257 0
M  V30 1657 H 154.314 -1.55685 -1.08913 0
M  V30 1658 H 152.464 -1.53204 -3.57017 0
M  V30 1659 H 154.136 -3.89747 -2.46769 0
M  V30 1660 H 152.379 -3.70179 -2.26164 0
M  V30 1661 H 153.05 -3.92642 -3.8799 0
M  V30 1662 H 155.526 -2.01442 -3.64088 0
M  V30 1663 H 154.402 -2.26002 -5.00214 0
M  V30 1664 H 154.663 -0.640365 -4.37438 0
M  V30 1665 N 153.722 1.14298 -1.08507 0
M  V30 1666 C 154.67 2.21483 -0.710483 0
M  V30 1667 C 155.664 1.66998 0.284234 0
M  V30 1668 O 156.87 1.79401 0.146692 0
M  V30 1669 H 153.245 0.721578 -0.211729 0
M  V30 1670 H 155.216 2.50348 -1.62384 0
M  V30 1671 C 153.965 3.4743 -0.137007 0
M  V30 1672 H 153.288 3.89686 -0.893592 0
M  V30 1673 H 154.728 4.2391 0.0872789 0
M  V30 1674 C 153.187 3.17548 1.12538 0
M  V30 1675 O 153.717 3.35437 2.21009 0
M  V30 1676 N 151.923 2.71499 1.03617 0
M  V30 1677 H 151.47 2.57143 0.153403 0
M  V30 1678 H 151.428 2.51881 1.88158 0
M  V30 1679 N 155.201 0.870884 1.31352 0
M  V30 1680 C 156.441 0.488783 1.9847 0
M  V30 1681 C 156.805 -0.941536 1.67329 0
M  V30 1682 O 158.006 -1.42903 2.27667 0
M  V30 1683 C 156.277 0.739688 3.49662 0
M  V30 1684 S 157.836 0.457582 4.36408 0
M  V30 1685 H 154.654 0.18242 0.6872 0
M  V30 1686 H 157.256 1.12711 1.59739 0
M  V30 1687 H 155.96 1.77944 3.69816 0
M  V30 1688 H 155.491 0.0883905 3.93301 0
M  V30 1689 H 157.506 -0.709752 4.91098 0
M  V30 1690 N 156.679 -1.44442 0.630414 0
M  V30 1691 C 157.627 -2.32437 -0.0871428 0
M  V30 1692 C 158.621 -1.47304 -0.836525 0
M  V30 1693 O 159.827 -1.63653 -0.749506 0
M  V30 1694 H 156.202 -0.750533 -0.0469495 0
M  V30 1695 H 158.173 -2.90709 0.673096 0
M  V30 1696 C 156.922 -3.31288 -1.05563 0
M  V30 1697 H 156.245 -3.96805 -0.488426 0
M  V30 1698 H 157.685 -3.9554 -1.52721 0
M  V30 1699 C 156.144 -2.6016 -2.14052 0
M  V30 1700 O 156.674 -2.39997 -3.22124 0
M  V30 1701 N 154.88 -2.19911 -1.89967 0
M  V30 1702 H 154.427 -2.36509 -1.02085 0
M  V30 1703 H 154.385 -1.72646 -2.62756 0
M  V30 1704 N 158.157 -0.370918 -1.53173 0
M  V30 1705 C 159.067 0.480823 -2.2962 0
M  V30 1706 C 160.083 1.08789 -1.35798 0
M  V30 1707 O 161.259 1.09768 -1.68858 0
M  V30 1708 C 158.324 1.60227 -3.07454 0
M  V30 1709 C 157.385 1.0222 -4.16953 0
M  V30 1710 C 156.618 2.0902 -4.91066 0
M  V30 1711 O 156.841 3.30222 -4.65091 0
M  V30 1712 O 155.775 1.71778 -5.76867 0
M  V30 1713 H 159.601 -0.141421 -3.03371 0
M  V30 1714 H 157.186 -0.135146 -1.48787 0
M  V30 1715 H 159.068 2.25417 -3.56041 0
M  V30 1716 H 157.743 2.20982 -2.36535 0
M  V30 1717 H 156.65 0.334064 -3.72605 0
M  V30 1718 H 157.983 0.459131 -4.90054 0
M  V30 1719 N 159.635 1.57281 -0.100228 0
M  V30 1720 C 160.582 2.14305 0.856858 0
M  V30 1721 C 161.552 1.06296 1.27634 0
M  V30 1722 O 162.737 1.34109 1.35718 0
M  V30 1723 C 159.877 2.73184 2.10866 0
M  V30 1724 C 158.99 3.95442 1.73925 0
M  V30 1725 C 158.125 4.42468 2.93931 0
M  V30 1726 C 157.164 5.57303 2.5314 0
M  V30 1727 N 156.301 5.99158 3.65997 0
M  V30 1728 H 161.141 2.95772 0.363726 0
M  V30 1729 H 158.678 1.46139 0.167858 0
M  V30 1730 H 160.636 3.05442 2.84185 0
M  V30 1731 H 159.266 1.94437 2.57671 0
M  V30 1732 H 158.318 3.69464 0.905554 0
M  V30 1733 H 159.63 4.78769 1.39935 0
M  V30 1734 H 158.784 4.76537 3.75496 0
M  V30 1735 H 157.523 3.58052 3.31134 0
M  V30 1736 H 156.528 5.22857 1.70003 0
M  V30 1737 H 157.753 6.43471 2.17075 0
M  V30 1738 H 155.699 5.17687 4.02909 0
M  V30 1739 H 155.616 6.77295 3.35869 0
M  V30 1740 H 156.884 6.3786 4.48057 0
M  V30 1741 N 161.113 -0.173488 1.56642 0
M  V30 1742 C 162.362 -0.888758 1.81063 0
M  V30 1743 C 162.675 -1.83506 0.67712 0
M  V30 1744 O 163.881 -2.59254 0.806206 0
M  V30 1745 C 162.337 -1.63091 3.20826 0
M  V30 1746 C 161.945 -0.728357 4.4204 0
M  V30 1747 C 163.689 -2.33454 3.54541 0
M  V30 1748 C 161.596 -1.47062 5.72823 0
M  V30 1749 H 160.526 -0.335618 0.675186 0
M  V30 1750 H 163.177 -0.141712 1.82952 0
M  V30 1751 H 161.559 -2.42263 3.13248 0
M  V30 1752 H 162.733 0.0262449 4.60793 0
M  V30 1753 H 161.048 -0.134492 4.16183 0
M  V30 1754 H 163.645 -2.89578 4.49498 0
M  V30 1755 H 163.988 -3.08687 2.79317 0
M  V30 1756 H 164.521 -1.61227 3.63663 0
M  V30 1757 H 161.26 -0.760658 6.51072 0
M  V30 1758 H 160.78 -2.1986 5.58052 0
M  V30 1759 H 162.459 -2.01868 6.14702 0
M  V30 1760 N 162.591 -1.51276 -0.441967 0
M  V30 1761 C 163.837 -1.63958 -1.19355 0
M  V30 1762 C 164.17 -0.352543 -1.90973 0
M  V30 1763 O 163.445 0.647627 -1.83401 0
M  V30 1764 C 163.728 -2.83979 -2.21422 0
M  V30 1765 C 163.581 -4.22646 -1.53918 0
M  V30 1766 C 164.9 -2.99521 -3.22451 0
M  V30 1767 H 162.019 -0.596709 -0.432559 0
M  V30 1768 H 164.661 -1.83748 -0.483398 0
M  V30 1769 H 162.811 -2.67237 -2.81987 0
M  V30 1770 H 164.483 -4.51045 -0.967256 0
M  V30 1771 H 162.726 -4.25558 -0.841615 0
M  V30 1772 H 163.397 -5.02609 -2.28229 0
M  V30 1773 H 165.873 -3.14944 -2.71937 0
M  V30 1774 H 164.749 -3.85072 -3.91166 0
M  V30 1775 H 165.01 -2.11391 -3.88287 0
M  V30 1776 N 164.069 0.697108 -1.41344 0
M  V30 1777 C 165.315 1.4593 -1.40827 0
M  V30 1778 C 165.648 1.94193 -0.0167098 0
M  V30 1779 O 164.923 1.69425 0.955263 0
M  V30 1780 C 165.206 2.67229 -2.41373 0
M  V30 1781 C 165.059 2.24741 -3.8963 0
M  V30 1782 C 166.378 3.69423 -2.39196 0
M  V30 1783 H 163.497 0.529303 -0.512842 0
M  V30 1784 H 166.139 0.794112 -1.72609 0
M  V30 1785 H 164.289 3.23982 -2.14401 0
M  V30 1786 H 165.961 1.73327 -4.27499 0
M  V30 1787 H 164.204 1.56542 -4.0457 0
M  V30 1788 H 164.875 3.1177 -4.55525 0
M  V30 1789 H 167.351 3.2234 -2.63128 0
M  V30 1790 H 166.227 4.51907 -3.11563 0
M  V30 1791 H 166.488 4.19012 -1.41001 0
M  V30 1792 N 165.547 1.27147 0.931209 0
M  V30 1793 C 166.477 1.12081 2.04842 0
M  V30 1794 C 167.458 0.0232364 1.70084 0
M  V30 1795 O 168.643 0.197085 1.93197 0
M  V30 1796 C 165.773 0.76354 3.38803 0
M  V30 1797 C 164.727 1.81396 3.87659 0
M  V30 1798 C 164.053 1.31075 5.18385 0
M  V30 1799 C 165.353 3.21739 4.11438 0
M  V30 1800 H 167.047 2.05537 2.17703 0
M  V30 1801 H 164.593 0.989603 1.04608 0
M  V30 1802 H 166.546 0.644982 4.16435 0
M  V30 1803 H 165.27 -0.206727 3.25945 0
M  V30 1804 H 163.929 1.92136 3.12217 0
M  V30 1805 H 163.577 0.330037 5.01916 0
M  V30 1806 H 163.277 2.013 5.52044 0
M  V30 1807 H 164.801 1.20506 5.98591 0
M  V30 1808 H 166.215 3.14019 4.79651 0
M  V30 1809 H 164.612 3.89644 4.56397 0
M  V30 1810 H 165.682 3.67054 3.16859 0
M  V30 1811 N 167.025 -1.13721 1.09112 0
M  V30 1812 C 167.955 -2.21148 0.749385 0
M  V30 1813 C 168.936 -1.6792 -0.271475 0
M  V30 1814 O 170.121 -1.93693 -0.140251 0
M  V30 1815 C 167.251 -3.46905 0.165659 0
M  V30 1816 C 166.205 -4.13203 1.11567 0
M  V30 1817 C 165.531 -5.33248 0.393809 0
M  V30 1818 C 166.831 -4.60912 2.45678 0
M  V30 1819 H 168.525 -2.4999 1.64758 0
M  V30 1820 H 166.071 -1.20156 0.793626 0
M  V30 1821 H 168.024 -4.21313 -0.085466 0
M  V30 1822 H 166.748 -3.17449 -0.767714 0
M  V30 1823 H 165.407 -3.40758 1.35202 0
M  V30 1824 H 165.055 -5.00054 -0.543599 0
M  V30 1825 H 164.755 -5.78552 1.02721 0
M  V30 1826 H 166.279 -6.10413 0.150908 0
M  V30 1827 H 167.693 -5.26759 2.26269 0
M  V30 1828 H 166.09 -5.16944 3.04776 0
M  V30 1829 H 167.16 -3.75603 3.06677 0
M  V30 1830 N 168.503 -0.877838 -1.30888 0
M  V30 1831 C 169.435 -0.296607 -2.27273 0
M  V30 1832 C 170.448 0.544799 -1.53414 0
M  V30 1833 O 171.637 0.365511 -1.74718 0
M  V30 1834 C 168.737 0.597481 -3.33592 0
M  V30 1835 C 167.91 -0.213251 -4.3688 0
M  V30 1836 C 166.969 0.610208 -5.2265 0
M  V30 1837 O 165.995 0.035441 -5.69189 0
M  V30 1838 N 167.197 1.92071 -5.47804 0
M  V30 1839 H 169.962 -1.12492 -2.77787 0
M  V30 1840 H 167.523 -0.740105 -1.43993 0
M  V30 1841 H 169.515 1.15425 -3.87891 0
M  V30 1842 H 168.085 1.32647 -2.83061 0
M  V30 1843 H 167.305 -0.951466 -3.82545 0
M  V30 1844 H 168.593 -0.769262 -5.02951 0
M  V30 1845 H 167.991 2.4107 -5.11763 0
M  V30 1846 H 166.548 2.42508 -6.05007 0
M  V30 1847 N 169.982 1.44106 -0.638065 0
M  V30 1848 C 171.398 1.56672 -0.304286 0
M  V30 1849 C 171.598 1.6244 1.19228 0
M  V30 1850 O 170.654 1.57121 1.9766 0
M  V30 1851 C 171.967 2.83503 -1.00231 0
M  V30 1852 C 173.515 2.97226 -0.981116 0
M  V30 1853 C 173.99 4.26868 -1.65974 0
M  V30 1854 N 175.481 4.33698 -1.62666 0
M  V30 1855 C 176.216 5.32745 -2.12063 0
M  V30 1856 N 175.712 6.38157 -2.6968 0
M  V30 1857 N 177.505 5.24299 -2.02651 0
M  V30 1858 H 169.656 1.38605 -1.60942 0
M  V30 1859 H 171.919 0.664661 -0.675965 0
M  V30 1860 H 171.625 2.85251 -2.0573 0
M  V30 1861 H 171.499 3.73251 -0.54439 0
M  V30 1862 H 173.886 2.95027 0.0654188 0
M  V30 1863 H 173.967 2.08808 -1.47759 0
M  V30 1864 H 173.611 4.29826 -2.70576 0
M  V30 1865 H 173.541 5.14156 -1.13804 0
M  V30 1866 H 176.032 3.58138 -1.20606 0
M  V30 1867 H 176.345 7.10029 -3.05087 0
M  V30 1868 H 174.69 6.38823 -2.73734 0
M  V30 1869 H 177.881 4.4086 -1.57353 0
M  V30 1870 H 178.054 6.01334 -2.41457 0
M  V30 1871 N 171.46 0.379036 1.52974 0
M  V30 1872 C 172.39 -0.452706 2.29069 0
M  V30 1873 C 173.371 -1.07237 1.32039 0
M  V30 1874 O 174.556 -1.08708 1.60923 0
M  V30 1875 C 171.686 -1.5856 3.08992 0
M  V30 1876 C 170.64 -1.0925 4.13822 0
M  V30 1877 C 169.966 -2.31668 4.81907 0
M  V30 1878 C 171.266 -0.167702 5.22031 0
M  V30 1879 H 172.96 0.182181 2.98845 0
M  V30 1880 H 170.506 0.0890592 1.43724 0
M  V30 1881 H 172.459 -2.1742 3.6098 0
M  V30 1882 H 171.183 -2.24792 2.36931 0
M  V30 1883 H 169.842 -0.526494 3.628 0
M  V30 1884 H 169.49 -2.96386 4.06404 0
M  V30 1885 H 169.19 -1.9934 5.52754 0
M  V30 1886 H 170.714 -2.91189 5.36695 0
M  V30 1887 H 172.128 -0.664186 5.6944 0
M  V30 1888 H 170.525 0.0653265 6.00064 0
M  V30 1889 H 171.595 0.786347 4.78482 0
M  V30 1890 N 172.938 -1.57226 0.108567 0
M  V30 1891 C 173.885 -2.14756 -0.845481 0
M  V30 1892 C 174.855 -1.06971 -1.27068 0
M  V30 1893 O 176.04 -1.34827 -1.35005 0
M  V30 1894 C 173.18 -2.74298 -2.09415 0
M  V30 1895 C 172.293 -3.96358 -1.71826 0
M  V30 1896 C 171.428 -4.44021 -2.9158 0
M  V30 1897 C 170.467 -5.58637 -2.50181 0
M  V30 1898 N 169.604 -6.01091 -3.62814 0
M  V30 1899 H 174.444 -2.95961 -0.348035 0
M  V30 1900 H 171.981 -1.46226 -0.160106 0
M  V30 1901 H 173.939 -3.06945 -2.82561 0
M  V30 1902 H 172.569 -1.95801 -2.56636 0
M  V30 1903 H 171.621 -3.69939 -0.885947 0
M  V30 1904 H 172.933 -4.79504 -1.37394 0
M  V30 1905 H 172.087 -4.78522 -3.72963 0
M  V30 1906 H 170.826 -3.59803 -3.29231 0
M  V30 1907 H 169.831 -5.23751 -1.67228 0
M  V30 1908 H 171.056 -6.44613 -2.13659 0
M  V30 1909 H 169.002 -5.19817 -4.00158 0
M  V30 1910 H 168.919 -6.79066 -3.32273 0
M  V30 1911 H 170.187 -6.40227 -4.44668 0
M  V30 1912 N 174.416 0.165178 -1.56732 0
M  V30 1913 C 175.827 0.727046 -1.71962 0
M  V30 1914 C 176.178 1.82508 -0.720078 0
M  V30 1915 O 175.303 2.16082 0.117242 0
M  V30 1916 C 175.898 1.32559 -3.11791 0
M  V30 1917 C 174.457 1.83422 -3.28684 0
M  V30 1918 C 173.604 0.715567 -2.67908 0
M  V30 1919 H 176.555 -0.0602896 -1.58585 0
M  V30 1920 H 176.576 2.19533 -3.10782 0
M  V30 1921 H 176.088 0.526195 -3.84516 0
M  V30 1922 H 174.189 2.65986 -2.60926 0
M  V30 1923 H 174.302 1.97543 -4.36478 0
M  V30 1924 H 172.666 1.13758 -2.27884 0
M  V30 1925 H 173.449 -0.0720836 -3.43224 0
M  V30 1926 N 175.894 1.51508 0.433938 0
M  V30 1927 C 176.804 1.75917 1.5521 0
M  V30 1928 C 177.82 0.643545 1.61662 0
M  V30 1929 O 178.996 0.926183 1.7884 0
M  V30 1930 C 176.061 1.88213 2.91164 0
M  V30 1931 C 175.122 3.12074 2.94802 0
M  V30 1932 C 174.355 3.23774 4.24271 0
M  V30 1933 O 174.578 2.4133 5.16833 0
M  V30 1934 O 173.512 4.16774 4.34262 0
M  V30 1935 H 177.338 2.70777 1.37527 0
M  V30 1936 H 174.923 1.36051 0.617293 0
M  V30 1937 H 176.805 1.98267 3.71845 0
M  V30 1938 H 175.48 0.965413 3.08968 0
M  V30 1939 H 174.387 3.07497 2.13065 0
M  V30 1940 H 175.72 4.03446 2.81943 0
M  V30 1941 N 177.372 -0.689602 1.41712 0
M  V30 1942 C 178.621 -1.44534 1.40686 0
M  V30 1943 C 178.934 -1.95588 0.0213352 0
M  V30 1944 O 180.14 -2.71271 -0.111534 0
M  V30 1945 C 178.596 -2.61387 2.47396 0
M  V30 1946 C 178.204 -2.17094 3.91885 0
M  V30 1947 C 179.948 -3.38986 2.55517 0
M  V30 1948 C 177.855 -3.3094 4.90135 0
M  V30 1949 H 176.785 -0.542925 0.52321 0
M  V30 1950 H 179.436 -0.748054 1.6756 0
M  V30 1951 H 177.818 -3.33412 2.13664 0
M  V30 1952 H 178.992 -1.52318 4.34897 0
M  V30 1953 H 177.307 -1.52473 3.8748 0
M  V30 1954 H 179.904 -4.23747 3.26102 0
M  V30 1955 H 180.247 -3.84578 1.59391 0
M  V30 1956 H 180.78 -2.74021 2.8837 0
M  V30 1957 H 177.519 -2.90355 5.87685 0
M  V30 1958 H 177.039 -3.94546 4.51767 0
M  V30 1959 H 178.718 -3.9663 5.11169 0
M  V30 1960 N 178.85 -1.27639 -0.924453 0
M  V30 1961 C 179.797 -1.10644 -2.0255 0
M  V30 1962 C 180.767 -0.00658438 -1.66099 0
M  V30 1963 O 181.952 -0.16952 -1.90045 0
M  V30 1964 C 179.092 -0.76309 -3.36557 0
M  V30 1965 C 178.205 -1.94091 -3.85944 0
M  V30 1966 C 177.34 -1.53914 -5.08413 0
M  V30 1967 C 176.379 -2.68425 -5.50104 0
M  V30 1968 N 175.516 -2.28815 -6.63768 0
M  V30 1969 H 180.356 -2.04858 -2.16419 0
M  V30 1970 H 177.893 -1.01974 -1.06017 0
M  V30 1971 H 179.851 -0.544822 -4.13627 0
M  V30 1972 H 178.481 0.142102 -3.22487 0
M  V30 1973 H 177.533 -2.27162 -3.05125 0
M  V30 1974 H 178.845 -2.7998 -4.12811 0
M  V30 1975 H 177.999 -1.28231 -5.92994 0
M  V30 1976 H 176.738 -0.651391 -4.8333 0
M  V30 1977 H 175.743 -2.94819 -4.64071 0
M  V30 1978 H 176.968 -3.57826 -5.7718 0
M  V30 1979 H 174.914 -1.42495 -6.40337 0
M  V30 1980 H 174.831 -3.08242 -6.90306 0
M  V30 1981 H 176.099 -2.06387 -7.51681 0
M  V30 1982 N 180.328 1.1314 -1.09713 0
M  V30 1983 C 181.605 1.80762 -0.747302 0
M  V30 1984 C 181.985 1.96663 0.767265 0
M  V30 1985 O 181.333 1.53706 1.69076 0
M  V30 1986 C 181.543 3.15606 -1.48975 0
M  V30 1987 C 182.891 3.90914 -1.65746 0
M  V30 1988 O 183.915 3.25239 -1.45251 0
M  V30 1989 O 182.774 5.08718 -1.9967 0
M  V30 1990 H 179.868 0.782103 -0.268782 0
M  V30 1991 H 182.414 1.20041 -1.19951 0
M  V30 1992 H 181.186 2.99278 -2.52088 0
M  V30 1993 H 180.809 3.84029 -1.02991 0
M  V30 1994 N 181.806 0.884767 1.30421 0
M  V30 1995 C 183.052 0.503851 1.96441 0
M  V30 1996 C 183.385 -0.944518 1.69684 0
M  V30 1997 O 182.66 -1.66737 1.00145 0
M  V30 1998 C 182.943 0.779085 3.51571 0
M  V30 1999 C 182.796 2.27807 3.87846 0
M  V30 2000 C 184.115 0.255452 4.39358 0
M  V30 2001 H 181.234 0.184533 0.713524 0
M  V30 2002 H 183.876 1.10872 1.54297 0
M  V30 2003 H 182.026 0.264274 3.876 0
M  V30 2004 H 183.698 2.86127 3.61841 0
M  V30 2005 H 181.941 2.74479 3.35922 0
M  V30 2006 H 182.612 2.42125 4.96064 0
M  V30 2007 H 185.088 0.696079 4.10236 0
M  V30 2008 H 183.964 0.477361 5.4682 0
M  V30 2009 H 184.225 -0.843293 4.33983 0
M  V30 2010 N 183.284 -1.43765 0.645699 0
M  V30 2011 C 184.533 -2.01116 0.153412 0
M  V30 2012 C 184.846 -1.51493 -1.23731 0
M  V30 2013 O 186.052 -2.01067 -1.8244 0
M  V30 2014 C 184.508 -3.59206 0.223473 0
M  V30 2015 C 184.116 -4.17823 1.61642 0
M  V30 2016 C 185.86 -4.23972 -0.211597 0
M  V30 2017 C 183.767 -5.68183 1.64081 0
M  V30 2018 H 182.697 -0.752093 0.0535891 0
M  V30 2019 H 185.348 -1.6482 0.806633 0
M  V30 2020 H 183.73 -3.92867 -0.497118 0
M  V30 2021 H 184.904 -3.95674 2.36176 0
M  V30 2022 H 183.219 -3.65399 1.99681 0
M  V30 2023 H 185.816 -5.34275 -0.213112 0
M  V30 2024 H 186.159 -3.97352 -1.24165 0
M  V30 2025 H 186.692 -3.95166 0.456988 0
M  V30 2026 H 183.431 -5.99559 2.64971 0
M  V30 2027 H 182.951 -5.9241 0.938611 0
M  V30 2028 H 184.63 -6.32085 1.3812 0
M  V30 2029 N 184.763 -0.387143 -1.52771 0
M  V30 2030 C 185.673 0.456442 -2.30117 0
M  V30 2031 C 186.689 1.07342 -1.36944 0
M  V30 2032 O 187.865 1.07971 -1.70013 0
M  V30 2033 C 184.93 1.56957 -3.09136 0
M  V30 2034 C 183.991 0.977916 -4.18014 0
M  V30 2035 C 183.224 2.038 -4.93256 0
M  V30 2036 O 183.447 3.25271 -4.68567 0
M  V30 2037 O 182.381 1.6565 -5.78657 0
M  V30 2038 H 186.207 -0.17359 -3.03203 0
M  V30 2039 H 183.792 -0.150919 -1.48636 0
M  V30 2040 H 185.674 2.21628 -3.58412 0
M  V30 2041 H 184.349 2.18461 -2.38865 0
M  V30 2042 H 183.256 0.294525 -3.72939 0
M  V30 2043 H 184.589 0.407128 -4.90513 0
M  V30 2044 N 186.241 1.57166 -0.116904 0
M  V30 2045 C 187.173 2.12271 0.864507 0
M  V30 2046 C 188.186 1.06494 1.23138 0
M  V30 2047 O 189.375 1.33873 1.18069 0
M  V30 2048 C 186.475 2.60564 2.16702 0
M  V30 2049 C 185.648 3.90416 1.97216 0
M  V30 2050 C 184.707 4.24329 3.11178 0
M  V30 2051 O 183.733 4.93182 2.84184 0
M  V30 2052 N 184.935 3.8148 4.37554 0
M  V30 2053 H 187.7 2.97102 0.393726 0
M  V30 2054 H 185.261 1.61759 0.0675805 0
M  V30 2055 H 187.253 2.80282 2.91932 0
M  V30 2056 H 185.823 1.80623 2.55135 0
M  V30 2057 H 185.043 3.79627 1.06192 0
M  V30 2058 H 186.331 4.75327 1.81499 0
M  V30 2059 H 185.729 3.25943 4.62361 0
M  V30 2060 H 184.286 4.06311 5.09661 0
M  V30 2061 N 187.719 -0.156864 1.56817 0
M  V30 2062 C 188.649 -1.19589 2.00551 0
M  V30 2063 C 189.63 -1.4536 0.883426 0
M  V30 2064 O 190.815 -1.56449 1.15054 0
M  V30 2065 C 187.945 -2.53143 2.37773 0
M  V30 2066 C 186.899 -2.41913 3.53075 0
M  V30 2067 C 186.225 -3.80088 3.76081 0
M  V30 2068 C 187.525 -1.91157 4.86062 0
M  V30 2069 H 189.219 -0.832293 2.87599 0
M  V30 2070 H 186.765 -0.398918 1.38364 0
M  V30 2071 H 188.718 -3.26047 2.66967 0
M  V30 2072 H 187.442 -2.91319 1.4765 0
M  V30 2073 H 186.101 -1.71462 3.24031 0
M  V30 2074 H 185.749 -4.15683 2.83225 0
M  V30 2075 H 185.449 -3.73439 4.53671 0
M  V30 2076 H 186.973 -4.54556 4.0769 0
M  V30 2077 H 188.387 -2.53846 5.14038 0
M  V30 2078 H 186.784 -1.95422 5.67389 0
M  V30 2079 H 187.854 -0.866673 4.77092 0
M  V30 2080 N 189.197 -1.51736 -0.425897 0
M  V30 2081 C 190.145 -1.74464 -1.53834 0
M  V30 2082 C 191.139 -0.611241 -1.57988 0
M  V30 2083 O 192.345 -0.792899 -1.61596 0
M  V30 2084 H 188.72 -0.551437 -0.511293 0
M  V30 2085 H 190.691 -2.67694 -1.31843 0
M  V30 2086 C 189.44 -1.8972 -2.91379 0
M  V30 2087 H 188.763 -2.76344 -2.88919 0
M  V30 2088 H 190.203 -2.09629 -3.68553 0
M  V30 2089 C 188.662 -0.65992 -3.30374 0
M  V30 2090 O 189.192 0.180083 -4.01296 0
M  V30 2091 N 187.398 -0.500677 -2.86254 0
M  V30 2092 H 186.945 -1.18532 -2.28709 0
M  V30 2093 H 186.903 0.325903 -3.12706 0
M  V30 2094 N 190.675 0.682077 -1.42076 0
M  V30 2095 C 191.605 1.80796 -1.47767 0
M  V30 2096 C 192.586 1.6677 -0.334954 0
M  V30 2097 O 193.771 1.863 -0.548264 0
M  V30 2098 C 190.901 3.19038 -1.37229 0
M  V30 2099 C 189.855 3.47789 -2.49453 0
M  V30 2100 C 189.181 4.8553 -2.23975 0
M  V30 2101 C 190.481 3.45411 -3.91776 0
M  V30 2102 H 192.175 1.7629 -2.41997 0
M  V30 2103 H 189.721 0.846721 -1.16476 0
M  V30 2104 H 191.674 3.97528 -1.39821 0
M  V30 2105 H 190.398 3.24204 -0.394907 0
M  V30 2106 H 189.057 2.71657 -2.46166 0
M  V30 2107 H 188.705 4.87337 -1.24547 0
M  V30 2108 H 188.405 5.0573 -2.99184 0
M  V30 2109 H 189.929 5.66312 -2.28304 0
M  V30 2110 H 191.343 4.13882 -3.96705 0
M  V30 2111 H 189.74 3.77145 -4.66778 0
M  V30 2112 H 190.81 2.44122 -4.18966 0
M  V30 2113 N 192.153 1.28127 0.917671 0
M  V30 2114 C 193.399 1.15223 1.66888 0
M  V30 2115 C 193.732 -0.299293 1.9188 0
M  V30 2116 O 193.007 -1.21805 1.51637 0
M  V30 2117 C 193.29 1.94706 3.02922 0
M  V30 2118 C 193.143 3.47898 2.85109 0
M  V30 2119 C 194.462 1.75939 4.03402 0
M  V30 2120 H 191.581 0.419946 0.605652 0
M  V30 2121 H 194.223 1.57398 1.06423 0
M  V30 2122 H 192.373 1.58864 3.54534 0
M  V30 2123 H 194.045 3.93624 2.40537 0
M  V30 2124 H 192.288 3.7373 2.20246 0
M  V30 2125 H 192.959 3.98765 3.81694 0
M  V30 2126 H 195.435 2.07209 3.60837 0
M  V30 2127 H 194.311 2.33931 4.96556 0
M  V30 2128 H 194.572 0.709877 4.36364 0
M  V30 2129 N 193.631 -1.12557 1.10312 0
M  V30 2130 C 194.859 -1.87864 0.866873 0
M  V30 2131 C 195.274 -1.79588 -0.582557 0
M  V30 2132 O 194.631 -1.16887 -1.40156 0
M  V30 2133 C 194.682 -3.37125 1.30496 0
M  V30 2134 O 194.403 -3.45201 2.69755 0
M  V30 2135 C 195.904 -4.29373 1.10243 0
M  V30 2136 H 193.124 -0.594452 0.311236 0
M  V30 2137 H 195.668 -1.42429 1.46745 0
M  V30 2138 H 193.823 -3.80109 0.748081 0
M  V30 2139 H 194.237 -4.38056 2.88457 0
M  V30 2140 H 195.711 -5.32394 1.45811 0
M  V30 2141 H 196.188 -4.39181 0.0409492 0
M  V30 2142 H 196.794 -3.92169 1.64571 0
M  V30 2143 N 195.109 -0.891671 -1.2995 0
M  V30 2144 C 196.337 -0.52866 -2.00032 0
M  V30 2145 C 196.752 0.884574 -1.66795 0
M  V30 2146 O 196.109 1.5827 -0.908669 0
M  V30 2147 C 196.16 -0.701814 -3.54622 0
M  V30 2148 O 195.881 -2.05942 -3.86678 0
M  V30 2149 C 197.382 -0.342683 -4.41973 0
M  V30 2150 H 194.602 -0.203659 -0.639347 0
M  V30 2151 H 197.146 -1.19881 -1.65677 0
M  V30 2152 H 195.301 -0.0789468 -3.8732 0
M  V30 2153 H 195.715 -2.08291 -4.81368 0
M  V30 2154 H 197.189 -0.514709 -5.49595 0
M  V30 2155 H 197.666 0.71975 -4.33262 0
M  V30 2156 H 198.272 -0.942154 -4.14733 0
M  V30 2157 N 196.587 1.43421 -0.653314 0
M  V30 2158 C 197.833 2.02641 -0.175593 0
M  V30 2159 C 198.188 1.5062 1.19713 0
M  V30 2160 O 197.481 0.689697 1.78756 0
M  V30 2161 C 197.675 3.57176 -0.126623 0
M  V30 2162 C 197.504 4.24191 -1.49306 0
M  V30 2163 C 196.274 4.60257 -2.08547 0
M  V30 2164 C 198.472 4.53193 -2.43148 0
M  V30 2165 N 196.454 5.12345 -3.38194 0
M  V30 2166 C 197.825 5.06601 -3.57429 0
M  V30 2167 C 199.88 4.35161 -2.41949 0
M  V30 2168 C 198.583 5.43875 -4.70736 0
M  V30 2169 C 200.609 4.73498 -3.54336 0
M  V30 2170 C 199.971 5.27039 -4.67343 0
M  V30 2171 H 196.07 0.77441 -0.108686 0
M  V30 2172 H 198.654 1.74596 -0.861638 0
M  V30 2173 H 196.825 3.84784 0.528766 0
M  V30 2174 H 198.557 4.03078 0.36198 0
M  V30 2175 H 195.312 4.45302 -1.61255 0
M  V30 2176 H 195.736 5.42842 -4.04538 0
M  V30 2177 H 200.378 3.9304 -1.55818 0
M  V30 2178 H 198.096 5.8494 -5.57558 0
M  V30 2179 H 201.682 4.61241 -3.5461 0
M  V30 2180 H 200.562 5.56153 -5.52868 0
M  V30 2181 N 198.065 0.39524 1.52563 0
M  V30 2182 C 198.995 -0.428384 2.29537 0
M  V30 2183 C 199.976 -1.05831 1.33169 0
M  V30 2184 O 201.161 -1.06995 1.62067 0
M  V30 2185 C 198.291 -1.55274 3.10656 0
M  V30 2186 C 197.245 -1.04855 4.14957 0
M  V30 2187 C 196.571 -2.26543 4.84337 0
M  V30 2188 C 197.871 -0.112324 5.22179 0
M  V30 2189 H 199.565 0.213867 2.98635 0
M  V30 2190 H 197.111 0.104298 1.43622 0
M  V30 2191 H 199.064 -2.1358 3.63265 0
M  V30 2192 H 197.788 -2.22266 2.39302 0
M  V30 2193 H 196.447 -0.487985 3.63338 0
M  V30 2194 H 196.095 -2.92059 4.09525 0
M  V30 2195 H 195.795 -1.93466 5.54837 0
M  V30 2196 H 197.319 -2.85481 5.39753 0
M  V30 2197 H 198.733 -0.603752 5.70112 0
M  V30 2198 H 197.13 0.128968 5.99961 0
M  V30 2199 H 198.2 0.837052 4.77621 0
M  V30 2200 N 199.544 -1.57102 0.125237 0
M  V30 2201 C 200.476 -2.12726 -0.853237 0
M  V30 2202 C 201.489 -1.07145 -1.22571 0
M  V30 2203 O 202.678 -1.34497 -1.17358 0
M  V30 2204 C 199.778 -2.61709 -2.15317 0
M  V30 2205 C 198.951 -3.91456 -1.95143 0
M  V30 2206 C 198.01 -4.25973 -3.08923 0
M  V30 2207 O 197.036 -4.94682 -2.81564 0
M  V30 2208 N 198.238 -3.83795 -4.35524 0
M  V30 2209 H 201.003 -2.97307 -0.377964 0
M  V30 2210 H 198.564 -1.61792 -0.0590011 0
M  V30 2211 H 200.556 -2.81826 -2.90441 0
M  V30 2212 H 199.126 -1.81974 -2.54174 0
M  V30 2213 H 198.346 -3.80185 -1.04177 0
M  V30 2214 H 199.634 -4.76283 -1.78976 0
M  V30 2215 H 199.032 -3.2839 -4.60626 0
M  V30 2216 H 197.589 -4.09008 -5.07499 0
M  V30 2217 N 201.022 0.148545 -1.56898 0
M  V30 2218 C 201.952 1.18524 -2.01182 0
M  V30 2219 C 202.933 1.4489 -0.891123 0
M  V30 2220 O 204.118 1.55836 -1.15882 0
M  V30 2221 C 201.248 2.51879 -2.39112 0
M  V30 2222 C 200.202 2.40038 -3.54353 0
M  V30 2223 C 199.528 3.78089 -3.78091 0
M  V30 2224 C 200.828 1.88577 -4.87069 0
M  V30 2225 H 202.522 0.817029 -2.88036 0
M  V30 2226 H 200.068 0.391575 -1.38574 0
M  V30 2227 H 202.021 3.24627 -2.68692 0
M  V30 2228 H 200.745 2.90532 -1.49193 0
M  V30 2229 H 199.404 1.69742 -3.24936 0
M  V30 2230 H 199.052 4.14175 -2.85426 0
M  V30 2231 H 198.752 3.71028 -4.55645 0
M  V30 2232 H 200.276 4.52387 -4.10095 0
M  V30 2233 H 201.69 2.51117 -5.15377 0
M  V30 2234 H 200.087 1.9241 -5.68417 0
M  V30 2235 H 201.157 0.84136 -4.77545 0
M  V30 2236 N 202.5 1.5196 0.417844 0
M  V30 2237 C 203.432 1.70895 1.52733 0
M  V30 2238 C 204.445 0.589405 1.51756 0
M  V30 2239 O 205.634 0.864312 1.56179 0
M  V30 2240 C 202.734 1.72627 2.91639 0
M  V30 2241 C 201.907 3.01479 3.16905 0
M  V30 2242 C 200.966 2.95139 4.35637 0
M  V30 2243 O 199.992 3.69059 4.3334 0
M  V30 2244 N 201.194 2.12328 5.40275 0
M  V30 2245 H 203.959 2.66612 1.36888 0
M  V30 2246 H 201.52 1.50089 0.607037 0
M  V30 2247 H 203.512 1.65928 3.6912 0
M  V30 2248 H 202.082 0.844216 3.00985 0
M  V30 2249 H 201.302 3.21895 2.27546 0
M  V30 2250 H 202.59 3.86736 3.30625 0
M  V30 2251 H 201.988 1.51685 5.44985 0
M  V30 2252 H 200.545 2.11494 6.16534 0
M  V30 2253 N 203.978 -0.674533 1.42435 0
M  V30 2254 C 205.227 -1.43034 1.42212 0
M  V30 2255 C 205.54 -1.95555 0.0420788 0
M  V30 2256 O 206.746 -2.71374 -0.0827558 0
M  V30 2257 C 205.202 -2.58748 2.50155 0
M  V30 2258 C 204.81 -2.12925 3.94166 0
M  V30 2259 C 206.554 -3.36257 2.59098 0
M  V30 2260 C 204.461 -3.25723 4.93618 0
M  V30 2261 H 203.391 -0.537345 0.528939 0
M  V30 2262 H 206.042 -0.73024 1.68344 0
M  V30 2263 H 204.424 -3.31128 2.17188 0
M  V30 2264 H 205.598 -1.47697 4.36488 0
M  V30 2265 H 203.913 -1.48354 3.89076 0
M  V30 2266 H 206.51 -4.20264 3.30578 0
M  V30 2267 H 206.853 -3.82866 1.63461 0
M  V30 2268 H 207.386 -2.70947 2.9126 0
M  V30 2269 H 204.125 -2.84105 5.90732 0
M  V30 2270 H 203.645 -3.89732 4.55926 0
M  V30 2271 H 205.324 -3.91186 5.15347 0
M  V30 2272 N 205.456 -1.28612 -0.910864 0
M  V30 2273 C 206.867 -1.14406 -1.47541 0
M  V30 2274 C 207.218 0.264901 -1.94403 0
M  V30 2275 O 206.343 1.15942 -1.82719 0
M  V30 2276 C 206.938 -2.07073 -2.68153 0
M  V30 2277 C 205.497 -1.96923 -3.20778 0
M  V30 2278 C 204.644 -1.98646 -1.93481 0
M  V30 2279 H 207.595 -1.41259 -0.723291 0
M  V30 2280 H 207.616 -1.63642 -3.43514 0
M  V30 2281 H 207.128 -3.09611 -2.34015 0
M  V30 2282 H 205.229 -0.97433 -3.59635 0
M  V30 2283 H 205.342 -2.84026 -3.85832 0
M  V30 2284 H 203.706 -1.43093 -2.10705 0
M  V30 2285 H 204.489 -3.02868 -1.61634 0
M  V30 2286 N 206.934 1.1197 -1.10907 0
M  V30 2287 C 208.35 1.35591 -0.841852 0
M  V30 2288 C 208.55 1.94233 0.536246 0
M  V30 2289 O 207.606 2.1717 1.28816 0
M  V30 2290 C 208.919 2.29284 -1.94549 0
M  V30 2291 C 210.467 2.42862 -1.97451 0
M  V30 2292 C 210.942 3.39873 -3.07002 0
M  V30 2293 N 212.433 3.47433 -3.06341 0
M  V30 2294 C 213.168 4.22421 -3.87748 0
M  V30 2295 N 212.664 5.00432 -4.79103 0
M  V30 2296 N 214.457 4.17876 -3.75946 0
M  V30 2297 H 206.608 0.722664 -1.99728 0
M  V30 2298 H 208.871 0.380635 -0.868229 0
M  V30 2299 H 208.577 1.93378 -2.93765 0
M  V30 2300 H 208.451 3.29452 -1.83688 0
M  V30 2301 H 210.838 2.78046 -0.988645 0
M  V30 2302 H 210.919 1.42566 -2.12388 0
M  V30 2303 H 210.563 3.05417 -4.05811 0
M  V30 2304 H 210.493 4.40011 -2.89306 0
M  V30 2305 H 212.984 2.91784 -2.40147 0
M  V30 2306 H 213.297 5.55002 -5.37766 0
M  V30 2307 H 211.642 4.99612 -4.83128 0
M  V30 2308 H 214.833 3.56016 -3.03924 0
M  V30 2309 H 215.006 4.76061 -4.39624 0
M  V30 2310 N 208.412 0.89855 1.29475 0
M  V30 2311 C 209.661 0.519863 1.94885 0
M  V30 2312 C 209.974 -0.9383 1.71625 0
M  V30 2313 O 211.18 -1.42445 2.31131 0
M  V30 2314 C 209.636 0.878836 3.49005 0
M  V30 2315 C 209.244 2.35569 3.81066 0
M  V30 2316 C 210.988 0.570004 4.20656 0
M  V30 2317 C 208.895 2.65558 5.28425 0
M  V30 2318 H 207.825 0.190692 0.729488 0
M  V30 2319 H 210.476 1.09539 1.47219 0
M  V30 2320 H 208.858 0.232253 3.95318 0
M  V30 2321 H 210.032 3.04773 3.45616 0
M  V30 2322 H 208.347 2.63343 3.22552 0
M  V30 2323 H 210.944 0.770925 5.29113 0
M  V30 2324 H 211.287 -0.491404 4.1339 0
M  V30 2325 H 211.82 1.17438 3.8007 0
M  V30 2326 H 208.559 3.70493 5.40754 0
M  V30 2327 H 208.079 2.00977 5.65127 0
M  V30 2328 H 209.758 2.51765 5.96006 0
M  V30 2329 N 209.89 -1.43072 0.660911 0
M  V30 2330 C 210.8 -2.34585 -0.0264163 0
M  V30 2331 C 211.816 -1.54316 -0.803898 0
M  V30 2332 O 212.992 -1.86939 -0.749391 0
M  V30 2333 C 210.057 -3.32689 -0.975639 0
M  V30 2334 C 209.118 -4.2886 -0.194236 0
M  V30 2335 C 208.351 -5.22278 -1.09825 0
M  V30 2336 O 208.574 -5.20299 -2.33763 0
M  V30 2337 O 207.508 -5.99228 -0.566513 0
M  V30 2338 H 211.334 -2.94869 0.727034 0
M  V30 2339 H 208.919 -1.43342 0.42111 0
M  V30 2340 H 210.801 -3.92995 -1.52094 0
M  V30 2341 H 209.476 -2.74898 -1.70918 0
M  V30 2342 H 208.383 -3.72011 0.394835 0
M  V30 2343 H 209.716 -4.89655 0.499899 0
M  V30 2344 N 211.368 -0.403325 -1.52352 0
M  V30 2345 C 212.645 0.232611 -1.94212 0
M  V30 2346 C 213.025 1.63133 -1.33981 0
M  V30 2347 O 212.373 2.22659 -0.513344 0
M  V30 2348 C 212.583 0.244811 -3.4814 0
M  V30 2349 C 213.931 0.46698 -4.22024 0
M  V30 2350 O 214.955 0.324419 -3.5472 0
M  V30 2351 O 213.814 0.74747 -5.41364 0
M  V30 2352 H 210.908 0.148223 -0.813609 0
M  V30 2353 H 213.454 -0.458848 -1.63379 0
M  V30 2354 H 212.226 -0.734378 -3.84347 0
M  V30 2355 H 211.849 0.980611 -3.85318 0
M  V30 2356 N 212.846 1.57033 -0.133567 0
M  V30 2357 C 214.094 1.953 0.519848 0
M  V30 2358 C 214.415 1.01866 1.66278 0
M  V30 2359 O 213.685 0.0776513 1.95746 0
M  V30 2360 H 212.265 0.721091 0.195032 0
M  V30 2361 H 214.927 1.93809 -0.205921 0
M  V30 2362 H 214.023 2.98695 0.904854 0
M  V30 2363 N 214.325 -0.140222 1.56975 0
M  V30 2364 C 215.273 -1.19207 1.99731 0
M  V30 2365 C 216.267 -1.44089 0.890777 0
M  V30 2366 O 217.473 -1.44301 1.07597 0
M  V30 2367 H 213.848 -0.40142 0.635898 0
M  V30 2368 H 215.819 -0.804813 2.87342 0
M  V30 2369 C 214.568 -2.51617 2.39967 0
M  V30 2370 H 213.891 -2.33303 3.24669 0
M  V30 2371 H 215.331 -3.23827 2.73701 0
M  V30 2372 C 213.79 -3.12654 1.25496 0
M  V30 2373 O 214.32 -3.97786 0.559371 0
M  V30 2374 N 212.526 -2.72206 1.01746 0
M  V30 2375 H 212.073 -2.03074 1.58489 0
M  V30 2376 H 212.031 -3.13377 0.253461 0
M  V30 2377 N 215.803 -1.52179 -0.40978 0
M  V30 2378 C 216.751 -1.76086 -1.51975 0
M  V30 2379 C 217.745 -0.627964 -1.57331 0
M  V30 2380 O 218.951 -0.809993 -1.60745 0
M  V30 2381 H 215.326 -0.556829 -0.505416 0
M  V30 2382 H 217.297 -2.69077 -1.28996 0
M  V30 2383 C 216.046 -1.92799 -2.8935 0
M  V30 2384 H 215.369 -2.79392 -2.85972 0
M  V30 2385 H 216.809 -2.13527 -3.66309 0
M  V30 2386 C 215.268 -0.694923 -3.29655 0
M  V30 2387 O 215.798 0.13751 -4.01465 0
M  V30 2388 N 214.004 -0.53101 -2.85707 0
M  V30 2389 H 213.551 -1.20952 -2.27439 0
M  V30 2390 H 213.509 0.292718 -3.13034 0
M  V30 2391 N 217.281 0.66697 -1.42791 0
M  V30 2392 C 218.528 1.42699 -1.43678 0
M  V30 2393 C 218.856 1.94419 -0.0560425 0
M  V30 2394 O 218.111 1.7182 0.936831 0
M  V30 2395 C 218.41 2.6349 -2.4147 0
M  V30 2396 C 218.076 2.30267 -3.8767 0
M  V30 2397 C 216.738 2.20918 -4.27491 0
M  V30 2398 C 219.09 2.03435 -4.79858 0
M  V30 2399 C 216.418 1.82873 -5.57471 0
M  V30 2400 C 218.77 1.66892 -6.10188 0
M  V30 2401 C 217.434 1.56058 -6.49001 0
M  V30 2402 H 216.704 0.522171 -0.525755 0
M  V30 2403 H 219.351 0.759785 -1.75783 0
M  V30 2404 H 217.656 3.35279 -2.0272 0
M  V30 2405 H 219.353 3.21684 -2.39417 0
M  V30 2406 H 215.943 2.38449 -3.56146 0
M  V30 2407 H 220.127 2.09586 -4.49875 0
M  V30 2408 H 215.383 1.7306 -5.86396 0
M  V30 2409 H 219.557 1.45157 -6.81104 0
M  V30 2410 H 217.184 1.26348 -7.49627 0
M  V30 2411 N 218.759 1.29093 0.90403 0
M  V30 2412 C 220.007 1.16583 1.65085 0
M  V30 2413 C 220.328 -0.283933 1.92922 0
M  V30 2414 O 219.598 -1.19509 1.55224 0
M  V30 2415 H 218.178 0.428467 0.611903 0
M  V30 2416 H 220.84 1.61959 1.08422 0
M  V30 2417 H 219.936 1.71266 2.6091 0
M  V30 2418 N 220.237 -1.11381 1.11499 0
M  V30 2419 C 221.483 -1.83403 0.865512 0
M  V30 2420 C 221.816 -1.84459 -0.607329 0
M  V30 2421 O 221.091 -1.29811 -1.44842 0
M  V30 2422 C 221.374 -3.30552 1.42855 0
M  V30 2423 C 221.227 -3.37886 2.96906 0
M  V30 2424 C 222.546 -4.26643 1.08 0
M  V30 2425 H 219.665 -0.665879 0.31587 0
M  V30 2426 H 222.307 -1.30601 1.37998 0
M  V30 2427 H 220.457 -3.75648 0.990985 0
M  V30 2428 H 222.129 -3.01343 3.49271 0
M  V30 2429 H 220.372 -2.78088 3.32941 0
M  V30 2430 H 221.043 -4.41458 3.31389 0
M  V30 2431 H 223.519 -3.89729 1.45775 0
M  V30 2432 H 222.395 -5.27986 1.50072 0
M  V30 2433 H 222.656 -4.42099 -0.00915037 0
M  V30 2434 N 221.715 -0.905404 -1.28997 0
M  V30 2435 C 222.678 -0.392253 -2.25819 0
M  V30 2436 C 223.678 0.476753 -1.5357 0
M  V30 2437 O 224.868 0.280994 -1.71919 0
M  V30 2438 C 222 0.438588 -3.38067 0
M  V30 2439 H 223.193 -1.24743 -2.72725 0
M  V30 2440 H 220.746 -0.684051 -1.40536 0
M  V30 2441 H 221.481 1.31352 -2.96508 0
M  V30 2442 H 221.266 -0.184167 -3.91667 0
M  V30 2443 H 222.756 0.78873 -4.10084 0
M  V30 2444 N 223.193 1.4272 -0.668489 0
M  V30 2445 C 224.439 2.01923 -0.188419 0
M  V30 2446 C 224.772 1.52704 1.19979 0
M  V30 2447 O 224.047 0.726566 1.8042 0
M  V30 2448 C 224.33 3.59451 -0.216085 0
M  V30 2449 C 224.183 4.18864 -1.6393 0
M  V30 2450 C 225.502 4.37903 0.439179 0
M  V30 2451 H 222.621 0.733674 -0.0699412 0
M  V30 2452 H 225.263 1.69822 -0.852076 0
M  V30 2453 H 223.413 3.86929 0.349012 0
M  V30 2454 H 225.085 4.02362 -2.25616 0
M  V30 2455 H 223.328 3.74933 -2.18193 0
M  V30 2456 H 223.999 5.27987 -1.61039 0
M  V30 2457 H 226.475 4.16079 -0.0417878 0
M  V30 2458 H 225.351 5.47519 0.389157 0
M  V30 2459 H 225.612 4.15303 1.51577 0
M  V30 2460 N 224.671 0.411399 1.52136 0
M  V30 2461 C 225.603 -0.448386 2.24771 0
M  V30 2462 C 226.616 -1.00828 1.27818 0
M  V30 2463 O 227.805 -0.906841 1.53749 0
M  V30 2464 C 224.905 -1.63636 2.96777 0
M  V30 2465 C 224.078 -1.19995 4.20618 0
M  V30 2466 C 223.137 -2.25509 4.75428 0
M  V30 2467 O 222.163 -1.86007 5.3795 0
M  V30 2468 N 223.365 -3.577 4.57199 0
M  V30 2469 H 226.13 0.174025 2.99194 0
M  V30 2470 H 223.691 0.238897 1.60128 0
M  V30 2471 H 225.683 -2.33793 3.30338 0
M  V30 2472 H 224.253 -2.16465 2.25526 0
M  V30 2473 H 223.473 -0.326421 3.92846 0
M  V30 2474 H 224.761 -0.885365 5.01038 0
M  V30 2475 H 224.159 -3.92543 4.07341 0
M  V30 2476 H 222.716 -4.23827 4.95191 0
M  V30 2477 N 226.149 -1.5696 0.141893 0
M  V30 2478 C 227.059 -2.20066 -0.812905 0
M  V30 2479 C 228.075 -1.18344 -1.27557 0
M  V30 2480 O 229.251 -1.50902 -1.33381 0
M  V30 2481 C 226.316 -2.80583 -2.03652 0
M  V30 2482 C 225.377 -3.97414 -1.62359 0
M  V30 2483 C 224.61 -4.55036 -2.78887 0
M  V30 2484 O 224.833 -4.11538 -3.94959 0
M  V30 2485 O 223.767 -5.45376 -2.54653 0
M  V30 2486 H 227.593 -3.02157 -0.305746 0
M  V30 2487 H 225.178 -1.49159 -0.0848799 0
M  V30 2488 H 227.06 -3.19067 -2.75272 0
M  V30 2489 H 225.735 -2.01508 -2.5333 0
M  V30 2490 H 224.642 -3.63656 -0.877775 0
M  V30 2491 H 225.975 -4.77994 -1.17401 0
M  V30 2492 N 227.627 0.131896 -1.57047 0
M  V30 2493 C 228.574 1.16236 -1.99393 0
M  V30 2494 C 229.544 1.41863 -0.863943 0
M  V30 2495 O 230.729 1.53946 -1.12718 0
M  V30 2496 C 227.869 2.48708 -2.39245 0
M  V30 2497 C 226.982 2.30127 -3.65603 0
M  V30 2498 C 226.117 3.55738 -3.94492 0
M  V30 2499 C 225.156 3.32259 -5.14073 0
M  V30 2500 N 224.293 4.50039 -5.38896 0
M  V30 2501 H 229.133 0.794251 -2.87221 0
M  V30 2502 H 226.67 0.380707 -1.42088 0
M  V30 2503 H 228.628 3.25969 -2.60384 0
M  V30 2504 H 227.258 2.83437 -1.54478 0
M  V30 2505 H 226.31 1.43845 -3.52154 0
M  V30 2506 H 227.622 2.08746 -4.5302 0
M  V30 2507 H 226.776 4.41423 -4.1621 0
M  V30 2508 H 225.515 3.80138 -3.05526 0
M  V30 2509 H 224.52 2.44963 -4.92212 0
M  V30 2510 H 225.745 3.09242 -6.04604 0
M  V30 2511 H 223.691 4.74584 -4.52886 0
M  V30 2512 H 223.608 4.31716 -6.2061 0
M  V30 2513 H 224.876 5.36895 -5.65123 0
M  V30 2514 N 229.106 1.52395 0.401703 0
M  V30 2515 C 230.352 1.67065 1.14966 0
M  V30 2516 C 230.685 0.403052 1.89971 0
M  V30 2517 O 229.96 -0.598774 1.85054 0
M  V30 2518 C 230.243 2.8975 2.13815 0
M  V30 2519 C 230.096 4.26578 1.42658 0
M  V30 2520 C 231.415 3.07965 3.14397 0
M  V30 2521 H 228.534 0.607968 0.416587 0
M  V30 2522 H 231.176 1.84965 0.434511 0
M  V30 2523 H 229.326 2.74619 2.74803 0
M  V30 2524 H 230.998 4.53451 0.847329 0
M  V30 2525 H 229.241 4.27639 0.72849 0
M  V30 2526 H 229.912 5.08483 2.14823 0
M  V30 2527 H 232.388 3.22043 2.63491 0
M  V30 2528 H 231.264 3.95308 3.80819 0
M  V30 2529 H 231.525 2.21611 3.82545 0
M  V30 2530 N 230.584 -0.659388 1.43143 0
M  V30 2531 C 231.831 -1.41935 1.44433 0
M  V30 2532 C 232.159 -1.94387 0.0663522 0
M  V30 2533 O 231.414 -1.72314 -0.927706 0
M  V30 2534 C 231.713 -2.62206 2.42864 0
M  V30 2535 C 231.379 -2.28208 3.88886 0
M  V30 2536 C 230.041 -2.18647 4.28657 0
M  V30 2537 C 232.393 -2.00887 4.8093 0
M  V30 2538 C 229.721 -1.79914 5.58433 0
M  V30 2539 C 232.073 -1.63653 6.11065 0
M  V30 2540 C 230.737 -1.52614 6.49819 0
M  V30 2541 H 230.007 -0.519376 0.528517 0
M  V30 2542 H 232.654 -0.750453 1.76183 0
M  V30 2543 H 230.959 -3.34199 2.04495 0
M  V30 2544 H 232.656 -3.2041 2.41119 0
M  V30 2545 H 229.246 -2.36557 3.57406 0
M  V30 2546 H 233.43 -2.07198 4.5098 0
M  V30 2547 H 228.686 -1.69948 5.87305 0
M  V30 2548 H 232.86 -1.41543 6.81864 0
M  V30 2549 H 230.487 -1.22371 7.50286 0
M  V30 2550 N 232.062 -1.29571 -0.897171 0
M  V30 2551 C 232.972 -1.16808 -2.03453 0
M  V30 2552 C 233.988 -0.0907471 -1.73763 0
M  V30 2553 O 235.164 -0.303312 -1.99103 0
M  V30 2554 C 232.229 -0.848264 -3.36163 0
M  V30 2555 C 231.29 -2.0097 -3.79354 0
M  V30 2556 C 230.523 -1.70505 -5.05731 0
M  V30 2557 O 230.746 -0.62718 -5.66941 0
M  V30 2558 O 229.68 -2.5538 -5.45036 0
M  V30 2559 H 233.506 -2.12325 -2.17144 0
M  V30 2560 H 231.091 -1.09047 -1.02123 0
M  V30 2561 H 232.973 -0.684581 -4.15802 0
M  V30 2562 H 231.648 0.0771071 -3.23608 0
M  V30 2563 H 230.555 -2.22863 -3.00471 0
M  V30 2564 H 231.888 -2.91636 -3.96496 0
M  V30 2565 N 233.54 1.10788 -1.12088 0
M  V30 2566 C 234.47 2.19083 -0.807755 0
M  V30 2567 C 235.451 1.6858 0.226859 0
M  V30 2568 O 236.636 1.93997 0.0888475 0
M  V30 2569 C 233.766 3.46344 -0.257576 0
M  V30 2570 C 232.72 4.101 -1.22483 0
M  V30 2571 C 232.046 5.32016 -0.535052 0
M  V30 2572 C 233.346 4.54236 -2.57811 0
M  V30 2573 H 235.04 2.45534 -1.71328 0
M  V30 2574 H 232.586 1.1801 -0.825205 0
M  V30 2575 H 234.539 4.21392 -0.0262679 0
M  V30 2576 H 233.263 3.19373 0.683278 0
M  V30 2577 H 231.922 3.37054 -1.44189 0
M  V30 2578 H 231.57 5.01319 0.410827 0
M  V30 2579 H 231.27 5.75625 -1.18024 0
M  V30 2580 H 232.794 6.09799 -0.312695 0
M  V30 2581 H 234.208 5.20575 -2.40155 0
M  V30 2582 H 232.605 5.08682 -3.18375 0
M  V30 2583 H 233.675 3.6734 -3.16528 0
M  V30 2584 N 235.018 0.912232 1.28515 0
M  V30 2585 C 235.951 0.343928 2.25593 0
M  V30 2586 C 236.929 -0.550994 1.5298 0
M  V30 2587 O 238.113 -0.494991 1.81885 0
M  V30 2588 C 235.24 -0.508525 3.34861 0
M  V30 2589 C 234.286 0.320808 4.25292 0
M  V30 2590 S 235.119 1.72658 5.06902 0
M  V30 2591 C 236.275 0.881394 6.19663 0
M  V30 2592 H 236.508 1.16674 2.73449 0
M  V30 2593 H 234.041 0.713384 1.36931 0
M  V30 2594 H 235.999 -0.994539 3.9827 0
M  V30 2595 H 234.66 -1.30571 2.85675 0
M  V30 2596 H 233.853 -0.330941 5.02912 0
M  V30 2597 H 233.455 0.74042 3.66598 0
M  V30 2598 H 235.747 0.110359 6.7741 0
M  V30 2599 H 236.69 1.63009 6.89082 0
M  V30 2600 H 237.098 0.430239 5.62858 0
M  V30 2601 N 236.496 -1.42363 0.676048 0
M  V30 2602 C 237.724 -2.05859 0.207268 0
M  V30 2603 C 238.139 -1.50796 -1.13605 0
M  V30 2604 O 237.496 -0.648265 -1.70598 0
M  V30 2605 C 237.547 -3.61248 0.134975 0
M  V30 2606 O 237.268 -4.1427 1.42521 0
M  V30 2607 C 238.769 -4.41859 -0.357151 0
M  V30 2608 H 235.989 -0.663431 0.100503 0
M  V30 2609 H 238.533 -1.82479 0.923136 0
M  V30 2610 H 236.688 -3.83735 -0.531588 0
M  V30 2611 H 237.102 -5.0815 1.29939 0
M  V30 2612 H 238.576 -5.50847 -0.356641 0
M  V30 2613 H 239.053 -4.16536 -1.39264 0
M  V30 2614 H 239.659 -4.24392 0.27772 0
M  V30 2615 N 237.974 -0.419461 -1.51915 0
M  V30 2616 C 239.199 0.154572 -2.06823 0
M  V30 2617 C 239.624 1.3722 -1.28656 0
M  V30 2618 O 238.982 1.78461 -0.319583 0
M  V30 2619 C 239.03 0.473172 -3.57482 0
M  V30 2620 O 238.134 1.56255 -3.81652 0
M  V30 2621 H 237.475 0.0096924 -0.663929 0
M  V30 2622 H 240.005 -0.595642 -1.95738 0
M  V30 2623 H 240.015 0.728825 -4.01438 0
M  V30 2624 H 238.69 -0.416873 -4.13805 0
M  V30 2625 H 237.267 1.29825 -3.49571 0
M  V30 2626 N 239.452 1.56882 -0.150215 0
M  V30 2627 C 240.382 2.19935 0.784284 0
M  V30 2628 C 241.363 1.14854 1.25469 0
M  V30 2629 O 242.548 1.43209 1.31168 0
M  V30 2630 C 239.678 2.82349 2.02229 0
M  V30 2631 C 238.632 3.93285 1.68853 0
M  V30 2632 C 237.958 4.42649 2.99944 0
M  V30 2633 C 239.258 5.13904 0.932714 0
M  V30 2634 H 240.952 2.9828 0.258781 0
M  V30 2635 H 238.498 1.43473 0.123029 0
M  V30 2636 H 240.451 3.25126 2.68088 0
M  V30 2637 H 239.175 2.0134 2.57157 0
M  V30 2638 H 237.834 3.5113 1.05371 0
M  V30 2639 H 237.482 3.58458 3.52869 0
M  V30 2640 H 237.182 5.17476 2.78374 0
M  V30 2641 H 238.706 4.88099 3.66868 0
M  V30 2642 H 240.12 5.53506 1.49345 0
M  V30 2643 H 238.517 5.94515 0.81684 0
M  V30 2644 H 239.587 4.84842 -0.0749568 0
M  V30 2645 N 240.93 -0.123565 1.57115 0
M  V30 2646 C 241.88 -1.1575 1.96433 0
M  V30 2647 C 242.864 -1.37313 0.838686 0
M  V30 2648 O 244.056 -1.38482 1.10235 0
M  V30 2649 C 241.185 -2.48526 2.36833 0
M  V30 2650 C 240.271 -2.30457 3.5602 0
M  V30 2651 N 240.662 -1.8219 4.71848 0
M  V30 2652 C 238.96 -2.61129 3.61563 0
M  V30 2653 C 239.661 -1.77721 5.53886 0
M  V30 2654 N 238.637 -2.21899 4.96248 0
M  V30 2655 H 242.439 -0.776797 2.83449 0
M  V30 2656 H 239.953 -0.331364 1.58983 0
M  V30 2657 H 241.95 -3.233 2.63216 0
M  V30 2658 H 240.61 -2.87358 1.5118 0
M  V30 2659 H 241.621 -1.51805 4.95152 0
M  V30 2660 H 238.298 -3.03678 2.86507 0
M  V30 2661 H 239.688 -1.41697 6.56789 0
M  V30 2662 N 242.408 -1.52605 -0.393616 0
M  V30 2663 C 243.636 -1.71294 -1.16043 0
M  V30 2664 C 244.051 -0.429259 -1.83855 0
M  V30 2665 O 243.408 0.595921 -1.72496 0
M  V30 2666 C 243.459 -2.8593 -2.21193 0
M  V30 2667 O 243.18 -4.09329 -1.56146 0
M  V30 2668 C 244.681 -3.16259 -3.10636 0
M  V30 2669 H 241.901 -0.573641 -0.348104 0
M  V30 2670 H 244.445 -1.99234 -0.461092 0
M  V30 2671 H 242.6 -2.60465 -2.86769 0
M  V30 2672 H 243.014 -4.73323 -2.25978 0
M  V30 2673 H 244.488 -3.99946 -3.80456 0
M  V30 2674 H 244.965 -2.3045 -3.73884 0
M  V30 2675 H 245.571 -3.43547 -2.50711 0
M  V30 2676 N 243.887 0.651787 -1.4349 0
M  V30 2677 C 244.834 1.76462 -1.4876 0
M  V30 2678 C 245.804 1.62641 -0.337189 0
M  V30 2679 O 246.989 1.82864 -0.544544 0
M  V30 2680 C 244.129 3.14623 -1.41796 0
M  V30 2681 C 243.242 3.39568 -2.67053 0
M  V30 2682 C 242.377 4.67585 -2.52068 0
M  V30 2683 C 241.416 4.85639 -3.72587 0
M  V30 2684 N 240.553 6.04915 -3.56402 0
M  V30 2685 H 245.393 1.71293 -2.43849 0
M  V30 2686 H 242.93 0.835889 -1.21043 0
M  V30 2687 H 244.888 3.94496 -1.35753 0
M  V30 2688 H 243.518 3.18859 -0.50288 0
M  V30 2689 H 242.57 2.53783 -2.8337 0
M  V30 2690 H 243.882 3.48795 -3.56572 0
M  V30 2691 H 243.036 5.55586 -2.4374 0
M  V30 2692 H 241.775 4.60681 -1.60075 0
M  V30 2693 H 240.78 3.96073 -3.81321 0
M  V30 2694 H 242.005 4.94372 -4.65589 0
M  V30 2695 H 239.951 5.9914 -2.67146 0
M  V30 2696 H 239.868 6.15106 -4.39524 0
M  V30 2697 H 241.136 6.95533 -3.51929 0
M  V30 2698 N 245.365 1.30045 0.890287 0
M  V30 2699 C 246.295 1.18541 2.01172 0
M  V30 2700 C 247.276 0.0773356 1.69924 0
M  V30 2701 O 248.461 0.25845 1.92473 0
M  V30 2702 C 245.591 0.870941 3.36202 0
M  V30 2703 C 244.545 1.93637 3.81692 0
M  V30 2704 C 243.871 1.475 5.13953 0
M  V30 2705 C 245.171 3.34666 4.00994 0
M  V30 2706 H 246.865 2.12359 2.11054 0
M  V30 2707 H 244.411 1.02238 1.01407 0
M  V30 2708 H 246.364 0.777141 4.14172 0
M  V30 2709 H 245.088 -0.102926 3.26438 0
M  V30 2710 H 243.747 2.01972 3.05946 0
M  V30 2711 H 243.395 0.489551 5.00612 0
M  V30 2712 H 243.095 2.1876 5.4536 0
M  V30 2713 H 244.619 1.39489 5.94454 0
M  V30 2714 H 246.033 3.2912 4.69417 0
M  V30 2715 H 244.43 4.03966 4.43769 0
M  V30 2716 H 245.5 3.76949 3.05021 0
M  V30 2717 N 246.843 -1.10192 1.12674 0
M  V30 2718 C 247.753 -2.20172 0.810026 0
M  V30 2719 C 248.769 -1.72821 -0.202188 0
M  V30 2720 O 249.945 -2.01369 -0.0351691 0
M  V30 2721 C 247.01 -3.45631 0.272007 0
M  V30 2722 C 246.071 -4.07704 1.34447 0
M  V30 2723 C 245.304 -5.27175 0.832029 0
M  V30 2724 O 245.527 -5.69425 -0.333284 0
M  V30 2725 O 244.461 -5.80168 1.60277 0
M  V30 2726 H 248.287 -2.49701 1.72867 0
M  V30 2727 H 245.872 -1.18977 0.903597 0
M  V30 2728 H 247.754 -4.21394 -0.0230219 0
M  V30 2729 H 246.429 -3.17723 -0.619164 0
M  V30 2730 H 245.336 -3.33614 1.6927 0
M  V30 2731 H 246.669 -4.3982 2.2095 0
M  V30 2732 N 248.321 -0.919034 -1.28029 0
M  V30 2733 C 249.569 -0.553838 -1.94363 0
M  V30 2734 C 249.89 0.906357 -1.72656 0
M  V30 2735 O 249.16 1.64143 -1.0693 0
M  V30 2736 H 247.74 -0.201834 -0.719216 0
M  V30 2737 H 250.402 -1.16954 -1.55909 0
M  V30 2738 H 249.498 -0.752758 -3.02886 0
M  V30 2739 N 249.799 1.42003 -0.683588 0
M  V30 2740 C 251.046 2.01413 -0.209514 0
M  V30 2741 C 251.374 1.54088 1.1869 0
M  V30 2742 O 250.629 0.737591 1.81268 0
M  V30 2743 C 250.928 3.56827 -0.202357 0
M  V30 2744 C 250.594 4.23617 -1.54464 0
M  V30 2745 C 249.256 4.41577 -1.91215 0
M  V30 2746 C 251.608 4.61178 -2.42826 0
M  V30 2747 C 248.936 4.9437 -3.15935 0
M  V30 2748 C 251.288 5.15355 -3.66867 0
M  V30 2749 C 249.952 5.31528 -4.03776 0
M  V30 2750 H 249.222 0.737023 -0.0766668 0
M  V30 2751 H 251.869 1.70067 -0.880312 0
M  V30 2752 H 250.174 3.87892 0.551969 0
M  V30 2753 H 251.871 4.00588 0.181793 0
M  V30 2754 H 248.461 4.10004 -1.24877 0
M  V30 2755 H 252.645 4.46968 -2.15717 0
M  V30 2756 H 247.901 5.05076 -3.44541 0
M  V30 2757 H 252.075 5.43402 -4.35531 0
M  V30 2758 H 249.702 5.72199 -5.00492 0
M  V30 2759 N 251.277 0.427512 1.51691 0
M  V30 2760 C 252.227 -0.406604 2.24345 0
M  V30 2761 C 253.211 -0.998276 1.26187 0
M  V30 2762 O 254.403 -0.918045 1.51331 0
M  V30 2763 C 251.532 -1.51266 3.08177 0
M  V30 2764 C 250.618 -0.930868 4.13758 0
M  V30 2765 N 251.009 -0.0773552 5.05741 0
M  V30 2766 C 249.307 -1.19948 4.29568 0
M  V30 2767 C 250.008 0.248344 5.8117 0
M  V30 2768 N 248.984 -0.365535 5.4237 0
M  V30 2769 H 252.786 0.251581 2.92821 0
M  V30 2770 H 250.3 0.239003 1.60632 0
M  V30 2771 H 252.297 -2.123 3.58796 0
M  V30 2772 H 250.957 -2.17328 2.41244 0
M  V30 2773 H 251.968 0.288351 5.17097 0
M  V30 2774 H 248.645 -1.85832 3.73862 0
M  V30 2775 H 250.035 0.942286 6.6526 0
M  V30 2776 N 252.755 -1.56801 0.158532 0
M  V30 2777 C 253.983 -2.00859 -0.496303 0
M  V30 2778 C 254.398 -1.03871 -1.57659 0
M  V30 2779 O 253.755 -0.0375165 -1.82461 0
M  V30 2780 C 253.806 -3.4479 -1.08638 0
M  V30 2781 O 253.527 -4.38072 -0.0492322 0
M  V30 2782 C 255.028 -4.04185 -1.8207 0
M  V30 2783 H 252.248 -0.65864 -0.128199 0
M  V30 2784 H 254.792 -2.02885 0.256506 0
M  V30 2785 H 252.947 -3.43579 -1.78975 0
M  V30 2786 H 253.361 -5.2227 -0.483102 0
M  V30 2787 H 254.835 -5.06857 -2.18633 0
M  V30 2788 H 255.312 -3.45549 -2.71095 0
M  V30 2789 H 255.918 -4.0906 -1.16405 0
M  V30 2790 N 254.233 0.115231 -1.57178 0
M  V30 2791 C 255.165 1.16694 -1.97269 0
M  V30 2792 C 256.178 1.37445 -0.872502 0
M  V30 2793 O 257.367 1.36454 -1.15077 0
M  V30 2794 C 254.467 2.52627 -2.25905 0
M  V30 2795 C 253.64 2.52427 -3.57211 0
M  V30 2796 C 252.699 3.70134 -3.74016 0
M  V30 2797 O 251.725 3.53546 -4.46087 0
M  V30 2798 N 252.927 4.88844 -3.13068 0
M  V30 2799 H 255.692 0.82588 -2.88096 0
M  V30 2800 H 253.253 0.304461 -1.59011 0
M  V30 2801 H 255.245 3.29937 -2.34359 0
M  V30 2802 H 253.815 2.789 -1.41186 0
M  V30 2803 H 253.035 1.60805 -3.5991 0
M  V30 2804 H 254.323 2.49353 -4.43509 0
M  V30 2805 H 253.721 5.05225 -2.54489 0
M  V30 2806 H 252.278 5.63817 -3.27037 0
M  V30 2807 N 255.711 1.52812 0.385517 0
M  V30 2808 C 256.96 1.67249 1.12741 0
M  V30 2809 C 257.273 0.4205 1.91027 0
M  V30 2810 O 258.479 0.445064 2.67827 0
M  V30 2811 C 256.935 2.95583 2.05326 0
M  V30 2812 C 256.543 4.27974 1.32447 0
M  V30 2813 C 258.287 3.19386 2.7963 0
M  V30 2814 C 256.194 5.47412 2.23818 0
M  V30 2815 H 255.124 0.6231 0.424573 0
M  V30 2816 H 257.775 1.79309 0.389924 0
M  V30 2817 H 256.157 2.77277 2.82725 0
M  V30 2818 H 257.331 4.56844 0.602495 0
M  V30 2819 H 255.646 4.10459 0.700885 0
M  V30 2820 H 258.243 4.05801 3.48181 0
M  V30 2821 H 258.586 2.34604 3.43899 0
M  V30 2822 H 259.119 3.38274 2.09322 0
M  V30 2823 H 255.858 6.34612 1.64157 0
M  V30 2824 H 255.378 5.22849 2.93921 0
M  V30 2825 H 257.057 5.81423 2.83824 0
M  V30 2826 N 257.189 -0.644168 1.43834 0
M  V30 2827 C 258.414 -1.43642 1.49605 0
M  V30 2828 C 258.839 -1.8773 0.117913 0
M  V30 2829 O 258.197 -1.57938 -0.890239 0
M  V30 2830 C 258.245 -2.6416 2.45463 0
M  V30 2831 O 257.349 -3.63538 1.94714 0
M  V30 2832 H 256.69 -0.430329 0.50568 0
M  V30 2833 H 259.22 -0.787448 1.8884 0
M  V30 2834 H 259.23 -3.11864 2.63068 0
M  V30 2835 H 257.905 -2.31414 3.45572 0
M  V30 2836 H 256.482 -3.2273 1.86814 0
M  V30 2837 N 258.668 -1.30515 -0.883378 0
M  V30 2838 C 259.615 -1.17032 -1.98927 0
M  V30 2839 C 260.585 -0.0594241 -1.65994 0
M  V30 2840 O 261.77 -0.229895 -1.8941 0
M  V30 2841 C 258.91 -0.869777 -3.33959 0
M  V30 2842 C 258.023 -2.06271 -3.79574 0
M  V30 2843 C 257.158 -1.70011 -5.03259 0
M  V30 2844 C 256.197 -2.8579 -5.41286 0
M  V30 2845 N 255.334 -2.49816 -6.56153 0
M  V30 2846 H 260.174 -2.1164 -2.09792 0
M  V30 2847 H 257.711 -1.05296 -1.02719 0
M  V30 2848 H 259.669 -0.676138 -4.11685 0
M  V30 2849 H 258.299 0.0394332 -3.22776 0
M  V30 2850 H 257.351 -2.36755 -2.97744 0
M  V30 2851 H 258.663 -2.92971 -4.03694 0
M  V30 2852 H 257.817 -1.47032 -5.88614 0
M  V30 2853 H 256.556 -0.804829 -4.81013 0
M  V30 2854 H 255.561 -3.09434 -4.54456 0
M  V30 2855 H 256.786 -3.76008 -5.65504 0
M  V30 2856 H 254.732 -1.62795 -6.35479 0
M  V30 2857 H 254.649 -3.30048 -6.8015 0
M  V30 2858 H 255.917 -2.30197 -7.44735 0
M  V30 2859 N 260.146 1.09593 -1.13257 0
M  V30 2860 C 261.376 1.85231 -0.915049 0
M  V30 2861 C 261.784 1.81345 0.539498 0
M  V30 2862 O 261.127 1.20664 1.38513 0
M  V30 2863 C 261.189 3.34275 -1.3229 0
M  V30 2864 C 260.853 3.6191 -2.79052 0
M  V30 2865 C 261.85 3.57777 -3.77216 0
M  V30 2866 C 259.535 3.90309 -3.16171 0
M  V30 2867 C 261.529 3.81652 -5.1051 0
M  V30 2868 C 259.216 4.13839 -4.49644 0
M  V30 2869 C 260.214 4.09502 -5.46623 0
M  V30 2870 O 259.902 4.32426 -6.77689 0
M  V30 2871 H 259.634 0.591997 -0.326367 0
M  V30 2872 H 262.188 1.394 -1.50854 0
M  V30 2873 H 260.418 3.80805 -0.672667 0
M  V30 2874 H 262.107 3.9132 -1.07812 0
M  V30 2875 H 262.873 3.35865 -3.49885 0
M  V30 2876 H 258.752 3.92811 -2.41289 0
M  V30 2877 H 262.296 3.78182 -5.86195 0
M  V30 2878 H 258.193 4.35232 -4.767 0
M  V30 2879 H 258.961 4.49896 -6.83766 0
M  V30 2880 N 261.624 0.925811 1.2754 0
M  V30 2881 C 262.871 0.565255 1.94451 0
M  V30 2882 C 263.199 -0.89316 1.7278 0
M  V30 2883 O 262.454 -1.65213 1.04895 0
M  V30 2884 C 262.753 0.835296 3.47502 0
M  V30 2885 C 262.419 2.27515 3.89291 0
M  V30 2886 C 261.081 2.66879 4.00411 0
M  V30 2887 C 263.433 3.21158 4.10496 0
M  V30 2888 C 260.761 3.99014 4.30122 0
M  V30 2889 C 263.113 4.52871 4.4169 0
M  V30 2890 C 261.777 4.92072 4.51023 0
M  V30 2891 H 261.047 0.206841 0.711546 0
M  V30 2892 H 263.694 1.16942 1.51647 0
M  V30 2893 H 261.999 0.148442 3.91519 0
M  V30 2894 H 263.696 0.535322 3.97411 0
M  V30 2895 H 260.286 1.95976 3.81171 0
M  V30 2896 H 264.47 2.9195 4.01346 0
M  V30 2897 H 259.726 4.2907 4.35556 0
M  V30 2898 H 263.9 5.25436 4.57045 0
M  V30 2899 H 261.527 5.9449 4.738 0
M  V30 2900 N 263.102 -1.41638 0.69111 0
M  V30 2901 C 264.327 -2.06148 0.227583 0
M  V30 2902 C 264.752 -1.51652 -1.11281 0
M  V30 2903 O 264.11 -0.64164 -1.69566 0
M  V30 2904 C 264.158 -3.60095 0.190858 0
M  V30 2905 O 263.262 -4.03845 -0.835664 0
M  V30 2906 H 262.603 -0.654434 0.112306 0
M  V30 2907 H 265.133 -1.81484 0.944714 0
M  V30 2908 H 265.143 -4.07995 0.020207 0
M  V30 2909 H 263.818 -3.99129 1.16915 0
M  V30 2910 H 262.395 -3.67458 -0.63473 0
M  V30 2911 N 264.58 -0.43555 -1.51462 0
M  V30 2912 C 265.49 0.383001 -2.31453 0
M  V30 2913 C 266.506 1.02931 -1.4029 0
M  V30 2914 O 267.682 1.02507 -1.73362 0
M  V30 2915 C 264.747 1.47043 -3.13973 0
M  V30 2916 C 263.808 0.844433 -4.20913 0
M  V30 2917 C 263.041 1.88004 -4.9949 0
M  V30 2918 O 263.264 3.10199 -4.78678 0
M  V30 2919 O 262.198 1.47157 -5.83634 0
M  V30 2920 H 266.024 -0.269964 -3.02498 0
M  V30 2921 H 263.609 -0.19813 -1.4808 0
M  V30 2922 H 265.491 2.10113 -3.65281 0
M  V30 2923 H 264.166 2.10751 -2.45695 0
M  V30 2924 H 263.073 0.175729 -3.73687 0
M  V30 2925 H 264.406 0.250869 -4.9156 0
M  V30 2926 N 266.058 1.56714 -0.166846 0
M  V30 2927 C 267.474 1.58473 0.189372 0
M  V30 2928 C 267.674 1.18201 1.63189 0
M  V30 2929 O 266.73 0.891528 2.36237 0
M  V30 2930 C 268.043 3.00573 -0.0873872 0
M  V30 2931 C 269.591 3.1299 -0.0252443 0
M  V30 2932 C 270.066 4.57174 -0.274934 0
M  V30 2933 N 271.557 4.62665 -0.222553 0
M  V30 2934 C 272.292 5.72072 -0.389985 0
M  V30 2935 N 271.788 6.90054 -0.616229 0
M  V30 2936 N 273.581 5.61153 -0.326202 0
M  V30 2937 H 265.732 1.8118 -1.10849 0
M  V30 2938 H 267.995 0.839525 -0.440342 0
M  V30 2939 H 267.701 3.34497 -1.0865 0
M  V30 2940 H 267.575 3.72019 0.623037 0
M  V30 2941 H 269.962 2.78895 0.96444 0
M  V30 2942 H 270.043 2.43989 -0.768309 0
M  V30 2943 H 269.687 4.91976 -1.26181 0
M  V30 2944 H 269.617 5.24328 0.48869 0
M  V30 2945 H 272.108 3.77863 -0.0531512 0
M  V30 2946 H 272.421 7.69311 -0.733559 0
M  V30 2947 H 270.766 6.91927 -0.652791 0
M  V30 2948 H 273.957 4.67859 -0.150072 0
M  V30 2949 H 274.13 6.46364 -0.460116 0
M  V30 2950 N 267.536 -0.106894 1.57237 0
M  V30 2951 C 268.784 -0.810921 1.85117 0
M  V30 2952 C 269.105 -1.7984 0.753827 0
M  V30 2953 O 268.375 -1.94649 -0.221056 0
M  V30 2954 H 266.955 -0.302466 0.683025 0
M  V30 2955 H 269.617 -0.0913324 1.94686 0
M  V30 2956 H 268.713 -1.34875 2.81452 0
M  V30 2957 N 269.014 -1.53014 -0.377408 0
M  V30 2958 C 270.291 -1.59215 -1.13622 0
M  V30 2959 C 270.671 -0.392407 -2.07421 0
M  V30 2960 O 270.019 0.618342 -2.19975 0
M  V30 2961 C 270.229 -2.93669 -1.88573 0
M  V30 2962 C 271.577 -3.47822 -2.43526 0
M  V30 2963 O 272.601 -2.9562 -1.98715 0
M  V30 2964 O 271.46 -4.39055 -3.25412 0
M  V30 2965 H 268.554 -0.642625 -0.52054 0
M  V30 2966 H 271.1 -1.65353 -0.381625 0
M  V30 2967 H 269.872 -3.7243 -1.20048 0
M  V30 2968 H 269.495 -2.90968 -2.70968 0
M  V30 2969 N 270.492 0.636531 -1.44174 0
M  V30 2970 C 271.455 1.73063 -1.50273 0
M  V30 2971 C 272.455 1.56113 -0.385397 0
M  V30 2972 O 273.645 1.61707 -0.64781 0
M  V30 2973 C 270.777 3.12096 -1.37145 0
M  V30 2974 H 271.97 1.69031 -2.47727 0
M  V30 2975 H 269.523 0.849706 -1.31186 0
M  V30 2976 H 270.258 3.21728 -0.407636 0
M  V30 2977 H 270.043 3.25805 -2.18159 0
M  V30 2978 H 271.533 3.91846 -1.44382 0
M  V30 2979 N 271.97 1.30982 0.876444 0
M  V30 2980 C 273.216 1.20474 1.63138 0
M  V30 2981 C 273.549 -0.238096 1.92735 0
M  V30 2982 O 272.824 -1.1692 1.55435 0
M  V30 2983 C 273.107 2.04244 2.96574 0
M  V30 2984 C 272.96 3.56793 2.73896 0
M  V30 2985 C 274.279 1.88684 3.97601 0
M  V30 2986 H 271.398 0.439001 0.591985 0
M  V30 2987 H 274.04 1.60704 1.01361 0
M  V30 2988 H 272.19 1.70063 3.493 0
M  V30 2989 H 273.862 4.01077 2.27892 0
M  V30 2990 H 272.105 3.80548 2.08245 0
M  V30 2991 H 272.776 4.10706 3.68815 0
M  V30 2992 H 275.252 2.18584 3.54062 0
M  V30 2993 H 274.128 2.4961 4.88862 0
M  V30 2994 H 274.389 0.848343 4.33884 0
M  V30 2995 N 273.449 -1.08991 1.13837 0
M  V30 2996 C 274.677 -1.85011 0.926202 0
M  V30 2997 C 275.092 -1.8135 -0.525127 0
M  V30 2998 O 274.449 -1.21287 -1.36366 0
M  V30 2999 C 274.5 -3.32802 1.41155 0
M  V30 3000 O 274.221 -3.36444 2.80601 0
M  V30 3001 C 275.722 -4.25649 1.23847 0
M  V30 3002 H 272.942 -0.584249 0.32999 0
M  V30 3003 H 275.486 -1.37688 1.51202 0
M  V30 3004 H 273.641 -3.77536 0.868631 0
M  V30 3005 H 274.055 -4.28657 3.02248 0
M  V30 3006 H 275.529 -5.27485 1.62675 0
M  V30 3007 H 276.006 -4.38828 0.18065 0
M  V30 3008 H 276.612 -3.86735 1.76964 0
M  V30 3009 N 274.927 -0.932562 -1.27047 0
M  V30 3010 C 275.874 -0.434072 -2.26681 0
M  V30 3011 C 276.844 0.501639 -1.58344 0
M  V30 3012 O 278.029 0.419734 -1.86126 0
M  V30 3013 C 275.169 0.30261 -3.43771 0
M  V30 3014 C 274.282 -0.667774 -4.26808 0
M  V30 3015 C 273.417 0.0892393 -5.31125 0
M  V30 3016 C 272.456 -0.873532 -6.05835 0
M  V30 3017 N 271.593 -0.148832 -7.01942 0
M  V30 3018 H 276.433 -1.28868 -2.68695 0
M  V30 3019 H 273.97 -0.646713 -1.32121 0
M  V30 3020 H 275.928 0.746092 -4.10474 0
M  V30 3021 H 274.558 1.12142 -3.02695 0
M  V30 3022 H 273.61 -1.22978 -3.59973 0
M  V30 3023 H 274.922 -1.40337 -4.78651 0
M  V30 3024 H 274.076 0.592409 -6.03801 0
M  V30 3025 H 272.815 0.85777 -4.80097 0
M  V30 3026 H 271.82 -1.38791 -5.31994 0
M  V30 3027 H 273.045 -1.64193 -6.58952 0
M  V30 3028 H 270.991 0.601365 -6.53238 0
M  V30 3029 H 270.908 -0.82391 -7.51497 0
M  V30 3030 H 272.176 0.333527 -7.78786 0
M  V30 3031 N 276.405 1.4127 -0.698611 0
M  V30 3032 C 277.368 2.29158 -0.044132 0
M  V30 3033 C 278.368 1.44529 0.704841 0
M  V30 3034 O 279.558 1.65643 0.539276 0
M  V30 3035 C 276.69 3.27459 0.947809 0
M  V30 3036 H 277.883 2.88529 -0.817994 0
M  V30 3037 H 275.436 1.49307 -0.46228 0
M  V30 3038 H 276.171 2.73073 1.74933 0
M  V30 3039 H 275.956 3.8991 0.41385 0
M  V30 3040 H 277.446 3.93311 1.40344 0
M  V30 3041 N 277.883 0.443576 1.51229 0
M  V30 3042 C 278.846 -0.353132 2.26463 0
M  V30 3043 C 279.846 -0.944338 1.3015 0
M  V30 3044 O 281.036 -0.817813 1.5381 0
M  V30 3045 C 278.168 -1.50023 3.06114 0
M  V30 3046 H 279.361 0.3063 2.98332 0
M  V30 3047 H 276.914 0.196902 1.55055 0
M  V30 3048 H 277.649 -2.19553 2.38677 0
M  V30 3049 H 277.434 -1.08241 3.76864 0
M  V30 3050 H 278.924 -2.06296 3.63087 0
M  V30 3051 N 279.361 -1.56624 0.175154 0
M  V30 3052 C 280.308 -2.18149 -0.753634 0
M  V30 3053 C 281.278 -1.12265 -1.22417 0
M  V30 3054 O 282.463 -1.40432 -1.29165 0
M  V30 3055 C 279.603 -2.82933 -1.97592 0
M  V30 3056 C 278.716 -4.03289 -1.5486 0
M  V30 3057 C 277.851 -4.55988 -2.72485 0
M  V30 3058 C 276.89 -5.68746 -2.26262 0
M  V30 3059 N 276.027 -6.15938 -3.36994 0
M  V30 3060 H 280.867 -2.9717 -0.222195 0
M  V30 3061 H 278.404 -1.46774 -0.0979422 0
M  V30 3062 H 280.362 -3.18653 -2.69288 0
M  V30 3063 H 278.992 -2.06509 -2.481 0
M  V30 3064 H 278.044 -3.73364 -0.728246 0
M  V30 3065 H 279.356 -4.849 -1.16933 0
M  V30 3066 H 278.51 -4.9391 -3.52332 0
M  V30 3067 H 277.249 -3.73443 -3.13674 0
M  V30 3068 H 276.254 -5.30372 -1.44863 0
M  V30 3069 H 277.479 -6.53095 -1.86127 0
M  V30 3070 H 275.425 -5.36321 -3.77751 0
M  V30 3071 H 275.342 -6.92548 -3.03172 0
M  V30 3072 H 276.61 -6.58511 -4.17114 0
M  V30 3073 N 280.839 0.0985539 -1.57292 0
M  V30 3074 C 281.771 1.14595 -1.98496 0
M  V30 3075 C 282.784 1.36512 -0.887031 0
M  V30 3076 O 283.973 1.35225 -1.16518 0
M  V30 3077 C 281.073 2.50216 -2.28572 0
M  V30 3078 C 280.246 2.48624 -3.59868 0
M  V30 3079 C 279.305 3.66146 -3.7792 0
M  V30 3080 O 278.331 3.48795 -4.49812 0
M  V30 3081 N 279.533 4.85496 -3.18235 0
M  V30 3082 H 282.298 0.795277 -2.88956 0
M  V30 3083 H 279.859 0.287579 -1.59325 0
M  V30 3084 H 281.851 3.27432 -2.37845 0
M  V30 3085 H 280.421 2.77387 -1.44136 0
M  V30 3086 H 279.641 1.56978 -3.61596 0
M  V30 3087 H 280.929 2.44635 -4.46129 0
M  V30 3088 H 280.327 5.02497 -2.59833 0
M  V30 3089 H 278.884 5.60317 -3.32999 0
M  V30 3090 N 282.317 1.53212 0.369288 0
M  V30 3091 C 283.728 1.60943 0.946276 0
M  V30 3092 C 284.079 0.47452 1.90375 0
M  V30 3093 O 283.204 -0.399597 2.12679 0
M  V30 3094 C 283.799 2.91715 1.72302 0
M  V30 3095 C 282.358 3.01792 2.24941 0
M  V30 3096 C 281.505 2.56211 1.06072 0
M  V30 3097 H 284.456 1.58007 0.148198 0
M  V30 3098 H 284.477 2.79309 2.58393 0
M  V30 3099 H 283.989 3.74295 1.0259 0
M  V30 3100 H 282.09 2.23791 2.97906 0
M  V30 3101 H 282.203 4.06803 2.53077 0
M  V30 3102 H 280.567 2.10998 1.4266 0
M  V30 3103 H 281.35 3.41206 0.378639 0
M  V30 3104 N 283.795 -0.628877 1.44509 0
M  V30 3105 C 284.745 -1.7345 1.47983 0
M  V30 3106 C 285.729 -1.5715 0.345373 0
M  V30 3107 O 286.921 -1.66848 0.590829 0
M  V30 3108 C 284.05 -3.12143 1.42904 0
M  V30 3109 C 283.136 -3.33906 2.61472 0
M  V30 3110 N 283.527 -3.26024 3.86706 0
M  V30 3111 C 281.825 -3.64709 2.56716 0
M  V30 3112 C 282.526 -3.48536 4.65722 0
M  V30 3113 N 281.502 -3.71517 3.96832 0
M  V30 3114 H 285.304 -1.65818 2.42655 0
M  V30 3115 H 282.818 -0.831419 1.39503 0
M  V30 3116 H 284.815 -3.91433 1.43476 0
M  V30 3117 H 283.475 -3.2094 0.492717 0
M  V30 3118 H 284.486 -3.04893 4.18641 0
M  V30 3119 H 281.163 -3.80473 1.71891 0
M  V30 3120 H 282.553 -3.48016 5.74747 0
M  V30 3121 N 285.273 -1.31445 -0.869486 0
M  V30 3122 C 286.519 -1.21337 -1.62496 0
M  V30 3123 C 286.852 0.227872 -1.92858 0
M  V30 3124 O 286.127 1.16094 -1.56053 0
M  V30 3125 C 286.41 -2.05814 -2.95487 0
M  V30 3126 C 286.263 -3.5824 -2.72 0
M  V30 3127 C 287.582 -1.9079 -3.96594 0
M  V30 3128 H 284.701 -0.442135 -0.589649 0
M  V30 3129 H 287.343 -1.6124 -1.00507 0
M  V30 3130 H 285.493 -1.71913 -3.48394 0
M  V30 3131 H 287.165 -4.0228 -2.25762 0
M  V30 3132 H 285.408 -3.81647 -2.06224 0
M  V30 3133 H 286.079 -4.12657 -3.66631 0
M  V30 3134 H 288.555 -2.20459 -3.52898 0
M  V30 3135 H 287.431 -2.52199 -4.87531 0
M  V30 3136 H 287.692 -0.871341 -4.33428 0
M  V30 3137 N 286.751 1.08385 -1.14413 0
M  V30 3138 C 287.999 1.80419 -0.910679 0
M  V30 3139 C 288.32 1.86658 0.564243 0
M  V30 3140 O 287.59 1.35985 1.41014 0
M  V30 3141 H 286.17 0.668204 -0.333934 0
M  V30 3142 H 288.832 1.31037 -1.44275 0
M  V30 3143 H 287.928 2.83238 -1.31082 0
M  V30 3144 N 288.23 0.939286 1.26551 0
M  V30 3145 C 289.507 0.5038 1.89001 0
M  V30 3146 C 289.887 -1.01854 1.84903 0
M  V30 3147 O 289.235 -1.87773 1.30206 0
M  V30 3148 C 289.445 1.063 3.32417 0
M  V30 3149 C 290.793 1.13051 4.09273 0
M  V30 3150 O 291.817 1.01345 3.41479 0
M  V30 3151 O 290.676 1.31233 5.30509 0
M  V30 3152 H 287.77 0.163897 0.810597 0
M  V30 3153 H 290.316 1.03173 1.34735 0
M  V30 3154 H 289.088 2.10665 3.29752 0
M  V30 3155 H 288.711 0.517408 3.94219 0
M  V30 3156 N 289.708 -1.40897 0.706093 0
M  V30 3157 C 290.938 -2.05075 0.250523 0
M  V30 3158 C 291.346 -1.53275 -1.10921 0
M  V30 3159 O 290.689 -0.680281 -1.7064 0
M  V30 3160 C 290.751 -3.59219 0.142178 0
M  V30 3161 C 290.415 -4.33864 1.43566 0
M  V30 3162 C 291.412 -4.62448 2.37566 0
M  V30 3163 C 289.097 -4.72946 1.69195 0
M  V30 3164 C 291.091 -5.29088 3.5545 0
M  V30 3165 C 288.778 -5.3932 2.87362 0
M  V30 3166 C 289.776 -5.6732 3.80312 0
M  V30 3167 O 289.464 -6.32325 4.96408 0
M  V30 3168 H 289.196 -0.666645 0.112074 0
M  V30 3169 H 291.75 -1.81467 0.962239 0
M  V30 3170 H 289.98 -3.81609 -0.6254 0
M  V30 3171 H 291.669 -4.0495 -0.277584 0
M  V30 3172 H 292.435 -4.32727 2.19027 0
M  V30 3173 H 288.314 -4.50527 0.977042 0
M  V30 3174 H 291.858 -5.50859 4.28018 0
M  V30 3175 H 287.755 -5.68461 3.05814 0
M  V30 3176 H 288.523 -6.50821 4.9636 0
M  V30 3177 N 291.186 -0.45159 -1.50991 0
M  V30 3178 C 292.602 -0.104647 -1.59257 0
M  V30 3179 C 292.802 1.38728 -1.4614 0
M  V30 3180 O 291.858 2.15866 -1.30989 0
M  V30 3181 C 293.171 -0.637468 -2.93865 0
M  V30 3182 C 294.719 -0.599166 -3.07212 0
M  V30 3183 C 295.194 -1.1092 -4.44366 0
M  V30 3184 N 296.685 -1.06778 -4.50725 0
M  V30 3185 C 297.42 -1.43314 -5.55201 0
M  V30 3186 N 296.916 -1.87204 -6.67028 0
M  V30 3187 N 298.709 -1.3504 -5.45638 0
M  V30 3188 H 290.86 -1.42214 -1.57762 0
M  V30 3189 H 293.123 -0.586921 -0.744465 0
M  V30 3190 H 292.829 -1.68187 -3.08879 0
M  V30 3191 H 292.703 -0.0702139 -3.77135 0
M  V30 3192 H 295.09 0.436277 -2.91857 0
M  V30 3193 H 295.171 -1.20299 -2.25747 0
M  V30 3194 H 294.815 -2.14318 -4.60467 0
M  V30 3195 H 294.745 -0.481773 -5.24392 0
M  V30 3196 H 297.236 -0.745643 -3.70471 0
M  V30 3197 H 297.549 -2.13282 -7.42786 0
M  V30 3198 H 295.894 -1.91142 -6.68199 0
M  V30 3199 H 299.085 -1.00607 -4.57161 0
M  V30 3200 H 299.258 -1.63841 -6.26945 0
M  V30 3201 N 292.664 1.56529 -0.183458 0
M  V30 3202 C 293.596 2.15747 0.773697 0
M  V30 3203 C 294.609 1.1162 1.1851 0
M  V30 3204 O 295.798 1.3876 1.12285 0
M  V30 3205 C 292.898 2.6952 2.05456 0
M  V30 3206 C 292.071 3.98429 1.8048 0
M  V30 3207 C 291.13 4.37145 2.92901 0
M  V30 3208 O 290.156 5.04791 2.6301 0
M  V30 3209 N 291.358 3.99695 4.2098 0
M  V30 3210 H 294.123 2.98505 0.26736 0
M  V30 3211 H 291.684 1.619 -0.0010878 0
M  V30 3212 H 293.676 2.92412 2.79781 0
M  V30 3213 H 292.246 1.91282 2.47245 0
M  V30 3214 H 291.466 3.8379 0.899947 0
M  V30 3215 H 292.754 4.82597 1.61175 0
M  V30 3216 H 292.152 3.4526 4.48121 0
M  V30 3217 H 290.709 4.27562 4.9197 0
M  V30 3218 N 294.142 -0.090211 1.57342 0
M  V30 3219 C 295.072 -1.10976 2.05443 0
M  V30 3220 C 296.053 -1.41482 0.944284 0
M  V30 3221 O 297.238 -1.51428 1.21586 0
M  V30 3222 C 294.368 -2.42831 2.48295 0
M  V30 3223 C 293.322 -2.26721 3.63018 0
M  V30 3224 C 292.648 -3.63796 3.91863 0
M  V30 3225 C 293.948 -1.7037 4.93732 0
M  V30 3226 H 295.642 -0.709564 2.9087 0
M  V30 3227 H 293.188 -0.339874 1.39932 0
M  V30 3228 H 295.141 -3.14431 2.80555 0
M  V30 3229 H 293.865 -2.84795 1.59873 0
M  V30 3230 H 292.524 -1.57565 3.31012 0
M  V30 3231 H 292.172 -4.03297 3.00601 0
M  V30 3232 H 291.872 -3.53861 4.69101 0
M  V30 3233 H 293.396 -4.36855 4.26603 0
M  V30 3234 H 294.81 -2.31816 5.24342 0
M  V30 3235 H 293.207 -1.71181 5.75167 0
M  V30 3236 H 294.277 -0.663542 4.80339 0
M  V30 3237 N 295.62 -1.53406 -0.361157 0
M  V30 3238 C 296.866 -1.70054 -1.10496 0
M  V30 3239 C 297.199 -0.453278 -1.88836 0
M  V30 3240 O 296.474 0.5495 -1.86576 0
M  V30 3241 C 296.757 -2.95317 -2.06058 0
M  V30 3242 C 296.61 -4.3021 -1.31298 0
M  V30 3243 C 297.929 -3.16193 -3.06121 0
M  V30 3244 H 295.048 -0.618799 -0.400321 0
M  V30 3245 H 297.69 -1.86052 -0.385318 0
M  V30 3246 H 295.84 -2.81809 -2.67425 0
M  V30 3247 H 297.512 -4.55538 -0.726807 0
M  V30 3248 H 295.755 -4.29421 -0.614853 0
M  V30 3249 H 296.426 -5.14 -2.01265 0
M  V30 3250 H 298.902 -3.28916 -2.5486 0
M  V30 3251 H 297.778 -4.05266 -3.70204 0
M  V30 3252 H 298.039 -2.31676 -3.76535 0
M  V30 3253 N 297.098 0.621204 -1.44841 0
M  V30 3254 C 298.048 1.72663 -1.48901 0
M  V30 3255 C 299.032 1.56964 -0.353702 0
M  V30 3256 O 300.224 1.66532 -0.599669 0
M  V30 3257 C 297.353 3.11381 -1.44557 0
M  V30 3258 C 296.439 3.32514 -2.6324 0
M  V30 3259 N 296.83 3.23969 -3.8843 0
M  V30 3260 C 295.128 3.63343 -2.58647 0
M  V30 3261 C 295.829 3.46062 -4.67564 0
M  V30 3262 N 294.805 3.69407 -3.98797 0
M  V30 3263 H 298.607 1.64529 -2.43531 0
M  V30 3264 H 296.121 0.82401 -1.39942 0
M  V30 3265 H 298.118 3.90667 -1.4555 0
M  V30 3266 H 296.778 3.20674 -0.509731 0
M  V30 3267 H 297.789 3.02669 -4.20252 0
M  V30 3268 H 294.466 3.79556 -1.73906 0
M  V30 3269 H 295.856 3.44963 -5.76585 0
M  V30 3270 N 298.576 1.31904 0.862503 0
M  V30 3271 C 299.486 1.22161 2.00285 0
M  V30 3272 C 300.502 0.136785 1.73462 0
M  V30 3273 O 301.678 0.355994 1.98229 0
M  V30 3274 C 298.743 0.937093 3.33796 0
M  V30 3275 C 297.804 2.10957 3.73893 0
M  V30 3276 C 297.037 1.83853 5.01033 0
M  V30 3277 O 297.26 0.777274 5.65079 0
M  V30 3278 O 296.194 2.69741 5.38074 0
M  V30 3279 H 300.02 2.18008 2.11439 0
M  V30 3280 H 297.605 1.11716 0.991957 0
M  V30 3281 H 299.487 0.794583 4.13841 0
M  V30 3282 H 298.162 0.00871894 3.23699 0
M  V30 3283 H 297.069 2.30752 2.94456 0
M  V30 3284 H 298.402 3.02046 3.88625 0
M  V30 3285 N 300.054 -1.07777 1.14986 0
M  V30 3286 C 300.984 -2.16865 0.865557 0
M  V30 3287 C 301.965 -1.69123 -0.182083 0
M  V30 3288 O 303.15 -1.94164 -0.0373815 0
M  V30 3289 C 300.28 -3.45539 0.349313 0
M  V30 3290 C 299.234 -4.06708 1.33313 0
M  V30 3291 C 298.56 -5.30411 0.675918 0
M  V30 3292 C 299.86 -4.47241 2.69764 0
M  V30 3293 H 301.554 -2.40905 1.77778 0
M  V30 3294 H 299.1 -1.15781 0.856203 0
M  V30 3295 H 301.053 -4.21174 0.137983 0
M  V30 3296 H 299.777 -3.21072 -0.598362 0
M  V30 3297 H 298.436 -3.33112 1.53075 0
M  V30 3298 H 298.084 -5.02232 -0.277767 0
M  V30 3299 H 297.784 -5.72293 1.33244 0
M  V30 3300 H 299.308 -6.08755 0.474262 0
M  V30 3301 H 300.722 -5.14025 2.53873 0
M  V30 3302 H 299.119 -5.00062 3.3175 0
M  V30 3303 H 300.189 -3.58818 3.26156 0
M  V30 3304 N 301.532 -0.945985 -1.26051 0
M  V30 3305 C 302.809 -0.513816 -1.88731 0
M  V30 3306 C 303.189 1.00872 -1.8544 0
M  V30 3307 O 302.537 1.8708 -1.312 0
M  V30 3308 C 302.747 -1.08062 -3.31849 0
M  V30 3309 C 304.095 -1.1522 -4.08668 0
M  V30 3310 O 305.119 -1.03155 -3.40936 0
M  V30 3311 O 303.978 -1.34044 -5.29806 0
M  V30 3312 H 301.072 -0.168193 -0.809716 0
M  V30 3313 H 303.618 -1.03886 -1.34186 0
M  V30 3314 H 302.39 -2.1241 -3.2863 0
M  V30 3315 H 302.013 -0.538307 -3.93939 0
M  V30 3316 N 303.011 1.40521 -0.713556 0
M  V30 3317 C 303.921 2.34522 -0.0606667 0
M  V30 3318 C 304.937 1.57193 0.74607 0
M  V30 3319 O 306.113 1.89591 0.679493 0
M  V30 3320 C 303.178 3.36081 0.851491 0
M  V30 3321 C 302.239 4.29286 0.0349339 0
M  V30 3322 C 301.472 5.25994 0.903649 0
M  V30 3323 O 301.695 5.28616 2.14292 0
M  V30 3324 O 300.629 6.00918 0.343723 0
M  V30 3325 H 304.455 2.91968 -0.835972 0
M  V30 3326 H 302.04 1.41681 -0.47402 0
M  V30 3327 H 303.922 3.98369 1.37404 0
M  V30 3328 H 302.597 2.81052 1.60598 0
M  V30 3329 H 301.504 3.70289 -0.532633 0
M  V30 3330 H 302.837 4.87462 -0.681287 0
M  V30 3331 N 304.489 0.459591 1.5075 0
M  V30 3332 C 305.452 -0.329093 2.26825 0
M  V30 3333 C 306.452 -0.930481 1.31144 0
M  V30 3334 O 307.642 -0.801453 1.54669 0
M  V30 3335 C 304.774 -1.46768 3.07688 0
M  V30 3336 H 305.967 0.337924 2.9799 0
M  V30 3337 H 303.52 0.213336 1.54837 0
M  V30 3338 H 304.255 -2.17009 2.40993 0
M  V30 3339 H 304.04 -1.04238 3.77991 0
M  V30 3340 H 305.53 -2.02433 3.65254 0
M  V30 3341 N 305.967 -1.56429 0.191757 0
M  V30 3342 C 306.877 -2.22541 -0.742481 0
M  V30 3343 C 307.893 -1.22342 -1.23727 0
M  V30 3344 O 309.069 -1.55069 -1.28513 0
M  V30 3345 C 306.134 -2.8692 -1.94623 0
M  V30 3346 C 305.195 -4.02378 -1.49633 0
M  V30 3347 C 304.428 -4.63678 -2.6427 0
M  V30 3348 O 304.651 -4.23895 -3.81666 0
M  V30 3349 O 303.585 -5.53202 -2.37174 0
M  V30 3350 H 307.411 -3.02977 -0.209462 0
M  V30 3351 H 304.996 -1.49353 -0.0373832 0
M  V30 3352 H 306.878 -3.27663 -2.64982 0
M  V30 3353 H 305.553 -2.09466 -2.46791 0
M  V30 3354 H 304.46 -3.66265 -0.761636 0
M  V30 3355 H 305.793 -4.81487 -1.02134 0
M  V30 3356 N 307.445 0.0818655 -1.57387 0
M  V30 3357 C 308.675 0.794954 -1.90694 0
M  V30 3358 C 309.083 1.72147 -0.784982 0
M  V30 3359 O 308.426 1.81974 0.251196 0
M  V30 3360 C 308.488 1.65042 -3.19376 0
M  V30 3361 C 308.152 0.894337 -4.48164 0
M  V30 3362 C 309.149 0.21813 -5.19442 0
M  V30 3363 C 306.834 0.864495 -4.94805 0
M  V30 3364 C 308.828 -0.477802 -6.35607 0
M  V30 3365 C 306.515 0.164785 -6.10878 0
M  V30 3366 C 307.513 -0.505173 -6.81129 0
M  V30 3367 O 307.201 -1.19363 -7.94989 0
M  V30 3368 H 306.933 0.231779 -0.635023 0
M  V30 3369 H 309.487 0.059493 -2.05314 0
M  V30 3370 H 307.717 2.42844 -3.00938 0
M  V30 3371 H 309.406 2.24127 -3.38411 0
M  V30 3372 H 310.172 0.232558 -4.84442 0
M  V30 3373 H 306.051 1.37542 -4.40004 0
M  V30 3374 H 309.595 -1.00129 -6.90377 0
M  V30 3375 H 305.492 0.148249 -6.4533 0
M  V30 3376 H 306.26 -1.10188 -8.11049 0
M  V30 3377 N 308.923 1.53595 0.353017 0
M  V30 3378 C 310.339 1.43648 0.695516 0
M  V30 3379 C 310.539 0.585617 1.92802 0
M  V30 3380 O 309.595 0.0729223 2.52395 0
M  V30 3381 C 310.908 2.8701 0.896991 0
M  V30 3382 C 312.456 2.96723 0.996209 0
M  V30 3383 C 312.931 4.41173 1.23007 0
M  V30 3384 N 314.422 4.44657 1.29749 0
M  V30 3385 C 315.157 5.53547 1.49577 0
M  V30 3386 N 314.653 6.72461 1.66639 0
M  V30 3387 N 316.446 5.41145 1.52048 0
M  V30 3388 H 308.597 2.07415 -0.457481 0
M  V30 3389 H 310.86 0.9372 -0.142687 0
M  V30 3390 H 310.566 3.51644 0.0629938 0
M  V30 3391 H 310.44 3.31401 1.80148 0
M  V30 3392 H 312.827 2.32235 1.82074 0
M  V30 3393 H 312.908 2.55707 0.0688331 0
M  V30 3394 H 312.552 5.06238 0.410505 0
M  V30 3395 H 312.482 4.79772 2.17086 0
M  V30 3396 H 314.973 3.58963 1.18126 0
M  V30 3397 H 315.286 7.51214 1.81378 0
M  V30 3398 H 313.631 6.75423 1.63794 0
M  V30 3399 H 316.822 4.47205 1.38294 0
M  V30 3400 H 316.995 6.26068 1.67159 0
M  V30 3401 N 310.401 -0.613514 1.45168 0
M  V30 3402 C 311.678 -1.37263 1.39349 0
M  V30 3403 C 312.058 -2.11012 0.0610848 0
M  V30 3404 O 311.406 -2.07502 -0.956825 0
M  V30 3405 C 311.616 -2.3244 2.60332 0
M  V30 3406 C 312.964 -2.9523 3.05163 0
M  V30 3407 O 313.988 -2.42762 2.60663 0
M  V30 3408 O 312.847 -3.90454 3.82372 0
M  V30 3409 H 309.941 -0.615188 0.552696 0
M  V30 3410 H 312.487 -0.637097 1.57287 0
M  V30 3411 H 311.259 -1.77164 3.48896 0
M  V30 3412 H 310.882 -3.13383 2.44698 0
M  V30 3413 N 311.879 -1.3236 -0.855495 0
M  V30 3414 C 313.128 -1.22226 -1.60448 0
M  V30 3415 C 313.441 0.214733 -1.94418 0
M  V30 3416 O 314.647 0.437917 -2.67945 0
M  V30 3417 C 313.103 -2.14063 -2.89318 0
M  V30 3418 C 312.711 -3.62839 -2.62777 0
M  V30 3419 C 314.455 -2.12764 -3.67331 0
M  V30 3420 C 312.362 -4.4664 -3.87643 0
M  V30 3421 H 311.292 -0.453904 -0.602069 0
M  V30 3422 H 313.943 -1.57314 -0.944698 0
M  V30 3423 H 312.325 -1.71889 -3.5675 0
M  V30 3424 H 313.499 -4.1335 -2.03662 0
M  V30 3425 H 311.814 -3.66261 -1.98096 0
M  V30 3426 H 314.411 -2.72611 -4.59987 0
M  V30 3427 H 314.754 -1.11841 -4.00995 0
M  V30 3428 H 315.287 -2.53214 -3.06802 0
M  V30 3429 H 312.026 -5.48373 -3.5912 0
M  V30 3430 H 311.546 -4.0088 -4.46156 0
M  V30 3431 H 313.225 -4.59597 -4.55389 0
M  V30 3432 N 313.357 1.07166 -1.15556 0
M  V30 3433 C 314.773 1.31899 -0.898603 0
M  V30 3434 C 314.973 1.96333 0.453383 0
M  V30 3435 O 314.029 2.22438 1.19489 0
M  V30 3436 C 315.342 2.20826 -2.04099 0
M  V30 3437 C 316.89 2.34269 -2.07574 0
M  V30 3438 C 317.365 3.26546 -3.21141 0
M  V30 3439 N 318.856 3.34127 -3.20801 0
M  V30 3440 C 319.591 4.05595 -4.05315 0
M  V30 3441 N 319.087 4.79661 -4.99897 0
M  V30 3442 N 320.88 4.01555 -3.93332 0
M  V30 3443 H 313.031 0.637302 -2.02613 0
M  V30 3444 H 315.294 0.343468 -0.883591 0
M  V30 3445 H 315 1.80744 -3.01703 0
M  V30 3446 H 314.874 3.21364 -1.97496 0
M  V30 3447 H 317.261 2.73603 -1.10568 0
M  V30 3448 H 317.342 1.33429 -2.18244 0
M  V30 3449 H 316.986 2.87931 -4.184 0
M  V30 3450 H 316.916 4.27345 -3.07708 0
M  V30 3451 H 319.407 2.81336 -2.52306 0
M  V30 3452 H 319.72 5.31694 -5.60822 0
M  V30 3453 H 318.065 4.78671 -5.03884 0
M  V30 3454 H 321.256 3.42806 -3.18751 0
M  V30 3455 H 321.429 4.56987 -4.5942 0
M  V30 3456 N 314.835 0.952656 1.25548 0
M  V30 3457 C 315.765 0.489287 2.28316 0
M  V30 3458 C 316.746 -0.463359 1.63667 0
M  V30 3459 O 317.931 -0.36274 1.90782 0
M  V30 3460 C 315.061 -0.235603 3.465 0
M  V30 3461 C 314.015 0.631593 4.23314 0
M  V30 3462 C 313.341 -0.223923 5.34231 0
M  V30 3463 C 314.641 1.90871 4.86174 0
M  V30 3464 H 316.335 1.34822 2.67326 0
M  V30 3465 H 313.881 0.649728 1.28509 0
M  V30 3466 H 315.834 -0.570882 4.17515 0
M  V30 3467 H 314.558 -1.12877 3.06474 0
M  V30 3468 H 313.217 0.949929 3.54079 0
M  V30 3469 H 312.865 -1.11678 4.90446 0
M  V30 3470 H 312.565 0.35299 5.86539 0
M  V30 3471 H 314.089 -0.554214 6.0808 0
M  V30 3472 H 315.503 1.63997 5.49343 0
M  V30 3473 H 313.9 2.43112 5.4865 0
M  V30 3474 H 314.97 2.61304 4.08471 0
M  V30 3475 N 316.313 -1.40141 0.720998 0
M  V30 3476 C 317.246 -2.2819 0.020916 0
M  V30 3477 C 318.224 -1.43633 -0.762129 0
M  V30 3478 O 319.408 -1.7304 -0.747633 0
M  V30 3479 C 316.535 -3.24281 -0.977715 0
M  V30 3480 C 315.581 -4.25548 -0.284836 0
M  V30 3481 S 316.414 -5.26247 0.991169 0
M  V30 3482 C 317.57 -6.259 -0.0052214 0
M  V30 3483 H 317.803 -2.87218 0.767649 0
M  V30 3484 H 315.336 -1.45656 0.512233 0
M  V30 3485 H 317.294 -3.80167 -1.54865 0
M  V30 3486 H 315.955 -2.643 -1.69719 0
M  V30 3487 H 315.148 -4.93154 -1.03996 0
M  V30 3488 H 314.75 -3.73389 0.213684 0
M  V30 3489 H 317.042 -6.72143 -0.850279 0
M  V30 3490 H 317.985 -7.05224 0.637599 0
M  V30 3491 H 318.393 -5.63277 -0.371366 0
M  V30 3492 N 317.792 -0.46758 -1.50504 0
M  V30 3493 C 319.038 0.0887532 -2.02606 0
M  V30 3494 C 319.371 1.39686 -1.34913 0
M  V30 3495 O 318.646 1.88644 -0.473694 0
M  V30 3496 C 318.929 0.276206 -3.59039 0
M  V30 3497 C 318.782 -1.05267 -4.37309 0
M  V30 3498 C 320.101 1.03235 -4.27821 0
M  V30 3499 H 317.22 0.0307814 -0.736357 0
M  V30 3500 H 319.862 -0.612485 -1.79857 0
M  V30 3501 H 318.012 0.8735 -3.78553 0
M  V30 3502 H 319.684 -1.68628 -4.29374 0
M  V30 3503 H 317.927 -1.65015 -4.01189 0
M  V30 3504 H 318.598 -0.875197 -5.45018 0
M  V30 3505 H 321.074 0.526111 -4.12761 0
M  V30 3506 H 319.95 1.1323 -5.37094 0
M  V30 3507 H 320.211 2.06806 -3.90748 0
M  V30 3508 N 319.27 1.56325 -0.20005 0
M  V30 3509 C 320.203 2.15234 0.758267 0
M  V30 3510 C 321.181 1.09046 1.20614 0
M  V30 3511 O 322.365 1.37186 1.29276 0
M  V30 3512 C 319.492 2.71524 2.02466 0
M  V30 3513 C 318.538 3.90345 1.71852 0
M  V30 3514 S 319.371 5.28513 0.862249 0
M  V30 3515 C 320.527 5.88227 2.13868 0
M  V30 3516 H 320.76 2.96183 0.2575 0
M  V30 3517 H 318.293 1.54393 0.0150099 0
M  V30 3518 H 320.251 3.04598 2.75191 0
M  V30 3519 H 318.912 1.90607 2.49655 0
M  V30 3520 H 318.105 4.28158 2.65888 0
M  V30 3521 H 317.707 3.58306 1.07205 0
M  V30 3522 H 319.999 6.02891 3.09076 0
M  V30 3523 H 320.942 6.84714 1.80479 0
M  V30 3524 H 321.35 5.16874 2.2694 0
M  V30 3525 N 320.748 -0.0735177 1.57428 0
M  V30 3526 C 321.658 -1.10547 2.06922 0
M  V30 3527 C 322.674 -1.42506 0.998402 0
M  V30 3528 O 323.85 -1.52717 1.31299 0
M  V30 3529 C 320.915 -2.40019 2.50184 0
M  V30 3530 C 319.976 -2.15046 3.71556 0
M  V30 3531 C 319.209 -3.38345 4.12745 0
M  V30 3532 O 319.432 -4.47399 3.53822 0
M  V30 3533 O 318.366 -3.2666 5.05546 0
M  V30 3534 H 322.192 -0.715013 2.95163 0
M  V30 3535 H 319.777 -0.287531 1.46607 0
M  V30 3536 H 321.659 -3.16218 2.78539 0
M  V30 3537 H 320.334 -2.78447 1.65072 0
M  V30 3538 H 319.241 -1.36558 3.48285 0
M  V30 3539 H 320.574 -1.81499 4.57514 0
M  V30 3540 N 322.226 -1.5378 -0.344866 0
M  V30 3541 C 323.475 -1.7018 -1.08267 0
M  V30 3542 C 323.788 -0.471 -1.89845 0
M  V30 3543 O 324.994 -0.515917 -2.66553 0
M  V30 3544 C 323.45 -3.00923 -1.97417 0
M  V30 3545 C 323.058 -4.31335 -1.21053 0
M  V30 3546 C 324.802 -3.26688 -2.71063 0
M  V30 3547 C 322.709 -5.53153 -2.09225 0
M  V30 3548 H 321.639 -0.634138 -0.407903 0
M  V30 3549 H 324.29 -1.8028 -0.342246 0
M  V30 3550 H 322.672 -2.84676 -2.75274 0
M  V30 3551 H 323.846 -4.58281 -0.481159 0
M  V30 3552 H 322.161 -4.12173 -0.591813 0
M  V30 3553 H 324.758 -4.1489 -3.37299 0
M  V30 3554 H 325.101 -2.43639 -3.37558 0
M  V30 3555 H 325.634 -3.43705 -2.0028 0
M  V30 3556 H 322.373 -6.38741 -1.47274 0
M  V30 3557 H 321.893 -5.30458 -2.79955 0
M  V30 3558 H 323.572 -5.88744 -2.68308 0
M  V30 3559 N 323.704 0.605807 -1.45491 0
M  V30 3560 C 325.12 0.926751 -1.29936 0
M  V30 3561 C 325.32 1.99896 -0.253706 0
M  V30 3562 O 324.376 2.50038 0.351737 0
M  V30 3563 C 325.689 1.36599 -2.67883 0
M  V30 3564 C 327.237 1.4801 -2.75793 0
M  V30 3565 C 327.712 1.95309 -4.14268 0
M  V30 3566 N 329.203 2.0254 -4.16571 0
M  V30 3567 C 329.938 2.40363 -5.20589 0
M  V30 3568 N 329.434 2.77143 -6.34952 0
M  V30 3569 N 331.227 2.40718 -5.07948 0
M  V30 3570 H 323.378 -0.102862 -2.12151 0
M  V30 3571 H 325.641 0.016639 -0.947854 0
M  V30 3572 H 325.347 0.652306 -3.45598 0
M  V30 3573 H 325.221 2.33215 -2.96463 0
M  V30 3574 H 327.608 2.1847 -1.98381 0
M  V30 3575 H 327.689 0.497041 -2.50925 0
M  V30 3576 H 327.333 1.25436 -4.92167 0
M  V30 3577 H 327.263 2.94532 -4.3653 0
M  V30 3578 H 329.754 1.76699 -3.34045 0
M  V30 3579 H 330.067 3.0489 -7.10114 0
M  V30 3580 H 328.412 2.74834 -6.3835 0
M  V30 3581 H 331.603 2.11392 -4.1765 0
M  V30 3582 H 331.776 2.69869 -5.89131 0
M  V30 3583 N 325.182 1.32811 0.848464 0
M  V30 3584 C 326.13 1.22231 1.97895 0
M  V30 3585 C 327.124 0.125749 1.68933 0
M  V30 3586 O 328.33 0.289083 1.77663 0
M  V30 3587 H 324.705 0.379058 0.649476 0
M  V30 3588 H 326.676 2.17828 2.03945 0
M  V30 3589 C 325.425 0.968572 3.33937 0
M  V30 3590 H 324.748 1.80458 3.56756 0
M  V30 3591 H 326.188 0.934808 4.13567 0
M  V30 3592 C 324.647 -0.328628 3.35293 0
M  V30 3593 O 325.177 -1.33848 3.78745 0
M  V30 3594 N 323.383 -0.352788 2.88451 0
M  V30 3595 H 322.93 0.469541 2.53285 0
M  V30 3596 H 322.888 -1.22057 2.89741 0
M  V30 3597 N 326.66 -1.06551 1.16123 0
M  V30 3598 C 327.623 -2.12132 0.867906 0
M  V30 3599 C 328.623 -1.60224 -0.135944 0
M  V30 3600 O 329.813 -1.73943 0.0946422 0
M  V30 3601 C 326.945 -3.396 0.297419 0
M  V30 3602 H 328.138 -2.39586 1.80385 0
M  V30 3603 H 325.691 -1.22574 0.969812 0
M  V30 3604 H 326.426 -3.17794 -0.64633 0
M  V30 3605 H 326.211 -3.78581 1.02073 0
M  V30 3606 H 327.701 -4.17455 0.110052 0
M  V30 3607 N 328.138 -0.959301 -1.25041 0
M  V30 3608 C 329.368 -0.63303 -1.96663 0
M  V30 3609 C 329.776 0.800031 -1.71453 0
M  V30 3610 O 329.119 1.54736 -0.99008 0
M  V30 3611 C 329.181 -0.817523 -3.50081 0
M  V30 3612 C 328.845 -2.22863 -3.98975 0
M  V30 3613 C 329.842 -3.20569 -4.09306 0
M  V30 3614 C 327.527 -2.55407 -4.32519 0
M  V30 3615 C 329.521 -4.4891 -4.52503 0
M  V30 3616 C 327.208 -3.83976 -4.754 0
M  V30 3617 C 328.206 -4.8054 -4.85356 0
M  V30 3618 O 327.894 -6.06817 -5.27284 0
M  V30 3619 H 327.626 -0.235866 -0.633516 0
M  V30 3620 H 330.18 -1.2874 -1.60047 0
M  V30 3621 H 328.41 -0.105992 -3.86555 0
M  V30 3622 H 330.099 -0.491604 -4.02912 0
M  V30 3623 H 330.865 -2.96753 -3.83618 0
M  V30 3624 H 326.744 -1.8097 -4.23994 0
M  V30 3625 H 330.288 -5.24283 -4.60188 0
M  V30 3626 H 326.185 -4.07596 -5.00535 0
M  V30 3627 H 326.953 -6.10262 -5.45457 0
M  V30 3628 N 329.616 1.39756 -0.72842 0
M  V30 3629 C 330.579 2.29012 -0.0927297 0
M  V30 3630 C 331.579 1.45992 0.674025 0
M  V30 3631 O 332.769 1.66749 0.50402 0
M  V30 3632 C 329.901 3.29396 0.878137 0
M  V30 3633 H 331.094 2.86729 -0.879011 0
M  V30 3634 H 328.647 1.48293 -0.493847 0
M  V30 3635 H 329.382 2.76722 1.69101 0
M  V30 3636 H 329.167 3.907 0.331051 0
M  V30 3637 H 330.657 3.96199 1.3197 0
M  V30 3638 N 331.094 0.475555 1.50254 0
M  V30 3639 C 332.34 -0.0780073 2.0265 0
M  V30 3640 C 332.673 -1.38968 1.35652 0
M  V30 3641 O 331.948 -1.8839 0.483691 0
M  V30 3642 C 332.231 -0.257161 3.59181 0
M  V30 3643 C 332.084 1.07585 4.36744 0
M  V30 3644 C 333.403 -1.00965 4.28362 0
M  V30 3645 H 330.522 -0.0268758 0.73651 0
M  V30 3646 H 333.164 0.622015 1.7953 0
M  V30 3647 H 331.314 -0.853412 3.79011 0
M  V30 3648 H 332.986 1.70902 4.28474 0
M  V30 3649 H 331.229 1.6714 4.00308 0
M  V30 3650 H 331.9 0.904088 5.44546 0
M  V30 3651 H 334.376 -0.504214 4.13034 0
M  V30 3652 H 333.252 -1.10381 5.37687 0
M  V30 3653 H 333.513 -2.04731 3.91839 0
M  V30 3654 N 332.573 -1.56217 0.208337 0
M  V30 3655 C 333.503 -2.22694 -0.702116 0
M  V30 3656 C 334.484 -1.19432 -1.2112 0
M  V30 3657 O 335.669 -1.47978 -1.25762 0
M  V30 3658 C 332.799 -2.8966 -1.9161 0
M  V30 3659 C 331.753 -3.9928 -1.5414 0
M  V30 3660 C 331.079 -4.53476 -2.83308 0
M  V30 3661 C 332.379 -5.17012 -0.741339 0
M  V30 3662 H 334.073 -2.99034 -0.147898 0
M  V30 3663 H 331.619 -1.43831 -0.0696951 0
M  V30 3664 H 333.572 -3.34852 -2.55836 0
M  V30 3665 H 332.296 -2.10746 -2.49507 0
M  V30 3666 H 330.955 -3.54799 -0.922668 0
M  V30 3667 H 330.603 -3.71308 -3.39322 0
M  V30 3668 H 330.303 -5.27451 -2.58976 0
M  V30 3669 H 331.827 -5.01378 -3.485 0
M  V30 3670 H 333.241 -5.58667 -1.28699 0
M  V30 3671 H 331.638 -5.97137 -0.595627 0
M  V30 3672 H 332.708 -4.8423 0.254851 0
M  V30 3673 N 334.051 0.0651679 -1.57465 0
M  V30 3674 C 335.281 0.774683 -1.91526 0
M  V30 3675 C 335.689 1.71305 -0.803196 0
M  V30 3676 O 335.032 1.82231 0.231881 0
M  V30 3677 C 335.094 1.61645 -3.21109 0
M  V30 3678 C 334.758 0.846753 -4.49087 0
M  V30 3679 C 335.755 0.163024 -5.19644 0
M  V30 3680 C 333.44 0.811966 -4.95694 0
M  V30 3681 C 335.434 -0.54519 -6.35064 0
M  V30 3682 C 333.121 0.0999836 -6.11018 0
M  V30 3683 C 334.119 -0.577388 -6.80555 0
M  V30 3684 O 333.807 -1.27789 -7.93678 0
M  V30 3685 H 333.539 0.225031 -0.637446 0
M  V30 3686 H 336.093 0.0377134 -2.05365 0
M  V30 3687 H 334.323 2.39638 -3.03497 0
M  V30 3688 H 336.012 2.20525 -3.40769 0
M  V30 3689 H 336.778 0.181163 -4.84662 0
M  V30 3690 H 332.657 1.32867 -4.41438 0
M  V30 3691 H 336.201 -1.07446 -6.89276 0
M  V30 3692 H 332.098 0.0797945 -6.45451 0
M  V30 3693 H 332.866 -1.18784 -8.09835 0
M  V30 3694 N 335.529 1.53961 0.336706 0
M  V30 3695 C 336.806 1.62171 1.09361 0
M  V30 3696 C 337.186 0.447263 2.06307 0
M  V30 3697 O 336.534 -0.559802 2.21537 0
M  V30 3698 C 336.744 2.98565 1.80721 0
M  V30 3699 C 338.092 3.54157 2.34218 0
M  V30 3700 O 339.116 3.00784 1.90807 0
M  V30 3701 O 337.975 4.47528 3.13657 0
M  V30 3702 H 335.069 0.6562 0.503319 0
M  V30 3703 H 337.615 1.66307 0.33765 0
M  V30 3704 H 336.387 3.75482 1.10132 0
M  V30 3705 H 336.01 2.9805 2.63158 0
M  V30 3706 N 337.007 -0.598083 1.45811 0
M  V30 3707 C 338.256 -1.35295 1.49594 0
M  V30 3708 C 338.569 -1.95057 0.145679 0
M  V30 3709 O 339.775 -2.71431 0.0612099 0
M  V30 3710 C 338.231 -2.45124 2.63519 0
M  V30 3711 C 337.839 -1.91732 4.04899 0
M  V30 3712 C 339.583 -3.2205 2.76558 0
M  V30 3713 C 337.49 -2.991 5.1019 0
M  V30 3714 H 336.42 -0.508552 0.556679 0
M  V30 3715 H 339.071 -0.639977 1.71978 0
M  V30 3716 H 337.453 -3.19149 2.34435 0
M  V30 3717 H 338.627 -1.24352 4.43704 0
M  V30 3718 H 336.942 -1.27522 3.96393 0
M  V30 3719 H 339.539 -4.0215 3.52391 0
M  V30 3720 H 339.882 -3.73663 1.83526 0
M  V30 3721 H 340.415 -2.55127 3.05213 0
M  V30 3722 H 337.154 -2.52393 6.04961 0
M  V30 3723 H 336.674 -3.65017 4.75944 0
M  V30 3724 H 338.353 -3.63318 5.35359 0
M  V30 3725 N 338.485 -1.33259 -0.841409 0
M  V30 3726 C 339.734 -1.23921 -1.59143 0
M  V30 3727 C 340.047 0.1941 -1.94635 0
M  V30 3728 O 341.253 0.409474 -2.68394 0
M  V30 3729 C 339.709 -2.17119 -2.87032 0
M  V30 3730 C 339.317 -3.65606 -2.58914 0
M  V30 3731 C 341.061 -2.16648 -3.65053 0
M  V30 3732 C 338.968 -4.50726 -3.82884 0
M  V30 3733 H 337.898 -0.460264 -0.597221 0
M  V30 3734 H 340.549 -1.58307 -0.927959 0
M  V30 3735 H 338.931 -1.75663 -3.54906 0
M  V30 3736 H 340.105 -4.15487 -1.99267 0
M  V30 3737 H 338.42 -3.68341 -1.942 0
M  V30 3738 H 341.017 -2.77474 -4.57069 0
M  V30 3739 H 341.36 -1.16088 -3.99787 0
M  V30 3740 H 341.893 -2.56453 -3.041 0
M  V30 3741 H 338.632 -5.52151 -3.53283 0
M  V30 3742 H 338.152 -4.0559 -4.41879 0
M  V30 3743 H 339.831 -4.64401 -4.50489 0
M  V30 3744 N 339.963 1.05934 -1.16686 0
M  V30 3745 C 340.893 2.1546 -0.899949 0
M  V30 3746 C 341.874 1.69391 0.155154 0
M  V30 3747 O 343.059 1.94199 0.00648693 0
M  V30 3748 C 340.189 3.44939 -0.404241 0
M  V30 3749 C 339.143 4.04536 -1.39767 0
M  V30 3750 C 338.469 5.29268 -0.760216 0
M  V30 3751 C 339.769 4.42893 -2.76845 0
M  V30 3752 H 341.463 2.38046 -1.81588 0
M  V30 3753 H 339.009 1.14404 -0.874514 0
M  V30 3754 H 340.962 4.20901 -0.204971 0
M  V30 3755 H 339.686 3.21983 0.547206 0
M  V30 3756 H 338.345 3.30635 -1.58355 0
M  V30 3757 H 337.993 5.02611 0.197831 0
M  V30 3758 H 337.693 5.70101 -1.42332 0
M  V30 3759 H 339.217 6.07924 -0.57105 0
M  V30 3760 H 340.631 5.09921 -2.62019 0
M  V30 3761 H 339.028 4.94721 -3.39663 0
M  V30 3762 H 340.098 3.53584 -3.31823 0
M  V30 3763 N 341.441 0.965919 1.2453 0
M  V30 3764 C 342.388 0.49402 2.25451 0
M  V30 3765 C 343.358 -0.45948 1.59618 0
M  V30 3766 O 344.543 -0.370238 1.87173 0
M  V30 3767 C 341.683 -0.211359 3.44452 0
M  V30 3768 C 340.796 0.7807 4.24887 0
M  V30 3769 C 339.931 0.0516105 5.31175 0
M  V30 3770 C 338.97 1.03385 6.03306 0
M  V30 3771 N 338.107 0.334887 7.01301 0
M  V30 3772 H 342.947 1.35946 2.65184 0
M  V30 3773 H 340.484 0.681515 1.3036 0
M  V30 3774 H 342.442 -0.637 4.12308 0
M  V30 3775 H 341.072 -1.04077 3.05562 0
M  V30 3776 H 340.124 1.32479 3.56586 0
M  V30 3777 H 341.436 1.52978 4.74762 0
M  V30 3778 H 340.59 -0.432114 6.05159 0
M  V30 3779 H 339.329 -0.730179 4.82203 0
M  V30 3780 H 338.334 1.52847 5.28127 0
M  V30 3781 H 339.559 1.81606 6.54367 0
M  V30 3782 H 337.505 -0.427959 6.54603 0
M  V30 3783 H 337.422 1.02287 7.49048 0
M  V30 3784 H 338.69 -0.126928 7.79397 0
M  V30 3785 N 342.919 -1.39368 0.735821 0
M  V30 3786 C 343.867 -2.32443 0.0855131 0
M  V30 3787 C 344.861 -1.53104 -0.724954 0
M  V30 3788 O 346.067 -1.68762 -0.626047 0
M  V30 3789 H 342.442 -0.751948 0.00885257 0
M  V30 3790 H 344.413 -2.84916 0.886883 0
M  V30 3791 C 343.162 -3.38206 -0.806983 0
M  V30 3792 H 342.485 -3.99335 -0.19274 0
M  V30 3793 H 343.925 -4.05779 -1.2296 0
M  V30 3794 C 342.384 -2.75321 -1.94165 0
M  V30 3795 O 342.914 -2.63231 -3.03435 0
M  V30 3796 N 341.12 -2.33396 -1.73132 0
M  V30 3797 H 340.667 -2.4343 -0.842596 0
M  V30 3798 H 340.625 -1.91661 -2.49225 0
M  V30 3799 N 344.397 -0.483516 -1.5 0
M  V30 3800 C 345.644 0.0671597 -2.02389 0
M  V30 3801 C 345.972 1.38597 -1.36459 0
M  V30 3802 O 345.227 1.89634 -0.483458 0
M  V30 3803 C 345.526 0.286226 -3.56252 0
M  V30 3804 C 345.192 -0.952416 -4.40726 0
M  V30 3805 C 343.854 -1.29199 -4.63531 0
M  V30 3806 C 346.206 -1.77655 -4.89988 0
M  V30 3807 C 343.534 -2.45553 -5.32842 0
M  V30 3808 C 345.886 -2.93147 -5.60578 0
M  V30 3809 C 344.55 -3.27505 -5.81633 0
M  V30 3810 H 343.82 0.0245755 -0.740592 0
M  V30 3811 H 346.467 -0.640124 -1.80485 0
M  V30 3812 H 344.772 1.07587 -3.76739 0
M  V30 3813 H 346.469 0.726473 -3.94365 0
M  V30 3814 H 343.059 -0.677881 -4.23205 0
M  V30 3815 H 347.243 -1.52737 -4.72213 0
M  V30 3816 H 342.499 -2.72431 -5.47349 0
M  V30 3817 H 346.673 -3.57344 -5.97727 0
M  V30 3818 H 344.3 -4.1777 -6.35116 0
M  V30 3819 N 345.875 1.56104 -0.216619 0
M  V30 3820 C 346.785 2.23694 0.706982 0
M  V30 3821 C 347.801 1.24295 1.21765 0
M  V30 3822 O 348.977 1.57094 1.2603 0
M  V30 3823 C 346.042 2.8998 1.90033 0
M  V30 3824 C 345.103 4.04708 1.43213 0
M  V30 3825 C 344.336 4.67824 2.56859 0
M  V30 3826 O 344.559 4.29913 3.74874 0
M  V30 3827 O 343.493 5.56905 2.28343 0
M  V30 3828 H 347.319 3.03272 0.161235 0
M  V30 3829 H 344.904 1.49394 0.0136177 0
M  V30 3830 H 346.786 3.31837 2.59735 0
M  V30 3831 H 345.461 2.13365 2.43428 0
M  V30 3832 H 344.368 3.6743 0.70327 0
M  V30 3833 H 345.701 4.83051 0.944615 0
M  V30 3834 N 347.353 -0.0568162 1.57498 0
M  V30 3835 C 348.3 -1.06591 2.04712 0
M  V30 3836 C 349.27 -1.3758 0.930644 0
M  V30 3837 O 350.455 -1.48392 1.19935 0
M  V30 3838 C 347.595 -2.3701 2.50839 0
M  V30 3839 C 346.708 -2.12421 3.76167 0
M  V30 3840 C 345.843 -3.36511 4.11015 0
M  V30 3841 C 344.882 -3.07353 5.2934 0
M  V30 3842 N 344.019 -4.23816 5.59754 0
M  V30 3843 H 348.859 -0.65631 2.90683 0
M  V30 3844 H 346.396 -0.312481 1.43743 0
M  V30 3845 H 348.354 -3.13175 2.7564 0
M  V30 3846 H 346.984 -2.75744 1.67825 0
M  V30 3847 H 346.036 -1.2688 3.58616 0
M  V30 3848 H 347.348 -1.86894 4.62463 0
M  V30 3849 H 346.502 -4.21062 4.36797 0
M  V30 3850 H 345.241 -3.65128 3.23315 0
M  V30 3851 H 344.246 -2.212 5.03339 0
M  V30 3852 H 345.471 -2.80043 6.1867 0
M  V30 3853 H 343.417 -4.52436 4.75014 0
M  V30 3854 H 343.334 -4.01614 6.40501 0
M  V30 3855 H 344.602 -5.0932 5.90096 0
M  V30 3856 N 348.832 -1.54138 -0.328536 0
M  V30 3857 C 349.762 -1.86167 -1.40939 0
M  V30 3858 C 350.743 -0.718044 -1.54202 0
M  V30 3859 O 351.928 -0.971328 -1.68163 0
M  V30 3860 C 349.058 -2.08461 -2.77779 0
M  V30 3861 C 348.012 -3.24299 -2.7931 0
M  V30 3862 C 347.338 -3.31955 -4.19178 0
M  V30 3863 C 348.638 -4.62065 -2.43502 0
M  V30 3864 H 350.332 -2.76689 -1.14383 0
M  V30 3865 H 347.878 -1.33132 -0.548806 0
M  V30 3866 H 349.831 -2.29453 -3.53454 0
M  V30 3867 H 348.555 -1.14684 -3.05802 0
M  V30 3868 H 347.214 -3.03187 -2.0609 0
M  V30 3869 H 346.862 -2.35745 -4.44335 0
M  V30 3870 H 346.562 -4.09805 -4.2111 0
M  V30 3871 H 348.086 -3.55175 -4.96672 0
M  V30 3872 H 349.5 -4.8297 -3.08889 0
M  V30 3873 H 347.897 -5.42429 -2.56693 0
M  V30 3874 H 348.967 -4.64652 -1.38659 0
M  V30 3875 N 350.31 0.590341 -1.46126 0
M  V30 3876 C 351.257 1.69994 -1.56111 0
M  V30 3877 C 352.227 1.61065 -0.405867 0
M  V30 3878 O 353.412 1.8039 -0.621613 0
M  V30 3879 C 350.552 3.08326 -1.55013 0
M  V30 3880 C 349.665 3.27936 -2.81215 0
M  V30 3881 C 348.8 4.56473 -2.71673 0
M  V30 3882 C 347.839 4.694 -3.92849 0
M  V30 3883 N 346.976 5.89254 -3.81738 0
M  V30 3884 H 351.816 1.60797 -2.50895 0
M  V30 3885 H 349.353 0.783799 -1.24479 0
M  V30 3886 H 351.311 3.88383 -1.52362 0
M  V30 3887 H 349.941 3.16439 -0.637667 0
M  V30 3888 H 348.993 2.41536 -2.93879 0
M  V30 3889 H 350.305 3.33357 -3.71045 0
M  V30 3890 H 349.459 5.44748 -2.67085 0
M  V30 3891 H 348.198 4.53477 -1.7947 0
M  V30 3892 H 347.203 3.79544 -3.97777 0
M  V30 3893 H 348.428 4.7418 -4.86138 0
M  V30 3894 H 346.374 5.87271 -2.92317 0
M  V30 3895 H 346.291 5.95911 -4.65217 0
M  V30 3896 H 347.559 6.79981 -3.81112 0
M  V30 3897 N 351.788 1.33704 0.83433 0
M  V30 3898 C 352.735 1.24335 1.94447 0
M  V30 3899 C 353.705 0.120991 1.65659 0
M  V30 3900 O 354.89 0.300035 1.88426 0
M  V30 3901 C 352.03 0.993124 3.30501 0
M  V30 3902 C 351.143 2.20217 3.71657 0
M  V30 3903 C 350.278 1.88572 4.96602 0
M  V30 3904 C 349.317 3.05683 5.30306 0
M  V30 3905 N 348.454 2.73997 6.46429 0
M  V30 3906 H 353.294 2.1928 2.01792 0
M  V30 3907 H 350.831 1.09035 0.987404 0
M  V30 3908 H 352.789 0.828467 4.08892 0
M  V30 3909 H 351.419 0.0803902 3.227 0
M  V30 3910 H 350.471 2.47642 2.88752 0
M  V30 3911 H 351.783 3.07752 3.92543 0
M  V30 3912 H 350.937 1.68776 5.82752 0
M  V30 3913 H 349.676 0.982799 4.77695 0
M  V30 3914 H 348.681 3.26088 4.42659 0
M  V30 3915 H 349.906 3.96737 5.51159 0
M  V30 3916 H 347.852 1.86268 6.28999 0
M  V30 3917 H 347.769 3.55064 6.67432 0
M  V30 3918 H 349.037 2.57679 7.35678 0
M  V30 3919 N 353.266 -1.05314 1.17247 0
M  V30 3920 C 354.677 -1.59753 0.96623 0
M  V30 3921 C 355.028 -1.9005 -0.487378 0
M  V30 3922 O 354.153 -1.68126 -1.36245 0
M  V30 3923 C 354.748 -2.90249 1.74759 0
M  V30 3924 C 353.307 -3.41352 1.58606 0
M  V30 3925 C 352.454 -2.15103 1.75002 0
M  V30 3926 H 355.405 -0.881406 1.31973 0
M  V30 3927 H 355.426 -3.60097 1.22925 0
M  V30 3928 H 354.938 -2.68166 2.8055 0
M  V30 3929 H 353.039 -3.68474 0.552985 0
M  V30 3930 H 353.152 -4.16019 2.37624 0
M  V30 3931 H 351.516 -2.25804 1.17833 0
M  V30 3932 H 352.299 -1.95491 2.82202 0
M  V30 3933 N 354.744 -0.972509 -1.24016 0
M  V30 3934 C 356.16 -0.679827 -1.44397 0
M  V30 3935 C 356.36 0.756716 -1.86751 0
M  V30 3936 O 355.416 1.53007 -2.00861 0
M  V30 3937 C 356.729 -1.66803 -2.50195 0
M  V30 3938 C 358.277 -1.68119 -2.64017 0
M  V30 3939 C 358.752 -2.65748 -3.73017 0
M  V30 3940 N 360.243 -2.64219 -3.8045 0
M  V30 3941 C 360.978 -3.36433 -4.64328 0
M  V30 3942 N 360.474 -4.1818 -5.52356 0
M  V30 3943 N 362.267 -3.25235 -4.58453 0
M  V30 3944 H 354.418 -1.90059 -0.948228 0
M  V30 3945 H 356.681 -0.818527 -0.478245 0
M  V30 3946 H 356.387 -2.69498 -2.25973 0
M  V30 3947 H 356.261 -1.4446 -3.48441 0
M  V30 3948 H 358.648 -0.661319 -2.87594 0
M  V30 3949 H 358.729 -1.94525 -1.66113 0
M  V30 3950 H 358.373 -3.67872 -3.50189 0
M  V30 3951 H 358.303 -2.36619 -4.70446 0
M  V30 3952 H 360.794 -2.04887 -3.17537 0
M  V30 3953 H 361.107 -4.70157 -6.13329 0
M  V30 3954 H 359.452 -4.22273 -5.52006 0
M  V30 3955 H 362.643 -2.60829 -3.88698 0
M  V30 3956 H 362.816 -3.81776 -5.23594 0
M  V30 3957 N 356.222 1.38976 -0.743202 0
M  V30 3958 C 357.47 1.99948 -0.29417 0
M  V30 3959 C 357.791 1.59279 1.12495 0
M  V30 3960 O 357.061 0.844808 1.76748 0
M  V30 3961 H 355.641 0.739473 -0.105774 0
M  V30 3962 H 358.303 1.699 -0.954986 0
M  V30 3963 H 357.399 3.10142 -0.349056 0
M  V30 3964 N 357.7 0.491464 1.49741 0
M  V30 3965 C 358.61 -0.296835 2.32715 0
M  V30 3966 C 359.626 -0.976536 1.44013 0
M  V30 3967 O 360.802 -0.960023 1.77047 0
M  V30 3968 C 357.867 -1.35288 3.19215 0
M  V30 3969 C 356.928 -0.687632 4.23757 0
M  V30 3970 C 356.161 -1.69336 5.06123 0
M  V30 3971 O 356.384 -2.92219 4.89861 0
M  V30 3972 O 355.318 -1.25394 5.88693 0
M  V30 3973 H 359.144 0.382048 3.01287 0
M  V30 3974 H 356.729 0.252953 1.47243 0
M  V30 3975 H 358.611 -1.96411 3.72828 0
M  V30 3976 H 357.286 -2.01487 2.53347 0
M  V30 3977 H 356.193 -0.0369159 3.74082 0
M  V30 3978 H 357.526 -0.0682566 4.92153 0
M  V30 3979 N 359.178 -1.55987 0.224894 0
M  V30 3980 C 360.406 -2.02784 -0.410665 0
M  V30 3981 C 360.821 -1.10464 -1.53112 0
M  V30 3982 O 360.178 -0.114871 -1.82138 0
M  V30 3983 C 360.229 -3.49087 -0.939165 0
M  V30 3984 O 359.95 -4.37887 0.136614 0
M  V30 3985 C 361.451 -4.11543 -1.64763 0
M  V30 3986 H 358.671 -0.663484 -0.100148 0
M  V30 3987 H 361.215 -2.01614 0.342326 0
M  V30 3988 H 359.37 -3.50861 -1.64242 0
M  V30 3989 H 359.784 -5.23849 -0.261155 0
M  V30 3990 H 361.258 -5.15673 -1.96939 0
M  V30 3991 H 361.735 -3.56736 -2.56195 0
M  V30 3992 H 362.341 -4.13629 -0.989503 0
M  V30 3993 N 360.656 0.0484629 -1.57525 0
M  V30 3994 C 361.603 1.05504 -2.05275 0
M  V30 3995 C 362.573 1.37084 -0.937927 0
M  V30 3996 O 363.758 1.47754 -1.2072 0
M  V30 3997 C 360.898 2.35676 -2.52093 0
M  V30 3998 C 360.011 2.10423 -3.77288 0
M  V30 3999 C 359.146 3.34327 -4.12794 0
M  V30 4000 C 358.185 3.04542 -5.30962 0
M  V30 4001 N 357.322 4.20841 -5.61994 0
M  V30 4002 H 362.162 0.640885 -2.91027 0
M  V30 4003 H 359.699 0.304854 -1.43906 0
M  V30 4004 H 361.657 3.11709 -2.77297 0
M  V30 4005 H 360.287 2.7485 -1.69285 0
M  V30 4006 H 359.339 1.24976 -3.59284 0
M  V30 4007 H 360.651 1.84438 -4.63448 0
M  V30 4008 H 359.805 4.1874 -4.39024 0
M  V30 4009 H 358.544 3.63408 -3.25247 0
M  V30 4010 H 357.549 2.18528 -5.04505 0
M  V30 4011 H 358.774 2.76758 -6.20146 0
M  V30 4012 H 356.72 4.4991 -4.77406 0
M  V30 4013 H 356.637 3.98212 -6.42622 0
M  V30 4014 H 357.905 5.06184 -5.92789 0
M  V30 4015 N 362.134 1.5431 0.320358 0
M  V30 4016 C 363.382 1.72327 1.05583 0
M  V30 4017 C 363.703 0.50149 1.88441 0
M  V30 4018 O 362.973 -0.48448 1.89815 0
M  V30 4019 H 361.553 0.635387 0.3928 0
M  V30 4020 H 364.215 1.91621 0.356019 0
M  V30 4021 H 363.311 2.60426 1.72003 0
M  V30 4022 N 363.613 -0.582584 1.46437 0
M  V30 4023 C 364.546 -1.70633 1.51524 0
M  V30 4024 C 365.524 -1.58349 0.369351 0
M  V30 4025 O 366.708 -1.79563 0.573516 0
M  V30 4026 C 363.835 -3.08687 1.39392 0
M  V30 4027 C 362.881 -3.3949 2.58164 0
M  V30 4028 S 363.714 -3.31548 4.20519 0
M  V30 4029 C 364.87 -4.72139 4.10896 0
M  V30 4030 H 365.103 -1.66058 2.46601 0
M  V30 4031 H 362.636 -0.761337 1.34324 0
M  V30 4032 H 364.594 -3.8833 1.33079 0
M  V30 4033 H 363.255 -3.10751 0.457436 0
M  V30 4034 H 362.448 -4.40071 2.45669 0
M  V30 4035 H 362.05 -2.67415 2.61468 0
M  V30 4036 H 364.342 -5.62527 3.77584 0
M  V30 4037 H 365.285 -4.89692 5.11476 0
M  V30 4038 H 365.693 -4.48995 3.42146 0
M  V30 4039 N 365.091 -1.34144 -0.827227 0
M  V30 4040 C 366.34 -1.25602 -1.5782 0
M  V30 4041 C 366.653 0.173445 -1.94829 0
M  V30 4042 O 367.859 0.380984 -2.68814 0
M  V30 4043 C 366.315 -2.20151 -2.84713 0
M  V30 4044 C 365.923 -3.68331 -2.55021 0
M  V30 4045 C 367.667 -2.20508 -3.62735 0
M  V30 4046 C 365.574 -4.54762 -3.78082 0
M  V30 4047 H 364.504 -0.466573 -0.592306 0
M  V30 4048 H 367.155 -1.59283 -0.911116 0
M  V30 4049 H 365.537 -1.79417 -3.53023 0
M  V30 4050 H 366.711 -4.17577 -1.94849 0
M  V30 4051 H 365.026 -3.7038 -1.90283 0
M  V30 4052 H 367.623 -2.82306 -4.54101 0
M  V30 4053 H 367.966 -1.20322 -3.98533 0
M  V30 4054 H 368.499 -2.59664 -3.01362 0
M  V30 4055 H 365.238 -5.55867 -3.47407 0
M  V30 4056 H 364.758 -4.10254 -4.37552 0
M  V30 4057 H 366.437 -4.69153 -4.45538 0
M  V30 4058 N 366.569 1.04691 -1.17803 0
M  V30 4059 C 367.799 1.81183 -0.992788 0
M  V30 4060 C 368.207 1.8347 0.462098 0
M  V30 4061 O 367.55 1.2643 1.33271 0
M  V30 4062 C 367.612 3.28363 -1.46349 0
M  V30 4063 C 367.276 3.49749 -2.94151 0
M  V30 4064 C 368.273 3.41456 -3.92051 0
M  V30 4065 C 365.958 3.76548 -3.32441 0
M  V30 4066 C 367.952 3.59656 -5.26238 0
M  V30 4067 C 365.639 3.94396 -4.66792 0
M  V30 4068 C 366.637 3.8595 -5.635 0
M  V30 4069 O 366.325 4.03294 -6.9542 0
M  V30 4070 H 366.057 0.577622 -0.351182 0
M  V30 4071 H 368.611 1.32876 -1.5663 0
M  V30 4072 H 366.841 3.77609 -0.833574 0
M  V30 4073 H 368.53 3.86395 -1.24313 0
M  V30 4074 H 369.296 3.20723 -3.63815 0
M  V30 4075 H 365.175 3.82224 -2.57732 0
M  V30 4076 H 368.719 3.52979 -6.01707 0
M  V30 4077 H 364.616 4.14622 -4.94731 0
M  V30 4078 H 365.384 4.2049 -7.02232 0
M  V30 4079 O 368.086 1.10799 1.17498 0
M  V30 4080 H 368.777 0.811108 1.759 0
M  V30 END ATOM
M  V30 BEGIN BOND
M  V30 END BOND
M  V30 END CTAB
M  END
$$$$
