drugbank_target|Q06418 Tyrosine-protein kinase receptor TYRO3 (DB12010)
 OpenBabel12092121143D

  0  0  0     0  0            999 V3000
M  V30 BEGIN CTAB
M  V30 COUNTS 13618 13783 0 0 0
M  V30 BEGIN ATOM
M  V30 1 H -0.908 1.98254 -0.117106 0
M  V30 2 N 0 1.576 0 0
M  V30 3 C 0.933 2.03868 1.02534 0
M  V30 4 C 1.911 0.928543 1.3348 0
M  V30 5 O 3.095 1.19667 1.45644 0
M  V30 6 C 0.222 2.43627 2.35294 0
M  V30 7 C -0.732 3.65373 2.2001 0
M  V30 8 S 0.101 5.13292 1.52614 0
M  V30 9 C 1.257 5.56322 2.86805 0
M  V30 10 H 1.49 2.90518 0.631377 0
M  V30 11 H -0.977 1.52953 0.210867 0
M  V30 12 H 0.981 2.67203 3.11629 0
M  V30 13 H -0.358 1.57376 2.7183 0
M  V30 14 H -1.165 3.90944 3.18086 0
M  V30 15 H -1.563 3.418 1.51819 0
M  V30 16 H 0.729 5.58782 3.83104 0
M  V30 17 H 1.672 6.56266 2.65933 0
M  V30 18 H 2.08 4.83886 2.90714 0
M  V30 19 N 1.4781 -0.272755 1.55222 0
M  V30 20 C 2.4411 -1.32041 1.87344 0
M  V30 21 C 3.4411 -1.42342 0.74803 0
M  V30 22 O 4.6311 -1.41488 1.0162 0
M  V30 23 C 1.7631 -2.70173 2.07893 0
M  V30 24 H 2.9561 -1.04789 2.80997 0
M  V30 25 H 0.5091 -0.51083 1.47717 0
M  V30 26 H 1.2441 -3.02605 1.16622 0
M  V30 27 H 1.0291 -2.64082 2.89833 0
M  V30 28 H 2.5191 -3.45869 2.34017 0
M  V30 29 N 2.9562 -1.48159 -0.537278 0
M  V30 30 C 3.8862 -1.65029 -1.6519 0
M  V30 31 C 4.8672 -0.499281 -1.62607 0
M  V30 32 O 6.0522 -0.730972 -1.79918 0
M  V30 33 C 3.1822 -1.68303 -3.03795 0
M  V30 34 C 2.1362 -2.8283 -3.21234 0
M  V30 35 C 1.4622 -2.71189 -4.60826 0
M  V30 36 C 2.7622 -4.24211 -3.04701 0
M  V30 37 H 4.4562 -2.58341 -1.51328 0
M  V30 38 H 2.0022 -1.24325 -0.726585 0
M  V30 39 H 3.9552 -1.78693 -3.81637 0
M  V30 40 H 2.6792 -0.715635 -3.18663 0
M  V30 41 H 1.3382 -2.71983 -2.45807 0
M  V30 42 H 0.9862 -1.72435 -4.7252 0
M  V30 43 H 0.6862 -3.48035 -4.7344 0
M  V30 44 H 2.2102 -2.83537 -5.40777 0
M  V30 45 H 3.6242 -4.3593 -3.72341 0
M  V30 46 H 2.0212 -5.01998 -3.28813 0
M  V30 47 H 3.0912 -4.41184 -2.01209 0
M  V30 48 N 4.4343 0.785586 -1.36625 0
M  V30 49 C 5.8503 1.08419 -1.17122 0
M  V30 50 C 6.0503 2.015 0.00208491 0
M  V30 51 O 5.1063 2.43551 0.666278 0
M  V30 52 C 6.4193 1.69498 -2.48377 0
M  V30 53 C 7.9673 1.81821 -2.54775 0
M  V30 54 C 8.4423 2.46315 -3.86126 0
M  V30 55 N 9.9333 2.53779 -3.87492 0
M  V30 56 C 10.6683 3.045 -4.85868 0
M  V30 57 N 10.1643 3.55499 -5.94637 0
M  V30 58 N 11.9573 3.03247 -4.73284 0
M  V30 59 H 4.1083 0.167264 -2.1174 0
M  V30 60 H 6.3713 0.13682 -0.938075 0
M  V30 61 H 6.0773 1.08571 -3.34522 0
M  V30 62 H 5.9513 2.6896 -2.64462 0
M  V30 63 H 8.3383 2.41884 -1.69045 0
M  V30 64 H 8.4193 0.811532 -2.42586 0
M  V30 65 H 8.0633 1.86895 -4.72263 0
M  V30 66 H 7.9933 3.47561 -3.95612 0
M  V30 67 H 10.4843 2.17672 -3.08913 0
M  V30 68 H 10.7973 3.92562 -6.65669 0
M  V30 69 H 9.1423 3.5364 -5.98301 0
M  V30 70 H 12.3333 2.62696 -3.87438 0
M  V30 71 H 12.5063 3.42467 -5.50109 0
M  V30 72 N 5.9124 1.20967 1.01018 0
M  V30 73 C 7.3284 0.965905 1.27053 0
M  V30 74 C 7.5284 -0.350785 1.98423 0
M  V30 75 O 6.5844 -1.07773 2.28344 0
M  V30 76 C 7.8974 2.15294 2.09926 0
M  V30 77 C 9.4454 2.19463 2.23171 0
M  V30 78 C 9.9204 3.3767 3.09424 0
M  V30 79 N 11.4114 3.37724 3.17012 0
M  V30 80 C 12.1464 4.25837 3.83993 0
M  V30 81 N 11.6424 5.24138 4.53047 0
M  V30 82 N 13.4354 4.1366 3.80581 0
M  V30 83 H 5.5864 2.0565 0.531194 0
M  V30 84 H 7.8494 0.90024 0.297106 0
M  V30 85 H 7.5554 3.10684 1.64828 0
M  V30 86 H 7.4294 2.13923 3.10672 0
M  V30 87 H 9.8164 1.24632 2.6749 0
M  V30 88 H 9.8974 2.2488 1.21912 0
M  V30 89 H 9.5414 4.32791 2.65808 0
M  V30 90 H 9.4714 3.29491 4.10784 0
M  V30 91 H 11.9624 2.6658 2.6785 0
M  V30 92 H 12.2754 5.87684 5.01844 0
M  V30 93 H 10.6204 5.28068 4.5185 0
M  V30 94 H 13.8114 3.36127 3.25785 0
M  V30 95 H 13.9844 4.82538 4.32505 0
M  V30 96 N 7.3905 -1.2043 1.01659 0
M  V30 97 C 8.6155 -1.94318 0.724942 0
M  V30 98 C 9.0405 -1.74266 -0.708034 0
M  V30 99 O 8.3985 -1.03694 -1.48719 0
M  V30 100 C 8.4465 -3.44486 1.06591 0
M  V30 101 O 7.5505 -4.12017 0.177599 0
M  V30 102 H 6.8915 -0.60708 0.26898 0
M  V30 103 H 9.4215 -1.52861 1.35995 0
M  V30 104 H 9.4315 -3.95106 1.01762 0
M  V30 105 H 8.1065 -3.58404 2.10997 0
M  V30 106 H 6.6835 -3.71821 0.283421 0
M  V30 107 N 8.8686 -0.792821 -1.36206 0
M  V30 108 C 9.8016 -0.139422 -2.27774 0
M  V30 109 C 10.7796 0.68649 -1.47398 0
M  V30 110 O 11.9636 0.656738 -1.7669 0
M  V30 111 C 9.0906 0.807947 -3.28922 0
M  V30 112 C 8.1366 0.0633999 -4.26453 0
M  V30 113 S 8.9696 -1.26319 -5.20388 0
M  V30 114 C 10.1256 -0.31991 -6.25082 0
M  V30 115 H 10.3586 -0.915809 -2.82843 0
M  V30 116 H 7.8916 -0.587203 -1.42798 0
M  V30 117 H 9.8496 1.34908 -3.87699 0
M  V30 118 H 8.5106 1.55761 -2.72759 0
M  V30 119 H 7.7036 0.782386 -4.9789 0
M  V30 120 H 7.3056 -0.407352 -3.71775 0
M  V30 121 H 9.5976 0.499985 -6.75653 0
M  V30 122 H 10.5406 -1.00307 -7.00959 0
M  V30 123 H 10.9486 0.0782694 -5.64446 0
M  V30 124 N 10.3467 1.47872 -0.545128 0
M  V30 125 C 11.5947 2.02093 -0.016553 0
M  V30 126 C 11.9157 1.42305 1.3332 0
M  V30 127 O 11.1857 0.593853 1.86682 0
M  V30 128 H 9.7657 0.746993 -0.00313038 0
M  V30 129 H 12.4277 1.81414 -0.712397 0
M  V30 130 H 11.5237 3.11996 0.0805422 0
M  V30 131 N 11.8248 0.280983 1.55075 0
M  V30 132 C 13.2408 -0.0729964 1.59433 0
M  V30 133 C 13.4408 -1.5411 1.29817 0
M  V30 134 O 12.4968 -2.29086 1.06187 0
M  V30 135 C 13.8098 0.306921 2.9913 0
M  V30 136 C 15.3578 0.254023 3.11968 0
M  V30 137 C 15.8328 0.608467 4.5394 0
M  V30 138 N 17.3238 0.560241 4.59799 0
M  V30 139 C 18.0588 0.80722 5.6769 0
M  V30 140 N 17.5548 1.11912 6.83701 0
M  V30 141 N 19.3478 0.735623 5.57266 0
M  V30 142 H 11.4988 1.238 1.7259 0
M  V30 143 H 13.7618 0.500547 0.805082 0
M  V30 144 H 13.4678 1.32816 3.25657 0
M  V30 145 H 13.3418 -0.349363 3.75579 0
M  V30 146 H 15.7288 -0.75794 2.852 0
M  V30 147 H 15.8098 0.944649 2.37718 0
M  V30 148 H 15.4538 1.61814 4.81434 0
M  V30 149 H 15.3838 -0.104013 5.26497 0
M  V30 150 H 17.8748 0.329288 3.76463 0
M  V30 151 H 18.1878 1.29409 7.61888 0
M  V30 152 H 16.5328 1.15695 6.85303 0
M  V30 153 H 19.7238 0.491752 4.6551 0
M  V30 154 H 19.8968 0.931482 6.4127 0
M  V30 155 N 13.3029 -1.57598 0.00835791 0
M  V30 156 C 14.7139 -1.7892 -0.53333 0
M  V30 157 C 15.0649 -0.916609 -1.73473 0
M  V30 158 O 14.1899 -0.121336 -2.1606 0
M  V30 159 C 14.7849 -3.24488 -0.974313 0
M  V30 160 C 13.3439 -3.46878 -1.46125 0
M  V30 161 C 12.4909 -2.74157 -0.416302 0
M  V30 162 H 15.4419 -1.56958 0.234495 0
M  V30 163 H 15.4629 -3.3306 -1.83988 0
M  V30 164 H 14.9749 -3.87972 -0.099718 0
M  V30 165 H 13.0759 -2.8862 -2.35646 0
M  V30 166 H 13.1889 -4.55572 -1.48295 0
M  V30 167 H 11.5529 -2.39022 -0.87981 0
M  V30 168 H 12.3359 -3.40345 0.44947 0
M  V30 169 N 14.781 0.264519 -1.55364 0
M  V30 170 C 16.029 0.993021 -1.76021 0
M  V30 171 C 16.35 1.86511 -0.569099 0
M  V30 172 O 15.62 1.91438 0.415735 0
M  V30 173 H 14.2 0.369639 -0.649135 0
M  V30 174 H 16.862 0.286707 -1.9278 0
M  V30 175 H 15.958 1.62502 -2.66457 0
M  V30 176 N 16.2591 1.48442 0.529413 0
M  V30 177 C 17.1891 1.65902 1.64313 0
M  V30 178 C 18.1701 0.507897 1.6234 0
M  V30 179 O 19.3551 0.740503 1.79528 0
M  V30 180 C 16.4851 1.69911 3.02898 0
M  V30 181 C 15.4391 2.8453 3.19729 0
M  V30 182 C 14.7651 2.73629 4.59381 0
M  V30 183 C 16.0651 4.25821 3.02447 0
M  V30 184 H 17.7591 2.5914 1.49955 0
M  V30 185 H 15.3051 1.24709 0.719982 0
M  V30 186 H 17.2581 1.80715 3.80684 0
M  V30 187 H 15.9821 0.732524 3.18279 0
M  V30 188 H 14.6411 2.73283 2.44361 0
M  V30 189 H 14.2891 1.74938 4.71599 0
M  V30 190 H 13.9891 3.50541 4.71588 0
M  V30 191 H 15.5131 2.86401 5.39265 0
M  V30 192 H 16.9271 4.37898 3.70024 0
M  V30 193 H 15.3241 5.03735 3.26146 0
M  V30 194 H 16.3941 4.42244 1.98867 0
M  V30 195 N 17.7372 -0.778329 1.37039 0
M  V30 196 C 19.1482 -1.35421 1.28523 0
M  V30 197 C 19.4992 -1.96075 -0.0700901 0
M  V30 198 O 18.6242 -1.93352 -0.971801 0
M  V30 199 C 19.2192 -2.46211 2.32735 0
M  V30 200 C 17.7782 -2.99585 2.27873 0
M  V30 201 C 16.9252 -1.72748 2.16918 0
M  V30 202 H 19.8762 -0.5791 1.47757 0
M  V30 203 H 19.8972 -3.2552 1.9702 0
M  V30 204 H 19.4092 -2.02036 3.31365 0
M  V30 205 H 17.5102 -3.48152 1.32745 0
M  V30 206 H 17.6232 -3.55646 3.21018 0
M  V30 207 H 15.9872 -1.95416 1.63354 0
M  V30 208 H 16.7702 -1.30686 3.17452 0
M  V30 209 N 19.2153 -1.21501 -1.00376 0
M  V30 210 C 20.6263 -1.03146 -1.55621 0
M  V30 211 C 20.9773 0.408375 -1.91903 0
M  V30 212 O 20.1023 1.29177 -1.73616 0
M  V30 213 C 20.6973 -1.86612 -2.82775 0
M  V30 214 C 19.2563 -1.72586 -3.34501 0
M  V30 215 C 18.4033 -1.83747 -2.07683 0
M  V30 216 H 21.3543 -1.35505 -0.826081 0
M  V30 217 H 21.3753 -1.3771 -3.54706 0
M  V30 218 H 20.8873 -2.91399 -2.56336 0
M  V30 219 H 18.9883 -0.704877 -3.65872 0
M  V30 220 H 19.1013 -2.54623 -4.05837 0
M  V30 221 H 17.4653 -1.27069 -2.20739 0
M  V30 222 H 18.2483 -2.90044 -1.83655 0
M  V30 223 N 20.6934 1.19889 -1.02296 0
M  V30 224 C 21.6234 2.25141 -0.619174 0
M  V30 225 C 22.6044 1.66051 0.368915 0
M  V30 226 O 23.7894 1.92546 0.252941 0
M  V30 227 C 20.9194 3.4728 0.0368783 0
M  V30 228 C 19.8734 4.19005 -0.872865 0
M  V30 229 C 19.1994 5.34637 -0.0822402 0
M  V30 230 C 20.4994 4.74452 -2.18387 0
M  V30 231 H 22.1934 2.59171 -1.49903 0
M  V30 232 H 19.7394 1.24579 -0.722222 0
M  V30 233 H 21.6924 4.20098 0.330958 0
M  V30 234 H 20.4164 3.12433 0.95149 0
M  V30 235 H 19.0754 3.48061 -1.15105 0
M  V30 236 H 18.7234 4.96034 0.83422 0
M  V30 237 H 18.4234 5.83557 -0.688149 0
M  V30 238 H 19.9474 6.10255 0.205238 0
M  V30 239 H 21.3614 5.39055 -1.95172 0
M  V30 240 H 19.7584 5.33834 -2.74119 0
M  V30 241 H 20.8284 3.92844 -2.84257 0
M  V30 242 N 22.1715 0.800033 1.35784 0
M  V30 243 C 23.5825 0.439142 1.81462 0
M  V30 244 C 23.9335 -1.03813 1.66485 0
M  V30 245 O 23.0585 -1.80626 1.19177 0
M  V30 246 C 23.6535 0.790314 3.29453 0
M  V30 247 C 22.2125 0.482111 3.733 0
M  V30 248 C 21.3595 1.01938 2.57883 0
M  V30 249 H 24.3105 0.992254 1.23855 0
M  V30 250 H 24.3315 0.0853677 3.80404 0
M  V30 251 H 23.8435 1.86554 3.40322 0
M  V30 252 H 21.9445 -0.584652 3.67984 0
M  V30 253 H 22.0575 1.01015 4.6833 0
M  V30 254 H 20.4215 0.442043 2.50835 0
M  V30 255 H 21.2045 2.10059 2.71533 0
M  V30 256 N 23.6496 -1.47581 0.552962 0
M  V30 257 C 24.5796 -2.32762 -0.185451 0
M  V30 258 C 25.5606 -1.43527 -0.912905 0
M  V30 259 O 26.7456 -1.72388 -0.894201 0
M  V30 260 C 23.8756 -3.25219 -1.21859 0
M  V30 261 C 22.8296 -4.23661 -0.607864 0
M  V30 262 C 22.1556 -5.05413 -1.74533 0
M  V30 263 C 23.4556 -5.20481 0.435582 0
M  V30 264 H 25.1496 -2.94749 0.525684 0
M  V30 265 H 22.6956 -1.41738 0.254251 0
M  V30 266 H 24.6486 -3.8365 -1.7433 0
M  V30 267 H 23.3726 -2.61279 -1.95961 0
M  V30 268 H 22.0316 -3.66451 -0.104489 0
M  V30 269 H 21.6796 -4.3788 -2.47529 0
M  V30 270 H 21.3796 -5.72059 -1.34249 0
M  V30 271 H 22.9036 -5.66701 -2.27338 0
M  V30 272 H 24.3176 -5.733 -0.00290157 0
M  V30 273 H 22.7146 -5.95305 0.757067 0
M  V30 274 H 23.7846 -4.66217 1.33303 0
M  V30 275 N 25.1277 -0.289203 -1.54924 0
M  V30 276 C 26.5387 0.205791 -1.85562 0
M  V30 277 C 26.8897 1.54351 -1.2112 0
M  V30 278 O 26.0147 2.10435 -0.504601 0
M  V30 279 C 26.6097 0.380177 -3.3666 0
M  V30 280 C 25.1687 0.819395 -3.67373 0
M  V30 281 C 24.3157 -0.079159 -2.77187 0
M  V30 282 H 27.2667 -0.510577 -1.50262 0
M  V30 283 H 27.2877 1.21659 -3.60526 0
M  V30 284 H 26.7997 -0.593589 -3.83534 0
M  V30 285 H 24.9007 1.80413 -3.26009 0
M  V30 286 H 25.0137 0.646957 -4.74712 0
M  V30 287 H 23.3777 0.439565 -2.50878 0
M  V30 288 H 24.1607 -1.04906 -3.26878 0
M  V30 289 N 26.6058 1.57591 -0.0167156 0
M  V30 290 C 28.0168 1.79201 0.523834 0
M  V30 291 C 28.3678 0.925796 1.72984 0
M  V30 292 O 27.4928 0.132792 2.15992 0
M  V30 293 C 28.0878 3.25 0.957091 0
M  V30 294 C 26.6468 3.47648 1.44283 0
M  V30 295 C 25.7938 2.74374 0.401757 0
M  V30 296 H 28.7448 1.56831 -0.242816 0
M  V30 297 H 28.7658 3.34031 1.82219 0
M  V30 298 H 28.2778 3.88019 0.0791415 0
M  V30 299 H 26.3788 2.89866 2.34113 0
M  V30 300 H 26.4918 4.56352 1.45877 0
M  V30 301 H 24.8558 2.39485 0.867121 0
M  V30 302 H 25.6388 3.40102 -0.467513 0
M  V30 303 N 28.0839 -0.256276 1.55502 0
M  V30 304 C 29.4949 -0.826068 1.67431 0
M  V30 305 C 29.8459 -1.86396 0.612446 0
M  V30 306 O 28.9709 -2.15031 -0.243025 0
M  V30 307 C 29.5659 -1.50512 3.03532 0
M  V30 308 C 28.1249 -2.02273 3.17431 0
M  V30 309 C 27.2719 -0.870548 2.63281 0
M  V30 310 H 30.2229 -0.0322728 1.58667 0
M  V30 311 H 30.2439 -2.37279 2.97454 0
M  V30 312 H 29.7559 -0.749484 3.80794 0
M  V30 313 H 27.8569 -2.80746 2.44974 0
M  V30 314 H 27.9699 -2.22655 4.24219 0
M  V30 315 H 26.3339 -1.26851 2.20864 0
M  V30 316 H 27.1169 -0.128149 3.43061 0
M  V30 317 N 29.562 -1.4872 -0.521534 0
M  V30 318 C 30.973 -1.50607 -1.10337 0
M  V30 319 C 31.324 -0.280612 -1.94183 0
M  V30 320 O 30.449 0.611507 -2.0758 0
M  V30 321 C 31.044 -2.72903 -2.00772 0
M  V30 322 C 29.603 -2.77634 -2.54158 0
M  V30 323 C 28.75 -2.44241 -1.31307 0
M  V30 324 H 31.701 -1.55714 -0.306388 0
M  V30 325 H 31.722 -2.519 -2.85178 0
M  V30 326 H 31.234 -3.62077 -1.39721 0
M  V30 327 H 29.335 -1.92689 -3.18907 0
M  V30 328 H 29.448 -3.79283 -2.92714 0
M  V30 329 H 27.812 -1.95577 -1.63161 0
M  V30 330 H 28.595 -3.35666 -0.719943 0
M  V30 331 N 31.0401 0.771051 -1.3745 0
M  V30 332 C 32.4561 1.07171 -1.18265 0
M  V30 333 C 32.6561 2.01491 -0.019287 0
M  V30 334 O 31.7121 2.44244 0.640408 0
M  V30 335 C 33.0251 1.66854 -2.50161 0
M  V30 336 C 34.5731 1.79109 -2.56689 0
M  V30 337 C 35.0481 2.42205 -3.88717 0
M  V30 338 N 36.5391 2.49655 -3.90162 0
M  V30 339 C 37.2741 2.9933 -4.8907 0
M  V30 340 N 36.7701 3.49172 -5.98374 0
M  V30 341 N 38.5631 2.9821 -4.76474 0
M  V30 342 H 30.7141 0.144796 -2.11906 0
M  V30 343 H 32.9771 0.126863 -0.939473 0
M  V30 344 H 32.6831 1.05017 -3.35655 0
M  V30 345 H 32.5571 2.6614 -2.673 0
M  V30 346 H 34.9441 2.40077 -1.71601 0
M  V30 347 H 35.0251 0.785757 -2.43433 0
M  V30 348 H 34.6691 1.81875 -4.74219 0
M  V30 349 H 34.5991 3.43345 -3.99276 0
M  V30 350 H 37.0901 2.14383 -3.11205 0
M  V30 351 H 37.4031 3.8548 -6.69795 0
M  V30 352 H 35.7481 3.47275 -6.02018 0
M  V30 353 H 38.9391 2.58572 -3.90203 0
M  V30 354 H 39.1121 3.36613 -5.53711 0
M  V30 355 N 32.5182 1.22032 0.997298 0
M  V30 356 C 33.4482 1.01065 2.10495 0
M  V30 357 C 34.4292 -0.0669542 1.69968 0
M  V30 358 O 35.6142 0.0943987 1.9397 0
M  V30 359 C 32.7442 0.582874 3.42374 0
M  V30 360 C 31.6982 1.60592 3.96729 0
M  V30 361 C 31.0242 1.03412 5.24605 0
M  V30 362 C 32.3242 2.99478 4.27914 0
M  V30 363 H 34.0182 1.93708 2.28292 0
M  V30 364 H 31.5642 0.932761 1.09707 0
M  V30 365 H 33.5172 0.423332 4.19268 0
M  V30 366 H 32.2412 -0.379213 3.24391 0
M  V30 367 H 30.9002 1.75316 3.21963 0
M  V30 368 H 30.5482 0.063518 5.0296 0
M  V30 369 H 30.2482 1.71754 5.61938 0
M  V30 370 H 31.7722 0.886066 6.04137 0
M  V30 371 H 33.1862 2.88153 4.95622 0
M  V30 372 H 31.5832 3.64903 4.76409 0
M  V30 373 H 32.6532 3.49742 3.3587 0
M  V30 374 N 33.9963 -1.19345 1.0293 0
M  V30 375 C 35.2443 -1.88665 0.724574 0
M  V30 376 C 35.5653 -1.80036 -0.749144 0
M  V30 377 O 34.8353 -1.2111 -1.53978 0
M  V30 378 H 33.4153 -0.698406 0.265025 0
M  V30 379 H 36.0773 -1.44885 1.30362 0
M  V30 380 H 35.1733 -2.94987 1.01926 0
M  V30 381 N 35.4744 -0.807222 -1.35358 0
M  V30 382 C 36.4044 -0.232509 -2.3234 0
M  V30 383 C 37.3854 0.642386 -1.57504 0
M  V30 384 O 38.5704 0.572526 -1.85569 0
M  V30 385 C 35.7004 0.619238 -3.41735 0
M  V30 386 C 34.6544 -0.157215 -4.27711 0
M  V30 387 C 33.9804 0.816273 -5.28433 0
M  V30 388 C 35.2804 -1.35656 -5.04376 0
M  V30 389 H 36.9744 -1.04276 -2.80654 0
M  V30 390 H 34.5204 -0.50288 -1.34934 0
M  V30 391 H 36.4734 1.03137 -4.08584 0
M  V30 392 H 35.1974 1.46239 -2.92031 0
M  V30 393 H 33.8564 -0.550525 -3.62443 0
M  V30 394 H 33.5044 1.65494 -4.74996 0
M  V30 395 H 33.2044 0.301067 -5.86828 0
M  V30 396 H 34.7284 1.22659 -5.98153 0
M  V30 397 H 36.1424 -1.01927 -5.64166 0
M  V30 398 H 34.5394 -1.8063 -5.7227 0
M  V30 399 H 35.6094 -2.14288 -4.34981 0
M  V30 400 N 36.9525 1.47285 -0.560781 0
M  V30 401 C 37.8825 2.32857 0.173105 0
M  V30 402 C 38.8635 1.44009 0.905281 0
M  V30 403 O 40.0485 1.7286 0.885046 0
M  V30 404 C 37.1785 3.25861 1.20133 0
M  V30 405 C 36.1325 4.23978 0.585388 0
M  V30 406 C 35.4585 5.06332 1.7185 0
M  V30 407 C 36.7585 5.20242 -0.463178 0
M  V30 408 H 38.4525 2.94466 -0.541307 0
M  V30 409 H 35.9985 1.41601 -0.261764 0
M  V30 410 H 37.9515 3.84569 1.72293 0
M  V30 411 H 36.6755 2.62315 1.94573 0
M  V30 412 H 35.3345 3.66501 0.085054 0
M  V30 413 H 34.9825 4.39186 2.45203 0
M  V30 414 H 34.6825 5.72762 1.31213 0
M  V30 415 H 36.2065 5.67899 2.24329 0
M  V30 416 H 37.6205 5.73293 -0.027502 0
M  V30 417 H 36.0175 5.94896 -0.788627 0
M  V30 418 H 37.0875 4.65504 -1.35773 0
M  V30 419 N 38.4306 0.297415 1.54768 0
M  V30 420 C 39.3606 -0.573494 2.26348 0
M  V30 421 C 40.3416 -1.14085 1.26169 0
M  V30 422 O 41.5266 -1.17086 1.54934 0
M  V30 423 C 38.6566 -1.74716 3.00153 0
M  V30 424 C 37.6106 -1.31032 4.07449 0
M  V30 425 C 36.9366 -2.56887 4.68949 0
M  V30 426 C 38.2366 -0.444183 5.20408 0
M  V30 427 H 39.9306 0.0235131 2.99391 0
M  V30 428 H 37.4766 0.0127488 1.43994 0
M  V30 429 H 39.4296 -2.3625 3.48947 0
M  V30 430 H 38.1536 -2.37035 2.24682 0
M  V30 431 H 36.8126 -0.718066 3.59499 0
M  V30 432 H 36.4606 -3.17512 3.90122 0
M  V30 433 H 36.1606 -2.2836 5.41411 0
M  V30 434 H 37.6846 -3.19229 5.20505 0
M  V30 435 H 39.0986 -0.9651 5.65118 0
M  V30 436 H 37.4956 -0.252846 5.99567 0
M  V30 437 H 38.5656 0.531609 4.81977 0
M  V30 438 N 39.9087 -1.5758 0.0250728 0
M  V30 439 C 40.8717 -2.08896 -0.943139 0
M  V30 440 C 41.8717 -1.00321 -1.25668 0
M  V30 441 O 43.0617 -1.26495 -1.19769 0
M  V30 442 C 40.1937 -2.55143 -2.26086 0
M  V30 443 H 41.3867 -2.95723 -0.498775 0
M  V30 444 H 38.9397 -1.54703 -0.222888 0
M  V30 445 H 39.6747 -1.71633 -2.75159 0
M  V30 446 H 39.4597 -3.34461 -2.04641 0
M  V30 447 H 40.9497 -2.95083 -2.95492 0
M  V30 448 N 41.3868 0.248026 -1.55636 0
M  V30 449 C 42.3498 1.29044 -1.89421 0
M  V30 450 C 43.3498 1.41134 -0.770581 0
M  V30 451 O 44.5398 1.39854 -1.03858 0
M  V30 452 C 41.6718 2.66831 -2.12165 0
M  V30 453 H 42.8648 1.00305 -2.82629 0
M  V30 454 H 40.4178 0.487265 -1.48511 0
M  V30 455 H 41.1528 3.00711 -1.21422 0
M  V30 456 H 40.9378 2.59438 -2.93997 0
M  V30 457 H 42.4278 3.42103 -2.3949 0
M  V30 458 N 42.8649 1.48995 0.513639 0
M  V30 459 C 43.7949 1.67636 1.62544 0
M  V30 460 C 44.7759 0.525087 1.61793 0
M  V30 461 O 45.9609 0.759502 1.78732 0
M  V30 462 C 43.0909 1.73114 3.01079 0
M  V30 463 C 42.0449 2.87905 3.16693 0
M  V30 464 C 41.3709 2.78486 4.56453 0
M  V30 465 C 42.6709 4.29005 2.97913 0
M  V30 466 H 44.3649 2.60716 1.47198 0
M  V30 467 H 41.9109 1.25465 0.706714 0
M  V30 468 H 43.8639 1.84742 3.78746 0
M  V30 469 H 42.5879 0.766241 3.17484 0
M  V30 470 H 41.2469 2.75859 2.41448 0
M  V30 471 H 40.8949 1.7993 4.69717 0
M  V30 472 H 40.5949 3.55523 4.67843 0
M  V30 473 H 42.1189 2.92104 5.36197 0
M  V30 474 H 43.5329 4.41798 3.65359 0
M  V30 475 H 41.9299 5.07166 3.20785 0
M  V30 476 H 42.9999 4.44329 1.94165 0
M  V30 477 N 44.343 -0.763751 1.37857 0
M  V30 478 C 45.306 -1.85889 1.34081 0
M  V30 479 C 46.306 -1.58949 0.243277 0
M  V30 480 O 47.496 -1.66882 0.499589 0
M  V30 481 C 44.628 -3.23176 1.08489 0
M  V30 482 H 45.821 -1.90648 2.31502 0
M  V30 483 H 43.374 -0.964367 1.23003 0
M  V30 484 H 44.109 -3.24091 0.116318 0
M  V30 485 H 43.894 -3.44124 1.8794 0
M  V30 486 H 45.384 -4.03254 1.08517 0
M  V30 487 N 45.8211 -1.22559 -0.990812 0
M  V30 488 C 47.0461 -1.07862 -1.77145 0
M  V30 489 C 47.4711 0.366447 -1.84496 0
M  V30 490 O 46.8291 1.26478 -1.29896 0
M  V30 491 C 46.8771 -1.69686 -3.18181 0
M  V30 492 O 45.9811 -0.951946 -4.01263 0
M  V30 493 H 45.3221 -0.378712 -0.545411 0
M  V30 494 H 47.8521 -1.62399 -1.2445 0
M  V30 495 H 47.8621 -1.74496 -3.68802 0
M  V30 496 H 46.5371 -2.74841 -3.12146 0
M  V30 497 H 45.1141 -0.980011 -3.59792 0
M  V30 498 N 47.2992 1.18797 -1.03562 0
M  V30 499 C 48.2292 2.24472 -0.643019 0
M  V30 500 C 49.2102 1.66433 0.351283 0
M  V30 501 O 50.3952 1.92803 0.232505 0
M  V30 502 C 47.5252 3.473 4.24935e-05 0
M  V30 503 C 46.4792 4.18055 -0.917257 0
M  V30 504 C 45.8052 5.34519 -0.138941 0
M  V30 505 C 47.1052 4.72109 -2.23407 0
M  V30 506 H 48.7992 2.57566 -1.52643 0
M  V30 507 H 46.3452 1.23806 -0.735394 0
M  V30 508 H 48.2982 4.20426 0.286383 0
M  V30 509 H 47.0222 3.13424 0.918299 0
M  V30 510 H 45.6812 3.46821 -1.1879 0
M  V30 511 H 45.3292 4.96891 0.781562 0
M  V30 512 H 45.0292 5.82794 -0.750005 0
M  V30 513 H 46.5532 6.10438 0.1405 0
M  V30 514 H 47.9672 5.36955 -2.00879 0
M  V30 515 H 46.3642 5.30897 -2.79765 0
M  V30 516 H 47.4342 3.89807 -2.88407 0
M  V30 517 N 48.7773 0.814389 1.34928 0
M  V30 518 C 49.7073 0.244827 2.32213 0
M  V30 519 C 50.6883 -0.634024 1.57842 0
M  V30 520 O 51.8733 -0.562676 1.8587 0
M  V30 521 C 49.0033 -0.601106 3.42058 0
M  V30 522 C 47.9573 0.179896 4.27622 0
M  V30 523 C 47.2833 -0.788237 5.28858 0
M  V30 524 C 48.5833 1.38329 5.03649 0
M  V30 525 H 50.2773 1.05763 2.80097 0
M  V30 526 H 47.8233 0.510029 1.34665 0
M  V30 527 H 49.7763 -1.00968 4.09125 0
M  V30 528 H 48.5003 -1.44688 2.92802 0
M  V30 529 H 47.1593 0.569739 3.62146 0
M  V30 530 H 46.8073 -1.62973 4.75866 0
M  V30 531 H 46.5073 -0.269942 5.8698 0
M  V30 532 H 48.0313 -1.19485 5.98795 0
M  V30 533 H 49.4453 1.04918 5.63618 0
M  V30 534 H 47.8423 1.83662 5.71304 0
M  V30 535 H 48.9123 2.16592 4.33839 0
M  V30 536 N 50.2554 -1.46986 0.568584 0
M  V30 537 C 51.1854 -2.32946 -0.160753 0
M  V30 538 C 52.1664 -1.44487 -0.897631 0
M  V30 539 O 53.3514 -1.73327 -0.875867 0
M  V30 540 C 50.4814 -3.26494 -1.18403 0
M  V30 541 C 49.4354 -4.24282 -0.562895 0
M  V30 542 C 48.7614 -5.07236 -1.69163 0
M  V30 543 C 50.0614 -5.19989 0.490761 0
M  V30 544 H 51.7554 -2.94175 0.556916 0
M  V30 545 H 49.3014 -1.4146 0.26927 0
M  V30 546 H 51.2544 -3.85477 -1.70251 0
M  V30 547 H 49.9784 -2.63343 -1.93179 0
M  V30 548 H 48.6374 -3.66541 -0.0656164 0
M  V30 549 H 48.2854 -4.4048 -2.42871 0
M  V30 550 H 47.9854 -5.7345 -1.28174 0
M  V30 551 H 49.5094 -5.6908 -2.21314 0
M  V30 552 H 50.9234 -5.73271 0.0579047 0
M  V30 553 H 49.3204 -5.94469 0.820165 0
M  V30 554 H 50.3904 -4.64777 1.3824 0
M  V30 555 N 51.7335 -0.305618 -1.54608 0
M  V30 556 C 53.1445 0.186098 -1.8577 0
M  V30 557 C 53.4955 1.53058 -1.22751 0
M  V30 558 O 52.6205 2.09888 -0.526893 0
M  V30 559 C 53.2155 0.344449 -3.37044 0
M  V30 560 C 51.7745 0.780384 -3.68221 0
M  V30 561 C 50.9215 -0.108554 -2.77087 0
M  V30 562 H 53.8725 -0.526485 -1.49712 0
M  V30 563 H 53.8935 1.17828 -3.61796 0
M  V30 564 H 53.4055 -0.634235 -3.82883 0
M  V30 565 H 51.5065 1.76945 -3.27904 0
M  V30 566 H 51.6195 0.596572 -4.75371 0
M  V30 567 H 49.9835 0.412931 -2.5133 0
M  V30 568 H 50.7665 -1.08368 -3.25747 0
M  V30 569 N 53.2116 1.57565 -0.0334293 0
M  V30 570 C 54.1216 2.13943 0.962572 0
M  V30 571 C 55.1376 1.09276 1.35406 0
M  V30 572 O 56.3136 1.41355 1.4346 0
M  V30 573 C 53.3786 2.65887 2.22497 0
M  V30 574 C 52.4396 3.85286 1.8935 0
M  V30 575 C 51.6726 4.34743 3.09571 0
M  V30 576 O 51.8956 3.83352 4.22371 0
M  V30 577 O 50.8296 5.26538 2.91618 0
M  V30 578 H 54.6556 2.99333 0.513169 0
M  V30 579 H 52.2406 1.4822 0.18743 0
M  V30 580 H 54.1226 2.99346 2.96598 0
M  V30 581 H 52.7976 1.83578 2.6661 0
M  V30 582 H 51.7046 3.56746 1.1262 0
M  V30 583 H 53.0376 4.68771 1.5005 0
M  V30 584 N 54.6897 -0.239769 1.55765 0
M  V30 585 C 55.9147 -0.988373 1.82335 0
M  V30 586 C 56.3397 -1.77886 0.611421 0
M  V30 587 O 55.6977 -1.75889 -0.439639 0
M  V30 588 C 55.7457 -1.89627 3.06715 0
M  V30 589 O 54.8497 -2.98904 2.84131 0
M  V30 590 H 54.1907 -0.280858 0.601677 0
M  V30 591 H 56.7207 -0.258597 2.02959 0
M  V30 592 H 56.7307 -2.30957 3.36338 0
M  V30 593 H 55.4057 -1.31511 3.9456 0
M  V30 594 H 53.9827 -2.61651 2.65694 0
M  V30 595 N 56.1678 -1.49265 -0.50573 0
M  V30 596 C 57.1308 -1.65075 -1.59006 0
M  V30 597 C 58.1308 -0.522768 -1.52065 0
M  V30 598 O 59.3208 -0.789117 -1.55302 0
M  V30 599 C 56.4528 -1.64369 -2.98656 0
M  V30 600 H 57.6458 -2.61784 -1.46319 0
M  V30 601 H 55.1988 -1.38226 -0.729616 0
M  V30 602 H 55.9338 -0.692272 -3.16825 0
M  V30 603 H 55.7188 -2.46282 -3.05103 0
M  V30 604 H 57.2088 -1.78674 -3.77446 0
M  V30 605 N 57.6459 0.756429 -1.3826 0
M  V30 606 C 58.6089 1.85176 -1.35065 0
M  V30 607 C 59.6089 1.58818 -0.251703 0
M  V30 608 O 60.7989 1.66615 -0.508433 0
M  V30 609 C 57.9309 3.22596 -1.10201 0
M  V30 610 H 59.1239 1.89417 -2.3251 0
M  V30 611 H 56.6769 0.95783 -1.23512 0
M  V30 612 H 57.4119 3.24025 -0.133504 0
M  V30 613 H 57.1969 3.43122 -1.89762 0
M  V30 614 H 58.6869 4.02673 -1.10654 0
M  V30 615 N 59.124 1.23083 0.984299 0
M  V30 616 C 60.087 1.00979 2.05757 0
M  V30 617 C 61.087 -0.0269573 1.60777 0
M  V30 618 O 62.277 0.212403 1.729 0
M  V30 619 C 59.409 0.527072 3.36801 0
M  V30 620 H 60.602 1.9622 2.26799 0
M  V30 621 H 58.155 1.05072 1.15714 0
M  V30 622 H 58.89 -0.429294 3.21446 0
M  V30 623 H 58.675 1.27515 3.70786 0
M  V30 624 H 60.165 0.392942 4.15747 0
M  V30 625 N 60.6021 -1.18246 1.0419 0
M  V30 626 C 61.8501 -1.87886 0.744543 0
M  V30 627 C 62.1711 -1.8082 -0.730006 0
M  V30 628 O 61.4411 -1.22736 -1.52685 0
M  V30 629 H 60.0211 -0.695556 0.272417 0
M  V30 630 H 62.6831 -1.43494 1.31892 0
M  V30 631 H 61.7791 -2.9389 1.05049 0
M  V30 632 N 62.0802 -0.821533 -1.34494 0
M  V30 633 C 63.0102 -0.257138 -2.3208 0
M  V30 634 C 63.9912 0.625645 -1.58176 0
M  V30 635 O 65.1762 0.552811 -1.86166 0
M  V30 636 C 62.3062 0.582958 -3.42372 0
M  V30 637 C 61.2602 -0.202571 -4.2752 0
M  V30 638 C 60.5862 0.760179 -5.29269 0
M  V30 639 C 61.8862 -1.40998 -5.02908 0
M  V30 640 H 63.5802 -1.07247 -2.79532 0
M  V30 641 H 61.1262 -0.517163 -1.34393 0
M  V30 642 H 63.0792 0.987972 -4.09655 0
M  V30 643 H 61.8032 1.43133 -2.93565 0
M  V30 644 H 60.4622 -0.588936 -3.61838 0
M  V30 645 H 60.1102 1.60447 -4.76724 0
M  V30 646 H 59.8102 0.238809 -5.87115 0
M  V30 647 H 61.3342 1.16308 -5.9942 0
M  V30 648 H 62.7482 -1.07905 -5.63054 0
M  V30 649 H 61.1452 -1.86689 -5.70322 0
M  V30 650 H 62.2152 -2.1889 -4.32684 0
M  V30 651 N 63.5583 1.46682 -0.576371 0
M  V30 652 C 64.5053 2.30241 0.160499 0
M  V30 653 C 65.4753 1.40233 0.890162 0
M  V30 654 O 66.6603 1.69186 0.882084 0
M  V30 655 C 63.8003 3.24578 1.1723 0
M  V30 656 C 62.9133 4.29684 0.446736 0
M  V30 657 C 62.0483 5.11154 1.44551 0
M  V30 658 C 61.0873 6.08015 0.70599 0
M  V30 659 N 60.2243 6.82376 1.65251 0
M  V30 660 H 65.0643 2.92727 -0.558127 0
M  V30 661 H 62.6013 1.44272 -0.287056 0
M  V30 662 H 64.5593 3.77711 1.77172 0
M  V30 663 H 63.1893 2.63916 1.85872 0
M  V30 664 H 62.2413 3.79458 -0.267594 0
M  V30 665 H 63.5533 4.98626 -0.131686 0
M  V30 666 H 62.7073 5.68533 2.11791 0
M  V30 667 H 61.4463 4.42158 2.05786 0
M  V30 668 H 60.4513 5.49796 0.0197725 0
M  V30 669 H 61.6763 6.79028 0.09912 0
M  V30 670 H 59.6223 6.16094 2.25308 0
M  V30 671 H 59.5393 7.47556 1.12673 0
M  V30 672 H 60.8073 7.44316 2.31546 0
M  V30 673 N 65.0364 0.313813 1.54444 0
M  V30 674 C 65.9664 -0.549454 2.26943 0
M  V30 675 C 66.9474 -1.12741 1.27372 0
M  V30 676 O 68.1324 -1.15436 1.56167 0
M  V30 677 C 65.2624 -1.71523 3.01989 0
M  V30 678 C 64.2164 -1.26703 4.08816 0
M  V30 679 C 63.5424 -2.51898 4.71647 0
M  V30 680 C 64.8424 -0.388962 5.2085 0
M  V30 681 H 66.5364 0.0552661 2.99349 0
M  V30 682 H 64.0824 0.0280207 1.43973 0
M  V30 683 H 66.0354 -2.32535 3.51433 0
M  V30 684 H 64.7594 -2.34639 2.27183 0
M  V30 685 H 63.4184 -0.679896 3.6024 0
M  V30 686 H 63.0664 -3.13356 3.93468 0
M  V30 687 H 62.7664 -2.22605 5.43802 0
M  V30 688 H 64.2904 -3.1369 5.23861 0
M  V30 689 H 65.7044 -0.905107 5.6611 0
M  V30 690 H 64.1014 -0.18924 5.99802 0
M  V30 691 H 65.1714 0.582699 4.81386 0
M  V30 692 N 66.5145 -1.57545 0.0417849 0
M  V30 693 C 67.4475 -2.06514 -0.970928 0
M  V30 694 C 68.4255 -0.963607 -1.30971 0
M  V30 695 O 69.6095 -1.23486 -1.4242 0
M  V30 696 C 66.7365 -2.4978 -2.28752 0
M  V30 697 C 65.7825 -3.71078 -2.10246 0
M  V30 698 S 66.6155 -5.17158 -1.38952 0
M  V30 699 C 67.7715 -5.6373 -2.71954 0
M  V30 700 H 68.0045 -2.9209 -0.554129 0
M  V30 701 H 65.5375 -1.53459 -0.17024 0
M  V30 702 H 67.4955 -2.75371 -3.04435 0
M  V30 703 H 66.1565 -1.64527 -2.67562 0
M  V30 704 H 65.3495 -3.9924 -3.07609 0
M  V30 705 H 64.9515 -3.45705 -1.42704 0
M  V30 706 H 67.2435 -5.68743 -3.68154 0
M  V30 707 H 68.1865 -6.63086 -2.4844 0
M  V30 708 H 68.5945 -4.91424 -2.77782 0
M  V30 709 N 67.9926 0.231505 -1.5589 0
M  V30 710 C 69.2406 0.955461 -1.78088 0
M  V30 711 C 69.5616 1.85262 -0.608533 0
M  V30 712 O 68.8316 1.92277 0.375035 0
M  V30 713 H 67.4116 0.355787 -0.656829 0
M  V30 714 H 70.0736 0.245751 -1.93344 0
M  V30 715 H 69.1696 1.56814 -2.69844 0
M  V30 716 N 69.4707 1.49531 0.497807 0
M  V30 717 C 70.4337 1.65916 1.58128 0
M  V30 718 C 71.4337 0.530825 1.51786 0
M  V30 719 O 72.6237 0.797342 1.54881 0
M  V30 720 C 69.7557 1.65951 2.9778 0
M  V30 721 H 70.9487 2.62556 1.44929 0
M  V30 722 H 68.5017 1.38611 0.722275 0
M  V30 723 H 69.2367 0.709065 3.16453 0
M  V30 724 H 69.0217 2.47897 3.03792 0
M  V30 725 H 70.5117 1.80673 3.76493 0
M  V30 726 N 70.9488 -0.749086 1.3866 0
M  V30 727 C 72.3598 -1.32664 1.31366 0
M  V30 728 C 72.7108 -1.96179 -0.028484 0
M  V30 729 O 71.8358 -1.9537 -0.93057 0
M  V30 730 C 72.4308 -2.41219 2.37905 0
M  V30 731 C 70.9898 -2.94684 2.34176 0
M  V30 732 C 70.1368 -1.68108 2.20533 0
M  V30 733 H 73.0878 -0.547628 1.48952 0
M  V30 734 H 73.1088 -3.21268 2.0388 0
M  V30 735 H 72.6208 -1.94962 3.35576 0
M  V30 736 H 70.7218 -3.45258 1.401 0
M  V30 737 H 70.8348 -3.48757 3.2849 0
M  V30 738 H 69.1988 -1.91907 1.67463 0
M  V30 739 H 69.9818 -1.23923 3.20153 0
M  V30 740 N 72.4269 -1.23603 -0.977757 0
M  V30 741 C 73.6729 -1.07129 -1.72195 0
M  V30 742 C 74.0059 0.390501 -1.90233 0
M  V30 743 O 73.2809 1.28902 -1.45653 0
M  V30 744 C 73.5639 -1.80031 -3.11867 0
M  V30 745 C 73.4169 -3.33899 -3.01383 0
M  V30 746 C 74.7359 -1.56492 -4.11337 0
M  V30 747 H 71.8549 -0.390571 -0.624999 0
M  V30 748 H 74.4969 -1.52142 -1.13811 0
M  V30 749 H 72.6469 -1.41768 -3.6171 0
M  V30 750 H 74.3189 -3.81699 -2.59043 0
M  V30 751 H 72.5619 -3.62796 -2.37827 0
M  V30 752 H 73.2329 -3.801 -4.00285 0
M  V30 753 H 75.7089 -1.89757 -3.70313 0
M  V30 754 H 74.5849 -2.09973 -5.07151 0
M  V30 755 H 74.8459 -0.500874 -4.39254 0
M  V30 756 N 73.905 1.17692 -1.04816 0
M  V30 757 C 74.852 2.21581 -0.645797 0
M  V30 758 C 75.822 1.62367 0.350159 0
M  V30 759 O 77.007 1.89254 0.242433 0
M  V30 760 C 74.147 3.45092 -0.0227568 0
M  V30 761 C 73.26 4.18613 -1.06709 0
M  V30 762 C 72.395 5.29602 -0.411767 0
M  V30 763 C 71.434 5.94904 -1.44067 0
M  V30 764 N 70.571 6.97414 -0.809781 0
M  V30 765 H 75.411 2.55353 -1.5362 0
M  V30 766 H 72.948 1.25438 -0.768364 0
M  V30 767 H 74.906 4.15679 0.35588 0
M  V30 768 H 73.536 3.11917 0.831122 0
M  V30 769 H 72.588 3.46779 -1.5636 0
M  V30 770 H 73.9 4.63293 -1.84827 0
M  V30 771 H 73.054 6.06696 0.0206623 0
M  V30 772 H 71.793 4.86045 0.401438 0
M  V30 773 H 70.798 5.16544 -1.88316 0
M  V30 774 H 72.023 6.40542 -2.25571 0
M  V30 775 H 69.969 6.55998 -0.0170186 0
M  V30 776 H 69.886 7.40386 -1.52856 0
M  V30 777 H 71.154 7.78463 -0.401999 0
M  V30 778 N 75.3831 0.828654 1.34056 0
M  V30 779 C 76.3131 0.269443 2.3194 0
M  V30 780 C 77.2941 -0.617247 1.58506 0
M  V30 781 O 78.4791 -0.542931 1.86456 0
M  V30 782 C 75.6091 -0.564793 3.42677 0
M  V30 783 C 74.5631 0.225241 4.27407 0
M  V30 784 C 73.8891 -0.7321 5.29664 0
M  V30 785 C 75.1891 1.43663 5.02154 0
M  V30 786 H 76.8831 1.08728 2.7896 0
M  V30 787 H 74.4291 0.524283 1.34117 0
M  V30 788 H 76.3821 -0.966233 4.10173 0
M  V30 789 H 75.1061 -1.41574 2.9432 0
M  V30 790 H 73.7651 0.608117 3.61521 0
M  V30 791 H 73.4131 -1.57916 4.77568 0
M  V30 792 H 73.1131 -0.20767 5.87233 0
M  V30 793 H 74.6371 -1.13128 6.00029 0
M  V30 794 H 76.0511 1.1089 5.62473 0
M  V30 795 H 74.4481 1.89711 5.69324 0
M  V30 796 H 75.5181 2.21181 4.31517 0
M  V30 797 N 76.8612 -1.46375 0.584142 0
M  V30 798 C 78.0892 -2.06761 0.0759296 0
M  V30 799 C 78.5042 -1.43266 -1.22965 0
M  V30 800 O 77.8612 -0.538458 -1.74376 0
M  V30 801 C 77.9122 -3.61375 -0.0950384 0
M  V30 802 O 77.6332 -4.22495 1.15887 0
M  V30 803 C 79.1342 -4.38693 -0.637434 0
M  V30 804 H 76.3542 -0.668479 0.0581075 0
M  V30 805 H 78.8982 -1.8798 0.805218 0
M  V30 806 H 77.0532 -3.79578 -0.774554 0
M  V30 807 H 77.4672 -5.15385 0.973598 0
M  V30 808 H 78.9412 -5.47464 -0.706237 0
M  V30 809 H 79.4182 -4.06836 -1.65472 0
M  V30 810 H 80.0242 -4.25299 0.00725967 0
M  V30 811 N 78.3393 -0.321999 -1.54275 0
M  V30 812 C 79.5853 0.281461 -2.00837 0
M  V30 813 C 79.9183 1.51909 -1.20985 0
M  V30 814 O 79.1933 1.923 -0.291733 0
M  V30 815 C 79.4763 0.617162 -3.54772 0
M  V30 816 C 79.3293 -0.631064 -4.45351 0
M  V30 817 C 80.6483 1.43542 -4.16033 0
M  V30 818 H 77.7673 0.100826 -0.730071 0
M  V30 819 H 80.4093 -0.438268 -1.84876 0
M  V30 820 H 78.5593 1.23034 -3.68504 0
M  V30 821 H 80.2313 -1.26934 -4.43492 0
M  V30 822 H 78.4743 -1.26025 -4.15091 0
M  V30 823 H 79.1453 -0.351735 -5.50878 0
M  V30 824 H 81.6213 0.917134 -4.05867 0
M  V30 825 H 80.4973 1.63907 -5.23856 0
M  V30 826 H 80.7583 2.43108 -3.69257 0
M  V30 827 N 79.8174 1.5752 -0.0501392 0
M  V30 828 C 81.0424 1.97376 0.636997 0
M  V30 829 C 81.4674 0.927466 1.63645 0
M  V30 830 O 80.8254 -0.10941 1.8097 0
M  V30 831 C 80.8734 3.36304 1.30123 0
M  V30 832 O 79.9774 3.34156 2.41689 0
M  V30 833 H 79.3184 0.642998 0.165679 0
M  V30 834 H 81.8484 2.04258 -0.118233 0
M  V30 835 H 81.8584 3.73008 1.65315 0
M  V30 836 H 80.5334 4.11993 0.568746 0
M  V30 837 H 79.1104 3.09196 2.08451 0
M  V30 838 N 81.2955 -0.223234 1.56011 0
M  V30 839 C 82.2275 -1.30006 1.88762 0
M  V30 840 C 83.2405 -1.43129 0.775746 0
M  V30 841 O 84.4295 -1.44057 1.05403 0
M  V30 842 C 81.5295 -2.67589 2.07965 0
M  V30 843 C 80.7025 -2.76434 3.38973 0
M  V30 844 C 79.7615 -3.95019 3.47629 0
M  V30 845 O 78.7875 -3.83436 4.20672 0
M  V30 846 N 79.9895 -5.09249 2.78649 0
M  V30 847 H 82.7545 -1.02238 2.81722 0
M  V30 848 H 80.3155 -0.413278 1.56536 0
M  V30 849 H 82.3075 -3.45297 2.11073 0
M  V30 850 H 80.8775 -2.87964 1.21638 0
M  V30 851 H 80.0975 -1.85216 3.47978 0
M  V30 852 H 81.3855 -2.79313 4.25278 0
M  V30 853 H 80.7835 -5.21556 2.19081 0
M  V30 854 H 79.3405 -5.85007 2.8742 0
M  V30 855 N 82.7736 -1.49793 -0.48987 0
M  V30 856 C 84.0216 -1.59525 -1.24081 0
M  V30 857 C 84.3426 -0.288953 -1.92847 0
M  V30 858 O 83.6126 0.692436 -1.83254 0
M  V30 859 H 82.1926 -0.587796 -0.460983 0
M  V30 860 H 84.8546 -1.86477 -0.566778 0
M  V30 861 H 83.9506 -2.39696 -1.99881 0
M  V30 862 N 84.2517 0.741722 -1.39055 0
M  V30 863 C 85.1837 1.8657 -1.33133 0
M  V30 864 C 86.1967 1.61001 -0.241329 0
M  V30 865 O 87.3857 1.7136 -0.499784 0
M  V30 866 C 84.4857 3.22457 -1.04283 0
M  V30 867 C 83.6587 3.75435 -2.24427 0
M  V30 868 C 82.7177 4.89867 -1.92138 0
M  V30 869 O 81.7437 5.03879 -2.64754 0
M  V30 870 N 82.9457 5.73738 -0.88347 0
M  V30 871 H 85.7107 1.92156 -2.29991 0
M  V30 872 H 83.2717 0.922172 -1.3307 0
M  V30 873 H 85.2637 3.9657 -0.807128 0
M  V30 874 H 83.8337 3.12181 -0.161807 0
M  V30 875 H 83.0537 2.92751 -2.6399 0
M  V30 876 H 84.3417 4.07563 -3.04581 0
M  V30 877 H 83.7397 5.64999 -0.281517 0
M  V30 878 H 82.2967 6.47947 -0.707662 0
M  V30 879 N 85.7298 1.2412 0.971189 0
M  V30 880 C 87.1408 1.07236 1.52831 0
M  V30 881 C 87.4918 -0.357352 1.92918 0
M  V30 882 O 86.6168 -1.24528 1.76979 0
M  V30 883 C 87.2118 1.94043 2.77728 0
M  V30 884 C 85.7708 1.81394 3.29808 0
M  V30 885 C 84.9178 1.89189 2.02738 0
M  V30 886 H 87.8688 1.37648 0.789864 0
M  V30 887 H 87.8898 1.47066 3.5093 0
M  V30 888 H 87.4018 2.98093 2.4852 0
M  V30 889 H 85.5028 0.801634 3.63874 0
M  V30 890 H 85.6158 2.65294 3.98944 0
M  V30 891 H 83.9798 1.32877 2.17292 0
M  V30 892 H 84.7628 2.94812 1.759 0
M  V30 893 N 87.2079 -1.17134 1.05439 0
M  V30 894 C 88.4539 -1.87733 0.767077 0
M  V30 895 C 88.7869 -1.8098 -0.704253 0
M  V30 896 O 88.0619 -1.21951 -1.5152 0
M  V30 897 C 88.3449 -3.37659 1.25133 0
M  V30 898 C 88.1979 -3.53149 2.78578 0
M  V30 899 C 89.5169 -4.31768 0.852324 0
M  V30 900 H 86.6359 -0.681687 0.280129 0
M  V30 901 H 89.2779 -1.37732 1.30881 0
M  V30 902 H 87.4279 -3.80373 0.790469 0
M  V30 903 H 89.0999 -3.19434 3.32806 0
M  V30 904 H 87.3429 -2.95345 3.17732 0
M  V30 905 H 88.0139 -4.58403 3.07523 0
M  V30 906 H 90.4899 -3.96909 1.24911 0
M  V30 907 H 89.3659 -5.35199 1.21873 0
M  V30 908 H 89.6269 -4.41429 -0.243485 0
M  V30 909 N 88.686 -0.835752 -1.33615 0
M  V30 910 C 89.633 -0.26473 -2.29277 0
M  V30 911 C 90.603 0.617712 -1.54187 0
M  V30 912 O 91.788 0.556641 -1.825 0
M  V30 913 C 88.928 0.556777 -3.40579 0
M  V30 914 C 88.041 -0.349339 -4.30585 0
M  V30 915 C 87.176 0.482969 -5.29 0
M  V30 916 C 86.215 -0.421732 -6.10645 0
M  V30 917 N 85.352 0.372262 -7.01112 0
M  V30 918 H 90.192 -1.08582 -2.77514 0
M  V30 919 H 87.729 -0.546927 -1.36554 0
M  V30 920 H 89.687 1.04852 -4.03809 0
M  V30 921 H 88.317 1.34286 -2.93542 0
M  V30 922 H 87.369 -0.959372 -3.68104 0
M  V30 923 H 88.681 -1.04445 -4.87742 0
M  V30 924 H 87.835 1.03866 -5.97743 0
M  V30 925 H 86.574 1.21153 -4.72412 0
M  V30 926 H 85.579 -0.989464 -5.40823 0
M  V30 927 H 86.804 -1.14861 -6.69316 0
M  V30 928 H 84.75 1.08426 -6.46977 0
M  V30 929 H 84.667 -0.264198 -7.55538 0
M  V30 930 H 85.935 0.910293 -7.74167 0
M  V30 931 N 90.1641 1.46063 -0.591896 0
M  V30 932 C 91.0941 2.33172 0.123673 0
M  V30 933 C 92.0751 1.45897 0.87453 0
M  V30 934 O 93.2601 1.74698 0.848181 0
M  V30 935 C 90.3901 3.28336 1.13194 0
M  V30 936 C 89.3441 4.25124 0.495324 0
M  V30 937 C 88.6701 5.09863 1.61071 0
M  V30 938 C 89.9701 5.19143 -0.573425 0
M  V30 939 H 91.6641 2.93252 -0.603646 0
M  V30 940 H 89.2101 1.41014 -0.291741 0
M  V30 941 H 91.1631 3.88137 1.64097 0
M  V30 942 H 89.8871 2.66383 1.88965 0
M  V30 943 H 88.5461 3.66599 0.00729452 0
M  V30 944 H 88.1941 4.44288 2.35832 0
M  V30 945 H 87.8941 5.75417 1.19035 0
M  V30 946 H 89.4181 5.72529 2.12233 0
M  V30 947 H 90.8321 5.73106 -0.1491 0
M  V30 948 H 89.2291 5.93089 -0.914636 0
M  V30 949 H 90.2991 4.62519 -1.45617 0
M  V30 950 N 91.6422 0.330177 1.54103 0
M  V30 951 C 92.5902 -0.548226 2.26047 0
M  V30 952 C 93.5842 -1.11309 1.27698 0
M  V30 953 O 94.7902 -1.06036 1.45452 0
M  V30 954 H 91.1652 -0.195456 0.726155 0
M  V30 955 H 93.1362 0.0807567 2.98291 0
M  V30 956 C 91.8852 -1.69415 3.03634 0
M  V30 957 H 91.2082 -1.26876 3.79134 0
M  V30 958 H 92.6482 -2.28423 3.5721 0
M  V30 959 C 91.1072 -2.61569 2.12328 0
M  V30 960 O 91.6372 -3.63462 1.7105 0
M  V30 961 N 89.8432 -2.29952 1.77681 0
M  V30 962 H 89.3902 -1.47134 2.11446 0
M  V30 963 H 89.3482 -2.91871 1.16869 0
M  V30 964 N 93.1203 -1.57491 0.0584922 0
M  V30 965 C 94.3603 -1.94851 -0.617458 0
M  V30 966 C 94.7243 -0.937165 -1.67575 0
M  V30 967 O 95.9253 -1.19795 -2.40629 0
M  V30 968 C 94.1963 -3.36955 -1.19147 0
M  V30 969 S 95.7553 -3.96277 -1.8844 0
M  V30 970 H 92.5733 -0.681539 -0.202547 0
M  V30 971 H 95.1753 -1.95073 0.129176 0
M  V30 972 H 93.8793 -4.08355 -0.409215 0
M  V30 973 H 93.4103 -3.40245 -1.97476 0
M  V30 974 H 95.4253 -3.82099 -3.16568 0
M  V30 975 N 94.5984 0.214957 -1.56127 0
M  V30 976 C 95.8234 0.95924 -1.83884 0
M  V30 977 C 96.2484 1.7689 -0.639644 0
M  V30 978 O 95.6064 1.76566 0.411601 0
M  V30 979 C 95.6544 1.84723 -3.09693 0
M  V30 980 O 94.7584 2.94346 -2.8885 0
M  V30 981 H 94.0994 0.27125 -0.606069 0
M  V30 982 H 96.6294 0.226276 -2.03345 0
M  V30 983 H 96.6394 2.25576 -3.39969 0
M  V30 984 H 95.3144 1.25218 -3.96602 0
M  V30 985 H 93.8914 2.57391 -2.69823 0
M  V30 986 N 96.0765 1.50051 0.48192 0
M  V30 987 C 97.3225 1.60736 1.2366 0
M  V30 988 C 97.6555 0.301786 1.91841 0
M  V30 989 O 96.9305 -0.696025 1.8162 0
M  V30 990 C 97.2135 2.78009 2.28874 0
M  V30 991 C 97.0665 4.18416 1.65069 0
M  V30 992 C 98.3855 2.90867 3.30279 0
M  V30 993 H 95.5045 0.585031 0.448228 0
M  V30 994 H 98.1465 1.82402 0.531946 0
M  V30 995 H 96.2965 2.59667 2.88973 0
M  V30 996 H 97.9685 4.48322 1.0865 0
M  V30 997 H 96.2115 4.23177 0.954148 0
M  V30 998 H 96.8825 4.96381 2.41474 0
M  V30 999 H 99.3585 3.07623 2.80191 0
M  V30 1000 H 98.2345 3.74566 4.01238 0
M  V30 1001 H 98.4955 2.01021 3.93755 0
M  V30 1002 N 97.5546 -0.734337 1.39446 0
M  V30 1003 C 98.4646 -1.87879 1.40495 0
M  V30 1004 C 99.4806 -1.714 0.299672 0
M  V30 1005 O 100.657 -1.93991 0.541249 0
M  V30 1006 C 97.7216 -3.23477 1.24754 0
M  V30 1007 C 96.7826 -3.52344 2.45259 0
M  V30 1008 C 96.0156 -4.81473 2.30259 0
M  V30 1009 O 96.2386 -5.55237 1.30643 0
M  V30 1010 O 95.1726 -5.10254 3.19256 0
M  V30 1011 H 98.9986 -1.89949 2.36966 0
M  V30 1012 H 96.5836 -0.882243 1.20569 0
M  V30 1013 H 98.4656 -4.04509 1.18111 0
M  V30 1014 H 97.1406 -3.22176 0.313781 0
M  V30 1015 H 96.0476 -2.71396 2.57478 0
M  V30 1016 H 97.3806 -3.58426 3.37331 0
M  V30 1017 N 99.0327 -1.24633 -0.964593 0
M  V30 1018 C 100.281 -1.08573 -1.70459 0
M  V30 1019 C 100.602 0.375655 -1.91347 0
M  V30 1020 O 99.8717 1.26779 -1.49345 0
M  V30 1021 H 98.4517 -0.398784 -0.631649 0
M  V30 1022 H 101.114 -1.56601 -1.16026 0
M  V30 1023 H 100.21 -1.58623 -2.68785 0
M  V30 1024 N 100.511 1.16574 -1.06058 0
M  V30 1025 C 101.444 2.19798 -0.61352 0
M  V30 1026 C 102.422 1.58509 0.362453 0
M  V30 1027 O 103.606 1.86527 0.271994 0
M  V30 1028 C 100.733 3.3855 0.100915 0
M  V30 1029 C 99.7788 4.18317 -0.831438 0
M  V30 1030 S 100.612 4.82375 -2.32539 0
M  V30 1031 C 101.768 6.04508 -1.62238 0
M  V30 1032 H 102.001 2.5738 -1.48805 0
M  V30 1033 H 99.5338 1.27327 -0.873338 0
M  V30 1034 H 101.492 4.07358 0.506898 0
M  V30 1035 H 100.153 2.99338 0.951604 0
M  V30 1036 H 99.3458 5.03232 -0.278071 0
M  V30 1037 H 98.9478 3.5499 -1.17719 0
M  V30 1038 H 101.24 6.71133 -0.926622 0
M  V30 1039 H 102.183 6.64389 -2.44934 0
M  V30 1040 H 102.591 5.53559 -1.106 0
M  V30 1041 N 101.989 0.842826 1.3317 0
M  V30 1042 C 102.899 0.281444 2.32906 0
M  V30 1043 C 103.915 -0.594587 1.63526 0
M  V30 1044 O 105.091 -0.49777 1.95152 0
M  V30 1045 C 102.156 -0.530929 3.42611 0
M  V30 1046 C 101.217 0.369843 4.27704 0
M  V30 1047 C 100.45 -0.403853 5.3217 0
M  V30 1048 O 100.673 -1.63513 5.46461 0
M  V30 1049 O 99.6069 0.224199 6.01482 0
M  V30 1050 H 103.433 1.10744 2.82789 0
M  V30 1051 H 101.018 0.60545 1.36582 0
M  V30 1052 H 102.9 -0.992437 4.09547 0
M  V30 1053 H 101.575 -1.33392 2.94938 0
M  V30 1054 H 100.482 0.879275 3.6362 0
M  V30 1055 H 101.815 1.13771 4.78871 0
M  V30 1056 N 103.467 -1.45747 0.599634 0
M  V30 1057 C 104.377 -2.34262 -0.125888 0
M  V30 1058 C 105.393 -1.50768 -0.868625 0
M  V30 1059 O 106.569 -1.83592 -0.828003 0
M  V30 1060 C 103.634 -3.28252 -1.11587 0
M  V30 1061 C 102.695 -4.27651 -0.375956 0
M  V30 1062 C 101.928 -5.1715 -1.31877 0
M  V30 1063 O 102.151 -5.09916 -2.55621 0
M  V30 1064 O 101.085 -5.96286 -0.820157 0
M  V30 1065 H 104.911 -2.97688 0.601315 0
M  V30 1066 H 102.496 -1.44999 0.359934 0
M  V30 1067 H 104.378 -3.86191 -1.68626 0
M  V30 1068 H 103.053 -2.67401 -1.82424 0
M  V30 1069 H 101.96 -3.7335 0.236698 0
M  V30 1070 H 103.293 -4.91334 0.29177 0
M  V30 1071 N 104.945 -0.338344 -1.53925 0
M  V30 1072 C 106.356 0.146651 -1.86123 0
M  V30 1073 C 106.707 1.5042 -1.2597 0
M  V30 1074 O 105.832 2.08723 -0.571294 0
M  V30 1075 C 106.427 0.272879 -3.37699 0
M  V30 1076 C 104.986 0.702103 -3.69794 0
M  V30 1077 C 104.133 -0.167304 -2.76795 0
M  V30 1078 H 107.084 -0.558123 -1.48562 0
M  V30 1079 H 107.105 1.10128 -3.64214 0
M  V30 1080 H 106.617 -0.715307 -3.81451 0
M  V30 1081 H 104.718 1.6995 -3.31584 0
M  V30 1082 H 104.831 0.495604 -4.7653 0
M  V30 1083 H 103.195 0.359527 -2.5215 0
M  V30 1084 H 103.978 -1.15253 -3.23375 0
M  V30 1085 N 106.423 1.57458 -0.0668435 0
M  V30 1086 C 107.7 1.8469 0.644132 0
M  V30 1087 C 108.08 0.958343 1.88093 0
M  V30 1088 O 107.428 0.0233579 2.28488 0
M  V30 1089 C 107.638 3.34767 0.986509 0
M  V30 1090 C 108.986 4.02159 1.36212 0
M  V30 1091 O 110.01 3.39484 1.07839 0
M  V30 1092 O 108.869 5.12694 1.89227 0
M  V30 1093 H 105.963 0.762816 0.319437 0
M  V30 1094 H 108.509 1.6942 -0.0973986 0
M  V30 1095 H 107.281 3.91151 0.107883 0
M  V30 1096 H 106.904 3.55281 1.78497 0
M  V30 1097 N 107.901 -0.206675 1.56239 0
M  V30 1098 C 109.15 -0.926964 1.79138 0
M  V30 1099 C 109.463 -1.84901 0.638043 0
M  V30 1100 O 110.669 -2.60906 0.751033 0
M  V30 1101 C 109.125 -1.6986 3.17294 0
M  V30 1102 C 108.733 -0.821956 4.40395 0
M  V30 1103 C 110.477 -2.40922 3.4951 0
M  V30 1104 C 108.384 -1.59179 5.69575 0
M  V30 1105 H 107.314 -0.349864 0.667915 0
M  V30 1106 H 109.965 -0.180487 1.8261 0
M  V30 1107 H 108.347 -2.48853 3.08039 0
M  V30 1108 H 109.521 -0.0715019 4.60745 0
M  V30 1109 H 107.836 -0.222741 4.15804 0
M  V30 1110 H 110.433 -2.99047 4.43255 0
M  V30 1111 H 110.776 -3.14542 2.72707 0
M  V30 1112 H 111.309 -1.68905 3.60161 0
M  V30 1113 H 108.048 -0.898589 6.49312 0
M  V30 1114 H 107.568 -2.31648 5.53262 0
M  V30 1115 H 109.247 -2.14862 6.10281 0
M  V30 1116 N 109.379 -1.50304 -0.473955 0
M  V30 1117 C 110.311 -1.65109 -1.58971 0
M  V30 1118 C 111.324 -0.532676 -1.53839 0
M  V30 1119 O 112.513 -0.805751 -1.59279 0
M  V30 1120 C 109.613 -1.61684 -2.97845 0
M  V30 1121 C 108.786 -2.8951 -3.27876 0
M  V30 1122 C 107.845 -2.78768 -4.4629 0
M  V30 1123 O 106.871 -3.52722 -4.46739 0
M  V30 1124 N 108.073 -1.9213 -5.47783 0
M  V30 1125 H 110.838 -2.61347 -1.46689 0
M  V30 1126 H 108.399 -1.47732 -0.662324 0
M  V30 1127 H 110.391 -1.52114 -3.75024 0
M  V30 1128 H 108.961 -0.731925 -3.03911 0
M  V30 1129 H 108.181 -3.13228 -2.39336 0
M  V30 1130 H 109.469 -3.74199 -3.4475 0
M  V30 1131 H 108.867 -1.31353 -5.50239 0
M  V30 1132 H 107.424 -1.88466 -6.23958 0
M  V30 1133 N 110.857 0.726932 -1.39834 0
M  V30 1134 C 112.103 1.48771 -1.38704 0
M  V30 1135 C 112.458 1.92394 0.0146387 0
M  V30 1136 O 111.751 1.64474 0.982797 0
M  V30 1137 C 111.945 2.73495 -2.30077 0
M  V30 1138 C 111.774 2.42068 -3.78989 0
M  V30 1139 C 110.544 2.33966 -4.4787 0
M  V30 1140 C 112.742 2.0708 -4.70768 0
M  V30 1141 N 110.724 1.95095 -5.82075 0
M  V30 1142 C 112.095 1.78719 -5.93683 0
M  V30 1143 C 114.15 1.93618 -4.58712 0
M  V30 1144 C 112.853 1.3825 -7.05889 0
M  V30 1145 C 114.879 1.54553 -5.70848 0
M  V30 1146 C 114.241 1.27082 -6.92842 0
M  V30 1147 H 110.34 0.542919 -0.562817 0
M  V30 1148 H 112.924 0.84408 -1.75452 0
M  V30 1149 H 111.095 3.35625 -1.95474 0
M  V30 1150 H 112.827 3.39755 -2.19883 0
M  V30 1151 H 109.582 2.51331 -4.0141 0
M  V30 1152 H 110.006 1.7823 -6.53118 0
M  V30 1153 H 114.648 2.13522 -3.64922 0
M  V30 1154 H 112.366 1.17088 -7.99572 0
M  V30 1155 H 115.952 1.44731 -5.6351 0
M  V30 1156 H 114.832 0.973069 -7.78139 0
M  V30 1157 N 112.336 1.25143 0.95797 0
M  V30 1158 C 113.582 1.09855 1.70469 0
M  V30 1159 C 113.915 -0.360187 1.90831 0
M  V30 1160 O 113.19 -1.26568 1.47685 0
M  V30 1161 C 113.473 1.8497 3.08963 0
M  V30 1162 C 113.326 3.38652 2.96032 0
M  V30 1163 C 114.645 1.63016 4.08795 0
M  V30 1164 H 111.764 0.400465 0.618706 0
M  V30 1165 H 114.406 1.53933 1.11376 0
M  V30 1166 H 112.556 1.47505 3.59409 0
M  V30 1167 H 114.228 3.85772 2.52938 0
M  V30 1168 H 112.471 3.66534 2.32025 0
M  V30 1169 H 113.142 3.8642 3.94187 0
M  V30 1170 H 115.618 1.95625 3.67247 0
M  V30 1171 H 114.494 2.18015 5.03747 0
M  V30 1172 H 114.755 0.570692 4.38401 0
M  V30 1173 N 113.814 -1.1601 1.06675 0
M  V30 1174 C 114.761 -2.20525 0.680967 0
M  V30 1175 C 115.731 -1.62904 -0.324283 0
M  V30 1176 O 116.916 -1.89615 -0.212294 0
M  V30 1177 C 114.056 -3.45013 0.0776551 0
M  V30 1178 C 113.169 -4.16863 1.13355 0
M  V30 1179 C 112.304 -5.2888 0.49597 0
M  V30 1180 C 111.343 -5.92537 1.53513 0
M  V30 1181 N 110.48 -6.96038 0.920631 0
M  V30 1182 H 115.32 -2.52876 1.57663 0
M  V30 1183 H 112.857 -1.24199 0.788223 0
M  V30 1184 H 114.815 -4.16193 -0.289704 0
M  V30 1185 H 113.445 -3.132 -0.781393 0
M  V30 1186 H 112.497 -3.44248 1.61857 0
M  V30 1187 H 113.809 -4.60294 1.92174 0
M  V30 1188 H 112.963 -6.06653 0.0758604 0
M  V30 1189 H 111.702 -4.86622 -0.324062 0
M  V30 1190 H 110.707 -5.13482 1.9651 0
M  V30 1191 H 111.932 -6.36873 2.35733 0
M  V30 1192 H 109.878 -6.55888 0.12138 0
M  V30 1193 H 109.795 -7.3786 1.64616 0
M  V30 1194 H 111.063 -7.77725 0.525795 0
M  V30 1195 N 115.292 -0.849877 -1.32721 0
M  V30 1196 C 116.569 -0.372405 -1.92022 0
M  V30 1197 C 116.949 1.1435 -1.77447 0
M  V30 1198 O 116.297 1.96296 -1.16962 0
M  V30 1199 C 116.507 -0.831482 -3.3895 0
M  V30 1200 C 117.855 -0.845882 -4.16089 0
M  V30 1201 O 118.879 -0.775806 -3.47649 0
M  V30 1202 O 117.738 -0.943753 -5.38289 0
M  V30 1203 H 114.832 -0.107667 -0.819961 0
M  V30 1204 H 117.378 -0.93646 -1.41522 0
M  V30 1205 H 116.15 -1.87448 -3.4348 0
M  V30 1206 H 115.773 -0.24461 -3.96847 0
M  V30 1207 N 116.77 1.45427 -0.607355 0
M  V30 1208 C 118.018 2.01841 -0.102253 0
M  V30 1209 C 118.339 1.47832 1.27164 0
M  V30 1210 O 117.609 0.672497 1.83995 0
M  V30 1211 H 116.189 0.746188 -0.0348101 0
M  V30 1212 H 118.851 1.78229 -0.7887 0
M  V30 1213 H 117.947 3.12057 -0.0518585 0
M  V30 1214 N 118.248 0.346503 1.53744 0
M  V30 1215 C 119.211 -0.496439 2.23759 0
M  V30 1216 C 120.211 -1.0252 1.2388 0
M  V30 1217 O 121.401 -0.913974 1.48297 0
M  V30 1218 C 118.533 -1.69187 2.95954 0
M  V30 1219 H 119.726 0.115952 2.99676 0
M  V30 1220 H 117.279 0.0978939 1.55993 0
M  V30 1221 H 118.014 -2.34288 2.24231 0
M  V30 1222 H 117.799 -1.31989 3.69217 0
M  V30 1223 H 119.289 -2.28969 3.49232 0
M  V30 1224 N 119.726 -1.57421 0.075193 0
M  V30 1225 C 120.972 -1.93905 -0.594025 0
M  V30 1226 C 121.305 -0.955701 -1.69056 0
M  V30 1227 O 120.58 0.0145373 -1.94495 0
M  V30 1228 C 120.863 -3.40638 -1.1678 0
M  V30 1229 C 120.716 -4.49733 -0.0776792 0
M  V30 1230 C 122.035 -3.88259 -2.07228 0
M  V30 1231 H 119.154 -0.705105 -0.214466 0
M  V30 1232 H 121.796 -1.8947 0.141854 0
M  V30 1233 H 119.946 -3.44549 -1.79494 0
M  V30 1234 H 121.618 -4.57942 0.555573 0
M  V30 1235 H 119.861 -4.29751 0.591286 0
M  V30 1236 H 120.532 -5.49549 -0.519603 0
M  V30 1237 H 123.008 -3.86376 -1.54445 0
M  V30 1238 H 121.884 -4.91533 -2.44308 0
M  V30 1239 H 122.145 -3.26396 -2.98191 0
M  V30 1240 N 121.204 0.198386 -1.56346 0
M  V30 1241 C 122.45 0.920648 -1.80698 0
M  V30 1242 C 122.783 1.83045 -0.648697 0
M  V30 1243 O 122.058 1.91308 0.350925 0
M  V30 1244 C 122.341 1.73971 -3.15287 0
M  V30 1245 C 122.194 0.85485 -4.41602 0
M  V30 1246 C 123.513 2.71296 -3.46535 0
M  V30 1247 H 120.632 0.333261 -0.657348 0
M  V30 1248 H 123.274 0.188198 -1.89066 0
M  V30 1249 H 121.424 2.36416 -3.08285 0
M  V30 1250 H 123.096 0.245362 -4.60647 0
M  V30 1251 H 121.339 0.161398 -4.335 0
M  V30 1252 H 122.01 1.46286 -5.32264 0
M  V30 1253 H 124.486 2.18983 -3.53816 0
M  V30 1254 H 123.362 3.2569 -4.41834 0
M  V30 1255 H 123.623 3.5018 -2.69864 0
M  V30 1256 N 122.682 1.50554 0.465978 0
M  V30 1257 C 123.614 1.65949 1.58093 0
M  V30 1258 C 124.627 0.540827 1.53554 0
M  V30 1259 O 125.816 0.814187 1.5885 0
M  V30 1260 C 122.916 1.63261 2.96983 0
M  V30 1261 C 122.089 2.91245 3.26336 0
M  V30 1262 C 121.148 2.8113 4.44806 0
M  V30 1263 O 120.174 3.55086 4.44862 0
M  V30 1264 N 121.376 1.95032 5.46756 0
M  V30 1265 H 124.141 2.62122 1.45301 0
M  V30 1266 H 121.702 1.48082 0.65448 0
M  V30 1267 H 123.694 1.54101 3.74212 0
M  V30 1268 H 122.264 0.748032 3.03518 0
M  V30 1269 H 121.484 3.14493 2.37672 0
M  V30 1270 H 122.772 3.76022 3.42761 0
M  V30 1271 H 122.17 1.3427 5.49534 0
M  V30 1272 H 120.727 1.91772 6.2295 0
M  V30 1273 N 124.16 -0.719506 1.40217 0
M  V30 1274 C 125.108 -1.85493 1.40339 0
M  V30 1275 C 126.102 -1.66995 0.284415 0
M  V30 1276 O 127.308 -1.74148 0.455252 0
M  V30 1277 H 123.683 -0.610857 0.438586 0
M  V30 1278 H 125.654 -1.82506 2.36081 0
M  V30 1279 C 124.403 -3.23321 1.27901 0
M  V30 1280 H 123.726 -3.38159 2.1328 0
M  V30 1281 H 125.166 -4.02914 1.32045 0
M  V30 1282 C 123.625 -3.36898 -0.0111355 0
M  V30 1283 O 124.155 -3.89674 -0.975538 0
M  V30 1284 N 122.361 -2.90492 -0.0793393 0
M  V30 1285 H 121.908 -2.47731 0.706183 0
M  V30 1286 H 121.866 -2.99955 -0.942038 0
M  V30 1287 N 125.638 -1.25649 -0.95132 0
M  V30 1288 C 126.568 -1.08808 -2.06599 0
M  V30 1289 C 127.549 0.00382547 -1.701 0
M  V30 1290 O 128.734 -0.166325 -1.93486 0
M  V30 1291 C 125.864 -0.709542 -3.39975 0
M  V30 1292 C 124.818 -1.75206 -3.90496 0
M  V30 1293 C 124.144 -1.22811 -5.20405 0
M  V30 1294 C 125.444 -3.15153 -4.16504 0
M  V30 1295 H 127.138 -2.02048 -2.20946 0
M  V30 1296 H 124.684 -0.972835 -1.06169 0
M  V30 1297 H 126.637 -0.578649 -4.17408 0
M  V30 1298 H 125.361 0.258556 -3.25575 0
M  V30 1299 H 124.02 -1.87145 -3.15234 0
M  V30 1300 H 123.668 -0.250145 -5.02378 0
M  V30 1301 H 123.368 -1.92492 -5.55176 0
M  V30 1302 H 124.892 -1.10968 -6.00432 0
M  V30 1303 H 126.306 -3.06349 -4.84586 0
M  V30 1304 H 124.703 -3.82333 -4.62538 0
M  V30 1305 H 125.773 -3.61966 -3.22658 0
M  V30 1306 N 127.117 1.15442 -1.07289 0
M  V30 1307 C 128.394 1.82306 -0.708792 0
M  V30 1308 C 128.774 1.94991 0.808807 0
M  V30 1309 O 128.122 1.50085 1.72298 0
M  V30 1310 C 128.332 3.18695 -1.42247 0
M  V30 1311 C 129.68 3.94341 -1.57417 0
M  V30 1312 O 130.704 3.28247 -1.38319 0
M  V30 1313 O 129.563 5.12839 -1.88834 0
M  V30 1314 H 126.657 0.787628 -0.252132 0
M  V30 1315 H 129.203 1.22559 -1.17377 0
M  V30 1316 H 127.975 3.04557 -2.45684 0
M  V30 1317 H 127.598 3.86128 -0.948223 0
M  V30 1318 N 128.595 0.856903 1.32268 0
M  V30 1319 C 129.527 0.260412 2.27716 0
M  V30 1320 C 130.54 -0.569137 1.52528 0
M  V30 1321 O 131.729 -0.39326 1.74114 0
M  V30 1322 C 128.829 -0.650477 3.32599 0
M  V30 1323 C 128.002 0.14372 4.37164 0
M  V30 1324 C 127.061 -0.69328 5.21613 0
M  V30 1325 O 126.087 -0.12599 5.69061 0
M  V30 1326 N 127.289 -2.00761 5.44679 0
M  V30 1327 H 130.054 1.08059 2.79541 0
M  V30 1328 H 127.615 0.717103 1.45152 0
M  V30 1329 H 129.607 -1.21581 3.86005 0
M  V30 1330 H 128.177 -1.37133 2.80915 0
M  V30 1331 H 127.397 0.890486 3.8401 0
M  V30 1332 H 128.685 0.68915 5.04111 0
M  V30 1333 H 128.083 -2.49181 5.07863 0
M  V30 1334 H 126.64 -2.52103 6.01072 0
M  V30 1335 N 130.073 -1.45103 0.615059 0
M  V30 1336 C 131.003 -2.33339 -0.0865619 0
M  V30 1337 C 131.984 -1.4727 -0.851209 0
M  V30 1338 O 133.169 -1.76026 -0.820281 0
M  V30 1339 C 130.299 -3.30095 -1.07956 0
M  V30 1340 C 129.253 -4.25858 -0.427628 0
M  V30 1341 C 128.579 -5.12361 -1.5294 0
M  V30 1342 C 129.879 -5.18165 0.655944 0
M  V30 1343 H 131.573 -2.92254 0.650224 0
M  V30 1344 H 129.119 -1.40532 0.314138 0
M  V30 1345 H 131.072 -3.90698 -1.57901 0
M  V30 1346 H 129.796 -2.69355 -1.84703 0
M  V30 1347 H 128.455 -3.66564 0.0510292 0
M  V30 1348 H 128.103 -4.47984 -2.28734 0
M  V30 1349 H 127.803 -5.77238 -1.09865 0
M  V30 1350 H 129.327 -5.75833 -2.03098 0
M  V30 1351 H 130.741 -5.72796 0.240257 0
M  V30 1352 H 129.138 -5.91559 1.00888 0
M  V30 1353 H 130.208 -4.60144 1.52957 0
M  V30 1354 N 131.551 -0.354651 -1.53558 0
M  V30 1355 C 132.781 0.239167 -2.05211 0
M  V30 1356 C 133.189 1.43879 -1.22863 0
M  V30 1357 O 132.532 1.81857 -0.259565 0
M  V30 1358 C 132.594 0.707251 -3.52474 0
M  V30 1359 C 132.258 -0.374212 -4.55465 0
M  V30 1360 C 133.255 -1.22054 -5.0537 0
M  V30 1361 C 130.94 -0.531323 -4.99482 0
M  V30 1362 C 132.934 -2.20942 -5.97882 0
M  V30 1363 C 130.621 -1.52358 -5.91802 0
M  V30 1364 C 131.619 -2.36108 -6.40892 0
M  V30 1365 O 131.307 -3.33643 -7.31394 0
M  V30 1366 H 131.039 0.0479716 -0.674296 0
M  V30 1367 H 133.593 -0.508121 -1.99016 0
M  V30 1368 H 131.823 1.50596 -3.56171 0
M  V30 1369 H 133.512 1.22285 -3.87042 0
M  V30 1370 H 134.278 -1.1103 -4.7212 0
M  V30 1371 H 130.157 0.110738 -4.60867 0
M  V30 1372 H 133.701 -2.86348 -6.36121 0
M  V30 1373 H 129.598 -1.63434 -6.24467 0
M  V30 1374 H 130.366 -3.29244 -7.4936 0
M  V30 1375 N 133.029 1.57378 -0.0835403 0
M  V30 1376 C 134.278 1.93106 0.582498 0
M  V30 1377 C 134.591 0.96651 1.70053 0
M  V30 1378 O 135.797 1.21705 2.42693 0
M  V30 1379 C 134.253 3.43076 1.08751 0
M  V30 1380 C 133.861 4.48 -0.000146404 0
M  V30 1381 C 135.605 3.87785 1.72694 0
M  V30 1382 C 133.512 5.89113 0.519568 0
M  V30 1383 H 132.442 0.720775 0.221358 0
M  V30 1384 H 135.093 1.82821 -0.157675 0
M  V30 1385 H 133.475 3.48474 1.88101 0
M  V30 1386 H 134.649 4.54233 -0.775199 0
M  V30 1387 H 132.964 4.1283 -0.54406 0
M  V30 1388 H 135.561 4.90604 2.1263 0
M  V30 1389 H 135.904 3.25796 2.59158 0
M  V30 1390 H 136.437 3.8504 0.999457 0
M  V30 1391 H 133.176 6.54775 -0.308186 0
M  V30 1392 H 132.696 5.86376 1.26188 0
M  V30 1393 H 134.375 6.39346 0.992237 0
M  V30 1394 N 134.507 -0.190092 1.56449 0
M  V30 1395 C 135.918 -0.754312 1.70784 0
M  V30 1396 C 136.269 -1.83631 0.690951 0
M  V30 1397 O 135.394 -2.15868 -0.151604 0
M  V30 1398 C 135.989 -1.37503 3.09642 0
M  V30 1399 C 134.548 -1.88628 3.25725 0
M  V30 1400 C 133.695 -0.758098 2.66736 0
M  V30 1401 H 136.646 0.0350524 1.58661 0
M  V30 1402 H 136.667 -2.2445 3.0725 0
M  V30 1403 H 136.179 -0.587302 3.83631 0
M  V30 1404 H 134.28 -2.70103 2.56661 0
M  V30 1405 H 134.393 -2.04462 4.3328 0
M  V30 1406 H 132.757 -1.17369 2.26046 0
M  V30 1407 H 133.54 0.0174705 3.43296 0
M  V30 1408 N 135.985 -1.50799 -0.457987 0
M  V30 1409 C 137.231 -1.62683 -1.21088 0
M  V30 1410 C 137.564 -0.332268 -1.91336 0
M  V30 1411 O 136.839 0.667043 -1.82704 0
M  V30 1412 C 137.122 -2.81615 -2.24422 0
M  V30 1413 C 136.975 -4.20989 -1.58392 0
M  V30 1414 C 138.294 -2.96085 -3.2561 0
M  V30 1415 H 135.413 -0.592087 -0.438864 0
M  V30 1416 H 138.055 -1.83225 -0.50286 0
M  V30 1417 H 136.205 -2.64231 -2.84806 0
M  V30 1418 H 137.877 -4.49994 -1.01504 0
M  V30 1419 H 136.12 -4.24641 -0.886704 0
M  V30 1420 H 136.791 -5.0016 -2.33547 0
M  V30 1421 H 139.267 -3.12042 -2.75262 0
M  V30 1422 H 138.143 -3.80902 -3.95228 0
M  V30 1423 H 138.404 -2.0726 -3.90507 0
M  V30 1424 N 137.463 0.71206 -1.40597 0
M  V30 1425 C 138.688 1.50617 -1.42581 0
M  V30 1426 C 139.113 1.88079 -0.0282102 0
M  V30 1427 O 138.471 1.53511 0.964579 0
M  V30 1428 C 138.519 2.7557 -2.3258 0
M  V30 1429 O 137.623 3.72414 -1.77148 0
M  V30 1430 H 136.964 0.453966 -0.484573 0
M  V30 1431 H 139.494 0.876649 -1.84868 0
M  V30 1432 H 139.504 3.2406 -2.47889 0
M  V30 1433 H 138.179 2.47639 -3.34138 0
M  V30 1434 H 136.756 3.31276 -1.71204 0
M  V30 1435 N 138.941 1.26152 0.944643 0
M  V30 1436 C 139.851 1.09176 2.07648 0
M  V30 1437 C 140.867 0.0261935 1.7398 0
M  V30 1438 O 142.043 0.229208 2.00091 0
M  V30 1439 C 139.108 0.722915 3.39079 0
M  V30 1440 C 138.169 1.86752 3.86552 0
M  V30 1441 C 137.402 1.51617 5.11711 0
M  V30 1442 O 137.625 0.416331 5.68879 0
M  V30 1443 O 136.559 2.34975 5.54139 0
M  V30 1444 H 140.385 2.0412 2.24875 0
M  V30 1445 H 137.97 1.05182 1.061 0
M  V30 1446 H 139.852 0.529787 4.18056 0
M  V30 1447 H 138.527 -0.197159 3.23099 0
M  V30 1448 H 137.434 2.11558 3.08535 0
M  V30 1449 H 138.767 2.76719 4.07047 0
M  V30 1450 N 140.419 -1.14872 1.07899 0
M  V30 1451 C 141.351 -2.19425 0.662231 0
M  V30 1452 C 142.364 -1.60231 -0.288079 0
M  V30 1453 O 143.553 -1.78336 -0.076534 0
M  V30 1454 C 140.653 -3.38867 -0.0470695 0
M  V30 1455 C 139.826 -4.27597 0.920831 0
M  V30 1456 C 138.885 -5.25616 0.247805 0
M  V30 1457 O 137.911 -5.62189 0.890599 0
M  V30 1458 N 139.113 -5.71746 -1.00435 0
M  V30 1459 H 141.878 -2.55797 1.56166 0
M  V30 1460 H 139.439 -1.30042 0.964404 0
M  V30 1461 H 141.431 -4.01497 -0.50813 0
M  V30 1462 H 140.001 -3.00864 -0.848523 0
M  V30 1463 H 139.221 -3.61982 1.56087 0
M  V30 1464 H 140.509 -4.83748 1.57688 0
M  V30 1465 H 139.907 -5.44153 -1.54642 0
M  V30 1466 H 138.464 -6.36389 -1.40899 0
M  V30 1467 N 141.898 -0.863906 -1.31812 0
M  V30 1468 C 142.848 -0.286898 -2.26188 0
M  V30 1469 C 143.832 0.572577 -1.50367 0
M  V30 1470 O 145.024 0.420447 -1.71934 0
M  V30 1471 C 142.153 0.515849 -3.39402 0
M  V30 1472 C 141.239 -0.356531 -4.22599 0
M  V30 1473 N 141.63 -1.44716 -4.84656 0
M  V30 1474 C 139.928 -0.147898 -4.45755 0
M  V30 1475 C 140.629 -1.98462 -5.46798 0
M  V30 1476 N 139.605 -1.28247 -5.28255 0
M  V30 1477 H 143.407 -1.12055 -2.717 0
M  V30 1478 H 140.921 -0.711012 -1.46008 0
M  V30 1479 H 142.918 0.945701 -4.06032 0
M  V30 1480 H 141.578 1.34718 -2.95434 0
M  V30 1481 H 142.589 -1.83008 -4.84488 0
M  V30 1482 H 139.266 0.647973 -4.12441 0
M  V30 1483 H 140.656 -2.89932 -6.06126 0
M  V30 1484 N 143.376 1.44774 -0.622745 0
M  V30 1485 C 144.622 2.02968 -0.13257 0
M  V30 1486 C 144.977 1.48047 1.22881 0
M  V30 1487 O 144.27 0.651625 1.80179 0
M  V30 1488 C 144.464 3.57364 -0.0508323 0
M  V30 1489 C 144.293 4.27262 -1.40275 0
M  V30 1490 C 143.063 4.64577 -1.98737 0
M  V30 1491 C 145.261 4.58248 -2.3348 0
M  V30 1492 N 143.243 5.19404 -3.27251 0
M  V30 1493 C 144.614 5.14069 -3.46603 0
M  V30 1494 C 146.669 4.40195 -2.32664 0
M  V30 1495 C 145.372 5.53738 -4.59093 0
M  V30 1496 C 147.398 4.80907 -3.44213 0
M  V30 1497 C 146.76 5.36834 -4.56058 0
M  V30 1498 H 142.859 0.776541 -0.0922354 0
M  V30 1499 H 145.443 1.76385 -0.82441 0
M  V30 1500 H 143.614 3.83576 0.610265 0
M  V30 1501 H 145.346 4.02219 0.447397 0
M  V30 1502 H 142.101 4.48622 -1.51774 0
M  V30 1503 H 142.525 5.51301 -3.92933 0
M  V30 1504 H 147.167 3.96257 -1.47446 0
M  V30 1505 H 144.885 5.96635 -5.45025 0
M  V30 1506 H 148.471 4.68659 -3.44747 0
M  V30 1507 H 147.351 5.67755 -5.40947 0
M  V30 1508 N 144.854 0.36279 1.53368 0
M  V30 1509 C 146.103 -0.22888 2.00397 0
M  V30 1510 C 146.416 -1.50096 1.25421 0
M  V30 1511 O 147.622 -2.17106 1.63025 0
M  V30 1512 C 146.078 -0.458417 3.56969 0
M  V30 1513 C 145.686 0.798877 4.4082 0
M  V30 1514 C 147.43 -1.00789 4.12361 0
M  V30 1515 C 145.337 0.539078 5.88938 0
M  V30 1516 H 144.267 -0.089305 0.748693 0
M  V30 1517 H 146.918 0.481099 1.77081 0
M  V30 1518 H 145.3 -1.22959 3.76427 0
M  V30 1519 H 146.474 1.57262 4.33134 0
M  V30 1520 H 144.789 1.27137 3.96516 0
M  V30 1521 H 147.386 -1.21754 5.20653 0
M  V30 1522 H 147.729 -1.9692 3.66781 0
M  V30 1523 H 148.262 -0.296961 3.9669 0
M  V30 1524 H 145.001 1.47064 6.3879 0
M  V30 1525 H 144.521 -0.196222 5.99479 0
M  V30 1526 H 146.2 0.163542 6.46793 0
M  V30 1527 N 146.332 -1.57332 0.0918853 0
M  V30 1528 C 147.58 -1.93853 -0.571446 0
M  V30 1529 C 147.901 -0.974212 -1.6892 0
M  V30 1530 O 147.171 -0.0257254 -1.95883 0
M  V30 1531 H 145.751 -0.715666 -0.214082 0
M  V30 1532 H 148.413 -1.94287 0.154464 0
M  V30 1533 H 147.509 -2.96191 -0.983729 0
M  V30 1534 N 147.81 0.181792 -1.56548 0
M  V30 1535 C 149.057 0.900097 -1.81396 0
M  V30 1536 C 149.385 1.82695 -0.667281 0
M  V30 1537 O 148.64 1.92614 0.346146 0
M  V30 1538 C 148.939 1.73728 -3.12335 0
M  V30 1539 C 148.605 0.960255 -4.40556 0
M  V30 1540 C 147.267 0.745766 -4.75386 0
M  V30 1541 C 149.619 0.414477 -5.19549 0
M  V30 1542 C 146.947 -0.0257694 -5.86694 0
M  V30 1543 C 149.299 -0.343916 -6.31664 0
M  V30 1544 C 147.963 -0.569301 -6.65068 0
M  V30 1545 H 147.233 0.329369 -0.663775 0
M  V30 1546 H 149.88 0.165647 -1.90782 0
M  V30 1547 H 148.185 2.54081 -2.98245 0
M  V30 1548 H 149.882 2.29591 -3.28769 0
M  V30 1549 H 146.472 1.13746 -4.13231 0
M  V30 1550 H 150.656 0.567554 -4.93044 0
M  V30 1551 H 145.912 -0.210233 -6.11038 0
M  V30 1552 H 150.086 -0.774133 -6.92084 0
M  V30 1553 H 147.713 -1.16903 -7.51158 0
M  V30 1554 N 149.288 1.51039 0.449983 0
M  V30 1555 C 150.218 1.74379 1.55288 0
M  V30 1556 C 151.199 0.593236 1.5942 0
M  V30 1557 O 152.384 0.834625 1.7535 0
M  V30 1558 C 149.514 1.85728 2.93466 0
M  V30 1559 C 148.468 3.01078 3.04197 0
M  V30 1560 C 147.794 2.97595 4.44231 0
M  V30 1561 C 149.094 4.41254 2.7945 0
M  V30 1562 H 150.788 2.66725 1.36008 0
M  V30 1563 H 148.334 1.2835 0.652864 0
M  V30 1564 H 150.287 2.0064 3.70569 0
M  V30 1565 H 149.011 0.900207 3.13949 0
M  V30 1566 H 147.67 2.85851 2.29531 0
M  V30 1567 H 147.318 1.99691 4.61663 0
M  V30 1568 H 147.018 3.75046 4.52343 0
M  V30 1569 H 148.542 3.14583 5.23326 0
M  V30 1570 H 149.956 4.56897 3.46292 0
M  V30 1571 H 148.353 5.20315 2.98985 0
M  V30 1572 H 149.423 4.52164 1.75144 0
M  V30 1573 N 150.766 -0.704594 1.40972 0
M  V30 1574 C 151.991 -1.49858 1.43378 0
M  V30 1575 C 152.416 -1.88061 0.038184 0
M  V30 1576 O 151.774 -1.5402 -0.956425 0
M  V30 1577 C 151.822 -2.74333 2.34038 0
M  V30 1578 O 150.926 -3.7147 1.7912 0
M  V30 1579 H 150.267 -0.45139 0.486974 0
M  V30 1580 H 152.797 -0.866832 1.8533 0
M  V30 1581 H 152.807 -3.22741 2.49604 0
M  V30 1582 H 151.482 -2.45863 3.35446 0
M  V30 1583 H 150.059 -3.30363 1.72958 0
M  V30 1584 N 152.244 -1.26651 -0.937939 0
M  V30 1585 C 153.174 -1.10993 -2.05433 0
M  V30 1586 C 154.155 -0.0142161 -1.70094 0
M  V30 1587 O 155.34 -0.186837 -1.93299 0
M  V30 1588 C 152.47 -0.745561 -3.39203 0
M  V30 1589 C 151.424 -1.79337 -3.88616 0
M  V30 1590 C 150.75 -1.28324 -5.19073 0
M  V30 1591 C 152.05 -3.19553 -4.13138 0
M  V30 1592 H 153.744 -2.0438 -2.1879 0
M  V30 1593 H 151.29 -0.984041 -1.05131 0
M  V30 1594 H 153.243 -0.622888 -4.16771 0
M  V30 1595 H 151.967 0.22401 -3.25831 0
M  V30 1596 H 150.626 -1.90477 -3.13231 0
M  V30 1597 H 150.274 -0.303414 -5.02084 0
M  V30 1598 H 149.974 -1.98369 -5.53103 0
M  V30 1599 H 151.498 -1.1733 -5.99221 0
M  V30 1600 H 152.912 -3.11471 -4.81309 0
M  V30 1601 H 151.309 -3.87218 -4.58457 0
M  V30 1602 H 152.379 -3.65368 -3.18801 0
M  V30 1603 N 153.722 1.14298 -1.08507 0
M  V30 1604 C 154.669 2.19414 -0.715965 0
M  V30 1605 C 155.639 1.63399 0.298326 0
M  V30 1606 O 156.824 1.89929 0.182101 0
M  V30 1607 C 153.964 3.44845 -0.132534 0
M  V30 1608 C 153.077 4.15007 -1.19973 0
M  V30 1609 C 152.212 5.28024 -0.580048 0
M  V30 1610 C 151.251 5.9002 -1.62921 0
M  V30 1611 N 150.388 6.94485 -1.03125 0
M  V30 1612 H 155.228 2.50336 -1.61666 0
M  V30 1613 H 152.765 1.2293 -0.807882 0
M  V30 1614 H 154.723 4.16601 0.223454 0
M  V30 1615 H 153.353 3.14403 0.731467 0
M  V30 1616 H 152.405 3.41629 -1.67313 0
M  V30 1617 H 153.717 4.57178 -1.99473 0
M  V30 1618 H 152.871 6.06455 -0.172364 0
M  V30 1619 H 151.61 4.87076 0.246603 0
M  V30 1620 H 150.615 5.10291 -2.04654 0
M  V30 1621 H 151.84 6.33042 -2.45835 0
M  V30 1622 H 149.786 6.55612 -0.225711 0
M  V30 1623 H 149.703 7.35148 -1.76334 0
M  V30 1624 H 150.971 7.7679 -0.649458 0
M  V30 1625 N 155.201 0.870884 1.31352 0
M  V30 1626 C 156.426 0.495957 2.01383 0
M  V30 1627 C 156.851 -0.904324 1.64935 0
M  V30 1628 O 156.209 -1.59687 0.858466 0
M  V30 1629 C 156.257 0.661433 3.54482 0
M  V30 1630 O 155.361 -0.298851 4.11316 0
M  V30 1631 H 154.702 0.197158 0.634054 0
M  V30 1632 H 157.232 1.17455 1.67527 0
M  V30 1633 H 157.242 0.555072 4.04207 0
M  V30 1634 H 155.917 1.68246 3.8035 0
M  V30 1635 H 154.494 -0.147368 3.72609 0
M  V30 1636 N 156.679 -1.44442 0.630414 0
M  V30 1637 C 157.925 -2.02351 0.134816 0
M  V30 1638 C 158.258 -1.4947 -1.23986 0
M  V30 1639 O 157.533 -0.678475 -1.82283 0
M  V30 1640 C 157.816 -3.59898 0.120707 0
M  V30 1641 C 157.669 -4.23063 1.52767 0
M  V30 1642 C 158.988 -4.36585 -0.555127 0
M  V30 1643 H 156.107 -0.73527 0.0504646 0
M  V30 1644 H 158.749 -1.72022 0.806751 0
M  V30 1645 H 156.899 -3.85868 -0.451477 0
M  V30 1646 H 158.571 -4.08202 2.14869 0
M  V30 1647 H 156.814 -3.80586 2.08175 0
M  V30 1648 H 157.485 -5.32071 1.46984 0
M  V30 1649 H 159.961 -4.16044 -0.0685429 0
M  V30 1650 H 158.837 -5.46294 -0.534185 0
M  V30 1651 H 159.098 -4.11138 -1.62535 0
M  V30 1652 N 158.157 -0.370918 -1.53173 0
M  V30 1653 C 159.067 0.480823 -2.2962 0
M  V30 1654 C 160.083 1.08789 -1.35798 0
M  V30 1655 O 161.259 1.09768 -1.68858 0
M  V30 1656 C 158.324 1.60227 -3.07454 0
M  V30 1657 C 157.385 1.0222 -4.16953 0
M  V30 1658 C 156.618 2.0902 -4.91066 0
M  V30 1659 O 156.841 3.30222 -4.65091 0
M  V30 1660 O 155.775 1.71778 -5.76867 0
M  V30 1661 H 159.601 -0.141421 -3.03371 0
M  V30 1662 H 157.186 -0.135146 -1.48787 0
M  V30 1663 H 159.068 2.25417 -3.56041 0
M  V30 1664 H 157.743 2.20982 -2.36535 0
M  V30 1665 H 156.65 0.334064 -3.72605 0
M  V30 1666 H 157.983 0.459131 -4.90054 0
M  V30 1667 N 159.635 1.57281 -0.100228 0
M  V30 1668 C 161.051 1.57527 0.256416 0
M  V30 1669 C 161.251 1.11173 1.68056 0
M  V30 1670 O 160.307 0.79053 2.39806 0
M  V30 1671 C 161.62 3.00673 0.0401747 0
M  V30 1672 C 163.168 3.12815 0.107528 0
M  V30 1673 C 163.643 4.57929 -0.0807834 0
M  V30 1674 N 165.134 4.63193 -0.0261207 0
M  V30 1675 C 165.869 5.73212 -0.146999 0
M  V30 1676 N 165.365 6.92047 -0.322999 0
M  V30 1677 N 167.158 5.62031 -0.0879044 0
M  V30 1678 H 159.309 1.85718 -1.03065 0
M  V30 1679 H 161.572 0.857446 -0.404339 0
M  V30 1680 H 161.278 3.38804 -0.943649 0
M  V30 1681 H 161.152 3.69042 0.780262 0
M  V30 1682 H 163.539 2.74554 1.08186 0
M  V30 1683 H 163.62 2.47028 -0.664134 0
M  V30 1684 H 163.264 4.96886 -1.05201 0
M  V30 1685 H 163.194 5.21783 0.710635 0
M  V30 1686 H 165.685 3.77748 0.107161 0
M  V30 1687 H 165.998 7.7173 -0.406608 0
M  V30 1688 H 164.343 6.94074 -0.358733 0
M  V30 1689 H 167.534 4.68075 0.048498 0
M  V30 1690 H 167.707 6.47734 -0.185557 0
M  V30 1691 N 161.113 -0.173488 1.56642 0
M  V30 1692 C 162.338 -0.910149 1.86363 0
M  V30 1693 C 162.763 -1.75132 0.686318 0
M  V30 1694 O 162.121 -1.77595 -0.364643 0
M  V30 1695 C 162.169 -1.76447 3.14482 0
M  V30 1696 O 161.273 -2.86584 2.96553 0
M  V30 1697 H 160.614 -0.255086 0.613047 0
M  V30 1698 H 163.144 -0.172283 2.03873 0
M  V30 1699 H 163.154 -2.16483 3.45831 0
M  V30 1700 H 161.829 -1.14658 3.99783 0
M  V30 1701 H 160.406 -2.50146 2.76553 0
M  V30 1702 N 162.591 -1.51276 -0.441967 0
M  V30 1703 C 163.868 -1.54252 -1.20273 0
M  V30 1704 C 164.248 -0.30408 -2.08898 0
M  V30 1705 O 163.596 0.711084 -2.17154 0
M  V30 1706 C 163.806 -2.85406 -2.00859 0
M  V30 1707 C 165.154 -3.37181 -2.58059 0
M  V30 1708 O 166.178 -2.86925 -2.11074 0
M  V30 1709 O 165.037 -4.24858 -3.43741 0
M  V30 1710 H 162.131 -0.619969 -0.547328 0
M  V30 1711 H 164.677 -1.63586 -0.451413 0
M  V30 1712 H 163.449 -3.67003 -1.35736 0
M  V30 1713 H 163.072 -2.79213 -2.83065 0
M  V30 1714 N 164.069 0.697108 -1.41344 0
M  V30 1715 C 165.032 1.79281 -1.42797 0
M  V30 1716 C 166.032 1.57607 -0.318837 0
M  V30 1717 O 167.222 1.64309 -0.578642 0
M  V30 1718 C 164.354 3.17632 -1.23785 0
M  V30 1719 H 165.547 1.79385 -2.40335 0
M  V30 1720 H 163.1 0.904582 -1.27464 0
M  V30 1721 H 163.835 3.23167 -0.270814 0
M  V30 1722 H 163.62 3.34765 -2.04144 0
M  V30 1723 H 165.11 3.97617 -1.27633 0
M  V30 1724 N 165.547 1.27147 0.931209 0
M  V30 1725 C 166.795 1.13055 1.6752 0
M  V30 1726 C 167.116 -0.324791 1.92276 0
M  V30 1727 O 166.386 -1.22775 1.52654 0
M  V30 1728 H 164.966 0.415391 0.620854 0
M  V30 1729 H 167.628 1.59623 1.11833 0
M  V30 1730 H 166.724 1.65694 2.64485 0
M  V30 1731 N 167.025 -1.13721 1.09112 0
M  V30 1732 C 168.441 -1.36914 0.820174 0
M  V30 1733 C 168.641 -1.93356 -0.567079 0
M  V30 1734 O 167.697 -2.15093 -1.32255 0
M  V30 1735 C 169.01 -2.3235 1.90877 0
M  V30 1736 C 170.558 -2.45973 1.93562 0
M  V30 1737 C 171.033 -3.44714 3.01556 0
M  V30 1738 N 172.524 -3.52263 3.00775 0
M  V30 1739 C 173.259 -4.28536 3.80978 0
M  V30 1740 N 172.755 -5.07991 4.71081 0
M  V30 1741 N 174.548 -4.23804 3.69251 0
M  V30 1742 H 166.699 -0.754348 1.98553 0
M  V30 1743 H 168.962 -0.3944 0.862063 0
M  V30 1744 H 168.668 -1.98027 2.90651 0
M  V30 1745 H 168.542 -3.32332 1.78424 0
M  V30 1746 H 170.929 -2.79584 0.944286 0
M  V30 1747 H 171.01 -1.45926 2.10093 0
M  V30 1748 H 170.654 -3.11835 4.00901 0
M  V30 1749 H 170.584 -4.44558 2.82269 0
M  V30 1750 H 173.075 -2.95567 2.35475 0
M  V30 1751 H 173.388 -5.63487 5.28869 0
M  V30 1752 H 171.733 -5.07235 4.75119 0
M  V30 1753 H 174.924 -3.60806 2.98222 0
M  V30 1754 H 175.097 -4.82995 4.31995 0
M  V30 1755 N 168.503 -0.877838 -1.30888 0
M  V30 1756 C 169.733 -0.506678 -2.00291 0
M  V30 1757 C 170.141 0.907449 -1.66018 0
M  V30 1758 O 169.484 1.60719 -0.88967 0
M  V30 1759 C 169.546 -0.59323 -3.54572 0
M  V30 1760 C 169.21 -1.97038 -4.12341 0
M  V30 1761 C 170.207 -2.93889 -4.28865 0
M  V30 1762 C 167.892 -2.27383 -4.47886 0
M  V30 1763 C 169.886 -4.19224 -4.80136 0
M  V30 1764 C 167.573 -3.52965 -4.98857 0
M  V30 1765 C 168.571 -4.48701 -5.14934 0
M  V30 1766 O 168.259 -5.72056 -5.64808 0
M  V30 1767 H 167.991 -0.1951 -0.647234 0
M  V30 1768 H 170.545 -1.18301 -1.6791 0
M  V30 1769 H 168.775 0.140057 -3.86446 0
M  V30 1770 H 170.464 -0.234372 -4.05223 0
M  V30 1771 H 171.23 -2.71756 -4.01714 0
M  V30 1772 H 167.109 -1.53639 -4.34645 0
M  V30 1773 H 170.653 -4.93956 -4.92599 0
M  V30 1774 H 166.55 -3.74939 -5.25443 0
M  V30 1775 H 167.318 -5.74337 -5.83163 0
M  V30 1776 N 169.982 1.44106 -0.638065 0
M  V30 1777 C 171.228 2.02815 -0.15409 0
M  V30 1778 C 171.583 1.49342 1.21304 0
M  V30 1779 O 170.876 0.670699 1.79478 0
M  V30 1780 C 171.07 3.5729 -0.0887327 0
M  V30 1781 C 170.899 4.2575 -1.44799 0
M  V30 1782 C 169.669 4.62443 -2.03653 0
M  V30 1783 C 171.867 4.55746 -2.38327 0
M  V30 1784 N 169.849 5.15903 -3.32741 0
M  V30 1785 C 171.22 5.10364 -3.52036 0
M  V30 1786 C 173.275 4.37703 -2.3732 0
M  V30 1787 C 171.978 5.48837 -4.64941 0
M  V30 1788 C 174.004 4.77229 -3.49294 0
M  V30 1789 C 173.366 5.31966 -4.61726 0
M  V30 1790 H 169.465 0.775519 -0.100466 0
M  V30 1791 H 172.049 1.755 -0.843071 0
M  V30 1792 H 170.22 3.84201 0.569548 0
M  V30 1793 H 171.952 4.02671 0.404711 0
M  V30 1794 H 168.707 4.46987 -1.56523 0
M  V30 1795 H 169.131 5.47102 -3.98758 0
M  V30 1796 H 173.773 3.94671 -1.51641 0
M  V30 1797 H 171.491 5.9082 -5.51323 0
M  V30 1798 H 175.077 4.64976 -3.49698 0
M  V30 1799 H 173.957 5.61986 -5.46939 0
M  V30 1800 N 171.46 0.379036 1.52974 0
M  V30 1801 C 172.7 -0.206325 2.03356 0
M  V30 1802 C 173.064 -1.44892 1.25977 0
M  V30 1803 O 174.265 -2.11078 1.66432 0
M  V30 1804 C 172.536 -0.477887 3.54191 0
M  V30 1805 S 174.095 -1.035 4.26419 0
M  V30 1806 H 170.913 -0.0590259 0.708546 0
M  V30 1807 H 173.515 0.525013 1.88319 0
M  V30 1808 H 172.219 0.433745 4.08101 0
M  V30 1809 H 171.75 -1.23793 3.73415 0
M  V30 1810 H 173.765 -2.31821 4.38718 0
M  V30 1811 N 172.938 -1.57226 0.108567 0
M  V30 1812 C 173.87 -2.11809 -0.875752 0
M  V30 1813 C 174.883 -1.05839 -1.23701 0
M  V30 1814 O 176.072 -1.33245 -1.18778 0
M  V30 1815 C 173.172 -2.59411 -2.18081 0
M  V30 1816 C 172.345 -3.89364 -1.99284 0
M  V30 1817 C 171.404 -4.22672 -3.13424 0
M  V30 1818 O 170.43 -4.91668 -2.86795 0
M  V30 1819 N 171.632 -3.79154 -4.3957 0
M  V30 1820 H 174.397 -2.9689 -0.409477 0
M  V30 1821 H 171.958 -1.61721 -0.076158 0
M  V30 1822 H 173.95 -2.7873 -2.93414 0
M  V30 1823 H 172.52 -1.79268 -2.5609 0
M  V30 1824 H 171.74 -3.79059 -1.08203 0
M  V30 1825 H 173.028 -4.74358 -1.84017 0
M  V30 1826 H 172.426 -3.23486 -4.64083 0
M  V30 1827 H 170.983 -4.03602 -5.11809 0
M  V30 1828 N 174.416 0.165178 -1.56732 0
M  V30 1829 C 175.662 0.882112 -1.82611 0
M  V30 1830 C 175.995 1.81628 -0.687378 0
M  V30 1831 O 175.27 1.92009 0.310267 0
M  V30 1832 C 175.553 1.67245 -3.18906 0
M  V30 1833 C 175.406 0.760987 -4.43316 0
M  V30 1834 C 176.725 2.63884 -3.52212 0
M  V30 1835 H 173.844 0.319242 -0.664269 0
M  V30 1836 H 176.486 0.148052 -1.89422 0
M  V30 1837 H 174.636 2.29824 -3.1323 0
M  V30 1838 H 176.308 0.147596 -4.61064 0
M  V30 1839 H 174.551 0.0694102 -4.33744 0
M  V30 1840 H 175.222 1.34962 -5.35247 0
M  V30 1841 H 177.698 2.11429 -3.58381 0
M  V30 1842 H 176.574 3.16245 -4.48643 0
M  V30 1843 H 176.835 3.44377 -2.77231 0
M  V30 1844 N 175.894 1.51508 0.433938 0
M  V30 1845 C 176.804 1.75917 1.5521 0
M  V30 1846 C 177.82 0.643545 1.61662 0
M  V30 1847 O 178.996 0.926183 1.7884 0
M  V30 1848 C 176.061 1.88213 2.91164 0
M  V30 1849 C 175.122 3.12074 2.94802 0
M  V30 1850 C 174.355 3.23774 4.24271 0
M  V30 1851 O 174.578 2.4133 5.16833 0
M  V30 1852 O 173.512 4.16774 4.34262 0
M  V30 1853 H 177.338 2.70777 1.37527 0
M  V30 1854 H 174.923 1.36051 0.617293 0
M  V30 1855 H 176.805 1.98267 3.71845 0
M  V30 1856 H 175.48 0.965413 3.08968 0
M  V30 1857 H 174.387 3.07497 2.13065 0
M  V30 1858 H 175.72 4.03446 2.81943 0
M  V30 1859 N 177.372 -0.689602 1.41712 0
M  V30 1860 C 178.649 -1.44457 1.31877 0
M  V30 1861 C 179.029 -2.11039 -0.0508537 0
M  V30 1862 O 178.377 -2.02138 -1.06547 0
M  V30 1863 C 178.587 -2.45913 2.47645 0
M  V30 1864 C 179.935 -3.10991 2.89084 0
M  V30 1865 O 180.959 -2.56238 2.47428 0
M  V30 1866 O 179.818 -4.10174 3.61137 0
M  V30 1867 H 176.912 -0.64362 0.519309 0
M  V30 1868 H 179.458 -0.719576 1.53689 0
M  V30 1869 H 178.23 -1.95409 3.39015 0
M  V30 1870 H 177.853 -3.25913 2.27742 0
M  V30 1871 N 178.85 -1.27639 -0.924453 0
M  V30 1872 C 180.098 -1.13941 -1.66918 0
M  V30 1873 C 180.419 0.314589 -1.92446 0
M  V30 1874 O 179.689 1.21964 -1.53303 0
M  V30 1875 H 178.269 -0.418678 -0.618642 0
M  V30 1876 H 180.931 -1.60213 -1.10985 0
M  V30 1877 H 180.027 -1.67094 -2.63602 0
M  V30 1878 N 180.328 1.1314 -1.09713 0
M  V30 1879 C 181.576 1.84119 -0.833338 0
M  V30 1880 C 181.897 1.84097 0.642904 0
M  V30 1881 O 181.167 1.29881 1.46655 0
M  V30 1882 H 179.747 0.681766 -0.305293 0
M  V30 1883 H 182.409 1.37038 -1.38588 0
M  V30 1884 H 181.505 2.88543 -1.18951 0
M  V30 1885 N 181.806 0.884767 1.30421 0
M  V30 1886 C 182.716 0.355398 2.31892 0
M  V30 1887 C 183.732 -0.542261 1.65335 0
M  V30 1888 O 184.908 -0.435432 1.96637 0
M  V30 1889 C 181.973 -0.421661 3.44126 0
M  V30 1890 C 181.034 0.505727 4.26311 0
M  V30 1891 C 180.267 -0.234343 5.33185 0
M  V30 1892 O 180.49 -1.46045 5.51386 0
M  V30 1893 O 179.424 0.415443 6.00465 0
M  V30 1894 H 183.25 1.19685 2.79122 0
M  V30 1895 H 180.835 0.648596 1.34587 0
M  V30 1896 H 182.717 -0.861641 4.12497 0
M  V30 1897 H 181.392 -1.23942 2.99032 0
M  V30 1898 H 180.299 0.994513 3.60639 0
M  V30 1899 H 181.632 1.28948 4.75009 0
M  V30 1900 N 183.284 -1.43765 0.645699 0
M  V30 1901 C 184.512 -2.06253 0.163556 0
M  V30 1902 C 184.927 -1.48352 -1.16778 0
M  V30 1903 O 184.284 -0.611932 -1.71935 0
M  V30 1904 C 184.335 -3.61453 0.0583186 0
M  V30 1905 O 184.056 -4.172 1.33702 0
M  V30 1906 C 185.557 -4.41002 -0.450795 0
M  V30 1907 H 182.777 -0.665413 0.0864077 0
M  V30 1908 H 185.321 -1.84396 0.884222 0
M  V30 1909 H 183.476 -3.82522 -0.612865 0
M  V30 1910 H 183.89 -5.10791 1.19131 0
M  V30 1911 H 185.364 -5.49966 -0.473403 0
M  V30 1912 H 185.841 -4.13488 -1.48068 0
M  V30 1913 H 186.447 -4.24886 0.187637 0
M  V30 1914 N 184.763 -0.387143 -1.52771 0
M  V30 1915 C 185.673 0.456442 -2.30117 0
M  V30 1916 C 186.689 1.07342 -1.36944 0
M  V30 1917 O 187.865 1.07971 -1.70013 0
M  V30 1918 C 184.93 1.56957 -3.09136 0
M  V30 1919 C 183.991 0.977916 -4.18014 0
M  V30 1920 C 183.224 2.038 -4.93256 0
M  V30 1921 O 183.447 3.25271 -4.68567 0
M  V30 1922 O 182.381 1.6565 -5.78657 0
M  V30 1923 H 186.207 -0.17359 -3.03203 0
M  V30 1924 H 183.792 -0.150919 -1.48636 0
M  V30 1925 H 185.674 2.21628 -3.58412 0
M  V30 1926 H 184.349 2.18461 -2.38865 0
M  V30 1927 H 183.256 0.294525 -3.72939 0
M  V30 1928 H 184.589 0.407128 -4.90513 0
M  V30 1929 N 186.241 1.57166 -0.116904 0
M  V30 1930 C 187.49 1.94298 0.541407 0
M  V30 1931 C 187.803 1.00236 1.67964 0
M  V30 1932 O 189.009 1.26826 2.40057 0
M  V30 1933 C 187.465 3.45306 1.01449 0
M  V30 1934 C 187.073 4.47899 -0.0951738 0
M  V30 1935 C 188.817 3.91361 1.6443 0
M  V30 1936 C 186.724 5.90083 0.394491 0
M  V30 1937 H 185.654 0.725308 0.206019 0
M  V30 1938 H 188.305 1.82446 -0.196419 0
M  V30 1939 H 186.687 3.52385 1.80667 0
M  V30 1940 H 187.861 4.52486 -0.871374 0
M  V30 1941 H 186.176 4.11583 -0.631505 0
M  V30 1942 H 188.773 4.95004 2.02176 0
M  V30 1943 H 189.116 3.3122 2.52189 0
M  V30 1944 H 189.649 3.87073 0.917559 0
M  V30 1945 H 186.388 6.53974 -0.447004 0
M  V30 1946 H 185.908 5.88921 1.13722 0
M  V30 1947 H 187.587 6.41307 0.856399 0
M  V30 1948 N 187.719 -0.156864 1.56817 0
M  V30 1949 C 188.944 -0.890331 1.87318 0
M  V30 1950 C 189.369 -1.74394 0.704855 0
M  V30 1951 O 188.727 -1.77972 -0.345786 0
M  V30 1952 C 188.775 -1.73102 3.16336 0
M  V30 1953 O 187.879 -2.83422 2.99576 0
M  V30 1954 H 187.22 -0.24857 0.615718 0
M  V30 1955 H 189.75 -0.150649 2.04045 0
M  V30 1956 H 189.76 -2.12803 3.48107 0
M  V30 1957 H 188.435 -1.10412 4.00976 0
M  V30 1958 H 187.012 -2.47199 2.7919 0
M  V30 1959 N 189.197 -1.51736 -0.425897 0
M  V30 1960 C 190.129 -1.70083 -1.53638 0
M  V30 1961 C 191.142 -0.581349 -1.52066 0
M  V30 1962 O 192.331 -0.856017 -1.56635 0
M  V30 1963 C 189.431 -1.71078 -2.9255 0
M  V30 1964 C 188.604 -2.99795 -3.185 0
M  V30 1965 C 187.663 -2.92825 -4.37196 0
M  V30 1966 O 186.689 -3.66756 -4.35291 0
M  V30 1967 N 187.891 -2.0946 -5.41393 0
M  V30 1968 H 190.656 -2.65882 -1.383 0
M  V30 1969 H 188.217 -1.49765 -0.614988 0
M  V30 1970 H 190.209 -1.63969 -3.69995 0
M  V30 1971 H 188.779 -0.828242 -3.01428 0
M  V30 1972 H 187.999 -3.20684 -2.2925 0
M  V30 1973 H 189.287 -3.84977 -3.32671 0
M  V30 1974 H 188.685 -1.48792 -5.45781 0
M  V30 1975 H 187.242 -2.08221 -6.17647 0
M  V30 1976 N 190.675 0.682077 -1.42076 0
M  V30 1977 C 192.086 1.26246 -1.37546 0
M  V30 1978 C 192.437 1.96092 -0.0651481 0
M  V30 1979 O 191.562 1.99587 0.836297 0
M  V30 1980 C 192.157 2.29594 -2.49143 0
M  V30 1981 C 190.716 2.83175 -2.47969 0
M  V30 1982 C 189.863 1.57395 -2.28303 0
M  V30 1983 H 192.814 0.475937 -1.51395 0
M  V30 1984 H 192.835 3.11175 -2.18976 0
M  V30 1985 H 192.347 1.78729 -3.44496 0
M  V30 1986 H 190.448 3.3818 -1.56413 0
M  V30 1987 H 190.561 3.32687 -3.44755 0
M  V30 1988 H 188.925 1.83699 -1.76428 0
M  V30 1989 H 189.708 1.08507 -3.25701 0
M  V30 1990 N 192.153 1.28127 0.917671 0
M  V30 1991 C 193.399 1.15223 1.66888 0
M  V30 1992 C 193.732 -0.299293 1.9188 0
M  V30 1993 O 193.007 -1.21805 1.51637 0
M  V30 1994 C 193.29 1.94706 3.02922 0
M  V30 1995 C 193.143 3.47898 2.85109 0
M  V30 1996 C 194.462 1.75939 4.03402 0
M  V30 1997 H 191.581 0.419946 0.605652 0
M  V30 1998 H 194.223 1.57398 1.06423 0
M  V30 1999 H 192.373 1.58864 3.54534 0
M  V30 2000 H 194.045 3.93624 2.40537 0
M  V30 2001 H 192.288 3.7373 2.20246 0
M  V30 2002 H 192.959 3.98765 3.81694 0
M  V30 2003 H 195.435 2.07209 3.60837 0
M  V30 2004 H 194.311 2.33931 4.96556 0
M  V30 2005 H 194.572 0.709877 4.36364 0
M  V30 2006 N 193.631 -1.12557 1.10312 0
M  V30 2007 C 194.877 -1.84515 0.855901 0
M  V30 2008 C 195.232 -1.82409 -0.611936 0
M  V30 2009 O 194.525 -1.25778 -1.44535 0
M  V30 2010 C 194.719 -3.31462 1.33669 0
M  V30 2011 C 194.548 -3.47879 2.84974 0
M  V30 2012 C 193.318 -3.61589 3.52961 0
M  V30 2013 C 195.516 -3.43152 3.83081 0
M  V30 2014 N 193.498 -3.66359 4.926 0
M  V30 2015 C 194.869 -3.54401 5.08724 0
M  V30 2016 C 196.924 -3.2661 3.75807 0
M  V30 2017 C 195.627 -3.50815 6.2795 0
M  V30 2018 C 197.653 -3.24335 4.94531 0
M  V30 2019 C 197.015 -3.36144 6.19021 0
M  V30 2020 H 193.114 -0.690967 0.366182 0
M  V30 2021 H 195.698 -1.34763 1.40524 0
M  V30 2022 H 193.869 -3.7976 0.814686 0
M  V30 2023 H 195.601 -3.91272 1.03385 0
M  V30 2024 H 192.356 -3.63652 3.03404 0
M  V30 2025 H 192.78 -3.72411 5.65366 0
M  V30 2026 H 197.422 -3.16375 2.80476 0
M  V30 2027 H 195.14 -3.5982 7.23571 0
M  V30 2028 H 198.726 -3.12719 4.9061 0
M  V30 2029 H 197.606 -3.34357 7.09348 0
M  V30 2030 N 195.109 -0.891671 -1.2995 0
M  V30 2031 C 196.039 -0.379797 -2.30391 0
M  V30 2032 C 197.02 0.540919 -1.6127 0
M  V30 2033 O 198.205 0.453352 -1.88834 0
M  V30 2034 C 195.335 0.400654 -3.44981 0
M  V30 2035 C 194.289 -0.428905 -4.25846 0
M  V30 2036 C 193.615 0.478557 -5.32554 0
M  V30 2037 C 194.915 -1.67458 -4.94727 0
M  V30 2038 H 196.609 -1.21914 -2.73454 0
M  V30 2039 H 194.155 -0.587675 -1.31462 0
M  V30 2040 H 196.108 0.769434 -4.14316 0
M  V30 2041 H 194.832 1.27371 -3.0074 0
M  V30 2042 H 193.491 -0.779911 -3.58208 0
M  V30 2043 H 193.139 1.34951 -4.84559 0
M  V30 2044 H 192.839 -0.0727433 -5.87555 0
M  V30 2045 H 194.363 0.843705 -6.04743 0
M  V30 2046 H 195.777 -1.376 -5.56542 0
M  V30 2047 H 194.174 -2.16659 -5.59624 0
M  V30 2048 H 195.244 -2.41518 -4.20473 0
M  V30 2049 N 196.587 1.43421 -0.653314 0
M  V30 2050 C 197.815 2.06163 -0.174491 0
M  V30 2051 C 198.23 1.48969 1.1599 0
M  V30 2052 O 197.587 0.621042 1.71608 0
M  V30 2053 C 197.638 3.61417 -0.0774865 0
M  V30 2054 O 197.359 4.16485 -1.35912 0
M  V30 2055 C 198.86 4.41235 0.427402 0
M  V30 2056 H 196.08 0.664946 -0.0899353 0
M  V30 2057 H 198.624 1.83924 -0.893988 0
M  V30 2058 H 196.779 3.82841 0.59257 0
M  V30 2059 H 197.193 5.10153 -1.21839 0
M  V30 2060 H 198.667 5.5021 0.44423 0
M  V30 2061 H 199.144 4.14268 1.45873 0
M  V30 2062 H 199.75 4.2478 -0.210167 0
M  V30 2063 N 198.065 0.39524 1.52563 0
M  V30 2064 C 199.311 -0.185318 2.01952 0
M  V30 2065 C 199.644 -1.45964 1.28095 0
M  V30 2066 O 198.919 -1.90689 0.38315 0
M  V30 2067 C 199.202 -0.447193 3.57312 0
M  V30 2068 C 199.055 0.842828 4.41833 0
M  V30 2069 C 200.374 -1.23529 4.22408 0
M  V30 2070 H 197.493 -0.0658788 0.73405 0
M  V30 2071 H 200.135 0.525975 1.82575 0
M  V30 2072 H 198.285 -1.05312 3.73954 0
M  V30 2073 H 199.957 1.4795 4.36931 0
M  V30 2074 H 198.2 1.45686 4.08605 0
M  V30 2075 H 198.871 0.614165 5.48573 0
M  V30 2076 H 201.347 -0.722445 4.0978 0
M  V30 2077 H 200.223 -1.38727 5.3108 0
M  V30 2078 H 200.484 -2.25213 3.80436 0
M  V30 2079 N 199.544 -1.57102 0.125237 0
M  V30 2080 C 200.454 -2.19191 -0.8362 0
M  V30 2081 C 201.47 -1.16985 -1.28805 0
M  V30 2082 O 202.646 -1.49479 -1.34974 0
M  V30 2083 C 199.711 -2.78407 -2.06617 0
M  V30 2084 C 198.772 -3.9567 -1.66565 0
M  V30 2085 C 198.005 -4.52052 -2.83698 0
M  V30 2086 O 198.228 -4.07326 -3.99302 0
M  V30 2087 O 197.162 -5.42645 -2.60423 0
M  V30 2088 H 200.988 -3.01816 -0.337776 0
M  V30 2089 H 198.573 -1.4906 -0.100695 0
M  V30 2090 H 200.455 -3.16129 -2.7864 0
M  V30 2091 H 199.13 -1.9881 -2.55453 0
M  V30 2092 H 198.037 -3.62705 -0.916296 0
M  V30 2093 H 199.37 -4.76722 -1.22464 0
M  V30 2094 N 201.022 0.148545 -1.56898 0
M  V30 2095 C 202.27 0.859717 -1.82902 0
M  V30 2096 C 202.591 1.81775 -0.70588 0
M  V30 2097 O 201.861 1.93994 0.272586 0
M  V30 2098 H 200.441 0.320469 -0.674766 0
M  V30 2099 H 203.103 0.142918 -1.94375 0
M  V30 2100 H 202.199 1.4229 -2.77777 0
M  V30 2101 N 202.5 1.5196 0.417844 0
M  V30 2102 C 203.746 1.65836 1.16732 0
M  V30 2103 C 204.079 0.382881 1.90388 0
M  V30 2104 O 203.354 -0.618368 1.84408 0
M  V30 2105 C 203.637 2.87466 2.16876 0
M  V30 2106 C 203.49 4.25041 1.47174 0
M  V30 2107 C 204.809 3.04613 3.17646 0
M  V30 2108 H 201.928 0.603515 0.423011 0
M  V30 2109 H 204.57 1.84494 0.454105 0
M  V30 2110 H 202.72 2.71689 2.777 0
M  V30 2111 H 204.392 4.52527 0.895376 0
M  V30 2112 H 202.635 4.26843 0.773806 0
M  V30 2113 H 203.306 5.06176 2.20204 0
M  V30 2114 H 205.782 3.1923 2.66892 0
M  V30 2115 H 204.658 3.91247 3.8499 0
M  V30 2116 H 204.919 2.17541 3.84874 0
M  V30 2117 N 203.978 -0.674533 1.42435 0
M  V30 2118 C 205.389 -1.25514 1.38214 0
M  V30 2119 C 205.74 -1.96055 0.0755464 0
M  V30 2120 O 204.865 -2.00028 -0.8257 0
M  V30 2121 C 205.46 -2.28269 2.50357 0
M  V30 2122 C 204.019 -2.81856 2.49467 0
M  V30 2123 C 203.166 -1.56182 2.29134 0
M  V30 2124 H 206.117 -0.467902 1.51646 0
M  V30 2125 H 206.138 -3.10009 2.20624 0
M  V30 2126 H 205.65 -1.769 3.45439 0
M  V30 2127 H 203.751 -3.37346 1.58204 0
M  V30 2128 H 203.864 -3.30854 3.46515 0
M  V30 2129 H 202.228 -1.82761 1.774 0
M  V30 2130 H 203.011 -1.06778 3.26272 0
M  V30 2131 N 205.456 -1.28612 -0.910864 0
M  V30 2132 C 206.703 -1.15934 -1.66029 0
M  V30 2133 C 207.031 0.291483 -1.92303 0
M  V30 2134 O 206.286 1.22816 -1.52364 0
M  V30 2135 C 206.585 -1.90624 -3.0232 0
M  V30 2136 C 206.251 -3.40405 -2.95695 0
M  V30 2137 C 204.913 -3.81255 -2.93595 0
M  V30 2138 C 207.265 -4.359 -2.85728 0
M  V30 2139 C 204.593 -5.15936 -2.79334 0
M  V30 2140 C 206.945 -5.70657 -2.73007 0
M  V30 2141 C 205.609 -6.10779 -2.69267 0
M  V30 2142 H 204.879 -0.424234 -0.607541 0
M  V30 2143 H 207.526 -1.5942 -1.06101 0
M  V30 2144 H 205.831 -1.39696 -3.6605 0
M  V30 2145 H 207.528 -1.78228 -3.59215 0
M  V30 2146 H 204.118 -3.07927 -2.98125 0
M  V30 2147 H 208.302 -4.053 -2.86436 0
M  V30 2148 H 203.558 -5.46146 -2.74835 0
M  V30 2149 H 207.732 -6.44311 -2.64264 0
M  V30 2150 H 205.359 -7.1509 -2.57974 0
M  V30 2151 N 206.934 1.1197 -1.10907 0
M  V30 2152 C 208.181 1.83588 -0.854507 0
M  V30 2153 C 208.509 1.84357 0.6199 0
M  V30 2154 O 207.764 1.28809 1.47332 0
M  V30 2155 C 208.063 3.30749 -1.35425 0
M  V30 2156 C 207.729 3.50146 -2.84093 0
M  V30 2157 C 206.391 3.55148 -3.2469 0
M  V30 2158 C 208.743 3.56857 -3.79872 0
M  V30 2159 C 206.071 3.6441 -4.59806 0
M  V30 2160 C 208.423 3.6765 -5.14797 0
M  V30 2161 C 207.087 3.7091 -5.54961 0
M  V30 2162 H 206.357 0.671795 -0.312686 0
M  V30 2163 H 209.004 1.32091 -1.38652 0
M  V30 2164 H 207.309 3.84703 -0.742361 0
M  V30 2165 H 209.006 3.8464 -1.1337 0
M  V30 2166 H 205.596 3.46919 -2.51685 0
M  V30 2167 H 209.78 3.52258 -3.49611 0
M  V30 2168 H 205.036 3.65208 -4.9034 0
M  V30 2169 H 209.21 3.71786 -5.88853 0
M  V30 2170 H 206.837 3.7784 -6.59652 0
M  V30 2171 N 208.412 0.89855 1.29475 0
M  V30 2172 C 209.64 0.539261 1.99749 0
M  V30 2173 C 210.055 -0.875716 1.67262 0
M  V30 2174 O 209.412 -1.57786 0.917049 0
M  V30 2175 C 209.463 0.72061 3.54245 0
M  V30 2176 O 209.184 2.07989 3.8558 0
M  V30 2177 C 210.685 0.366118 4.41786 0
M  V30 2178 H 207.905 0.207047 0.638258 0
M  V30 2179 H 210.449 1.20758 1.65039 0
M  V30 2180 H 208.604 0.0994862 3.87272 0
M  V30 2181 H 209.018 2.10841 4.80257 0
M  V30 2182 H 210.492 0.543848 5.49314 0
M  V30 2183 H 210.969 -0.696763 4.33638 0
M  V30 2184 H 211.575 0.964135 4.14228 0
M  V30 2185 N 209.89 -1.43072 0.660911 0
M  V30 2186 C 211.136 -2.0202 0.177708 0
M  V30 2187 C 211.469 -1.52066 -1.20787 0
M  V30 2188 O 210.744 -0.716987 -1.80802 0
M  V30 2189 C 211.027 -3.59561 0.197019 0
M  V30 2190 C 210.88 -4.19727 1.61706 0
M  V30 2191 C 212.199 -4.37664 -0.462396 0
M  V30 2192 H 209.318 -0.734034 0.0660494 0
M  V30 2193 H 211.96 -1.70272 0.843058 0
M  V30 2194 H 210.11 -3.86739 -0.369527 0
M  V30 2195 H 211.782 -4.03553 2.23479 0
M  V30 2196 H 210.025 -3.76084 2.16201 0
M  V30 2197 H 210.696 -5.28834 1.58237 0
M  V30 2198 H 213.172 -4.16095 0.0197215 0
M  V30 2199 H 212.048 -5.47305 -0.418188 0
M  V30 2200 H 212.309 -4.14493 -1.53778 0
M  V30 2201 N 211.368 -0.403325 -1.52352 0
M  V30 2202 C 212.278 0.432009 -2.30588 0
M  V30 2203 C 213.294 1.05884 -1.38075 0
M  V30 2204 O 214.47 1.06161 -1.71148 0
M  V30 2205 C 211.535 1.53669 -3.10784 0
M  V30 2206 C 210.596 0.933525 -4.19027 0
M  V30 2207 C 209.829 1.98557 -4.9539 0
M  V30 2208 O 210.052 3.20283 -4.71991 0
M  V30 2209 O 208.986 1.59504 -5.80381 0
M  V30 2210 H 212.812 -0.205739 -3.03002 0
M  V30 2211 H 210.397 -0.166675 -1.48467 0
M  V30 2212 H 212.279 2.17814 -3.60742 0
M  V30 2213 H 210.954 2.15915 -2.41169 0
M  V30 2214 H 209.861 0.254954 -3.7323 0
M  V30 2215 H 211.194 0.35508 -4.90918 0
M  V30 2216 N 212.846 1.57033 -0.133567 0
M  V30 2217 C 214.257 1.82593 0.389464 0
M  V30 2218 C 214.608 1.05156 1.6564 0
M  V30 2219 O 213.733 0.292644 2.14412 0
M  V30 2220 C 214.328 3.31204 0.713377 0
M  V30 2221 C 212.887 3.57393 1.18098 0
M  V30 2222 C 212.034 2.76598 0.197126 0
M  V30 2223 H 214.985 1.54598 -0.358481 0
M  V30 2224 H 215.006 3.46627 1.56939 0
M  V30 2225 H 214.518 3.87537 -0.2089 0
M  V30 2226 H 212.619 3.06433 2.11966 0
M  V30 2227 H 212.732 4.65915 1.11624 0
M  V30 2228 H 211.096 2.45257 0.687088 0
M  V30 2229 H 211.879 3.35697 -0.718504 0
M  V30 2230 N 214.325 -0.140222 1.56975 0
M  V30 2231 C 215.272 -1.17292 1.98774 0
M  V30 2232 C 216.242 -1.4232 0.856408 0
M  V30 2233 O 217.427 -1.54541 1.119 0
M  V30 2234 C 214.567 -2.49973 2.37923 0
M  V30 2235 C 213.68 -2.32062 3.64378 0
M  V30 2236 C 212.815 -3.57825 3.926 0
M  V30 2237 C 211.854 -3.3498 5.12303 0
M  V30 2238 N 210.991 -4.52891 5.36502 0
M  V30 2239 H 215.831 -0.809472 2.86795 0
M  V30 2240 H 213.368 -0.388237 1.41884 0
M  V30 2241 H 215.326 -3.27346 2.58652 0
M  V30 2242 H 213.956 -2.84252 1.52972 0
M  V30 2243 H 213.008 -1.45711 3.51387 0
M  V30 2244 H 214.32 -2.11145 4.51906 0
M  V30 2245 H 213.474 -4.43624 4.13863 0
M  V30 2246 H 212.213 -3.81753 3.03506 0
M  V30 2247 H 211.218 -2.4757 4.90906 0
M  V30 2248 H 212.443 -3.12444 6.02956 0
M  V30 2249 H 210.389 -4.76979 4.50363 0
M  V30 2250 H 210.306 -4.35001 6.18312 0
M  V30 2251 H 211.574 -5.39884 5.62268 0
M  V30 2252 N 215.803 -1.52179 -0.40978 0
M  V30 2253 C 217.08 -1.56769 -1.16974 0
M  V30 2254 C 217.46 -0.348322 -2.08206 0
M  V30 2255 O 216.808 0.664862 -2.18613 0
M  V30 2256 C 217.018 -2.89603 -1.9476 0
M  V30 2257 C 218.366 -3.42579 -2.50849 0
M  V30 2258 O 219.39 -2.91338 -2.04941 0
M  V30 2259 O 218.249 -4.32054 -3.34652 0
M  V30 2260 H 215.343 -0.631439 -0.534054 0
M  V30 2261 H 217.889 -1.64507 -0.416613 0
M  V30 2262 H 216.661 -3.698 -1.27921 0
M  V30 2263 H 216.284 -2.85155 -2.77079 0
M  V30 2264 N 217.281 0.66697 -1.42791 0
M  V30 2265 C 218.211 1.79218 -1.49677 0
M  V30 2266 C 219.192 1.66405 -0.352623 0
M  V30 2267 O 220.377 1.85708 -0.567993 0
M  V30 2268 C 217.507 3.17565 -1.40605 0
M  V30 2269 C 216.461 3.45124 -2.53127 0
M  V30 2270 C 215.787 4.83127 -2.29112 0
M  V30 2271 C 217.087 3.41236 -3.95418 0
M  V30 2272 H 218.781 1.73713 -2.43853 0
M  V30 2273 H 216.327 0.83432 -1.17367 0
M  V30 2274 H 218.28 3.96022 -1.44029 0
M  V30 2275 H 217.004 3.23767 -0.429271 0
M  V30 2276 H 215.663 2.69031 -2.49034 0
M  V30 2277 H 215.311 4.85988 -1.29709 0
M  V30 2278 H 215.011 5.02528 -3.04531 0
M  V30 2279 H 216.535 5.63859 -2.34297 0
M  V30 2280 H 217.949 4.09651 -4.01073 0
M  V30 2281 H 216.346 3.72173 -4.70752 0
M  V30 2282 H 217.416 2.39665 -4.21532 0
M  V30 2283 N 218.759 1.29093 0.90403 0
M  V30 2284 C 219.722 1.1386 1.98919 0
M  V30 2285 C 220.722 0.0753457 1.60623 0
M  V30 2286 O 221.912 0.321931 1.71199 0
M  V30 2287 C 219.044 0.740198 3.32767 0
M  V30 2288 H 220.237 2.10246 2.13861 0
M  V30 2289 H 217.79 1.12218 1.08797 0
M  V30 2290 H 218.525 -0.223997 3.23525 0
M  V30 2291 H 218.31 1.50838 3.61926 0
M  V30 2292 H 219.8 0.656546 4.12407 0
M  V30 2293 N 220.237 -1.11381 1.11499 0
M  V30 2294 C 221.483 -1.83403 0.865512 0
M  V30 2295 C 221.816 -1.84459 -0.607329 0
M  V30 2296 O 221.091 -1.29811 -1.44842 0
M  V30 2297 C 221.374 -3.30552 1.42855 0
M  V30 2298 C 221.227 -3.37886 2.96906 0
M  V30 2299 C 222.546 -4.26643 1.08 0
M  V30 2300 H 219.665 -0.665879 0.31587 0
M  V30 2301 H 222.307 -1.30601 1.37998 0
M  V30 2302 H 220.457 -3.75648 0.990985 0
M  V30 2303 H 222.129 -3.01343 3.49271 0
M  V30 2304 H 220.372 -2.78088 3.32941 0
M  V30 2305 H 221.043 -4.41458 3.31389 0
M  V30 2306 H 223.519 -3.89729 1.45775 0
M  V30 2307 H 222.395 -5.27986 1.50072 0
M  V30 2308 H 222.656 -4.42099 -0.00915037 0
M  V30 2309 N 221.715 -0.905404 -1.28997 0
M  V30 2310 C 223.126 -0.581953 -1.77398 0
M  V30 2311 C 223.477 0.902552 -1.74208 0
M  V30 2312 O 222.602 1.70584 -1.33154 0
M  V30 2313 C 223.197 -1.04961 -3.22131 0
M  V30 2314 C 221.756 -0.777229 -3.68288 0
M  V30 2315 C 220.903 -1.22109 -2.48967 0
M  V30 2316 H 223.854 -1.08754 -1.15578 0
M  V30 2317 H 223.875 -0.387387 -3.78523 0
M  V30 2318 H 223.387 -2.13008 -3.24421 0
M  V30 2319 H 221.488 0.290383 -3.71467 0
M  V30 2320 H 221.601 -1.37911 -4.58822 0
M  V30 2321 H 219.965 -0.639971 -2.46529 0
M  V30 2322 H 220.748 -2.30972 -2.53982 0
M  V30 2323 N 223.193 1.4272 -0.668489 0
M  V30 2324 C 224.604 1.84793 -0.266151 0
M  V30 2325 C 224.955 1.55959 1.19043 0
M  V30 2326 O 224.08 1.01622 1.91055 0
M  V30 2327 C 224.675 3.35436 -0.476271 0
M  V30 2328 C 223.234 3.76182 -0.128113 0
M  V30 2329 C 222.381 2.66344 -0.771777 0
M  V30 2330 H 225.332 1.32656 -0.871098 0
M  V30 2331 H 225.353 3.79515 0.273561 0
M  V30 2332 H 224.865 3.5639 -1.53647 0
M  V30 2333 H 222.966 3.60836 0.928891 0
M  V30 2334 H 223.079 4.75766 -0.564231 0
M  V30 2335 H 221.443 2.53885 -0.203652 0
M  V30 2336 H 222.226 2.90123 -1.83531 0
M  V30 2337 N 224.671 0.411399 1.52136 0
M  V30 2338 C 225.619 -0.427633 2.28635 0
M  V30 2339 C 226.613 -1.04383 1.33419 0
M  V30 2340 O 227.819 -0.981772 1.50868 0
M  V30 2341 H 224.194 -0.156689 0.735495 0
M  V30 2342 H 226.165 0.238761 2.97443 0
M  V30 2343 C 224.914 -1.53082 3.12188 0
M  V30 2344 H 224.237 -1.06601 3.85326 0
M  V30 2345 H 225.677 -2.09167 3.68816 0
M  V30 2346 C 224.136 -2.49946 2.25895 0
M  V30 2347 O 224.666 -3.53884 1.90076 0
M  V30 2348 N 222.872 -2.2021 1.8962 0
M  V30 2349 H 222.419 -1.35719 2.18948 0
M  V30 2350 H 222.377 -2.85266 1.32176 0
M  V30 2351 N 226.149 -1.5696 0.141893 0
M  V30 2352 C 227.112 -2.15316 -0.785587 0
M  V30 2353 C 228.112 -1.09366 -1.1788 0
M  V30 2354 O 229.302 -1.35031 -1.10056 0
M  V30 2355 C 226.434 -2.71211 -2.06537 0
M  V30 2356 H 227.627 -2.98608 -0.278041 0
M  V30 2357 H 225.18 -1.5593 -0.107519 0
M  V30 2358 H 225.915 -1.91571 -2.6167 0
M  V30 2359 H 225.7 -3.4872 -1.79268 0
M  V30 2360 H 227.19 -3.16189 -2.72789 0
M  V30 2361 N 227.627 0.131896 -1.57047 0
M  V30 2362 C 229.038 0.690407 -1.73465 0
M  V30 2363 C 229.389 1.8094 -0.758629 0
M  V30 2364 O 228.514 2.16282 0.0713813 0
M  V30 2365 C 229.109 1.25916 -3.14532 0
M  V30 2366 C 227.668 1.76409 -3.32501 0
M  V30 2367 C 226.815 0.658579 -2.69366 0
M  V30 2368 H 229.766 -0.0939144 -1.58422 0
M  V30 2369 H 229.787 2.12892 -3.15369 0
M  V30 2370 H 229.299 0.444515 -3.85546 0
M  V30 2371 H 227.4 2.60391 -2.66509 0
M  V30 2372 H 227.513 1.88241 -4.4057 0
M  V30 2373 H 225.877 1.08899 -2.30246 0
M  V30 2374 H 226.66 -0.14487 -3.42994 0
M  V30 2375 N 229.106 1.52395 0.401703 0
M  V30 2376 C 230.353 1.66817 1.14796 0
M  V30 2377 C 230.681 0.401772 1.90305 0
M  V30 2378 O 229.936 -0.615487 1.85769 0
M  V30 2379 C 230.235 2.84578 2.16217 0
M  V30 2380 C 229.901 4.22513 1.5746 0
M  V30 2381 C 228.563 4.60029 1.41161 0
M  V30 2382 C 230.915 5.0844 1.14622 0
M  V30 2383 C 228.243 5.81144 0.80552 0
M  V30 2384 C 230.595 6.30167 0.55428 0
M  V30 2385 C 229.259 6.66426 0.378482 0
M  V30 2386 H 228.529 0.610428 0.420069 0
M  V30 2387 H 231.176 1.86512 0.434212 0
M  V30 2388 H 229.481 2.59248 2.93764 0
M  V30 2389 H 231.178 2.92933 2.73845 0
M  V30 2390 H 227.768 3.92953 1.71132 0
M  V30 2391 H 231.952 4.80034 1.26021 0
M  V30 2392 H 227.208 6.07855 0.657399 0
M  V30 2393 H 231.382 6.96071 0.213983 0
M  V30 2394 H 229.009 7.60143 -0.0932606 0
M  V30 2395 N 230.584 -0.659388 1.43143 0
M  V30 2396 C 231.516 -1.7849 1.43784 0
M  V30 2397 C 232.529 -1.5932 0.334787 0
M  V30 2398 O 233.718 -1.68155 0.598842 0
M  V30 2399 C 230.818 -3.15828 1.22906 0
M  V30 2400 C 229.991 -3.61711 2.45934 0
M  V30 2401 C 229.05 -4.77831 2.20371 0
M  V30 2402 O 228.076 -4.87586 2.93681 0
M  V30 2403 N 229.278 -5.67611 1.21647 0
M  V30 2404 H 232.043 -1.7842 2.40803 0
M  V30 2405 H 229.604 -0.84302 1.3822 0
M  V30 2406 H 231.596 -3.91189 1.03697 0
M  V30 2407 H 230.166 -3.10707 0.343542 0
M  V30 2408 H 229.386 -2.76861 2.80609 0
M  V30 2409 H 230.674 -3.89112 3.27825 0
M  V30 2410 H 230.072 -5.62397 0.610449 0
M  V30 2411 H 228.629 -6.42719 1.08423 0
M  V30 2412 N 232.062 -1.29571 -0.897171 0
M  V30 2413 C 232.992 -1.17473 -2.01798 0
M  V30 2414 C 233.973 -0.068323 -1.69963 0
M  V30 2415 O 235.158 -0.248239 -1.92607 0
M  V30 2416 C 232.288 -0.853099 -3.36659 0
M  V30 2417 C 231.242 -1.9161 -3.82713 0
M  V30 2418 C 230.568 -1.44773 -5.14728 0
M  V30 2419 C 231.868 -3.32535 -4.02763 0
M  V30 2420 H 233.562 -2.11237 -2.12177 0
M  V30 2421 H 231.108 -1.01699 -1.01948 0
M  V30 2422 H 233.061 -0.755165 -4.14578 0
M  V30 2423 H 231.785 0.120236 -3.26379 0
M  V30 2424 H 230.444 -2.00346 -3.07013 0
M  V30 2425 H 230.092 -0.462995 -5.00865 0
M  V30 2426 H 229.792 -2.15865 -5.46513 0
M  V30 2427 H 231.316 -1.36334 -5.95185 0
M  V30 2428 H 232.73 -3.26626 -4.71156 0
M  V30 2429 H 231.127 -4.01607 -4.45905 0
M  V30 2430 H 232.197 -3.75326 -3.07016 0
M  V30 2431 N 233.54 1.10788 -1.12088 0
M  V30 2432 C 234.765 1.87002 -0.896949 0
M  V30 2433 C 235.19 1.79933 0.548261 0
M  V30 2434 O 234.548 1.16662 1.38779 0
M  V30 2435 C 234.596 3.3349 -1.37174 0
M  V30 2436 O 233.7 4.08745 -0.547831 0
M  V30 2437 H 233.041 0.580397 -0.322545 0
M  V30 2438 H 235.571 1.39996 -1.49206 0
M  V30 2439 H 235.581 3.84339 -1.36922 0
M  V30 2440 H 234.256 3.37951 -2.42408 0
M  V30 2441 H 232.833 3.6776 -0.617034 0
M  V30 2442 N 235.018 0.912232 1.28515 0
M  V30 2443 C 236.258 0.551677 1.96814 0
M  V30 2444 C 236.622 -0.887825 1.7024 0
M  V30 2445 O 237.823 -1.35588 2.32098 0
M  V30 2446 C 236.094 0.850555 3.47132 0
M  V30 2447 S 237.653 0.59619 4.34731 0
M  V30 2448 H 234.471 0.204191 0.681049 0
M  V30 2449 H 237.073 1.17736 1.56072 0
M  V30 2450 H 235.777 1.8962 3.63968 0
M  V30 2451 H 235.308 0.213471 3.9282 0
M  V30 2452 H 237.323 -0.553154 4.93107 0
M  V30 2453 N 236.496 -1.42363 0.676048 0
M  V30 2454 C 237.406 -2.346 -0.00153389 0
M  V30 2455 C 238.422 -1.5516 -0.787485 0
M  V30 2456 O 239.598 -1.87723 -0.729521 0
M  V30 2457 C 236.663 -3.33705 -0.940298 0
M  V30 2458 C 235.724 -4.29042 -0.148739 0
M  V30 2459 C 234.957 -5.23413 -1.04279 0
M  V30 2460 O 235.18 -5.22749 -2.28232 0
M  V30 2461 O 234.114 -5.99795 -0.502925 0
M  V30 2462 H 237.94 -2.94082 0.758268 0
M  V30 2463 H 235.525 -1.42888 0.436289 0
M  V30 2464 H 237.407 -3.94586 -1.47917 0
M  V30 2465 H 236.082 -2.76695 -1.67993 0
M  V30 2466 H 234.989 -3.71571 0.43427 0
M  V30 2467 H 236.322 -4.89097 0.551805 0
M  V30 2468 N 237.974 -0.419461 -1.51915 0
M  V30 2469 C 238.937 0.389116 -2.25873 0
M  V30 2470 C 239.937 0.964924 -1.28631 0
M  V30 2471 O 241.127 0.842179 -1.52489 0
M  V30 2472 C 238.259 1.54874 -3.03689 0
M  V30 2473 H 239.452 -0.258799 -2.98781 0
M  V30 2474 H 237.005 -0.172209 -1.55348 0
M  V30 2475 H 237.74 2.23323 -2.35154 0
M  V30 2476 H 237.525 1.14223 -3.75094 0
M  V30 2477 H 239.015 2.12046 -3.59759 0
M  V30 2478 N 239.452 1.56882 -0.150215 0
M  V30 2479 C 240.698 1.96518 0.500834 0
M  V30 2480 C 241.031 1.03527 1.64304 0
M  V30 2481 O 240.306 0.0782751 1.94342 0
M  V30 2482 C 240.589 3.45822 1.00395 0
M  V30 2483 C 240.442 4.49591 -0.136983 0
M  V30 2484 C 241.761 3.97704 1.88467 0
M  V30 2485 H 238.88 0.714535 0.18058 0
M  V30 2486 H 241.522 1.88577 -0.232091 0
M  V30 2487 H 239.672 3.5272 1.62851 0
M  V30 2488 H 241.344 4.5477 -0.77343 0
M  V30 2489 H 239.587 4.26441 -0.795652 0
M  V30 2490 H 240.258 5.51402 0.256815 0
M  V30 2491 H 242.734 3.93304 1.35834 0
M  V30 2492 H 241.61 5.0263 2.20578 0
M  V30 2493 H 241.871 3.40252 2.82279 0
M  V30 2494 N 240.93 -0.123565 1.57115 0
M  V30 2495 C 242.178 -0.83051 1.84247 0
M  V30 2496 C 242.499 -1.80629 0.73471 0
M  V30 2497 O 241.769 -1.94403 -0.241688 0
M  V30 2498 H 240.349 -0.309694 0.679778 0
M  V30 2499 H 243.011 -0.111976 1.94578 0
M  V30 2500 H 242.107 -1.37852 2.80006 0
M  V30 2501 N 242.408 -1.52605 -0.393616 0
M  V30 2502 C 243.819 -1.59417 -0.971761 0
M  V30 2503 C 244.17 -0.444173 -1.91106 0
M  V30 2504 O 243.295 0.433382 -2.12016 0
M  V30 2505 C 243.89 -2.88936 -1.76921 0
M  V30 2506 C 242.449 -2.98175 -2.29714 0
M  V30 2507 C 241.596 -2.54491 -1.10135 0
M  V30 2508 H 244.547 -1.57751 -0.173317 0
M  V30 2509 H 244.568 -2.75163 -2.62804 0
M  V30 2510 H 244.08 -3.72616 -1.08532 0
M  V30 2511 H 242.181 -2.19024 -3.01429 0
M  V30 2512 H 242.294 -4.02726 -2.59517 0
M  V30 2513 H 240.658 -2.08702 -1.45999 0
M  V30 2514 H 241.441 -3.4056 -0.432874 0
M  V30 2515 N 243.887 0.651787 -1.4349 0
M  V30 2516 C 245.298 1.233 -1.40193 0
M  V30 2517 C 245.649 1.9591 -0.106727 0
M  V30 2518 O 244.774 2.01316 0.793773 0
M  V30 2519 C 245.369 2.24257 -2.53957 0
M  V30 2520 C 243.928 2.77852 -2.5392 0
M  V30 2521 C 243.075 1.52517 -2.3159 0
M  V30 2522 H 246.026 0.443717 -1.52371 0
M  V30 2523 H 246.047 3.0646 -2.25528 0
M  V30 2524 H 245.559 1.71382 -3.4821 0
M  V30 2525 H 243.66 3.34786 -1.63551 0
M  V30 2526 H 243.773 3.25299 -3.51735 0
M  V30 2527 H 242.137 1.79915 -1.80285 0
M  V30 2528 H 242.92 1.01574 -3.27929 0
M  V30 2529 N 245.365 1.30045 0.890287 0
M  V30 2530 C 246.275 1.17885 2.02831 0
M  V30 2531 C 247.291 0.0999609 1.73713 0
M  V30 2532 O 248.467 0.313867 1.98939 0
M  V30 2533 C 245.532 0.866079 3.35708 0
M  V30 2534 C 244.593 2.02979 3.78283 0
M  V30 2535 C 243.826 1.73184 5.0482 0
M  V30 2536 O 244.049 0.657237 5.66601 0
M  V30 2537 O 242.983 2.58267 5.43674 0
M  V30 2538 H 246.809 2.13474 2.16015 0
M  V30 2539 H 244.394 1.09587 1.01543 0
M  V30 2540 H 246.276 0.706623 4.15433 0
M  V30 2541 H 244.951 -0.0599443 3.23644 0
M  V30 2542 H 243.858 2.24454 2.99285 0
M  V30 2543 H 245.191 2.93734 3.94944 0
M  V30 2544 N 246.843 -1.10192 1.12674 0
M  V30 2545 C 248.254 -1.63707 0.897604 0
M  V30 2546 C 248.605 -1.87812 -0.567546 0
M  V30 2547 O 247.73 -1.62196 -1.43253 0
M  V30 2548 C 248.325 -2.974 1.62292 0
M  V30 2549 C 246.884 -3.47772 1.43986 0
M  V30 2550 C 246.031 -2.22332 1.65722 0
M  V30 2551 H 248.982 -0.936587 1.28116 0
M  V30 2552 H 249.003 -3.64986 1.07541 0
M  V30 2553 H 248.515 -2.79824 2.68924 0
M  V30 2554 H 246.616 -3.70487 0.396206 0
M  V30 2555 H 246.729 -4.25723 2.19765 0
M  V30 2556 H 245.093 -2.30599 1.08149 0
M  V30 2557 H 245.876 -2.07285 2.73657 0
M  V30 2558 N 248.321 -0.919034 -1.28029 0
M  V30 2559 C 249.567 -0.555757 -1.95036 0
M  V30 2560 C 249.9 0.899198 -1.72128 0
M  V30 2561 O 249.175 1.64023 -1.04531 0
M  V30 2562 C 249.458 -0.872024 -3.49382 0
M  V30 2563 C 249.311 -2.3801 -3.81669 0
M  V30 2564 C 250.63 -0.37185 -4.38526 0
M  V30 2565 H 247.749 -0.203386 -0.708381 0
M  V30 2566 H 250.391 -1.14924 -1.51303 0
M  V30 2567 H 248.541 -0.366946 -3.86763 0
M  V30 2568 H 250.213 -2.9562 -3.54128 0
M  V30 2569 H 248.456 -2.83289 -3.28526 0
M  V30 2570 H 249.127 -2.55192 -4.8947 0
M  V30 2571 H 251.603 -0.804602 -4.08247 0
M  V30 2572 H 250.479 -0.622173 -5.45362 0
M  V30 2573 H 250.74 0.727934 -4.36066 0
M  V30 2574 N 249.799 1.42003 -0.683588 0
M  V30 2575 C 251.027 2.05746 -0.218182 0
M  V30 2576 C 251.442 1.51396 1.12804 0
M  V30 2577 O 250.799 0.657303 1.70252 0
M  V30 2578 C 250.85 3.61171 -0.154131 0
M  V30 2579 O 250.571 4.13508 -1.44716 0
M  V30 2580 C 252.072 4.42042 0.333713 0
M  V30 2581 H 249.292 0.662888 -0.10402 0
M  V30 2582 H 251.836 1.81987 -0.9328 0
M  V30 2583 H 249.991 3.84012 0.511231 0
M  V30 2584 H 250.405 5.07453 -1.32632 0
M  V30 2585 H 251.879 5.51028 0.327423 0
M  V30 2586 H 252.356 4.17269 1.37053 0
M  V30 2587 H 252.962 4.24239 -0.300222 0
M  V30 2588 N 251.277 0.427512 1.51691 0
M  V30 2589 C 252.526 -0.143679 2.01188 0
M  V30 2590 C 252.839 -1.44642 1.31674 0
M  V30 2591 O 254.045 -2.09997 1.72086 0
M  V30 2592 C 252.501 -0.306602 3.58592 0
M  V30 2593 C 252.109 0.985125 4.37035 0
M  V30 2594 C 253.853 -0.832091 4.16265 0
M  V30 2595 C 251.76 0.788382 5.86122 0
M  V30 2596 H 250.69 -0.0574701 0.751807 0
M  V30 2597 H 253.341 0.555772 1.74881 0
M  V30 2598 H 251.723 -1.06882 3.81303 0
M  V30 2599 H 252.897 1.75492 4.26074 0
M  V30 2600 H 251.212 1.4384 3.90767 0
M  V30 2601 H 253.809 -0.995617 5.25349 0
M  V30 2602 H 254.152 -1.81186 3.74803 0
M  V30 2603 H 254.685 -0.128444 3.97593 0
M  V30 2604 H 251.424 1.74025 6.31978 0
M  V30 2605 H 250.944 0.0582143 5.99772 0
M  V30 2606 H 252.623 0.437722 6.45518 0
M  V30 2607 N 252.755 -1.56801 0.158532 0
M  V30 2608 C 254.001 -1.96781 -0.490405 0
M  V30 2609 C 254.334 -1.04397 -1.63753 0
M  V30 2610 O 253.609 -0.0885805 -1.94298 0
M  V30 2611 C 253.892 -3.4635 -0.985594 0
M  V30 2612 C 253.745 -4.49512 0.160824 0
M  V30 2613 C 255.064 -3.98697 -1.86355 0
M  V30 2614 H 252.183 -0.715482 -0.176788 0
M  V30 2615 H 254.825 -1.88451 0.242088 0
M  V30 2616 H 252.975 -3.53579 -1.60978 0
M  V30 2617 H 254.647 -4.54353 0.797537 0
M  V30 2618 H 252.89 -4.26013 0.818256 0
M  V30 2619 H 253.561 -5.51531 -0.227569 0
M  V30 2620 H 256.037 -3.94019 -1.33746 0
M  V30 2621 H 254.913 -5.03792 -2.17909 0
M  V30 2622 H 255.174 -3.41744 -2.8047 0
M  V30 2623 N 254.233 0.115231 -1.57178 0
M  V30 2624 C 255.479 0.818565 -1.86202 0
M  V30 2625 C 255.834 1.77316 -0.746785 0
M  V30 2626 O 255.127 1.89923 0.25291 0
M  V30 2627 C 255.321 1.60324 -3.19423 0
M  V30 2628 C 255.15 0.726138 -4.43799 0
M  V30 2629 C 253.92 0.379535 -5.03873 0
M  V30 2630 C 256.118 0.0420774 -5.14283 0
M  V30 2631 N 254.1 -0.507841 -6.11796 0
M  V30 2632 C 255.471 -0.704152 -6.15988 0
M  V30 2633 C 257.526 -0.0339486 -4.97888 0
M  V30 2634 C 256.229 -1.51927 -7.03072 0
M  V30 2635 C 258.255 -0.835906 -5.85463 0
M  V30 2636 C 257.617 -1.57031 -6.86673 0
M  V30 2637 H 253.716 0.276343 -0.731545 0
M  V30 2638 H 256.3 0.0821032 -1.94527 0
M  V30 2639 H 254.471 2.31072 -3.12186 0
M  V30 2640 H 256.203 2.2522 -3.36241 0
M  V30 2641 H 252.958 0.722634 -4.68054 0
M  V30 2642 H 253.382 -0.94349 -6.70393 0
M  V30 2643 H 258.024 0.519496 -4.19596 0
M  V30 2644 H 255.742 -2.08386 -7.80769 0
M  V30 2645 H 259.328 -0.89714 -5.74841 0
M  V30 2646 H 258.208 -2.18088 -7.53264 0
M  V30 2647 N 255.711 1.52812 0.385517 0
M  V30 2648 C 256.957 1.69225 1.12847 0
M  V30 2649 C 257.312 0.42864 1.87564 0
M  V30 2650 O 256.605 -0.57779 1.8268 0
M  V30 2651 C 256.799 2.86856 2.13187 0
M  V30 2652 C 256.628 4.24535 1.48325 0
M  V30 2653 C 255.398 4.89701 1.24585 0
M  V30 2654 C 257.596 5.05794 0.931501 0
M  V30 2655 N 255.578 6.11353 0.558644 0
M  V30 2656 C 256.949 6.1888 0.372552 0
M  V30 2657 C 259.004 4.90963 0.828248 0
M  V30 2658 C 257.707 7.18757 -0.279556 0
M  V30 2659 C 259.733 5.91095 0.189956 0
M  V30 2660 C 259.095 7.03489 -0.358207 0
M  V30 2661 H 255.194 0.67268 0.39878 0
M  V30 2662 H 257.778 1.9017 0.417528 0
M  V30 2663 H 255.949 2.67484 2.81614 0
M  V30 2664 H 257.681 2.92188 2.80014 0
M  V30 2665 H 254.436 4.48485 1.52178 0
M  V30 2666 H 254.86 6.76606 0.230983 0
M  V30 2667 H 259.502 4.04274 1.23784 0
M  V30 2668 H 257.22 8.05052 -0.701152 0
M  V30 2669 H 260.806 5.81694 0.111264 0
M  V30 2670 H 259.686 7.79642 -0.844314 0
M  V30 2671 N 257.189 -0.644168 1.43834 0
M  V30 2672 C 258.605 -0.960875 1.27434 0
M  V30 2673 C 258.805 -2.00499 0.200618 0
M  V30 2674 O 257.861 -2.49018 -0.417906 0
M  V30 2675 C 259.174 -1.43653 2.64167 0
M  V30 2676 C 260.722 -1.55271 2.71772 0
M  V30 2677 C 261.197 -2.06224 4.08944 0
M  V30 2678 N 262.688 -2.13513 4.11055 0
M  V30 2679 C 263.423 -2.54081 5.14033 0
M  V30 2680 N 262.919 -2.9388 6.27381 0
M  V30 2681 N 264.712 -2.54101 5.01387 0
M  V30 2682 H 256.863 0.0465779 2.12349 0
M  V30 2683 H 259.126 -0.0417638 0.94708 0
M  V30 2684 H 258.832 -0.743706 3.43747 0
M  V30 2685 H 258.706 -2.40993 2.90176 0
M  V30 2686 H 261.093 -2.23653 1.92519 0
M  V30 2687 H 261.174 -0.563395 2.49519 0
M  V30 2688 H 260.818 -1.38441 4.88668 0
M  V30 2689 H 260.748 -3.06003 4.28567 0
M  V30 2690 H 263.239 -1.85493 3.29242 0
M  V30 2691 H 263.552 -3.2361 7.01781 0
M  V30 2692 H 261.897 -2.91663 6.30839 0
M  V30 2693 H 265.088 -2.22391 4.11898 0
M  V30 2694 H 265.261 -2.85394 5.81768 0
M  V30 2695 N 258.668 -1.30515 -0.883378 0
M  V30 2696 C 259.916 -1.19194 -1.63209 0
M  V30 2697 C 260.237 0.253205 -1.93349 0
M  V30 2698 O 259.507 1.17025 -1.57105 0
M  V30 2699 H 258.087 -0.438148 -0.605009 0
M  V30 2700 H 260.749 -1.63663 -1.05832 0
M  V30 2701 H 259.845 -1.75396 -2.58153 0
M  V30 2702 N 260.146 1.09593 -1.13257 0
M  V30 2703 C 261.374 1.855 -0.916378 0
M  V30 2704 C 261.789 1.81069 0.534738 0
M  V30 2705 O 261.146 1.20562 1.37007 0
M  V30 2706 C 261.197 3.33546 -1.39388 0
M  V30 2707 O 260.918 3.37927 -2.78813 0
M  V30 2708 C 262.419 4.26299 -1.21588 0
M  V30 2709 H 259.639 0.585991 -0.326887 0
M  V30 2710 H 262.183 1.38488 -1.5047 0
M  V30 2711 H 260.338 3.77992 -0.848597 0
M  V30 2712 H 260.752 4.30254 -2.9997 0
M  V30 2713 H 262.226 5.28341 -1.59876 0
M  V30 2714 H 262.703 4.38918 -0.157376 0
M  V30 2715 H 263.309 3.87668 -1.7491 0
M  V30 2716 N 261.624 0.925811 1.2754 0
M  V30 2717 C 262.852 0.581509 1.9856 0
M  V30 2718 C 263.267 -0.840041 1.69082 0
M  V30 2719 O 262.624 -1.55805 0.950312 0
M  V30 2720 C 262.675 0.795589 3.52637 0
M  V30 2721 O 262.396 2.16121 3.81082 0
M  V30 2722 C 263.897 0.459744 4.4091 0
M  V30 2723 H 261.117 0.220538 0.633722 0
M  V30 2724 H 263.661 1.24232 1.6244 0
M  V30 2725 H 261.816 0.18161 3.86974 0
M  V30 2726 H 262.23 2.2098 4.75676 0
M  V30 2727 H 263.704 0.660244 5.48037 0
M  V30 2728 H 264.181 -0.604625 4.35018 0
M  V30 2729 H 264.787 1.05178 4.12089 0
M  V30 2730 N 263.102 -1.41638 0.69111 0
M  V30 2731 C 264.049 -2.30789 0.0229705 0
M  V30 2732 C 265.019 -1.46863 -0.775911 0
M  V30 2733 O 266.204 -1.75661 -0.74485 0
M  V30 2734 C 263.344 -3.32868 -0.910666 0
M  V30 2735 C 262.457 -4.31875 -0.103874 0
M  V30 2736 C 261.592 -5.21024 -1.03475 0
M  V30 2737 C 260.631 -6.11702 -0.220598 0
M  V30 2738 N 259.768 -6.93349 -1.10504 0
M  V30 2739 H 264.608 -2.87366 0.788978 0
M  V30 2740 H 262.145 -1.41535 0.400794 0
M  V30 2741 H 264.103 -3.90596 -1.46597 0
M  V30 2742 H 262.733 -2.77851 -1.64312 0
M  V30 2743 H 261.785 -3.76131 0.568285 0
M  V30 2744 H 263.097 -4.96003 0.527504 0
M  V30 2745 H 262.251 -5.83565 -1.65943 0
M  V30 2746 H 260.99 -4.57112 -1.69999 0
M  V30 2747 H 259.995 -5.48215 0.417187 0
M  V30 2748 H 261.22 -6.77668 0.440784 0
M  V30 2749 H 259.166 -6.3205 -1.75638 0
M  V30 2750 H 259.083 -7.54146 -0.529125 0
M  V30 2751 H 260.351 -7.60362 -1.71667 0
M  V30 2752 N 264.58 -0.43555 -1.51462 0
M  V30 2753 C 265.829 0.133007 -2.01261 0
M  V30 2754 C 266.142 1.43942 -1.32439 0
M  V30 2755 O 267.348 2.09081 -1.73198 0
M  V30 2756 C 265.804 0.287581 -3.58749 0
M  V30 2757 C 265.412 -1.00829 -4.36506 0
M  V30 2758 C 267.156 0.810004 -4.167 0
M  V30 2759 C 265.063 -0.819454 -5.85695 0
M  V30 2760 H 263.993 0.0534822 -0.752101 0
M  V30 2761 H 266.644 -0.565038 -1.74584 0
M  V30 2762 H 265.026 1.04859 -3.81865 0
M  V30 2763 H 266.2 -1.77749 -4.25138 0
M  V30 2764 H 264.515 -1.45911 -3.89999 0
M  V30 2765 H 267.112 0.967743 -5.2587 0
M  V30 2766 H 267.455 1.79196 -3.75758 0
M  V30 2767 H 267.988 0.107357 -3.97655 0
M  V30 2768 H 264.727 -1.77374 -6.31046 0
M  V30 2769 H 264.247 -0.0900208 -5.99732 0
M  V30 2770 H 265.926 -0.471949 -6.45276 0
M  V30 2771 N 266.058 1.56714 -0.166846 0
M  V30 2772 C 267.306 1.96358 0.478305 0
M  V30 2773 C 267.627 1.0537 1.6408 0
M  V30 2774 O 266.897 0.119154 1.95537 0
M  V30 2775 H 265.477 0.725065 0.179692 0
M  V30 2776 H 268.139 1.93329 -0.246985 0
M  V30 2777 H 267.235 3.00547 0.841292 0
M  V30 2778 N 267.536 -0.106894 1.57237 0
M  V30 2779 C 268.784 -0.810921 1.85117 0
M  V30 2780 C 269.105 -1.7984 0.753827 0
M  V30 2781 O 268.375 -1.94649 -0.221056 0
M  V30 2782 H 266.955 -0.302466 0.683025 0
M  V30 2783 H 269.617 -0.0913324 1.94686 0
M  V30 2784 H 268.713 -1.34875 2.81452 0
M  V30 2785 N 269.014 -1.53014 -0.377408 0
M  V30 2786 C 270.425 -1.60438 -0.954798 0
M  V30 2787 C 270.776 -0.464418 -1.90624 0
M  V30 2788 O 269.901 0.41087 -2.12464 0
M  V30 2789 C 270.496 -2.90797 -1.73847 0
M  V30 2790 C 269.055 -3.00595 -2.26538 0
M  V30 2791 C 268.202 -2.55645 -1.07429 0
M  V30 2792 H 271.153 -1.57926 -0.156575 0
M  V30 2793 H 271.174 -2.77935 -2.5987 0
M  V30 2794 H 270.686 -3.73746 -1.04574 0
M  V30 2795 H 268.787 -2.22208 -2.99089 0
M  V30 2796 H 268.9 -4.05456 -2.5523 0
M  V30 2797 H 267.264 -2.10239 -1.43777 0
M  V30 2798 H 268.047 -3.41 -0.396728 0
M  V30 2799 N 270.492 0.636531 -1.44174 0
M  V30 2800 C 271.455 1.73063 -1.50273 0
M  V30 2801 C 272.455 1.56113 -0.385397 0
M  V30 2802 O 273.645 1.61707 -0.64781 0
M  V30 2803 C 270.777 3.12096 -1.37145 0
M  V30 2804 H 271.97 1.69031 -2.47727 0
M  V30 2805 H 269.523 0.849706 -1.31186 0
M  V30 2806 H 270.258 3.21728 -0.407636 0
M  V30 2807 H 270.043 3.25805 -2.18159 0
M  V30 2808 H 271.533 3.91846 -1.44382 0
M  V30 2809 N 271.97 1.30982 0.876444 0
M  V30 2810 C 273.381 1.18277 1.44456 0
M  V30 2811 C 273.732 -0.213265 1.95037 0
M  V30 2812 O 272.857 -1.11057 1.85729 0
M  V30 2813 C 273.452 2.1411 2.62569 0
M  V30 2814 C 272.011 2.05358 3.15444 0
M  V30 2815 C 271.158 2.03706 1.88146 0
M  V30 2816 H 274.109 1.43127 0.685584 0
M  V30 2817 H 274.13 1.72692 3.39054 0
M  V30 2818 H 273.642 3.15706 2.25724 0
M  V30 2819 H 271.743 1.06934 3.56926 0
M  V30 2820 H 271.856 2.94156 3.78166 0
M  V30 2821 H 270.22 1.48629 2.06837 0
M  V30 2822 H 271.003 3.07047 1.53547 0
M  V30 2823 N 273.449 -1.08991 1.13837 0
M  V30 2824 C 274.674 -1.85551 0.926585 0
M  V30 2825 C 275.099 -1.80782 -0.519566 0
M  V30 2826 O 274.457 -1.18855 -1.36906 0
M  V30 2827 C 274.505 -3.31266 1.42462 0
M  V30 2828 O 273.609 -4.07822 0.612789 0
M  V30 2829 H 272.95 -0.575192 0.331738 0
M  V30 2830 H 275.48 -1.37604 1.51414 0
M  V30 2831 H 275.49 -3.82112 1.43019 0
M  V30 2832 H 274.165 -3.34052 2.47754 0
M  V30 2833 H 272.742 -3.66731 0.675463 0
M  V30 2834 N 274.927 -0.932562 -1.27047 0
M  V30 2835 C 276.338 -0.619451 -1.76124 0
M  V30 2836 C 276.689 0.865397 -1.76083 0
M  V30 2837 O 275.814 1.67722 -1.36742 0
M  V30 2838 C 276.409 -1.11771 -3.19832 0
M  V30 2839 C 274.968 -0.855174 -3.66557 0
M  V30 2840 C 274.115 -1.27362 -2.46321 0
M  V30 2841 H 277.066 -1.11181 -1.13245 0
M  V30 2842 H 277.087 -0.46759 -3.77616 0
M  V30 2843 H 276.599 -2.19842 -3.1983 0
M  V30 2844 H 274.7 0.211524 -3.71999 0
M  V30 2845 H 274.813 -1.47613 -4.55793 0
M  V30 2846 H 273.177 -0.692119 -2.45116 0
M  V30 2847 H 273.96 -2.36307 -2.49025 0
M  V30 2848 N 276.405 1.4127 -0.698611 0
M  V30 2849 C 277.63 2.06024 -0.238512 0
M  V30 2850 C 278.055 1.5224 1.10475 0
M  V30 2851 O 277.413 0.650623 1.69223 0
M  V30 2852 C 277.461 3.59988 -0.209952 0
M  V30 2853 O 276.565 4.04282 0.814235 0
M  V30 2854 H 275.906 0.653829 -0.115775 0
M  V30 2855 H 278.436 1.8098 -0.954326 0
M  V30 2856 H 278.446 4.07979 -0.0418436 0
M  V30 2857 H 277.121 3.98503 -1.1903 0
M  V30 2858 H 275.698 3.6779 0.615234 0
M  V30 2859 N 277.883 0.443576 1.51229 0
M  V30 2860 C 279.129 -0.120975 2.02439 0
M  V30 2861 C 279.462 -1.41815 1.32674 0
M  V30 2862 O 278.737 -1.89373 0.443622 0
M  V30 2863 C 279.02 -0.333291 3.58554 0
M  V30 2864 C 278.873 0.982968 4.38928 0
M  V30 2865 C 280.192 -1.10028 4.26124 0
M  V30 2866 H 277.311 -0.0424923 0.735774 0
M  V30 2867 H 279.953 0.583794 1.80809 0
M  V30 2868 H 278.103 -0.933614 3.77115 0
M  V30 2869 H 279.775 1.61775 4.32003 0
M  V30 2870 H 278.018 1.58611 4.03763 0
M  V30 2871 H 278.689 0.788379 5.46341 0
M  V30 2872 H 281.165 -0.591711 4.11871 0
M  V30 2873 H 280.041 -1.21761 5.35225 0
M  V30 2874 H 280.302 -2.12996 3.87408 0
M  V30 2875 N 279.361 -1.56624 0.175154 0
M  V30 2876 C 280.291 -2.21155 -0.749195 0
M  V30 2877 C 281.272 -1.16836 -1.23626 0
M  V30 2878 O 282.457 -1.45277 -1.28873 0
M  V30 2879 C 279.587 -2.8553 -1.97711 0
M  V30 2880 C 278.541 -3.95921 -1.62575 0
M  V30 2881 C 277.867 -4.47365 -2.92864 0
M  V30 2882 C 279.167 -5.15323 -0.850838 0
M  V30 2883 H 280.861 -2.98653 -0.211295 0
M  V30 2884 H 278.407 -1.43651 -0.100188 0
M  V30 2885 H 280.36 -3.2935 -2.62881 0
M  V30 2886 H 279.084 -2.05406 -2.53921 0
M  V30 2887 H 277.743 -3.52762 -0.997719 0
M  V30 2888 H 277.391 -3.64027 -3.47122 0
M  V30 2889 H 277.091 -5.21839 -2.70106 0
M  V30 2890 H 278.615 -4.93873 -3.59056 0
M  V30 2891 H 280.029 -5.55812 -1.40521 0
M  V30 2892 H 278.426 -5.95739 -0.722154 0
M  V30 2893 H 279.496 -4.84661 0.152082 0
M  V30 2894 N 280.839 0.0985539 -1.57292 0
M  V30 2895 C 281.787 1.1387 -2.02821 0
M  V30 2896 C 282.781 1.41676 -0.928666 0
M  V30 2897 O 283.987 1.41398 -1.11385 0
M  V30 2898 H 280.362 0.384419 -0.646317 0
M  V30 2899 H 282.333 0.728347 -2.89375 0
M  V30 2900 C 281.082 2.45166 -2.46554 0
M  V30 2901 H 280.405 2.24613 -3.3074 0
M  V30 2902 H 281.845 3.16456 -2.8219 0
M  V30 2903 C 280.304 3.09216 -1.33742 0
M  V30 2904 O 280.834 3.96163 -0.66464 0
M  V30 2905 N 279.04 2.69413 -1.08928 0
M  V30 2906 H 278.587 1.98801 -1.63817 0
M  V30 2907 H 278.545 3.12594 -0.336458 0
M  V30 2908 N 282.317 1.53212 0.369288 0
M  V30 2909 C 283.563 1.69466 1.11397 0
M  V30 2910 C 283.896 0.443257 1.89074 0
M  V30 2911 O 283.171 -0.559386 1.86282 0
M  V30 2912 C 283.454 2.9422 2.07621 0
M  V30 2913 C 283.307 4.29508 1.33577 0
M  V30 2914 C 284.626 3.14565 3.07794 0
M  V30 2915 H 281.745 0.616667 0.403597 0
M  V30 2916 H 284.387 1.85845 0.395179 0
M  V30 2917 H 282.537 2.80387 2.68916 0
M  V30 2918 H 284.209 4.55147 0.750955 0
M  V30 2919 H 282.452 4.29088 0.637618 0
M  V30 2920 H 283.123 5.12926 2.03989 0
M  V30 2921 H 285.599 3.2756 2.56601 0
M  V30 2922 H 284.475 4.03297 3.72348 0
M  V30 2923 H 284.736 2.29675 3.77759 0
M  V30 2924 N 283.795 -0.628877 1.44509 0
M  V30 2925 C 285.023 -1.41554 1.50897 0
M  V30 2926 C 285.438 -1.8832 0.134564 0
M  V30 2927 O 284.795 -1.60969 -0.859965 0
M  V30 2928 C 284.846 -2.63435 2.47556 0
M  V30 2929 O 284.567 -2.18619 3.79654 0
M  V30 2930 C 286.068 -3.56537 2.63431 0
M  V30 2931 H 283.288 -0.434044 0.511709 0
M  V30 2932 H 285.832 -0.768895 1.89495 0
M  V30 2933 H 283.987 -3.24187 2.12089 0
M  V30 2934 H 284.401 -2.97652 4.31861 0
M  V30 2935 H 285.875 -4.38657 3.35088 0
M  V30 2936 H 286.352 -4.05493 1.68738 0
M  V30 2937 H 286.958 -3.01653 2.9981 0
M  V30 2938 N 285.273 -1.31445 -0.869486 0
M  V30 2939 C 286.521 -1.20918 -1.61936 0
M  V30 2940 C 286.842 0.232683 -1.93607 0
M  V30 2941 O 286.112 1.15352 -1.58338 0
M  V30 2942 H 284.692 -0.44454 -0.600328 0
M  V30 2943 H 287.354 -1.64776 -1.0409 0
M  V30 2944 H 286.45 -1.78124 -2.56278 0
M  V30 2945 N 286.751 1.08385 -1.14413 0
M  V30 2946 C 287.997 1.81044 -0.913834 0
M  V30 2947 C 288.33 1.86004 0.558209 0
M  V30 2948 O 287.605 1.33606 1.4135 0
M  V30 2949 C 287.888 3.26648 -1.51569 0
M  V30 2950 C 287.741 3.29895 -3.0576 0
M  V30 2951 C 289.06 4.23629 -1.19273 0
M  V30 2952 H 286.179 0.65727 -0.333414 0
M  V30 2953 H 288.821 1.26896 -1.41412 0
M  V30 2954 H 286.971 3.72889 -1.09023 0
M  V30 2955 H 288.643 2.91977 -3.57137 0
M  V30 2956 H 286.886 2.69163 -3.40197 0
M  V30 2957 H 287.557 4.32516 -3.42977 0
M  V30 2958 H 290.033 3.85727 -1.56057 0
M  V30 2959 H 288.909 5.23822 -1.64017 0
M  V30 2960 H 289.17 4.41968 -0.108068 0
M  V30 2961 N 288.23 0.939286 1.26551 0
M  V30 2962 C 289.458 0.602536 1.97932 0
M  V30 2963 C 289.873 -0.82206 1.69964 0
M  V30 2964 O 289.23 -1.54789 0.966784 0
M  V30 2965 C 289.281 0.832946 3.51773 0
M  V30 2966 O 289.002 2.20151 3.78768 0
M  V30 2967 C 290.503 0.506483 4.40397 0
M  V30 2968 H 287.723 0.227248 0.631347 0
M  V30 2969 H 290.267 1.25948 1.61113 0
M  V30 2970 H 288.422 0.222644 3.8676 0
M  V30 2971 H 288.836 2.26013 4.73306 0
M  V30 2972 H 290.31 0.718333 5.47306 0
M  V30 2973 H 290.787 -0.558451 4.35635 0
M  V30 2974 H 291.393 1.09543 4.10951 0
M  V30 2975 N 289.708 -1.40897 0.706093 0
M  V30 2976 C 290.64 -2.29199 0.00815776 0
M  V30 2977 C 291.653 -1.45336 -0.733582 0
M  V30 2978 O 292.842 -1.68727 -0.582537 0
M  V30 2979 C 289.942 -3.23417 -1.01265 0
M  V30 2980 C 289.115 -4.36089 -0.338387 0
M  V30 2981 C 288.174 -5.10811 -1.26326 0
M  V30 2982 O 287.2 -5.64215 -0.751651 0
M  V30 2983 N 288.402 -5.19269 -2.595 0
M  V30 2984 H 291.167 -2.89738 0.766297 0
M  V30 2985 H 288.728 -1.52164 0.55296 0
M  V30 2986 H 290.72 -3.70276 -1.63334 0
M  V30 2987 H 289.29 -2.64112 -1.67223 0
M  V30 2988 H 288.51 -3.91479 0.462352 0
M  V30 2989 H 289.798 -5.08634 0.130031 0
M  V30 2990 H 289.196 -4.77347 -3.03573 0
M  V30 2991 H 287.753 -5.69667 -3.16737 0
M  V30 2992 N 291.186 -0.45159 -1.50991 0
M  V30 2993 C 292.411 0.110667 -2.07105 0
M  V30 2994 C 292.836 1.3446 -1.31538 0
M  V30 2995 O 292.194 1.77743 -0.357365 0
M  V30 2996 C 292.242 0.397238 -3.58405 0
M  V30 2997 O 291.346 1.48124 -3.84881 0
M  V30 2998 H 290.687 -0.00439271 -0.663985 0
M  V30 2999 H 293.217 -0.637026 -1.9443 0
M  V30 3000 H 293.227 0.64351 -4.02893 0
M  V30 3001 H 291.902 -0.504553 -4.12828 0
M  V30 3002 H 290.479 1.22381 -3.52246 0
M  V30 3003 N 292.664 1.56529 -0.183458 0
M  V30 3004 C 293.892 2.01623 0.464285 0
M  V30 3005 C 294.307 1.06366 1.55986 0
M  V30 3006 O 293.664 0.0665398 1.82379 0
M  V30 3007 C 293.715 3.46475 1.03139 0
M  V30 3008 O 293.436 4.38095 -0.0204675 0
M  V30 3009 C 294.937 4.0703 1.75617 0
M  V30 3010 H 292.157 0.660596 0.117704 0
M  V30 3011 H 294.701 2.02451 -0.288751 0
M  V30 3012 H 292.856 3.46383 1.73486 0
M  V30 3013 H 293.27 5.22973 0.399952 0
M  V30 3014 H 294.744 5.10271 2.10542 0
M  V30 3015 H 295.221 3.49819 2.65563 0
M  V30 3016 H 295.827 4.1086 1.09882 0
M  V30 3017 N 294.142 -0.090211 1.57342 0
M  V30 3018 C 295.075 -1.14035 1.97664 0
M  V30 3019 C 296.053 -1.38576 0.850616 0
M  V30 3020 O 297.237 -1.52255 1.11134 0
M  V30 3021 C 294.364 -2.48854 2.2976 0
M  V30 3022 C 293.41 -2.40564 3.52181 0
M  V30 3023 S 294.243 -1.81745 5.03715 0
M  V30 3024 C 295.399 -3.18178 5.38993 0
M  V30 3025 H 295.632 -0.796636 2.86428 0
M  V30 3026 H 293.165 -0.298072 1.51496 0
M  V30 3027 H 295.123 -3.26413 2.48927 0
M  V30 3028 H 293.784 -2.80393 1.41558 0
M  V30 3029 H 292.977 -3.39942 3.72096 0
M  V30 3030 H 292.579 -1.71135 3.32549 0
M  V30 3031 H 294.871 -4.14461 5.35937 0
M  V30 3032 H 295.814 -3.03062 6.39968 0
M  V30 3033 H 296.222 -3.17935 4.66452 0
M  V30 3034 N 295.62 -1.53406 -0.361157 0
M  V30 3035 C 296.867 -1.69802 -1.10333 0
M  V30 3036 C 297.195 -0.452087 -1.89173 0
M  V30 3037 O 296.45 0.566017 -1.87336 0
M  V30 3038 C 296.749 -2.90211 -2.08596 0
M  V30 3039 C 296.415 -4.26539 -1.46203 0
M  V30 3040 C 295.077 -4.6361 -1.28915 0
M  V30 3041 C 297.429 -5.113 -1.01101 0
M  V30 3042 C 294.757 -5.83075 -0.651157 0
M  V30 3043 C 297.109 -6.31415 -0.387007 0
M  V30 3044 C 295.773 -6.67195 -0.201657 0
M  V30 3045 H 295.043 -0.621351 -0.403737 0
M  V30 3046 H 297.69 -1.87598 -0.384609 0
M  V30 3047 H 295.995 -2.66946 -2.86788 0
M  V30 3048 H 297.692 -3.00091 -2.65982 0
M  V30 3049 H 294.282 -3.97352 -1.60653 0
M  V30 3050 H 298.466 -4.83206 -1.13249 0
M  V30 3051 H 293.722 -6.09385 -0.496006 0
M  V30 3052 H 297.896 -6.96394 -0.0293563 0
M  V30 3053 H 295.523 -7.59628 0.294766 0
M  V30 3054 N 297.098 0.621204 -1.44841 0
M  V30 3055 C 298.323 1.41244 -1.51871 0
M  V30 3056 C 298.748 1.87519 -0.147764 0
M  V30 3057 O 298.106 1.59334 0.865 0
M  V30 3058 C 298.154 2.60221 -2.49634 0
M  V30 3059 O 297.258 3.60395 -2.00473 0
M  V30 3060 H 296.599 0.42223 -0.512463 0
M  V30 3061 H 299.129 0.757305 -1.90069 0
M  V30 3062 H 299.139 3.0764 -2.67996 0
M  V30 3063 H 297.814 2.25887 -3.4921 0
M  V30 3064 H 296.391 3.19717 -1.91925 0
M  V30 3065 N 298.576 1.31904 0.862503 0
M  V30 3066 C 299.816 1.23324 1.63004 0
M  V30 3067 C 300.18 -0.203724 1.90916 0
M  V30 3068 O 301.381 -0.413132 2.65606 0
M  V30 3069 C 299.652 2.06116 2.91978 0
M  V30 3070 S 301.211 2.14478 3.82812 0
M  V30 3071 H 298.029 0.439117 0.559193 0
M  V30 3072 H 300.631 1.66658 1.02202 0
M  V30 3073 H 299.335 3.09593 2.69407 0
M  V30 3074 H 298.866 1.6353 3.57801 0
M  V30 3075 H 300.881 1.28855 4.79177 0
M  V30 3076 N 300.054 -1.07777 1.14986 0
M  V30 3077 C 300.964 -2.18404 0.856546 0
M  V30 3078 C 301.98 -1.73211 -0.165485 0
M  V30 3079 O 303.156 -2.01399 0.00755219 0
M  V30 3080 C 300.221 -3.44977 0.34526 0
M  V30 3081 C 299.282 -4.0476 1.43065 0
M  V30 3082 C 298.515 -5.25291 0.943663 0
M  V30 3083 O 298.738 -5.70004 -0.212426 0
M  V30 3084 O 297.672 -5.76638 1.72547 0
M  V30 3085 H 301.498 -2.45978 1.78125 0
M  V30 3086 H 299.083 -1.17033 0.928631 0
M  V30 3087 H 300.965 -4.21348 0.0663671 0
M  V30 3088 H 299.64 -3.18965 -0.551631 0
M  V30 3089 H 298.547 -3.29949 1.76309 0
M  V30 3090 H 299.88 -4.35035 2.30229 0
M  V30 3091 N 301.532 -0.945985 -1.26051 0
M  V30 3092 C 302.495 -0.463897 -2.24456 0
M  V30 3093 C 303.495 0.427655 -1.55009 0
M  V30 3094 O 304.685 0.226157 -1.72726 0
M  V30 3095 C 301.817 0.330812 -3.39291 0
M  V30 3096 H 303.01 -1.33357 -2.68619 0
M  V30 3097 H 300.563 -0.728416 -1.38289 0
M  V30 3098 H 301.298 1.21852 -3.00537 0
M  V30 3099 H 301.083 -0.308679 -3.90883 0
M  V30 3100 H 302.573 0.657865 -4.12386 0
M  V30 3101 N 303.011 1.40521 -0.713556 0
M  V30 3102 C 303.961 2.27971 -0.036165 0
M  V30 3103 C 304.945 1.43151 0.734623 0
M  V30 3104 O 306.137 1.66261 0.607158 0
M  V30 3105 C 303.266 3.31661 0.886331 0
M  V30 3106 C 302.352 4.23955 0.110836 0
M  V30 3107 N 302.743 4.97641 -0.904847 0
M  V30 3108 C 301.041 4.44674 0.343692 0
M  V30 3109 C 301.742 5.65322 -1.37064 0
M  V30 3110 N 300.718 5.39162 -0.693168 0
M  V30 3111 H 304.52 2.82384 -0.814645 0
M  V30 3112 H 302.034 1.52948 -0.545963 0
M  V30 3113 H 304.031 3.93154 1.38692 0
M  V30 3114 H 302.691 2.78808 1.66421 0
M  V30 3115 H 303.702 5.01689 -1.28563 0
M  V30 3116 H 300.379 4.02801 1.09805 0
M  V30 3117 H 301.769 6.34359 -2.21447 0
M  V30 3118 N 304.489 0.459591 1.5075 0
M  V30 3119 C 305.437 -0.354678 2.2988 0
M  V30 3120 C 306.431 -1.00086 1.36672 0
M  V30 3121 O 307.637 -0.933277 1.53915 0
M  V30 3122 H 304.012 -0.13321 0.740107 0
M  V30 3123 H 305.983 0.333269 2.96533 0
M  V30 3124 C 304.732 -1.43073 3.169 0
M  V30 3125 H 304.055 -0.942882 3.88523 0
M  V30 3126 H 305.495 -1.97328 3.75284 0
M  V30 3127 C 303.954 -2.42633 2.33732 0
M  V30 3128 O 304.484 -3.47658 2.01238 0
M  V30 3129 N 302.69 -2.14066 1.9653 0
M  V30 3130 H 302.237 -1.28685 2.23155 0
M  V30 3131 H 302.195 -2.80917 1.41185 0
M  V30 3132 N 305.967 -1.56429 0.191757 0
M  V30 3133 C 306.897 -2.21937 -0.725696 0
M  V30 3134 C 307.878 -1.1814 -1.2238 0
M  V30 3135 O 309.063 -1.46636 -1.27325 0
M  V30 3136 C 306.193 -2.87611 -1.94672 0
M  V30 3137 C 305.147 -3.97623 -1.58366 0
M  V30 3138 C 304.473 -4.50446 -2.88102 0
M  V30 3139 C 305.773 -5.16197 -0.796133 0
M  V30 3140 H 307.467 -2.98861 -0.179606 0
M  V30 3141 H 305.013 -1.43749 -0.0849464 0
M  V30 3142 H 306.966 -3.3212 -2.59373 0
M  V30 3143 H 305.69 -2.08087 -2.51728 0
M  V30 3144 H 304.349 -3.53801 -0.960247 0
M  V30 3145 H 303.997 -3.67688 -3.43241 0
M  V30 3146 H 303.697 -5.24675 -2.64556 0
M  V30 3147 H 305.221 -4.97654 -3.53798 0
M  V30 3148 H 306.635 -5.57271 -1.34618 0
M  V30 3149 H 305.032 -5.96471 -0.658928 0
M  V30 3150 H 306.102 -4.84473 0.203478 0
M  V30 3151 N 307.445 0.0818655 -1.57387 0
M  V30 3152 C 308.392 1.09834 -2.0299 0
M  V30 3153 C 309.362 1.39043 -0.908639 0
M  V30 3154 O 310.547 1.50282 -1.17559 0
M  V30 3155 C 307.687 2.40971 -2.47037 0
M  V30 3156 C 306.8 2.18379 -3.7274 0
M  V30 3157 C 305.935 3.43008 -4.0561 0
M  V30 3158 C 304.974 3.15736 -5.24383 0
M  V30 3159 N 304.111 4.32667 -5.52941 0
M  V30 3160 H 308.951 0.702472 -2.89602 0
M  V30 3161 H 306.488 0.33531 -1.43227 0
M  V30 3162 H 308.446 3.1752 -2.70623 0
M  V30 3163 H 307.076 2.78379 -1.63417 0
M  V30 3164 H 306.128 1.32569 -3.56552 0
M  V30 3165 H 307.44 1.94227 -4.59431 0
M  V30 3166 H 306.594 4.27958 -4.30043 0
M  V30 3167 H 305.333 3.70225 -3.17466 0
M  V30 3168 H 304.338 2.2918 -4.99757 0
M  V30 3169 H 305.563 2.8985 -6.14136 0
M  V30 3170 H 303.509 4.59935 -4.67756 0
M  V30 3171 H 303.426 4.11753 -6.34031 0
M  V30 3172 H 304.694 5.18644 -5.81918 0
M  V30 3173 N 308.923 1.53595 0.353017 0
M  V30 3174 C 310.171 1.70049 1.09215 0
M  V30 3175 C 310.492 0.461406 1.89463 0
M  V30 3176 O 309.762 -0.524633 1.88744 0
M  V30 3177 H 308.342 0.626912 0.40619 0
M  V30 3178 H 311.004 1.90822 0.396585 0
M  V30 3179 H 310.1 2.56718 1.77488 0
M  V30 3180 N 310.401 -0.613514 1.45168 0
M  V30 3181 C 311.331 -1.7354 1.56225 0
M  V30 3182 C 312.312 -1.64981 0.41414 0
M  V30 3183 O 313.497 -1.83472 0.636526 0
M  V30 3184 C 310.627 -3.12128 1.52295 0
M  V30 3185 C 309.581 -3.35491 2.65762 0
M  V30 3186 C 308.907 -4.74291 2.46885 0
M  V30 3187 C 310.207 -3.26325 4.0781 0
M  V30 3188 H 311.901 -1.64543 2.50132 0
M  V30 3189 H 309.447 -0.790185 1.20383 0
M  V30 3190 H 311.4 -3.90404 1.58628 0
M  V30 3191 H 310.124 -3.2195 0.549139 0
M  V30 3192 H 308.783 -2.59603 2.58847 0
M  V30 3193 H 308.431 -4.80839 1.47657 0
M  V30 3194 H 308.131 -4.9088 3.22972 0
M  V30 3195 H 309.655 -5.54775 2.55063 0
M  V30 3196 H 311.069 -3.94483 4.16 0
M  V30 3197 H 309.466 -3.54445 4.8424 0
M  V30 3198 H 310.536 -2.23855 4.30136 0
M  V30 3199 N 311.879 -1.3236 -0.855495 0
M  V30 3200 C 312.842 -1.21164 -1.94556 0
M  V30 3201 C 313.842 -0.134908 -1.60233 0
M  V30 3202 O 315.032 -0.385249 -1.69887 0
M  V30 3203 C 312.164 -0.863192 -3.29791 0
M  V30 3204 H 313.357 -2.18038 -2.05911 0
M  V30 3205 H 310.91 -1.16179 -1.04557 0
M  V30 3206 H 311.645 0.103769 -3.24134 0
M  V30 3207 H 311.43 -1.64166 -3.56078 0
M  V30 3208 H 312.92 -0.809156 -4.09686 0
M  V30 3209 N 313.357 1.07166 -1.15556 0
M  V30 3210 C 314.582 1.84053 -0.955988 0
M  V30 3211 C 315.007 1.81586 0.490739 0
M  V30 3212 O 314.365 1.21018 1.34997 0
M  V30 3213 C 314.413 3.28957 -1.47714 0
M  V30 3214 O 313.517 4.06795 -0.677593 0
M  V30 3215 H 312.858 0.569842 -0.340847 0
M  V30 3216 H 315.388 1.35178 -1.53584 0
M  V30 3217 H 315.398 3.79788 -1.4908 0
M  V30 3218 H 314.073 3.30068 -2.53037 0
M  V30 3219 H 312.65 3.6561 -0.733721 0
M  V30 3220 N 314.835 0.952656 1.25548 0
M  V30 3221 C 316.06 0.623025 1.97821 0
M  V30 3222 C 316.485 -0.7976 1.70352 0
M  V30 3223 O 315.843 -1.53905 0.958283 0
M  V30 3224 C 315.891 0.885532 3.49558 0
M  V30 3225 O 314.995 -0.0366641 4.12384 0
M  V30 3226 H 314.336 0.237082 0.620232 0
M  V30 3227 H 316.866 1.27871 1.59719 0
M  V30 3228 H 316.876 0.811009 3.99858 0
M  V30 3229 H 315.551 1.92094 3.6888 0
M  V30 3230 H 314.128 0.0898954 3.72792 0
M  V30 3231 N 316.313 -1.40141 0.720998 0
M  V30 3232 C 317.729 -1.54632 0.395113 0
M  V30 3233 C 317.929 -1.69115 -1.09555 0
M  V30 3234 O 316.985 -1.68377 -1.88163 0
M  V30 3235 C 318.298 -2.77177 1.1659 0
M  V30 3236 C 319.846 -2.91 1.15274 0
M  V30 3237 C 320.321 -4.16465 1.90579 0
M  V30 3238 N 321.812 -4.23476 1.87675 0
M  V30 3239 C 322.547 -5.19475 2.42762 0
M  V30 3240 N 322.043 -6.21348 3.06428 0
M  V30 3241 N 323.836 -5.11592 2.32874 0
M  V30 3242 H 315.987 -1.28986 1.68749 0
M  V30 3243 H 318.25 -0.62412 0.713567 0
M  V30 3244 H 317.956 -2.72771 2.22011 0
M  V30 3245 H 317.83 -3.69442 0.76108 0
M  V30 3246 H 320.217 -2.94907 0.106702 0
M  V30 3247 H 320.298 -1.99838 1.59682 0
M  V30 3248 H 319.942 -4.1332 2.95176 0
M  V30 3249 H 319.872 -5.06646 1.43587 0
M  V30 3250 H 322.363 -3.50497 1.41281 0
M  V30 3251 H 322.676 -6.91034 3.45965 0
M  V30 3252 H 321.021 -6.21777 3.10514 0
M  V30 3253 H 324.212 -4.30936 1.82789 0
M  V30 3254 H 324.385 -5.86233 2.76106 0
M  V30 3255 N 317.792 -0.46758 -1.50504 0
M  V30 3256 C 319.02 0.0864133 -2.06719 0
M  V30 3257 C 319.435 1.33819 -1.33184 0
M  V30 3258 O 318.792 1.78061 -0.400083 0
M  V30 3259 C 318.843 0.378079 -3.59517 0
M  V30 3260 O 318.564 -0.824044 -4.3028 0
M  V30 3261 C 320.065 0.979426 -4.32345 0
M  V30 3262 H 317.285 -0.00551697 -0.670977 0
M  V30 3263 H 319.829 -0.655354 -1.93715 0
M  V30 3264 H 317.984 1.06977 -3.72337 0
M  V30 3265 H 318.398 -0.566518 -5.21432 0
M  V30 3266 H 319.872 1.1333 -5.40241 0
M  V30 3267 H 320.349 1.9686 -3.9261 0
M  V30 3268 H 320.955 0.326216 -4.24047 0
M  V30 3269 N 319.27 1.56325 -0.20005 0
M  V30 3270 C 320.233 2.18084 0.705132 0
M  V30 3271 C 321.233 1.13666 1.1374 0
M  V30 3272 O 322.423 1.39023 1.04968 0
M  V30 3273 C 319.555 2.78689 1.96329 0
M  V30 3274 H 320.748 2.99435 0.167023 0
M  V30 3275 H 318.301 1.56221 0.0495725 0
M  V30 3276 H 319.036 2.0115 2.5438 0
M  V30 3277 H 318.821 3.55133 1.66202 0
M  V30 3278 H 320.311 3.26096 2.60866 0
M  V30 3279 N 320.748 -0.0735177 1.57428 0
M  V30 3280 C 321.976 -0.785969 1.9139 0
M  V30 3281 C 322.391 -1.71207 0.795847 0
M  V30 3282 O 321.748 -1.81033 -0.230915 0
M  V30 3283 C 321.799 -1.58107 3.25091 0
M  V30 3284 O 321.52 -0.6922 4.32597 0
M  V30 3285 C 323.021 -2.39467 3.73055 0
M  V30 3286 H 320.241 -0.223558 0.632663 0
M  V30 3287 H 322.785 -0.044302 2.04452 0
M  V30 3288 H 320.94 -2.27503 3.13562 0
M  V30 3289 H 321.354 -1.24504 5.09508 0
M  V30 3290 H 322.828 -2.90716 4.69242 0
M  V30 3291 H 323.305 -3.18913 3.01979 0
M  V30 3292 H 323.911 -1.7523 3.87523 0
M  V30 3293 N 322.226 -1.5378 -0.344866 0
M  V30 3294 C 323.472 -1.71216 -1.08687 0
M  V30 3295 C 323.805 -0.473281 -1.88345 0
M  V30 3296 O 323.08 0.52968 -1.87149 0
M  V30 3297 C 323.363 -2.97486 -2.02914 0
M  V30 3298 C 323.216 -4.31579 -1.26727 0
M  V30 3299 C 324.535 -3.19422 -3.0275 0
M  V30 3300 H 321.654 -0.62301 -0.393735 0
M  V30 3301 H 324.296 -1.8645 -0.365563 0
M  V30 3302 H 322.446 -2.84629 -2.64421 0
M  V30 3303 H 324.118 -4.56284 -0.67845 0
M  V30 3304 H 322.361 -4.30049 -0.569273 0
M  V30 3305 H 323.032 -5.16106 -1.95803 0
M  V30 3306 H 325.508 -3.316 -2.51357 0
M  V30 3307 H 324.384 -4.09169 -3.65885 0
M  V30 3308 H 324.645 -2.35656 -3.74057 0
M  V30 3309 N 323.704 0.605807 -1.45491 0
M  V30 3310 C 324.654 1.71074 -1.50724 0
M  V30 3311 C 325.638 1.5658 -0.37033 0
M  V30 3312 O 326.83 1.65887 -0.617299 0
M  V30 3313 C 323.959 3.0983 -1.47852 0
M  V30 3314 C 323.045 3.29704 -2.66751 0
M  V30 3315 N 323.436 3.19831 -3.91844 0
M  V30 3316 C 321.734 3.60579 -2.62486 0
M  V30 3317 C 322.435 3.41083 -4.71208 0
M  V30 3318 N 321.411 3.65157 -4.02693 0
M  V30 3319 H 325.213 1.61937 -2.45263 0
M  V30 3320 H 322.727 0.80912 -1.40808 0
M  V30 3321 H 324.724 3.89101 -1.49686 0
M  V30 3322 H 323.384 3.20115 -0.543714 0
M  V30 3323 H 324.395 2.98194 -4.23439 0
M  V30 3324 H 321.072 3.7769 -1.77922 0
M  V30 3325 H 322.462 3.38828 -5.80211 0
M  V30 3326 N 325.182 1.32811 0.848464 0
M  V30 3327 C 326.112 1.24882 1.97299 0
M  V30 3328 C 327.093 0.131357 1.69592 0
M  V30 3329 O 328.278 0.319553 1.91553 0
M  V30 3330 C 325.408 0.97746 3.33261 0
M  V30 3331 C 324.362 2.05682 3.75338 0
M  V30 3332 C 323.688 1.63777 5.09 0
M  V30 3333 C 324.988 3.47254 3.90144 0
M  V30 3334 H 326.682 2.18966 2.04191 0
M  V30 3335 H 324.228 1.05413 0.981029 0
M  V30 3336 H 326.181 0.908513 4.1149 0
M  V30 3337 H 324.905 0.000980011 3.266 0
M  V30 3338 H 323.564 2.11603 2.99366 0
M  V30 3339 H 323.212 0.648569 4.98801 0
M  V30 3340 H 322.912 2.36 5.38124 0
M  V30 3341 H 324.436 1.5833 5.89715 0
M  V30 3342 H 325.85 3.43888 4.58709 0
M  V30 3343 H 324.247 4.1788 4.30693 0
M  V30 3344 H 325.317 3.86462 2.92874 0
M  V30 3345 N 326.66 -1.06551 1.16123 0
M  V30 3346 C 327.592 -2.13908 0.823171 0
M  V30 3347 C 328.605 -1.61926 -0.16843 0
M  V30 3348 O 329.794 -1.78412 0.055962 0
M  V30 3349 C 326.894 -3.38283 0.204424 0
M  V30 3350 C 326.067 -4.19589 1.23548 0
M  V30 3351 C 325.126 -5.2233 0.637011 0
M  V30 3352 O 324.152 -5.54034 1.30516 0
M  V30 3353 N 325.354 -5.77621 -0.577474 0
M  V30 3354 H 328.119 -2.43508 1.74711 0
M  V30 3355 H 325.68 -1.2253 1.05821 0
M  V30 3356 H 327.672 -4.0416 -0.208909 0
M  V30 3357 H 326.242 -3.06329 -0.623012 0
M  V30 3358 H 325.462 -3.49406 1.82507 0
M  V30 3359 H 326.75 -4.70718 1.93137 0
M  V30 3360 H 326.148 -5.54125 -1.13853 0
M  V30 3361 H 324.705 -6.45087 -0.933053 0
M  V30 3362 N 328.138 -0.959301 -1.25041 0
M  V30 3363 C 329.101 -0.487677 -2.23952 0
M  V30 3364 C 330.101 0.41119 -1.55454 0
M  V30 3365 O 331.291 0.207825 -1.72956 0
M  V30 3366 C 328.423 0.294807 -3.39623 0
M  V30 3367 H 329.616 -1.36198 -2.67189 0
M  V30 3368 H 327.169 -0.743042 -1.37508 0
M  V30 3369 H 327.904 1.18658 -3.01813 0
M  V30 3370 H 327.689 -0.35012 -3.90534 0
M  V30 3371 H 329.179 0.614089 -4.1306 0
M  V30 3372 N 329.616 1.39756 -0.72842 0
M  V30 3373 C 330.546 2.33289 -0.0991354 0
M  V30 3374 C 331.527 1.53568 0.731489 0
M  V30 3375 O 332.712 1.81987 0.677807 0
M  V30 3376 C 329.842 3.3763 0.813834 0
M  V30 3377 C 328.796 4.2791 0.0878663 0
M  V30 3378 C 328.122 5.22894 1.11741 0
M  V30 3379 C 329.422 5.11314 -1.06563 0
M  V30 3380 H 331.116 2.86163 -0.880408 0
M  V30 3381 H 328.662 1.37591 -0.424819 0
M  V30 3382 H 330.615 4.0201 1.26355 0
M  V30 3383 H 329.339 2.83181 1.62715 0
M  V30 3384 H 327.998 3.65 -0.342159 0
M  V30 3385 H 327.646 4.64744 1.92412 0
M  V30 3386 H 327.346 5.84143 0.636477 0
M  V30 3387 H 328.87 5.90151 1.56697 0
M  V30 3388 H 330.284 5.69076 -0.694671 0
M  V30 3389 H 328.681 5.81671 -1.47577 0
M  V30 3390 H 329.751 4.46534 -1.89038 0
M  V30 3391 N 331.094 0.475555 1.50254 0
M  V30 3392 C 332.505 0.0215174 1.86688 0
M  V30 3393 C 332.856 -1.38467 1.39001 0
M  V30 3394 O 331.981 -2.02732 0.756894 0
M  V30 3395 C 332.576 0.0322715 3.38785 0
M  V30 3396 C 331.135 -0.366314 3.74613 0
M  V30 3397 C 330.282 0.415832 2.74164 0
M  V30 3398 H 333.233 0.689612 1.42934 0
M  V30 3399 H 333.254 -0.76889 3.7265 0
M  V30 3400 H 332.766 1.05584 3.73462 0
M  V30 3401 H 330.867 -1.39406 3.45538 0
M  V30 3402 H 330.98 -0.064555 4.79057 0
M  V30 3403 H 329.344 -0.131048 2.54363 0
M  V30 3404 H 330.127 1.43899 3.11686 0
M  V30 3405 N 332.573 -1.56217 0.208337 0
M  V30 3406 C 333.536 -2.18455 -0.693557 0
M  V30 3407 C 334.536 -1.14268 -1.13135 0
M  V30 3408 O 335.726 -1.39577 -1.0423 0
M  V30 3409 C 332.858 -2.79727 -1.94848 0
M  V30 3410 H 334.051 -2.99519 -0.15114 0
M  V30 3411 H 331.604 -1.56245 -0.041287 0
M  V30 3412 H 332.339 -2.02497 -2.53309 0
M  V30 3413 H 332.124 -3.56009 -1.64316 0
M  V30 3414 H 333.614 -3.27475 -2.59133 0
M  V30 3415 N 334.051 0.0651679 -1.57465 0
M  V30 3416 C 335.014 1.06117 -2.03155 0
M  V30 3417 C 336.014 1.31204 -0.929632 0
M  V30 3418 O 337.204 1.26813 -1.19432 0
M  V30 3419 C 334.336 2.4032 -2.41783 0
M  V30 3420 H 335.529 0.667231 -2.92383 0
M  V30 3421 H 333.082 0.311075 -1.53173 0
M  V30 3422 H 333.817 2.84532 -1.55601 0
M  V30 3423 H 333.602 2.23451 -3.22199 0
M  V30 3424 H 335.092 3.11898 -2.77685 0
M  V30 3425 N 335.529 1.53961 0.336706 0
M  V30 3426 C 336.94 1.62914 0.911925 0
M  V30 3427 C 337.291 0.514795 1.89326 0
M  V30 3428 O 336.416 -0.354395 2.13478 0
M  V30 3429 C 337.011 2.95304 1.66076 0
M  V30 3430 C 335.57 3.06496 2.18489 0
M  V30 3431 C 334.717 2.58403 1.00613 0
M  V30 3432 H 337.668 1.58285 0.114649 0
M  V30 3433 H 337.689 2.84727 2.5241 0
M  V30 3434 H 337.201 3.76387 0.946276 0
M  V30 3435 H 335.302 2.3006 2.93092 0
M  V30 3436 H 335.415 4.1208 2.44391 0
M  V30 3437 H 333.779 2.13977 1.38152 0
M  V30 3438 H 334.562 3.41932 0.306179 0
M  V30 3439 N 337.007 -0.598083 1.45811 0
M  V30 3440 C 338.254 -1.35681 1.50323 0
M  V30 3441 C 338.582 -1.9393 0.148739 0
M  V30 3442 O 337.837 -1.76094 -0.853787 0
M  V30 3443 C 338.136 -2.51669 2.53766 0
M  V30 3444 C 337.802 -2.11508 3.98215 0
M  V30 3445 C 336.464 -2.0027 4.37545 0
M  V30 3446 C 338.816 -1.80308 4.89018 0
M  V30 3447 C 336.144 -1.56067 5.65562 0
M  V30 3448 C 338.496 -1.37589 6.17456 0
M  V30 3449 C 337.16 -1.24916 6.55708 0
M  V30 3450 H 336.43 -0.496492 0.550069 0
M  V30 3451 H 339.077 -0.675052 1.79207 0
M  V30 3452 H 337.382 -3.25225 2.18486 0
M  V30 3453 H 339.079 -3.09895 2.54492 0
M  V30 3454 H 335.669 -2.21185 3.67117 0
M  V30 3455 H 339.853 -1.87884 4.59362 0
M  V30 3456 H 335.109 -1.44886 5.93985 0
M  V30 3457 H 339.283 -1.12495 6.87254 0
M  V30 3458 H 336.91 -0.904386 7.54801 0
M  V30 3459 N 338.485 -1.33259 -0.841409 0
M  V30 3460 C 339.433 -1.23279 -1.97244 0
M  V30 3461 C 340.427 -0.134706 -1.68864 0
M  V30 3462 O 341.633 -0.298501 -1.77508 0
M  V30 3463 H 338.008 -0.382497 -0.647457 0
M  V30 3464 H 339.979 -2.18906 -2.02787 0
M  V30 3465 C 338.728 -0.986268 -3.33419 0
M  V30 3466 H 338.051 -1.82347 -3.55794 0
M  V30 3467 H 339.491 -0.956728 -4.13065 0
M  V30 3468 C 337.95 0.310842 -3.35463 0
M  V30 3469 O 338.48 1.31838 -3.79449 0
M  V30 3470 N 336.686 0.337485 -2.88634 0
M  V30 3471 H 336.233 -0.482967 -2.53032 0
M  V30 3472 H 336.191 1.20518 -2.90384 0
M  V30 3473 N 339.963 1.05934 -1.16686 0
M  V30 3474 C 341.212 1.78188 -0.945085 0
M  V30 3475 C 341.525 1.88338 0.528021 0
M  V30 3476 O 342.731 2.57258 0.867799 0
M  V30 3477 C 341.187 3.20277 -1.64167 0
M  V30 3478 C 340.795 3.18281 -3.15279 0
M  V30 3479 C 342.539 3.97039 -1.502 0
M  V30 3480 C 340.446 4.55112 -3.7766 0
M  V30 3481 H 339.376 0.667866 -0.349959 0
M  V30 3482 H 342.027 1.18794 -1.39858 0
M  V30 3483 H 340.409 3.79952 -1.11589 0
M  V30 3484 H 341.583 2.68167 -3.74731 0
M  V30 3485 H 339.898 2.55018 -3.29173 0
M  V30 3486 H 342.495 4.98194 -1.94183 0
M  V30 3487 H 342.838 4.13845 -0.451461 0
M  V30 3488 H 343.371 3.43894 -1.99954 0
M  V30 3489 H 340.11 4.43512 -4.82677 0
M  V30 3490 H 339.63 5.05406 -3.22994 0
M  V30 3491 H 341.309 5.24064 -3.79428 0
M  V30 3492 N 341.441 0.965919 1.2453 0
M  V30 3493 C 342.669 0.644385 1.96609 0
M  V30 3494 C 343.084 -0.785823 1.71669 0
M  V30 3495 O 342.441 -1.52703 0.999399 0
M  V30 3496 C 342.492 0.907375 3.49927 0
M  V30 3497 O 342.213 2.28136 3.74013 0
M  V30 3498 C 343.714 0.599784 4.39224 0
M  V30 3499 H 340.934 0.240588 0.626385 0
M  V30 3500 H 343.478 1.29337 1.58405 0
M  V30 3501 H 341.633 0.304631 3.862 0
M  V30 3502 H 342.047 2.36002 4.68405 0
M  V30 3503 H 343.521 0.834263 5.45659 0
M  V30 3504 H 343.998 -0.465921 4.36722 0
M  V30 3505 H 344.604 1.18235 4.08535 0
M  V30 3506 N 342.919 -1.39368 0.735821 0
M  V30 3507 C 344.165 -2.00794 0.284544 0
M  V30 3508 C 344.498 -1.58255 -1.12557 0
M  V30 3509 O 343.773 -0.811819 -1.76748 0
M  V30 3510 C 344.056 -3.58011 0.387337 0
M  V30 3511 C 343.909 -4.10566 1.83728 0
M  V30 3512 C 345.228 -4.395 -0.22975 0
M  V30 3513 H 342.347 -0.729501 0.104866 0
M  V30 3514 H 344.989 -1.65564 0.93213 0
M  V30 3515 H 343.139 -3.88154 -0.164006 0
M  V30 3516 H 344.811 -3.91139 2.44556 0
M  V30 3517 H 343.054 -3.64095 2.35833 0
M  V30 3518 H 343.725 -5.19702 1.86047 0
M  V30 3519 H 346.201 -4.15406 0.240257 0
M  V30 3520 H 345.077 -5.48752 -0.127485 0
M  V30 3521 H 345.338 -4.22062 -1.3159 0
M  V30 3522 N 344.397 -0.483516 -1.5 0
M  V30 3523 C 345.625 0.0644831 -2.06799 0
M  V30 3524 C 346.04 1.32399 -1.34596 0
M  V30 3525 O 345.397 1.77626 -0.418946 0
M  V30 3526 C 345.448 0.339927 -3.59898 0
M  V30 3527 O 345.169 -0.869635 -4.29382 0
M  V30 3528 C 346.67 0.933515 -4.33359 0
M  V30 3529 H 343.89 -0.0126333 -0.670881 0
M  V30 3530 H 346.434 -0.675864 -1.93009 0
M  V30 3531 H 344.589 1.03022 -3.7345 0
M  V30 3532 H 345.003 -0.62179 -5.20801 0
M  V30 3533 H 346.477 1.07593 -5.41413 0
M  V30 3534 H 346.954 1.92685 -3.94676 0
M  V30 3535 H 347.56 0.281221 -4.24369 0
M  V30 3536 N 345.875 1.56104 -0.216619 0
M  V30 3537 C 346.822 2.2007 0.695531 0
M  V30 3538 C 347.792 1.15471 1.19397 0
M  V30 3539 O 348.977 1.43807 1.25396 0
M  V30 3540 C 346.117 2.88073 1.90021 0
M  V30 3541 C 345.23 4.07253 1.44113 0
M  V30 3542 C 344.365 4.63052 2.603 0
M  V30 3543 C 343.404 5.74545 2.11103 0
M  V30 3544 N 342.541 6.24656 3.20545 0
M  V30 3545 H 347.381 2.97655 0.143327 0
M  V30 3546 H 344.918 1.46982 0.0589934 0
M  V30 3547 H 346.876 3.25681 2.60745 0
M  V30 3548 H 345.506 2.13015 2.42538 0
M  V30 3549 H 344.558 3.75164 0.628999 0
M  V30 3550 H 345.87 4.8783 1.04036 0
M  V30 3551 H 345.024 5.03078 3.39113 0
M  V30 3552 H 343.763 3.81628 3.03663 0
M  V30 3553 H 342.768 5.34027 1.3075 0
M  V30 3554 H 343.993 6.57801 1.68746 0
M  V30 3555 H 341.939 5.46148 3.63399 0
M  V30 3556 H 341.856 7.00343 2.84704 0
M  V30 3557 H 343.124 6.69338 3.99508 0
M  V30 3558 N 347.353 -0.0568162 1.57498 0
M  V30 3559 C 348.283 -1.06593 2.0775 0
M  V30 3560 C 349.264 -1.39448 0.974082 0
M  V30 3561 O 350.449 -1.48815 1.24771 0
M  V30 3562 C 347.579 -2.37509 2.5339 0
M  V30 3563 C 346.533 -2.1897 3.67745 0
M  V30 3564 C 345.859 -3.55402 3.99492 0
M  V30 3565 C 347.159 -1.59859 4.97235 0
M  V30 3566 H 348.853 -0.647706 2.9231 0
M  V30 3567 H 346.399 -0.310116 1.40621 0
M  V30 3568 H 348.352 -3.08409 2.87162 0
M  V30 3569 H 347.076 -2.8134 1.65878 0
M  V30 3570 H 345.735 -1.50508 3.3428 0
M  V30 3571 H 345.383 -3.9683 3.09088 0
M  V30 3572 H 345.083 -3.43831 4.76502 0
M  V30 3573 H 346.607 -4.27708 4.35773 0
M  V30 3574 H 348.021 -2.20642 5.29141 0
M  V30 3575 H 346.418 -1.58942 5.78669 0
M  V30 3576 H 347.488 -0.561506 4.81638 0
M  V30 3577 N 348.832 -1.54138 -0.328536 0
M  V30 3578 C 350.057 -1.76378 -1.09112 0
M  V30 3579 C 350.482 -0.508596 -1.81094 0
M  V30 3580 O 349.84 0.539598 -1.73084 0
M  V30 3581 C 349.888 -2.95358 -2.06872 0
M  V30 3582 O 348.992 -2.66556 -3.14677 0
M  V30 3583 H 348.333 -0.584614 -0.314838 0
M  V30 3584 H 350.863 -2.01146 -0.374348 0
M  V30 3585 H 350.873 -3.22566 -2.4983 0
M  V30 3586 H 349.548 -3.86385 -1.5388 0
M  V30 3587 H 348.125 -2.50282 -2.7643 0
M  V30 3588 N 350.31 0.590341 -1.46126 0
M  V30 3589 C 351.535 1.37991 -1.54833 0
M  V30 3590 C 351.96 1.87163 -0.187506 0
M  V30 3591 O 351.318 1.61133 0.831008 0
M  V30 3592 C 351.366 2.54867 -2.55098 0
M  V30 3593 O 350.47 3.56061 -2.08073 0
M  V30 3594 H 349.811 0.411265 -0.521303 0
M  V30 3595 H 352.341 0.716819 -1.91632 0
M  V30 3596 H 352.351 3.01886 -2.74461 0
M  V30 3597 H 351.026 2.18429 -3.53923 0
M  V30 3598 H 349.603 3.15574 -1.98664 0
M  V30 3599 N 351.788 1.33704 0.83433 0
M  V30 3600 C 353.013 1.28615 1.62705 0
M  V30 3601 C 353.438 -0.139242 1.87584 0
M  V30 3602 O 352.796 -1.09734 1.4432 0
M  V30 3603 C 352.844 2.07139 2.95171 0
M  V30 3604 O 351.948 1.4331 3.86699 0
M  V30 3605 H 351.289 0.44226 0.49528 0
M  V30 3606 H 353.819 1.76335 1.03766 0
M  V30 3607 H 353.829 2.18073 3.44831 0
M  V30 3608 H 352.504 3.10779 2.76386 0
M  V30 3609 H 351.081 1.4105 3.45195 0
M  V30 3610 N 353.266 -1.05314 1.17247 0
M  V30 3611 C 354.214 -2.15137 0.884238 0
M  V30 3612 C 355.208 -1.68729 -0.15063 0
M  V30 3613 O 356.414 -1.8 -0.00366673 0
M  V30 3614 H 352.789 -0.702471 0.2684 0
M  V30 3615 H 354.76 -2.36652 1.81764 0
M  V30 3616 C 353.509 -3.45243 0.412659 0
M  V30 3617 H 352.832 -3.81352 1.20043 0
M  V30 3618 H 354.272 -4.23263 0.249858 0
M  V30 3619 C 352.731 -3.25487 -0.86948 0
M  V30 3620 O 353.261 -3.51938 -1.93655 0
M  V30 3621 N 351.467 -2.78875 -0.817147 0
M  V30 3622 H 351.014 -2.57549 0.0514211 0
M  V30 3623 H 350.972 -2.66036 -1.67547 0
M  V30 3624 N 354.744 -0.972509 -1.24016 0
M  V30 3625 C 355.707 -0.511403 -2.23422 0
M  V30 3626 C 356.707 0.394679 -1.55881 0
M  V30 3627 O 357.897 0.189469 -1.73167 0
M  V30 3628 C 355.029 0.258769 -3.39916 0
M  V30 3629 H 356.222 -1.39024 -2.6573 0
M  V30 3630 H 353.775 -0.757585 -1.36713 0
M  V30 3631 H 354.51 1.1545 -3.03054 0
M  V30 3632 H 354.295 -0.391522 -3.9014 0
M  V30 3633 H 355.785 0.570244 -4.13688 0
M  V30 3634 N 356.222 1.38976 -0.743202 0
M  V30 3635 C 357.447 2.05161 -0.303936 0
M  V30 3636 C 357.872 1.55677 1.05576 0
M  V30 3637 O 357.23 0.704131 1.67068 0
M  V30 3638 C 357.278 3.59138 -0.324373 0
M  V30 3639 O 356.382 4.06668 0.685204 0
M  V30 3640 H 355.723 0.649815 -0.136518 0
M  V30 3641 H 358.253 1.77852 -1.01142 0
M  V30 3642 H 358.263 4.07639 -0.171618 0
M  V30 3643 H 356.938 3.94515 -1.31647 0
M  V30 3644 H 355.515 3.69561 0.497913 0
M  V30 3645 N 357.7 0.491464 1.49741 0
M  V30 3646 C 358.946 -0.0565092 2.02721 0
M  V30 3647 C 359.279 -1.37522 1.37118 0
M  V30 3648 O 358.554 -1.87866 0.503645 0
M  V30 3649 C 358.837 -0.219051 3.59433 0
M  V30 3650 C 358.69 1.12211 4.35579 0
M  V30 3651 C 360.009 -0.964157 4.29409 0
M  V30 3652 H 357.128 -0.0190627 0.736753 0
M  V30 3653 H 359.77 0.641021 1.7886 0
M  V30 3654 H 357.92 -0.813165 3.79895 0
M  V30 3655 H 359.592 1.75437 4.26637 0
M  V30 3656 H 357.835 1.71377 3.98513 0
M  V30 3657 H 358.506 0.961794 5.43556 0
M  V30 3658 H 360.982 -0.460378 4.13545 0
M  V30 3659 H 359.858 -1.04671 5.38828 0
M  V30 3660 H 360.119 -2.00563 3.93988 0
M  V30 3661 N 359.178 -1.55987 0.224894 0
M  V30 3662 C 360.141 -2.19178 -0.670348 0
M  V30 3663 C 361.141 -1.15461 -1.11917 0
M  V30 3664 O 362.331 -1.40675 -1.02743 0
M  V30 3665 C 359.463 -2.81777 -1.9187 0
M  V30 3666 H 360.656 -2.99662 -0.119364 0
M  V30 3667 H 358.209 -1.5628 -0.0247128 0
M  V30 3668 H 358.944 -2.05172 -2.51147 0
M  V30 3669 H 358.729 -3.57732 -1.60531 0
M  V30 3670 H 360.219 -3.30205 -2.55645 0
M  V30 3671 N 360.656 0.0484629 -1.57525 0
M  V30 3672 C 361.902 0.738854 -1.89506 0
M  V30 3673 C 362.257 1.73989 -0.821319 0
M  V30 3674 O 361.55 1.90825 0.172129 0
M  V30 3675 C 361.744 1.46632 -3.25935 0
M  V30 3676 C 361.573 0.537254 -4.46479 0
M  V30 3677 C 360.343 0.165484 -5.05029 0
M  V30 3678 C 362.541 -0.176085 -5.13998 0
M  V30 3679 N 360.523 -0.766868 -6.09091 0
M  V30 3680 C 361.894 -0.96478 -6.12448 0
M  V30 3681 C 363.949 -0.24509 -4.97296 0
M  V30 3682 C 362.652 -1.8161 -6.95996 0
M  V30 3683 C 364.678 -1.08347 -5.81391 0
M  V30 3684 C 364.04 -1.86014 -6.79395 0
M  V30 3685 H 360.139 0.245067 -0.742608 0
M  V30 3686 H 362.723 -0.000476161 -1.947 0
M  V30 3687 H 360.894 2.17623 -3.21706 0
M  V30 3688 H 362.626 2.10757 -3.45491 0
M  V30 3689 H 359.381 0.523466 -4.70698 0
M  V30 3690 H 359.805 -1.22698 -6.65788 0
M  V30 3691 H 364.447 0.341063 -4.21422 0
M  V30 3692 H 362.165 -2.41313 -7.71229 0
M  V30 3693 H 365.751 -1.14014 -5.70519 0
M  V30 3694 H 364.631 -2.4984 -7.43337 0
M  V30 3695 N 362.134 1.5431 0.320358 0
M  V30 3696 C 363.067 1.78769 1.41834 0
M  V30 3697 C 364.045 0.63783 1.49568 0
M  V30 3698 O 365.229 0.875628 1.66928 0
M  V30 3699 C 362.356 1.90712 2.79905 0
M  V30 3700 C 361.402 3.13023 2.89687 0
M  V30 3701 S 362.235 4.71554 2.53766 0
M  V30 3702 C 363.391 4.86408 3.93902 0
M  V30 3703 H 363.624 2.71619 1.20874 0
M  V30 3704 H 361.157 1.45474 0.517377 0
M  V30 3705 H 363.115 1.98279 3.59438 0
M  V30 3706 H 361.776 0.988343 2.98145 0
M  V30 3707 H 360.969 3.18124 3.90913 0
M  V30 3708 H 360.571 3.03803 2.18128 0
M  V30 3709 H 362.863 4.69241 4.88691 0
M  V30 3710 H 363.806 5.88508 3.93782 0
M  V30 3711 H 364.214 4.14689 3.83005 0
M  V30 3712 N 363.613 -0.582584 1.46437 0
M  V30 3713 C 365.024 -1.1647 1.45916 0
M  V30 3714 C 365.375 -1.95177 0.200077 0
M  V30 3715 O 364.5 -2.04874 -0.696819 0
M  V30 3716 C 365.095 -2.11885 2.64367 0
M  V30 3717 C 363.654 -2.65421 2.66887 0
M  V30 3718 C 362.801 -1.41294 2.38603 0
M  V30 3719 H 365.752 -0.370514 1.54314 0
M  V30 3720 H 365.773 -2.9535 2.39892 0
M  V30 3721 H 365.285 -1.54573 3.5599 0
M  V30 3722 H 363.386 -3.26602 1.79338 0
M  V30 3723 H 363.499 -3.08147 3.66854 0
M  V30 3724 H 361.863 -1.71109 1.88663 0
M  V30 3725 H 362.646 -0.858125 3.32402 0
M  V30 3726 N 365.091 -1.34144 -0.827227 0
M  V30 3727 C 366.339 -1.26009 -1.58007 0
M  V30 3728 C 366.66 0.170971 -1.94249 0
M  V30 3729 O 365.93 1.10256 -1.61927 0
M  V30 3730 H 364.51 -0.463414 -0.585881 0
M  V30 3731 H 367.172 -1.68005 -0.987951 0
M  V30 3732 H 366.268 -1.86187 -2.50481 0
M  V30 3733 N 366.569 1.04691 -1.17803 0
M  V30 3734 C 367.532 2.10724 -0.901545 0
M  V30 3735 C 368.532 1.6042 0.110437 0
M  V30 3736 O 369.722 1.7377 -0.122303 0
M  V30 3737 C 366.854 3.39084 -0.351409 0
M  V30 3738 H 368.047 2.36686 -1.84174 0
M  V30 3739 H 365.6 1.21015 -0.98919 0
M  V30 3740 H 366.335 3.18782 0.59569 0
M  V30 3741 H 366.12 3.76909 -1.08083 0
M  V30 3742 H 367.61 4.17227 -0.176451 0
M  V30 3743 N 368.047 0.979072 1.23499 0
M  V30 3744 C 369.324 0.563674 1.87302 0
M  V30 3745 C 369.704 -0.959199 1.88049 0
M  V30 3746 O 369.052 -1.83535 1.36114 0
M  V30 3747 C 369.262 1.16822 3.28867 0
M  V30 3748 C 370.61 1.26014 4.0547 0
M  V30 3749 O 371.634 1.12158 3.38082 0
M  V30 3750 O 370.493 1.48044 5.26066 0
M  V30 3751 H 367.587 0.189602 0.804972 0
M  V30 3752 H 370.133 1.07407 1.31384 0
M  V30 3753 H 368.905 2.21049 3.22883 0
M  V30 3754 H 368.528 0.642564 3.92373 0
M  V30 3755 N 369.525 -1.3858 0.750561 0
M  V30 3756 C 370.773 -1.99789 0.30477 0
M  V30 3757 C 371.094 -1.59874 -1.11649 0
M  V30 3758 O 370.364 -0.85417 -1.76297 0
M  V30 3759 H 368.944 -0.738902 0.109694 0
M  V30 3760 H 371.606 -1.69391 0.963983 0
M  V30 3761 H 370.702 -3.09952 0.365499 0
M  V30 3762 N 371.003 -0.499398 -1.49478 0
M  V30 3763 C 372.419 -0.155261 -1.58843 0
M  V30 3764 C 372.619 1.34008 -1.50479 0
M  V30 3765 O 371.675 2.11589 -1.37791 0
M  V30 3766 C 372.988 -0.730636 -2.91689 0
M  V30 3767 C 374.536 -0.696599 -3.0515 0
M  V30 3768 C 375.011 -1.25001 -4.40612 0
M  V30 3769 N 376.502 -1.21064 -4.47099 0
M  V30 3770 C 377.237 -1.60905 -5.50361 0
M  V30 3771 N 376.733 -2.08331 -6.60735 0
M  V30 3772 N 378.526 -1.52331 -5.41065 0
M  V30 3773 H 370.677 -1.47162 -1.53158 0
M  V30 3774 H 372.94 -0.610309 -0.725415 0
M  V30 3775 H 372.646 -1.77928 -3.03372 0
M  V30 3776 H 372.52 -0.190161 -3.7672 0
M  V30 3777 H 374.907 0.343204 -2.93097 0
M  V30 3778 H 374.988 -1.2742 -2.21806 0
M  V30 3779 H 374.632 -2.28859 -4.53416 0
M  V30 3780 H 374.562 -0.64836 -5.22593 0
M  V30 3781 H 377.053 -0.863128 -3.67911 0
M  V30 3782 H 377.366 -2.36805 -7.35624 0
M  V30 3783 H 375.711 -2.12304 -6.6178 0
M  V30 3784 H 378.902 -1.151 -4.53729 0
M  V30 3785 H 379.075 -1.83704 -6.21415 0
M  V30 3786 N 372.481 1.55866 -0.233164 0
M  V30 3787 C 373.444 2.1953 0.658715 0
M  V30 3788 C 374.444 1.16053 1.11303 0
M  V30 3789 O 375.634 1.41218 1.01996 0
M  V30 3790 C 372.766 2.82791 1.90373 0
M  V30 3791 H 373.959 2.99721 0.10347 0
M  V30 3792 H 371.512 1.56291 0.0164245 0
M  V30 3793 H 372.247 2.06501 2.50056 0
M  V30 3794 H 372.032 3.58578 1.58632 0
M  V30 3795 H 373.522 3.31556 2.53891 0
M  V30 3796 N 373.959 -0.0401083 1.57549 0
M  V30 3797 C 374.889 -1.04384 2.08869 0
M  V30 3798 C 375.87 -1.38407 0.988817 0
M  V30 3799 O 377.055 -1.47483 1.26342 0
M  V30 3800 C 374.185 -2.34808 2.55895 0
M  V30 3801 C 373.139 -2.15057 3.70047 0
M  V30 3802 C 372.465 -3.51145 4.03239 0
M  V30 3803 C 373.765 -1.54576 4.98902 0
M  V30 3804 H 375.459 -0.616666 2.92981 0
M  V30 3805 H 373.005 -0.295184 1.40942 0
M  V30 3806 H 374.958 -3.05346 2.90417 0
M  V30 3807 H 373.682 -2.79565 1.68853 0
M  V30 3808 H 372.341 -1.46954 3.35857 0
M  V30 3809 H 371.989 -3.93529 3.13279 0
M  V30 3810 H 371.689 -3.38758 4.80122 0
M  V30 3811 H 373.213 -4.23062 4.40285 0
M  V30 3812 H 374.627 -2.15017 5.31451 0
M  V30 3813 H 373.024 -1.52796 5.80322 0
M  V30 3814 H 374.094 -0.51039 4.82206 0
M  V30 3815 N 375.437 -1.54477 -0.31217 0
M  V30 3816 C 376.367 -1.87652 -1.38957 0
M  V30 3817 C 377.348 -0.734358 -1.53431 0
M  V30 3818 O 378.533 -0.98911 -1.67123 0
M  V30 3819 C 375.663 -2.11396 -2.75552 0
M  V30 3820 C 374.617 -3.27243 -2.75855 0
M  V30 3821 C 373.943 -3.36382 -4.15633 0
M  V30 3822 C 375.243 -4.64622 -2.38587 0
M  V30 3823 H 376.937 -2.77887 -1.11442 0
M  V30 3824 H 374.483 -1.33707 -0.534655 0
M  V30 3825 H 376.436 -2.33189 -3.51 0
M  V30 3826 H 375.16 -1.17921 -3.04569 0
M  V30 3827 H 373.819 -3.05356 -2.02863 0
M  V30 3828 H 373.467 -2.40445 -4.41809 0
M  V30 3829 H 373.167 -4.14249 -4.1674 0
M  V30 3830 H 374.691 -3.60422 -4.92877 0
M  V30 3831 H 376.105 -4.86219 -3.03749 0
M  V30 3832 H 374.502 -5.45121 -2.50925 0
M  V30 3833 H 375.572 -4.66097 -1.33723 0
M  V30 3834 N 376.915 0.57481 -1.46744 0
M  V30 3835 C 377.847 1.69804 -1.53946 0
M  V30 3836 C 378.86 1.57098 -0.427106 0
M  V30 3837 O 380.049 1.64378 -0.695863 0
M  V30 3838 C 377.149 3.08125 -1.4111 0
M  V30 3839 C 376.322 3.46757 -2.66605 0
M  V30 3840 C 375.381 4.6417 -2.47855 0
M  V30 3841 O 374.407 4.69634 -3.21609 0
M  V30 3842 N 375.609 5.59553 -1.54534 0
M  V30 3843 H 378.374 1.64077 -2.50796 0
M  V30 3844 H 375.935 0.761 -1.429 0
M  V30 3845 H 377.927 3.84478 -1.26328 0
M  V30 3846 H 376.497 3.08175 -0.524109 0
M  V30 3847 H 375.717 2.6003 -2.96274 0
M  V30 3848 H 377.005 3.69337 -3.49954 0
M  V30 3849 H 376.403 5.57881 -0.937304 0
M  V30 3850 H 374.96 6.35304 -1.45711 0
M  V30 3851 N 378.394 1.34581 0.820102 0
M  V30 3852 C 379.619 1.30333 1.61332 0
M  V30 3853 C 380.044 -0.119339 1.87721 0
M  V30 3854 O 379.402 -1.08197 1.45475 0
M  V30 3855 C 379.45 2.10258 2.92957 0
M  V30 3856 O 378.554 1.47404 3.85157 0
M  V30 3857 H 377.895 0.447488 0.490561 0
M  V30 3858 H 380.425 1.77425 1.01889 0
M  V30 3859 H 380.435 2.21718 3.42498 0
M  V30 3860 H 379.11 3.13693 2.73074 0
M  V30 3861 H 377.687 1.44703 3.43679 0
M  V30 3862 N 379.872 -1.04064 1.18357 0
M  V30 3863 C 381.112 -1.78829 0.989921 0
M  V30 3864 C 381.476 -1.86106 -0.472095 0
M  V30 3865 O 382.677 -2.57076 -0.785187 0
M  V30 3866 C 380.948 -3.1823 1.6268 0
M  V30 3867 S 382.507 -4.09332 1.58091 0
M  V30 3868 H 379.325 -0.615754 0.355482 0
M  V30 3869 H 381.927 -1.24778 1.50501 0
M  V30 3870 H 380.631 -3.10543 2.68311 0
M  V30 3871 H 380.162 -3.77357 1.112 0
M  V30 3872 H 382.177 -4.92598 0.596817 0
M  V30 3873 N 381.35 -0.985608 -1.22978 0
M  V30 3874 C 382.578 -0.675582 -1.95559 0
M  V30 3875 C 382.993 0.758413 -1.72897 0
M  V30 3876 O 382.35 1.51094 -1.02357 0
M  V30 3877 C 382.401 -0.96293 -3.48439 0
M  V30 3878 O 382.122 -2.34057 -3.70336 0
M  V30 3879 C 383.623 -0.669585 -4.38214 0
M  V30 3880 H 380.843 -0.250523 -0.622478 0
M  V30 3881 H 383.387 -1.3184 -1.56328 0
M  V30 3882 H 381.542 -0.366033 -3.85667 0
M  V30 3883 H 381.956 -2.43424 -4.64591 0
M  V30 3884 H 383.43 -0.920967 -5.44263 0
M  V30 3885 H 383.907 0.396383 -4.37408 0
M  V30 3886 H 384.513 -1.2472 -4.06602 0
M  V30 3887 N 382.828 1.3818 -0.7579 0
M  V30 3888 C 384.074 2.00316 -0.316453 0
M  V30 3889 C 384.407 1.60026 1.10025 0
M  V30 3890 O 383.682 0.839835 1.75434 0
M  V30 3891 C 383.965 3.57349 -0.444245 0
M  V30 3892 C 383.818 4.07591 -1.90236 0
M  V30 3893 C 385.137 4.3981 0.1598 0
M  V30 3894 H 382.256 0.727741 -0.116459 0
M  V30 3895 H 384.898 1.6406 -0.958352 0
M  V30 3896 H 383.048 3.88365 0.102233 0
M  V30 3897 H 384.72 3.87199 -2.50748 0
M  V30 3898 H 382.963 3.60297 -2.41595 0
M  V30 3899 H 383.634 5.16677 -1.94291 0
M  V30 3900 H 386.11 4.14971 -0.306314 0
M  V30 3901 H 384.986 5.48885 0.0401675 0
M  V30 3902 H 385.247 4.24102 1.24859 0
M  V30 3903 N 384.306 0.507319 1.49211 0
M  V30 3904 C 385.238 -0.304532 2.27168 0
M  V30 3905 C 386.251 -0.924956 1.33972 0
M  V30 3906 O 387.44 -0.807227 1.59205 0
M  V30 3907 C 384.54 -1.44431 3.06583 0
M  V30 3908 C 383.713 -0.930026 4.27398 0
M  V30 3909 C 382.772 -1.94817 4.88807 0
M  V30 3910 O 381.798 -1.51418 5.4869 0
M  V30 3911 N 383 -3.279 4.79022 0
M  V30 3912 H 385.765 0.36395 2.97482 0
M  V30 3913 H 383.326 0.340249 1.58284 0
M  V30 3914 H 385.318 -2.12311 3.44537 0
M  V30 3915 H 383.888 -2.01684 2.38835 0
M  V30 3916 H 383.108 -0.0759244 3.94127 0
M  V30 3917 H 384.396 -0.564932 5.05654 0
M  V30 3918 H 383.794 -3.65843 4.3148 0
M  V30 3919 H 382.351 -3.91476 5.21142 0
M  V30 3920 N 385.784 -1.5574 0.241426 0
M  V30 3921 C 387.03 -1.99104 -0.385406 0
M  V30 3922 C 387.363 -1.1293 -1.57988 0
M  V30 3923 O 386.638 -0.191449 -1.93555 0
M  V30 3924 C 386.921 -3.51087 -0.800616 0
M  V30 3925 C 386.774 -4.48028 0.398874 0
M  V30 3926 C 388.093 -4.08015 -1.64959 0
M  V30 3927 H 385.212 -0.723848 -0.138614 0
M  V30 3928 H 387.854 -1.86903 0.341642 0
M  V30 3929 H 386.004 -3.61615 -1.4201 0
M  V30 3930 H 387.676 -4.49487 1.03726 0
M  V30 3931 H 385.919 -4.21077 1.04293 0
M  V30 3932 H 386.59 -5.51962 0.0651056 0
M  V30 3933 H 389.066 -4.00555 -1.12672 0
M  V30 3934 H 387.942 -5.14635 -1.90898 0
M  V30 3935 H 388.203 -3.56131 -2.61961 0
M  V30 3936 N 387.262 0.0317525 -1.57568 0
M  V30 3937 C 388.49 0.734949 -1.93407 0
M  V30 3938 C 388.905 1.69036 -0.84096 0
M  V30 3939 O 388.262 1.81582 0.182836 0
M  V30 3940 C 388.313 1.49432 -3.29169 0
M  V30 3941 O 388.034 0.577261 -4.3428 0
M  V30 3942 C 389.535 2.29492 -3.79273 0
M  V30 3943 H 386.755 0.206706 -0.638368 0
M  V30 3944 H 389.299 -0.00992046 -2.04498 0
M  V30 3945 H 387.454 2.1911 -3.19483 0
M  V30 3946 H 387.868 1.10952 -5.1263 0
M  V30 3947 H 389.342 2.78172 -4.76785 0
M  V30 3948 H 389.819 3.10794 -3.10328 0
M  V30 3949 H 390.425 1.64894 -3.92033 0
M  V30 3950 N 388.74 1.54641 0.303973 0
M  V30 3951 C 389.672 1.81754 1.39636 0
M  V30 3952 C 390.685 0.70035 1.46966 0
M  V30 3953 O 391.874 0.97778 1.49338 0
M  V30 3954 C 388.974 1.93785 2.7803 0
M  V30 3955 C 388.147 3.24156 2.93669 0
M  V30 3956 C 387.206 3.26641 4.12544 0
M  V30 3957 O 386.232 4.00187 4.04771 0
M  V30 3958 N 387.434 2.5182 5.23036 0
M  V30 3959 H 390.199 2.76031 1.16734 0
M  V30 3960 H 387.76 1.54178 0.494033 0
M  V30 3961 H 389.752 1.92852 3.55795 0
M  V30 3962 H 388.322 1.06515 2.93893 0
M  V30 3963 H 387.542 3.37887 2.03042 0
M  V30 3964 H 388.83 4.10195 3.01027 0
M  V30 3965 H 388.228 1.91692 5.32232 0
M  V30 3966 H 386.785 2.56644 5.99147 0
M  V30 3967 N 390.218 -0.567019 1.47046 0
M  V30 3968 C 391.181 -1.65696 1.58359 0
M  V30 3969 C 392.181 -1.54097 0.459441 0
M  V30 3970 O 393.371 -1.58432 0.724225 0
M  V30 3971 C 390.503 -3.05197 1.51879 0
M  V30 3972 H 391.696 -1.57019 2.5551 0
M  V30 3973 H 389.249 -0.786148 1.3509 0
M  V30 3974 H 389.984 -3.19417 0.560673 0
M  V30 3975 H 389.769 -3.15025 2.33455 0
M  V30 3976 H 391.259 -3.84511 1.62913 0
M  V30 3977 N 391.696 -1.35014 -0.812953 0
M  V30 3978 C 393.107 -1.25035 -1.38648 0
M  V30 3979 C 393.458 0.119967 -1.95833 0
M  V30 3980 O 392.583 1.02069 -1.90816 0
M  V30 3981 C 393.178 -2.26394 -2.52054 0
M  V30 3982 C 391.737 -2.20175 -3.05287 0
M  V30 3983 C 390.884 -2.12451 -1.78213 0
M  V30 3984 H 393.835 -1.46235 -0.616516 0
M  V30 3985 H 393.856 -1.88672 -3.30429 0
M  V30 3986 H 393.368 -3.26116 -2.10404 0
M  V30 3987 H 391.469 -1.23841 -3.51417 0
M  V30 3988 H 391.582 -3.11863 -3.63701 0
M  V30 3989 H 389.946 -1.58328 -1.9951 0
M  V30 3990 H 390.729 -3.14024 -1.38723 0
M  V30 3991 N 393.175 1.03435 -1.18907 0
M  V30 3992 C 394.423 1.76394 -0.986382 0
M  V30 3993 C 394.744 1.88883 0.484567 0
M  V30 3994 O 394.014 1.41843 1.3512 0
M  V30 3995 H 392.594 0.65344 -0.361975 0
M  V30 3996 H 395.256 1.248 -1.49703 0
M  V30 3997 H 394.352 2.77424 -1.42978 0
M  V30 3998 N 394.653 0.992116 1.22453 0
M  V30 3999 C 395.901 0.666215 1.90804 0
M  V30 4000 C 396.222 -0.804152 1.77647 0
M  V30 4001 O 395.492 -1.57629 1.16318 0
M  V30 4002 H 394.072 0.243423 0.706225 0
M  V30 4003 H 396.734 1.25845 1.48825 0
M  V30 4004 H 395.83 0.928069 2.97982 0
M  V30 4005 N 396.131 -1.37776 0.765217 0
M  V30 4006 C 397.377 -2.00604 0.336066 0
M  V30 4007 C 397.732 -1.59657 -1.07366 0
M  V30 4008 O 397.025 -0.829565 -1.7271 0
M  V30 4009 C 397.219 -3.5504 0.410053 0
M  V30 4010 C 397.048 -4.10985 1.82542 0
M  V30 4011 C 395.818 -4.42229 2.44461 0
M  V30 4012 C 398.016 -4.32438 2.78392 0
M  V30 4013 N 395.998 -4.8385 3.77839 0
M  V30 4014 C 397.369 -4.76596 3.96556 0
M  V30 4015 C 399.424 -4.14559 2.75764 0
M  V30 4016 C 398.127 -5.04748 5.12466 0
M  V30 4017 C 400.153 -4.43843 3.90842 0
M  V30 4018 C 399.515 -4.88235 5.07746 0
M  V30 4019 H 395.614 -0.763325 0.169881 0
M  V30 4020 H 398.198 -1.67197 0.997656 0
M  V30 4021 H 396.369 -3.87769 -0.221325 0
M  V30 4022 H 398.101 -4.0468 -0.0405285 0
M  V30 4023 H 394.856 -4.31079 1.96131 0
M  V30 4024 H 395.28 -5.08979 4.46396 0
M  V30 4025 H 399.922 -3.79415 1.86558 0
M  V30 4026 H 397.64 -5.38783 6.02277 0
M  V30 4027 H 401.226 -4.31603 3.90141 0
M  V30 4028 H 400.106 -5.10461 5.95315 0
M  V30 4029 N 397.609 -0.515225 -1.4894 0
M  V30 4030 C 398.519 0.259774 -2.33157 0
M  V30 4031 C 399.535 0.953501 -1.45548 0
M  V30 4032 O 400.711 0.931735 -1.78552 0
M  V30 4033 C 397.776 1.30193 -3.21326 0
M  V30 4034 C 396.837 0.620129 -4.24797 0
M  V30 4035 C 396.07 1.61263 -5.08753 0
M  V30 4036 O 396.293 2.84389 -4.94448 0
M  V30 4037 O 395.227 1.16013 -5.90614 0
M  V30 4038 H 399.053 -0.429932 -3.00641 0
M  V30 4039 H 396.638 -0.276346 -1.46822 0
M  V30 4040 H 398.52 1.90455 -3.75905 0
M  V30 4041 H 397.195 1.97431 -2.56521 0
M  V30 4042 H 396.102 -0.0226019 -3.74093 0
M  V30 4043 H 397.435 -0.0100493 -4.92199 0
M  V30 4044 N 399.087 1.5561 -0.249682 0
M  V30 4045 C 400.333 1.99306 0.374841 0
M  V30 4046 C 400.666 1.13767 1.57387 0
M  V30 4047 O 399.941 0.201711 1.93451 0
M  V30 4048 C 400.224 3.51507 0.781986 0
M  V30 4049 C 400.077 4.4781 -0.422629 0
M  V30 4050 C 401.396 4.08884 1.62793 0
M  V30 4051 H 398.515 0.724572 0.134773 0
M  V30 4052 H 401.157 1.86719 -0.351549 0
M  V30 4053 H 399.307 3.62363 1.4009 0
M  V30 4054 H 400.979 4.48931 -1.06108 0
M  V30 4055 H 399.222 4.20518 -1.06524 0
M  V30 4056 H 399.893 5.51919 -0.0943766 0
M  V30 4057 H 402.369 4.01147 1.10547 0
M  V30 4058 H 401.245 5.1564 1.88166 0
M  V30 4059 H 401.506 3.57515 2.60068 0
M  V30 4060 N 400.565 -0.0233959 1.57583 0
M  V30 4061 C 401.495 -1.02162 2.09965 0
M  V30 4062 C 402.476 -1.3735 1.00344 0
M  V30 4063 O 403.661 -1.46135 1.27899 0
M  V30 4064 C 400.791 -2.32081 2.58371 0
M  V30 4065 C 399.745 -2.1112 3.72307 0
M  V30 4066 C 399.071 -3.46848 4.06941 0
M  V30 4067 C 400.371 -1.49276 5.00514 0
M  V30 4068 H 402.065 -0.585557 2.93618 0
M  V30 4069 H 399.611 -0.280218 1.41247 0
M  V30 4070 H 401.564 -3.02249 2.93639 0
M  V30 4071 H 400.288 -2.77758 1.71808 0
M  V30 4072 H 398.947 -1.43384 3.37397 0
M  V30 4073 H 398.595 -3.90184 3.17436 0
M  V30 4074 H 398.295 -3.33646 4.83688 0
M  V30 4075 H 399.819 -4.18369 4.44747 0
M  V30 4076 H 401.233 -2.09368 5.33702 0
M  V30 4077 H 399.63 -1.46632 5.8191 0
M  V30 4078 H 400.7 -0.459217 4.82721 0
M  V30 4079 N 402.043 -1.548 -0.295768 0
M  V30 4080 C 403.006 -1.85363 -1.34808 0
M  V30 4081 C 404.006 -0.726817 -1.43436 0
M  V30 4082 O 405.196 -0.995088 -1.42981 0
M  V30 4083 C 402.328 -2.03859 -2.73229 0
M  V30 4084 H 403.521 -2.7941 -1.08949 0
M  V30 4085 H 401.074 -1.46942 -0.532702 0
M  V30 4086 H 401.809 -1.12117 -3.04303 0
M  V30 4087 H 401.594 -2.8588 -2.68356 0
M  V30 4088 H 403.084 -2.28857 -3.49305 0
M  V30 4089 N 403.521 0.559213 -1.47345 0
M  V30 4090 C 404.767 1.31843 -1.54095 0
M  V30 4091 C 405.1 1.93149 -0.201726 0
M  V30 4092 O 404.375 1.77759 0.789428 0
M  V30 4093 C 404.658 2.43006 -2.65744 0
M  V30 4094 C 404.511 1.86581 -4.09277 0
M  V30 4095 C 405.83 3.44943 -2.73318 0
M  V30 4096 H 402.949 0.478012 -0.560957 0
M  V30 4097 H 405.591 0.625977 -1.79392 0
M  V30 4098 H 403.741 3.02072 -2.44305 0
M  V30 4099 H 405.413 1.31792 -4.42073 0
M  V30 4100 H 403.656 1.17268 -4.17649 0
M  V30 4101 H 404.327 2.66933 -4.83168 0
M  V30 4102 H 406.803 2.95793 -2.92653 0
M  V30 4103 H 405.679 4.20153 -3.53218 0
M  V30 4104 H 405.94 4.03665 -1.80296 0
M  V30 4105 N 404.999 1.35443 0.805782 0
M  V30 4106 C 406.245 1.28952 1.56522 0
M  V30 4107 C 406.578 -0.135597 1.93726 0
M  V30 4108 O 405.853 -1.08516 1.61414 0
M  V30 4109 C 406.136 2.19678 2.85331 0
M  V30 4110 C 405.989 3.7081 2.54598 0
M  V30 4111 C 407.308 2.09495 3.8704 0
M  V30 4112 H 404.427 0.469764 0.567883 0
M  V30 4113 H 407.069 1.65851 0.927001 0
M  V30 4114 H 405.219 1.8834 3.39795 0
M  V30 4115 H 406.891 4.12593 2.06312 0
M  V30 4116 H 405.134 3.91051 1.8778 0
M  V30 4117 H 405.805 4.29679 3.46525 0
M  V30 4118 H 408.281 2.37045 3.41978 0
M  V30 4119 H 407.157 2.75173 4.74943 0
M  V30 4120 H 407.418 1.07714 4.28777 0
M  V30 4121 N 406.477 -1.02803 1.19454 0
M  V30 4122 C 407.723 -1.76478 0.999171 0
M  V30 4123 C 408.056 -1.88456 -0.468828 0
M  V30 4124 O 407.331 -1.40198 -1.34814 0
M  V30 4125 C 407.614 -3.19044 1.66981 0
M  V30 4126 C 407.467 -3.14932 3.21151 0
M  V30 4127 C 408.786 -4.17456 1.39349 0
M  V30 4128 H 405.905 -0.640614 0.364393 0
M  V30 4129 H 408.547 -1.20005 1.47305 0
M  V30 4130 H 406.697 -3.67263 1.2669 0
M  V30 4131 H 408.369 -2.74605 3.70661 0
M  V30 4132 H 406.612 -2.52625 3.52652 0
M  V30 4133 H 407.283 -4.1566 3.63223 0
M  V30 4134 H 409.759 -3.77842 1.74283 0
M  V30 4135 H 408.635 -5.154 1.88823 0
M  V30 4136 H 408.896 -4.40949 0.318813 0
M  V30 4137 N 407.956 -0.998596 -1.21925 0
M  V30 4138 C 409.367 -0.711939 -1.72593 0
M  V30 4139 C 409.718 0.770842 -1.80423 0
M  V30 4140 O 408.843 1.60237 -1.4544 0
M  V30 4141 C 409.438 -1.28567 -3.13458 0
M  V30 4142 C 407.997 -1.04828 -3.61508 0
M  V30 4143 C 407.144 -1.4024 -2.39224 0
M  V30 4144 H 410.095 -1.17027 -1.07193 0
M  V30 4145 H 410.116 -0.667098 -3.74607 0
M  V30 4146 H 409.628 -2.36486 -3.07727 0
M  V30 4147 H 407.729 0.0140383 -3.72597 0
M  V30 4148 H 407.842 -1.71566 -4.47328 0
M  V30 4149 H 406.206 -0.821077 -2.41103 0
M  V30 4150 H 406.989 -2.49176 -2.36149 0
M  V30 4151 N 409.434 1.37368 -0.772513 0
M  V30 4152 C 410.68 1.99969 -0.337681 0
M  V30 4153 C 411.013 1.61184 1.08321 0
M  V30 4154 O 410.288 0.858395 1.74533 0
M  V30 4155 C 410.571 3.56858 -0.482121 0
M  V30 4156 C 410.424 4.0555 -1.94549 0
M  V30 4157 C 411.743 4.39955 0.113143 0
M  V30 4158 H 408.862 0.726464 -0.124171 0
M  V30 4159 H 411.504 1.63034 -0.975699 0
M  V30 4160 H 409.654 3.88452 0.0610361 0
M  V30 4161 H 411.326 3.84518 -2.54841 0
M  V30 4162 H 409.569 3.57715 -2.45403 0
M  V30 4163 H 410.24 5.14587 -1.9976 0
M  V30 4164 H 412.716 4.14623 -0.35031 0
M  V30 4165 H 411.592 5.48897 -0.0180514 0
M  V30 4166 H 411.853 4.25403 1.20354 0
M  V30 4167 N 410.912 0.523116 1.48665 0
M  V30 4168 C 412.323 0.0808997 1.86525 0
M  V30 4169 C 412.674 -1.33975 1.43336 0
M  V30 4170 O 411.799 -2.00221 0.821009 0
M  V30 4171 C 412.394 0.140037 3.3851 0
M  V30 4172 C 410.953 -0.246948 3.75589 0
M  V30 4173 C 410.1 0.502845 2.72703 0
M  V30 4174 H 413.051 0.734736 1.40667 0
M  V30 4175 H 413.072 -0.649945 3.74908 0
M  V30 4176 H 412.584 1.17412 3.69914 0
M  V30 4177 H 410.685 -1.28343 3.49798 0
M  V30 4178 H 410.798 0.0878859 4.79019 0
M  V30 4179 H 409.162 -0.0500581 2.54651 0
M  V30 4180 H 409.945 1.53743 3.0695 0
M  V30 4181 N 412.39 -1.55475 0.257931 0
M  V30 4182 C 413.801 -1.8511 -0.243135 0
M  V30 4183 C 414.152 -1.17986 -1.5676 0
M  V30 4184 O 413.277 -0.462102 -2.11409 0
M  V30 4185 C 413.872 -3.35826 -0.447929 0
M  V30 4186 C 412.431 -3.65647 -0.893245 0
M  V30 4187 C 411.578 -2.7729 0.0232965 0
M  V30 4188 H 414.529 -1.51261 0.480199 0
M  V30 4189 H 414.55 -3.58002 -1.28898 0
M  V30 4190 H 414.062 -3.84652 0.516196 0
M  V30 4191 H 412.163 -3.22308 -1.86945 0
M  V30 4192 H 412.276 -4.73312 -0.742469 0
M  V30 4193 H 410.64 -2.49942 -0.490021 0
M  V30 4194 H 411.423 -3.28926 0.982994 0
M  V30 4195 N 413.868 0.0150385 -1.57593 0
M  V30 4196 C 415.115 0.703001 -1.89906 0
M  V30 4197 C 415.443 1.74604 -0.856944 0
M  V30 4198 O 414.698 1.95197 0.140287 0
M  V30 4199 C 414.997 1.39686 -3.28972 0
M  V30 4200 C 414.663 0.488457 -4.48246 0
M  V30 4201 C 413.325 0.2383 -4.8061 0
M  V30 4202 C 415.677 -0.137881 -5.21018 0
M  V30 4203 C 413.005 -0.646738 -5.83125 0
M  V30 4204 C 415.357 -1.0107 -6.24474 0
M  V30 4205 C 414.021 -1.27019 -6.55303 0
M  V30 4206 H 413.291 0.257246 -0.694914 0
M  V30 4207 H 415.938 -0.037259 -1.91464 0
M  V30 4208 H 414.243 2.21079 -3.23468 0
M  V30 4209 H 415.94 1.93495 -3.51227 0
M  V30 4210 H 412.53 0.693593 -4.22951 0
M  V30 4211 H 416.714 0.0423953 -4.96282 0
M  V30 4212 H 411.97 -0.855937 -6.05379 0
M  V30 4213 H 416.144 -1.50247 -6.79999 0
M  V30 4214 H 413.771 -1.95769 -7.3456 0
M  V30 4215 N 415.346 1.54954 0.287554 0
M  V30 4216 C 416.574 1.78881 1.03967 0
M  V30 4217 C 416.989 0.554894 1.80462 0
M  V30 4218 O 416.346 -0.475676 1.76192 0
M  V30 4219 C 416.397 3.00488 2.0097 0
M  V30 4220 O 416.118 4.19113 1.27577 0
M  V30 4221 C 417.619 3.36907 2.88112 0
M  V30 4222 H 414.839 0.596259 0.307761 0
M  V30 4223 H 417.383 2.01937 0.322749 0
M  V30 4224 H 415.538 2.79601 2.68145 0
M  V30 4225 H 415.952 4.87765 1.92835 0
M  V30 4226 H 417.426 4.25205 3.52001 0
M  V30 4227 H 417.903 2.55659 3.57121 0
M  V30 4228 H 418.509 3.60001 2.26449 0
M  V30 4229 N 416.824 -0.551391 1.4764 0
M  V30 4230 C 418.064 -1.31901 1.56145 0
M  V30 4231 C 418.428 -1.90724 0.221013 0
M  V30 4232 O 419.629 -2.6819 0.180945 0
M  V30 4233 C 417.9 -2.39517 2.65267 0
M  V30 4234 S 419.459 -3.26289 2.93395 0
M  V30 4235 H 416.277 -0.448965 0.551318 0
M  V30 4236 H 418.879 -0.630599 1.85051 0
M  V30 4237 H 417.583 -1.94747 3.6125 0
M  V30 4238 H 417.114 -3.13092 2.38195 0
M  V30 4239 H 419.129 -4.39122 2.31055 0
M  V30 4240 N 418.302 -1.35869 -0.798587 0
M  V30 4241 C 419.232 -1.32118 -1.92528 0
M  V30 4242 C 420.213 -0.194209 -1.68988 0
M  V30 4243 O 421.398 -0.390426 -1.90235 0
M  V30 4244 C 418.528 -1.10047 -3.29404 0
M  V30 4245 C 417.482 -2.19471 -3.67446 0
M  V30 4246 C 416.808 -1.82555 -5.02571 0
M  V30 4247 C 418.108 -3.61495 -3.76987 0
M  V30 4248 H 419.802 -2.26394 -1.95924 0
M  V30 4249 H 417.348 -1.08981 -0.94123 0
M  V30 4250 H 419.301 -1.06061 -4.07835 0
M  V30 4251 H 418.025 -0.122195 -3.26371 0
M  V30 4252 H 416.684 -2.22568 -2.91306 0
M  V30 4253 H 416.332 -0.833249 -4.9605 0
M  V30 4254 H 416.032 -2.5581 -5.28995 0
M  V30 4255 H 417.556 -1.80108 -5.83432 0
M  V30 4256 H 418.97 -3.60676 -4.4563 0
M  V30 4257 H 417.367 -4.33577 -4.14887 0
M  V30 4258 H 418.437 -3.97065 -2.78329 0
M  V30 4259 N 419.78 1.02168 -1.19998 0
M  V30 4260 C 420.71 2.12488 -0.96804 0
M  V30 4261 C 421.691 1.69799 0.101185 0
M  V30 4262 O 422.876 1.94121 -0.0552993 0
M  V30 4263 C 420.006 3.43479 -0.513776 0
M  V30 4264 C 418.96 3.99884 -1.52566 0
M  V30 4265 C 418.286 5.26582 -0.928214 0
M  V30 4266 C 419.586 4.33861 -2.90795 0
M  V30 4267 H 421.28 2.32149 -1.89069 0
M  V30 4268 H 418.826 1.11564 -0.910468 0
M  V30 4269 H 420.779 4.20036 -0.338774 0
M  V30 4270 H 419.503 3.23561 0.444493 0
M  V30 4271 H 418.162 3.25429 -1.68794 0
M  V30 4272 H 417.81 5.02986 0.0378289 0
M  V30 4273 H 417.51 5.65284 -1.60397 0
M  V30 4274 H 419.034 6.05799 -0.764167 0
M  V30 4275 H 420.448 5.01327 -2.78109 0
M  V30 4276 H 418.845 4.83664 -3.55231 0
M  V30 4277 H 419.915 3.42848 -3.42904 0
M  V30 4278 N 421.258 1.00505 1.21394 0
M  V30 4279 C 422.674 0.717873 1.42544 0
M  V30 4280 C 422.874 -0.706936 1.88692 0
M  V30 4281 O 421.93 -1.47627 2.04847 0
M  V30 4282 C 423.243 1.73377 2.45684 0
M  V30 4283 C 424.791 1.75059 2.59467 0
M  V30 4284 C 425.266 2.75545 3.6584 0
M  V30 4285 N 426.757 2.74213 3.73311 0
M  V30 4286 C 427.492 3.48626 4.55245 0
M  V30 4287 N 426.988 4.32678 5.41075 0
M  V30 4288 N 428.781 3.37276 4.49668 0
M  V30 4289 H 420.932 1.92506 0.897503 0
M  V30 4290 H 423.195 0.830919 0.456375 0
M  V30 4291 H 422.901 2.75395 2.18748 0
M  V30 4292 H 422.775 1.53647 3.44489 0
M  V30 4293 H 425.162 0.737337 2.8574 0
M  V30 4294 H 425.243 1.98861 1.60897 0
M  V30 4295 H 424.887 3.77028 3.40313 0
M  V30 4296 H 424.817 2.49009 4.64007 0
M  V30 4297 H 427.308 2.13234 3.11993 0
M  V30 4298 H 427.621 4.86253 6.00648 0
M  V30 4299 H 425.966 4.3676 5.40616 0
M  V30 4300 H 429.157 2.71043 3.81646 0
M  V30 4301 H 429.33 3.95524 5.13288 0
M  V30 4302 N 422.737 -1.36956 0.779787 0
M  V30 4303 C 424.014 -1.93697 0.272156 0
M  V30 4304 C 424.394 -1.71267 -1.23413 0
M  V30 4305 O 423.742 -1.06607 -2.02107 0
M  V30 4306 C 423.952 -3.42812 0.654291 0
M  V30 4307 C 425.3 -4.19921 0.628602 0
M  V30 4308 O 426.324 -3.51209 0.594172 0
M  V30 4309 O 425.183 -5.42465 0.662864 0
M  V30 4310 H 422.277 -0.824447 0.0649286 0
M  V30 4311 H 424.823 -1.46196 0.861682 0
M  V30 4312 H 423.595 -3.52754 1.69353 0
M  V30 4313 H 423.218 -3.97582 0.0381369 0
M  V30 4314 N 424.215 -0.530993 -1.48385 0
M  V30 4315 C 425.145 0.219985 -2.32461 0
M  V30 4316 C 426.126 0.934111 -1.42156 0
M  V30 4317 O 427.311 0.919694 -1.71042 0
M  V30 4318 C 424.441 1.26674 -3.23375 0
M  V30 4319 C 423.395 0.67069 -4.22712 0
M  V30 4320 C 422.721 1.82017 -5.02766 0
M  V30 4321 C 424.021 -0.358268 -5.2107 0
M  V30 4322 H 425.715 -0.48187 -2.95497 0
M  V30 4323 H 423.261 -0.233182 -1.42099 0
M  V30 4324 H 425.214 1.80006 -3.81019 0
M  V30 4325 H 423.938 1.99818 -2.58341 0
M  V30 4326 H 422.597 0.158878 -3.66256 0
M  V30 4327 H 422.245 2.54002 -4.34157 0
M  V30 4328 H 421.945 1.42727 -5.70003 0
M  V30 4329 H 423.469 2.35725 -5.63264 0
M  V30 4330 H 424.883 0.0880081 -5.73232 0
M  V30 4331 H 423.28 -0.66861 -5.96364 0
M  V30 4332 H 424.35 -1.26367 -4.68145 0
M  V30 4333 N 425.693 1.55336 -0.266172 0
M  V30 4334 C 426.939 1.99692 0.353681 0
M  V30 4335 C 427.272 1.1543 1.56172 0
M  V30 4336 O 426.547 0.222218 1.93226 0
M  V30 4337 C 426.83 3.52316 0.74466 0
M  V30 4338 C 426.683 4.47337 -0.470101 0
M  V30 4339 C 428.002 4.10588 1.58447 0
M  V30 4340 H 425.121 0.725961 0.12708 0
M  V30 4341 H 427.763 1.86336 -0.371333 0
M  V30 4342 H 425.913 3.63829 1.36239 0
M  V30 4343 H 427.585 4.4778 -1.10864 0
M  V30 4344 H 425.828 4.19364 -1.10978 0
M  V30 4345 H 426.499 5.51788 -0.15291 0
M  V30 4346 H 428.975 4.02297 1.06286 0
M  V30 4347 H 427.851 5.17607 1.82686 0
M  V30 4348 H 428.112 3.60253 2.56262 0
M  V30 4349 N 427.171 -0.0066808 1.57599 0
M  V30 4350 C 428.582 -0.550379 1.78403 0
M  V30 4351 C 428.933 -1.74339 0.900014 0
M  V30 4352 O 428.058 -2.16166 0.100713 0
M  V30 4353 C 428.653 -1.00523 3.23544 0
M  V30 4354 C 427.212 -1.49428 3.45468 0
M  V30 4355 C 426.359 -0.442444 2.73748 0
M  V30 4356 H 429.31 0.219508 1.57175 0
M  V30 4357 H 429.331 -1.87157 3.31289 0
M  V30 4358 H 428.843 -0.136735 3.87859 0
M  V30 4359 H 426.944 -2.3839 2.86358 0
M  V30 4360 H 427.057 -1.52635 4.54136 0
M  V30 4361 H 425.421 -0.902578 2.38171 0
M  V30 4362 H 426.204 0.416973 3.40758 0
M  V30 4363 N 428.649 -1.55105 -0.279332 0
M  V30 4364 C 429.612 -1.86783 -1.32834 0
M  V30 4365 C 430.612 -0.74199 -1.42657 0
M  V30 4366 O 431.802 -1.0102 -1.41918 0
M  V30 4367 C 428.934 -2.06746 -2.71052 0
M  V30 4368 H 430.127 -2.8055 -1.05979 0
M  V30 4369 H 427.68 -1.47499 -0.517087 0
M  V30 4370 H 428.415 -1.15339 -3.03097 0
M  V30 4371 H 428.2 -2.88711 -2.65309 0
M  V30 4372 H 429.69 -2.32549 -3.46858 0
M  V30 4373 N 430.127 0.543554 -1.4793 0
M  V30 4374 C 431.355 1.32516 -1.58894 0
M  V30 4375 C 431.77 1.87215 -0.244131 0
M  V30 4376 O 431.127 1.65709 0.764652 0
M  V30 4377 C 431.178 2.48554 -2.62494 0
M  V30 4378 O 430.899 1.96112 -3.91755 0
M  V30 4379 C 432.4 3.40572 -2.8377 0
M  V30 4380 H 429.62 0.403472 -0.536145 0
M  V30 4381 H 432.164 0.657106 -1.93655 0
M  V30 4382 H 430.319 3.1127 -2.30629 0
M  V30 4383 H 430.733 2.71967 -4.4848 0
M  V30 4384 H 432.207 4.18375 -3.60093 0
M  V30 4385 H 432.684 3.94965 -1.92092 0
M  V30 4386 H 433.29 2.8366 -3.16887 0
M  V30 4387 N 431.605 1.3629 0.791371 0
M  V30 4388 C 432.553 1.30514 1.92533 0
M  V30 4389 C 433.547 0.197285 1.68247 0
M  V30 4390 O 434.753 0.364176 1.76278 0
M  V30 4391 H 431.128 0.406263 0.632815 0
M  V30 4392 H 433.099 2.26282 1.94523 0
M  V30 4393 C 431.848 1.10933 3.29529 0
M  V30 4394 H 431.171 1.95427 3.48781 0
M  V30 4395 H 432.611 1.10937 4.0923 0
M  V30 4396 C 431.07 -0.186123 3.36385 0
M  V30 4397 O 431.6 -1.17664 3.84081 0
M  V30 4398 N 429.806 -0.230128 2.89687 0
M  V30 4399 H 429.353 0.576545 2.51065 0
M  V30 4400 H 429.311 -1.09658 2.94657 0
M  V30 4401 N 433.083 -1.0153 1.20538 0
M  V30 4402 C 434.313 -1.78487 1.04048 0
M  V30 4403 C 434.721 -1.84631 -0.413292 0
M  V30 4404 O 434.064 -1.29919 -1.29872 0
M  V30 4405 C 434.126 -3.24367 1.55003 0
M  V30 4406 C 433.79 -3.41827 3.0332 0
M  V30 4407 C 434.787 -3.30941 4.00966 0
M  V30 4408 C 432.472 -3.67602 3.42307 0
M  V30 4409 C 434.466 -3.45577 5.35589 0
M  V30 4410 C 432.153 -3.81881 4.77085 0
M  V30 4411 C 433.151 -3.70874 5.73534 0
M  V30 4412 O 432.839 -3.84714 7.05868 0
M  V30 4413 H 432.571 -0.568108 0.366373 0
M  V30 4414 H 435.125 -1.28677 1.60098 0
M  V30 4415 H 433.355 -3.75266 0.933397 0
M  V30 4416 H 435.044 -3.82963 1.34514 0
M  V30 4417 H 435.81 -3.10964 3.72191 0
M  V30 4418 H 431.689 -3.75256 2.67776 0
M  V30 4419 H 435.233 -3.36902 6.10854 0
M  V30 4420 H 431.13 -4.01359 5.0555 0
M  V30 4421 H 431.898 -4.01724 7.13134 0
M  V30 4422 N 434.561 -1.01147 -1.20859 0
M  V30 4423 C 435.786 -0.716698 -1.94623 0
M  V30 4424 C 436.211 0.715415 -1.73964 0
M  V30 4425 O 435.569 1.49157 -1.03062 0
M  V30 4426 C 435.617 -1.0513 -3.44935 0
M  V30 4427 O 434.721 -0.160131 -4.12089 0
M  V30 4428 H 434.062 -0.266404 -0.608214 0
M  V30 4429 H 436.592 -1.35346 -1.53436 0
M  V30 4430 H 436.602 -1.00086 -3.95533 0
M  V30 4431 H 435.277 -2.09475 -3.59295 0
M  V30 4432 H 433.854 -0.267657 -3.71938 0
M  V30 4433 N 436.039 1.36541 -0.78704 0
M  V30 4434 C 436.969 2.32659 -0.197992 0
M  V30 4435 C 437.95 1.56533 0.665697 0
M  V30 4436 O 439.135 1.84698 0.60001 0
M  V30 4437 C 436.265 3.40778 0.669901 0
M  V30 4438 C 435.219 4.27897 -0.0937039 0
M  V30 4439 C 434.545 5.27163 0.894629 0
M  V30 4440 C 435.845 5.06334 -1.28154 0
M  V30 4441 H 437.539 2.82171 -1.00099 0
M  V30 4442 H 435.085 1.35665 -0.482793 0
M  V30 4443 H 437.038 4.07008 1.09191 0
M  V30 4444 H 435.762 2.89827 1.50558 0
M  V30 4445 H 434.421 3.6322 -0.49666 0
M  V30 4446 H 434.069 4.72486 1.72527 0
M  V30 4447 H 433.769 5.86317 0.388149 0
M  V30 4448 H 435.293 5.96266 1.31525 0
M  V30 4449 H 436.707 5.65617 -0.93541 0
M  V30 4450 H 435.104 5.74888 -1.72115 0
M  V30 4451 H 436.174 4.38114 -2.07807 0
M  V30 4452 N 437.518 0.538854 1.48102 0
M  V30 4453 C 438.934 0.19732 1.58376 0
M  V30 4454 C 439.134 -1.29971 1.5398 0
M  V30 4455 O 438.19 -2.07861 1.43352 0
M  V30 4456 C 439.503 0.807716 2.89649 0
M  V30 4457 C 441.051 0.77726 3.03196 0
M  V30 4458 C 441.526 1.36639 4.37143 0
M  V30 4459 N 443.017 1.32875 4.43732 0
M  V30 4460 C 443.752 1.7544 5.45901 0
M  V30 4461 N 443.248 2.25776 6.54979 0
M  V30 4462 N 445.041 1.66623 5.36836 0
M  V30 4463 H 437.192 1.5117 1.49202 0
M  V30 4464 H 439.455 0.629327 0.708979 0
M  V30 4465 H 439.161 1.85909 2.98548 0
M  V30 4466 H 439.035 0.289975 3.76084 0
M  V30 4467 H 441.422 -0.265374 2.93904 0
M  V30 4468 H 441.503 1.33256 2.18349 0
M  V30 4469 H 441.147 2.408 4.47189 0
M  V30 4470 H 441.077 0.786689 5.20691 0
M  V30 4471 H 443.568 0.96037 3.65493 0
M  V30 4472 H 443.881 2.56226 7.29087 0
M  V30 4473 H 442.226 2.29775 6.55918 0
M  V30 4474 H 445.417 1.27089 4.50517 0
M  V30 4475 H 445.59 2.00115 6.16326 0
M  V30 4476 N 438.996 -1.55193 0.274407 0
M  V30 4477 C 440.242 -1.99877 -0.343086 0
M  V30 4478 C 440.575 -1.16256 -1.55558 0
M  V30 4479 O 439.85 -0.232462 -1.93106 0
M  V30 4480 C 440.133 -3.52706 -0.725965 0
M  V30 4481 C 439.986 -4.47081 0.493818 0
M  V30 4482 C 441.305 -4.11422 -1.56268 0
M  V30 4483 H 438.424 -0.726625 -0.123229 0
M  V30 4484 H 441.066 -1.86136 0.38121 0
M  V30 4485 H 439.216 -3.64546 -1.34307 0
M  V30 4486 H 440.888 -4.47186 1.13237 0
M  V30 4487 H 439.131 -4.1877 1.13201 0
M  V30 4488 H 439.802 -5.51699 0.18217 0
M  V30 4489 H 442.278 -4.02855 -1.04151 0
M  V30 4490 H 441.154 -5.18568 -1.79939 0
M  V30 4491 H 441.415 -3.61607 -2.54348 0
M  V30 4492 N 440.474 -0.00167713 -1.576 0
M  V30 4493 C 441.89 0.354422 -1.55615 0
M  V30 4494 C 442.09 1.74679 -1.00447 0
M  V30 4495 O 441.146 2.4428 -0.639022 0
M  V30 4496 C 442.459 0.22812 -2.99833 0
M  V30 4497 C 444.007 0.302934 -3.11531 0
M  V30 4498 C 444.482 0.205737 -4.57538 0
M  V30 4499 N 445.973 0.263584 -4.62449 0
M  V30 4500 C 446.708 0.211742 -5.73009 0
M  V30 4501 N 446.204 0.110399 -6.92712 0
M  V30 4502 N 447.997 0.263729 -5.61481 0
M  V30 4503 H 440.148 -0.912498 -1.918 0
M  V30 4504 H 442.411 -0.349928 -0.881053 0
M  V30 4505 H 442.117 -0.729934 -3.44042 0
M  V30 4506 H 441.991 1.00951 -3.6344 0
M  V30 4507 H 444.378 1.25143 -2.67251 0
M  V30 4508 H 444.459 -0.508357 -2.50698 0
M  V30 4509 H 444.103 -0.739225 -5.02492 0
M  V30 4510 H 444.033 1.03554 -5.16318 0
M  V30 4511 H 446.524 0.343173 -3.76339 0
M  V30 4512 H 446.837 0.0767828 -7.72762 0
M  V30 4513 H 445.182 0.0760025 -6.94958 0
M  V30 4514 H 448.373 0.34111 -4.66855 0
M  V30 4515 H 448.546 0.219862 -6.47627 0
M  V30 4516 N 441.952 1.55251 0.271103 0
M  V30 4517 C 443.192 1.77698 1.01008 0
M  V30 4518 C 443.556 0.567246 1.83429 0
M  V30 4519 O 444.757 0.670013 2.60316 0
M  V30 4520 C 443.028 3.04715 1.86772 0
M  V30 4521 S 444.587 3.48289 2.66909 0
M  V30 4522 H 441.405 0.624343 0.340172 0
M  V30 4523 H 444.007 1.9348 0.280315 0
M  V30 4524 H 442.711 3.90853 1.25149 0
M  V30 4525 H 442.242 2.91604 2.64066 0
M  V30 4526 H 444.257 3.07712 3.89266 0
M  V30 4527 N 443.43 -0.535701 1.48216 0
M  V30 4528 C 444.393 -1.623 1.61838 0
M  V30 4529 C 445.393 -1.53087 0.492024 0
M  V30 4530 O 446.583 -1.5686 0.757668 0
M  V30 4531 C 443.715 -3.01907 1.58319 0
M  V30 4532 H 444.908 -1.51564 2.58783 0
M  V30 4533 H 442.461 -0.757317 1.36727 0
M  V30 4534 H 443.196 -3.18155 0.628299 0
M  V30 4535 H 442.981 -3.10003 2.40085 0
M  V30 4536 H 444.471 -3.80969 1.71033 0
M  V30 4537 N 444.908 -1.36708 -0.784132 0
M  V30 4538 C 445.856 -1.31533 -1.91838 0
M  V30 4539 C 446.85 -0.206205 -1.6814 0
M  V30 4540 O 448.056 -0.373519 -1.76082 0
M  V30 4541 H 444.431 -0.409613 -0.630651 0
M  V30 4542 H 446.402 -2.2731 -1.9332 0
M  V30 4543 C 445.151 -1.12679 -3.28936 0
M  V30 4544 H 444.474 -1.97274 -3.4774 0
M  V30 4545 H 445.914 -1.13106 -4.08636 0
M  V30 4546 C 444.373 0.168281 -3.36479 0
M  V30 4547 O 444.903 1.15625 -3.84699 0
M  V30 4548 N 443.109 0.214762 -2.89805 0
M  V30 4549 H 442.656 -0.589852 -2.50756 0
M  V30 4550 H 442.614 1.08094 -2.95234 0
M  V30 4551 N 446.386 1.0089 -1.21074 0
M  V30 4552 C 447.349 2.0775 -0.968129 0
M  V30 4553 C 448.349 1.6069 0.0593445 0
M  V30 4554 O 449.539 1.73293 -0.177525 0
M  V30 4555 C 446.671 3.37794 -0.459108 0
M  V30 4556 H 447.864 2.30707 -1.9161 0
M  V30 4557 H 445.417 1.17807 -1.02719 0
M  V30 4558 H 446.152 3.20516 0.49397 0
M  V30 4559 H 445.937 3.7328 -1.20019 0
M  V30 4560 H 447.427 4.16454 -0.309099 0
M  V30 4561 N 447.864 1.01787 1.20321 0
M  V30 4562 C 448.794 0.609625 2.25401 0
M  V30 4563 C 449.775 -0.375951 1.65893 0
M  V30 4564 O 450.96 -0.261101 1.92437 0
M  V30 4565 C 448.09 -0.0515995 3.47262 0
M  V30 4566 C 447.044 0.855095 4.19371 0
M  V30 4567 C 446.37 0.0595757 5.34667 0
M  V30 4568 C 447.67 2.16374 4.75373 0
M  V30 4569 H 449.364 1.48803 2.59804 0
M  V30 4570 H 446.91 0.716934 1.24884 0
M  V30 4571 H 448.863 -0.348764 4.19954 0
M  V30 4572 H 447.587 -0.964726 3.12027 0
M  V30 4573 H 446.246 1.13628 3.48546 0
M  V30 4574 H 445.894 -0.85524 4.95676 0
M  V30 4575 H 445.594 0.663406 5.83843 0
M  V30 4576 H 447.118 -0.231105 6.10162 0
M  V30 4577 H 448.532 1.92885 5.39878 0
M  V30 4578 H 446.929 2.71853 5.34991 0
M  V30 4579 H 447.999 2.82589 3.94045 0
M  V30 4580 N 449.342 -1.36122 0.79427 0
M  V30 4581 C 450.59 -1.98718 0.368177 0
M  V30 4582 C 450.911 -1.63345 -1.06506 0
M  V30 4583 O 450.181 -0.909825 -1.73491 0
M  V30 4584 H 448.761 -0.735038 0.133146 0
M  V30 4585 H 451.423 -1.66239 1.01739 0
M  V30 4586 H 450.519 -3.08633 0.463923 0
M  V30 4587 N 450.82 -0.546701 -1.47814 0
M  V30 4588 C 452.231 -0.110564 -1.86372 0
M  V30 4589 C 452.582 1.31678 -1.45449 0
M  V30 4590 O 451.707 1.98889 -0.852758 0
M  V30 4591 C 452.302 -0.193873 -3.38245 0
M  V30 4592 C 450.861 0.187164 -3.75934 0
M  V30 4593 C 450.008 -0.546166 -2.71868 0
M  V30 4594 H 452.959 -0.757022 -1.39481 0
M  V30 4595 H 452.98 0.590218 -3.75895 0
M  V30 4596 H 452.492 -1.23282 -3.67999 0
M  V30 4597 H 450.593 1.22762 -3.51796 0
M  V30 4598 H 450.706 -0.164083 -4.78819 0
M  V30 4599 H 449.07 0.00953904 -2.54698 0
M  V30 4600 H 449.853 -1.58606 -3.04465 0
M  V30 4601 N 452.299 1.55045 -0.282633 0
M  V30 4602 C 453.524 2.04628 0.337977 0
M  V30 4603 C 453.949 1.15937 1.48123 0
M  V30 4604 O 453.307 0.159532 1.80597 0
M  V30 4605 C 453.355 3.51854 0.78936 0
M  V30 4606 O 452.459 3.66236 1.89592 0
M  V30 4607 H 451.8 0.660434 0.0687261 0
M  V30 4608 H 454.33 2.00261 -0.419124 0
M  V30 4609 H 454.34 3.93361 1.08311 0
M  V30 4610 H 453.015 4.15873 -0.0470419 0
M  V30 4611 H 451.592 3.36633 1.60413 0
M  V30 4612 N 453.777 0.010035 1.57597 0
M  V30 4613 C 455.188 -0.531426 1.78977 0
M  V30 4614 C 455.539 -1.73375 0.918454 0
M  V30 4615 O 454.664 -2.16047 0.123635 0
M  V30 4616 C 455.259 -0.97086 3.24592 0
M  V30 4617 C 453.818 -1.45756 3.47033 0
M  V30 4618 C 452.965 -0.413384 2.74201 0
M  V30 4619 H 455.916 0.236166 1.56933 0
M  V30 4620 H 455.937 -1.83633 3.33255 0
M  V30 4621 H 455.449 -0.0955893 3.87982 0
M  V30 4622 H 453.55 -2.35339 2.88871 0
M  V30 4623 H 453.663 -1.4781 4.55729 0
M  V30 4624 H 452.027 -0.877266 2.39115 0
M  V30 4625 H 452.81 0.453092 3.40297 0
M  V30 4626 N 455.255 -1.55392 -0.262866 0
M  V30 4627 C 456.485 -1.80251 -1.00961 0
M  V30 4628 C 456.893 -0.58117 -1.80053 0
M  V30 4629 O 456.236 0.459427 -1.77862 0
M  V30 4630 C 456.298 -2.98207 -2.00781 0
M  V30 4631 C 455.962 -4.34856 -1.40533 0
M  V30 4632 C 456.959 -5.13459 -0.815853 0
M  V30 4633 C 454.644 -4.8153 -1.42948 0
M  V30 4634 C 456.638 -6.36875 -0.258562 0
M  V30 4635 C 454.325 -6.04899 -0.868334 0
M  V30 4636 C 455.323 -6.8241 -0.283884 0
M  V30 4637 O 455.011 -8.03451 0.268644 0
M  V30 4638 H 454.743 -0.604049 -0.303482 0
M  V30 4639 H 457.297 -2.03257 -0.295926 0
M  V30 4640 H 455.527 -2.70917 -2.75936 0
M  V30 4641 H 457.216 -3.10299 -2.61667 0
M  V30 4642 H 457.982 -4.78526 -0.789812 0
M  V30 4643 H 453.861 -4.21201 -1.87378 0
M  V30 4644 H 457.405 -6.97318 0.198257 0
M  V30 4645 H 453.302 -6.39312 -0.891649 0
M  V30 4646 H 454.07 -8.18346 0.158974 0
M  V30 4647 N 456.733 0.527833 -1.48498 0
M  V30 4648 C 457.696 1.61439 -1.62696 0
M  V30 4649 C 458.696 1.52824 -0.500136 0
M  V30 4650 O 459.886 1.56456 -0.765976 0
M  V30 4651 C 457.018 3.01063 -1.59918 0
M  V30 4652 H 458.211 1.50189 -2.59583 0
M  V30 4653 H 455.764 0.750055 -1.37127 0
M  V30 4654 H 456.499 3.17818 -0.645163 0
M  V30 4655 H 456.284 3.08725 -2.41726 0
M  V30 4656 H 457.774 3.80057 -1.73051 0
M  V30 4657 N 458.211 1.37122 0.776871 0
M  V30 4658 C 459.488 1.22586 1.52421 0
M  V30 4659 C 459.868 -0.182726 2.10308 0
M  V30 4660 O 459.216 -1.18979 1.9508 0
M  V30 4661 C 459.426 2.31782 2.60918 0
M  V30 4662 C 460.774 2.69071 3.2846 0
M  V30 4663 O 461.798 2.3092 2.71209 0
M  V30 4664 O 460.657 3.3478 4.31954 0
M  V30 4665 H 457.751 0.478045 0.674835 0
M  V30 4666 H 460.297 1.48888 0.814275 0
M  V30 4667 H 459.069 3.26131 2.16227 0
M  V30 4668 H 458.692 2.06916 3.39517 0
M  V30 4669 N 459.689 -1.00246 1.21608 0
M  V30 4670 C 460.935 -1.74417 1.04643 0
M  V30 4671 C 461.29 -1.87862 -0.415387 0
M  V30 4672 O 460.583 -1.40373 -1.30407 0
M  V30 4673 C 460.777 -3.15448 1.68009 0
M  V30 4674 C 460.606 -3.15755 3.20201 0
M  V30 4675 C 459.376 -3.2219 3.89258 0
M  V30 4676 C 461.574 -3.00668 4.17257 0
M  V30 4677 N 459.556 -3.1215 5.28617 0
M  V30 4678 C 460.927 -2.98553 5.43384 0
M  V30 4679 C 462.982 -2.84989 4.08272 0
M  V30 4680 C 461.685 -2.82364 6.61561 0
M  V30 4681 C 463.711 -2.70158 5.26088 0
M  V30 4682 C 463.073 -2.68721 6.51128 0
M  V30 4683 H 459.172 -0.648317 0.437274 0
M  V30 4684 H 461.756 -1.19129 1.54001 0
M  V30 4685 H 459.927 -3.69001 1.21215 0
M  V30 4686 H 461.659 -3.78128 1.44226 0
M  V30 4687 H 458.414 -3.29488 3.40198 0
M  V30 4688 H 458.838 -3.10465 6.01615 0
M  V30 4689 H 463.48 -2.84904 3.12393 0
M  V30 4690 H 461.198 -2.81196 7.57598 0
M  V30 4691 H 464.784 -2.59022 5.20959 0
M  V30 4692 H 463.664 -2.57382 7.40759 0
M  V30 4693 N 461.167 -1.02423 -1.1978 0
M  V30 4694 C 462.413 -0.719051 -1.89625 0
M  V30 4695 C 462.746 0.750083 -1.7913 0
M  V30 4696 O 462.021 1.54574 -1.18056 0
M  V30 4697 C 462.304 -1.16499 -3.40735 0
M  V30 4698 C 462.157 -2.695 -3.60125 0
M  V30 4699 C 463.476 -0.742166 -4.33797 0
M  V30 4700 H 460.595 -0.26269 -0.688595 0
M  V30 4701 H 463.237 -1.27333 -1.41018 0
M  V30 4702 H 461.387 -0.69341 -3.82262 0
M  V30 4703 H 463.059 -3.24569 -3.278 0
M  V30 4704 H 461.302 -3.10113 -3.03336 0
M  V30 4705 H 461.973 -2.95757 -4.66081 0
M  V30 4706 H 464.449 -1.1477 -3.99959 0
M  V30 4707 H 463.325 -1.08213 -5.38127 0
M  V30 4708 H 463.586 0.355747 -4.40666 0
M  V30 4709 N 462.645 1.35699 -0.801477 0
M  V30 4710 C 464.056 1.81415 -0.441073 0
M  V30 4711 C 464.407 1.66595 1.03636 0
M  V30 4712 O 463.532 1.19369 1.80499 0
M  V30 4713 C 464.127 3.29369 -0.793819 0
M  V30 4714 C 462.686 3.73248 -0.486083 0
M  V30 4715 C 461.833 2.57775 -1.02213 0
M  V30 4716 H 464.784 1.23749 -0.993572 0
M  V30 4717 H 464.805 3.80395 -0.0894158 0
M  V30 4718 H 464.317 3.40123 -1.86917 0
M  V30 4719 H 462.418 3.68046 0.580735 0
M  V30 4720 H 462.531 4.68222 -1.01513 0
M  V30 4721 H 460.895 2.50788 -0.444712 0
M  V30 4722 H 461.678 2.71309 -2.10348 0
M  V30 4723 N 464.123 0.554532 1.47522 0
M  V30 4724 C 465.37 0.029479 2.02479 0
M  V30 4725 C 465.698 -1.31929 1.42916 0
M  V30 4726 O 464.953 -1.87112 0.573385 0
M  V30 4727 C 465.252 -0.115927 3.57212 0
M  V30 4728 C 464.918 1.16161 4.3568 0
M  V30 4729 C 463.58 1.51168 4.56839 0
M  V30 4730 C 465.932 2.0083 4.80954 0
M  V30 4731 C 463.26 2.70696 5.2052 0
M  V30 4732 C 465.612 3.19559 5.45953 0
M  V30 4733 C 464.276 3.54882 5.65345 0
M  V30 4734 H 463.546 0.0107871 0.740921 0
M  V30 4735 H 466.193 0.725506 1.77225 0
M  V30 4736 H 464.498 -0.894902 3.81443 0
M  V30 4737 H 466.195 -0.53749 3.97381 0
M  V30 4738 H 462.785 0.879026 4.19489 0
M  V30 4739 H 466.969 1.75093 4.64388 0
M  V30 4740 H 462.225 2.98236 5.33728 0
M  V30 4741 H 466.399 3.85456 5.79997 0
M  V30 4742 H 464.026 4.47596 6.1446 0
M  V30 4743 N 465.601 -1.54893 0.290851 0
M  V30 4744 C 466.533 -2.20564 -0.623236 0
M  V30 4745 C 467.546 -1.19519 -1.1054 0
M  V30 4746 O 468.735 -1.46165 -1.02459 0
M  V30 4747 C 465.835 -2.83033 -1.86401 0
M  V30 4748 C 465.008 -4.09916 -1.52604 0
M  V30 4749 C 464.067 -4.56284 -2.62091 0
M  V30 4750 O 463.093 -5.2171 -2.27612 0
M  V30 4751 N 464.295 -4.27746 -3.92446 0
M  V30 4752 H 467.06 -2.99638 -0.0610915 0
M  V30 4753 H 464.621 -1.61508 0.112615 0
M  V30 4754 H 466.613 -3.1099 -2.58973 0
M  V30 4755 H 465.183 -2.0786 -2.33481 0
M  V30 4756 H 464.403 -3.89078 -0.633424 0
M  V30 4757 H 465.691 -4.92554 -1.27547 0
M  V30 4758 H 465.089 -3.7531 -4.23272 0
M  V30 4759 H 463.646 -4.60437 -4.61347 0
M  V30 4760 N 467.08 -0.0183926 -1.57589 0
M  V30 4761 C 468.308 0.673046 -1.95647 0
M  V30 4762 C 468.723 1.66275 -0.894312 0
M  V30 4763 O 468.08 1.82072 0.124975 0
M  V30 4764 C 468.131 1.38884 -3.33756 0
M  V30 4765 O 467.852 0.438806 -4.35897 0
M  V30 4766 C 469.353 2.1731 -3.86383 0
M  V30 4767 H 466.573 0.186292 -0.644621 0
M  V30 4768 H 469.117 -0.0749748 -2.04363 0
M  V30 4769 H 467.272 2.08835 -3.26293 0
M  V30 4770 H 467.686 0.945869 -5.15901 0
M  V30 4771 H 469.16 2.62863 -4.85394 0
M  V30 4772 H 469.637 3.00764 -3.20059 0
M  V30 4773 H 470.243 1.52339 -3.97081 0
M  V30 4774 N 468.558 1.5553 0.254621 0
M  V30 4775 C 469.505 1.89666 1.31512 0
M  V30 4776 C 470.475 0.750057 1.482 0
M  V30 4777 O 471.66 1.00301 1.62309 0
M  V30 4778 C 468.8 2.19009 2.667 0
M  V30 4779 C 467.913 3.46435 2.58083 0
M  V30 4780 C 467.048 3.65386 3.85573 0
M  V30 4781 C 466.087 4.8644 3.71541 0
M  V30 4782 N 465.224 5.01952 4.90906 0
M  V30 4783 H 470.064 2.80109 1.017 0
M  V30 4784 H 467.601 1.38666 0.490938 0
M  V30 4785 H 469.559 2.34025 3.45381 0
M  V30 4786 H 468.189 1.31779 2.94676 0
M  V30 4787 H 467.241 3.39792 1.71013 0
M  V30 4788 H 468.553 4.35258 2.43622 0
M  V30 4789 H 467.707 3.80319 4.72697 0
M  V30 4790 H 466.446 2.74781 4.02922 0
M  V30 4791 H 465.451 4.71491 2.82801 0
M  V30 4792 H 466.676 5.78497 3.55694 0
M  V30 4793 H 464.622 4.14283 5.08631 0
M  V30 4794 H 464.539 5.84851 4.79046 0
M  V30 4795 H 465.807 5.21289 5.7955 0
M  V30 4796 N 470.036 -0.519951 1.48776 0
M  V30 4797 C 471.284 -1.2727 1.56993 0
M  V30 4798 C 471.605 -1.9339 0.25004 0
M  V30 4799 O 470.875 -1.81822 -0.729216 0
M  V30 4800 H 469.455 -0.472732 0.578389 0
M  V30 4801 H 472.117 -0.604234 1.85297 0
M  V30 4802 H 471.213 -2.04669 2.3562 0
M  V30 4803 N 471.514 -1.37532 -0.769588 0
M  V30 4804 C 472.444 -1.36172 -1.89682 0
M  V30 4805 C 473.425 -0.23001 -1.68538 0
M  V30 4806 O 474.61 -0.43069 -1.89364 0
M  V30 4807 C 471.74 -1.1701 -3.26995 0
M  V30 4808 C 470.694 -2.27216 -3.62708 0
M  V30 4809 C 470.02 -1.93174 -4.98586 0
M  V30 4810 C 471.32 -3.6941 -3.69234 0
M  V30 4811 H 473.014 -2.30499 -1.91078 0
M  V30 4812 H 470.56 -1.10953 -0.917902 0
M  V30 4813 H 472.513 -1.14688 -4.05493 0
M  V30 4814 H 471.237 -0.191395 -3.26039 0
M  V30 4815 H 469.896 -2.28697 -2.86519 0
M  V30 4816 H 469.544 -0.938281 -4.94171 0
M  V30 4817 H 469.244 -2.66973 -5.23449 0
M  V30 4818 H 470.768 -1.92443 -5.79481 0
M  V30 4819 H 472.182 -3.70047 -4.37879 0
M  V30 4820 H 470.579 -4.4228 -4.05597 0
M  V30 4821 H 471.649 -4.0288 -2.69844 0
M  V30 4822 N 472.992 0.995999 -1.22138 0
M  V30 4823 C 473.955 2.06711 -0.990109 0
M  V30 4824 C 474.955 1.60744 0.0422978 0
M  V30 4825 O 476.145 1.73095 -0.195895 0
M  V30 4826 C 473.277 3.37288 -0.49491 0
M  V30 4827 H 474.47 2.28661 -1.94047 0
M  V30 4828 H 472.023 1.16711 -1.03963 0
M  V30 4829 H 472.758 3.21022 0.459948 0
M  V30 4830 H 472.543 3.71986 -1.23971 0
M  V30 4831 H 474.033 4.16103 -0.353253 0
M  V30 4832 N 474.47 1.03057 1.19235 0
M  V30 4833 C 475.881 0.757449 1.70645 0
M  V30 4834 C 476.232 -0.722735 1.82403 0
M  V30 4835 O 475.357 -1.56325 1.49638 0
M  V30 4836 C 475.952 1.36833 3.09939 0
M  V30 4837 C 474.511 1.14375 3.58602 0
M  V30 4838 C 473.658 1.46533 2.35422 0
M  V30 4839 H 476.609 1.19828 1.04052 0
M  V30 4840 H 476.63 0.766184 3.72706 0
M  V30 4841 H 476.142 2.44562 3.01349 0
M  V30 4842 H 474.243 0.0847542 3.72504 0
M  V30 4843 H 474.356 1.83366 4.42622 0
M  V30 4844 H 472.72 0.884712 2.38841 0
M  V30 4845 H 473.503 2.55349 2.2946 0
M  V30 4846 N 475.948 -1.35272 0.808662 0
M  V30 4847 C 476.911 -2.28082 0.226093 0
M  V30 4848 C 477.911 -1.49673 -0.587762 0
M  V30 4849 O 479.101 -1.69404 -0.405943 0
M  V30 4850 C 476.233 -3.33955 -0.684596 0
M  V30 4851 H 477.426 -2.81116 1.04469 0
M  V30 4852 H 474.979 -1.45162 0.579466 0
M  V30 4853 H 475.714 -2.86111 -1.5268 0
M  V30 4854 H 475.499 -3.91965 -0.102699 0
M  V30 4855 H 476.989 -4.03219 -1.08646 0
M  V30 4856 N 477.426 -0.562348 -1.47226 0
M  V30 4857 C 478.651 -0.0432632 -2.07355 0
M  V30 4858 C 479.076 1.24332 -1.41149 0
M  V30 4859 O 478.434 1.74603 -0.488226 0
M  V30 4860 C 478.482 0.130288 -3.60365 0
M  V30 4861 O 477.586 1.19166 -3.94808 0
M  V30 4862 H 476.927 -0.0536334 -0.66183 0
M  V30 4863 H 479.457 -0.779495 -1.89169 0
M  V30 4864 H 479.467 0.342881 -4.06557 0
M  V30 4865 H 478.142 -0.809389 -4.07948 0
M  V30 4866 H 476.719 0.959153 -3.60354 0
M  V30 4867 N 478.904 1.54736 -0.299062 0
M  V30 4868 C 479.867 2.22127 0.565012 0
M  V30 4869 C 480.867 1.20669 1.06281 0
M  V30 4870 O 482.057 1.45417 0.959145 0
M  V30 4871 C 479.189 2.90611 1.78208 0
M  V30 4872 H 480.382 2.99891 -0.0237448 0
M  V30 4873 H 477.935 1.5622 -0.0498788 0
M  V30 4874 H 478.67 2.16921 2.41072 0
M  V30 4875 H 478.455 3.64984 1.43281 0
M  V30 4876 H 479.945 3.42026 2.396 0
M  V30 4877 N 480.382 0.0267497 1.57577 0
M  V30 4878 C 481.793 -0.512413 1.79531 0
M  V30 4879 C 482.144 -1.72391 0.936791 0
M  V30 4880 O 481.269 -2.15903 0.146543 0
M  V30 4881 C 481.864 -0.936378 3.25603 0
M  V30 4882 C 480.423 -1.42067 3.4856 0
M  V30 4883 C 479.57 -0.384278 2.74624 0
M  V30 4884 H 482.521 0.252797 1.56674 0
M  V30 4885 H 482.542 -1.80088 3.35184 0
M  V30 4886 H 482.054 -0.0544332 3.88062 0
M  V30 4887 H 480.155 -2.32262 2.9135 0
M  V30 4888 H 480.268 -1.42968 4.57271 0
M  V30 4889 H 478.632 -0.851855 2.40032 0
M  V30 4890 H 479.415 0.489159 3.39797 0
M  V30 4891 N 481.861 -1.55662 -0.24637 0
M  V30 4892 C 482.793 -1.86811 -1.32794 0
M  V30 4893 C 483.806 -0.754413 -1.44265 0
M  V30 4894 O 484.995 -1.03253 -1.45606 0
M  V30 4895 C 482.095 -2.0397 -2.70646 0
M  V30 4896 C 481.268 -3.34832 -2.81436 0
M  V30 4897 C 480.327 -3.41727 -4.00136 0
M  V30 4898 O 479.353 -4.14934 -3.89639 0
M  V30 4899 N 480.555 -2.71058 -5.1333 0
M  V30 4900 H 483.32 -2.80174 -1.06409 0
M  V30 4901 H 480.881 -1.55906 -0.43647 0
M  V30 4902 H 482.873 -2.05924 -3.48393 0
M  V30 4903 H 481.443 -1.1735 -2.89738 0
M  V30 4904 H 480.663 -3.4519 -1.90361 0
M  V30 4905 H 481.951 -4.21085 -2.85595 0
M  V30 4906 H 481.349 -2.11314 -5.2475 0
M  V30 4907 H 479.906 -2.78704 -5.89209 0
M  V30 4908 N 483.339 0.512053 -1.4905 0
M  V30 4909 C 484.287 1.63568 -1.65373 0
M  V30 4910 C 485.281 1.61228 -0.519806 0
M  V30 4911 O 486.487 1.65869 -0.699101 0
M  V30 4912 H 482.862 0.542019 -0.521267 0
M  V30 4913 H 484.833 1.4695 -2.59708 0
M  V30 4914 C 483.582 3.01761 -1.7273 0
M  V30 4915 H 482.905 3.04263 -2.59353 0
M  V30 4916 H 484.345 3.79948 -1.8819 0
M  V30 4917 C 482.804 3.33609 -0.46973 0
M  V30 4918 O 483.334 3.99607 0.409492 0
M  V30 4919 N 481.54 2.88651 -0.336003 0
M  V30 4920 H 481.087 2.35119 -1.05247 0
M  V30 4921 H 481.045 3.10328 0.504363 0
M  V30 4922 N 484.817 1.37938 0.762283 0
M  V30 4923 C 485.747 1.37176 1.88958 0
M  V30 4924 C 486.728 0.238945 1.68413 0
M  V30 4925 O 487.913 0.440726 1.89133 0
M  V30 4926 C 485.043 1.18742 3.2637 0
M  V30 4927 C 483.997 2.29136 3.61498 0
M  V30 4928 C 483.323 1.95816 4.97554 0
M  V30 4929 C 484.623 3.71363 3.6727 0
M  V30 4930 H 486.317 2.31509 1.89853 0
M  V30 4931 H 483.863 1.11438 0.912005 0
M  V30 4932 H 485.816 1.16837 4.04879 0
M  V30 4933 H 484.54 0.208683 3.25933 0
M  V30 4934 H 483.199 2.30213 2.85303 0
M  V30 4935 H 482.847 0.964475 4.93667 0
M  V30 4936 H 482.547 2.69745 5.22026 0
M  V30 4937 H 484.071 1.95513 5.78452 0
M  V30 4938 H 485.485 3.72364 4.35911 0
M  V30 4939 H 483.882 4.44425 4.03245 0
M  V30 4940 H 484.952 4.04305 2.67704 0
M  V30 4941 N 486.295 -0.989507 1.22664 0
M  V30 4942 C 487.245 -2.06478 0.967005 0
M  V30 4943 C 488.229 -1.60682 -0.0836374 0
M  V30 4944 O 489.421 -1.76541 0.127322 0
M  V30 4945 C 486.55 -3.38861 0.550313 0
M  V30 4946 C 485.636 -3.9128 1.63587 0
M  V30 4947 N 486.027 -4.16884 2.86429 0
M  V30 4948 C 484.325 -4.1972 1.50834 0
M  V30 4949 C 485.026 -4.5954 3.56648 0
M  V30 4950 N 484.002 -4.63434 2.84131 0
M  V30 4951 H 487.804 -2.24219 1.90008 0
M  V30 4952 H 485.318 -1.17153 1.12467 0
M  V30 4953 H 487.315 -4.15465 0.345612 0
M  V30 4954 H 485.975 -3.22518 -0.375822 0
M  V30 4955 H 486.986 -4.04976 3.22823 0
M  V30 4956 H 483.663 -4.1243 0.648643 0
M  V30 4957 H 485.053 -4.87944 4.61909 0
M  V30 4958 N 487.773 -1.03688 -1.18687 0
M  V30 4959 C 488.736 -0.629115 -2.20397 0
M  V30 4960 C 489.736 0.311495 -1.57754 0
M  V30 4961 O 490.926 0.0974107 -1.73927 0
M  V30 4962 C 488.058 0.0782231 -3.4081 0
M  V30 4963 H 489.251 -1.52915 -2.57987 0
M  V30 4964 H 486.804 -0.828988 -1.32505 0
M  V30 4965 H 487.539 0.992233 -3.08748 0
M  V30 4966 H 487.324 -0.597776 -3.87517 0
M  V30 4967 H 488.814 0.350156 -4.16129 0
M  V30 4968 N 489.251 1.34841 -0.815825 0
M  V30 4969 C 490.5 1.97755 -0.396976 0
M  V30 4970 C 490.813 1.65422 1.04379 0
M  V30 4971 O 492.019 2.21771 1.5662 0
M  V30 4972 C 490.475 3.53818 -0.658869 0
M  V30 4973 C 490.083 3.95051 -2.11278 0
M  V30 4974 C 491.827 4.23397 -0.305834 0
M  V30 4975 C 489.734 5.43997 -2.31994 0
M  V30 4976 H 488.664 0.739985 -0.1447 0
M  V30 4977 H 491.315 1.53781 -1.00118 0
M  V30 4978 H 489.697 3.95997 0.0154112 0
M  V30 4979 H 490.871 3.63998 -2.82564 0
M  V30 4980 H 489.186 3.38388 -2.42657 0
M  V30 4981 H 491.783 5.32899 -0.43854 0
M  V30 4982 H 492.126 4.09508 0.748952 0
M  V30 4983 H 492.659 3.8667 -0.934403 0
M  V30 4984 H 489.398 5.62865 -3.35952 0
M  V30 4985 H 488.918 5.76589 -1.65244 0
M  V30 4986 H 490.597 6.10584 -2.14001 0
M  V30 4987 N 490.729 0.570148 1.46925 0
M  V30 4988 C 492.145 0.23087 1.57921 0
M  V30 4989 C 492.345 -1.26676 1.56702 0
M  V30 4990 O 491.401 -2.04774 1.47729 0
M  V30 4991 C 492.714 0.868973 2.8787 0
M  V30 4992 C 494.262 0.841397 3.01479 0
M  V30 4993 C 494.737 1.45881 4.34146 0
M  V30 4994 N 496.228 1.42258 4.40814 0
M  V30 4995 C 496.963 1.8698 5.42057 0
M  V30 4996 N 496.459 2.39618 6.50042 0
M  V30 4997 N 498.252 1.77972 5.33181 0
M  V30 4998 H 490.403 1.54301 1.45962 0
M  V30 4999 H 492.666 0.644224 0.69547 0
M  V30 5000 H 492.372 1.922 2.94537 0
M  V30 5001 H 492.246 0.369682 3.75384 0
M  V30 5002 H 494.633 -0.202973 2.94401 0
M  V30 5003 H 494.714 1.37858 2.15474 0
M  V30 5004 H 494.358 2.50231 4.4198 0
M  V30 5005 H 494.288 0.896958 5.18905 0
M  V30 5006 H 496.779 1.03768 3.63374 0
M  V30 5007 H 497.092 2.71633 7.23488 0
M  V30 5008 H 495.437 2.43636 6.50897 0
M  V30 5009 H 498.628 1.36617 4.4772 0
M  V30 5010 H 498.801 2.13143 6.11943 0
M  V30 5011 N 492.207 -1.54576 0.307264 0
M  V30 5012 C 493.435 -2.04675 -0.302597 0
M  V30 5013 C 493.85 -1.18425 -1.47041 0
M  V30 5014 O 493.207 -0.211257 -1.81273 0
M  V30 5015 C 493.258 -3.53575 -0.752801 0
M  V30 5016 O 492.979 -4.36547 0.368536 0
M  V30 5017 C 494.48 -4.19699 -1.42717 0
M  V30 5018 H 491.7 -0.66786 -0.0648374 0
M  V30 5019 H 494.244 -1.99516 0.448716 0
M  V30 5020 H 492.399 -3.59074 -1.45412 0
M  V30 5021 H 492.813 -5.24497 0.0168937 0
M  V30 5022 H 494.287 -5.25388 -1.69327 0
M  V30 5023 H 494.764 -3.69815 -2.36925 0
M  V30 5024 H 495.37 -4.18293 -0.768856 0
M  V30 5025 N 493.685 -0.035106 -1.57561 0
M  V30 5026 C 494.962 0.681212 -1.83354 0
M  V30 5027 C 495.342 1.89986 -0.920252 0
M  V30 5028 O 494.69 2.28489 0.0226815 0
M  V30 5029 C 494.9 1.05376 -3.32712 0
M  V30 5030 C 496.248 1.44286 -3.99333 0
M  V30 5031 O 497.272 1.14656 -3.37242 0
M  V30 5032 O 496.131 1.99518 -5.08778 0
M  V30 5033 H 493.225 0.334741 -0.756226 0
M  V30 5034 H 495.771 -0.0632448 -1.69582 0
M  V30 5035 H 494.543 0.186668 -3.90854 0
M  V30 5036 H 494.166 1.85619 -3.51613 0
M  V30 5037 N 495.163 1.55791 0.238111 0
M  V30 5038 C 496.388 1.8244 0.986432 0
M  V30 5039 C 496.813 0.613314 1.7782 0
M  V30 5040 O 496.171 -0.437767 1.75935 0
M  V30 5041 C 496.219 3.06917 1.893 0
M  V30 5042 O 495.323 2.84449 2.98601 0
M  V30 5043 H 494.664 0.601975 0.280218 0
M  V30 5044 H 497.194 2.02987 0.256437 0
M  V30 5045 H 497.204 3.36583 2.30598 0
M  V30 5046 H 495.879 3.947 1.31091 0
M  V30 5047 H 494.456 2.65972 2.61368 0
M  V30 5048 N 496.642 -0.504142 1.49319 0
M  V30 5049 C 497.89 -1.25598 1.58334 0
M  V30 5050 C 498.211 -1.93114 0.270538 0
M  V30 5051 O 497.481 -1.82585 -0.709891 0
M  V30 5052 H 496.061 -0.466571 0.58337 0
M  V30 5053 H 498.723 -0.584547 1.85928 0
M  V30 5054 H 497.819 -2.02159 2.37778 0
M  V30 5055 N 498.12 -1.38341 -0.754957 0
M  V30 5056 C 499.05 -1.38176 -1.88227 0
M  V30 5057 C 500.031 -0.247873 -1.68284 0
M  V30 5058 O 501.216 -0.45075 -1.88896 0
M  V30 5059 C 498.346 -1.20471 -3.25736 0
M  V30 5060 C 497.3 -2.3105 -3.60278 0
M  V30 5061 C 496.626 -1.98452 -4.96509 0
M  V30 5062 C 497.926 -3.73305 -3.65295 0
M  V30 5063 H 499.62 -2.32512 -1.88622 0
M  V30 5064 H 497.166 -1.1192 -0.906082 0
M  V30 5065 H 499.119 -1.18982 -4.04254 0
M  V30 5066 H 497.843 -0.225965 -3.25817 0
M  V30 5067 H 496.502 -2.31723 -2.84078 0
M  V30 5068 H 496.15 -0.990641 -4.93148 0
M  V30 5069 H 495.85 -2.7251 -5.20588 0
M  V30 5070 H 497.374 -1.98578 -5.77407 0
M  V30 5071 H 498.788 -3.7467 -4.3393 0
M  V30 5072 H 497.185 -4.46557 -4.00883 0
M  V30 5073 H 498.255 -4.05719 -2.65556 0
M  V30 5074 N 499.598 0.982988 -1.23187 0
M  V30 5075 C 500.847 1.71817 -1.05649 0
M  V30 5076 C 501.16 1.91315 0.407176 0
M  V30 5077 O 502.366 2.62256 0.702436 0
M  V30 5078 C 500.822 3.09188 -1.84203 0
M  V30 5079 C 500.43 2.97586 -3.34882 0
M  V30 5080 C 502.174 3.86684 -1.75146 0
M  V30 5081 C 500.081 4.30173 -4.05839 0
M  V30 5082 H 499.011 0.644258 -0.391724 0
M  V30 5083 H 501.662 1.09659 -1.4713 0
M  V30 5084 H 500.044 3.72087 -1.35527 0
M  V30 5085 H 501.218 2.43793 -3.91026 0
M  V30 5086 H 499.533 2.33567 -3.44725 0
M  V30 5087 H 502.13 4.84836 -2.25473 0
M  V30 5088 H 502.473 4.10136 -0.713737 0
M  V30 5089 H 503.006 3.30482 -2.21419 0
M  V30 5090 H 499.745 4.11918 -5.09906 0
M  V30 5091 H 499.265 4.83841 -3.54482 0
M  V30 5092 H 500.944 4.98873 -4.11989 0
M  V30 5093 N 501.076 1.04316 1.18135 0
M  V30 5094 C 502.006 0.657299 2.24058 0
M  V30 5095 C 502.987 -0.340678 1.66654 0
M  V30 5096 O 504.172 -0.220223 1.92947 0
M  V30 5097 C 501.302 0.0220715 3.47293 0
M  V30 5098 C 500.256 0.943857 4.17463 0
M  V30 5099 C 499.582 0.172973 5.3442 0
M  V30 5100 C 500.882 2.26409 4.70677 0
M  V30 5101 H 502.576 1.5428 2.56589 0
M  V30 5102 H 500.122 0.743263 1.23335 0
M  V30 5103 H 502.075 -0.259607 4.206 0
M  V30 5104 H 500.799 -0.898323 3.14003 0
M  V30 5105 H 499.458 1.20996 3.46057 0
M  V30 5106 H 499.106 -0.749907 4.97379 0
M  V30 5107 H 498.806 0.787098 5.82304 0
M  V30 5108 H 500.33 -0.101628 6.10515 0
M  V30 5109 H 501.744 2.04294 5.35665 0
M  V30 5110 H 500.141 2.8314 5.29105 0
M  V30 5111 H 501.211 2.90883 3.87962 0
M  V30 5112 N 502.554 -1.34406 0.822964 0
M  V30 5113 C 503.464 -2.33298 0.246838 0
M  V30 5114 C 504.48 -1.62625 -0.618797 0
M  V30 5115 O 505.656 -1.94391 -0.526685 0
M  V30 5116 C 502.721 -3.41785 -0.581731 0
M  V30 5117 C 501.782 -4.28206 0.306309 0
M  V30 5118 C 501.015 -5.31512 -0.48281 0
M  V30 5119 O 501.238 -5.43973 -1.71607 0
M  V30 5120 O 500.172 -6.01749 0.134884 0
M  V30 5121 H 503.998 -2.84401 1.06534 0
M  V30 5122 H 501.583 -1.37466 0.585108 0
M  V30 5123 H 503.465 -4.08028 -1.05313 0
M  V30 5124 H 502.14 -2.92925 -1.37756 0
M  V30 5125 H 501.047 -3.64885 0.825199 0
M  V30 5126 H 502.38 -4.80507 1.06649 0
M  V30 5127 N 504.032 -0.577932 -1.46621 0
M  V30 5128 C 505.278 -0.0700937 -2.03279 0
M  V30 5129 C 505.633 1.27376 -1.44198 0
M  V30 5130 O 504.926 1.82097 -0.595911 0
M  V30 5131 C 505.12 0.0590832 -3.57351 0
M  V30 5132 C 504.949 -1.2707 -4.31374 0
M  V30 5133 C 503.719 -1.84357 -4.70469 0
M  V30 5134 C 505.917 -2.19278 -4.65211 0
M  V30 5135 N 503.899 -3.11124 -5.29221 0
M  V30 5136 C 505.27 -3.30631 -5.24484 0
M  V30 5137 C 507.325 -2.19018 -4.47142 0
M  V30 5138 C 506.028 -4.41849 -5.67593 0
M  V30 5139 C 508.054 -3.29262 -4.91264 0
M  V30 5140 C 507.416 -4.39335 -5.50604 0
M  V30 5141 H 503.515 -0.0683127 -0.779011 0
M  V30 5142 H 506.099 -0.76978 -1.78836 0
M  V30 5143 H 504.27 0.727929 -3.81518 0
M  V30 5144 H 506.002 0.57087 -4.00653 0
M  V30 5145 H 502.757 -1.37906 -4.53077 0
M  V30 5146 H 503.181 -3.75794 -5.63123 0
M  V30 5147 H 507.823 -1.35191 -4.00604 0
M  V30 5148 H 505.541 -5.26421 -6.13112 0
M  V30 5149 H 509.127 -3.30172 -4.79038 0
M  V30 5150 H 508.007 -5.23233 -5.84121 0
M  V30 5151 N 505.51 1.54411 -0.315457 0
M  V30 5152 C 506.42 2.27737 0.56329 0
M  V30 5153 C 507.436 1.31787 1.13614 0
M  V30 5154 O 508.612 1.64791 1.15784 0
M  V30 5155 C 505.677 3.01478 1.71207 0
M  V30 5156 C 504.738 4.12997 1.17185 0
M  V30 5157 C 503.971 4.83212 2.26588 0
M  V30 5158 O 504.194 4.52884 3.46775 0
M  V30 5159 O 503.128 5.70299 1.92463 0
M  V30 5160 H 506.954 3.03683 -0.0319614 0
M  V30 5161 H 504.539 1.49178 -0.0814188 0
M  V30 5162 H 506.421 3.47683 2.38106 0
M  V30 5163 H 505.096 2.28414 2.29366 0
M  V30 5164 H 504.003 3.71159 0.468174 0
M  V30 5165 H 505.336 4.8808 0.635501 0
M  V30 5166 N 506.988 0.0434614 1.5754 0
M  V30 5167 C 507.898 -0.94893 2.14552 0
M  V30 5168 C 508.914 -1.34707 1.10136 0
M  V30 5169 O 510.09 -1.42557 1.42266 0
M  V30 5170 C 507.155 -2.208 2.67298 0
M  V30 5171 C 506.216 -1.86893 3.86484 0
M  V30 5172 C 505.449 -3.06797 4.36705 0
M  V30 5173 O 505.672 -4.19921 3.86034 0
M  V30 5174 O 504.606 -2.8826 5.28384 0
M  V30 5175 H 508.432 -0.494099 2.99654 0
M  V30 5176 H 506.017 -0.177989 1.48336 0
M  V30 5177 H 507.899 -2.94686 3.01228 0
M  V30 5178 H 506.574 -2.65436 1.85272 0
M  V30 5179 H 505.481 -1.10347 3.57455 0
M  V30 5180 H 506.814 -1.47062 4.69716 0
M  V30 5181 N 508.466 -1.55915 -0.229846 0
M  V30 5182 C 509.712 -1.78807 -0.956868 0
M  V30 5183 C 510.045 -0.611687 -1.84315 0
M  V30 5184 O 509.32 0.389398 -1.90562 0
M  V30 5185 C 509.603 -3.11718 -1.80288 0
M  V30 5186 C 509.456 -4.3979 -0.943649 0
M  V30 5187 C 510.775 -3.40999 -2.78222 0
M  V30 5188 H 507.894 -0.6505 -0.346437 0
M  V30 5189 H 510.536 -1.88648 -0.226252 0
M  V30 5190 H 508.686 -3.03459 -2.42579 0
M  V30 5191 H 510.358 -4.60059 -0.338121 0
M  V30 5192 H 508.601 -4.33086 -0.248705 0
M  V30 5193 H 509.272 -5.29208 -1.5698 0
M  V30 5194 H 511.748 -3.49332 -2.26067 0
M  V30 5195 H 510.624 -4.35183 -3.34526 0
M  V30 5196 H 510.885 -2.62754 -3.55546 0
M  V30 5197 N 509.944 0.496216 -1.49584 0
M  V30 5198 C 511.193 1.24668 -1.58558 0
M  V30 5199 C 511.506 1.9359 -0.279703 0
M  V30 5200 O 512.712 2.70365 -0.248048 0
M  V30 5201 C 511.168 2.26388 -2.79779 0
M  V30 5202 C 510.776 1.63384 -4.17145 0
M  V30 5203 C 512.52 3.02233 -2.98086 0
M  V30 5204 C 510.427 2.63243 -5.29582 0
M  V30 5205 H 509.357 0.468995 -0.590389 0
M  V30 5206 H 512.008 0.519985 -1.75978 0
M  V30 5207 H 510.39 3.02241 -2.55863 0
M  V30 5208 H 511.564 0.93491 -4.51216 0
M  V30 5209 H 509.879 0.999121 -4.04236 0
M  V30 5210 H 512.476 3.76919 -3.79257 0
M  V30 5211 H 512.819 3.60132 -2.08831 0
M  V30 5212 H 513.352 2.33495 -3.22063 0
M  V30 5213 H 510.091 2.10119 -6.20911 0
M  V30 5214 H 509.611 3.31363 -4.99959 0
M  V30 5215 H 511.29 3.25575 -5.59115 0
M  V30 5216 N 511.423 1.38739 0.74761 0
M  V30 5217 C 512.834 1.31507 1.32524 0
M  V30 5218 C 513.185 -0.0263963 1.96182 0
M  V30 5219 O 512.31 -0.92849 1.95469 0
M  V30 5220 C 512.905 2.38162 2.40966 0
M  V30 5221 C 511.464 2.34489 2.94434 0
M  V30 5222 C 510.611 2.20712 1.67873 0
M  V30 5223 H 513.562 1.4901 0.546043 0
M  V30 5224 H 513.583 2.04222 3.21051 0
M  V30 5225 H 513.095 3.35783 1.94605 0
M  V30 5226 H 511.196 1.40467 3.45108 0
M  V30 5227 H 511.309 3.28861 3.48407 0
M  V30 5228 H 509.673 1.67667 1.91729 0
M  V30 5229 H 510.456 3.20285 1.23582 0
M  V30 5230 N 512.901 -0.976442 1.23707 0
M  V30 5231 C 513.811 -2.10359 1.03856 0
M  V30 5232 C 514.827 -1.73991 -0.0180919 0
M  V30 5233 O 516.003 -2.0061 0.178211 0
M  V30 5234 C 513.068 -3.40809 0.636387 0
M  V30 5235 C 512.129 -3.91179 1.76854 0
M  V30 5236 C 511.362 -5.15404 1.38546 0
M  V30 5237 O 511.585 -5.69754 0.27142 0
M  V30 5238 O 510.519 -5.5994 2.20797 0
M  V30 5239 H 514.345 -2.29997 1.98331 0
M  V30 5240 H 511.93 -1.08742 1.02448 0
M  V30 5241 H 513.812 -4.19269 0.423223 0
M  V30 5242 H 512.487 -3.22493 -0.279322 0
M  V30 5243 H 511.394 -3.13819 2.03638 0
M  V30 5244 H 512.727 -4.13958 2.6627 0
M  V30 5245 N 514.379 -1.04941 -1.1758 0
M  V30 5246 C 515.342 -0.652456 -2.19717 0
M  V30 5247 C 516.342 0.294745 -1.58076 0
M  V30 5248 O 517.532 0.0789579 -1.74021 0
M  V30 5249 C 514.664 0.0420712 -3.40874 0
M  V30 5250 H 515.857 -1.55642 -2.5635 0
M  V30 5251 H 513.41 -0.842995 -1.31618 0
M  V30 5252 H 514.145 0.95943 -3.09783 0
M  V30 5253 H 513.93 -0.638844 -3.86861 0
M  V30 5254 H 515.42 0.306 -4.16477 0
M  V30 5255 N 515.857 1.33968 -0.830081 0
M  V30 5256 C 517.268 1.80439 -0.479455 0
M  V30 5257 C 517.619 1.68756 1.00079 0
M  V30 5258 O 516.744 1.23171 1.77927 0
M  V30 5259 C 517.339 3.27611 -0.863505 0
M  V30 5260 C 515.898 3.72133 -0.565145 0
M  V30 5261 C 515.045 2.55549 -1.07657 0
M  V30 5262 H 517.996 1.21614 -1.0196 0
M  V30 5263 H 518.017 3.8012 -0.170083 0
M  V30 5264 H 517.529 3.36082 -1.94089 0
M  V30 5265 H 515.63 3.69196 0.502536 0
M  V30 5266 H 515.743 4.65963 -1.11422 0
M  V30 5267 H 514.107 2.49788 -0.497807 0
M  V30 5268 H 514.89 2.66786 -2.16055 0
M  V30 5269 N 517.335 0.585699 1.46312 0
M  V30 5270 C 518.265 -0.133556 2.33118 0
M  V30 5271 C 519.246 -0.880707 1.45525 0
M  V30 5272 O 520.431 -0.855579 1.74337 0
M  V30 5273 C 517.561 -1.14585 3.27853 0
M  V30 5274 C 516.515 -0.513341 4.2491 0
M  V30 5275 C 515.841 -1.63231 5.09175 0
M  V30 5276 C 517.141 0.551413 5.19381 0
M  V30 5277 H 518.835 0.59121 2.93505 0
M  V30 5278 H 516.381 0.285761 1.41136 0
M  V30 5279 H 518.334 -1.65741 3.87438 0
M  V30 5280 H 517.058 -1.90093 2.65579 0
M  V30 5281 H 515.717 -0.0228349 3.66593 0
M  V30 5282 H 515.365 -2.37713 4.43285 0
M  V30 5283 H 515.065 -1.21473 5.74907 0
M  V30 5284 H 516.589 -2.14658 5.71624 0
M  V30 5285 H 518.003 0.124804 5.73164 0
M  V30 5286 H 516.4 0.889486 5.93471 0
M  V30 5287 H 517.47 1.43655 4.63132 0
M  V30 5288 N 518.813 -1.54241 0.323641 0
M  V30 5289 C 519.723 -2.28033 -0.551205 0
M  V30 5290 C 520.739 -1.32388 -1.12913 0
M  V30 5291 O 521.915 -1.65403 -1.14908 0
M  V30 5292 C 518.98 -3.02382 -1.69606 0
M  V30 5293 C 518.041 -4.13612 -1.14993 0
M  V30 5294 C 517.274 -4.84407 -2.24022 0
M  V30 5295 O 517.497 -4.54716 -3.44368 0
M  V30 5296 O 516.431 -5.71312 -1.89436 0
M  V30 5297 H 520.257 -3.03662 0.048066 0
M  V30 5298 H 517.842 -1.49133 0.0893289 0
M  V30 5299 H 519.724 -3.48941 -2.36259 0
M  V30 5300 H 518.399 -2.29628 -2.28151 0
M  V30 5301 H 517.306 -3.71402 -0.448484 0
M  V30 5302 H 518.639 -4.8841 -0.609608 0
M  V30 5303 N 520.291 -0.0518155 -1.57515 0
M  V30 5304 C 521.539 0.620595 -1.92336 0
M  V30 5305 C 521.86 1.71345 -0.930907 0
M  V30 5306 O 521.13 1.95885 0.0241341 0
M  V30 5307 H 519.71 0.232226 -0.709986 0
M  V30 5308 H 522.372 -0.104969 -1.94617 0
M  V30 5309 H 521.468 1.05879 -2.93592 0
M  V30 5310 N 521.769 1.56035 0.221574 0
M  V30 5311 C 523.18 1.69229 0.788567 0
M  V30 5312 C 523.531 0.653814 1.84986 0
M  V30 5313 O 522.656 -0.195065 2.15519 0
M  V30 5314 C 523.251 3.06809 1.43713 0
M  V30 5315 C 521.81 3.21858 1.95152 0
M  V30 5316 C 520.957 2.65155 0.811685 0
M  V30 5317 H 523.908 1.587 -0.00307894 0
M  V30 5318 H 523.929 3.02666 2.30594 0
M  V30 5319 H 523.441 3.82369 0.664475 0
M  V30 5320 H 521.542 2.51167 2.7522 0
M  V30 5321 H 521.655 4.29073 2.1315 0
M  V30 5322 H 520.019 2.23635 1.21899 0
M  V30 5323 H 520.802 3.43261 0.0516987 0
M  V30 5324 N 523.247 -0.488276 1.49845 0
M  V30 5325 C 524.177 -1.59675 1.70371 0
M  V30 5326 C 525.158 -1.60878 0.552473 0
M  V30 5327 O 526.343 -1.77417 0.78973 0
M  V30 5328 C 523.473 -2.98098 1.782 0
M  V30 5329 C 522.427 -3.11761 2.93239 0
M  V30 5330 C 521.753 -4.51661 2.86193 0
M  V30 5331 C 523.053 -2.90589 4.33999 0
M  V30 5332 H 524.747 -1.42752 2.63177 0
M  V30 5333 H 522.293 -0.685317 1.26647 0
M  V30 5334 H 524.246 -3.75555 1.91144 0
M  V30 5335 H 522.97 -3.16138 0.820018 0
M  V30 5336 H 521.629 -2.36732 2.79917 0
M  V30 5337 H 521.277 -4.66595 1.87877 0
M  V30 5338 H 520.977 -4.61742 3.63412 0
M  V30 5339 H 522.501 -5.31162 3.01163 0
M  V30 5340 H 523.915 -3.57807 4.47936 0
M  V30 5341 H 522.312 -3.1213 5.12538 0
M  V30 5342 H 523.382 -1.86595 4.4756 0
M  V30 5343 N 524.725 -1.39134 -0.740242 0
M  V30 5344 C 525.973 -1.35803 -1.49673 0
M  V30 5345 C 526.294 0.0470897 -1.94943 0
M  V30 5346 O 525.564 0.997347 -1.68611 0
M  V30 5347 H 524.144 -0.499736 -0.555224 0
M  V30 5348 H 526.806 -1.73947 -0.879107 0
M  V30 5349 H 525.902 -2.0174 -2.38133 0
M  V30 5350 N 526.204 0.969867 -1.24223 0
M  V30 5351 C 527.615 1.52717 -1.07399 0
M  V30 5352 C 527.966 1.92956 0.355298 0
M  V30 5353 O 527.091 1.77112 1.2434 0
M  V30 5354 C 527.686 2.77521 -1.94339 0
M  V30 5355 C 526.245 3.29615 -1.81744 0
M  V30 5356 C 525.392 2.02537 -1.89405 0
M  V30 5357 H 528.343 0.788399 -1.37732 0
M  V30 5358 H 528.364 3.50773 -1.47439 0
M  V30 5359 H 527.876 2.48203 -2.98357 0
M  V30 5360 H 525.977 3.63789 -0.805505 0
M  V30 5361 H 526.09 3.98661 -2.65718 0
M  V30 5362 H 524.454 2.17151 -1.33108 0
M  V30 5363 H 525.237 1.75587 -2.94999 0
M  V30 5364 N 527.682 1.05563 1.17022 0
M  V30 5365 C 528.912 0.787307 1.91011 0
M  V30 5366 C 529.32 -0.661256 1.77268 0
M  V30 5367 O 528.663 -1.46379 1.10991 0
M  V30 5368 C 528.725 1.09313 3.42478 0
M  V30 5369 C 528.389 2.53863 3.80004 0
M  V30 5370 C 529.386 3.52081 3.82538 0
M  V30 5371 C 527.071 2.88969 4.10855 0
M  V30 5372 C 529.065 4.83449 4.15399 0
M  V30 5373 C 526.752 4.2054 4.43384 0
M  V30 5374 C 527.75 5.17589 4.45635 0
M  V30 5375 O 527.438 6.46799 4.77395 0
M  V30 5376 H 527.17 0.285463 0.61277 0
M  V30 5377 H 529.724 1.41051 1.49311 0
M  V30 5378 H 527.954 0.412833 3.8449 0
M  V30 5379 H 529.643 0.810224 3.97731 0
M  V30 5380 H 530.409 3.26299 3.58823 0
M  V30 5381 H 526.288 2.1409 4.08272 0
M  V30 5382 H 529.832 5.59194 4.1707 0
M  V30 5383 H 525.729 4.46083 4.66563 0
M  V30 5384 H 526.497 6.51677 4.95237 0
M  V30 5385 N 529.16 -1.33526 0.837174 0
M  V30 5386 C 530.107 -2.29248 0.267169 0
M  V30 5387 C 531.077 -1.54252 -0.616071 0
M  V30 5388 O 532.262 -1.82559 -0.554699 0
M  V30 5389 C 529.402 -3.40638 -0.553152 0
M  V30 5390 C 528.515 -4.30548 0.353921 0
M  V30 5391 C 527.65 -5.29051 -0.477339 0
M  V30 5392 C 526.689 -6.106 0.42823 0
M  V30 5393 N 525.826 -7.01152 -0.364801 0
M  V30 5394 H 530.666 -2.77398 1.08877 0
M  V30 5395 H 528.203 -1.36496 0.54838 0
M  V30 5396 H 530.161 -4.03921 -1.04422 0
M  V30 5397 H 528.791 -2.93685 -1.33973 0
M  V30 5398 H 527.843 -3.68001 0.963289 0
M  V30 5399 H 529.155 -4.87631 1.04964 0
M  V30 5400 H 528.309 -5.97853 -1.0323 0
M  V30 5401 H 527.048 -4.72541 -1.2065 0
M  V30 5402 H 526.053 -5.40718 0.995219 0
M  V30 5403 H 527.278 -6.69193 1.15573 0
M  V30 5404 H 525.224 -6.47092 -1.07738 0
M  V30 5405 H 525.141 -7.5551 0.272238 0
M  V30 5406 H 526.409 -7.74263 -0.902054 0
M  V30 5407 N 530.638 -0.59345 -1.46 0
M  V30 5408 C 531.568 0.121192 -2.33185 0
M  V30 5409 C 532.549 0.872977 -1.4599 0
M  V30 5410 O 533.734 0.846321 -1.74789 0
M  V30 5411 C 530.864 1.12844 -3.28456 0
M  V30 5412 C 529.818 0.4908 -4.25177 0
M  V30 5413 C 529.144 1.60529 -5.10034 0
M  V30 5414 C 530.444 -0.578949 -5.19081 0
M  V30 5415 H 532.138 -0.606767 -2.93187 0
M  V30 5416 H 529.684 -0.293242 -1.40983 0
M  V30 5417 H 531.637 1.63684 -3.88311 0
M  V30 5418 H 530.361 1.88681 -2.66584 0
M  V30 5419 H 529.02 0.00339328 -3.666 0
M  V30 5420 H 528.668 2.35359 -4.44539 0
M  V30 5421 H 528.368 1.18422 -5.75543 0
M  V30 5422 H 529.892 2.11623 -5.72755 0
M  V30 5423 H 531.306 -0.155199 -5.7309 0
M  V30 5424 H 529.703 -0.920947 -5.92991 0
M  V30 5425 H 530.773 -1.46109 -4.62364 0
M  V30 5426 N 532.116 1.54067 -0.331816 0
M  V30 5427 C 533.341 2.05599 0.272705 0
M  V30 5428 C 533.766 1.2059 1.44359 0
M  V30 5429 O 533.124 0.216907 1.79998 0
M  V30 5430 C 533.172 3.54188 0.677021 0
M  V30 5431 O 532.276 3.72082 1.77844 0
M  V30 5432 H 531.617 0.662286 0.0476801 0
M  V30 5433 H 534.147 1.98826 -0.482624 0
M  V30 5434 H 534.157 3.96608 0.957415 0
M  V30 5435 H 532.832 4.15513 -0.179325 0
M  V30 5436 H 531.409 3.41566 1.49622 0
M  V30 5437 N 533.594 0.0601682 1.57485 0
M  V30 5438 C 534.84 -0.606552 1.94146 0
M  V30 5439 C 535.195 -1.67918 0.939225 0
M  V30 5440 O 534.488 -1.91558 -0.0402649 0
M  V30 5441 C 534.682 -1.23831 3.35262 0
M  V30 5442 C 534.511 -0.228408 4.4912 0
M  V30 5443 C 533.281 0.182813 5.04969 0
M  V30 5444 C 535.479 0.52975 5.11564 0
M  V30 5445 N 533.461 1.18464 6.02362 0
M  V30 5446 C 534.832 1.38439 6.04346 0
M  V30 5447 C 536.887 0.587084 4.94427 0
M  V30 5448 C 535.59 2.29125 6.81832 0
M  V30 5449 C 537.616 1.4814 5.72546 0
M  V30 5450 C 536.978 2.32375 6.64967 0
M  V30 5451 H 533.077 -0.193328 0.757726 0
M  V30 5452 H 535.661 0.1346 1.94234 0
M  V30 5453 H 533.832 -1.94944 3.35933 0
M  V30 5454 H 535.564 -1.86456 3.59188 0
M  V30 5455 H 532.319 -0.197968 4.73186 0
M  V30 5456 H 532.743 1.68271 6.55754 0
M  V30 5457 H 537.385 -0.049944 4.22771 0
M  V30 5458 H 535.103 2.93868 7.52773 0
M  V30 5459 H 538.689 1.53045 5.6131 0
M  V30 5460 H 537.569 3.00454 7.2436 0
M  V30 5461 N 535.072 -1.5615 -0.213296 0
M  V30 5462 C 536.318 -1.79812 -0.937849 0
M  V30 5463 C 536.651 -0.631201 -1.83656 0
M  V30 5464 O 535.926 0.369165 -1.90964 0
M  V30 5465 C 536.209 -3.13613 -1.76972 0
M  V30 5466 C 536.062 -4.40766 -0.89695 0
M  V30 5467 C 537.381 -3.43931 -2.7459 0
M  V30 5468 H 534.5 -0.654138 -0.339518 0
M  V30 5469 H 537.142 -1.88877 -0.20623 0
M  V30 5470 H 535.292 -3.06015 -2.39347 0
M  V30 5471 H 536.964 -4.60392 -0.289306 0
M  V30 5472 H 535.207 -4.33326 -0.202756 0
M  V30 5473 H 535.878 -5.30843 -1.51358 0
M  V30 5474 H 538.354 -3.5171 -2.22349 0
M  V30 5475 H 537.23 -4.38706 -3.29891 0
M  V30 5476 H 537.491 -2.6651 -3.52739 0
M  V30 5477 N 536.55 0.480323 -1.50102 0
M  V30 5478 C 537.482 1.59669 -1.64433 0
M  V30 5479 C 538.495 1.54063 -0.52615 0
M  V30 5480 O 539.684 1.59619 -0.798992 0
M  V30 5481 C 536.784 2.98527 -1.6042 0
M  V30 5482 C 535.957 3.291 -2.88117 0
M  V30 5483 C 535.016 4.47468 -2.76873 0
M  V30 5484 O 534.042 4.4823 -3.50825 0
M  V30 5485 N 535.244 5.48593 -1.89806 0
M  V30 5486 H 538.009 1.47795 -2.60723 0
M  V30 5487 H 535.57 0.66858 -1.4745 0
M  V30 5488 H 537.562 3.75666 -1.50523 0
M  V30 5489 H 536.132 3.04218 -0.719036 0
M  V30 5490 H 535.352 2.40662 -3.12211 0
M  V30 5491 H 536.64 3.46334 -3.72734 0
M  V30 5492 H 536.038 5.50791 -1.2902 0
M  V30 5493 H 534.595 6.24752 -1.85819 0
M  V30 5494 N 538.028 1.39524 0.732853 0
M  V30 5495 C 539.305 1.27373 1.48444 0
M  V30 5496 C 539.685 -0.115725 2.10783 0
M  V30 5497 O 539.033 -1.12713 1.98766 0
M  V30 5498 C 539.243 2.39966 2.53412 0
M  V30 5499 C 540.591 2.79384 3.19733 0
M  V30 5500 O 541.615 2.39431 2.63725 0
M  V30 5501 O 540.474 3.48353 4.21085 0
M  V30 5502 H 537.568 0.499272 0.659285 0
M  V30 5503 H 540.114 1.51403 0.766496 0
M  V30 5504 H 538.886 3.32845 2.05742 0
M  V30 5505 H 538.509 2.17612 3.32762 0
M  V30 5506 N 539.506 -0.963266 1.24736 0
M  V30 5507 C 540.454 -2.07985 1.04139 0
M  V30 5508 C 541.448 -1.69381 -0.0250556 0
M  V30 5509 O 542.654 -1.79531 0.129863 0
M  V30 5510 H 539.029 -0.680627 0.319768 0
M  V30 5511 H 541 -2.22517 1.98818 0
M  V30 5512 C 539.749 -3.4123 0.667615 0
M  V30 5513 H 539.072 -3.71397 1.48 0
M  V30 5514 H 540.512 -4.20244 0.563136 0
M  V30 5515 C 538.971 -3.3104 -0.625647 0
M  V30 5516 O 539.501 -3.65334 -1.67016 0
M  V30 5517 N 537.707 -2.84168 -0.608033 0
M  V30 5518 H 537.254 -2.56458 0.242323 0
M  V30 5519 H 537.212 -2.77732 -1.47352 0
M  V30 5520 N 540.985 -1.06182 -1.16461 0
M  V30 5521 C 542.233 -0.776326 -1.86595 0
M  V30 5522 C 542.554 0.69921 -1.82033 0
M  V30 5523 O 541.824 1.50579 -1.2531 0
M  V30 5524 H 540.404 -0.284184 -0.690832 0
M  V30 5525 H 543.066 -1.34308 -1.41235 0
M  V30 5526 H 542.162 -1.10022 -2.92064 0
M  V30 5527 N 542.463 1.3308 -0.844243 0
M  V30 5528 C 543.691 2.01808 -0.456203 0
M  V30 5529 C 544.106 1.63498 0.944131 0
M  V30 5530 O 543.463 0.85102 1.61443 0
M  V30 5531 C 543.514 3.56922 -0.573513 0
M  V30 5532 O 543.235 3.93851 -1.91868 0
M  V30 5533 C 544.736 4.42922 -0.183125 0
M  V30 5534 H 541.956 0.646273 -0.180477 0
M  V30 5535 H 544.5 1.69891 -1.1383 0
M  V30 5536 H 542.655 3.87352 0.0607367 0
M  V30 5537 H 543.069 4.88564 -1.90802 0
M  V30 5538 H 544.543 5.51093 -0.316241 0
M  V30 5539 H 545.02 4.30386 0.875477 0
M  V30 5540 H 545.626 4.1786 -0.792027 0
M  V30 5541 N 543.941 0.601185 1.45683 0
M  V30 5542 C 544.873 -0.159446 2.28645 0
M  V30 5543 C 545.886 -0.837882 1.39583 0
M  V30 5544 O 547.075 -0.704344 1.64016 0
M  V30 5545 C 544.175 -1.24641 3.15147 0
M  V30 5546 C 543.348 -0.656334 4.32448 0
M  V30 5547 C 542.407 -1.63337 5.00208 0
M  V30 5548 O 541.433 -1.16217 5.57209 0
M  V30 5549 N 542.635 -2.96773 4.98905 0
M  V30 5550 H 545.4 0.5524 2.94565 0
M  V30 5551 H 542.961 0.440223 1.558 0
M  V30 5552 H 544.953 -1.8997 3.57342 0
M  V30 5553 H 543.523 -1.86087 2.51178 0
M  V30 5554 H 542.743 0.174879 3.93812 0
M  V30 5555 H 544.031 -0.242211 5.08223 0
M  V30 5556 H 543.429 -3.37662 4.53873 0
M  V30 5557 H 541.986 -3.57541 5.44984 0
M  V30 5558 N 545.419 -1.53889 0.339982 0
M  V30 5559 C 546.696 -1.93084 -0.312719 0
M  V30 5560 C 547.076 -1.2712 -1.68534 0
M  V30 5561 O 546.424 -0.420835 -2.24591 0
M  V30 5562 C 546.634 -3.4683 -0.388558 0
M  V30 5563 C 547.982 -4.19732 -0.641088 0
M  V30 5564 O 549.006 -3.53075 -0.470818 0
M  V30 5565 O 547.865 -5.3781 -0.970685 0
M  V30 5566 H 544.959 -0.806784 -0.18174 0
M  V30 5567 H 547.505 -1.65137 0.390898 0
M  V30 5568 H 546.277 -3.87055 0.574821 0
M  V30 5569 H 545.9 -3.80933 -1.1391 0
M  V30 5570 N 546.897 -0.0685191 -1.57451 0
M  V30 5571 C 547.807 0.914677 -2.16034 0
M  V30 5572 C 548.823 1.32938 -1.12265 0
M  V30 5573 O 549.999 1.40275 -1.44516 0
M  V30 5574 C 547.064 2.16519 -2.70777 0
M  V30 5575 C 546.125 1.80721 -3.89408 0
M  V30 5576 C 545.358 2.9981 -4.41531 0
M  V30 5577 O 545.581 4.13727 -3.92666 0
M  V30 5578 O 544.515 2.79817 -5.32903 0
M  V30 5579 H 548.341 0.446364 -3.00402 0
M  V30 5580 H 545.926 0.154367 -1.486 0
M  V30 5581 H 547.808 2.89856 -3.05878 0
M  V30 5582 H 546.483 2.62454 -1.89471 0
M  V30 5583 H 545.39 1.04646 -3.59166 0
M  V30 5584 H 546.723 1.39571 -4.71997 0
M  V30 5585 N 548.375 1.56261 0.205012 0
M  V30 5586 C 549.305 1.96779 1.257 0
M  V30 5587 C 550.286 0.838309 1.48008 0
M  V30 5588 O 551.471 1.10189 1.59913 0
M  V30 5589 C 548.601 2.29876 2.60335 0
M  V30 5590 C 547.555 3.45469 2.52656 0
M  V30 5591 C 546.881 3.64215 3.91473 0
M  V30 5592 C 548.181 4.79954 2.06014 0
M  V30 5593 H 549.875 2.84904 0.920338 0
M  V30 5594 H 547.421 1.37072 0.441277 0
M  V30 5595 H 549.374 2.56814 3.34102 0
M  V30 5596 H 548.098 1.38622 2.95722 0
M  V30 5597 H 546.757 3.18605 1.81345 0
M  V30 5598 H 546.405 2.70309 4.24196 0
M  V30 5599 H 546.105 4.41973 3.87213 0
M  V30 5600 H 547.629 3.93519 4.66878 0
M  V30 5601 H 549.043 5.05989 2.69533 0
M  V30 5602 H 547.44 5.61111 2.12777 0
M  V30 5603 H 548.51 4.74201 1.01297 0
M  V30 5604 N 549.853 -0.472356 1.50355 0
M  V30 5605 C 551.081 -1.24784 1.65035 0
M  V30 5606 C 551.496 -1.85837 0.333176 0
M  V30 5607 O 550.853 -1.69168 -0.68472 0
M  V30 5608 C 550.904 -2.35747 2.74054 0
M  V30 5609 O 550.625 -1.77197 4.00665 0
M  V30 5610 C 552.126 -3.26645 2.99696 0
M  V30 5611 H 549.346 -0.377432 0.554785 0
M  V30 5612 H 551.89 -0.563962 1.9657 0
M  V30 5613 H 550.045 -2.99912 2.45217 0
M  V30 5614 H 550.459 -2.5026 4.60945 0
M  V30 5615 H 551.933 -4.00718 3.79644 0
M  V30 5616 H 552.41 -3.8535 2.10718 0
M  V30 5617 H 553.016 -2.68218 3.3006 0
M  V30 5618 N 551.331 -1.39911 -0.725443 0
M  V30 5619 C 552.577 -1.37858 -1.48738 0
M  V30 5620 C 552.91 0.0224187 -1.94187 0
M  V30 5621 O 552.185 0.989204 -1.67466 0
M  V30 5622 C 552.468 -2.3594 -2.72038 0
M  V30 5623 C 552.321 -3.85023 -2.32546 0
M  V30 5624 C 553.64 -2.31704 -3.74167 0
M  V30 5625 H 550.759 -0.502074 -0.539528 0
M  V30 5626 H 553.401 -1.70974 -0.828728 0
M  V30 5627 H 551.551 -2.0783 -3.28236 0
M  V30 5628 H 553.223 -4.2392 -1.81905 0
M  V30 5629 H 551.466 -4.01334 -1.64661 0
M  V30 5630 H 552.137 -4.49152 -3.20884 0
M  V30 5631 H 554.613 -2.5658 -3.27576 0
M  V30 5632 H 553.489 -3.02395 -4.58092 0
M  V30 5633 H 553.75 -1.3253 -4.21768 0
M  V30 5634 N 552.809 0.956637 -1.25245 0
M  V30 5635 C 553.719 2.0868 -1.0719 0
M  V30 5636 C 554.735 1.73997 -0.00959074 0
M  V30 5637 O 555.911 2.00301 -0.210104 0
M  V30 5638 C 552.976 3.39754 -0.690526 0
M  V30 5639 C 552.037 3.88316 -1.83055 0
M  V30 5640 C 551.27 5.13134 -1.46728 0
M  V30 5641 O 551.493 5.6925 -0.362029 0
M  V30 5642 O 550.427 5.56356 -2.29677 0
M  V30 5643 H 554.253 2.26813 -2.01965 0
M  V30 5644 H 551.838 1.07098 -1.04165 0
M  V30 5645 H 553.72 4.18543 -0.489871 0
M  V30 5646 H 552.395 3.22896 0.227981 0
M  V30 5647 H 551.302 3.1054 -2.08604 0
M  V30 5648 H 552.635 4.09669 -2.72822 0
M  V30 5649 N 554.287 1.06798 1.15896 0
M  V30 5650 C 555.535 0.786211 1.8618 0
M  V30 5651 C 555.856 -0.689547 1.82401 0
M  V30 5652 O 555.126 -1.49913 1.26107 0
M  V30 5653 H 553.706 0.287843 0.689315 0
M  V30 5654 H 556.368 1.35055 1.40521 0
M  V30 5655 H 555.464 1.1157 2.91477 0
M  V30 5656 N 555.766 -1.3263 0.851289 0
M  V30 5657 C 556.994 -2.01563 0.466899 0
M  V30 5658 C 557.409 -1.63996 -0.935447 0
M  V30 5659 O 556.766 -0.85957 -1.6099 0
M  V30 5660 C 556.817 -3.56613 0.592433 0
M  V30 5661 O 556.538 -3.92828 1.93954 0
M  V30 5662 C 558.039 -4.42818 0.206612 0
M  V30 5663 H 555.259 -0.645307 0.183902 0
M  V30 5664 H 557.803 -1.69285 1.1473 0
M  V30 5665 H 555.958 -3.87379 -0.0401936 0
M  V30 5666 H 556.372 -4.87545 1.9339 0
M  V30 5667 H 557.846 -5.50918 0.345462 0
M  V30 5668 H 558.323 -4.30844 -0.85264 0
M  V30 5669 H 558.929 -4.17434 0.814176 0
M  V30 5670 N 557.244 -0.608902 -1.45362 0
M  V30 5671 C 558.66 -0.272659 -1.57254 0
M  V30 5672 C 558.86 1.22477 -1.60005 0
M  V30 5673 O 557.916 2.00785 -1.53106 0
M  V30 5674 C 559.229 -0.944991 -2.85465 0
M  V30 5675 C 560.777 -0.921033 -2.99142 0
M  V30 5676 C 561.252 -1.5734 -4.30126 0
M  V30 5677 N 562.743 -1.53895 -4.36887 0
M  V30 5678 C 563.478 -2.01286 -5.36909 0
M  V30 5679 N 562.974 -2.56768 -6.43461 0
M  V30 5680 N 564.767 -1.92046 -5.28275 0
M  V30 5681 H 556.918 -1.58117 -1.4182 0
M  V30 5682 H 559.181 -0.662437 -0.678146 0
M  V30 5683 H 558.887 -1.99941 -2.89338 0
M  V30 5684 H 558.761 -0.469079 -3.74272 0
M  V30 5685 H 561.148 0.124846 -2.94836 0
M  V30 5686 H 561.229 -1.43522 -2.11743 0
M  V30 5687 H 560.873 -2.61862 -4.35191 0
M  V30 5688 H 560.803 -1.03422 -5.16344 0
M  V30 5689 H 563.294 -1.13366 -3.60495 0
M  V30 5690 H 563.607 -2.9072 -7.16032 0
M  V30 5691 H 561.952 -2.60808 -6.44208 0
M  V30 5692 H 565.143 -1.48439 -4.43941 0
M  V30 5693 H 565.316 -2.29293 -6.06077 0
M  V30 5694 N 558.722 1.53707 -0.348139 0
M  V30 5695 C 559.685 2.23812 0.494058 0
M  V30 5696 C 560.685 1.23989 1.02388 0
M  V30 5697 O 561.875 1.48395 0.912396 0
M  V30 5698 C 559.007 2.96133 1.68872 0
M  V30 5699 H 560.2 2.99663 -0.119141 0
M  V30 5700 H 557.753 1.55983 -0.0995539 0
M  V30 5701 H 558.488 2.24481 2.34049 0
M  V30 5702 H 558.273 3.69357 1.31596 0
M  V30 5703 H 559.763 3.49475 2.28597 0
M  V30 5704 N 560.2 0.0768682 1.57412 0
M  V30 5705 C 561.148 -0.906229 2.1422 0
M  V30 5706 C 562.142 -1.30477 1.08037 0
M  V30 5707 O 563.348 -1.28143 1.2641 0
M  V30 5708 H 559.723 -0.310207 0.685037 0
M  V30 5709 H 561.694 -0.402228 2.95677 0
M  V30 5710 C 560.443 -2.16245 2.72274 0
M  V30 5711 H 559.766 -1.86463 3.53655 0
M  V30 5712 H 561.206 -2.83134 3.15613 0
M  V30 5713 C 559.665 -2.92437 1.67279 0
M  V30 5714 O 560.195 -3.86322 1.10081 0
M  V30 5715 N 558.401 -2.55637 1.38195 0
M  V30 5716 H 557.948 -1.79363 1.84897 0
M  V30 5717 H 557.906 -3.06919 0.681787 0
M  V30 5718 N 561.678 -1.56367 -0.196722 0
M  V30 5719 C 562.608 -1.97442 -1.24655 0
M  V30 5720 C 563.589 -0.846147 -1.47561 0
M  V30 5721 O 564.774 -1.11035 -1.59326 0
M  V30 5722 C 561.904 -2.31253 -2.59112 0
M  V30 5723 C 560.858 -3.46804 -2.50821 0
M  V30 5724 C 560.184 -3.66286 -3.89536 0
M  V30 5725 C 561.484 -4.8104 -2.03465 0
M  V30 5726 H 563.178 -2.85388 -0.905216 0
M  V30 5727 H 560.724 -1.37304 -0.434002 0
M  V30 5728 H 562.677 -2.58583 -3.32736 0
M  V30 5729 H 561.401 -1.40188 -2.94983 0
M  V30 5730 H 560.06 -3.19563 -1.79653 0
M  V30 5731 H 559.708 -2.72555 -4.22756 0
M  V30 5732 H 559.408 -4.4402 -3.84864 0
M  V30 5733 H 560.932 -3.9599 -4.64784 0
M  V30 5734 H 562.346 -5.07411 -2.66846 0
M  V30 5735 H 560.743 -5.62232 -2.09798 0
M  V30 5736 H 561.813 -4.74732 -0.98781 0
M  V30 5737 N 563.156 0.464375 -1.50603 0
M  V30 5738 C 564.384 1.23907 -1.65695 0
M  V30 5739 C 564.799 1.85658 -0.343027 0
M  V30 5740 O 564.156 1.69529 0.675739 0
M  V30 5741 C 564.207 2.3429 -2.75301 0
M  V30 5742 O 563.928 1.7507 -4.01599 0
M  V30 5743 C 565.429 3.25051 -3.01424 0
M  V30 5744 H 562.649 0.374485 -0.556778 0
M  V30 5745 H 565.193 0.55353 -1.96866 0
M  V30 5746 H 563.348 2.98607 -2.46804 0
M  V30 5747 H 563.762 2.47812 -4.62266 0
M  V30 5748 H 565.236 3.98699 -3.81763 0
M  V30 5749 H 565.713 3.84227 -2.12758 0
M  V30 5750 H 566.319 2.66463 -3.31477 0
M  V30 5751 N 564.634 1.40294 0.718013 0
M  V30 5752 C 565.882 1.38167 1.47494 0
M  V30 5753 C 566.203 -0.01607 1.94993 0
M  V30 5754 O 565.473 -0.970396 1.70177 0
M  V30 5755 H 564.053 0.508505 0.547203 0
M  V30 5756 H 566.715 1.75324 0.851322 0
M  V30 5757 H 565.811 2.05503 2.34894 0
M  V30 5758 N 566.112 -0.949982 1.2575 0
M  V30 5759 C 567.358 -1.69822 1.11947 0
M  V30 5760 C 567.713 -1.89455 -0.335334 0
M  V30 5761 O 567.006 -1.45778 -1.24336 0
M  V30 5762 C 567.2 -3.08039 1.81237 0
M  V30 5763 C 567.029 -3.0189 3.33305 0
M  V30 5764 C 565.799 -3.05391 4.02573 0
M  V30 5765 C 567.997 -2.827 4.29634 0
M  V30 5766 N 565.979 -2.89449 5.4138 0
M  V30 5767 C 567.35 -2.75237 5.55558 0
M  V30 5768 C 569.405 -2.67416 4.19992 0
M  V30 5769 C 568.108 -2.54051 6.72942 0
M  V30 5770 C 570.134 -2.47602 5.37073 0
M  V30 5771 C 569.496 -2.40863 6.6194 0
M  V30 5772 H 565.595 -0.629188 0.464378 0
M  V30 5773 H 568.179 -1.1249 1.58916 0
M  V30 5774 H 566.35 -3.63528 1.36756 0
M  V30 5775 H 568.082 -3.71671 1.60134 0
M  V30 5776 H 564.837 -3.14763 3.53866 0
M  V30 5777 H 565.261 -2.84669 6.14241 0
M  V30 5778 H 569.903 -2.71398 3.24196 0
M  V30 5779 H 567.621 -2.48811 7.68842 0
M  V30 5780 H 571.207 -2.36694 5.31477 0
M  V30 5781 H 570.087 -2.25732 7.51009 0
M  V30 5782 N 567.59 -1.07411 -1.15328 0
M  V30 5783 C 568.867 -0.710732 -1.82231 0
M  V30 5784 C 569.247 0.806732 -1.95077 0
M  V30 5785 O 568.595 1.72139 -1.50268 0
M  V30 5786 C 568.805 -1.42586 -3.18544 0
M  V30 5787 C 570.153 -1.57836 -3.94174 0
M  V30 5788 O 571.177 -1.38669 -3.281 0
M  V30 5789 O 570.036 -1.8938 -5.12638 0
M  V30 5790 H 567.13 -0.25297 -0.78736 0
M  V30 5791 H 569.676 -1.17508 -1.22434 0
M  V30 5792 H 568.448 -2.46008 -3.04296 0
M  V30 5793 H 568.071 -0.952332 -3.86026 0
M  V30 5794 N 569.068 1.32177 -0.85831 0
M  V30 5795 C 570.479 1.79381 -0.517621 0
M  V30 5796 C 570.83 1.70841 0.964769 0
M  V30 5797 O 569.955 1.26917 1.75274 0
M  V30 5798 C 570.55 3.25706 -0.932801 0
M  V30 5799 C 569.109 3.70851 -0.643953 0
M  V30 5800 C 568.256 2.53208 -1.13054 0
M  V30 5801 H 571.207 1.19424 -1.04516 0
M  V30 5802 H 571.228 3.79673 -0.250674 0
M  V30 5803 H 570.74 3.31889 -2.01174 0
M  V30 5804 H 568.841 3.70178 0.424112 0
M  V30 5805 H 568.954 4.63495 -1.21281 0
M  V30 5806 H 567.318 2.48676 -0.550679 0
M  V30 5807 H 568.101 2.62143 -2.21666 0
M  V30 5808 N 570.547 0.616602 1.45037 0
M  V30 5809 C 571.479 -0.135186 2.28801 0
M  V30 5810 C 572.492 -0.82303 1.40464 0
M  V30 5811 O 573.681 -0.686909 1.64754 0
M  V30 5812 C 570.781 -1.21292 3.16451 0
M  V30 5813 C 569.954 -0.61043 4.3312 0
M  V30 5814 C 569.013 -1.58022 5.01912 0
M  V30 5815 O 568.039 -1.10301 5.58411 0
M  V30 5816 N 569.241 -2.91464 5.02025 0
M  V30 5817 H 572.006 0.583612 2.93963 0
M  V30 5818 H 569.567 0.456723 1.55324 0
M  V30 5819 H 571.559 -1.86169 3.59337 0
M  V30 5820 H 570.129 -1.83412 2.53138 0
M  V30 5821 H 569.349 0.216638 3.93604 0
M  V30 5822 H 570.637 -0.188293 5.08451 0
M  V30 5823 H 570.035 -3.32829 4.57429 0
M  V30 5824 H 568.592 -3.51741 5.48745 0
M  V30 5825 N 572.025 -1.5352 0.356285 0
M  V30 5826 C 572.972 -2.25439 -0.494569 0
M  V30 5827 C 573.942 -1.25752 -1.08516 0
M  V30 5828 O 575.127 -1.54513 -1.1194 0
M  V30 5829 C 572.267 -3.04011 -1.63313 0
M  V30 5830 C 571.38 -4.18574 -1.06862 0
M  V30 5831 C 570.515 -4.84607 -2.17552 0
M  V30 5832 C 569.554 -5.91218 -1.58518 0
M  V30 5833 N 568.691 -6.50979 -2.63003 0
M  V30 5834 H 573.531 -2.97737 0.125244 0
M  V30 5835 H 571.068 -1.46916 0.0735789 0
M  V30 5836 H 573.026 -3.47834 -2.30363 0
M  V30 5837 H 571.656 -2.33986 -2.22374 0
M  V30 5838 H 570.708 -3.79303 -0.288672 0
M  V30 5839 H 572.02 -4.95215 -0.596924 0
M  V30 5840 H 571.174 -5.31566 -2.92442 0
M  V30 5841 H 569.913 -4.07418 -2.6807 0
M  V30 5842 H 568.918 -5.4363 -0.821391 0
M  V30 5843 H 570.143 -6.70322 -1.08836 0
M  V30 5844 H 568.089 -5.76648 -3.12751 0
M  V30 5845 H 568.006 -7.23131 -2.20493 0
M  V30 5846 H 569.274 -7.02589 -3.37623 0
M  V30 5847 N 573.503 -0.0852151 -1.57369 0
M  V30 5848 C 574.78 0.622534 -1.85429 0
M  V30 5849 C 575.16 1.86962 -0.980229 0
M  V30 5850 O 574.508 2.28445 -0.0500219 0
M  V30 5851 C 574.718 0.947374 -3.35896 0
M  V30 5852 C 576.066 1.31509 -4.03721 0
M  V30 5853 O 577.09 1.03869 -3.40719 0
M  V30 5854 O 575.949 1.83231 -5.14868 0
M  V30 5855 H 573.043 0.310513 -0.766492 0
M  V30 5856 H 575.589 -0.117164 -1.69295 0
M  V30 5857 H 574.361 0.0622264 -3.91251 0
M  V30 5858 H 573.984 1.74338 -3.5734 0
M  V30 5859 N 574.981 1.5647 0.188427 0
M  V30 5860 C 575.911 1.98101 1.23606 0
M  V30 5861 C 576.892 0.853961 1.47111 0
M  V30 5862 O 578.077 1.11879 1.58735 0
M  V30 5863 C 575.207 2.32624 2.57882 0
M  V30 5864 C 574.161 3.48129 2.48978 0
M  V30 5865 C 573.487 3.68347 3.87588 0
M  V30 5866 C 574.787 4.82112 2.00911 0
M  V30 5867 H 576.481 2.85864 0.890068 0
M  V30 5868 H 574.027 1.37532 0.426714 0
M  V30 5869 H 575.98 2.60343 3.3136 0
M  V30 5870 H 574.704 1.41751 2.94235 0
M  V30 5871 H 573.363 3.20511 1.77956 0
M  V30 5872 H 573.011 2.74793 4.21305 0
M  V30 5873 H 572.711 4.46055 3.82503 0
M  V30 5874 H 574.235 3.98449 4.62678 0
M  V30 5875 H 575.649 5.08819 2.64151 0
M  V30 5876 H 574.046 5.63337 2.06814 0
M  V30 5877 H 575.116 4.75249 0.96262 0
M  V30 5878 N 576.459 -0.456382 1.50847 0
M  V30 5879 C 577.708 -1.2042 1.61808 0
M  V30 5880 C 578.021 -1.9278 0.330932 0
M  V30 5881 O 579.227 -2.69612 0.319643 0
M  V30 5882 C 577.683 -2.18891 2.85683 0
M  V30 5883 C 577.291 -1.52267 4.2133 0
M  V30 5884 C 579.035 -2.94224 3.05994 0
M  V30 5885 C 576.942 -2.4911 5.36375 0
M  V30 5886 H 575.872 -0.453177 0.602616 0
M  V30 5887 H 578.523 -0.473144 1.77295 0
M  V30 5888 H 576.905 -2.95351 2.63787 0
M  V30 5889 H 578.079 -0.814949 4.53536 0
M  V30 5890 H 576.394 -0.891594 4.06743 0
M  V30 5891 H 578.991 -3.66732 3.89117 0
M  V30 5892 H 579.334 -3.54469 2.18306 0
M  V30 5893 H 579.867 -2.24874 3.28141 0
M  V30 5894 H 576.606 -1.93582 6.26264 0
M  V30 5895 H 576.126 -3.17991 5.08569 0
M  V30 5896 H 577.805 -3.10637 5.67551 0
M  V30 5897 N 577.937 -1.40673 -0.710563 0
M  V30 5898 C 579.183 -1.39428 -1.47267 0
M  V30 5899 C 579.516 0.00182129 -1.942 0
M  V30 5900 O 578.791 0.971387 -1.68506 0
M  V30 5901 C 579.074 -2.38812 -2.6952 0
M  V30 5902 C 578.927 -3.87467 -2.28449 0
M  V30 5903 C 580.246 -2.3566 -3.71689 0
M  V30 5904 H 577.365 -0.507768 -0.534173 0
M  V30 5905 H 580.007 -1.71843 -0.810547 0
M  V30 5906 H 578.157 -2.113 -3.26013 0
M  V30 5907 H 579.829 -4.25825 -1.77399 0
M  V30 5908 H 578.072 -4.03058 -1.60395 0
M  V30 5909 H 578.743 -4.5253 -3.16103 0
M  V30 5910 H 581.219 -2.6004 -3.24836 0
M  V30 5911 H 580.095 -3.07237 -4.54859 0
M  V30 5912 H 580.356 -1.36996 -4.20339 0
M  V30 5913 N 579.415 0.9433 -1.26252 0
M  V30 5914 C 580.831 1.21644 -1.03319 0
M  V30 5915 C 581.031 2.0003 0.242983 0
M  V30 5916 O 580.087 2.33838 0.952688 0
M  V30 5917 C 581.4 1.97978 -2.2633 0
M  V30 5918 C 582.948 2.10978 -2.31209 0
M  V30 5919 C 583.423 2.90713 -3.53907 0
M  V30 5920 N 584.914 2.98287 -3.54371 0
M  V30 5921 C 585.649 3.60406 -4.45976 0
M  V30 5922 N 585.145 4.24043 -5.47868 0
M  V30 5923 N 586.938 3.57658 -4.33633 0
M  V30 5924 H 579.089 0.419221 -2.08222 0
M  V30 5925 H 581.352 0.247995 -0.914988 0
M  V30 5926 H 581.058 1.47788 -3.19142 0
M  V30 5927 H 580.932 2.9865 -2.30408 0
M  V30 5928 H 583.319 2.6036 -1.38913 0
M  V30 5929 H 583.4 1.09575 -2.31143 0
M  V30 5930 H 583.044 2.42018 -4.46531 0
M  V30 5931 H 582.974 3.92367 -3.5122 0
M  V30 5932 H 585.465 2.53044 -2.80673 0
M  V30 5933 H 585.778 4.69334 -6.13959 0
M  V30 5934 H 584.123 4.22637 -5.51728 0
M  V30 5935 H 587.314 3.07134 -3.53251 0
M  V30 5936 H 587.487 4.05782 -5.05218 0
M  V30 5937 N 580.893 1.08022 1.14757 0
M  V30 5938 C 582.139 0.808705 1.85978 0
M  V30 5939 C 582.472 -0.663764 1.82504 0
M  V30 5940 O 581.747 -1.48765 1.25296 0
M  V30 5941 C 582.03 1.32623 3.34788 0
M  V30 5942 C 581.883 2.86375 3.46856 0
M  V30 5943 C 583.202 0.948291 4.29762 0
M  V30 5944 H 580.321 0.295244 0.675278 0
M  V30 5945 H 582.963 1.33917 1.34783 0
M  V30 5946 H 581.113 0.875002 3.78518 0
M  V30 5947 H 582.785 3.39839 3.11941 0
M  V30 5948 H 581.028 3.24232 2.88194 0
M  V30 5949 H 581.699 3.17658 4.51439 0
M  V30 5950 H 584.175 1.33722 3.94028 0
M  V30 5951 H 583.051 1.33765 5.32352 0
M  V30 5952 H 583.312 -0.145094 4.41862 0
M  V30 5953 N 582.371 -1.3172 0.865308 0
M  V30 5954 C 583.611 -1.98675 0.480365 0
M  V30 5955 C 583.975 -1.66929 -0.948621 0
M  V30 5956 O 585.176 -2.27059 -1.43867 0
M  V30 5957 C 583.447 -3.49972 0.724858 0
M  V30 5958 S 585.006 -4.36598 0.439078 0
M  V30 5959 H 581.824 -0.687967 0.179506 0
M  V30 5960 H 584.426 -1.60215 1.12033 0
M  V30 5961 H 583.13 -3.70567 1.76375 0
M  V30 5962 H 582.661 -3.93335 0.0717173 0
M  V30 5963 H 584.676 -4.90792 -0.730564 0
M  V30 5964 N 583.85 -0.624285 -1.44708 0
M  V30 5965 C 585.096 -0.126237 -2.02407 0
M  V30 5966 C 585.428 1.24618 -1.48943 0
M  V30 5967 O 584.704 1.82569 -0.670742 0
M  V30 5968 C 584.986 -0.105449 -3.59946 0
M  V30 5969 C 584.84 -1.50972 -4.23707 0
M  V30 5970 C 586.159 0.573629 -4.36346 0
M  V30 5971 H 583.278 -0.0473472 -0.735478 0
M  V30 5972 H 585.92 -0.799452 -1.72362 0
M  V30 5973 H 584.07 0.46783 -3.85673 0
M  V30 5974 H 585.742 -2.13136 -4.0911 0
M  V30 5975 H 583.985 -2.0656 -3.81465 0
M  V30 5976 H 584.656 -1.44727 -5.32689 0
M  V30 5977 H 587.132 0.0861787 -4.16011 0
M  V30 5978 H 586.008 0.557338 -5.46063 0
M  V30 5979 H 586.269 1.64276 -4.10446 0
M  V30 5980 N 585.328 1.53329 -0.364422 0
M  V30 5981 C 586.553 2.06132 0.229033 0
M  V30 5982 C 586.978 1.23625 1.41769 0
M  V30 5983 O 586.336 0.255038 1.79497 0
M  V30 5984 C 586.384 3.55544 0.60174 0
M  V30 5985 O 585.488 3.75771 1.69912 0
M  V30 5986 H 584.829 0.663148 0.0336213 0
M  V30 5987 H 587.359 1.97758 -0.524689 0
M  V30 5988 H 587.369 3.98549 0.873073 0
M  V30 5989 H 586.044 4.15039 -0.267421 0
M  V30 5990 H 584.621 3.44663 1.42343 0
M  V30 5991 N 586.806 0.0935595 1.57322 0
M  V30 5992 C 587.754 -0.883457 2.15169 0
M  V30 5993 C 588.748 -1.29324 1.09415 0
M  V30 5994 O 589.954 -1.26795 1.27762 0
M  V30 5995 H 586.329 -0.302923 0.688289 0
M  V30 5996 H 588.3 -0.370845 2.96087 0
M  V30 5997 C 587.049 -2.13345 2.74552 0
M  V30 5998 H 586.372 -1.82702 3.55612 0
M  V30 5999 H 587.812 -2.7977 3.18598 0
M  V30 6000 C 586.271 -2.90646 1.70371 0
M  V30 6001 O 586.801 -3.85133 1.14173 0
M  V30 6002 N 585.007 -2.54157 1.40899 0
M  V30 6003 H 584.554 -1.77391 1.86789 0
M  V30 6004 H 584.512 -3.06178 0.714301 0
M  V30 6005 N 588.284 -1.56567 -0.180126 0
M  V30 6006 C 589.247 -1.94852 -1.20686 0
M  V30 6007 C 590.247 -0.831212 -1.3765 0
M  V30 6008 O 591.437 -1.09841 -1.35206 0
M  V30 6009 C 588.569 -2.23565 -2.57355 0
M  V30 6010 H 589.762 -2.86722 -0.879225 0
M  V30 6011 H 587.315 -1.50489 -0.422237 0
M  V30 6012 H 588.05 -1.34381 -2.95148 0
M  V30 6013 H 587.835 -3.04999 -2.46411 0
M  V30 6014 H 589.325 -2.54137 -3.31367 0
M  V30 6015 N 589.762 0.448376 -1.51087 0
M  V30 6016 C 591.008 1.20049 -1.6345 0
M  V30 6017 C 591.341 1.91121 -0.344444 0
M  V30 6018 O 590.616 1.83125 0.655396 0
M  V30 6019 C 590.899 2.22624 -2.83038 0
M  V30 6020 C 590.752 1.55708 -4.21989 0
M  V30 6021 C 592.071 3.23718 -2.98152 0
M  V30 6022 H 589.19 0.435085 -0.59487 0
M  V30 6023 H 591.832 0.491183 -1.83541 0
M  V30 6024 H 589.982 2.83117 -2.66039 0
M  V30 6025 H 591.654 0.986367 -4.50631 0
M  V30 6026 H 589.897 0.859647 -4.25197 0
M  V30 6027 H 590.568 2.30357 -5.01637 0
M  V30 6028 H 593.044 2.73269 -3.13788 0
M  V30 6029 H 591.92 3.92795 -3.83411 0
M  V30 6030 H 592.181 3.89179 -2.09743 0
M  V30 6031 N 591.24 1.41047 0.703093 0
M  V30 6032 C 592.488 1.39723 1.4602 0
M  V30 6033 C 592.809 0.00461257 1.94999 0
M  V30 6034 O 592.079 -0.952292 1.71196 0
M  V30 6035 H 590.659 0.514281 0.541779 0
M  V30 6036 H 593.321 1.76217 0.832678 0
M  V30 6037 H 592.417 2.07982 2.32701 0
M  V30 6038 N 592.718 -0.936591 1.26751 0
M  V30 6039 C 593.958 -1.69796 1.13792 0
M  V30 6040 C 594.322 -1.89437 -0.312671 0
M  V30 6041 O 595.523 -2.62806 -0.564489 0
M  V30 6042 C 593.794 -3.03297 1.89065 0
M  V30 6043 S 595.353 -3.94461 1.92214 0
M  V30 6044 H 592.171 -0.583412 0.406389 0
M  V30 6045 H 594.773 -1.11575 1.60535 0
M  V30 6046 H 593.477 -2.86687 2.93665 0
M  V30 6047 H 593.008 -3.66575 1.42781 0
M  V30 6048 H 595.023 -4.85767 1.01215 0
M  V30 6049 N 594.196 -1.08629 -1.14182 0
M  V30 6050 C 595.444 -0.815731 -1.84906 0
M  V30 6051 C 595.765 0.660441 -1.83475 0
M  V30 6052 O 595.035 1.47888 -1.28476 0
M  V30 6053 H 593.615 -0.298773 -0.684648 0
M  V30 6054 H 596.277 -1.37274 -1.38354 0
M  V30 6055 H 595.373 -1.16193 -2.89665 0
M  V30 6056 N 595.674 1.31259 -0.872281 0
M  V30 6057 C 597.085 1.78822 -0.536617 0
M  V30 6058 C 597.436 1.71855 0.946594 0
M  V30 6059 O 596.561 1.28769 1.73918 0
M  V30 6060 C 597.156 3.24698 -0.967294 0
M  V30 6061 C 595.715 3.70147 -0.683251 0
M  V30 6062 C 594.862 2.51994 -1.15733 0
M  V30 6063 H 597.813 1.18308 -1.05777 0
M  V30 6064 H 597.834 3.79386 -0.290929 0
M  V30 6065 H 597.346 3.29737 -2.04683 0
M  V30 6066 H 595.447 3.70607 0.384825 0
M  V30 6067 H 595.56 4.62183 -1.2619 0
M  V30 6068 H 593.924 2.48078 -0.577024 0
M  V30 6069 H 594.707 2.59778 -2.24434 0
M  V30 6070 N 597.152 0.631951 1.44375 0
M  V30 6071 C 598.398 0.145491 2.02879 0
M  V30 6072 C 598.753 -1.21936 1.48827 0
M  V30 6073 O 598.046 -1.7976 0.663085 0
M  V30 6074 C 598.24 0.0735861 3.57324 0
M  V30 6075 C 598.069 1.42992 4.2636 0
M  V30 6076 C 596.839 2.01691 4.63302 0
M  V30 6077 C 599.037 2.36393 4.56752 0
M  V30 6078 N 597.019 3.30551 5.17309 0
M  V30 6079 C 598.39 3.49869 5.11851 0
M  V30 6080 C 600.445 2.35462 4.38705 0
M  V30 6081 C 599.148 4.6261 5.50803 0
M  V30 6082 C 601.174 3.47268 4.78706 0
M  V30 6083 C 600.536 4.59467 5.33919 0
M  V30 6084 H 596.635 0.0971781 0.775938 0
M  V30 6085 H 599.219 0.835624 1.75856 0
M  V30 6086 H 597.39 -0.585829 3.83957 0
M  V30 6087 H 599.122 -0.421777 4.02496 0
M  V30 6088 H 595.877 1.54627 4.47647 0
M  V30 6089 H 596.301 3.96435 5.48788 0
M  V30 6090 H 600.943 1.49966 3.9531 0
M  V30 6091 H 598.661 5.48813 5.93152 0
M  V30 6092 H 602.247 3.47724 4.66454 0
M  V30 6093 H 601.127 5.44551 5.64299 0
M  V30 6094 N 598.631 -1.53133 0.372548 0
M  V30 6095 C 599.856 -2.0625 -0.218098 0
M  V30 6096 C 600.281 -1.24375 -1.41111 0
M  V30 6097 O 599.639 -0.264554 -1.79359 0
M  V30 6098 C 599.687 -3.55858 -0.582876 0
M  V30 6099 O 598.791 -3.76667 -1.67917 0
M  V30 6100 H 598.132 -0.663317 -0.030104 0
M  V30 6101 H 600.662 -1.97477 0.535169 0
M  V30 6102 H 600.672 -3.99007 -0.851925 0
M  V30 6103 H 599.347 -4.14892 0.289428 0
M  V30 6104 H 597.924 -3.45413 -1.40513 0
M  V30 6105 N 600.109 -0.101901 -1.5727 0
M  V30 6106 C 601.041 0.884723 -2.11436 0
M  V30 6107 C 602.054 1.24149 -1.05314 0
M  V30 6108 O 603.243 1.19341 -1.3274 0
M  V30 6109 C 600.343 2.19179 -2.58484 0
M  V30 6110 C 599.516 2.00933 -3.88516 0
M  V30 6111 C 598.575 3.15213 -4.2134 0
M  V30 6112 O 597.601 2.88877 -4.90448 0
M  V30 6113 N 598.803 4.41174 -3.77288 0
M  V30 6114 H 601.568 0.422058 -2.96713 0
M  V30 6115 H 599.129 0.0830128 -1.61687 0
M  V30 6116 H 601.121 2.94593 -2.77484 0
M  V30 6117 H 599.691 2.56847 -1.7818 0
M  V30 6118 H 598.911 1.09809 -3.78597 0
M  V30 6119 H 600.199 1.86026 -4.73573 0
M  V30 6120 H 599.597 4.6545 -3.21516 0
M  V30 6121 H 598.154 5.13515 -4.01429 0
M  V30 6122 N 601.587 1.56661 0.17182 0
M  V30 6123 C 602.998 1.71652 0.734329 0
M  V30 6124 C 603.349 0.712335 1.82812 0
M  V30 6125 O 602.474 -0.126401 2.16031 0
M  V30 6126 C 603.069 3.11226 1.3388 0
M  V30 6127 C 601.628 3.27904 1.84813 0
M  V30 6128 C 600.775 2.67603 0.726917 0
M  V30 6129 H 603.726 1.5861 -0.0535665 0
M  V30 6130 H 603.747 3.09849 2.20849 0
M  V30 6131 H 603.259 3.8429 0.54249 0
M  V30 6132 H 601.36 2.59796 2.6709 0
M  V30 6133 H 601.473 4.35637 1.99392 0
M  V30 6134 H 599.837 2.274 1.14723 0
M  V30 6135 H 600.62 3.43252 -0.0575334 0
M  V30 6136 N 603.065 -0.440357 1.51323 0
M  V30 6137 C 603.995 -1.54174 1.75364 0
M  V30 6138 C 604.976 -1.59039 0.603375 0
M  V30 6139 O 606.161 -1.74815 0.845774 0
M  V30 6140 C 603.291 -2.92277 1.87593 0
M  V30 6141 C 602.245 -3.02274 3.03009 0
M  V30 6142 C 601.571 -4.42327 3.00418 0
M  V30 6143 C 602.871 -2.76634 4.43024 0
M  V30 6144 H 604.565 -1.34307 2.67585 0
M  V30 6145 H 602.111 -0.644678 1.28763 0
M  V30 6146 H 604.064 -3.69284 2.02995 0
M  V30 6147 H 602.788 -3.13369 0.920179 0
M  V30 6148 H 601.447 -2.27706 2.87307 0
M  V30 6149 H 601.095 -4.60382 2.02626 0
M  V30 6150 H 600.795 -4.49946 3.77918 0
M  V30 6151 H 602.319 -5.21312 3.17909 0
M  V30 6152 H 603.733 -3.43376 4.59093 0
M  V30 6153 H 602.13 -2.95666 5.22208 0
M  V30 6154 H 603.2 -1.72262 4.5327 0
M  V30 6155 N 604.543 -1.41418 -0.695603 0
M  V30 6156 C 605.789 -1.40982 -1.4578 0
M  V30 6157 C 606.122 -0.0187763 -1.94191 0
M  V30 6158 O 605.397 0.95346 -1.69527 0
M  V30 6159 C 605.68 -2.41657 -2.66972 0
M  V30 6160 C 605.533 -3.89869 -2.24327 0
M  V30 6161 C 606.852 -2.39589 -3.69168 0
M  V30 6162 H 603.971 -0.513405 -0.528757 0
M  V30 6163 H 606.613 -1.72693 -0.792275 0
M  V30 6164 H 604.763 -2.14746 -3.23754 0
M  V30 6165 H 606.435 -4.27683 -1.72872 0
M  V30 6166 H 604.678 -4.04737 -1.56111 0
M  V30 6167 H 605.349 -4.55857 -3.11285 0
M  V30 6168 H 607.825 -2.63471 -3.2206 0
M  V30 6169 H 606.701 -3.12044 -4.51575 0
M  V30 6170 H 606.962 -1.41447 -4.18862 0
M  V30 6171 N 606.021 0.929856 -1.27246 0
M  V30 6172 C 607.267 1.6798 -1.13625 0
M  V30 6173 C 607.6 1.91586 0.317589 0
M  V30 6174 O 606.875 1.50467 1.23247 0
M  V30 6175 C 607.158 3.04766 -1.91806 0
M  V30 6176 C 607.011 2.88415 -3.45162 0
M  V30 6177 C 608.33 4.05063 -1.72082 0
M  V30 6178 H 605.449 0.609632 -0.414147 0
M  V30 6179 H 608.091 1.0792 -1.56376 0
M  V30 6180 H 606.241 3.56034 -1.55474 0
M  V30 6181 H 607.913 2.44282 -3.91311 0
M  V30 6182 H 606.156 2.23802 -3.71611 0
M  V30 6183 H 606.827 3.85482 -3.95105 0
M  V30 6184 H 609.303 3.62798 -2.03757 0
M  V30 6185 H 608.179 4.98765 -2.29182 0
M  V30 6186 H 608.44 4.37021 -0.668206 0
M  V30 6187 N 607.499 1.09233 1.13605 0
M  V30 6188 C 608.724 0.849067 1.89224 0
M  V30 6189 C 609.149 -0.593875 1.78479 0
M  V30 6190 O 608.507 -1.41703 1.13092 0
M  V30 6191 C 608.555 1.28642 3.36873 0
M  V30 6192 O 607.659 0.44363 4.10007 0
M  V30 6193 H 607 0.30767 0.588417 0
M  V30 6194 H 609.53 1.45595 1.43748 0
M  V30 6195 H 609.54 1.27096 3.87699 0
M  V30 6196 H 608.215 2.33729 3.44011 0
M  V30 6197 H 606.792 0.523241 3.69211 0
M  V30 6198 N 608.977 -1.30795 0.87923 0
M  V30 6199 C 610.202 -2.01063 0.508769 0
M  V30 6200 C 610.627 -1.65508 -0.893803 0
M  V30 6201 O 609.985 -0.868616 -1.59138 0
M  V30 6202 C 610.033 -3.54054 0.683991 0
M  V30 6203 O 609.137 -4.11498 -0.272654 0
M  V30 6204 H 608.478 -0.632786 0.201191 0
M  V30 6205 H 611.008 -1.66776 1.18519 0
M  V30 6206 H 611.018 -4.03845 0.580798 0
M  V30 6207 H 609.693 -3.79271 1.70665 0
M  V30 6208 H 608.27 -3.72695 -0.12364 0
M  V30 6209 N 610.455 -0.639598 -1.44038 0
M  V30 6210 C 611.405 0.0823038 -2.27851 0
M  V30 6211 C 612.389 0.807991 -1.39141 0
M  V30 6212 O 613.581 0.692702 -1.62882 0
M  V30 6213 C 610.71 1.05742 -3.26609 0
M  V30 6214 C 609.796 0.330911 -4.22807 0
M  V30 6215 N 610.187 -0.645126 -5.01669 0
M  V30 6216 C 608.485 0.574214 -4.42288 0
M  V30 6217 C 609.186 -1.07513 -5.71678 0
M  V30 6218 N 608.162 -0.412164 -5.42035 0
M  V30 6219 H 611.964 -0.666861 -2.86234 0
M  V30 6220 H 609.478 -0.465777 -1.55577 0
M  V30 6221 H 611.475 1.58927 -3.85419 0
M  V30 6222 H 610.135 1.80679 -2.69787 0
M  V30 6223 H 611.146 -1.02329 -5.0769 0
M  V30 6224 H 607.823 1.30581 -3.96554 0
M  V30 6225 H 609.213 -1.88196 -6.45005 0
M  V30 6226 N 611.933 1.52934 -0.380664 0
M  V30 6227 C 613.21 1.93845 0.261417 0
M  V30 6228 C 613.59 1.31544 1.65104 0
M  V30 6229 O 612.938 0.480234 2.23397 0
M  V30 6230 C 613.148 3.47739 0.296466 0
M  V30 6231 C 614.496 4.21284 0.529578 0
M  V30 6232 O 615.52 3.54199 0.377041 0
M  V30 6233 O 614.379 5.40195 0.827753 0
M  V30 6234 H 611.473 0.811318 0.160285 0
M  V30 6235 H 614.019 1.64042 -0.434544 0
M  V30 6236 H 612.791 3.85395 -0.67724 0
M  V30 6237 H 612.414 3.8382 1.0377 0
M  V30 6238 N 613.412 0.11024 1.57214 0
M  V30 6239 C 614.828 -0.24638 1.57687 0
M  V30 6240 C 615.028 -1.67344 1.12241 0
M  V30 6241 O 614.084 -2.39298 0.805783 0
M  V30 6242 C 615.397 -0.0210288 3.00693 0
M  V30 6243 C 616.945 -0.0876077 3.12877 0
M  V30 6244 C 617.42 0.10994 4.57868 0
M  V30 6245 N 618.911 0.0556135 4.63167 0
M  V30 6246 C 619.646 0.183495 5.73106 0
M  V30 6247 N 619.142 0.367058 6.91827 0
M  V30 6248 N 620.935 0.123689 5.61964 0
M  V30 6249 H 613.086 1.04246 1.85058 0
M  V30 6250 H 615.349 0.40979 0.854854 0
M  V30 6251 H 615.055 0.965203 3.38196 0
M  V30 6252 H 614.929 -0.756748 3.69531 0
M  V30 6253 H 617.316 -1.06436 2.75237 0
M  V30 6254 H 617.397 0.67985 2.466 0
M  V30 6255 H 617.041 1.08362 4.96206 0
M  V30 6256 H 616.971 -0.677397 5.22225 0
M  V30 6257 H 619.462 -0.0831062 3.77809 0
M  V30 6258 H 619.775 0.455739 7.71455 0
M  V30 6259 H 618.12 0.40292 6.93831 0
M  V30 6260 H 621.311 -0.0186928 4.68096 0
M  V30 6261 H 621.484 0.226797 6.47603 0
M  V30 6262 N 614.89 -1.56749 -0.16351 0
M  V30 6263 C 615.853 -1.96121 -1.18613 0
M  V30 6264 C 616.853 -0.845765 -1.36761 0
M  V30 6265 O 618.043 -1.11268 -1.34033 0
M  V30 6266 C 615.175 -2.26282 -2.54969 0
M  V30 6267 H 616.368 -2.87639 -0.848764 0
M  V30 6268 H 613.921 -1.50928 -0.406251 0
M  V30 6269 H 614.656 -1.37504 -2.93706 0
M  V30 6270 H 614.441 -3.07595 -2.43162 0
M  V30 6271 H 615.931 -2.57638 -3.28653 0
M  V30 6272 N 616.368 0.432326 -1.51554 0
M  V30 6273 C 617.616 1.17901 -1.64146 0
M  V30 6274 C 617.937 1.91604 -0.362367 0
M  V30 6275 O 617.207 1.85764 0.621968 0
M  V30 6276 H 615.787 0.438206 -0.604966 0
M  V30 6277 H 618.449 0.495172 -1.88505 0
M  V30 6278 H 617.545 1.90584 -2.47152 0
M  V30 6279 N 617.846 1.41785 0.688094 0
M  V30 6280 C 618.778 1.40159 1.81351 0
M  V30 6281 C 619.791 0.30262 1.59963 0
M  V30 6282 O 620.98 0.564841 1.69327 0
M  V30 6283 C 618.08 1.16517 3.1824 0
M  V30 6284 C 617.253 2.38597 3.66593 0
M  V30 6285 C 616.312 2.10699 4.82174 0
M  V30 6286 O 615.338 2.83798 4.93404 0
M  V30 6287 N 616.54 1.10187 5.69947 0
M  V30 6288 H 619.305 2.3716 1.83236 0
M  V30 6289 H 616.866 1.36494 0.870697 0
M  V30 6290 H 618.858 0.957941 3.93199 0
M  V30 6291 H 617.428 0.280873 3.11336 0
M  V30 6292 H 616.648 2.74974 2.82459 0
M  V30 6293 H 617.936 3.19919 3.95638 0
M  V30 6294 H 617.334 0.497016 5.63512 0
M  V30 6295 H 615.891 0.954518 6.44773 0
M  V30 6296 N 619.324 -0.923095 1.27737 0
M  V30 6297 C 620.256 -2.02871 1.06658 0
M  V30 6298 C 621.269 -1.62786 0.0212095 0
M  V30 6299 O 622.458 -1.76548 0.263267 0
M  V30 6300 C 619.558 -3.33603 0.59682 0
M  V30 6301 C 618.731 -4.02354 1.71551 0
M  V30 6302 C 617.79 -5.11364 1.24071 0
M  V30 6303 O 616.816 -5.35075 1.94123 0
M  V30 6304 N 618.018 -5.80416 0.0988444 0
M  V30 6305 H 620.783 -2.21515 2.01869 0
M  V30 6306 H 618.344 -1.09378 1.19365 0
M  V30 6307 H 620.336 -4.03845 0.262984 0
M  V30 6308 H 618.906 -3.11499 -0.262187 0
M  V30 6309 H 618.126 -3.25786 2.2194 0
M  V30 6310 H 619.414 -4.45035 2.46619 0
M  V30 6311 H 618.812 -5.63611 -0.485743 0
M  V30 6312 H 617.369 -6.51563 -0.17578 0
M  V30 6313 N 620.802 -1.09834 -1.13024 0
M  V30 6314 C 622.05 -0.835297 -1.8403 0
M  V30 6315 C 622.371 0.640944 -1.84165 0
M  V30 6316 O 621.641 1.46517 -1.30037 0
M  V30 6317 H 620.221 -0.306018 -0.681441 0
M  V30 6318 H 622.883 -1.38734 -1.36891 0
M  V30 6319 H 621.979 -1.19258 -2.88416 0
M  V30 6320 N 622.28 1.30327 -0.886154 0
M  V30 6321 C 623.691 1.78243 -0.555554 0
M  V30 6322 C 624.042 1.72849 0.928314 0
M  V30 6323 O 623.167 1.30607 1.72542 0
M  V30 6324 C 623.762 3.23654 -1.00168 0
M  V30 6325 C 622.321 3.69401 -0.722471 0
M  V30 6326 C 621.468 2.50753 -1.18399 0
M  V30 6327 H 624.419 1.1718 -1.07026 0
M  V30 6328 H 624.44 3.79056 -0.331152 0
M  V30 6329 H 623.952 3.27548 -2.08169 0
M  V30 6330 H 622.053 3.70995 0.345496 0
M  V30 6331 H 622.166 4.60818 -1.31085 0
M  V30 6332 H 620.53 2.47452 -0.603303 0
M  V30 6333 H 621.313 2.57383 -2.27176 0
M  V30 6334 N 623.758 0.647228 1.43697 0
M  V30 6335 C 625.169 0.238689 1.85168 0
M  V30 6336 C 625.52 -1.21345 1.54175 0
M  V30 6337 O 624.645 -1.92542 0.987743 0
M  V30 6338 C 625.24 0.426422 3.36106 0
M  V30 6339 C 623.799 0.0722541 3.76331 0
M  V30 6340 C 622.946 0.732153 2.6746 0
M  V30 6341 H 625.897 0.851309 1.33934 0
M  V30 6342 H 625.918 -0.32987 3.79067 0
M  V30 6343 H 625.43 1.48339 3.58632 0
M  V30 6344 H 623.531 -0.982355 3.59417 0
M  V30 6345 H 623.644 0.493541 4.76551 0
M  V30 6346 H 622.008 0.16594 2.54159 0
M  V30 6347 H 622.791 1.79204 2.92816 0
M  V30 6348 N 625.236 -1.5273 0.388769 0
M  V30 6349 C 626.186 -2.23238 -0.463567 0
M  V30 6350 C 627.17 -1.23606 -1.03007 0
M  V30 6351 O 628.362 -1.48945 -0.956261 0
M  V30 6352 C 625.491 -3.04228 -1.5906 0
M  V30 6353 C 624.577 -4.11255 -1.03587 0
M  V30 6354 N 624.968 -5.0538 -0.206038 0
M  V30 6355 C 623.266 -4.26376 -1.30841 0
M  V30 6356 C 623.967 -5.81613 0.100359 0
M  V30 6357 N 622.943 -5.41264 -0.503447 0
M  V30 6358 H 626.745 -2.93367 0.176978 0
M  V30 6359 H 624.259 -1.61188 0.198046 0
M  V30 6360 H 626.256 -3.53277 -2.21362 0
M  V30 6361 H 624.916 -2.35634 -2.23398 0
M  V30 6362 H 625.927 -5.17663 0.156659 0
M  V30 6363 H 622.604 -3.69011 -1.95287 0
M  V30 6364 H 623.994 -6.67442 0.772676 0
M  V30 6365 N 626.714 -0.118576 -1.57153 0
M  V30 6366 C 627.939 0.550582 -1.99958 0
M  V30 6367 C 628.364 1.59458 -0.997736 0
M  V30 6368 O 627.722 1.81274 0.0306269 0
M  V30 6369 C 627.77 1.15379 -3.41643 0
M  V30 6370 O 626.874 2.26932 -3.44348 0
M  V30 6371 H 626.215 0.137567 -0.649593 0
M  V30 6372 H 628.745 -0.206926 -2.03551 0
M  V30 6373 H 628.755 1.48942 -3.79843 0
M  V30 6374 H 627.43 0.389087 -4.14076 0
M  V30 6375 H 626.007 1.94812 -3.17967 0
M  V30 6376 N 628.193 1.56834 0.155195 0
M  V30 6377 C 629.609 1.51315 0.50755 0
M  V30 6378 C 629.809 0.825614 1.83809 0
M  V30 6379 O 628.865 0.39271 2.49427 0
M  V30 6380 C 630.178 2.96074 0.52542 0
M  V30 6381 C 631.726 3.06968 0.611505 0
M  V30 6382 C 632.201 4.53218 0.660115 0
M  V30 6383 N 633.692 4.5753 0.722564 0
M  V30 6384 C 634.427 5.68056 0.781023 0
M  V30 6385 N 633.923 6.88173 0.799327 0
M  V30 6386 N 635.716 5.56068 0.821278 0
M  V30 6387 H 627.867 1.9993 -0.717063 0
M  V30 6388 H 630.13 0.911507 -0.260496 0
M  V30 6389 H 629.836 3.49599 -0.383875 0
M  V30 6390 H 629.71 3.51587 1.36624 0
M  V30 6391 H 632.097 2.53468 1.51122 0
M  V30 6392 H 632.178 2.54513 -0.256306 0
M  V30 6393 H 631.822 5.07354 -0.23541 0
M  V30 6394 H 631.752 5.03447 1.5443 0
M  V30 6395 H 634.243 3.71054 0.716049 0
M  V30 6396 H 634.556 7.6816 0.845553 0
M  V30 6397 H 632.901 6.90751 0.767337 0
M  V30 6398 H 636.092 4.61142 0.804091 0
M  V30 6399 H 636.265 6.42223 0.863372 0
M  V30 6400 N 629.671 -0.424282 1.51781 0
M  V30 6401 C 630.899 -1.1947 1.68921 0
M  V30 6402 C 631.314 -1.84683 0.39213 0
M  V30 6403 O 630.671 -1.71261 -0.630554 0
M  V30 6404 C 630.722 -2.26909 2.81416 0
M  V30 6405 O 630.443 -1.64361 4.061 0
M  V30 6406 C 631.944 -3.16945 3.09937 0
M  V30 6407 H 629.164 -0.359591 0.566511 0
M  V30 6408 H 631.708 -0.501139 1.98265 0
M  V30 6409 H 629.863 -2.91959 2.54635 0
M  V30 6410 H 630.277 -2.35468 4.68674 0
M  V30 6411 H 631.751 -3.88437 3.922 0
M  V30 6412 H 632.228 -3.78451 2.22871 0
M  V30 6413 H 632.834 -2.57581 3.38426 0
M  V30 6414 N 631.149 -1.42148 -0.680565 0
M  V30 6415 C 632.374 -1.45901 -1.47403 0
M  V30 6416 C 632.799 -0.0700985 -1.87969 0
M  V30 6417 O 632.157 0.930145 -1.55621 0
M  V30 6418 C 632.205 -2.38661 -2.70321 0
M  V30 6419 O 631.309 -1.85399 -3.68376 0
M  V30 6420 H 630.65 -0.494565 -0.443059 0
M  V30 6421 H 633.18 -1.86774 -0.835251 0
M  V30 6422 H 633.19 -2.55046 -3.18458 0
M  V30 6423 H 631.865 -3.39571 -2.40134 0
M  V30 6424 H 630.442 -1.78541 -3.2738 0
M  V30 6425 N 632.627 0.916307 -1.28225 0
M  V30 6426 C 633.873 1.66794 -1.1641 0
M  V30 6427 C 634.228 1.90278 0.284986 0
M  V30 6428 O 633.521 1.49023 1.20427 0
M  V30 6429 C 633.715 3.03125 -1.8934 0
M  V30 6430 C 633.544 2.92947 -3.41192 0
M  V30 6431 C 632.314 2.9461 -4.10528 0
M  V30 6432 C 634.512 2.7121 -4.36978 0
M  V30 6433 N 632.494 2.74993 -5.48864 0
M  V30 6434 C 633.865 2.60411 -5.6266 0
M  V30 6435 C 635.92 2.56187 -4.26934 0
M  V30 6436 C 634.623 2.3612 -6.79441 0
M  V30 6437 C 636.649 2.33275 -5.43449 0
M  V30 6438 C 636.011 2.23228 -6.68093 0
M  V30 6439 H 632.11 0.616654 -0.480896 0
M  V30 6440 H 634.694 1.08237 -1.61842 0
M  V30 6441 H 632.865 3.59774 -1.46346 0
M  V30 6442 H 634.597 3.67294 -1.69932 0
M  V30 6443 H 631.352 3.0527 -3.62087 0
M  V30 6444 H 631.776 2.68284 -6.21573 0
M  V30 6445 H 636.418 2.62707 -3.31278 0
M  V30 6446 H 634.136 2.28339 -7.75169 0
M  V30 6447 H 637.722 2.22519 -5.37565 0
M  V30 6448 H 636.602 2.05741 -7.5673 0
M  V30 6449 N 634.105 1.10431 1.1244 0
M  V30 6450 C 635.351 0.847972 1.84221 0
M  V30 6451 C 635.684 -0.624903 1.83871 0
M  V30 6452 O 634.959 -1.46074 1.28423 0
M  V30 6453 C 635.242 1.39695 3.319 0
M  V30 6454 C 635.095 2.93668 3.40704 0
M  V30 6455 C 636.414 1.03924 4.27654 0
M  V30 6456 H 633.533 0.309502 0.668863 0
M  V30 6457 H 636.175 1.36745 1.31912 0
M  V30 6458 H 634.325 0.955095 3.76577 0
M  V30 6459 H 635.997 3.46379 3.04662 0
M  V30 6460 H 634.24 3.30272 2.81252 0
M  V30 6461 H 634.911 3.27162 4.446 0
M  V30 6462 H 637.387 1.42049 3.91102 0
M  V30 6463 H 636.263 1.45027 5.29394 0
M  V30 6464 H 636.524 -0.051336 4.4207 0
M  V30 6465 N 635.583 -1.29855 0.893053 0
M  V30 6466 C 636.994 -1.77946 0.564998 0
M  V30 6467 C 637.345 -1.73339 -0.919134 0
M  V30 6468 O 636.47 -1.3152 -1.71847 0
M  V30 6469 C 637.065 -3.23118 1.01883 0
M  V30 6470 C 635.624 -3.69013 0.742051 0
M  V30 6471 C 634.771 -2.50121 1.19727 0
M  V30 6472 H 637.722 -1.16611 1.07646 0
M  V30 6473 H 637.743 -3.78875 0.351249 0
M  V30 6474 H 637.255 -3.26439 2.09903 0
M  V30 6475 H 635.356 -3.71173 -0.325816 0
M  V30 6476 H 635.469 -4.60117 1.33527 0
M  V30 6477 H 633.833 -2.47128 0.616418 0
M  V30 6478 H 634.616 -2.56174 2.28538 0
M  V30 6479 N 637.061 -0.65484 -1.43351 0
M  V30 6480 C 638.307 -0.169142 -2.02093 0
M  V30 6481 C 638.64 1.21431 -1.51553 0
M  V30 6482 O 637.915 1.81105 -0.709317 0
M  V30 6483 C 638.198 -0.181775 -3.59641 0
M  V30 6484 C 638.051 -1.59926 -4.20409 0
M  V30 6485 C 639.37 0.480945 -4.37464 0
M  V30 6486 H 636.489 -0.0629371 -0.734308 0
M  V30 6487 H 639.131 -0.835833 -1.70628 0
M  V30 6488 H 637.281 0.385918 -3.86578 0
M  V30 6489 H 638.953 -2.21766 -4.04497 0
M  V30 6490 H 637.196 -2.14605 -3.76998 0
M  V30 6491 H 637.867 -1.55994 -5.295 0
M  V30 6492 H 640.343 -0.00208273 -4.161 0
M  V30 6493 H 639.219 0.441384 -5.47122 0
M  V30 6494 H 639.48 1.55533 -4.13838 0
M  V30 6495 N 638.539 1.52521 -0.396863 0
M  V30 6496 C 639.785 2.01971 0.183169 0
M  V30 6497 C 640.118 1.2825 1.45827 0
M  V30 6498 O 639.393 0.385179 1.90648 0
M  V30 6499 C 639.676 3.5736 0.443391 0
M  V30 6500 C 639.529 4.41743 -0.84753 0
M  V30 6501 C 640.848 4.22539 1.2308 0
M  V30 6502 H 637.967 0.734119 0.0650976 0
M  V30 6503 H 640.609 1.82519 -0.527918 0
M  V30 6504 H 638.759 3.74066 1.04914 0
M  V30 6505 H 640.431 4.36773 -1.48414 0
M  V30 6506 H 638.674 4.0845 -1.4612 0
M  V30 6507 H 639.345 5.48507 -0.620003 0
M  V30 6508 H 641.821 4.09857 0.718084 0
M  V30 6509 H 640.697 5.31227 1.38162 0
M  V30 6510 H 640.958 3.80675 2.24808 0
M  V30 6511 N 640.017 0.126909 1.57088 0
M  V30 6512 C 640.947 -0.816847 2.18746 0
M  V30 6513 C 641.928 -1.27161 1.12979 0
M  V30 6514 O 643.113 -1.33279 1.41246 0
M  V30 6515 C 640.243 -2.06398 2.79315 0
M  V30 6516 C 639.197 -1.74673 3.90735 0
M  V30 6517 C 638.523 -3.06482 4.38147 0
M  V30 6518 C 639.823 -1.0089 5.12463 0
M  V30 6519 H 641.517 -0.303032 2.97863 0
M  V30 6520 H 639.063 -0.144314 1.43275 0
M  V30 6521 H 641.016 -2.72885 3.2111 0
M  V30 6522 H 639.74 -2.60118 1.975 0
M  V30 6523 H 638.399 -1.10572 3.49527 0
M  V30 6524 H 638.047 -3.58152 3.5318 0
M  V30 6525 H 637.747 -2.86025 5.13287 0
M  V30 6526 H 639.271 -3.74073 4.82599 0
M  V30 6527 H 640.685 -1.57546 5.51228 0
M  V30 6528 H 639.082 -0.905006 5.93237 0
M  V30 6529 H 640.152 0.00297335 4.849 0
M  V30 6530 N 641.495 -1.56914 -0.146875 0
M  V30 6531 C 642.743 -1.82994 -0.85777 0
M  V30 6532 C 643.064 -0.707814 -1.817 0
M  V30 6533 O 642.334 0.270521 -1.94023 0
M  V30 6534 H 640.914 -0.675106 -0.319751 0
M  V30 6535 H 643.576 -1.9439 -0.140849 0
M  V30 6536 H 642.672 -2.77928 -1.41994 0
M  V30 6537 N 642.974 0.416227 -1.52004 0
M  V30 6538 C 644.22 1.16555 -1.6596 0
M  V30 6539 C 644.553 1.90347 -0.384906 0
M  V30 6540 O 643.828 1.84474 0.616405 0
M  V30 6541 C 644.111 2.1657 -2.87696 0
M  V30 6542 C 643.964 1.46722 -4.25197 0
M  V30 6543 C 645.283 3.17321 -3.04951 0
M  V30 6544 H 642.402 0.422369 -0.603965 0
M  V30 6545 H 645.044 0.452141 -1.84542 0
M  V30 6546 H 643.194 2.77411 -2.71985 0
M  V30 6547 H 644.866 0.89056 -4.52622 0
M  V30 6548 H 643.109 0.769263 -4.26925 0
M  V30 6549 H 643.78 2.19665 -5.0641 0
M  V30 6550 H 646.256 2.66552 -3.19514 0
M  V30 6551 H 645.132 3.84573 -3.91656 0
M  V30 6552 H 645.393 3.84643 -2.17951 0
M  V30 6553 N 644.452 1.42507 0.673017 0
M  V30 6554 C 645.382 1.48916 1.79851 0
M  V30 6555 C 646.363 0.345566 1.66553 0
M  V30 6556 O 647.548 0.560116 1.85947 0
M  V30 6557 C 644.678 1.39258 3.18158 0
M  V30 6558 C 643.632 2.51662 3.46194 0
M  V30 6559 C 642.958 2.27062 4.84094 0
M  V30 6560 C 644.258 3.93968 3.42909 0
M  V30 6561 H 645.952 2.43114 1.74745 0
M  V30 6562 H 643.498 1.17013 0.839288 0
M  V30 6563 H 645.451 1.42349 3.96629 0
M  V30 6564 H 644.175 0.415542 3.23946 0
M  V30 6565 H 642.834 2.47891 2.70084 0
M  V30 6566 H 642.482 1.27648 4.86534 0
M  V30 6567 H 642.182 3.02398 5.03815 0
M  V30 6568 H 643.706 2.31905 5.64847 0
M  V30 6569 H 645.12 3.99332 4.11347 0
M  V30 6570 H 643.517 4.6917 3.74165 0
M  V30 6571 H 644.587 4.20512 2.41449 0
M  V30 6572 N 645.93 -0.909495 1.28709 0
M  V30 6573 C 647.158 -1.69272 1.18973 0
M  V30 6574 C 647.573 -1.87123 -0.251048 0
M  V30 6575 O 646.93 -1.40127 -1.16922 0
M  V30 6576 C 646.981 -3.08257 1.88839 0
M  V30 6577 O 646.702 -2.91228 3.27289 0
M  V30 6578 C 648.203 -4.02642 1.85457 0
M  V30 6579 H 645.423 -0.528999 0.412797 0
M  V30 6580 H 647.967 -1.13803 1.69909 0
M  V30 6581 H 646.122 -3.6053 1.41762 0
M  V30 6582 H 646.536 -3.79223 3.6234 0
M  V30 6583 H 648.01 -4.97613 2.38925 0
M  V30 6584 H 648.487 -4.31327 0.827893 0
M  V30 6585 H 649.093 -3.56298 2.32233 0
M  V30 6586 N 647.408 -1.11026 -1.11852 0
M  V30 6587 C 648.371 -0.768006 -2.1595 0
M  V30 6588 C 649.371 0.210538 -1.59416 0
M  V30 6589 O 650.561 -0.0133978 -1.74195 0
M  V30 6590 C 647.693 -0.138678 -3.40618 0
M  V30 6591 H 648.886 -1.69012 -2.4774 0
M  V30 6592 H 646.439 -0.911578 -1.26964 0
M  V30 6593 H 647.174 0.793872 -3.14433 0
M  V30 6594 H 646.959 -0.843012 -3.8293 0
M  V30 6595 H 648.449 0.0848039 -4.17514 0
M  V30 6596 N 648.886 1.2938 -0.899927 0
M  V30 6597 C 649.816 2.30144 -0.39446 0
M  V30 6598 C 650.797 1.61611 0.530639 0
M  V30 6599 O 651.982 1.89119 0.441319 0
M  V30 6600 C 649.112 3.45229 0.37868 0
M  V30 6601 C 648.066 4.25564 -0.456012 0
M  V30 6602 C 647.392 5.32848 0.444637 0
M  V30 6603 C 648.692 4.93651 -1.70605 0
M  V30 6604 H 650.386 2.72673 -1.23653 0
M  V30 6605 H 647.932 1.31086 -0.596034 0
M  V30 6606 H 649.885 4.14797 0.743037 0
M  V30 6607 H 648.609 3.01545 1.25453 0
M  V30 6608 H 647.268 3.57704 -0.802704 0
M  V30 6609 H 646.916 4.85408 1.31863 0
M  V30 6610 H 646.616 5.87497 -0.110154 0
M  V30 6611 H 648.14 6.05268 0.805182 0
M  V30 6612 H 649.554 5.55655 -1.41141 0
M  V30 6613 H 647.951 5.58233 -2.20217 0
M  V30 6614 H 649.021 4.18926 -2.4419 0
M  V30 6615 N 650.364 0.662433 1.43002 0
M  V30 6616 C 651.61 0.179857 2.02001 0
M  V30 6617 C 651.943 -1.20625 1.52195 0
M  V30 6618 O 651.218 -1.80726 0.718911 0
M  V30 6619 C 651.501 0.200845 3.59539 0
M  V30 6620 C 651.354 1.62153 4.19555 0
M  V30 6621 C 652.673 -0.457738 4.37713 0
M  V30 6622 H 649.792 0.0668305 0.733964 0
M  V30 6623 H 652.434 0.84487 1.70182 0
M  V30 6624 H 650.584 -0.365411 3.86778 0
M  V30 6625 H 652.256 2.23908 4.03315 0
M  V30 6626 H 650.499 2.16601 3.75854 0
M  V30 6627 H 651.17 1.58799 5.28665 0
M  V30 6628 H 653.646 0.0241495 4.16093 0
M  V30 6629 H 652.522 -0.412363 5.47349 0
M  V30 6630 H 652.783 -1.53336 4.14657 0
M  V30 6631 N 651.842 -1.52309 0.404946 0
M  V30 6632 C 653.07 -2.06185 -0.171818 0
M  V30 6633 C 653.485 -1.27536 -1.39212 0
M  V30 6634 O 652.842 -0.326112 -1.79563 0
M  V30 6635 C 652.893 -3.57647 -0.526417 0
M  V30 6636 O 652.614 -4.3332 0.645417 0
M  V30 6637 C 654.115 -4.27925 -1.15736 0
M  V30 6638 H 651.335 -0.670632 -0.0222328 0
M  V30 6639 H 653.879 -1.96259 0.574692 0
M  V30 6640 H 652.034 -3.67595 -1.22282 0
M  V30 6641 H 652.448 -5.23328 0.35042 0
M  V30 6642 H 653.922 -5.35093 -1.35572 0
M  V30 6643 H 654.399 -3.84134 -2.12926 0
M  V30 6644 H 655.005 -4.22335 -0.501281 0
M  V30 6645 N 653.32 -0.135238 -1.57019 0
M  V30 6646 C 654.283 0.794707 -2.14981 0
M  V30 6647 C 655.283 1.18342 -1.08866 0
M  V30 6648 O 656.473 1.10627 -1.34563 0
M  V30 6649 C 653.605 2.07685 -2.70333 0
M  V30 6650 H 654.798 0.290696 -2.98488 0
M  V30 6651 H 652.351 0.114128 -1.55883 0
M  V30 6652 H 653.086 2.6248 -1.9046 0
M  V30 6653 H 652.871 1.80745 -3.47957 0
M  V30 6654 H 654.361 2.74127 -3.1503 0
M  V30 6655 N 654.798 1.5699 0.138552 0
M  V30 6656 C 655.761 1.97984 1.15478 0
M  V30 6657 C 656.761 0.867416 1.35398 0
M  V30 6658 O 657.951 1.13387 1.32246 0
M  V30 6659 C 655.083 2.3031 2.51337 0
M  V30 6660 H 656.276 2.88953 0.802896 0
M  V30 6661 H 653.829 1.51555 0.382189 0
M  V30 6662 H 654.564 1.42159 2.91481 0
M  V30 6663 H 654.349 3.11425 2.38237 0
M  V30 6664 H 655.839 2.62834 3.24512 0
M  V30 6665 N 656.276 -0.40816 1.52223 0
M  V30 6666 C 657.239 -1.48 1.7501 0
M  V30 6667 C 658.239 -1.48367 0.619996 0
M  V30 6668 O 659.429 -1.49874 0.887881 0
M  V30 6669 C 656.561 -2.87403 1.83336 0
M  V30 6670 H 657.754 -1.29086 2.70697 0
M  V30 6671 H 655.307 -0.638715 1.42654 0
M  V30 6672 H 656.042 -3.11686 0.895677 0
M  V30 6673 H 655.827 -2.8854 2.65494 0
M  V30 6674 H 657.317 -3.65103 2.02705 0
M  V30 6675 N 657.755 -1.42862 -0.66545 0
M  V30 6676 C 658.685 -1.49867 -1.79059 0
M  V30 6677 C 659.666 -0.354394 -1.66367 0
M  V30 6678 O 660.851 -0.569969 -1.85647 0
M  V30 6679 C 657.981 -1.40943 -3.17415 0
M  V30 6680 C 656.935 -2.53495 -3.44854 0
M  V30 6681 C 656.261 -2.29626 -4.82883 0
M  V30 6682 C 657.561 -3.95781 -3.40815 0
M  V30 6683 H 659.255 -2.44037 -1.73453 0
M  V30 6684 H 656.801 -1.17456 -0.833071 0
M  V30 6685 H 658.754 -1.4445 -3.95869 0
M  V30 6686 H 657.478 -0.432716 -3.23721 0
M  V30 6687 H 656.137 -2.4932 -2.68766 0
M  V30 6688 H 655.785 -1.30226 -4.8585 0
M  V30 6689 H 655.485 -3.05065 -5.02204 0
M  V30 6690 H 657.009 -2.34897 -5.63609 0
M  V30 6691 H 658.423 -4.01508 -4.09224 0
M  V30 6692 H 656.82 -4.71148 -3.71672 0
M  V30 6693 H 657.89 -4.21786 -2.39216 0
M  V30 6694 N 659.233 0.902656 -1.29189 0
M  V30 6695 C 660.196 1.98797 -1.14071 0
M  V30 6696 C 661.196 1.60615 -0.0770549 0
M  V30 6697 O 662.386 1.71165 -0.323753 0
M  V30 6698 C 659.518 3.32688 -0.743739 0
M  V30 6699 H 660.711 2.13637 -2.10473 0
M  V30 6700 H 658.264 1.08678 -1.12334 0
M  V30 6701 H 658.999 3.23549 0.220554 0
M  V30 6702 H 658.784 3.61765 -1.51223 0
M  V30 6703 H 660.274 4.12337 -0.660935 0
M  V30 6704 N 660.711 1.11618 1.11262 0
M  V30 6705 C 661.641 0.79846 2.19424 0
M  V30 6706 C 662.622 -0.234003 1.68483 0
M  V30 6707 O 663.807 -0.0970704 1.93957 0
M  V30 6708 C 660.937 0.242892 3.4645 0
M  V30 6709 C 659.891 1.20744 4.10615 0
M  V30 6710 C 659.217 0.512494 5.32238 0
M  V30 6711 C 660.517 2.55884 4.55325 0
M  V30 6712 H 662.211 1.70286 2.46258 0
M  V30 6713 H 659.757 0.820195 1.18359 0
M  V30 6714 H 661.71 0.00840447 4.21399 0
M  V30 6715 H 660.434 -0.696811 3.1908 0
M  V30 6716 H 659.093 1.42759 3.37662 0
M  V30 6717 H 658.741 -0.432075 5.01141 0
M  V30 6718 H 658.441 1.15583 5.7612 0
M  V30 6719 H 659.965 0.286842 6.09926 0
M  V30 6720 H 661.379 2.37946 5.21588 0
M  V30 6721 H 659.776 3.16216 5.10027 0
M  V30 6722 H 660.846 3.14968 3.68678 0
M  V30 6723 N 662.189 -1.289 0.906776 0
M  V30 6724 C 663.438 -1.9455 0.532262 0
M  V30 6725 C 663.751 -1.72219 -0.927353 0
M  V30 6726 O 664.957 -2.32033 -1.40971 0
M  V30 6727 C 663.413 -3.48438 0.901041 0
M  V30 6728 C 663.021 -3.79558 2.37991 0
M  V30 6729 C 664.765 -4.20284 0.596777 0
M  V30 6730 C 662.672 -5.26723 2.68918 0
M  V30 6731 H 661.602 -0.728259 0.195333 0
M  V30 6732 H 664.253 -1.46519 1.10474 0
M  V30 6733 H 662.635 -3.95162 0.257419 0
M  V30 6734 H 663.809 -3.43668 3.06967 0
M  V30 6735 H 662.124 -3.20868 2.65391 0
M  V30 6736 H 664.721 -5.28612 0.8046 0
M  V30 6737 H 665.064 -4.13694 -0.465072 0
M  V30 6738 H 665.597 -3.79315 1.19855 0
M  V30 6739 H 662.336 -5.38384 3.73928 0
M  V30 6740 H 661.856 -5.63836 2.04571 0
M  V30 6741 H 663.535 -5.94391 2.55555 0
M  V30 6742 N 663.667 -0.670007 -1.42649 0
M  V30 6743 C 664.597 -0.00258501 -2.335 0
M  V30 6744 C 665.578 0.794364 -1.50412 0
M  V30 6745 O 666.763 0.75248 -1.79029 0
M  V30 6746 C 663.893 0.952748 -3.33976 0
M  V30 6747 C 662.847 0.264733 -4.2718 0
M  V30 6748 C 662.173 1.33267 -5.17826 0
M  V30 6749 C 663.473 -0.853289 -5.15283 0
M  V30 6750 H 665.167 -0.761326 -2.89559 0
M  V30 6751 H 662.713 -0.367561 -1.3923 0
M  V30 6752 H 664.666 1.4287 -3.96442 0
M  V30 6753 H 663.39 1.74285 -2.7621 0
M  V30 6754 H 662.049 -0.190938 -3.66102 0
M  V30 6755 H 661.697 2.11464 -4.5639 0
M  V30 6756 H 661.397 0.877476 -5.81011 0
M  V30 6757 H 662.921 1.80965 -5.83167 0
M  V30 6758 H 664.335 -0.458763 -5.71462 0
M  V30 6759 H 662.732 -1.23398 -5.87276 0
M  V30 6760 H 663.802 -1.70412 -4.53969 0
M  V30 6761 N 665.145 1.52092 -0.413018 0
M  V30 6762 C 666.075 2.30021 0.401567 0
M  V30 6763 C 667.056 1.34395 1.04269 0
M  V30 6764 O 668.241 1.63304 1.05097 0
M  V30 6765 C 665.371 3.12447 1.51638 0
M  V30 6766 C 664.325 4.16153 1.00005 0
M  V30 6767 C 663.651 4.86948 2.20875 0
M  V30 6768 C 664.951 5.22275 0.0513757 0
M  V30 6769 H 666.645 2.98365 -0.248704 0
M  V30 6770 H 664.191 1.4349 -0.121052 0
M  V30 6771 H 666.144 3.65733 2.09326 0
M  V30 6772 H 664.868 2.41879 2.19458 0
M  V30 6773 H 663.527 3.63882 0.445549 0
M  V30 6774 H 663.175 4.12905 2.8726 0
M  V30 6775 H 662.875 5.57057 1.86978 0
M  V30 6776 H 664.399 5.43048 2.79162 0
M  V30 6777 H 665.813 5.70778 0.537176 0
M  V30 6778 H 664.21 5.9977 -0.198977 0
M  V30 6779 H 665.28 4.76611 -0.892736 0
M  V30 6780 N 666.623 0.143563 1.56945 0
M  V30 6781 C 668.039 -0.212877 1.58174 0
M  V30 6782 C 668.239 -1.64926 1.15766 0
M  V30 6783 O 667.295 -2.37535 0.856361 0
M  V30 6784 C 668.608 0.0427573 3.0067 0
M  V30 6785 C 670.156 -0.0212221 3.12993 0
M  V30 6786 C 670.631 0.207036 4.57532 0
M  V30 6787 N 672.122 0.153845 4.62944 0
M  V30 6788 C 672.857 0.305018 5.72588 0
M  V30 6789 N 672.353 0.513722 6.90893 0
M  V30 6790 N 674.146 0.242862 5.61575 0
M  V30 6791 H 666.297 1.08148 1.82805 0
M  V30 6792 H 668.56 0.427831 0.84597 0
M  V30 6793 H 668.266 1.03672 3.36073 0
M  V30 6794 H 668.14 -0.678195 3.71053 0
M  V30 6795 H 670.527 -1.00574 2.77433 0
M  V30 6796 H 670.608 0.732004 2.45103 0
M  V30 6797 H 670.252 1.18863 4.93795 0
M  V30 6798 H 670.182 -0.566473 5.23544 0
M  V30 6799 H 672.673 -0.00294866 3.779 0
M  V30 6800 H 672.986 0.619273 7.70315 0
M  V30 6801 H 671.331 0.550001 6.9282 0
M  V30 6802 H 674.522 0.0806015 4.68031 0
M  V30 6803 H 674.695 0.364112 6.46976 0
M  V30 6804 N 668.101 -1.57061 -0.130224 0
M  V30 6805 C 669.048 -1.99517 -1.16024 0
M  V30 6806 C 670.018 -0.865452 -1.41771 0
M  V30 6807 O 671.203 -1.12882 -1.53826 0
M  V30 6808 C 668.343 -2.3951 -2.48453 0
M  V30 6809 C 667.456 -3.65848 -2.29737 0
M  V30 6810 C 666.591 -3.9487 -3.55318 0
M  V30 6811 C 665.63 -5.14426 -3.31711 0
M  V30 6812 N 664.767 -5.39375 -4.49466 0
M  V30 6813 H 669.607 -2.87305 -0.791194 0
M  V30 6814 H 667.144 -1.42129 -0.379195 0
M  V30 6815 H 669.102 -2.60731 -3.25692 0
M  V30 6816 H 667.732 -1.54779 -2.83272 0
M  V30 6817 H 666.784 -3.52307 -1.4347 0
M  V30 6818 H 668.096 -4.53241 -2.08263 0
M  V30 6819 H 667.25 -4.16679 -4.4098 0
M  V30 6820 H 665.989 -3.05931 -3.79813 0
M  V30 6821 H 664.994 -4.92473 -2.44439 0
M  V30 6822 H 666.219 -6.04933 -3.08598 0
M  V30 6823 H 664.165 -4.53391 -4.74102 0
M  V30 6824 H 664.082 -6.21069 -4.31055 0
M  V30 6825 H 665.35 -5.65694 -5.36293 0
M  V30 6826 N 669.579 0.400081 -1.52437 0
M  V30 6827 C 670.995 0.739359 -1.41441 0
M  V30 6828 C 671.195 1.94512 -0.526053 0
M  V30 6829 O 670.251 2.525 0.00472502 0
M  V30 6830 C 671.564 0.984824 -2.84116 0
M  V30 6831 C 673.112 1.08698 -2.93519 0
M  V30 6832 C 673.587 1.36515 -4.37181 0
M  V30 6833 N 675.078 1.43361 -4.40457 0
M  V30 6834 C 675.813 1.66528 -5.48686 0
M  V30 6835 N 675.309 1.87239 -6.67018 0
M  V30 6836 N 677.102 1.68617 -5.36213 0
M  V30 6837 H 669.253 -0.393484 -2.08723 0
M  V30 6838 H 671.516 -0.1138 -0.941145 0
M  V30 6839 H 671.222 0.171096 -3.51284 0
M  V30 6840 H 671.096 1.90253 -3.25705 0
M  V30 6841 H 673.483 1.89129 -2.26526 0
M  V30 6842 H 673.564 0.147432 -2.55375 0
M  V30 6843 H 673.208 0.565982 -5.04737 0
M  V30 6844 H 673.138 2.31737 -4.7287 0
M  V30 6845 H 675.629 1.29108 -3.55161 0
M  V30 6846 H 675.942 2.04392 -7.45281 0
M  V30 6847 H 674.287 1.84486 -6.70067 0
M  V30 6848 H 677.478 1.5198 -4.42741 0
M  V30 6849 H 677.651 1.86332 -6.20632 0
M  V30 6850 N 671.057 1.43213 0.657864 0
M  V30 6851 C 672.473 1.26511 0.972992 0
M  V30 6852 C 672.673 0.181477 2.00681 0
M  V30 6853 O 671.729 -0.441649 2.48608 0
M  V30 6854 C 673.042 2.62784 1.46168 0
M  V30 6855 C 674.59 2.70278 1.57857 0
M  V30 6856 C 675.065 4.06958 2.10117 0
M  V30 6857 N 676.556 4.08999 2.17426 0
M  V30 6858 C 677.291 5.11585 2.58975 0
M  V30 6859 N 676.787 6.24548 2.99853 0
M  V30 6860 N 678.58 4.9894 2.58873 0
M  V30 6861 H 670.731 2.12384 -0.0263129 0
M  V30 6862 H 672.994 0.946638 0.0507992 0
M  V30 6863 H 672.7 3.43022 0.776474 0
M  V30 6864 H 672.574 2.87863 2.43751 0
M  V30 6865 H 674.961 1.90376 2.25479 0
M  V30 6866 H 675.042 2.4897 0.587179 0
M  V30 6867 H 674.686 4.87325 1.43098 0
M  V30 6868 H 674.616 4.25628 3.10078 0
M  V30 6869 H 677.107 3.27457 1.88627 0
M  V30 6870 H 677.42 6.98661 3.30292 0
M  V30 6871 H 675.765 6.28027 2.97669 0
M  V30 6872 H 678.956 4.09757 2.26311 0
M  V30 6873 H 679.129 5.79019 2.90932 0
M  V30 6874 N 672.536 -0.895792 1.29666 0
M  V30 6875 C 673.483 -2.00035 1.15129 0
M  V30 6876 C 674.453 -1.66043 0.0435819 0
M  V30 6877 O 675.638 -1.89621 0.211811 0
M  V30 6878 C 672.778 -3.34774 0.83787 0
M  V30 6879 C 671.891 -3.81525 2.0264 0
M  V30 6880 C 671.026 -5.04858 1.65201 0
M  V30 6881 C 670.065 -5.43988 2.80612 0
M  V30 6882 N 669.202 -6.58507 2.43544 0
M  V30 6883 H 674.042 -2.11802 2.09628 0
M  V30 6884 H 671.579 -1.03719 1.04311 0
M  V30 6885 H 673.537 -4.12311 0.636824 0
M  V30 6886 H 672.167 -3.22724 -0.0702314 0
M  V30 6887 H 671.219 -2.9999 2.33903 0
M  V30 6888 H 672.531 -4.06472 2.89106 0
M  V30 6889 H 671.685 -5.8999 1.41408 0
M  V30 6890 H 670.424 -4.81759 0.758893 0
M  V30 6891 H 669.429 -4.57388 3.05083 0
M  V30 6892 H 670.654 -5.69066 3.70595 0
M  V30 6893 H 668.6 -6.37004 1.56724 0
M  V30 6894 H 668.517 -6.83269 3.23542 0
M  V30 6895 H 669.785 -7.46897 2.2308 0
M  V30 6896 N 674.014 -1.12206 -1.10668 0
M  V30 6897 C 674.924 -0.800686 -2.20513 0
M  V30 6898 C 675.94 0.209512 -1.72734 0
M  V30 6899 O 677.116 0.043705 -2.01353 0
M  V30 6900 C 674.181 -0.257353 -3.45744 0
M  V30 6901 C 673.242 -1.32718 -4.0827 0
M  V30 6902 C 672.475 -0.809674 -5.27522 0
M  V30 6903 O 672.698 0.35742 -5.69279 0
M  V30 6904 O 671.632 -1.57816 -5.80842 0
M  V30 6905 H 675.458 -1.71807 -2.50432 0
M  V30 6906 H 673.043 -0.898546 -1.19359 0
M  V30 6907 H 674.925 0.0408849 -4.2138 0
M  V30 6908 H 673.6 0.632627 -3.17458 0
M  V30 6909 H 672.507 -1.67855 -3.34329 0
M  V30 6910 H 673.84 -2.19083 -4.40753 0
M  V30 6911 N 675.492 1.28418 -0.913599 0
M  V30 6912 C 676.72 1.99106 -0.562536 0
M  V30 6913 C 677.135 1.68273 0.856137 0
M  V30 6914 O 676.492 0.935401 1.56705 0
M  V30 6915 C 676.543 3.5338 -0.761903 0
M  V30 6916 O 676.264 3.83127 -2.12475 0
M  V30 6917 C 677.765 4.41328 -0.417651 0
M  V30 6918 H 674.985 0.635798 -0.214481 0
M  V30 6919 H 677.529 1.63618 -1.22676 0
M  V30 6920 H 675.684 3.8713 -0.144676 0
M  V30 6921 H 676.098 4.77763 -2.16431 0
M  V30 6922 H 677.572 5.48642 -0.607919 0
M  V30 6923 H 678.049 4.34422 0.646108 0
M  V30 6924 H 678.655 4.13074 -1.01241 0
M  V30 6925 N 676.97 0.677563 1.42291 0
M  V30 6926 C 678.386 0.347376 1.55774 0
M  V30 6927 C 678.586 -1.14703 1.65667 0
M  V30 6928 O 677.642 -1.93252 1.62512 0
M  V30 6929 C 678.955 1.08011 2.80631 0
M  V30 6930 C 680.503 1.06271 2.94407 0
M  V30 6931 C 680.978 1.77683 4.22129 0
M  V30 6932 N 682.469 1.74564 4.29047 0
M  V30 6933 C 683.204 2.26673 5.26694 0
M  V30 6934 N 682.7 2.87176 6.30477 0
M  V30 6935 N 684.493 2.17032 5.18511 0
M  V30 6936 H 676.644 1.64703 1.34114 0
M  V30 6937 H 678.907 0.694038 0.645768 0
M  V30 6938 H 678.613 2.13518 2.79469 0
M  V30 6939 H 678.487 0.647115 3.71608 0
M  V30 6940 H 680.874 0.0159658 2.95096 0
M  V30 6941 H 680.955 1.53461 2.04654 0
M  V30 6942 H 680.599 2.82327 4.22201 0
M  V30 6943 H 680.529 1.2794 5.10822 0
M  V30 6944 H 683.02 1.30436 3.54676 0
M  V30 6945 H 683.333 3.24551 7.01346 0
M  V30 6946 H 681.678 2.91247 6.31031 0
M  V30 6947 H 684.869 1.69451 4.36353 0
M  V30 6948 H 685.042 2.57948 5.94446 0
M  V30 6949 N 678.448 -1.51871 0.421078 0
M  V30 6950 C 679.695 -2.01938 -0.15079 0
M  V30 6951 C 680.023 -1.30611 -1.44121 0
M  V30 6952 O 679.278 -0.404631 -1.91471 0
M  V30 6953 C 679.577 -3.54764 -0.433292 0
M  V30 6954 C 679.243 -4.44288 0.76936 0
M  V30 6955 C 677.905 -4.68477 1.09921 0
M  V30 6956 C 680.257 -4.96915 1.57242 0
M  V30 6957 C 677.585 -5.4254 2.2331 0
M  V30 6958 C 679.937 -5.7222 2.69716 0
M  V30 6959 C 678.601 -5.94678 3.03174 0
M  V30 6960 H 677.871 -0.738943 -0.0551781 0
M  V30 6961 H 680.518 -1.82977 0.564945 0
M  V30 6962 H 678.823 -3.71968 -1.23074 0
M  V30 6963 H 680.52 -3.91023 -0.888922 0
M  V30 6964 H 677.11 -4.25646 0.502305 0
M  V30 6965 H 681.294 -4.78125 1.3308 0
M  V30 6966 H 676.55 -5.58146 2.49565 0
M  V30 6967 H 680.724 -6.11992 3.32323 0
M  V30 6968 H 678.351 -6.51848 3.9115 0
M  V30 6969 N 679.926 -0.151884 -1.56866 0
M  V30 6970 C 681.174 0.497021 -1.95893 0
M  V30 6971 C 681.495 1.65078 -1.03799 0
M  V30 6972 O 680.765 1.95642 -0.10049 0
M  V30 6973 H 679.345 0.186603 -0.723318 0
M  V30 6974 H 682.007 -0.228525 -1.93556 0
M  V30 6975 H 681.103 0.869933 -2.99731 0
M  V30 6976 N 681.404 1.57128 0.121893 0
M  V30 6977 C 682.336 1.96773 1.17529 0
M  V30 6978 C 683.349 0.866668 1.37814 0
M  V30 6979 O 684.538 1.14497 1.3694 0
M  V30 6980 C 681.638 2.24832 2.53582 0
M  V30 6981 C 680.811 3.56138 2.53939 0
M  V30 6982 C 679.87 3.72443 3.71716 0
M  V30 6983 O 678.896 4.44584 3.55434 0
M  V30 6984 N 680.098 3.10993 4.90167 0
M  V30 6985 H 682.863 2.87743 0.838086 0
M  V30 6986 H 680.424 1.58881 0.311199 0
M  V30 6987 H 682.416 2.32958 3.30927 0
M  V30 6988 H 680.986 1.40002 2.79496 0
M  V30 6989 H 680.206 3.59226 1.62329 0
M  V30 6990 H 681.494 4.42448 2.51231 0
M  V30 6991 H 680.892 2.52345 5.06299 0
M  V30 6992 H 679.449 3.24644 5.65198 0
M  V30 6993 N 682.882 -0.391992 1.52647 0
M  V30 6994 C 683.845 -1.46135 1.7657 0
M  V30 6995 C 684.845 -1.47701 0.635698 0
M  V30 6996 O 686.035 -1.48924 0.903728 0
M  V30 6997 C 683.167 -2.85443 1.86374 0
M  V30 6998 H 684.36 -1.26208 2.72051 0
M  V30 6999 H 681.913 -0.623549 1.43323 0
M  V30 7000 H 682.648 -3.10718 0.928685 0
M  V30 7001 H 682.433 -2.85708 2.68539 0
M  V30 7002 H 683.923 -3.62933 2.06566 0
M  V30 7003 N 684.36 -1.4356 -0.65026 0
M  V30 7004 C 685.607 -1.45333 -1.41012 0
M  V30 7005 C 685.935 -0.0787282 -1.94341 0
M  V30 7006 O 685.19 0.916715 -1.72901 0
M  V30 7007 C 685.489 -2.44528 -2.60654 0
M  V30 7008 C 685.155 -3.90331 -2.25727 0
M  V30 7009 C 683.817 -4.3004 -2.15914 0
M  V30 7010 C 686.169 -4.822 -1.97821 0
M  V30 7011 C 683.497 -5.59568 -1.76354 0
M  V30 7012 C 685.849 -6.12095 -1.59759 0
M  V30 7013 C 684.513 -6.50778 -1.48473 0
M  V30 7014 H 683.783 -0.531813 -0.516 0
M  V30 7015 H 686.43 -1.76657 -0.739219 0
M  V30 7016 H 684.735 -2.06619 -3.3289 0
M  V30 7017 H 686.432 -2.43155 -3.18868 0
M  V30 7018 H 683.022 -3.58905 -2.34276 0
M  V30 7019 H 687.206 -4.5229 -2.04322 0
M  V30 7020 H 682.462 -5.88376 -1.66205 0
M  V30 7021 H 686.636 -6.82751 -1.37198 0
M  V30 7022 H 684.263 -7.5105 -1.17591 0
M  V30 7023 N 685.838 0.888903 -1.30139 0
M  V30 7024 C 687.115 1.62145 -1.094 0
M  V30 7025 C 687.495 2.08041 0.358091 0
M  V30 7026 O 686.843 1.84438 1.34888 0
M  V30 7027 C 687.053 2.794 -2.09133 0
M  V30 7028 C 688.401 3.49826 -2.40638 0
M  V30 7029 O 689.425 2.89583 -2.07412 0
M  V30 7030 O 688.284 4.58457 -2.97455 0
M  V30 7031 H 685.378 0.712475 -0.41989 0
M  V30 7032 H 687.924 0.936023 -1.41551 0
M  V30 7033 H 686.696 2.42762 -3.06891 0
M  V30 7034 H 686.319 3.55643 -1.77776 0
M  V30 7035 N 687.317 1.12792 1.10072 0
M  V30 7036 C 688.542 0.908838 1.86427 0
M  V30 7037 C 688.967 -0.536793 1.80278 0
M  V30 7038 O 688.325 -1.38033 1.17543 0
M  V30 7039 C 688.373 1.39295 3.3261 0
M  V30 7040 O 687.477 0.573846 4.08388 0
M  V30 7041 H 686.818 0.326234 0.578331 0
M  V30 7042 H 689.348 1.50094 1.39043 0
M  V30 7043 H 689.358 1.39366 3.83459 0
M  V30 7044 H 688.033 2.44555 3.36401 0
M  V30 7045 H 686.61 0.640438 3.67359 0
M  V30 7046 N 688.795 -1.27931 0.920396 0
M  V30 7047 C 690.041 -1.94977 0.557832 0
M  V30 7048 C 690.374 -1.72224 -0.897365 0
M  V30 7049 O 689.649 -1.04705 -1.63912 0
M  V30 7050 C 689.932 -3.49289 0.875741 0
M  V30 7051 C 689.785 -3.81416 2.38416 0
M  V30 7052 C 691.104 -4.38486 0.376517 0
M  V30 7053 H 688.223 -0.708164 0.20414 0
M  V30 7054 H 690.865 -1.5118 1.15085 0
M  V30 7055 H 689.015 -3.86724 0.371062 0
M  V30 7056 H 690.687 -3.53813 2.95997 0
M  V30 7057 H 688.93 -3.28225 2.83639 0
M  V30 7058 H 689.601 -4.89198 2.55713 0
M  V30 7059 H 692.077 -4.08161 0.808945 0
M  V30 7060 H 690.953 -5.45296 0.627976 0
M  V30 7061 H 691.214 -4.36143 -0.723293 0
M  V30 7062 N 690.273 -0.685099 -1.4193 0
M  V30 7063 C 691.206 0.0371639 -2.2817 0
M  V30 7064 C 692.184 0.798436 -1.41647 0
M  V30 7065 O 693.368 0.791428 -1.71081 0
M  V30 7066 C 690.495 1.05993 -3.21688 0
M  V30 7067 C 689.541 0.393043 -4.24685 0
M  V30 7068 S 690.374 -0.856921 -5.28599 0
M  V30 7069 C 691.53 0.164508 -6.25684 0
M  V30 7070 H 691.763 -0.694305 -2.89079 0
M  V30 7071 H 689.296 -0.474999 -1.46912 0
M  V30 7072 H 691.254 1.64489 -3.76103 0
M  V30 7073 H 689.915 1.7639 -2.59895 0
M  V30 7074 H 689.108 1.16513 -4.90348 0
M  V30 7075 H 688.71 -0.118589 -3.73812 0
M  V30 7076 H 691.002 1.02106 -6.69762 0
M  V30 7077 H 691.945 -0.457917 -7.06618 0
M  V30 7078 H 692.353 0.514596 -5.6215 0
M  V30 7079 N 691.751 1.51645 -0.429126 0
M  V30 7080 C 692.714 2.26116 0.374726 0
M  V30 7081 C 693.714 1.29242 0.956714 0
M  V30 7082 O 694.904 1.53022 0.832452 0
M  V30 7083 C 692.036 3.04669 1.52937 0
M  V30 7084 H 693.229 2.9861 -0.277818 0
M  V30 7085 H 690.782 1.55236 -0.182097 0
M  V30 7086 H 691.517 2.36571 2.21821 0
M  V30 7087 H 691.302 3.75814 1.11833 0
M  V30 7088 H 692.792 3.61102 2.09751 0
M  V30 7089 N 693.229 0.160201 1.56784 0
M  V30 7090 C 694.645 -0.196089 1.58391 0
M  V30 7091 C 694.845 -1.63689 1.17508 0
M  V30 7092 O 693.901 -2.36613 0.881506 0
M  V30 7093 C 695.214 0.0746449 3.00607 0
M  V30 7094 C 696.762 0.0119762 3.12998 0
M  V30 7095 C 697.237 0.255551 4.57286 0
M  V30 7096 N 698.728 0.202938 4.62755 0
M  V30 7097 C 699.463 0.365731 5.72232 0
M  V30 7098 N 698.959 0.586972 6.90309 0
M  V30 7099 N 700.752 0.302411 5.61286 0
M  V30 7100 H 692.903 1.1008 1.81648 0
M  V30 7101 H 695.166 0.436779 0.841384 0
M  V30 7102 H 694.872 1.07231 3.34954 0
M  V30 7103 H 694.746 -0.638802 3.71751 0
M  V30 7104 H 697.133 -0.976254 2.78484 0
M  V30 7105 H 697.214 0.75796 2.44313 0
M  V30 7106 H 696.858 1.24094 4.92507 0
M  V30 7107 H 696.788 -0.510912 5.24116 0
M  V30 7108 H 699.279 0.0371328 3.77882 0
M  V30 7109 H 699.592 0.700941 7.69615 0
M  V30 7110 H 697.937 0.623453 6.92198 0
M  V30 7111 H 701.128 0.130238 4.67919 0
M  V30 7112 H 701.301 0.432712 6.46554 0
M  V30 7113 N 694.707 -1.5719 -0.113559 0
M  V30 7114 C 695.955 -1.84772 -0.818761 0
M  V30 7115 C 696.276 -0.746196 -1.80158 0
M  V30 7116 O 695.546 0.229305 -1.94553 0
M  V30 7117 H 694.126 -0.681737 -0.305359 0
M  V30 7118 H 696.788 -1.94645 -0.0995845 0
M  V30 7119 H 695.884 -2.80878 -1.36067 0
M  V30 7120 N 696.185 0.383891 -1.52853 0
M  V30 7121 C 697.095 1.49343 -1.80925 0
M  V30 7122 C 698.111 1.59458 -0.696348 0
M  V30 7123 O 699.287 1.75698 -0.984481 0
M  V30 7124 C 696.352 2.84819 -1.97684 0
M  V30 7125 C 695.413 2.84382 -3.21598 0
M  V30 7126 C 694.646 4.13397 -3.37548 0
M  V30 7127 O 694.869 5.08619 -2.58192 0
M  V30 7128 O 693.803 4.20325 -4.30826 0
M  V30 7129 H 697.629 1.2855 -2.75152 0
M  V30 7130 H 695.214 0.572229 -1.38007 0
M  V30 7131 H 697.096 3.65125 -2.10385 0
M  V30 7132 H 695.771 3.05627 -1.06647 0
M  V30 7133 H 694.678 2.0284 -3.14336 0
M  V30 7134 H 696.011 2.68526 -4.12498 0
M  V30 7135 N 697.663 1.43903 0.642637 0
M  V30 7136 C 699.074 1.40975 1.22404 0
M  V30 7137 C 699.425 0.1192 1.95838 0
M  V30 7138 O 698.55 -0.780939 2.01818 0
M  V30 7139 C 699.145 2.5538 2.22636 0
M  V30 7140 C 697.704 2.55684 2.76229 0
M  V30 7141 C 696.851 2.32556 1.51039 0
M  V30 7142 H 699.802 1.5265 0.434006 0
M  V30 7143 H 699.823 2.27474 3.05017 0
M  V30 7144 H 699.335 3.49294 1.69161 0
M  V30 7145 H 697.436 1.65679 3.33738 0
M  V30 7146 H 697.549 3.53799 3.23053 0
M  V30 7147 H 695.913 1.81427 1.78764 0
M  V30 7148 H 696.696 3.28569 0.99484 0
M  V30 7149 N 699.141 -0.881989 1.30609 0
M  V30 7150 C 700.104 -1.96957 1.1722 0
M  V30 7151 C 701.104 -1.60472 0.102598 0
M  V30 7152 O 702.294 -1.70628 0.350943 0
M  V30 7153 C 699.426 -3.31463 0.796572 0
M  V30 7154 H 700.619 -2.10262 2.13846 0
M  V30 7155 H 698.172 -1.06877 1.14048 0
M  V30 7156 H 698.907 -3.23859 -0.169053 0
M  V30 7157 H 698.692 -3.59314 1.56959 0
M  V30 7158 H 700.182 -4.11233 0.72645 0
M  V30 7159 N 700.619 -1.13374 -1.09472 0
M  V30 7160 C 701.865 -0.896516 -1.81908 0
M  V30 7161 C 702.198 0.575933 -1.85463 0
M  V30 7162 O 701.473 1.42618 -1.32251 0
M  V30 7163 C 701.756 -1.48445 -3.28079 0
M  V30 7164 C 701.609 -3.02598 -3.32798 0
M  V30 7165 C 702.928 -1.15226 -4.24748 0
M  V30 7166 H 700.047 -0.327127 -0.660422 0
M  V30 7167 H 702.689 -1.40195 -1.2824 0
M  V30 7168 H 700.839 -1.0546 -3.73912 0
M  V30 7169 H 702.511 -3.54335 -2.95372 0
M  V30 7170 H 700.754 -3.37613 -2.72397 0
M  V30 7171 H 701.425 -3.38835 -4.3577 0
M  V30 7172 H 703.901 -1.52369 -3.87199 0
M  V30 7173 H 702.777 -1.59012 -5.25363 0
M  V30 7174 H 703.038 -0.0658891 -4.42051 0
M  V30 7175 N 702.098 1.27442 -0.927168 0
M  V30 7176 C 703.048 2.24519 -0.396878 0
M  V30 7177 C 704.032 1.52981 0.498555 0
M  V30 7178 O 705.224 1.7378 0.336087 0
M  V30 7179 C 702.353 3.41514 0.349694 0
M  V30 7180 C 701.439 4.20357 -0.562226 0
M  V30 7181 N 701.83 4.7702 -1.68182 0
M  V30 7182 C 700.128 4.44503 -0.365135 0
M  V30 7183 C 700.829 5.36467 -2.24895 0
M  V30 7184 N 699.805 5.21371 -1.5386 0
M  V30 7185 H 703.607 2.65911 -1.25173 0
M  V30 7186 H 701.121 1.42366 -0.78138 0
M  V30 7187 H 703.118 4.10161 0.746536 0
M  V30 7188 H 701.778 3.01653 1.20148 0
M  V30 7189 H 702.789 4.74985 -2.06421 0
M  V30 7190 H 699.466 4.15111 0.446037 0
M  V30 7191 H 700.856 5.91264 -3.1915 0
M  V30 7192 N 703.576 0.692616 1.41565 0
M  V30 7193 C 704.823 0.222335 2.01276 0
M  V30 7194 C 705.151 -1.17706 1.5484 0
M  V30 7195 O 704.406 -1.80795 0.749118 0
M  V30 7196 C 704.705 0.225073 3.56691 0
M  V30 7197 C 704.371 1.57158 4.22625 0
M  V30 7198 C 703.033 1.94022 4.40351 0
M  V30 7199 C 705.385 2.45758 4.59622 0
M  V30 7200 C 702.713 3.19076 4.92349 0
M  V30 7201 C 705.065 3.70141 5.13009 0
M  V30 7202 C 703.729 4.07152 5.28946 0
M  V30 7203 H 702.999 0.0813581 0.73652 0
M  V30 7204 H 705.646 0.891123 1.69503 0
M  V30 7205 H 703.951 -0.527259 3.88236 0
M  V30 7206 H 705.648 -0.156283 4.00695 0
M  V30 7207 H 702.238 1.27486 4.09201 0
M  V30 7208 H 706.422 2.18558 4.45585 0
M  V30 7209 H 701.678 3.4775 5.02872 0
M  V30 7210 H 705.852 4.38983 5.40617 0
M  V30 7211 H 703.479 5.04125 5.69001 0
M  V30 7212 N 705.054 -1.51416 0.437162 0
M  V30 7213 C 706.47 -1.59349 0.0894459 0
M  V30 7214 C 706.67 -1.44809 -1.40116 0
M  V30 7215 O 705.726 -1.28924 -2.17106 0
M  V30 7216 C 707.039 -2.9446 0.609398 0
M  V30 7217 C 708.587 -3.07769 0.569824 0
M  V30 7218 C 709.062 -4.45404 1.06675 0
M  V30 7219 N 710.553 -4.51723 1.02473 0
M  V30 7220 C 711.288 -5.56544 1.3801 0
M  V30 7221 N 710.784 -6.68784 1.80831 0
M  V30 7222 N 712.577 -5.46901 1.29828 0
M  V30 7223 H 704.728 -1.59112 1.40703 0
M  V30 7224 H 706.991 -0.750031 0.579791 0
M  V30 7225 H 706.697 -3.1047 1.65231 0
M  V30 7226 H 706.571 -3.77184 0.0342236 0
M  V30 7227 H 708.958 -2.91428 -0.464107 0
M  V30 7228 H 709.039 -2.26885 1.1814 0
M  V30 7229 H 708.683 -4.62492 2.09914 0
M  V30 7230 H 708.613 -5.24827 0.431712 0
M  V30 7231 H 711.104 -3.71165 0.710258 0
M  V30 7232 H 711.417 -7.44787 2.06185 0
M  V30 7233 H 709.762 -6.69992 1.84757 0
M  V30 7234 H 712.953 -4.581 0.962397 0
M  V30 7235 H 713.126 -6.2848 1.57851 0
M  V30 7236 N 706.532 -0.168513 -1.56696 0
M  V30 7237 C 707.495 0.748928 -2.16619 0
M  V30 7238 C 708.495 1.16007 -1.11351 0
M  V30 7239 O 709.685 1.07748 -1.3688 0
M  V30 7240 C 706.817 2.01904 -2.74677 0
M  V30 7241 H 708.01 0.227317 -2.99037 0
M  V30 7242 H 705.563 0.0810372 -1.5609 0
M  V30 7243 H 706.298 2.58381 -1.95985 0
M  V30 7244 H 706.083 1.73323 -3.51712 0
M  V30 7245 H 707.573 2.67383 -3.20774 0
M  V30 7246 N 708.01 1.57248 0.105221 0
M  V30 7247 C 708.973 2.00388 1.11252 0
M  V30 7248 C 709.973 0.89594 1.33527 0
M  V30 7249 O 711.163 1.16166 1.29811 0
M  V30 7250 C 708.295 2.35589 2.46395 0
M  V30 7251 H 709.488 2.90591 0.741424 0
M  V30 7252 H 707.041 1.52332 0.349956 0
M  V30 7253 H 707.776 1.4831 2.884 0
M  V30 7254 H 707.561 3.16408 2.31578 0
M  V30 7255 H 709.051 2.69658 3.18864 0
M  V30 7256 N 709.488 -0.375779 1.53054 0
M  V30 7257 C 710.904 -0.716764 1.426 0
M  V30 7258 C 711.104 -1.93651 0.556931 0
M  V30 7259 O 710.16 -2.52475 0.0354461 0
M  V30 7260 C 711.473 -0.939499 2.85646 0
M  V30 7261 C 713.021 -1.04015 2.95212 0
M  V30 7262 C 713.496 -1.29543 4.39298 0
M  V30 7263 N 714.987 -1.36335 4.42682 0
M  V30 7264 C 715.722 -1.57778 5.51266 0
M  V30 7265 N 715.218 -1.76604 6.69913 0
M  V30 7266 N 717.011 -1.60065 5.38828 0
M  V30 7267 H 709.162 0.42664 2.08071 0
M  V30 7268 H 711.425 0.128758 0.939215 0
M  V30 7269 H 711.131 -0.115189 3.51511 0
M  V30 7270 H 711.005 -1.85048 3.2869 0
M  V30 7271 H 713.392 -1.85501 2.29507 0
M  V30 7272 H 713.473 -0.106785 2.55577 0
M  V30 7273 H 713.117 -0.485611 5.05573 0
M  V30 7274 H 713.047 -2.24184 4.76497 0
M  V30 7275 H 715.538 -1.23441 3.5717 0
M  V30 7276 H 715.851 -1.9251 7.48438 0
M  V30 7277 H 714.196 -1.73802 6.72917 0
M  V30 7278 H 717.387 -1.44917 4.45103 0
M  V30 7279 H 717.56 -1.76435 6.23518 0
M  V30 7280 N 710.966 -1.44241 -0.634997 0
M  V30 7281 C 712.191 -1.50516 -1.42687 0
M  V30 7282 C 712.616 -0.129864 -1.87651 0
M  V30 7283 O 711.974 0.880164 -1.58502 0
M  V30 7284 C 712.022 -2.4714 -2.62591 0
M  V30 7285 O 711.126 -1.97025 -3.62291 0
M  V30 7286 H 710.467 -0.50841 -0.427101 0
M  V30 7287 H 712.997 -1.89337 -0.775408 0
M  V30 7288 H 713.007 -2.65048 -3.10183 0
M  V30 7289 H 711.682 -3.47039 -2.29209 0
M  V30 7290 H 710.259 -1.88866 -3.21534 0
M  V30 7291 N 712.444 0.87505 -1.31075 0
M  V30 7292 C 713.691 1.62768 -1.20469 0
M  V30 7293 C 714.019 1.93034 0.23834 0
M  V30 7294 O 713.274 1.55693 1.18567 0
M  V30 7295 C 713.573 2.96948 -1.98888 0
M  V30 7296 C 713.239 2.86195 -3.4843 0
M  V30 7297 C 711.901 2.82969 -3.89207 0
M  V30 7298 C 714.253 2.73599 -4.43614 0
M  V30 7299 C 711.581 2.64999 -5.23443 0
M  V30 7300 C 713.933 2.57166 -5.77969 0
M  V30 7301 C 712.597 2.52321 -6.17973 0
M  V30 7302 H 711.867 0.595611 -0.440827 0
M  V30 7303 H 714.514 1.01665 -1.62285 0
M  V30 7304 H 712.819 3.62058 -1.49737 0
M  V30 7305 H 714.516 3.54164 -1.88067 0
M  V30 7306 H 711.106 2.8952 -3.16032 0
M  V30 7307 H 715.29 2.7515 -4.13045 0
M  V30 7308 H 710.546 2.5967 -5.53517 0
M  V30 7309 H 714.72 2.46396 -6.51354 0
M  V30 7310 H 712.347 2.38156 -7.21932 0
M  V30 7311 N 713.922 1.13953 1.08869 0
M  V30 7312 C 714.87 0.817664 2.17754 0
M  V30 7313 C 715.864 -0.202444 1.68186 0
M  V30 7314 O 717.07 -0.0590159 1.79903 0
M  V30 7315 H 713.445 0.246671 0.710392 0
M  V30 7316 H 715.416 1.74401 2.4213 0
M  V30 7317 C 714.165 0.3063 3.46348 0
M  V30 7318 H 713.488 1.08259 3.84864 0
M  V30 7319 H 714.928 0.119584 4.23831 0
M  V30 7320 C 713.387 -0.969158 3.22659 0
M  V30 7321 O 713.917 -2.04386 3.45817 0
M  V30 7322 N 712.123 -0.902516 2.7623 0
M  V30 7323 H 711.67 -0.027801 2.57585 0
M  V30 7324 H 711.628 -1.75649 2.60758 0
M  V30 7325 N 715.4 -1.26948 0.933913 0
M  V30 7326 C 716.816 -1.46419 0.635103 0
M  V30 7327 C 717.016 -1.84336 -0.813785 0
M  V30 7328 O 716.072 -1.96061 -1.59111 0
M  V30 7329 C 717.385 -2.55206 1.5903 0
M  V30 7330 C 718.933 -2.69062 1.5992 0
M  V30 7331 C 719.408 -3.81013 2.54152 0
M  V30 7332 N 720.899 -3.88395 2.52395 0
M  V30 7333 C 721.634 -4.74454 3.21996 0
M  V30 7334 N 721.13 -5.64954 4.00997 0
M  V30 7335 N 722.923 -4.68237 3.10983 0
M  V30 7336 H 715.074 -1.00622 1.87053 0
M  V30 7337 H 717.337 -0.503189 0.803433 0
M  V30 7338 H 717.043 -2.34153 2.62422 0
M  V30 7339 H 716.917 -3.52719 1.33677 0
M  V30 7340 H 719.304 -2.89492 0.572569 0
M  V30 7341 H 719.385 -1.72016 1.89325 0
M  V30 7342 H 719.029 -3.61336 3.5693 0
M  V30 7343 H 718.959 -4.77499 2.22041 0
M  V30 7344 H 721.45 -3.23687 1.95025 0
M  V30 7345 H 721.763 -6.27496 4.51074 0
M  V30 7346 H 720.108 -5.6473 4.05099 0
M  V30 7347 H 723.299 -3.96535 2.48753 0
M  V30 7348 H 723.472 -5.35087 3.65494 0
M  V30 7349 N 716.879 -0.700114 -1.41195 0
M  V30 7350 C 717.789 -0.0382854 -2.34569 0
M  V30 7351 C 718.805 0.761036 -1.56474 0
M  V30 7352 O 719.981 0.697553 -1.88934 0
M  V30 7353 C 717.046 0.883522 -3.35253 0
M  V30 7354 C 716.107 0.0758957 -4.29233 0
M  V30 7355 C 715.34 0.9538 -5.25108 0
M  V30 7356 O 715.563 2.19326 -5.26547 0
M  V30 7357 O 714.497 0.401049 -6.00562 0
M  V30 7358 H 718.323 -0.808073 -2.92752 0
M  V30 7359 H 715.908 -0.460479 -1.42127 0
M  V30 7360 H 717.79 1.41199 -3.9704 0
M  V30 7361 H 716.465 1.63272 -2.79506 0
M  V30 7362 H 715.372 -0.497274 -3.7078 0
M  V30 7363 H 716.705 -0.634741 -4.8809 0
M  V30 7364 N 718.357 1.51182 -0.445186 0
M  V30 7365 C 719.773 1.59299 -0.0978954 0
M  V30 7366 C 719.973 1.4555 1.39346 0
M  V30 7367 O 719.029 1.30073 2.16419 0
M  V30 7368 C 720.342 2.94133 -0.625005 0
M  V30 7369 C 721.89 3.07463 -0.586137 0
M  V30 7370 C 722.365 4.44832 -1.09035 0
M  V30 7371 N 723.856 4.51173 -1.04867 0
M  V30 7372 C 724.591 5.55804 -1.40959 0
M  V30 7373 N 724.087 6.67816 -1.84375 0
M  V30 7374 N 725.88 5.46205 -1.32726 0
M  V30 7375 H 718.031 1.58363 -1.41544 0
M  V30 7376 H 720.294 0.746946 -0.58376 0
M  V30 7377 H 720 3.09589 -1.66876 0
M  V30 7378 H 719.874 3.77161 -0.0542262 0
M  V30 7379 H 722.261 2.9167 0.448646 0
M  V30 7380 H 722.342 2.26255 -1.19341 0
M  V30 7381 H 721.986 4.61372 -2.12364 0
M  V30 7382 H 721.916 5.24591 -0.459539 0
M  V30 7383 H 724.407 3.70783 -0.729932 0
M  V30 7384 H 724.72 7.43683 -2.10131 0
M  V30 7385 H 723.065 6.69003 -1.88308 0
M  V30 7386 H 726.256 4.57583 -0.986678 0
M  V30 7387 H 726.429 6.27634 -1.61182 0
M  V30 7388 N 719.835 0.176821 1.56605 0
M  V30 7389 C 721.246 -0.338963 1.83597 0
M  V30 7390 C 721.597 -1.62677 1.09684 0
M  V30 7391 O 720.722 -2.13524 0.351661 0
M  V30 7392 C 721.317 -0.62177 3.33046 0
M  V30 7393 C 719.876 -1.08198 3.60514 0
M  V30 7394 C 719.023 -0.120774 2.77037 0
M  V30 7395 H 721.974 0.400978 1.53551 0
M  V30 7396 H 721.995 -1.47321 3.50823 0
M  V30 7397 H 721.507 0.315692 3.86814 0
M  V30 7398 H 719.608 -2.03435 3.12162 0
M  V30 7399 H 719.721 -0.987329 4.68816 0
M  V30 7400 H 718.085 -0.619192 2.47059 0
M  V30 7401 H 718.868 0.810806 3.33588 0
M  V30 7402 N 721.313 -1.57302 -0.09688 0
M  V30 7403 C 722.223 -2.05258 -1.13606 0
M  V30 7404 C 723.239 -0.977137 -1.43972 0
M  V30 7405 O 724.415 -1.29018 -1.54649 0
M  V30 7406 C 721.48 -2.46593 -2.43706 0
M  V30 7407 C 720.541 -3.68322 -2.20538 0
M  V30 7408 C 719.774 -4.07676 -3.44435 0
M  V30 7409 O 719.997 -3.47141 -4.52603 0
M  V30 7410 O 718.931 -5.00641 -3.34129 0
M  V30 7411 H 722.757 -2.94069 -0.758752 0
M  V30 7412 H 720.342 -1.46164 -0.309263 0
M  V30 7413 H 722.224 -2.73814 -3.20318 0
M  V30 7414 H 720.899 -1.6092 -2.80867 0
M  V30 7415 H 719.806 -3.4622 -1.41713 0
M  V30 7416 H 721.139 -4.54769 -1.88271 0
M  V30 7417 N 722.791 0.367657 -1.53252 0
M  V30 7418 C 724.207 0.709191 -1.42978 0
M  V30 7419 C 724.407 1.93352 -0.567193 0
M  V30 7420 O 723.463 2.52453 -0.0488349 0
M  V30 7421 C 724.776 0.924338 -2.86141 0
M  V30 7422 C 726.324 1.02448 -2.95759 0
M  V30 7423 C 726.799 1.27211 -4.39979 0
M  V30 7424 N 728.29 1.33986 -4.43398 0
M  V30 7425 C 729.025 1.54852 -5.52095 0
M  V30 7426 N 728.521 1.73049 -6.7084 0
M  V30 7427 N 730.314 1.57205 -5.39669 0
M  V30 7428 H 722.465 -0.437669 -2.07842 0
M  V30 7429 H 724.728 -0.133737 -0.938519 0
M  V30 7430 H 724.434 0.0965455 -3.51567 0
M  V30 7431 H 724.308 1.83302 -3.29667 0
M  V30 7432 H 726.695 1.84282 -2.30487 0
M  V30 7433 H 726.776 0.0932301 -2.5563 0
M  V30 7434 H 726.42 0.458792 -5.05824 0
M  V30 7435 H 726.35 2.21654 -4.77679 0
M  V30 7436 H 728.841 1.21545 -3.5782 0
M  V30 7437 H 729.154 1.88538 -7.49449 0
M  V30 7438 H 727.499 1.70231 -6.7383 0
M  V30 7439 H 730.69 1.42555 -4.45865 0
M  V30 7440 H 730.863 1.73126 -6.24445 0
M  V30 7441 N 724.269 1.44576 0.627338 0
M  V30 7442 C 725.518 1.46837 1.38281 0
M  V30 7443 C 725.831 0.10635 1.95311 0
M  V30 7444 O 727.037 0.00651084 2.71499 0
M  V30 7445 C 725.493 2.58527 2.50384 0
M  V30 7446 C 725.101 4.00953 1.99851 0
M  V30 7447 C 726.845 2.70013 3.27557 0
M  V30 7448 C 724.752 5.0406 3.09318 0
M  V30 7449 H 723.682 0.546319 0.519664 0
M  V30 7450 H 726.333 1.70654 0.674497 0
M  V30 7451 H 724.715 2.27957 3.23808 0
M  V30 7452 H 725.889 4.41108 1.33267 0
M  V30 7453 H 724.204 3.93743 1.35482 0
M  V30 7454 H 726.801 3.44217 4.09168 0
M  V30 7455 H 727.144 1.75961 3.77284 0
M  V30 7456 H 727.677 3.00011 2.61224 0
M  V30 7457 H 724.416 5.99753 2.6453 0
M  V30 7458 H 723.936 4.68493 3.74532 0
M  V30 7459 H 725.615 5.2793 3.74031 0
M  V30 7460 N 725.747 -0.868086 1.31537 0
M  V30 7461 C 726.657 -2.00801 1.21311 0
M  V30 7462 C 727.673 -1.73518 0.129431 0
M  V30 7463 O 728.849 -1.98378 0.347588 0
M  V30 7464 C 725.914 -3.3419 0.922935 0
M  V30 7465 C 724.975 -3.74783 2.0937 0
M  V30 7466 C 724.208 -5.01807 1.81728 0
M  V30 7467 O 724.431 -5.65404 0.753313 0
M  V30 7468 O 723.365 -5.39213 2.67457 0
M  V30 7469 H 727.191 -2.12361 2.17109 0
M  V30 7470 H 724.776 -0.996684 1.11295 0
M  V30 7471 H 726.658 -4.14174 0.777033 0
M  V30 7472 H 725.333 -3.237 -0.00500301 0
M  V30 7473 H 724.24 -2.95432 2.29501 0
M  V30 7474 H 725.573 -3.89902 3.00396 0
M  V30 7475 N 727.225 -1.14528 -1.08264 0
M  V30 7476 C 728.188 -0.83632 -2.13397 0
M  V30 7477 C 729.188 0.159715 -1.60005 0
M  V30 7478 O 730.378 -0.0688098 -1.74064 0
M  V30 7479 C 727.51 -0.246973 -3.40004 0
M  V30 7480 H 728.703 -1.76808 -2.42237 0
M  V30 7481 H 726.256 -0.951509 -1.24 0
M  V30 7482 H 726.991 0.693436 -3.168 0
M  V30 7483 H 726.776 -0.964412 -3.80055 0
M  V30 7484 H 728.266 -0.0480679 -4.17572 0
M  V30 7485 N 728.703 1.26451 -0.940633 0
M  V30 7486 C 729.931 1.97868 -0.604642 0
M  V30 7487 C 730.346 1.70051 0.820251 0
M  V30 7488 O 729.703 0.96843 1.54686 0
M  V30 7489 C 729.754 3.51684 -0.836689 0
M  V30 7490 O 729.475 3.78533 -2.20554 0
M  V30 7491 C 730.976 4.40343 -0.511169 0
M  V30 7492 H 728.196 0.631105 -0.227919 0
M  V30 7493 H 730.74 1.60979 -1.26119 0
M  V30 7494 H 728.895 3.86736 -0.226759 0
M  V30 7495 H 729.309 4.73065 -2.26517 0
M  V30 7496 H 730.783 5.47229 -0.724157 0
M  V30 7497 H 731.26 4.35694 0.553815 0
M  V30 7498 H 731.866 4.10834 -1.0998 0
M  V30 7499 N 730.181 0.707592 1.40822 0
M  V30 7500 C 731.111 0.0644925 2.33411 0
M  V30 7501 C 732.092 -0.754205 1.52466 0
M  V30 7502 O 733.277 -0.704749 1.80961 0
M  V30 7503 C 730.407 -0.863865 3.36385 0
M  V30 7504 C 729.361 -0.15138 4.27732 0
M  V30 7505 C 728.687 -1.19491 5.21177 0
M  V30 7506 C 729.987 0.989607 5.12839 0
M  V30 7507 H 731.681 0.837829 2.87438 0
M  V30 7508 H 729.227 0.404346 1.38207 0
M  V30 7509 H 731.18 -1.32309 4.0009 0
M  V30 7510 H 729.904 -1.66901 2.80734 0
M  V30 7511 H 728.563 0.287937 3.65467 0
M  V30 7512 H 728.211 -1.9929 4.61836 0
M  V30 7513 H 727.911 -0.723123 5.83134 0
M  V30 7514 H 729.435 -1.6544 5.8776 0
M  V30 7515 H 730.849 0.610114 5.70044 0
M  V30 7516 H 729.246 1.38926 5.83798 0
M  V30 7517 H 730.316 1.82389 4.49291 0
M  V30 7518 N 731.66 -1.50943 0.453197 0
M  V30 7519 C 732.937 -1.94872 -0.168633 0
M  V30 7520 C 733.317 -1.39272 -1.5864 0
M  V30 7521 O 732.665 -0.586272 -2.20851 0
M  V30 7522 C 732.875 -3.48757 -0.130217 0
M  V30 7523 C 734.223 -4.23331 -0.327975 0
M  V30 7524 O 735.247 -3.55594 -0.207619 0
M  V30 7525 O 734.106 -5.43529 -0.569077 0
M  V30 7526 H 731.2 -0.818042 -0.121394 0
M  V30 7527 H 733.746 -1.61782 0.512316 0
M  V30 7528 H 732.518 -3.81725 0.860346 0
M  V30 7529 H 732.141 -3.88333 -0.853397 0
M  V30 7530 N 733.138 -0.185124 -1.56509 0
M  V30 7531 C 734.363 0.465278 -2.02114 0
M  V30 7532 C 734.788 1.55083 -1.06447 0
M  V30 7533 O 734.146 1.81241 -0.0462852 0
M  V30 7534 C 734.194 1.00784 -3.46229 0
M  V30 7535 O 733.298 2.12123 -3.53663 0
M  V30 7536 H 732.639 0.109891 -0.654843 0
M  V30 7537 H 735.169 -0.293072 -2.0249 0
M  V30 7538 H 735.179 1.32697 -3.85818 0
M  V30 7539 H 733.854 0.213113 -4.15354 0
M  V30 7540 H 732.431 1.8115 -3.25943 0
M  V30 7541 N 734.616 1.57351 0.0885366 0
M  V30 7542 C 735.546 2.05561 1.10757 0
M  V30 7543 C 736.527 0.945789 1.41382 0
M  V30 7544 O 737.712 1.21747 1.51299 0
M  V30 7545 C 734.842 2.48554 2.42566 0
M  V30 7546 C 733.796 3.63259 2.26334 0
M  V30 7547 C 733.122 3.9225 3.63378 0
M  V30 7548 C 734.422 4.93913 1.69844 0
M  V30 7549 H 736.116 2.90946 0.706468 0
M  V30 7550 H 733.662 1.39968 0.338385 0
M  V30 7551 H 735.615 2.8089 3.14132 0
M  V30 7552 H 734.339 1.60176 2.84625 0
M  V30 7553 H 732.998 3.31179 1.57213 0
M  V30 7554 H 732.646 3.0103 4.02976 0
M  V30 7555 H 732.346 4.69478 3.53362 0
M  V30 7556 H 733.87 4.27067 4.36401 0
M  V30 7557 H 735.284 5.24588 2.31258 0
M  V30 7558 H 733.681 5.75349 1.70569 0
M  V30 7559 H 734.751 4.80409 0.65843 0
M  V30 7560 N 736.094 -0.359525 1.53444 0
M  V30 7561 C 737.342 -1.09935 1.69584 0
M  V30 7562 C 737.663 -1.89656 0.453371 0
M  V30 7563 O 736.933 -1.8852 -0.53263 0
M  V30 7564 H 735.513 -0.408843 0.625185 0
M  V30 7565 H 738.175 -0.40467 1.90653 0
M  V30 7566 H 737.271 -1.78575 2.55964 0
M  V30 7567 N 737.572 -1.44907 -0.619662 0
M  V30 7568 C 738.821 -1.47569 -1.37501 0
M  V30 7569 C 739.134 -0.116707 -1.95252 0
M  V30 7570 O 740.34 -0.020909 -2.71492 0
M  V30 7571 C 738.796 -2.59851 -2.49009 0
M  V30 7572 C 738.404 -4.02008 -1.97722 0
M  V30 7573 C 740.148 -2.71746 -3.2612 0
M  V30 7574 C 738.055 -5.05693 -3.0664 0
M  V30 7575 H 736.985 -0.549068 -0.51676 0
M  V30 7576 H 739.636 -1.71009 -0.665437 0
M  V30 7577 H 738.018 -2.29671 -3.22594 0
M  V30 7578 H 739.192 -4.41809 -1.30925 0
M  V30 7579 H 737.507 -3.94456 -1.33392 0
M  V30 7580 H 740.104 -3.46382 -4.07337 0
M  V30 7581 H 740.447 -1.77959 -3.76346 0
M  V30 7582 H 740.98 -3.01392 -2.5963 0
M  V30 7583 H 737.719 -6.01148 -2.61345 0
M  V30 7584 H 737.239 -4.70473 -3.72042 0
M  V30 7585 H 738.918 -5.29906 -3.71226 0
M  V30 7586 N 739.05 0.861098 -1.31996 0
M  V30 7587 C 740.275 1.65264 -1.2531 0
M  V30 7588 C 740.7 1.87265 0.177007 0
M  V30 7589 O 740.058 1.4208 1.12619 0
M  V30 7590 C 740.106 2.99284 -2.0115 0
M  V30 7591 O 739.21 3.89508 -1.3549 0
M  V30 7592 H 738.551 0.50409 -0.432192 0
M  V30 7593 H 741.081 1.07297 -1.74208 0
M  V30 7594 H 741.091 3.49154 -2.11081 0
M  V30 7595 H 739.766 2.82591 -3.05148 0
M  V30 7596 H 738.343 3.47966 -1.34066 0
M  V30 7597 N 740.528 1.15101 1.07655 0
M  V30 7598 C 741.805 0.834578 1.76902 0
M  V30 7599 C 742.185 -0.670431 2.00171 0
M  V30 7600 O 741.533 -1.61378 1.6177 0
M  V30 7601 C 741.743 1.64191 3.07965 0
M  V30 7602 C 743.091 1.84615 3.82364 0
M  V30 7603 O 744.115 1.60941 3.17768 0
M  V30 7604 O 742.974 2.24244 4.98374 0
M  V30 7605 H 740.068 0.306608 0.768063 0
M  V30 7606 H 742.614 1.25663 1.14048 0
M  V30 7607 H 741.386 2.66386 2.86626 0
M  V30 7608 H 741.009 1.216 3.78549 0
M  V30 7609 N 742.006 -1.2595 0.947325 0
M  V30 7610 C 742.916 -2.29883 0.468079 0
M  V30 7611 C 743.932 -1.67783 -0.460975 0
M  V30 7612 O 745.108 -1.98526 -0.339006 0
M  V30 7613 C 742.173 -3.45773 -0.253315 0
M  V30 7614 C 741.234 -4.23337 0.713054 0
M  V30 7615 C 740.467 -5.33694 0.025993 0
M  V30 7616 O 740.69 -5.57853 -1.18978 0
M  V30 7617 O 739.624 -5.97724 0.70782 0
M  V30 7618 H 743.45 -2.72952 1.33156 0
M  V30 7619 H 741.035 -1.31263 0.713468 0
M  V30 7620 H 742.917 -4.16209 -0.659423 0
M  V30 7621 H 741.592 -3.04721 -1.09209 0
M  V30 7622 H 740.499 -3.55359 1.16923 0
M  V30 7623 H 741.832 -4.68154 1.51963 0
M  V30 7624 N 743.484 -0.715051 -1.40445 0
M  V30 7625 C 744.414 -0.0768699 -2.33373 0
M  V30 7626 C 745.395 0.746109 -1.52863 0
M  V30 7627 O 746.58 0.695142 -1.81332 0
M  V30 7628 C 743.71 0.846014 -3.36838 0
M  V30 7629 C 742.664 0.128694 -4.27806 0
M  V30 7630 C 741.99 1.16726 -5.21804 0
M  V30 7631 C 743.29 -1.01679 -5.12307 0
M  V30 7632 H 744.984 -0.853061 -2.8699 0
M  V30 7633 H 742.53 -0.41167 -1.3799 0
M  V30 7634 H 744.483 1.30185 -4.00786 0
M  V30 7635 H 743.207 1.6541 -2.81615 0
M  V30 7636 H 741.866 -0.307314 -3.6531 0
M  V30 7637 H 741.514 1.96838 -4.62887 0
M  V30 7638 H 741.214 0.692188 -5.83509 0
M  V30 7639 H 742.738 1.62321 -5.88629 0
M  V30 7640 H 744.152 -0.640337 -5.69713 0
M  V30 7641 H 742.549 -1.4202 -5.83053 0
M  V30 7642 H 743.619 -1.84769 -4.48317 0
M  V30 7643 N 744.962 1.50701 -0.461195 0
M  V30 7644 C 745.909 2.2831 0.338094 0
M  V30 7645 C 746.879 1.32928 0.995957 0
M  V30 7646 O 748.064 1.61857 1.0103 0
M  V30 7647 C 745.204 3.14539 1.41983 0
M  V30 7648 C 744.317 4.24942 0.77773 0
M  V30 7649 C 743.452 4.98443 1.83652 0
M  V30 7650 C 742.491 6.00733 1.17413 0
M  V30 7651 N 741.628 6.6755 2.17533 0
M  V30 7652 H 746.468 2.96167 -0.330051 0
M  V30 7653 H 744.005 1.4606 -0.174611 0
M  V30 7654 H 745.963 3.62877 2.05855 0
M  V30 7655 H 744.593 2.48749 2.05727 0
M  V30 7656 H 743.645 3.80391 0.0266924 0
M  V30 7657 H 744.957 4.98151 0.254362 0
M  V30 7658 H 744.111 5.50449 2.55129 0
M  V30 7659 H 742.85 4.24917 2.39367 0
M  V30 7660 H 741.855 5.47997 0.444944 0
M  V30 7661 H 743.08 6.76227 0.624006 0
M  V30 7662 H 741.026 5.96823 2.72284 0
M  V30 7663 H 740.943 7.36603 1.70154 0
M  V30 7664 H 742.211 7.24178 2.88421 0
M  V30 7665 N 746.441 0.193421 1.56409 0
M  V30 7666 C 747.351 -0.740112 2.2262 0
M  V30 7667 C 748.367 -1.23597 1.22474 0
M  V30 7668 O 749.543 -1.28348 1.55206 0
M  V30 7669 C 746.608 -1.94317 2.87127 0
M  V30 7670 C 745.669 -1.49205 4.02538 0
M  V30 7671 C 744.902 -2.63776 4.63959 0
M  V30 7672 O 745.125 -3.81215 4.24301 0
M  V30 7673 O 744.059 -2.36585 5.53454 0
M  V30 7674 H 747.885 -0.206238 3.02999 0
M  V30 7675 H 745.47 -0.0357938 1.49357 0
M  V30 7676 H 747.352 -2.64633 3.27944 0
M  V30 7677 H 746.027 -2.46568 2.09728 0
M  V30 7678 H 744.934 -0.757738 3.66346 0
M  V30 7679 H 746.267 -1.01622 4.81595 0
M  V30 7680 N 747.919 -1.57396 -0.0801906 0
M  V30 7681 C 748.866 -2.03107 -1.09618 0
M  V30 7682 C 749.836 -0.910118 -1.38946 0
M  V30 7683 O 751.021 -1.17719 -1.50156 0
M  V30 7684 C 748.161 -2.47293 -2.40708 0
M  V30 7685 C 747.274 -3.72972 -2.17982 0
M  V30 7686 C 746.409 -4.05975 -3.42576 0
M  V30 7687 C 745.448 -5.24719 -3.15177 0
M  V30 7688 N 744.585 -5.53401 -4.32078 0
M  V30 7689 H 749.425 -2.89677 -0.69939 0
M  V30 7690 H 746.962 -1.43263 -0.333785 0
M  V30 7691 H 748.92 -2.7096 -3.17232 0
M  V30 7692 H 747.55 -1.63713 -2.78205 0
M  V30 7693 H 746.602 -3.56693 -1.32189 0
M  V30 7694 H 747.914 -4.59638 -1.93738 0
M  V30 7695 H 747.068 -4.30498 -4.275 0
M  V30 7696 H 745.807 -3.17859 -3.69887 0
M  V30 7697 H 744.812 -5 -2.28648 0
M  V30 7698 H 746.037 -6.14445 -2.89197 0
M  V30 7699 H 743.983 -4.68245 -4.59437 0
M  V30 7700 H 743.9 -6.34469 -4.11078 0
M  V30 7701 H 745.168 -5.8247 -5.18024 0
M  V30 7702 N 749.397 0.351382 -1.53633 0
M  V30 7703 C 750.327 1.43688 -1.84055 0
M  V30 7704 C 751.308 1.55251 -0.695073 0
M  V30 7705 O 752.493 1.69587 -0.946257 0
M  V30 7706 C 749.623 2.80843 -2.04315 0
M  V30 7707 C 748.577 2.84094 -3.20117 0
M  V30 7708 C 747.903 4.2406 -3.25696 0
M  V30 7709 C 749.203 2.50334 -4.58399 0
M  V30 7710 H 750.897 1.18478 -2.74961 0
M  V30 7711 H 748.443 0.568509 -1.32303 0
M  V30 7712 H 750.396 3.56821 -2.2418 0
M  V30 7713 H 749.12 3.07471 -1.10132 0
M  V30 7714 H 747.779 2.10568 -3.00094 0
M  V30 7715 H 747.427 4.47785 -2.29123 0
M  V30 7716 H 747.127 4.27147 -4.03509 0
M  V30 7717 H 748.651 5.0189 -3.47762 0
M  V30 7718 H 750.065 3.16025 -4.78332 0
M  V30 7719 H 748.462 2.64717 -5.38558 0
M  V30 7720 H 749.532 1.45542 -4.62543 0
M  V30 7721 N 750.875 1.45233 0.611969 0
M  V30 7722 C 751.785 1.56098 1.7513 0
M  V30 7723 C 752.801 0.445646 1.68196 0
M  V30 7724 O 753.977 0.705718 1.88631 0
M  V30 7725 C 751.042 1.52052 3.11579 0
M  V30 7726 C 750.103 2.74589 3.29999 0
M  V30 7727 C 749.336 2.70726 4.59938 0
M  V30 7728 O 749.559 1.77806 5.41979 0
M  V30 7729 O 748.493 3.61864 4.80976 0
M  V30 7730 H 752.319 2.52392 1.68914 0
M  V30 7731 H 749.904 1.27695 0.775528 0
M  V30 7732 H 751.786 1.52387 3.92882 0
M  V30 7733 H 750.461 0.589085 3.18295 0
M  V30 7734 H 749.368 2.79817 2.48301 0
M  V30 7735 H 750.701 3.66843 3.28157 0
M  V30 7736 N 752.353 -0.854086 1.3245 0
M  V30 7737 C 753.63 -1.59188 1.1366 0
M  V30 7738 C 754.01 -2.08917 -0.302807 0
M  V30 7739 O 753.358 -1.8795 -1.29951 0
M  V30 7740 C 753.568 -2.73757 2.16467 0
M  V30 7741 C 754.916 -3.43323 2.49829 0
M  V30 7742 O 755.94 -2.83983 2.15017 0
M  V30 7743 O 754.799 -4.50409 3.09506 0
M  V30 7744 H 751.893 -0.701092 0.438633 0
M  V30 7745 H 754.439 -0.898165 1.43983 0
M  V30 7746 H 753.211 -2.3454 3.1322 0
M  V30 7747 H 752.834 -3.50804 1.87142 0
M  V30 7748 N 753.831 -1.1567 -1.07043 0
M  V30 7749 C 755.077 -0.9349 -1.79965 0
M  V30 7750 C 755.41 0.536464 -1.86643 0
M  V30 7751 O 754.685 1.39781 -1.35247 0
M  V30 7752 C 754.968 -1.55371 -3.24857 0
M  V30 7753 C 754.821 -3.09589 -3.26305 0
M  V30 7754 C 756.14 -1.24209 -4.22209 0
M  V30 7755 H 753.259 -0.341061 -0.653335 0
M  V30 7756 H 755.901 -1.42883 -1.25237 0
M  V30 7757 H 754.051 -1.13368 -3.71591 0
M  V30 7758 H 755.723 -3.60521 -2.87789 0
M  V30 7759 H 753.966 -3.43315 -2.65174 0
M  V30 7760 H 754.637 -3.48002 -4.28484 0
M  V30 7761 H 757.113 -1.60548 -3.8388 0
M  V30 7762 H 755.989 -1.70119 -5.21872 0
M  V30 7763 H 756.25 -0.15964 -4.41812 0
M  V30 7764 N 755.309 1.25446 -0.953992 0
M  V30 7765 C 756.239 2.28264 -0.491717 0
M  V30 7766 C 757.22 1.63717 0.461617 0
M  V30 7767 O 758.405 1.90821 0.36071 0
M  V30 7768 C 755.535 3.46525 0.231915 0
M  V30 7769 C 754.489 4.23247 -0.636098 0
M  V30 7770 C 753.815 5.34254 0.218238 0
M  V30 7771 C 755.115 4.85971 -1.91389 0
M  V30 7772 H 756.809 2.67183 -1.35106 0
M  V30 7773 H 754.355 1.2844 -0.651095 0
M  V30 7774 H 756.308 4.17576 0.566439 0
M  V30 7775 H 755.032 3.06594 1.12551 0
M  V30 7776 H 753.691 3.53978 -0.953696 0
M  V30 7777 H 753.339 4.90564 1.11156 0
M  V30 7778 H 753.039 5.86501 -0.359232 0
M  V30 7779 H 754.563 6.08138 0.547743 0
M  V30 7780 H 755.977 5.49168 -1.64581 0
M  V30 7781 H 754.374 5.48391 -2.43696 0
M  V30 7782 H 755.444 4.08192 -2.61738 0
M  V30 7783 N 756.787 0.722489 1.40064 0
M  V30 7784 C 758.036 0.261932 1.99992 0
M  V30 7785 C 758.349 -1.15358 1.57961 0
M  V30 7786 O 759.555 -1.71301 2.10637 0
M  V30 7787 C 758.011 0.41737 3.57472 0
M  V30 7788 C 757.619 1.83997 4.08472 0
M  V30 7789 C 759.363 0.0179561 4.24496 0
M  V30 7790 C 757.27 1.94563 5.5848 0
M  V30 7791 H 756.2 0.0941768 0.748095 0
M  V30 7792 H 758.851 0.894572 1.60218 0
M  V30 7793 H 757.233 -0.283965 3.94981 0
M  V30 7794 H 758.407 2.57224 3.82325 0
M  V30 7795 H 756.722 2.19147 3.54067 0
M  V30 7796 H 759.319 0.076085 5.34646 0
M  V30 7797 H 759.662 -1.02498 4.03485 0
M  V30 7798 H 760.195 0.669988 3.92117 0
M  V30 7799 H 756.934 2.97001 5.84355 0
M  V30 7800 H 756.454 1.25756 5.86469 0
M  V30 7801 H 758.133 1.72095 6.23692 0
M  V30 7802 N 758.265 -1.50454 0.469181 0
M  V30 7803 C 759.676 -1.86695 0.0136034 0
M  V30 7804 C 760.027 -1.38413 -1.39055 0
M  V30 7805 O 759.152 -0.748294 -2.03051 0
M  V30 7806 C 759.747 -3.38795 0.0179098 0
M  V30 7807 C 758.306 -3.74455 -0.382191 0
M  V30 7808 C 757.453 -2.74338 0.404207 0
M  V30 7809 H 760.404 -1.43225 0.683547 0
M  V30 7810 H 760.425 -3.72321 -0.78468 0
M  V30 7811 H 759.937 -3.73906 1.04 0
M  V30 7812 H 758.038 -3.44944 -1.4087 0
M  V30 7813 H 758.151 -4.79025 -0.084862 0
M  V30 7814 H 756.515 -2.54305 -0.141829 0
M  V30 7815 H 757.298 -3.12293 1.42577 0
M  V30 7816 N 759.743 -0.201713 -1.56304 0
M  V30 7817 C 760.653 0.728296 -2.23009 0
M  V30 7818 C 761.669 1.22945 -1.23128 0
M  V30 7819 O 762.845 1.27523 -1.55884 0
M  V30 7820 C 759.91 1.92792 -2.88153 0
M  V30 7821 C 758.971 1.47068 -4.03323 0
M  V30 7822 C 758.204 2.61312 -4.65351 0
M  V30 7823 O 758.427 3.7896 -4.26317 0
M  V30 7824 O 757.361 2.33646 -5.54701 0
M  V30 7825 H 761.187 0.190166 -3.03104 0
M  V30 7826 H 758.772 0.0278725 -1.49374 0
M  V30 7827 H 760.654 2.6289 -3.29343 0
M  V30 7828 H 759.329 2.45452 -2.11033 0
M  V30 7829 H 758.236 0.738299 -3.66742 0
M  V30 7830 H 759.569 0.990666 -4.82127 0
M  V30 7831 N 761.222 1.57436 0.0718424 0
M  V30 7832 C 762.154 2.00412 1.1121 0
M  V30 7833 C 763.167 0.910074 1.34987 0
M  V30 7834 O 764.356 1.18796 1.33228 0
M  V30 7835 C 761.456 2.32786 2.46301 0
M  V30 7836 C 760.629 3.64036 2.4248 0
M  V30 7837 C 759.688 3.8408 3.59679 0
M  V30 7838 O 758.714 4.55667 3.4111 0
M  V30 7839 N 759.916 3.2643 4.80025 0
M  V30 7840 H 762.681 2.90264 0.746118 0
M  V30 7841 H 760.242 1.59791 0.260495 0
M  V30 7842 H 762.234 2.43368 3.23348 0
M  V30 7843 H 760.804 1.48824 2.74901 0
M  V30 7844 H 760.024 3.64208 1.50818 0
M  V30 7845 H 761.312 4.50217 2.37027 0
M  V30 7846 H 760.71 2.68325 4.98014 0
M  V30 7847 H 759.267 3.42461 5.54584 0
M  V30 7848 N 762.7 -0.34323 1.53817 0
M  V30 7849 C 763.632 -1.44216 1.78141 0
M  V30 7850 C 764.645 -1.48701 0.662721 0
M  V30 7851 O 765.834 -1.51778 0.939458 0
M  V30 7852 C 762.934 -2.82872 1.86646 0
M  V30 7853 C 762.107 -3.01824 3.16577 0
M  V30 7854 C 761.166 -4.20723 3.16036 0
M  V30 7855 O 760.192 -4.14824 3.89756 0
M  V30 7856 N 761.394 -5.29276 2.38427 0
M  V30 7857 H 764.159 -1.23721 2.72971 0
M  V30 7858 H 761.72 -0.53311 1.52871 0
M  V30 7859 H 763.712 -3.60588 1.83735 0
M  V30 7860 H 762.282 -2.96509 0.990014 0
M  V30 7861 H 761.502 -2.11575 3.3261 0
M  V30 7862 H 762.79 -3.11369 4.02402 0
M  V30 7863 H 762.188 -5.36938 1.78085 0
M  V30 7864 H 760.745 -6.05484 2.41313 0
M  V30 7865 N 764.178 -1.45556 -0.604258 0
M  V30 7866 C 765.425 -1.49746 -1.36317 0
M  V30 7867 C 765.753 -0.140516 -1.93992 0
M  V30 7868 O 765.008 0.861244 -1.7573 0
M  V30 7869 C 765.307 -2.52697 -2.52743 0
M  V30 7870 C 764.973 -3.97315 -2.13195 0
M  V30 7871 C 763.635 -4.36692 -2.02123 0
M  V30 7872 C 765.987 -4.88249 -1.8238 0
M  V30 7873 C 763.315 -5.64895 -1.58463 0
M  V30 7874 C 765.667 -6.16867 -1.40205 0
M  V30 7875 C 764.331 -6.55172 -1.27694 0
M  V30 7876 H 763.601 -0.54796 -0.49882 0
M  V30 7877 H 766.248 -1.7892 -0.682643 0
M  V30 7878 H 764.553 -2.17105 -3.26148 0
M  V30 7879 H 766.25 -2.53176 -3.10971 0
M  V30 7880 H 762.84 -3.66176 -2.22739 0
M  V30 7881 H 767.024 -4.58561 -1.89829 0
M  V30 7882 H 762.28 -5.93365 -1.47402 0
M  V30 7883 H 766.454 -6.86771 -1.15408 0
M  V30 7884 H 764.081 -7.54411 -0.936375 0
M  V30 7885 N 765.656 0.84705 -1.32902 0
M  V30 7886 C 766.884 1.63403 -1.26913 0
M  V30 7887 C 767.299 1.88108 0.161483 0
M  V30 7888 O 766.656 1.45546 1.10103 0
M  V30 7889 C 766.707 2.98896 -2.03331 0
M  V30 7890 O 766.428 2.75281 -3.40811 0
M  V30 7891 C 767.929 3.93335 -2.04457 0
M  V30 7892 H 765.149 0.508701 -0.437566 0
M  V30 7893 H 767.693 1.05567 -1.75145 0
M  V30 7894 H 765.848 3.53356 -1.58802 0
M  V30 7895 H 766.262 3.61504 -3.8002 0
M  V30 7896 H 767.736 4.85647 -2.62394 0
M  V30 7897 H 768.213 4.26885 -1.03274 0
M  V30 7898 H 768.819 3.44812 -2.48967 0
M  V30 7899 N 767.134 1.16236 1.06428 0
M  V30 7900 C 768.064 0.890807 2.1584 0
M  V30 7901 C 769.045 -0.162333 1.69324 0
M  V30 7902 O 770.23 -0.0147191 1.94194 0
M  V30 7903 C 767.36 0.389615 3.45108 0
M  V30 7904 C 766.314 1.38051 4.05125 0
M  V30 7905 C 765.64 0.737773 5.29586 0
M  V30 7906 C 766.94 2.74965 4.44062 0
M  V30 7907 H 768.634 1.80577 2.38814 0
M  V30 7908 H 766.18 0.869657 1.14774 0
M  V30 7909 H 768.133 0.187127 4.20984 0
M  V30 7910 H 766.857 -0.560851 3.21748 0
M  V30 7911 H 765.516 1.56952 3.31303 0
M  V30 7912 H 765.164 -0.219135 5.02522 0
M  V30 7913 H 764.864 1.39914 5.70699 0
M  V30 7914 H 766.388 0.545275 6.0816 0
M  V30 7915 H 767.802 2.59855 5.11027 0
M  V30 7916 H 766.199 3.37563 4.96156 0
M  V30 7917 H 767.269 3.30321 3.54987 0
M  V30 7918 N 768.612 -1.24939 0.960631 0
M  V30 7919 C 769.86 -1.92437 0.617441 0
M  V30 7920 C 770.181 -1.75543 -0.849101 0
M  V30 7921 O 769.451 -1.12269 -1.60538 0
M  V30 7922 H 768.031 -0.712192 0.225371 0
M  V30 7923 H 770.693 -1.5198 1.22017 0
M  V30 7924 H 769.789 -3.00247 0.851933 0
M  V30 7925 N 770.09 -0.729906 -1.39679 0
M  V30 7926 C 771.506 -0.404951 -1.54377 0
M  V30 7927 C 771.706 1.08476 -1.6981 0
M  V30 7928 O 770.762 1.87087 -1.69572 0
M  V30 7929 C 772.075 -1.18352 -2.76429 0
M  V30 7930 C 773.623 -1.17124 -2.9026 0
M  V30 7931 C 774.098 -1.93227 -4.15244 0
M  V30 7932 N 775.589 -1.90368 -4.22273 0
M  V30 7933 C 776.324 -2.46065 -5.17918 0
M  V30 7934 N 775.82 -3.10378 -6.19385 0
M  V30 7935 N 777.613 -2.36127 -5.10099 0
M  V30 7936 H 769.764 -1.69567 -1.27909 0
M  V30 7937 H 772.027 -0.717527 -0.619564 0
M  V30 7938 H 771.733 -2.23743 -2.71352 0
M  V30 7939 H 771.607 -0.784589 -3.6895 0
M  V30 7940 H 773.994 -0.125478 -2.94833 0
M  V30 7941 H 774.075 -1.60951 -1.98817 0
M  V30 7942 H 773.719 -2.97802 -4.11432 0
M  V30 7943 H 773.649 -1.4681 -5.05722 0
M  V30 7944 H 776.14 -1.4351 -3.4959 0
M  V30 7945 H 776.453 -3.50358 -6.88817 0
M  V30 7946 H 774.798 -3.14467 -6.19787 0
M  V30 7947 H 777.989 -1.85529 -4.29763 0
M  V30 7948 H 778.162 -2.79833 -5.84463 0
M  V30 7949 N 771.568 1.50203 -0.477153 0
M  V30 7950 C 772.501 2.25343 0.359983 0
M  V30 7951 C 773.479 1.28909 0.991022 0
M  V30 7952 O 774.663 1.58146 1.02578 0
M  V30 7953 C 771.79 3.03431 1.5049 0
M  V30 7954 C 770.836 4.14836 0.99063 0
M  V30 7955 S 771.669 5.35407 -0.0995413 0
M  V30 7956 C 772.825 6.17045 1.04911 0
M  V30 7957 H 773.058 2.95999 -0.277836 0
M  V30 7958 H 770.591 1.52159 -0.262115 0
M  V30 7959 H 772.549 3.49012 2.16105 0
M  V30 7960 H 771.21 2.32289 2.11425 0
M  V30 7961 H 770.403 4.689 1.84794 0
M  V30 7962 H 770.005 3.71723 0.412097 0
M  V30 7963 H 772.297 6.48546 1.95946 0
M  V30 7964 H 773.24 7.05979 0.547596 0
M  V30 7965 H 773.648 5.49193 1.30567 0
M  V30 7966 N 773.046 0.209999 1.56195 0
M  V30 7967 C 773.976 -0.699746 2.22769 0
M  V30 7968 C 774.957 -1.20993 1.1956 0
M  V30 7969 O 776.142 -1.25605 1.48112 0
M  V30 7970 C 773.272 -1.91302 2.89863 0
M  V30 7971 C 772.226 -1.53715 3.99444 0
M  V30 7972 C 771.552 -2.82826 4.53777 0
M  V30 7973 C 772.852 -0.735836 5.17091 0
M  V30 7974 H 774.546 -0.144716 2.9905 0
M  V30 7975 H 772.092 -0.0681645 1.43839 0
M  V30 7976 H 774.045 -2.5548 3.35124 0
M  V30 7977 H 772.769 -2.49283 2.11011 0
M  V30 7978 H 771.428 -0.918892 3.54897 0
M  V30 7979 H 771.076 -3.38927 3.71669 0
M  V30 7980 H 770.776 -2.58415 5.27727 0
M  V30 7981 H 772.3 -3.47966 5.01749 0
M  V30 7982 H 773.714 -1.28105 5.58804 0
M  V30 7983 H 772.111 -0.589272 5.972 0
M  V30 7984 H 773.181 0.260004 4.84202 0
M  V30 7985 N 774.524 -1.57472 -0.0634922 0
M  V30 7986 C 775.772 -1.87283 -0.759563 0
M  V30 7987 C 776.093 -0.803135 -1.77693 0
M  V30 7988 O 775.363 0.167293 -1.95184 0
M  V30 7989 H 773.943 -0.691106 -0.283516 0
M  V30 7990 H 776.605 -1.94864 -0.0376091 0
M  V30 7991 H 775.701 -2.85064 -1.27062 0
M  V30 7992 N 776.003 0.335068 -1.53997 0
M  V30 7993 C 776.95 1.41187 -1.82579 0
M  V30 7994 C 777.92 1.51897 -0.672061 0
M  V30 7995 O 779.105 1.673 -0.917346 0
M  V30 7996 C 776.245 2.77717 -2.0486 0
M  V30 7997 C 775.358 2.7573 -3.32561 0
M  V30 7998 C 774.493 4.04032 -3.44864 0
M  V30 7999 C 773.532 3.96308 -4.66483 0
M  V30 8000 N 772.669 5.16317 -4.75774 0
M  V30 8001 H 777.509 1.16113 -2.74448 0
M  V30 8002 H 775.046 0.562305 -1.35928 0
M  V30 8003 H 777.004 3.57071 -2.15768 0
M  V30 8004 H 775.634 3.01124 -1.16294 0
M  V30 8005 H 774.686 1.88432 -3.3045 0
M  V30 8006 H 775.998 2.65902 -4.22016 0
M  V30 8007 H 775.152 4.91814 -3.55251 0
M  V30 8008 H 773.891 4.16652 -2.53481 0
M  V30 8009 H 772.896 3.06911 -4.56164 0
M  V30 8010 H 774.121 3.85263 -5.5924 0
M  V30 8011 H 772.067 5.29464 -3.87303 0
M  V30 8012 H 771.984 5.08779 -5.59178 0
M  V30 8013 H 773.252 6.05846 -4.9048 0
M  V30 8014 N 777.481 1.45874 0.596531 0
M  V30 8015 C 778.729 1.5017 1.35253 0
M  V30 8016 C 779.05 0.149246 1.94428 0
M  V30 8017 O 778.32 -0.82268 1.77789 0
M  V30 8018 H 776.9 0.553052 0.502138 0
M  V30 8019 H 779.562 1.81908 0.699671 0
M  V30 8020 H 778.658 2.24671 2.16632 0
M  V30 8021 N 778.959 -0.83999 1.33349 0
M  V30 8022 C 779.869 -1.98182 1.25543 0
M  V30 8023 C 780.885 -1.73204 0.166208 0
M  V30 8024 O 782.061 -1.97596 0.389589 0
M  V30 8025 C 779.126 -3.32157 0.993614 0
M  V30 8026 C 778.187 -3.70258 2.17273 0
M  V30 8027 C 777.42 -4.9784 1.92331 0
M  V30 8028 O 777.643 -5.63679 0.873074 0
M  V30 8029 O 776.577 -5.33418 2.78835 0
M  V30 8030 H 780.403 -2.07708 2.21565 0
M  V30 8031 H 777.988 -0.972852 1.13384 0
M  V30 8032 H 779.87 -4.12433 0.864711 0
M  V30 8033 H 778.545 -3.23637 0.0636596 0
M  V30 8034 H 777.452 -2.90497 2.35716 0
M  V30 8035 H 778.785 -3.83442 3.08598 0
M  V30 8036 N 780.437 -1.16799 -1.0581 0
M  V30 8037 C 781.684 -0.952524 -1.78699 0
M  V30 8038 C 782.012 0.51931 -1.87439 0
M  V30 8039 O 781.267 1.40151 -1.36587 0
M  V30 8040 C 781.566 -1.53111 -3.22942 0
M  V30 8041 C 781.232 -3.0261 -3.34273 0
M  V30 8042 C 779.894 -3.43418 -3.37072 0
M  V30 8043 C 782.246 -3.98611 -3.35795 0
M  V30 8044 C 779.574 -4.78838 -3.39015 0
M  V30 8045 C 781.926 -5.33923 -3.39277 0
M  V30 8046 C 780.59 -5.74205 -3.40361 0
M  V30 8047 H 779.86 -0.348553 -0.653905 0
M  V30 8048 H 782.507 -1.45591 -1.244 0
M  V30 8049 H 780.812 -0.949286 -3.80126 0
M  V30 8050 H 782.509 -1.34002 -3.77948 0
M  V30 8051 H 779.099 -2.70075 -3.32803 0
M  V30 8052 H 783.283 -3.68146 -3.32839 0
M  V30 8053 H 778.539 -5.09369 -3.38161 0
M  V30 8054 H 782.713 -6.08094 -3.39403 0
M  V30 8055 H 780.34 -6.79117 -3.4162 0
M  V30 8056 N 781.915 1.24427 -0.967243 0
M  V30 8057 C 783.163 1.92107 -0.627638 0
M  V30 8058 C 783.484 1.75991 0.83978 0
M  V30 8059 O 782.754 1.13118 1.59941 0
M  V30 8060 H 781.334 0.710986 -0.229145 0
M  V30 8061 H 783.996 1.51331 -1.22821 0
M  V30 8062 H 783.092 2.99791 -0.867844 0
M  V30 8063 N 783.393 0.737304 1.3929 0
M  V30 8064 C 784.618 0.295237 2.05288 0
M  V30 8065 C 785.043 -1.06235 1.55228 0
M  V30 8066 O 784.401 -1.67365 0.697043 0
M  V30 8067 C 784.449 0.309146 3.59272 0
M  V30 8068 O 783.553 -0.702437 4.06374 0
M  V30 8069 H 782.894 0.133762 0.650387 0
M  V30 8070 H 785.424 1.00387 1.78279 0
M  V30 8071 H 785.434 0.154336 4.07708 0
M  V30 8072 H 784.109 1.29974 3.95069 0
M  V30 8073 H 782.686 -0.513574 3.69346 0
M  V30 8074 N 784.871 -1.49948 0.485112 0
M  V30 8075 C 786.117 -2.02695 -0.0651022 0
M  V30 8076 C 786.45 -1.36534 -1.38102 0
M  V30 8077 O 785.725 -0.495677 -1.88078 0
M  V30 8078 C 786.008 -3.59337 -0.234285 0
M  V30 8079 C 785.861 -4.3605 1.10364 0
M  V30 8080 C 787.18 -4.28996 -0.982351 0
M  V30 8081 H 784.299 -0.736666 -0.0221856 0
M  V30 8082 H 786.941 -1.7913 0.633433 0
M  V30 8083 H 785.091 -3.79546 -0.829262 0
M  V30 8084 H 786.763 -4.27377 1.73627 0
M  V30 8085 H 785.006 -3.99236 1.69686 0
M  V30 8086 H 785.677 -5.43959 0.938743 0
M  V30 8087 H 788.153 -4.13346 -0.477904 0
M  V30 8088 H 787.029 -5.38379 -1.06955 0
M  V30 8089 H 787.29 -3.93135 -2.02231 0
M  V30 8090 N 786.349 -0.21828 -1.56081 0
M  V30 8091 C 787.765 0.137168 -1.59009 0
M  V30 8092 C 787.965 1.59215 -1.23503 0
M  V30 8093 O 787.021 2.33178 -0.968716 0
M  V30 8094 C 788.334 -0.186162 -3.00123 0
M  V30 8095 C 789.882 -0.128135 -3.12738 0
M  V30 8096 C 790.357 -0.425094 -4.56023 0
M  V30 8097 N 791.848 -0.374547 -4.61683 0
M  V30 8098 C 792.583 -0.57786 -5.70481 0
M  V30 8099 N 792.079 -0.842771 -6.87655 0
M  V30 8100 N 793.872 -0.510521 -5.59777 0
M  V30 8101 H 786.023 -1.16746 -1.77437 0
M  V30 8102 H 788.286 -0.467706 -0.824594 0
M  V30 8103 H 787.992 -1.19589 -3.30744 0
M  V30 8104 H 787.866 0.500388 -3.73866 0
M  V30 8105 H 790.253 0.872224 -2.81915 0
M  V30 8106 H 790.334 -0.848112 -2.41331 0
M  V30 8107 H 789.978 -1.42288 -4.87562 0
M  V30 8108 H 789.908 0.316038 -5.25651 0
M  V30 8109 H 792.399 -0.177356 -3.77484 0
M  V30 8110 H 792.712 -0.986095 -7.66483 0
M  V30 8111 H 791.057 -0.879929 -6.89407 0
M  V30 8112 H 794.248 -0.303813 -4.67113 0
M  V30 8113 H 794.421 -0.672378 -6.44502 0
M  V30 8114 N 787.827 1.57504 0.0551401 0
M  V30 8115 C 788.737 2.08198 1.08124 0
M  V30 8116 C 789.753 1.01496 1.41331 0
M  V30 8117 O 790.929 1.33073 1.51174 0
M  V30 8118 C 787.994 2.52968 2.37083 0
M  V30 8119 C 787.055 3.7404 2.10696 0
M  V30 8120 C 786.288 4.16665 3.33505 0
M  V30 8121 O 786.511 3.59019 4.4324 0
M  V30 8122 O 785.445 5.09324 3.20737 0
M  V30 8123 H 789.271 2.95977 0.680518 0
M  V30 8124 H 786.856 1.46933 0.270401 0
M  V30 8125 H 788.738 2.82211 3.12946 0
M  V30 8126 H 787.413 1.6831 2.76502 0
M  V30 8127 H 786.32 3.49855 1.32484 0
M  V30 8128 H 787.653 4.59601 1.76148 0
M  V30 8129 N 789.305 -0.326896 1.54172 0
M  V30 8130 C 790.268 -1.38515 1.8261 0
M  V30 8131 C 791.268 -1.44872 0.697771 0
M  V30 8132 O 792.458 -1.44957 0.966078 0
M  V30 8133 C 789.59 -2.77281 1.98313 0
M  V30 8134 H 790.783 -1.14556 2.77159 0
M  V30 8135 H 788.336 -0.562199 1.45839 0
M  V30 8136 H 789.071 -3.065 1.05964 0
M  V30 8137 H 788.856 -2.74061 2.80416 0
M  V30 8138 H 790.346 -3.53845 2.21773 0
M  V30 8139 N 790.784 -1.46188 -0.588786 0
M  V30 8140 C 791.716 -1.52319 -1.71265 0
M  V30 8141 C 792.729 -0.412096 -1.57498 0
M  V30 8142 O 793.918 -0.680146 -1.65034 0
M  V30 8143 C 791.018 -1.38164 -3.09458 0
M  V30 8144 C 790.191 -2.63284 -3.49286 0
M  V30 8145 C 789.25 -2.43415 -4.66514 0
M  V30 8146 O 788.276 -3.17113 -4.72682 0
M  V30 8147 N 789.478 -1.49187 -5.61002 0
M  V30 8148 H 792.243 -2.49219 -1.66463 0
M  V30 8149 H 789.804 -1.42167 -0.774601 0
M  V30 8150 H 791.796 -1.22653 -3.85666 0
M  V30 8151 H 790.366 -0.494678 -3.08661 0
M  V30 8152 H 789.586 -2.93779 -2.62845 0
M  V30 8153 H 790.874 -3.46413 -3.7266 0
M  V30 8154 H 790.272 -0.884027 -5.5875 0
M  V30 8155 H 788.829 -1.39642 -6.36666 0
M  V30 8156 N 792.262 0.832906 -1.33792 0
M  V30 8157 C 793.192 1.95828 -1.27176 0
M  V30 8158 C 794.173 1.69427 -0.15114 0
M  V30 8159 O 795.358 1.91167 -0.341886 0
M  V30 8160 C 792.488 3.32098 -1.01629 0
M  V30 8161 C 791.442 3.72912 -2.10049 0
M  V30 8162 C 790.768 5.07054 -1.69706 0
M  V30 8163 C 792.068 3.86064 -3.51783 0
M  V30 8164 H 793.762 2.01622 -2.21334 0
M  V30 8165 H 791.308 0.96866 -1.0655 0
M  V30 8166 H 793.261 4.10402 -0.956474 0
M  V30 8167 H 791.985 3.26577 -0.0390956 0
M  V30 8168 H 790.644 2.96876 -2.15082 0
M  V30 8169 H 790.292 4.9801 -0.706737 0
M  V30 8170 H 789.992 5.35333 -2.42264 0
M  V30 8171 H 791.516 5.87827 -1.65202 0
M  V30 8172 H 792.93 4.54665 -3.49218 0
M  V30 8173 H 791.327 4.25787 -4.22878 0
M  V30 8174 H 792.397 2.88344 -3.89854 0
M  V30 8175 N 793.74 1.17359 1.05189 0
M  V30 8176 C 794.687 0.890325 2.12936 0
M  V30 8177 C 795.657 -0.165779 1.65271 0
M  V30 8178 O 796.842 -0.0285672 1.90779 0
M  V30 8179 C 793.982 0.409793 3.42658 0
M  V30 8180 C 793.095 1.53002 4.03998 0
M  V30 8181 C 792.23 1.00336 5.21638 0
M  V30 8182 C 791.269 2.09903 5.74984 0
M  V30 8183 N 790.406 1.58714 6.83926 0
M  V30 8184 H 795.246 1.81299 2.36505 0
M  V30 8185 H 792.783 0.904249 1.16025 0
M  V30 8186 H 794.741 0.112743 4.17048 0
M  V30 8187 H 793.371 -0.475915 3.19272 0
M  V30 8188 H 792.423 1.9428 3.27047 0
M  V30 8189 H 793.735 2.3564 4.39631 0
M  V30 8190 H 792.889 0.660158 6.03098 0
M  V30 8191 H 791.628 0.14642 4.8748 0
M  V30 8192 H 790.633 2.45081 4.92154 0
M  V30 8193 H 791.858 2.96013 6.1119 0
M  V30 8194 H 789.804 0.752915 6.51665 0
M  V30 8195 H 789.721 2.34959 7.18561 0
M  V30 8196 H 790.989 1.27287 7.69037 0
M  V30 8197 N 795.218 -1.23913 0.973828 0
M  V30 8198 C 796.15 -2.24397 0.466763 0
M  V30 8199 C 797.163 -1.57078 -0.427828 0
M  V30 8200 O 798.352 -1.76973 -0.233019 0
M  V30 8201 C 795.452 -3.37141 -0.344798 0
M  V30 8202 C 794.625 -4.34037 0.541349 0
M  V30 8203 C 793.684 -5.2576 -0.215243 0
M  V30 8204 O 792.71 -5.67842 0.39291 0
M  V30 8205 N 793.912 -5.60702 -1.5031 0
M  V30 8206 H 796.677 -2.68536 1.33074 0
M  V30 8207 H 794.238 -1.38017 0.846346 0
M  V30 8208 H 796.23 -3.95476 -0.859133 0
M  V30 8209 H 794.8 -2.92239 -1.10974 0
M  V30 8210 H 794.02 -3.74302 1.23659 0
M  V30 8211 H 795.308 -4.95738 1.1455 0
M  V30 8212 H 794.706 -5.28451 -2.01882 0
M  V30 8213 H 793.263 -6.21538 -1.96301 0
M  V30 8214 N 796.696 -0.74468 -1.38897 0
M  V30 8215 C 797.606 -0.112892 -2.34328 0
M  V30 8216 C 798.622 0.71087 -1.58816 0
M  V30 8217 O 799.798 0.637092 -1.91058 0
M  V30 8218 C 796.863 0.776417 -3.37894 0
M  V30 8219 C 795.924 -0.0606999 -4.29257 0
M  V30 8220 C 795.157 0.786258 -5.27877 0
M  V30 8221 O 795.38 2.02463 -5.33259 0
M  V30 8222 O 794.314 0.209781 -6.01534 0
M  V30 8223 H 798.14 -0.900801 -2.90033 0
M  V30 8224 H 795.725 -0.505462 -1.4059 0
M  V30 8225 H 797.607 1.28496 -4.01331 0
M  V30 8226 H 796.282 1.54297 -2.84559 0
M  V30 8227 H 795.189 -0.614984 -3.69011 0
M  V30 8228 H 796.522 -0.789702 -4.85824 0
M  V30 8229 N 798.174 1.49689 -0.493057 0
M  V30 8230 C 799.451 1.9525 0.116907 0
M  V30 8231 C 799.831 1.43429 1.54892 0
M  V30 8232 O 799.179 0.644621 2.19219 0
M  V30 8233 C 799.389 3.4898 0.037705 0
M  V30 8234 C 800.737 4.24052 0.215621 0
M  V30 8235 O 801.761 3.5602 0.113266 0
M  V30 8236 O 800.62 5.44847 0.42477 0
M  V30 8237 H 797.714 0.820973 0.099662 0
M  V30 8238 H 800.26 1.60367 -0.555029 0
M  V30 8239 H 799.032 3.79309 -0.961251 0
M  V30 8240 H 798.655 3.9046 0.750137 0
M  V30 8241 N 799.652 0.226554 1.55963 0
M  V30 8242 C 800.9 -0.402991 1.98041 0
M  V30 8243 C 801.221 -1.59938 1.11557 0
M  V30 8244 O 800.491 -1.9494 0.193719 0
M  V30 8245 H 799.071 -0.15188 0.731397 0
M  V30 8246 H 801.733 0.320613 1.92245 0
M  V30 8247 H 800.829 -0.725937 3.0354 0
M  V30 8248 N 801.13 -1.57531 -0.0467866 0
M  V30 8249 C 802.355 -1.93087 -0.757123 0
M  V30 8250 C 802.78 -0.825116 -1.69037 0
M  V30 8251 O 802.138 0.220449 -1.79955 0
M  V30 8252 C 802.186 -3.27669 -1.5055 0
M  V30 8253 O 801.29 -3.18667 -2.61773 0
M  V30 8254 H 800.631 -0.631597 -0.204892 0
M  V30 8255 H 803.161 -2.04599 -0.00755232 0
M  V30 8256 H 803.171 -3.6214 -1.87932 0
M  V30 8257 H 801.846 -4.07717 -0.820931 0
M  V30 8258 H 800.423 -2.95798 -2.27064 0
M  V30 8259 N 802.608 0.318715 -1.54344 0
M  V30 8260 C 803.855 1.05608 -1.72781 0
M  V30 8261 C 804.183 1.87854 -0.504083 0
M  V30 8262 O 803.438 1.88826 0.51414 0
M  V30 8263 C 803.737 2.00514 -2.95853 0
M  V30 8264 C 803.403 1.34385 -4.30409 0
M  V30 8265 C 802.065 1.16081 -4.66989 0
M  V30 8266 C 804.417 0.869627 -5.13894 0
M  V30 8267 C 801.745 0.490114 -5.84649 0
M  V30 8268 C 804.097 0.212735 -6.32242 0
M  V30 8269 C 802.761 0.0175882 -6.67498 0
M  V30 8270 H 802.031 0.386449 -0.632249 0
M  V30 8271 H 804.678 0.332729 -1.88587 0
M  V30 8272 H 802.983 2.79317 -2.74753 0
M  V30 8273 H 804.68 2.57605 -3.07312 0
M  V30 8274 H 801.27 1.49634 -4.01631 0
M  V30 8275 H 805.454 0.998809 -4.86146 0
M  V30 8276 H 800.71 0.327767 -6.10521 0
M  V30 8277 H 804.884 -0.162699 -6.9621 0
M  V30 8278 H 802.511 -0.504137 -7.58527 0
M  V30 8279 N 804.086 1.46499 0.581025 0
M  V30 8280 C 805.332 1.52121 1.34116 0
M  V30 8281 C 805.665 0.173031 1.93428 0
M  V30 8282 O 804.94 -0.815729 1.76568 0
M  V30 8283 C 805.223 2.62108 2.46924 0
M  V30 8284 C 805.076 4.06462 1.92636 0
M  V30 8285 C 806.395 2.68167 3.48962 0
M  V30 8286 H 803.514 0.5538 0.486287 0
M  V30 8287 H 806.156 1.78443 0.652538 0
M  V30 8288 H 804.306 2.39794 3.05665 0
M  V30 8289 H 805.978 4.40068 1.3834 0
M  V30 8290 H 804.221 4.15862 1.23455 0
M  V30 8291 H 804.892 4.79152 2.74076 0
M  V30 8292 H 807.368 2.8823 3.00104 0
M  V30 8293 H 806.244 3.46942 4.2535 0
M  V30 8294 H 806.505 1.74284 4.06297 0
M  V30 8295 N 805.565 -0.825799 1.34232 0
M  V30 8296 C 806.512 -1.93651 1.2557 0
M  V30 8297 C 807.482 -1.65578 0.131536 0
M  V30 8298 O 808.667 -1.88231 0.312027 0
M  V30 8299 C 805.807 -3.29862 1.01415 0
M  V30 8300 C 804.92 -3.70247 2.22579 0
M  V30 8301 C 804.055 -4.95392 1.91731 0
M  V30 8302 C 803.094 -5.28349 3.09053 0
M  V30 8303 N 802.231 -6.44671 2.78107 0
M  V30 8304 H 807.071 -2.00392 2.20561 0
M  V30 8305 H 804.608 -0.980441 1.09662 0
M  V30 8306 H 806.566 -4.08356 0.854485 0
M  V30 8307 H 805.196 -3.22642 0.100936 0
M  V30 8308 H 804.248 -2.87169 2.49476 0
M  V30 8309 H 805.56 -3.90575 3.10246 0
M  V30 8310 H 804.714 -5.81665 1.72484 0
M  V30 8311 H 803.453 -4.77059 1.0132 0
M  V30 8312 H 802.458 -4.40574 3.289 0
M  V30 8313 H 803.683 -5.48622 4.00239 0
M  V30 8314 H 801.629 -6.278 1.9027 0
M  V30 8315 H 801.546 -6.65158 3.59306 0
M  V30 8316 H 802.814 -7.34022 2.62358 0
M  V30 8317 N 807.043 -1.17915 -1.04565 0
M  V30 8318 C 808.289 -0.972863 -1.77942 0
M  V30 8319 C 808.622 0.496753 -1.87739 0
M  V30 8320 O 807.897 1.3688 -1.38181 0
M  V30 8321 C 808.18 -1.62227 -3.21488 0
M  V30 8322 C 808.033 -3.16441 -3.19664 0
M  V30 8323 C 809.352 -1.33137 -4.19479 0
M  V30 8324 H 806.471 -0.354843 -0.645953 0
M  V30 8325 H 809.113 -1.45508 -1.22178 0
M  V30 8326 H 807.263 -1.21224 -3.69103 0
M  V30 8327 H 808.935 -3.66544 -2.80077 0
M  V30 8328 H 807.178 -3.48863 -2.57832 0
M  V30 8329 H 807.849 -3.57012 -4.21006 0
M  V30 8330 H 810.325 -1.68654 -3.80388 0
M  V30 8331 H 809.201 -1.81151 -5.18146 0
M  V30 8332 H 809.462 -0.253319 -4.41374 0
M  V30 8333 N 808.521 1.23394 -0.980386 0
M  V30 8334 C 809.484 2.23092 -0.525619 0
M  V30 8335 C 810.484 1.56129 0.384745 0
M  V30 8336 O 811.674 1.73284 0.178439 0
M  V30 8337 C 808.806 3.40074 0.23712 0
M  V30 8338 H 809.999 2.64839 -1.40714 0
M  V30 8339 H 807.552 1.36227 -0.766275 0
M  V30 8340 H 808.287 3.03783 1.13518 0
M  V30 8341 H 808.072 3.89883 -0.416356 0
M  V30 8342 H 809.562 4.14043 0.543892 0
M  V30 8343 N 809.999 0.752036 1.385 0
M  V30 8344 C 811.245 0.307958 2.00448 0
M  V30 8345 C 811.578 -1.10702 1.59558 0
M  V30 8346 O 810.853 -1.75788 0.832391 0
M  V30 8347 C 811.136 0.429092 3.57534 0
M  V30 8348 C 810.989 1.88507 4.08393 0
M  V30 8349 C 812.308 -0.178442 4.39738 0
M  V30 8350 H 809.427 0.113373 0.728228 0
M  V30 8351 H 812.069 0.951389 1.64465 0
M  V30 8352 H 810.219 -0.118695 3.88319 0
M  V30 8353 H 811.891 2.49104 3.88259 0
M  V30 8354 H 810.134 2.40066 3.61318 0
M  V30 8355 H 810.805 1.92099 5.17496 0
M  V30 8356 H 813.281 0.28872 4.15097 0
M  V30 8357 H 812.157 -0.0634349 5.48863 0
M  V30 8358 H 812.418 -1.26655 4.23569 0
M  V30 8359 N 811.477 -1.49425 0.500989 0
M  V30 8360 C 812.424 -2.29126 -0.277443 0
M  V30 8361 C 813.394 -1.35522 -0.960363 0
M  V30 8362 O 814.579 -1.64479 -0.967027 0
M  V30 8363 C 811.719 -3.18193 -1.33593 0
M  V30 8364 C 810.832 -4.26854 -0.664791 0
M  V30 8365 C 809.967 -5.03137 -1.70372 0
M  V30 8366 C 809.006 -6.03635 -1.01445 0
M  V30 8367 N 808.143 -6.73083 -1.99758 0
M  V30 8368 H 812.983 -2.95187 0.408458 0
M  V30 8369 H 810.52 -1.45546 0.213275 0
M  V30 8370 H 812.478 -3.68207 -1.96161 0
M  V30 8371 H 811.108 -2.54116 -1.9906 0
M  V30 8372 H 810.16 -3.80328 0.0741708 0
M  V30 8373 H 811.472 -4.9865 -0.122197 0
M  V30 8374 H 810.626 -5.5702 -2.40445 0
M  V30 8375 H 809.365 -4.31114 -2.28017 0
M  V30 8376 H 808.37 -5.48984 -0.299496 0
M  V30 8377 H 809.595 -6.77644 -0.444497 0
M  V30 8378 H 807.541 -6.03832 -2.56365 0
M  V30 8379 H 807.458 -7.40855 -1.50565 0
M  V30 8380 H 808.726 -7.3157 -2.69119 0
M  V30 8381 N 812.955 -0.234822 -1.55841 0
M  V30 8382 C 813.888 0.710134 -2.16869 0
M  V30 8383 C 814.866 1.18155 -1.11706 0
M  V30 8384 O 816.05 1.26188 -1.40032 0
M  V30 8385 C 813.177 1.96368 -2.75966 0
M  V30 8386 C 812.223 1.63114 -3.94076 0
M  V30 8387 S 813.056 0.744307 -5.30302 0
M  V30 8388 C 814.212 2.00712 -5.92845 0
M  V30 8389 H 814.445 0.19146 -2.96683 0
M  V30 8390 H 811.978 -0.0193854 -1.54388 0
M  V30 8391 H 813.936 2.68338 -3.10653 0
M  V30 8392 H 812.597 2.45347 -1.96121 0
M  V30 8393 H 811.79 2.56285 -4.33975 0
M  V30 8394 H 811.392 0.991967 -3.60605 0
M  V30 8395 H 813.684 2.9557 -6.09627 0
M  V30 8396 H 814.627 1.65182 -6.88564 0
M  V30 8397 H 815.035 2.1537 -5.21801 0
M  V30 8398 N 814.433 1.57553 0.0384317 0
M  V30 8399 C 815.363 2.0898 1.04161 0
M  V30 8400 C 816.344 0.99029 1.38301 0
M  V30 8401 O 817.529 1.26499 1.47349 0
M  V30 8402 C 814.659 2.56145 2.34536 0
M  V30 8403 C 813.613 3.70275 2.14663 0
M  V30 8404 C 812.939 4.03612 3.50715 0
M  V30 8405 C 814.239 4.99067 1.54045 0
M  V30 8406 H 815.933 2.93046 0.613548 0
M  V30 8407 H 813.479 1.40973 0.293684 0
M  V30 8408 H 815.432 2.90741 3.05037 0
M  V30 8409 H 814.156 1.6915 2.79385 0
M  V30 8410 H 812.815 3.36013 1.46597 0
M  V30 8411 H 812.463 3.13698 3.93195 0
M  V30 8412 H 812.163 4.80482 3.38247 0
M  V30 8413 H 813.687 4.40735 4.22593 0
M  V30 8414 H 815.101 5.3168 2.14451 0
M  V30 8415 H 813.498 5.80484 1.52178 0
M  V30 8416 H 814.568 4.8226 0.505259 0
M  V30 8417 N 815.911 -0.310526 1.54511 0
M  V30 8418 C 816.858 -1.38264 1.84802 0
M  V30 8419 C 817.828 -1.50808 0.696141 0
M  V30 8420 O 819.013 -1.6582 0.943846 0
M  V30 8421 C 816.153 -2.74422 2.09252 0
M  V30 8422 C 815.266 -2.70405 3.36906 0
M  V30 8423 C 814.401 -3.98495 3.51248 0
M  V30 8424 C 813.44 -3.88836 4.72729 0
M  V30 8425 N 812.577 -5.08683 4.83928 0
M  V30 8426 H 817.417 -1.11732 2.76261 0
M  V30 8427 H 814.954 -0.540609 1.36806 0
M  V30 8428 H 816.912 -3.53593 2.21422 0
M  V30 8429 H 815.542 -2.99235 1.2107 0
M  V30 8430 H 814.594 -1.83151 3.33406 0
M  V30 8431 H 815.906 -2.59155 4.26193 0
M  V30 8432 H 815.06 -4.861 3.63031 0
M  V30 8433 H 813.799 -4.12567 2.60077 0
M  V30 8434 H 812.804 -2.99615 4.60989 0
M  V30 8435 H 814.029 -3.76318 5.65298 0
M  V30 8436 H 811.975 -5.23236 3.95677 0
M  V30 8437 H 811.892 -4.99819 5.67201 0
M  V30 8438 H 813.16 -5.97966 5.00057 0
M  V30 8439 N 817.389 -1.46805 -0.573248 0
M  V30 8440 C 818.352 -1.57655 -1.66366 0
M  V30 8441 C 819.352 -0.452905 -1.5429 0
M  V30 8442 O 820.542 -0.717502 -1.58737 0
M  V30 8443 C 817.674 -1.50584 -3.05839 0
M  V30 8444 H 818.867 -2.54842 -1.581 0
M  V30 8445 H 816.42 -1.34756 -0.791868 0
M  V30 8446 H 817.155 -0.547127 -3.19651 0
M  V30 8447 H 816.94 -2.32118 -3.16012 0
M  V30 8448 H 818.43 -1.61282 -3.85199 0
M  V30 8449 N 818.867 0.818669 -1.34668 0
M  V30 8450 C 820.144 1.56118 -1.17841 0
M  V30 8451 C 820.524 2.09646 0.24731 0
M  V30 8452 O 819.872 1.91329 1.24922 0
M  V30 8453 C 820.082 2.67922 -2.23649 0
M  V30 8454 C 821.43 3.36579 -2.58843 0
M  V30 8455 O 822.454 2.78182 -2.22471 0
M  V30 8456 O 821.313 4.42045 -3.21339 0
M  V30 8457 H 818.407 0.689216 -0.457067 0
M  V30 8458 H 820.953 0.859674 -1.46314 0
M  V30 8459 H 819.725 2.26153 -3.19328 0
M  V30 8460 H 819.348 3.45719 -1.96377 0
M  V30 8461 N 820.346 1.18468 1.03938 0
M  V30 8462 C 821.595 0.975193 1.76558 0
M  V30 8463 C 821.908 -0.495978 1.89207 0
M  V30 8464 O 823.114 -0.824009 2.58694 0
M  V30 8465 C 821.57 1.69579 3.17444 0
M  V30 8466 C 821.178 3.20636 3.12884 0
M  V30 8467 C 822.922 1.56917 3.94433 0
M  V30 8468 C 820.829 3.8533 4.48636 0
M  V30 8469 H 819.759 0.361244 0.66183 0
M  V30 8470 H 822.41 1.41854 1.16403 0
M  V30 8471 H 820.792 1.18022 3.78004 0
M  V30 8472 H 821.966 3.79228 2.61768 0
M  V30 8473 H 820.281 3.33454 2.49394 0
M  V30 8474 H 822.878 2.02611 4.94826 0
M  V30 8475 H 823.221 0.521638 4.13019 0
M  V30 8476 H 823.754 2.05762 3.40451 0
M  V30 8477 H 820.493 4.90136 4.35255 0
M  V30 8478 H 820.013 3.31526 4.99851 0
M  V30 8479 H 821.692 3.88269 5.17549 0
M  V30 8480 N 821.824 -1.22873 0.986916 0
M  V30 8481 C 823.073 -1.90772 0.654911 0
M  V30 8482 C 823.386 -1.77768 -0.81595 0
M  V30 8483 O 824.592 -2.40529 -1.25929 0
M  V30 8484 C 823.048 -3.42003 1.12081 0
M  V30 8485 C 822.656 -3.63655 2.61647 0
M  V30 8486 C 824.4 -4.15638 0.862854 0
M  V30 8487 C 822.307 -5.08555 3.01871 0
M  V30 8488 H 821.237 -0.714362 0.241252 0
M  V30 8489 H 823.888 -1.39196 1.19568 0
M  V30 8490 H 822.27 -3.92725 0.508207 0
M  V30 8491 H 823.444 -3.2345 3.28202 0
M  V30 8492 H 821.759 -3.03341 2.8526 0
M  V30 8493 H 824.356 -5.22425 1.13915 0
M  V30 8494 H 824.699 -4.15814 -0.201036 0
M  V30 8495 H 825.232 -3.70924 1.43736 0
M  V30 8496 H 821.971 -5.13514 4.07411 0
M  V30 8497 H 821.491 -5.49684 2.40015 0
M  V30 8498 H 823.17 -5.76936 2.92839 0
M  V30 8499 N 823.302 -0.75937 -1.38099 0
M  V30 8500 C 824.265 -0.14372 -2.28749 0
M  V30 8501 C 825.265 0.641338 -1.47457 0
M  V30 8502 O 826.455 0.466751 -1.67831 0
M  V30 8503 C 823.587 0.804545 -3.3127 0
M  V30 8504 H 824.78 -0.942663 -2.847 0
M  V30 8505 H 822.333 -0.526757 -1.47156 0
M  V30 8506 H 823.068 1.62895 -2.80421 0
M  V30 8507 H 822.853 0.243939 -3.9134 0
M  V30 8508 H 824.343 1.23111 -3.99041 0
M  V30 8509 N 824.78 1.49157 -0.508906 0
M  V30 8510 C 826.005 2.07376 0.0315182 0
M  V30 8511 C 826.43 1.36575 1.2934 0
M  V30 8512 O 825.788 0.424963 1.76249 0
M  V30 8513 C 825.836 3.59661 0.260118 0
M  V30 8514 O 824.94 3.90255 1.33322 0
M  V30 8515 H 824.281 0.663334 -0.029739 0
M  V30 8516 H 826.811 1.91857 -0.710791 0
M  V30 8517 H 826.821 4.05056 0.489225 0
M  V30 8518 H 825.496 4.10601 -0.661794 0
M  V30 8519 H 824.073 3.56661 1.08844 0
M  V30 8520 N 826.258 0.243083 1.55714 0
M  V30 8521 C 827.483 -0.389944 2.03701 0
M  V30 8522 C 827.908 -1.51025 1.12129 0
M  V30 8523 O 827.266 -1.80944 0.11352 0
M  V30 8524 C 827.314 -0.878649 3.49731 0
M  V30 8525 O 826.418 -1.98851 3.61292 0
M  V30 8526 H 825.759 -0.0855115 0.658471 0
M  V30 8527 H 828.289 0.368023 2.01263 0
M  V30 8528 H 828.299 -1.18287 3.90477 0
M  V30 8529 H 826.974 -0.0588107 4.15858 0
M  V30 8530 H 825.551 -1.68928 3.32442 0
M  V30 8531 N 827.736 -1.57571 -0.0300757 0
M  V30 8532 C 829.013 -1.80381 -0.756447 0
M  V30 8533 C 829.393 -0.840906 -1.93628 0
M  V30 8534 O 828.741 0.117143 -2.282 0
M  V30 8535 C 828.951 -3.2807 -1.19043 0
M  V30 8536 C 830.299 -3.93025 -1.60676 0
M  V30 8537 O 831.323 -3.32213 -1.28503 0
M  V30 8538 O 830.182 -5.00092 -2.20386 0
M  V30 8539 H 827.276 -0.741737 -0.365725 0
M  V30 8540 H 829.822 -1.69699 -0.00693177 0
M  V30 8541 H 828.594 -3.89748 -0.348128 0
M  V30 8542 H 828.217 -3.43637 -1.99999 0
M  V30 8543 N 829.214 0.302327 -1.54673 0
M  V30 8544 C 830.463 1.03533 -1.73101 0
M  V30 8545 C 830.776 1.88473 -0.523174 0
M  V30 8546 O 831.982 2.65029 -0.589229 0
M  V30 8547 C 830.438 1.89043 -3.06252 0
M  V30 8548 C 830.046 1.09112 -4.3451 0
M  V30 8549 C 831.79 2.61951 -3.34039 0
M  V30 8550 C 829.697 1.93891 -5.58713 0
M  V30 8551 H 828.627 0.390261 -0.645145 0
M  V30 8552 H 831.278 0.2924 -1.81155 0
M  V30 8553 H 829.66 2.67319 -2.92159 0
M  V30 8554 H 830.834 0.354596 -4.59434 0
M  V30 8555 H 829.149 0.477923 -4.13648 0
M  V30 8556 H 831.746 3.25729 -4.24033 0
M  V30 8557 H 832.089 3.30711 -2.52855 0
M  V30 8558 H 832.622 1.90725 -3.49097 0
M  V30 8559 H 829.361 1.29604 -6.4256 0
M  V30 8560 H 828.881 2.6522 -5.37976 0
M  V30 8561 H 830.56 2.51971 -5.95919 0
M  V30 8562 N 830.692 1.47107 0.565454 0
M  V30 8563 C 831.602 1.61591 1.70075 0
M  V30 8564 C 832.618 0.498931 1.66693 0
M  V30 8565 O 833.794 0.765372 1.8629 0
M  V30 8566 C 830.859 1.61887 3.06583 0
M  V30 8567 C 829.92 2.84949 3.21096 0
M  V30 8568 C 829.153 2.85221 4.51093 0
M  V30 8569 O 829.376 1.94959 5.36048 0
M  V30 8570 O 828.31 3.76982 4.69221 0
M  V30 8571 H 832.136 2.57638 1.60799 0
M  V30 8572 H 829.721 1.30097 0.73451 0
M  V30 8573 H 831.603 1.64809 3.87835 0
M  V30 8574 H 830.278 0.69005 3.16259 0
M  V30 8575 H 829.185 2.87575 2.39273 0
M  V30 8576 H 830.518 3.77098 3.1632 0
M  V30 8577 N 832.17 -0.811516 1.35101 0
M  V30 8578 C 833.08 -1.95475 1.29718 0
M  V30 8579 C 834.096 -1.72813 0.202909 0
M  V30 8580 O 835.272 -1.96725 0.431414 0
M  V30 8581 C 832.337 -3.29975 1.06385 0
M  V30 8582 C 831.398 -3.65566 2.25077 0
M  V30 8583 C 830.631 -4.93648 2.02848 0
M  V30 8584 O 830.854 -5.617 0.992442 0
M  V30 8585 O 829.788 -5.27384 2.90087 0
M  V30 8586 H 833.614 -2.02961 2.25921 0
M  V30 8587 H 831.199 -0.948583 1.15422 0
M  V30 8588 H 833.081 -4.10506 0.951999 0
M  V30 8589 H 831.756 -3.2343 0.132294 0
M  V30 8590 H 830.663 -2.85432 2.41825 0
M  V30 8591 H 831.996 -3.7681 3.16662 0
M  V30 8592 N 833.648 -1.19017 -1.03309 0
M  V30 8593 C 834.895 -0.990214 -1.76638 0
M  V30 8594 C 835.223 0.479435 -1.88498 0
M  V30 8595 O 834.478 1.37223 -1.39529 0
M  V30 8596 C 834.777 -1.59927 -3.19622 0
M  V30 8597 C 834.443 -3.09632 -3.27779 0
M  V30 8598 C 833.105 -3.50491 -3.29712 0
M  V30 8599 C 835.457 -4.05644 -3.27264 0
M  V30 8600 C 832.785 -4.85921 -3.28782 0
M  V30 8601 C 835.137 -5.41 -3.27875 0
M  V30 8602 C 833.801 -5.81295 -3.28104 0
M  V30 8603 H 833.071 -0.362345 -0.646364 0
M  V30 8604 H 835.718 -1.48197 -1.21284 0
M  V30 8605 H 834.023 -1.0297 -3.78027 0
M  V30 8606 H 835.72 -1.41989 -3.7502 0
M  V30 8607 H 832.31 -2.77073 -3.26999 0
M  V30 8608 H 836.494 -3.75124 -3.24955 0
M  V30 8609 H 831.75 -5.16427 -3.27281 0
M  V30 8610 H 835.924 -6.15157 -3.26428 0
M  V30 8611 H 833.551 -6.86211 -3.27138 0
M  V30 8612 N 835.127 1.22348 -0.993418 0
M  V30 8613 C 836.057 2.26584 -0.564088 0
M  V30 8614 C 837.038 1.65102 0.409298 0
M  V30 8615 O 838.223 1.91872 0.299819 0
M  V30 8616 C 835.353 3.47087 0.121554 0
M  V30 8617 C 834.307 4.21009 -0.770429 0
M  V30 8618 C 833.633 5.34678 0.0481586 0
M  V30 8619 C 834.933 4.79636 -2.06752 0
M  V30 8620 H 836.627 2.62749 -1.43538 0
M  V30 8621 H 834.173 1.26303 -0.691628 0
M  V30 8622 H 836.126 4.19166 0.433303 0
M  V30 8623 H 834.85 3.1002 1.0274 0
M  V30 8624 H 833.509 3.50764 -1.06583 0
M  V30 8625 H 833.157 4.93852 0.954933 0
M  V30 8626 H 832.857 5.85061 -0.545641 0
M  V30 8627 H 834.381 6.09573 0.353991 0
M  V30 8628 H 835.795 5.43654 -1.81969 0
M  V30 8629 H 834.192 5.4036 -2.61019 0
M  V30 8630 H 835.262 3.99659 -2.74592 0
M  V30 8631 N 836.605 0.766683 1.37694 0
M  V30 8632 C 838.021 0.445739 1.53249 0
M  V30 8633 C 838.221 -1.03935 1.72626 0
M  V30 8634 O 837.277 -1.82525 1.74473 0
M  V30 8635 C 838.59 1.2564 2.73194 0
M  V30 8636 C 840.138 1.24779 2.87053 0
M  V30 8637 C 840.613 2.04169 4.09974 0
M  V30 8638 N 842.104 2.01497 4.17077 0
M  V30 8639 C 842.839 2.5971 5.11212 0
M  V30 8640 N 842.335 3.26691 6.10938 0
M  V30 8641 N 844.128 2.49568 5.03659 0
M  V30 8642 H 836.279 1.72899 1.23368 0
M  V30 8643 H 838.542 0.733701 0.600322 0
M  V30 8644 H 838.248 2.30859 2.65324 0
M  V30 8645 H 838.122 0.882133 3.6674 0
M  V30 8646 H 840.509 0.203603 2.94397 0
M  V30 8647 H 840.59 1.66166 1.9448 0
M  V30 8648 H 840.234 3.08606 4.03392 0
M  V30 8649 H 840.164 1.60167 5.01651 0
M  V30 8650 H 842.655 1.52728 3.45662 0
M  V30 8651 H 842.968 3.68497 6.79286 0
M  V30 8652 H 841.313 3.30789 6.11231 0
M  V30 8653 H 844.504 1.96859 4.24693 0
M  V30 8654 H 844.677 2.95231 5.76839 0
M  V30 8655 N 838.083 -1.48885 0.516809 0
M  V30 8656 C 838.993 -2.33185 -0.257293 0
M  V30 8657 C 840.009 -1.4565 -0.951952 0
M  V30 8658 O 841.185 -1.78651 -0.929834 0
M  V30 8659 C 838.25 -3.21465 -1.29851 0
M  V30 8660 C 837.311 -4.24863 -0.615608 0
M  V30 8661 C 836.544 -5.08925 -1.60722 0
M  V30 8662 O 836.767 -4.9475 -2.83863 0
M  V30 8663 O 835.701 -5.90737 -1.15384 0
M  V30 8664 H 839.527 -3.00596 0.433131 0
M  V30 8665 H 837.112 -1.46792 0.277908 0
M  V30 8666 H 838.994 -3.76108 -1.90055 0
M  V30 8667 H 837.669 -2.5673 -1.97158 0
M  V30 8668 H 836.576 -3.74091 0.0265829 0
M  V30 8669 H 837.909 -4.92198 0.0152871 0
M  V30 8670 N 839.561 -0.251338 -1.55583 0
M  V30 8671 C 840.524 0.63305 -2.20284 0
M  V30 8672 C 841.524 1.09941 -1.17344 0
M  V30 8673 O 842.714 1.00341 -1.42399 0
M  V30 8674 C 839.846 1.8706 -2.84993 0
M  V30 8675 H 841.039 0.0684846 -2.99822 0
M  V30 8676 H 838.592 -0.00181653 -1.563 0
M  V30 8677 H 839.327 2.47629 -2.09405 0
M  V30 8678 H 839.112 1.54436 -3.60405 0
M  V30 8679 H 840.602 2.50004 -3.34496 0
M  V30 8680 N 841.039 1.57585 0.0217189 0
M  V30 8681 C 842.002 2.06004 1.00474 0
M  V30 8682 C 843.002 0.965461 1.2859 0
M  V30 8683 O 844.192 1.22884 1.23471 0
M  V30 8684 C 841.324 2.48319 2.33561 0
M  V30 8685 H 842.517 2.94112 0.586346 0
M  V30 8686 H 840.07 1.53973 0.268716 0
M  V30 8687 H 840.805 1.63389 2.80133 0
M  V30 8688 H 840.59 3.28239 2.1448 0
M  V30 8689 H 842.08 2.86181 3.04122 0
M  V30 8690 N 842.517 -0.29412 1.54831 0
M  V30 8691 C 843.757 -1.03635 1.76179 0
M  V30 8692 C 844.121 -1.84251 0.539953 0
M  V30 8693 O 845.322 -2.61282 0.631295 0
M  V30 8694 C 843.593 -1.91275 3.01909 0
M  V30 8695 S 845.152 -2.7205 3.44288 0
M  V30 8696 H 841.97 -0.349403 0.619224 0
M  V30 8697 H 844.572 -0.309006 1.93042 0
M  V30 8698 H 843.276 -1.30937 3.88952 0
M  V30 8699 H 842.807 -2.68365 2.87652 0
M  V30 8700 H 844.822 -3.93791 3.01899 0
M  V30 8701 N 843.995 -1.47404 -0.557645 0
M  V30 8702 C 844.928 -1.54399 -1.68036 0
M  V30 8703 C 845.906 -0.396175 -1.577 0
M  V30 8704 O 847.09 -0.603911 -1.78564 0
M  V30 8705 C 844.217 -1.44611 -3.06277 0
M  V30 8706 C 843.263 -2.63889 -3.35059 0
M  V30 8707 S 844.096 -4.26086 -3.24362 0
M  V30 8708 C 845.252 -4.1885 -4.65097 0
M  V30 8709 H 845.485 -2.49384 -1.61849 0
M  V30 8710 H 843.018 -1.35597 -0.738429 0
M  V30 8711 H 844.976 -1.39651 -3.86015 0
M  V30 8712 H 843.637 -0.510114 -3.0993 0
M  V30 8713 H 842.83 -2.53103 -4.35838 0
M  V30 8714 H 842.432 -2.65969 -2.62938 0
M  V30 8715 H 844.724 -3.87077 -5.56037 0
M  V30 8716 H 845.667 -5.19714 -4.8094 0
M  V30 8717 H 846.075 -3.49717 -4.43123 0
M  V30 8718 N 845.473 0.80434 -1.35529 0
M  V30 8719 C 846.42 1.91629 -1.28635 0
M  V30 8720 C 847.39 1.65348 -0.157862 0
M  V30 8721 O 848.575 1.87711 -0.341934 0
M  V30 8722 C 845.715 3.28207 -1.0665 0
M  V30 8723 C 844.828 3.66659 -2.28441 0
M  V30 8724 C 843.963 4.92279 -1.99588 0
M  V30 8725 C 843.002 5.23365 -3.1742 0
M  V30 8726 N 842.139 6.40165 -2.88328 0
M  V30 8727 H 846.979 1.96858 -2.23721 0
M  V30 8728 H 844.516 0.962871 -1.11208 0
M  V30 8729 H 846.474 4.06945 -0.919343 0
M  V30 8730 H 845.104 3.22441 -0.152253 0
M  V30 8731 H 844.156 2.83164 -2.54013 0
M  V30 8732 H 845.468 3.8559 -3.1642 0
M  V30 8733 H 844.622 5.78847 -1.81715 0
M  V30 8734 H 843.361 4.75387 -1.08896 0
M  V30 8735 H 842.366 4.35285 -3.35867 0
M  V30 8736 H 843.591 5.42185 -4.08916 0
M  V30 8737 H 841.537 6.24694 -2.00233 0
M  V30 8738 H 841.454 6.59357 -3.69843 0
M  V30 8739 H 842.722 7.29755 -2.74002 0
M  V30 8740 N 846.951 1.19563 1.02676 0
M  V30 8741 C 847.861 0.950691 2.14474 0
M  V30 8742 C 848.877 -0.0900219 1.73767 0
M  V30 8743 O 850.053 0.0951063 2.01175 0
M  V30 8744 C 847.118 0.494917 3.43149 0
M  V30 8745 C 846.179 1.60527 3.98158 0
M  V30 8746 C 845.412 1.17115 5.20692 0
M  V30 8747 O 845.635 0.0355937 5.70389 0
M  V30 8748 O 844.569 1.97454 5.68591 0
M  V30 8749 H 848.395 1.88651 2.38001 0
M  V30 8750 H 845.98 0.978635 1.12885 0
M  V30 8751 H 847.862 0.249492 4.20661 0
M  V30 8752 H 846.537 -0.412434 3.21062 0
M  V30 8753 H 845.444 1.90487 3.21971 0
M  V30 8754 H 846.777 2.48925 4.24614 0
M  V30 8755 N 848.429 -1.21819 0.999893 0
M  V30 8756 C 849.676 -1.90752 0.679694 0
M  V30 8757 C 850.004 -1.77777 -0.789014 0
M  V30 8758 O 849.259 -1.14518 -1.58695 0
M  V30 8759 C 849.558 -3.4193 1.04012 0
M  V30 8760 C 849.224 -3.75098 2.50225 0
M  V30 8761 C 847.886 -3.83861 2.90179 0
M  V30 8762 C 850.238 -3.90706 3.44961 0
M  V30 8763 C 847.566 -4.05676 4.23844 0
M  V30 8764 C 849.918 -4.14027 4.78294 0
M  V30 8765 C 848.582 -4.21016 5.17979 0
M  V30 8766 H 847.852 -0.698012 0.248718 0
M  V30 8767 H 850.499 -1.44437 1.25738 0
M  V30 8768 H 848.804 -3.89947 0.380606 0
M  V30 8769 H 850.501 -3.93532 0.770301 0
M  V30 8770 H 847.091 -3.68865 2.18258 0
M  V30 8771 H 851.275 -3.83307 3.15261 0
M  V30 8772 H 846.531 -4.09316 4.5417 0
M  V30 8773 H 850.705 -4.25046 5.51642 0
M  V30 8774 H 848.332 -4.37672 6.21568 0
M  V30 8775 N 849.908 -0.773975 -1.37286 0
M  V30 8776 C 851.185 -0.263942 -1.93811 0
M  V30 8777 C 851.565 1.24138 -1.70743 0
M  V30 8778 O 850.913 2.02557 -1.05749 0
M  V30 8779 C 851.123 -0.639753 -3.43086 0
M  V30 8780 C 852.471 -0.610796 -4.20184 0
M  V30 8781 O 853.495 -0.579278 -3.51458 0
M  V30 8782 O 852.354 -0.639862 -5.42741 0
M  V30 8783 H 849.448 -0.0614331 -0.824715 0
M  V30 8784 H 851.994 -0.855477 -1.46559 0
M  V30 8785 H 850.766 -1.67856 -3.53469 0
M  V30 8786 H 850.389 -0.0212827 -3.97594 0
M  V30 8787 N 851.386 1.48609 -0.524698 0
M  V30 8788 C 852.336 2.26505 0.260696 0
M  V30 8789 C 853.32 1.32378 0.914597 0
M  V30 8790 O 854.512 1.5695 0.818277 0
M  V30 8791 C 851.641 3.17313 1.31024 0
M  V30 8792 C 850.727 4.18911 0.661391 0
M  V30 8793 N 851.118 5.05183 -0.24981 0
M  V30 8794 C 849.416 4.36425 0.91922 0
M  V30 8795 C 850.117 5.78348 -0.623598 0
M  V30 8796 N 849.093 5.43598 0.0140839 0
M  V30 8797 H 852.895 2.90582 -0.440388 0
M  V30 8798 H 850.409 1.5875 -0.342364 0
M  V30 8799 H 852.406 3.71772 1.88656 0
M  V30 8800 H 851.066 2.54791 2.01275 0
M  V30 8801 H 852.077 5.1415 -0.622093 0
M  V30 8802 H 848.754 3.85095 1.6127 0
M  V30 8803 H 850.144 6.57775 -1.37046 0
M  V30 8804 N 852.864 0.259585 1.55447 0
M  V30 8805 C 854.275 -0.241165 1.85136 0
M  V30 8806 C 854.626 -1.56634 1.18153 0
M  V30 8807 O 853.751 -2.11359 0.464351 0
M  V30 8808 C 854.346 -0.444355 3.35873 0
M  V30 8809 C 852.905 -0.889354 3.65742 0
M  V30 8810 C 852.052 0.0262474 2.77288 0
M  V30 8811 H 855.003 0.481808 1.51209 0
M  V30 8812 H 855.024 -1.28517 3.58139 0
M  V30 8813 H 854.536 0.520289 3.84597 0
M  V30 8814 H 852.637 -1.86602 3.22507 0
M  V30 8815 H 852.75 -0.737432 4.73391 0
M  V30 8816 H 851.114 -0.487361 2.49994 0
M  V30 8817 H 851.897 0.986494 3.28821 0
M  V30 8818 N 854.342 -1.57594 -0.0133615 0
M  V30 8819 C 855.292 -2.04048 -1.01726 0
M  V30 8820 C 856.276 -0.932682 -1.3111 0
M  V30 8821 O 857.468 -1.19652 -1.30432 0
M  V30 8822 C 854.597 -2.53637 -2.31351 0
M  V30 8823 C 853.683 -3.71269 -2.04989 0
M  V30 8824 N 854.074 -4.83436 -1.48739 0
M  V30 8825 C 852.372 -3.78943 -2.35198 0
M  V30 8826 C 853.073 -5.64961 -1.38542 0
M  V30 8827 N 852.049 -5.10554 -1.86643 0
M  V30 8828 H 855.851 -2.88188 -0.576623 0
M  V30 8829 H 853.365 -1.60912 -0.219344 0
M  V30 8830 H 855.362 -2.85186 -3.04096 0
M  V30 8831 H 854.022 -1.7091 -2.76079 0
M  V30 8832 H 855.033 -5.04558 -1.16798 0
M  V30 8833 H 851.71 -3.07047 -2.82893 0
M  V30 8834 H 853.1 -6.65092 -0.954075 0
M  V30 8835 N 855.82 0.285905 -1.54985 0
M  V30 8836 C 857.066 1.02071 -1.75241 0
M  V30 8837 C 857.399 1.864 -0.544842 0
M  V30 8838 O 856.674 1.89034 0.457844 0
M  V30 8839 C 856.957 1.91409 -3.05016 0
M  V30 8840 C 856.81 1.10158 -4.36102 0
M  V30 8841 C 858.129 2.90335 -3.30747 0
M  V30 8842 H 855.248 0.369663 -0.637588 0
M  V30 8843 H 857.89 0.294114 -1.8771 0
M  V30 8844 H 856.04 2.53362 -2.94517 0
M  V30 8845 H 857.712 0.503756 -4.58541 0
M  V30 8846 H 855.955 0.404675 -4.31908 0
M  V30 8847 H 856.626 1.75956 -5.23205 0
M  V30 8848 H 859.102 2.38514 -3.40955 0
M  V30 8849 H 857.978 3.49997 -4.2284 0
M  V30 8850 H 858.239 3.64787 -2.49765 0
M  V30 8851 N 857.298 1.47698 0.54982 0
M  V30 8852 C 858.261 1.60282 1.63837 0
M  V30 8853 C 859.261 0.477394 1.5355 0
M  V30 8854 O 860.451 0.742665 1.57576 0
M  V30 8855 C 857.583 1.55431 3.03404 0
M  V30 8856 H 858.776 2.57325 1.54026 0
M  V30 8857 H 856.329 1.35999 0.770329 0
M  V30 8858 H 857.064 0.597912 3.1874 0
M  V30 8859 H 856.849 2.37116 3.12279 0
M  V30 8860 H 858.339 1.6739 3.82584 0
M  V30 8861 N 858.776 -0.797141 1.35954 0
M  V30 8862 C 859.723 -1.90944 1.2965 0
M  V30 8863 C 860.693 -1.65262 0.166628 0
M  V30 8864 O 861.878 -1.87527 0.351883 0
M  V30 8865 C 859.018 -3.27637 1.08389 0
M  V30 8866 C 858.131 -3.65442 2.30382 0
M  V30 8867 C 857.266 -4.91213 2.02195 0
M  V30 8868 C 856.305 -5.21674 3.20191 0
M  V30 8869 N 855.442 -6.38627 2.91719 0
M  V30 8870 H 860.282 -1.95668 2.24762 0
M  V30 8871 H 857.819 -0.95696 1.11717 0
M  V30 8872 H 859.777 -4.06451 0.940912 0
M  V30 8873 H 858.407 -3.22355 0.169351 0
M  V30 8874 H 857.459 -2.81813 2.55511 0
M  V30 8875 H 858.771 -3.83907 3.18461 0
M  V30 8876 H 857.925 -5.77876 1.84783 0
M  V30 8877 H 856.664 -4.74803 1.11416 0
M  V30 8878 H 855.669 -4.33498 3.38171 0
M  V30 8879 H 856.894 -5.40009 4.11786 0
M  V30 8880 H 854.84 -6.23623 2.03543 0
M  V30 8881 H 854.757 -6.57387 3.73334 0
M  V30 8882 H 856.025 -7.28292 2.77868 0
M  V30 8883 N 860.254 -1.20106 -1.0204 0
M  V30 8884 C 861.184 -0.970301 -2.12385 0
M  V30 8885 C 862.165 0.099378 -1.69809 0
M  V30 8886 O 863.35 -0.057365 -1.94115 0
M  V30 8887 C 860.48 -0.517431 -3.43424 0
M  V30 8888 C 859.434 -1.52992 -3.99722 0
M  V30 8889 C 858.76 -0.933817 -5.26483 0
M  V30 8890 C 860.06 -2.91257 -4.33551 0
M  V30 8891 H 861.754 -1.89316 -2.31948 0
M  V30 8892 H 859.3 -0.911655 -1.11467 0
M  V30 8893 H 861.253 -0.343243 -4.2 0
M  V30 8894 H 859.977 0.441049 -3.23608 0
M  V30 8895 H 858.636 -1.6914 -3.2525 0
M  V30 8896 H 858.284 0.0324763 -5.0299 0
M  V30 8897 H 857.984 -1.60999 -5.65113 0
M  V30 8898 H 859.508 -0.770614 -6.05718 0
M  V30 8899 H 860.922 -2.78642 -5.0103 0
M  V30 8900 H 859.319 -3.55745 -4.83286 0
M  V30 8901 H 860.389 -3.43269 -3.42483 0
M  V30 8902 N 861.732 1.21287 -1.00634 0
M  V30 8903 C 862.978 1.90671 -0.690822 0
M  V30 8904 C 863.311 1.77996 0.776592 0
M  V30 8905 O 862.586 1.15748 1.5631 0
M  V30 8906 C 862.869 3.42426 -1.11428 0
M  V30 8907 C 862.722 3.64086 -2.64124 0
M  V30 8908 C 864.041 4.34851 -0.677686 0
M  V30 8909 H 861.16 0.692419 -0.252439 0
M  V30 8910 H 863.802 1.42893 -1.25226 0
M  V30 8911 H 861.952 3.83249 -0.636586 0
M  V30 8912 H 863.624 3.32582 -3.19667 0
M  V30 8913 H 861.867 3.07906 -3.05576 0
M  V30 8914 H 862.538 4.7042 -2.88806 0
M  V30 8915 H 865.014 4.01619 -1.0882 0
M  V30 8916 H 863.89 5.39675 -1.00213 0
M  V30 8917 H 864.151 4.4009 0.421125 0
M  V30 8918 N 863.21 0.781244 1.36873 0
M  V30 8919 C 864.458 0.349198 1.9906 0
M  V30 8920 C 864.779 -1.0806 1.62321 0
M  V30 8921 O 864.049 -1.74351 0.893229 0
M  V30 8922 H 862.629 0.126126 0.736275 0
M  V30 8923 H 865.291 1.00148 1.67202 0
M  V30 8924 H 864.387 0.434451 3.09061 0
M  V30 8925 N 864.689 -1.48329 0.532571 0
M  V30 8926 C 865.935 -2.028 -0.000583219 0
M  V30 8927 C 866.268 -1.40858 -1.33688 0
M  V30 8928 O 865.543 -0.555261 -1.86406 0
M  V30 8929 C 865.826 -3.59901 -0.119846 0
M  V30 8930 C 865.679 -4.32318 1.2418 0
M  V30 8931 C 866.998 -4.31904 -0.845372 0
M  V30 8932 H 864.117 -0.736999 0.00126205 0
M  V30 8933 H 866.759 -1.77024 0.690102 0
M  V30 8934 H 864.909 -3.81993 -0.708092 0
M  V30 8935 H 866.581 -4.21637 1.87136 0
M  V30 8936 H 864.824 -3.93635 1.82301 0
M  V30 8937 H 865.495 -5.40697 1.11132 0
M  V30 8938 H 867.971 -4.14658 -0.346159 0
M  V30 8939 H 866.847 -5.41509 -0.897723 0
M  V30 8940 H 867.108 -3.99369 -1.89622 0
M  V30 8941 N 866.167 -0.267825 -1.55308 0
M  V30 8942 C 867.392 0.357487 -2.04296 0
M  V30 8943 C 867.817 1.49222 -1.14518 0
M  V30 8944 O 867.175 1.80741 -0.142292 0
M  V30 8945 C 867.223 0.822899 -3.51085 0
M  V30 8946 O 866.327 1.93078 -3.6441 0
M  V30 8947 H 865.668 0.075025 -0.659748 0
M  V30 8948 H 868.198 -0.399996 -2.00652 0
M  V30 8949 H 868.208 1.12059 -3.92309 0
M  V30 8950 H 866.883 -0.0073562 -4.15899 0
M  V30 8951 H 865.46 1.63618 -3.35087 0
M  V30 8952 N 867.645 1.57599 0.00500368 0
M  V30 8953 C 868.575 2.11143 0.99705 0
M  V30 8954 C 869.556 1.0194 1.3617 0
M  V30 8955 O 870.741 1.29596 1.44632 0
M  V30 8956 C 867.871 2.61062 2.2905 0
M  V30 8957 C 866.825 3.74745 2.0676 0
M  V30 8958 C 866.151 4.10961 3.42075 0
M  V30 8959 C 867.451 5.02222 1.43424 0
M  V30 8960 H 869.145 2.94281 0.551251 0
M  V30 8961 H 866.691 1.41565 0.263715 0
M  V30 8962 H 868.644 2.97146 2.98801 0
M  V30 8963 H 867.368 1.75038 2.75734 0
M  V30 8964 H 866.027 3.39047 1.39436 0
M  V30 8965 H 865.675 3.21968 3.86453 0
M  V30 8966 H 865.375 4.87549 3.27979 0
M  V30 8967 H 866.899 4.49599 4.1315 0
M  V30 8968 H 868.313 5.36109 2.03125 0
M  V30 8969 H 866.71 5.83581 1.39831 0
M  V30 8970 H 867.78 4.83224 0.40285 0
M  V30 8971 N 869.123 -0.277682 1.55134 0
M  V30 8972 C 870.539 -0.624625 1.46869 0
M  V30 8973 C 870.739 -1.89717 0.678958 0
M  V30 8974 O 869.795 -2.51739 0.195939 0
M  V30 8975 C 871.108 -0.755937 2.91043 0
M  V30 8976 C 872.656 -0.850299 3.01229 0
M  V30 8977 C 873.131 -1.01343 4.46647 0
M  V30 8978 N 874.622 -1.07906 4.50456 0
M  V30 8979 C 875.357 -1.224 5.60184 0
M  V30 8980 N 874.853 -1.33642 6.79788 0
M  V30 8981 N 876.646 -1.25473 5.47917 0
M  V30 8982 H 868.797 0.558102 2.04937 0
M  V30 8983 H 871.06 0.188228 0.929125 0
M  V30 8984 H 870.766 0.108593 3.51532 0
M  V30 8985 H 870.64 -1.6377 3.39793 0
M  V30 8986 H 873.027 -1.7053 2.40839 0
M  V30 8987 H 873.108 0.0559681 2.55739 0
M  V30 8988 H 872.752 -0.163102 5.07638 0
M  V30 8989 H 872.682 -1.93427 4.89789 0
M  V30 8990 H 875.173 -1.00477 3.64298 0
M  V30 8991 H 875.486 -1.44522 7.59166 0
M  V30 8992 H 873.831 -1.30655 6.82608 0
M  V30 8993 H 877.022 -1.16317 4.53418 0
M  V30 8994 H 877.195 -1.36424 6.33476 0
M  V30 8995 N 870.601 -1.47988 -0.541979 0
M  V30 8996 C 871.826 -1.59286 -1.32826 0
M  V30 8997 C 872.251 -0.24894 -1.86445 0
M  V30 8998 O 871.609 0.777581 -1.63778 0
M  V30 8999 C 871.657 -2.6334 -2.46343 0
M  V30 9000 O 870.761 -2.19667 -3.49028 0
M  V30 9001 H 870.102 -0.534543 -0.393903 0
M  V30 9002 H 872.632 -1.93885 -0.653427 0
M  V30 9003 H 872.642 -2.84238 -2.92699 0
M  V30 9004 H 871.317 -3.60913 -2.06675 0
M  V30 9005 H 869.894 -2.08932 -3.08872 0
M  V30 9006 N 872.079 0.78992 -1.36375 0
M  V30 9007 C 873.495 1.0879 -1.16777 0
M  V30 9008 C 873.695 2.01498 0.00848236 0
M  V30 9009 O 872.751 2.43338 0.674007 0
M  V30 9010 C 874.064 1.70285 -2.47837 0
M  V30 9011 C 875.612 1.82629 -2.54196 0
M  V30 9012 C 876.087 2.47539 -3.85342 0
M  V30 9013 N 877.578 2.55008 -3.86685 0
M  V30 9014 C 878.313 3.06041 -4.84898 0
M  V30 9015 N 877.809 3.57385 -5.93505 0
M  V30 9016 N 879.602 3.04748 -4.72319 0
M  V30 9017 H 871.753 0.173985 -2.11686 0
M  V30 9018 H 874.016 0.139798 -0.937636 0
M  V30 9019 H 873.722 1.09633 -3.34176 0
M  V30 9020 H 873.596 2.69799 -2.63607 0
M  V30 9021 H 875.983 2.42419 -1.68276 0
M  V30 9022 H 876.064 0.81923 -2.42327 0
M  V30 9023 H 875.708 1.88393 -4.71668 0
M  V30 9024 H 875.638 3.48815 -3.94507 0
M  V30 9025 H 878.129 2.18651 -3.08221 0
M  V30 9026 H 878.442 3.94674 -6.64419 0
M  V30 9027 H 876.787 3.55538 -5.97175 0
M  V30 9028 H 879.978 2.63925 -3.86602 0
M  V30 9029 H 880.151 3.44212 -5.49019 0
M  V30 9030 N 873.557 1.20646 1.01402 0
M  V30 9031 C 874.52 0.959314 2.08158 0
M  V30 9032 C 875.52 -0.0661558 1.60664 0
M  V30 9033 O 876.71 0.170177 1.73367 0
M  V30 9034 C 873.842 0.444785 3.37986 0
M  V30 9035 H 875.035 1.90631 2.31517 0
M  V30 9036 H 872.588 1.02219 1.18241 0
M  V30 9037 H 873.323 -0.507553 3.20304 0
M  V30 9038 H 873.108 1.18435 3.73785 0
M  V30 9039 H 874.598 0.291443 4.16582 0
M  V30 9040 N 875.035 -1.20752 1.01276 0
M  V30 9041 C 875.982 -2.234 0.579732 0
M  V30 9042 C 876.952 -1.61256 -0.398206 0
M  V30 9043 O 878.137 -1.8845 -0.29851 0
M  V30 9044 C 875.277 -3.45008 -0.0797006 0
M  V30 9045 C 874.39 -4.21597 0.942343 0
M  V30 9046 C 873.525 -5.30591 0.254364 0
M  V30 9047 C 872.564 -5.98919 1.26343 0
M  V30 9048 N 871.701 -6.99511 0.602384 0
M  V30 9049 H 876.541 -2.59801 1.45971 0
M  V30 9050 H 874.078 -1.27663 0.730787 0
M  V30 9051 H 876.036 -4.1444 -0.479125 0
M  V30 9052 H 874.666 -3.09312 -0.923354 0
M  V30 9053 H 873.718 -3.51268 1.45996 0
M  V30 9054 H 875.03 -4.68576 1.70992 0
M  V30 9055 H 874.184 -6.06368 -0.200763 0
M  V30 9056 H 872.923 -4.84639 -0.545553 0
M  V30 9057 H 871.928 -5.21906 1.72898 0
M  V30 9058 H 873.153 -6.46957 2.06456 0
M  V30 9059 H 871.099 -6.55759 -0.177734 0
M  V30 9060 H 871.016 -7.44597 1.30809 0
M  V30 9061 H 872.284 -7.79313 0.17072 0
M  V30 9062 N 876.513 -0.788492 -1.36457 0
M  V30 9063 C 877.761 -0.359749 -1.98872 0
M  V30 9064 C 878.082 1.07197 -1.62892 0
M  V30 9065 O 877.352 1.73875 -0.902463 0
M  V30 9066 H 875.932 -0.130029 -0.735596 0
M  V30 9067 H 878.594 -1.01033 -1.66668 0
M  V30 9068 H 877.69 -0.450835 -3.08827 0
M  V30 9069 N 877.991 1.48044 -0.54043 0
M  V30 9070 C 879.407 1.58354 -0.199006 0
M  V30 9071 C 879.607 1.54118 1.29807 0
M  V30 9072 O 878.663 1.43573 2.07709 0
M  V30 9073 C 879.976 2.89563 -0.810797 0
M  V30 9074 C 881.524 3.03113 -0.780486 0
M  V30 9075 C 881.999 4.36997 -1.37104 0
M  V30 9076 N 883.49 4.43591 -1.33347 0
M  V30 9077 C 884.225 5.45714 -1.76021 0
M  V30 9078 N 883.721 6.54738 -2.26473 0
M  V30 9079 N 885.514 5.36659 -1.67194 0
M  V30 9080 H 877.665 1.49041 -1.51329 0
M  V30 9081 H 879.928 0.708309 -0.630081 0
M  V30 9082 H 879.634 2.9835 -1.86227 0
M  V30 9083 H 879.508 3.76053 -0.293977 0
M  V30 9084 H 881.895 2.93932 0.262246 0
M  V30 9085 H 881.976 2.18207 -1.33489 0
M  V30 9086 H 881.62 4.46932 -2.41276 0
M  V30 9087 H 881.55 5.20607 -0.792229 0
M  V30 9088 H 884.041 3.65391 -0.964259 0
M  V30 9089 H 884.354 7.28814 -2.57002 0
M  V30 9090 H 882.699 6.55673 -2.30473 0
M  V30 9091 H 885.89 4.50382 -1.27569 0
M  V30 9092 H 886.063 6.16113 -2.00771 0
M  V30 9093 N 879.47 0.276058 1.55163 0
M  V30 9094 C 880.4 -0.604633 2.25536 0
M  V30 9095 C 881.381 -1.15813 1.24585 0
M  V30 9096 O 882.566 -1.1921 1.53306 0
M  V30 9097 C 879.696 -1.78836 2.97716 0
M  V30 9098 C 878.65 -1.36635 4.05604 0
M  V30 9099 C 877.976 -2.63325 4.65364 0
M  V30 9100 C 879.276 -0.515858 5.19746 0
M  V30 9101 H 880.97 -0.0177483 2.99395 0
M  V30 9102 H 878.516 -0.00709627 1.43998 0
M  V30 9103 H 880.469 -2.41036 3.45658 0
M  V30 9104 H 879.193 -2.40109 2.21394 0
M  V30 9105 H 877.852 -0.767541 3.58475 0
M  V30 9106 H 877.5 -3.22858 3.85709 0
M  V30 9107 H 877.2 -2.358 5.38212 0
M  V30 9108 H 878.724 -3.26372 5.16056 0
M  V30 9109 H 880.138 -1.04289 5.63735 0
M  V30 9110 H 878.535 -0.335449 5.99162 0
M  V30 9111 H 879.605 0.465137 4.82664 0
M  V30 9112 N 880.948 -1.576 0.00335426 0
M  V30 9113 C 882.359 -1.7875 -0.539008 0
M  V30 9114 C 882.71 -0.911097 -1.73763 0
M  V30 9115 O 881.835 -0.114476 -2.16097 0
M  V30 9116 C 882.43 -3.24177 -0.984611 0
M  V30 9117 C 880.989 -3.46412 -1.47226 0
M  V30 9118 C 880.136 -2.74024 -0.425004 0
M  V30 9119 H 883.087 -1.57032 0.229511 0
M  V30 9120 H 883.108 -3.32474 -1.85044 0
M  V30 9121 H 882.62 -3.87938 -0.112035 0
M  V30 9122 H 880.721 -2.8787 -2.36562 0
M  V30 9123 H 880.834 -4.55098 -1.49741 0
M  V30 9124 H 879.198 -2.38741 -0.887394 0
M  V30 9125 H 879.981 -3.40486 0.438662 0
M  V30 9126 N 882.426 0.269451 -1.5528 0
M  V30 9127 C 883.675 0.998381 -1.75258 0
M  V30 9128 C 883.988 1.87321 -0.563034 0
M  V30 9129 O 885.194 2.63719 -0.645313 0
M  V30 9130 C 883.65 1.82505 -3.10193 0
M  V30 9131 C 883.258 0.99871 -4.36726 0
M  V30 9132 C 885.002 2.54807 -3.3952 0
M  V30 9133 C 882.909 1.81997 -5.627 0
M  V30 9134 H 881.839 0.376488 -0.653278 0
M  V30 9135 H 884.49 0.253909 -1.81735 0
M  V30 9136 H 882.872 2.61061 -2.97763 0
M  V30 9137 H 884.046 0.257064 -4.60082 0
M  V30 9138 H 882.361 0.390074 -4.14569 0
M  V30 9139 H 884.958 3.16662 -4.30847 0
M  V30 9140 H 885.301 3.25273 -2.59813 0
M  V30 9141 H 885.834 1.83278 -3.53064 0
M  V30 9142 H 882.573 1.15945 -6.45164 0
M  V30 9143 H 882.093 2.53749 -5.43481 0
M  V30 9144 H 883.772 2.39274 -6.0113 0
M  V30 9145 N 883.904 1.48273 0.534124 0
M  V30 9146 C 885.315 1.49667 1.1161 0
M  V30 9147 C 885.666 0.264139 1.94414 0
M  V30 9148 O 884.791 -0.629084 2.07054 0
M  V30 9149 C 885.386 2.71191 2.03079 0
M  V30 9150 C 883.945 2.7547 2.56502 0
M  V30 9151 C 883.092 2.43119 1.33373 0
M  V30 9152 H 886.043 1.55449 0.319578 0
M  V30 9153 H 886.064 2.49473 2.87304 0
M  V30 9154 H 885.576 3.60879 1.42785 0
M  V30 9155 H 883.677 1.89979 3.20529 0
M  V30 9156 H 883.79 3.76787 2.95919 0
M  V30 9157 H 882.154 1.94187 1.64813 0
M  V30 9158 H 882.937 3.35044 0.748375 0
M  V30 9159 N 885.382 -0.782676 1.36792 0
M  V30 9160 C 886.315 -1.90241 1.2603 0
M  V30 9161 C 887.293 -1.61969 0.143055 0
M  V30 9162 O 888.477 -1.85843 0.315366 0
M  V30 9163 C 885.604 -3.25218 0.946082 0
M  V30 9164 C 884.65 -3.72414 2.0787 0
M  V30 9165 S 885.483 -3.87376 3.69729 0
M  V30 9166 C 886.639 -5.25219 3.40435 0
M  V30 9167 H 886.872 -1.99079 2.20805 0
M  V30 9168 H 884.405 -0.942625 1.22286 0
M  V30 9169 H 886.363 -4.03183 0.771612 0
M  V30 9170 H 885.024 -3.14096 0.0159991 0
M  V30 9171 H 884.217 -4.7024 1.81358 0
M  V30 9172 H 883.819 -3.01519 2.21274 0
M  V30 9173 H 886.111 -6.10025 2.94746 0
M  V30 9174 H 887.054 -5.56738 4.37549 0
M  V30 9175 H 887.462 -4.92638 2.75622 0
M  V30 9176 N 886.86 -1.21182 -1.00761 0
M  V30 9177 C 888.106 -1.02898 -1.74756 0
M  V30 9178 C 888.439 0.436774 -1.89225 0
M  V30 9179 O 887.714 1.32415 -1.42466 0
M  V30 9180 C 887.997 -1.72372 -3.16164 0
M  V30 9181 C 887.85 -3.2645 -3.09435 0
M  V30 9182 C 889.169 -1.46415 -4.15031 0
M  V30 9183 H 886.288 -0.375214 -0.634337 0
M  V30 9184 H 888.93 -1.49321 -1.17487 0
M  V30 9185 H 887.08 -1.32906 -3.65059 0
M  V30 9186 H 888.752 -3.75269 -2.68274 0
M  V30 9187 H 886.995 -3.56889 -2.46603 0
M  V30 9188 H 887.666 -3.70226 -4.09435 0
M  V30 9189 H 890.142 -1.80671 -3.7483 0
M  V30 9190 H 889.018 -1.97544 -5.12121 0
M  V30 9191 H 889.279 -0.39361 -4.40344 0
M  V30 9192 N 888.338 1.20213 -1.01915 0
M  V30 9193 C 889.587 1.88968 -0.705261 0
M  V30 9194 C 889.9 1.79869 0.768531 0
M  V30 9195 O 891.106 2.43783 1.19508 0
M  V30 9196 C 889.562 3.38911 -1.21109 0
M  V30 9197 C 889.17 3.5659 -2.71197 0
M  V30 9198 C 890.914 4.13204 -0.97275 0
M  V30 9199 C 888.821 5.00372 -3.15248 0
M  V30 9200 H 887.751 0.707715 -0.260107 0
M  V30 9201 H 890.402 1.35977 -1.23217 0
M  V30 9202 H 888.784 3.9124 -0.612152 0
M  V30 9203 H 889.958 3.14635 -3.36662 0
M  V30 9204 H 888.273 2.95671 -2.93202 0
M  V30 9205 H 890.87 5.19221 -1.27726 0
M  V30 9206 H 891.213 4.16201 0.09072 0
M  V30 9207 H 891.746 3.66983 -1.5352 0
M  V30 9208 H 888.485 5.02532 -4.20882 0
M  V30 9209 H 888.005 5.43127 -2.54505 0
M  V30 9210 H 889.684 5.68969 -3.08032 0
M  V30 9211 N 889.816 0.795718 1.36037 0
M  V30 9212 C 890.746 0.212803 2.32528 0
M  V30 9213 C 891.727 -0.655716 1.56953 0
M  V30 9214 O 892.912 -0.588238 1.85077 0
M  V30 9215 C 890.042 -0.648189 3.41198 0
M  V30 9216 C 888.996 0.120948 4.27829 0
M  V30 9217 C 888.322 -0.861044 5.27722 0
M  V30 9218 C 889.622 1.31375 5.05508 0
M  V30 9219 H 891.316 1.01893 2.81528 0
M  V30 9220 H 888.862 0.491422 1.35355 0
M  V30 9221 H 890.815 -1.06597 4.07695 0
M  V30 9222 H 889.539 -1.48709 2.9078 0
M  V30 9223 H 888.198 0.519777 3.62897 0
M  V30 9224 H 887.846 -1.69515 4.73575 0
M  V30 9225 H 887.546 -0.350808 5.86552 0
M  V30 9226 H 889.07 -1.27726 5.97092 0
M  V30 9227 H 890.484 0.971406 5.6501 0
M  V30 9228 H 888.881 1.75772 5.73781 0
M  V30 9229 H 889.951 2.10593 4.36782 0
M  V30 9230 N 891.294 -1.47756 0.548274 0
M  V30 9231 C 892.705 -1.8636 0.112547 0
M  V30 9232 C 893.056 -1.45589 -1.31523 0
M  V30 9233 O 892.181 -0.854874 -1.98799 0
M  V30 9234 C 892.776 -3.38224 0.197473 0
M  V30 9235 C 891.335 -3.75954 -0.183163 0
M  V30 9236 C 890.482 -2.7181 0.549059 0
M  V30 9237 H 893.433 -1.394 0.758506 0
M  V30 9238 H 893.454 -3.75957 -0.586217 0
M  V30 9239 H 892.966 -3.67868 1.23673 0
M  V30 9240 H 891.067 -3.51926 -1.22387 0
M  V30 9241 H 891.18 -4.78801 0.169178 0
M  V30 9242 H 889.544 -2.54699 -0.00682862 0
M  V30 9243 H 890.327 -3.04296 1.5893 0
M  V30 9244 N 892.772 -0.284283 -1.55015 0
M  V30 9245 C 894.019 0.329864 -1.99795 0
M  V30 9246 C 894.347 1.55171 -1.1727 0
M  V30 9247 O 893.602 1.94312 -0.232667 0
M  V30 9248 C 893.901 0.747219 -3.49502 0
M  V30 9249 C 893.567 -0.37101 -4.49371 0
M  V30 9250 C 892.229 -0.678034 -4.76399 0
M  V30 9251 C 894.581 -1.12406 -5.08935 0
M  V30 9252 C 891.909 -1.74152 -5.60257 0
M  V30 9253 C 894.261 -2.17734 -5.93948 0
M  V30 9254 C 892.925 -2.49061 -6.19294 0
M  V30 9255 H 892.195 0.120706 -0.731103 0
M  V30 9256 H 894.842 -0.399904 -1.87278 0
M  V30 9257 H 893.147 1.55681 -3.59542 0
M  V30 9258 H 894.844 1.2333 -3.81563 0
M  V30 9259 H 891.434 -0.1216 -4.28427 0
M  V30 9260 H 895.618 -0.900119 -4.88069 0
M  V30 9261 H 890.874 -1.98915 -5.78137 0
M  V30 9262 H 895.048 -2.76553 -6.39133 0
M  V30 9263 H 892.675 -3.31602 -6.84064 0
M  V30 9264 N 894.251 1.57596 -0.0117121 0
M  V30 9265 C 895.184 2.04624 1.01016 0
M  V30 9266 C 896.162 0.938437 1.32786 0
M  V30 9267 O 897.346 1.20746 1.44751 0
M  V30 9268 C 894.473 2.45369 2.33477 0
M  V30 9269 C 893.519 3.66998 2.17289 0
M  V30 9270 S 894.352 5.14412 1.48795 0
M  V30 9271 C 895.508 5.58438 2.82662 0
M  V30 9272 H 895.741 2.9098 0.60977 0
M  V30 9273 H 893.274 1.53106 0.199494 0
M  V30 9274 H 895.232 2.69511 3.09635 0
M  V30 9275 H 893.893 1.59391 2.70653 0
M  V30 9276 H 893.086 3.93297 3.15172 0
M  V30 9277 H 892.688 3.42918 1.49275 0
M  V30 9278 H 894.98 5.61614 3.78941 0
M  V30 9279 H 895.923 6.58224 2.61049 0
M  V30 9280 H 896.331 4.86033 2.8711 0
M  V30 9281 N 895.729 -0.261212 1.5542 0
M  V30 9282 C 896.676 -1.32315 1.89107 0
M  V30 9283 C 897.646 -1.48517 0.743767 0
M  V30 9284 O 898.831 -1.62733 0.996123 0
M  V30 9285 C 895.971 -2.67626 2.17877 0
M  V30 9286 C 895.084 -2.59549 3.45338 0
M  V30 9287 C 894.219 -3.87118 3.63748 0
M  V30 9288 C 893.258 -3.736 4.8486 0
M  V30 9289 N 892.395 -4.93029 4.99867 0
M  V30 9290 H 897.235 -1.02886 2.79675 0
M  V30 9291 H 894.772 -0.496812 1.38456 0
M  V30 9292 H 896.73 -3.4637 2.32559 0
M  V30 9293 H 895.36 -2.95232 1.30529 0
M  V30 9294 H 894.412 -1.72452 3.39064 0
M  V30 9295 H 895.724 -2.45465 4.34222 0
M  V30 9296 H 894.878 -4.74305 3.78312 0
M  V30 9297 H 893.617 -4.04084 2.73071 0
M  V30 9298 H 892.622 -2.84797 4.70288 0
M  V30 9299 H 893.847 -3.58143 5.76984 0
M  V30 9300 H 891.793 -5.10383 4.12123 0
M  V30 9301 H 891.71 -4.81521 5.82815 0
M  V30 9302 H 892.978 -5.81754 5.18828 0
M  V30 9303 N 897.207 -1.48554 -0.526253 0
M  V30 9304 C 898.157 -1.59753 -1.62674 0
M  V30 9305 C 899.141 -0.454452 -1.54349 0
M  V30 9306 O 900.333 -0.706091 -1.62306 0
M  V30 9307 C 897.462 -1.64388 -3.01383 0
M  V30 9308 C 896.548 -2.84188 -3.14798 0
M  V30 9309 N 896.939 -4.08564 -2.98176 0
M  V30 9310 C 895.237 -2.81599 -3.45859 0
M  V30 9311 C 895.938 -4.88961 -3.15106 0
M  V30 9312 N 894.914 -4.21848 -3.42849 0
M  V30 9313 H 898.716 -2.5366 -1.48438 0
M  V30 9314 H 896.23 -1.44977 -0.731801 0
M  V30 9315 H 898.227 -1.70505 -3.80439 0
M  V30 9316 H 896.887 -0.716006 -3.16707 0
M  V30 9317 H 897.898 -4.38943 -2.74862 0
M  V30 9318 H 894.575 -1.98083 -3.67518 0
M  V30 9319 H 895.965 -5.97683 -3.0696 0
M  V30 9320 N 898.685 0.775411 -1.37205 0
M  V30 9321 C 899.933 1.53081 -1.3195 0
M  V30 9322 C 900.254 1.9476 0.0966864 0
M  V30 9323 O 899.524 1.66019 1.03993 0
M  V30 9324 H 898.104 0.567762 -0.485444 0
M  V30 9325 H 900.766 0.92309 -1.71654 0
M  V30 9326 H 899.862 2.4319 -1.95614 0
M  V30 9327 N 900.163 1.21714 1.00117 0
M  V30 9328 C 901.44 0.945391 1.71236 0
M  V30 9329 C 901.82 -0.541772 2.0403 0
M  V30 9330 O 901.168 -1.50763 1.71705 0
M  V30 9331 C 901.378 1.83444 2.96899 0
M  V30 9332 C 902.726 2.08558 3.69849 0
M  V30 9333 O 903.75 1.80824 3.06889 0
M  V30 9334 O 902.609 2.55485 4.83104 0
M  V30 9335 H 899.703 0.354834 0.747009 0
M  V30 9336 H 902.249 1.32661 1.05825 0
M  V30 9337 H 901.021 2.84075 2.69105 0
M  V30 9338 H 900.644 1.45428 3.70049 0
M  V30 9339 N 901.641 -1.19671 1.02551 0
M  V30 9340 C 902.571 -2.25009 0.623965 0
M  V30 9341 C 903.552 -1.66129 -0.36538 0
M  V30 9342 O 904.737 -1.92599 -0.248842 0
M  V30 9343 C 901.867 -3.47287 -0.0294869 0
M  V30 9344 C 900.821 -4.18818 0.881781 0
M  V30 9345 C 900.147 -5.34618 0.0936189 0
M  V30 9346 C 901.447 -4.73986 2.19396 0
M  V30 9347 H 903.141 -2.58851 1.50454 0
M  V30 9348 H 900.687 -1.24425 0.724872 0
M  V30 9349 H 902.64 -4.20168 -0.322016 0
M  V30 9350 H 901.364 -3.12635 -0.944838 0
M  V30 9351 H 900.023 -3.47815 1.15845 0
M  V30 9352 H 899.671 -4.9621 -0.823661 0
M  V30 9353 H 899.371 -5.83409 0.700568 0
M  V30 9354 H 900.895 -6.10297 -0.192249 0
M  V30 9355 H 902.309 -5.38639 1.96319 0
M  V30 9356 H 900.706 -5.3325 2.75254 0
M  V30 9357 H 901.776 -3.92238 2.85092 0
M  V30 9358 N 903.119 -0.802921 -1.35613 0
M  V30 9359 C 904.069 -0.183492 -2.2726 0
M  V30 9360 C 905.053 0.640527 -1.47601 0
M  V30 9361 O 906.245 0.498386 -1.69838 0
M  V30 9362 C 903.374 0.67003 -3.36698 0
M  V30 9363 C 902.46 -0.163517 -4.23785 0
M  V30 9364 N 902.851 -1.22472 -4.90749 0
M  V30 9365 C 901.149 0.0554547 -4.45966 0
M  V30 9366 C 901.85 -1.73329 -5.55276 0
M  V30 9367 N 900.826 -1.04033 -5.33552 0
M  V30 9368 H 904.628 -0.995525 -2.76526 0
M  V30 9369 H 902.142 -0.643714 -1.49098 0
M  V30 9370 H 904.139 1.12981 -4.01299 0
M  V30 9371 H 902.799 1.48045 -2.88986 0
M  V30 9372 H 903.81 -1.60733 -4.92327 0
M  V30 9373 H 900.487 0.835312 -4.09058 0
M  V30 9374 H 901.877 -2.62 -6.18713 0
M  V30 9375 N 904.597 1.47463 -0.556102 0
M  V30 9376 C 905.56 2.28478 0.181743 0
M  V30 9377 C 906.56 1.36886 0.843738 0
M  V30 9378 O 907.75 1.59527 0.69977 0
M  V30 9379 C 904.882 3.16534 1.26566 0
M  V30 9380 H 906.075 2.95182 -0.529892 0
M  V30 9381 H 903.628 1.53134 -0.313005 0
M  V30 9382 H 904.363 2.5452 2.00973 0
M  V30 9383 H 904.148 3.83939 0.795798 0
M  V30 9384 H 905.638 3.77579 1.78393 0
M  V30 9385 N 906.075 0.2925 1.54862 0
M  V30 9386 C 907.322 -0.319263 1.99967 0
M  V30 9387 C 907.65 -1.54547 1.18092 0
M  V30 9388 O 906.905 -1.94186 0.242969 0
M  V30 9389 C 907.204 -0.728674 3.49893 0
M  V30 9390 C 906.87 0.394836 4.49168 0
M  V30 9391 C 905.532 0.703289 4.76033 0
M  V30 9392 C 907.884 1.15103 5.08331 0
M  V30 9393 C 905.212 1.77121 5.59325 0
M  V30 9394 C 907.564 2.20881 5.92785 0
M  V30 9395 C 906.228 2.52342 6.17964 0
M  V30 9396 H 905.498 -0.116827 0.731733 0
M  V30 9397 H 908.145 0.40983 1.87063 0
M  V30 9398 H 906.45 -1.53772 3.60363 0
M  V30 9399 H 908.147 -1.21305 3.82212 0
M  V30 9400 H 904.737 0.144319 4.28357 0
M  V30 9401 H 908.921 0.92599 4.87585 0
M  V30 9402 H 904.177 2.01978 5.77074 0
M  V30 9403 H 908.351 2.79939 6.37657 0
M  V30 9404 H 905.978 3.35225 6.82296 0
M  V30 9405 N 907.553 -1.57587 0.0200696 0
M  V30 9406 C 908.483 -2.12702 -0.963333 0
M  V30 9407 C 909.464 -1.04094 -1.34531 0
M  V30 9408 O 910.649 -1.31881 -1.42552 0
M  V30 9409 C 907.779 -2.64673 -2.24868 0
M  V30 9410 C 906.733 -3.77987 -2.00772 0
M  V30 9411 C 906.059 -4.16351 -3.35494 0
M  V30 9412 C 907.359 -5.0444 -1.35416 0
M  V30 9413 H 909.053 -2.95121 -0.504363 0
M  V30 9414 H 906.599 -1.41966 -0.24116 0
M  V30 9415 H 908.552 -3.01862 -2.94036 0
M  V30 9416 H 907.276 -1.79403 -2.72914 0
M  V30 9417 H 905.935 -3.41223 -1.34025 0
M  V30 9418 H 905.583 -3.28075 -3.81282 0
M  V30 9419 H 905.283 -4.92705 -3.20181 0
M  V30 9420 H 906.807 -4.56115 -4.05945 0
M  V30 9421 H 908.221 -5.39273 -1.94571 0
M  V30 9422 H 906.618 -5.85732 -1.30529 0
M  V30 9423 H 907.688 -4.83803 -0.325923 0
M  V30 9424 N 909.032 0.252966 -1.55557 0
M  V30 9425 C 909.962 1.31691 -1.9282 0
M  V30 9426 C 910.943 1.50516 -0.7924 0
M  V30 9427 O 912.128 1.63225 -1.05219 0
M  V30 9428 C 909.258 2.67281 -2.21762 0
M  V30 9429 C 908.212 2.6316 -3.37536 0
M  V30 9430 C 907.538 4.02488 -3.52005 0
M  V30 9431 C 908.838 2.20675 -4.73392 0
M  V30 9432 H 910.532 1.00751 -2.81939 0
M  V30 9433 H 908.078 0.483219 -1.3565 0
M  V30 9434 H 910.031 3.41842 -2.46419 0
M  V30 9435 H 908.755 2.99845 -1.29463 0
M  V30 9436 H 907.414 1.91057 -3.12878 0
M  V30 9437 H 907.062 4.32307 -2.57137 0
M  V30 9438 H 906.762 4.00621 -4.29857 0
M  V30 9439 H 908.286 4.78758 -3.78977 0
M  V30 9440 H 909.7 2.84965 -4.97461 0
M  V30 9441 H 908.097 2.29931 -5.54303 0
M  V30 9442 H 909.167 1.15831 -4.70862 0
M  V30 9443 N 910.51 1.48831 0.518367 0
M  V30 9444 C 911.473 1.63721 1.604 0
M  V30 9445 C 912.473 0.509857 1.52503 0
M  V30 9446 O 913.663 0.775922 1.55965 0
M  V30 9447 C 910.795 1.61831 3.00039 0
M  V30 9448 H 911.988 2.60534 1.48533 0
M  V30 9449 H 909.541 1.37602 0.741309 0
M  V30 9450 H 910.276 0.665387 3.17401 0
M  V30 9451 H 910.061 2.43686 3.0718 0
M  V30 9452 H 911.551 1.75467 3.78947 0
M  V30 9453 N 911.988 -0.768124 1.37614 0
M  V30 9454 C 913.213 -1.56239 1.36397 0
M  V30 9455 C 913.638 -1.8804 -0.0475839 0
M  V30 9456 O 912.996 -1.495 -1.02564 0
M  V30 9457 C 913.044 -2.84716 2.21289 0
M  V30 9458 O 912.148 -3.79249 1.62001 0
M  V30 9459 H 911.489 -0.473119 0.465891 0
M  V30 9460 H 914.019 -0.950415 1.81186 0
M  V30 9461 H 914.029 -3.33784 2.34632 0
M  V30 9462 H 912.704 -2.60899 3.2389 0
M  V30 9463 H 911.281 -3.37904 1.57719 0
M  V30 9464 N 913.466 -1.22244 -0.994698 0
M  V30 9465 C 914.882 -0.982006 -1.25813 0
M  V30 9466 C 915.082 0.325488 -1.98854 0
M  V30 9467 O 914.138 1.04857 -2.29698 0
M  V30 9468 C 915.451 -2.1795 -2.07167 0
M  V30 9469 C 916.999 -2.22287 -2.20358 0
M  V30 9470 C 917.474 -3.41583 -3.05098 0
M  V30 9471 N 918.965 -3.41734 -3.12686 0
M  V30 9472 C 919.7 -4.30692 -3.78539 0
M  V30 9473 N 919.196 -5.29865 -4.46335 0
M  V30 9474 N 920.989 -4.18473 -3.75283 0
M  V30 9475 H 913.14 -2.0631 -0.504963 0
M  V30 9476 H 915.403 -0.90395 -0.285618 0
M  V30 9477 H 915.109 -3.12758 -1.60858 0
M  V30 9478 H 914.983 -2.17862 -3.07922 0
M  V30 9479 H 917.37 -1.28028 -2.65881 0
M  V30 9480 H 917.451 -2.26414 -1.19039 0
M  V30 9481 H 917.095 -4.36141 -2.60275 0
M  V30 9482 H 917.025 -3.34695 -4.06555 0
M  V30 9483 H 919.516 -2.69969 -2.64433 0
M  V30 9484 H 919.829 -5.94027 -4.9432 0
M  V30 9485 H 918.174 -5.3378 -4.45089 0
M  V30 9486 H 921.365 -3.40249 -3.21478 0
M  V30 9487 H 921.538 -4.88007 -4.26326 0
M  V30 9488 N 914.944 1.19125 -1.03184 0
M  V30 9489 C 916.193 1.8821 -0.725264 0
M  V30 9490 C 916.506 1.80674 0.749411 0
M  V30 9491 O 917.712 2.45037 1.16915 0
M  V30 9492 C 916.168 3.37607 -1.24697 0
M  V30 9493 C 915.776 3.53693 -2.74964 0
M  V30 9494 C 917.52 4.12149 -1.01652 0
M  V30 9495 C 915.427 4.97001 -3.20538 0
M  V30 9496 H 914.357 0.704916 -0.267599 0
M  V30 9497 H 917.008 1.34663 -1.24652 0
M  V30 9498 H 915.39 3.90569 -0.653614 0
M  V30 9499 H 916.564 3.11046 -3.39981 0
M  V30 9500 H 914.879 2.92544 -2.96322 0
M  V30 9501 H 917.476 5.17837 -1.33226 0
M  V30 9502 H 917.819 4.16274 0.0465712 0
M  V30 9503 H 918.352 3.65334 -1.57403 0
M  V30 9504 H 915.091 4.9804 -4.26189 0
M  V30 9505 H 914.611 5.40398 -2.60251 0
M  V30 9506 H 916.29 5.65669 -3.14049 0
M  V30 9507 N 916.422 0.810101 1.35185 0
M  V30 9508 C 917.67 0.391343 1.98275 0
M  V30 9509 C 917.991 -1.04592 1.64577 0
M  V30 9510 O 917.261 -1.72417 0.93001 0
M  V30 9511 H 915.841 0.141715 0.733434 0
M  V30 9512 H 918.503 1.03672 1.6504 0
M  V30 9513 H 917.599 0.49991 3.0807 0
M  V30 9514 N 917.9 -1.47166 0.563914 0
M  V30 9515 C 918.81 -2.33885 -0.182977 0
M  V30 9516 C 919.826 -1.48605 -0.905132 0
M  V30 9517 O 921.002 -1.81518 -0.872527 0
M  V30 9518 C 918.067 -3.25433 -1.19558 0
M  V30 9519 C 917.128 -4.26607 -0.480129 0
M  V30 9520 C 916.361 -5.1378 -1.44449 0
M  V30 9521 O 916.584 -5.03531 -2.67979 0
M  V30 9522 O 915.518 -5.94109 -0.965321 0
M  V30 9523 H 919.344 -2.99065 0.528544 0
M  V30 9524 H 916.929 -1.45834 0.324468 0
M  V30 9525 H 918.811 -3.81964 -1.77993 0
M  V30 9526 H 917.486 -2.62873 -1.8889 0
M  V30 9527 H 916.393 -3.73817 0.145583 0
M  V30 9528 H 917.726 -4.919 0.171868 0
M  V30 9529 N 919.378 -0.300708 -1.54705 0
M  V30 9530 C 920.326 0.591264 -2.2496 0
M  V30 9531 C 921.32 1.13725 -1.2555 0
M  V30 9532 O 922.526 1.08793 -1.43402 0
M  V30 9533 H 918.901 0.209278 -0.722293 0
M  V30 9534 H 920.872 -0.0238175 -2.9839 0
M  V30 9535 C 919.621 1.75179 -3.00346 0
M  V30 9536 H 918.944 1.34089 -3.76643 0
M  V30 9537 H 920.384 2.35198 -3.52786 0
M  V30 9538 C 918.843 2.65574 -2.07298 0
M  V30 9539 O 919.373 3.6666 -1.64083 0
M  V30 9540 N 917.579 2.33301 -1.7326 0
M  V30 9541 H 917.126 1.51142 -2.08599 0
M  V30 9542 H 917.084 2.94049 -1.11278 0
M  V30 9543 N 920.856 1.57574 -0.0284266 0
M  V30 9544 C 922.267 1.79585 0.510502 0
M  V30 9545 C 922.618 0.938625 1.72291 0
M  V30 9546 O 921.743 0.14884 2.15888 0
M  V30 9547 C 922.338 3.25703 0.932912 0
M  V30 9548 C 920.897 3.48711 1.41696 0
M  V30 9549 C 920.044 2.74665 0.381356 0
M  V30 9550 H 922.995 1.56647 -0.254464 0
M  V30 9551 H 923.016 3.35376 1.79731 0
M  V30 9552 H 922.528 3.88067 0.0503036 0
M  V30 9553 H 920.629 2.91597 2.31952 0
M  V30 9554 H 920.742 4.57423 1.42481 0
M  V30 9555 H 919.106 2.40123 0.8493 0
M  V30 9556 H 919.889 3.39745 -0.492775 0
M  V30 9557 N 922.334 -0.244713 1.55689 0
M  V30 9558 C 923.581 -0.972446 1.77622 0
M  V30 9559 C 923.909 -1.85235 0.593137 0
M  V30 9560 O 923.164 -1.91064 -0.423464 0
M  V30 9561 C 923.463 -1.8617 3.05083 0
M  V30 9562 C 923.129 -1.13696 4.3633 0
M  V30 9563 C 921.791 -0.936679 4.71996 0
M  V30 9564 C 924.143 -0.623451 5.17458 0
M  V30 9565 C 921.471 -0.210612 5.86322 0
M  V30 9566 C 923.823 0.0891587 6.32537 0
M  V30 9567 C 922.487 0.300904 6.66821 0
M  V30 9568 H 921.757 -0.355843 0.649967 0
M  V30 9569 H 924.404 -0.242372 1.8996 0
M  V30 9570 H 922.709 -2.6589 2.87767 0
M  V30 9571 H 924.406 -2.4265 3.19253 0
M  V30 9572 H 920.996 -1.30301 4.08313 0
M  V30 9573 H 925.18 -0.765725 4.90357 0
M  V30 9574 H 920.436 -0.0361062 6.11389 0
M  V30 9575 H 924.61 0.494685 6.94641 0
M  V30 9576 H 922.237 0.865466 7.55257 0
M  V30 9577 N 923.813 -1.49104 -0.510467 0
M  V30 9578 C 924.761 -1.65547 -1.63392 0
M  V30 9579 C 925.755 -0.521522 -1.61172 0
M  V30 9580 O 926.961 -0.700865 -1.65795 0
M  V30 9581 H 923.336 -0.521843 -0.541464 0
M  V30 9582 H 925.307 -2.59864 -1.46673 0
M  V30 9583 C 924.056 -1.73051 -3.01577 0
M  V30 9584 H 923.379 -2.59676 -3.03987 0
M  V30 9585 H 924.819 -1.88594 -3.79748 0
M  V30 9586 C 923.278 -0.47328 -3.33559 0
M  V30 9587 O 923.808 0.405239 -3.99651 0
M  V30 9588 N 922.014 -0.339074 -2.88615 0
M  V30 9589 H 921.561 -1.05497 -2.35007 0
M  V30 9590 H 921.519 0.501061 -3.10382 0
M  V30 9591 N 925.291 0.760815 -1.38019 0
M  V30 9592 C 926.221 1.88811 -1.37377 0
M  V30 9593 C 927.202 1.68388 -0.240737 0
M  V30 9594 O 928.387 1.89086 -0.442739 0
M  V30 9595 C 925.517 3.26244 -1.1909 0
M  V30 9596 C 924.471 3.61254 -2.29521 0
M  V30 9597 C 923.797 4.97346 -1.96345 0
M  V30 9598 C 925.097 3.66874 -3.71753 0
M  V30 9599 H 926.791 1.89606 -2.31711 0
M  V30 9600 H 924.337 0.910818 -1.11535 0
M  V30 9601 H 926.29 4.04755 -1.17267 0
M  V30 9602 H 925.014 3.2591 -0.212152 0
M  V30 9603 H 923.673 2.85057 -2.30517 0
M  V30 9604 H 923.321 4.93564 -0.969728 0
M  V30 9605 H 923.021 5.21739 -2.703 0
M  V30 9606 H 924.545 5.78244 -1.96129 0
M  V30 9607 H 925.959 4.35514 -3.72828 0
M  V30 9608 H 924.356 4.02772 -4.44853 0
M  V30 9609 H 925.426 2.67273 -4.0459 0
M  V30 9610 N 926.769 1.22769 0.988202 0
M  V30 9611 C 928.18 1.0512 1.54294 0
M  V30 9612 C 928.531 -0.383904 1.92407 0
M  V30 9613 O 927.656 -1.26955 1.75246 0
M  V30 9614 C 928.251 1.90198 2.80375 0
M  V30 9615 C 926.81 1.76831 3.32276 0
M  V30 9616 C 925.957 1.86377 2.05326 0
M  V30 9617 H 928.908 1.36546 0.808758 0
M  V30 9618 H 928.929 1.42216 3.52923 0
M  V30 9619 H 928.441 2.9464 2.52605 0
M  V30 9620 H 926.542 0.751412 3.64945 0
M  V30 9621 H 926.655 2.59771 4.02562 0
M  V30 9622 H 925.019 1.2987 2.19103 0
M  V30 9623 H 925.802 2.9236 1.79946 0
M  V30 9624 N 928.247 -1.18576 1.03814 0
M  V30 9625 C 929.177 -2.24334 0.647795 0
M  V30 9626 C 930.158 -1.66508 -0.34774 0
M  V30 9627 O 931.343 -1.92852 -0.228401 0
M  V30 9628 C 928.473 -3.47299 0.00734922 0
M  V30 9629 C 927.427 -4.17859 0.926152 0
M  V30 9630 C 926.753 -5.34489 0.150317 0
M  V30 9631 C 928.053 -4.71632 2.24411 0
M  V30 9632 H 929.747 -2.57241 1.53191 0
M  V30 9633 H 927.293 -1.23649 0.738028 0
M  V30 9634 H 929.246 -4.20486 -0.277434 0
M  V30 9635 H 927.97 -3.13619 -0.911626 0
M  V30 9636 H 926.629 -3.46567 1.19528 0
M  V30 9637 H 926.277 -4.97056 -0.770985 0
M  V30 9638 H 925.977 -5.82633 0.762407 0
M  V30 9639 H 927.501 -6.10467 -0.127508 0
M  V30 9640 H 928.915 -5.36526 2.02021 0
M  V30 9641 H 927.312 -5.303 2.80894 0
M  V30 9642 H 928.382 -3.89192 2.89236 0
M  V30 9643 N 929.725 -0.817259 -1.34754 0
M  V30 9644 C 930.657 -0.192695 -2.28389 0
M  V30 9645 C 931.67 0.614167 -1.50771 0
M  V30 9646 O 932.859 0.444776 -1.7287 0
M  V30 9647 C 929.959 0.748929 -3.30521 0
M  V30 9648 C 929.132 -0.0138762 -4.37398 0
M  V30 9649 C 928.191 0.847825 -5.19325 0
M  V30 9650 O 927.217 0.29487 -5.68436 0
M  V30 9651 N 928.419 2.16843 -5.38479 0
M  V30 9652 H 931.184 -0.997122 -2.82626 0
M  V30 9653 H 928.745 -0.673696 -1.47217 0
M  V30 9654 H 930.737 1.32987 -3.82226 0
M  V30 9655 H 929.307 1.45412 -2.7672 0
M  V30 9656 H 928.527 -0.776093 -3.86485 0
M  V30 9657 H 929.815 -0.539191 -5.05935 0
M  V30 9658 H 929.213 2.64148 -5.00242 0
M  V30 9659 H 927.77 2.69835 -5.93323 0
M  V30 9660 N 931.203 1.46865 -0.571711 0
M  V30 9661 C 932.431 2.06818 -0.0583975 0
M  V30 9662 C 932.846 1.42218 1.24175 0
M  V30 9663 O 932.203 0.523655 1.74826 0
M  V30 9664 C 932.254 3.61281 0.125673 0
M  V30 9665 O 931.975 4.23462 -1.123 0
M  V30 9666 C 933.476 4.38137 0.674604 0
M  V30 9667 H 930.696 0.668948 -0.052438 0
M  V30 9668 H 933.24 1.88656 -0.789251 0
M  V30 9669 H 931.395 3.78908 0.806707 0
M  V30 9670 H 931.809 5.16192 -0.929869 0
M  V30 9671 H 933.283 5.46845 0.752626 0
M  V30 9672 H 933.76 4.05419 1.68915 0
M  V30 9673 H 934.366 4.2529 0.0287979 0
M  V30 9674 N 932.681 0.308908 1.54543 0
M  V30 9675 C 933.611 -0.556657 2.26768 0
M  V30 9676 C 934.592 -1.13145 1.27013 0
M  V30 9677 O 935.777 -1.15931 1.558 0
M  V30 9678 C 932.907 -1.72481 3.01443 0
M  V30 9679 C 931.861 -1.28001 4.08411 0
M  V30 9680 C 931.187 -2.53395 4.70845 0
M  V30 9681 C 932.487 -0.405497 5.20724 0
M  V30 9682 H 934.181 0.0457618 2.99365 0
M  V30 9683 H 931.727 0.0234495 1.43981 0
M  V30 9684 H 933.68 -2.3365 3.50693 0
M  V30 9685 H 932.404 -2.35359 2.26437 0
M  V30 9686 H 931.063 -0.69133 3.60022 0
M  V30 9687 H 930.711 -3.14604 3.92471 0
M  V30 9688 H 930.411 -2.2433 5.43093 0
M  V30 9689 H 931.935 -3.15352 5.22863 0
M  V30 9690 H 933.349 -0.923076 5.6582 0
M  V30 9691 H 931.746 -0.208282 5.99738 0
M  V30 9692 H 932.816 0.567412 4.81569 0
M  V30 9693 N 934.159 -1.57557 0.0367827 0
M  V30 9694 C 935.408 -1.91291 -0.639569 0
M  V30 9695 C 935.721 -0.915601 -1.72847 0
M  V30 9696 O 936.927 -1.14447 -2.46199 0
M  V30 9697 C 935.383 -3.39697 -1.18888 0
M  V30 9698 C 934.991 -4.47803 -0.132851 0
M  V30 9699 C 936.735 -3.82487 -1.8413 0
M  V30 9700 C 934.642 -5.87311 -0.694229 0
M  V30 9701 H 933.572 -0.713886 -0.242658 0
M  V30 9702 H 936.223 -1.83209 0.103332 0
M  V30 9703 H 934.605 -3.42736 -1.98363 0
M  V30 9704 H 935.779 -4.56334 0.640009 0
M  V30 9705 H 934.094 -4.14264 0.421264 0
M  V30 9706 H 936.691 -4.84076 -2.27101 0
M  V30 9707 H 937.034 -3.17959 -2.68716 0
M  V30 9708 H 937.567 -3.81903 -1.11332 0
M  V30 9709 H 934.306 -6.55401 0.113667 0
M  V30 9710 H 933.826 -5.82371 -1.4354 0
M  V30 9711 H 935.505 -6.36119 -1.1816 0
M  V30 9712 N 935.637 0.236453 -1.55816 0
M  V30 9713 C 937.053 0.585465 -1.48474 0
M  V30 9714 C 937.253 1.8785 -0.72902 0
M  V30 9715 O 936.309 2.51131 -0.262614 0
M  V30 9716 C 937.622 0.678506 -2.92945 0
M  V30 9717 C 939.17 0.770135 -3.03378 0
M  V30 9718 C 939.645 0.894649 -4.49177 0
M  V30 9719 N 941.136 0.959253 -4.53158 0
M  V30 9720 C 941.871 1.07505 -5.63232 0
M  V30 9721 N 941.367 1.15572 -6.83092 0
M  V30 9722 N 943.16 1.10902 -5.51051 0
M  V30 9723 H 935.311 -0.612241 -2.03385 0
M  V30 9724 H 937.574 -0.212796 -0.923808 0
M  V30 9725 H 937.28 -0.201757 -3.51121 0
M  V30 9726 H 937.154 1.54703 -3.44016 0
M  V30 9727 H 939.541 1.64085 -2.45276 0
M  V30 9728 H 939.622 -0.123753 -2.555 0
M  V30 9729 H 939.266 0.0284537 -5.07892 0
M  V30 9730 H 939.196 1.80373 -4.94745 0
M  V30 9731 H 941.687 0.907827 -3.66834 0
M  V30 9732 H 942 1.24343 -7.62731 0
M  V30 9733 H 940.345 1.12511 -6.85833 0
M  V30 9734 H 943.536 1.04255 -4.56343 0
M  V30 9735 H 943.709 1.19581 -6.36871 0
M  V30 9736 N 937.115 1.49373 0.502552 0
M  V30 9737 C 938.362 1.58781 1.25678 0
M  V30 9738 C 938.69 0.273819 1.92563 0
M  V30 9739 O 937.945 -0.738141 1.81246 0
M  V30 9740 C 938.244 2.69508 2.34735 0
M  V30 9741 C 937.91 4.11057 1.85318 0
M  V30 9742 C 936.572 4.49578 1.7156 0
M  V30 9743 C 938.924 4.99653 1.48312 0
M  V30 9744 C 936.252 5.74469 1.19172 0
M  V30 9745 C 938.604 6.2506 0.97377 0
M  V30 9746 C 937.268 6.62412 0.822573 0
M  V30 9747 H 936.538 0.581021 0.459887 0
M  V30 9748 H 939.185 1.83197 0.557767 0
M  V30 9749 H 937.49 2.39057 3.10418 0
M  V30 9750 H 939.187 2.73997 2.92791 0
M  V30 9751 H 935.777 3.80651 1.96985 0
M  V30 9752 H 939.961 4.70549 1.57789 0
M  V30 9753 H 935.217 6.0211 1.06176 0
M  V30 9754 H 939.391 6.93089 0.678233 0
M  V30 9755 H 937.018 7.59069 0.414453 0
M  V30 9756 N 938.594 -0.753485 1.38421 0
M  V30 9757 C 939.527 -1.87525 1.30037 0
M  V30 9758 C 940.505 -1.6163 0.177379 0
M  V30 9759 O 941.689 -1.85132 0.354716 0
M  V30 9760 C 938.816 -3.23138 1.01485 0
M  V30 9761 C 937.862 -3.67921 2.15723 0
M  V30 9762 S 938.695 -3.79447 3.77863 0
M  V30 9763 C 939.851 -5.17879 3.51499 0
M  V30 9764 H 940.084 -1.94351 2.24978 0
M  V30 9765 H 937.617 -0.916475 1.24258 0
M  V30 9766 H 939.575 -4.01455 0.856959 0
M  V30 9767 H 938.236 -3.13991 0.0826199 0
M  V30 9768 H 937.429 -4.66287 1.91292 0
M  V30 9769 H 937.031 -2.96758 2.2762 0
M  V30 9770 H 939.323 -6.03636 3.0762 0
M  V30 9771 H 940.266 -5.47331 4.49259 0
M  V30 9772 H 940.674 -4.86681 2.8601 0
M  V30 9773 N 940.072 -1.23292 -0.981677 0
M  V30 9774 C 941.318 -1.06582 -1.72535 0
M  V30 9775 C 941.651 0.396538 -1.90108 0
M  V30 9776 O 940.926 1.29363 -1.45243 0
M  V30 9777 C 941.209 -1.7904 -3.12437 0
M  V30 9778 C 941.062 -3.32941 -3.02441 0
M  V30 9779 C 942.381 -1.55185 -4.11832 0
M  V30 9780 H 939.5 -0.388585 -0.626236 0
M  V30 9781 H 942.142 -1.51779 -1.14293 0
M  V30 9782 H 940.292 -1.40619 -3.62158 0
M  V30 9783 H 941.964 -3.80875 -2.60254 0
M  V30 9784 H 940.207 -3.62039 -2.38977 0
M  V30 9785 H 940.878 -3.78827 -4.0149 0
M  V30 9786 H 943.354 -1.88581 -3.70913 0
M  V30 9787 H 942.23 -2.08362 -5.07815 0
M  V30 9788 H 942.491 -0.486925 -4.3941 0
M  V30 9789 N 941.55 1.18024 -1.04442 0
M  V30 9790 C 942.827 1.8398 -0.664125 0
M  V30 9791 C 943.207 1.92961 0.856116 0
M  V30 9792 O 942.555 1.45839 1.75907 0
M  V30 9793 C 942.765 3.22069 -1.34433 0
M  V30 9794 C 944.113 3.98063 -1.47754 0
M  V30 9795 O 945.137 3.31523 -1.30274 0
M  V30 9796 O 943.996 5.17291 -1.76272 0
M  V30 9797 H 941.09 0.793543 -0.23285 0
M  V30 9798 H 943.636 1.25385 -1.14354 0
M  V30 9799 H 942.408 3.10458 -2.38184 0
M  V30 9800 H 942.031 3.88325 -0.853782 0
M  V30 9801 N 943.028 0.824394 1.34319 0
M  V30 9802 C 944.277 0.40956 1.97498 0
M  V30 9803 C 944.59 -1.03323 1.66083 0
M  V30 9804 O 945.796 -1.55205 2.22764 0
M  V30 9805 C 944.252 0.681384 3.53391 0
M  V30 9806 C 943.86 2.1379 3.93698 0
M  V30 9807 C 945.604 0.332788 4.23194 0
M  V30 9808 C 943.511 2.35453 5.42509 0
M  V30 9809 H 942.441 0.149409 0.739049 0
M  V30 9810 H 945.092 1.01095 1.5314 0
M  V30 9811 H 943.474 0.00980375 3.95999 0
M  V30 9812 H 944.648 2.84876 3.62191 0
M  V30 9813 H 942.963 2.44807 3.36836 0
M  V30 9814 H 945.56 0.472463 5.32609 0
M  V30 9815 H 945.903 -0.722862 4.09976 0
M  V30 9816 H 946.436 0.959005 3.86067 0
M  V30 9817 H 943.175 3.39529 5.60714 0
M  V30 9818 H 942.695 1.68912 5.75525 0
M  V30 9819 H 944.374 2.17885 6.09209 0
M  V30 9820 N 944.506 -1.46559 0.579492 0
M  V30 9821 C 945.469 -2.28739 -0.145371 0
M  V30 9822 C 946.469 -1.38211 -0.821854 0
M  V30 9823 O 947.659 -1.6062 -0.674302 0
M  V30 9824 C 944.791 -3.18507 -1.21515 0
M  V30 9825 H 945.984 -2.94301 0.576786 0
M  V30 9826 H 943.537 -1.52616 0.337327 0
M  V30 9827 H 944.272 -2.57685 -1.96899 0
M  V30 9828 H 944.057 -3.85157 -0.734616 0
M  V30 9829 H 945.547 -3.80369 -1.72363 0
M  V30 9830 N 945.984 -0.3171 -1.54377 0
M  V30 9831 C 947.224 0.288083 -2.0236 0
M  V30 9832 C 947.588 1.4985 -1.20038 0
M  V30 9833 O 948.789 2.17611 -1.57794 0
M  V30 9834 C 947.06 0.620192 -3.51978 0
M  V30 9835 S 948.619 1.20595 -4.21903 0
M  V30 9836 H 945.437 0.0875231 -0.705592 0
M  V30 9837 H 948.039 -0.448719 -1.90281 0
M  V30 9838 H 946.743 -0.268982 -4.09518 0
M  V30 9839 H 946.274 1.38736 -3.68125 0
M  V30 9840 H 948.289 2.49308 -4.29022 0
M  V30 9841 N 947.462 1.57535 -0.0451378 0
M  V30 9842 C 948.71 1.92071 0.628743 0
M  V30 9843 C 949.031 0.923635 1.71738 0
M  V30 9844 O 948.301 -0.0324376 1.95873 0
M  V30 9845 H 946.881 0.708995 0.235233 0
M  V30 9846 H 949.543 1.9466 -0.0967177 0
M  V30 9847 H 948.639 2.9314 1.07123 0
M  V30 9848 N 948.94 -0.228186 1.55939 0
M  V30 9849 C 949.873 -1.30971 1.86874 0
M  V30 9850 C 950.851 -1.45517 0.725496 0
M  V30 9851 O 952.035 -1.61436 0.973181 0
M  V30 9852 C 949.162 -2.68089 2.06992 0
M  V30 9853 C 948.208 -2.70594 3.29669 0
M  V30 9854 S 949.041 -2.25325 4.85787 0
M  V30 9855 C 950.197 -3.64331 5.08934 0
M  V30 9856 H 950.43 -1.04536 2.78315 0
M  V30 9857 H 947.963 -0.430103 1.48288 0
M  V30 9858 H 949.921 -3.47033 2.19267 0
M  V30 9859 H 948.582 -2.91752 1.16359 0
M  V30 9860 H 947.775 -3.71338 3.4077 0
M  V30 9861 H 947.377 -1.99708 3.16216 0
M  V30 9862 H 949.669 -4.59972 4.97425 0
M  V30 9863 H 950.612 -3.58151 6.10847 0
M  V30 9864 H 951.02 -3.57711 4.36695 0
M  V30 9865 N 950.418 -1.49637 -0.494624 0
M  V30 9866 C 951.328 -1.69522 -1.62172 0
M  V30 9867 C 952.344 -0.577894 -1.64123 0
M  V30 9868 O 953.52 -0.853382 -1.82426 0
M  V30 9869 C 950.585 -1.7633 -2.9851 0
M  V30 9870 C 949.646 -2.99944 -3.07135 0
M  V30 9871 C 948.879 -3.06419 -4.36971 0
M  V30 9872 O 949.102 -2.20312 -5.26136 0
M  V30 9873 O 948.036 -3.9894 -4.507 0
M  V30 9874 H 951.862 -2.65017 -1.48324 0
M  V30 9875 H 949.447 -1.33454 -0.671603 0
M  V30 9876 H 951.329 -1.83125 -3.7953 0
M  V30 9877 H 950.004 -0.840155 -3.12607 0
M  V30 9878 H 948.911 -2.98664 -2.2528 0
M  V30 9879 H 950.244 -3.9176 -2.97968 0
M  V30 9880 N 951.896 0.746133 -1.38819 0
M  V30 9881 C 953.126 1.53316 -1.38484 0
M  V30 9882 C 953.534 1.89183 0.0253332 0
M  V30 9883 O 952.877 1.5382 1.00424 0
M  V30 9884 C 952.939 2.85623 -2.18311 0
M  V30 9885 C 952.603 2.72253 -3.67052 0
M  V30 9886 C 953.6 2.41547 -4.60381 0
M  V30 9887 C 951.285 2.89472 -4.10501 0
M  V30 9888 C 953.279 2.28226 -5.9514 0
M  V30 9889 C 950.966 2.7577 -5.45338 0
M  V30 9890 C 951.964 2.45191 -6.37472 0
M  V30 9891 O 951.652 2.31561 -7.69828 0
M  V30 9892 H 951.384 0.480763 -0.475229 0
M  V30 9893 H 953.938 0.93057 -1.83111 0
M  V30 9894 H 952.168 3.481 -1.68414 0
M  V30 9895 H 953.857 3.47178 -2.10291 0
M  V30 9896 H 954.623 2.27905 -4.28117 0
M  V30 9897 H 950.502 3.12269 -3.3913 0
M  V30 9898 H 954.046 2.04279 -6.6702 0
M  V30 9899 H 949.943 2.88987 -5.77197 0
M  V30 9900 H 950.711 2.46716 -7.80432 0
M  V30 9901 N 953.375 1.23811 0.975125 0
M  V30 9902 C 954.305 1.04846 2.08638 0
M  V30 9903 C 955.286 -0.0362859 1.70061 0
M  V30 9904 O 956.471 0.12937 1.93769 0
M  V30 9905 C 953.601 0.644534 3.41267 0
M  V30 9906 C 952.555 1.67722 3.93768 0
M  V30 9907 C 951.881 1.12857 5.22654 0
M  V30 9908 C 953.181 3.07147 4.22443 0
M  V30 9909 H 954.875 1.97795 2.24761 0
M  V30 9910 H 952.421 0.952397 1.08006 0
M  V30 9911 H 954.374 0.498887 4.18436 0
M  V30 9912 H 953.098 -0.320641 3.25022 0
M  V30 9913 H 951.757 1.81095 3.18748 0
M  V30 9914 H 951.405 0.154227 5.02764 0
M  V30 9915 H 951.105 1.81862 5.58749 0
M  V30 9916 H 952.629 0.994891 6.0244 0
M  V30 9917 H 954.043 2.97045 4.90344 0
M  V30 9918 H 952.44 3.73437 4.6975 0
M  V30 9919 H 953.51 3.55743 3.29507 0
M  V30 9920 N 954.853 -1.17469 1.05066 0
M  V30 9921 C 956.078 -1.92162 0.780298 0
M  V30 9922 C 956.503 -1.76222 -0.657832 0
M  V30 9923 O 955.861 -1.0791 -1.45688 0
M  V30 9924 C 955.909 -3.41292 1.16414 0
M  V30 9925 O 955.013 -4.1134 0.295531 0
M  V30 9926 H 954.354 -0.599127 0.286257 0
M  V30 9927 H 956.884 -1.48903 1.40318 0
M  V30 9928 H 956.894 -3.92029 1.13036 0
M  V30 9929 H 955.569 -3.52214 2.21175 0
M  V30 9930 H 954.146 -3.70857 0.389797 0
M  V30 9931 N 956.331 -0.831506 -1.3388 0
M  V30 9932 C 957.556 -0.435954 -2.02766 0
M  V30 9933 C 957.981 0.952889 -1.62178 0
M  V30 9934 O 957.339 1.62166 -0.810681 0
M  V30 9935 C 957.387 -0.555907 -3.56289 0
M  V30 9936 O 956.491 0.420826 -4.10247 0
M  V30 9937 H 955.832 -0.178248 -0.639628 0
M  V30 9938 H 958.362 -1.1243 -1.70941 0
M  V30 9939 H 958.372 -0.434831 -4.05676 0
M  V30 9940 H 957.047 -1.56881 -3.85177 0
M  V30 9941 H 955.624 0.257919 -3.72007 0
M  V30 9942 N 957.809 1.4625 -0.587256 0
M  V30 9943 C 959.225 1.57641 -0.249284 0
M  V30 9944 C 959.425 1.58169 1.24839 0
M  V30 9945 O 958.481 1.50109 2.03036 0
M  V30 9946 C 959.794 2.86837 -0.902509 0
M  V30 9947 C 961.342 3.00476 -0.876524 0
M  V30 9948 C 961.817 4.32414 -1.50938 0
M  V30 9949 N 963.308 4.39124 -1.47392 0
M  V30 9950 C 964.043 5.39838 -1.93293 0
M  V30 9951 N 963.539 6.47202 -2.47188 0
M  V30 9952 N 965.332 5.31068 -1.84183 0
M  V30 9953 H 957.483 1.44151 -1.55994 0
M  V30 9954 H 959.746 0.687905 -0.652297 0
M  V30 9955 H 959.452 2.92274 -1.95624 0
M  V30 9956 H 959.326 3.74927 -0.413466 0
M  V30 9957 H 961.713 2.94618 0.168601 0
M  V30 9958 H 961.794 2.1385 -1.40363 0
M  V30 9959 H 961.438 4.3903 -2.55372 0
M  V30 9960 H 961.368 5.17823 -0.957455 0
M  V30 9961 H 963.859 3.62138 -1.08002 0
M  V30 9962 H 964.172 7.20269 -2.80058 0
M  V30 9963 H 962.517 6.48009 -2.51216 0
M  V30 9964 H 965.708 4.46095 -1.41833 0
M  V30 9965 H 965.881 6.09414 -2.2027 0
M  V30 9966 N 959.287 0.325282 1.54207 0
M  V30 9967 C 960.235 -0.5554 2.25872 0
M  V30 9968 C 961.229 -1.11714 1.27344 0
M  V30 9969 O 962.435 -1.06498 1.45115 0
M  V30 9970 H 958.81 -0.19776 0.725531 0
M  V30 9971 H 960.781 0.0712858 2.98315 0
M  V30 9972 C 959.53 -1.70379 3.03095 0
M  V30 9973 H 958.853 -1.2808 3.78729 0
M  V30 9974 H 960.293 -2.29556 3.56483 0
M  V30 9975 C 958.752 -2.62242 2.11496 0
M  V30 9976 O 959.282 -3.64003 1.69895 0
M  V30 9977 N 957.488 -2.30515 1.7695 0
M  V30 9978 H 957.035 -1.47805 2.10978 0
M  V30 9979 H 956.993 -2.92241 1.15942 0
M  V30 9980 N 960.765 -1.57509 0.0534917 0
M  V30 9981 C 962.012 -1.92782 -0.619772 0
M  V30 9982 C 962.34 -0.932046 -1.70714 0
M  V30 9983 O 961.595 0.0552891 -1.95622 0
M  V30 9984 C 961.894 -3.34734 -1.25251 0
M  V30 9985 C 961.56 -4.49946 -0.293113 0
M  V30 9986 C 960.222 -4.81191 -0.0291223 0
M  V30 9987 C 962.574 -5.19925 0.364271 0
M  V30 9988 C 959.902 -5.79761 0.899649 0
M  V30 9989 C 962.254 -6.19489 1.28125 0
M  V30 9990 C 960.918 -6.49161 1.55389 0
M  V30 9991 H 960.188 -0.705441 -0.226791 0
M  V30 9992 H 962.835 -1.91121 0.120466 0
M  V30 9993 H 961.14 -3.32774 -2.06807 0
M  V30 9994 H 962.837 -3.59308 -1.78042 0
M  V30 9995 H 959.427 -4.25566 -0.509053 0
M  V30 9996 H 963.611 -4.95997 0.173411 0
M  V30 9997 H 958.867 -6.01085 1.11833 0
M  V30 9998 H 963.041 -6.72824 1.79669 0
M  V30 9999 H 960.668 -7.25354 2.2752 0
M  V30 10000 N 962.243 0.219913 -1.56058 0
M  V30 10001 C 963.492 0.942119 -1.78345 0
M  V30 10002 C 963.805 1.85435 -0.622344 0
M  V30 10003 O 965.011 2.61533 -0.728886 0
M  V30 10004 C 963.467 1.72544 -3.15843 0
M  V30 10005 C 963.075 0.859263 -4.39682 0
M  V30 10006 C 964.819 2.43876 -3.47455 0
M  V30 10007 C 962.726 1.64003 -5.68205 0
M  V30 10008 H 961.656 0.355514 -0.664925 0
M  V30 10009 H 964.307 0.195963 -1.82451 0
M  V30 10010 H 962.689 2.51456 -3.05918 0
M  V30 10011 H 963.863 0.110562 -4.60667 0
M  V30 10012 H 962.178 0.257985 -4.156 0
M  V30 10013 H 964.775 3.02794 -4.40704 0
M  V30 10014 H 965.118 3.16843 -2.7003 0
M  V30 10015 H 965.651 1.71952 -3.58716 0
M  V30 10016 H 962.39 0.953606 -6.48526 0
M  V30 10017 H 961.91 2.3633 -5.51279 0
M  V30 10018 H 963.589 2.20028 -6.08438 0
M  V30 10019 N 963.721 1.49897 0.486681 0
M  V30 10020 C 964.671 1.6401 1.58381 0
M  V30 10021 C 965.655 0.495215 1.5309 0
M  V30 10022 O 966.847 0.748876 1.60377 0
M  V30 10023 C 963.976 1.72321 2.96918 0
M  V30 10024 C 963.062 2.92435 3.07152 0
M  V30 10025 N 963.453 4.16326 2.87238 0
M  V30 10026 C 961.751 2.90669 3.38271 0
M  V30 10027 C 962.452 4.97144 3.02031 0
M  V30 10028 N 961.428 4.3079 3.31544 0
M  V30 10029 H 965.23 2.57506 1.41661 0
M  V30 10030 H 962.744 1.46867 0.693106 0
M  V30 10031 H 964.741 1.80532 3.75784 0
M  V30 10032 H 963.401 0.799724 3.14697 0
M  V30 10033 H 964.412 4.46076 2.63128 0
M  V30 10034 H 961.089 2.07758 3.62137 0
M  V30 10035 H 962.479 6.05611 2.91006 0
M  V30 10036 N 965.199 -0.738761 1.39212 0
M  V30 10037 C 966.615 -1.04381 1.20734 0
M  V30 10038 C 966.815 -2.01391 0.0663082 0
M  V30 10039 O 965.871 -2.45672 -0.583229 0
M  V30 10040 C 967.184 -1.6097 2.53987 0
M  V30 10041 C 968.732 -1.73069 2.60799 0
M  V30 10042 C 969.207 -2.33067 3.94264 0
M  V30 10043 N 970.698 -2.40481 3.95883 0
M  V30 10044 C 971.433 -2.87834 4.95923 0
M  V30 10045 N 970.929 -3.35111 6.0636 0
M  V30 10046 N 972.722 -2.87009 4.83304 0
M  V30 10047 H 964.873 -0.0952996 2.12186 0
M  V30 10048 H 967.136 -0.104902 0.942178 0
M  V30 10049 H 966.842 -0.971548 3.38015 0
M  V30 10050 H 966.716 -2.59829 2.73439 0
M  V30 10051 H 969.103 -2.36007 1.77157 0
M  V30 10052 H 969.184 -0.728728 2.452 0
M  V30 10053 H 968.828 -1.70758 4.78335 0
M  V30 10054 H 968.758 -3.33933 4.07181 0
M  V30 10055 H 971.249 -2.07061 3.16123 0
M  V30 10056 H 971.562 -3.69742 6.78609 0
M  V30 10057 H 969.907 -3.33129 6.09959 0
M  V30 10058 H 973.098 -2.49395 3.96131 0
M  V30 10059 H 973.271 -3.23598 5.61416 0
M  V30 10060 N 966.677 -1.24326 -0.968545 0
M  V30 10061 C 967.954 -0.990459 -1.68669 0
M  V30 10062 C 968.334 0.487487 -2.05394 0
M  V30 10063 O 967.682 1.46158 -1.75642 0
M  V30 10064 C 967.892 -1.91251 -2.91931 0
M  V30 10065 C 969.24 -2.18291 -3.6419 0
M  V30 10066 O 970.264 -1.88897 -3.01987 0
M  V30 10067 O 969.123 -2.68204 -4.76161 0
M  V30 10068 H 966.217 -0.374515 -0.737338 0
M  V30 10069 H 968.763 -1.35421 -1.02271 0
M  V30 10070 H 967.535 -2.9111 -2.61478 0
M  V30 10071 H 967.158 -1.55188 -3.66064 0
M  V30 10072 N 968.156 1.1691 -1.05688 0
M  V30 10073 C 969.086 2.23275 -0.683402 0
M  V30 10074 C 970.067 1.6704 0.321206 0
M  V30 10075 O 971.252 1.93191 0.197691 0
M  V30 10076 C 968.382 3.47244 -0.0626006 0
M  V30 10077 C 967.336 4.16333 -0.992513 0
M  V30 10078 C 966.662 5.34182 -0.23533 0
M  V30 10079 C 967.962 4.68002 -2.31886 0
M  V30 10080 H 969.656 2.54771 -1.57264 0
M  V30 10081 H 967.202 1.2246 -0.757606 0
M  V30 10082 H 969.155 4.20874 0.210503 0
M  V30 10083 H 967.879 3.1503 0.861616 0
M  V30 10084 H 966.538 3.44622 -1.25026 0
M  V30 10085 H 966.186 4.9822 0.69181 0
M  V30 10086 H 965.886 5.81346 -0.855002 0
M  V30 10087 H 967.41 6.10592 0.0303717 0
M  V30 10088 H 968.824 5.33244 -2.10531 0
M  V30 10089 H 967.221 5.25764 -2.89296 0
M  V30 10090 H 968.291 3.84541 -2.95391 0
M  V30 10091 N 969.634 0.838594 1.33437 0
M  V30 10092 C 970.597 0.276843 2.27522 0
M  V30 10093 C 971.597 -0.554275 1.50945 0
M  V30 10094 O 972.787 -0.368107 1.70266 0
M  V30 10095 C 969.919 -0.610036 3.35397 0
M  V30 10096 H 971.112 1.10705 2.78719 0
M  V30 10097 H 968.665 0.611657 1.43835 0
M  V30 10098 H 969.4 -1.46269 2.89441 0
M  V30 10099 H 969.185 -0.0153615 3.92097 0
M  V30 10100 H 970.675 -0.996368 4.05539 0
M  V30 10101 N 971.112 -1.45937 0.595003 0
M  V30 10102 C 972.075 -2.2888 -0.121102 0
M  V30 10103 C 973.075 -1.39075 -0.807149 0
M  V30 10104 O 974.265 -1.61326 -0.657228 0
M  V30 10105 C 971.397 -3.19778 -1.1813 0
M  V30 10106 H 972.59 -2.93673 0.607968 0
M  V30 10107 H 970.143 -1.5225 0.353495 0
M  V30 10108 H 970.878 -2.59759 -1.94154 0
M  V30 10109 H 970.663 -3.85914 -0.693724 0
M  V30 10110 H 972.153 -3.82176 -1.68319 0
M  V30 10111 N 972.59 -0.333456 -1.54032 0
M  V30 10112 C 974.006 0.0188405 -1.59589 0
M  V30 10113 C 974.206 1.49615 -1.34972 0
M  V30 10114 O 973.262 2.2535 -1.13901 0
M  V30 10115 C 974.575 -0.408273 -2.97915 0
M  V30 10116 C 976.123 -0.359763 -3.10926 0
M  V30 10117 C 976.598 -0.76219 -4.51613 0
M  V30 10118 N 978.089 -0.715981 -4.57633 0
M  V30 10119 C 978.824 -0.999436 -5.64623 0
M  V30 10120 N 978.32 -1.35053 -6.79509 0
M  V30 10121 N 980.113 -0.924343 -5.54448 0
M  V30 10122 H 972.264 -1.29587 -1.68289 0
M  V30 10123 H 974.527 -0.527584 -0.787629 0
M  V30 10124 H 974.233 -1.43793 -3.20962 0
M  V30 10125 H 974.107 0.221685 -3.76548 0
M  V30 10126 H 976.494 0.660703 -2.87609 0
M  V30 10127 H 976.575 -1.02479 -2.34375 0
M  V30 10128 H 976.219 -1.78062 -4.75664 0
M  V30 10129 H 976.149 -0.0747478 -5.26547 0
M  V30 10130 H 978.64 -0.456875 -3.75128 0
M  V30 10131 H 978.953 -1.55194 -7.57057 0
M  V30 10132 H 977.298 -1.38889 -6.80981 0
M  V30 10133 H 980.489 -0.649469 -4.63573 0
M  V30 10134 H 980.662 -1.1486 -6.37739 0
M  V30 10135 N 974.068 1.57479 -0.061844 0
M  V30 10136 C 975.016 2.13346 0.926629 0
M  V30 10137 C 976.01 1.06787 1.31502 0
M  V30 10138 O 977.216 1.25181 1.29343 0
M  V30 10139 H 973.591 0.682046 0.316729 0
M  V30 10140 H 975.562 2.95279 0.430424 0
M  V30 10141 C 974.311 2.70198 2.18834 0
M  V30 10142 H 973.634 3.51859 1.89829 0
M  V30 10143 H 975.074 3.12897 2.86132 0
M  V30 10144 C 973.533 1.64481 2.9402 0
M  V30 10145 O 974.063 1.0639 3.87355 0
M  V30 10146 N 972.269 1.35749 2.56944 0
M  V30 10147 H 971.816 1.83177 1.81119 0
M  V30 10148 H 971.774 0.652469 3.07555 0
M  V30 10149 N 975.546 -0.211634 1.56173 0
M  V30 10150 C 976.786 -0.941505 1.81425 0
M  V30 10151 C 977.15 -1.8113 0.636862 0
M  V30 10152 O 978.351 -2.57568 0.768907 0
M  V30 10153 C 976.622 -1.75002 3.11623 0
M  V30 10154 S 978.181 -2.53418 3.58225 0
M  V30 10155 H 974.999 -0.316088 0.636875 0
M  V30 10156 H 977.601 -0.206244 1.94409 0
M  V30 10157 H 976.305 -1.10136 3.95346 0
M  V30 10158 H 975.836 -2.5274 3.01473 0
M  V30 10159 H 977.851 -3.77234 3.22349 0
M  V30 10160 N 977.024 -1.50153 -0.478725 0
M  V30 10161 C 977.957 -1.63089 -1.59616 0
M  V30 10162 C 978.935 -0.479211 -1.55378 0
M  V30 10163 O 980.119 -0.697715 -1.75112 0
M  V30 10164 C 977.246 -1.60643 -2.9818 0
M  V30 10165 C 976.292 -2.81279 -3.206 0
M  V30 10166 S 977.125 -4.42681 -3.0132 0
M  V30 10167 C 978.281 -4.42915 -4.42241 0
M  V30 10168 H 978.514 -2.57612 -1.48402 0
M  V30 10169 H 976.047 -1.39321 -0.665513 0
M  V30 10170 H 978.005 -1.59917 -3.7807 0
M  V30 10171 H 976.666 -0.673684 -3.0679 0
M  V30 10172 H 975.859 -2.7585 -4.21809 0
M  V30 10173 H 975.461 -2.79533 -2.4847 0
M  V30 10174 H 977.753 -4.16007 -5.34737 0
M  V30 10175 H 978.696 -5.44477 -4.52715 0
M  V30 10176 H 979.104 -3.72715 -4.23962 0
M  V30 10177 N 978.502 0.731368 -1.39602 0
M  V30 10178 C 979.432 1.85855 -1.41351 0
M  V30 10179 C 980.413 1.67839 -0.2764 0
M  V30 10180 O 981.598 1.88104 -0.482747 0
M  V30 10181 C 978.728 3.23644 -1.25983 0
M  V30 10182 C 977.682 3.56304 -2.37132 0
M  V30 10183 C 977.008 4.93069 -2.0685 0
M  V30 10184 C 978.308 3.58906 -3.79452 0
M  V30 10185 H 980.002 1.84648 -2.3568 0
M  V30 10186 H 977.548 0.886955 -1.13442 0
M  V30 10187 H 979.501 4.02176 -1.25826 0
M  V30 10188 H 978.225 3.25387 -0.281234 0
M  V30 10189 H 976.884 2.80104 -2.36511 0
M  V30 10190 H 976.532 4.91396 -1.0742 0
M  V30 10191 H 976.232 5.15888 -2.81306 0
M  V30 10192 H 977.756 5.73953 -2.0835 0
M  V30 10193 H 979.17 4.27508 -3.81982 0
M  V30 10194 H 977.567 3.93246 -4.53297 0
M  V30 10195 H 978.637 2.58631 -4.10168 0
M  V30 10196 N 979.98 1.24838 0.961938 0
M  V30 10197 C 980.943 1.04674 2.03902 0
M  V30 10198 C 981.943 0.00204674 1.608 0
M  V30 10199 O 983.133 0.243555 1.72489 0
M  V30 10200 C 980.265 0.587736 3.35795 0
M  V30 10201 H 981.458 2.00278 2.23223 0
M  V30 10202 H 979.011 1.07142 1.138 0
M  V30 10203 H 979.746 -0.371244 3.22168 0
M  V30 10204 H 979.531 1.34182 3.68426 0
M  V30 10205 H 981.021 0.467867 4.14971 0
M  V30 10206 N 981.458 -1.16348 1.06306 0
M  V30 10207 C 982.368 -2.24375 0.685059 0
M  V30 10208 C 983.384 -1.71413 -0.298956 0
M  V30 10209 O 984.56 -2.00854 -0.148239 0
M  V30 10210 C 981.625 -3.46614 0.0774088 0
M  V30 10211 C 980.686 -4.14613 1.11331 0
M  V30 10212 C 979.919 -5.31016 0.534559 0
M  V30 10213 O 980.142 -5.66654 -0.65265 0
M  V30 10214 O 979.076 -5.88256 1.27431 0
M  V30 10215 H 982.902 -2.59018 1.58566 0
M  V30 10216 H 980.487 -1.23865 0.835332 0
M  V30 10217 H 982.369 -4.20599 -0.259716 0
M  V30 10218 H 981.044 -3.13743 -0.796677 0
M  V30 10219 H 979.951 -3.42597 1.50261 0
M  V30 10220 H 981.284 -4.51538 1.95893 0
M  V30 10221 N 982.937 -0.845659 -1.3299 0
M  V30 10222 C 984.214 -0.366306 -1.92139 0
M  V30 10223 C 984.594 1.14912 -1.77083 0
M  V30 10224 O 983.942 1.96667 -1.16338 0
M  V30 10225 C 984.152 -0.820716 -3.39213 0
M  V30 10226 C 985.5 -0.832667 -4.16355 0
M  V30 10227 O 986.524 -0.764764 -3.47893 0
M  V30 10228 O 985.383 -0.926658 -5.38586 0
M  V30 10229 H 982.477 -0.105063 -0.820299 0
M  V30 10230 H 985.023 -0.931962 -1.41819 0
M  V30 10231 H 983.795 -1.86357 -3.44074 0
M  V30 10232 H 983.418 -0.232009 -3.96923 0
M  V30 10233 N 984.415 1.45619 -0.602734 0
M  V30 10234 C 985.348 2.27583 0.167708 0
M  V30 10235 C 986.326 1.36844 0.878206 0
M  V30 10236 O 987.51 1.6627 0.888058 0
M  V30 10237 C 984.637 3.15094 1.24232 0
M  V30 10238 C 983.683 4.21739 0.63549 0
M  V30 10239 S 984.516 5.32638 -0.552944 0
M  V30 10240 C 985.672 6.23716 0.522382 0
M  V30 10241 H 985.905 2.92579 -0.527697 0
M  V30 10242 H 983.438 1.4939 -0.390127 0
M  V30 10243 H 985.396 3.66071 1.85748 0
M  V30 10244 H 984.057 2.49372 1.90978 0
M  V30 10245 H 983.25 4.82874 1.44389 0
M  V30 10246 H 982.852 3.73878 0.0955772 0
M  V30 10247 H 985.144 6.62819 1.40276 0
M  V30 10248 H 986.087 7.0808 -0.0526951 0
M  V30 10249 H 986.495 5.58282 0.83553 0
M  V30 10250 N 985.893 0.34162 1.53853 0
M  V30 10251 C 987.121 -0.256929 2.05299 0
M  V30 10252 C 987.536 -1.44366 1.21671 0
M  V30 10253 O 986.893 -1.80758 0.251584 0
M  V30 10254 C 986.944 -0.673854 3.55164 0
M  V30 10255 O 986.665 0.465687 4.35618 0
M  V30 10256 C 988.166 -1.33332 4.22773 0
M  V30 10257 H 985.386 -0.0499445 0.669139 0
M  V30 10258 H 987.93 0.493048 1.98467 0
M  V30 10259 H 986.085 -1.37378 3.62224 0
M  V30 10260 H 986.499 0.133723 5.2433 0
M  V30 10261 H 987.973 -1.57582 5.29029 0
M  V30 10262 H 988.45 -2.28628 3.75001 0
M  V30 10263 H 989.056 -0.675489 4.19901 0
M  V30 10264 N 987.371 -1.57444 0.0701946 0
M  V30 10265 C 988.617 -1.93716 -0.600178 0
M  V30 10266 C 988.95 -0.950329 -1.69359 0
M  V30 10267 O 988.225 0.0207123 -1.94489 0
M  V30 10268 C 988.508 -3.40266 -1.17861 0
M  V30 10269 C 988.361 -4.49706 -0.0919575 0
M  V30 10270 C 989.68 -3.87599 -2.08459 0
M  V30 10271 H 986.799 -0.704421 -0.216704 0
M  V30 10272 H 989.441 -1.89514 0.135838 0
M  V30 10273 H 987.591 -3.43977 -1.80587 0
M  V30 10274 H 989.263 -4.58116 0.541031 0
M  V30 10275 H 987.506 -4.29937 0.577639 0
M  V30 10276 H 988.177 -5.49381 -0.537048 0
M  V30 10277 H 990.653 -3.85883 -1.5567 0
M  V30 10278 H 989.529 -4.90755 -2.45867 0
M  V30 10279 H 989.79 -3.25448 -2.99226 0
M  V30 10280 N 988.849 0.203349 -1.56283 0
M  V30 10281 C 990.089 0.931871 -1.81922 0
M  V30 10282 C 990.453 1.8079 -0.646459 0
M  V30 10283 O 991.654 2.57157 -0.782556 0
M  V30 10284 C 989.925 1.73347 -3.12547 0
M  V30 10285 S 991.484 2.51514 -3.59564 0
M  V30 10286 H 988.302 0.312706 -0.638542 0
M  V30 10287 H 990.904 0.195931 -1.94516 0
M  V30 10288 H 989.608 1.08038 -3.95924 0
M  V30 10289 H 989.139 2.51138 -3.02809 0
M  V30 10290 H 991.154 3.7552 -3.24345 0
M  V30 10291 N 990.327 1.50405 0.470755 0
M  V30 10292 C 991.573 1.6165 1.22462 0
M  V30 10293 C 991.906 0.316034 1.91611 0
M  V30 10294 O 991.181 -0.682509 1.82132 0
M  V30 10295 C 991.464 2.79702 2.26801 0
M  V30 10296 C 991.317 4.19631 1.61955 0
M  V30 10297 C 992.636 2.93313 3.28109 0
M  V30 10298 H 989.755 0.588345 0.443868 0
M  V30 10299 H 992.397 1.82792 0.518376 0
M  V30 10300 H 990.547 2.61807 2.87036 0
M  V30 10301 H 992.219 4.49117 1.05316 0
M  V30 10302 H 990.462 4.23874 0.922674 0
M  V30 10303 H 991.133 4.98162 2.37779 0
M  V30 10304 H 993.609 3.09697 2.77897 0
M  V30 10305 H 992.485 3.77537 3.98443 0
M  V30 10306 H 992.746 2.03942 3.9225 0
M  V30 10307 N 991.805 -0.723954 1.39988 0
M  V30 10308 C 992.768 -1.81973 1.3935 0
M  V30 10309 C 993.768 -1.58187 0.288702 0
M  V30 10310 O 994.958 -1.65383 0.547181 0
M  V30 10311 C 992.09 -3.19937 1.177 0
M  V30 10312 H 993.283 -1.83939 2.36868 0
M  V30 10313 H 990.836 -0.928742 1.25714 0
M  V30 10314 H 991.571 -3.23625 0.209093 0
M  V30 10315 H 991.356 -3.386 1.97719 0
M  V30 10316 H 992.846 -3.99981 1.20022 0
M  V30 10317 N 993.283 -1.25346 -0.955304 0
M  V30 10318 C 994.56 -1.00829 -1.67609 0
M  V30 10319 C 994.94 0.465675 -2.059 0
M  V30 10320 O 994.288 1.44287 -1.77182 0
M  V30 10321 C 994.498 -1.94337 -2.89886 0
M  V30 10322 C 995.846 -2.22142 -3.61854 0
M  V30 10323 O 996.87 -1.9209 -2.99967 0
M  V30 10324 O 995.729 -2.73239 -4.73289 0
M  V30 10325 H 992.823 -0.382314 -0.733325 0
M  V30 10326 H 995.369 -1.36498 -1.00829 0
M  V30 10327 H 994.141 -2.93867 -2.58376 0
M  V30 10328 H 993.764 -1.59062 -3.64397 0
M  V30 10329 N 994.761 1.15782 -1.06922 0
M  V30 10330 C 996.008 1.86465 -0.789752 0
M  V30 10331 C 996.336 1.82075 0.684022 0
M  V30 10332 O 995.591 1.23576 1.51748 0
M  V30 10333 C 995.89 3.35284 -1.2377 0
M  V30 10334 C 995.556 3.59871 -2.71668 0
M  V30 10335 C 994.218 3.6629 -3.12066 0
M  V30 10336 C 996.57 3.69929 -3.67154 0
M  V30 10337 C 993.898 3.80275 -4.46775 0
M  V30 10338 C 996.25 3.85436 -5.01619 0
M  V30 10339 C 994.914 3.901 -5.41644 0
M  V30 10340 H 994.184 0.682324 -0.288991 0
M  V30 10341 H 996.831 1.36861 -1.33945 0
M  V30 10342 H 995.136 3.87065 -0.607309 0
M  V30 10343 H 996.833 3.88371 -0.998431 0
M  V30 10344 H 993.423 3.55512 -2.39393 0
M  V30 10345 H 997.607 3.64274 -3.37073 0
M  V30 10346 H 992.863 3.8214 -4.77262 0
M  V30 10347 H 997.037 3.92161 -5.75485 0
M  V30 10348 H 994.664 4.00688 -6.46029 0
M  V30 10349 N 996.239 0.8527 1.3254 0
M  V30 10350 C 997.487 0.454224 1.96929 0
M  V30 10351 C 997.808 -0.993034 1.67821 0
M  V30 10352 O 997.078 -1.69371 0.984393 0
M  V30 10353 H 995.658 0.164977 0.728554 0
M  V30 10354 H 998.32 1.0887 1.61658 0
M  V30 10355 H 997.416 0.597667 3.06324 0
M  V30 10356 N 997.718 -1.45297 0.610449 0
M  V30 10357 C 998.648 -2.33311 -0.0939698 0
M  V30 10358 C 999.629 -1.46999 -0.85588 0
M  V30 10359 O 1000.81 -1.75764 -0.825865 0
M  V30 10360 C 997.944 -3.29751 -1.09003 0
M  V30 10361 C 996.898 -4.2572 -0.441146 0
M  V30 10362 C 996.224 -5.11873 -1.54566 0
M  V30 10363 C 997.524 -5.1837 0.639489 0
M  V30 10364 H 999.218 -2.92459 0.640941 0
M  V30 10365 H 996.764 -1.40631 0.309675 0
M  V30 10366 H 998.717 -3.90195 -1.59141 0
M  V30 10367 H 997.441 -2.68768 -1.85557 0
M  V30 10368 H 996.1 -3.66579 0.0393908 0
M  V30 10369 H 995.748 -4.47256 -2.30155 0
M  V30 10370 H 995.448 -5.76886 -1.11698 0
M  V30 10371 H 996.972 -5.75185 -2.04925 0
M  V30 10372 H 998.386 -5.7287 0.22207 0
M  V30 10373 H 996.783 -5.91876 0.990089 0
M  V30 10374 H 997.853 -4.60627 1.51495 0
M  V30 10375 N 999.196 -0.349774 -1.5367 0
M  V30 10376 C 1000.42 0.248692 -2.05904 0
M  V30 10377 C 1000.85 1.42942 -1.22267 0
M  V30 10378 O 1000.2 1.79732 -0.237899 0
M  V30 10379 C 1000.25 0.635639 -3.54953 0
M  V30 10380 O 999.356 1.7349 -3.74132 0
M  V30 10381 H 998.697 0.0399477 -0.662797 0
M  V30 10382 H 1001.23 -0.505795 -1.9825 0
M  V30 10383 H 1001.24 0.911064 -3.97698 0
M  V30 10384 H 999.912 -0.227805 -4.15276 0
M  V30 10385 H 998.489 1.45626 -3.43289 0
M  V30 10386 N 1000.67 1.57404 -0.0785433 0
M  V30 10387 C 1002.09 1.57158 0.2781 0
M  V30 10388 C 1002.29 1.08847 1.69572 0
M  V30 10389 O 1001.35 0.757407 2.40873 0
M  V30 10390 C 1002.66 3.00589 0.0816067 0
M  V30 10391 C 1004.21 3.12637 0.150627 0
M  V30 10392 C 1004.68 4.57997 -0.0176685 0
M  V30 10393 N 1006.17 4.63185 0.0377145 0
M  V30 10394 C 1006.91 5.7336 -0.0679907 0
M  V30 10395 N 1006.4 6.92426 -0.227598 0
M  V30 10396 N 1008.2 5.62099 -0.0104424 0
M  V30 10397 H 1000.35 1.87121 -1.00496 0
M  V30 10398 H 1002.61 0.862937 -0.392484 0
M  V30 10399 H 1002.32 3.40072 -0.896869 0
M  V30 10400 H 1002.19 3.67931 0.831046 0
M  V30 10401 H 1004.58 2.73037 1.11959 0
M  V30 10402 H 1004.66 2.4792 -0.630028 0
M  V30 10403 H 1004.3 4.98288 -0.983431 0
M  V30 10404 H 1004.23 5.20754 0.782475 0
M  V30 10405 H 1006.72 3.77564 0.159208 0
M  V30 10406 H 1007.04 7.72217 -0.300217 0
M  V30 10407 H 1005.38 6.94502 -0.263049 0
M  V30 10408 H 1008.57 4.67964 0.112999 0
M  V30 10409 H 1008.75 6.47928 -0.0962747 0
M  V30 10410 N 1002.15 -0.195058 1.56388 0
M  V30 10411 C 1003.1 -1.24175 1.94549 0
M  V30 10412 C 1004.07 -1.45229 0.806089 0
M  V30 10413 O 1005.25 -1.58362 1.06425 0
M  V30 10414 C 1002.39 -2.58145 2.29031 0
M  V30 10415 C 1001.51 -2.44669 3.56035 0
M  V30 10416 C 1000.64 -3.71342 3.7984 0
M  V30 10417 C 999.681 -3.52699 5.0027 0
M  V30 10418 N 998.818 -4.71385 5.20328 0
M  V30 10419 H 1003.66 -0.909319 2.83788 0
M  V30 10420 H 1001.19 -0.437641 1.40439 0
M  V30 10421 H 1003.15 -3.36195 2.4704 0
M  V30 10422 H 1001.78 -2.8943 1.42933 0
M  V30 10423 H 1000.83 -1.57916 3.46073 0
M  V30 10424 H 1002.15 -2.26827 4.44242 0
M  V30 10425 H 1001.3 -4.57832 3.98088 0
M  V30 10426 H 1000.04 -3.92138 2.89964 0
M  V30 10427 H 999.045 -2.64594 4.81944 0
M  V30 10428 H 1000.27 -3.33349 5.91655 0
M  V30 10429 H 998.216 -4.92444 4.33399 0
M  V30 10430 H 998.133 -4.56368 6.02714 0
M  V30 10431 H 999.401 -5.59226 5.43035 0
M  V30 10432 N 1003.63 -1.50653 -0.462772 0
M  V30 10433 C 1004.88 -1.61296 -1.21105 0
M  V30 10434 C 1005.19 -0.322757 -1.92919 0
M  V30 10435 O 1006.4 -0.308211 -2.69745 0
M  V30 10436 C 1004.85 -2.84752 -2.201 0
M  V30 10437 C 1004.46 -4.20681 -1.54051 0
M  V30 10438 C 1006.21 -3.04744 -2.95518 0
M  V30 10439 C 1004.11 -5.35314 -2.51381 0
M  V30 10440 H 1003.04 -0.60069 -0.455728 0
M  V30 10441 H 1005.69 -1.77093 -0.480656 0
M  V30 10442 H 1004.08 -2.62532 -2.96467 0
M  V30 10443 H 1005.25 -4.53187 -0.834168 0
M  V30 10444 H 1003.56 -4.06361 -0.908828 0
M  V30 10445 H 1006.16 -3.87559 -3.68378 0
M  V30 10446 H 1006.5 -2.16802 -3.55391 0
M  V30 10447 H 1007.04 -3.27185 -2.26263 0
M  V30 10448 H 1003.78 -6.25437 -1.96235 0
M  V30 10449 H 1003.3 -5.07216 -3.20144 0
M  V30 10450 H 1004.98 -5.66229 -3.1304 0
M  V30 10451 N 1005.11 0.71652 -1.4037 0
M  V30 10452 C 1006.34 1.50344 -1.41704 0
M  V30 10453 C 1006.75 1.89194 -0.0148011 0
M  V30 10454 O 1006.09 1.55916 0.971391 0
M  V30 10455 C 1006.15 2.80928 -2.2432 0
M  V30 10456 C 1005.82 2.64406 -3.72744 0
M  V30 10457 C 1006.81 2.31727 -4.65401 0
M  V30 10458 C 1004.5 2.807 -4.16549 0
M  V30 10459 C 1006.49 2.15551 -5.99847 0
M  V30 10460 C 1004.18 2.64141 -5.51065 0
M  V30 10461 C 1005.18 2.31614 -6.42529 0
M  V30 10462 O 1004.86 2.15179 -7.74566 0
M  V30 10463 H 1004.6 0.470574 -0.48532 0
M  V30 10464 H 1007.15 0.89152 -1.85043 0
M  V30 10465 H 1005.38 3.4445 -1.75759 0
M  V30 10466 H 1007.07 3.4264 -2.17607 0
M  V30 10467 H 1007.84 2.18773 -4.32855 0
M  V30 10468 H 1003.71 3.05005 -3.45677 0
M  V30 10469 H 1007.26 1.90084 -6.71203 0
M  V30 10470 H 1003.16 2.76679 -5.83197 0
M  V30 10471 H 1003.92 2.30106 -7.85489 0
M  V30 10472 N 1006.59 1.25851 0.948643 0
M  V30 10473 C 1007.81 1.13813 1.73382 0
M  V30 10474 C 1008.24 -0.303615 1.85633 0
M  V30 10475 O 1007.59 -1.21997 1.34114 0
M  V30 10476 C 1007.64 1.80388 3.12238 0
M  V30 10477 O 1006.75 1.08759 3.978 0
M  V30 10478 H 1006.09 0.397006 0.532243 0
M  V30 10479 H 1008.62 1.66529 1.18866 0
M  V30 10480 H 1008.63 1.86913 3.62667 0
M  V30 10481 H 1007.3 2.85278 3.02637 0
M  V30 10482 H 1005.88 1.10157 3.56258 0
M  V30 10483 N 1008.06 -1.15214 1.07534 0
M  V30 10484 C 1009.31 -1.85676 0.79805 0
M  V30 10485 C 1009.63 -1.82837 -0.677919 0
M  V30 10486 O 1008.9 -1.27059 -1.49107 0
M  V30 10487 H 1007.48 -0.687468 0.292227 0
M  V30 10488 H 1010.15 -1.39658 1.35947 0
M  V30 10489 H 1009.24 -2.9076 1.13423 0
M  V30 10490 N 1009.54 -0.859717 -1.32086 0
M  V30 10491 C 1010.82 -0.386665 -1.9174 0
M  V30 10492 C 1011.2 1.13028 -1.78292 0
M  V30 10493 O 1010.55 1.95422 -1.18417 0
M  V30 10494 C 1010.76 -0.856648 -3.38323 0
M  V30 10495 C 1012.11 -0.87678 -4.15449 0
M  V30 10496 O 1013.13 -0.80162 -3.47063 0
M  V30 10497 O 1011.99 -0.98373 -5.37573 0
M  V30 10498 H 1009.08 -0.113758 -0.819139 0
M  V30 10499 H 1011.63 -0.946952 -1.40822 0
M  V30 10500 H 1010.4 -1.89996 -3.42078 0
M  V30 10501 H 1010.02 -0.274095 -3.96654 0
M  V30 10502 N 1011.02 1.44971 -0.618145 0
M  V30 10503 C 1012.25 2.06228 -0.123985 0
M  V30 10504 C 1012.66 1.46166 1.20134 0
M  V30 10505 O 1012 0.574099 1.74499 0
M  V30 10506 C 1012.06 3.59413 0.0789098 0
M  V30 10507 C 1011.73 4.41869 -1.16624 0
M  V30 10508 C 1012.72 4.76177 -2.0869 0
M  V30 10509 C 1010.41 4.82453 -1.39802 0
M  V30 10510 C 1012.4 5.49938 -3.22254 0
M  V30 10511 C 1010.09 5.55965 -2.53665 0
M  V30 10512 C 1011.09 5.89626 -3.44718 0
M  V30 10513 O 1010.78 6.61644 -4.56598 0
M  V30 10514 H 1010.51 0.672274 -0.0708822 0
M  V30 10515 H 1013.06 1.87038 -0.848868 0
M  V30 10516 H 1011.29 3.77043 0.8588 0
M  V30 10517 H 1012.98 4.02478 0.52599 0
M  V30 10518 H 1013.75 4.45372 -1.92012 0
M  V30 10519 H 1009.63 4.55681 -0.698245 0
M  V30 10520 H 1013.17 5.76129 -3.93347 0
M  V30 10521 H 1009.07 5.86185 -2.70291 0
M  V30 10522 H 1009.84 6.80103 -4.55414 0
M  V30 10523 N 1012.5 0.357919 1.53482 0
M  V30 10524 C 1013.73 -0.234799 2.05261 0
M  V30 10525 C 1014.14 -1.43618 1.23169 0
M  V30 10526 O 1013.48 -1.81801 0.263435 0
M  V30 10527 C 1013.54 -0.699748 3.52624 0
M  V30 10528 C 1013.21 0.383905 4.55385 0
M  V30 10529 C 1014.2 1.23129 5.05109 0
M  V30 10530 C 1011.89 0.541953 4.99368 0
M  V30 10531 C 1013.88 2.22214 5.97411 0
M  V30 10532 C 1011.57 1.53618 5.91477 0
M  V30 10533 C 1012.57 2.37471 6.40388 0
M  V30 10534 O 1012.25 3.35199 7.30682 0
M  V30 10535 H 1011.99 -0.0465364 0.674396 0
M  V30 10536 H 1014.54 0.512355 1.98907 0
M  V30 10537 H 1012.77 -1.49838 3.5649 0
M  V30 10538 H 1014.46 -1.21461 3.87301 0
M  V30 10539 H 1015.23 1.12035 4.71883 0
M  V30 10540 H 1011.1 -0.100929 4.6089 0
M  V30 10541 H 1014.65 2.87702 6.35511 0
M  V30 10542 H 1010.55 1.64763 6.24118 0
M  V30 10543 H 1011.31 3.30838 7.48658 0
M  V30 10544 N 1013.98 -1.5736 0.0868897 0
M  V30 10545 C 1015.39 -1.57304 -0.269762 0
M  V30 10546 C 1015.59 -1.09745 -1.68992 0
M  V30 10547 O 1014.65 -0.77017 -2.40468 0
M  V30 10548 C 1015.96 -3.00628 -0.0656646 0
M  V30 10549 C 1017.51 -3.12713 -0.134045 0
M  V30 10550 C 1017.98 -4.57981 0.0419569 0
M  V30 10551 N 1019.48 -4.63198 -0.0131501 0
M  V30 10552 C 1020.21 -5.73316 0.0983964 0
M  V30 10553 N 1019.71 -6.92296 0.264315 0
M  V30 10554 N 1021.5 -5.62086 0.0402517 0
M  V30 10555 H 1013.65 -1.86585 1.01487 0
M  V30 10556 H 1015.91 -0.860843 0.397055 0
M  V30 10557 H 1015.62 -3.39592 0.914891 0
M  V30 10558 H 1015.49 -3.68367 -0.811522 0
M  V30 10559 H 1017.88 -2.73627 -1.1051 0
M  V30 10560 H 1017.96 -2.47582 0.643167 0
M  V30 10561 H 1017.61 -4.9776 1.00984 0
M  V30 10562 H 1017.54 -5.21162 -0.754847 0
M  V30 10563 H 1020.03 -3.77644 -0.139183 0
M  V30 10564 H 1020.34 -7.72047 0.341165 0
M  V30 10565 H 1018.68 -6.94353 0.299876 0
M  V30 10566 H 1021.88 -4.68017 -0.0881801 0
M  V30 10567 H 1022.05 -6.47868 0.130635 0
M  V30 10568 N 1015.45 0.186762 -1.56489 0
M  V30 10569 C 1016.39 1.25565 -1.91745 0
M  V30 10570 C 1017.4 1.4128 -0.80894 0
M  V30 10571 O 1018.59 1.41558 -1.08737 0
M  V30 10572 C 1015.69 2.62662 -2.14154 0
M  V30 10573 C 1014.86 2.68448 -3.45333 0
M  V30 10574 C 1013.92 3.86798 -3.56754 0
M  V30 10575 O 1012.95 3.73514 -4.29507 0
M  V30 10576 N 1014.15 5.02607 -2.90459 0
M  V30 10577 H 1016.91 0.956351 -2.84032 0
M  V30 10578 H 1014.47 0.376631 -1.57458 0
M  V30 10579 H 1016.47 3.40277 -2.19075 0
M  V30 10580 H 1015.04 2.85046 -1.28326 0
M  V30 10581 H 1014.26 1.77044 -3.52206 0
M  V30 10582 H 1015.54 2.69311 -4.31682 0
M  V30 10583 H 1014.94 5.163 -2.31194 0
M  V30 10584 H 1013.5 5.78139 -3.00996 0
M  V30 10585 N 1016.93 1.50896 0.454776 0
M  V30 10586 C 1018.18 1.62378 1.20324 0
M  V30 10587 C 1018.5 0.333883 1.9212 0
M  V30 10588 O 1017.77 -0.649477 1.8482 0
M  V30 10589 H 1016.35 0.598395 0.447139 0
M  V30 10590 H 1019.01 1.87749 0.523102 0
M  V30 10591 H 1018.11 2.44296 1.94232 0
M  V30 10592 N 1018.41 -0.709066 1.40748 0
M  V30 10593 C 1019.65 -1.48139 1.40834 0
M  V30 10594 C 1020.01 -1.91996 0.0117625 0
M  V30 10595 O 1021.22 -2.68564 -0.112524 0
M  V30 10596 C 1019.49 -2.67009 2.37573 0
M  V30 10597 S 1021.05 -3.56331 2.56073 0
M  V30 10598 H 1017.86 -0.506396 0.499084 0
M  V30 10599 H 1020.47 -0.828588 1.77072 0
M  V30 10600 H 1019.17 -2.32971 3.37865 0
M  V30 10601 H 1018.7 -3.37195 2.02641 0
M  V30 10602 H 1020.72 -4.61695 1.81803 0
M  V30 10603 N 1019.89 -1.26353 -0.941956 0
M  V30 10604 C 1020.85 -1.07904 -2.02211 0
M  V30 10605 C 1021.85 -0.0276283 -1.60776 0
M  V30 10606 O 1023.04 -0.270965 -1.7208 0
M  V30 10607 C 1020.17 -0.641084 -3.34818 0
M  V30 10608 H 1021.37 -2.03804 -2.20009 0
M  V30 10609 H 1018.92 -1.08939 -1.12081 0
M  V30 10610 H 1019.66 0.319943 -3.22718 0
M  V30 10611 H 1019.44 -1.40027 -3.66244 0
M  V30 10612 H 1020.93 -0.533826 -4.14174 0
M  V30 10613 N 1021.37 1.14642 -1.08144 0
M  V30 10614 C 1022.59 1.90025 -0.830972 0
M  V30 10615 C 1023.02 1.77904 0.610879 0
M  V30 10616 O 1022.38 1.11735 1.42776 0
M  V30 10617 C 1022.42 3.38085 -1.25422 0
M  V30 10618 O 1021.53 4.10412 -0.404486 0
M  V30 10619 H 1020.87 0.591327 -0.302041 0
M  V30 10620 H 1023.4 1.4513 -1.44216 0
M  V30 10621 H 1023.41 3.88894 -1.23391 0
M  V30 10622 H 1022.08 3.46226 -2.30435 0
M  V30 10623 H 1020.66 3.69693 -0.487987 0
M  V30 10624 N 1022.85 0.866709 1.31628 0
M  V30 10625 C 1023.79 0.318169 2.28596 0
M  V30 10626 C 1024.76 -0.581558 1.55586 0
M  V30 10627 O 1025.95 -0.513895 1.83749 0
M  V30 10628 C 1023.09 -0.477137 3.41786 0
M  V30 10629 C 1022.2 0.449739 4.29653 0
M  V30 10630 C 1021.34 -0.359373 5.29983 0
M  V30 10631 C 1020.37 0.564138 6.09495 0
M  V30 10632 N 1019.51 -0.208526 7.0179 0
M  V30 10633 H 1024.35 1.15029 2.74904 0
M  V30 10634 H 1021.89 0.578649 1.35241 0
M  V30 10635 H 1023.85 -0.953985 4.06146 0
M  V30 10636 H 1022.48 -1.27398 2.96597 0
M  V30 10637 H 1021.53 1.04502 3.65764 0
M  V30 10638 H 1022.84 1.158 4.85172 0
M  V30 10639 H 1021.99 -0.89887 6.00004 0
M  V30 10640 H 1020.73 -1.10094 4.75111 0
M  V30 10641 H 1019.74 1.11542 5.38366 0
M  V30 10642 H 1020.96 1.30451 6.66453 0
M  V30 10643 H 1018.91 -0.932969 6.49332 0
M  V30 10644 H 1018.83 0.440463 7.54716 0
M  V30 10645 H 1020.09 -0.72936 7.7608 0
M  V30 10646 N 1024.32 -1.44642 0.625825 0
M  V30 10647 C 1025.25 -2.33397 -0.0692188 0
M  V30 10648 C 1026.23 -1.47898 -0.840241 0
M  V30 10649 O 1027.42 -1.7663 -0.807176 0
M  V30 10650 C 1024.55 -3.30888 -1.055 0
M  V30 10651 C 1023.5 -4.26164 -0.395968 0
M  V30 10652 C 1022.83 -5.13483 -1.49128 0
M  V30 10653 C 1024.13 -5.17663 0.694433 0
M  V30 10654 H 1025.82 -2.91763 0.671925 0
M  V30 10655 H 1023.37 -1.40294 0.324573 0
M  V30 10656 H 1025.32 -3.91861 -1.54993 0
M  V30 10657 H 1024.05 -2.7072 -1.82696 0
M  V30 10658 H 1022.71 -3.66516 0.0782691 0
M  V30 10659 H 1022.35 -4.49672 -2.25399 0
M  V30 10660 H 1022.05 -5.78038 -1.05573 0
M  V30 10661 H 1023.58 -5.77327 -1.98813 0
M  V30 10662 H 1024.99 -5.72602 0.282818 0
M  V30 10663 H 1023.39 -5.90793 1.05281 0
M  V30 10664 H 1024.46 -4.58994 1.56372 0
M  V30 10665 N 1025.8 -0.366053 -1.5329 0
M  V30 10666 C 1027.21 0.113056 -1.86357 0
M  V30 10667 C 1027.56 1.48123 -1.28662 0
M  V30 10668 O 1026.69 2.07658 -0.608849 0
M  V30 10669 C 1027.28 0.211923 -3.38137 0
M  V30 10670 C 1025.84 0.635289 -3.71 0
M  V30 10671 C 1024.99 -0.217203 -2.76448 0
M  V30 10672 H 1027.94 -0.584829 -1.47531 0
M  V30 10673 H 1027.96 1.0354 -3.66142 0
M  V30 10674 H 1027.47 -0.783994 -3.80099 0
M  V30 10675 H 1025.57 1.63942 -3.34595 0
M  V30 10676 H 1025.69 0.409571 -4.77346 0
M  V30 10677 H 1024.05 0.313988 -2.52757 0
M  V30 10678 H 1024.83 -1.21067 -3.21244 0
M  V30 10679 N 1027.28 1.57312 -0.0952337 0
M  V30 10680 C 1028.53 1.94646 0.569284 0
M  V30 10681 C 1028.86 0.977152 1.67825 0
M  V30 10682 O 1028.13 0.0102318 1.94497 0
M  V30 10683 C 1028.42 3.42098 1.12433 0
M  V30 10684 C 1028.27 4.49795 0.0204016 0
M  V30 10685 C 1029.59 3.90866 2.02266 0
M  V30 10686 H 1026.71 0.707779 0.205469 0
M  V30 10687 H 1029.35 1.89274 -0.16597 0
M  V30 10688 H 1027.5 3.46807 1.75092 0
M  V30 10689 H 1029.17 4.57198 -0.613845 0
M  V30 10690 H 1027.41 4.28964 -0.645965 0
M  V30 10691 H 1028.09 5.50166 0.449579 0
M  V30 10692 H 1030.56 3.88311 1.49512 0
M  V30 10693 H 1029.44 4.94604 2.38029 0
M  V30 10694 H 1029.7 3.30167 2.9401 0
M  V30 10695 N 1028.76 -0.17846 1.56586 0
M  V30 10696 C 1029.7 -1.22104 1.95855 0
M  V30 10697 C 1030.67 -1.44366 0.821447 0
M  V30 10698 O 1031.86 -1.57224 1.08098 0
M  V30 10699 C 1029 -2.55701 2.31757 0
M  V30 10700 C 1028.11 -2.40879 3.5861 0
M  V30 10701 C 1027.25 -3.67293 3.83757 0
M  V30 10702 C 1026.29 -3.47373 5.03982 0
M  V30 10703 N 1025.42 -4.65839 5.25298 0
M  V30 10704 H 1030.26 -0.879168 2.84736 0
M  V30 10705 H 1027.8 -0.422721 1.40895 0
M  V30 10706 H 1029.76 -3.33556 2.50592 0
M  V30 10707 H 1028.39 -2.87898 1.45995 0
M  V30 10708 H 1027.44 -1.54236 3.47729 0
M  V30 10709 H 1028.75 -2.22102 4.46623 0
M  V30 10710 H 1027.91 -4.53584 4.02922 0
M  V30 10711 H 1026.65 -3.89041 2.94107 0
M  V30 10712 H 1025.65 -2.59467 4.84723 0
M  V30 10713 H 1026.88 -3.27055 5.95157 0
M  V30 10714 H 1024.82 -4.8782 4.38598 0
M  V30 10715 H 1024.74 -4.4995 6.0752 0
M  V30 10716 H 1026.01 -5.53435 5.48936 0
M  V30 10717 N 1030.24 -1.51135 -0.446768 0
M  V30 10718 C 1031.48 -1.64542 -1.19573 0
M  V30 10719 C 1031.84 -0.352728 -1.89139 0
M  V30 10720 O 1031.13 0.650917 -1.80204 0
M  V30 10721 C 1031.32 -2.78034 -2.2457 0
M  V30 10722 C 1031.15 -4.18214 -1.65308 0
M  V30 10723 C 1029.92 -4.84284 -1.44212 0
M  V30 10724 C 1032.12 -5.01631 -1.13451 0
M  V30 10725 N 1030.1 -6.08606 -0.804486 0
M  V30 10726 C 1031.47 -6.16876 -0.621577 0
M  V30 10727 C 1033.53 -4.87227 -1.02537 0
M  V30 10728 C 1032.23 -7.19299 -0.0102361 0
M  V30 10729 C 1034.26 -5.8985 -0.427936 0
M  V30 10730 C 1033.62 -7.04361 0.0745026 0
M  V30 10731 H 1029.72 -0.656068 -0.425556 0
M  V30 10732 H 1032.3 -1.88334 -0.493802 0
M  V30 10733 H 1030.47 -2.55922 -2.92162 0
M  V30 10734 H 1032.21 -2.8067 -2.91558 0
M  V30 10735 H 1028.96 -4.4199 -1.70123 0
M  V30 10736 H 1029.38 -6.75126 -0.503379 0
M  V30 10737 H 1034.03 -3.98959 -1.39971 0
M  V30 10738 H 1031.74 -8.07224 0.376252 0
M  V30 10739 H 1035.33 -5.80773 -0.34552 0
M  V30 10740 H 1034.21 -7.8241 0.529535 0
M  V30 10741 N 1031.71 0.701592 -1.41122 0
M  V30 10742 C 1032.64 1.82815 -1.45262 0
M  V30 10743 C 1033.62 1.67215 -0.311939 0
M  V30 10744 O 1034.81 1.87038 -0.522538 0
M  V30 10745 C 1031.94 3.20899 -1.32819 0
M  V30 10746 C 1030.89 3.51194 -2.44636 0
M  V30 10747 C 1030.22 4.8857 -2.17263 0
M  V30 10748 C 1031.52 3.50777 -3.86979 0
M  V30 10749 H 1033.21 1.79608 -2.39544 0
M  V30 10750 H 1030.76 0.862693 -1.15298 0
M  V30 10751 H 1032.71 3.99417 -1.34329 0
M  V30 10752 H 1031.44 3.24717 -0.350191 0
M  V30 10753 H 1030.1 2.75024 -2.42399 0
M  V30 10754 H 1029.74 4.89007 -1.17819 0
M  V30 10755 H 1029.44 5.09805 -2.92186 0
M  V30 10756 H 1030.97 5.69405 -2.20478 0
M  V30 10757 H 1032.38 4.19309 -3.90964 0
M  V30 10758 H 1030.78 3.83542 -4.61536 0
M  V30 10759 H 1031.85 2.49873 -4.15562 0
M  V30 10760 N 1033.19 1.2685 0.935242 0
M  V30 10761 C 1034.15 1.08975 2.01636 0
M  V30 10762 C 1035.15 0.0361543 1.60759 0
M  V30 10763 O 1036.34 0.280087 1.71934 0
M  V30 10764 C 1033.48 0.658831 3.34473 0
M  V30 10765 H 1034.67 2.04968 2.18925 0
M  V30 10766 H 1032.22 1.09531 1.11501 0
M  V30 10767 H 1032.96 -0.302824 3.22883 0
M  V30 10768 H 1032.74 1.41967 3.65497 0
M  V30 10769 H 1034.23 0.555783 4.13885 0
M  V30 10770 N 1034.67 -1.14067 1.0875 0
M  V30 10771 C 1035.6 -2.21385 0.74236 0
M  V30 10772 C 1036.58 -1.67833 -0.276805 0
M  V30 10773 O 1037.77 -1.93647 -0.1464 0
M  V30 10774 C 1034.9 -3.46956 0.154644 0
M  V30 10775 C 1033.85 -4.13555 1.10255 0
M  V30 10776 C 1033.18 -5.3337 0.376877 0
M  V30 10777 C 1034.48 -4.6169 2.44213 0
M  V30 10778 H 1036.17 -2.50512 1.63964 0
M  V30 10779 H 1033.72 -1.20408 0.789807 0
M  V30 10780 H 1035.67 -4.21284 -0.0988419 0
M  V30 10781 H 1034.39 -3.17203 -0.777789 0
M  V30 10782 H 1033.05 -3.41186 1.34119 0
M  V30 10783 H 1032.7 -4.99879 -0.559472 0
M  V30 10784 H 1032.4 -5.78875 1.00884 0
M  V30 10785 H 1033.92 -6.10458 0.131527 0
M  V30 10786 H 1035.34 -5.27475 2.24595 0
M  V30 10787 H 1033.74 -5.17909 3.03134 0
M  V30 10788 H 1034.81 -3.76574 3.05483 0
M  V30 10789 N 1036.15 -0.873678 -1.31166 0
M  V30 10790 C 1037.06 -0.335726 -2.32185 0
M  V30 10791 C 1038.07 0.556259 -1.64869 0
M  V30 10792 O 1039.25 0.452087 -1.9626 0
M  V30 10793 C 1036.32 0.450822 -3.43756 0
M  V30 10794 C 1035.38 -0.469565 -4.26724 0
M  V30 10795 C 1034.61 0.279538 -5.32967 0
M  V30 10796 O 1034.83 1.50715 -5.50128 0
M  V30 10797 O 1033.77 -0.36452 -6.00795 0
M  V30 10798 H 1037.59 -1.17314 -2.80127 0
M  V30 10799 H 1035.18 -0.637163 -1.35132 0
M  V30 10800 H 1037.06 0.896582 -4.11752 0
M  V30 10801 H 1035.73 1.26472 -2.9797 0
M  V30 10802 H 1034.64 -0.963902 -3.61469 0
M  V30 10803 H 1035.97 -1.24916 -4.76085 0
M  V30 10804 N 1037.63 1.44308 -0.633487 0
M  V30 10805 C 1038.85 2.06897 -0.144347 0
M  V30 10806 C 1039.28 1.47045 1.173 0
M  V30 10807 O 1038.63 0.572806 1.72013 0
M  V30 10808 C 1038.68 3.60571 -0.0456324 0
M  V30 10809 O 1037.79 4.0015 0.997682 0
M  V30 10810 H 1037.13 0.658427 -0.0858499 0
M  V30 10811 H 1039.66 1.85142 -0.870833 0
M  V30 10812 H 1039.67 4.07745 0.144178 0
M  V30 10813 H 1038.34 4.03515 -1.0074 0
M  V30 10814 H 1036.92 3.64603 0.782252 0
M  V30 10815 N 1039.1 0.374177 1.53094 0
M  V30 10816 C 1040.03 -0.459976 2.28925 0
M  V30 10817 C 1041.02 -1.07656 1.31698 0
M  V30 10818 O 1042.2 -1.09219 1.60577 0
M  V30 10819 C 1039.33 -1.5954 3.08487 0
M  V30 10820 C 1038.28 -1.10563 4.13473 0
M  V30 10821 C 1037.61 -2.33196 4.81169 0
M  V30 10822 C 1038.91 -0.184275 5.21975 0
M  V30 10823 H 1040.6 0.172692 2.98902 0
M  V30 10824 H 1038.15 0.0844956 1.43752 0
M  V30 10825 H 1040.1 -2.18565 3.60288 0
M  V30 10826 H 1038.83 -2.25543 2.36216 0
M  V30 10827 H 1037.49 -0.53801 3.62631 0
M  V30 10828 H 1037.13 -2.97675 4.05461 0
M  V30 10829 H 1036.83 -2.01094 5.52119 0
M  V30 10830 H 1038.36 -2.92892 5.35767 0
M  V30 10831 H 1039.77 -0.682262 5.69226 0
M  V30 10832 H 1038.17 0.0462746 6.00082 0
M  V30 10833 H 1039.24 0.771152 4.78729 0
M  V30 10834 N 1040.58 -1.57259 0.103575 0
M  V30 10835 C 1041.55 -2.13337 -0.837859 0
M  V30 10836 C 1042.55 -1.06459 -1.20512 0
M  V30 10837 O 1043.74 -1.32307 -1.13316 0
M  V30 10838 C 1040.87 -2.66093 -2.13089 0
M  V30 10839 H 1042.06 -2.97842 -0.350775 0
M  V30 10840 H 1039.61 -1.55621 -0.145511 0
M  V30 10841 H 1040.35 -1.85133 -2.66264 0
M  V30 10842 H 1040.13 -3.44244 -1.87719 0
M  V30 10843 H 1041.62 -3.09443 -2.80419 0
M  V30 10844 N 1042.06 0.170153 -1.56679 0
M  V30 10845 C 1043.34 0.913938 -1.72935 0
M  V30 10846 C 1043.72 2.00342 -0.665293 0
M  V30 10847 O 1043.07 2.26252 0.319715 0
M  V30 10848 C 1043.28 1.47761 -3.16177 0
M  V30 10849 C 1044.62 1.95007 -3.7717 0
M  V30 10850 O 1045.65 1.57552 -3.19462 0
M  V30 10851 O 1044.51 2.64007 -4.78501 0
M  V30 10852 H 1041.6 0.43027 -0.706256 0
M  V30 10853 H 1044.15 0.157891 -1.68964 0
M  V30 10854 H 1042.92 0.69352 -3.85105 0
M  V30 10855 H 1042.54 2.2978 -3.24479 0
M  V30 10856 N 1043.54 1.5137 0.438746 0
M  V30 10857 C 1044.49 1.73154 1.55308 0
M  V30 10858 C 1045.48 0.597825 1.58501 0
M  V30 10859 O 1046.69 0.77917 1.62262 0
M  V30 10860 H 1043.06 0.547083 0.51595 0
M  V30 10861 H 1045.03 2.66566 1.34108 0
M  V30 10862 C 1043.78 1.87242 2.92977 0
M  V30 10863 H 1043.1 2.73884 2.91252 0
M  V30 10864 H 1044.54 2.06497 3.70317 0
M  V30 10865 C 1043 0.631887 3.30921 0
M  V30 10866 O 1043.53 -0.214099 4.01129 0
M  V30 10867 N 1041.74 0.47639 2.86669 0
M  V30 10868 H 1041.29 1.16589 2.29706 0
M  V30 10869 H 1041.24 -0.352403 3.12419 0
M  V30 10870 N 1045.02 -0.694098 1.41492 0
M  V30 10871 C 1045.95 -1.82042 1.46229 0
M  V30 10872 C 1046.93 -1.67047 0.320803 0
M  V30 10873 O 1048.11 -1.86758 0.53245 0
M  V30 10874 C 1045.24 -3.2019 1.34519 0
M  V30 10875 C 1044.2 -3.49892 2.46495 0
M  V30 10876 C 1043.52 -4.87411 2.1985 0
M  V30 10877 C 1044.82 -3.4872 3.88834 0
M  V30 10878 H 1046.52 -1.78335 2.40493 0
M  V30 10879 H 1044.06 -0.856566 1.15754 0
M  V30 10880 H 1046.02 -3.98699 1.36445 0
M  V30 10881 H 1044.74 -3.24527 0.367406 0
M  V30 10882 H 1043.4 -2.73734 2.43854 0
M  V30 10883 H 1043.05 -4.88375 1.20411 0
M  V30 10884 H 1042.75 -5.08248 2.94885 0
M  V30 10885 H 1044.27 -5.68228 2.23494 0
M  V30 10886 H 1045.68 -4.1723 3.93182 0
M  V30 10887 H 1044.08 -3.81089 4.63564 0
M  V30 10888 H 1045.15 -2.47665 4.16881 0
M  V30 10889 N 1046.49 -1.27344 -0.928501 0
M  V30 10890 C 1047.72 -1.16278 -1.70772 0
M  V30 10891 C 1048.13 0.283131 -1.8707 0
M  V30 10892 O 1047.48 1.20466 -1.38685 0
M  V30 10893 C 1047.54 -1.77313 -3.1273 0
M  V30 10894 C 1047.2 -3.26488 -3.19773 0
M  V30 10895 C 1048.2 -4.23133 -3.02083 0
M  V30 10896 C 1045.88 -3.67182 -3.42757 0
M  V30 10897 C 1047.88 -5.5845 -3.07267 0
M  V30 10898 C 1045.56 -5.02629 -3.47574 0
M  V30 10899 C 1046.56 -5.98072 -3.29847 0
M  V30 10900 O 1046.25 -7.3105 -3.34397 0
M  V30 10901 H 1045.98 -0.405215 -0.541089 0
M  V30 10902 H 1048.54 -1.68707 -1.17163 0
M  V30 10903 H 1046.77 -1.19361 -3.67818 0
M  V30 10904 H 1048.46 -1.60972 -3.72616 0
M  V30 10905 H 1049.22 -3.93031 -2.84168 0
M  V30 10906 H 1045.1 -2.93369 -3.55606 0
M  V30 10907 H 1048.64 -6.32924 -2.93348 0
M  V30 10908 H 1044.54 -5.32387 -3.65013 0
M  V30 10909 H 1045.31 -7.39488 -3.50857 0
M  V30 10910 N 1047.97 1.13488 -1.09353 0
M  V30 10911 C 1049.2 1.88592 -0.850915 0
M  V30 10912 C 1049.62 1.79087 0.597761 0
M  V30 10913 O 1048.97 1.15695 1.41142 0
M  V30 10914 C 1049.02 3.38219 -1.27633 0
M  V30 10915 O 1048.74 3.47476 -2.66819 0
M  V30 10916 C 1050.25 4.30293 -1.06598 0
M  V30 10917 H 1047.47 0.597069 -0.306185 0
M  V30 10918 H 1050.01 1.43668 -1.45533 0
M  V30 10919 H 1048.16 3.80729 -0.715828 0
M  V30 10920 H 1048.58 4.40485 -2.84733 0
M  V30 10921 H 1050.05 5.33611 -1.41293 0
M  V30 10922 H 1050.53 4.392 -0.0037135 0
M  V30 10923 H 1051.14 3.9355 -1.6124 0
M  V30 10924 N 1049.45 0.880621 1.30701 0
M  V30 10925 C 1050.7 0.497611 1.966 0
M  V30 10926 C 1051.03 -0.949901 1.69383 0
M  V30 10927 O 1050.31 -1.67054 0.996152 0
M  V30 10928 C 1050.59 0.767919 3.51817 0
M  V30 10929 C 1050.44 2.26574 3.88567 0
M  V30 10930 C 1051.76 0.241502 4.39437 0
M  V30 10931 H 1048.88 0.182267 0.714106 0
M  V30 10932 H 1051.52 1.10382 1.54648 0
M  V30 10933 H 1049.67 0.251967 3.87682 0
M  V30 10934 H 1051.34 2.84977 3.62748 0
M  V30 10935 H 1049.59 2.73411 3.36792 0
M  V30 10936 H 1050.26 2.40549 4.9683 0
M  V30 10937 H 1052.73 0.683051 4.10455 0
M  V30 10938 H 1051.61 0.459997 5.46969 0
M  V30 10939 H 1051.87 -0.857068 4.33713 0
M  V30 10940 N 1050.93 -1.4397 0.641131 0
M  V30 10941 C 1051.86 -2.28997 -0.0963315 0
M  V30 10942 C 1052.87 -1.4184 -0.799071 0
M  V30 10943 O 1054.06 -1.65896 -0.658846 0
M  V30 10944 C 1051.16 -3.18465 -1.15903 0
M  V30 10945 C 1050.34 -4.34093 -0.536828 0
M  V30 10946 C 1049.4 -5.04522 -1.4948 0
M  V30 10947 O 1048.42 -5.60202 -1.00807 0
M  V30 10948 N 1049.62 -5.06899 -2.82901 0
M  V30 10949 H 1052.39 -2.9293 0.633422 0
M  V30 10950 H 1049.95 -1.54527 0.48302 0
M  V30 10951 H 1051.94 -3.62445 -1.80044 0
M  V30 10952 H 1050.51 -2.56214 -1.79089 0
M  V30 10953 H 1049.73 -3.9318 0.283414 0
M  V30 10954 H 1051.02 -5.08698 -0.101966 0
M  V30 10955 H 1050.42 -4.63012 -3.25017 0
M  V30 10956 H 1048.97 -5.54637 -3.42376 0
M  V30 10957 N 1052.41 -0.382291 -1.52893 0
M  V30 10958 C 1053.63 0.204961 -2.06385 0
M  V30 10959 C 1054.06 1.40316 -1.25271 0
M  V30 10960 O 1053.42 1.79187 -0.275969 0
M  V30 10961 C 1053.46 0.560205 -3.56222 0
M  V30 10962 O 1052.57 1.65515 -3.77728 0
M  V30 10963 H 1051.91 0.0258798 -0.663495 0
M  V30 10964 H 1054.44 -0.547733 -1.97132 0
M  V30 10965 H 1054.45 0.826501 -3.99541 0
M  V30 10966 H 1053.12 -0.31584 -4.14699 0
M  V30 10967 H 1051.7 1.38311 -3.46301 0
M  V30 10968 N 1053.89 1.57202 -0.111913 0
M  V30 10969 C 1055.16 1.86459 0.590972 0
M  V30 10970 C 1055.54 1.01182 1.85271 0
M  V30 10971 O 1054.89 0.0887891 2.28327 0
M  V30 10972 C 1055.1 3.37455 0.890225 0
M  V30 10973 C 1056.45 4.05895 1.24638 0
M  V30 10974 O 1057.47 3.42433 0.980713 0
M  V30 10975 O 1056.33 5.17903 1.74466 0
M  V30 10976 H 1053.43 0.771652 0.297459 0
M  V30 10977 H 1055.97 1.69072 -0.145882 0
M  V30 10978 H 1054.74 3.913 -0.00419012 0
M  V30 10979 H 1054.37 3.60248 1.68248 0
M  V30 10980 N 1055.36 -0.161842 1.56767 0
M  V30 10981 C 1056.61 -0.878224 1.82798 0
M  V30 10982 C 1056.94 -1.81481 0.691242 0
M  V30 10983 O 1056.22 -1.92075 -0.30618 0
M  V30 10984 C 1056.5 -1.66565 3.19262 0
M  V30 10985 C 1056.35 -0.751551 4.43477 0
M  V30 10986 C 1057.67 -2.63134 3.52773 0
M  V30 10987 H 1054.79 -0.317828 0.664947 0
M  V30 10988 H 1057.43 -0.14402 1.89453 0
M  V30 10989 H 1055.58 -2.29157 3.13719 0
M  V30 10990 H 1057.26 -0.137783 4.61094 0
M  V30 10991 H 1055.5 -0.0601785 4.33758 0
M  V30 10992 H 1056.17 -1.33823 5.35533 0
M  V30 10993 H 1058.65 -2.10666 3.5883 0
M  V30 10994 H 1057.52 -3.15289 4.49315 0
M  V30 10995 H 1057.78 -3.43786 2.77963 0
M  V30 10996 N 1056.84 -1.516 -0.430713 0
M  V30 10997 C 1058.09 -1.65801 -1.17821 0
M  V30 10998 C 1058.44 -0.372769 -1.88754 0
M  V30 10999 O 1057.74 0.631767 -1.80885 0
M  V30 11000 C 1057.93 -2.804 -2.21609 0
M  V30 11001 C 1057.76 -4.19944 -1.60863 0
M  V30 11002 C 1056.53 -4.85786 -1.39068 0
M  V30 11003 C 1058.73 -5.02806 -1.08124 0
M  V30 11004 N 1056.71 -6.09425 -0.73989 0
M  V30 11005 C 1058.08 -6.17501 -0.556114 0
M  V30 11006 C 1060.13 -4.88288 -0.973635 0
M  V30 11007 C 1058.84 -7.1927 0.0660558 0
M  V30 11008 C 1060.86 -5.9027 -0.36535 0
M  V30 11009 C 1060.23 -7.04242 0.149205 0
M  V30 11010 H 1056.32 -0.660545 -0.418574 0
M  V30 11011 H 1058.91 -1.88847 -0.473799 0
M  V30 11012 H 1057.08 -2.59006 -2.89431 0
M  V30 11013 H 1058.81 -2.83747 -2.88565 0
M  V30 11014 H 1055.57 -4.4377 -1.65425 0
M  V30 11015 H 1055.99 -6.75622 -0.431745 0
M  V30 11016 H 1060.63 -4.00421 -1.35731 0
M  V30 11017 H 1058.35 -8.06779 0.461848 0
M  V30 11018 H 1061.94 -5.81107 -0.283902 0
M  V30 11019 H 1060.82 -7.81804 0.61249 0
M  V30 11020 N 1058.32 0.686584 -1.41858 0
M  V30 11021 C 1059.28 1.78214 -1.44126 0
M  V30 11022 C 1060.28 1.57366 -0.330541 0
M  V30 11023 O 1061.47 1.63874 -0.590837 0
M  V30 11024 C 1058.6 3.16704 -1.26142 0
M  V30 11025 H 1059.8 1.77594 -2.41661 0
M  V30 11026 H 1057.35 0.895085 -1.28132 0
M  V30 11027 H 1058.09 3.22957 -0.294823 0
M  V30 11028 H 1057.87 3.33238 -2.06627 0
M  V30 11029 H 1059.36 3.96658 -1.30584 0
M  V30 11030 N 1059.8 1.27835 0.921735 0
M  V30 11031 C 1061.04 1.14523 1.67005 0
M  V30 11032 C 1061.37 -0.307776 1.92049 0
M  V30 11033 O 1060.63 -1.24103 1.51317 0
M  V30 11034 C 1060.93 1.88054 3.03925 0
M  V30 11035 C 1060.59 3.37886 2.9857 0
M  V30 11036 C 1059.25 3.78752 2.96817 0
M  V30 11037 C 1061.61 4.33462 2.89414 0
M  V30 11038 C 1058.93 5.13549 2.83698 0
M  V30 11039 C 1061.29 5.68322 2.77836 0
M  V30 11040 C 1059.95 6.08475 2.74436 0
M  V30 11041 H 1059.22 0.419068 0.611116 0
M  V30 11042 H 1061.87 1.58515 1.07449 0
M  V30 11043 H 1060.17 1.36587 3.67221 0
M  V30 11044 H 1061.87 1.75176 3.60714 0
M  V30 11045 H 1058.46 3.05389 3.00725 0
M  V30 11046 H 1062.64 4.02857 2.89862 0
M  V30 11047 H 1057.9 5.43796 2.79456 0
M  V30 11048 H 1062.07 6.42048 2.69717 0
M  V30 11049 H 1059.7 7.12877 2.64027 0
M  V30 11050 N 1061.28 -1.12907 1.09954 0
M  V30 11051 C 1062.52 -1.83941 0.837255 0
M  V30 11052 C 1062.84 -1.84234 -0.638984 0
M  V30 11053 O 1062.11 -1.30193 -1.46378 0
M  V30 11054 H 1060.69 -0.681115 0.306743 0
M  V30 11055 H 1063.36 -1.36743 1.38879 0
M  V30 11056 H 1062.45 -2.88289 1.19565 0
M  V30 11057 N 1062.75 -0.88754 -1.30232 0
M  V30 11058 C 1064 -0.508031 -1.96334 0
M  V30 11059 C 1064.33 0.940905 -1.69884 0
M  V30 11060 O 1063.61 1.66523 -1.005 0
M  V30 11061 C 1063.89 -0.786566 -3.51405 0
M  V30 11062 C 1063.74 -2.28632 -3.8736 0
M  V30 11063 C 1065.06 -0.264803 -4.39303 0
M  V30 11064 H 1062.18 -0.186051 -0.71313 0
M  V30 11065 H 1064.82 -1.112 -1.5406 0
M  V30 11066 H 1062.97 -0.272523 -3.87543 0
M  V30 11067 H 1064.65 -2.86896 -3.61231 0
M  V30 11068 H 1062.89 -2.75194 -3.35337 0
M  V30 11069 H 1063.56 -2.43181 -4.95547 0
M  V30 11070 H 1066.04 -0.704809 -4.10087 0
M  V30 11071 H 1064.91 -0.488998 -5.46717 0
M  V30 11072 H 1065.17 0.834055 -4.34161 0
M  V30 11073 N 1064.23 1.43628 -0.648757 0
M  V30 11074 C 1065.46 2.06217 -0.167945 0
M  V30 11075 C 1065.88 1.486 1.16462 0
M  V30 11076 O 1065.23 0.61559 1.71804 0
M  V30 11077 C 1065.28 3.6144 -0.0660114 0
M  V30 11078 O 1065 4.16914 -1.34589 0
M  V30 11079 C 1066.51 4.41097 0.441408 0
M  V30 11080 H 1063.73 0.665228 -0.0878237 0
M  V30 11081 H 1066.27 1.84207 -0.888144 0
M  V30 11082 H 1064.42 3.82651 0.604722 0
M  V30 11083 H 1064.84 5.10537 -1.20218 0
M  V30 11084 H 1066.31 5.50066 0.461697 0
M  V30 11085 H 1066.79 4.13803 1.47187 0
M  V30 11086 H 1067.4 4.24845 -0.19668 0
M  V30 11087 N 1065.71 0.390394 1.52688 0
M  V30 11088 C 1066.64 -0.48838 2.22913 0
M  V30 11089 C 1067.62 -1.06319 1.23025 0
M  V30 11090 O 1068.81 -1.11462 1.52015 0
M  V30 11091 C 1065.93 -1.67612 2.9432 0
M  V30 11092 C 1064.98 -1.22646 4.08485 0
M  V30 11093 S 1065.81 -0.207092 5.35099 0
M  V30 11094 C 1066.97 -1.40058 6.10028 0
M  V30 11095 H 1067.2 0.107949 2.97104 0
M  V30 11096 H 1064.73 0.174588 1.5341 0
M  V30 11097 H 1066.69 -2.35728 3.36069 0
M  V30 11098 H 1065.35 -2.24375 2.19806 0
M  V30 11099 H 1064.55 -2.11331 4.57554 0
M  V30 11100 H 1064.15 -0.624197 3.68754 0
M  V30 11101 H 1066.44 -2.32747 6.36266 0
M  V30 11102 H 1067.38 -0.950804 7.01687 0
M  V30 11103 H 1067.79 -1.61789 5.40818 0
M  V30 11104 N 1067.19 -1.57141 0.120249 0
M  V30 11105 C 1068.43 -1.9632 -0.531989 0
M  V30 11106 C 1068.79 -1.00265 -1.64209 0
M  V30 11107 O 1068.08 -0.0328969 -1.91572 0
M  V30 11108 C 1068.28 -3.39745 -1.10941 0
M  V30 11109 C 1068.11 -4.49664 -0.0567772 0
M  V30 11110 C 1066.88 -5.03903 0.375466 0
M  V30 11111 C 1069.07 -5.09169 0.724667 0
M  V30 11112 N 1067.06 -5.974 1.41374 0
M  V30 11113 C 1068.43 -5.98621 1.61411 0
M  V30 11114 C 1070.48 -4.91825 0.775417 0
M  V30 11115 C 1069.18 -6.72587 2.54988 0
M  V30 11116 C 1071.21 -5.66473 1.69891 0
M  V30 11117 C 1070.57 -6.55611 2.57592 0
M  V30 11118 H 1066.67 -0.764554 -0.164259 0
M  V30 11119 H 1069.26 -1.93579 0.208656 0
M  V30 11120 H 1067.43 -3.43131 -1.81977 0
M  V30 11121 H 1069.16 -3.66045 -1.72607 0
M  V30 11122 H 1065.91 -4.73597 -0.0171723 0
M  V30 11123 H 1066.34 -6.48852 1.93184 0
M  V30 11124 H 1070.98 -4.22653 0.111497 0
M  V30 11125 H 1068.7 -7.41005 3.22393 0
M  V30 11126 H 1072.28 -5.55057 1.74363 0
M  V30 11127 H 1071.16 -7.12361 3.27889 0
M  V30 11128 N 1068.67 0.153526 -1.5685 0
M  V30 11129 C 1069.58 1.20932 -2.01029 0
M  V30 11130 C 1070.59 1.47401 -0.924598 0
M  V30 11131 O 1071.77 1.592 -1.23359 0
M  V30 11132 C 1068.83 2.52438 -2.37647 0
M  V30 11133 C 1067.89 2.33673 -3.60132 0
M  V30 11134 C 1067.13 3.58909 -3.94994 0
M  V30 11135 O 1067.35 4.64823 -3.30599 0
M  V30 11136 O 1066.28 3.5196 -4.8827 0
M  V30 11137 H 1070.11 0.864273 -2.91143 0
M  V30 11138 H 1067.7 0.361755 -1.44954 0
M  V30 11139 H 1069.58 3.29981 -2.62088 0
M  V30 11140 H 1068.25 2.86486 -1.5069 0
M  V30 11141 H 1067.16 1.54102 -3.40886 0
M  V30 11142 H 1068.49 2.04544 -4.47686 0
M  V30 11143 N 1070.14 1.51827 0.422667 0
M  V30 11144 C 1071.39 1.6445 1.16786 0
M  V30 11145 C 1071.71 0.373792 1.91995 0
M  V30 11146 O 1072.91 0.379621 2.68833 0
M  V30 11147 C 1071.37 2.90488 2.12473 0
M  V30 11148 C 1070.98 4.24617 1.42844 0
M  V30 11149 C 1072.72 3.12472 2.87335 0
M  V30 11150 C 1070.63 5.41791 2.371 0
M  V30 11151 H 1069.56 0.612561 0.439641 0
M  V30 11152 H 1072.21 1.78305 0.433534 0
M  V30 11153 H 1070.59 2.703 2.89402 0
M  V30 11154 H 1071.76 4.55239 0.71372 0
M  V30 11155 H 1070.08 4.08628 0.800769 0
M  V30 11156 H 1072.68 3.9719 3.57973 0
M  V30 11157 H 1073.02 2.26148 3.49518 0
M  V30 11158 H 1073.55 3.33069 2.17509 0
M  V30 11159 H 1070.29 6.3042 1.79584 0
M  V30 11160 H 1069.81 5.15526 3.06583 0
M  V30 11161 H 1071.49 5.74329 2.97918 0
M  V30 11162 N 1071.62 -0.679052 1.4222 0
M  V30 11163 C 1072.56 -1.80369 1.39794 0
M  V30 11164 C 1073.53 -1.60462 0.262806 0
M  V30 11165 O 1074.72 -1.82992 0.452352 0
M  V30 11166 C 1071.84 -3.17305 1.18471 0
M  V30 11167 C 1070.89 -3.55969 2.34922 0
M  V30 11168 S 1071.72 -3.58884 3.97445 0
M  V30 11169 C 1072.88 -4.98519 3.78457 0
M  V30 11170 H 1073.11 -1.82152 2.34964 0
M  V30 11171 H 1070.65 -0.84932 1.28942 0
M  V30 11172 H 1072.6 -3.96348 1.06856 0
M  V30 11173 H 1071.26 -3.13112 0.248944 0
M  V30 11174 H 1070.46 -4.55491 2.1574 0
M  V30 11175 H 1070.06 -2.84275 2.4303 0
M  V30 11176 H 1072.35 -5.86481 3.39184 0
M  V30 11177 H 1073.29 -5.22748 4.77641 0
M  V30 11178 H 1073.7 -4.70836 3.11406 0
M  V30 11179 N 1073.1 -1.28322 -0.914942 0
M  V30 11180 C 1074.33 -1.18254 -1.69775 0
M  V30 11181 C 1074.74 0.258978 -1.87015 0
M  V30 11182 O 1074.1 1.17514 -1.3963 0
M  V30 11183 C 1074.15 -1.8753 -3.09054 0
M  V30 11184 O 1073.87 -3.26051 -2.92613 0
M  V30 11185 C 1075.37 -1.83749 -4.03424 0
M  V30 11186 H 1072.59 -0.41055 -0.530744 0
M  V30 11187 H 1075.14 -1.69425 -1.14523 0
M  V30 11188 H 1073.29 -1.40233 -3.61128 0
M  V30 11189 H 1073.71 -3.60729 -3.80756 0
M  V30 11190 H 1075.18 -2.36813 -4.98622 0
M  V30 11191 H 1075.66 -0.809601 -4.31674 0
M  V30 11192 H 1076.26 -2.3072 -3.57279 0
M  V30 11193 N 1074.58 1.12322 -1.10551 0
M  V30 11194 C 1075.99 1.35858 -0.837543 0
M  V30 11195 C 1076.19 1.94062 0.54241 0
M  V30 11196 O 1075.25 2.1676 1.29505 0
M  V30 11197 C 1076.56 2.299 -1.9382 0
M  V30 11198 C 1078.11 2.43488 -1.96679 0
M  V30 11199 C 1078.59 3.40846 -3.05922 0
M  V30 11200 N 1080.08 3.48404 -3.05236 0
M  V30 11201 C 1080.81 4.2365 -3.86405 0
M  V30 11202 N 1080.31 5.01951 -4.77512 0
M  V30 11203 N 1082.1 4.19068 -3.74618 0
M  V30 11204 H 1074.25 0.729002 -1.99498 0
M  V30 11205 H 1076.52 0.38339 -0.867016 0
M  V30 11206 H 1076.22 1.94309 -2.9315 0
M  V30 11207 H 1076.1 3.30033 -1.82641 0
M  V30 11208 H 1078.48 2.78359 -0.979813 0
M  V30 11209 H 1078.56 1.43239 -2.11934 0
M  V30 11210 H 1078.21 3.06704 -4.04839 0
M  V30 11211 H 1078.14 4.40927 -2.87907 0
M  V30 11212 H 1080.63 2.92545 -2.39219 0
M  V30 11213 H 1080.94 5.56707 -5.36002 0
M  V30 11214 H 1079.29 5.01143 -4.8154 0
M  V30 11215 H 1082.48 3.5698 -3.02792 0
M  V30 11216 H 1082.65 4.77455 -4.38111 0
M  V30 11217 N 1076.06 0.894434 1.2976 0
M  V30 11218 C 1077.3 0.516646 1.95385 0
M  V30 11219 C 1077.63 -0.939141 1.70895 0
M  V30 11220 O 1076.9 -1.66153 1.03778 0
M  V30 11221 H 1075.48 0.188072 0.722937 0
M  V30 11222 H 1078.14 1.13958 1.58113 0
M  V30 11223 H 1077.23 0.694819 3.04267 0
M  V30 11224 N 1077.53 -1.43282 0.656365 0
M  V30 11225 C 1078.47 -2.29087 -0.0720378 0
M  V30 11226 C 1079.48 -1.4268 -0.783982 0
M  V30 11227 O 1080.67 -1.66585 -0.641213 0
M  V30 11228 C 1077.77 -3.19676 -1.12519 0
M  V30 11229 C 1076.94 -4.34638 -0.490756 0
M  V30 11230 C 1076 -5.06079 -1.44121 0
M  V30 11231 O 1075.03 -5.6124 -0.948595 0
M  V30 11232 N 1076.23 -5.09872 -2.77509 0
M  V30 11233 H 1078.99 -2.92241 0.664456 0
M  V30 11234 H 1076.55 -1.54006 0.499383 0
M  V30 11235 H 1078.55 -3.64334 -1.76189 0
M  V30 11236 H 1077.12 -2.581 -1.76362 0
M  V30 11237 H 1076.34 -3.92857 0.3251 0
M  V30 11238 H 1077.62 -5.08777 -0.0480061 0
M  V30 11239 H 1077.02 -4.66433 -3.20088 0
M  V30 11240 H 1075.58 -5.58237 -3.36474 0
M  V30 11241 N 1079.01 -0.398486 -1.52479 0
M  V30 11242 C 1080.24 0.180557 -2.06111 0
M  V30 11243 C 1080.66 1.39751 -1.26945 0
M  V30 11244 O 1080.01 1.79699 -0.318497 0
M  V30 11245 C 1080.06 0.541573 -3.5742 0
M  V30 11246 O 1079.79 -0.627043 -4.33589 0
M  V30 11247 C 1081.29 1.17549 -4.27431 0
M  V30 11248 H 1078.51 0.0250754 -0.670531 0
M  V30 11249 H 1081.05 -0.566368 -1.96501 0
M  V30 11250 H 1079.21 1.23839 -3.67073 0
M  V30 11251 H 1079.62 -0.328233 -5.23472 0
M  V30 11252 H 1081.09 1.37839 -5.34513 0
M  V30 11253 H 1081.57 2.14553 -3.83228 0
M  V30 11254 H 1082.18 0.51918 -4.22119 0
M  V30 11255 N 1080.49 1.57075 -0.12858 0
M  V30 11256 C 1081.9 1.82468 0.39526 0
M  V30 11257 C 1082.25 1.0463 1.65973 0
M  V30 11258 O 1081.38 0.285835 2.14504 0
M  V30 11259 C 1081.97 3.30976 0.723889 0
M  V30 11260 C 1080.53 3.57016 1.19232 0
M  V30 11261 C 1079.68 2.76534 0.205907 0
M  V30 11262 H 1082.63 1.54711 -0.353571 0
M  V30 11263 H 1082.65 3.46127 1.58039 0
M  V30 11264 H 1082.16 3.87602 -0.196595 0
M  V30 11265 H 1080.26 3.05758 2.12938 0
M  V30 11266 H 1080.38 4.65558 1.13103 0
M  V30 11267 H 1078.74 2.45038 0.694872 0
M  V30 11268 H 1079.52 3.35923 -0.707842 0
M  V30 11269 N 1081.97 -0.145205 1.5693 0
M  V30 11270 C 1083.2 -0.871133 1.87336 0
M  V30 11271 C 1083.61 -1.7517 0.714992 0
M  V30 11272 O 1082.95 -1.80815 -0.324304 0
M  V30 11273 C 1083.01 -1.77775 3.12468 0
M  V30 11274 C 1082.68 -1.07416 4.44197 0
M  V30 11275 C 1083.67 -0.42722 5.18142 0
M  V30 11276 C 1081.36 -1.06313 4.9092 0
M  V30 11277 C 1083.35 0.221348 6.37016 0
M  V30 11278 C 1081.04 -0.410755 6.09718 0
M  V30 11279 C 1082.04 0.230357 6.82611 0
M  V30 11280 O 1081.73 0.872389 7.99152 0
M  V30 11281 H 1081.46 -0.257174 0.62517 0
M  V30 11282 H 1084.01 -0.142159 2.04907 0
M  V30 11283 H 1082.24 -2.54771 2.9091 0
M  V30 11284 H 1083.93 -2.37579 3.29107 0
M  V30 11285 H 1084.7 -0.427536 4.83112 0
M  V30 11286 H 1080.58 -1.55156 4.34105 0
M  V30 11287 H 1084.12 0.722349 6.9385 0
M  V30 11288 H 1080.02 -0.408112 6.44209 0
M  V30 11289 H 1080.78 0.774236 8.1483 0
M  V30 11290 N 1083.45 -1.52049 -0.414609 0
M  V30 11291 C 1084.41 -1.74382 -1.4874 0
M  V30 11292 C 1085.41 -0.613701 -1.48628 0
M  V30 11293 O 1086.6 -0.88152 -1.50249 0
M  V30 11294 C 1083.73 -1.82116 -2.88178 0
M  V30 11295 H 1084.93 -2.70147 -1.30233 0
M  V30 11296 H 1082.48 -1.42382 -0.644756 0
M  V30 11297 H 1083.21 -0.882457 -3.12063 0
M  V30 11298 H 1083 -2.64268 -2.89663 0
M  V30 11299 H 1084.49 -2.01155 -3.65959 0
M  V30 11300 N 1084.93 0.6715 -1.42579 0
M  V30 11301 C 1086.17 1.42871 -1.42941 0
M  V30 11302 C 1086.49 1.94941 -0.0480483 0
M  V30 11303 O 1085.76 1.73275 0.913921 0
M  V30 11304 H 1084.34 0.530189 -0.526221 0
M  V30 11305 H 1087.01 0.793219 -1.78028 0
M  V30 11306 H 1086.1 2.2801 -2.13114 0
M  V30 11307 N 1086.4 1.28806 0.908124 0
M  V30 11308 C 1087.65 1.15663 1.65242 0
M  V30 11309 C 1087.97 -0.292883 1.93395 0
M  V30 11310 O 1089.17 -0.545509 2.65963 0
M  V30 11311 C 1087.63 2.02233 2.97707 0
M  V30 11312 C 1087.24 3.51958 2.77181 0
M  V30 11313 C 1088.98 1.97792 3.75604 0
M  V30 11314 C 1086.89 4.3066 4.05322 0
M  V30 11315 H 1085.82 0.42928 0.619867 0
M  V30 11316 H 1088.47 1.5338 1.00731 0
M  V30 11317 H 1086.85 1.57377 3.63385 0
M  V30 11318 H 1088.02 4.0481 2.20149 0
M  V30 11319 H 1086.34 3.57983 2.12691 0
M  V30 11320 H 1088.94 2.53858 4.70596 0
M  V30 11321 H 1089.28 0.955956 4.05175 0
M  V30 11322 H 1089.81 2.40648 3.16755 0
M  V30 11323 H 1086.55 5.3346 3.8092 0
M  V30 11324 H 1086.07 3.8258 4.61944 0
M  V30 11325 H 1087.75 4.40878 4.73535 0
M  V30 11326 N 1087.88 -1.11734 1.11145 0
M  V30 11327 C 1088.79 -2.21267 0.779607 0
M  V30 11328 C 1089.81 -1.72526 -0.225986 0
M  V30 11329 O 1090.98 -2.01302 -0.0629166 0
M  V30 11330 C 1088.05 -3.45973 0.22435 0
M  V30 11331 C 1087.11 -4.09518 1.28816 0
M  V30 11332 C 1086.34 -5.28271 0.7593 0
M  V30 11333 O 1086.57 -5.68912 -0.411725 0
M  V30 11334 O 1085.5 -5.82322 1.52266 0
M  V30 11335 H 1089.33 -2.5206 1.6941 0
M  V30 11336 H 1086.91 -1.20211 0.887115 0
M  V30 11337 H 1088.79 -4.21322 -0.0810921 0
M  V30 11338 H 1087.47 -3.1684 -0.662891 0
M  V30 11339 H 1086.37 -3.35915 1.64657 0
M  V30 11340 H 1087.71 -4.42824 2.14868 0
M  V30 11341 N 1089.36 -0.901303 -1.29284 0
M  V30 11342 C 1090.31 -0.370142 -2.29636 0
M  V30 11343 C 1091.3 0.53157 -1.60844 0
M  V30 11344 O 1092.51 0.414194 -1.7517 0
M  V30 11345 H 1088.88 -0.101072 -0.745177 0
M  V30 11346 H 1090.85 -1.22985 -2.71877 0
M  V30 11347 C 1089.6 0.385806 -3.45553 0
M  V30 11348 H 1088.93 -0.298818 -3.98682 0
M  V30 11349 H 1090.37 0.722299 -4.17802 0
M  V30 11350 C 1088.82 1.58907 -2.97069 0
M  V30 11351 O 1089.35 2.68835 -2.98481 0
M  V30 11352 N 1087.56 1.43178 -2.5288 0
M  V30 11353 H 1087.11 0.537467 -2.51931 0
M  V30 11354 H 1087.07 2.23819 -2.208 0
M  V30 11355 N 1090.84 1.42931 -0.663954 0
M  V30 11356 C 1091.8 2.29197 0.0117626 0
M  V30 11357 C 1092.8 1.42767 0.739875 0
M  V30 11358 O 1093.99 1.64278 0.579509 0
M  V30 11359 C 1091.12 3.2505 1.02738 0
M  V30 11360 H 1092.32 2.90438 -0.747391 0
M  V30 11361 H 1089.87 1.5039 -0.425733 0
M  V30 11362 H 1090.6 2.68726 1.8154 0
M  V30 11363 H 1090.39 3.88785 0.508809 0
M  V30 11364 H 1091.88 3.89771 1.49893 0
M  V30 11365 N 1092.32 0.406567 1.52266 0
M  V30 11366 C 1093.23 -0.4271 2.30679 0
M  V30 11367 C 1094.24 -1.0559 1.383 0
M  V30 11368 O 1095.42 -1.05797 1.71374 0
M  V30 11369 C 1092.48 -1.53008 3.1111 0
M  V30 11370 C 1091.54 -0.924604 4.19225 0
M  V30 11371 C 1090.78 -1.97502 4.95811 0
M  V30 11372 O 1091 -3.19277 4.72671 0
M  V30 11373 O 1089.93 -1.58268 5.80719 0
M  V30 11374 H 1093.76 0.212187 3.02958 0
M  V30 11375 H 1091.34 0.169835 1.48432 0
M  V30 11376 H 1093.23 -2.17046 3.61205 0
M  V30 11377 H 1091.9 -2.15401 2.41628 0
M  V30 11378 H 1090.81 -0.247009 3.73284 0
M  V30 11379 H 1092.14 -0.34463 4.90992 0
M  V30 11380 N 1093.79 -1.57004 0.136909 0
M  V30 11381 C 1095.04 -1.94972 -0.51662 0
M  V30 11382 C 1095.36 -1.02367 -1.66674 0
M  V30 11383 O 1096.56 -1.29873 -2.38423 0
M  V30 11384 C 1095.02 -3.4657 -0.970435 0
M  V30 11385 C 1094.63 -4.47741 0.152204 0
M  V30 11386 C 1096.37 -3.93423 -1.59432 0
M  V30 11387 C 1094.28 -5.90537 -0.319315 0
M  V30 11388 H 1093.21 -0.727873 -0.196766 0
M  V30 11389 H 1095.86 -1.82181 0.219637 0
M  V30 11390 H 1094.24 -3.54657 -1.76165 0
M  V30 11391 H 1095.41 -4.5134 0.928925 0
M  V30 11392 H 1093.73 -4.10746 0.683867 0
M  V30 11393 H 1096.33 -4.97539 -1.95856 0
M  V30 11394 H 1096.67 -3.34404 -2.47951 0
M  V30 11395 H 1097.2 -3.8821 -0.868193 0
M  V30 11396 H 1093.94 -6.53352 0.530248 0
M  V30 11397 H 1093.46 -5.90321 -1.06213 0
M  V30 11398 H 1095.14 -6.42346 -0.774662 0
M  V30 11399 N 1095.27 0.136881 -1.57004 0
M  V30 11400 C 1096.5 0.861186 -1.87796 0
M  V30 11401 C 1096.91 1.74788 -0.724272 0
M  V30 11402 O 1096.25 1.80984 0.31471 0
M  V30 11403 C 1096.32 1.76115 -3.13407 0
M  V30 11404 C 1095.98 1.05059 -4.4476 0
M  V30 11405 C 1096.98 0.399736 -5.18361 0
M  V30 11406 C 1094.66 1.03709 -4.91477 0
M  V30 11407 C 1096.66 -0.255127 -6.36889 0
M  V30 11408 C 1094.34 0.378414 -6.09927 0
M  V30 11409 C 1095.34 -0.266555 -6.8248 0
M  V30 11410 O 1095.03 -0.914757 -7.98679 0
M  V30 11411 H 1094.76 0.253855 -0.626525 0
M  V30 11412 H 1097.31 0.131291 -2.0498 0
M  V30 11413 H 1095.54 2.53224 -2.92257 0
M  V30 11414 H 1097.23 2.3583 -3.30362 0
M  V30 11415 H 1098 0.401909 -4.83332 0
M  V30 11416 H 1093.88 1.52852 -4.34922 0
M  V30 11417 H 1097.42 -0.759135 -6.93457 0
M  V30 11418 H 1093.32 0.373942 -6.44416 0
M  V30 11419 H 1094.09 -0.817437 -8.14408 0
M  V30 11420 N 1096.75 1.52266 0.40654 0
M  V30 11421 C 1097.7 1.76409 1.516 0
M  V30 11422 C 1098.69 0.631311 1.57197 0
M  V30 11423 O 1099.9 0.813413 1.60573 0
M  V30 11424 H 1096.27 0.557904 0.50423 0
M  V30 11425 H 1098.24 2.69351 1.28424 0
M  V30 11426 C 1096.99 1.93415 2.88939 0
M  V30 11427 H 1096.32 2.8 2.85377 0
M  V30 11428 H 1097.76 2.14306 3.65854 0
M  V30 11429 C 1096.22 0.701938 3.29506 0
M  V30 11430 O 1096.75 -0.128965 4.01493 0
M  V30 11431 N 1094.95 0.537089 2.85594 0
M  V30 11432 H 1094.5 1.21435 2.27181 0
M  V30 11433 H 1094.46 -0.286055 3.13096 0
M  V30 11434 N 1098.23 -0.663929 1.42933 0
M  V30 11435 C 1099.46 -1.44981 1.47187 0
M  V30 11436 C 1099.87 -1.89009 0.0850091 0
M  V30 11437 O 1099.21 -1.59413 -0.912855 0
M  V30 11438 C 1099.27 -2.72409 2.34592 0
M  V30 11439 C 1098.94 -2.5039 3.82301 0
M  V30 11440 C 1099.93 -2.14295 4.73681 0
M  V30 11441 C 1097.62 -2.65047 4.2668 0
M  V30 11442 C 1099.61 -1.93139 6.07434 0
M  V30 11443 C 1097.3 -2.43506 5.60489 0
M  V30 11444 C 1098.3 -2.07607 6.50683 0
M  V30 11445 O 1097.98 -1.86284 7.82019 0
M  V30 11446 H 1097.72 -0.452238 0.502451 0
M  V30 11447 H 1100.27 -0.822228 1.88225 0
M  V30 11448 H 1098.5 -3.37689 1.88422 0
M  V30 11449 H 1100.19 -3.34327 2.30174 0
M  V30 11450 H 1100.96 -2.02557 4.40676 0
M  V30 11451 H 1096.83 -2.91966 3.56759 0
M  V30 11452 H 1100.38 -1.65042 6.77796 0
M  V30 11453 H 1096.28 -2.54844 5.93064 0
M  V30 11454 H 1097.04 -2.00795 7.93488 0
M  V30 11455 N 1099.71 -1.29285 -0.901281 0
M  V30 11456 C 1100.64 -1.16832 -2.0217 0
M  V30 11457 C 1101.62 -0.0629265 -1.69984 0
M  V30 11458 O 1102.8 -0.242123 -1.92685 0
M  V30 11459 C 1099.93 -0.842406 -3.36929 0
M  V30 11460 C 1098.89 -1.90394 -3.8332 0
M  V30 11461 C 1098.21 -1.43138 -5.15185 0
M  V30 11462 C 1099.51 -3.31254 -4.03817 0
M  V30 11463 H 1101.21 -2.10562 -2.12847 0
M  V30 11464 H 1098.75 -1.01375 -1.0227 0
M  V30 11465 H 1100.71 -0.741999 -4.14816 0
M  V30 11466 H 1099.43 0.130598 -3.26339 0
M  V30 11467 H 1098.09 -1.99371 -3.07647 0
M  V30 11468 H 1097.74 -0.447091 -5.01009 0
M  V30 11469 H 1097.44 -2.14129 -5.47195 0
M  V30 11470 H 1098.96 -1.34444 -5.95615 0
M  V30 11471 H 1100.37 -3.25129 -4.72191 0
M  V30 11472 H 1098.77 -4.00189 -4.47178 0
M  V30 11473 H 1099.84 -3.74349 -3.08206 0
M  V30 11474 N 1101.18 1.11143 -1.11736 0
M  V30 11475 C 1102.43 1.82311 -0.862875 0
M  V30 11476 C 1102.75 1.85735 0.613326 0
M  V30 11477 O 1103.95 2.53034 0.984168 0
M  V30 11478 C 1102.41 3.27427 -1.49396 0
M  V30 11479 C 1102.02 3.32323 -3.00443 0
M  V30 11480 C 1103.76 4.03474 -1.31944 0
M  V30 11481 C 1101.67 4.71855 -3.56521 0
M  V30 11482 H 1100.6 0.683124 -0.31915 0
M  V30 11483 H 1103.25 1.25045 -1.34298 0
M  V30 11484 H 1101.63 3.84644 -0.941528 0
M  V30 11485 H 1102.8 2.84971 -3.62117 0
M  V30 11486 H 1101.12 2.69758 -3.17206 0
M  V30 11487 H 1103.72 5.06528 -1.71271 0
M  V30 11488 H 1104.06 4.15473 -0.262339 0
M  V30 11489 H 1104.59 3.52652 -1.84069 0
M  V30 11490 H 1101.33 4.65054 -4.61958 0
M  V30 11491 H 1100.85 5.19604 -2.99619 0
M  V30 11492 H 1102.53 5.40816 -3.55144 0
M  V30 11493 N 1102.66 0.908147 1.28804 0
M  V30 11494 C 1103.91 0.53734 1.94826 0
M  V30 11495 C 1104.23 -0.920962 1.71882 0
M  V30 11496 O 1103.5 -1.65043 1.05534 0
M  V30 11497 H 1102.08 0.195729 0.720902 0
M  V30 11498 H 1104.74 1.15628 1.56895 0
M  V30 11499 H 1103.84 0.727052 3.03513 0
M  V30 11500 N 1104.14 -1.42577 0.671525 0
M  V30 11501 C 1105.39 -2.01185 0.192051 0
M  V30 11502 C 1105.71 -1.53349 -1.20454 0
M  V30 11503 O 1104.98 -0.753781 -1.80817 0
M  V30 11504 H 1103.56 -0.743898 0.0680106 0
M  V30 11505 H 1106.22 -1.74539 0.8673 0
M  V30 11506 H 1105.32 -3.11516 0.190796 0
M  V30 11507 N 1105.62 -0.414636 -1.52048 0
M  V30 11508 C 1106.57 0.422766 -2.28726 0
M  V30 11509 C 1107.56 1.04099 -1.3364 0
M  V30 11510 O 1108.77 0.978559 -1.51077 0
M  V30 11511 H 1105.14 0.155123 -0.735827 0
M  V30 11512 H 1107.11 -0.245091 -2.97392 0
M  V30 11513 C 1105.86 1.52418 -3.12513 0
M  V30 11514 H 1105.18 1.05781 -3.85552 0
M  V30 11515 H 1106.62 2.08382 -3.6926 0
M  V30 11516 C 1105.08 2.49465 -2.26426 0
M  V30 11517 O 1105.61 3.53479 -1.90829 0
M  V30 11518 N 1103.82 2.19806 -1.90088 0
M  V30 11519 H 1103.37 1.35253 -2.19236 0
M  V30 11520 H 1103.32 2.84984 -1.32783 0
M  V30 11521 N 1107.1 1.56929 -0.145233 0
M  V30 11522 C 1108.51 1.58196 0.211194 0
M  V30 11523 C 1108.71 1.15941 1.64803 0
M  V30 11524 O 1107.77 0.858888 2.37443 0
M  V30 11525 C 1109.08 3.00665 -0.0459569 0
M  V30 11526 C 1110.63 3.12995 0.0178913 0
M  V30 11527 C 1111.1 4.5751 -0.211905 0
M  V30 11528 N 1112.6 4.62928 -0.158772 0
M  V30 11529 C 1113.33 5.72555 -0.311111 0
M  V30 11530 N 1112.83 6.90838 -0.521074 0
M  V30 11531 N 1114.62 5.61549 -0.248838 0
M  V30 11532 H 1106.77 1.8269 -1.08342 0
M  V30 11533 H 1109.03 0.845514 -0.428731 0
M  V30 11534 H 1108.74 3.35962 -1.0403 0
M  V30 11535 H 1108.61 3.71125 0.674246 0
M  V30 11536 H 1111 2.7754 1.00278 0
M  V30 11537 H 1111.08 2.45025 -0.734612 0
M  V30 11538 H 1110.73 4.93669 -1.19389 0
M  V30 11539 H 1110.66 5.23604 0.560901 0
M  V30 11540 H 1113.15 3.779 -0.00107283 0
M  V30 11541 H 1113.46 7.70248 -0.62747 0
M  V30 11542 H 1111.8 6.92761 -0.557374 0
M  V30 11543 H 1115 4.68022 -0.0855821 0
M  V30 11544 H 1115.17 6.46937 -0.370997 0
M  V30 11545 N 1108.58 -0.128553 1.57075 0
M  V30 11546 C 1109.51 -1.15953 2.02675 0
M  V30 11547 C 1110.49 -1.43743 0.909501 0
M  V30 11548 O 1111.67 -1.54348 1.17857 0
M  V30 11549 C 1108.8 -2.48813 2.423 0
M  V30 11550 C 1107.76 -2.35506 3.57381 0
M  V30 11551 C 1107.08 -3.73243 3.82875 0
M  V30 11552 C 1108.38 -1.82359 4.89431 0
M  V30 11553 H 1110.08 -0.780283 2.89054 0
M  V30 11554 H 1107.62 -0.373896 1.39061 0
M  V30 11555 H 1109.57 -3.21179 2.72804 0
M  V30 11556 H 1108.3 -2.88609 1.52881 0
M  V30 11557 H 1106.96 -1.6559 3.27071 0
M  V30 11558 H 1106.61 -4.10507 2.90677 0
M  V30 11559 H 1106.31 -3.65195 4.60333 0
M  V30 11560 H 1107.83 -4.47128 4.15823 0
M  V30 11561 H 1109.24 -2.44533 5.18533 0
M  V30 11562 H 1107.64 -1.85156 5.70822 0
M  V30 11563 H 1108.71 -0.780478 4.78578 0
M  V30 11564 N 1110.05 -1.5248 -0.398459 0
M  V30 11565 C 1111 -1.76585 -1.48615 0
M  V30 11566 C 1111.97 -0.608677 -1.54546 0
M  V30 11567 O 1113.16 -0.847383 -1.7095 0
M  V30 11568 C 1110.3 -1.93201 -2.8595 0
M  V30 11569 C 1109.41 -3.20875 -2.89246 0
M  V30 11570 C 1108.54 -3.27862 -4.17947 0
M  V30 11571 C 1107.58 -4.49697 -4.15258 0
M  V30 11572 N 1106.72 -4.54017 -5.35549 0
M  V30 11573 H 1111.56 -2.69412 -1.27362 0
M  V30 11574 H 1109.1 -1.33487 -0.618031 0
M  V30 11575 H 1111.05 -2.00819 -3.65688 0
M  V30 11576 H 1109.68 -1.03743 -3.05675 0
M  V30 11577 H 1108.74 -3.22376 -2.01935 0
M  V30 11578 H 1110.05 -4.1066 -2.83125 0
M  V30 11579 H 1109.2 -3.34611 -5.06083 0
M  V30 11580 H 1107.94 -2.36035 -4.26777 0
M  V30 11581 H 1106.95 -4.43083 -3.25511 0
M  V30 11582 H 1108.17 -5.42831 -4.08059 0
M  V30 11583 H 1106.12 -3.65078 -5.45027 0
M  V30 11584 H 1106.03 -5.37661 -5.31466 0
M  V30 11585 H 1107.3 -4.65009 -6.25609 0
M  V30 11586 N 1111.53 0.65634 -1.43283 0
M  V30 11587 C 1112.46 1.78184 -1.44164 0
M  V30 11588 C 1113.48 1.59249 -0.338177 0
M  V30 11589 O 1114.67 1.68027 -0.60242 0
M  V30 11590 C 1111.77 3.15566 -1.23577 0
M  V30 11591 C 1110.94 3.61187 -2.46704 0
M  V30 11592 C 1110 4.77361 -2.21388 0
M  V30 11593 O 1109.02 4.8696 -2.94718 0
M  V30 11594 N 1110.23 5.67351 -1.22855 0
M  V30 11595 H 1112.99 1.77907 -2.41183 0
M  V30 11596 H 1110.55 0.840076 -1.38399 0
M  V30 11597 H 1112.54 3.90968 -1.04529 0
M  V30 11598 H 1111.11 3.10633 -0.350155 0
M  V30 11599 H 1110.33 2.76263 -2.81198 0
M  V30 11600 H 1111.62 3.88413 -3.28652 0
M  V30 11601 H 1111.02 5.62265 -0.622417 0
M  V30 11602 H 1109.58 6.42487 -1.09791 0
M  V30 11603 N 1113.01 1.29761 0.894412 0
M  V30 11604 C 1114.42 1.16275 1.46072 0
M  V30 11605 C 1114.77 -0.240123 1.94725 0
M  V30 11606 O 1113.9 -1.13606 1.84181 0
M  V30 11607 C 1114.49 2.10471 2.65494 0
M  V30 11608 C 1113.05 2.00992 3.18244 0
M  V30 11609 C 1112.2 2.01094 1.90936 0
M  V30 11610 H 1115.15 1.42169 0.705243 0
M  V30 11611 H 1115.17 1.68003 3.41402 0
M  V30 11612 H 1114.68 3.12566 2.30053 0
M  V30 11613 H 1112.78 1.02005 3.58365 0
M  V30 11614 H 1112.9 2.88916 3.82184 0
M  V30 11615 H 1111.26 1.45764 2.08866 0
M  V30 11616 H 1112.04 3.04902 1.57764 0
M  V30 11617 N 1114.49 -1.10549 1.12324 0
M  V30 11618 C 1115.9 -1.63991 0.892402 0
M  V30 11619 C 1116.25 -1.87631 -0.573506 0
M  V30 11620 O 1115.37 -1.6174 -1.43768 0
M  V30 11621 C 1115.97 -2.97914 1.61347 0
M  V30 11622 C 1114.53 -3.48227 1.42881 0
M  V30 11623 C 1113.68 -2.22857 1.65015 0
M  V30 11624 H 1116.63 -0.94065 1.27818 0
M  V30 11625 H 1116.65 -3.65326 1.06382 0
M  V30 11626 H 1116.16 -2.80677 2.68034 0
M  V30 11627 H 1114.26 -3.70611 0.384441 0
M  V30 11628 H 1114.37 -4.26419 2.18413 0
M  V30 11629 H 1112.74 -2.30941 1.07417 0
M  V30 11630 H 1113.52 -2.08152 2.72997 0
M  V30 11631 N 1115.97 -0.914965 -1.28321 0
M  V30 11632 C 1116.88 -0.409424 -2.31 0
M  V30 11633 C 1117.89 0.503526 -1.66555 0
M  V30 11634 O 1119.07 0.38942 -1.97599 0
M  V30 11635 C 1116.13 0.34123 -3.45017 0
M  V30 11636 C 1115.19 -0.605087 -4.25014 0
M  V30 11637 C 1114.43 0.109837 -5.33587 0
M  V30 11638 O 1114.65 1.33136 -5.54645 0
M  V30 11639 O 1113.58 -0.555474 -5.99331 0
M  V30 11640 H 1117.41 -1.26167 -2.76253 0
M  V30 11641 H 1114.99 -0.679831 -1.33036 0
M  V30 11642 H 1116.88 0.765132 -4.14396 0
M  V30 11643 H 1115.55 1.16929 -3.01843 0
M  V30 11644 H 1114.46 -1.07841 -3.58219 0
M  V30 11645 H 1115.79 -1.39999 -4.7187 0
M  V30 11646 N 1117.44 1.42219 -0.679077 0
M  V30 11647 C 1118.68 2.03349 -0.207058 0
M  V30 11648 C 1119.05 1.52554 1.16581 0
M  V30 11649 O 1120.25 2.05499 1.73274 0
M  V30 11650 C 1118.52 3.56562 -0.244537 0
M  V30 11651 S 1120.08 4.38523 0.155853 0
M  V30 11652 H 1116.9 0.705932 -0.0847444 0
M  V30 11653 H 1119.5 1.73904 -0.893183 0
M  V30 11654 H 1118.2 3.91028 -1.246 0
M  V30 11655 H 1117.73 3.90686 0.461282 0
M  V30 11656 H 1119.75 4.76389 1.38808 0
M  V30 11657 N 1118.92 0.422693 1.51826 0
M  V30 11658 C 1119.85 -0.440987 2.23899 0
M  V30 11659 C 1120.83 -1.03685 1.25252 0
M  V30 11660 O 1122.02 -1.08212 1.54345 0
M  V30 11661 C 1119.14 -1.61331 2.97809 0
M  V30 11662 C 1118.19 -1.13954 4.10995 0
M  V30 11663 S 1119.02 -0.0935426 5.35418 0
M  V30 11664 C 1120.18 -1.27087 6.12862 0
M  V30 11665 H 1120.41 0.170945 2.96808 0
M  V30 11666 H 1117.94 0.20709 1.53005 0
M  V30 11667 H 1119.9 -2.28546 3.40994 0
M  V30 11668 H 1118.56 -2.19662 2.24516 0
M  V30 11669 H 1117.76 -2.01578 4.61933 0
M  V30 11670 H 1117.36 -0.545838 3.69995 0
M  V30 11671 H 1119.65 -2.19199 6.4106 0
M  V30 11672 H 1120.59 -0.801752 7.03546 0
M  V30 11673 H 1121 -1.50281 5.44129 0
M  V30 11674 N 1120.4 -1.5685 0.153553 0
M  V30 11675 C 1121.31 -2.20664 -0.796528 0
M  V30 11676 C 1122.33 -1.19289 -1.26674 0
M  V30 11677 O 1123.5 -1.51889 -1.32256 0
M  V30 11678 C 1120.57 -2.82088 -2.01561 0
M  V30 11679 C 1119.63 -3.9861 -1.59401 0
M  V30 11680 C 1118.86 -4.57096 -2.75498 0
M  V30 11681 O 1119.08 -4.14462 -3.9189 0
M  V30 11682 O 1118.02 -5.47254 -2.50593 0
M  V30 11683 H 1121.84 -3.02376 -0.283282 0
M  V30 11684 H 1119.43 -1.49218 -0.0737927 0
M  V30 11685 H 1121.31 -3.21103 -2.72893 0
M  V30 11686 H 1119.99 -2.03385 -2.51826 0
M  V30 11687 H 1118.89 -3.64299 -0.850725 0
M  V30 11688 H 1120.23 -4.78853 -1.13845 0
M  V30 11689 N 1121.88 0.120221 -1.57141 0
M  V30 11690 C 1123.15 0.858458 -1.75755 0
M  V30 11691 C 1123.53 1.98124 -0.728693 0
M  V30 11692 O 1122.88 2.27155 0.247573 0
M  V30 11693 C 1123.09 1.37627 -3.20718 0
M  V30 11694 C 1124.44 1.82909 -3.83183 0
M  V30 11695 O 1125.46 1.47309 -3.24312 0
M  V30 11696 O 1124.32 2.4865 -4.86657 0
M  V30 11697 H 1121.42 0.407583 -0.719587 0
M  V30 11698 H 1123.96 0.104057 -1.69381 0
M  V30 11699 H 1122.74 0.570651 -3.87117 0
M  V30 11700 H 1122.36 2.19341 -3.31625 0
M  V30 11701 N 1123.36 1.52689 0.390367 0
M  V30 11702 C 1124.6 1.67914 1.13722 0
M  V30 11703 C 1124.94 0.417159 1.89667 0
M  V30 11704 O 1124.21 -0.585005 1.85494 0
M  V30 11705 C 1124.49 2.91331 2.11656 0
M  V30 11706 C 1124.35 4.27626 1.39484 0
M  V30 11707 C 1125.67 3.10293 3.12099 0
M  V30 11708 H 1122.78 0.611047 0.412057 0
M  V30 11709 H 1125.43 1.85283 0.420753 0
M  V30 11710 H 1123.58 2.76654 2.72754 0
M  V30 11711 H 1125.25 4.54068 0.813607 0
M  V30 11712 H 1123.49 4.28169 0.69669 0
M  V30 11713 H 1124.16 5.10066 2.11038 0
M  V30 11714 H 1126.64 3.23992 2.6109 0
M  V30 11715 H 1125.51 3.98127 3.7787 0
M  V30 11716 H 1125.78 2.24448 3.80888 0
M  V30 11717 N 1124.83 -0.648732 1.43629 0
M  V30 11718 C 1126.06 -1.43412 1.48716 0
M  V30 11719 C 1126.47 -1.88908 0.105051 0
M  V30 11720 O 1125.82 -1.60373 -0.895896 0
M  V30 11721 C 1125.88 -2.69906 2.37468 0
M  V30 11722 C 1125.54 -2.46321 3.84935 0
M  V30 11723 C 1126.54 -2.09259 4.75927 0
M  V30 11724 C 1124.22 -2.60506 4.29467 0
M  V30 11725 C 1126.22 -1.86686 6.09448 0
M  V30 11726 C 1123.9 -2.37548 5.6304 0
M  V30 11727 C 1124.9 -2.00694 6.52848 0
M  V30 11728 O 1124.59 -1.77979 7.83951 0
M  V30 11729 H 1124.32 -0.446883 0.507219 0
M  V30 11730 H 1126.88 -0.802218 1.89086 0
M  V30 11731 H 1125.11 -3.35672 1.91993 0
M  V30 11732 H 1126.8 -3.31867 2.33707 0
M  V30 11733 H 1127.56 -1.97872 4.428 0
M  V30 11734 H 1123.44 -2.88165 3.59836 0
M  V30 11735 H 1126.98 -1.57844 6.79508 0
M  V30 11736 H 1122.88 -2.48539 5.95734 0
M  V30 11737 H 1123.65 -1.92368 7.95573 0
M  V30 11738 N 1126.31 -1.30234 -0.887518 0
M  V30 11739 C 1127.59 -1.09572 -1.62029 0
M  V30 11740 C 1127.97 0.355877 -2.08079 0
M  V30 11741 O 1127.32 1.34692 -1.84582 0
M  V30 11742 C 1127.53 -2.0943 -2.79177 0
M  V30 11743 C 1128.88 -2.4101 -3.4957 0
M  V30 11744 O 1129.9 -2.0772 -2.89363 0
M  V30 11745 O 1128.76 -2.97943 -4.5814 0
M  V30 11746 H 1125.85 -0.420648 -0.712028 0
M  V30 11747 H 1128.4 -1.41651 -0.934517 0
M  V30 11748 H 1127.17 -3.07149 -2.42436 0
M  V30 11749 H 1126.79 -1.78154 -3.55453 0
M  V30 11750 N 1127.79 1.09952 -1.12909 0
M  V30 11751 C 1128.72 2.18477 -0.824014 0
M  V30 11752 C 1129.7 1.68744 0.214324 0
M  V30 11753 O 1130.89 1.94057 0.0744281 0
M  V30 11754 C 1128.02 3.46143 -0.283308 0
M  V30 11755 C 1126.97 4.09178 -1.25528 0
M  V30 11756 C 1126.3 5.31604 -0.574574 0
M  V30 11757 C 1127.6 4.52308 -2.6118 0
M  V30 11758 H 1129.29 2.44254 -1.73148 0
M  V30 11759 H 1126.84 1.17394 -0.833952 0
M  V30 11760 H 1128.79 4.21361 -0.057583 0
M  V30 11761 H 1127.51 3.19872 0.659525 0
M  V30 11762 H 1126.17 3.35973 -1.4669 0
M  V30 11763 H 1125.82 5.01611 0.37356 0
M  V30 11764 H 1125.52 5.74732 -1.22299 0
M  V30 11765 H 1127.04 6.0955 -0.358004 0
M  V30 11766 H 1128.46 5.18776 -2.44017 0
M  V30 11767 H 1126.86 5.06302 -3.22147 0
M  V30 11768 H 1127.93 3.64977 -3.19249 0
M  V30 11769 N 1129.27 0.921757 1.27833 0
M  V30 11770 C 1130.2 0.360683 2.25332 0
M  V30 11771 C 1131.18 -0.53961 1.53385 0
M  V30 11772 O 1132.36 -0.48146 1.82248 0
M  V30 11773 C 1129.49 -0.483626 3.35229 0
M  V30 11774 C 1128.54 0.352405 4.25042 0
M  V30 11775 S 1129.37 1.76421 5.05605 0
M  V30 11776 C 1130.53 0.92742 6.18991 0
M  V30 11777 H 1130.76 1.18703 2.72574 0
M  V30 11778 H 1128.29 0.72354 1.36397 0
M  V30 11779 H 1130.25 -0.964914 3.98998 0
M  V30 11780 H 1128.91 -1.28444 2.86637 0
M  V30 11781 H 1128.1 -0.293558 5.03144 0
M  V30 11782 H 1127.71 0.767643 3.66037 0
M  V30 11783 H 1130 0.160698 6.77309 0
M  V30 11784 H 1130.94 1.68126 6.87851 0
M  V30 11785 H 1131.35 0.472056 5.62523 0
M  V30 11786 N 1130.75 -1.41857 0.686609 0
M  V30 11787 C 1131.98 -2.05401 0.222238 0
M  V30 11788 C 1132.38 -1.51731 -1.13023 0
M  V30 11789 O 1131.73 -0.656701 -1.71561 0
M  V30 11790 C 1131.79 -3.59381 0.0926608 0
M  V30 11791 C 1131.45 -4.35801 1.37573 0
M  V30 11792 C 1132.45 -4.65678 2.31171 0
M  V30 11793 C 1130.14 -4.75233 1.62661 0
M  V30 11794 C 1132.13 -5.33936 3.48125 0
M  V30 11795 C 1129.82 -5.43229 2.79902 0
M  V30 11796 C 1130.81 -5.72507 3.72458 0
M  V30 11797 O 1130.5 -6.39106 4.87646 0
M  V30 11798 H 1130.23 -0.668126 0.102876 0
M  V30 11799 H 1132.79 -1.82775 0.93714 0
M  V30 11800 H 1131.02 -3.80711 -0.67793 0
M  V30 11801 H 1132.71 -4.04529 -0.333364 0
M  V30 11802 H 1133.47 -4.35704 2.13042 0
M  V30 11803 H 1129.35 -4.51831 0.914862 0
M  V30 11804 H 1132.9 -5.56706 4.20386 0
M  V30 11805 H 1128.79 -5.72621 2.97951 0
M  V30 11806 H 1129.56 -6.576 4.87344 0
M  V30 11807 N 1132.22 -0.430739 -1.51599 0
M  V30 11808 C 1133.16 0.419726 -2.25324 0
M  V30 11809 C 1134.17 0.991925 -1.29092 0
M  V30 11810 O 1135.36 0.887188 -1.54891 0
M  V30 11811 C 1132.46 1.59844 -2.98836 0
M  V30 11812 C 1131.63 1.14629 -4.22112 0
M  V30 11813 C 1130.69 2.19437 -4.78261 0
M  V30 11814 O 1129.72 1.79141 -5.40275 0
M  V30 11815 N 1130.92 3.51849 -4.61717 0
M  V30 11816 H 1133.68 -0.212112 -2.98948 0
M  V30 11817 H 1131.24 -0.259269 -1.59811 0
M  V30 11818 H 1133.24 2.29567 -3.33288 0
M  V30 11819 H 1131.81 2.13575 -2.28264 0
M  V30 11820 H 1131.03 0.276367 -3.9323 0
M  V30 11821 H 1132.31 0.821488 -5.02124 0
M  V30 11822 H 1131.71 3.87324 -4.12306 0
M  V30 11823 H 1130.27 4.17486 -5.00548 0
M  V30 11824 N 1133.7 1.56767 -0.161869 0
M  V30 11825 C 1134.94 1.98487 0.488067 0
M  V30 11826 C 1135.31 1.04527 1.61053 0
M  V30 11827 O 1136.51 1.35351 2.32236 0
M  V30 11828 C 1134.78 3.44057 0.967446 0
M  V30 11829 S 1136.34 4.07805 1.61989 0
M  V30 11830 H 1133.16 0.693377 0.157318 0
M  V30 11831 H 1135.76 1.93802 -0.257099 0
M  V30 11832 H 1134.46 4.10161 0.139959 0
M  V30 11833 H 1133.99 3.52488 1.74688 0
M  V30 11834 H 1136.01 4.02078 2.90772 0
M  V30 11835 N 1135.18 -0.111886 1.57202 0
M  V30 11836 C 1136.43 -0.8146 1.86376 0
M  V30 11837 C 1136.78 -1.77156 0.750558 0
M  V30 11838 O 1136.07 -1.89977 -0.248867 0
M  V30 11839 C 1136.27 -1.59644 3.19763 0
M  V30 11840 C 1136.1 -0.71669 4.43952 0
M  V30 11841 C 1134.87 -0.36881 5.03952 0
M  V30 11842 C 1137.07 -0.0311316 5.14291 0
M  V30 11843 N 1135.05 0.520861 6.11686 0
M  V30 11844 C 1136.42 0.71726 6.15837 0
M  V30 11845 C 1138.47 0.0445453 4.9788 0
M  V30 11846 C 1137.18 1.53423 7.02747 0
M  V30 11847 C 1139.2 0.848364 5.85283 0
M  V30 11848 C 1138.56 1.58493 6.86338 0
M  V30 11849 H 1134.66 -0.274785 0.732132 0
M  V30 11850 H 1137.25 -0.0779628 1.94544 0
M  V30 11851 H 1135.42 -2.30407 3.12678 0
M  V30 11852 H 1137.15 -2.24504 3.36719 0
M  V30 11853 H 1133.91 -0.712671 4.68207 0
M  V30 11854 H 1134.33 0.957756 6.70191 0
M  V30 11855 H 1138.97 -0.510564 4.19706 0
M  V30 11856 H 1136.69 2.10047 7.80324 0
M  V30 11857 H 1140.28 0.909372 5.74649 0
M  V30 11858 H 1139.16 2.19691 7.52798 0
M  V30 11859 N 1136.66 -1.52894 -0.382264 0
M  V30 11860 C 1137.88 -1.72453 -1.15216 0
M  V30 11861 C 1138.31 -0.444925 -1.82762 0
M  V30 11862 O 1137.67 0.599825 -1.7109 0
M  V30 11863 C 1137.71 -2.87939 -2.17079 0
M  V30 11864 O 1136.82 -2.55383 -3.23811 0
M  V30 11865 H 1136.16 -0.57324 -0.335099 0
M  V30 11866 H 1138.69 -1.99713 -0.444495 0
M  V30 11867 H 1138.7 -3.13628 -2.60963 0
M  V30 11868 H 1137.37 -3.80765 -1.67305 0
M  V30 11869 H 1135.95 -2.40457 -2.85018 0
M  V30 11870 N 1138.14 0.641106 -1.43971 0
M  V30 11871 C 1139.1 1.73539 -1.49723 0
M  V30 11872 C 1140.1 1.56235 -0.380438 0
M  V30 11873 O 1141.29 1.61912 -0.642673 0
M  V30 11874 C 1138.42 3.1253 -1.36153 0
M  V30 11875 H 1139.62 1.69816 -2.47189 0
M  V30 11876 H 1137.17 0.853867 -1.30915 0
M  V30 11877 H 1137.9 3.21856 -0.39742 0
M  V30 11878 H 1137.69 3.26496 -2.17124 0
M  V30 11879 H 1139.18 3.92303 -1.43138 0
M  V30 11880 N 1139.62 1.30703 0.880598 0
M  V30 11881 C 1140.89 1.1043 1.61445 0
M  V30 11882 C 1141.27 -0.344837 2.08264 0
M  V30 11883 O 1140.62 -1.33711 1.85293 0
M  V30 11884 C 1140.83 2.10908 2.78063 0
M  V30 11885 C 1142.18 2.42861 3.48287 0
M  V30 11886 O 1143.2 2.09252 2.88257 0
M  V30 11887 O 1142.06 3.00369 4.56553 0
M  V30 11888 H 1139.16 0.424419 0.709787 0
M  V30 11889 H 1141.7 1.42144 0.926991 0
M  V30 11890 H 1140.47 3.08431 2.40803 0
M  V30 11891 H 1140.1 1.80036 3.54503 0
M  V30 11892 N 1141.09 -1.09351 1.1349 0
M  V30 11893 C 1142.5 -1.63035 0.909746 0
M  V30 11894 C 1142.86 -1.88229 -0.553573 0
M  V30 11895 O 1141.98 -1.63256 -1.42044 0
M  V30 11896 C 1142.58 -2.96186 1.64497 0
M  V30 11897 C 1141.13 -3.46692 1.46566 0
M  V30 11898 C 1140.28 -2.21095 1.67369 0
M  V30 11899 H 1143.23 -0.92704 1.28809 0
M  V30 11900 H 1143.25 -3.64177 1.10251 0
M  V30 11901 H 1142.77 -2.77818 2.70996 0
M  V30 11902 H 1140.87 -3.70183 0.423728 0
M  V30 11903 H 1140.98 -4.24078 2.22923 0
M  V30 11904 H 1139.34 -2.29789 1.0986 0
M  V30 11905 H 1140.13 -2.05245 2.7519 0
M  V30 11906 N 1142.57 -0.928524 -1.27343 0
M  V30 11907 C 1143.52 -0.426873 -2.26818 0
M  V30 11908 C 1144.49 0.506663 -1.58184 0
M  V30 11909 O 1145.67 0.425641 -1.85992 0
M  V30 11910 C 1142.81 0.313523 -3.43673 0
M  V30 11911 C 1141.93 -0.65422 -4.27018 0
M  V30 11912 C 1141.06 0.106102 -5.31094 0
M  V30 11913 C 1140.1 -0.854293 -6.06109 0
M  V30 11914 N 1139.24 -0.126545 -7.01986 0
M  V30 11915 H 1144.08 -1.28014 -2.69103 0
M  V30 11916 H 1141.61 -0.642515 -1.32326 0
M  V30 11917 H 1143.57 0.75912 -4.10236 0
M  V30 11918 H 1142.2 1.13102 -3.02337 0
M  V30 11919 H 1141.25 -1.21834 -3.60362 0
M  V30 11920 H 1142.57 -1.38817 -4.79094 0
M  V30 11921 H 1141.72 0.611577 -6.0361 0
M  V30 11922 H 1140.46 0.873009 -4.79823 0
M  V30 11923 H 1139.46 -1.37101 -5.32432 0
M  V30 11924 H 1140.69 -1.621 -6.5947 0
M  V30 11925 H 1138.64 0.622102 -6.53044 0
M  V30 11926 H 1138.55 -0.800046 -7.51755 0
M  V30 11927 H 1139.82 0.358251 -7.78676 0
M  V30 11928 N 1144.05 1.41491 -0.694123 0
M  V30 11929 C 1144.98 2.29197 0.0112742 0
M  V30 11930 C 1145.99 1.44708 0.745877 0
M  V30 11931 O 1147.18 1.68227 0.596821 0
M  V30 11932 C 1144.28 3.22547 1.04004 0
M  V30 11933 C 1143.46 4.35787 0.375347 0
M  V30 11934 C 1142.52 5.09722 1.30652 0
M  V30 11935 O 1141.54 5.63558 0.799459 0
M  V30 11936 N 1142.74 5.1705 2.63893 0
M  V30 11937 H 1145.51 2.90377 -0.741705 0
M  V30 11938 H 1143.07 1.52628 -0.540039 0
M  V30 11939 H 1145.06 3.68878 1.66468 0
M  V30 11940 H 1143.63 2.62685 1.69456 0
M  V30 11941 H 1142.85 3.91857 -0.429145 0
M  V30 11942 H 1144.14 5.08726 -0.0869041 0
M  V30 11943 H 1143.54 4.74756 3.07609 0
M  V30 11944 H 1142.09 5.66962 3.21555 0
M  V30 11945 N 1145.53 0.438773 1.51369 0
M  V30 11946 C 1146.94 0.0911416 1.5934 0
M  V30 11947 C 1147.14 -1.39962 1.44958 0
M  V30 11948 O 1146.2 -2.16968 1.29155 0
M  V30 11949 C 1147.51 0.612531 2.94395 0
M  V30 11950 C 1149.06 0.573098 3.07709 0
M  V30 11951 C 1149.54 1.07149 4.4529 0
M  V30 11952 N 1151.03 1.02953 4.51614 0
M  V30 11953 C 1151.76 1.38602 5.56397 0
M  V30 11954 N 1151.26 1.81543 6.68591 0
M  V30 11955 N 1153.05 1.30409 5.46763 0
M  V30 11956 H 1145.2 1.40872 1.58962 0
M  V30 11957 H 1147.46 0.580589 0.749414 0
M  V30 11958 H 1147.17 1.65562 3.10294 0
M  V30 11959 H 1147.04 0.0382375 3.77181 0
M  V30 11960 H 1149.43 -0.461006 2.91477 0
M  V30 11961 H 1149.51 1.18381 2.26759 0
M  V30 11962 H 1149.16 2.10406 4.62268 0
M  V30 11963 H 1149.09 0.437297 5.24781 0
M  V30 11964 H 1151.58 0.714208 3.7109 0
M  V30 11965 H 1151.89 2.06977 7.44567 0
M  V30 11966 H 1150.24 1.8547 6.69795 0
M  V30 11967 H 1153.43 0.967272 4.57997 0
M  V30 11968 H 1153.6 1.5852 6.28312 0
M  V30 11969 N 1147.01 -1.56678 0.170181 0
M  V30 11970 C 1148.42 -1.83452 -0.346742 0
M  V30 11971 C 1148.77 -1.08993 -1.63141 0
M  V30 11972 O 1147.89 -0.342607 -2.13671 0
M  V30 11973 C 1148.49 -3.32779 -0.635882 0
M  V30 11974 C 1147.05 -3.60052 -1.09725 0
M  V30 11975 C 1146.19 -2.76983 -0.132516 0
M  V30 11976 H 1149.14 -1.53719 0.394465 0
M  V30 11977 H 1149.17 -3.50195 -1.48806 0
M  V30 11978 H 1148.68 -3.86944 0.299291 0
M  V30 11979 H 1146.78 -3.11297 -2.04756 0
M  V30 11980 H 1146.89 -4.68393 -1.00719 0
M  V30 11981 H 1145.26 -2.46794 -0.62966 0
M  V30 11982 H 1146.04 -3.33929 0.796658 0
M  V30 11983 N 1148.48 0.103547 -1.57259 0
M  V30 11984 C 1149.71 0.82624 -1.90232 0
M  V30 11985 C 1150.13 1.71902 -0.763641 0
M  V30 11986 O 1149.49 1.79043 0.285181 0
M  V30 11987 C 1149.54 1.62265 -3.22029 0
M  V30 11988 O 1148.64 2.73091 -3.09023 0
M  V30 11989 H 1147.98 0.227528 -0.6238 0
M  V30 11990 H 1150.51 0.081307 -2.04438 0
M  V30 11991 H 1150.52 2.00865 -3.5513 0
M  V30 11992 H 1149.2 0.967383 -4.04493 0
M  V30 11993 H 1147.78 2.3758 -2.8742 0
M  V30 11994 N 1149.96 1.53094 0.37415 0
M  V30 11995 C 1151.21 1.68861 1.11769 0
M  V30 11996 C 1151.54 0.436032 1.89549 0
M  V30 11997 O 1150.79 -0.581879 1.86849 0
M  V30 11998 C 1151.09 2.88432 2.11049 0
M  V30 11999 C 1150.76 4.25284 1.49814 0
M  V30 12000 C 1149.42 4.62501 1.32841 0
M  V30 12001 C 1151.77 5.10425 1.05433 0
M  V30 12002 C 1149.1 5.82502 0.700567 0
M  V30 12003 C 1151.45 6.31064 0.440525 0
M  V30 12004 C 1150.11 6.67 0.258216 0
M  V30 12005 H 1149.38 0.617906 0.40899 0
M  V30 12006 H 1152.03 1.87265 0.4005 0
M  V30 12007 H 1150.34 2.64505 2.8904 0
M  V30 12008 H 1152.03 2.97825 2.68517 0
M  V30 12009 H 1148.62 3.95976 1.64016 0
M  V30 12010 H 1152.81 4.82229 1.17342 0
M  V30 12011 H 1148.06 6.08942 0.547652 0
M  V30 12012 H 1152.24 6.96344 0.0883962 0
M  V30 12013 H 1149.86 7.59851 -0.230354 0
M  V30 12014 N 1151.44 -0.633461 1.44309 0
M  V30 12015 C 1152.67 -1.42033 1.50447 0
M  V30 12016 C 1153.08 -1.88362 0.128585 0
M  V30 12017 O 1152.44 -1.60695 -0.865071 0
M  V30 12018 C 1152.49 -2.6422 2.46719 0
M  V30 12019 O 1152.21 -2.19823 3.78958 0
M  V30 12020 C 1153.71 -3.57372 2.62298 0
M  V30 12021 H 1150.93 -0.435667 0.510329 0
M  V30 12022 H 1153.48 -0.774907 1.8925 0
M  V30 12023 H 1151.63 -3.24859 2.11058 0
M  V30 12024 H 1152.05 -2.99022 4.30913 0
M  V30 12025 H 1153.52 -4.39719 3.33693 0
M  V30 12026 H 1154 -4.06026 1.67449 0
M  V30 12027 H 1154.6 -3.02603 2.9885 0
M  V30 12028 N 1152.92 -1.31168 -0.873655 0
M  V30 12029 C 1154.16 -1.21938 -1.64044 0
M  V30 12030 C 1154.52 0.219903 -1.90737 0
M  V30 12031 O 1155.72 0.435635 -2.65246 0
M  V30 12032 C 1153.99 -2.03633 -2.93715 0
M  V30 12033 S 1155.55 -2.11224 -3.84616 0
M  V30 12034 H 1152.37 -0.43436 -0.562896 0
M  V30 12035 H 1154.97 -1.65786 -1.03612 0
M  V30 12036 H 1153.68 -3.07298 -2.72022 0
M  V30 12037 H 1153.21 -1.6049 -3.59175 0
M  V30 12038 H 1155.22 -1.24787 -4.80253 0
M  V30 12039 N 1154.4 1.08748 -1.14068 0
M  V30 12040 C 1155.33 2.17591 -0.84714 0
M  V30 12041 C 1156.31 1.68962 0.196415 0
M  V30 12042 O 1157.49 1.94125 0.0538415 0
M  V30 12043 C 1154.62 3.45823 -0.320005 0
M  V30 12044 C 1153.58 4.07824 -1.2986 0
M  V30 12045 C 1152.9 5.30965 -0.630925 0
M  V30 12046 C 1154.2 4.49512 -2.65963 0
M  V30 12047 H 1155.9 2.42404 -1.75729 0
M  V30 12048 H 1153.44 1.16502 -0.846356 0
M  V30 12049 H 1155.4 4.21276 -0.102271 0
M  V30 12050 H 1154.12 3.20553 0.625561 0
M  V30 12051 H 1152.78 3.34398 -1.50245 0
M  V30 12052 H 1152.43 5.01979 0.320337 0
M  V30 12053 H 1152.13 5.73402 -1.28388 0
M  V30 12054 H 1153.65 6.09136 -0.422635 0
M  V30 12055 H 1155.06 5.16159 -2.49506 0
M  V30 12056 H 1153.46 5.02857 -3.27498 0
M  V30 12057 H 1154.53 3.6157 -3.23102 0
M  V30 12058 N 1155.87 0.935264 1.26849 0
M  V30 12059 C 1157.29 0.636661 1.46352 0
M  V30 12060 C 1157.49 -0.811823 1.84423 0
M  V30 12061 O 1156.55 -1.58902 1.9623 0
M  V30 12062 C 1157.86 1.59301 2.55036 0
M  V30 12063 C 1159.41 1.60207 2.68892 0
M  V30 12064 C 1159.88 2.54558 3.80742 0
M  V30 12065 N 1161.37 2.52809 3.88126 0
M  V30 12066 C 1162.11 3.225 4.74111 0
M  V30 12067 N 1161.6 4.01598 5.64527 0
M  V30 12068 N 1163.4 3.11481 4.67906 0
M  V30 12069 H 1155.55 1.8716 1.00423 0
M  V30 12070 H 1157.81 0.803968 0.502334 0
M  V30 12071 H 1157.52 2.62671 2.33874 0
M  V30 12072 H 1157.39 1.34052 3.52576 0
M  V30 12073 H 1159.78 0.575649 2.89431 0
M  V30 12074 H 1159.86 1.89508 1.71815 0
M  V30 12075 H 1159.5 3.57314 3.60956 0
M  V30 12076 H 1159.43 2.22549 4.77263 0
M  V30 12077 H 1161.92 1.9537 3.2348 0
M  V30 12078 H 1162.24 4.51742 6.27016 0
M  V30 12079 H 1160.58 4.057 5.64298 0
M  V30 12080 H 1163.77 2.49175 3.9627 0
M  V30 12081 H 1163.95 3.66064 5.34697 0
M  V30 12082 N 1157.35 -1.41121 0.701616 0
M  V30 12083 C 1158.29 -2.28198 -0.010533 0
M  V30 12084 C 1159.26 -1.42569 -0.78185 0
M  V30 12085 O 1160.45 -1.71993 -0.771408 0
M  V30 12086 C 1157.57 -3.22903 -1.02231 0
M  V30 12087 C 1156.62 -4.25115 -0.343454 0
M  V30 12088 S 1157.45 -5.27563 0.918553 0
M  V30 12089 C 1158.61 -6.25833 -0.0914763 0
M  V30 12090 H 1158.84 -2.88249 0.727995 0
M  V30 12091 H 1156.38 -1.46348 0.492112 0
M  V30 12092 H 1158.33 -3.77997 -1.60089 0
M  V30 12093 H 1156.99 -2.61936 -1.73345 0
M  V30 12094 H 1156.19 -4.91674 -1.10782 0
M  V30 12095 H 1155.79 -3.73648 0.162206 0
M  V30 12096 H 1158.08 -6.70908 -0.942826 0
M  V30 12097 H 1159.02 -7.06035 0.540351 0
M  V30 12098 H 1159.43 -5.62712 -0.448956 0
M  V30 12099 N 1158.83 -0.446794 -1.51134 0
M  V30 12100 C 1159.74 0.36579 -2.31731 0
M  V30 12101 C 1160.76 1.01886 -1.41051 0
M  V30 12102 O 1161.93 1.01216 -1.74119 0
M  V30 12103 C 1159 1.44705 -3.15058 0
M  V30 12104 C 1158.06 0.813129 -4.21529 0
M  V30 12105 C 1157.29 1.84287 -5.00873 0
M  V30 12106 O 1157.51 3.06633 -4.8097 0
M  V30 12107 O 1156.45 1.42816 -5.84711 0
M  V30 12108 H 1160.27 -0.292436 -3.02289 0
M  V30 12109 H 1157.86 -0.209129 -1.47929 0
M  V30 12110 H 1159.74 2.07393 -3.66833 0
M  V30 12111 H 1158.42 2.08919 -2.47254 0
M  V30 12112 H 1157.32 0.147953 -3.73807 0
M  V30 12113 H 1158.66 0.214331 -4.91733 0
M  V30 12114 N 1160.31 1.56586 -0.178487 0
M  V30 12115 C 1161.24 2.21313 0.744486 0
M  V30 12116 C 1162.22 1.17098 1.23377 0
M  V30 12117 O 1163.4 1.45551 1.28563 0
M  V30 12118 C 1160.53 2.8595 1.97103 0
M  V30 12119 C 1159.49 3.96266 1.61732 0
M  V30 12120 C 1158.81 4.47987 2.91911 0
M  V30 12121 C 1160.11 5.15503 0.839868 0
M  V30 12122 H 1161.81 2.98698 0.204938 0
M  V30 12123 H 1159.35 1.43672 0.0971306 0
M  V30 12124 H 1161.31 3.29909 2.6218 0
M  V30 12125 H 1160.03 2.05946 2.53484 0
M  V30 12126 H 1158.69 3.52974 0.990208 0
M  V30 12127 H 1158.34 3.64765 3.46346 0
M  V30 12128 H 1158.04 5.22413 2.68995 0
M  V30 12129 H 1159.56 4.94637 3.58004 0
M  V30 12130 H 1160.98 5.5611 1.39337 0
M  V30 12131 H 1159.37 5.95891 0.709473 0
M  V30 12132 H 1160.44 4.84628 -0.162396 0
M  V30 12133 N 1161.79 -0.095206 1.57312 0
M  V30 12134 C 1162.7 -1.13388 2.05379 0
M  V30 12135 C 1163.71 -1.43868 0.978668 0
M  V30 12136 O 1164.89 -1.54512 1.29182 0
M  V30 12137 C 1161.95 -2.43444 2.46852 0
M  V30 12138 C 1161.01 -2.20146 3.68557 0
M  V30 12139 C 1160.25 -3.44001 4.08043 0
M  V30 12140 O 1160.47 -4.52233 3.47623 0
M  V30 12141 O 1159.4 -3.33596 5.00997 0
M  V30 12142 H 1163.23 -0.755622 2.9415 0
M  V30 12143 H 1160.82 -0.307707 1.46197 0
M  V30 12144 H 1162.7 -3.20027 2.74155 0
M  V30 12145 H 1161.37 -2.80696 1.61219 0
M  V30 12146 H 1160.28 -1.41345 3.46371 0
M  V30 12147 H 1161.61 -1.87787 4.54969 0
M  V30 12148 N 1163.26 -1.53291 -0.366026 0
M  V30 12149 C 1164.21 -1.80367 -1.4687 0
M  V30 12150 C 1165.21 -0.672767 -1.55468 0
M  V30 12151 O 1166.41 -0.8557 -1.5836 0
M  V30 12152 H 1162.79 -0.571076 -0.48926 0
M  V30 12153 H 1164.76 -2.72661 -1.21237 0
M  V30 12154 C 1163.51 -2.01008 -2.8371 0
M  V30 12155 H 1162.83 -2.87468 -2.77853 0
M  V30 12156 H 1164.27 -2.2393 -3.60043 0
M  V30 12157 C 1162.73 -0.789054 -3.27529 0
M  V30 12158 O 1163.26 0.0224712 -4.01694 0
M  V30 12159 N 1161.47 -0.612621 -2.84069 0
M  V30 12160 H 1161.01 -1.27416 -2.23881 0
M  V30 12161 H 1160.97 0.202943 -3.13744 0
M  V30 12162 N 1164.74 0.6258 -1.44643 0
M  V30 12163 C 1165.99 1.38125 -1.46984 0
M  V30 12164 C 1166.3 1.95299 -0.108429 0
M  V30 12165 O 1167.51 2.71498 -0.00940005 0
M  V30 12166 C 1165.97 2.50108 -2.58793 0
M  V30 12167 C 1165.57 1.99424 -4.01166 0
M  V30 12168 C 1167.32 3.27269 -2.70361 0
M  V30 12169 C 1165.23 3.08781 -5.04389 0
M  V30 12170 H 1164.16 0.519083 -0.546872 0
M  V30 12171 H 1166.81 0.67268 -1.70726 0
M  V30 12172 H 1165.19 3.23565 -2.28302 0
M  V30 12173 H 1166.36 1.32797 -4.4125 0
M  V30 12174 H 1164.68 1.35063 -3.93887 0
M  V30 12175 H 1167.27 4.08802 -3.44652 0
M  V30 12176 H 1167.62 3.77097 -1.76362 0
M  V30 12177 H 1168.15 2.60905 -3.00289 0
M  V30 12178 H 1164.89 2.63891 -6.00035 0
M  V30 12179 H 1164.41 3.74033 -4.68892 0
M  V30 12180 H 1166.09 3.73469 -5.28328 0
M  V30 12181 N 1166.22 1.31629 0.866686 0
M  V30 12182 C 1167.15 1.22151 1.99001 0
M  V30 12183 C 1168.13 0.107972 1.69757 0
M  V30 12184 O 1169.32 0.293125 1.91975 0
M  V30 12185 C 1166.45 0.93144 3.34577 0
M  V30 12186 C 1165.4 2.0049 3.78137 0
M  V30 12187 C 1164.73 1.56747 5.11209 0
M  V30 12188 C 1166.03 3.41844 3.94892 0
M  V30 12189 H 1167.72 2.16132 2.0719 0
M  V30 12190 H 1165.27 1.04051 0.995463 0
M  V30 12191 H 1167.22 0.851719 4.12703 0
M  V30 12192 H 1165.94 -0.0440289 3.2657 0
M  V30 12193 H 1164.6 2.07457 3.02253 0
M  V30 12194 H 1164.25 0.579767 4.99648 0
M  V30 12195 H 1163.95 2.28562 5.41326 0
M  V30 12196 H 1165.47 1.50188 5.91841 0
M  V30 12197 H 1166.89 3.37534 4.63405 0
M  V30 12198 H 1165.29 4.11905 4.36411 0
M  V30 12199 H 1166.36 3.82389 2.98172 0
M  V30 12200 N 1167.7 -1.08142 1.14644 0
M  V30 12201 C 1168.95 -1.80225 0.914517 0
M  V30 12202 C 1169.27 -1.86778 -0.560269 0
M  V30 12203 O 1168.54 -1.36284 -1.40724 0
M  V30 12204 H 1167.12 -0.667492 0.335356 0
M  V30 12205 H 1169.78 -1.30729 1.44554 0
M  V30 12206 H 1168.88 -2.82958 1.31685 0
M  V30 12207 N 1169.18 -0.941978 -1.26351 0
M  V30 12208 C 1170.11 -0.409504 -2.25512 0
M  V30 12209 C 1171.12 0.467665 -1.55938 0
M  V30 12210 O 1172.31 0.277982 -1.76322 0
M  V30 12211 C 1169.41 0.430487 -3.36155 0
M  V30 12212 C 1168.58 -0.430714 -4.35274 0
M  V30 12213 C 1167.64 0.348976 -5.25042 0
M  V30 12214 O 1166.67 -0.24827 -5.68658 0
M  V30 12215 N 1167.87 1.64531 -5.56695 0
M  V30 12216 H 1170.64 -1.26196 -2.71836 0
M  V30 12217 H 1168.2 -0.810947 -1.40126 0
M  V30 12218 H 1170.19 0.959501 -3.93161 0
M  V30 12219 H 1168.76 1.18375 -2.8932 0
M  V30 12220 H 1167.98 -1.14093 -3.77328 0
M  V30 12221 H 1169.27 -1.01896 -4.98492 0
M  V30 12222 H 1168.67 2.15266 -5.23142 0
M  V30 12223 H 1167.22 2.12055 -6.16341 0
M  V30 12224 N 1170.66 1.40747 -0.709091 0
M  V30 12225 C 1171.59 2.33404 -0.0669763 0
M  V30 12226 C 1172.57 1.52546 0.752582 0
M  V30 12227 O 1173.75 1.81036 0.702823 0
M  V30 12228 C 1170.88 3.36476 0.860285 0
M  V30 12229 C 1169.84 4.27748 0.146828 0
M  V30 12230 C 1169.16 5.21304 1.18937 0
M  V30 12231 C 1170.46 5.12734 -0.995064 0
M  V30 12232 H 1172.16 2.87349 -0.840888 0
M  V30 12233 H 1169.7 1.38163 -0.405817 0
M  V30 12234 H 1171.65 4.00231 1.31883 0
M  V30 12235 H 1170.38 2.80912 1.66602 0
M  V30 12236 H 1169.04 3.65437 -0.291826 0
M  V30 12237 H 1168.69 4.62048 1.98798 0
M  V30 12238 H 1168.39 5.8321 0.716917 0
M  V30 12239 H 1169.91 5.87936 1.64815 0
M  V30 12240 H 1171.32 5.69979 -0.61618 0
M  V30 12241 H 1169.72 5.83649 -1.39547 0
M  V30 12242 H 1170.79 4.49097 -1.82867 0
M  V30 12243 N 1172.13 0.454803 1.50895 0
M  V30 12244 C 1173.36 -0.106259 2.07128 0
M  V30 12245 C 1173.78 -1.3418 1.31823 0
M  V30 12246 O 1173.14 -1.77667 0.361147 0
M  V30 12247 C 1173.19 -0.389609 3.58489 0
M  V30 12248 O 1172.29 -1.47305 3.85195 0
M  V30 12249 H 1171.63 0.00580588 0.663975 0
M  V30 12250 H 1174.16 0.641163 1.94294 0
M  V30 12251 H 1174.17 -0.634934 4.03029 0
M  V30 12252 H 1172.85 0.513338 4.1272 0
M  V30 12253 H 1171.43 -1.21631 3.52506 0
M  V30 12254 N 1173.61 -1.56489 0.186789 0
M  V30 12255 C 1174.86 -1.97634 -0.454831 0
M  V30 12256 C 1175.19 -1.07334 -1.61843 0
M  V30 12257 O 1174.47 -0.123612 -1.94107 0
M  V30 12258 C 1174.75 -3.48071 -0.922962 0
M  V30 12259 C 1174.6 -4.49149 0.241877 0
M  V30 12260 C 1175.92 -4.01994 -1.79134 0
M  V30 12261 H 1173.04 -0.718555 -0.163854 0
M  V30 12262 H 1175.68 -1.87984 0.27604 0
M  V30 12263 H 1173.83 -3.56425 -1.54575 0
M  V30 12264 H 1175.5 -4.52841 0.87936 0
M  V30 12265 H 1173.75 -4.24468 0.894964 0
M  V30 12266 H 1174.42 -5.51851 -0.128051 0
M  V30 12267 H 1176.89 -3.96367 -1.26618 0
M  V30 12268 H 1175.77 -5.07641 -2.08787 0
M  V30 12269 H 1176.03 -3.46747 -2.74261 0
M  V30 12270 N 1175.09 0.086862 -1.5736 0
M  V30 12271 C 1176.02 1.10538 -2.05678 0
M  V30 12272 C 1177 1.41281 -0.947293 0
M  V30 12273 O 1178.19 1.51169 -1.21908 0
M  V30 12274 C 1175.32 2.42302 -2.48812 0
M  V30 12275 C 1174.27 2.25948 -3.63499 0
M  V30 12276 C 1173.6 3.62961 -3.92637 0
M  V30 12277 C 1174.9 1.69319 -4.94094 0
M  V30 12278 H 1176.59 0.703371 -2.91021 0
M  V30 12279 H 1174.14 0.336895 -1.40004 0
M  V30 12280 H 1176.09 3.13833 -2.81224 0
M  V30 12281 H 1174.81 2.84454 -1.60479 0
M  V30 12282 H 1173.47 1.5686 -3.31347 0
M  V30 12283 H 1173.12 4.02656 -3.01459 0
M  V30 12284 H 1172.82 3.52862 -4.69853 0
M  V30 12285 H 1174.34 4.35946 -4.27531 0
M  V30 12286 H 1175.76 2.30699 -5.24834 0
M  V30 12287 H 1174.15 1.69957 -5.7553 0
M  V30 12288 H 1175.22 0.653318 -4.80479 0
M  V30 12289 N 1176.57 1.53483 0.357892 0
M  V30 12290 C 1177.79 1.74264 1.12458 0
M  V30 12291 C 1178.22 0.473944 1.82031 0
M  V30 12292 O 1177.58 -0.57253 1.72023 0
M  V30 12293 C 1177.62 2.91356 2.12471 0
M  V30 12294 O 1176.73 2.60502 3.19707 0
M  V30 12295 H 1176.07 0.578499 0.325937 0
M  V30 12296 H 1178.6 2.00395 0.412666 0
M  V30 12297 H 1178.61 3.1774 2.5594 0
M  V30 12298 H 1177.28 3.83378 1.61226 0
M  V30 12299 H 1175.86 2.44961 2.81156 0
M  V30 12300 N 1178.05 -0.61812 1.44973 0
M  V30 12301 C 1179.01 -1.71135 1.52465 0
M  V30 12302 C 1180.01 -1.5561 0.405246 0
M  V30 12303 O 1181.2 -1.60869 0.668351 0
M  V30 12304 C 1178.33 -3.10324 1.41108 0
M  V30 12305 H 1179.52 -1.65862 2.49859 0
M  V30 12306 H 1177.08 -0.832932 1.32257 0
M  V30 12307 H 1177.81 -3.21183 0.448574 0
M  V30 12308 H 1177.6 -3.23001 2.2229 0
M  V30 12309 H 1179.09 -3.89976 1.49361 0
M  V30 12310 N 1179.52 -1.32087 -0.859693 0
M  V30 12311 C 1180.75 -1.25486 -1.6513 0
M  V30 12312 C 1181.17 0.175015 -1.87284 0
M  V30 12313 O 1180.53 1.12468 -1.42199 0
M  V30 12314 C 1180.58 -2.01469 -2.9907 0
M  V30 12315 O 1179.68 -1.35904 -3.89363 0
M  V30 12316 H 1179.02 -0.432728 -0.503629 0
M  V30 12317 H 1181.55 -1.74322 -1.07112 0
M  V30 12318 H 1181.56 -2.11452 -3.4893 0
M  V30 12319 H 1180.24 -3.05448 -2.82266 0
M  V30 12320 H 1178.82 -1.34437 -3.47823 0
M  V30 12321 N 1181 1.07532 -1.15215 0
M  V30 12322 C 1181.93 2.14598 -0.805006 0
M  V30 12323 C 1182.95 1.61778 0.182152 0
M  V30 12324 O 1184.14 1.78453 -0.040834 0
M  V30 12325 C 1181.24 3.38444 -0.175736 0
M  V30 12326 C 1180.41 4.20621 -1.19986 0
M  V30 12327 C 1179.47 5.22851 -0.592705 0
M  V30 12328 O 1178.49 5.55121 -1.25815 0
M  V30 12329 N 1179.7 5.7711 0.626425 0
M  V30 12330 H 1182.46 2.44981 -1.7264 0
M  V30 12331 H 1180.02 1.23423 -1.04778 0
M  V30 12332 H 1182.01 4.03969 0.243166 0
M  V30 12333 H 1180.58 3.0579 0.64896 0
M  V30 12334 H 1179.8 3.50941 -1.79539 0
M  V30 12335 H 1181.09 4.72339 -1.89139 0
M  V30 12336 H 1180.49 5.53139 1.18546 0
M  V30 12337 H 1179.05 6.44273 0.98771 0
M  V30 12338 N 1182.48 0.948665 1.2585 0
M  V30 12339 C 1183.76 0.517832 1.88621 0
M  V30 12340 C 1184.14 -1.00477 1.85654 0
M  V30 12341 O 1183.49 -1.868 1.31598 0
M  V30 12342 C 1183.7 1.08768 3.31618 0
M  V30 12343 C 1185.04 1.16089 4.08422 0
M  V30 12344 O 1186.07 1.0388 3.40716 0
M  V30 12345 O 1184.93 1.35172 5.29519 0
M  V30 12346 H 1182.02 0.169916 0.809356 0
M  V30 12347 H 1184.57 1.04171 1.33964 0
M  V30 12348 H 1183.34 2.13109 3.28177 0
M  V30 12349 H 1182.96 0.54669 3.93824 0
M  V30 12350 N 1183.96 -1.40369 0.716545 0
M  V30 12351 C 1185.37 -1.83783 0.328719 0
M  V30 12352 C 1185.72 -1.5991 -1.13681 0
M  V30 12353 O 1184.85 -1.08048 -1.87496 0
M  V30 12354 C 1185.44 -3.33626 0.589848 0
M  V30 12355 C 1184 -3.7553 0.25572 0
M  V30 12356 C 1183.15 -2.63571 0.861733 0
M  V30 12357 H 1186.1 -1.29623 0.915621 0
M  V30 12358 H 1186.12 -3.80225 -0.14459 0
M  V30 12359 H 1185.63 -3.5097 1.65655 0
M  V30 12360 H 1183.73 -3.63781 -0.805883 0
M  V30 12361 H 1183.84 -4.73577 0.725388 0
M  V30 12362 H 1182.21 -2.53047 0.289706 0
M  V30 12363 H 1182.99 -2.83727 1.93272 0
M  V30 12364 N 1185.44 -0.462799 -1.50652 0
M  V30 12365 C 1186.37 0.325724 -2.31217 0
M  V30 12366 C 1187.35 0.997942 -1.3775 0
M  V30 12367 O 1188.53 0.996707 -1.66671 0
M  V30 12368 C 1185.66 1.41283 -3.17264 0
M  V30 12369 C 1184.62 0.862687 -4.19216 0
M  V30 12370 C 1183.94 2.04746 -4.93946 0
M  V30 12371 C 1185.24 -0.120365 -5.22161 0
M  V30 12372 H 1186.94 -0.346666 -2.97386 0
M  V30 12373 H 1184.48 -0.168163 -1.43015 0
M  V30 12374 H 1186.44 1.97188 -3.72418 0
M  V30 12375 H 1185.16 2.11387 -2.48964 0
M  V30 12376 H 1183.82 0.325671 -3.65151 0
M  V30 12377 H 1183.47 2.73529 -4.22127 0
M  V30 12378 H 1183.17 1.68562 -5.62904 0
M  V30 12379 H 1184.69 2.61157 -5.51932 0
M  V30 12380 H 1186.1 0.349226 -5.72235 0
M  V30 12381 H 1184.5 -0.396061 -5.98792 0
M  V30 12382 H 1185.57 -1.04895 -4.73418 0
M  V30 12383 N 1186.91 1.56388 -0.195085 0
M  V30 12384 C 1188.14 2.0167 0.448637 0
M  V30 12385 C 1188.55 1.07439 1.55736 0
M  V30 12386 O 1187.9 0.071441 1.83561 0
M  V30 12387 C 1187.96 3.43348 1.06547 0
M  V30 12388 C 1187.62 4.569 0.0954901 0
M  V30 12389 C 1188.62 5.15232 -0.695116 0
M  V30 12390 C 1186.3 5.02298 -0.0155889 0
M  V30 12391 C 1188.3 6.1741 -1.58377 0
M  V30 12392 C 1185.98 6.0432 -0.907799 0
M  V30 12393 C 1186.98 6.6175 -1.69045 0
M  V30 12394 O 1186.67 7.6179 -2.56771 0
M  V30 12395 H 1186.4 0.665805 0.116962 0
M  V30 12396 H 1188.96 2.03182 -0.301062 0
M  V30 12397 H 1187.19 3.38823 1.86376 0
M  V30 12398 H 1188.88 3.72438 1.61385 0
M  V30 12399 H 1189.64 4.81026 -0.619604 0
M  V30 12400 H 1185.52 4.57293 0.583424 0
M  V30 12401 H 1189.06 6.62164 -2.1951 0
M  V30 12402 H 1184.96 6.37949 -0.984427 0
M  V30 12403 H 1185.73 7.79209 -2.50551 0
M  V30 12404 N 1188.39 -0.0785156 1.57404 0
M  V30 12405 C 1189.64 -0.777722 1.86103 0
M  V30 12406 C 1189.95 -1.79079 0.786771 0
M  V30 12407 O 1191.16 -2.53908 0.961393 0
M  V30 12408 C 1189.62 -1.43407 3.30095 0
M  V30 12409 C 1189.22 -0.459912 4.45633 0
M  V30 12410 C 1190.97 -2.11603 3.68 0
M  V30 12411 C 1188.88 -1.12179 5.80663 0
M  V30 12412 H 1187.81 -0.294205 0.694233 0
M  V30 12413 H 1190.46 -0.0309003 1.83474 0
M  V30 12414 H 1188.84 -2.22892 3.27315 0
M  V30 12415 H 1190.01 0.304642 4.59792 0
M  V30 12416 H 1188.33 0.117242 4.16235 0
M  V30 12417 H 1190.92 -2.61887 4.66175 0
M  V30 12418 H 1191.27 -2.91244 2.9746 0
M  V30 12419 H 1191.8 -1.38958 3.72741 0
M  V30 12420 H 1188.54 -0.365842 6.54478 0
M  V30 12421 H 1188.06 -1.85737 5.70317 0
M  V30 12422 H 1189.74 -1.64355 6.25777 0
M  V30 12423 N 1189.87 -1.5367 -0.349747 0
M  V30 12424 C 1190.82 -1.81914 -1.44948 0
M  V30 12425 C 1191.81 -0.689218 -1.54745 0
M  V30 12426 O 1193.02 -0.872448 -1.57443 0
M  V30 12427 H 1189.39 -0.576234 -0.483176 0
M  V30 12428 H 1191.36 -2.73932 -1.18338 0
M  V30 12429 C 1190.11 -2.04005 -2.81562 0
M  V30 12430 H 1189.44 -2.90399 -2.74788 0
M  V30 12431 H 1190.88 -2.27737 -3.57648 0
M  V30 12432 C 1189.34 -0.823748 -3.26674 0
M  V30 12433 O 1189.87 -0.0201351 -4.01695 0
M  V30 12434 N 1188.07 -0.642716 -2.83403 0
M  V30 12435 H 1187.62 -1.29783 -2.22517 0
M  V30 12436 H 1187.58 0.169654 -3.13942 0
M  V30 12437 N 1191.35 0.610423 -1.45298 0
M  V30 12438 C 1192.6 1.36558 -1.48441 0
M  V30 12439 C 1192.91 1.95173 -0.129137 0
M  V30 12440 O 1194.12 2.71473 -0.0381956 0
M  V30 12441 C 1192.57 2.47349 -2.61431 0
M  V30 12442 C 1192.18 1.95158 -4.03258 0
M  V30 12443 C 1193.92 3.24383 -2.73817 0
M  V30 12444 C 1191.83 3.03414 -5.07635 0
M  V30 12445 H 1190.76 0.513253 -0.552347 0
M  V30 12446 H 1193.41 0.654535 -1.7143 0
M  V30 12447 H 1191.79 3.21125 -2.31721 0
M  V30 12448 H 1192.97 1.2811 -4.42634 0
M  V30 12449 H 1191.28 1.30878 -3.95297 0
M  V30 12450 H 1193.88 4.05123 -3.48969 0
M  V30 12451 H 1194.22 3.75205 -1.80352 0
M  V30 12452 H 1194.76 2.57705 -3.03039 0
M  V30 12453 H 1191.5 2.57512 -6.028 0
M  V30 12454 H 1191.02 3.69039 -4.72833 0
M  V30 12455 H 1192.69 3.67844 -5.32259 0
M  V30 12456 N 1192.83 1.32541 0.852676 0
M  V30 12457 C 1193.74 1.23646 1.99371 0
M  V30 12458 C 1194.75 0.149673 1.73355 0
M  V30 12459 O 1195.93 0.370716 1.97959 0
M  V30 12460 C 1192.99 0.961873 3.3309 0
M  V30 12461 C 1192.05 2.1373 3.72315 0
M  V30 12462 C 1191.29 1.87572 4.99652 0
M  V30 12463 O 1191.51 0.819247 5.64486 0
M  V30 12464 O 1190.44 2.73732 5.36054 0
M  V30 12465 H 1194.27 2.19573 2.09813 0
M  V30 12466 H 1191.86 1.12451 0.983627 0
M  V30 12467 H 1193.74 0.825316 4.13239 0
M  V30 12468 H 1192.41 0.0327745 3.23683 0
M  V30 12469 H 1191.32 2.32933 2.92733 0
M  V30 12470 H 1192.65 3.04925 3.86369 0
M  V30 12471 N 1194.3 -1.0692 1.15784 0
M  V30 12472 C 1195.72 -1.31707 0.901408 0
M  V30 12473 C 1195.92 -1.96429 -0.449203 0
M  V30 12474 O 1194.98 -2.22692 -1.19015 0
M  V30 12475 C 1196.29 -2.20391 2.04568 0
M  V30 12476 C 1197.84 -2.33827 2.08072 0
M  V30 12477 C 1198.31 -3.25862 3.21835 0
M  V30 12478 N 1199.8 -3.33444 3.21511 0
M  V30 12479 C 1200.54 -4.04731 4.06177 0
M  V30 12480 N 1200.03 -4.78596 5.00917 0
M  V30 12481 N 1201.83 -4.00717 3.94185 0
M  V30 12482 H 1193.98 -0.632989 2.02749 0
M  V30 12483 H 1196.24 -0.341587 0.88432 0
M  V30 12484 H 1195.95 -1.80102 3.02087 0
M  V30 12485 H 1195.82 -3.20943 1.9818 0
M  V30 12486 H 1198.21 -2.73367 1.11151 0
M  V30 12487 H 1198.29 -1.32964 2.18527 0
M  V30 12488 H 1197.93 -2.8704 4.19012 0
M  V30 12489 H 1197.86 -4.26689 3.08617 0
M  V30 12490 H 1200.35 -2.80798 2.52905 0
M  V30 12491 H 1200.67 -5.30499 5.61952 0
M  V30 12492 H 1199.01 -4.77598 5.04902 0
M  V30 12493 H 1202.2 -3.42126 3.1948 0
M  V30 12494 H 1202.38 -4.56008 4.60392 0
M  V30 12495 N 1195.78 -0.955326 -1.25345 0
M  V30 12496 C 1196.75 -0.480564 -2.24105 0
M  V30 12497 C 1197.75 0.416123 -1.55322 0
M  V30 12498 O 1198.94 0.213315 -1.72889 0
M  V30 12499 C 1196.07 0.305589 -3.39528 0
M  V30 12500 H 1197.26 -1.35349 -2.6762 0
M  V30 12501 H 1194.81 -0.738673 -1.37744 0
M  V30 12502 H 1195.55 1.19615 -3.01434 0
M  V30 12503 H 1195.33 -0.337719 -3.90643 0
M  V30 12504 H 1196.82 0.627201 -4.12863 0
M  V30 12505 N 1197.26 1.39987 -0.723979 0
M  V30 12506 C 1198.17 2.3447 -0.0780936 0
M  V30 12507 C 1199.19 1.57744 0.734368 0
M  V30 12508 O 1200.36 1.90091 0.665385 0
M  V30 12509 C 1197.43 3.36705 0.826492 0
M  V30 12510 C 1196.49 4.293 0.00303036 0
M  V30 12511 C 1195.72 5.26651 0.864535 0
M  V30 12512 O 1195.95 5.30194 2.10357 0
M  V30 12513 O 1194.88 6.01157 0.299057 0
M  V30 12514 H 1198.71 2.91338 -0.857646 0
M  V30 12515 H 1196.29 1.41324 -0.484536 0
M  V30 12516 H 1198.17 3.9938 1.34439 0
M  V30 12517 H 1196.85 2.82237 1.58505 0
M  V30 12518 H 1195.75 3.69883 -0.560136 0
M  V30 12519 H 1197.09 4.86942 -0.717494 0
M  V30 12520 N 1198.74 0.470782 1.50404 0
M  V30 12521 C 1199.65 -0.328877 2.32283 0
M  V30 12522 C 1200.67 -0.99629 1.42654 0
M  V30 12523 O 1201.84 -0.984331 1.75707 0
M  V30 12524 C 1198.91 -1.39675 3.1732 0
M  V30 12525 C 1197.97 -0.745965 4.22769 0
M  V30 12526 C 1197.2 -1.76295 5.03742 0
M  V30 12527 O 1197.42 -2.98943 4.85788 0
M  V30 12528 O 1196.36 -1.33495 5.86909 0
M  V30 12529 H 1200.18 0.340491 3.01785 0
M  V30 12530 H 1197.77 0.232637 1.47578 0
M  V30 12531 H 1199.65 -2.0153 3.70086 0
M  V30 12532 H 1198.33 -2.04959 2.50546 0
M  V30 12533 H 1197.23 -0.0884647 3.73995 0
M  V30 12534 H 1198.57 -0.136074 4.92012 0
M  V30 12535 N 1200.22 -1.56282 0.203376 0
M  V30 12536 C 1201.63 -1.84146 -0.307752 0
M  V30 12537 C 1201.98 -1.12429 -1.60792 0
M  V30 12538 O 1201.1 -0.387852 -2.12896 0
M  V30 12539 C 1201.7 -3.34053 -0.565152 0
M  V30 12540 C 1200.26 -3.62298 -1.02063 0
M  V30 12541 C 1199.41 -2.77202 -0.0737343 0
M  V30 12542 H 1202.36 -1.52848 0.426983 0
M  V30 12543 H 1202.38 -3.53273 -1.41345 0
M  V30 12544 H 1201.89 -3.86222 0.381301 0
M  V30 12545 H 1199.99 -3.1557 -1.98107 0
M  V30 12546 H 1200.1 -4.70424 -0.907614 0
M  V30 12547 H 1198.47 -2.48074 -0.577169 0
M  V30 12548 H 1199.25 -3.32164 0.86731 0
M  V30 12549 N 1201.7 0.070167 -1.57444 0
M  V30 12550 C 1202.92 0.781894 -1.91557 0
M  V30 12551 C 1203.34 1.71037 -0.799489 0
M  V30 12552 O 1202.7 1.81082 0.227062 0
M  V30 12553 C 1202.75 1.57415 -3.25427 0
M  V30 12554 O 1202.47 0.682991 -4.32743 0
M  V30 12555 C 1203.97 2.38673 -3.73564 0
M  V30 12556 H 1201.19 0.222211 -0.633138 0
M  V30 12557 H 1203.73 0.0399504 -2.04461 0
M  V30 12558 H 1201.89 2.26835 -3.14045 0
M  V30 12559 H 1202.3 1.2342 -5.09772 0
M  V30 12560 H 1203.78 2.89716 -4.6986 0
M  V30 12561 H 1204.25 3.18269 -3.02657 0
M  V30 12562 H 1204.86 1.74405 -3.87896 0
M  V30 12563 N 1203.17 1.53854 0.341593 0
M  V30 12564 C 1204.14 1.8128 1.40251 0
M  V30 12565 C 1205.14 0.683915 1.45531 0
M  V30 12566 O 1206.33 0.952202 1.45872 0
M  V30 12567 C 1203.46 1.95658 2.79161 0
M  V30 12568 H 1204.65 2.76053 1.17195 0
M  V30 12569 H 1202.2 1.45296 0.57609 0
M  V30 12570 H 1202.94 1.03034 3.07497 0
M  V30 12571 H 1202.72 2.77788 2.76724 0
M  V30 12572 H 1204.21 2.18387 3.55945 0
M  V30 12573 N 1204.65 -0.602709 1.4562 0
M  V30 12574 C 1205.9 -1.35889 1.49595 0
M  V30 12575 C 1206.22 -1.9449 0.141002 0
M  V30 12576 O 1205.49 -1.77438 -0.830209 0
M  V30 12577 H 1204.07 -0.504478 0.550918 0
M  V30 12578 H 1206.73 -0.707376 1.8161 0
M  V30 12579 H 1205.83 -2.17583 2.2375 0
M  V30 12580 N 1206.13 -1.32992 -0.845635 0
M  V30 12581 C 1207.38 -1.2382 -1.59728 0
M  V30 12582 C 1207.7 0.197724 -1.93995 0
M  V30 12583 O 1206.97 1.12477 -1.60392 0
M  V30 12584 H 1205.55 -0.455296 -0.592212 0
M  V30 12585 H 1208.21 -1.66627 -1.01101 0
M  V30 12586 H 1207.31 -1.82717 -2.53023 0
M  V30 12587 N 1207.61 1.06304 -1.1635 0
M  V30 12588 C 1208.83 1.83338 -0.969639 0
M  V30 12589 C 1209.26 1.81945 0.477231 0
M  V30 12590 O 1208.62 1.22018 1.34094 0
M  V30 12591 C 1208.66 3.2785 -1.50155 0
M  V30 12592 O 1207.77 4.06281 -0.707805 0
M  V30 12593 H 1207.11 0.567293 -0.345072 0
M  V30 12594 H 1209.64 1.34033 -1.54584 0
M  V30 12595 H 1209.65 3.7867 -1.51898 0
M  V30 12596 H 1208.32 3.28179 -2.55483 0
M  V30 12597 H 1206.9 3.65055 -0.760872 0
M  V30 12598 N 1209.09 0.96196 1.24836 0
M  V30 12599 C 1210.02 0.506241 2.27946 0
M  V30 12600 C 1211 -0.451183 1.64007 0
M  V30 12601 O 1212.18 -0.348552 1.91046 0
M  V30 12602 C 1209.31 -0.209846 3.46665 0
M  V30 12603 C 1208.27 0.663035 4.22833 0
M  V30 12604 C 1207.59 -0.184216 5.34383 0
M  V30 12605 C 1208.89 1.94479 4.84742 0
M  V30 12606 H 1210.59 1.36805 2.66317 0
M  V30 12607 H 1208.13 0.65926 1.28023 0
M  V30 12608 H 1210.08 -0.539838 4.17928 0
M  V30 12609 H 1208.81 -1.10596 3.07305 0
M  V30 12610 H 1207.47 0.976216 3.53363 0
M  V30 12611 H 1207.12 -1.08031 4.91262 0
M  V30 12612 H 1206.82 0.39657 5.8626 0
M  V30 12613 H 1208.34 -0.509009 6.08475 0
M  V30 12614 H 1209.75 1.68074 5.48109 0
M  V30 12615 H 1208.15 2.47183 5.46828 0
M  V30 12616 H 1209.22 2.64332 4.06517 0
M  V30 12617 N 1210.56 -1.39601 0.731392 0
M  V30 12618 C 1211.47 -2.34425 0.090527 0
M  V30 12619 C 1212.49 -1.58131 -0.725992 0
M  V30 12620 O 1213.67 -1.90441 -0.655294 0
M  V30 12621 C 1210.73 -3.37138 -0.808624 0
M  V30 12622 C 1209.79 -4.29295 0.0197365 0
M  V30 12623 C 1209.02 -5.27102 -0.836593 0
M  V30 12624 O 1209.25 -5.31302 -2.07543 0
M  V30 12625 O 1208.18 -6.01307 -0.267172 0
M  V30 12626 H 1212.01 -2.9088 0.873084 0
M  V30 12627 H 1209.59 -1.41066 0.492024 0
M  V30 12628 H 1211.47 -4.00087 -1.32319 0
M  V30 12629 H 1210.15 -2.83074 -1.57006 0
M  V30 12630 H 1209.06 -3.69581 0.579744 0
M  V30 12631 H 1210.39 -4.86555 0.743308 0
M  V30 12632 N 1212.04 -0.478751 -1.50152 0
M  V30 12633 C 1212.97 0.301182 -2.31549 0
M  V30 12634 C 1213.95 0.983276 -1.38801 0
M  V30 12635 O 1215.14 0.978973 -1.67719 0
M  V30 12636 C 1212.27 1.3791 -3.18745 0
M  V30 12637 C 1211.22 0.818175 -4.20107 0
M  V30 12638 C 1210.55 1.99496 -4.9609 0
M  V30 12639 C 1211.85 -0.17574 -5.22004 0
M  V30 12640 H 1213.54 -0.378188 -2.97002 0
M  V30 12641 H 1211.09 -0.183323 -1.42828 0
M  V30 12642 H 1213.04 1.93227 -3.74488 0
M  V30 12643 H 1211.77 2.08735 -2.51192 0
M  V30 12644 H 1210.42 0.286924 -3.65475 0
M  V30 12645 H 1210.07 2.69036 -4.25004 0
M  V30 12646 H 1209.77 1.62582 -5.6466 0
M  V30 12647 H 1211.3 2.55288 -5.54671 0
M  V30 12648 H 1212.71 0.288513 -5.72574 0
M  V30 12649 H 1211.11 -0.459549 -5.98338 0
M  V30 12650 H 1212.18 -1.09911 -4.72279 0
M  V30 12651 N 1213.52 1.56172 -0.211661 0
M  V30 12652 C 1214.93 1.84307 0.297982 0
M  V30 12653 C 1215.28 1.1328 1.60194 0
M  V30 12654 O 1214.41 0.399137 2.12687 0
M  V30 12655 C 1215 3.34348 0.547428 0
M  V30 12656 C 1213.56 3.62835 1.0014 0
M  V30 12657 C 1212.71 2.77237 0.0590326 0
M  V30 12658 H 1215.66 1.5262 -0.435083 0
M  V30 12659 H 1215.68 3.54018 1.39469 0
M  V30 12660 H 1215.19 3.86015 -0.401778 0
M  V30 12661 H 1213.29 3.16616 1.96431 0
M  V30 12662 H 1213.41 4.70899 0.882653 0
M  V30 12663 H 1211.77 2.48377 0.564005 0
M  V30 12664 H 1212.55 3.31699 -0.884913 0
M  V30 12665 N 1215 -0.0618163 1.57479 0
M  V30 12666 C 1216.25 -0.757569 1.87364 0
M  V30 12667 C 1216.57 -1.77607 0.805025 0
M  V30 12668 O 1215.84 -1.95202 -0.165216 0
M  V30 12669 H 1214.42 -0.28278 0.691408 0
M  V30 12670 H 1217.08 -0.0355354 1.94868 0
M  V30 12671 H 1216.18 -1.26758 2.85199 0
M  V30 12672 N 1216.48 -1.54033 -0.333429 0
M  V30 12673 C 1217.89 -1.44522 -0.677166 0
M  V30 12674 C 1218.09 -0.610122 -1.92041 0
M  V30 12675 O 1217.15 -0.105058 -2.52281 0
M  V30 12676 C 1218.46 -2.88129 -0.860369 0
M  V30 12677 C 1220.01 -2.97968 -0.958342 0
M  V30 12678 C 1220.48 -4.42703 -1.17379 0
M  V30 12679 N 1221.98 -4.46273 -1.24075 0
M  V30 12680 C 1222.71 -5.55407 -1.42515 0
M  V30 12681 N 1222.21 -6.74528 -1.58062 0
M  V30 12682 N 1224 -5.43037 -1.45144 0
M  V30 12683 H 1216.15 -2.06815 0.483858 0
M  V30 12684 H 1218.41 -0.935307 0.15461 0
M  V30 12685 H 1218.12 -3.51695 -0.0182085 0
M  V30 12686 H 1217.99 -3.33668 -1.75913 0
M  V30 12687 H 1220.38 -2.34535 -1.79102 0
M  V30 12688 H 1220.46 -2.55774 -0.0362643 0
M  V30 12689 H 1220.11 -5.0672 -0.346004 0
M  V30 12690 H 1220.04 -4.82498 -2.10959 0
M  V30 12691 H 1222.53 -3.60439 -1.13545 0
M  V30 12692 H 1222.84 -7.53462 -1.71797 0
M  V30 12693 H 1221.18 -6.77454 -1.55179 0
M  V30 12694 H 1224.38 -4.4893 -1.32588 0
M  V30 12695 H 1224.55 -6.28146 -1.59173 0
M  V30 12696 N 1217.95 0.594978 -1.45938 0
M  V30 12697 C 1219.23 1.35477 -1.41086 0
M  V30 12698 C 1219.61 2.10917 -0.0879512 0
M  V30 12699 O 1218.96 2.08704 0.930323 0
M  V30 12700 C 1219.17 2.29106 -2.63271 0
M  V30 12701 C 1220.52 2.9132 -3.08898 0
M  V30 12702 O 1221.54 2.39423 -2.63733 0
M  V30 12703 O 1220.4 3.85553 -3.87313 0
M  V30 12704 H 1217.49 0.6081 -0.560485 0
M  V30 12705 H 1220.04 0.617016 -1.58085 0
M  V30 12706 H 1218.81 1.72707 -3.51124 0
M  V30 12707 H 1218.44 3.10241 -2.48669 0
M  V30 12708 N 1219.43 1.33438 0.838571 0
M  V30 12709 C 1220.36 1.19552 1.9555 0
M  V30 12710 C 1221.38 0.12642 1.62308 0
M  V30 12711 O 1222.57 0.376868 1.74476 0
M  V30 12712 C 1219.67 0.811273 3.29046 0
M  V30 12713 C 1218.84 1.97207 3.9042 0
M  V30 12714 C 1217.9 1.56875 5.02271 0
M  V30 12715 O 1216.92 2.28314 5.21403 0
M  V30 12716 N 1218.13 0.473924 5.78562 0
M  V30 12717 H 1220.89 2.15769 2.07999 0
M  V30 12718 H 1218.45 1.26187 1.01432 0
M  V30 12719 H 1220.44 0.523553 4.01299 0
M  V30 12720 H 1219.01 -0.0602291 3.12542 0
M  V30 12721 H 1218.23 2.4254 3.10754 0
M  V30 12722 H 1219.52 2.74878 4.28158 0
M  V30 12723 H 1218.92 -0.120306 5.65572 0
M  V30 12724 H 1217.48 0.245877 6.51336 0
M  V30 12725 N 1220.91 -1.05686 1.16912 0
M  V30 12726 C 1222.32 -1.60059 0.961153 0
M  V30 12727 C 1222.67 -1.89894 -0.493409 0
M  V30 12728 O 1221.8 -1.67692 -1.36778 0
M  V30 12729 C 1222.39 -2.90803 1.73837 0
M  V30 12730 C 1220.95 -3.41854 1.57522 0
M  V30 12731 C 1220.1 -2.15658 1.74319 0
M  V30 12732 H 1223.05 -0.885592 1.31693 0
M  V30 12733 H 1223.07 -3.60485 1.21781 0
M  V30 12734 H 1222.58 -2.69056 2.79697 0
M  V30 12735 H 1220.68 -3.68647 0.541284 0
M  V30 12736 H 1220.8 -4.16771 2.36302 0
M  V30 12737 H 1219.16 -2.26177 1.17115 0
M  V30 12738 H 1219.94 -1.96386 2.8158 0
M  V30 12739 N 1222.39 -0.968567 -1.24324 0
M  V30 12740 C 1223.62 -0.647628 -1.96187 0
M  V30 12741 C 1224.03 0.787267 -1.72043 0
M  V30 12742 O 1223.37 1.53996 -1.00155 0
M  V30 12743 C 1223.43 -0.843517 -3.49464 0
M  V30 12744 C 1223.1 -2.25822 -3.97308 0
M  V30 12745 C 1224.09 -3.23602 -4.06913 0
M  V30 12746 C 1221.78 -2.58614 -4.30609 0
M  V30 12747 C 1223.77 -4.5226 -4.49154 0
M  V30 12748 C 1221.46 -3.87499 -4.72534 0
M  V30 12749 C 1222.46 -4.84134 -4.81771 0
M  V30 12750 O 1222.14 -6.10719 -5.2276 0
M  V30 12751 H 1221.88 -0.240568 -0.631746 0
M  V30 12752 H 1224.43 -1.29926 -1.59086 0
M  V30 12753 H 1222.66 -0.134716 -3.86465 0
M  V30 12754 H 1224.35 -0.521533 -4.02536 0
M  V30 12755 H 1225.12 -2.99596 -3.81402 0
M  V30 12756 H 1220.99 -1.84116 -4.22637 0
M  V30 12757 H 1224.54 -5.27689 -4.56279 0
M  V30 12758 H 1220.44 -4.11305 -4.97492 0
M  V30 12759 H 1221.2 -6.14298 -5.40906 0
M  V30 12760 N 1223.87 1.39211 -0.738786 0
M  V30 12761 C 1225.09 2.05256 -0.297421 0
M  V30 12762 C 1225.52 1.55341 1.06069 0
M  V30 12763 O 1224.87 0.698823 1.67291 0
M  V30 12764 C 1224.92 3.59239 -0.312969 0
M  V30 12765 O 1224.03 4.06448 0.698112 0
M  V30 12766 H 1223.37 0.650245 -0.134454 0
M  V30 12767 H 1225.9 1.78173 -1.00577 0
M  V30 12768 H 1225.91 4.07691 -0.158675 0
M  V30 12769 H 1224.58 3.94931 -1.30394 0
M  V30 12770 H 1223.16 3.69401 0.509643 0
M  V30 12771 N 1225.34 0.486708 1.49896 0
M  V30 12772 C 1226.59 -0.0627279 2.02003 0
M  V30 12773 C 1226.91 -1.38799 1.36967 0
M  V30 12774 O 1226.18 -1.88868 0.520173 0
M  V30 12775 H 1224.76 -0.0261718 0.746541 0
M  V30 12776 H 1227.43 0.640692 1.84068 0
M  V30 12777 H 1226.52 -0.202856 3.1144 0
M  V30 12778 N 1226.82 -1.56058 0.219941 0
M  V30 12779 C 1227.79 -2.18964 -0.677303 0
M  V30 12780 C 1228.79 -1.15105 -1.12283 0
M  V30 12781 O 1229.98 -1.40348 -1.03189 0
M  V30 12782 C 1227.11 -2.81167 -1.92764 0
M  V30 12783 H 1228.3 -2.99623 -0.128877 0
M  V30 12784 H 1225.85 -1.56272 -0.0296744 0
M  V30 12785 H 1226.59 -2.04374 -2.51797 0
M  V30 12786 H 1226.37 -3.5722 -1.61666 0
M  V30 12787 H 1227.86 -3.29391 -2.56693 0
M  V30 12788 N 1228.3 0.053464 -1.57509 0
M  V30 12789 C 1229.55 0.747622 -1.87763 0
M  V30 12790 C 1229.87 1.77178 -0.814433 0
M  V30 12791 O 1229.14 1.95287 0.154862 0
M  V30 12792 H 1227.72 0.279109 -0.692898 0
M  V30 12793 H 1230.38 0.0252006 -1.94884 0
M  V30 12794 H 1229.48 1.25244 -2.85868 0
M  V30 12795 N 1229.78 1.54207 0.325255 0
M  V30 12796 C 1231.06 1.6298 1.08153 0
M  V30 12797 C 1231.44 0.462583 2.05969 0
M  V30 12798 O 1230.78 -0.543323 2.21947 0
M  V30 12799 C 1230.99 2.999 1.78497 0
M  V30 12800 C 1232.34 3.55888 2.3158 0
M  V30 12801 O 1233.37 3.02194 1.88566 0
M  V30 12802 O 1232.23 4.49847 3.10322 0
M  V30 12803 H 1229.32 0.659923 0.498429 0
M  V30 12804 H 1231.87 1.66553 0.325282 0
M  V30 12805 H 1230.64 3.7629 1.07338 0
M  V30 12806 H 1230.26 2.99997 2.60936 0
M  V30 12807 N 1231.26 -0.58723 1.46251 0
M  V30 12808 C 1232.51 -1.34294 1.51028 0
M  V30 12809 C 1232.83 -1.94329 0.161623 0
M  V30 12810 O 1232.1 -1.78309 -0.811342 0
M  V30 12811 H 1230.68 -0.498607 0.556238 0
M  V30 12812 H 1233.34 -0.688074 1.8235 0
M  V30 12813 H 1232.43 -2.15197 2.26045 0
M  V30 12814 N 1232.74 -1.33881 -0.831482 0
M  V30 12815 C 1233.96 -1.28961 -1.62431 0
M  V30 12816 C 1234.39 0.135249 -1.87613 0
M  V30 12817 O 1233.74 1.09426 -1.44553 0
M  V30 12818 C 1233.79 -2.07767 -2.94729 0
M  V30 12819 O 1232.9 -1.44133 -3.86393 0
M  V30 12820 H 1232.24 -0.443313 -0.494337 0
M  V30 12821 H 1234.77 -1.76555 -1.0339 0
M  V30 12822 H 1234.78 -2.18806 -3.44366 0
M  V30 12823 H 1233.45 -3.11367 -2.75724 0
M  V30 12824 H 1232.03 -1.41784 -3.44894 0
M  V30 12825 N 1234.21 1.05064 -1.1747 0
M  V30 12826 C 1235.46 1.77737 -0.961979 0
M  V30 12827 C 1235.78 1.88198 0.510551 0
M  V30 12828 O 1235.05 1.39968 1.37062 0
M  V30 12829 H 1233.63 0.658366 -0.352935 0
M  V30 12830 H 1236.29 1.26851 -1.47969 0
M  V30 12831 H 1235.39 2.79368 -1.39141 0
M  V30 12832 N 1235.69 0.975146 1.23809 0
M  V30 12833 C 1236.62 0.45593 2.23599 0
M  V30 12834 C 1237.6 -0.474069 1.55536 0
M  V30 12835 O 1238.79 -0.40373 1.84126 0
M  V30 12836 C 1235.91 -0.341008 3.36979 0
M  V30 12837 C 1234.96 0.532362 4.23164 0
M  V30 12838 S 1235.79 1.97706 4.97667 0
M  V30 12839 C 1236.95 1.18912 6.145 0
M  V30 12840 H 1237.18 1.30157 2.67295 0
M  V30 12841 H 1234.71 0.78074 1.33206 0
M  V30 12842 H 1236.67 -0.794817 4.02732 0
M  V30 12843 H 1235.33 -1.16171 2.91827 0
M  V30 12844 H 1234.53 -0.0798928 5.03937 0
M  V30 12845 H 1234.13 0.922202 3.62452 0
M  V30 12846 H 1236.42 0.447823 6.76018 0
M  V30 12847 H 1237.36 1.97148 6.80102 0
M  V30 12848 H 1237.77 0.710216 5.60014 0
M  V30 12849 N 1237.17 -1.38817 0.746158 0
M  V30 12850 C 1238.42 -1.99885 0.298425 0
M  V30 12851 C 1238.74 -1.59518 -1.12156 0
M  V30 12852 O 1238.01 -0.848568 -1.76568 0
M  V30 12853 H 1236.59 -0.739247 0.107347 0
M  V30 12854 H 1239.25 -1.69696 0.9586 0
M  V30 12855 H 1238.35 -3.10067 0.355656 0
M  V30 12856 N 1238.65 -0.49465 -1.49636 0
M  V30 12857 C 1239.61 0.276064 -2.27531 0
M  V30 12858 C 1240.61 0.899619 -1.3328 0
M  V30 12859 O 1241.8 0.765136 -1.56497 0
M  V30 12860 C 1238.93 1.39547 -3.1103 0
M  V30 12861 H 1240.13 -0.407381 -2.9712 0
M  V30 12862 H 1237.68 -0.249416 -1.54297 0
M  V30 12863 H 1238.41 2.11326 -2.45992 0
M  V30 12864 H 1238.2 0.953877 -3.8032 0
M  V30 12865 H 1239.69 1.93853 -3.69879 0
M  V30 12866 N 1240.13 1.55939 -0.228214 0
M  V30 12867 C 1241.37 1.9877 0.402272 0
M  V30 12868 C 1241.7 1.11587 1.5894 0
M  V30 12869 O 1240.98 0.175032 1.93711 0
M  V30 12870 C 1241.26 3.50396 0.830353 0
M  V30 12871 C 1241.12 4.4835 -0.360876 0
M  V30 12872 C 1242.43 4.06602 1.68413 0
M  V30 12873 H 1239.55 0.722646 0.144746 0
M  V30 12874 H 1242.2 1.87186 -0.325784 0
M  V30 12875 H 1240.35 3.60398 1.4507 0
M  V30 12876 H 1242.02 4.5035 -0.999113 0
M  V30 12877 H 1240.26 4.21946 -1.00719 0
M  V30 12878 H 1240.93 5.51997 -0.0183074 0
M  V30 12879 H 1243.41 3.99585 1.16064 0
M  V30 12880 H 1242.28 5.12998 1.95254 0
M  V30 12881 H 1242.54 3.53897 2.64971 0
M  V30 12882 N 1241.6 -0.0451101 1.57535 0
M  V30 12883 C 1242.85 -0.737654 1.88157 0
M  V30 12884 C 1243.17 -1.76743 0.823817 0
M  V30 12885 O 1242.44 -1.95366 -0.144503 0
M  V30 12886 H 1241.02 -0.275431 0.694368 0
M  V30 12887 H 1243.69 -0.0148651 1.94894 0
M  V30 12888 H 1242.78 -1.23726 2.86528 0
M  V30 12889 N 1243.08 -1.54377 -0.317073 0
M  V30 12890 C 1244.33 -1.72551 -1.05216 0
M  V30 12891 C 1244.65 -0.5055 -1.88334 0
M  V30 12892 O 1243.92 0.480439 -1.89917 0
M  V30 12893 H 1242.5 -0.636222 -0.391447 0
M  V30 12894 H 1245.16 -1.91696 -0.35194 0
M  V30 12895 H 1244.26 -2.60791 -1.71448 0
M  V30 12896 N 1244.56 0.579466 -1.4656 0
M  V30 12897 C 1245.79 1.36351 -1.55615 0
M  V30 12898 C 1246.2 1.87755 -0.198405 0
M  V30 12899 O 1245.56 1.63795 0.804834 0
M  V30 12900 C 1245.61 2.54881 -2.56355 0
M  V30 12901 O 1245.33 2.05607 -3.86856 0
M  V30 12902 C 1246.83 3.47391 -2.75381 0
M  V30 12903 H 1244.05 0.416426 -0.526147 0
M  V30 12904 H 1246.6 0.704134 -1.91995 0
M  V30 12905 H 1244.75 3.16802 -2.2297 0
M  V30 12906 H 1245.17 2.82823 -4.41714 0
M  V30 12907 H 1246.64 4.27031 -3.49783 0
M  V30 12908 H 1247.12 3.99532 -1.82403 0
M  V30 12909 H 1247.72 2.91303 -3.09875 0
M  V30 12910 N 1246.04 1.3432 0.824371 0
M  V30 12911 C 1247.45 1.23855 1.39703 0
M  V30 12912 C 1247.8 -0.136566 1.95724 0
M  V30 12913 O 1246.93 -1.03683 1.89944 0
M  V30 12914 C 1247.52 2.24249 2.53965 0
M  V30 12915 C 1246.08 2.17578 3.07143 0
M  V30 12916 C 1245.23 2.10933 1.80008 0
M  V30 12917 H 1248.18 1.45707 0.628891 0
M  V30 12918 H 1248.2 1.85864 3.32016 0
M  V30 12919 H 1247.71 3.24321 2.13161 0
M  V30 12920 H 1245.81 1.20858 3.52455 0
M  V30 12921 H 1245.92 3.08769 3.66331 0
M  V30 12922 H 1244.29 1.56631 2.00845 0
M  V30 12923 H 1245.07 3.12836 1.4138 0
M  V30 12924 N 1247.52 -1.0444 1.18026 0
M  V30 12925 C 1248.74 -1.81772 0.998684 0
M  V30 12926 C 1249.17 -1.82682 -0.448225 0
M  V30 12927 O 1248.52 -1.24136 -1.32136 0
M  V30 12928 C 1248.57 -3.2542 1.55352 0
M  V30 12929 O 1247.68 -4.05103 0.772351 0
M  V30 12930 H 1247.02 -0.561731 0.354054 0
M  V30 12931 H 1249.55 -1.31557 1.56697 0
M  V30 12932 H 1249.56 -3.76206 1.57903 0
M  V30 12933 H 1248.23 -3.24073 2.60672 0
M  V30 12934 H 1246.81 -3.63798 0.818852 0
M  V30 12935 N 1248.99 -0.981699 -1.2329 0
M  V30 12936 C 1250.27 -0.567659 -1.87182 0
M  V30 12937 C 1250.65 0.955194 -1.88253 0
M  V30 12938 O 1250 1.83245 -1.36504 0
M  V30 12939 C 1250.21 -1.17522 -3.28618 0
M  V30 12940 C 1251.56 -1.26877 -4.052 0
M  V30 12941 O 1252.58 -1.12877 -3.37842 0
M  V30 12942 O 1251.44 -1.49163 -5.2575 0
M  V30 12943 H 1248.53 -0.191315 -0.804567 0
M  V30 12944 H 1251.08 -1.07686 -1.31155 0
M  V30 12945 H 1249.85 -2.21735 -3.22411 0
M  V30 12946 H 1249.48 -0.650913 -3.92236 0
M  V30 12947 N 1250.47 1.3842 -0.753509 0
M  V30 12948 C 1251.71 2.01965 -0.314558 0
M  V30 12949 C 1252.08 1.58519 1.08331 0
M  V30 12950 O 1253.28 2.14395 1.62137 0
M  V30 12951 C 1251.55 3.54765 -0.433199 0
M  V30 12952 S 1253.11 4.38733 -0.0768176 0
M  V30 12953 H 1249.93 0.700447 -0.122045 0
M  V30 12954 H 1252.53 1.68925 -0.98411 0
M  V30 12955 H 1251.23 3.83874 -1.45152 0
M  V30 12956 H 1250.76 3.92582 0.253539 0
M  V30 12957 H 1252.78 4.83077 1.13361 0
M  V30 12958 N 1251.95 0.502579 1.49372 0
M  V30 12959 C 1253.37 0.158641 1.5881 0
M  V30 12960 C 1253.57 -1.33688 1.50764 0
M  V30 12961 O 1252.62 -2.11295 1.38241 0
M  V30 12962 C 1253.94 0.736843 2.91532 0
M  V30 12963 C 1255.48 0.703093 3.05001 0
M  V30 12964 C 1255.96 1.25938 4.40345 0
M  V30 12965 N 1257.45 1.22015 4.46841 0
M  V30 12966 C 1258.18 1.62076 5.50017 0
M  V30 12967 N 1257.68 2.09736 6.6029 0
M  V30 12968 N 1259.47 1.53482 5.4074 0
M  V30 12969 H 1251.62 1.47487 1.52844 0
M  V30 12970 H 1253.89 0.611851 0.724115 0
M  V30 12971 H 1253.59 1.78573 3.02992 0
M  V30 12972 H 1253.47 0.198178 3.76679 0
M  V30 12973 H 1255.85 -0.336965 2.9317 0
M  V30 12974 H 1255.94 1.27892 2.21534 0
M  V30 12975 H 1255.58 2.29823 4.52928 0
M  V30 12976 H 1255.51 0.659481 5.22454 0
M  V30 12977 H 1258 0.870957 3.67726 0
M  V30 12978 H 1258.31 2.3837 7.35119 0
M  V30 12979 H 1256.66 2.13712 6.61326 0
M  V30 12980 H 1259.85 1.16065 4.53483 0
M  V30 12981 H 1260.02 1.85026 6.21023 0
M  V30 12982 N 1253.43 -1.55816 0.23648 0
M  V30 12983 C 1254.66 -2.02789 -0.39501 0
M  V30 12984 C 1255.07 -1.1153 -1.52832 0
M  V30 12985 O 1254.41 -0.120084 -1.83307 0
M  V30 12986 C 1254.47 -3.46052 -0.974066 0
M  V30 12987 C 1254.14 -4.56993 0.0256825 0
M  V30 12988 C 1255.13 -5.13208 0.831477 0
M  V30 12989 C 1252.82 -5.0208 0.148759 0
M  V30 12990 C 1254.81 -6.12994 1.74691 0
M  V30 12991 C 1252.5 -6.017 1.0677 0
M  V30 12992 C 1253.5 -6.57035 1.86531 0
M  V30 12993 O 1253.18 -7.54714 2.76878 0
M  V30 12994 H 1252.92 -0.668672 -0.0992687 0
M  V30 12995 H 1255.47 -2.02312 0.354826 0
M  V30 12996 H 1253.7 -3.43645 -1.77327 0
M  V30 12997 H 1255.39 -3.76586 -1.51453 0
M  V30 12998 H 1256.16 -4.79214 0.746922 0
M  V30 12999 H 1252.03 -4.58679 -0.461976 0
M  V30 13000 H 1255.58 -6.56111 2.36989 0
M  V30 13001 H 1251.48 -6.35115 1.15322 0
M  V30 13002 H 1252.24 -7.72292 2.71122 0
M  V30 13003 N 1254.91 0.036755 -1.57557 0
M  V30 13004 C 1256.16 0.728107 -1.881 0
M  V30 13005 C 1256.47 1.7693 -0.833974 0
M  V30 13006 O 1257.67 2.5127 -1.02837 0
M  V30 13007 C 1256.13 1.34604 -3.33781 0
M  V30 13008 C 1255.74 0.341599 -4.46696 0
M  V30 13009 C 1257.48 2.01772 -3.73481 0
M  V30 13010 C 1255.39 0.967444 -5.83433 0
M  V30 13011 H 1254.32 0.275695 -0.701789 0
M  V30 13012 H 1256.97 -0.0177555 -1.83491 0
M  V30 13013 H 1255.35 2.14135 -3.3311 0
M  V30 13014 H 1256.53 -0.426441 -4.58823 0
M  V30 13015 H 1254.84 -0.227558 -4.15778 0
M  V30 13016 H 1257.44 2.49435 -4.72955 0
M  V30 13017 H 1257.78 2.83255 -3.05077 0
M  V30 13018 H 1258.31 1.29026 -3.76294 0
M  V30 13019 H 1255.05 0.19219 -6.55218 0
M  V30 13020 H 1254.57 1.70551 -5.75041 0
M  V30 13021 H 1256.25 1.47705 -6.29914 0
M  V30 13022 N 1256.39 1.54543 0.308881 0
M  V30 13023 C 1257.32 1.87947 1.38557 0
M  V30 13024 C 1258.3 0.737622 1.53275 0
M  V30 13025 O 1259.48 0.992664 1.66913 0
M  V30 13026 C 1256.61 2.11982 2.75102 0
M  V30 13027 C 1255.57 3.2783 2.75158 0
M  V30 13028 C 1254.89 3.37266 4.14917 0
M  V30 13029 C 1256.19 4.65129 2.37598 0
M  V30 13030 H 1257.89 2.78123 1.1085 0
M  V30 13031 H 1255.43 1.3382 0.531808 0
M  V30 13032 H 1257.38 2.33935 3.50503 0
M  V30 13033 H 1256.11 1.18569 3.04317 0
M  V30 13034 H 1254.77 3.05787 2.02212 0
M  V30 13035 H 1254.42 2.41384 4.41296 0
M  V30 13036 H 1254.12 4.15135 4.15857 0
M  V30 13037 H 1255.64 3.61471 4.92109 0
M  V30 13038 H 1257.05 4.86865 3.02714 0
M  V30 13039 H 1255.45 5.45653 2.49765 0
M  V30 13040 H 1256.52 4.6638 1.32731 0
M  V30 13041 N 1257.86 -0.571685 1.46866 0
M  V30 13042 C 1259.09 -1.35524 1.56336 0
M  V30 13043 C 1259.51 -1.87647 0.208359 0
M  V30 13044 O 1258.86 -1.64219 -0.796136 0
M  V30 13045 C 1258.91 -2.53518 2.57703 0
M  V30 13046 O 1258.64 -2.03552 3.87941 0
M  V30 13047 C 1260.14 -3.45925 2.77219 0
M  V30 13048 H 1257.36 -0.41363 0.528348 0
M  V30 13049 H 1259.9 -0.693943 1.92366 0
M  V30 13050 H 1258.06 -3.15615 2.24647 0
M  V30 13051 H 1258.47 -2.80476 4.43208 0
M  V30 13052 H 1259.94 -4.2517 3.52043 0
M  V30 13053 H 1260.42 -3.98559 1.8452 0
M  V30 13054 H 1261.03 -2.89655 3.11416 0
M  V30 13055 N 1259.34 -1.34755 -0.817236 0
M  V30 13056 C 1260.75 -1.24594 -1.39044 0
M  V30 13057 C 1261.1 0.126184 -1.95794 0
M  V30 13058 O 1260.23 1.02675 -1.90491 0
M  V30 13059 C 1260.82 -2.25592 -2.52772 0
M  V30 13060 C 1259.38 -2.19204 -3.05984 0
M  V30 13061 C 1258.53 -2.11884 -1.78886 0
M  V30 13062 H 1261.48 -1.46039 -0.621155 0
M  V30 13063 H 1261.5 -1.87622 -3.31026 0
M  V30 13064 H 1261.01 -3.25447 -2.11438 0
M  V30 13065 H 1259.11 -1.22725 -3.51809 0
M  V30 13066 H 1259.23 -3.10707 -3.64689 0
M  V30 13067 H 1257.59 -1.57694 -2.00012 0
M  V30 13068 H 1258.37 -3.13582 -1.39719 0
M  V30 13069 N 1260.82 1.03812 -1.18578 0
M  V30 13070 C 1262.07 1.76706 -0.980776 0
M  V30 13071 C 1262.39 1.88729 0.490562 0
M  V30 13072 O 1261.66 1.41413 1.35569 0
M  V30 13073 H 1260.24 0.654586 -0.359898 0
M  V30 13074 H 1262.9 1.25274 -1.49306 0
M  V30 13075 H 1262 2.77876 -1.42096 0
M  V30 13076 N 1262.3 0.988223 1.22768 0
M  V30 13077 C 1263.55 0.660154 1.91014 0
M  V30 13078 C 1263.87 -0.809788 1.77391 0
M  V30 13079 O 1263.14 -1.57998 1.15817 0
M  V30 13080 H 1261.72 0.24118 0.706995 0
M  V30 13081 H 1264.38 1.25372 1.49224 0
M  V30 13082 H 1263.47 0.918603 2.98275 0
M  V30 13083 N 1263.78 -1.38018 0.760839 0
M  V30 13084 C 1264.71 -2.32995 0.153557 0
M  V30 13085 C 1265.69 -1.55234 -0.695448 0
M  V30 13086 O 1266.87 -1.8352 -0.635148 0
M  V30 13087 C 1264 -3.39437 -0.734811 0
M  V30 13088 C 1262.96 -4.27998 0.0120287 0
M  V30 13089 C 1262.28 -5.25359 -0.995067 0
M  V30 13090 C 1263.58 -5.08687 1.18468 0
M  V30 13091 H 1265.28 -2.8403 0.946956 0
M  V30 13092 H 1262.82 -1.36562 0.456816 0
M  V30 13093 H 1264.77 -4.0485 -1.16938 0
M  V30 13094 H 1263.5 -2.86901 -1.56061 0
M  V30 13095 H 1262.16 -3.64102 0.427254 0
M  V30 13096 H 1261.81 -4.69108 -1.81512 0
M  V30 13097 H 1261.51 -5.85469 -0.499969 0
M  V30 13098 H 1263.03 -5.93648 -1.4288 0
M  V30 13099 H 1264.44 -5.67299 0.8273 0
M  V30 13100 H 1262.84 -5.78068 1.61112 0
M  V30 13101 H 1263.91 -4.42 1.99409 0
M  V30 13102 N 1265.25 -0.510493 -1.49103 0
M  V30 13103 C 1266.22 0.251915 -2.27811 0
M  V30 13104 C 1267.22 0.885432 -1.34226 0
M  V30 13105 O 1268.41 0.748494 -1.573 0
M  V30 13106 C 1265.54 1.3624 -3.12492 0
M  V30 13107 H 1266.73 -0.438872 -2.96671 0
M  V30 13108 H 1264.28 -0.265767 -1.54024 0
M  V30 13109 H 1265.02 2.08705 -2.48219 0
M  V30 13110 H 1264.8 0.913485 -3.81311 0
M  V30 13111 H 1266.29 1.89919 -3.71915 0
M  V30 13112 N 1266.73 1.55688 -0.24474 0
M  V30 13113 C 1267.64 2.24933 0.666519 0
M  V30 13114 C 1268.66 1.26471 1.19503 0
M  V30 13115 O 1269.83 1.59342 1.23176 0
M  V30 13116 C 1266.9 2.9336 1.84772 0
M  V30 13117 C 1265.96 4.07225 1.35889 0
M  V30 13118 C 1265.19 4.72381 2.48379 0
M  V30 13119 O 1265.42 4.36605 3.67059 0
M  V30 13120 O 1264.35 5.60933 2.18261 0
M  V30 13121 H 1268.18 3.03513 0.106507 0
M  V30 13122 H 1265.76 1.49394 -0.0133309 0
M  V30 13123 H 1267.64 3.36468 2.53708 0
M  V30 13124 H 1266.32 2.17721 2.39539 0
M  V30 13125 H 1265.22 3.68639 0.636881 0
M  V30 13126 H 1266.56 4.84676 0.857333 0
M  V30 13127 N 1268.21 -0.0283989 1.57574 0
M  V30 13128 C 1269.14 -1.05641 2.03403 0
M  V30 13129 C 1270.15 -1.32426 0.946953 0
M  V30 13130 O 1271.34 -1.29902 1.22425 0
M  V30 13131 C 1268.44 -2.39788 2.39489 0
M  V30 13132 C 1267.62 -2.32348 3.70585 0
M  V30 13133 C 1266.68 -3.4895 3.93853 0
M  V30 13134 O 1265.7 -3.28414 4.64901 0
M  V30 13135 N 1266.9 -4.7084 3.39543 0
M  V30 13136 H 1269.67 -0.665788 2.92211 0
M  V30 13137 H 1267.23 -0.21633 1.60448 0
M  V30 13138 H 1269.22 -3.16514 2.52193 0
M  V30 13139 H 1267.79 -2.70692 1.56348 0
M  V30 13140 H 1267.01 -1.40717 3.68229 0
M  V30 13141 H 1268.3 -2.24521 4.56582 0
M  V30 13142 H 1267.7 -4.90425 2.81956 0
M  V30 13143 H 1266.25 -5.44929 3.57625 0
M  V30 13144 N 1269.69 -1.54705 -0.300681 0
M  V30 13145 C 1271.1 -1.64998 -0.873654 0
M  V30 13146 C 1271.45 -0.558842 -1.88073 0
M  V30 13147 O 1270.57 0.304474 -2.14247 0
M  V30 13148 C 1271.17 -2.99099 -1.59138 0
M  V30 13149 C 1269.73 -3.11512 -2.11276 0
M  V30 13150 C 1268.88 -2.60681 -0.945551 0
M  V30 13151 H 1271.83 -1.5851 -0.0776752 0
M  V30 13152 H 1271.85 -2.9054 -2.45696 0
M  V30 13153 H 1271.36 -3.78493 -0.858172 0
M  V30 13154 H 1269.46 -2.36838 -2.87643 0
M  V30 13155 H 1269.57 -4.17672 -2.34707 0
M  V30 13156 H 1267.94 -2.17143 -1.33121 0
M  V30 13157 H 1268.72 -3.42553 -0.226291 0
M  V30 13158 N 1271.17 0.563888 -1.47167 0
M  V30 13159 C 1272.41 1.31875 -1.53145 0
M  V30 13160 C 1272.74 1.94047 -0.192518 0
M  V30 13161 O 1272.01 1.79577 0.782872 0
M  V30 13162 H 1270.59 0.489694 -0.5641 0
M  V30 13163 H 1273.25 0.658976 -1.83422 0
M  V30 13164 H 1272.34 2.11574 -2.2944 0
M  V30 13165 N 1272.64 1.35187 0.810078 0
M  V30 13166 C 1273.58 1.23673 1.92971 0
M  V30 13167 C 1274.59 0.160819 1.62004 0
M  V30 13168 O 1275.78 0.413793 1.73638 0
M  V30 13169 C 1272.88 0.880887 3.27252 0
M  V30 13170 C 1272.05 2.05444 3.86149 0
M  V30 13171 C 1271.11 1.67494 4.98831 0
M  V30 13172 O 1270.14 2.39322 5.16443 0
M  V30 13173 N 1271.34 0.596539 5.77427 0
M  V30 13174 H 1274.1 2.20133 2.03376 0
M  V30 13175 H 1271.66 1.2831 0.987322 0
M  V30 13176 H 1273.66 0.608556 4.00098 0
M  V30 13177 H 1272.23 0.00607926 3.12599 0
M  V30 13178 H 1271.45 2.49077 3.05539 0
M  V30 13179 H 1272.73 2.83898 4.22231 0
M  V30 13180 H 1272.13 -0.000312591 5.657 0
M  V30 13181 H 1270.69 0.383979 6.50668 0
M  V30 13182 N 1274.12 -1.03182 1.19127 0
M  V30 13183 C 1275.09 -2.09559 0.928307 0
M  V30 13184 C 1276.09 -1.60548 -0.0899992 0
M  V30 13185 O 1277.28 -1.736 0.144422 0
M  V30 13186 C 1274.41 -3.38609 0.394561 0
M  V30 13187 H 1275.6 -2.34321 1.87173 0
M  V30 13188 H 1273.15 -1.19746 1.00452 0
M  V30 13189 H 1273.89 -3.19515 -0.555046 0
M  V30 13190 H 1273.67 -3.75502 1.12873 0
M  V30 13191 H 1275.16 -4.16969 0.229569 0
M  V30 13192 N 1275.6 -0.99472 -1.22242 0
M  V30 13193 C 1276.51 -0.555502 -2.27928 0
M  V30 13194 C 1277.53 0.396584 -1.6942 0
M  V30 13195 O 1278.7 0.262965 -1.99676 0
M  V30 13196 C 1275.77 0.121121 -3.46488 0
M  V30 13197 C 1274.83 -0.874155 -4.20306 0
M  V30 13198 C 1274.06 -0.229726 -5.33205 0
M  V30 13199 O 1274.28 0.975935 -5.61989 0
M  V30 13200 O 1273.22 -0.935501 -5.94586 0
M  V30 13201 H 1277.04 -1.4348 -2.6767 0
M  V30 13202 H 1274.63 -0.763061 -1.28444 0
M  V30 13203 H 1276.51 0.500043 -4.18423 0
M  V30 13204 H 1275.19 0.974959 -3.08668 0
M  V30 13205 H 1274.09 -1.30404 -3.50636 0
M  V30 13206 H 1275.43 -1.69725 -4.62011 0
M  V30 13207 N 1277.08 1.37613 -0.768148 0
M  V30 13208 C 1278.03 2.27654 -0.125596 0
M  V30 13209 C 1279.01 1.45923 0.677883 0
M  V30 13210 O 1280.2 1.68515 0.541448 0
M  V30 13211 C 1277.33 3.34884 0.7555 0
M  V30 13212 C 1276.42 4.24064 -0.0556137 0
M  V30 13213 N 1276.81 4.93707 -1.09943 0
M  V30 13214 C 1275.11 4.4568 0.168932 0
M  V30 13215 C 1275.81 5.59508 -1.59142 0
M  V30 13216 N 1274.79 5.36027 -0.904208 0
M  V30 13217 H 1278.59 2.7897 -0.924828 0
M  V30 13218 H 1276.1 1.50687 -0.605561 0
M  V30 13219 H 1278.1 3.98294 1.23157 0
M  V30 13220 H 1276.76 2.85124 1.55352 0
M  V30 13221 H 1277.77 4.96258 -1.48151 0
M  V30 13222 H 1274.45 4.068 0.939144 0
M  V30 13223 H 1275.84 6.2518 -2.4617 0
M  V30 13224 N 1278.56 0.518393 1.4883 0
M  V30 13225 C 1279.49 -0.287642 2.27388 0
M  V30 13226 C 1280.5 -0.914974 1.34655 0
M  V30 13227 O 1281.69 -0.795373 1.598 0
M  V30 13228 C 1278.79 -1.42149 3.07647 0
M  V30 13229 C 1277.96 -0.898238 4.28078 0
M  V30 13230 C 1277.02 -1.91179 4.90242 0
M  V30 13231 O 1276.05 -1.47337 5.498 0
M  V30 13232 N 1277.25 -3.24331 4.81445 0
M  V30 13233 H 1280.02 0.386047 2.97203 0
M  V30 13234 H 1277.58 0.352002 1.58027 0
M  V30 13235 H 1279.57 -2.09745 3.46106 0
M  V30 13236 H 1278.14 -1.99903 2.40328 0
M  V30 13237 H 1277.36 -0.0466326 3.94172 0
M  V30 13238 H 1278.65 -0.527338 5.0606 0
M  V30 13239 H 1278.04 -3.62627 4.34187 0
M  V30 13240 H 1276.6 -3.87593 5.24037 0
M  V30 13241 N 1280.03 -1.55556 0.252993 0
M  V30 13242 C 1281.45 -1.85032 -0.249011 0
M  V30 13243 C 1281.8 -1.17488 -1.57134 0
M  V30 13244 O 1280.92 -0.455387 -2.11554 0
M  V30 13245 C 1281.52 -3.35682 -0.458589 0
M  V30 13246 C 1280.08 -3.65362 -0.90485 0
M  V30 13247 C 1279.22 -2.77296 0.0144927 0
M  V30 13248 H 1282.17 -1.51412 0.475394 0
M  V30 13249 H 1282.19 -3.57591 -1.30034 0
M  V30 13250 H 1281.71 -3.84814 0.503981 0
M  V30 13251 H 1279.81 -3.21713 -1.87967 0
M  V30 13252 H 1279.92 -4.73074 -0.757492 0
M  V30 13253 H 1278.28 -2.49785 -0.497954 0
M  V30 13254 H 1279.07 -3.29236 0.972546 0
M  V30 13255 N 1281.51 0.0200419 -1.57587 0
M  V30 13256 C 1282.42 1.0346 -2.10555 0
M  V30 13257 C 1283.44 1.39035 -1.0462 0
M  V30 13258 O 1284.61 1.48172 -1.36407 0
M  V30 13259 C 1281.68 2.31389 -2.58186 0
M  V30 13260 C 1280.74 2.02311 -3.7864 0
M  V30 13261 C 1279.97 3.24141 -4.23991 0
M  V30 13262 O 1280.2 4.35132 -3.68803 0
M  V30 13263 O 1279.13 3.09312 -5.16342 0
M  V30 13264 H 1282.96 0.614419 -2.9742 0
M  V30 13265 H 1280.54 0.237604 -1.47498 0
M  V30 13266 H 1282.42 3.06582 -2.89112 0
M  V30 13267 H 1281.1 2.72684 -1.74428 0
M  V30 13268 H 1280.01 1.24658 -3.5272 0
M  V30 13269 H 1281.34 1.65866 -4.6341 0
M  V30 13270 N 1282.99 1.54862 0.292472 0
M  V30 13271 C 1284.22 1.78877 1.04966 0
M  V30 13272 C 1284.64 0.550724 1.79857 0
M  V30 13273 O 1284 -0.499054 1.74296 0
M  V30 13274 C 1284.05 3.00106 1.99922 0
M  V30 13275 O 1283.15 2.73827 3.0837 0
M  V30 13276 H 1282.49 0.591802 0.301108 0
M  V30 13277 H 1285.02 2.01965 0.3273 0
M  V30 13278 H 1285.03 3.28309 2.42233 0
M  V30 13279 H 1283.71 3.89872 1.44821 0
M  V30 13280 H 1282.28 2.56665 2.70513 0
M  V30 13281 N 1284.47 -0.556076 1.47464 0
M  V30 13282 C 1285.88 -1.1382 1.47993 0
M  V30 13283 C 1286.23 -1.94785 0.235249 0
M  V30 13284 O 1285.36 -2.06098 -0.659752 0
M  V30 13285 C 1285.95 -2.07082 2.68146 0
M  V30 13286 C 1284.51 -2.60564 2.71631 0
M  V30 13287 C 1283.66 -1.36967 2.41113 0
M  V30 13288 H 1286.61 -0.34262 1.54957 0
M  V30 13289 H 1286.63 -2.90975 2.45181 0
M  V30 13290 H 1286.14 -1.48127 3.5872 0
M  V30 13291 H 1284.24 -3.23314 1.852 0
M  V30 13292 H 1284.35 -3.0148 3.72353 0
M  V30 13293 H 1282.72 -1.67678 1.91719 0
M  V30 13294 H 1283.5 -0.79803 3.33896 0
M  V30 13295 N 1285.95 -1.35615 -0.802897 0
M  V30 13296 C 1286.88 -1.31506 -1.92947 0
M  V30 13297 C 1287.86 -0.188843 -1.69048 0
M  V30 13298 O 1289.04 -0.384384 -1.90358 0
M  V30 13299 C 1286.17 -1.09001 -3.29752 0
M  V30 13300 C 1285.13 -2.18303 -3.68141 0
M  V30 13301 C 1284.45 -1.80959 -5.03148 0
M  V30 13302 C 1285.75 -3.60296 -3.78132 0
M  V30 13303 H 1287.45 -2.25771 -1.96642 0
M  V30 13304 H 1284.99 -1.08682 -0.944685 0
M  V30 13305 H 1286.95 -1.04766 -4.08169 0
M  V30 13306 H 1285.67 -0.111832 -3.26408 0
M  V30 13307 H 1284.33 -2.21642 -2.92011 0
M  V30 13308 H 1283.98 -0.817495 -4.96312 0
M  V30 13309 H 1283.68 -2.54129 -5.29804 0
M  V30 13310 H 1285.2 -1.78255 -5.84001 0
M  V30 13311 H 1286.62 -3.59259 -4.46773 0
M  V30 13312 H 1285.01 -4.32258 -4.16261 0
M  V30 13313 H 1286.08 -3.9618 -2.79588 0
M  V30 13314 N 1287.43 1.02549 -1.19673 0
M  V30 13315 C 1288.37 2.13015 -0.934209 0
M  V30 13316 C 1289.37 1.69035 0.111208 0
M  V30 13317 O 1290.57 1.79959 -0.0383449 0
M  V30 13318 H 1286.95 0.696015 -0.284722 0
M  V30 13319 H 1288.92 2.32346 -1.87238 0
M  V30 13320 C 1287.67 3.44185 -0.493124 0
M  V30 13321 H 1286.99 3.78447 -1.28911 0
M  V30 13322 H 1288.43 4.22565 -0.348577 0
M  V30 13323 C 1286.89 3.27427 0.793277 0
M  V30 13324 O 1287.42 3.56362 1.85388 0
M  V30 13325 N 1285.63 2.80706 0.751837 0
M  V30 13326 H 1285.17 2.57359 -0.111517 0
M  V30 13327 H 1285.13 2.69874 1.61292 0
M  V30 13328 N 1288.9 1.00119 1.21713 0
M  V30 13329 C 1289.81 0.567582 2.27631 0
M  V30 13330 C 1290.83 -0.387593 1.69628 0
M  V30 13331 O 1292.01 -0.252372 1.99813 0
M  V30 13332 C 1289.07 -0.102745 3.46548 0
M  V30 13333 C 1288.13 0.896433 4.19836 0
M  V30 13334 C 1287.36 0.258 5.33076 0
M  V30 13335 O 1287.59 -0.946118 5.62499 0
M  V30 13336 O 1286.52 0.967021 5.94081 0
M  V30 13337 H 1290.35 1.44898 2.66905 0
M  V30 13338 H 1287.93 0.769862 1.28037 0
M  V30 13339 H 1289.81 -0.477846 4.18682 0
M  V30 13340 H 1288.49 -0.958576 3.09181 0
M  V30 13341 H 1287.4 1.32262 3.49939 0
M  V30 13342 H 1288.73 1.72173 4.61104 0
M  V30 13343 N 1290.38 -1.37203 0.775435 0
M  V30 13344 C 1291.61 -2.03868 0.352927 0
M  V30 13345 C 1292.02 -1.58482 -1.0261 0
M  V30 13346 O 1291.38 -0.767772 -1.65564 0
M  V30 13347 C 1291.43 -3.59378 0.39116 0
M  V30 13348 O 1291.15 -4.03103 1.71579 0
M  V30 13349 C 1292.65 -4.4328 -0.0424808 0
M  V30 13350 H 1289.87 -0.654619 0.14736 0
M  V30 13351 H 1292.42 -1.75463 1.05039 0
M  V30 13352 H 1290.57 -3.86542 -0.257752 0
M  V30 13353 H 1290.99 -4.9764 1.65695 0
M  V30 13354 H 1292.46 -5.51989 0.0354215 0
M  V30 13355 H 1292.94 -4.25374 -1.09333 0
M  V30 13356 H 1293.54 -4.21349 0.578384 0
M  V30 13357 N 1291.86 -0.526279 -1.48553 0
M  V30 13358 C 1292.79 0.275579 -2.27537 0
M  V30 13359 C 1293.8 0.90782 -1.35139 0
M  V30 13360 O 1294.99 0.786887 -1.6022 0
M  V30 13361 C 1292.09 1.40515 -3.08397 0
M  V30 13362 C 1291.27 0.875523 -4.28548 0
M  V30 13363 C 1290.33 1.88577 -4.91249 0
M  V30 13364 O 1289.35 1.44419 -5.50574 0
M  V30 13365 N 1290.55 3.21774 -4.83158 0
M  V30 13366 H 1293.32 -0.401803 -2.96994 0
M  V30 13367 H 1290.88 -0.360378 -1.57838 0
M  V30 13368 H 1292.87 2.07907 -3.47213 0
M  V30 13369 H 1291.44 1.98626 -2.41384 0
M  V30 13370 H 1290.66 0.025728 -3.94192 0
M  V30 13371 H 1291.95 0.500493 -5.06332 0
M  V30 13372 H 1291.35 3.60319 -4.36104 0
M  V30 13373 H 1289.9 3.84808 -5.26085 0
M  V30 13374 N 1293.34 1.5542 -0.261239 0
M  V30 13375 C 1294.75 1.59327 0.0932655 0
M  V30 13376 C 1294.95 1.27846 1.55748 0
M  V30 13377 O 1294.01 1.03265 2.30418 0
M  V30 13378 C 1295.32 2.99496 -0.268856 0
M  V30 13379 C 1296.87 3.12265 -0.21433 0
M  V30 13380 C 1297.35 4.54677 -0.55069 0
M  V30 13381 N 1298.84 4.60475 -0.501723 0
M  V30 13382 C 1299.57 5.6867 -0.734961 0
M  V30 13383 N 1299.07 6.85069 -1.03209 0
M  V30 13384 N 1300.86 5.58156 -0.664696 0
M  V30 13385 H 1293.01 1.7415 -1.21595 0
M  V30 13386 H 1295.27 0.811382 -0.490268 0
M  V30 13387 H 1294.98 3.2732 -1.28664 0
M  V30 13388 H 1294.85 3.75104 0.397097 0
M  V30 13389 H 1297.24 2.84213 0.794148 0
M  V30 13390 H 1297.32 2.389 -0.914342 0
M  V30 13391 H 1296.97 4.83453 -1.55679 0
M  V30 13392 H 1296.9 5.26322 0.170959 0
M  V30 13393 H 1299.39 3.76851 -0.281387 0
M  V30 13394 H 1299.7 7.63472 -1.19709 0
M  V30 13395 H 1298.05 6.86718 -1.06971 0
M  V30 13396 H 1301.24 4.66098 -0.432513 0
M  V30 13397 H 1301.41 6.42403 -0.849857 0
M  V30 13398 N 1294.82 -0.0116844 1.57596 0
M  V30 13399 C 1295.75 -1.00599 2.10718 0
M  V30 13400 C 1296.73 -1.36601 1.01362 0
M  V30 13401 O 1297.91 -1.4518 1.28982 0
M  V30 13402 C 1295.04 -2.30155 2.60089 0
M  V30 13403 C 1294 -2.08347 3.73866 0
M  V30 13404 C 1293.32 -3.43814 4.09507 0
M  V30 13405 C 1294.62 -1.45552 5.01609 0
M  V30 13406 H 1296.32 -0.563721 2.94045 0
M  V30 13407 H 1293.86 -0.269714 1.41452 0
M  V30 13408 H 1295.81 -3.00058 2.95877 0
M  V30 13409 H 1294.54 -2.76473 1.73868 0
M  V30 13410 H 1293.2 -1.40872 3.38453 0
M  V30 13411 H 1292.85 -3.87814 3.20326 0
M  V30 13412 H 1292.55 -3.30043 4.86154 0
M  V30 13413 H 1294.07 -4.15052 4.47844 0
M  V30 13414 H 1295.48 -2.05396 5.35243 0
M  V30 13415 H 1293.88 -1.42304 5.82983 0
M  V30 13416 H 1294.95 -0.423331 4.83049 0
M  V30 13417 N 1296.29 -1.55015 -0.284256 0
M  V30 13418 C 1297.22 -1.90128 -1.3555 0
M  V30 13419 C 1298.2 -0.761914 -1.52082 0
M  V30 13420 O 1299.39 -1.01909 -1.65312 0
M  V30 13421 C 1296.52 -2.16332 -2.71695 0
M  V30 13422 C 1295.47 -3.32166 -2.69907 0
M  V30 13423 C 1294.8 -3.43824 -4.09498 0
M  V30 13424 C 1296.1 -4.6885 -2.30168 0
M  V30 13425 H 1297.79 -2.79852 -1.06411 0
M  V30 13426 H 1295.34 -1.34649 -0.510451 0
M  V30 13427 H 1297.29 -2.39482 -3.46737 0
M  V30 13428 H 1296.02 -1.23395 -3.02392 0
M  V30 13429 H 1294.68 -3.08965 -1.97322 0
M  V30 13430 H 1294.32 -2.48375 -4.374 0
M  V30 13431 H 1294.02 -4.21698 -4.092 0
M  V30 13432 H 1295.55 -3.69254 -4.86296 0
M  V30 13433 H 1296.96 -4.91619 -2.9493 0
M  V30 13434 H 1295.36 -5.49558 -2.41052 0
M  V30 13435 H 1296.43 -4.68433 -1.25294 0
M  V30 13436 N 1297.77 0.548248 -1.47757 0
M  V30 13437 C 1298.7 1.66409 -1.63799 0
M  V30 13438 C 1299.68 1.62973 -0.487211 0
M  V30 13439 O 1300.87 1.80455 -0.717612 0
M  V30 13440 C 1298 3.05035 -1.66046 0
M  V30 13441 C 1296.95 3.23322 -2.80441 0
M  V30 13442 C 1296.28 4.62824 -2.67765 0
M  V30 13443 C 1297.58 3.07837 -4.2194 0
M  V30 13444 H 1299.27 1.53239 -2.57212 0
M  V30 13445 H 1296.82 0.735783 -1.23783 0
M  V30 13446 H 1298.77 3.82951 -1.75859 0
M  V30 13447 H 1297.49 3.19185 -0.69199 0
M  V30 13448 H 1296.15 2.47816 -2.70153 0
M  V30 13449 H 1295.8 4.73786 -1.68927 0
M  V30 13450 H 1295.5 4.76007 -3.44515 0
M  V30 13451 H 1297.03 5.42864 -2.7952 0
M  V30 13452 H 1298.44 3.75563 -4.33157 0
M  V30 13453 H 1296.84 3.32525 -4.99547 0
M  V30 13454 H 1297.91 2.04474 -4.3968 0
M  V30 13455 N 1299.25 1.36039 0.795694 0
M  V30 13456 C 1300.18 1.32528 1.92246 0
M  V30 13457 C 1301.16 0.197805 1.68946 0
M  V30 13458 O 1302.35 0.394474 1.90151 0
M  V30 13459 C 1299.48 1.10748 3.29169 0
M  V30 13460 C 1298.43 2.20253 3.66978 0
M  V30 13461 C 1297.76 1.83624 5.02181 0
M  V30 13462 C 1299.06 3.62296 3.76216 0
M  V30 13463 H 1300.75 2.2681 1.95442 0
M  V30 13464 H 1298.3 1.09181 0.938908 0
M  V30 13465 H 1300.25 1.06929 4.07608 0
M  V30 13466 H 1298.97 0.129141 3.26345 0
M  V30 13467 H 1297.63 2.23187 2.90832 0
M  V30 13468 H 1297.28 0.843804 4.95872 0
M  V30 13469 H 1296.98 2.56935 5.28449 0
M  V30 13470 H 1298.5 1.81349 5.83048 0
M  V30 13471 H 1299.92 3.61623 4.44861 0
M  V30 13472 H 1298.31 4.34459 4.13963 0
M  V30 13473 H 1299.38 3.97657 2.77483 0
M  V30 13474 N 1300.73 -1.01913 1.20215 0
M  V30 13475 C 1301.66 -2.10513 0.906476 0
M  V30 13476 C 1302.67 -1.62463 -0.104758 0
M  V30 13477 O 1303.86 -1.78055 0.12593 0
M  V30 13478 C 1300.96 -3.3722 0.337012 0
M  V30 13479 C 1300.14 -4.14417 1.39917 0
M  V30 13480 C 1299.19 -5.19428 0.841489 0
M  V30 13481 O 1298.22 -5.48486 1.52157 0
M  V30 13482 N 1299.42 -5.79442 -0.350365 0
M  V30 13483 H 1302.19 -2.36465 1.84132 0
M  V30 13484 H 1299.75 -1.18283 1.10548 0
M  V30 13485 H 1301.74 -4.04669 -0.0501507 0
M  V30 13486 H 1300.31 -3.08538 -0.502325 0
M  V30 13487 H 1299.53 -3.41975 1.96078 0
M  V30 13488 H 1300.82 -4.62777 2.1146 0
M  V30 13489 H 1300.22 -5.58166 -0.920204 0
M  V30 13490 H 1298.77 -6.48252 -0.679194 0
M  V30 13491 N 1302.21 -1.00763 -1.2118 0
M  V30 13492 C 1303.14 -0.528468 -2.23024 0
M  V30 13493 C 1304.15 0.384348 -1.58198 0
M  V30 13494 O 1305.34 0.184127 -1.77548 0
M  V30 13495 C 1302.44 0.251693 -3.37964 0
M  V30 13496 C 1301.61 -0.660838 -4.32379 0
M  V30 13497 C 1300.67 0.0701723 -5.26153 0
M  V30 13498 O 1299.7 -0.549355 -5.66543 0
M  V30 13499 N 1300.9 1.34791 -5.64634 0
M  V30 13500 H 1303.67 -1.40428 -2.64764 0
M  V30 13501 H 1301.23 -0.884085 -1.3563 0
M  V30 13502 H 1303.22 0.749746 -3.97694 0
M  V30 13503 H 1301.79 1.02872 -2.95188 0
M  V30 13504 H 1301.01 -1.33934 -3.7075 0
M  V30 13505 H 1302.3 -1.28177 -4.9239 0
M  V30 13506 H 1301.69 1.87232 -5.33817 0
M  V30 13507 H 1300.25 1.79086 -6.26715 0
M  V30 13508 N 1303.68 1.3679 -0.7827 0
M  V30 13509 C 1304.93 1.99023 -0.351316 0
M  V30 13510 C 1305.25 1.62436 1.07887 0
M  V30 13511 O 1304.52 0.895084 1.74256 0
M  V30 13512 H 1303.1 0.736141 -0.126909 0
M  V30 13513 H 1305.77 1.67095 -1.00325 0
M  V30 13514 H 1304.86 3.09015 -0.43774 0
M  V30 13515 N 1305.16 0.53415 1.48272 0
M  V30 13516 C 1306.09 -0.215037 2.32508 0
M  V30 13517 C 1307.07 -0.931083 1.42355 0
M  V30 13518 O 1308.26 -0.916051 1.71237 0
M  V30 13519 C 1305.39 -1.25985 3.23643 0
M  V30 13520 C 1304.34 -0.661692 4.22854 0
M  V30 13521 C 1303.67 -1.80946 5.03153 0
M  V30 13522 C 1304.97 0.369358 5.20992 0
M  V30 13523 H 1306.66 0.488158 2.95394 0
M  V30 13524 H 1304.21 0.236206 1.4205 0
M  V30 13525 H 1306.16 -1.79195 3.81402 0
M  V30 13526 H 1304.89 -1.99268 2.58766 0
M  V30 13527 H 1303.54 -0.151082 3.66289 0
M  V30 13528 H 1303.19 -2.53077 4.34696 0
M  V30 13529 H 1302.89 -1.41513 5.70305 0
M  V30 13530 H 1304.42 -2.34526 5.63764 0
M  V30 13531 H 1305.83 -0.0758076 5.7325 0
M  V30 13532 H 1304.23 0.681301 5.9622 0
M  V30 13533 H 1305.3 1.27363 4.67875 0
M  V30 13534 N 1306.64 -1.55279 0.269478 0
M  V30 13535 C 1307.57 -2.25278 -0.614188 0
M  V30 13536 C 1308.55 -1.24092 -1.1634 0
M  V30 13537 O 1309.74 -1.52799 -1.19858 0
M  V30 13538 C 1306.87 -2.96956 -1.80096 0
M  V30 13539 C 1305.82 -4.05021 -1.38353 0
M  V30 13540 C 1305.15 -4.64244 -2.65295 0
M  V30 13541 C 1306.45 -5.19523 -0.537886 0
M  V30 13542 H 1308.14 -2.99385 -0.0304397 0
M  V30 13543 H 1305.69 -1.43994 -0.0132004 0
M  V30 13544 H 1307.64 -3.44633 -2.42499 0
M  V30 13545 H 1306.36 -2.20374 -2.41045 0
M  V30 13546 H 1305.02 -3.58146 -0.78273 0
M  V30 13547 H 1304.67 -3.84337 -3.2449 0
M  V30 13548 H 1304.37 -5.37208 -2.38079 0
M  V30 13549 H 1305.89 -5.14668 -3.28557 0
M  V30 13550 H 1307.31 -5.63287 -1.06677 0
M  V30 13551 H 1305.71 -5.99014 -0.360845 0
M  V30 13552 H 1306.78 -4.82857 0.444672 0
M  V30 13553 N 1308.12 0.00332656 -1.576 0
M  V30 13554 C 1309.53 0.546581 -1.7852 0
M  V30 13555 C 1309.88 1.74147 -0.903722 0
M  V30 13556 O 1309.01 2.16144 -0.105314 0
M  V30 13557 C 1309.6 0.998344 -3.23757 0
M  V30 13558 C 1308.16 1.48693 -3.45785 0
M  V30 13559 C 1307.31 0.436617 -2.73841 0
M  V30 13560 H 1310.26 -0.222852 -1.57128 0
M  V30 13561 H 1310.28 1.86452 -3.31686 0
M  V30 13562 H 1309.79 0.128479 -3.87887 0
M  V30 13563 H 1307.89 2.3778 -2.86865 0
M  V30 13564 H 1308 1.51668 -4.5446 0
M  V30 13565 H 1306.37 0.897506 -2.38363 0
M  V30 13566 H 1307.15 -0.424225 -3.40669 0
M  V30 13567 N 1309.6 1.55164 0.276031 0
M  V30 13568 C 1310.55 1.84223 1.34335 0
M  V30 13569 C 1311.53 0.700934 1.4483 0
M  V30 13570 O 1312.72 0.962204 1.48562 0
M  V30 13571 C 1309.85 2.11496 2.70415 0
M  V30 13572 C 1308.94 3.31877 2.64043 0
M  V30 13573 N 1309.33 4.51856 2.27289 0
M  V30 13574 C 1307.63 3.34406 2.95108 0
M  V30 13575 C 1308.33 5.33939 2.30833 0
M  V30 13576 N 1307.3 4.72271 2.69186 0
M  V30 13577 H 1311.11 2.74533 1.04922 0
M  V30 13578 H 1308.62 1.54999 0.484661 0
M  V30 13579 H 1310.62 2.3047 3.47404 0
M  V30 13580 H 1309.28 1.22468 3.00719 0
M  V30 13581 H 1310.29 4.78009 1.99318 0
M  V30 13582 H 1306.96 2.55561 3.30144 0
M  V30 13583 H 1308.35 6.39862 2.05004 0
M  V30 13584 N 1311.07 -0.540404 1.48045 0
M  V30 13585 C 1312.3 -1.32656 1.59427 0
M  V30 13586 C 1312.72 -1.86419 0.250924 0
M  V30 13587 O 1312.08 -1.63861 -0.775838 0
M  V30 13588 C 1312.13 -2.46062 2.63602 0
M  V30 13589 O 1311.23 -3.48794 2.20038 0
M  V30 13590 H 1310.58 -0.393334 0.534962 0
M  V30 13591 H 1313.11 -0.651363 1.93955 0
M  V30 13592 H 1313.12 -2.92396 2.84549 0
M  V30 13593 H 1311.79 -2.06291 3.61133 0
M  V30 13594 H 1310.37 -3.0865 2.0926 0
M  V30 13595 N 1312.55 -1.36459 -0.788468 0
M  V30 13596 C 1313.78 -1.34063 -1.58246 0
M  V30 13597 C 1314.2 0.0754933 -1.87948 0
M  V30 13598 O 1313.56 1.04772 -1.47961 0
M  V30 13599 C 1313.61 -2.17038 -2.8797 0
M  V30 13600 O 1312.71 -1.56353 -3.81612 0
M  V30 13601 H 1312.05 -0.458816 -0.479983 0
M  V30 13602 H 1314.58 -1.79755 -0.977207 0
M  V30 13603 H 1314.59 -2.29651 -3.3723 0
M  V30 13604 H 1313.27 -3.19981 -2.65678 0
M  V30 13605 H 1311.85 -1.52685 -3.40208 0
M  V30 13606 N 1314.03 1.01274 -1.20754 0
M  V30 13607 C 1315.27 1.7647 -1.03139 0
M  V30 13608 C 1315.63 1.87157 0.428531 0
M  V30 13609 O 1316.84 2.58839 0.724973 0
M  V30 13610 C 1315.11 3.14346 -1.70063 0
M  V30 13611 S 1316.67 4.05531 -1.67602 0
M  V30 13612 H 1313.48 0.60729 -0.369756 0
M  V30 13613 H 1316.09 1.21232 -1.53372 0
M  V30 13614 H 1314.79 3.04197 -2.75486 0
M  V30 13615 H 1314.32 3.74659 -1.19977 0
M  V30 13616 H 1316.34 4.91071 -0.711623 0
M  V30 13617 O 1315.55 1.14119 1.14277 0
M  V30 13618 H 1316.24 0.861155 1.73505 0
M  V30 END ATOM
M  V30 BEGIN BOND
M  V30 END BOND
M  V30 END CTAB
M  END
$$$$
