drugbank_target|Q06481 Amyloid-like protein 2 (DB01593; DB14487; DB14533; DB14548)
 OpenBabel12092121083D

  0  0  0     0  0            999 V3000
M  V30 BEGIN CTAB
M  V30 COUNTS 11961 12080 0 0 0
M  V30 BEGIN ATOM
M  V30 1 H -0.908 1.98254 -0.117106 0
M  V30 2 N 0 1.576 0 0
M  V30 3 C 0.933 2.03868 1.02534 0
M  V30 4 C 1.911 0.928543 1.3348 0
M  V30 5 O 3.095 1.19667 1.45644 0
M  V30 6 C 0.222 2.43627 2.35294 0
M  V30 7 C -0.732 3.65373 2.2001 0
M  V30 8 S 0.101 5.13292 1.52614 0
M  V30 9 C 1.257 5.56322 2.86805 0
M  V30 10 H 1.49 2.90518 0.631377 0
M  V30 11 H -0.977 1.52953 0.210867 0
M  V30 12 H 0.981 2.67203 3.11629 0
M  V30 13 H -0.358 1.57376 2.7183 0
M  V30 14 H -1.165 3.90944 3.18086 0
M  V30 15 H -1.563 3.418 1.51819 0
M  V30 16 H 0.729 5.58782 3.83104 0
M  V30 17 H 1.672 6.56266 2.65933 0
M  V30 18 H 2.08 4.83886 2.90714 0
M  V30 19 N 1.4781 -0.272755 1.55222 0
M  V30 20 C 2.4411 -1.32041 1.87344 0
M  V30 21 C 3.4411 -1.42342 0.74803 0
M  V30 22 O 4.6311 -1.41488 1.0162 0
M  V30 23 C 1.7631 -2.70173 2.07893 0
M  V30 24 H 2.9561 -1.04789 2.80997 0
M  V30 25 H 0.5091 -0.51083 1.47717 0
M  V30 26 H 1.2441 -3.02605 1.16622 0
M  V30 27 H 1.0291 -2.64082 2.89833 0
M  V30 28 H 2.5191 -3.45869 2.34017 0
M  V30 29 N 2.9562 -1.48159 -0.537278 0
M  V30 30 C 3.9192 -1.61665 -1.62472 0
M  V30 31 C 4.9192 -0.490395 -1.5314 0
M  V30 32 O 6.1092 -0.755998 -1.5694 0
M  V30 33 C 3.2412 -1.57997 -3.02076 0
M  V30 34 H 4.4342 -2.58621 -1.51839 0
M  V30 35 H 1.9872 -1.36647 -0.758771 0
M  V30 36 H 2.7222 -0.624913 -3.18222 0
M  V30 37 H 2.5072 -2.39755 -3.10258 0
M  V30 38 H 3.9972 -1.70627 -3.81151 0
M  V30 39 N 4.4343 0.785586 -1.36625 0
M  V30 40 C 5.6623 1.57448 -1.3423 0
M  V30 41 C 6.0773 1.88649 0.0755653 0
M  V30 42 O 5.4343 1.50414 1.03354 0
M  V30 43 C 5.4853 2.89316 -2.16745 0
M  V30 44 O 5.2063 2.59459 -3.53005 0
M  V30 45 C 6.7073 3.83606 -2.22174 0
M  V30 46 H 3.9273 0.488226 -0.4603 0
M  V30 47 H 6.4713 0.974733 -1.79775 0
M  V30 48 H 4.6263 3.4575 -1.74745 0
M  V30 49 H 5.0403 3.43804 -3.96105 0
M  V30 50 H 6.5143 4.73181 -2.8426 0
M  V30 51 H 6.9913 4.21734 -1.22627 0
M  V30 52 H 7.5973 3.33104 -2.64427 0
M  V30 53 N 5.9124 1.20967 1.01018 0
M  V30 54 C 7.1604 1.02172 1.74371 0
M  V30 55 C 7.4814 -0.446414 1.89821 0
M  V30 56 O 6.7514 -1.32234 1.44537 0
M  V30 57 H 5.3314 0.375066 0.646014 0
M  V30 58 H 7.9934 1.52187 1.21758 0
M  V30 59 H 7.0894 1.48538 2.74487 0
M  V30 60 N 7.3905 -1.2043 1.01659 0
M  V30 61 C 8.6185 -1.93777 0.725132 0
M  V30 62 C 9.0335 -1.74772 -0.714166 0
M  V30 63 O 8.3905 -1.06169 -1.4844 0
M  V30 64 C 8.4415 -3.45876 1.05129 0
M  V30 65 O 8.1625 -3.6426 2.43406 0
M  V30 66 C 9.6635 -4.36368 0.780891 0
M  V30 67 H 6.8835 -0.615901 0.266284 0
M  V30 68 H 9.4275 -1.52922 1.35776 0
M  V30 69 H 7.5825 -3.8461 0.464065 0
M  V30 70 H 7.9965 -4.58246 2.55169 0
M  V30 71 H 9.4705 -5.41743 1.05918 0
M  V30 72 H 9.9475 -4.38275 -0.284937 0
M  V30 73 H 10.5535 -4.03296 1.35027 0
M  V30 74 N 8.8686 -0.792821 -1.36206 0
M  V30 75 C 9.8316 -0.199459 -2.2833 0
M  V30 76 C 10.8316 0.605189 -1.48977 0
M  V30 77 O 12.0216 0.425685 -1.68919 0
M  V30 78 C 9.1536 0.723523 -3.33134 0
M  V30 79 H 10.3466 -1.01181 -2.82316 0
M  V30 80 H 7.8996 -0.562485 -1.45828 0
M  V30 81 H 8.6346 1.56008 -2.84309 0
M  V30 82 H 8.4196 0.148436 -3.91819 0
M  V30 83 H 9.9096 1.13344 -4.01924 0
M  V30 84 N 10.3467 1.47872 -0.545128 0
M  V30 85 C 11.3097 2.28337 0.198717 0
M  V30 86 C 12.3097 1.36255 0.853888 0
M  V30 87 O 13.4997 1.59003 0.711606 0
M  V30 88 C 10.6317 3.15585 1.28915 0
M  V30 89 H 11.8247 2.95567 -0.507941 0
M  V30 90 H 9.3777 1.53362 -0.301616 0
M  V30 91 H 10.1127 2.53019 2.02859 0
M  V30 92 H 9.8977 3.83337 0.824309 0
M  V30 93 H 11.3877 3.76243 1.81194 0
M  V30 94 N 11.8248 0.280983 1.55075 0
M  V30 95 C 12.7878 -0.590896 2.21452 0
M  V30 96 C 13.7878 -1.07682 1.19421 0
M  V30 97 O 14.9778 -0.97605 1.44288 0
M  V30 98 C 12.1098 -1.81587 2.88511 0
M  V30 99 H 13.3028 -0.0112554 2.99898 0
M  V30 100 H 10.8558 0.0316438 1.56268 0
M  V30 101 H 11.5908 -2.43587 2.14093 0
M  V30 102 H 11.3758 -1.4753 3.63287 0
M  V30 103 H 12.8658 -2.43575 3.39206 0
M  V30 104 N 13.3029 -1.57598 0.00835791 0
M  V30 105 C 14.2659 -2.07884 -0.965242 0
M  V30 106 C 15.2659 -0.989825 -1.26725 0
M  V30 107 O 16.4559 -1.25218 -1.21104 0
M  V30 108 C 13.5879 -2.52731 -2.28779 0
M  V30 109 H 14.7809 -2.95178 -0.530112 0
M  V30 110 H 12.3339 -1.54458 -0.239283 0
M  V30 111 H 13.0689 -1.68705 -2.76964 0
M  V30 112 H 12.8539 -3.32272 -2.08177 0
M  V30 113 H 14.3439 -2.91933 -2.98605 0
M  V30 114 N 14.781 0.264519 -1.55364 0
M  V30 115 C 15.744 1.31046 -1.88042 0
M  V30 116 C 16.744 1.41943 -0.755569 0
M  V30 117 O 17.934 1.40947 -1.02369 0
M  V30 118 C 15.066 2.69067 -2.09323 0
M  V30 119 H 16.259 1.03297 -2.81549 0
M  V30 120 H 13.812 0.502989 -1.47986 0
M  V30 121 H 14.547 3.01982 -1.18226 0
M  V30 122 H 14.332 2.62542 -2.91229 0
M  V30 123 H 15.822 3.44623 -2.35848 0
M  V30 124 N 16.2591 1.48442 0.529413 0
M  V30 125 C 17.4871 1.60151 1.30994 0
M  V30 126 C 17.9021 0.261985 1.86973 0
M  V30 127 O 17.2591 -0.748805 1.66431 0
M  V30 128 C 17.3101 2.64854 2.46038 0
M  V30 129 O 17.0311 3.93608 1.92365 0
M  V30 130 C 18.5321 2.87007 3.37849 0
M  V30 131 H 15.7521 0.539971 0.398338 0
M  V30 132 H 18.2961 1.94273 0.638597 0
M  V30 133 H 16.4511 2.33589 3.09055 0
M  V30 134 H 16.8651 4.51055 2.67675 0
M  V30 135 H 18.3391 3.64068 4.14919 0
M  V30 136 H 18.8161 1.95852 3.93114 0
M  V30 137 H 19.4221 3.19579 2.80623 0
M  V30 138 N 17.7372 -0.778329 1.37039 0
M  V30 139 C 18.9852 -1.53361 1.31623 0
M  V30 140 C 19.3062 -1.94739 -0.100831 0
M  V30 141 O 18.5762 -1.65797 -1.04347 0
M  V30 142 H 17.1562 -0.568794 0.484234 0
M  V30 143 H 19.8182 -0.926742 1.71457 0
M  V30 144 H 18.9142 -2.43606 1.95096 0
M  V30 145 N 19.2153 -1.21501 -1.00376 0
M  V30 146 C 20.6313 -0.972629 -1.26539 0
M  V30 147 C 20.8313 0.340257 -1.98606 0
M  V30 148 O 19.8873 1.06561 -2.28913 0
M  V30 149 C 21.2003 -2.16404 -2.08781 0
M  V30 150 C 22.7483 -2.20643 -2.22004 0
M  V30 151 C 23.2233 -3.39306 -3.07629 0
M  V30 152 N 24.7143 -3.39401 -3.15217 0
M  V30 153 C 25.4493 -4.27867 -3.81729 0
M  V30 154 N 24.9453 -5.26533 -4.5026 0
M  V30 155 N 26.7383 -4.15672 -3.78382 0
M  V30 156 H 18.8893 -2.05929 -0.520281 0
M  V30 157 H 21.1523 -0.901803 -0.292328 0
M  V30 158 H 20.8583 -3.11554 -1.63178 0
M  V30 159 H 20.7323 -2.15567 -3.09533 0
M  V30 160 H 23.1193 -1.26048 -2.66825 0
M  V30 161 H 23.2003 -2.25523 -1.20718 0
M  V30 162 H 22.8443 -4.34195 -2.63509 0
M  V30 163 H 22.7743 -3.31665 -4.09031 0
M  V30 164 H 25.2653 -2.67997 -2.66432 0
M  V30 165 H 25.5783 -5.90337 -4.98721 0
M  V30 166 H 23.9233 -5.30457 -4.49044 0
M  V30 167 H 27.1143 -3.3785 -3.23998 0
M  V30 168 H 27.2873 -4.84825 -4.2994 0
M  V30 169 N 20.6934 1.19889 -1.02296 0
M  V30 170 C 21.6234 2.25141 -0.619174 0
M  V30 171 C 22.6044 1.66051 0.368915 0
M  V30 172 O 23.7894 1.92546 0.252941 0
M  V30 173 C 20.9194 3.4728 0.0368783 0
M  V30 174 C 19.8734 4.19005 -0.872865 0
M  V30 175 C 19.1994 5.34637 -0.0822402 0
M  V30 176 C 20.4994 4.74452 -2.18387 0
M  V30 177 H 22.1934 2.59171 -1.49903 0
M  V30 178 H 19.7394 1.24579 -0.722222 0
M  V30 179 H 21.6924 4.20098 0.330958 0
M  V30 180 H 20.4164 3.12433 0.95149 0
M  V30 181 H 19.0754 3.48061 -1.15105 0
M  V30 182 H 18.7234 4.96034 0.83422 0
M  V30 183 H 18.4234 5.83557 -0.688149 0
M  V30 184 H 19.9474 6.10255 0.205238 0
M  V30 185 H 21.3614 5.39055 -1.95172 0
M  V30 186 H 19.7584 5.33834 -2.74119 0
M  V30 187 H 20.8284 3.92844 -2.84257 0
M  V30 188 N 22.1715 0.800033 1.35784 0
M  V30 189 C 23.1015 0.220184 2.3246 0
M  V30 190 C 24.0825 -0.65073 1.57161 0
M  V30 191 O 25.2675 -0.582359 1.85263 0
M  V30 192 C 22.3975 -0.637353 3.41402 0
M  V30 193 C 21.3515 0.134531 4.27789 0
M  V30 194 C 20.6775 -0.844285 5.27992 0
M  V30 195 C 21.9775 1.32979 5.05088 0
M  V30 196 H 23.6715 1.02787 2.81203 0
M  V30 197 H 21.2175 0.495717 1.35199 0
M  V30 198 H 23.1705 -1.05302 4.08031 0
M  V30 199 H 21.8945 -1.47785 2.91251 0
M  V30 200 H 20.5535 0.531296 3.6273 0
M  V30 201 H 20.2015 -1.68011 4.74111 0
M  V30 202 H 19.9015 -0.332184 5.8666 0
M  V30 203 H 21.4255 -1.2583 5.97494 0
M  V30 204 H 22.8395 0.98934 5.64699 0
M  V30 205 H 21.2365 1.77593 5.7322 0
M  V30 206 H 22.3065 2.11978 4.36111 0
M  V30 207 N 23.6496 -1.47581 0.552962 0
M  V30 208 C 24.5796 -2.32762 -0.185451 0
M  V30 209 C 25.5606 -1.43527 -0.912905 0
M  V30 210 O 26.7456 -1.72388 -0.894201 0
M  V30 211 C 23.8756 -3.25219 -1.21859 0
M  V30 212 C 22.8296 -4.23661 -0.607864 0
M  V30 213 C 22.1556 -5.05413 -1.74533 0
M  V30 214 C 23.4556 -5.20481 0.435582 0
M  V30 215 H 25.1496 -2.94749 0.525684 0
M  V30 216 H 22.6956 -1.41738 0.254251 0
M  V30 217 H 24.6486 -3.8365 -1.7433 0
M  V30 218 H 23.3726 -2.61279 -1.95961 0
M  V30 219 H 22.0316 -3.66451 -0.104489 0
M  V30 220 H 21.6796 -4.3788 -2.47529 0
M  V30 221 H 21.3796 -5.72059 -1.34249 0
M  V30 222 H 22.9036 -5.66701 -2.27338 0
M  V30 223 H 24.3176 -5.733 -0.00290157 0
M  V30 224 H 22.7146 -5.95305 0.757067 0
M  V30 225 H 23.7846 -4.66217 1.33303 0
M  V30 226 N 25.1277 -0.289203 -1.54924 0
M  V30 227 C 26.0577 0.58549 -2.2604 0
M  V30 228 C 27.0387 1.14753 -1.25562 0
M  V30 229 O 28.2237 1.17906 -1.54311 0
M  V30 230 C 25.3537 1.76305 -2.99222 0
M  V30 231 C 24.3077 1.33191 -4.06748 0
M  V30 232 C 23.6337 2.5937 -4.6758 0
M  V30 233 C 24.9337 0.471775 -5.20165 0
M  V30 234 H 26.6277 -0.00763532 -2.99399 0
M  V30 235 H 24.1737 -0.00511229 -1.43999 0
M  V30 236 H 26.1267 2.38097 -3.47689 0
M  V30 237 H 24.8507 2.38223 -2.23422 0
M  V30 238 H 23.5097 0.737121 -3.59113 0
M  V30 239 H 23.1577 3.19576 -3.88433 0
M  V30 240 H 22.8577 2.31228 -5.40192 0
M  V30 241 H 24.3817 3.21985 -5.18804 0
M  V30 242 H 25.7957 0.995056 -5.64599 0
M  V30 243 H 24.1927 0.284639 -5.99425 0
M  V30 244 H 25.2627 -0.506041 -4.82252 0
M  V30 245 N 26.6058 1.57591 -0.0167156 0
M  V30 246 C 27.5358 2.12496 0.967858 0
M  V30 247 C 28.5168 1.03807 1.34752 0
M  V30 248 O 29.7018 1.31577 1.42833 0
M  V30 249 C 26.8318 2.64194 2.25431 0
M  V30 250 C 25.7858 3.77559 2.01576 0
M  V30 251 C 25.1118 4.15636 3.36379 0
M  V30 252 C 26.4118 5.04151 1.36489 0
M  V30 253 H 28.1058 2.95013 0.510643 0
M  V30 254 H 25.6518 1.41915 0.244181 0
M  V30 255 H 27.6048 3.01236 2.94678 0
M  V30 256 H 26.3288 1.78821 2.73296 0
M  V30 257 H 24.9878 3.40937 1.34751 0
M  V30 258 H 24.6358 3.27263 3.81979 0
M  V30 259 H 24.3358 4.92022 3.21229 0
M  V30 260 H 25.8598 4.5525 4.06915 0
M  V30 261 H 27.2738 5.38857 1.95718 0
M  V30 262 H 25.6708 5.85453 1.31776 0
M  V30 263 H 26.7408 4.83733 0.336219 0
M  V30 264 N 28.0839 -0.256276 1.55502 0
M  V30 265 C 29.0139 -1.32102 1.92539 0
M  V30 266 C 29.9949 -1.50684 0.789194 0
M  V30 267 O 31.1799 -1.63449 1.04872 0
M  V30 268 C 28.3099 -2.67752 2.21192 0
M  V30 269 C 27.2639 -2.63878 3.36975 0
M  V30 270 C 26.5899 -4.03236 3.51147 0
M  V30 271 C 27.8899 -2.21682 4.72921 0
M  V30 272 H 29.5839 -1.01351 2.81724 0
M  V30 273 H 27.1299 -0.486105 1.35547 0
M  V30 274 H 29.0829 -3.42365 2.45691 0
M  V30 275 H 27.8069 -3.0012 1.28824 0
M  V30 276 H 26.4659 -1.91722 3.12471 0
M  V30 277 H 26.1139 -4.32854 2.56216 0
M  V30 278 H 25.8139 -4.01535 4.29003 0
M  V30 279 H 27.3379 -4.79563 3.77957 0
M  V30 280 H 28.7519 -2.86023 4.96854 0
M  V30 281 H 27.1489 -2.3111 5.53812 0
M  V30 282 H 28.2189 -1.16833 4.70615 0
M  V30 283 N 29.562 -1.4872 -0.521534 0
M  V30 284 C 30.808 -1.574 -1.27879 0
M  V30 285 C 31.141 -0.250817 -1.92573 0
M  V30 286 O 30.416 0.743934 -1.79711 0
M  V30 287 C 30.699 -2.71843 -2.36164 0
M  V30 288 C 30.552 -4.13893 -1.76105 0
M  V30 289 C 31.871 -2.82008 -3.37875 0
M  V30 290 H 28.99 -0.572941 -0.463581 0
M  V30 291 H 31.632 -1.80927 -0.580119 0
M  V30 292 H 29.782 -2.51914 -2.95756 0
M  V30 293 H 31.454 -4.45284 -1.20499 0
M  V30 294 H 29.697 -4.20498 -1.06601 0
M  V30 295 H 30.368 -4.89804 -2.5455 0
M  V30 296 H 32.844 -3.00086 -2.88249 0
M  V30 297 H 31.72 -3.63796 -4.11028 0
M  V30 298 H 31.981 -1.90511 -3.98946 0
M  V30 299 N 31.0401 0.771051 -1.3745 0
M  V30 300 C 32.2881 1.52661 -1.32435 0
M  V30 301 C 32.6091 1.9479 0.0905024 0
M  V30 302 O 31.8791 1.66348 1.03466 0
M  V30 303 H 30.4591 0.566218 -0.487244 0
M  V30 304 H 33.1211 0.917636 -1.71946 0
M  V30 305 H 32.2171 2.42568 -1.96385 0
M  V30 306 N 32.5182 1.22032 0.997298 0
M  V30 307 C 33.4482 1.01065 2.10495 0
M  V30 308 C 34.4292 -0.0669542 1.69968 0
M  V30 309 O 35.6142 0.0943987 1.9397 0
M  V30 310 C 32.7442 0.582874 3.42374 0
M  V30 311 C 31.6982 1.60592 3.96729 0
M  V30 312 C 31.0242 1.03412 5.24605 0
M  V30 313 C 32.3242 2.99478 4.27914 0
M  V30 314 H 34.0182 1.93708 2.28292 0
M  V30 315 H 31.5642 0.932761 1.09707 0
M  V30 316 H 33.5172 0.423332 4.19268 0
M  V30 317 H 32.2412 -0.379213 3.24391 0
M  V30 318 H 30.9002 1.75316 3.21963 0
M  V30 319 H 30.5482 0.063518 5.0296 0
M  V30 320 H 30.2482 1.71754 5.61938 0
M  V30 321 H 31.7722 0.886066 6.04137 0
M  V30 322 H 33.1862 2.88153 4.95622 0
M  V30 323 H 31.5832 3.64903 4.76409 0
M  V30 324 H 32.6532 3.49742 3.3587 0
M  V30 325 N 33.9963 -1.19345 1.0293 0
M  V30 326 C 35.2243 -1.92997 0.745644 0
M  V30 327 C 35.6393 -1.75519 -0.695589 0
M  V30 328 O 34.9963 -1.07737 -1.47306 0
M  V30 329 C 35.0473 -3.44741 1.08792 0
M  V30 330 O 34.7683 -3.61658 2.47256 0
M  V30 331 C 36.2693 -4.35515 0.827129 0
M  V30 332 H 33.4893 -0.613042 0.272801 0
M  V30 333 H 36.0333 -1.51473 1.3739 0
M  V30 334 H 34.1883 -3.84097 0.504832 0
M  V30 335 H 34.6023 -4.55514 2.60015 0
M  V30 336 H 36.0763 -5.40589 1.11658 0
M  V30 337 H 36.5533 -4.38552 -0.238436 0
M  V30 338 H 37.1593 -4.01841 1.39297 0
M  V30 339 N 35.4744 -0.807222 -1.35358 0
M  V30 340 C 36.4374 -0.223665 -2.28106 0
M  V30 341 C 37.4374 0.589354 -1.4961 0
M  V30 342 O 38.6274 0.407745 -1.69361 0
M  V30 343 C 35.7594 0.688149 -3.33882 0
M  V30 344 H 36.9524 -1.04169 -2.81227 0
M  V30 345 H 34.5054 -0.577921 -1.45223 0
M  V30 346 H 35.2404 1.52984 -2.85948 0
M  V30 347 H 35.0254 0.10687 -3.91954 0
M  V30 348 H 36.5154 1.09075 -4.03104 0
M  V30 349 N 36.9525 1.47285 -0.560781 0
M  V30 350 C 38.3635 1.86258 -0.128343 0
M  V30 351 C 38.7145 1.46699 1.30284 0
M  V30 352 O 37.8395 0.871698 1.98067 0
M  V30 353 C 38.4345 3.38044 -0.22614 0
M  V30 354 C 36.9935 3.76096 0.151283 0
M  V30 355 C 36.1405 2.71335 -0.572084 0
M  V30 356 H 39.0915 1.38752 -0.770297 0
M  V30 357 H 39.1125 3.76441 0.554322 0
M  V30 358 H 38.6245 3.66806 -1.26788 0
M  V30 359 H 36.7255 3.52951 1.19399 0
M  V30 360 H 36.8385 4.78641 -0.209765 0
M  V30 361 H 35.2025 2.54696 -0.0147653 0
M  V30 362 H 35.9855 3.02938 -1.61504 0
M  V30 363 N 38.4306 0.297415 1.54768 0
M  V30 364 C 39.3936 -0.567375 2.22066 0
M  V30 365 C 40.3936 -1.06409 1.20556 0
M  V30 366 O 41.5836 -0.960691 1.45315 0
M  V30 367 C 38.7156 -1.78517 2.90421 0
M  V30 368 H 39.9086 0.0205534 2.99893 0
M  V30 369 H 37.4616 0.0482163 1.56226 0
M  V30 370 H 38.1966 -2.41303 2.16664 0
M  V30 371 H 37.9816 -1.43669 3.64831 0
M  V30 372 H 39.4716 -2.39964 3.41771 0
M  V30 373 N 39.9087 -1.5758 0.0250728 0
M  V30 374 C 40.8387 -2.13007 -0.956575 0
M  V30 375 C 41.8197 -1.0452 -1.342 0
M  V30 376 O 43.0047 -1.32332 -1.42133 0
M  V30 377 C 40.1347 -2.65386 -2.24026 0
M  V30 378 C 39.0887 -3.78623 -1.99571 0
M  V30 379 C 38.4147 -4.17414 -3.3417 0
M  V30 380 C 39.7147 -5.04867 -1.33814 0
M  V30 381 H 41.4087 -2.9528 -0.494991 0
M  V30 382 H 38.9547 -1.42042 -0.236651 0
M  V30 383 H 40.9077 -3.02794 -2.93076 0
M  V30 384 H 39.6317 -1.80268 -2.72343 0
M  V30 385 H 38.2907 -3.41646 -1.32941 0
M  V30 386 H 37.9387 -3.29284 -3.80238 0
M  V30 387 H 37.6387 -4.93719 -3.18615 0
M  V30 388 H 39.1627 -4.57402 -4.04495 0
M  V30 389 H 40.5767 -5.39888 -1.92857 0
M  V30 390 H 38.9737 -5.86144 -1.28669 0
M  V30 391 H 40.0437 -4.83904 -0.310561 0
M  V30 392 N 41.3868 0.248026 -1.55636 0
M  V30 393 C 42.3498 1.29044 -1.89421 0
M  V30 394 C 43.3498 1.41134 -0.770581 0
M  V30 395 O 44.5398 1.39854 -1.03858 0
M  V30 396 C 41.6718 2.66831 -2.12165 0
M  V30 397 H 42.8648 1.00305 -2.82629 0
M  V30 398 H 40.4178 0.487265 -1.48511 0
M  V30 399 H 41.1528 3.00711 -1.21422 0
M  V30 400 H 40.9378 2.59438 -2.93997 0
M  V30 401 H 42.4278 3.42103 -2.3949 0
M  V30 402 N 42.8649 1.48995 0.513639 0
M  V30 403 C 43.7949 1.67636 1.62544 0
M  V30 404 C 44.7759 0.525087 1.61793 0
M  V30 405 O 45.9609 0.759502 1.78732 0
M  V30 406 C 43.0909 1.73114 3.01079 0
M  V30 407 C 42.0449 2.87905 3.16693 0
M  V30 408 C 41.3709 2.78486 4.56453 0
M  V30 409 C 42.6709 4.29005 2.97913 0
M  V30 410 H 44.3649 2.60716 1.47198 0
M  V30 411 H 41.9109 1.25465 0.706714 0
M  V30 412 H 43.8639 1.84742 3.78746 0
M  V30 413 H 42.5879 0.766241 3.17484 0
M  V30 414 H 41.2469 2.75859 2.41448 0
M  V30 415 H 40.8949 1.7993 4.69717 0
M  V30 416 H 40.5949 3.55523 4.67843 0
M  V30 417 H 42.1189 2.92104 5.36197 0
M  V30 418 H 43.5329 4.41798 3.65359 0
M  V30 419 H 41.9299 5.07166 3.20785 0
M  V30 420 H 42.9999 4.44329 1.94165 0
M  V30 421 N 44.343 -0.763751 1.37857 0
M  V30 422 C 45.306 -1.85889 1.34081 0
M  V30 423 C 46.306 -1.58949 0.243277 0
M  V30 424 O 47.496 -1.66882 0.499589 0
M  V30 425 C 44.628 -3.23176 1.08489 0
M  V30 426 H 45.821 -1.90648 2.31502 0
M  V30 427 H 43.374 -0.964367 1.23003 0
M  V30 428 H 44.109 -3.24091 0.116318 0
M  V30 429 H 43.894 -3.44124 1.8794 0
M  V30 430 H 45.384 -4.03254 1.08517 0
M  V30 431 N 45.8211 -1.22559 -0.990812 0
M  V30 432 C 47.0691 -1.04933 -1.72724 0
M  V30 433 C 47.3901 0.416158 -1.90508 0
M  V30 434 O 46.6601 1.29918 -1.46622 0
M  V30 435 H 45.2401 -0.385296 -0.639965 0
M  V30 436 H 47.9021 -1.54105 -1.19322 0
M  V30 437 H 46.9981 -1.52886 -2.72089 0
M  V30 438 N 47.2992 1.18797 -1.03562 0
M  V30 439 C 48.5292 1.92319 -0.754773 0
M  V30 440 C 48.9372 1.7612 0.691248 0
M  V30 441 O 48.2802 1.08491 1.48241 0
M  V30 442 C 48.3422 3.44284 -1.03484 0
M  V30 443 C 48.0062 3.84258 -2.47376 0
M  V30 444 C 49.0032 3.88459 -3.45537 0
M  V30 445 C 46.6882 4.15701 -2.81954 0
M  V30 446 C 48.6822 4.23545 -4.76328 0
M  V30 447 C 46.3692 4.50458 -4.12954 0
M  V30 448 C 47.3672 4.54356 -5.09951 0
M  V30 449 O 47.0552 4.88305 -6.38603 0
M  V30 450 H 46.7872 0.617527 -0.275021 0
M  V30 451 H 49.3412 1.51683 -1.38497 0
M  V30 452 H 47.5712 3.85135 -0.347513 0
M  V30 453 H 49.2602 3.99049 -0.7426 0
M  V30 454 H 50.0262 3.6431 -3.20162 0
M  V30 455 H 45.9052 4.11847 -2.0713 0
M  V30 456 H 49.4492 4.26502 -5.52035 0
M  V30 457 H 45.3462 4.74067 -4.38099 0
M  V30 458 H 46.1142 5.06227 -6.43177 0
M  V30 459 N 48.7773 0.814389 1.34928 0
M  V30 460 C 50.0263 0.394871 1.97797 0
M  V30 461 C 50.3393 -1.04555 1.65311 0
M  V30 462 O 51.5453 -1.56856 2.21604 0
M  V30 463 C 50.0013 0.655103 3.53888 0
M  V30 464 C 49.6093 2.10858 3.95276 0
M  V30 465 C 51.3533 0.301329 4.23429 0
M  V30 466 C 49.2603 2.31415 5.44244 0
M  V30 467 H 48.1903 0.143913 0.740139 0
M  V30 468 H 50.8413 0.999544 1.53888 0
M  V30 469 H 49.2233 -0.0196253 3.95995 0
M  V30 470 H 50.3973 2.82176 3.64298 0
M  V30 471 H 48.7123 2.42297 3.38646 0
M  V30 472 H 51.3093 0.432869 5.32945 0
M  V30 473 H 51.6523 -0.75331 4.09428 0
M  V30 474 H 52.1853 0.930288 3.86769 0
M  V30 475 H 48.9243 3.35353 5.63222 0
M  V30 476 H 48.4443 1.6463 5.76764 0
M  V30 477 H 50.1233 2.13352 6.10811 0
M  V30 478 N 50.2554 -1.46986 0.568584 0
M  V30 479 C 51.1654 -2.33942 -0.17555 0
M  V30 480 C 52.1814 -1.48891 -0.90041 0
M  V30 481 O 53.3574 -1.81794 -0.86676 0
M  V30 482 C 50.4224 -3.25811 -1.18524 0
M  V30 483 C 49.4834 -4.26757 -0.466582 0
M  V30 484 C 48.7164 -5.14236 -1.42817 0
M  V30 485 O 48.9394 -5.04379 -2.66379 0
M  V30 486 O 47.8734 -5.94412 -0.946453 0
M  V30 487 H 51.6994 -2.98896 0.538036 0
M  V30 488 H 49.2844 -1.4573 0.329097 0
M  V30 489 H 51.1664 -3.82527 -1.76779 0
M  V30 490 H 49.8414 -2.63471 -1.88055 0
M  V30 491 H 48.7484 -3.73769 0.157451 0
M  V30 492 H 50.0814 -4.91843 0.187485 0
M  V30 493 N 51.7335 -0.305618 -1.54608 0
M  V30 494 C 52.6965 0.555591 -2.22364 0
M  V30 495 C 53.6965 1.05768 -1.21119 0
M  V30 496 O 54.8865 0.952972 -1.45822 0
M  V30 497 C 52.0185 1.76974 -2.91364 0
M  V30 498 H 53.2115 -0.0364572 -2.99878 0
M  V30 499 H 50.7645 -0.0565007 -1.56198 0
M  V30 500 H 51.4995 2.40151 -2.17941 0
M  V30 501 H 51.2845 1.41732 -3.65588 0
M  V30 502 H 52.7745 2.38148 -3.43038 0
M  V30 503 N 53.2116 1.57565 -0.0334293 0
M  V30 504 C 54.1416 2.13511 0.945265 0
M  V30 505 C 55.1226 1.05231 1.33643 0
M  V30 506 O 56.3076 1.33084 1.41429 0
M  V30 507 C 53.4376 2.6657 2.22616 0
M  V30 508 C 52.3916 3.79676 1.97561 0
M  V30 509 C 51.7176 4.1918 3.31952 0
M  V30 510 C 53.0176 5.0557 1.31135 0
M  V30 511 H 54.7116 2.95538 0.479325 0
M  V30 512 H 52.2576 1.42166 0.229115 0
M  V30 513 H 54.2106 3.04344 2.91466 0
M  V30 514 H 52.9346 1.8171 2.71384 0
M  V30 515 H 51.5936 3.42347 1.31127 0
M  V30 516 H 51.2416 3.31296 3.78487 0
M  V30 517 H 50.9416 4.95402 3.15992 0
M  V30 518 H 52.4656 4.59541 4.02063 0
M  V30 519 H 53.8796 5.40903 1.89992 0
M  V30 520 H 52.2766 5.86818 1.25559 0
M  V30 521 H 53.3466 4.84062 0.284894 0
M  V30 522 N 54.6897 -0.239769 1.55765 0
M  V30 523 C 55.6527 -1.28038 1.90103 0
M  V30 524 C 56.6527 -1.40723 0.778055 0
M  V30 525 O 57.8427 -1.39301 1.04599 0
M  V30 526 C 54.9747 -2.65702 2.13577 0
M  V30 527 H 56.1677 -0.988048 2.83157 0
M  V30 528 H 53.7207 -0.479382 1.48767 0
M  V30 529 H 54.4557 -3.00063 1.23015 0
M  V30 530 H 54.2407 -2.57875 2.95369 0
M  V30 531 H 55.7307 -3.40828 2.41301 0
M  V30 532 N 56.1678 -1.49265 -0.50573 0
M  V30 533 C 57.1308 -1.65075 -1.59006 0
M  V30 534 C 58.1308 -0.522768 -1.52065 0
M  V30 535 O 59.3208 -0.789117 -1.55302 0
M  V30 536 C 56.4528 -1.64369 -2.98656 0
M  V30 537 H 57.6458 -2.61784 -1.46319 0
M  V30 538 H 55.1988 -1.38226 -0.729616 0
M  V30 539 H 55.9338 -0.692272 -3.16825 0
M  V30 540 H 55.7188 -2.46282 -3.05103 0
M  V30 541 H 57.2088 -1.78674 -3.77446 0
M  V30 542 N 57.6459 0.756429 -1.3826 0
M  V30 543 C 58.5939 1.89149 -1.35372 0
M  V30 544 C 59.5879 1.67691 -0.24004 0
M  V30 545 O 60.7939 1.75294 -0.408919 0
M  V30 546 H 57.1689 0.622271 -0.422236 0
M  V30 547 H 59.1399 1.88701 -2.31159 0
M  V30 548 C 57.8889 3.26599 -1.19284 0
M  V30 549 H 57.2119 3.43695 -2.0424 0
M  V30 550 H 58.6519 4.06274 -1.21316 0
M  V30 551 C 57.1109 3.3675 0.100454 0
M  V30 552 O 57.6409 3.86951 1.07851 0
M  V30 553 N 55.8469 2.90179 0.15633 0
M  V30 554 H 55.3939 2.49517 -0.640253 0
M  V30 555 H 55.3519 2.97352 1.02123 0
M  V30 556 N 59.124 1.23083 0.984299 0
M  V30 557 C 60.087 1.00979 2.05757 0
M  V30 558 C 61.087 -0.0269573 1.60777 0
M  V30 559 O 62.277 0.212403 1.729 0
M  V30 560 C 59.409 0.527072 3.36801 0
M  V30 561 H 60.602 1.9622 2.26799 0
M  V30 562 H 58.155 1.05072 1.15714 0
M  V30 563 H 58.89 -0.429294 3.21446 0
M  V30 564 H 58.675 1.27515 3.70786 0
M  V30 565 H 60.165 0.392942 4.15747 0
M  V30 566 N 60.6021 -1.18246 1.0419 0
M  V30 567 C 61.8501 -1.87886 0.744543 0
M  V30 568 C 62.1711 -1.8082 -0.730006 0
M  V30 569 O 61.4411 -1.22736 -1.52685 0
M  V30 570 H 60.0211 -0.695556 0.272417 0
M  V30 571 H 62.6831 -1.43494 1.31892 0
M  V30 572 H 61.7791 -2.9389 1.05049 0
M  V30 573 N 62.0802 -0.821533 -1.34494 0
M  V30 574 C 63.3082 -0.421884 -2.02553 0
M  V30 575 C 63.7232 0.971745 -1.61872 0
M  V30 576 O 63.0802 1.62864 -0.823496 0
M  V30 577 C 63.1312 -0.51285 -3.57844 0
M  V30 578 O 62.8522 -1.85155 -3.97051 0
M  V30 579 C 64.3532 -0.107921 -4.43169 0
M  V30 580 H 61.5732 -0.169482 -0.649243 0
M  V30 581 H 64.1172 -1.1093 -1.71798 0
M  V30 582 H 62.2722 0.126474 -3.87193 0
M  V30 583 H 62.6862 -1.82482 -4.91732 0
M  V30 584 H 64.1602 -0.222657 -5.51551 0
M  V30 585 H 64.6372 0.948401 -4.28838 0
M  V30 586 H 65.2432 -0.720989 -4.19144 0
M  V30 587 N 63.5583 1.46682 -0.576371 0
M  V30 588 C 64.8063 2.02013 -0.0594163 0
M  V30 589 C 65.1273 1.45101 1.30271 0
M  V30 590 O 64.3973 0.633317 1.8538 0
M  V30 591 H 62.9773 0.746759 -0.0189745 0
M  V30 592 H 65.6393 1.79862 -0.750717 0
M  V30 593 H 64.7353 3.12097 0.014345 0
M  V30 594 N 65.0364 0.313813 1.54444 0
M  V30 595 C 66.2834 -0.291675 2.00388 0
M  V30 596 C 66.6114 -1.52904 1.2021 0
M  V30 597 O 65.8664 -1.93833 0.269707 0
M  V30 598 C 66.1654 -0.680386 3.50864 0
M  V30 599 C 65.8314 0.456699 4.48581 0
M  V30 600 C 64.4934 0.768824 4.75018 0
M  V30 601 C 66.8454 1.22098 5.06697 0
M  V30 602 C 64.1734 1.84812 5.56831 0
M  V30 603 C 66.5254 2.29029 5.89685 0
M  V30 604 C 65.1894 2.60834 6.14428 0
M  V30 605 H 64.4594 -0.106732 0.733273 0
M  V30 606 H 67.1064 0.43557 1.86481 0
M  V30 607 H 65.4114 -1.48791 3.62448 0
M  V30 608 H 67.1084 -1.16026 3.83847 0
M  V30 609 H 63.6984 0.203337 4.28117 0
M  V30 610 H 67.8824 0.993096 4.86263 0
M  V30 611 H 63.1384 2.09912 5.74236 0
M  V30 612 H 67.3124 2.887 6.33739 0
M  V30 613 H 64.9394 3.44596 6.77612 0
M  V30 614 N 66.5145 -1.57545 0.0417849 0
M  V30 615 C 67.4775 -2.09885 -0.92093 0
M  V30 616 C 68.4775 -1.01648 -1.24596 0
M  V30 617 O 69.6675 -1.27759 -1.1842 0
M  V30 618 C 66.7995 -2.57527 -2.23367 0
M  V30 619 H 67.9925 -2.96236 -0.467382 0
M  V30 620 H 65.5455 -1.5493 -0.206467 0
M  V30 621 H 66.2805 -1.74542 -2.73323 0
M  V30 622 H 66.0655 -3.36613 -2.01083 0
M  V30 623 H 67.5555 -2.98201 -2.92346 0
M  V30 624 N 67.9926 0.231505 -1.5589 0
M  V30 625 C 69.2386 0.95877 -1.78705 0
M  V30 626 C 69.5716 1.8438 -0.609725 0
M  V30 627 O 68.8466 1.90521 0.391426 0
M  V30 628 C 69.1296 1.8062 -3.11526 0
M  V30 629 C 68.9826 0.948328 -4.39689 0
M  V30 630 C 70.3016 2.78585 -3.40703 0
M  V30 631 H 67.4206 0.347129 -0.650131 0
M  V30 632 H 70.0626 0.228259 -1.88624 0
M  V30 633 H 68.2126 2.42902 -3.03201 0
M  V30 634 H 69.8846 0.343016 -4.60023 0
M  V30 635 H 68.1276 0.253314 -4.3306 0
M  V30 636 H 68.7986 1.57543 -5.29041 0
M  V30 637 H 71.2746 2.26439 -3.49091 0
M  V30 638 H 70.1506 3.34988 -4.34826 0
M  V30 639 H 70.4116 3.55825 -2.62375 0
M  V30 640 N 69.4707 1.49531 0.497807 0
M  V30 641 C 70.4337 1.65916 1.58128 0
M  V30 642 C 71.4337 0.530825 1.51786 0
M  V30 643 O 72.6237 0.797342 1.54881 0
M  V30 644 C 69.7557 1.65951 2.9778 0
M  V30 645 H 70.9487 2.62556 1.44929 0
M  V30 646 H 68.5017 1.38611 0.722275 0
M  V30 647 H 69.2367 0.709065 3.16453 0
M  V30 648 H 69.0217 2.47897 3.03792 0
M  V30 649 H 70.5117 1.80673 3.76493 0
M  V30 650 N 70.9488 -0.749086 1.3866 0
M  V30 651 C 71.8588 -1.89358 1.38494 0
M  V30 652 C 72.8748 -1.71708 0.281476 0
M  V30 653 O 74.0508 -1.94554 0.520643 0
M  V30 654 C 71.1158 -3.24782 1.21316 0
M  V30 655 C 70.1768 -3.54926 2.41508 0
M  V30 656 C 69.4098 -4.83888 2.2514 0
M  V30 657 O 69.6328 -5.56592 1.24746 0
M  V30 658 O 68.5668 -5.13612 3.13826 0
M  V30 659 H 72.3928 -1.92452 2.34938 0
M  V30 660 H 69.9778 -0.894981 1.19626 0
M  V30 661 H 71.8598 -4.05739 1.13814 0
M  V30 662 H 70.5348 -3.2249 0.279592 0
M  V30 663 H 69.4418 -2.74112 2.54585 0
M  V30 664 H 70.7748 -3.61983 3.3351 0
M  V30 665 N 72.4269 -1.23603 -0.977757 0
M  V30 666 C 73.8379 -1.06424 -1.53398 0
M  V30 667 C 74.1889 0.367578 -1.92726 0
M  V30 668 O 73.3139 1.25465 -1.76316 0
M  V30 669 C 73.9089 -1.92568 -2.78753 0
M  V30 670 C 72.4679 -1.79642 -3.30765 0
M  V30 671 C 71.6149 -1.88111 -2.03739 0
M  V30 672 H 74.5659 -1.37227 -0.797152 0
M  V30 673 H 74.5869 -1.45203 -3.51705 0
M  V30 674 H 74.0989 -2.96771 -2.50098 0
M  V30 675 H 72.1999 -0.782325 -3.64294 0
M  V30 676 H 72.3129 -2.63174 -4.00345 0
M  V30 677 H 70.6769 -1.31723 -2.17994 0
M  V30 678 H 71.4599 -2.93875 -1.77461 0
M  V30 679 N 73.905 1.17692 -1.04816 0
M  V30 680 C 74.837 2.21103 -0.603822 0
M  V30 681 C 75.85 1.59411 0.33046 0
M  V30 682 O 77.039 1.7807 0.12379 0
M  V30 683 C 74.139 3.38623 0.136898 0
M  V30 684 C 73.312 4.29888 -0.807137 0
M  V30 685 C 72.371 5.26088 -0.10836 0
M  V30 686 O 71.397 5.64353 -0.741232 0
M  V30 687 N 72.599 5.68882 1.15558 0
M  V30 688 H 75.364 2.59848 -1.49329 0
M  V30 689 H 72.925 1.32553 -0.929587 0
M  V30 690 H 74.917 4.00009 0.614401 0
M  V30 691 H 73.487 2.98508 0.927993 0
M  V30 692 H 72.707 3.65993 -1.46434 0
M  V30 693 H 73.995 4.87759 -1.44807 0
M  V30 694 H 73.393 5.39861 1.69015 0
M  V30 695 H 71.95 6.32429 1.57722 0
M  V30 696 N 75.3831 0.828654 1.34056 0
M  V30 697 C 76.6321 0.415828 1.97367 0
M  V30 698 C 76.9451 -1.02796 1.6641 0
M  V30 699 O 78.1511 -1.54497 2.23255 0
M  V30 700 C 76.6071 0.692601 3.53173 0
M  V30 701 C 76.2151 2.15038 3.93017 0
M  V30 702 C 77.9591 0.346222 4.23086 0
M  V30 703 C 75.8661 2.37174 5.41758 0
M  V30 704 H 74.7961 0.151755 0.738571 0
M  V30 705 H 77.4471 1.01581 1.52819 0
M  V30 706 H 75.8291 0.0223764 3.95994 0
M  V30 707 H 77.0031 2.86024 3.61285 0
M  V30 708 H 75.3181 2.45875 3.36057 0
M  V30 709 H 77.9151 0.48937 5.32456 0
M  V30 710 H 78.2581 -0.709842 4.10204 0
M  V30 711 H 78.7911 0.971258 3.85761 0
M  V30 712 H 75.5301 3.41308 5.59633 0
M  V30 713 H 75.0501 1.70738 5.74986 0
M  V30 714 H 76.7291 2.19818 6.08514 0
M  V30 715 N 76.8612 -1.46375 0.584142 0
M  V30 716 C 77.8242 -2.28784 -0.138108 0
M  V30 717 C 78.8242 -1.38471 -0.817462 0
M  V30 718 O 80.0142 -1.60833 -0.669199 0
M  V30 719 C 77.1462 -3.18892 -1.20503 0
M  V30 720 H 78.3392 -2.94117 0.586127 0
M  V30 721 H 75.8922 -1.52509 0.342171 0
M  V30 722 H 76.6272 -2.58309 -1.96079 0
M  V30 723 H 76.4122 -3.85388 -0.722384 0
M  V30 724 H 77.9022 -3.80914 -1.71155 0
M  V30 725 N 78.3393 -0.321999 -1.54275 0
M  V30 726 C 79.2723 0.58718 -2.20516 0
M  V30 727 C 80.2503 1.11693 -1.18167 0
M  V30 728 O 81.4343 1.18122 -1.46899 0
M  V30 729 C 78.5613 1.80554 -2.86562 0
M  V30 730 C 77.6073 1.40718 -4.02617 0
M  V30 731 S 78.4403 0.445218 -5.33646 0
M  V30 732 C 79.5963 1.6709 -6.03185 0
M  V30 733 H 79.8293 0.0244875 -2.9729 0
M  V30 734 H 77.3623 -0.106087 -1.54035 0
M  V30 735 H 79.3203 2.50462 -3.25237 0
M  V30 736 H 77.9813 2.33942 -2.09595 0
M  V30 737 H 77.1743 2.31501 -4.47687 0
M  V30 738 H 76.7763 0.78782 -3.65608 0
M  V30 739 H 79.0683 2.60856 -6.25268 0
M  V30 740 H 80.0113 1.26239 -6.96756 0
M  V30 741 H 80.4193 1.85716 -5.33076 0
M  V30 742 N 79.8174 1.5752 -0.0501392 0
M  V30 743 C 81.0644 1.9265 0.623874 0
M  V30 744 C 81.3924 0.928411 1.70912 0
M  V30 745 O 80.6474 -0.0594525 1.9561 0
M  V30 746 C 80.9464 3.34467 1.25963 0
M  V30 747 C 80.6124 4.49883 0.302689 0
M  V30 748 C 79.2744 4.81184 0.0393636 0
M  V30 749 C 81.6264 5.20002 -0.353205 0
M  V30 750 C 78.9544 5.79951 -0.887308 0
M  V30 751 C 81.3064 6.1976 -1.26806 0
M  V30 752 C 79.9704 6.49491 -1.54007 0
M  V30 753 H 79.2404 0.704957 0.228292 0
M  V30 754 H 81.8874 1.91146 -0.116398 0
M  V30 755 H 80.1924 3.32333 2.07514 0
M  V30 756 H 81.8894 3.58928 1.78806 0
M  V30 757 H 78.4794 4.25457 0.518109 0
M  V30 758 H 82.6634 4.96033 -0.162854 0
M  V30 759 H 77.9194 6.01322 -1.10553 0
M  V30 760 H 82.0934 6.73205 -1.78236 0
M  V30 761 H 79.7204 7.25837 -2.25976 0
M  V30 762 N 81.2955 -0.223234 1.56011 0
M  V30 763 C 82.5355 -0.954962 1.8072 0
M  V30 764 C 82.8995 -1.81598 0.623384 0
M  V30 765 O 84.1005 -2.58132 0.749745 0
M  V30 766 C 82.3715 -1.77313 3.10314 0
M  V30 767 S 83.9305 -2.56073 3.56332 0
M  V30 768 H 80.7485 -0.320812 0.634508 0
M  V30 769 H 83.3505 -0.220686 1.9425 0
M  V30 770 H 82.0545 -1.13071 3.94516 0
M  V30 771 H 81.5855 -2.54974 2.99586 0
M  V30 772 H 83.6005 -3.79619 3.19536 0
M  V30 773 N 82.7736 -1.49793 -0.48987 0
M  V30 774 C 84.0216 -1.59525 -1.24081 0
M  V30 775 C 84.3426 -0.288953 -1.92847 0
M  V30 776 O 83.6126 0.692436 -1.83254 0
M  V30 777 H 82.1926 -0.587796 -0.460983 0
M  V30 778 H 84.8546 -1.86477 -0.566778 0
M  V30 779 H 83.9506 -2.39696 -1.99881 0
M  V30 780 N 84.2517 0.741722 -1.39055 0
M  V30 781 C 85.1987 1.85566 -1.37237 0
M  V30 782 C 86.1687 1.64457 -0.233072 0
M  V30 783 O 87.3537 1.85957 -0.427147 0
M  V30 784 C 84.4937 3.23004 -1.215 0
M  V30 785 C 83.6067 3.55864 -2.44918 0
M  V30 786 C 82.7417 4.82669 -2.21821 0
M  V30 787 C 81.7807 5.08351 -3.40948 0
M  V30 788 N 80.9177 6.26356 -3.17211 0
M  V30 789 H 85.7577 1.86455 -2.32462 0
M  V30 790 H 83.2947 0.911176 -1.15482 0
M  V30 791 H 85.2527 4.02331 -1.10389 0
M  V30 792 H 83.8827 3.21411 -0.29908 0
M  V30 793 H 82.9347 2.7129 -2.66657 0
M  V30 794 H 84.2467 3.70765 -3.33668 0
M  V30 795 H 83.4007 5.69962 -2.07914 0
M  V30 796 H 82.1397 4.69929 -1.30454 0
M  V30 797 H 81.1447 4.19522 -3.55361 0
M  V30 798 H 82.3697 5.22981 -4.33207 0
M  V30 799 H 80.3157 6.14917 -2.28502 0
M  V30 800 H 80.2327 6.41813 -3.99515 0
M  V30 801 H 81.5007 7.16506 -3.06984 0
M  V30 802 N 85.7298 1.2412 0.971189 0
M  V30 803 C 86.6598 1.05508 2.08304 0
M  V30 804 C 87.6408 -0.0308864 1.70072 0
M  V30 805 O 88.8258 0.135521 1.93727 0
M  V30 806 C 85.9558 0.655365 3.4106 0
M  V30 807 C 84.9098 1.68971 3.93234 0
M  V30 808 C 84.2358 1.14516 5.22293 0
M  V30 809 C 85.5358 3.08487 4.21465 0
M  V30 810 H 87.2298 1.98507 2.24132 0
M  V30 811 H 84.7758 0.955821 1.07704 0
M  V30 812 H 86.7288 0.51217 4.18276 0
M  V30 813 H 85.4528 -0.31032 3.25122 0
M  V30 814 H 84.1118 1.82106 3.18171 0
M  V30 815 H 83.7598 0.170189 5.02712 0
M  V30 816 H 83.4598 1.83635 5.58168 0
M  V30 817 H 84.9838 1.01401 6.02121 0
M  V30 818 H 86.3978 2.98601 4.89398 0
M  V30 819 H 84.7948 3.74926 4.68562 0
M  V30 820 H 85.8648 3.56787 3.28376 0
M  V30 821 N 87.2079 -1.17134 1.05439 0
M  V30 822 C 88.1559 -2.23289 0.651511 0
M  V30 823 C 89.1499 -1.66186 -0.328411 0
M  V30 824 O 90.3559 -1.78949 -0.194206 0
M  V30 825 H 86.7309 -0.726938 0.192523 0
M  V30 826 H 88.7019 -2.54565 1.55689 0
M  V30 827 C 87.4509 -3.47671 0.0448436 0
M  V30 828 H 86.7739 -3.91918 0.78996 0
M  V30 829 H 88.2139 -4.2353 -0.19964 0
M  V30 830 C 86.6729 -3.14453 -1.20918 0
M  V30 831 O 87.2029 -3.29459 -2.29825 0
M  V30 832 N 85.4089 -2.68657 -1.10779 0
M  V30 833 H 84.9559 -2.56646 -0.221526 0
M  V30 834 H 84.9139 -2.46804 -1.9477 0
M  V30 835 N 88.686 -0.835752 -1.33615 0
M  V30 836 C 89.619 -0.211815 -2.27215 0
M  V30 837 C 90.597 0.639249 -1.49507 0
M  V30 838 O 91.781 0.600193 -1.78689 0
M  V30 839 C 88.908 0.702893 -3.31326 0
M  V30 840 C 87.954 -0.0723049 -4.26439 0
M  V30 841 S 88.787 -1.42811 -5.16106 0
M  V30 842 C 89.943 -0.518613 -6.23748 0
M  V30 843 H 90.176 -1.00533 -2.79786 0
M  V30 844 H 87.709 -0.632336 -1.40858 0
M  V30 845 H 89.667 1.22505 -3.91794 0
M  V30 846 H 88.328 1.47004 -2.77576 0
M  V30 847 H 87.521 0.62359 -5.00127 0
M  V30 848 H 87.123 -0.525424 -3.70291 0
M  V30 849 H 89.415 0.284778 -6.76901 0
M  V30 850 H 90.358 -1.22556 -6.97413 0
M  V30 851 H 90.766 -0.101344 -5.64409 0
M  V30 852 N 90.1641 1.46063 -0.591896 0
M  V30 853 C 91.1141 2.27458 0.157172 0
M  V30 854 C 92.0981 1.3641 0.853301 0
M  V30 855 O 93.2901 1.60517 0.74588 0
M  V30 856 C 90.4191 3.22956 1.16423 0
M  V30 857 C 89.5051 4.2149 0.469742 0
M  V30 858 N 89.8961 5.03519 -0.479839 0
M  V30 859 C 88.1941 4.40161 0.719319 0
M  V30 860 C 88.8951 5.74904 -0.886591 0
M  V30 861 N 87.8711 5.43097 -0.233731 0
M  V30 862 H 91.6731 2.88272 -0.572392 0
M  V30 863 H 89.1871 1.57024 -0.414375 0
M  V30 864 H 91.1841 3.79986 1.71513 0
M  V30 865 H 89.8441 2.63701 1.89451 0
M  V30 866 H 90.8551 5.1078 -0.855823 0
M  V30 867 H 87.5321 3.92046 1.43548 0
M  V30 868 H 88.9221 6.50844 -1.66888 0
M  V30 869 N 91.6422 0.330177 1.54103 0
M  V30 870 C 92.8882 -0.270806 2.00984 0
M  V30 871 C 93.2212 -1.51265 1.21789 0
M  V30 872 O 92.4962 -1.92142 0.301927 0
M  V30 873 C 92.7792 -0.598339 3.55094 0
M  V30 874 C 92.6322 0.654674 4.4501 0
M  V30 875 C 93.9512 -1.41334 4.16789 0
M  V30 876 H 91.0702 -0.0969531 0.730595 0
M  V30 877 H 93.7122 0.448066 1.84641 0
M  V30 878 H 91.8622 -1.21078 3.69151 0
M  V30 879 H 93.5342 1.29285 4.42813 0
M  V30 880 H 91.7772 1.28224 4.14416 0
M  V30 881 H 92.4482 0.380944 5.50684 0
M  V30 882 H 94.9242 -0.895597 4.06347 0
M  V30 883 H 93.8002 -1.61127 5.24718 0
M  V30 884 H 94.0612 -2.41146 3.70541 0
M  V30 885 N 93.1203 -1.57491 0.0584922 0
M  V30 886 C 94.0683 -2.13148 -0.931168 0
M  V30 887 C 95.0623 -1.06507 -1.31729 0
M  V30 888 O 96.2683 -1.24906 -1.29609 0
M  V30 889 H 92.6433 -0.68137 -0.31818 0
M  V30 890 H 94.6143 -2.95187 -0.436707 0
M  V30 891 C 93.3633 -2.69732 -2.19408 0
M  V30 892 H 92.6863 -3.51454 -1.90578 0
M  V30 893 H 94.1263 -3.12287 -2.86798 0
M  V30 894 C 92.5853 -1.63855 -2.94369 0
M  V30 895 O 93.1153 -1.05565 -3.87581 0
M  V30 896 N 91.3213 -1.35202 -2.57233 0
M  V30 897 H 90.8683 -1.82791 -1.81508 0
M  V30 898 H 90.8263 -0.645922 -3.07693 0
M  V30 899 N 94.5984 0.214957 -1.56127 0
M  V30 900 C 95.8474 0.936451 -1.78643 0
M  V30 901 C 96.1604 1.85237 -0.628229 0
M  V30 902 O 97.3664 2.613 -0.737186 0
M  V30 903 C 95.8224 1.7154 -3.16389 0
M  V30 904 C 95.4304 0.845299 -4.39953 0
M  V30 905 C 97.1744 2.42772 -3.48227 0
M  V30 906 C 95.0814 1.62198 -5.68723 0
M  V30 907 H 94.0114 0.353401 -0.666051 0
M  V30 908 H 96.6624 0.190169 -1.82512 0
M  V30 909 H 95.0444 2.50484 -3.06715 0
M  V30 910 H 96.2184 0.0959353 -4.607 0
M  V30 911 H 94.5334 0.244789 -4.1568 0
M  V30 912 H 97.1304 3.01394 -4.41663 0
M  V30 913 H 97.4734 3.15984 -2.71035 0
M  V30 914 H 98.0064 1.70813 -3.5926 0
M  V30 915 H 94.7454 0.933011 -6.48826 0
M  V30 916 H 94.2654 2.34579 -5.52026 0
M  V30 917 H 95.9444 2.18095 -6.09133 0
M  V30 918 N 96.0765 1.50051 0.48192 0
M  V30 919 C 97.0085 1.64263 1.59844 0
M  V30 920 C 98.0215 0.52451 1.54119 0
M  V30 921 O 99.2105 0.797293 1.59704 0
M  V30 922 C 96.3105 1.60102 2.98698 0
M  V30 923 C 95.4835 2.87767 3.29407 0
M  V30 924 C 94.5425 2.76397 4.47762 0
M  V30 925 O 93.5685 3.50348 4.48603 0
M  V30 926 N 94.7705 1.89222 5.48794 0
M  V30 927 H 97.5355 2.60566 1.48073 0
M  V30 928 H 95.0965 1.47379 0.670149 0
M  V30 929 H 97.0885 1.50123 3.75826 0
M  V30 930 H 95.6585 0.715798 3.04294 0
M  V30 931 H 94.8785 3.11954 2.40994 0
M  V30 932 H 96.1665 3.72365 3.4673 0
M  V30 933 H 95.5645 1.28434 5.50928 0
M  V30 934 H 94.1215 1.85154 6.24949 0
M  V30 935 N 97.5546 -0.734337 1.39446 0
M  V30 936 C 98.7826 -1.52358 1.39981 0
M  V30 937 C 99.1976 -1.88799 -0.0054975 0
M  V30 938 O 98.5546 -1.54146 -0.976998 0
M  V30 939 C 98.6056 -2.81072 2.27333 0
M  V30 940 O 98.3266 -2.46178 3.62392 0
M  V30 941 C 99.8276 -3.75096 2.36259 0
M  V30 942 H 97.0476 -0.470806 0.478103 0
M  V30 943 H 99.5916 -0.907339 1.83269 0
M  V30 944 H 97.7466 -3.39026 1.87457 0
M  V30 945 H 98.1606 -3.28866 4.08592 0
M  V30 946 H 99.6346 -4.62305 3.01626 0
M  V30 947 H 100.112 -4.16892 1.38194 0
M  V30 948 H 100.718 -3.23061 2.76608 0
M  V30 949 N 99.0327 -1.24633 -0.964593 0
M  V30 950 C 100.281 -1.08573 -1.70459 0
M  V30 951 C 100.602 0.375655 -1.91347 0
M  V30 952 O 99.8717 1.26779 -1.49345 0
M  V30 953 H 98.4517 -0.398784 -0.631649 0
M  V30 954 H 101.114 -1.56601 -1.16026 0
M  V30 955 H 100.21 -1.58623 -2.68785 0
M  V30 956 N 100.511 1.16574 -1.06058 0
M  V30 957 C 101.458 2.20883 -0.669263 0
M  V30 958 C 102.428 1.62729 0.332918 0
M  V30 959 O 103.613 1.895 0.222346 0
M  V30 960 C 100.753 3.45049 -0.0593572 0
M  V30 961 C 99.8658 4.17458 -1.11143 0
M  V30 962 C 99.0008 5.29135 -0.467916 0
M  V30 963 C 98.0398 5.93343 -1.50369 0
M  V30 964 N 97.1768 6.96516 -0.883706 0
M  V30 965 H 102.017 2.53709 -1.5632 0
M  V30 966 H 99.5538 1.24616 -0.781625 0
M  V30 967 H 101.512 4.16033 0.311771 0
M  V30 968 H 100.142 3.12781 0.797992 0
M  V30 969 H 99.1938 3.45101 -1.60029 0
M  V30 970 H 100.506 4.61307 -1.89731 0
M  V30 971 H 99.6598 6.06684 -0.0436871 0
M  V30 972 H 98.3988 4.86443 0.349864 0
M  V30 973 H 97.4038 5.14517 -1.93784 0
M  V30 974 H 98.6288 6.38114 -2.32352 0
M  V30 975 H 96.5748 6.55943 -0.086595 0
M  V30 976 H 96.4918 7.38723 -1.607 0
M  V30 977 H 97.7598 7.77993 -0.484543 0
M  V30 978 N 101.989 0.842826 1.3317 0
M  V30 979 C 103.235 0.450342 1.98352 0
M  V30 980 C 103.59 -0.980508 1.65541 0
M  V30 981 O 102.883 -1.67678 0.927065 0
M  V30 982 C 103.077 0.612607 3.52111 0
M  V30 983 C 102.906 2.05768 3.99862 0
M  V30 984 C 101.676 2.69374 4.27511 0
M  V30 985 C 103.874 3.02688 4.15794 0
M  V30 986 N 101.856 4.04915 4.61429 0
M  V30 987 C 103.227 4.23186 4.53115 0
M  V30 988 C 105.282 2.99041 3.98094 0
M  V30 989 C 103.985 5.40518 4.74587 0
M  V30 990 C 106.011 4.15607 4.20743 0
M  V30 991 C 105.373 5.3486 4.58371 0
M  V30 992 H 101.472 0.213296 0.752349 0
M  V30 993 H 104.056 1.09173 1.61212 0
M  V30 994 H 102.227 0.000998822 3.884 0
M  V30 995 H 103.959 0.191179 4.04248 0
M  V30 996 H 100.714 2.20485 4.19146 0
M  V30 997 H 101.138 4.74798 4.82593 0
M  V30 998 H 105.78 2.0797 3.68114 0
M  V30 999 H 103.498 6.3213 5.03425 0
M  V30 1000 H 107.084 4.14207 4.08563 0
M  V30 1001 H 105.964 6.23558 4.75547 0
M  V30 1002 N 103.467 -1.45747 0.599634 0
M  V30 1003 C 104.377 -2.34262 -0.125888 0
M  V30 1004 C 105.393 -1.50768 -0.868625 0
M  V30 1005 O 106.569 -1.83592 -0.828003 0
M  V30 1006 C 103.634 -3.28252 -1.11587 0
M  V30 1007 C 102.695 -4.27651 -0.375956 0
M  V30 1008 C 101.928 -5.1715 -1.31877 0
M  V30 1009 O 102.151 -5.09916 -2.55621 0
M  V30 1010 O 101.085 -5.96286 -0.820157 0
M  V30 1011 H 104.911 -2.97688 0.601315 0
M  V30 1012 H 102.496 -1.44999 0.359934 0
M  V30 1013 H 104.378 -3.86191 -1.68626 0
M  V30 1014 H 103.053 -2.67401 -1.82424 0
M  V30 1015 H 101.96 -3.7335 0.236698 0
M  V30 1016 H 103.293 -4.91334 0.29177 0
M  V30 1017 N 104.945 -0.338344 -1.53925 0
M  V30 1018 C 106.356 0.146651 -1.86123 0
M  V30 1019 C 106.707 1.5042 -1.2597 0
M  V30 1020 O 105.832 2.08723 -0.571294 0
M  V30 1021 C 106.427 0.272879 -3.37699 0
M  V30 1022 C 104.986 0.702103 -3.69794 0
M  V30 1023 C 104.133 -0.167304 -2.76795 0
M  V30 1024 H 107.084 -0.558123 -1.48562 0
M  V30 1025 H 107.105 1.10128 -3.64214 0
M  V30 1026 H 106.617 -0.715307 -3.81451 0
M  V30 1027 H 104.718 1.6995 -3.31584 0
M  V30 1028 H 104.831 0.495604 -4.7653 0
M  V30 1029 H 103.195 0.359527 -2.5215 0
M  V30 1030 H 103.978 -1.15253 -3.23375 0
M  V30 1031 N 106.423 1.57458 -0.0668435 0
M  V30 1032 C 107.7 1.8469 0.644132 0
M  V30 1033 C 108.08 0.958343 1.88093 0
M  V30 1034 O 107.428 0.0233579 2.28488 0
M  V30 1035 C 107.638 3.34767 0.986509 0
M  V30 1036 C 108.986 4.02159 1.36212 0
M  V30 1037 O 110.01 3.39484 1.07839 0
M  V30 1038 O 108.869 5.12694 1.89227 0
M  V30 1039 H 105.963 0.762816 0.319437 0
M  V30 1040 H 108.509 1.6942 -0.0973986 0
M  V30 1041 H 107.281 3.91151 0.107883 0
M  V30 1042 H 106.904 3.55281 1.78497 0
M  V30 1043 N 107.901 -0.206675 1.56239 0
M  V30 1044 C 109.312 -0.772383 1.69974 0
M  V30 1045 C 109.663 -1.84353 0.671436 0
M  V30 1046 O 108.788 -2.15695 -0.174491 0
M  V30 1047 C 109.383 -1.40779 3.08167 0
M  V30 1048 C 107.942 -1.92072 3.23706 0
M  V30 1049 C 107.089 -0.786347 2.65917 0
M  V30 1050 H 110.04 0.0182223 1.5869 0
M  V30 1051 H 110.061 -2.27696 3.04852 0
M  V30 1052 H 109.573 -0.627958 3.82986 0
M  V30 1053 H 107.674 -2.7281 2.53782 0
M  V30 1054 H 107.787 -2.09046 4.31087 0
M  V30 1055 H 106.151 -1.1976 2.24788 0
M  V30 1056 H 106.934 -0.0189416 3.43295 0
M  V30 1057 N 109.379 -1.50304 -0.473955 0
M  V30 1058 C 110.607 -1.64902 -1.24959 0
M  V30 1059 C 111.022 -0.331198 -1.85872 0
M  V30 1060 O 110.379 0.68652 -1.69095 0
M  V30 1061 C 110.43 -2.73803 -2.36038 0
M  V30 1062 O 110.151 -4.00477 -1.77624 0
M  V30 1063 C 111.652 -2.99349 -3.26964 0
M  V30 1064 H 108.872 -0.554383 -0.378022 0
M  V30 1065 H 111.416 -1.9651 -0.566054 0
M  V30 1066 H 109.571 -2.44898 -3.00173 0
M  V30 1067 H 109.985 -4.60678 -2.5075 0
M  V30 1068 H 111.459 -3.79217 -4.01121 0
M  V30 1069 H 111.936 -2.10307 -3.85574 0
M  V30 1070 H 112.542 -3.29774 -2.68569 0
M  V30 1071 N 110.857 0.726932 -1.39834 0
M  V30 1072 C 112.105 1.4837 -1.37225 0
M  V30 1073 C 112.426 1.94979 0.0284857 0
M  V30 1074 O 111.696 1.69555 0.981213 0
M  V30 1075 H 110.276 0.55043 -0.505011 0
M  V30 1076 H 112.938 0.862468 -1.74778 0
M  V30 1077 H 112.034 2.36198 -2.04003 0
M  V30 1078 N 112.336 1.25143 0.95797 0
M  V30 1079 C 113.564 1.12424 1.73691 0
M  V30 1080 C 113.979 -0.322304 1.86029 0
M  V30 1081 O 113.336 -1.22186 1.35561 0
M  V30 1082 C 113.387 1.76933 3.15241 0
M  V30 1083 O 113.108 3.15932 3.03511 0
M  V30 1084 C 114.609 1.6995 4.09429 0
M  V30 1085 H 111.829 0.3923 0.544373 0
M  V30 1086 H 114.373 1.6544 1.20207 0
M  V30 1087 H 112.528 1.27895 3.6568 0
M  V30 1088 H 112.942 3.47598 3.9278 0
M  V30 1089 H 114.416 2.19753 5.06372 0
M  V30 1090 H 114.893 0.662619 4.34173 0
M  V30 1091 H 115.499 2.18461 3.64904 0
M  V30 1092 N 113.814 -1.1601 1.06675 0
M  V30 1093 C 114.761 -2.20525 0.680967 0
M  V30 1094 C 115.731 -1.62904 -0.324283 0
M  V30 1095 O 116.916 -1.89615 -0.212294 0
M  V30 1096 C 114.056 -3.45013 0.0776551 0
M  V30 1097 C 113.169 -4.16863 1.13355 0
M  V30 1098 C 112.304 -5.2888 0.49597 0
M  V30 1099 C 111.343 -5.92537 1.53513 0
M  V30 1100 N 110.48 -6.96038 0.920631 0
M  V30 1101 H 115.32 -2.52876 1.57663 0
M  V30 1102 H 112.857 -1.24199 0.788223 0
M  V30 1103 H 114.815 -4.16193 -0.289704 0
M  V30 1104 H 113.445 -3.132 -0.781393 0
M  V30 1105 H 112.497 -3.44248 1.61857 0
M  V30 1106 H 113.809 -4.60294 1.92174 0
M  V30 1107 H 112.963 -6.06653 0.0758604 0
M  V30 1108 H 111.702 -4.86622 -0.324062 0
M  V30 1109 H 110.707 -5.13482 1.9651 0
M  V30 1110 H 111.932 -6.36873 2.35733 0
M  V30 1111 H 109.878 -6.55888 0.12138 0
M  V30 1112 H 109.795 -7.3786 1.64616 0
M  V30 1113 H 111.063 -7.77725 0.525795 0
M  V30 1114 N 115.292 -0.849877 -1.32721 0
M  V30 1115 C 116.517 -0.463856 -2.02146 0
M  V30 1116 C 116.942 0.930449 -1.63476 0
M  V30 1117 O 116.3 1.61033 -0.832952 0
M  V30 1118 C 116.348 -0.604955 -3.55489 0
M  V30 1119 O 115.452 0.36425 -4.10788 0
M  V30 1120 H 114.793 -0.187046 -0.637111 0
M  V30 1121 H 117.323 -1.14775 -1.69375 0
M  V30 1122 H 117.333 -0.490696 -4.05038 0
M  V30 1123 H 116.008 -1.62174 -3.82978 0
M  V30 1124 H 114.585 0.206628 -3.72327 0
M  V30 1125 N 116.77 1.45427 -0.607355 0
M  V30 1126 C 118.01 2.04128 -0.105458 0
M  V30 1127 C 118.374 1.46555 1.24039 0
M  V30 1128 O 119.575 1.96608 1.833 0
M  V30 1129 C 117.846 3.57338 -0.0665324 0
M  V30 1130 S 119.405 4.37201 0.374207 0
M  V30 1131 H 116.223 0.709278 -0.0494575 0
M  V30 1132 H 118.825 1.78139 -0.805404 0
M  V30 1133 H 117.529 3.96752 -1.04957 0
M  V30 1134 H 117.06 3.87902 0.655415 0
M  V30 1135 H 119.075 4.6888 1.62377 0
M  V30 1136 N 118.248 0.346503 1.53744 0
M  V30 1137 C 119.495 -0.249104 2.00962 0
M  V30 1138 C 119.823 -1.5032 1.23426 0
M  V30 1139 O 119.078 -1.93217 0.310761 0
M  V30 1140 C 119.377 -0.605809 3.52228 0
M  V30 1141 C 119.043 0.551747 4.47512 0
M  V30 1142 C 117.705 0.86941 4.73281 0
M  V30 1143 C 120.057 1.32818 5.03993 0
M  V30 1144 C 117.385 1.96582 5.52786 0
M  V30 1145 C 119.737 2.41486 5.84694 0
M  V30 1146 C 118.401 2.73808 6.08757 0
M  V30 1147 H 117.671 -0.0911538 0.735372 0
M  V30 1148 H 120.318 0.475027 1.85515 0
M  V30 1149 H 118.623 -1.4107 3.65522 0
M  V30 1150 H 120.32 -1.07858 3.86222 0
M  V30 1151 H 116.91 0.294102 4.2759 0
M  V30 1152 H 121.094 1.09602 4.84047 0
M  V30 1153 H 116.35 2.22045 5.69654 0
M  V30 1154 H 120.524 3.02078 6.27473 0
M  V30 1155 H 118.151 3.58892 6.7015 0
M  V30 1156 N 119.726 -1.57421 0.075193 0
M  V30 1157 C 120.636 -2.1642 -0.905511 0
M  V30 1158 C 121.652 -1.12828 -1.32461 0
M  V30 1159 O 122.828 -1.45109 -1.39661 0
M  V30 1160 C 119.893 -2.71693 -2.15369 0
M  V30 1161 C 118.954 -3.90171 -1.79068 0
M  V30 1162 C 118.187 -4.42798 -2.97936 0
M  V30 1163 O 118.41 -3.94416 -4.12058 0
M  V30 1164 O 117.344 -5.34085 -2.77555 0
M  V30 1165 H 121.17 -3.00588 -0.433626 0
M  V30 1166 H 118.755 -1.48664 -0.148067 0
M  V30 1167 H 120.637 -3.07104 -2.88557 0
M  V30 1168 H 119.312 -1.90582 -2.61649 0
M  V30 1169 H 118.219 -3.59606 -1.03122 0
M  V30 1170 H 119.552 -4.72584 -1.37569 0
M  V30 1171 N 121.204 0.198386 -1.56346 0
M  V30 1172 C 122.432 0.935572 -1.84539 0
M  V30 1173 C 122.847 1.76989 -0.657281 0
M  V30 1174 O 122.204 1.78626 0.374043 0
M  V30 1175 C 122.255 1.8344 -3.11499 0
M  V30 1176 O 121.976 1.03377 -4.25728 0
M  V30 1177 C 123.477 2.68355 -3.52846 0
M  V30 1178 H 120.697 0.273126 -0.612897 0
M  V30 1179 H 123.241 0.20663 -2.03453 0
M  V30 1180 H 121.396 2.51701 -2.94492 0
M  V30 1181 H 121.81 1.64599 -4.98003 0
M  V30 1182 H 123.284 3.27085 -4.44657 0
M  V30 1183 H 123.761 3.41901 -2.75681 0
M  V30 1184 H 124.367 2.05471 -3.72373 0
M  V30 1185 N 122.682 1.50554 0.465978 0
M  V30 1186 C 123.629 1.6979 1.56333 0
M  V30 1187 C 124.599 0.539239 1.57103 0
M  V30 1188 O 125.784 0.770401 1.74555 0
M  V30 1189 C 122.924 1.80273 2.94271 0
M  V30 1190 C 122.037 3.07674 3.0325 0
M  V30 1191 C 121.172 3.08922 4.32135 0
M  V30 1192 C 120.211 4.30755 4.34875 0
M  V30 1193 N 119.348 4.29714 5.55239 0
M  V30 1194 H 124.188 2.63472 1.39235 0
M  V30 1195 H 121.725 1.30602 0.676873 0
M  V30 1196 H 123.683 1.84332 3.74269 0
M  V30 1197 H 122.313 0.900258 3.09992 0
M  V30 1198 H 121.365 3.13062 2.16094 0
M  V30 1199 H 122.677 3.97642 3.01135 0
M  V30 1200 H 121.831 3.11738 5.20485 0
M  V30 1201 H 120.57 2.16792 4.36866 0
M  V30 1202 H 119.575 4.28146 3.44922 0
M  V30 1203 H 120.8 5.24117 4.31831 0
M  V30 1204 H 118.746 3.4044 5.60746 0
M  V30 1205 H 118.663 5.13456 5.54886 0
M  V30 1206 H 119.931 4.36683 6.457 0
M  V30 1207 N 124.16 -0.719506 1.40217 0
M  V30 1208 C 125.07 -1.86378 1.42479 0
M  V30 1209 C 126.086 -1.71073 0.317834 0
M  V30 1210 O 127.262 -1.93406 0.561794 0
M  V30 1211 C 124.327 -3.22136 1.28178 0
M  V30 1212 C 123.388 -3.49723 2.48982 0
M  V30 1213 C 122.621 -4.79004 2.35353 0
M  V30 1214 O 122.844 -5.53821 1.36524 0
M  V30 1215 O 121.778 -5.06839 3.2465 0
M  V30 1216 H 125.604 -1.87425 2.38968 0
M  V30 1217 H 123.189 -0.869405 1.21498 0
M  V30 1218 H 125.071 -4.03234 1.22395 0
M  V30 1219 H 123.746 -3.21825 0.347934 0
M  V30 1220 H 122.653 -2.6865 2.60342 0
M  V30 1221 H 123.986 -3.54828 3.41113 0
M  V30 1222 N 125.638 -1.25649 -0.95132 0
M  V30 1223 C 126.548 -1.08073 -2.08224 0
M  V30 1224 C 127.564 -0.0169666 -1.73992 0
M  V30 1225 O 128.74 -0.218593 -2.0021 0
M  V30 1226 C 125.805 -0.704922 -3.39458 0
M  V30 1227 C 124.866 -1.84699 -3.87537 0
M  V30 1228 C 124.099 -1.48902 -5.12508 0
M  V30 1229 O 124.322 -0.386156 -5.69091 0
M  V30 1230 O 123.256 -2.32033 -5.55378 0
M  V30 1231 H 127.082 -2.02924 -2.25954 0
M  V30 1232 H 124.667 -1.04618 -1.06656 0
M  V30 1233 H 126.549 -0.507609 -4.18332 0
M  V30 1234 H 125.224 0.214291 -3.2299 0
M  V30 1235 H 124.131 -2.09919 -3.09653 0
M  V30 1236 H 125.464 -2.74557 -4.08509 0
M  V30 1237 N 127.117 1.15442 -1.07289 0
M  V30 1238 C 128.363 1.86489 -0.796846 0
M  V30 1239 C 128.696 1.82078 0.675371 0
M  V30 1240 O 127.971 1.24346 1.4956 0
M  V30 1241 C 128.254 3.35626 -1.30489 0
M  V30 1242 C 128.107 3.48673 -2.84161 0
M  V30 1243 C 129.426 4.30357 -0.920907 0
M  V30 1244 H 126.545 0.677144 -0.290939 0
M  V30 1245 H 129.187 1.35633 -1.33056 0
M  V30 1246 H 127.337 3.79068 -0.850883 0
M  V30 1247 H 129.009 3.14099 -3.37846 0
M  V30 1248 H 127.252 2.90253 -3.22391 0
M  V30 1249 H 127.923 4.53453 -3.14777 0
M  V30 1250 H 130.399 3.94871 -1.3121 0
M  V30 1251 H 129.275 5.33193 -1.30372 0
M  V30 1252 H 129.536 4.4176 0.173226 0
M  V30 1253 N 128.595 0.856903 1.32268 0
M  V30 1254 C 129.525 0.31858 2.31316 0
M  V30 1255 C 130.506 -0.583487 1.59779 0
M  V30 1256 O 131.691 -0.503259 1.87566 0
M  V30 1257 C 128.821 -0.491979 3.43798 0
M  V30 1258 C 127.775 0.315849 4.26833 0
M  V30 1259 C 127.101 -0.619586 5.31098 0
M  V30 1260 C 128.401 1.54282 4.98993 0
M  V30 1261 H 130.095 1.14621 2.76591 0
M  V30 1262 H 127.641 0.552613 1.32974 0
M  V30 1263 H 129.594 -0.879012 4.1213 0
M  V30 1264 H 128.318 -1.35299 2.97257 0
M  V30 1265 H 126.977 0.684664 3.6015 0
M  V30 1266 H 126.625 -1.47751 4.8081 0
M  V30 1267 H 126.325 -0.0830621 5.87541 0
M  V30 1268 H 127.849 -1.00375 6.02293 0
M  V30 1269 H 129.263 1.22796 5.59995 0
M  V30 1270 H 127.66 2.01745 5.65172 0
M  V30 1271 H 128.73 2.30285 4.26728 0
M  V30 1272 N 130.073 -1.45103 0.615059 0
M  V30 1273 C 131.005 -2.28786 -0.13762 0
M  V30 1274 C 132.018 -1.40376 -0.824525 0
M  V30 1275 O 133.207 -1.64681 -0.688662 0
M  V30 1276 C 130.307 -3.16322 -1.21628 0
M  V30 1277 C 129.48 -4.33054 -0.615039 0
M  V30 1278 C 128.539 -5.01743 -1.58556 0
M  V30 1279 O 127.565 -5.58293 -1.10895 0
M  V30 1280 N 128.767 -5.01714 -2.91998 0
M  V30 1281 H 131.532 -2.94025 0.580483 0
M  V30 1282 H 129.093 -1.55373 0.45507 0
M  V30 1283 H 131.085 -3.59139 -1.86552 0
M  V30 1284 H 129.655 -2.52943 -1.83681 0
M  V30 1285 H 128.875 -3.93627 0.21245 0
M  V30 1286 H 130.163 -5.08431 -0.193704 0
M  V30 1287 H 129.561 -4.57075 -3.33316 0
M  V30 1288 H 128.118 -5.48371 -3.52325 0
M  V30 1289 N 131.551 -0.354651 -1.53558 0
M  V30 1290 C 132.781 0.239167 -2.05211 0
M  V30 1291 C 133.189 1.43879 -1.22863 0
M  V30 1292 O 132.532 1.81857 -0.259565 0
M  V30 1293 C 132.594 0.707251 -3.52474 0
M  V30 1294 C 132.258 -0.374212 -4.55465 0
M  V30 1295 C 133.255 -1.22054 -5.0537 0
M  V30 1296 C 130.94 -0.531323 -4.99482 0
M  V30 1297 C 132.934 -2.20942 -5.97882 0
M  V30 1298 C 130.621 -1.52358 -5.91802 0
M  V30 1299 C 131.619 -2.36108 -6.40892 0
M  V30 1300 O 131.307 -3.33643 -7.31394 0
M  V30 1301 H 131.039 0.0479716 -0.674296 0
M  V30 1302 H 133.593 -0.508121 -1.99016 0
M  V30 1303 H 131.823 1.50596 -3.56171 0
M  V30 1304 H 133.512 1.22285 -3.87042 0
M  V30 1305 H 134.278 -1.1103 -4.7212 0
M  V30 1306 H 130.157 0.110738 -4.60867 0
M  V30 1307 H 133.701 -2.86348 -6.36121 0
M  V30 1308 H 129.598 -1.63434 -6.24467 0
M  V30 1309 H 130.366 -3.29244 -7.4936 0
M  V30 1310 N 133.029 1.57378 -0.0835403 0
M  V30 1311 C 134.269 1.95808 0.586381 0
M  V30 1312 C 134.633 0.963706 1.66062 0
M  V30 1313 O 135.834 1.23608 2.38693 0
M  V30 1314 C 134.105 3.38808 1.13771 0
M  V30 1315 S 135.664 3.99225 1.82112 0
M  V30 1316 H 132.482 0.684675 0.191679 0
M  V30 1317 H 135.084 1.94843 -0.160194 0
M  V30 1318 H 133.788 4.08954 0.344197 0
M  V30 1319 H 133.319 3.43344 1.92038 0
M  V30 1320 H 135.334 3.87087 3.10449 0
M  V30 1321 N 134.507 -0.190092 1.56449 0
M  V30 1322 C 135.439 -1.25973 1.91477 0
M  V30 1323 C 136.452 -1.41452 0.805931 0
M  V30 1324 O 137.641 -1.41789 1.08435 0
M  V30 1325 C 134.741 -2.63117 2.13594 0
M  V30 1326 C 133.914 -2.69182 3.4476 0
M  V30 1327 C 132.973 -3.87557 3.5593 0
M  V30 1328 O 131.999 -3.74427 4.28711 0
M  V30 1329 N 133.201 -5.03224 2.89388 0
M  V30 1330 H 135.966 -0.962394 2.83828 0
M  V30 1331 H 133.527 -0.379981 1.57378 0
M  V30 1332 H 135.519 -3.40742 2.1835 0
M  V30 1333 H 134.089 -2.85319 1.27719 0
M  V30 1334 H 133.309 -1.77793 3.51828 0
M  V30 1335 H 134.597 -2.70229 4.31107 0
M  V30 1336 H 133.995 -5.16791 2.30094 0
M  V30 1337 H 132.552 -5.78778 2.99764 0
M  V30 1338 N 135.985 -1.50799 -0.457987 0
M  V30 1339 C 136.895 -1.73426 -1.57989 0
M  V30 1340 C 137.911 -0.617745 -1.62665 0
M  V30 1341 O 139.087 -0.897614 -1.80291 0
M  V30 1342 C 136.152 -1.83557 -2.94122 0
M  V30 1343 C 135.213 -3.07345 -2.99729 0
M  V30 1344 C 134.446 -3.16983 -4.29368 0
M  V30 1345 O 134.669 -2.33077 -5.20607 0
M  V30 1346 O 133.603 -4.09812 -4.40837 0
M  V30 1347 H 137.429 -2.68555 -1.41817 0
M  V30 1348 H 135.014 -1.35052 -0.638859 0
M  V30 1349 H 136.896 -1.92326 -3.74952 0
M  V30 1350 H 135.571 -0.916137 -3.10465 0
M  V30 1351 H 134.478 -3.04068 -2.1793 0
M  V30 1352 H 135.811 -3.9891 -2.88326 0
M  V30 1353 N 137.463 0.71206 -1.40597 0
M  V30 1354 C 138.396 1.83582 -1.35546 0
M  V30 1355 C 139.374 1.61032 -0.225284 0
M  V30 1356 O 140.558 1.83998 -0.409519 0
M  V30 1357 C 137.685 3.19983 -1.11034 0
M  V30 1358 C 136.731 3.61355 -2.2655 0
M  V30 1359 S 137.564 3.68062 -3.88961 0
M  V30 1360 C 138.72 5.07216 -3.66719 0
M  V30 1361 H 138.953 1.87586 -2.30648 0
M  V30 1362 H 136.486 0.879182 -1.26924 0
M  V30 1363 H 138.444 3.98734 -0.975761 0
M  V30 1364 H 137.105 3.13608 -0.175798 0
M  V30 1365 H 136.298 4.60403 -2.0505 0
M  V30 1366 H 135.9 2.8987 -2.36329 0
M  V30 1367 H 138.192 5.94238 -3.25404 0
M  V30 1368 H 139.135 5.33753 -4.6531 0
M  V30 1369 H 139.543 4.77976 -3.00332 0
M  V30 1370 N 138.941 1.26152 0.944643 0
M  V30 1371 C 140.171 1.14094 1.72239 0
M  V30 1372 C 140.579 -0.306931 1.86694 0
M  V30 1373 O 139.922 -1.22222 1.3714 0
M  V30 1374 C 139.984 1.73316 3.14963 0
M  V30 1375 C 139.648 3.2239 3.23904 0
M  V30 1376 C 140.645 4.19252 3.07447 0
M  V30 1377 C 138.33 3.62788 3.47405 0
M  V30 1378 C 140.324 5.54491 3.14353 0
M  V30 1379 C 138.011 4.98162 3.53947 0
M  V30 1380 C 139.009 5.93823 3.37436 0
M  V30 1381 O 138.697 7.26732 3.43679 0
M  V30 1382 H 138.429 0.398292 0.546205 0
M  V30 1383 H 140.983 1.67201 1.19301 0
M  V30 1384 H 139.213 1.14667 3.69308 0
M  V30 1385 H 140.902 1.56214 3.74636 0
M  V30 1386 H 141.668 3.8938 2.8915 0
M  V30 1387 H 137.547 2.88816 3.59313 0
M  V30 1388 H 141.091 6.29137 3.01384 0
M  V30 1389 H 136.988 5.27695 3.71763 0
M  V30 1390 H 137.756 7.3496 3.60245 0
M  V30 1391 N 140.419 -1.14872 1.07899 0
M  V30 1392 C 141.83 -1.67367 0.827363 0
M  V30 1393 C 142.181 -1.85236 -0.646693 0
M  V30 1394 O 141.306 -1.55974 -1.50004 0
M  V30 1395 C 141.901 -3.04016 1.49532 0
M  V30 1396 C 140.46 -3.53566 1.29106 0
M  V30 1397 C 139.607 -2.29161 1.56143 0
M  V30 1398 H 142.558 -0.990083 1.24028 0
M  V30 1399 H 142.579 -3.69219 0.919643 0
M  V30 1400 H 142.091 -2.90978 2.56814 0
M  V30 1401 H 140.192 -3.71835 0.238713 0
M  V30 1402 H 140.305 -4.34661 2.01511 0
M  V30 1403 H 138.669 -2.34978 0.982717 0
M  V30 1404 H 139.452 -2.18705 2.64619 0
M  V30 1405 N 141.898 -0.863906 -1.31812 0
M  V30 1406 C 142.808 -0.318461 -2.32428 0
M  V30 1407 C 143.824 0.568496 -1.64451 0
M  V30 1408 O 145 0.46666 -1.95919 0
M  V30 1409 C 142.065 0.476355 -3.43412 0
M  V30 1410 C 141.126 -0.43784 -4.27061 0
M  V30 1411 C 140.359 0.319138 -5.32745 0
M  V30 1412 O 140.582 1.54799 -5.48993 0
M  V30 1413 O 139.516 -0.319861 -6.01049 0
M  V30 1414 H 143.342 -1.15229 -2.80991 0
M  V30 1415 H 140.927 -0.627103 -1.35602 0
M  V30 1416 H 142.809 0.927156 -4.11074 0
M  V30 1417 H 141.484 1.28683 -2.97022 0
M  V30 1418 H 140.391 -0.937013 -3.62175 0
M  V30 1419 H 141.724 -1.21375 -4.77 0
M  V30 1420 N 143.376 1.44774 -0.622745 0
M  V30 1421 C 144.306 2.33382 0.0741861 0
M  V30 1422 C 145.287 1.47719 0.843387 0
M  V30 1423 O 146.472 1.76458 0.810934 0
M  V30 1424 C 143.602 3.30663 1.06204 0
M  V30 1425 C 142.556 4.26079 0.405037 0
M  V30 1426 C 141.882 5.13165 1.5022 0
M  V30 1427 C 143.182 5.1781 -0.683414 0
M  V30 1428 H 144.876 2.91905 -0.665713 0
M  V30 1429 H 142.422 1.40363 -0.321587 0
M  V30 1430 H 144.375 3.9153 1.55827 0
M  V30 1431 H 143.099 2.70331 1.83272 0
M  V30 1432 H 141.758 3.66532 -0.0704683 0
M  V30 1433 H 141.406 4.49191 2.26355 0
M  V30 1434 H 141.106 5.77812 1.06803 0
M  V30 1435 H 142.63 5.76902 2.00041 0
M  V30 1436 H 144.044 5.72661 -0.270631 0
M  V30 1437 H 142.441 5.91015 -1.04023 0
M  V30 1438 H 143.511 4.59326 -1.55395 0
M  V30 1439 N 144.854 0.36279 1.53368 0
M  V30 1440 C 145.786 -0.519668 2.23231 0
M  V30 1441 C 146.799 -1.04844 1.24546 0
M  V30 1442 O 147.988 -0.955296 1.50786 0
M  V30 1443 C 145.088 -1.72995 2.9142 0
M  V30 1444 C 144.261 -1.33316 4.16588 0
M  V30 1445 C 143.32 -2.40521 4.68013 0
M  V30 1446 O 142.346 -2.03027 5.3176 0
M  V30 1447 N 143.548 -3.72065 4.45587 0
M  V30 1448 H 146.313 0.078751 2.99597 0
M  V30 1449 H 143.874 0.187833 1.60807 0
M  V30 1450 H 145.866 -2.44184 3.22733 0
M  V30 1451 H 144.436 -2.2353 2.18525 0
M  V30 1452 H 143.656 -0.451236 3.91609 0
M  V30 1453 H 144.944 -1.04432 4.97967 0
M  V30 1454 H 144.342 -4.05304 3.94646 0
M  V30 1455 H 142.899 -4.39366 4.81457 0
M  V30 1456 N 146.332 -1.57332 0.0918853 0
M  V30 1457 C 147.581 -1.93412 -0.572249 0
M  V30 1458 C 147.894 -0.975515 -1.69538 0
M  V30 1459 O 149.1 -1.22991 -2.42045 0
M  V30 1460 C 147.556 -3.43648 -1.0693 0
M  V30 1461 C 147.164 -4.47994 0.0239049 0
M  V30 1462 C 148.908 -3.88695 -1.70635 0
M  V30 1463 C 146.815 -5.89381 -0.488319 0
M  V30 1464 H 145.745 -0.721939 -0.217532 0
M  V30 1465 H 148.396 -1.82735 0.167369 0
M  V30 1466 H 146.778 -3.49466 -1.8625 0
M  V30 1467 H 147.952 -4.53815 0.799277 0
M  V30 1468 H 146.267 -4.12536 0.565946 0
M  V30 1469 H 148.864 -4.91725 -2.10025 0
M  V30 1470 H 149.207 -3.27166 -2.57426 0
M  V30 1471 H 149.74 -3.85564 -0.979023 0
M  V30 1472 H 146.479 -6.54602 0.342906 0
M  V30 1473 H 145.999 -5.87037 -1.23077 0
M  V30 1474 H 147.678 -6.39863 -0.958317 0
M  V30 1475 N 147.81 0.181792 -1.56548 0
M  V30 1476 C 149.038 0.915947 -1.85521 0
M  V30 1477 C 149.453 1.76282 -0.676016 0
M  V30 1478 O 148.81 1.79012 0.355077 0
M  V30 1479 C 148.861 1.80126 -3.13427 0
M  V30 1480 O 148.582 0.988562 -4.26801 0
M  V30 1481 C 150.083 2.64597 -3.55673 0
M  V30 1482 H 147.303 0.26661 -0.61576 0
M  V30 1483 H 149.847 0.185039 -2.03661 0
M  V30 1484 H 148.002 2.48563 -2.97145 0
M  V30 1485 H 148.416 1.59308 -4.99721 0
M  V30 1486 H 149.89 3.2235 -4.48101 0
M  V30 1487 H 150.367 3.38958 -2.79292 0
M  V30 1488 H 150.973 2.0151 -3.74532 0
M  V30 1489 N 149.288 1.51039 0.449983 0
M  V30 1490 C 150.236 1.71995 1.5659 0
M  V30 1491 C 151.23 0.586029 1.5894 0
M  V30 1492 O 152.436 0.76709 1.62837 0
M  V30 1493 H 148.811 0.543233 0.520001 0
M  V30 1494 H 150.782 2.65562 1.36085 0
M  V30 1495 C 149.531 1.8506 2.9436 0
M  V30 1496 H 148.854 2.71712 2.93279 0
M  V30 1497 H 150.294 2.0374 3.71842 0
M  V30 1498 C 148.753 0.607277 3.31382 0
M  V30 1499 O 149.283 -0.243903 4.00959 0
M  V30 1500 N 147.489 0.455073 2.87015 0
M  V30 1501 H 147.036 1.14879 2.30566 0
M  V30 1502 H 146.994 -0.375611 3.12148 0
M  V30 1503 N 150.766 -0.704594 1.40972 0
M  V30 1504 C 152.012 -1.46675 1.40051 0
M  V30 1505 C 152.345 -1.94199 0.00641102 0
M  V30 1506 O 151.62 -1.68916 -0.964235 0
M  V30 1507 C 151.903 -2.68505 2.39952 0
M  V30 1508 C 151.756 -2.26805 3.88432 0
M  V30 1509 C 153.075 -3.70686 2.37233 0
M  V30 1510 H 150.194 -0.532015 0.510028 0
M  V30 1511 H 152.836 -0.803255 1.72185 0
M  V30 1512 H 150.986 -3.25114 2.1268 0
M  V30 1513 H 152.658 -1.75592 4.26574 0
M  V30 1514 H 150.901 -1.58685 4.03734 0
M  V30 1515 H 151.572 -3.14181 4.53866 0
M  V30 1516 H 154.048 -3.23731 2.61415 0
M  V30 1517 H 152.924 -4.53553 3.09162 0
M  V30 1518 H 153.185 -4.19754 1.38777 0
M  V30 1519 N 152.244 -1.26651 -0.937939 0
M  V30 1520 C 153.177 -1.02811 -2.03728 0
M  V30 1521 C 154.155 0.0481915 -1.62529 0
M  V30 1522 O 155.339 -0.0948839 -1.88261 0
M  V30 1523 C 152.466 -0.557517 -3.3408 0
M  V30 1524 C 151.512 -1.62686 -3.94253 0
M  V30 1525 S 152.345 -3.21667 -4.28125 0
M  V30 1526 C 153.501 -2.76384 -5.61572 0
M  V30 1527 H 153.734 -1.95891 -2.23638 0
M  V30 1528 H 151.267 -1.10367 -1.07974 0
M  V30 1529 H 153.225 -0.292674 -4.09455 0
M  V30 1530 H 151.886 0.353062 -3.12109 0
M  V30 1531 H 151.079 -1.24866 -4.88287 0
M  V30 1532 H 150.681 -1.84324 -3.25424 0
M  V30 1533 H 152.973 -2.2105 -6.40424 0
M  V30 1534 H 153.916 -3.69123 -6.0428 0
M  V30 1535 H 154.324 -2.15847 -5.21604 0
M  V30 1536 N 153.722 1.14298 -1.08507 0
M  V30 1537 C 154.632 2.23027 -0.727753 0
M  V30 1538 C 155.648 1.71952 0.26619 0
M  V30 1539 O 156.824 2.011 0.109882 0
M  V30 1540 C 153.889 3.46403 -0.143541 0
M  V30 1541 C 152.95 4.12413 -1.19223 0
M  V30 1542 C 152.183 5.29899 -0.635798 0
M  V30 1543 O 152.406 5.67796 0.544393 0
M  V30 1544 O 151.34 5.85717 -1.38634 0
M  V30 1545 H 155.166 2.55945 -1.63481 0
M  V30 1546 H 152.751 1.22248 -0.858817 0
M  V30 1547 H 154.633 4.21018 0.179404 0
M  V30 1548 H 153.308 3.15206 0.736659 0
M  V30 1549 H 152.215 3.39667 -1.56772 0
M  V30 1550 H 153.548 4.47718 -2.04474 0
M  V30 1551 N 155.201 0.870884 1.31352 0
M  V30 1552 C 156.164 0.332243 2.26779 0
M  V30 1553 C 157.164 -0.517302 1.52252 0
M  V30 1554 O 158.354 -0.326477 1.71113 0
M  V30 1555 C 155.486 -0.528066 3.36785 0
M  V30 1556 H 156.679 1.17469 2.75937 0
M  V30 1557 H 154.232 0.64655 1.423 0
M  V30 1558 H 154.967 -1.39167 2.92922 0
M  V30 1559 H 154.752 0.0802582 3.92018 0
M  V30 1560 H 156.242 -0.897179 4.07849 0
M  V30 1561 N 156.679 -1.44442 0.630414 0
M  V30 1562 C 157.627 -2.32437 -0.0871428 0
M  V30 1563 C 158.621 -1.47304 -0.836525 0
M  V30 1564 O 159.827 -1.63653 -0.749506 0
M  V30 1565 H 156.202 -0.750533 -0.0469495 0
M  V30 1566 H 158.173 -2.90709 0.673096 0
M  V30 1567 C 156.922 -3.31288 -1.05563 0
M  V30 1568 H 156.245 -3.96805 -0.488426 0
M  V30 1569 H 157.685 -3.9554 -1.52721 0
M  V30 1570 C 156.144 -2.6016 -2.14052 0
M  V30 1571 O 156.674 -2.39997 -3.22124 0
M  V30 1572 N 154.88 -2.19911 -1.89967 0
M  V30 1573 H 154.427 -2.36509 -1.02085 0
M  V30 1574 H 154.385 -1.72646 -2.62756 0
M  V30 1575 N 158.157 -0.370918 -1.53173 0
M  V30 1576 C 159.089 0.507823 -2.23503 0
M  V30 1577 C 160.102 1.04182 -1.251 0
M  V30 1578 O 161.291 0.947286 -1.5129 0
M  V30 1579 C 158.391 1.71447 -2.92334 0
M  V30 1580 C 157.564 1.31105 -4.17289 0
M  V30 1581 C 156.623 2.38035 -4.69282 0
M  V30 1582 O 155.649 2.00204 -5.32829 0
M  V30 1583 N 156.851 3.69697 -4.47554 0
M  V30 1584 H 159.616 -0.0946382 -2.99551 0
M  V30 1585 H 157.177 -0.196358 -1.60705 0
M  V30 1586 H 159.169 2.42469 -3.24023 0
M  V30 1587 H 157.739 2.22368 -2.19707 0
M  V30 1588 H 156.959 0.430462 -3.91843 0
M  V30 1589 H 158.247 1.0179 -4.98514 0
M  V30 1590 H 157.645 4.03205 -3.9679 0
M  V30 1591 H 156.202 4.36807 -4.8378 0
M  V30 1592 N 159.635 1.57281 -0.100228 0
M  V30 1593 C 161.051 1.57527 0.256416 0
M  V30 1594 C 161.251 1.11173 1.68056 0
M  V30 1595 O 160.307 0.79053 2.39806 0
M  V30 1596 C 161.62 3.00673 0.0401747 0
M  V30 1597 C 163.168 3.12815 0.107528 0
M  V30 1598 C 163.643 4.57929 -0.0807834 0
M  V30 1599 N 165.134 4.63193 -0.0261207 0
M  V30 1600 C 165.869 5.73212 -0.146999 0
M  V30 1601 N 165.365 6.92047 -0.322999 0
M  V30 1602 N 167.158 5.62031 -0.0879044 0
M  V30 1603 H 159.309 1.85718 -1.03065 0
M  V30 1604 H 161.572 0.857446 -0.404339 0
M  V30 1605 H 161.278 3.38804 -0.943649 0
M  V30 1606 H 161.152 3.69042 0.780262 0
M  V30 1607 H 163.539 2.74554 1.08186 0
M  V30 1608 H 163.62 2.47028 -0.664134 0
M  V30 1609 H 163.264 4.96886 -1.05201 0
M  V30 1610 H 163.194 5.21783 0.710635 0
M  V30 1611 H 165.685 3.77748 0.107161 0
M  V30 1612 H 165.998 7.7173 -0.406608 0
M  V30 1613 H 164.343 6.94074 -0.358733 0
M  V30 1614 H 167.534 4.68075 0.048498 0
M  V30 1615 H 167.707 6.47734 -0.185557 0
M  V30 1616 N 161.113 -0.173488 1.56642 0
M  V30 1617 C 162.359 -0.891784 1.8214 0
M  V30 1618 C 162.692 -1.8199 0.677736 0
M  V30 1619 O 161.967 -1.91842 -0.320446 0
M  V30 1620 C 162.25 -1.68933 3.18015 0
M  V30 1621 C 162.103 -0.784487 4.42906 0
M  V30 1622 C 163.422 -2.65748 3.50808 0
M  V30 1623 H 160.541 -0.322761 0.662567 0
M  V30 1624 H 163.183 -0.158095 1.89341 0
M  V30 1625 H 161.333 -2.31482 3.12007 0
M  V30 1626 H 163.005 -0.172046 4.60979 0
M  V30 1627 H 161.248 -0.0924117 4.33702 0
M  V30 1628 H 161.919 -1.37799 5.34524 0
M  V30 1629 H 164.395 -2.13327 3.57255 0
M  V30 1630 H 163.271 -3.18619 4.4696 0
M  V30 1631 H 163.532 -3.45842 2.75401 0
M  V30 1632 N 162.591 -1.51276 -0.441967 0
M  V30 1633 C 163.816 -1.67799 -1.21895 0
M  V30 1634 C 164.241 -0.372864 -1.84367 0
M  V30 1635 O 163.599 0.666501 -1.68604 0
M  V30 1636 C 163.647 -2.79199 -2.28211 0
M  V30 1637 O 162.751 -2.42479 -3.33583 0
M  V30 1638 H 162.092 -0.559649 -0.357336 0
M  V30 1639 H 164.622 -1.97815 -0.522522 0
M  V30 1640 H 164.632 -3.03146 -2.73069 0
M  V30 1641 H 163.307 -3.73906 -1.82118 0
M  V30 1642 H 161.884 -2.29087 -2.94234 0
M  V30 1643 N 164.069 0.697108 -1.41344 0
M  V30 1644 C 165.318 1.45279 -1.39918 0
M  V30 1645 C 165.631 1.95597 -0.0109624 0
M  V30 1646 O 166.837 2.71208 0.125919 0
M  V30 1647 C 165.293 2.62695 -2.46007 0
M  V30 1648 C 164.901 2.19169 -3.90729 0
M  V30 1649 C 166.645 3.40336 -2.53715 0
M  V30 1650 C 164.552 3.33535 -4.88373 0
M  V30 1651 H 163.482 0.545692 -0.520323 0
M  V30 1652 H 166.133 0.756929 -1.67161 0
M  V30 1653 H 164.515 3.34541 -2.11892 0
M  V30 1654 H 165.689 1.54623 -4.34083 0
M  V30 1655 H 164.004 1.54525 -3.86666 0
M  V30 1656 H 166.601 4.2547 -3.2385 0
M  V30 1657 H 166.944 3.85418 -1.5735 0
M  V30 1658 H 167.477 2.75546 -2.86913 0
M  V30 1659 H 164.216 2.93468 -5.86137 0
M  V30 1660 H 163.736 3.96936 -4.49668 0
M  V30 1661 H 165.415 3.99335 -5.09059 0
M  V30 1662 N 165.547 1.27147 0.931209 0
M  V30 1663 C 166.824 1.0401 1.65654 0
M  V30 1664 C 167.204 -0.426297 2.06751 0
M  V30 1665 O 166.552 -1.40879 1.79904 0
M  V30 1666 C 166.762 1.99834 2.86125 0
M  V30 1667 C 168.11 2.29007 3.57549 0
M  V30 1668 O 169.134 1.97779 2.96246 0
M  V30 1669 O 167.993 2.82222 4.67989 0
M  V30 1670 H 165.087 0.396239 0.725895 0
M  V30 1671 H 167.633 1.38397 0.982056 0
M  V30 1672 H 166.405 2.98744 2.52721 0
M  V30 1673 H 166.028 1.65987 3.61295 0
M  V30 1674 N 167.025 -1.13721 1.09112 0
M  V30 1675 C 167.973 -2.21103 0.722219 0
M  V30 1676 C 168.967 -1.67147 -0.275374 0
M  V30 1677 O 170.173 -1.79477 -0.137176 0
M  V30 1678 H 166.548 -0.720445 0.215553 0
M  V30 1679 H 168.519 -2.49483 1.63709 0
M  V30 1680 C 167.268 -3.47352 0.15543 0
M  V30 1681 H 166.591 -3.89206 0.914246 0
M  V30 1682 H 168.031 -4.2395 -0.0647967 0
M  V30 1683 C 166.49 -3.1814 -1.10852 0
M  V30 1684 O 167.02 -3.36604 -2.19227 0
M  V30 1685 N 165.226 -2.72045 -1.02176 0
M  V30 1686 H 164.773 -2.57221 -0.139764 0
M  V30 1687 H 164.731 -2.52875 -1.8682 0
M  V30 1688 N 168.503 -0.877838 -1.30888 0
M  V30 1689 C 169.749 -0.502773 -1.97088 0
M  V30 1690 C 170.104 0.936274 -1.68082 0
M  V30 1691 O 169.397 1.65162 -0.971196 0
M  V30 1692 C 169.591 -0.705748 -3.50363 0
M  V30 1693 C 169.42 -2.16297 -3.94266 0
M  V30 1694 C 168.19 -2.80614 -4.20219 0
M  V30 1695 C 170.388 -3.13606 -4.07622 0
M  V30 1696 N 168.37 -4.17007 -4.50532 0
M  V30 1697 C 169.741 -4.35051 -4.41736 0
M  V30 1698 C 171.796 -3.09491 -3.90026 0
M  V30 1699 C 170.499 -5.52911 -4.60089 0
M  V30 1700 C 172.525 -4.26616 -4.09576 0
M  V30 1701 C 171.887 -5.46825 -4.44029 0
M  V30 1702 H 167.986 -0.233168 -0.746429 0
M  V30 1703 H 170.57 -1.13408 -1.58261 0
M  V30 1704 H 168.741 -0.103976 -3.88261 0
M  V30 1705 H 170.473 -0.298291 -4.03599 0
M  V30 1706 H 167.228 -2.3152 -4.13153 0
M  V30 1707 H 167.652 -4.87426 -4.69834 0
M  V30 1708 H 172.294 -2.17657 -3.62471 0
M  V30 1709 H 170.012 -6.45255 -4.86489 0
M  V30 1710 H 173.598 -4.24894 -3.97438 0
M  V30 1711 H 172.478 -6.35947 -4.58848 0
M  V30 1712 N 169.982 1.44106 -0.638065 0
M  V30 1713 C 171.222 2.03858 -0.148733 0
M  V30 1714 C 171.586 1.49153 1.20903 0
M  V30 1715 O 172.787 2.00452 1.79088 0
M  V30 1716 C 171.058 3.57117 -0.142314 0
M  V30 1717 S 172.617 4.37897 0.281385 0
M  V30 1718 H 169.435 0.708069 -0.0644912 0
M  V30 1719 H 172.037 1.7639 -0.843009 0
M  V30 1720 H 170.741 3.94436 -1.13349 0
M  V30 1721 H 170.272 3.89205 0.572988 0
M  V30 1722 H 172.287 4.72218 1.52395 0
M  V30 1723 N 171.46 0.379036 1.52974 0
M  V30 1724 C 172.876 0.0285448 1.59574 0
M  V30 1725 C 173.076 -1.45542 1.39355 0
M  V30 1726 O 172.132 -2.2187 1.20541 0
M  V30 1727 C 173.445 0.496535 2.96572 0
M  V30 1728 C 174.993 0.451909 3.0972 0
M  V30 1729 C 175.468 0.895924 4.49152 0
M  V30 1730 N 176.959 0.851522 4.55306 0
M  V30 1731 C 177.694 1.16661 5.61407 0
M  V30 1732 N 177.19 1.55166 6.752 0
M  V30 1733 N 178.983 1.08853 5.51459 0
M  V30 1734 H 171.134 1.34525 1.64367 0
M  V30 1735 H 173.397 0.550733 0.771619 0
M  V30 1736 H 173.103 1.53258 3.16552 0
M  V30 1737 H 172.977 -0.109802 3.7704 0
M  V30 1738 H 175.364 -0.575029 2.89443 0
M  V30 1739 H 175.445 1.09392 2.3123 0
M  V30 1740 H 175.089 1.92104 4.70168 0
M  V30 1741 H 175.019 0.23103 5.26093 0
M  V30 1742 H 177.51 0.568038 3.73606 0
M  V30 1743 H 177.823 1.776 7.52116 0
M  V30 1744 H 176.168 1.59044 6.76557 0
M  V30 1745 H 179.359 0.786803 4.6144 0
M  V30 1746 H 179.532 1.33742 6.34048 0
M  V30 1747 N 172.938 -1.57226 0.108567 0
M  V30 1748 C 174.354 -1.5766 -0.248058 0
M  V30 1749 C 174.554 -1.12063 -1.67464 0
M  V30 1750 O 173.61 -0.803236 -2.39383 0
M  V30 1751 C 174.923 -3.0069 -0.0242287 0
M  V30 1752 C 176.471 -3.12868 -0.0909372 0
M  V30 1753 C 176.946 -4.57879 0.105067 0
M  V30 1754 N 178.437 -4.63172 0.0506846 0
M  V30 1755 C 179.172 -5.73126 0.177396 0
M  V30 1756 N 178.668 -6.91866 0.359696 0
M  V30 1757 N 180.461 -5.61977 0.117709 0
M  V30 1758 H 172.612 -1.85169 1.04049 0
M  V30 1759 H 174.875 -0.85529 0.40888 0
M  V30 1760 H 174.581 -3.38299 0.961604 0
M  V30 1761 H 174.455 -3.6945 -0.76068 0
M  V30 1762 H 176.842 -2.75124 -1.06729 0
M  V30 1763 H 176.923 -2.46672 0.677225 0
M  V30 1764 H 176.567 -4.96321 1.07834 0
M  V30 1765 H 176.497 -5.22153 -0.682954 0
M  V30 1766 H 178.988 -3.778 -0.0871266 0
M  V30 1767 H 179.301 -7.71503 0.447529 0
M  V30 1768 H 177.646 -6.93874 0.395536 0
M  V30 1769 H 180.837 -4.68094 -0.0236741 0
M  V30 1770 H 181.01 -6.47627 0.219905 0
M  V30 1771 N 174.416 0.165178 -1.56732 0
M  V30 1772 C 175.693 0.908443 -1.73224 0
M  V30 1773 C 176.073 2.0013 -0.67165 0
M  V30 1774 O 175.421 2.26353 0.31253 0
M  V30 1775 C 175.631 1.46756 -3.16644 0
M  V30 1776 C 176.979 1.93809 -3.77787 0
M  V30 1777 O 178.003 1.56537 -3.1996 0
M  V30 1778 O 176.862 2.62486 -4.79336 0
M  V30 1779 H 173.956 0.428025 -0.707618 0
M  V30 1780 H 176.502 0.152526 -1.69013 0
M  V30 1781 H 175.274 0.68129 -3.85323 0
M  V30 1782 H 174.897 2.28749 -3.25207 0
M  V30 1783 N 175.894 1.51508 0.433938 0
M  V30 1784 C 176.841 1.73068 1.52696 0
M  V30 1785 C 177.811 0.572441 1.55924 0
M  V30 1786 O 178.996 0.807253 1.72882 0
M  V30 1787 C 176.136 1.86474 2.90381 0
M  V30 1788 C 175.249 3.14037 2.96656 0
M  V30 1789 C 174.384 3.18019 4.25485 0
M  V30 1790 C 173.423 4.39882 4.2564 0
M  V30 1791 N 172.56 4.41394 5.45999 0
M  V30 1792 H 177.4 2.66366 1.33615 0
M  V30 1793 H 174.937 1.32008 0.649018 0
M  V30 1794 H 176.895 1.92229 3.70275 0
M  V30 1795 H 175.525 0.965809 3.08013 0
M  V30 1796 H 174.577 3.17575 2.09404 0
M  V30 1797 H 175.889 4.0394 2.92633 0
M  V30 1798 H 175.043 3.22708 5.13755 0
M  V30 1799 H 173.782 2.2601 4.3217 0
M  V30 1800 H 172.787 4.35366 3.35763 0
M  V30 1801 H 174.012 5.33159 4.20617 0
M  V30 1802 H 171.958 3.52258 5.53399 0
M  V30 1803 H 171.875 5.25111 5.4387 0
M  V30 1804 H 173.143 4.50281 6.36292 0
M  V30 1805 N 177.372 -0.689602 1.41712 0
M  V30 1806 C 178.319 -1.80345 1.44029 0
M  V30 1807 C 179.289 -1.63478 0.293948 0
M  V30 1808 O 180.474 -1.84244 0.495869 0
M  V30 1809 C 177.614 -3.18272 1.33405 0
M  V30 1810 C 176.727 -3.46529 2.57956 0
M  V30 1811 C 175.862 -4.74103 2.39582 0
M  V30 1812 C 174.901 -4.95347 3.5958 0
M  V30 1813 N 174.038 -6.14151 3.40239 0
M  V30 1814 H 178.878 -1.77698 2.39222 0
M  V30 1815 H 176.415 -0.867688 1.18784 0
M  V30 1816 H 178.373 -3.97956 1.25246 0
M  V30 1817 H 177.003 -3.2008 0.418164 0
M  V30 1818 H 176.055 -2.61207 2.76542 0
M  V30 1819 H 177.367 -3.58126 3.47199 0
M  V30 1820 H 176.521 -5.61853 2.28924 0
M  V30 1821 H 175.26 -4.64763 1.47805 0
M  V30 1822 H 174.265 -4.06044 3.70686 0
M  V30 1823 H 175.49 -5.06542 4.52318 0
M  V30 1824 H 173.436 -6.06013 2.51167 0
M  V30 1825 H 173.353 -6.26543 4.23061 0
M  V30 1826 H 174.621 -7.04619 3.33365 0
M  V30 1827 N 178.85 -1.27639 -0.924453 0
M  V30 1828 C 179.782 -1.06442 -2.02985 0
M  V30 1829 C 180.795 -0.0194771 -1.62788 0
M  V30 1830 O 181.984 -0.261388 -1.76576 0
M  V30 1831 C 179.084 -0.59327 -3.33667 0
M  V30 1832 C 178.257 -1.71123 -4.02537 0
M  V30 1833 C 177.316 -1.23527 -5.11495 0
M  V30 1834 O 176.342 -1.93553 -5.35281 0
M  V30 1835 N 177.544 -0.0926678 -5.80426 0
M  V30 1836 H 180.309 -2.01633 -2.2173 0
M  V30 1837 H 177.87 -1.19248 -1.09505 0
M  V30 1838 H 179.862 -0.258686 -4.03872 0
M  V30 1839 H 178.432 0.265502 -3.1147 0
M  V30 1840 H 177.652 -2.21593 -3.26022 0
M  V30 1841 H 178.94 -2.46145 -4.45298 0
M  V30 1842 H 178.338 0.491741 -5.63559 0
M  V30 1843 H 176.895 0.182714 -6.51544 0
M  V30 1844 N 180.328 1.1314 -1.09713 0
M  V30 1845 C 181.568 1.8613 -0.844683 0
M  V30 1846 C 181.932 1.81765 0.618491 0
M  V30 1847 O 183.133 2.50024 0.98699 0
M  V30 1848 C 181.404 3.30151 -1.36877 0
M  V30 1849 S 182.963 4.206 -1.25064 0
M  V30 1850 H 179.781 0.642056 -0.305427 0
M  V30 1851 H 182.383 1.36343 -1.4011 0
M  V30 1852 H 181.087 3.30883 -2.42786 0
M  V30 1853 H 180.618 3.85 -0.808614 0
M  V30 1854 H 182.633 4.95783 -0.203486 0
M  V30 1855 N 181.806 0.884767 1.30421 0
M  V30 1856 C 182.753 0.349642 2.28136 0
M  V30 1857 C 183.723 -0.560061 1.56373 0
M  V30 1858 O 184.908 -0.488524 1.8444 0
M  V30 1859 C 182.048 -0.42999 3.42411 0
M  V30 1860 C 181.161 0.508907 4.28992 0
M  V30 1861 C 180.296 -0.286301 5.30428 0
M  V30 1862 C 179.335 0.648079 6.08659 0
M  V30 1863 N 178.472 -0.111792 7.02011 0
M  V30 1864 H 183.312 1.18807 2.73293 0
M  V30 1865 H 180.849 0.597231 1.3443 0
M  V30 1866 H 182.807 -0.897923 4.07423 0
M  V30 1867 H 181.437 -1.23299 2.98324 0
M  V30 1868 H 180.489 1.09533 3.64289 0
M  V30 1869 H 181.801 1.22475 4.8353 0
M  V30 1870 H 180.955 -0.816098 6.01186 0
M  V30 1871 H 179.694 -1.03536 4.76583 0
M  V30 1872 H 178.699 1.18951 5.36778 0
M  V30 1873 H 179.924 1.39623 6.64592 0
M  V30 1874 H 177.87 -0.843395 6.50556 0
M  V30 1875 H 177.787 0.544429 7.54037 0
M  V30 1876 H 179.055 -0.622339 7.77012 0
M  V30 1877 N 183.284 -1.43765 0.645699 0
M  V30 1878 C 184.509 -2.06767 0.161883 0
M  V30 1879 C 184.934 -1.48034 -1.16049 0
M  V30 1880 O 184.292 -0.587369 -1.71522 0
M  V30 1881 C 184.34 -3.60519 0.0762003 0
M  V30 1882 O 183.444 -4.00982 -0.963721 0
M  V30 1883 H 182.785 -0.657675 0.091429 0
M  V30 1884 H 185.315 -1.84397 0.886499 0
M  V30 1885 H 185.325 -4.07853 -0.109604 0
M  V30 1886 H 184 -4.02646 1.04157 0
M  V30 1887 H 182.577 -3.65253 -0.751312 0
M  V30 1888 N 184.763 -0.387143 -1.52771 0
M  V30 1889 C 186.179 -0.037007 -1.59557 0
M  V30 1890 C 186.379 1.44801 -1.40124 0
M  V30 1891 O 185.435 2.21227 -1.21716 0
M  V30 1892 C 186.748 -0.512256 -2.96305 0
M  V30 1893 C 188.296 -0.468328 -3.09476 0
M  V30 1894 C 188.771 -0.919731 -4.4867 0
M  V30 1895 N 190.262 -0.875656 -4.54848 0
M  V30 1896 C 190.997 -1.19637 -5.6078 0
M  V30 1897 N 190.493 -1.58745 -6.74368 0
M  V30 1898 N 192.286 -1.11776 -5.50874 0
M  V30 1899 H 184.437 -1.35395 -1.63652 0
M  V30 1900 H 186.7 -0.554818 -0.768688 0
M  V30 1901 H 186.406 -1.54935 -3.15734 0
M  V30 1902 H 186.28 0.089805 -3.77093 0
M  V30 1903 H 188.667 0.559671 -2.89744 0
M  V30 1904 H 188.748 -1.10616 -2.30646 0
M  V30 1905 H 188.392 -1.94595 -4.69143 0
M  V30 1906 H 188.322 -0.258927 -5.25963 0
M  V30 1907 H 190.813 -0.587843 -3.733 0
M  V30 1908 H 191.126 -1.81586 -7.51163 0
M  V30 1909 H 189.471 -1.6263 -6.75705 0
M  V30 1910 H 192.662 -0.811264 -4.61016 0
M  V30 1911 H 192.835 -1.37103 -6.3333 0
M  V30 1912 N 186.241 1.57166 -0.116904 0
M  V30 1913 C 187.488 1.95123 0.541603 0
M  V30 1914 C 187.816 1.00006 1.6682 0
M  V30 1915 O 187.071 0.0235658 1.95686 0
M  V30 1916 C 187.37 3.39508 1.11664 0
M  V30 1917 C 187.036 4.50762 0.111606 0
M  V30 1918 C 185.698 4.80918 -0.164758 0
M  V30 1919 C 188.05 5.18036 -0.573438 0
M  V30 1920 C 185.378 5.75666 -1.13249 0
M  V30 1921 C 187.73 6.13824 -1.52978 0
M  V30 1922 C 186.394 6.42374 -1.81415 0
M  V30 1923 H 185.664 0.714005 0.198187 0
M  V30 1924 H 188.311 1.9048 -0.197365 0
M  V30 1925 H 186.616 3.40835 1.93232 0
M  V30 1926 H 188.313 3.66189 1.63422 0
M  V30 1927 H 184.903 4.27272 0.337192 0
M  V30 1928 H 189.087 4.94896 -0.373092 0
M  V30 1929 H 184.343 5.96092 -1.35958 0
M  V30 1930 H 188.517 6.65039 -2.06629 0
M  V30 1931 H 186.144 7.15599 -2.56557 0
M  V30 1932 N 187.719 -0.156864 1.56817 0
M  V30 1933 C 188.965 -0.872416 1.83076 0
M  V30 1934 C 189.298 -1.81261 0.697001 0
M  V30 1935 O 188.573 -1.92171 -0.30008 0
M  V30 1936 C 188.856 -1.65551 3.19789 0
M  V30 1937 C 188.709 -0.737467 4.43713 0
M  V30 1938 C 190.028 -2.62012 3.53606 0
M  V30 1939 H 187.147 -0.315715 0.665953 0
M  V30 1940 H 189.789 -0.138004 1.89498 0
M  V30 1941 H 187.939 -2.28159 3.14445 0
M  V30 1942 H 189.611 -0.123143 4.61136 0
M  V30 1943 H 187.854 -0.0464067 4.33775 0
M  V30 1944 H 188.525 -1.32122 5.35955 0
M  V30 1945 H 191.001 -2.09525 3.59497 0
M  V30 1946 H 189.877 -3.13861 4.50314 0
M  V30 1947 H 190.138 -3.42902 2.79053 0
M  V30 1948 N 189.197 -1.51736 -0.425897 0
M  V30 1949 C 190.425 -1.68794 -1.1965 0
M  V30 1950 C 190.84 -0.390164 -1.84725 0
M  V30 1951 O 190.197 0.632376 -1.71194 0
M  V30 1952 C 190.248 -2.81174 -2.27208 0
M  V30 1953 O 189.969 -4.05925 -1.64793 0
M  V30 1954 C 191.47 -3.09599 -3.17275 0
M  V30 1955 H 188.69 -0.566128 -0.360194 0
M  V30 1956 H 191.234 -1.98211 -0.503249 0
M  V30 1957 H 189.389 -2.54324 -2.9223 0
M  V30 1958 H 189.803 -4.68423 -2.35967 0
M  V30 1959 H 191.277 -3.91786 -3.88854 0
M  V30 1960 H 191.754 -2.22468 -3.78688 0
M  V30 1961 H 192.36 -3.38151 -2.57941 0
M  V30 1962 N 190.675 0.682077 -1.42076 0
M  V30 1963 C 192.086 1.26246 -1.37546 0
M  V30 1964 C 192.437 1.96092 -0.0651481 0
M  V30 1965 O 191.562 1.99587 0.836297 0
M  V30 1966 C 192.157 2.29594 -2.49143 0
M  V30 1967 C 190.716 2.83175 -2.47969 0
M  V30 1968 C 189.863 1.57395 -2.28303 0
M  V30 1969 H 192.814 0.475937 -1.51395 0
M  V30 1970 H 192.835 3.11175 -2.18976 0
M  V30 1971 H 192.347 1.78729 -3.44496 0
M  V30 1972 H 190.448 3.3818 -1.56413 0
M  V30 1973 H 190.561 3.32687 -3.44755 0
M  V30 1974 H 188.925 1.83699 -1.76428 0
M  V30 1975 H 189.708 1.08507 -3.25701 0
M  V30 1976 N 192.153 1.28127 0.917671 0
M  V30 1977 C 193.4 1.15052 1.66641 0
M  V30 1978 C 193.728 -0.301677 1.92146 0
M  V30 1979 O 192.983 -1.23622 1.51711 0
M  V30 1980 C 193.282 1.89018 3.03327 0
M  V30 1981 C 192.948 3.38832 2.97496 0
M  V30 1982 C 191.61 3.79693 2.95613 0
M  V30 1983 C 193.962 4.34378 2.88036 0
M  V30 1984 C 191.29 5.14447 2.82066 0
M  V30 1985 C 193.642 5.69201 2.7603 0
M  V30 1986 C 192.306 6.09343 2.72502 0
M  V30 1987 H 191.576 0.421006 0.609783 0
M  V30 1988 H 194.223 1.58855 1.06945 0
M  V30 1989 H 192.528 1.37752 3.66785 0
M  V30 1990 H 194.225 1.76321 3.60156 0
M  V30 1991 H 190.815 3.06342 2.99754 0
M  V30 1992 H 194.999 4.03775 2.88581 0
M  V30 1993 H 190.255 5.44681 2.77728 0
M  V30 1994 H 194.429 6.42901 2.67678 0
M  V30 1995 H 192.056 7.13712 2.61762 0
M  V30 1996 N 193.631 -1.12557 1.10312 0
M  V30 1997 C 194.578 -2.18247 0.750781 0
M  V30 1998 C 195.548 -1.63853 -0.272293 0
M  V30 1999 O 196.733 -1.90195 -0.151862 0
M  V30 2000 C 193.873 -3.44591 0.187379 0
M  V30 2001 C 192.986 -4.13046 1.2656 0
M  V30 2002 C 192.121 -5.27034 0.663978 0
M  V30 2003 C 191.16 -5.87353 1.72287 0
M  V30 2004 N 190.297 -6.92757 1.1416 0
M  V30 2005 H 195.137 -2.47732 1.65628 0
M  V30 2006 H 192.674 -1.21629 0.827337 0
M  V30 2007 H 194.632 -4.16904 -0.157148 0
M  V30 2008 H 193.262 -3.15527 -0.681355 0
M  V30 2009 H 192.314 -3.38924 1.72727 0
M  V30 2010 H 193.626 -4.53947 2.06721 0
M  V30 2011 H 192.78 -6.06104 0.268824 0
M  V30 2012 H 191.519 -4.87407 -0.169082 0
M  V30 2013 H 190.524 -5.06971 2.12746 0
M  V30 2014 H 191.749 -6.29051 2.55875 0
M  V30 2015 H 189.695 -6.5517 0.329984 0
M  V30 2016 H 189.612 -7.3225 1.88007 0
M  V30 2017 H 190.88 -7.75658 0.772956 0
M  V30 2018 N 195.109 -0.891671 -1.2995 0
M  V30 2019 C 196.349 -0.520296 -1.97667 0
M  V30 2020 C 196.713 0.914797 -1.68806 0
M  V30 2021 O 197.914 1.39263 -2.29911 0
M  V30 2022 C 196.185 -0.795222 -3.48441 0
M  V30 2023 S 197.744 -0.526953 -4.35624 0
M  V30 2024 H 194.562 -0.19333 -0.684211 0
M  V30 2025 H 197.164 -1.15238 -1.57926 0
M  V30 2026 H 195.868 -1.83805 -3.66938 0
M  V30 2027 H 195.399 -0.15095 -3.9311 0
M  V30 2028 H 197.414 0.631533 -4.92165 0
M  V30 2029 N 196.587 1.43421 -0.653314 0
M  V30 2030 C 197.517 2.33487 0.0246656 0
M  V30 2031 C 198.498 1.49475 0.811863 0
M  V30 2032 O 199.683 1.78139 0.773322 0
M  V30 2033 C 196.813 3.32841 0.99166 0
M  V30 2034 C 195.767 4.26842 0.314568 0
M  V30 2035 C 195.093 5.16236 1.39302 0
M  V30 2036 C 196.393 5.16243 -0.793095 0
M  V30 2037 H 198.087 2.90427 -0.727481 0
M  V30 2038 H 195.633 1.39649 -0.351287 0
M  V30 2039 H 197.586 3.94747 1.47487 0
M  V30 2040 H 196.31 2.74158 1.77497 0
M  V30 2041 H 194.969 3.663 -0.148199 0
M  V30 2042 H 194.617 4.53891 2.16776 0
M  V30 2043 H 194.317 5.79948 0.945223 0
M  V30 2044 H 195.841 5.81015 1.87759 0
M  V30 2045 H 197.255 5.71958 -0.392039 0
M  V30 2046 H 195.652 5.88676 -1.16536 0
M  V30 2047 H 196.722 4.55927 -1.65103 0
M  V30 2048 N 198.065 0.39524 1.52563 0
M  V30 2049 C 199.311 -0.185318 2.01952 0
M  V30 2050 C 199.644 -1.45964 1.28095 0
M  V30 2051 O 198.919 -1.90689 0.38315 0
M  V30 2052 C 199.202 -0.447193 3.57312 0
M  V30 2053 C 199.055 0.842828 4.41833 0
M  V30 2054 C 200.374 -1.23529 4.22408 0
M  V30 2055 H 197.493 -0.0658788 0.73405 0
M  V30 2056 H 200.135 0.525975 1.82575 0
M  V30 2057 H 198.285 -1.05312 3.73954 0
M  V30 2058 H 199.957 1.4795 4.36931 0
M  V30 2059 H 198.2 1.45686 4.08605 0
M  V30 2060 H 198.871 0.614165 5.48573 0
M  V30 2061 H 201.347 -0.722445 4.0978 0
M  V30 2062 H 200.223 -1.38727 5.3108 0
M  V30 2063 H 200.484 -2.25213 3.80436 0
M  V30 2064 N 199.544 -1.57102 0.125237 0
M  V30 2065 C 200.792 -1.95021 -0.530198 0
M  V30 2066 C 201.113 -1.00982 -1.66816 0
M  V30 2067 O 200.383 -0.0672693 -1.95784 0
M  V30 2068 H 198.963 -0.720046 -0.198853 0
M  V30 2069 H 201.625 -1.93916 0.19564 0
M  V30 2070 H 200.721 -2.98211 -0.920681 0
M  V30 2071 N 201.022 0.148545 -1.56898 0
M  V30 2072 C 201.932 1.20293 -2.01412 0
M  V30 2073 C 202.948 1.47107 -0.929273 0
M  V30 2074 O 204.124 1.58807 -1.23863 0
M  V30 2075 C 201.189 2.51682 -2.38447 0
M  V30 2076 C 200.25 2.32529 -3.60872 0
M  V30 2077 C 199.483 3.57653 -3.96132 0
M  V30 2078 O 199.706 4.63771 -3.32073 0
M  V30 2079 O 198.64 3.50408 -4.89385 0
M  V30 2080 H 202.466 0.855025 -2.91416 0
M  V30 2081 H 200.051 0.357151 -1.45068 0
M  V30 2082 H 201.933 3.29147 -2.63135 0
M  V30 2083 H 200.608 2.86006 -1.51599 0
M  V30 2084 H 199.515 1.53019 -3.41373 0
M  V30 2085 H 200.848 2.03121 -4.48333 0
M  V30 2086 N 202.5 1.5196 0.417844 0
M  V30 2087 C 203.747 1.65591 1.16559 0
M  V30 2088 C 204.075 0.381565 1.90721 0
M  V30 2089 O 203.33 -0.635156 1.85106 0
M  V30 2090 C 203.629 2.82269 2.19223 0
M  V30 2091 C 203.295 4.20819 1.61933 0
M  V30 2092 C 201.957 4.58506 1.46033 0
M  V30 2093 C 204.309 5.07196 1.20008 0
M  V30 2094 C 201.637 5.80257 0.867113 0
M  V30 2095 C 203.989 6.29544 0.621086 0
M  V30 2096 C 202.653 6.65987 0.449144 0
M  V30 2097 H 201.923 0.605939 0.42652 0
M  V30 2098 H 204.57 1.86041 0.45397 0
M  V30 2099 H 202.875 2.56118 2.96498 0
M  V30 2100 H 204.572 2.90012 2.76936 0
M  V30 2101 H 201.162 3.91116 1.7529 0
M  V30 2102 H 205.346 4.7867 1.31105 0
M  V30 2103 H 200.602 6.07124 0.721833 0
M  V30 2104 H 204.776 6.95805 0.287798 0
M  V30 2105 H 202.403 7.60199 -0.012632 0
M  V30 2106 N 203.978 -0.674533 1.42435 0
M  V30 2107 C 205.224 -1.43671 1.43131 0
M  V30 2108 C 205.557 -1.94142 0.0476021 0
M  V30 2109 O 204.832 -1.70924 -0.928188 0
M  V30 2110 C 205.115 -2.63355 2.45594 0
M  V30 2111 C 204.968 -2.18514 3.93156 0
M  V30 2112 C 206.287 -3.65571 2.45043 0
M  V30 2113 H 203.406 -0.521077 0.521198 0
M  V30 2114 H 206.048 -0.766551 1.7385 0
M  V30 2115 H 204.198 -3.2053 2.19528 0
M  V30 2116 H 205.87 -1.66504 4.30202 0
M  V30 2117 H 204.113 -1.50086 4.07009 0
M  V30 2118 H 204.784 -3.04484 4.60428 0
M  V30 2119 H 207.26 -3.18113 2.68223 0
M  V30 2120 H 206.136 -4.46893 3.18713 0
M  V30 2121 H 206.397 -4.16716 1.47649 0
M  V30 2122 N 205.456 -1.28612 -0.910864 0
M  V30 2123 C 206.681 -1.1891 -1.69927 0
M  V30 2124 C 207.106 0.248372 -1.86453 0
M  V30 2125 O 206.464 1.17961 -1.37676 0
M  V30 2126 C 206.512 -1.89578 -3.06745 0
M  V30 2127 O 205.616 -1.20521 -3.94396 0
M  V30 2128 H 204.957 -0.412632 -0.520222 0
M  V30 2129 H 207.487 -1.69985 -1.1387 0
M  V30 2130 H 207.497 -1.97597 -3.56958 0
M  V30 2131 H 206.172 -2.94136 -2.94035 0
M  V30 2132 H 204.749 -1.20684 -3.52831 0
M  V30 2133 N 206.934 1.1197 -1.10907 0
M  V30 2134 C 208.211 1.79959 -0.766432 0
M  V30 2135 C 208.591 1.97466 0.746363 0
M  V30 2136 O 207.939 1.55491 1.67436 0
M  V30 2137 C 208.149 3.14009 -1.52314 0
M  V30 2138 C 209.497 3.89134 -1.69883 0
M  V30 2139 O 210.521 3.2368 -1.48692 0
M  V30 2140 O 209.38 5.06572 -2.05054 0
M  V30 2141 H 206.474 0.779208 -0.277062 0
M  V30 2142 H 209.02 1.18762 -1.21217 0
M  V30 2143 H 207.792 2.96587 -2.55249 0
M  V30 2144 H 207.415 3.82915 -1.07059 0
M  V30 2145 N 208.412 0.89855 1.29475 0
M  V30 2146 C 209.658 0.524658 1.95896 0
M  V30 2147 C 209.991 -0.926468 1.70676 0
M  V30 2148 O 209.266 -1.65665 1.01908 0
M  V30 2149 C 209.549 0.81633 3.50725 0
M  V30 2150 C 209.402 2.31907 3.85408 0
M  V30 2151 C 210.721 0.302038 4.39062 0
M  V30 2152 H 207.84 0.19209 0.711527 0
M  V30 2153 H 210.482 1.12502 1.53112 0
M  V30 2154 H 208.632 0.305369 3.87298 0
M  V30 2155 H 210.304 2.89949 3.58786 0
M  V30 2156 H 208.547 2.78027 3.32992 0
M  V30 2157 H 209.218 2.47373 4.93468 0
M  V30 2158 H 211.694 0.739551 4.09475 0
M  V30 2159 H 210.57 0.535331 5.46283 0
M  V30 2160 H 210.831 -0.797216 4.34853 0
M  V30 2161 N 209.89 -1.43072 0.660911 0
M  V30 2162 C 210.82 -2.33497 -0.0122829 0
M  V30 2163 C 211.801 -1.49903 -0.803925 0
M  V30 2164 O 212.986 -1.78546 -0.763864 0
M  V30 2165 C 210.116 -3.33363 -0.973994 0
M  V30 2166 C 209.07 -4.27003 -0.291928 0
M  V30 2167 C 208.396 -5.16967 -1.36562 0
M  V30 2168 C 209.696 -5.15816 0.820462 0
M  V30 2169 H 211.39 -2.90038 0.742873 0
M  V30 2170 H 208.936 -1.39461 0.358688 0
M  V30 2171 H 210.889 -3.95524 -1.45392 0
M  V30 2172 H 209.613 -2.75095 -1.7604 0
M  V30 2173 H 208.272 -3.66217 0.167623 0
M  V30 2174 H 207.92 -4.55034 -2.14366 0
M  V30 2175 H 207.62 -5.80441 -0.914454 0
M  V30 2176 H 209.144 -5.82003 -1.84675 0
M  V30 2177 H 210.558 -5.71742 0.422366 0
M  V30 2178 H 208.955 -5.8805 1.19656 0
M  V30 2179 H 210.025 -4.55045 1.67518 0
M  V30 2180 N 211.368 -0.403325 -1.52352 0
M  V30 2181 C 212.298 0.416205 -2.29761 0
M  V30 2182 C 213.279 1.05123 -1.33728 0
M  V30 2183 O 214.464 1.06134 -1.62632 0
M  V30 2184 C 211.594 1.53624 -3.11475 0
M  V30 2185 C 210.548 1.02653 -4.15507 0
M  V30 2186 C 209.874 2.23971 -4.85532 0
M  V30 2187 C 211.174 0.08463 -5.22231 0
M  V30 2188 H 212.868 -0.229701 -2.98518 0
M  V30 2189 H 210.414 -0.111913 -1.43564 0
M  V30 2190 H 212.367 2.1165 -3.64393 0
M  V30 2191 H 211.091 2.20994 -2.40477 0
M  V30 2192 H 209.75 0.46871 -3.63591 0
M  V30 2193 H 209.398 2.89883 -4.11068 0
M  V30 2194 H 209.098 1.90521 -5.55856 0
M  V30 2195 H 210.622 2.82614 -5.41259 0
M  V30 2196 H 212.036 0.573509 -5.70424 0
M  V30 2197 H 210.433 -0.160783 -5.99885 0
M  V30 2198 H 211.503 -0.86237 -4.7717 0
M  V30 2199 N 212.846 1.57033 -0.133567 0
M  V30 2200 C 214.092 1.95976 0.521649 0
M  V30 2201 C 214.425 1.01779 1.65393 0
M  V30 2202 O 213.7 0.0576581 1.94415 0
M  V30 2203 C 213.983 3.44738 1.04057 0
M  V30 2204 C 213.836 4.49711 -0.0892897 0
M  V30 2205 C 215.155 3.95682 1.92675 0
M  V30 2206 H 212.274 0.712579 0.188149 0
M  V30 2207 H 214.916 1.88813 -0.212076 0
M  V30 2208 H 213.066 3.50973 1.66583 0
M  V30 2209 H 214.738 4.55565 -0.725152 0
M  V30 2210 H 212.981 4.27261 -0.750378 0
M  V30 2211 H 213.652 5.51099 0.315284 0
M  V30 2212 H 216.128 3.91841 1.39998 0
M  V30 2213 H 215.004 5.00262 2.25897 0
M  V30 2214 H 215.265 3.37239 2.85872 0
M  V30 2215 N 214.325 -0.140222 1.56975 0
M  V30 2216 C 215.736 -0.699596 1.73097 0
M  V30 2217 C 216.087 -1.8134 0.749022 0
M  V30 2218 O 215.212 -2.16241 -0.0828503 0
M  V30 2219 C 215.807 -1.27582 3.1386 0
M  V30 2220 C 214.366 -1.78169 3.31561 0
M  V30 2221 C 213.513 -0.672855 2.69013 0
M  V30 2222 H 216.464 0.0855115 1.58469 0
M  V30 2223 H 216.485 -2.14561 3.14235 0
M  V30 2224 H 215.997 -0.464955 3.85305 0
M  V30 2225 H 214.098 -2.61801 2.65124 0
M  V30 2226 H 214.211 -1.90574 4.39566 0
M  V30 2227 H 212.575 -1.10118 2.29665 0
M  V30 2228 H 213.358 0.126679 3.43066 0
M  V30 2229 N 215.803 -1.52179 -0.40978 0
M  V30 2230 C 216.713 -1.78364 -1.52392 0
M  V30 2231 C 217.729 -0.669183 -1.60617 0
M  V30 2232 O 218.905 -0.954518 -1.77344 0
M  V30 2233 C 215.97 -1.92822 -2.88133 0
M  V30 2234 C 215.031 -3.16725 -2.898 0
M  V30 2235 C 214.264 -3.30483 -4.19067 0
M  V30 2236 O 214.487 -2.49522 -5.12928 0
M  V30 2237 O 213.421 -4.2363 -4.27576 0
M  V30 2238 H 217.247 -2.72931 -1.33201 0
M  V30 2239 H 214.832 -1.37016 -0.59557 0
M  V30 2240 H 216.714 -2.04157 -3.68643 0
M  V30 2241 H 215.389 -1.01444 -3.07393 0
M  V30 2242 H 214.296 -3.10848 -2.08146 0
M  V30 2243 H 215.629 -4.07881 -2.75489 0
M  V30 2244 N 217.281 0.66697 -1.42791 0
M  V30 2245 C 218.228 1.7803 -1.4688 0
M  V30 2246 C 219.198 1.6299 -0.319919 0
M  V30 2247 O 220.383 1.83432 -0.525118 0
M  V30 2248 C 217.523 3.1611 -1.38451 0
M  V30 2249 C 216.636 3.42381 -2.63437 0
M  V30 2250 C 215.771 4.70232 -2.47094 0
M  V30 2251 C 214.81 4.89564 -3.67415 0
M  V30 2252 N 213.947 6.08661 -3.49966 0
M  V30 2253 H 218.787 1.7387 -2.42019 0
M  V30 2254 H 216.324 0.84868 -1.20149 0
M  V30 2255 H 218.282 3.95914 -1.31561 0
M  V30 2256 H 216.912 3.19374 -0.469033 0
M  V30 2257 H 215.964 2.56774 -2.80662 0
M  V30 2258 H 217.276 3.52557 -3.52853 0
M  V30 2259 H 216.43 5.5814 -2.37834 0
M  V30 2260 H 215.169 4.62353 -1.5518 0
M  V30 2261 H 214.174 4.00096 -3.77099 0
M  V30 2262 H 215.399 4.99282 -4.6032 0
M  V30 2263 H 213.345 6.0194 -2.60776 0
M  V30 2264 H 213.262 6.19733 -4.32975 0
M  V30 2265 H 214.53 6.99226 -3.44532 0
M  V30 2266 N 218.759 1.29093 0.90403 0
M  V30 2267 C 219.999 1.18076 1.66845 0
M  V30 2268 C 220.363 -0.26436 1.90171 0
M  V30 2269 O 221.564 -0.497423 2.64157 0
M  V30 2270 C 219.835 1.96722 2.98388 0
M  V30 2271 S 221.394 2.0219 3.89441 0
M  V30 2272 H 218.212 0.421104 0.572881 0
M  V30 2273 H 220.814 1.63322 1.07453 0
M  V30 2274 H 219.518 3.00866 2.7912 0
M  V30 2275 H 219.049 1.52064 3.62823 0
M  V30 2276 H 221.064 1.13545 4.83034 0
M  V30 2277 N 220.237 -1.11381 1.11499 0
M  V30 2278 C 221.169 -2.17207 0.731704 0
M  V30 2279 C 222.182 -1.61066 -0.236957 0
M  V30 2280 O 223.371 -1.78489 -0.0197591 0
M  V30 2281 C 220.471 -3.38846 0.0607624 0
M  V30 2282 C 219.644 -4.24451 1.0564 0
M  V30 2283 C 218.703 -5.24562 0.4149 0
M  V30 2284 O 217.729 -5.59071 1.069 0
M  V30 2285 N 218.931 -5.74651 -0.821943 0
M  V30 2286 H 221.696 -2.50699 1.64225 0
M  V30 2287 H 219.257 -1.26908 1.00529 0
M  V30 2288 H 221.249 -4.02911 -0.380139 0
M  V30 2289 H 219.819 -3.03411 -0.752376 0
M  V30 2290 H 219.039 -3.56833 1.67524 0
M  V30 2291 H 220.327 -4.78486 1.72998 0
M  V30 2292 H 219.725 -5.48797 -1.37252 0
M  V30 2293 H 218.282 -6.40549 -1.20582 0
M  V30 2294 N 221.715 -0.905404 -1.28997 0
M  V30 2295 C 222.962 -0.534248 -1.95325 0
M  V30 2296 C 223.29 0.920535 -1.71337 0
M  V30 2297 O 222.545 1.66861 -1.02254 0
M  V30 2298 C 222.844 -0.779906 -3.48787 0
M  V30 2299 C 222.51 -2.21293 -3.92861 0
M  V30 2300 C 221.172 -2.60475 -4.04606 0
M  V30 2301 C 223.524 -3.14587 -4.15553 0
M  V30 2302 C 220.852 -3.9212 -4.36416 0
M  V30 2303 C 223.204 -4.45787 -4.48839 0
M  V30 2304 C 221.868 -4.84834 -4.58794 0
M  V30 2305 H 221.138 -0.195495 -0.714747 0
M  V30 2306 H 223.785 -1.14514 -1.53488 0
M  V30 2307 H 222.09 -0.0861365 -3.91705 0
M  V30 2308 H 223.787 -0.472029 -3.98212 0
M  V30 2309 H 220.377 -1.89887 -3.84241 0
M  V30 2310 H 224.561 -2.85528 -4.0594 0
M  V30 2311 H 219.817 -4.22086 -4.42327 0
M  V30 2312 H 223.991 -5.18098 -4.65346 0
M  V30 2313 H 221.618 -5.86877 -4.83197 0
M  V30 2314 N 223.193 1.4272 -0.668489 0
M  V30 2315 C 224.44 2.01624 -0.18814 0
M  V30 2316 C 224.768 1.5282 1.20317 0
M  V30 2317 O 224.023 0.718323 1.8204 0
M  V30 2318 C 224.322 3.57021 -0.164499 0
M  V30 2319 C 223.988 4.25232 -1.49962 0
M  V30 2320 C 222.65 4.4358 -1.8652 0
M  V30 2321 C 225.002 4.63727 -2.37921 0
M  V30 2322 C 222.33 4.97694 -3.10674 0
M  V30 2323 C 224.682 5.19218 -3.6138 0
M  V30 2324 C 223.346 5.3578 -3.98115 0
M  V30 2325 H 222.616 0.737795 -0.0688454 0
M  V30 2326 H 225.263 1.70991 -0.862225 0
M  V30 2327 H 223.568 3.87285 0.593079 0
M  V30 2328 H 225.265 4.00372 0.224271 0
M  V30 2329 H 221.855 4.11306 -1.20522 0
M  V30 2330 H 226.039 4.4923 -2.10964 0
M  V30 2331 H 221.295 5.08702 -3.39164 0
M  V30 2332 H 225.469 5.4799 -4.29743 0
M  V30 2333 H 223.096 5.77475 -4.94395 0
M  V30 2334 N 224.671 0.411399 1.52136 0
M  V30 2335 C 225.621 -0.430376 2.23901 0
M  V30 2336 C 226.605 -1.0116 1.25121 0
M  V30 2337 O 227.797 -0.934044 1.50348 0
M  V30 2338 C 224.926 -1.54527 3.06556 0
M  V30 2339 C 224.012 -0.9747 4.12747 0
M  V30 2340 N 224.403 -0.130991 5.0563 0
M  V30 2341 C 222.701 -1.24497 4.28271 0
M  V30 2342 C 223.402 0.186689 5.814 0
M  V30 2343 N 222.378 -0.42304 5.41951 0
M  V30 2344 H 226.18 0.220509 2.93072 0
M  V30 2345 H 223.694 0.221952 1.60876 0
M  V30 2346 H 225.691 -2.16093 3.56524 0
M  V30 2347 H 224.351 -2.19875 2.38925 0
M  V30 2348 H 225.362 0.23349 5.17373 0
M  V30 2349 H 222.039 -1.89787 3.7187 0
M  V30 2350 H 223.429 0.871673 6.66222 0
M  V30 2351 N 226.149 -1.5696 0.141893 0
M  V30 2352 C 227.096 -2.16501 -0.799737 0
M  V30 2353 C 228.066 -1.09643 -1.24771 0
M  V30 2354 O 229.251 -1.3766 -1.32115 0
M  V30 2355 C 226.391 -2.78679 -2.03549 0
M  V30 2356 C 225.504 -3.99914 -1.6338 0
M  V30 2357 C 224.639 -4.50106 -2.82096 0
M  V30 2358 C 223.678 -5.63819 -2.38275 0
M  V30 2359 N 222.815 -6.08651 -3.49983 0
M  V30 2360 H 227.655 -2.96632 -0.285179 0
M  V30 2361 H 225.192 -1.46533 -0.129053 0
M  V30 2362 H 227.15 -3.1287 -2.75986 0
M  V30 2363 H 225.78 -2.012 -2.52425 0
M  V30 2364 H 224.832 -3.71735 -0.807279 0
M  V30 2365 H 226.144 -4.82311 -1.27192 0
M  V30 2366 H 225.298 -4.86325 -3.62729 0
M  V30 2367 H 224.037 -3.66706 -3.21525 0
M  V30 2368 H 223.042 -5.2718 -1.56081 0
M  V30 2369 H 224.267 -6.49 -1.99938 0
M  V30 2370 H 222.213 -5.28188 -3.89042 0
M  V30 2371 H 222.13 -6.85961 -3.17794 0
M  V30 2372 H 223.398 -6.49515 -4.30988 0
M  V30 2373 N 227.627 0.131896 -1.57047 0
M  V30 2374 C 228.537 1.1815 -2.02676 0
M  V30 2375 C 229.553 1.46113 -0.944824 0
M  V30 2376 O 230.729 1.57485 -1.25541 0
M  V30 2377 C 227.794 2.49139 -2.41103 0
M  V30 2378 C 226.855 2.28688 -3.63318 0
M  V30 2379 C 226.088 3.53431 -3.99903 0
M  V30 2380 O 226.311 4.60223 -3.36973 0
M  V30 2381 O 225.245 3.45198 -4.93074 0
M  V30 2382 H 229.071 0.824069 -2.92306 0
M  V30 2383 H 226.656 0.341745 -1.45439 0
M  V30 2384 H 228.538 3.26338 -2.66611 0
M  V30 2385 H 227.213 2.84382 -1.54624 0
M  V30 2386 H 226.12 1.4939 -3.42977 0
M  V30 2387 H 227.453 1.98355 -4.50462 0
M  V30 2388 N 229.106 1.52395 0.401703 0
M  V30 2389 C 230.522 1.41363 0.740864 0
M  V30 2390 C 230.722 0.523982 1.94568 0
M  V30 2391 O 229.778 -0.00741204 2.52499 0
M  V30 2392 C 231.091 2.84011 0.987847 0
M  V30 2393 C 232.639 2.93404 1.09011 0
M  V30 2394 C 233.114 4.37036 1.3698 0
M  V30 2395 N 234.605 4.40304 1.43829 0
M  V30 2396 C 235.34 5.48508 1.67112 0
M  V30 2397 N 234.836 6.66819 1.87949 0
M  V30 2398 N 236.629 5.36034 1.69187 0
M  V30 2399 H 228.78 2.08765 -0.391262 0
M  V30 2400 H 231.043 0.941265 -0.112798 0
M  V30 2401 H 230.749 3.51265 0.174835 0
M  V30 2402 H 230.623 3.25502 1.906 0
M  V30 2403 H 233.01 2.26325 1.8937 0
M  V30 2404 H 233.091 2.55359 0.15015 0
M  V30 2405 H 232.735 5.04676 0.571353 0
M  V30 2406 H 232.665 4.72623 2.3224 0
M  V30 2407 H 235.156 3.55024 1.29486 0
M  V30 2408 H 235.469 7.45063 2.05185 0
M  V30 2409 H 233.814 6.6987 1.85199 0
M  V30 2410 H 237.005 4.42579 1.52451 0
M  V30 2411 H 237.178 6.20434 1.86993 0
M  V30 2412 N 230.584 -0.659388 1.43143 0
M  V30 2413 C 231.517 -1.78425 1.42267 0
M  V30 2414 C 232.495 -1.60085 0.284894 0
M  V30 2415 O 233.679 -1.82351 0.477527 0
M  V30 2416 C 230.806 -3.15642 1.22833 0
M  V30 2417 C 229.852 -3.52698 2.39806 0
M  V30 2418 S 230.685 -3.53372 4.02353 0
M  V30 2419 C 231.841 -4.93256 3.85291 0
M  V30 2420 H 232.074 -1.78897 2.37452 0
M  V30 2421 H 229.607 -0.831469 1.301 0
M  V30 2422 H 231.565 -3.94838 1.12308 0
M  V30 2423 H 230.226 -3.12739 0.29207 0
M  V30 2424 H 229.419 -4.52475 2.21996 0
M  V30 2425 H 229.021 -2.80899 2.46925 0
M  V30 2426 H 231.313 -5.81751 3.47235 0
M  V30 2427 H 232.256 -5.16115 4.84799 0
M  V30 2428 H 232.664 -4.665 3.17865 0
M  V30 2429 N 232.062 -1.29571 -0.897171 0
M  V30 2430 C 232.972 -1.16808 -2.03453 0
M  V30 2431 C 233.988 -0.0907471 -1.73763 0
M  V30 2432 O 235.164 -0.303312 -1.99103 0
M  V30 2433 C 232.229 -0.848264 -3.36163 0
M  V30 2434 C 231.29 -2.0097 -3.79354 0
M  V30 2435 C 230.523 -1.70505 -5.05731 0
M  V30 2436 O 230.746 -0.62718 -5.66941 0
M  V30 2437 O 229.68 -2.5538 -5.45036 0
M  V30 2438 H 233.506 -2.12325 -2.17144 0
M  V30 2439 H 231.091 -1.09047 -1.02123 0
M  V30 2440 H 232.973 -0.684581 -4.15802 0
M  V30 2441 H 231.648 0.0771071 -3.23608 0
M  V30 2442 H 230.555 -2.22863 -3.00471 0
M  V30 2443 H 231.888 -2.91636 -3.96496 0
M  V30 2444 N 233.54 1.10788 -1.12088 0
M  V30 2445 C 234.786 1.82942 -0.875226 0
M  V30 2446 C 235.119 1.84779 0.597538 0
M  V30 2447 O 234.394 1.30578 1.44152 0
M  V30 2448 C 234.677 3.29789 -1.44606 0
M  V30 2449 C 234.53 3.36307 -2.98693 0
M  V30 2450 C 235.849 4.26064 -1.10261 0
M  V30 2451 H 232.968 0.664195 -0.319397 0
M  V30 2452 H 235.61 1.29867 -1.38689 0
M  V30 2453 H 233.76 3.75118 -1.01089 0
M  V30 2454 H 235.432 2.99487 -3.50864 0
M  V30 2455 H 233.675 2.76318 -3.34411 0
M  V30 2456 H 234.346 4.39694 -3.33726 0
M  V30 2457 H 236.822 3.88951 -1.4784 0
M  V30 2458 H 235.698 5.27183 -1.52869 0
M  V30 2459 H 235.959 4.42098 -0.0142953 0
M  V30 2460 N 235.018 0.912232 1.28515 0
M  V30 2461 C 236.258 0.551677 1.96814 0
M  V30 2462 C 236.622 -0.887825 1.7024 0
M  V30 2463 O 237.823 -1.35588 2.32098 0
M  V30 2464 C 236.094 0.850555 3.47132 0
M  V30 2465 S 237.653 0.59619 4.34731 0
M  V30 2466 H 234.471 0.204191 0.681049 0
M  V30 2467 H 237.073 1.17736 1.56072 0
M  V30 2468 H 235.777 1.8962 3.63968 0
M  V30 2469 H 235.308 0.213471 3.9282 0
M  V30 2470 H 237.323 -0.553154 4.93107 0
M  V30 2471 N 236.496 -1.42363 0.676048 0
M  V30 2472 C 237.406 -2.346 -0.00153389 0
M  V30 2473 C 238.422 -1.5516 -0.787485 0
M  V30 2474 O 239.598 -1.87723 -0.729521 0
M  V30 2475 C 236.663 -3.33705 -0.940298 0
M  V30 2476 C 235.724 -4.29042 -0.148739 0
M  V30 2477 C 234.957 -5.23413 -1.04279 0
M  V30 2478 O 235.18 -5.22749 -2.28232 0
M  V30 2479 O 234.114 -5.99795 -0.502925 0
M  V30 2480 H 237.94 -2.94082 0.758268 0
M  V30 2481 H 235.525 -1.42888 0.436289 0
M  V30 2482 H 237.407 -3.94586 -1.47917 0
M  V30 2483 H 236.082 -2.76695 -1.67993 0
M  V30 2484 H 234.989 -3.71571 0.43427 0
M  V30 2485 H 236.322 -4.89097 0.551805 0
M  V30 2486 N 237.974 -0.419461 -1.51915 0
M  V30 2487 C 238.922 0.415502 -2.28859 0
M  V30 2488 C 239.916 1.03674 -1.3397 0
M  V30 2489 O 241.122 0.973757 -1.51387 0
M  V30 2490 H 237.497 0.152786 -0.736315 0
M  V30 2491 H 239.468 -0.254531 -2.97312 0
M  V30 2492 C 238.217 1.51425 -3.12995 0
M  V30 2493 H 237.54 1.04556 -3.85886 0
M  V30 2494 H 238.98 2.07208 -3.6992 0
M  V30 2495 C 237.439 2.48745 -2.27217 0
M  V30 2496 O 237.969 3.52871 -1.9195 0
M  V30 2497 N 236.175 2.19202 -1.90785 0
M  V30 2498 H 235.722 1.34556 -2.19664 0
M  V30 2499 H 235.68 2.84561 -1.33687 0
M  V30 2500 N 239.452 1.56882 -0.150215 0
M  V30 2501 C 240.402 2.13501 0.800071 0
M  V30 2502 C 241.386 1.06368 1.20726 0
M  V30 2503 O 242.578 1.32538 1.17314 0
M  V30 2504 C 239.707 2.76271 2.03787 0
M  V30 2505 C 238.793 3.90533 1.65364 0
M  V30 2506 N 239.184 4.96259 0.977794 0
M  V30 2507 C 237.482 4.013 1.94613 0
M  V30 2508 C 238.183 5.76286 0.791794 0
M  V30 2509 N 237.159 5.27163 1.32666 0
M  V30 2510 H 240.961 2.92615 0.274517 0
M  V30 2511 H 238.475 1.62319 0.0512144 0
M  V30 2512 H 240.472 3.15197 2.72867 0
M  V30 2513 H 239.132 1.98631 2.56857 0
M  V30 2514 H 240.143 5.13953 0.638193 0
M  V30 2515 H 236.82 3.3474 2.4951 0
M  V30 2516 H 238.21 6.71401 0.258894 0
M  V30 2517 N 240.93 -0.123565 1.57115 0
M  V30 2518 C 241.862 -1.17739 1.96648 0
M  V30 2519 C 242.875 -1.37906 0.865201 0
M  V30 2520 O 244.064 -1.37062 1.14351 0
M  V30 2521 C 241.164 -2.53821 2.24562 0
M  V30 2522 C 240.337 -2.54317 3.55867 0
M  V30 2523 C 239.396 -3.72112 3.72047 0
M  V30 2524 O 238.422 -3.55907 4.44206 0
M  V30 2525 N 239.624 -4.90498 3.10471 0
M  V30 2526 H 242.389 -0.841147 2.87654 0
M  V30 2527 H 239.95 -0.31289 1.58848 0
M  V30 2528 H 241.942 -3.31175 2.32606 0
M  V30 2529 H 240.512 -2.79645 1.39705 0
M  V30 2530 H 239.732 -1.62711 3.59053 0
M  V30 2531 H 241.02 -2.51701 4.42181 0
M  V30 2532 H 240.418 -5.06567 2.51806 0
M  V30 2533 H 238.975 -5.65544 3.24043 0
M  V30 2534 N 242.408 -1.52605 -0.393616 0
M  V30 2535 C 243.358 -1.73436 -1.48 0
M  V30 2536 C 244.342 -0.588386 -1.49756 0
M  V30 2537 O 245.534 -0.846047 -1.5547 0
M  V30 2538 C 242.663 -1.90247 -2.85764 0
M  V30 2539 C 241.749 -3.10763 -2.88595 0
M  V30 2540 N 242.14 -4.33196 -2.61103 0
M  V30 2541 C 240.438 -3.10914 -3.19763 0
M  V30 2542 C 241.139 -5.1477 -2.70899 0
M  V30 2543 N 240.115 -4.50356 -3.04435 0
M  V30 2544 H 243.917 -2.65727 -1.25563 0
M  V30 2545 H 241.431 -1.5085 -0.601513 0
M  V30 2546 H 243.428 -2.03291 -3.63976 0
M  V30 2547 H 242.088 -0.991663 -3.09186 0
M  V30 2548 H 243.099 -4.61408 -2.35209 0
M  V30 2549 H 239.776 -2.29626 -3.4868 0
M  V30 2550 H 241.166 -6.22355 -2.53227 0
M  V30 2551 N 243.887 0.651787 -1.4349 0
M  V30 2552 C 245.133 1.4121 -1.46395 0
M  V30 2553 C 245.488 1.92202 -0.087366 0
M  V30 2554 O 244.781 1.69452 0.894231 0
M  V30 2555 C 244.975 2.60914 -2.44251 0
M  V30 2556 C 244.804 2.21639 -3.91288 0
M  V30 2557 C 243.574 2.09897 -4.59643 0
M  V30 2558 C 245.772 1.81835 -4.81083 0
M  V30 2559 N 243.754 1.63967 -5.91598 0
M  V30 2560 C 245.125 1.46998 -6.02322 0
M  V30 2561 C 247.18 1.69031 -4.6833 0
M  V30 2562 C 245.883 1.00638 -7.12225 0
M  V30 2563 C 247.909 1.24077 -5.78238 0
M  V30 2564 C 247.271 0.901772 -6.98604 0
M  V30 2565 H 243.37 0.512322 -0.590805 0
M  V30 2566 H 245.954 0.74989 -1.7968 0
M  V30 2567 H 244.125 3.24792 -2.1299 0
M  V30 2568 H 245.857 3.27622 -2.37584 0
M  V30 2569 H 242.612 2.297 -4.14168 0
M  V30 2570 H 243.036 1.43359 -6.61647 0
M  V30 2571 H 247.678 1.93878 -3.75727 0
M  V30 2572 H 245.396 0.745399 -8.04655 0
M  V30 2573 H 248.982 1.14657 -5.7039 0
M  V30 2574 H 247.862 0.559226 -7.82203 0
M  V30 2575 N 245.365 1.30045 0.890287 0
M  V30 2576 C 246.315 1.12592 1.9826 0
M  V30 2577 C 247.299 0.0426021 1.60844 0
M  V30 2578 O 248.491 0.265346 1.75 0
M  V30 2579 C 245.62 0.814301 3.33503 0
M  V30 2580 C 244.706 1.93761 3.7725 0
M  V30 2581 N 245.097 3.18232 3.93143 0
M  V30 2582 C 243.395 1.83277 4.06602 0
M  V30 2583 C 244.096 3.9158 4.30163 0
M  V30 2584 N 243.072 3.19591 4.3973 0
M  V30 2585 H 246.874 2.07003 2.08631 0
M  V30 2586 H 244.388 1.21307 1.07974 0
M  V30 2587 H 246.385 0.67029 4.11476 0
M  V30 2588 H 245.045 -0.121797 3.24471 0
M  V30 2589 H 246.056 3.53581 3.78419 0
M  V30 2590 H 242.733 0.97001 4.06075 0
M  V30 2591 H 244.123 4.98744 4.50226 0
M  V30 2592 N 246.843 -1.10192 1.12674 0
M  V30 2593 C 248.071 -1.85983 0.906527 0
M  V30 2594 C 248.486 -1.80783 -0.544333 0
M  V30 2595 O 247.843 -1.19834 -1.37645 0
M  V30 2596 C 247.894 -3.34281 1.37618 0
M  V30 2597 O 247.615 -3.39401 2.77017 0
M  V30 2598 C 249.116 -4.26938 1.19325 0
M  V30 2599 H 246.336 -0.587716 0.323775 0
M  V30 2600 H 248.88 -1.39284 1.49734 0
M  V30 2601 H 247.035 -3.78436 0.828539 0
M  V30 2602 H 247.449 -4.31838 2.97684 0
M  V30 2603 H 248.923 -5.29181 1.57071 0
M  V30 2604 H 249.4 -4.38995 0.134097 0
M  V30 2605 H 250.006 -3.8859 1.72852 0
M  V30 2606 N 248.321 -0.919034 -1.28029 0
M  V30 2607 C 249.567 -0.555757 -1.95036 0
M  V30 2608 C 249.9 0.899198 -1.72128 0
M  V30 2609 O 249.175 1.64023 -1.04531 0
M  V30 2610 C 249.458 -0.872024 -3.49382 0
M  V30 2611 C 249.311 -2.3801 -3.81669 0
M  V30 2612 C 250.63 -0.37185 -4.38526 0
M  V30 2613 H 247.749 -0.203386 -0.708381 0
M  V30 2614 H 250.391 -1.14924 -1.51303 0
M  V30 2615 H 248.541 -0.366946 -3.86763 0
M  V30 2616 H 250.213 -2.9562 -3.54128 0
M  V30 2617 H 248.456 -2.83289 -3.28526 0
M  V30 2618 H 249.127 -2.55192 -4.8947 0
M  V30 2619 H 251.603 -0.804602 -4.08247 0
M  V30 2620 H 250.479 -0.622173 -5.45362 0
M  V30 2621 H 250.74 0.727934 -4.36066 0
M  V30 2622 N 249.799 1.42003 -0.683588 0
M  V30 2623 C 251.045 2.01712 -0.209825 0
M  V30 2624 C 251.378 1.53968 1.18353 0
M  V30 2625 O 250.653 0.745661 1.79639 0
M  V30 2626 C 250.936 3.59202 -0.254197 0
M  V30 2627 C 250.789 4.17102 -1.68363 0
M  V30 2628 C 252.108 4.38344 0.392709 0
M  V30 2629 H 249.227 0.732891 -0.0777189 0
M  V30 2630 H 251.869 1.68909 -0.87004 0
M  V30 2631 H 250.019 3.87278 0.307954 0
M  V30 2632 H 251.691 3.99946 -2.29871 0
M  V30 2633 H 249.934 3.72597 -2.22157 0
M  V30 2634 H 250.605 5.26249 -1.6663 0
M  V30 2635 H 253.081 4.16011 -0.0859162 0
M  V30 2636 H 251.957 5.47901 0.331063 0
M  V30 2637 H 252.218 4.16887 1.47164 0
M  V30 2638 N 251.277 0.427512 1.51691 0
M  V30 2639 C 252.224 -0.388867 2.275 0
M  V30 2640 C 253.194 -1.02532 1.30677 0
M  V30 2641 O 254.379 -1.0461 1.59566 0
M  V30 2642 C 251.519 -1.48954 3.11298 0
M  V30 2643 C 250.632 -0.872194 4.23104 0
M  V30 2644 C 249.767 -1.94709 4.94228 0
M  V30 2645 C 248.806 -1.30766 5.97969 0
M  V30 2646 N 247.943 -2.32349 6.62539 0
M  V30 2647 H 252.783 0.263997 2.96828 0
M  V30 2648 H 250.32 0.142033 1.46413 0
M  V30 2649 H 252.278 -2.13887 3.58201 0
M  V30 2650 H 250.908 -2.11217 2.44105 0
M  V30 2651 H 249.96 -0.111419 3.80237 0
M  V30 2652 H 251.272 -0.365264 4.97461 0
M  V30 2653 H 250.426 -2.67327 5.44629 0
M  V30 2654 H 249.165 -2.48773 4.1948 0
M  V30 2655 H 248.17 -0.566902 5.4687 0
M  V30 2656 H 249.395 -0.774483 6.74669 0
M  V30 2657 H 247.341 -2.85511 5.90609 0
M  V30 2658 H 247.258 -1.8652 7.3263 0
M  V30 2659 H 248.526 -3.04481 7.17574 0
M  V30 2660 N 252.755 -1.56801 0.158532 0
M  V30 2661 C 253.665 -2.20916 -0.789518 0
M  V30 2662 C 254.681 -1.1969 -1.26294 0
M  V30 2663 O 255.857 -1.52308 -1.31773 0
M  V30 2664 C 252.922 -2.82727 -2.00665 0
M  V30 2665 C 251.983 -3.99114 -1.58134 0
M  V30 2666 C 251.216 -4.57968 -2.74045 0
M  V30 2667 O 251.439 -4.15704 -3.90572 0
M  V30 2668 O 250.373 -5.48047 -2.48855 0
M  V30 2669 H 254.199 -3.02464 -0.273681 0
M  V30 2670 H 251.784 -1.4924 -0.0690548 0
M  V30 2671 H 253.666 -3.21968 -2.71872 0
M  V30 2672 H 252.341 -2.04184 -2.51179 0
M  V30 2673 H 251.248 -3.64567 -0.839155 0
M  V30 2674 H 252.581 -4.79212 -1.12325 0
M  V30 2675 N 254.233 0.115231 -1.57178 0
M  V30 2676 C 255.196 1.12526 -1.99676 0
M  V30 2677 C 256.196 1.34095 -0.88742 0
M  V30 2678 O 257.386 1.30548 -1.15337 0
M  V30 2679 C 254.518 2.4789 -2.34015 0
M  V30 2680 H 255.711 0.759912 -2.90113 0
M  V30 2681 H 253.264 0.359648 -1.52106 0
M  V30 2682 H 253.999 2.89339 -1.4647 0
M  V30 2683 H 253.784 2.33588 -3.14927 0
M  V30 2684 H 255.274 3.20575 -2.67622 0
M  V30 2685 N 255.711 1.52812 0.385517 0
M  V30 2686 C 256.951 1.69716 1.13911 0
M  V30 2687 C 257.315 0.42962 1.87132 0
M  V30 2688 O 258.516 0.475071 2.64569 0
M  V30 2689 C 256.787 2.90021 2.0886 0
M  V30 2690 S 258.346 3.27531 2.92009 0
M  V30 2691 H 255.164 0.59739 0.385547 0
M  V30 2692 H 257.766 1.90868 0.423061 0
M  V30 2693 H 256.47 3.80493 1.53797 0
M  V30 2694 H 256.001 2.71213 2.84969 0
M  V30 2695 H 258.016 2.77989 4.11019 0
M  V30 2696 N 257.189 -0.644168 1.43834 0
M  V30 2697 C 258.119 -1.76814 1.52509 0
M  V30 2698 C 259.1 -1.65823 0.379052 0
M  V30 2699 O 260.285 -1.84781 0.597466 0
M  V30 2700 C 257.415 -3.15288 1.4564 0
M  V30 2701 C 256.369 -3.41053 2.58586 0
M  V30 2702 C 255.695 -4.79421 2.36769 0
M  V30 2703 C 256.995 -3.34902 4.00797 0
M  V30 2704 H 258.689 -1.69812 2.46586 0
M  V30 2705 H 256.235 -0.815542 1.1868 0
M  V30 2706 H 258.188 -3.93681 1.50311 0
M  V30 2707 H 256.912 -3.23043 0.480725 0
M  V30 2708 H 255.571 -2.65035 2.53282 0
M  V30 2709 H 255.219 -4.83863 1.37424 0
M  V30 2710 H 254.919 -4.9762 3.12487 0
M  V30 2711 H 256.443 -5.6006 2.43238 0
M  V30 2712 H 257.857 -4.03218 4.07539 0
M  V30 2713 H 256.254 -3.64637 4.76613 0
M  V30 2714 H 257.324 -2.32928 4.25291 0
M  V30 2715 N 258.668 -1.30515 -0.883378 0
M  V30 2716 C 259.896 -1.22359 -1.66841 0
M  V30 2717 C 260.311 0.213296 -1.87591 0
M  V30 2718 O 259.668 1.14075 -1.42454 0
M  V30 2719 C 259.719 -1.95011 -3.04389 0
M  V30 2720 O 259.44 -3.3309 -2.84575 0
M  V30 2721 C 260.941 -1.93532 -3.98824 0
M  V30 2722 H 258.161 -0.423371 -0.520575 0
M  V30 2723 H 260.705 -1.72167 -1.10357 0
M  V30 2724 H 258.86 -1.48997 -3.57601 0
M  V30 2725 H 259.274 -3.69907 -3.71846 0
M  V30 2726 H 260.748 -2.48902 -4.92699 0
M  V30 2727 H 261.225 -0.914627 -4.29571 0
M  V30 2728 H 261.831 -2.39364 -3.51547 0
M  V30 2729 N 260.146 1.09593 -1.13257 0
M  V30 2730 C 261.078 2.16015 -0.766167 0
M  V30 2731 C 262.091 1.61423 0.211303 0
M  V30 2732 O 263.28 1.78498 -0.00863946 0
M  V30 2733 C 260.38 3.38706 -0.114662 0
M  V30 2734 C 259.553 4.22717 -1.12379 0
M  V30 2735 C 258.612 5.23835 -0.498301 0
M  V30 2736 O 257.638 5.573 -1.15781 0
M  V30 2737 N 258.84 5.75886 0.730417 0
M  V30 2738 H 261.605 2.48055 -1.68193 0
M  V30 2739 H 259.166 1.25292 -1.02535 0
M  V30 2740 H 261.158 4.03464 0.315991 0
M  V30 2741 H 259.728 3.04569 0.704011 0
M  V30 2742 H 258.948 3.54122 -1.73179 0
M  V30 2743 H 260.236 4.75673 -1.80589 0
M  V30 2744 H 259.634 5.50911 1.28504 0
M  V30 2745 H 258.191 6.42387 1.10376 0
M  V30 2746 N 261.624 0.925811 1.2754 0
M  V30 2747 C 262.872 0.564138 1.94067 0
M  V30 2748 C 263.193 -0.897188 1.73134 0
M  V30 2749 O 262.463 -1.63573 1.07799 0
M  V30 2750 H 261.043 0.205645 0.718136 0
M  V30 2751 H 263.705 1.1778 1.55287 0
M  V30 2752 H 262.801 0.76881 3.02483 0
M  V30 2753 N 263.102 -1.41638 0.69111 0
M  V30 2754 C 264.035 -2.28183 -0.0274913 0
M  V30 2755 C 265.013 -1.41984 -0.792424 0
M  V30 2756 O 266.197 -1.71415 -0.784169 0
M  V30 2757 C 263.324 -3.22135 -1.04628 0
M  V30 2758 C 262.37 -4.24848 -0.375037 0
M  V30 2759 S 263.203 -5.28231 0.879321 0
M  V30 2760 C 264.359 -6.25748 -0.137983 0
M  V30 2761 H 264.592 -2.88782 0.706553 0
M  V30 2762 H 262.125 -1.46709 0.481222 0
M  V30 2763 H 264.083 -3.76797 -1.62894 0
M  V30 2764 H 262.744 -2.6064 -1.75287 0
M  V30 2765 H 261.937 -4.90837 -1.14433 0
M  V30 2766 H 261.539 -3.73758 0.134434 0
M  V30 2767 H 263.831 -6.70188 -0.992659 0
M  V30 2768 H 264.774 -7.06417 0.487867 0
M  V30 2769 H 265.182 -5.62363 -0.490762 0
M  V30 2770 N 264.58 -0.43555 -1.51462 0
M  V30 2771 C 265.808 0.130242 -2.0649 0
M  V30 2772 C 266.223 1.36614 -1.30315 0
M  V30 2773 O 265.58 1.78869 -0.362223 0
M  V30 2774 C 265.631 0.454253 -3.58635 0
M  V30 2775 O 265.352 -0.73259 -4.31931 0
M  V30 2776 C 266.853 1.07091 -4.3017 0
M  V30 2777 H 264.073 0.00871669 -0.670943 0
M  V30 2778 H 266.617 -0.614117 -1.95061 0
M  V30 2779 H 264.772 1.14851 -3.69984 0
M  V30 2780 H 265.186 -0.455787 -5.22516 0
M  V30 2781 H 266.66 1.24764 -5.37716 0
M  V30 2782 H 267.137 2.05144 -3.88346 0
M  V30 2783 H 267.743 0.416089 -4.2326 0
M  V30 2784 N 266.058 1.56714 -0.166846 0
M  V30 2785 C 266.988 2.20754 0.760913 0
M  V30 2786 C 267.969 1.16178 1.24244 0
M  V30 2787 O 269.154 1.44592 1.29641 0
M  V30 2788 C 266.284 2.84478 1.99223 0
M  V30 2789 C 265.238 3.95053 1.64672 0
M  V30 2790 C 264.564 4.45805 2.95232 0
M  V30 2791 C 265.864 5.14865 0.878155 0
M  V30 2792 H 267.558 2.98537 0.22713 0
M  V30 2793 H 265.104 1.43596 0.107805 0
M  V30 2794 H 267.057 3.27951 2.64624 0
M  V30 2795 H 265.781 2.04056 2.55007 0
M  V30 2796 H 264.44 3.52228 1.01641 0
M  V30 2797 H 264.088 3.62181 3.49047 0
M  V30 2798 H 263.788 5.204 2.7287 0
M  V30 2799 H 265.312 4.91962 3.6167 0
M  V30 2800 H 266.726 5.55059 1.43466 0
M  V30 2801 H 265.123 5.95348 0.753738 0
M  V30 2802 H 266.193 4.84735 -0.126377 0
M  V30 2803 N 267.536 -0.106894 1.57237 0
M  V30 2804 C 268.766 -0.825191 1.89405 0
M  V30 2805 C 269.174 -1.73374 0.757496 0
M  V30 2806 O 268.517 -1.81552 -0.280115 0
M  V30 2807 C 268.579 -1.70102 3.1671 0
M  V30 2808 C 268.243 -0.965523 4.46684 0
M  V30 2809 C 269.24 -0.300741 5.19029 0
M  V30 2810 C 266.925 -0.943105 4.93367 0
M  V30 2811 C 268.919 0.376622 6.36286 0
M  V30 2812 C 266.606 -0.261949 6.10538 0
M  V30 2813 C 267.604 0.396748 6.81847 0
M  V30 2814 O 267.292 1.06701 7.96787 0
M  V30 2815 H 267.024 -0.241852 0.631255 0
M  V30 2816 H 269.578 -0.0921491 2.05193 0
M  V30 2817 H 267.808 -2.47601 2.97036 0
M  V30 2818 H 269.497 -2.29483 3.34802 0
M  V30 2819 H 270.263 -0.309599 4.84011 0
M  V30 2820 H 266.142 -1.44524 4.3776 0
M  V30 2821 H 269.686 0.891334 6.91882 0
M  V30 2822 H 265.583 -0.250896 6.45012 0
M  V30 2823 H 266.351 0.972707 8.127 0
M  V30 2824 N 269.014 -1.53014 -0.377408 0
M  V30 2825 C 270.239 -1.72818 -1.14668 0
M  V30 2826 C 270.664 -0.450725 -1.8262 0
M  V30 2827 O 270.022 0.59439 -1.7128 0
M  V30 2828 C 270.07 -2.88627 -2.16164 0
M  V30 2829 O 269.174 -2.56409 -3.22998 0
M  V30 2830 H 268.515 -0.574301 -0.333278 0
M  V30 2831 H 271.045 -1.99853 -0.438152 0
M  V30 2832 H 271.055 -3.14455 -2.59966 0
M  V30 2833 H 269.73 -3.81294 -1.66095 0
M  V30 2834 H 268.307 -2.4136 -2.84253 0
M  V30 2835 N 270.492 0.636531 -1.44174 0
M  V30 2836 C 271.722 1.42146 -1.49927 0
M  V30 2837 C 272.13 1.88812 -0.121063 0
M  V30 2838 O 271.473 1.61126 0.882267 0
M  V30 2839 C 271.535 2.67883 -2.39748 0
M  V30 2840 C 271.199 2.43048 -3.8701 0
M  V30 2841 C 272.196 2.05216 -4.77684 0
M  V30 2842 C 269.881 2.56856 -4.3166 0
M  V30 2843 C 271.875 1.81512 -6.11009 0
M  V30 2844 C 269.562 2.32766 -5.65034 0
M  V30 2845 C 270.56 1.95152 -6.54526 0
M  V30 2846 O 270.248 1.71326 -7.85431 0
M  V30 2847 H 269.98 0.442567 -0.51099 0
M  V30 2848 H 272.534 0.786158 -1.8976 0
M  V30 2849 H 270.764 3.34032 -1.94832 0
M  V30 2850 H 272.453 3.29874 -2.36513 0
M  V30 2851 H 273.219 1.94111 -4.44462 0
M  V30 2852 H 269.098 2.85104 -3.62266 0
M  V30 2853 H 272.642 1.52077 -6.80822 0
M  V30 2854 H 268.539 2.43479 -5.97819 0
M  V30 2855 H 269.307 1.85616 -7.97176 0
M  V30 2856 N 271.97 1.30982 0.876444 0
M  V30 2857 C 273.218 1.20058 1.62575 0
M  V30 2858 C 273.539 -0.242947 1.93481 0
M  V30 2859 O 272.809 -1.1619 1.57724 0
M  V30 2860 H 271.389 0.44135 0.602677 0
M  V30 2861 H 274.051 1.64222 1.04962 0
M  V30 2862 H 273.147 1.76762 2.57219 0
M  V30 2863 N 273.449 -1.08991 1.13837 0
M  V30 2864 C 274.382 -2.15049 0.763477 0
M  V30 2865 C 275.36 -1.60629 -0.252398 0
M  V30 2866 O 276.544 -1.87958 -0.142853 0
M  V30 2867 C 273.671 -3.38441 0.132545 0
M  V30 2868 C 272.717 -4.11596 1.11763 0
M  V30 2869 S 273.55 -4.6521 2.65216 0
M  V30 2870 C 274.706 -5.91896 2.03495 0
M  V30 2871 H 274.939 -2.46518 1.66182 0
M  V30 2872 H 272.472 -1.21008 0.958976 0
M  V30 2873 H 274.43 -4.09883 -0.225074 0
M  V30 2874 H 273.091 -3.05182 -0.743135 0
M  V30 2875 H 272.284 -5.00121 0.624076 0
M  V30 2876 H 271.886 -3.46038 1.41894 0
M  V30 2877 H 274.178 -6.63156 1.38675 0
M  V30 2878 H 275.121 -6.45938 2.9012 0
M  V30 2879 H 275.529 -5.44625 1.48471 0
M  V30 2880 N 274.927 -0.932562 -1.27047 0
M  V30 2881 C 275.857 -0.452902 -2.29066 0
M  V30 2882 C 276.838 0.489338 -1.62909 0
M  V30 2883 O 278.023 0.393046 -1.90181 0
M  V30 2884 C 275.153 0.290698 -3.46081 0
M  V30 2885 C 274.107 -0.564168 -4.24265 0
M  V30 2886 C 273.433 0.308886 -5.33807 0
M  V30 2887 C 274.733 -1.83112 -4.89149 0
M  V30 2888 H 276.427 -1.30552 -2.69437 0
M  V30 2889 H 273.973 -0.629201 -1.29526 0
M  V30 2890 H 275.926 0.637233 -4.16554 0
M  V30 2891 H 274.65 1.17738 -3.0464 0
M  V30 2892 H 273.309 -0.893477 -3.55545 0
M  V30 2893 H 272.957 1.19467 -4.88607 0
M  V30 2894 H 272.657 -0.259633 -5.87026 0
M  V30 2895 H 274.181 0.650884 -6.07121 0
M  V30 2896 H 275.595 -1.55236 -5.51883 0
M  V30 2897 H 273.992 -2.34353 -5.52448 0
M  V30 2898 H 275.062 -2.54772 -4.12576 0
M  V30 2899 N 276.405 1.4127 -0.698611 0
M  V30 2900 C 277.335 2.33447 -0.049629 0
M  V30 2901 C 278.316 1.51982 0.763898 0
M  V30 2902 O 279.501 1.80509 0.716257 0
M  V30 2903 C 276.631 3.35828 0.885267 0
M  V30 2904 C 275.585 4.27627 0.178613 0
M  V30 2905 C 274.911 5.20406 1.22807 0
M  V30 2906 C 276.211 5.13459 -0.956933 0
M  V30 2907 H 277.905 2.87966 -0.81951 0
M  V30 2908 H 275.451 1.38461 -0.395538 0
M  V30 2909 H 277.404 3.9924 1.34854 0
M  V30 2910 H 276.128 2.79666 1.68685 0
M  V30 2911 H 274.787 3.65643 -0.26466 0
M  V30 2912 H 274.435 4.60558 2.02226 0
M  V30 2913 H 274.135 5.82661 0.760239 0
M  V30 2914 H 275.659 5.86695 1.69179 0
M  V30 2915 H 277.073 5.70421 -0.573805 0
M  V30 2916 H 275.47 5.8467 -1.35205 0
M  V30 2917 H 276.54 4.50443 -1.79524 0
M  V30 2918 N 277.883 0.443576 1.51229 0
M  V30 2919 C 279.294 -0.0180867 1.86691 0
M  V30 2920 C 279.645 -1.41384 1.36033 0
M  V30 2921 O 278.77 -2.04291 0.713722 0
M  V30 2922 C 279.365 -0.039597 3.38777 0
M  V30 2923 C 277.924 -0.445692 3.73752 0
M  V30 2924 C 277.071 0.357584 2.74985 0
M  V30 2925 H 280.022 0.659138 1.44364 0
M  V30 2926 H 280.043 -0.847761 3.70936 0
M  V30 2927 H 279.555 0.976382 3.75617 0
M  V30 2928 H 277.656 -1.46704 3.42503 0
M  V30 2929 H 277.769 -0.166155 4.78812 0
M  V30 2930 H 276.133 -0.184973 2.54027 0
M  V30 2931 H 276.916 1.37256 3.14668 0
M  V30 2932 N 279.361 -1.56624 0.175154 0
M  V30 2933 C 280.601 -1.98894 -0.471221 0
M  V30 2934 C 280.965 -1.05889 -1.60161 0
M  V30 2935 O 282.166 -1.37315 -2.3108 0
M  V30 2936 C 280.437 -3.44865 -0.938241 0
M  V30 2937 S 281.996 -4.09164 -1.58526 0
M  V30 2938 H 278.814 -0.694686 -0.151434 0
M  V30 2939 H 281.416 -1.93577 0.27352 0
M  V30 2940 H 280.12 -4.10265 -0.10518 0
M  V30 2941 H 279.651 -3.53956 -1.71693 0
M  V30 2942 H 281.666 -4.04528 -2.87352 0
M  V30 2943 N 280.839 0.0985539 -1.57292 0
M  V30 2944 C 282.087 0.801092 -1.85545 0
M  V30 2945 C 282.408 1.79438 -0.763353 0
M  V30 2946 O 281.678 1.94763 0.21073 0
M  V30 2947 H 280.258 0.29884 -0.684619 0
M  V30 2948 H 282.92 0.0810064 -1.94732 0
M  V30 2949 H 282.016 1.3338 -2.82163 0
M  V30 2950 N 282.317 1.53212 0.369288 0
M  V30 2951 C 283.563 1.69466 1.11397 0
M  V30 2952 C 283.896 0.443257 1.89074 0
M  V30 2953 O 283.171 -0.559386 1.86282 0
M  V30 2954 C 283.454 2.9422 2.07621 0
M  V30 2955 C 283.307 4.29508 1.33577 0
M  V30 2956 C 284.626 3.14565 3.07794 0
M  V30 2957 H 281.745 0.616667 0.403597 0
M  V30 2958 H 284.387 1.85845 0.395179 0
M  V30 2959 H 282.537 2.80387 2.68916 0
M  V30 2960 H 284.209 4.55147 0.750955 0
M  V30 2961 H 282.452 4.29088 0.637618 0
M  V30 2962 H 283.123 5.12926 2.03989 0
M  V30 2963 H 285.599 3.2756 2.56601 0
M  V30 2964 H 284.475 4.03297 3.72348 0
M  V30 2965 H 284.736 2.29675 3.77759 0
M  V30 2966 N 283.795 -0.628877 1.44509 0
M  V30 2967 C 285.072 -1.38733 1.37886 0
M  V30 2968 C 285.452 -2.11065 0.0387008 0
M  V30 2969 O 284.8 -2.06476 -0.97878 0
M  V30 2970 C 285.01 -2.35188 2.57852 0
M  V30 2971 C 286.358 -2.9845 3.02014 0
M  V30 2972 O 287.382 -2.45513 2.58073 0
M  V30 2973 O 286.241 -3.94487 3.78209 0
M  V30 2974 H 283.335 -0.621015 0.54614 0
M  V30 2975 H 285.881 -0.653744 1.56602 0
M  V30 2976 H 284.653 -1.80855 3.46998 0
M  V30 2977 H 284.276 -3.1596 2.4136 0
M  V30 2978 N 285.273 -1.31445 -0.869486 0
M  V30 2979 C 286.205 -1.14955 -1.98287 0
M  V30 2980 C 287.218 -0.0885037 -1.62559 0
M  V30 2981 O 288.407 -0.336044 -1.75308 0
M  V30 2982 C 285.507 -0.734255 -3.3085 0
M  V30 2983 C 284.68 -1.88042 -3.94917 0
M  V30 2984 C 283.739 -1.4511 -5.05796 0
M  V30 2985 O 282.765 -2.16082 -5.2659 0
M  V30 2986 N 283.967 -0.338763 -5.79511 0
M  V30 2987 H 286.732 -2.10856 -2.12979 0
M  V30 2988 H 284.293 -1.23786 -1.04349 0
M  V30 2989 H 286.285 -0.42975 -4.02412 0
M  V30 2990 H 284.855 0.133158 -3.12316 0
M  V30 2991 H 284.075 -2.35222 -3.1633 0
M  V30 2992 H 285.363 -2.6481 -4.34457 0
M  V30 2993 H 284.761 0.252274 -5.65137 0
M  V30 2994 H 283.318 -0.0937925 -6.51733 0
M  V30 2995 N 286.751 1.08385 -1.14413 0
M  V30 2996 C 287.998 1.80776 -0.912482 0
M  V30 2997 C 288.326 1.86236 0.560934 0
M  V30 2998 O 287.581 1.33431 1.43159 0
M  V30 2999 C 287.88 3.26273 -1.45879 0
M  V30 3000 C 287.546 3.4093 -2.95089 0
M  V30 3001 C 286.208 3.44638 -3.35824 0
M  V30 3002 C 288.56 3.44591 -3.91033 0
M  V30 3003 C 285.888 3.49597 -4.71167 0
M  V30 3004 C 288.24 3.51086 -5.26233 0
M  V30 3005 C 286.904 3.53067 -5.6648 0
M  V30 3006 H 286.174 0.661507 -0.333901 0
M  V30 3007 H 288.821 1.27613 -1.42784 0
M  V30 3008 H 287.126 3.82146 -0.864376 0
M  V30 3009 H 288.823 3.80839 -1.2555 0
M  V30 3010 H 285.413 3.38736 -2.62594 0
M  V30 3011 H 289.597 3.40957 -3.60641 0
M  V30 3012 H 284.853 3.49424 -5.0171 0
M  V30 3013 H 289.027 3.52864 -6.00383 0
M  V30 3014 H 286.654 3.56662 -6.71339 0
M  V30 3015 N 288.23 0.939286 1.26551 0
M  V30 3016 C 289.18 0.418284 2.2413 0
M  V30 3017 C 290.164 -0.483935 1.5345 0
M  V30 3018 O 291.356 -0.319489 1.74093 0
M  V30 3019 C 288.485 -0.31709 3.41832 0
M  V30 3020 C 287.571 0.602311 4.19801 0
M  V30 3021 N 287.962 1.72726 4.75394 0
M  V30 3022 C 286.26 0.407534 4.44134 0
M  V30 3023 C 286.961 2.30004 5.34297 0
M  V30 3024 N 285.937 1.58828 5.1988 0
M  V30 3025 H 289.739 1.27705 2.64705 0
M  V30 3026 H 287.253 0.794929 1.41614 0
M  V30 3027 H 289.25 -0.707364 4.10855 0
M  V30 3028 H 287.91 -1.17264 3.02786 0
M  V30 3029 H 288.921 2.10944 4.72994 0
M  V30 3030 H 285.598 -0.406406 4.15517 0
M  V30 3031 H 286.988 3.24778 5.88191 0
M  V30 3032 N 289.708 -1.40897 0.706093 0
M  V30 3033 C 290.956 -2.00657 0.241054 0
M  V30 3034 C 291.277 -1.56241 -1.16678 0
M  V30 3035 O 290.547 -0.79765 -1.78926 0
M  V30 3036 H 289.127 -0.742018 0.0861308 0
M  V30 3037 H 291.789 -1.72372 0.909604 0
M  V30 3038 H 290.885 -3.10958 0.266705 0
M  V30 3039 N 291.186 -0.45159 -1.50991 0
M  V30 3040 C 292.414 0.108334 -2.06616 0
M  V30 3041 C 292.829 1.35224 -1.31757 0
M  V30 3042 O 292.186 1.78475 -0.381174 0
M  V30 3043 C 292.237 0.41619 -3.59096 0
M  V30 3044 O 291.958 -0.778361 -4.3113 0
M  V30 3045 C 293.459 1.02523 -4.31282 0
M  V30 3046 H 290.679 0.00159995 -0.670998 0
M  V30 3047 H 293.223 -0.634771 -1.94399 0
M  V30 3048 H 291.378 1.10921 -3.71181 0
M  V30 3049 H 291.792 -0.511181 -5.22003 0
M  V30 3050 H 293.266 1.19053 -5.39009 0
M  V30 3051 H 293.743 2.01013 -3.905 0
M  V30 3052 H 294.349 0.371173 -4.23677 0
M  V30 3053 N 292.664 1.56529 -0.183458 0
M  V30 3054 C 293.574 2.22144 0.754272 0
M  V30 3055 C 294.59 1.21684 1.24374 0
M  V30 3056 O 295.766 1.54385 1.29333 0
M  V30 3057 C 292.831 2.85884 1.96141 0
M  V30 3058 C 291.892 4.01579 1.51765 0
M  V30 3059 C 291.125 4.6227 2.66725 0
M  V30 3060 O 291.348 4.21865 3.83909 0
M  V30 3061 O 290.282 5.51936 2.40104 0
M  V30 3062 H 294.108 3.02861 0.225527 0
M  V30 3063 H 291.693 1.49331 0.0453032 0
M  V30 3064 H 293.575 3.26253 2.66715 0
M  V30 3065 H 292.25 2.08154 2.47899 0
M  V30 3066 H 291.157 3.65856 0.781049 0
M  V30 3067 H 292.49 4.80938 1.04686 0
M  V30 3068 N 294.142 -0.090211 1.57342 0
M  V30 3069 C 295.372 -0.805055 1.90269 0
M  V30 3070 C 295.78 -1.72561 0.775842 0
M  V30 3071 O 295.123 -1.81839 -0.260843 0
M  V30 3072 C 295.185 -1.66734 3.18497 0
M  V30 3073 C 294.849 -0.918092 4.47683 0
M  V30 3074 C 295.846 -0.245674 5.19319 0
M  V30 3075 C 293.531 -0.890724 4.94339 0
M  V30 3076 C 295.525 0.444088 6.35851 0
M  V30 3077 C 293.212 -0.197179 6.10782 0
M  V30 3078 C 294.21 0.469044 6.81388 0
M  V30 3079 O 293.898 1.15146 7.95611 0
M  V30 3080 H 293.63 -0.235143 0.633785 0
M  V30 3081 H 296.184 -0.0703805 2.05279 0
M  V30 3082 H 294.414 -2.44437 2.99646 0
M  V30 3083 H 296.103 -2.25919 3.37217 0
M  V30 3084 H 296.869 -0.258246 4.84312 0
M  V30 3085 H 292.748 -1.39873 4.39268 0
M  V30 3086 H 296.292 0.964667 6.90898 0
M  V30 3087 H 292.189 -0.18247 6.45242 0
M  V30 3088 H 292.957 1.05885 8.11622 0
M  V30 3089 N 295.62 -1.53406 -0.361157 0
M  V30 3090 C 296.866 -1.70054 -1.10496 0
M  V30 3091 C 297.199 -0.453278 -1.88836 0
M  V30 3092 O 296.474 0.5495 -1.86576 0
M  V30 3093 C 296.757 -2.95317 -2.06058 0
M  V30 3094 C 296.61 -4.3021 -1.31298 0
M  V30 3095 C 297.929 -3.16193 -3.06121 0
M  V30 3096 H 295.048 -0.618799 -0.400321 0
M  V30 3097 H 297.69 -1.86052 -0.385318 0
M  V30 3098 H 295.84 -2.81809 -2.67425 0
M  V30 3099 H 297.512 -4.55538 -0.726807 0
M  V30 3100 H 295.755 -4.29421 -0.614853 0
M  V30 3101 H 296.426 -5.14 -2.01265 0
M  V30 3102 H 298.902 -3.28916 -2.5486 0
M  V30 3103 H 297.778 -4.05266 -3.70204 0
M  V30 3104 H 298.039 -2.31676 -3.76535 0
M  V30 3105 N 297.098 0.621204 -1.44841 0
M  V30 3106 C 298.338 1.39201 -1.49674 0
M  V30 3107 C 298.702 1.91561 -0.129764 0
M  V30 3108 O 299.903 2.68748 -0.0527814 0
M  V30 3109 C 298.174 2.519 -2.53537 0
M  V30 3110 S 299.733 3.39916 -2.77494 0
M  V30 3111 H 296.551 0.474758 -0.529269 0
M  V30 3112 H 299.153 0.718171 -1.81831 0
M  V30 3113 H 297.857 2.11761 -3.51547 0
M  V30 3114 H 297.388 3.241 -2.22986 0
M  V30 3115 H 299.403 4.49646 -2.0984 0
M  V30 3116 N 298.576 1.31904 0.862503 0
M  V30 3117 C 299.816 1.23324 1.63004 0
M  V30 3118 C 300.18 -0.203724 1.90916 0
M  V30 3119 O 301.381 -0.413132 2.65606 0
M  V30 3120 C 299.652 2.06116 2.91978 0
M  V30 3121 S 301.211 2.14478 3.82812 0
M  V30 3122 H 298.029 0.439117 0.559193 0
M  V30 3123 H 300.631 1.66658 1.02202 0
M  V30 3124 H 299.335 3.09593 2.69407 0
M  V30 3125 H 298.866 1.6353 3.57801 0
M  V30 3126 H 300.881 1.28855 4.79177 0
M  V30 3127 N 300.054 -1.07777 1.14986 0
M  V30 3128 C 301.465 -1.61766 0.932127 0
M  V30 3129 C 301.816 -1.88974 -0.527581 0
M  V30 3130 O 300.941 -1.65198 -1.39781 0
M  V30 3131 C 301.536 -2.93891 1.68563 0
M  V30 3132 C 300.095 -3.44639 1.5133 0
M  V30 3133 C 299.242 -2.18767 1.704 0
M  V30 3134 H 302.193 -0.909201 1.30074 0
M  V30 3135 H 302.214 -3.62623 1.15259 0
M  V30 3136 H 301.726 -2.74057 2.74799 0
M  V30 3137 H 299.827 -3.69564 0.474702 0
M  V30 3138 H 299.94 -4.20966 2.28746 0
M  V30 3139 H 298.304 -2.28253 1.13016 0
M  V30 3140 H 299.087 -2.01433 2.77992 0
M  V30 3141 N 301.532 -0.945985 -1.26051 0
M  V30 3142 C 302.464 -0.416662 -2.25381 0
M  V30 3143 C 303.477 0.462712 -1.56086 0
M  V30 3144 O 304.666 0.272383 -1.7641 0
M  V30 3145 C 301.766 0.419812 -3.3629 0
M  V30 3146 C 300.939 -0.444531 -4.35135 0
M  V30 3147 C 299.998 0.332305 -5.2515 0
M  V30 3148 O 299.024 -0.266324 -5.68577 0
M  V30 3149 N 300.226 1.62763 -5.57215 0
M  V30 3150 H 302.991 -1.27059 -2.71433 0
M  V30 3151 H 300.552 -0.815392 -1.39868 0
M  V30 3152 H 302.544 0.947013 -3.93464 0
M  V30 3153 H 301.114 1.17456 -2.89694 0
M  V30 3154 H 300.334 -1.15291 -3.76964 0
M  V30 3155 H 301.622 -1.03478 -4.98166 0
M  V30 3156 H 301.02 2.13603 -5.23823 0
M  V30 3157 H 299.577 2.10097 -6.17011 0
M  V30 3158 N 303.011 1.40521 -0.713556 0
M  V30 3159 C 304.239 2.05237 -0.261775 0
M  V30 3160 C 304.654 1.53755 1.09567 0
M  V30 3161 O 304.011 0.693268 1.6882 0
M  V30 3162 C 304.062 3.60763 -0.230706 0
M  V30 3163 O 303.783 4.10345 -1.53455 0
M  V30 3164 C 305.284 4.42651 0.239874 0
M  V30 3165 H 302.504 0.660533 -0.118057 0
M  V30 3166 H 305.048 1.79967 -0.971192 0
M  V30 3167 H 303.203 3.8501 0.429661 0
M  V30 3168 H 303.617 5.04526 -1.43366 0
M  V30 3169 H 305.091 5.51599 0.210468 0
M  V30 3170 H 305.568 4.20082 1.28171 0
M  V30 3171 H 306.174 4.23507 -0.390142 0
M  V30 3172 N 304.489 0.459591 1.5075 0
M  V30 3173 C 305.436 -0.340524 2.28274 0
M  V30 3174 C 306.406 -0.997371 1.32822 0
M  V30 3175 O 307.591 -1.01202 1.61749 0
M  V30 3176 C 304.731 -1.42317 3.14388 0
M  V30 3177 C 303.844 -0.782251 4.24859 0
M  V30 3178 C 302.979 -1.84182 4.98247 0
M  V30 3179 C 302.018 -1.18053 6.00608 0
M  V30 3180 N 301.155 -2.18244 6.67319 0
M  V30 3181 H 305.995 0.326899 2.96202 0
M  V30 3182 H 303.532 0.173057 1.46078 0
M  V30 3183 H 305.49 -2.06241 3.62658 0
M  V30 3184 H 304.12 -2.05992 2.4853 0
M  V30 3185 H 303.172 -0.0307404 3.80388 0
M  V30 3186 H 304.484 -0.259663 4.98124 0
M  V30 3187 H 303.638 -2.55714 5.50177 0
M  V30 3188 H 302.377 -2.39819 4.24662 0
M  V30 3189 H 301.382 -0.450776 5.47949 0
M  V30 3190 H 302.607 -0.631202 6.7616 0
M  V30 3191 H 300.553 -2.72919 5.96533 0
M  V30 3192 H 300.47 -1.70938 7.36421 0
M  V30 3193 H 301.738 -2.89191 7.23871 0
M  V30 3194 N 305.967 -1.56429 0.191757 0
M  V30 3195 C 307.216 -1.9666 -0.448088 0
M  V30 3196 C 307.529 -1.08136 -1.62991 0
M  V30 3197 O 308.735 -1.38135 -2.33733 0
M  V30 3198 C 307.191 -3.49753 -0.848585 0
M  V30 3199 C 306.799 -4.46935 0.308764 0
M  V30 3200 C 308.543 -3.9876 -1.4557 0
M  V30 3201 C 306.45 -5.91293 -0.112506 0
M  V30 3202 H 305.38 -0.734312 -0.171179 0
M  V30 3203 H 308.031 -1.81301 0.283242 0
M  V30 3204 H 306.413 -3.60604 -1.63649 0
M  V30 3205 H 307.587 -4.47813 1.08627 0
M  V30 3206 H 305.902 -4.08102 0.827158 0
M  V30 3207 H 308.499 -5.04086 -1.78328 0
M  V30 3208 H 308.842 -3.42875 -2.36099 0
M  V30 3209 H 309.375 -3.9101 -0.731836 0
M  V30 3210 H 306.114 -6.51097 0.758514 0
M  V30 3211 H 305.634 -5.93676 -0.854941 0
M  V30 3212 H 307.313 -6.44663 -0.549448 0
M  V30 3213 N 307.445 0.0818655 -1.57387 0
M  V30 3214 C 308.694 0.781681 -1.85937 0
M  V30 3215 C 309.007 1.79246 -0.782957 0
M  V30 3216 O 310.213 2.54112 -0.955987 0
M  V30 3217 C 308.669 1.44109 -3.29789 0
M  V30 3218 C 308.277 0.469396 -4.45534 0
M  V30 3219 C 310.021 2.12386 -3.67549 0
M  V30 3220 C 307.928 1.13415 -5.80423 0
M  V30 3221 H 306.858 0.295682 -0.693605 0
M  V30 3222 H 309.509 0.0348051 -1.83467 0
M  V30 3223 H 307.891 2.23588 -3.2684 0
M  V30 3224 H 309.065 -0.294856 -4.59856 0
M  V30 3225 H 307.38 -0.108383 -4.16259 0
M  V30 3226 H 309.977 2.62878 -4.65617 0
M  V30 3227 H 310.32 2.91877 -2.96839 0
M  V30 3228 H 310.853 1.39751 -3.72444 0
M  V30 3229 H 307.592 0.379771 -6.54399 0
M  V30 3230 H 307.112 1.8695 -5.69921 0
M  V30 3231 H 308.791 1.65686 -6.25426 0
M  V30 3232 N 308.923 1.53595 0.353017 0
M  V30 3233 C 310.171 1.70049 1.09215 0
M  V30 3234 C 310.492 0.461406 1.89463 0
M  V30 3235 O 309.762 -0.524633 1.88744 0
M  V30 3236 H 308.342 0.626912 0.40619 0
M  V30 3237 H 311.004 1.90822 0.396585 0
M  V30 3238 H 310.1 2.56718 1.77488 0
M  V30 3239 N 310.401 -0.613514 1.45168 0
M  V30 3240 C 311.626 -1.40437 1.52618 0
M  V30 3241 C 312.051 -1.87438 0.157707 0
M  V30 3242 O 311.409 -1.59791 -0.856537 0
M  V30 3243 C 311.457 -2.58894 2.51011 0
M  V30 3244 O 310.561 -3.59326 2.02382 0
M  V30 3245 H 309.902 -0.419506 0.514695 0
M  V30 3246 H 312.432 -0.747215 1.90467 0
M  V30 3247 H 312.442 -3.06214 2.69624 0
M  V30 3248 H 311.117 -2.24032 3.50403 0
M  V30 3249 H 309.694 -3.18695 1.93618 0
M  V30 3250 N 311.879 -1.3236 -0.855495 0
M  V30 3251 C 313.125 -1.23054 -1.612 0
M  V30 3252 C 313.458 0.207404 -1.93089 0
M  V30 3253 O 312.733 1.14432 -1.57275 0
M  V30 3254 C 313.016 -2.08937 -2.93287 0
M  V30 3255 C 312.869 -3.61105 -2.68185 0
M  V30 3256 C 314.188 -1.94986 -3.94549 0
M  V30 3257 H 311.307 -0.448364 -0.584926 0
M  V30 3258 H 313.949 -1.62297 -0.987917 0
M  V30 3259 H 312.099 -1.75599 -3.46551 0
M  V30 3260 H 313.771 -4.04652 -2.21483 0
M  V30 3261 H 312.014 -3.83813 -2.02164 0
M  V30 3262 H 312.685 -4.16522 -3.62234 0
M  V30 3263 H 315.161 -2.24189 -3.5054 0
M  V30 3264 H 314.037 -2.57356 -4.84829 0
M  V30 3265 H 314.298 -0.917263 -4.3248 0
M  V30 3266 N 313.357 1.07166 -1.15556 0
M  V30 3267 C 314.582 1.84053 -0.955988 0
M  V30 3268 C 315.007 1.81586 0.490739 0
M  V30 3269 O 314.365 1.21018 1.34997 0
M  V30 3270 C 314.413 3.28957 -1.47714 0
M  V30 3271 O 313.517 4.06795 -0.677593 0
M  V30 3272 H 312.858 0.569842 -0.340847 0
M  V30 3273 H 315.388 1.35178 -1.53584 0
M  V30 3274 H 315.398 3.79788 -1.4908 0
M  V30 3275 H 314.073 3.30068 -2.53037 0
M  V30 3276 H 312.65 3.6561 -0.733721 0
M  V30 3277 N 314.835 0.952656 1.25548 0
M  V30 3278 C 315.782 0.47008 2.25962 0
M  V30 3279 C 316.752 -0.476384 1.59122 0
M  V30 3280 O 317.937 -0.39007 1.8677 0
M  V30 3281 C 315.077 -0.247881 3.44209 0
M  V30 3282 C 314.19 0.735591 4.25691 0
M  V30 3283 C 313.325 -0.0047306 5.312 0
M  V30 3284 C 312.364 0.969805 6.04368 0
M  V30 3285 N 311.501 0.260486 7.01617 0
M  V30 3286 H 316.341 1.33126 2.66611 0
M  V30 3287 H 313.878 0.66765 1.31076 0
M  V30 3288 H 315.836 -0.680695 4.1161 0
M  V30 3289 H 314.466 -1.07312 3.0444 0
M  V30 3290 H 313.518 1.28689 3.57971 0
M  V30 3291 H 314.83 1.47934 4.76358 0
M  V30 3292 H 313.984 -0.496275 6.04667 0
M  V30 3293 H 312.723 -0.781282 4.81401 0
M  V30 3294 H 311.728 1.47237 5.29718 0
M  V30 3295 H 312.953 1.74655 6.56256 0
M  V30 3296 H 310.899 -0.497364 6.54112 0
M  V30 3297 H 310.816 0.943362 7.50091 0
M  V30 3298 H 312.084 -0.209587 7.79218 0
M  V30 3299 N 316.313 -1.40141 0.720998 0
M  V30 3300 C 317.223 -2.34486 0.0731031 0
M  V30 3301 C 318.239 -1.57587 -0.737723 0
M  V30 3302 O 319.415 -1.89949 -0.669429 0
M  V30 3303 C 316.48 -3.36528 -0.833656 0
M  V30 3304 C 315.541 -4.29298 -0.0121673 0
M  V30 3305 C 314.774 -5.26466 -0.875742 0
M  V30 3306 O 314.997 -5.29745 -2.11485 0
M  V30 3307 O 313.931 -6.01092 -0.31185 0
M  V30 3308 H 317.757 -2.9152 0.851444 0
M  V30 3309 H 315.342 -1.41427 0.481527 0
M  V30 3310 H 317.224 -3.99093 -1.35289 0
M  V30 3311 H 315.899 -2.81899 -1.59105 0
M  V30 3312 H 314.806 -3.70001 0.552262 0
M  V30 3313 H 316.139 -4.87094 0.707129 0
M  V30 3314 N 317.792 -0.46758 -1.50504 0
M  V30 3315 C 318.702 0.33382 -2.32213 0
M  V30 3316 C 319.718 0.999323 -1.42441 0
M  V30 3317 O 320.894 0.988068 -1.75497 0
M  V30 3318 C 317.959 1.4035 -3.17022 0
M  V30 3319 C 317.02 0.754961 -4.2261 0
M  V30 3320 C 316.253 1.77367 -5.03365 0
M  V30 3321 O 316.476 2.99976 -4.8515 0
M  V30 3322 O 315.41 1.34744 -5.86624 0
M  V30 3323 H 319.236 -0.334067 -3.01857 0
M  V30 3324 H 316.821 -0.229496 -1.47627 0
M  V30 3325 H 318.703 2.02318 -3.69656 0
M  V30 3326 H 317.378 2.05492 -2.5011 0
M  V30 3327 H 316.285 0.0964244 -3.73976 0
M  V30 3328 H 317.618 0.146545 -4.91982 0
M  V30 3329 N 319.27 1.56325 -0.20005 0
M  V30 3330 C 320.18 2.22931 0.730668 0
M  V30 3331 C 321.196 1.22997 1.23076 0
M  V30 3332 O 322.372 1.55748 1.27689 0
M  V30 3333 C 319.437 2.87948 1.93098 0
M  V30 3334 C 318.498 4.03166 1.47497 0
M  V30 3335 C 317.731 4.65073 2.61807 0
M  V30 3336 O 317.954 4.25913 3.79413 0
M  V30 3337 O 316.888 5.54452 2.34237 0
M  V30 3338 H 320.714 3.03084 0.193391 0
M  V30 3339 H 318.299 1.49371 0.0294621 0
M  V30 3340 H 320.181 3.29063 2.6324 0
M  V30 3341 H 318.856 2.10771 2.45677 0
M  V30 3342 H 317.763 3.66664 0.742201 0
M  V30 3343 H 319.096 4.82022 0.995796 0
M  V30 3344 N 320.748 -0.0735177 1.57428 0
M  V30 3345 C 321.658 -1.10547 2.06922 0
M  V30 3346 C 322.674 -1.42506 0.998402 0
M  V30 3347 O 323.85 -1.52717 1.31299 0
M  V30 3348 C 320.915 -2.40019 2.50184 0
M  V30 3349 C 319.976 -2.15046 3.71556 0
M  V30 3350 C 319.209 -3.38345 4.12745 0
M  V30 3351 O 319.432 -4.47399 3.53822 0
M  V30 3352 O 318.366 -3.2666 5.05546 0
M  V30 3353 H 322.192 -0.715013 2.95163 0
M  V30 3354 H 319.777 -0.287531 1.46607 0
M  V30 3355 H 321.659 -3.16218 2.78539 0
M  V30 3356 H 320.334 -2.78447 1.65072 0
M  V30 3357 H 319.241 -1.36558 3.48285 0
M  V30 3358 H 320.574 -1.81499 4.57514 0
M  V30 3359 N 322.226 -1.5378 -0.344866 0
M  V30 3360 C 323.136 -1.84667 -1.4469 0
M  V30 3361 C 324.152 -0.736704 -1.57635 0
M  V30 3362 O 325.328 -1.02888 -1.73136 0
M  V30 3363 C 322.393 -2.04869 -2.79696 0
M  V30 3364 C 321.454 -3.28731 -2.76106 0
M  V30 3365 C 320.687 -3.4796 -4.04673 0
M  V30 3366 O 320.91 -2.71052 -5.01883 0
M  V30 3367 O 319.844 -4.41383 -4.09224 0
M  V30 3368 H 323.67 -2.78334 -1.21506 0
M  V30 3369 H 321.255 -1.39418 -0.536921 0
M  V30 3370 H 323.137 -2.19609 -3.59652 0
M  V30 3371 H 321.812 -1.14391 -3.02814 0
M  V30 3372 H 320.719 -3.19396 -1.94774 0
M  V30 3373 H 322.052 -4.19198 -2.57941 0
M  V30 3374 N 323.704 0.605807 -1.45491 0
M  V30 3375 C 324.981 1.36522 -1.40075 0
M  V30 3376 C 325.361 2.10976 -0.0722744 0
M  V30 3377 O 324.709 2.08007 0.945808 0
M  V30 3378 C 324.919 2.31056 -2.61561 0
M  V30 3379 C 326.267 2.93608 -3.06724 0
M  V30 3380 O 327.291 2.41376 -2.61946 0
M  V30 3381 O 326.15 3.88421 -3.84437 0
M  V30 3382 H 323.244 0.612248 -0.555951 0
M  V30 3383 H 325.79 0.628747 -1.57623 0
M  V30 3384 H 324.562 1.75311 -3.49831 0
M  V30 3385 H 324.185 3.12081 -2.46356 0
M  V30 3386 N 325.182 1.32811 0.848464 0
M  V30 3387 C 326.092 1.24278 1.98978 0
M  V30 3388 C 327.108 0.155176 1.73307 0
M  V30 3389 O 328.284 0.376999 1.9784 0
M  V30 3390 C 325.349 0.972444 3.32783 0
M  V30 3391 C 324.41 2.14911 3.71634 0
M  V30 3392 C 323.643 1.89157 4.99054 0
M  V30 3393 O 323.866 0.837165 5.64223 0
M  V30 3394 O 322.8 2.75433 5.35183 0
M  V30 3395 H 326.626 2.20238 2.09115 0
M  V30 3396 H 324.211 1.12762 0.980052 0
M  V30 3397 H 326.093 0.838432 4.12975 0
M  V30 3398 H 324.768 0.043051 3.23671 0
M  V30 3399 H 323.675 2.33862 2.91992 0
M  V30 3400 H 325.008 3.06151 3.85399 0
M  V30 3401 N 326.66 -1.06551 1.16123 0
M  V30 3402 C 327.57 -2.17484 0.879662 0
M  V30 3403 C 328.586 -1.73377 -0.147104 0
M  V30 3404 O 329.762 -2.01379 0.0289128 0
M  V30 3405 C 326.827 -3.44591 0.381829 0
M  V30 3406 C 325.888 -4.0322 1.4735 0
M  V30 3407 C 325.121 -5.24261 0.999324 0
M  V30 3408 O 325.344 -5.70198 -0.151957 0
M  V30 3409 O 324.278 -5.74775 1.78653 0
M  V30 3410 H 328.104 -2.44075 1.80724 0
M  V30 3411 H 325.689 -1.16042 0.940992 0
M  V30 3412 H 327.571 -4.21254 0.111053 0
M  V30 3413 H 326.246 -3.19532 -0.51777 0
M  V30 3414 H 325.153 -3.2806 1.79798 0
M  V30 3415 H 326.486 -4.32568 2.34831 0
M  V30 3416 N 328.138 -0.959301 -1.25041 0
M  V30 3417 C 329.048 -0.489994 -2.29426 0
M  V30 3418 C 330.064 0.444944 -1.68215 0
M  V30 3419 O 331.24 0.320046 -1.98841 0
M  V30 3420 C 328.305 0.220309 -3.45999 0
M  V30 3421 C 327.366 -0.753418 -4.22637 0
M  V30 3422 C 326.599 -0.076918 -5.33645 0
M  V30 3423 O 326.822 1.13649 -5.58963 0
M  V30 3424 O 325.756 -0.764824 -5.97021 0
M  V30 3425 H 329.582 -1.35755 -2.71669 0
M  V30 3426 H 327.167 -0.725961 -1.30576 0
M  V30 3427 H 329.049 0.619677 -4.16819 0
M  V30 3428 H 327.724 1.06296 -3.0575 0
M  V30 3429 H 326.631 -1.20308 -3.54227 0
M  V30 3430 H 327.964 -1.56423 -4.66683 0
M  V30 3431 N 329.616 1.39756 -0.72842 0
M  V30 3432 C 330.526 2.34444 -0.0855374 0
M  V30 3433 C 331.542 1.57976 0.729356 0
M  V30 3434 O 332.718 1.90301 0.659346 0
M  V30 3435 C 329.783 3.36965 0.815798 0
M  V30 3436 C 328.844 4.29299 -0.0105996 0
M  V30 3437 C 328.077 5.26923 0.84781 0
M  V30 3438 O 328.3 5.30859 2.08673 0
M  V30 3439 O 327.234 6.01249 0.279969 0
M  V30 3440 H 331.06 2.91065 -0.866892 0
M  V30 3441 H 328.645 1.4117 -0.48902 0
M  V30 3442 H 330.527 3.99804 1.33171 0
M  V30 3443 H 329.202 2.82739 1.57608 0
M  V30 3444 H 328.109 3.69703 -0.571877 0
M  V30 3445 H 329.442 4.86712 -0.73295 0
M  V30 3446 N 331.094 0.475555 1.50254 0
M  V30 3447 C 332.004 -0.321501 2.32387 0
M  V30 3448 C 333.02 -0.991755 1.42969 0
M  V30 3449 O 334.196 -0.978747 1.76018 0
M  V30 3450 C 331.261 -1.38667 3.17762 0
M  V30 3451 C 330.322 -0.732538 4.23004 0
M  V30 3452 C 329.555 -1.74695 5.04299 0
M  V30 3453 O 329.778 -2.97399 4.86734 0
M  V30 3454 O 328.712 -1.31631 5.8733 0
M  V30 3455 H 332.538 0.350071 3.01676 0
M  V30 3456 H 330.123 0.237321 1.47503 0
M  V30 3457 H 332.005 -2.00354 3.70724 0
M  V30 3458 H 330.68 -2.04163 2.51196 0
M  V30 3459 H 329.587 -0.0765902 3.74022 0
M  V30 3460 H 330.92 -0.120452 4.92053 0
M  V30 3461 N 332.573 -1.56217 0.208337 0
M  V30 3462 C 333.483 -2.23316 -0.718836 0
M  V30 3463 C 334.499 -1.23648 -1.22422 0
M  V30 3464 O 335.675 -1.56423 -1.26861 0
M  V30 3465 C 332.74 -2.88968 -1.91568 0
M  V30 3466 C 331.801 -4.03943 -1.45357 0
M  V30 3467 C 331.034 -4.66455 -2.59337 0
M  V30 3468 O 331.257 -4.27919 -3.77149 0
M  V30 3469 O 330.191 -5.55686 -2.31293 0
M  V30 3470 H 334.017 -3.03182 -0.177315 0
M  V30 3471 H 331.602 -1.49384 -0.0215402 0
M  V30 3472 H 333.484 -3.30455 -2.61491 0
M  V30 3473 H 332.159 -2.12071 -2.44556 0
M  V30 3474 H 331.066 -3.67052 -0.722746 0
M  V30 3475 H 332.399 -4.82543 -0.970219 0
M  V30 3476 N 334.051 0.0651679 -1.57465 0
M  V30 3477 C 334.961 1.09448 -2.07505 0
M  V30 3478 C 335.977 1.41974 -1.00595 0
M  V30 3479 O 337.153 1.52018 -1.32107 0
M  V30 3480 C 334.218 2.38689 -2.51453 0
M  V30 3481 C 333.279 2.13073 -3.72691 0
M  V30 3482 C 332.512 3.36152 -4.14533 0
M  V30 3483 O 332.735 4.45517 -3.56189 0
M  V30 3484 O 331.669 3.23974 -5.07272 0
M  V30 3485 H 335.495 0.69935 -2.95538 0
M  V30 3486 H 333.08 0.279752 -1.46757 0
M  V30 3487 H 334.962 3.14736 -2.80212 0
M  V30 3488 H 333.637 2.77568 -1.66546 0
M  V30 3489 H 332.544 1.34709 -3.49005 0
M  V30 3490 H 333.877 1.79071 -4.5847 0
M  V30 3491 N 335.529 1.53961 0.336706 0
M  V30 3492 C 336.806 1.62171 1.09361 0
M  V30 3493 C 337.186 0.447263 2.06307 0
M  V30 3494 O 336.534 -0.559802 2.21537 0
M  V30 3495 C 336.744 2.98565 1.80721 0
M  V30 3496 C 338.092 3.54157 2.34218 0
M  V30 3497 O 339.116 3.00784 1.90807 0
M  V30 3498 O 337.975 4.47528 3.13657 0
M  V30 3499 H 335.069 0.6562 0.503319 0
M  V30 3500 H 337.615 1.66307 0.33765 0
M  V30 3501 H 336.387 3.75482 1.10132 0
M  V30 3502 H 336.01 2.9805 2.63158 0
M  V30 3503 N 337.007 -0.598083 1.45811 0
M  V30 3504 C 337.917 -1.73632 1.57763 0
M  V30 3505 C 338.933 -1.67763 0.461676 0
M  V30 3506 O 340.109 -1.87949 0.723685 0
M  V30 3507 C 337.174 -3.10114 1.55018 0
M  V30 3508 C 336.235 -3.27364 2.77726 0
M  V30 3509 C 335.468 -4.57334 2.75102 0
M  V30 3510 O 335.691 -5.40258 1.8297 0
M  V30 3511 O 334.625 -4.77502 3.66437 0
M  V30 3512 H 338.451 -1.66498 2.53992 0
M  V30 3513 H 336.036 -0.763308 1.28429 0
M  V30 3514 H 337.918 -3.9141 1.56129 0
M  V30 3515 H 336.593 -3.17718 0.619431 0
M  V30 3516 H 335.5 -2.45619 2.82174 0
M  V30 3517 H 336.833 -3.24641 3.69958 0
M  V30 3518 N 338.485 -1.33259 -0.841409 0
M  V30 3519 C 339.395 -1.25332 -1.98316 0
M  V30 3520 C 340.411 -0.164364 -1.73222 0
M  V30 3521 O 341.587 -0.387486 -1.97637 0
M  V30 3522 C 338.652 -0.990078 -3.32262 0
M  V30 3523 C 337.713 -2.16879 -3.70489 0
M  V30 3524 C 336.946 -1.91801 -4.98044 0
M  V30 3525 O 337.169 -0.867075 -5.63771 0
M  V30 3526 O 336.103 -2.78267 -5.33714 0
M  V30 3527 H 339.929 -2.21344 -2.07944 0
M  V30 3528 H 337.514 -1.1328 -0.974058 0
M  V30 3529 H 339.396 -0.860321 -4.12524 0
M  V30 3530 H 338.071 -0.0602155 -3.23644 0
M  V30 3531 H 336.978 -2.35407 -2.90748 0
M  V30 3532 H 338.311 -3.0819 -3.8377 0
M  V30 3533 N 339.963 1.05934 -1.16686 0
M  V30 3534 C 340.873 2.17014 -0.891183 0
M  V30 3535 C 341.889 1.73453 0.137907 0
M  V30 3536 O 343.065 2.01361 -0.039592 0
M  V30 3537 C 340.13 3.44384 -0.400099 0
M  V30 3538 C 339.191 4.02433 -1.49486 0
M  V30 3539 C 338.424 5.23723 -1.02711 0
M  V30 3540 O 338.647 5.7027 0.121716 0
M  V30 3541 O 337.581 5.7382 -1.81699 0
M  V30 3542 H 341.407 2.43113 -1.82015 0
M  V30 3543 H 338.992 1.15541 -0.947132 0
M  V30 3544 H 340.874 4.21189 -0.133392 0
M  V30 3545 H 339.549 3.19802 0.500817 0
M  V30 3546 H 338.456 3.27102 -1.81535 0
M  V30 3547 H 339.789 4.31317 -2.37121 0
M  V30 3548 N 341.441 0.965919 1.2453 0
M  V30 3549 C 342.718 0.543777 1.87889 0
M  V30 3550 C 343.098 -0.97909 1.87021 0
M  V30 3551 O 342.446 -1.84969 1.3416 0
M  V30 3552 C 342.656 1.13327 3.30088 0
M  V30 3553 C 344.004 1.21707 4.06783 0
M  V30 3554 O 345.028 1.08566 3.39252 0
M  V30 3555 O 343.887 1.42456 5.27606 0
M  V30 3556 H 340.981 0.181054 0.806938 0
M  V30 3557 H 343.527 1.06007 1.32516 0
M  V30 3558 H 342.299 2.17612 3.25209 0
M  V30 3559 H 341.922 0.600911 3.93033 0
M  V30 3560 N 342.919 -1.39368 0.735821 0
M  V30 3561 C 344.149 -2.04498 0.293967 0
M  V30 3562 C 344.557 -1.55593 -1.07645 0
M  V30 3563 O 343.9 -0.716324 -1.69158 0
M  V30 3564 C 343.962 -3.58836 0.218342 0
M  V30 3565 C 343.626 -4.30721 1.52736 0
M  V30 3566 C 344.623 -4.57305 2.47322 0
M  V30 3567 C 342.308 -4.69251 1.79189 0
M  V30 3568 C 344.302 -5.21429 3.66593 0
M  V30 3569 C 341.989 -5.33104 2.98737 0
M  V30 3570 C 342.987 -5.59125 3.9226 0
M  V30 3571 O 342.675 -6.21653 5.09708 0
M  V30 3572 H 342.407 -0.664118 0.126189 0
M  V30 3573 H 344.961 -1.79385 1.00051 0
M  V30 3574 H 343.191 -3.8285 -0.544314 0
M  V30 3575 H 344.88 -4.05447 -0.191626 0
M  V30 3576 H 345.646 -4.27983 2.28156 0
M  V30 3577 H 341.525 -4.48354 1.07239 0
M  V30 3578 H 345.069 -5.41656 4.39607 0
M  V30 3579 H 340.966 -5.61846 3.17803 0
M  V30 3580 H 341.734 -6.40146 5.10054 0
M  V30 3581 N 344.397 -0.483516 -1.5 0
M  V30 3582 C 345.674 0.129337 -1.95172 0
M  V30 3583 C 346.054 1.55802 -1.4244 0
M  V30 3584 O 345.402 2.19625 -0.630649 0
M  V30 3585 C 345.612 0.0599251 -3.48949 0
M  V30 3586 C 346.96 0.242617 -4.23906 0
M  V30 3587 O 347.984 0.135933 -3.55941 0
M  V30 3588 O 346.843 0.459454 -5.44565 0
M  V30 3589 H 343.937 0.104887 -0.820322 0
M  V30 3590 H 346.483 -0.544807 -1.60717 0
M  V30 3591 H 345.255 -0.937079 -3.79914 0
M  V30 3592 H 344.878 0.774984 -3.89974 0
M  V30 3593 N 345.875 1.56104 -0.216619 0
M  V30 3594 C 347.121 1.98466 0.417033 0
M  V30 3595 C 347.454 1.10403 1.59765 0
M  V30 3596 O 346.729 0.160632 1.93836 0
M  V30 3597 C 347.012 3.49769 0.85637 0
M  V30 3598 C 346.865 4.48606 -0.327546 0
M  V30 3599 C 348.184 4.05339 1.7143 0
M  V30 3600 H 345.303 0.721551 0.150112 0
M  V30 3601 H 347.945 1.87423 -0.311864 0
M  V30 3602 H 346.095 3.5931 1.47745 0
M  V30 3603 H 347.767 4.5108 -0.965618 0
M  V30 3604 H 346.01 4.22682 -0.975805 0
M  V30 3605 H 346.681 5.51995 0.0227149 0
M  V30 3606 H 349.157 3.98712 1.19031 0
M  V30 3607 H 348.033 5.11533 1.99061 0
M  V30 3608 H 348.294 3.51918 2.67593 0
M  V30 3609 N 347.353 -0.0568162 1.57498 0
M  V30 3610 C 348.583 -0.764515 1.91934 0
M  V30 3611 C 348.991 -1.70877 0.81227 0
M  V30 3612 O 348.334 -1.82351 -0.222213 0
M  V30 3613 C 348.396 -1.5994 3.21962 0
M  V30 3614 C 348.06 -0.822925 4.4953 0
M  V30 3615 C 349.057 -0.135464 5.19723 0
M  V30 3616 C 346.742 -0.785666 4.96117 0
M  V30 3617 C 348.736 0.578861 6.34766 0
M  V30 3618 C 346.423 -0.0675784 6.11063 0
M  V30 3619 C 347.421 0.613471 6.80239 0
M  V30 3620 O 347.109 1.31996 7.92989 0
M  V30 3621 H 346.841 -0.221647 0.63863 0
M  V30 3622 H 349.395 -0.0268218 2.05382 0
M  V30 3623 H 347.625 -2.38026 3.04763 0
M  V30 3624 H 349.314 -2.18715 3.41934 0
M  V30 3625 H 350.08 -0.155458 4.84751 0
M  V30 3626 H 345.959 -1.30524 4.42136 0
M  V30 3627 H 349.503 1.111 6.88696 0
M  V30 3628 H 345.4 -0.0455636 6.45484 0
M  V30 3629 H 346.168 1.23077 8.09194 0
M  V30 3630 N 348.832 -1.54138 -0.328536 0
M  V30 3631 C 349.779 -1.83176 -1.40411 0
M  V30 3632 C 350.749 -0.678494 -1.5161 0
M  V30 3633 O 351.934 -0.92443 -1.6691 0
M  V30 3634 C 349.074 -2.06035 -2.76846 0
M  V30 3635 C 348.187 -3.33727 -2.74318 0
M  V30 3636 C 347.322 -3.46574 -4.02567 0
M  V30 3637 C 346.361 -4.68159 -3.94327 0
M  V30 3638 N 345.498 -4.77959 -5.14296 0
M  V30 3639 H 350.338 -2.74938 -1.14948 0
M  V30 3640 H 347.875 -1.36166 -0.556538 0
M  V30 3641 H 349.833 -2.1728 -3.56153 0
M  V30 3642 H 348.463 -1.1757 -3.00628 0
M  V30 3643 H 347.515 -3.31246 -1.8703 0
M  V30 3644 H 348.827 -4.23139 -2.64111 0
M  V30 3645 H 347.981 -3.57333 -4.90304 0
M  V30 3646 H 346.72 -2.55245 -4.15574 0
M  V30 3647 H 345.725 -4.57461 -3.04974 0
M  V30 3648 H 346.95 -5.60868 -3.82889 0
M  V30 3649 H 344.896 -3.89544 -5.27818 0
M  V30 3650 H 344.813 -5.6133 -5.06404 0
M  V30 3651 H 346.081 -4.93044 -6.03761 0
M  V30 3652 N 350.31 0.590341 -1.46126 0
M  V30 3653 C 351.535 1.37991 -1.54833 0
M  V30 3654 C 351.96 1.87163 -0.187506 0
M  V30 3655 O 351.318 1.61133 0.831008 0
M  V30 3656 C 351.366 2.54867 -2.55098 0
M  V30 3657 O 350.47 3.56061 -2.08073 0
M  V30 3658 H 349.811 0.411265 -0.521303 0
M  V30 3659 H 352.341 0.716819 -1.91632 0
M  V30 3660 H 352.351 3.01886 -2.74461 0
M  V30 3661 H 351.026 2.18429 -3.53923 0
M  V30 3662 H 349.603 3.15574 -1.98664 0
M  V30 3663 N 351.788 1.33704 0.83433 0
M  V30 3664 C 352.698 1.26382 1.97648 0
M  V30 3665 C 353.714 0.173548 1.73132 0
M  V30 3666 O 354.89 0.397962 1.97429 0
M  V30 3667 C 351.955 1.00769 3.31733 0
M  V30 3668 C 351.016 2.1884 3.69334 0
M  V30 3669 C 350.249 1.9444 4.9702 0
M  V30 3670 O 350.472 0.896961 5.63303 0
M  V30 3671 O 349.406 2.81093 5.32231 0
M  V30 3672 H 353.232 2.22444 2.06767 0
M  V30 3673 H 350.817 1.13795 0.968037 0
M  V30 3674 H 352.699 0.882186 4.12062 0
M  V30 3675 H 351.374 0.0773783 3.23608 0
M  V30 3676 H 350.281 2.36946 2.89495 0
M  V30 3677 H 351.614 3.10221 3.82131 0
M  V30 3678 N 353.266 -1.05314 1.17247 0
M  V30 3679 C 354.513 -1.78293 0.960091 0
M  V30 3680 C 354.841 -1.87658 -0.51136 0
M  V30 3681 O 354.096 -1.3718 -1.39571 0
M  V30 3682 C 354.395 -3.2229 1.54479 0
M  V30 3683 C 354.061 -3.32987 3.04024 0
M  V30 3684 C 352.723 -3.35613 3.44844 0
M  V30 3685 C 355.075 -3.34102 4.00031 0
M  V30 3686 C 352.403 -3.36982 4.8027 0
M  V30 3687 C 354.755 -3.3701 5.35357 0
M  V30 3688 C 353.419 -3.37923 5.75642 0
M  V30 3689 H 352.689 -0.652422 0.351322 0
M  V30 3690 H 355.336 -1.23782 1.46117 0
M  V30 3691 H 353.641 -3.7972 0.965391 0
M  V30 3692 H 355.338 -3.77376 1.35603 0
M  V30 3693 H 351.928 -3.31655 2.71483 0
M  V30 3694 H 356.112 -3.31276 3.69554 0
M  V30 3695 H 351.368 -3.35999 5.10798 0
M  V30 3696 H 355.542 -3.36822 6.09528 0
M  V30 3697 H 353.169 -3.38738 6.80559 0
M  V30 3698 N 354.744 -0.972509 -1.24016 0
M  V30 3699 C 356.155 -0.67517 -1.74064 0
M  V30 3700 C 356.506 0.808939 -1.78747 0
M  V30 3701 O 355.631 1.63286 -1.42009 0
M  V30 3702 C 356.226 -1.21889 -3.16115 0
M  V30 3703 C 354.785 -0.971358 -3.6365 0
M  V30 3704 C 353.932 -1.35134 -2.42145 0
M  V30 3705 H 356.883 -1.14727 -1.09651 0
M  V30 3706 H 356.904 -0.587489 -3.75937 0
M  V30 3707 H 356.416 -2.29906 -3.12674 0
M  V30 3708 H 354.517 0.0930686 -3.72484 0
M  V30 3709 H 354.63 -1.62039 -4.50866 0
M  V30 3710 H 352.994 -0.769751 -2.4279 0
M  V30 3711 H 353.777 -2.4411 -2.41381 0
M  V30 3712 N 356.222 1.38976 -0.743202 0
M  V30 3713 C 357.45 2.04636 -0.30525 0
M  V30 3714 C 357.865 1.56044 1.06281 0
M  V30 3715 O 357.222 0.728921 1.67311 0
M  V30 3716 C 357.273 3.60193 -0.307177 0
M  V30 3717 O 356.994 4.06998 -1.62124 0
M  V30 3718 C 358.495 4.4306 0.145928 0
M  V30 3719 H 355.715 0.65788 -0.132041 0
M  V30 3720 H 358.259 1.77866 -1.00915 0
M  V30 3721 H 356.414 3.85835 0.347898 0
M  V30 3722 H 356.828 5.01371 -1.54036 0
M  V30 3723 H 358.302 5.51921 0.0934183 0
M  V30 3724 H 358.779 4.22706 1.19231 0
M  V30 3725 H 359.385 4.22584 -0.479886 0
M  V30 3726 N 357.7 0.491464 1.49741 0
M  V30 3727 C 358.61 -0.296835 2.32715 0
M  V30 3728 C 359.626 -0.976536 1.44013 0
M  V30 3729 O 360.802 -0.960023 1.77047 0
M  V30 3730 C 357.867 -1.35288 3.19215 0
M  V30 3731 C 356.928 -0.687632 4.23757 0
M  V30 3732 C 356.161 -1.69336 5.06123 0
M  V30 3733 O 356.384 -2.92219 4.89861 0
M  V30 3734 O 355.318 -1.25394 5.88693 0
M  V30 3735 H 359.144 0.382048 3.01287 0
M  V30 3736 H 356.729 0.252953 1.47243 0
M  V30 3737 H 358.611 -1.96411 3.72828 0
M  V30 3738 H 357.286 -2.01487 2.53347 0
M  V30 3739 H 356.193 -0.0369159 3.74082 0
M  V30 3740 H 357.526 -0.0682566 4.92153 0
M  V30 3741 N 359.178 -1.55987 0.224894 0
M  V30 3742 C 360.141 -2.19178 -0.670348 0
M  V30 3743 C 361.141 -1.15461 -1.11917 0
M  V30 3744 O 362.331 -1.40675 -1.02743 0
M  V30 3745 C 359.463 -2.81777 -1.9187 0
M  V30 3746 H 360.656 -2.99662 -0.119364 0
M  V30 3747 H 358.209 -1.5628 -0.0247128 0
M  V30 3748 H 358.944 -2.05172 -2.51147 0
M  V30 3749 H 358.729 -3.57732 -1.60531 0
M  V30 3750 H 360.219 -3.30205 -2.55645 0
M  V30 3751 N 360.656 0.0484629 -1.57525 0
M  V30 3752 C 361.933 0.777447 -1.79486 0
M  V30 3753 C 362.313 1.94597 -0.818251 0
M  V30 3754 O 361.661 2.28047 0.143767 0
M  V30 3755 C 361.871 1.22864 -3.26658 0
M  V30 3756 C 363.219 1.65251 -3.91123 0
M  V30 3757 O 364.243 1.32372 -3.3069 0
M  V30 3758 O 363.102 2.26207 -4.97486 0
M  V30 3759 H 360.196 0.374357 -0.737419 0
M  V30 3760 H 362.742 0.0267359 -1.69679 0
M  V30 3761 H 361.514 0.393589 -3.89316 0
M  V30 3762 H 361.137 2.03996 -3.41279 0
M  V30 3763 N 362.134 1.5431 0.320358 0
M  V30 3764 C 363.064 1.86912 1.3995 0
M  V30 3765 C 364.045 0.726211 1.53819 0
M  V30 3766 O 365.23 0.980233 1.67646 0
M  V30 3767 C 362.36 2.09932 2.7667 0
M  V30 3768 C 361.314 3.25776 2.77586 0
M  V30 3769 C 360.64 3.34173 4.17412 0
M  V30 3770 C 361.94 4.6335 2.41048 0
M  V30 3771 H 363.634 2.77292 1.12914 0
M  V30 3772 H 361.18 1.33421 0.541738 0
M  V30 3773 H 363.133 2.31324 3.52232 0
M  V30 3774 H 361.857 1.16304 3.0519 0
M  V30 3775 H 360.516 3.04276 2.04479 0
M  V30 3776 H 360.164 2.38098 4.43078 0
M  V30 3777 H 359.864 4.12033 4.18931 0
M  V30 3778 H 361.388 3.57803 4.94782 0
M  V30 3779 H 362.802 4.84602 3.06324 0
M  V30 3780 H 361.199 5.43782 2.53813 0
M  V30 3781 H 362.269 4.65381 1.36193 0
M  V30 3782 N 363.613 -0.582584 1.46437 0
M  V30 3783 C 364.523 -1.71949 1.59595 0
M  V30 3784 C 365.539 -1.67264 0.479443 0
M  V30 3785 O 366.715 -1.87171 0.743579 0
M  V30 3786 C 363.78 -3.08452 1.58298 0
M  V30 3787 C 362.841 -3.244 2.81182 0
M  V30 3788 C 362.074 -4.54391 2.79937 0
M  V30 3789 O 362.297 -5.38287 1.8869 0
M  V30 3790 O 361.231 -4.73588 3.71481 0
M  V30 3791 H 365.057 -1.63795 2.55744 0
M  V30 3792 H 362.642 -0.749643 1.29231 0
M  V30 3793 H 364.524 -3.89732 1.60271 0
M  V30 3794 H 363.199 -3.17043 0.653094 0
M  V30 3795 H 362.106 -2.42613 2.84763 0
M  V30 3796 H 363.439 -3.20699 3.7338 0
M  V30 3797 N 365.091 -1.34144 -0.827227 0
M  V30 3798 C 366.368 -1.16844 -1.56865 0
M  V30 3799 C 366.748 0.260654 -2.09485 0
M  V30 3800 O 366.096 1.26138 -1.9053 0
M  V30 3801 C 366.306 -2.21939 -2.6934 0
M  V30 3802 C 367.654 -2.56695 -3.3822 0
M  V30 3803 O 368.678 -2.20695 -2.79593 0
M  V30 3804 O 367.537 -3.18518 -4.44082 0
M  V30 3805 H 364.631 -0.452669 -0.692112 0
M  V30 3806 H 367.177 -1.45763 -0.868973 0
M  V30 3807 H 365.949 -3.17882 -2.28182 0
M  V30 3808 H 365.572 -1.94172 -3.46962 0
M  V30 3809 N 366.569 1.04691 -1.17803 0
M  V30 3810 C 367.816 1.77782 -0.969532 0
M  V30 3811 C 368.144 1.87926 0.501401 0
M  V30 3812 O 367.399 1.37918 1.38842 0
M  V30 3813 C 367.698 3.21467 -1.56186 0
M  V30 3814 C 367.364 3.3137 -3.05786 0
M  V30 3815 C 366.026 3.3378 -3.46619 0
M  V30 3816 C 368.378 3.31976 -4.01797 0
M  V30 3817 C 365.706 3.34431 -4.82051 0
M  V30 3818 C 368.058 3.34167 -5.37136 0
M  V30 3819 C 366.722 3.34866 -5.77426 0
M  V30 3820 H 365.992 0.650549 -0.354777 0
M  V30 3821 H 368.639 1.23006 -1.46772 0
M  V30 3822 H 366.944 3.79203 -0.985515 0
M  V30 3823 H 368.641 3.76652 -1.37602 0
M  V30 3824 H 365.231 3.3021 -2.73238 0
M  V30 3825 H 369.415 3.29311 -3.71306 0
M  V30 3826 H 364.671 3.33285 -5.12573 0
M  V30 3827 H 368.845 3.33585 -6.11305 0
M  V30 3828 H 366.472 3.35124 -6.82346 0
M  V30 3829 N 368.047 0.979072 1.23499 0
M  V30 3830 C 369.275 0.665202 1.95915 0
M  V30 3831 C 369.69 -0.767571 1.72493 0
M  V30 3832 O 369.047 -1.51635 1.01554 0
M  V30 3833 C 369.098 0.944438 3.48945 0
M  V30 3834 O 368.819 2.3209 3.71572 0
M  V30 3835 C 370.32 0.646336 4.38563 0
M  V30 3836 H 367.54 0.247218 0.623798 0
M  V30 3837 H 370.084 1.31009 1.57025 0
M  V30 3838 H 368.239 0.345575 3.85856 0
M  V30 3839 H 368.653 2.40957 4.65876 0
M  V30 3840 H 370.127 0.892091 5.44744 0
M  V30 3841 H 370.604 -0.419575 4.37191 0
M  V30 3842 H 371.21 1.22562 4.07258 0
M  V30 3843 N 369.525 -1.3858 0.750561 0
M  V30 3844 C 370.435 -2.34278 0.122825 0
M  V30 3845 C 371.451 -1.59116 -0.704131 0
M  V30 3846 O 372.627 -1.91326 -0.628987 0
M  V30 3847 C 369.692 -3.38221 -0.762086 0
M  V30 3848 C 368.753 -4.29227 0.078896 0
M  V30 3849 C 367.986 -5.28205 -0.763874 0
M  V30 3850 O 368.209 -5.34112 -2.00201 0
M  V30 3851 O 367.143 -6.01618 -0.18428 0
M  V30 3852 H 370.969 -2.89649 0.913088 0
M  V30 3853 H 368.554 -1.40374 0.511417 0
M  V30 3854 H 370.436 -4.01872 -1.26793 0
M  V30 3855 H 369.111 -2.85211 -1.5309 0
M  V30 3856 H 368.018 -3.68747 0.630621 0
M  V30 3857 H 369.351 -4.85484 0.810289 0
M  V30 3858 N 371.003 -0.499398 -1.49478 0
M  V30 3859 C 371.966 0.268838 -2.27618 0
M  V30 3860 C 372.966 0.895383 -1.33565 0
M  V30 3861 O 374.156 0.760164 -1.56739 0
M  V30 3862 C 371.288 1.38559 -3.11471 0
M  V30 3863 H 372.481 -0.416812 -2.96989 0
M  V30 3864 H 370.034 -0.254313 -1.54217 0
M  V30 3865 H 370.769 2.10544 -2.46661 0
M  V30 3866 H 370.554 0.941797 -3.80621 0
M  V30 3867 H 372.044 1.92678 -3.70493 0
M  V30 3868 N 372.481 1.55866 -0.233164 0
M  V30 3869 C 373.444 2.1953 0.658715 0
M  V30 3870 C 374.444 1.16053 1.11303 0
M  V30 3871 O 375.634 1.41218 1.01996 0
M  V30 3872 C 372.766 2.82791 1.90373 0
M  V30 3873 H 373.959 2.99721 0.10347 0
M  V30 3874 H 371.512 1.56291 0.0164245 0
M  V30 3875 H 372.247 2.06501 2.50056 0
M  V30 3876 H 372.032 3.58578 1.58632 0
M  V30 3877 H 373.522 3.31556 2.53891 0
M  V30 3878 N 373.959 -0.0401083 1.57549 0
M  V30 3879 C 375.205 -0.734211 1.89043 0
M  V30 3880 C 375.538 -1.75591 0.829535 0
M  V30 3881 O 374.813 -1.93868 -0.156706 0
M  V30 3882 C 375.096 -1.41374 3.31188 0
M  V30 3883 C 374.949 -0.406299 4.47961 0
M  V30 3884 C 376.268 -2.35061 3.72068 0
M  V30 3885 H 373.387 -0.265447 0.687537 0
M  V30 3886 H 376.029 0.00294087 1.9 0
M  V30 3887 H 374.179 -2.04206 3.30503 0
M  V30 3888 H 375.851 0.219255 4.60779 0
M  V30 3889 H 374.094 0.275485 4.32924 0
M  V30 3890 H 374.765 -0.920022 5.44279 0
M  V30 3891 H 377.241 -1.82282 3.74049 0
M  V30 3892 H 376.117 -2.79593 4.72355 0
M  V30 3893 H 376.378 -3.21258 3.0372 0
M  V30 3894 N 375.437 -1.54477 -0.31217 0
M  V30 3895 C 376.714 -1.63891 -1.06767 0
M  V30 3896 C 377.094 -0.480028 -2.0557 0
M  V30 3897 O 376.442 0.524487 -2.22399 0
M  V30 3898 C 376.652 -3.01402 -1.75948 0
M  V30 3899 C 378 -3.57838 -2.28554 0
M  V30 3900 O 379.024 -3.03782 -1.85998 0
M  V30 3901 O 377.883 -4.52462 -3.06497 0
M  V30 3902 H 374.977 -0.664125 -0.492816 0
M  V30 3903 H 377.523 -1.66823 -0.311149 0
M  V30 3904 H 376.295 -3.77187 -1.04144 0
M  V30 3905 H 375.918 -3.02199 -2.58383 0
M  V30 3906 N 376.915 0.57481 -1.46744 0
M  V30 3907 C 377.825 1.711 -1.60505 0
M  V30 3908 C 378.841 1.67008 -0.488307 0
M  V30 3909 O 380.017 1.86774 -0.753495 0
M  V30 3910 C 377.082 3.07608 -1.59932 0
M  V30 3911 C 376.143 3.22904 -2.82898 0
M  V30 3912 C 375.376 4.529 -2.82343 0
M  V30 3913 O 375.599 5.37278 -1.91542 0
M  V30 3914 O 374.533 4.71611 -3.73987 0
M  V30 3915 H 378.359 1.62436 -2.56609 0
M  V30 3916 H 375.944 0.742779 -1.29627 0
M  V30 3917 H 377.826 3.88877 -1.62336 0
M  V30 3918 H 376.501 3.16692 -0.669898 0
M  V30 3919 H 375.408 2.41099 -2.86046 0
M  V30 3920 H 376.741 3.18715 -3.75076 0
M  V30 3921 N 378.394 1.34581 0.820102 0
M  V30 3922 C 379.671 1.17675 1.56244 0
M  V30 3923 C 380.051 -0.249541 2.0962 0
M  V30 3924 O 379.399 -1.25125 1.91196 0
M  V30 3925 C 379.609 2.23364 2.6816 0
M  V30 3926 C 380.957 2.58485 3.36854 0
M  V30 3927 O 381.981 2.22175 2.78418 0
M  V30 3928 O 380.84 3.20868 4.42386 0
M  V30 3929 H 377.934 0.456333 0.689702 0
M  V30 3930 H 380.48 1.46222 0.861231 0
M  V30 3931 H 379.252 3.19087 2.26493 0
M  V30 3932 H 378.875 1.96009 3.45928 0
M  V30 3933 N 379.872 -1.04064 1.18357 0
M  V30 3934 C 381.149 -1.74252 0.888581 0
M  V30 3935 C 381.529 -2.02138 -0.60856 0
M  V30 3936 O 380.877 -1.66656 -1.56327 0
M  V30 3937 C 381.087 -3.0277 1.73584 0
M  V30 3938 C 382.435 -3.76506 1.96286 0
M  V30 3939 O 383.459 -3.12668 1.70637 0
M  V30 3940 O 382.318 -4.91243 2.39464 0
M  V30 3941 H 379.412 -0.758271 0.330082 0
M  V30 3942 H 381.958 -1.1013 1.2911 0
M  V30 3943 H 380.73 -2.78299 2.75073 0
M  V30 3944 H 380.353 -3.74631 1.33183 0
M  V30 3945 N 381.35 -0.985608 -1.22978 0
M  V30 3946 C 382.26 -0.538548 -2.28335 0
M  V30 3947 C 383.276 0.409163 -1.69121 0
M  V30 3948 O 384.452 0.277797 -1.99475 0
M  V30 3949 C 381.517 0.146867 -3.46389 0
M  V30 3950 C 380.578 -0.842896 -4.20944 0
M  V30 3951 C 379.811 -0.190095 -5.33361 0
M  V30 3952 O 380.034 1.01767 -5.61248 0
M  V30 3953 O 378.968 -0.891289 -5.95264 0
M  V30 3954 H 382.794 -1.41487 -2.68729 0
M  V30 3955 H 380.379 -0.753495 -1.29007 0
M  V30 3956 H 382.261 0.531125 -4.1804 0
M  V30 3957 H 380.936 0.997871 -3.07935 0
M  V30 3958 H 379.843 -1.27795 -3.51595 0
M  V30 3959 H 381.176 -1.66287 -4.6326 0
M  V30 3960 N 382.828 1.3818 -0.7579 0
M  V30 3961 C 384.105 1.94106 -0.241306 0
M  V30 3962 C 384.485 1.69282 1.26122 0
M  V30 3963 O 383.833 1.03378 2.03777 0
M  V30 3964 C 384.043 3.43809 -0.59967 0
M  V30 3965 C 385.391 4.20868 -0.561717 0
M  V30 3966 O 386.415 3.5211 -0.538222 0
M  V30 3967 O 385.274 5.43451 -0.576478 0
M  V30 3968 H 382.368 0.825376 -0.0518042 0
M  V30 3969 H 384.914 1.47548 -0.838315 0
M  V30 3970 H 383.686 3.55403 -1.6372 0
M  V30 3971 H 383.309 3.97592 0.0251197 0
M  V30 3972 N 384.306 0.507319 1.49211 0
M  V30 3973 C 385.216 -0.272136 2.33016 0
M  V30 3974 C 386.232 -0.961206 1.45041 0
M  V30 3975 O 387.408 -0.941191 1.78055 0
M  V30 3976 C 384.473 -1.31895 3.20631 0
M  V30 3977 C 383.534 -0.642648 4.24463 0
M  V30 3978 C 382.767 -1.63959 5.07891 0
M  V30 3979 O 382.99 -2.87007 4.92933 0
M  V30 3980 O 381.924 -1.19143 5.8999 0
M  V30 3981 H 385.75 0.413982 3.00865 0
M  V30 3982 H 383.335 0.268556 1.46966 0
M  V30 3983 H 385.217 -1.92446 3.7489 0
M  V30 3984 H 383.892 -1.98788 2.5547 0
M  V30 3985 H 382.799 0.00276252 3.741 0
M  V30 3986 H 384.132 -0.0160534 4.92197 0
M  V30 3987 N 385.784 -1.5574 0.241426 0
M  V30 3988 C 386.694 -2.2479 -0.671305 0
M  V30 3989 C 387.71 -1.26217 -1.19772 0
M  V30 3990 O 388.886 -1.59079 -1.23514 0
M  V30 3991 C 385.951 -2.92966 -1.85396 0
M  V30 3992 C 385.012 -4.06935 -1.36756 0
M  V30 3993 C 384.245 -4.71851 -2.49384 0
M  V30 3994 O 384.468 -4.35823 -3.67987 0
M  V30 3995 O 383.402 -5.60467 -2.19454 0
M  V30 3996 H 387.228 -3.0349 -0.112966 0
M  V30 3997 H 384.813 -1.49397 0.0101513 0
M  V30 3998 H 386.695 -3.35927 -2.54423 0
M  V30 3999 H 385.37 -2.17211 -2.40002 0
M  V30 4000 H 384.277 -3.68503 -0.644726 0
M  V30 4001 H 385.61 -4.84492 -0.867647 0
M  V30 4002 N 387.262 0.0317525 -1.57568 0
M  V30 4003 C 388.172 1.05021 -2.0978 0
M  V30 4004 C 389.188 1.39809 -1.03583 0
M  V30 4005 O 390.364 1.49182 -1.35302 0
M  V30 4006 C 387.429 2.33301 -2.56459 0
M  V30 4007 C 386.49 2.0512 -3.77127 0
M  V30 4008 C 385.723 3.27283 -4.2157 0
M  V30 4009 O 385.946 4.37861 -3.65559 0
M  V30 4010 O 384.88 3.13141 -5.14029 0
M  V30 4011 H 388.706 0.636505 -2.96955 0
M  V30 4012 H 386.291 0.248559 -1.47318 0
M  V30 4013 H 388.173 3.08722 -2.86825 0
M  V30 4014 H 386.848 2.73973 -1.72397 0
M  V30 4015 H 385.755 1.27276 -3.51784 0
M  V30 4016 H 387.088 1.69305 -4.62165 0
M  V30 4017 N 388.74 1.54641 0.303973 0
M  V30 4018 C 389.988 1.73437 1.0375 0
M  V30 4019 C 390.309 0.521449 1.87899 0
M  V30 4020 O 389.579 -0.46432 1.90318 0
M  V30 4021 H 388.159 0.639518 0.386039 0
M  V30 4022 H 390.821 1.91988 0.335675 0
M  V30 4023 H 389.917 2.62235 1.69231 0
M  V30 4024 N 390.218 -0.567019 1.47046 0
M  V30 4025 C 391.128 -1.70247 1.6141 0
M  V30 4026 C 392.144 -1.66746 0.497157 0
M  V30 4027 O 393.32 -1.86371 0.763389 0
M  V30 4028 C 390.385 -3.06756 1.61561 0
M  V30 4029 C 389.446 -3.21399 2.84607 0
M  V30 4030 C 388.679 -4.51396 2.84741 0
M  V30 4031 O 388.902 -5.36255 1.94388 0
M  V30 4032 O 387.836 -4.69621 3.76483 0
M  V30 4033 H 391.662 -1.61073 2.57467 0
M  V30 4034 H 389.247 -0.735894 1.30019 0
M  V30 4035 H 391.129 -3.8801 1.64396 0
M  V30 4036 H 389.804 -3.16333 0.686684 0
M  V30 4037 H 388.711 -2.39579 2.8732 0
M  V30 4038 H 390.044 -3.16721 3.76761 0
M  V30 4039 N 391.696 -1.35014 -0.812953 0
M  V30 4040 C 392.606 -1.2951 -1.95613 0
M  V30 4041 C 393.622 -0.20107 -1.72834 0
M  V30 4042 O 394.798 -0.42932 -1.96771 0
M  V30 4043 C 391.863 -1.06033 -3.30088 0
M  V30 4044 C 390.924 -2.24688 -3.65805 0
M  V30 4045 C 390.157 -2.02322 -4.93864 0
M  V30 4046 O 390.38 -0.986464 -5.61805 0
M  V30 4047 O 389.314 -2.89525 -5.27692 0
M  V30 4048 H 393.14 -2.25705 -2.03202 0
M  V30 4049 H 390.725 -1.15321 -0.949811 0
M  V30 4050 H 392.607 -0.94763 -4.10607 0
M  V30 4051 H 391.282 -0.128852 -3.23443 0
M  V30 4052 H 390.189 -2.41521 -2.85689 0
M  V30 4053 H 391.522 -3.16261 -3.77147 0
M  V30 4054 N 393.175 1.03435 -1.18907 0
M  V30 4055 C 394.421 1.77005 -0.989798 0
M  V30 4056 C 394.754 1.88205 0.478816 0
M  V30 4057 O 394.029 1.39481 1.35556 0
M  V30 4058 C 394.312 3.19925 -1.65287 0
M  V30 4059 C 394.165 3.1663 -3.19477 0
M  V30 4060 C 395.484 4.18189 -1.37134 0
M  V30 4061 H 392.603 0.642538 -0.360991 0
M  V30 4062 H 395.245 1.20784 -1.46667 0
M  V30 4063 H 393.395 3.67929 -1.24741 0
M  V30 4064 H 395.067 2.76567 -3.692 0
M  V30 4065 H 393.31 2.54491 -3.51307 0
M  V30 4066 H 393.981 4.1758 -3.61013 0
M  V30 4067 H 396.457 3.78761 -1.72276 0
M  V30 4068 H 395.333 5.16394 -1.86087 0
M  V30 4069 H 395.594 4.41112 -0.295424 0
M  V30 4070 N 394.653 0.992116 1.22453 0
M  V30 4071 C 395.899 0.668523 1.91464 0
M  V30 4072 C 396.232 -0.797313 1.77078 0
M  V30 4073 O 395.507 -1.5765 1.13916 0
M  V30 4074 C 395.79 1.07424 3.43703 0
M  V30 4075 C 395.643 2.59857 3.67143 0
M  V30 4076 C 396.962 0.626891 4.35612 0
M  V30 4077 H 394.081 0.244341 0.695318 0
M  V30 4078 H 396.723 1.2355 1.44345 0
M  V30 4079 H 394.873 0.591816 3.83966 0
M  V30 4080 H 396.545 3.15764 3.3629 0
M  V30 4081 H 394.788 3.01961 3.11451 0
M  V30 4082 H 395.459 2.83296 4.73759 0
M  V30 4083 H 397.935 1.04125 4.02861 0
M  V30 4084 H 396.811 0.939076 5.40807 0
M  V30 4085 H 397.072 -0.472457 4.39568 0
M  V30 4086 N 396.131 -1.37776 0.765217 0
M  V30 4087 C 397.041 -2.34135 0.147666 0
M  V30 4088 C 398.057 -1.59854 -0.687215 0
M  V30 4089 O 399.233 -1.91983 -0.608659 0
M  V30 4090 C 396.298 -3.3901 -0.72617 0
M  V30 4091 C 395.359 -4.2912 0.124417 0
M  V30 4092 C 394.592 -5.28986 -0.707807 0
M  V30 4093 O 394.815 -5.36205 -1.94525 0
M  V30 4094 O 393.749 -6.01779 -0.12046 0
M  V30 4095 H 397.575 -2.88664 0.943758 0
M  V30 4096 H 395.16 -1.39824 0.526277 0
M  V30 4097 H 397.042 -4.03195 -1.22524 0
M  V30 4098 H 395.717 -2.86819 -1.50056 0
M  V30 4099 H 394.624 -3.68057 0.669696 0
M  V30 4100 H 395.957 -4.84598 0.861736 0
M  V30 4101 N 397.609 -0.515225 -1.4894 0
M  V30 4102 C 398.886 0.0879088 -1.95402 0
M  V30 4103 C 399.266 1.52745 -1.45712 0
M  V30 4104 O 398.614 2.18238 -0.677093 0
M  V30 4105 C 398.824 -0.0141055 -3.48997 0
M  V30 4106 C 400.172 0.152646 -4.24326 0
M  V30 4107 O 401.196 0.0604025 -3.56149 0
M  V30 4108 O 400.055 0.34384 -5.45417 0
M  V30 4109 H 397.149 0.0874636 -0.822362 0
M  V30 4110 H 399.695 -0.578775 -1.59525 0
M  V30 4111 H 398.467 -1.01745 -3.77841 0
M  V30 4112 H 398.09 0.692091 -3.9153 0
M  V30 4113 N 399.087 1.5561 -0.249682 0
M  V30 4114 C 400.503 1.59254 0.105103 0
M  V30 4115 C 400.703 1.26685 1.56694 0
M  V30 4116 O 399.759 1.0155 2.31179 0
M  V30 4117 C 401.072 2.99687 -0.246592 0
M  V30 4118 C 402.62 3.12416 -0.191118 0
M  V30 4119 C 403.095 4.55074 -0.516885 0
M  V30 4120 N 404.586 4.60835 -0.467489 0
M  V30 4121 C 405.321 5.69201 -0.69268 0
M  V30 4122 N 404.817 6.85817 -0.981146 0
M  V30 4123 N 406.61 5.58635 -0.623198 0
M  V30 4124 H 398.761 1.75049 -1.20298 0
M  V30 4125 H 401.024 0.815003 -0.484225 0
M  V30 4126 H 400.73 3.28267 -1.26228 0
M  V30 4127 H 400.604 3.74798 0.424962 0
M  V30 4128 H 402.991 2.83615 0.815247 0
M  V30 4129 H 403.072 2.39573 -0.896563 0
M  V30 4130 H 402.716 4.84596 -1.52082 0
M  V30 4131 H 402.646 5.26181 0.210068 0
M  V30 4132 H 405.137 3.7705 -0.253373 0
M  V30 4133 H 405.45 7.64341 -1.14032 0
M  V30 4134 H 403.795 6.87494 -1.01865 0
M  V30 4135 H 406.986 4.66406 -0.397863 0
M  V30 4136 H 407.159 6.43017 -0.802093 0
M  V30 4137 N 400.565 -0.0233959 1.57583 0
M  V30 4138 C 401.842 -0.748794 1.807 0
M  V30 4139 C 402.222 -1.9327 0.849106 0
M  V30 4140 O 401.57 -2.28247 -0.107468 0
M  V30 4141 C 401.78 -1.17651 3.28571 0
M  V30 4142 C 403.128 -1.59008 3.93702 0
M  V30 4143 O 404.152 -1.27094 3.32755 0
M  V30 4144 O 403.011 -2.18264 5.01022 0
M  V30 4145 H 400.105 -0.362578 0.743281 0
M  V30 4146 H 402.651 0.000261958 1.697 0
M  V30 4147 H 401.423 -0.331603 3.89892 0
M  V30 4148 H 401.046 -1.98541 3.44481 0
M  V30 4149 N 402.043 -1.548 -0.295768 0
M  V30 4150 C 403.273 -1.78069 -1.04762 0
M  V30 4151 C 403.681 -0.542847 -1.81245 0
M  V30 4152 O 403.024 0.497051 -1.76848 0
M  V30 4153 C 403.086 -2.93881 -2.07061 0
M  V30 4154 C 402.75 -4.31777 -1.49725 0
M  V30 4155 C 403.747 -5.11613 -0.924581 0
M  V30 4156 C 401.432 -4.78389 -1.5313 0
M  V30 4157 C 403.426 -6.36184 -0.393594 0
M  V30 4158 C 401.113 -6.02921 -0.996447 0
M  V30 4159 C 402.111 -6.81654 -0.428569 0
M  V30 4160 O 401.799 -8.0384 0.0981593 0
M  V30 4161 H 401.531 -0.597475 -0.316226 0
M  V30 4162 H 404.085 -2.02584 -0.338973 0
M  V30 4163 H 402.315 -2.65003 -2.81621 0
M  V30 4164 H 404.004 -3.04679 -2.6819 0
M  V30 4165 H 404.77 -4.76743 -0.891136 0
M  V30 4166 H 400.649 -4.17132 -1.9627 0
M  V30 4167 H 404.193 -6.97582 0.0503014 0
M  V30 4168 H 400.09 -6.37277 -1.02706 0
M  V30 4169 H 400.858 -8.18499 -0.0146455 0
M  V30 4170 N 403.521 0.559213 -1.47345 0
M  V30 4171 C 404.751 1.33999 -1.57251 0
M  V30 4172 C 405.159 1.87905 -0.220978 0
M  V30 4173 O 404.502 1.65577 0.795617 0
M  V30 4174 C 404.564 2.54798 -2.53611 0
M  V30 4175 C 404.228 2.22192 -3.99349 0
M  V30 4176 C 405.225 1.79607 -4.87891 0
M  V30 4177 C 402.91 2.33613 -4.44669 0
M  V30 4178 C 404.904 1.48868 -6.19772 0
M  V30 4179 C 402.591 2.02487 -5.76578 0
M  V30 4180 C 403.589 1.60183 -6.63951 0
M  V30 4181 O 403.277 1.29451 -7.93409 0
M  V30 4182 H 403.009 0.414858 -0.533731 0
M  V30 4183 H 405.563 0.684465 -1.9366 0
M  V30 4184 H 403.793 3.23235 -2.12265 0
M  V30 4185 H 405.482 3.16873 -2.53666 0
M  V30 4186 H 406.248 1.70278 -4.54126 0
M  V30 4187 H 402.127 2.65501 -3.76869 0
M  V30 4188 H 405.671 1.15775 -6.87926 0
M  V30 4189 H 401.568 2.11448 -6.09885 0
M  V30 4190 H 402.336 1.43098 -8.05894 0
M  V30 4191 N 404.999 1.35443 0.805782 0
M  V30 4192 C 406.229 1.31687 1.59192 0
M  V30 4193 C 406.637 -0.10756 1.88894 0
M  V30 4194 O 405.98 -1.07017 1.49309 0
M  V30 4195 C 406.042 2.05686 2.94845 0
M  V30 4196 C 405.706 3.54868 2.87954 0
M  V30 4197 C 406.703 4.49444 2.61335 0
M  V30 4198 C 404.388 3.97528 3.07046 0
M  V30 4199 C 406.382 5.84655 2.53885 0
M  V30 4200 C 404.069 5.32833 2.99219 0
M  V30 4201 C 405.067 6.26209 2.72674 0
M  V30 4202 O 404.755 7.59032 2.64811 0
M  V30 4203 H 404.487 0.453878 0.50097 0
M  V30 4204 H 407.041 1.78892 1.0093 0
M  V30 4205 H 405.271 1.5312 3.55093 0
M  V30 4206 H 406.96 1.94998 3.55993 0
M  V30 4207 H 407.726 4.17804 2.46303 0
M  V30 4208 H 403.605 3.25233 3.26718 0
M  V30 4209 H 407.149 6.57508 2.33086 0
M  V30 4210 H 403.046 5.64087 3.13809 0
M  V30 4211 H 403.814 7.68967 2.80413 0
M  V30 4212 N 406.477 -1.02803 1.19454 0
M  V30 4213 C 407.754 -1.73299 0.907013 0
M  V30 4214 C 408.134 -2.02772 -0.587086 0
M  V30 4215 O 407.482 -1.68304 -1.54551 0
M  V30 4216 C 407.692 -3.00912 1.76785 0
M  V30 4217 C 409.04 -3.74403 2.00268 0
M  V30 4218 O 410.064 -3.10841 1.73943 0
M  V30 4219 O 408.923 -4.88675 2.4466 0
M  V30 4220 H 406.017 -0.754727 0.338106 0
M  V30 4221 H 408.563 -1.08754 1.30271 0
M  V30 4222 H 407.335 -2.75366 2.7801 0
M  V30 4223 H 406.958 -3.73197 1.37149 0
M  V30 4224 N 407.956 -0.998596 -1.21925 0
M  V30 4225 C 409.184 -0.696286 -1.94832 0
M  V30 4226 C 409.599 0.740032 -1.73692 0
M  V30 4227 O 408.956 1.5 -1.03953 0
M  V30 4228 C 409.007 -0.999833 -3.47398 0
M  V30 4229 O 408.728 -2.37972 -3.67833 0
M  V30 4230 C 410.229 -0.716025 -4.37479 0
M  V30 4231 H 407.449 -0.257111 -0.619786 0
M  V30 4232 H 409.993 -1.33491 -1.54921 0
M  V30 4233 H 408.148 -0.406918 -3.85257 0
M  V30 4234 H 408.562 -2.48338 -4.61983 0
M  V30 4235 H 410.036 -0.978642 -5.43256 0
M  V30 4236 H 410.513 0.349968 -4.37803 0
M  V30 4237 H 411.119 -1.29025 -4.05256 0
M  V30 4238 N 409.434 1.37368 -0.772513 0
M  V30 4239 C 410.681 1.99673 -0.337182 0
M  V30 4240 C 411.009 1.61324 1.0865 0
M  V30 4241 O 410.264 0.851377 1.7621 0
M  V30 4242 C 410.563 3.54817 -0.428876 0
M  V30 4243 C 410.229 4.12936 -1.81092 0
M  V30 4244 C 408.891 4.28523 -2.1891 0
M  V30 4245 C 411.243 4.44801 -2.71664 0
M  V30 4246 C 408.571 4.73277 -3.46735 0
M  V30 4247 C 410.923 4.90981 -3.98899 0
M  V30 4248 C 409.587 5.04773 -4.36761 0
M  V30 4249 H 408.857 0.730656 -0.123384 0
M  V30 4250 H 411.504 1.64124 -0.986686 0
M  V30 4251 H 409.809 3.90618 0.304167 0
M  V30 4252 H 411.506 4.00933 -0.0733334 0
M  V30 4253 H 408.096 4.01233 -1.50699 0
M  V30 4254 H 412.28 4.32344 -2.43706 0
M  V30 4255 H 407.536 4.82142 -3.75964 0
M  V30 4256 H 411.71 5.14603 -4.69208 0
M  V30 4257 H 409.337 5.39211 -5.35868 0
M  V30 4258 N 410.912 0.523116 1.48665 0
M  V30 4259 C 411.859 -0.243398 2.29513 0
M  V30 4260 C 412.829 -0.940139 1.36933 0
M  V30 4261 O 414.014 -0.942503 1.65896 0
M  V30 4262 C 411.154 -1.28855 3.20141 0
M  V30 4263 C 410.267 -0.60135 4.27794 0
M  V30 4264 C 409.402 -1.62884 5.05611 0
M  V30 4265 C 408.441 -0.924726 6.05075 0
M  V30 4266 N 407.578 -1.89744 6.75975 0
M  V30 4267 H 412.418 0.452234 2.94549 0
M  V30 4268 H 409.955 0.234858 1.45213 0
M  V30 4269 H 411.913 -1.90674 3.71079 0
M  V30 4270 H 410.543 -1.95266 2.57043 0
M  V30 4271 H 409.595 0.130623 3.80176 0
M  V30 4272 H 410.907 -0.0481585 4.98777 0
M  V30 4273 H 410.061 -2.32149 5.60528 0
M  V30 4274 H 408.8 -2.21592 4.34452 0
M  V30 4275 H 407.805 -0.217966 5.49368 0
M  V30 4276 H 409.03 -0.343851 6.78229 0
M  V30 4277 H 406.976 -2.47373 6.07571 0
M  V30 4278 H 406.893 -1.3955 7.43009 0
M  V30 4279 H 408.161 -2.58229 7.35485 0
M  V30 4280 N 412.39 -1.55475 0.257931 0
M  V30 4281 C 413.638 -1.98813 -0.363009 0
M  V30 4282 C 413.959 -1.14757 -1.57657 0
M  V30 4283 O 413.229 -0.232956 -1.9451 0
M  V30 4284 H 411.809 -0.734308 -0.137113 0
M  V30 4285 H 414.471 -1.9156 0.359281 0
M  V30 4286 H 413.567 -3.04941 -0.664634 0
M  V30 4287 N 413.868 0.0150385 -1.57593 0
M  V30 4288 C 415.145 0.7392 -1.81094 0
M  V30 4289 C 415.525 1.92817 -0.859344 0
M  V30 4290 O 414.873 2.28301 0.095362 0
M  V30 4291 C 415.083 1.15907 -3.29191 0
M  V30 4292 C 416.431 1.56918 -3.9454 0
M  V30 4293 O 417.455 1.25328 -3.33424 0
M  V30 4294 O 416.314 2.15604 -5.02173 0
M  V30 4295 H 413.408 0.358631 -0.745193 0
M  V30 4296 H 415.954 -0.00926156 -1.69697 0
M  V30 4297 H 414.726 0.310921 -3.90063 0
M  V30 4298 H 414.349 1.96711 -3.45529 0
M  V30 4299 N 415.346 1.54954 0.287554 0
M  V30 4300 C 416.623 1.65569 1.04146 0
M  V30 4301 C 417.003 0.512672 2.0478 0
M  V30 4302 O 416.351 -0.489038 2.23205 0
M  V30 4303 C 416.561 3.04163 1.71131 0
M  V30 4304 C 417.909 3.61429 2.22832 0
M  V30 4305 O 418.933 3.06702 1.81141 0
M  V30 4306 O 417.792 4.57281 2.9926 0
M  V30 4307 H 414.886 0.671881 0.482188 0
M  V30 4308 H 417.432 1.67297 0.28457 0
M  V30 4309 H 416.204 3.78796 0.981303 0
M  V30 4310 H 415.827 3.06271 2.53543 0
M  V30 4311 N 416.824 -0.551391 1.4764 0
M  V30 4312 C 418.054 -1.33163 1.57959 0
M  V30 4313 C 418.462 -1.87785 0.23094 0
M  V30 4314 O 417.805 -1.65996 -0.786825 0
M  V30 4315 C 417.867 -2.53449 2.54958 0
M  V30 4316 C 417.531 -2.20071 4.00522 0
M  V30 4317 C 418.528 -1.77017 4.88836 0
M  V30 4318 C 416.213 -2.31252 4.45901 0
M  V30 4319 C 418.207 -1.4558 6.20552 0
M  V30 4320 C 415.894 -1.99427 5.77644 0
M  V30 4321 C 416.892 -1.56659 6.64791 0
M  V30 4322 O 416.58 -1.25242 7.94084 0
M  V30 4323 H 416.312 -0.412022 0.535923 0
M  V30 4324 H 418.866 -0.674186 1.9402 0
M  V30 4325 H 417.096 -3.22104 2.13976 0
M  V30 4326 H 418.785 -3.15523 2.55343 0
M  V30 4327 H 419.551 -1.67867 4.55023 0
M  V30 4328 H 415.43 -2.63498 3.78272 0
M  V30 4329 H 418.974 -1.12125 6.8853 0
M  V30 4330 H 414.871 -2.08211 6.10998 0
M  V30 4331 H 415.639 -1.38822 8.06642 0
M  V30 4332 N 418.302 -1.35869 -0.798587 0
M  V30 4333 C 419.25 -1.29491 -1.93222 0
M  V30 4334 C 420.244 -0.18836 -1.6835 0
M  V30 4335 O 421.45 -0.354822 -1.76468 0
M  V30 4336 H 417.825 -0.402901 -0.63496 0
M  V30 4337 H 419.796 -2.25247 -1.9572 0
M  V30 4338 C 418.545 -1.09184 -3.30112 0
M  V30 4339 H 417.868 -1.93574 -3.49813 0
M  V30 4340 H 419.308 -1.08766 -4.09812 0
M  V30 4341 C 417.767 0.203959 -3.36282 0
M  V30 4342 O 418.297 1.19699 -3.83451 0
M  V30 4343 N 416.503 0.245488 -2.89561 0
M  V30 4344 H 416.05 -0.563223 -2.51367 0
M  V30 4345 H 416.008 1.11219 -2.94071 0
M  V30 4346 N 419.78 1.02168 -1.19998 0
M  V30 4347 C 420.69 2.14069 -0.959774 0
M  V30 4348 C 421.706 1.73804 0.082655 0
M  V30 4349 O 422.882 2.01133 -0.103633 0
M  V30 4350 C 419.947 3.42936 -0.509459 0
M  V30 4351 C 419.008 3.97474 -1.62213 0
M  V30 4352 C 418.241 5.2019 -1.19321 0
M  V30 4353 O 418.464 5.70369 -0.0597726 0
M  V30 4354 O 417.398 5.67749 -1.99863 0
M  V30 4355 H 421.224 2.37199 -1.89658 0
M  V30 4356 H 418.809 1.12469 -0.983411 0
M  V30 4357 H 420.691 4.20551 -0.267322 0
M  V30 4358 H 419.366 3.21234 0.398821 0
M  V30 4359 H 418.273 3.21161 -1.9185 0
M  V30 4360 H 419.606 4.23555 -2.50723 0
M  V30 4361 N 421.258 1.00505 1.21394 0
M  V30 4362 C 422.168 0.574806 2.27449 0
M  V30 4363 C 423.184 -0.382206 1.6975 0
M  V30 4364 O 424.36 -0.246027 1.99892 0
M  V30 4365 C 421.425 -0.0917414 3.46579 0
M  V30 4366 C 420.486 0.909758 4.1955 0
M  V30 4367 C 419.719 0.274924 5.32991 0
M  V30 4368 O 419.942 -0.928254 5.62796 0
M  V30 4369 O 418.876 0.985877 5.93771 0
M  V30 4370 H 422.702 1.45744 2.66444 0
M  V30 4371 H 420.287 0.773923 1.27792 0
M  V30 4372 H 422.169 -0.464551 4.18832 0
M  V30 4373 H 420.844 -0.948755 3.09484 0
M  V30 4374 H 419.751 1.33372 3.49518 0
M  V30 4375 H 421.084 1.73636 4.60555 0
M  V30 4376 N 422.737 -1.36956 0.779787 0
M  V30 4377 C 423.685 -2.32053 0.15942 0
M  V30 4378 C 424.679 -1.55333 -0.675878 0
M  V30 4379 O 425.885 -1.70668 -0.57204 0
M  V30 4380 H 422.26 -0.751286 0.0327707 0
M  V30 4381 H 424.231 -2.8195 0.977078 0
M  V30 4382 C 422.98 -3.40602 -0.698977 0
M  V30 4383 H 422.303 -3.99746 -0.0655966 0
M  V30 4384 H 423.743 -4.09486 -1.09989 0
M  V30 4385 C 422.202 -2.81359 -1.85307 0
M  V30 4386 O 422.732 -2.72751 -2.94906 0
M  V30 4387 N 420.938 -2.38786 -1.65619 0
M  V30 4388 H 420.485 -2.45987 -0.764725 0
M  V30 4389 H 420.443 -1.99493 -2.43002 0
M  V30 4390 N 424.215 -0.530993 -1.48385 0
M  V30 4391 C 425.626 -0.0907905 -1.86479 0
M  V30 4392 C 425.977 1.33213 -1.44044 0
M  V30 4393 O 425.102 1.99783 -0.831615 0
M  V30 4394 C 425.697 -0.157987 -3.38431 0
M  V30 4395 C 424.256 0.227026 -3.75715 0
M  V30 4396 C 423.403 -0.5173 -2.72432 0
M  V30 4397 H 426.354 -0.742186 -1.40276 0
M  V30 4398 H 426.375 0.630053 -3.75247 0
M  V30 4399 H 425.887 -1.19372 -3.69286 0
M  V30 4400 H 423.988 1.26486 -3.50474 0
M  V30 4401 H 424.101 -0.113288 -4.78966 0
M  V30 4402 H 422.465 0.0365527 -2.54674 0
M  V30 4403 H 423.248 -1.55368 -3.0613 0
M  V30 4404 N 425.693 1.55336 -0.266172 0
M  V30 4405 C 426.921 2.03801 0.356756 0
M  V30 4406 C 427.336 1.14485 1.50129 0
M  V30 4407 O 426.693 0.163121 1.8177 0
M  V30 4408 C 426.744 3.51455 0.846281 0
M  V30 4409 O 426.465 4.37371 -0.252663 0
M  V30 4410 C 427.966 4.15767 1.53794 0
M  V30 4411 H 425.186 0.665906 0.0825218 0
M  V30 4412 H 427.73 2.00636 -0.39566 0
M  V30 4413 H 425.885 3.55092 1.54881 0
M  V30 4414 H 426.299 5.24358 0.122173 0
M  V30 4415 H 427.773 5.20714 1.83198 0
M  V30 4416 H 428.25 3.63404 2.46646 0
M  V30 4417 H 428.856 4.16107 0.879488 0
M  V30 4418 N 427.171 -0.0066808 1.57599 0
M  V30 4419 C 428.081 -1.01671 2.11424 0
M  V30 4420 C 429.097 -1.38143 1.05795 0
M  V30 4421 O 430.273 -1.47011 1.37658 0
M  V30 4422 C 427.338 -2.29192 2.60139 0
M  V30 4423 C 426.399 -1.99094 3.80342 0
M  V30 4424 C 425.632 -3.20535 4.26724 0
M  V30 4425 O 425.855 -4.3199 3.72479 0
M  V30 4426 O 424.789 -3.04924 5.18946 0
M  V30 4427 H 428.615 -0.589181 2.9793 0
M  V30 4428 H 426.2 -0.225091 1.47695 0
M  V30 4429 H 428.082 -3.0412 2.917 0
M  V30 4430 H 426.757 -2.71195 1.76733 0
M  V30 4431 H 425.664 -1.21663 3.53764 0
M  V30 4432 H 426.997 -1.61931 4.648 0
M  V30 4433 N 428.649 -1.55105 -0.279332 0
M  V30 4434 C 430.06 -1.66186 -0.850832 0
M  V30 4435 C 430.411 -0.584707 -1.87285 0
M  V30 4436 O 429.536 0.274919 -2.14647 0
M  V30 4437 C 430.131 -3.01264 -1.55001 0
M  V30 4438 C 428.69 -3.14394 -2.06963 0
M  V30 4439 C 427.837 -2.61959 -0.909536 0
M  V30 4440 H 430.788 -1.58602 -0.0558235 0
M  V30 4441 H 430.809 -2.93899 -2.41669 0
M  V30 4442 H 430.321 -3.7964 -0.805931 0
M  V30 4443 H 428.422 -2.4078 -2.84352 0
M  V30 4444 H 428.535 -4.20867 -2.28928 0
M  V30 4445 H 426.899 -2.18957 -1.30116 0
M  V30 4446 H 427.682 -3.42833 -0.179062 0
M  V30 4447 N 430.127 0.543554 -1.4793 0
M  V30 4448 C 431.375 1.29752 -1.54948 0
M  V30 4449 C 431.696 1.93764 -0.219242 0
M  V30 4450 O 430.966 1.80639 0.75805 0
M  V30 4451 H 429.546 0.481874 -0.570795 0
M  V30 4452 H 432.208 0.633636 -1.84312 0
M  V30 4453 H 431.304 2.08392 -2.32334 0
M  V30 4454 N 431.605 1.3629 0.791371 0
M  V30 4455 C 432.83 1.33726 1.58531 0
M  V30 4456 C 433.255 -0.0794933 1.87932 0
M  V30 4457 O 432.613 -1.05087 1.47738 0
M  V30 4458 C 432.661 2.16425 2.88431 0
M  V30 4459 O 431.765 1.5554 3.81944 0
M  V30 4460 H 431.106 0.457793 0.480959 0
M  V30 4461 H 433.636 1.79547 0.981031 0
M  V30 4462 H 433.646 2.28933 3.37718 0
M  V30 4463 H 432.321 3.19415 2.66359 0
M  V30 4464 H 430.898 1.51961 3.40532 0
M  V30 4465 N 433.083 -1.0153 1.20538 0
M  V30 4466 C 434.36 -1.72327 0.925343 0
M  V30 4467 C 434.74 -2.03383 -0.565547 0
M  V30 4468 O 434.088 -1.69934 -1.52757 0
M  V30 4469 C 434.298 -2.9902 1.79967 0
M  V30 4470 C 435.646 -3.72258 2.04228 0
M  V30 4471 O 436.67 -3.08979 1.77231 0
M  V30 4472 O 435.529 -4.86053 2.4983 0
M  V30 4473 H 432.623 -0.751099 0.346092 0
M  V30 4474 H 435.169 -1.07366 1.31417 0
M  V30 4475 H 433.941 -2.72402 2.80915 0
M  V30 4476 H 433.564 -3.71721 1.41099 0
M  V30 4477 N 434.561 -1.01147 -1.20859 0
M  V30 4478 C 435.809 -0.696486 -1.89719 0
M  V30 4479 C 436.13 0.775788 -1.78904 0
M  V30 4480 O 435.4 1.55759 -1.18811 0
M  V30 4481 H 433.98 -0.254628 -0.702263 0
M  V30 4482 H 436.642 -1.28197 -1.46804 0
M  V30 4483 H 435.738 -0.975357 -2.96468 0
M  V30 4484 N 436.039 1.36541 -0.78704 0
M  V30 4485 C 437.267 2.03561 -0.370199 0
M  V30 4486 C 437.682 1.59347 1.01263 0
M  V30 4487 O 437.039 0.781781 1.64907 0
M  V30 4488 C 437.09 3.59033 -0.421614 0
M  V30 4489 O 436.811 4.01634 -1.7499 0
M  V30 4490 C 438.312 4.433 0.00489763 0
M  V30 4491 H 435.532 0.653346 -0.152904 0
M  V30 4492 H 438.076 1.74566 -1.06522 0
M  V30 4493 H 436.231 3.86746 0.224971 0
M  V30 4494 H 436.645 4.96217 -1.69909 0
M  V30 4495 H 438.119 5.51939 -0.0822184 0
M  V30 4496 H 438.596 4.26285 1.05723 0
M  V30 4497 H 439.202 4.20843 -0.614085 0
M  V30 4498 N 437.518 0.538854 1.48102 0
M  V30 4499 C 438.451 -0.266495 2.26639 0
M  V30 4500 C 439.429 -0.93687 1.32897 0
M  V30 4501 O 440.613 -0.959507 1.62252 0
M  V30 4502 C 437.74 -1.37814 3.09394 0
M  V30 4503 C 436.786 -0.818247 4.18577 0
M  V30 4504 S 437.619 0.320848 5.34538 0
M  V30 4505 C 438.775 -0.793059 6.20855 0
M  V30 4506 H 439.008 0.399994 2.94597 0
M  V30 4507 H 436.541 0.324808 1.50945 0
M  V30 4508 H 438.499 -2.01488 3.57649 0
M  V30 4509 H 437.16 -2.01639 2.40833 0
M  V30 4510 H 436.353 -1.65247 4.7614 0
M  V30 4511 H 435.955 -0.258036 3.73109 0
M  V30 4512 H 438.247 -1.68961 6.56093 0
M  V30 4513 H 439.19 -0.255204 7.0764 0
M  V30 4514 H 439.598 -1.07746 5.54122 0
M  V30 4515 N 438.996 -1.55193 0.274407 0
M  V30 4516 C 440.221 -2.04446 -0.348824 0
M  V30 4517 C 440.646 -1.15149 -1.48735 0
M  V30 4518 O 440.004 -0.149952 -1.80679 0
M  V30 4519 C 440.052 -3.51431 -0.808009 0
M  V30 4520 O 439.156 -3.65225 -1.91531 0
M  V30 4521 H 438.497 -0.66006 -0.0722276 0
M  V30 4522 H 441.027 -2.00481 0.408498 0
M  V30 4523 H 441.037 -3.92781 -1.10395 0
M  V30 4524 H 439.712 -4.15892 0.0249865 0
M  V30 4525 H 438.289 -3.35778 -1.62196 0
M  V30 4526 N 440.474 -0.00167713 -1.576 0
M  V30 4527 C 441.751 0.719951 -1.81868 0
M  V30 4528 C 442.131 1.91895 -0.879747 0
M  V30 4529 O 441.479 2.28389 0.0711423 0
M  V30 4530 C 441.689 1.12409 -3.30402 0
M  V30 4531 C 443.037 1.52724 -3.96182 0
M  V30 4532 O 444.061 1.21784 -3.34734 0
M  V30 4533 O 442.92 2.10265 -5.04431 0
M  V30 4534 H 440.014 0.350707 -0.748955 0
M  V30 4535 H 442.56 -0.0272597 -1.69678 0
M  V30 4536 H 441.332 0.269532 -3.90371 0
M  V30 4537 H 440.955 1.93035 -3.47596 0
M  V30 4538 N 441.952 1.55251 0.271103 0
M  V30 4539 C 442.899 1.88261 1.33516 0
M  V30 4540 C 443.869 0.734296 1.48988 0
M  V30 4541 O 445.054 0.985741 1.63364 0
M  V30 4542 C 442.194 2.16168 2.69008 0
M  V30 4543 C 441.307 3.43678 2.61743 0
M  V30 4544 C 440.442 3.61276 3.89427 0
M  V30 4545 C 439.481 4.82472 3.7668 0
M  V30 4546 N 438.618 4.96717 4.96202 0
M  V30 4547 H 443.458 2.79015 1.04665 0
M  V30 4548 H 440.995 1.38137 0.505618 0
M  V30 4549 H 442.953 2.30349 3.47844 0
M  V30 4550 H 441.583 1.28646 2.96057 0
M  V30 4551 H 440.635 3.37959 1.74607 0
M  V30 4552 H 441.947 4.3265 2.48224 0
M  V30 4553 H 441.101 3.75284 4.76704 0
M  V30 4554 H 439.84 2.70492 4.05814 0
M  V30 4555 H 438.845 4.68465 2.87786 0
M  V30 4556 H 440.07 5.74692 3.61809 0
M  V30 4557 H 438.016 4.08865 5.12997 0
M  V30 4558 H 437.933 5.79738 4.85222 0
M  V30 4559 H 439.201 5.15113 5.85046 0
M  V30 4560 N 443.43 -0.535701 1.48216 0
M  V30 4561 C 444.34 -1.66785 1.64985 0
M  V30 4562 C 445.356 -1.65654 0.532414 0
M  V30 4563 O 446.532 -1.8471 0.80275 0
M  V30 4564 C 443.597 -3.0326 1.68031 0
M  V30 4565 C 442.658 -3.1529 2.9136 0
M  V30 4566 C 441.891 -4.45255 2.94252 0
M  V30 4567 O 442.114 -5.32011 2.05719 0
M  V30 4568 O 441.048 -4.6153 3.86359 0
M  V30 4569 H 444.874 -1.55576 2.60825 0
M  V30 4570 H 442.459 -0.70815 1.31551 0
M  V30 4571 H 444.341 -3.84436 1.72589 0
M  V30 4572 H 443.016 -3.14805 0.753628 0
M  V30 4573 H 441.923 -2.3343 2.92337 0
M  V30 4574 H 443.256 -3.08658 3.83394 0
M  V30 4575 N 444.908 -1.36708 -0.784132 0
M  V30 4576 C 446.157 -1.30559 -1.53744 0
M  V30 4577 C 446.47 0.111374 -1.95283 0
M  V30 4578 O 447.676 0.29527 -2.6989 0
M  V30 4579 C 446.132 -2.29098 -2.77565 0
M  V30 4580 C 445.74 -3.76258 -2.43174 0
M  V30 4581 C 447.484 -2.31936 -3.55536 0
M  V30 4582 C 445.391 -4.6656 -3.63422 0
M  V30 4583 H 444.321 -0.48518 -0.577162 0
M  V30 4584 H 446.972 -1.62101 -0.859981 0
M  V30 4585 H 445.354 -1.90557 -3.47137 0
M  V30 4586 H 446.528 -4.23565 -1.81465 0
M  V30 4587 H 444.843 -3.76246 -1.78403 0
M  V30 4588 H 447.44 -2.9661 -4.44889 0
M  V30 4589 H 447.783 -1.3294 -3.94503 0
M  V30 4590 H 448.316 -2.6912 -2.92949 0
M  V30 4591 H 445.055 -5.66638 -3.29547 0
M  V30 4592 H 444.575 -4.23966 -4.24279 0
M  V30 4593 H 446.254 -4.8309 -4.30387 0
M  V30 4594 N 446.386 1.0089 -1.21074 0
M  V30 4595 C 447.614 1.78191 -1.05145 0
M  V30 4596 C 448.029 1.84537 0.398952 0
M  V30 4597 O 447.386 1.30393 1.27687 0
M  V30 4598 C 447.437 3.22288 -1.63746 0
M  V30 4599 O 447.158 3.16315 -3.03111 0
M  V30 4600 C 448.659 4.16106 -1.52875 0
M  V30 4601 H 445.879 0.560129 -0.369454 0
M  V30 4602 H 448.423 1.26945 -1.60328 0
M  V30 4603 H 446.578 3.70655 -1.12664 0
M  V30 4604 H 446.992 4.06817 -3.31059 0
M  V30 4605 H 448.466 5.15026 -1.98626 0
M  V30 4606 H 448.943 4.36541 -0.482521 0
M  V30 4607 H 449.549 3.73625 -2.03185 0
M  V30 4608 N 447.864 1.01787 1.20321 0
M  V30 4609 C 448.814 0.559976 2.21016 0
M  V30 4610 C 449.798 -0.385366 1.56217 0
M  V30 4611 O 450.99 -0.208126 1.75772 0
M  V30 4612 C 448.119 -0.0990553 3.43157 0
M  V30 4613 C 447.205 0.86807 4.15121 0
M  V30 4614 N 447.596 2.0261 4.63447 0
M  V30 4615 C 445.894 0.689162 4.40643 0
M  V30 4616 C 446.595 2.63518 5.18588 0
M  V30 4617 N 445.571 1.91569 5.08726 0
M  V30 4618 H 449.373 1.44281 2.56048 0
M  V30 4619 H 446.887 0.883381 1.36272 0
M  V30 4620 H 448.884 -0.444643 4.14522 0
M  V30 4621 H 447.544 -0.977709 3.0963 0
M  V30 4622 H 448.555 2.40598 4.58621 0
M  V30 4623 H 445.232 -0.14133 4.17261 0
M  V30 4624 H 446.622 3.61527 5.66346 0
M  V30 4625 N 449.342 -1.36122 0.79427 0
M  V30 4626 C 450.619 -1.93398 0.292685 0
M  V30 4627 C 450.999 -1.72567 -1.21589 0
M  V30 4628 O 450.347 -1.08745 -2.00965 0
M  V30 4629 C 450.557 -3.42099 0.690614 0
M  V30 4630 C 451.905 -4.19231 0.673105 0
M  V30 4631 O 452.929 -3.50559 0.631389 0
M  V30 4632 O 451.788 -5.41732 0.720362 0
M  V30 4633 H 448.882 -0.823712 0.0736693 0
M  V30 4634 H 451.428 -1.45273 0.87714 0
M  V30 4635 H 450.2 -3.50938 1.73085 0
M  V30 4636 H 449.823 -3.97519 0.0803036 0
M  V30 4637 N 450.82 -0.546701 -1.47814 0
M  V30 4638 C 452.066 -0.0187684 -2.02791 0
M  V30 4639 C 452.399 1.32338 -1.42128 0
M  V30 4640 O 451.674 1.85867 -0.573023 0
M  V30 4641 C 451.957 0.0854985 -3.59998 0
M  V30 4642 C 451.81 -1.283 -4.31114 0
M  V30 4643 C 453.129 0.80412 -4.32691 0
M  V30 4644 H 450.248 -0.0082946 -0.736953 0
M  V30 4645 H 452.89 -0.706962 -1.76358 0
M  V30 4646 H 451.04 0.671609 -3.82651 0
M  V30 4647 H 452.712 -1.91151 -4.19832 0
M  V30 4648 H 450.955 -1.86049 -3.91878 0
M  V30 4649 H 451.626 -1.16287 -5.39612 0
M  V30 4650 H 454.102 0.306576 -4.14969 0
M  V30 4651 H 452.978 0.846011 -5.42341 0
M  V30 4652 H 453.239 1.85802 -4.01161 0
M  V30 4653 N 452.299 1.55045 -0.282633 0
M  V30 4654 C 453.246 2.22822 0.601566 0
M  V30 4655 C 454.216 1.20431 1.14392 0
M  V30 4656 O 455.401 1.48996 1.19184 0
M  V30 4657 C 452.541 2.95873 1.77632 0
M  V30 4658 C 451.654 4.12999 1.26711 0
M  V30 4659 C 450.789 4.73676 2.40426 0
M  V30 4660 C 449.828 5.82981 1.86545 0
M  V30 4661 N 448.965 6.3769 2.93762 0
M  V30 4662 H 453.805 2.97995 0.0169528 0
M  V30 4663 H 451.342 1.471 -0.00339964 0
M  V30 4664 H 453.3 3.36447 2.46697 0
M  V30 4665 H 451.93 2.2311 2.33285 0
M  V30 4666 H 450.982 3.77494 0.469314 0
M  V30 4667 H 452.294 4.91803 0.832518 0
M  V30 4668 H 451.448 5.17008 3.17471 0
M  V30 4669 H 450.187 3.94164 2.87203 0
M  V30 4670 H 449.192 5.39092 1.07983 0
M  V30 4671 H 450.417 6.64366 1.40694 0
M  V30 4672 H 448.363 5.61069 3.39908 0
M  V30 4673 H 448.28 7.11788 2.54744 0
M  V30 4674 H 449.548 6.8568 3.7076 0
M  V30 4675 N 453.777 0.010035 1.57597 0
M  V30 4676 C 454.74 -0.963029 2.07986 0
M  V30 4677 C 455.74 -1.26619 0.991173 0
M  V30 4678 O 456.93 -1.2097 1.25347 0
M  V30 4679 C 454.062 -2.2851 2.52974 0
M  V30 4680 H 455.255 -0.526971 2.95234 0
M  V30 4681 H 452.808 -0.237639 1.54483 0
M  V30 4682 H 453.543 -2.76784 1.69 0
M  V30 4683 H 453.328 -2.07824 3.32493 0
M  V30 4684 H 454.818 -2.98294 2.9225 0
M  V30 4685 N 455.255 -1.55392 -0.262866 0
M  V30 4686 C 456.501 -1.76737 -0.99458 0
M  V30 4687 C 456.834 -0.572453 -1.85571 0
M  V30 4688 O 456.109 0.429732 -1.89693 0
M  V30 4689 C 456.392 -3.07824 -1.8686 0
M  V30 4690 C 456.245 -4.3769 -1.03672 0
M  V30 4691 C 457.564 -3.35021 -2.85393 0
M  V30 4692 H 454.683 -0.643005 -0.360157 0
M  V30 4693 H 457.325 -1.88126 -0.266216 0
M  V30 4694 H 455.475 -2.98245 -2.48962 0
M  V30 4695 H 457.147 -4.59238 -0.43563 0
M  V30 4696 H 455.39 -4.32461 -0.340513 0
M  V30 4697 H 456.061 -5.25759 -1.6817 0
M  V30 4698 H 458.537 -3.44458 -2.33426 0
M  V30 4699 H 457.413 -4.27989 -3.43681 0
M  V30 4700 H 457.674 -2.55153 -3.61039 0
M  V30 4701 N 456.733 0.527833 -1.48498 0
M  V30 4702 C 457.973 1.29401 -1.58224 0
M  V30 4703 C 458.337 1.90348 -0.251327 0
M  V30 4704 O 459.538 2.67868 -0.223588 0
M  V30 4705 C 457.809 2.35266 -2.69044 0
M  V30 4706 S 459.368 3.2158 -2.98549 0
M  V30 4707 H 456.186 0.440138 -0.558391 0
M  V30 4708 H 458.788 0.601079 -1.8603 0
M  V30 4709 H 457.492 1.88975 -3.64303 0
M  V30 4710 H 457.023 3.09263 -2.43146 0
M  V30 4711 H 459.038 4.35391 -2.38011 0
M  V30 4712 N 458.211 1.37122 0.776871 0
M  V30 4713 C 459.436 1.354 1.57104 0
M  V30 4714 C 459.861 -0.0595562 1.88006 0
M  V30 4715 O 459.219 -1.03514 1.48844 0
M  V30 4716 C 459.267 2.19472 2.8612 0
M  V30 4717 O 458.371 1.59582 3.80273 0
M  V30 4718 H 457.712 0.462869 0.476076 0
M  V30 4719 H 460.242 1.80577 0.961932 0
M  V30 4720 H 460.252 2.32502 3.35271 0
M  V30 4721 H 458.927 3.22222 2.62956 0
M  V30 4722 H 457.504 1.55564 3.38902 0
M  V30 4723 N 459.689 -1.00246 1.21608 0
M  V30 4724 C 460.621 -2.09244 0.935401 0
M  V30 4725 C 461.634 -1.62592 -0.0823594 0
M  V30 4726 O 462.823 -1.77865 0.150456 0
M  V30 4727 C 459.923 -3.36724 0.383453 0
M  V30 4728 C 459.096 -4.1245 1.45615 0
M  V30 4729 C 458.155 -5.18219 0.912991 0
M  V30 4730 O 457.181 -5.46337 1.59701 0
M  V30 4731 N 458.383 -5.7987 -0.270478 0
M  V30 4732 H 461.148 -2.33905 1.87373 0
M  V30 4733 H 458.709 -1.16748 1.12167 0
M  V30 4734 H 460.701 -4.047 0.00562157 0
M  V30 4735 H 459.271 -3.09201 -0.459758 0
M  V30 4736 H 458.491 -3.39241 2.00772 0
M  V30 4737 H 459.779 -4.59819 2.17817 0
M  V30 4738 H 459.177 -5.59381 -0.843195 0
M  V30 4739 H 457.734 -6.49126 -0.589794 0
M  V30 4740 N 461.167 -1.02423 -1.1978 0
M  V30 4741 C 462.077 -0.610919 -2.26506 0
M  V30 4742 C 463.093 0.355152 -1.70337 0
M  V30 4743 O 464.269 0.214195 -2.00258 0
M  V30 4744 C 461.334 0.0365921 -3.46681 0
M  V30 4745 C 460.395 -0.976389 -4.18049 0
M  V30 4746 C 459.628 -0.359683 -5.32487 0
M  V30 4747 O 459.851 0.838601 -5.64202 0
M  V30 4748 O 458.785 -1.08022 -5.92127 0
M  V30 4749 H 462.611 -1.49965 -2.64091 0
M  V30 4750 H 460.196 -0.794156 -1.26545 0
M  V30 4751 H 462.078 0.39786 -4.19518 0
M  V30 4752 H 460.753 0.899398 -3.10954 0
M  V30 4753 H 459.66 -1.38916 -3.47352 0
M  V30 4754 H 460.993 -1.80941 -4.57735 0
M  V30 4755 N 462.645 1.35699 -0.801477 0
M  V30 4756 C 463.608 2.28199 -0.213994 0
M  V30 4757 C 464.608 1.49359 0.595691 0
M  V30 4758 O 465.798 1.69186 0.414921 0
M  V30 4759 C 462.93 3.33587 0.702297 0
M  V30 4760 H 464.123 2.81666 -1.02976 0
M  V30 4761 H 461.676 1.45467 -0.571759 0
M  V30 4762 H 462.411 2.85297 1.54195 0
M  V30 4763 H 462.196 3.91906 0.123484 0
M  V30 4764 H 463.686 4.02638 1.10783 0
M  V30 4765 N 464.123 0.554532 1.47522 0
M  V30 4766 C 465.056 -0.242442 2.26908 0
M  V30 4767 C 466.034 -0.922722 1.33883 0
M  V30 4768 O 467.218 -0.942244 1.63261 0
M  V30 4769 C 464.345 -1.34525 3.10839 0
M  V30 4770 C 463.391 -0.773805 4.19422 0
M  V30 4771 S 464.224 0.377525 5.34168 0
M  V30 4772 C 465.38 -0.727164 6.21662 0
M  V30 4773 H 465.613 0.431218 2.94156 0
M  V30 4774 H 463.146 0.3408 1.50592 0
M  V30 4775 H 465.104 -1.97683 3.59766 0
M  V30 4776 H 463.765 -1.99073 2.42958 0
M  V30 4777 H 462.958 -1.60187 4.77866 0
M  V30 4778 H 462.56 -0.218448 3.73361 0
M  V30 4779 H 464.852 -1.61992 6.57849 0
M  V30 4780 H 465.795 -0.180135 7.07871 0
M  V30 4781 H 466.203 -1.01863 5.55233 0
M  V30 4782 N 465.601 -1.54893 0.290851 0
M  V30 4783 C 466.829 -2.04343 -0.324288 0
M  V30 4784 C 467.244 -1.16859 -1.48289 0
M  V30 4785 O 466.601 -0.192018 -1.81487 0
M  V30 4786 C 466.652 -3.52756 -0.79026 0
M  V30 4787 O 466.373 -4.36913 0.322213 0
M  V30 4788 C 467.874 -4.18161 -1.4716 0
M  V30 4789 H 465.094 -0.667135 -0.0719173 0
M  V30 4790 H 467.638 -1.99981 0.427529 0
M  V30 4791 H 465.793 -3.57511 -1.49213 0
M  V30 4792 H 466.207 -5.24486 -0.0387372 0
M  V30 4793 H 467.681 -5.23562 -1.7489 0
M  V30 4794 H 468.158 -3.67282 -2.40834 0
M  V30 4795 H 468.764 -4.17454 -0.813178 0
M  V30 4796 N 467.08 -0.0183926 -1.57589 0
M  V30 4797 C 468.328 0.661253 -1.90976 0
M  V30 4798 C 468.649 1.73281 -0.894353 0
M  V30 4799 O 467.919 1.9579 0.0656788 0
M  V30 4800 H 466.499 0.247233 -0.704901 0
M  V30 4801 H 469.161 -0.0636639 -1.94796 0
M  V30 4802 H 468.257 1.12083 -2.9128 0
M  V30 4803 N 468.558 1.5553 0.254621 0
M  V30 4804 C 469.969 1.67518 0.824286 0
M  V30 4805 C 470.32 0.614429 1.86331 0
M  V30 4806 O 469.445 -0.240736 2.15057 0
M  V30 4807 C 470.04 3.03692 1.50189 0
M  V30 4808 C 468.599 3.17646 2.01935 0
M  V30 4809 C 467.746 2.63373 0.867746 0
M  V30 4810 H 470.697 1.58671 0.0305843 0
M  V30 4811 H 470.718 2.97706 2.36962 0
M  V30 4812 H 470.23 3.80874 0.745431 0
M  V30 4813 H 468.331 2.45273 2.80485 0
M  V30 4814 H 468.444 4.24455 2.22204 0
M  V30 4815 H 466.808 2.20999 1.26616 0
M  V30 4816 H 467.591 3.43074 0.124498 0
M  V30 4817 N 470.036 -0.519951 1.48776 0
M  V30 4818 C 471.276 -1.2856 1.58908 0
M  V30 4819 C 471.64 -1.90212 0.261418 0
M  V30 4820 O 472.841 -2.67746 0.237791 0
M  V30 4821 C 471.112 -2.33836 2.70288 0
M  V30 4822 S 472.671 -3.19992 3.0025 0
M  V30 4823 H 469.489 -0.43717 0.560717 0
M  V30 4824 H 472.091 -0.591205 1.86346 0
M  V30 4825 H 470.795 -1.87041 3.653 0
M  V30 4826 H 470.326 -3.07969 2.44783 0
M  V30 4827 H 472.341 -4.34122 2.40317 0
M  V30 4828 N 471.514 -1.37532 -0.769588 0
M  V30 4829 C 472.93 -1.18379 -1.07045 0
M  V30 4830 C 473.13 -0.0214312 -2.01489 0
M  V30 4831 O 472.186 0.637809 -2.44312 0
M  V30 4832 C 473.499 -2.50338 -1.66588 0
M  V30 4833 C 475.047 -2.56879 -1.78835 0
M  V30 4834 C 475.522 -3.88974 -2.41792 0
M  V30 4835 N 477.013 -3.90428 -2.4924 0
M  V30 4836 C 477.748 -4.89388 -2.98809 0
M  V30 4837 N 477.244 -5.98745 -3.48535 0
M  V30 4838 N 479.037 -4.76791 -2.97703 0
M  V30 4839 H 471.188 -2.11921 -0.142541 0
M  V30 4840 H 473.451 -0.939608 -0.125863 0
M  V30 4841 H 473.157 -3.35767 -1.0466 0
M  V30 4842 H 473.031 -2.67583 -2.65856 0
M  V30 4843 H 475.418 -1.71856 -2.39895 0
M  V30 4844 H 475.499 -2.43516 -0.783166 0
M  V30 4845 H 475.143 -4.74412 -1.81371 0
M  V30 4846 H 475.073 -3.99641 -3.4292 0
M  V30 4847 H 477.564 -3.11433 -2.14052 0
M  V30 4848 H 477.877 -6.70205 -3.84767 0
M  V30 4849 H 476.222 -6.02387 -3.46634 0
M  V30 4850 H 479.413 -3.90478 -2.58157 0
M  V30 4851 H 479.586 -5.54069 -3.36024 0
M  V30 4852 N 472.992 0.995999 -1.22138 0
M  V30 4853 C 473.955 2.06711 -0.990109 0
M  V30 4854 C 474.955 1.60744 0.0422978 0
M  V30 4855 O 476.145 1.73095 -0.195895 0
M  V30 4856 C 473.277 3.37288 -0.49491 0
M  V30 4857 H 474.47 2.28661 -1.94047 0
M  V30 4858 H 472.023 1.16711 -1.03963 0
M  V30 4859 H 472.758 3.21022 0.459948 0
M  V30 4860 H 472.543 3.71986 -1.23971 0
M  V30 4861 H 474.033 4.16103 -0.353253 0
M  V30 4862 N 474.47 1.03057 1.19235 0
M  V30 4863 C 475.716 0.729098 1.89241 0
M  V30 4864 C 476.049 -0.740573 1.79525 0
M  V30 4865 O 475.324 -1.53946 1.18874 0
M  V30 4866 C 475.607 1.18304 3.40112 0
M  V30 4867 C 475.46 2.71406 3.5869 0
M  V30 4868 C 476.779 0.765161 4.33397 0
M  V30 4869 H 473.898 0.266338 0.687192 0
M  V30 4870 H 476.54 1.28079 1.40341 0
M  V30 4871 H 474.69 0.713672 3.81889 0
M  V30 4872 H 476.362 3.26303 3.26074 0
M  V30 4873 H 474.605 3.11717 3.01687 0
M  V30 4874 H 475.276 2.98225 4.64506 0
M  V30 4875 H 477.752 1.16889 3.99345 0
M  V30 4876 H 476.628 1.11065 5.37546 0
M  V30 4877 H 476.889 -0.332372 4.40849 0
M  V30 4878 N 475.948 -1.35272 0.808662 0
M  V30 4879 C 476.881 -2.27595 0.165994 0
M  V30 4880 C 477.859 -1.48189 -0.669241 0
M  V30 4881 O 479.043 -1.77444 -0.636073 0
M  V30 4882 C 476.17 -3.29843 -0.769505 0
M  V30 4883 C 475.216 -4.26498 -0.0136267 0
M  V30 4884 S 476.049 -5.18878 1.32384 0
M  V30 4885 C 477.205 -6.24666 0.392838 0
M  V30 4886 H 477.438 -2.81755 0.948756 0
M  V30 4887 H 474.971 -1.42103 0.603828 0
M  V30 4888 H 476.929 -3.89247 -1.30374 0
M  V30 4889 H 475.59 -2.74558 -1.52567 0
M  V30 4890 H 474.783 -4.98769 -0.724227 0
M  V30 4891 H 474.385 -3.71274 0.450713 0
M  V30 4892 H 476.677 -6.7619 -0.4211 0
M  V30 4893 H 477.62 -6.99741 1.0848 0
M  V30 4894 H 478.028 -5.64499 -0.0123908 0
M  V30 4895 N 477.426 -0.562348 -1.47226 0
M  V30 4896 C 478.837 -0.130325 -1.86245 0
M  V30 4897 C 479.188 1.30128 -1.46838 0
M  V30 4898 O 478.313 1.97974 -0.873805 0
M  V30 4899 C 478.908 -0.229738 -3.3802 0
M  V30 4900 C 477.467 0.14728 -3.76112 0
M  V30 4901 C 476.614 -0.574971 -2.71274 0
M  V30 4902 H 479.565 -0.771773 -1.3867 0
M  V30 4903 H 479.586 0.550316 -3.76499 0
M  V30 4904 H 479.098 -1.27178 -3.66671 0
M  V30 4905 H 477.199 1.19023 -3.53078 0
M  V30 4906 H 477.312 -0.214858 -4.78618 0
M  V30 4907 H 475.676 -0.0174756 -2.54694 0
M  V30 4908 H 476.459 -1.61827 -3.02766 0
M  V30 4909 N 478.904 1.54736 -0.299062 0
M  V30 4910 C 480.32 1.59507 0.0543849 0
M  V30 4911 C 480.52 1.31606 1.52585 0
M  V30 4912 O 479.576 1.08853 2.27832 0
M  V30 4913 C 480.889 2.98751 -0.34181 0
M  V30 4914 C 482.437 3.1165 -0.290414 0
M  V30 4915 C 482.912 4.53199 -0.661402 0
M  V30 4916 N 484.403 4.59114 -0.613863 0
M  V30 4917 C 485.138 5.66709 -0.873417 0
M  V30 4918 N 484.634 6.82349 -1.19884 0
M  V30 4919 N 486.427 5.56369 -0.800608 0
M  V30 4920 H 478.578 1.71133 -1.25806 0
M  V30 4921 H 480.841 0.799186 -0.509908 0
M  V30 4922 H 480.547 3.24085 -1.36608 0
M  V30 4923 H 480.421 3.75961 0.305508 0
M  V30 4924 H 482.808 2.86066 0.724605 0
M  V30 4925 H 482.889 2.366 -0.972327 0
M  V30 4926 H 482.533 4.79513 -1.67422 0
M  V30 4927 H 482.463 5.26583 0.0425612 0
M  V30 4928 H 484.954 3.76053 -0.3732 0
M  V30 4929 H 485.267 7.60326 -1.38291 0
M  V30 4930 H 483.612 6.83906 -1.23685 0
M  V30 4931 H 486.803 4.64904 -0.546045 0
M  V30 4932 H 486.976 6.40139 -1.00626 0
M  V30 4933 N 480.382 0.0267497 1.57577 0
M  V30 4934 C 481.628 -0.647596 1.92815 0
M  V30 4935 C 481.983 -1.69872 0.903396 0
M  V30 4936 O 481.276 -1.91429 -0.0808881 0
M  V30 4937 C 481.47 -1.30914 3.3256 0
M  V30 4938 C 481.299 -0.323621 4.48534 0
M  V30 4939 C 480.069 0.0756607 5.05243 0
M  V30 4940 C 482.267 0.42112 5.12573 0
M  V30 4941 N 480.249 1.0566 6.04739 0
M  V30 4942 C 481.62 1.25589 6.07147 0
M  V30 4943 C 483.675 0.482077 4.95561 0
M  V30 4944 C 482.378 2.1461 6.86538 0
M  V30 4945 C 484.404 1.35962 5.75559 0
M  V30 4946 C 483.766 2.18217 6.69747 0
M  V30 4947 H 479.865 -0.209357 0.753454 0
M  V30 4948 H 482.449 0.0933695 1.94476 0
M  V30 4949 H 480.62 -2.02026 3.31723 0
M  V30 4950 H 482.352 -1.94033 3.55153 0
M  V30 4951 H 479.107 -0.298294 4.7266 0
M  V30 4952 H 479.531 1.54324 6.59176 0
M  V30 4953 H 484.173 -0.139609 4.22569 0
M  V30 4954 H 481.891 2.77835 7.58837 0
M  V30 4955 H 485.477 1.41105 5.6443 0
M  V30 4956 H 484.357 2.85022 7.3057 0
M  V30 4957 N 481.861 -1.55662 -0.24637 0
M  V30 4958 C 483.091 -1.81312 -0.990438 0
M  V30 4959 C 483.499 -0.600234 -1.79426 0
M  V30 4960 O 482.842 0.440537 -1.78339 0
M  V30 4961 C 482.904 -3.0032 -1.97607 0
M  V30 4962 C 482.568 -4.36322 -1.35912 0
M  V30 4963 C 483.565 -5.14295 -0.761348 0
M  V30 4964 C 481.25 -4.83019 -1.37833 0
M  V30 4965 C 483.244 -6.37114 -0.190998 0
M  V30 4966 C 480.931 -6.05786 -0.804128 0
M  V30 4967 C 481.929 -6.82672 -0.211489 0
M  V30 4968 O 481.617 -8.03121 0.353845 0
M  V30 4969 H 481.349 -0.607233 -0.297058 0
M  V30 4970 H 483.903 -2.0356 -0.274351 0
M  V30 4971 H 482.133 -2.73829 -2.73047 0
M  V30 4972 H 483.822 -3.13057 -2.58361 0
M  V30 4973 H 484.588 -4.79337 -0.739013 0
M  V30 4974 H 480.467 -4.23165 -1.829 0
M  V30 4975 H 484.011 -6.97069 0.272206 0
M  V30 4976 H 479.908 -6.40222 -0.823792 0
M  V30 4977 H 480.676 -8.18131 0.245761 0
M  V30 4978 N 483.339 0.512053 -1.4905 0
M  V30 4979 C 484.586 1.26686 -1.57978 0
M  V30 4980 C 484.914 1.92733 -0.261553 0
M  V30 4981 O 484.169 1.80772 0.749667 0
M  V30 4982 C 484.468 2.36446 -2.68008 0
M  V30 4983 C 484.134 1.87932 -4.09869 0
M  V30 4984 C 482.796 1.74419 -4.48477 0
M  V30 4985 C 485.148 1.5149 -4.98698 0
M  V30 4986 C 482.476 1.22827 -5.73699 0
M  V30 4987 C 484.828 1.01355 -6.24428 0
M  V30 4988 C 483.492 0.864735 -6.61875 0
M  V30 4989 H 482.762 0.463577 -0.578081 0
M  V30 4990 H 485.409 0.569421 -1.82838 0
M  V30 4991 H 483.714 3.11933 -2.37076 0
M  V30 4992 H 485.411 2.9453 -2.72127 0
M  V30 4993 H 482.001 1.99405 -3.79389 0
M  V30 4994 H 486.185 1.60782 -4.69535 0
M  V30 4995 H 481.441 1.10008 -6.01422 0
M  V30 4996 H 485.615 0.722351 -6.92644 0
M  V30 4997 H 483.242 0.462777 -7.5879 0
M  V30 4998 N 484.817 1.37938 0.762283 0
M  V30 4999 C 486.094 1.24196 1.51112 0
M  V30 5000 C 486.474 -0.160409 2.1049 0
M  V30 5001 O 485.822 -1.16904 1.96331 0
M  V30 5002 C 486.032 2.34537 2.58445 0
M  V30 5003 C 487.38 2.7254 3.25588 0
M  V30 5004 O 488.404 2.33783 2.68745 0
M  V30 5005 O 487.263 3.39343 4.28379 0
M  V30 5006 H 484.357 0.485175 0.669727 0
M  V30 5007 H 486.903 1.49743 0.798438 0
M  V30 5008 H 485.675 3.28406 2.12756 0
M  V30 5009 H 485.298 2.10505 3.37303 0
M  V30 5010 N 486.295 -0.989507 1.22664 0
M  V30 5011 C 487.225 -2.09847 1.02404 0
M  V30 5012 C 488.206 -1.70007 -0.0561303 0
M  V30 5013 O 489.391 -1.93906 0.106748 0
M  V30 5014 C 486.521 -3.41996 0.604663 0
M  V30 5015 C 485.475 -3.95699 1.63115 0
M  V30 5016 C 484.801 -5.23936 1.0675 0
M  V30 5017 C 486.101 -4.25999 3.02196 0
M  V30 5018 H 487.795 -2.27054 1.95158 0
M  V30 5019 H 485.341 -1.09111 0.939727 0
M  V30 5020 H 487.294 -4.1899 0.45002 0
M  V30 5021 H 486.018 -3.24626 -0.35855 0
M  V30 5022 H 484.677 -3.2084 1.77362 0
M  V30 5023 H 484.325 -5.02909 0.0955422 0
M  V30 5024 H 484.025 -5.60833 1.75328 0
M  V30 5025 H 485.549 -6.0356 0.924516 0
M  V30 5026 H 486.963 -4.93777 2.91303 0
M  V30 5027 H 485.36 -4.74076 3.67929 0
M  V30 5028 H 486.43 -3.33636 3.51873 0
M  V30 5029 N 487.773 -1.03688 -1.18687 0
M  V30 5030 C 488.998 -0.757819 -1.93059 0
M  V30 5031 C 489.423 0.678353 -1.75442 0
M  V30 5032 O 488.781 1.46938 -1.06203 0
M  V30 5033 C 488.829 -1.12423 -3.42627 0
M  V30 5034 O 487.933 -0.247505 -4.11657 0
M  V30 5035 H 487.274 -0.279245 -0.602427 0
M  V30 5036 H 489.804 -1.3857 -1.5053 0
M  V30 5037 H 489.814 -1.08454 -3.93322 0
M  V30 5038 H 488.489 -2.17049 -3.54771 0
M  V30 5039 H 487.066 -0.34649 -3.71287 0
M  V30 5040 N 489.251 1.34841 -0.815825 0
M  V30 5041 C 490.198 2.29644 -0.230664 0
M  V30 5042 C 491.168 1.53253 0.640533 0
M  V30 5043 O 492.353 1.81653 0.583672 0
M  V30 5044 C 489.493 3.39715 0.607275 0
M  V30 5045 C 488.606 4.31056 -0.28538 0
M  V30 5046 C 487.741 5.28225 0.561446 0
M  V30 5047 C 486.78 6.11204 -0.331035 0
M  V30 5048 N 485.917 7.00483 0.476302 0
M  V30 5049 H 490.757 2.79095 -1.0445 0
M  V30 5050 H 488.294 1.37351 -0.526595 0
M  V30 5051 H 490.252 4.02208 1.10835 0
M  V30 5052 H 488.882 2.91517 1.38629 0
M  V30 5053 H 487.934 3.69487 -0.904621 0
M  V30 5054 H 489.246 4.89239 -0.97193 0
M  V30 5055 H 488.4 5.96135 1.12728 0
M  V30 5056 H 487.139 4.70562 1.28153 0
M  V30 5057 H 486.144 5.42232 -0.909069 0
M  V30 5058 H 487.369 6.70947 -1.04912 0
M  V30 5059 H 485.315 6.45296 1.18019 0
M  V30 5060 H 485.232 7.55847 -0.152008 0
M  V30 5061 H 486.5 7.7273 1.02512 0
M  V30 5062 N 490.729 0.570148 1.46925 0
M  V30 5063 C 491.977 0.0508523 2.02036 0
M  V30 5064 C 492.298 -1.30885 1.44548 0
M  V30 5065 O 491.568 -1.85647 0.625453 0
M  V30 5066 H 490.148 0.0158088 0.746833 0
M  V30 5067 H 492.81 0.743086 1.80178 0
M  V30 5068 H 491.906 -0.027575 3.12088 0
M  V30 5069 N 492.207 -1.54576 0.307264 0
M  V30 5070 C 493.154 -2.23751 -0.56604 0
M  V30 5071 C 494.124 -1.22235 -1.12462 0
M  V30 5072 O 495.309 -1.50873 -1.16799 0
M  V30 5073 C 492.449 -2.98661 -1.72903 0
M  V30 5074 C 491.562 -4.14963 -1.20124 0
M  V30 5075 C 490.697 -4.77441 -2.3286 0
M  V30 5076 C 489.736 -5.85875 -1.77247 0
M  V30 5077 N 488.873 -6.42282 -2.8358 0
M  V30 5078 H 493.713 -2.97984 0.0304578 0
M  V30 5079 H 491.25 -1.47076 0.0268015 0
M  V30 5080 H 493.208 -3.40329 -2.41313 0
M  V30 5081 H 491.838 -2.26793 -2.29706 0
M  V30 5082 H 490.89 -3.78193 -0.409198 0
M  V30 5083 H 492.202 -4.93066 -0.754171 0
M  V30 5084 H 491.356 -5.21993 -3.09205 0
M  V30 5085 H 490.095 -3.98684 -2.80896 0
M  V30 5086 H 489.1 -5.40741 -0.993926 0
M  V30 5087 H 490.325 -6.6652 -1.30107 0
M  V30 5088 H 488.271 -5.66406 -3.30939 0
M  V30 5089 H 488.188 -7.1575 -2.43388 0
M  V30 5090 H 489.456 -6.91492 -3.59804 0
M  V30 5091 N 493.685 -0.035106 -1.57561 0
M  V30 5092 C 494.925 0.646316 -1.93913 0
M  V30 5093 C 495.289 1.68947 -0.912185 0
M  V30 5094 O 496.49 2.42381 -1.1621 0
M  V30 5095 C 494.761 1.24136 -3.35149 0
M  V30 5096 S 496.32 1.94302 -3.93436 0
M  V30 5097 H 493.138 0.212642 -0.678457 0
M  V30 5098 H 495.74 -0.100203 -1.95243 0
M  V30 5099 H 494.444 0.46979 -4.07702 0
M  V30 5100 H 493.975 2.02505 -3.37276 0
M  V30 5101 H 495.99 3.22205 -3.77357 0
M  V30 5102 N 495.163 1.55791 0.238111 0
M  V30 5103 C 496.409 1.78297 0.966337 0
M  V30 5104 C 496.742 0.601903 1.84637 0
M  V30 5105 O 496.017 -0.399499 1.90353 0
M  V30 5106 C 496.3 3.10758 1.81939 0
M  V30 5107 C 496.153 4.39283 0.966958 0
M  V30 5108 C 497.472 3.39519 2.80027 0
M  V30 5109 H 494.591 0.648654 0.349882 0
M  V30 5110 H 497.233 1.88525 0.236253 0
M  V30 5111 H 495.383 3.02168 2.44185 0
M  V30 5112 H 497.055 4.59873 0.362514 0
M  V30 5113 H 495.298 4.32948 0.271669 0
M  V30 5114 H 495.969 5.28368 1.59784 0
M  V30 5115 H 498.445 3.48128 2.27917 0
M  V30 5116 H 497.321 4.33402 3.36829 0
M  V30 5117 H 497.582 2.60864 3.56934 0
M  V30 5118 N 496.642 -0.504142 1.49319 0
M  V30 5119 C 498.058 -0.835039 1.36012 0
M  V30 5120 C 498.258 -1.97674 0.390808 0
M  V30 5121 O 497.314 -2.51867 -0.178655 0
M  V30 5122 C 498.627 -1.17821 2.76656 0
M  V30 5123 C 500.175 -1.2866 2.85334 0
M  V30 5124 C 500.65 -1.66307 4.26739 0
M  V30 5125 N 502.141 -1.73362 4.29534 0
M  V30 5126 C 502.876 -2.0393 5.35911 0
M  V30 5127 N 502.372 -2.32744 6.52535 0
M  V30 5128 N 504.165 -2.05155 5.23324 0
M  V30 5129 H 496.316 0.248764 2.10938 0
M  V30 5130 H 498.579 0.0486962 0.946748 0
M  V30 5131 H 498.285 -0.412682 3.4927 0
M  V30 5132 H 498.159 -2.12239 3.11825 0
M  V30 5133 H 500.546 -2.04285 2.1296 0
M  V30 5134 H 500.627 -0.323004 2.53752 0
M  V30 5135 H 500.271 -0.91234 4.99639 0
M  V30 5136 H 500.201 -2.63761 4.55782 0
M  V30 5137 H 502.692 -1.53268 3.45424 0
M  V30 5138 H 503.005 -2.55248 7.2943 0
M  V30 5139 H 501.35 -2.30207 6.55767 0
M  V30 5140 H 504.541 -1.82119 4.3122 0
M  V30 5141 H 504.714 -2.28644 6.06322 0
M  V30 5142 N 498.12 -1.38341 -0.754957 0
M  V30 5143 C 499.367 -1.34473 -1.51404 0
M  V30 5144 C 499.695 0.0656458 -1.94389 0
M  V30 5145 O 498.95 1.04244 -1.65625 0
M  V30 5146 C 499.249 -2.2452 -2.78075 0
M  V30 5147 C 498.915 -3.72512 -2.54059 0
M  V30 5148 C 497.577 -4.1284 -2.47218 0
M  V30 5149 C 499.929 -4.66197 -2.33044 0
M  V30 5150 C 497.257 -5.44945 -2.17376 0
M  V30 5151 C 499.609 -5.98558 -2.04723 0
M  V30 5152 C 498.273 -6.37972 -1.96337 0
M  V30 5153 H 497.543 -0.492072 -0.554027 0
M  V30 5154 H 500.19 -1.70687 -0.868223 0
M  V30 5155 H 498.495 -1.81357 -3.473 0
M  V30 5156 H 500.192 -2.18832 -3.36026 0
M  V30 5157 H 496.782 -3.40538 -2.60253 0
M  V30 5158 H 500.966 -4.35888 -2.37309 0
M  V30 5159 H 496.222 -5.74426 -2.09391 0
M  V30 5160 H 500.396 -6.70693 -1.87465 0
M  V30 5161 H 498.023 -7.40258 -1.72978 0
M  V30 5162 N 499.598 0.982988 -1.23187 0
M  V30 5163 C 500.847 1.71817 -1.05649 0
M  V30 5164 C 501.16 1.91315 0.407176 0
M  V30 5165 O 502.366 2.62256 0.702436 0
M  V30 5166 C 500.822 3.09188 -1.84203 0
M  V30 5167 C 500.43 2.97586 -3.34882 0
M  V30 5168 C 502.174 3.86684 -1.75146 0
M  V30 5169 C 500.081 4.30173 -4.05839 0
M  V30 5170 H 499.011 0.644258 -0.391724 0
M  V30 5171 H 501.662 1.09659 -1.4713 0
M  V30 5172 H 500.044 3.72087 -1.35527 0
M  V30 5173 H 501.218 2.43793 -3.91026 0
M  V30 5174 H 499.533 2.33567 -3.44725 0
M  V30 5175 H 502.13 4.84836 -2.25473 0
M  V30 5176 H 502.473 4.10136 -0.713737 0
M  V30 5177 H 503.006 3.30482 -2.21419 0
M  V30 5178 H 499.745 4.11918 -5.09906 0
M  V30 5179 H 499.265 4.83841 -3.54482 0
M  V30 5180 H 500.944 4.98873 -4.11989 0
M  V30 5181 N 501.076 1.04316 1.18135 0
M  V30 5182 C 502.306 0.767003 1.91835 0
M  V30 5183 C 502.714 -0.68002 1.76557 0
M  V30 5184 O 502.057 -1.47548 1.09432 0
M  V30 5185 C 502.119 1.05674 3.43618 0
M  V30 5186 C 501.783 2.49818 3.82675 0
M  V30 5187 C 502.78 3.48003 3.86251 0
M  V30 5188 C 500.465 2.84596 4.13897 0
M  V30 5189 C 502.459 4.79016 4.20503 0
M  V30 5190 C 500.146 4.15813 4.4782 0
M  V30 5191 C 501.144 5.12834 4.51099 0
M  V30 5192 O 500.832 6.41699 4.84229 0
M  V30 5193 H 500.564 0.278948 0.615763 0
M  V30 5194 H 503.118 1.3946 1.50798 0
M  V30 5195 H 501.348 0.372029 3.84906 0
M  V30 5196 H 503.037 0.767994 3.98568 0
M  V30 5197 H 503.803 3.22475 3.62264 0
M  V30 5198 H 499.682 2.09748 4.1052 0
M  V30 5199 H 503.226 5.54739 4.22978 0
M  V30 5200 H 499.123 4.41109 4.71268 0
M  V30 5201 H 499.891 6.46387 5.02121 0
M  V30 5202 N 502.554 -1.34406 0.822964 0
M  V30 5203 C 503.802 -1.97892 0.410245 0
M  V30 5204 C 504.123 -1.65567 -1.03017 0
M  V30 5205 O 503.393 -0.94642 -1.71522 0
M  V30 5206 H 501.973 -0.732049 0.148707 0
M  V30 5207 H 504.635 -1.64043 1.05242 0
M  V30 5208 H 503.731 -3.07579 0.529284 0
M  V30 5209 N 504.032 -0.577932 -1.46621 0
M  V30 5210 C 505.28 -0.061566 -2.02006 0
M  V30 5211 C 505.601 1.30117 -1.4524 0
M  V30 5212 O 504.871 1.85313 -0.63529 0
M  V30 5213 H 503.451 -0.0197692 -0.746738 0
M  V30 5214 H 506.113 -0.752631 -1.79782 0
M  V30 5215 H 505.209 0.0110238 -3.12098 0
M  V30 5216 N 505.51 1.54411 -0.315457 0
M  V30 5217 C 506.75 2.02329 0.290236 0
M  V30 5218 C 507.114 1.19878 1.49977 0
M  V30 5219 O 508.315 1.57562 2.17779 0
M  V30 5220 C 506.586 3.51912 0.623937 0
M  V30 5221 S 508.145 4.21775 1.21044 0
M  V30 5222 H 504.963 0.705499 0.0882739 0
M  V30 5223 H 507.565 1.90328 -0.446694 0
M  V30 5224 H 506.269 4.09546 -0.264624 0
M  V30 5225 H 505.8 3.67977 1.39128 0
M  V30 5226 H 507.815 4.28757 2.49764 0
M  V30 5227 N 506.988 0.0434614 1.5754 0
M  V30 5228 C 508.236 -0.630786 1.92004 0
M  V30 5229 C 508.557 -1.71836 0.921807 0
M  V30 5230 O 507.827 -1.9587 -0.034522 0
M  V30 5231 H 506.407 -0.235988 0.708745 0
M  V30 5232 H 509.069 0.0946462 1.9467 0
M  V30 5233 H 508.165 -1.07434 2.93026 0
M  V30 5234 N 508.466 -1.55915 -0.229846 0
M  V30 5235 C 509.714 -1.7819 -0.953565 0
M  V30 5236 C 510.035 -0.610504 -1.85197 0
M  V30 5237 O 509.305 0.372988 -1.92316 0
M  V30 5238 H 507.885 -0.657208 -0.355087 0
M  V30 5239 H 510.547 -1.9337 -0.243693 0
M  V30 5240 H 509.643 -2.70011 -1.56527 0
M  V30 5241 N 509.944 0.496216 -1.49584 0
M  V30 5242 C 510.892 1.61805 -1.67098 0
M  V30 5243 C 511.886 1.60667 -0.536877 0
M  V30 5244 O 513.092 1.65118 -0.716654 0
M  V30 5245 H 509.467 0.53646 -0.526986 0
M  V30 5246 H 511.438 1.44187 -2.61252 0
M  V30 5247 C 510.187 2.99912 -1.75921 0
M  V30 5248 H 509.51 3.01496 -2.62565 0
M  V30 5249 H 510.95 3.77931 -1.92209 0
M  V30 5250 C 509.409 3.33092 -0.505088 0
M  V30 5251 O 509.939 4.00019 0.367085 0
M  V30 5252 N 508.145 2.88278 -0.366599 0
M  V30 5253 H 507.692 2.33989 -1.07735 0
M  V30 5254 H 507.65 3.10846 0.47142 0
M  V30 5255 N 511.423 1.38739 0.74761 0
M  V30 5256 C 512.839 1.20067 1.05148 0
M  V30 5257 C 513.039 0.0534835 2.01429 0
M  V30 5258 O 512.095 -0.59886 2.45296 0
M  V30 5259 C 513.408 2.52957 1.62584 0
M  V30 5260 C 514.956 2.59692 1.74726 0
M  V30 5261 C 515.431 3.92772 2.35573 0
M  V30 5262 N 516.922 3.94343 2.42997 0
M  V30 5263 C 517.657 4.9408 2.90985 0
M  V30 5264 N 517.153 6.04214 3.38965 0
M  V30 5265 N 518.946 4.81466 2.9008 0
M  V30 5266 H 511.097 2.12121 0.108808 0
M  V30 5267 H 513.36 0.941491 0.110899 0
M  V30 5268 H 513.066 3.37389 0.993051 0
M  V30 5269 H 512.94 2.71779 2.61565 0
M  V30 5270 H 515.327 1.75651 2.3713 0
M  V30 5271 H 515.408 2.44731 0.744326 0
M  V30 5272 H 515.052 4.77238 1.738 0
M  V30 5273 H 514.982 4.05046 3.36519 0
M  V30 5274 H 517.473 3.14799 2.0907 0
M  V30 5275 H 517.786 6.76241 3.74056 0
M  V30 5276 H 516.131 6.07825 3.37007 0
M  V30 5277 H 519.322 3.94535 2.51912 0
M  V30 5278 H 519.495 5.59344 3.27166 0
M  V30 5279 N 512.901 -0.976442 1.23707 0
M  V30 5280 C 513.849 -2.09078 1.01927 0
M  V30 5281 C 514.843 -1.69345 -0.0430193 0
M  V30 5282 O 516.049 -1.79659 0.110814 0
M  V30 5283 H 512.424 -0.68398 0.312531 0
M  V30 5284 H 514.395 -2.24614 1.96447 0
M  V30 5285 C 513.144 -3.41919 0.631385 0
M  V30 5286 H 512.467 -3.72946 1.44053 0
M  V30 5287 H 513.907 -4.20817 0.518532 0
M  V30 5288 C 512.366 -3.30357 -0.660723 0
M  V30 5289 O 512.896 -3.63542 -1.70881 0
M  V30 5290 N 511.102 -2.83507 -0.638139 0
M  V30 5291 H 510.649 -2.567 0.215108 0
M  V30 5292 H 510.607 -2.76153 -1.50289 0
M  V30 5293 N 514.379 -1.04941 -1.1758 0
M  V30 5294 C 515.327 -0.64204 -2.23563 0
M  V30 5295 C 516.321 0.335453 -1.66045 0
M  V30 5296 O 517.527 0.20179 -1.78865 0
M  V30 5297 H 513.902 -0.18944 -0.727748 0
M  V30 5298 H 515.873 -1.54609 -2.55223 0
M  V30 5299 C 514.622 -0.0301051 -3.47687 0
M  V30 5300 H 513.945 -0.773339 -3.92249 0
M  V30 5301 H 515.385 0.217592 -4.23441 0
M  V30 5302 C 513.844 1.2225 -3.13937 0
M  V30 5303 O 514.374 2.3122 -3.28482 0
M  V30 5304 N 512.58 1.11917 -2.68185 0
M  V30 5305 H 512.127 0.232403 -2.5655 0
M  V30 5306 H 512.085 1.95814 -2.45976 0
M  V30 5307 N 515.857 1.33968 -0.830081 0
M  V30 5308 C 517.104 1.98063 -0.421566 0
M  V30 5309 C 517.432 1.65787 1.0171 0
M  V30 5310 O 516.687 0.925348 1.72441 0
M  V30 5311 C 516.986 3.52679 -0.57898 0
M  V30 5312 C 516.652 4.04884 -1.98443 0
M  V30 5313 C 515.314 4.18852 -2.36888 0
M  V30 5314 C 517.666 4.32879 -2.90285 0
M  V30 5315 C 514.994 4.58145 -3.66497 0
M  V30 5316 C 517.346 4.7362 -4.19364 0
M  V30 5317 C 516.01 4.85794 -4.57778 0
M  V30 5318 H 515.28 0.724765 -0.154262 0
M  V30 5319 H 517.927 1.59792 -1.05541 0
M  V30 5320 H 516.232 3.91556 0.138219 0
M  V30 5321 H 517.929 4.00261 -0.243317 0
M  V30 5322 H 514.519 3.9448 -1.67581 0
M  V30 5323 H 518.703 4.21619 -2.61823 0
M  V30 5324 H 513.959 4.65762 -3.96075 0
M  V30 5325 H 518.133 4.9424 -4.90612 0
M  V30 5326 H 515.76 5.15998 -5.58256 0
M  V30 5327 N 517.335 0.585699 1.46312 0
M  V30 5328 C 518.245 -0.148236 2.34131 0
M  V30 5329 C 519.261 -0.882972 1.49932 0
M  V30 5330 O 520.437 -0.845484 1.82794 0
M  V30 5331 C 517.502 -1.14714 3.27172 0
M  V30 5332 C 516.563 -0.416746 4.27272 0
M  V30 5333 C 515.796 -1.36806 5.15868 0
M  V30 5334 O 516.019 -2.60475 5.07454 0
M  V30 5335 O 514.953 -0.877018 5.95476 0
M  V30 5336 H 518.779 0.572882 2.98248 0
M  V30 5337 H 516.364 0.346082 1.45336 0
M  V30 5338 H 518.246 -1.72303 3.84564 0
M  V30 5339 H 516.921 -1.84967 2.65648 0
M  V30 5340 H 515.828 0.201061 3.73559 0
M  V30 5341 H 517.161 0.244872 4.9159 0
M  V30 5342 N 518.813 -1.54241 0.323641 0
M  V30 5343 C 520.038 -2.05452 -0.283605 0
M  V30 5344 C 520.463 -1.19823 -1.44997 0
M  V30 5345 O 519.821 -0.207358 -1.8011 0
M  V30 5346 C 519.869 -3.53823 -0.695795 0
M  V30 5347 O 518.973 -3.71134 -1.79815 0
M  V30 5348 H 518.314 -0.662024 -0.0511917 0
M  V30 5349 H 520.844 -1.99079 0.472073 0
M  V30 5350 H 520.854 -3.96094 -0.978434 0
M  V30 5351 H 519.529 -4.15602 0.157287 0
M  V30 5352 H 518.106 -3.40768 -1.51431 0
M  V30 5353 N 520.291 -0.0518155 -1.57515 0
M  V30 5354 C 521.201 0.937539 -2.15052 0
M  V30 5355 C 522.217 1.34121 -1.10849 0
M  V30 5356 O 523.393 1.418 -1.4302 0
M  V30 5357 C 520.458 2.19379 -2.68466 0
M  V30 5358 C 519.519 1.84841 -3.87469 0
M  V30 5359 C 518.752 3.04477 -4.38326 0
M  V30 5360 O 518.975 4.17868 -3.88256 0
M  V30 5361 O 517.909 2.85453 -5.29906 0
M  V30 5362 H 521.735 0.478201 -2.99912 0
M  V30 5363 H 519.32 0.17012 -1.48428 0
M  V30 5364 H 521.202 2.93084 -3.02787 0
M  V30 5365 H 519.877 2.64449 -1.86677 0
M  V30 5366 H 518.784 1.08449 -3.58036 0
M  V30 5367 H 520.117 1.44569 -4.7049 0
M  V30 5368 N 521.769 1.56035 0.221574 0
M  V30 5369 C 523.046 1.69837 0.970301 0
M  V30 5370 C 523.426 0.599065 2.02421 0
M  V30 5371 O 522.774 -0.393929 2.25079 0
M  V30 5372 C 522.984 3.11148 1.58076 0
M  V30 5373 C 524.332 3.70555 2.07302 0
M  V30 5374 O 525.356 3.14109 1.6797 0
M  V30 5375 O 524.215 4.69562 2.79596 0
M  V30 5376 H 521.309 0.691727 0.453257 0
M  V30 5377 H 523.855 1.68353 0.213358 0
M  V30 5378 H 522.627 3.82617 0.819759 0
M  V30 5379 H 522.25 3.16749 2.40324 0
M  V30 5380 N 523.247 -0.488276 1.49845 0
M  V30 5381 C 524.477 -1.26344 1.63465 0
M  V30 5382 C 524.885 -1.86637 0.310379 0
M  V30 5383 O 524.228 -1.69184 -0.715712 0
M  V30 5384 C 524.29 -2.42407 2.65479 0
M  V30 5385 C 523.954 -2.02886 4.09495 0
M  V30 5386 C 524.951 -1.56124 4.95904 0
M  V30 5387 C 522.636 -2.12131 4.55308 0
M  V30 5388 C 524.63 -1.19129 6.26169 0
M  V30 5389 C 522.317 -1.74747 5.85582 0
M  V30 5390 C 523.315 -1.28322 6.70837 0
M  V30 5391 O 523.003 -0.914491 7.98682 0
M  V30 5392 H 522.735 -0.388921 0.552916 0
M  V30 5393 H 525.289 -0.591288 1.96705 0
M  V30 5394 H 523.519 -3.12739 2.27445 0
M  V30 5395 H 525.208 -3.04409 2.68495 0
M  V30 5396 H 525.974 -1.48417 4.61733 0
M  V30 5397 H 521.853 -2.47217 3.89107 0
M  V30 5398 H 525.397 -0.828211 6.92666 0
M  V30 5399 H 521.294 -1.82109 6.19279 0
M  V30 5400 H 522.062 -1.04485 8.11804 0
M  V30 5401 N 524.725 -1.39134 -0.740242 0
M  V30 5402 C 525.965 -1.37499 -1.51239 0
M  V30 5403 C 526.329 0.0310084 -1.91975 0
M  V30 5404 O 527.53 0.172319 -2.68247 0
M  V30 5405 C 525.801 -2.31566 -2.72235 0
M  V30 5406 S 527.36 -2.48073 -3.61947 0
M  V30 5407 H 524.178 -0.48768 -0.517387 0
M  V30 5408 H 526.78 -1.75183 -0.867826 0
M  V30 5409 H 525.484 -3.32592 -2.40439 0
M  V30 5410 H 525.015 -1.9508 -3.41625 0
M  V30 5411 H 527.03 -1.71473 -4.6563 0
M  V30 5412 N 526.204 0.969867 -1.24223 0
M  V30 5413 C 527.137 2.06279 -0.975926 0
M  V30 5414 C 528.115 1.62353 0.0895385 0
M  V30 5415 O 529.299 1.88442 -0.0469418 0
M  V30 5416 C 526.426 3.35391 -0.472315 0
M  V30 5417 C 525.472 3.98266 -1.526 0
M  V30 5418 S 526.305 4.36172 -3.10667 0
M  V30 5419 C 527.461 5.68423 -2.62003 0
M  V30 5420 H 527.694 2.28551 -1.90137 0
M  V30 5421 H 525.227 1.10748 -1.07584 0
M  V30 5422 H 527.185 4.10068 -0.188376 0
M  V30 5423 H 525.846 3.1111 0.432378 0
M  V30 5424 H 525.039 4.91307 -1.12399 0
M  V30 5425 H 524.641 3.30009 -1.75983 0
M  V30 5426 H 526.933 6.45842 -2.0468 0
M  V30 5427 H 527.876 6.13478 -3.53625 0
M  V30 5428 H 528.284 5.26928 -2.02502 0
M  V30 5429 N 527.682 1.05563 1.17022 0
M  V30 5430 C 528.645 0.664098 2.19368 0
M  V30 5431 C 529.645 -0.286358 1.5823 0
M  V30 5432 O 530.835 -0.069728 1.7406 0
M  V30 5433 C 527.967 -0.0239932 3.40892 0
M  V30 5434 H 529.16 1.57 2.55521 0
M  V30 5435 H 526.713 0.849964 1.31169 0
M  V30 5436 H 527.448 -0.942988 3.10287 0
M  V30 5437 H 527.233 0.659351 3.86516 0
M  V30 5438 H 528.723 -0.283909 4.16634 0
M  V30 5439 N 529.16 -1.33526 0.837174 0
M  V30 5440 C 530.406 -1.9813 0.432704 0
M  V30 5441 C 530.739 -1.66168 -1.00508 0
M  V30 5442 O 530.014 -0.94069 -1.70239 0
M  V30 5443 C 530.297 -3.54151 0.651834 0
M  V30 5444 C 530.15 -3.95806 2.13676 0
M  V30 5445 C 531.469 -4.39993 0.0968937 0
M  V30 5446 H 528.588 -0.719713 0.15869 0
M  V30 5447 H 531.23 -1.58193 1.05237 0
M  V30 5448 H 529.38 -3.88301 0.124369 0
M  V30 5449 H 531.052 -3.71921 2.72896 0
M  V30 5450 H 529.295 -3.45599 2.62191 0
M  V30 5451 H 529.966 -5.0447 2.24084 0
M  V30 5452 H 532.442 -4.12479 0.547733 0
M  V30 5453 H 531.318 -5.48186 0.279917 0
M  V30 5454 H 531.579 -4.3066 -0.9992 0
M  V30 5455 N 530.638 -0.59345 -1.46 0
M  V30 5456 C 531.878 -0.0859747 -2.04219 0
M  V30 5457 C 532.242 1.25432 -1.45364 0
M  V30 5458 O 533.443 1.85168 -1.9485 0
M  V30 5459 C 531.714 -0.0324314 -3.57385 0
M  V30 5460 S 533.273 0.415908 -4.36824 0
M  V30 5461 H 530.091 -0.0426872 -0.709717 0
M  V30 5462 H 532.693 -0.788369 -1.78899 0
M  V30 5463 H 531.397 -1.01166 -3.97735 0
M  V30 5464 H 530.928 0.6924 -3.87259 0
M  V30 5465 H 532.943 1.66844 -4.67309 0
M  V30 5466 N 532.116 1.54067 -0.331816 0
M  V30 5467 C 533.063 2.24623 0.530372 0
M  V30 5468 C 534.033 1.24009 1.10503 0
M  V30 5469 O 535.218 1.52712 1.14384 0
M  V30 5470 C 532.358 3.01374 1.68129 0
M  V30 5471 C 531.471 4.16821 1.13507 0
M  V30 5472 C 530.606 4.81085 2.25234 0
M  V30 5473 C 529.645 5.88621 1.67903 0
M  V30 5474 N 528.782 6.46713 2.73326 0
M  V30 5475 H 533.622 2.97898 -0.0778607 0
M  V30 5476 H 531.159 1.47014 -0.0501965 0
M  V30 5477 H 533.117 3.44125 2.35868 0
M  V30 5478 H 531.747 2.30419 2.26069 0
M  V30 5479 H 530.799 3.78796 0.348979 0
M  V30 5480 H 532.111 4.94203 0.675633 0
M  V30 5481 H 531.265 5.26846 3.00862 0
M  V30 5482 H 530.004 4.03102 2.74518 0
M  V30 5483 H 529.009 5.42254 0.907773 0
M  V30 5484 H 530.234 6.68506 1.19487 0
M  V30 5485 H 528.18 5.71599 3.21886 0
M  V30 5486 H 528.097 7.19532 2.3197 0
M  V30 5487 H 529.365 6.97129 3.48758 0
M  V30 5488 N 533.594 0.0601682 1.57485 0
M  V30 5489 C 534.557 -0.896373 2.10945 0
M  V30 5490 C 535.557 -1.23402 1.03095 0
M  V30 5491 O 536.747 -1.16921 1.29132 0
M  V30 5492 C 533.879 -2.20346 2.60116 0
M  V30 5493 H 535.072 -0.432778 2.96761 0
M  V30 5494 H 532.625 -0.188372 1.55161 0
M  V30 5495 H 533.36 -2.71268 1.7772 0
M  V30 5496 H 533.145 -1.9714 3.38937 0
M  V30 5497 H 534.635 -2.88846 3.01592 0
M  V30 5498 N 535.072 -1.5615 -0.213296 0
M  V30 5499 C 536.005 -1.88115 -1.29182 0
M  V30 5500 C 536.983 -0.739348 -1.44819 0
M  V30 5501 O 538.167 -0.988541 -1.605 0
M  V30 5502 C 535.294 -2.09541 -2.66102 0
M  V30 5503 C 534.34 -3.32236 -2.67436 0
M  V30 5504 S 535.173 -4.87915 -2.20679 0
M  V30 5505 C 536.329 -5.12387 -3.59458 0
M  V30 5506 H 536.562 -2.793 -1.01876 0
M  V30 5507 H 534.095 -1.48692 -0.415934 0
M  V30 5508 H 536.053 -2.22568 -3.44925 0
M  V30 5509 H 534.714 -1.19138 -2.90628 0
M  V30 5510 H 533.907 -3.44297 -3.6807 0
M  V30 5511 H 533.509 -3.18108 -1.96681 0
M  V30 5512 H 535.801 -5.01791 -4.55205 0
M  V30 5513 H 536.744 -6.14236 -3.52306 0
M  V30 5514 H 537.152 -4.40089 -3.53528 0
M  V30 5515 N 536.55 0.480323 -1.50102 0
M  V30 5516 C 537.799 1.22979 -1.59872 0
M  V30 5517 C 538.112 1.93282 -0.30022 0
M  V30 5518 O 539.318 2.70086 -0.276709 0
M  V30 5519 C 537.774 2.23408 -2.82164 0
M  V30 5520 C 537.382 1.5895 -4.18854 0
M  V30 5521 C 539.126 2.99055 -3.01275 0
M  V30 5522 C 537.033 2.57611 -5.32344 0
M  V30 5523 H 535.963 0.462707 -0.59533 0
M  V30 5524 H 538.614 0.501291 -1.7652 0
M  V30 5525 H 536.996 2.99511 -2.59055 0
M  V30 5526 H 538.17 0.887 -4.52182 0
M  V30 5527 H 536.485 0.956191 -4.05273 0
M  V30 5528 H 539.082 3.72876 -3.83233 0
M  V30 5529 H 539.425 3.57897 -2.12639 0
M  V30 5530 H 539.958 2.30066 -3.24522 0
M  V30 5531 H 536.697 2.03521 -6.23105 0
M  V30 5532 H 536.217 3.26041 -5.03445 0
M  V30 5533 H 537.896 3.19627 -5.62537 0
M  V30 5534 N 538.028 1.39524 0.732853 0
M  V30 5535 C 539.439 1.32905 1.31122 0
M  V30 5536 C 539.79 -0.00558708 1.96199 0
M  V30 5537 O 538.915 -0.907706 1.96443 0
M  V30 5538 C 539.51 2.40704 2.38426 0
M  V30 5539 C 538.069 2.37599 2.91931 0
M  V30 5540 C 537.216 2.2248 1.65523 0
M  V30 5541 H 540.167 1.49581 0.530207 0
M  V30 5542 H 540.188 2.07616 3.18867 0
M  V30 5543 H 539.7 3.37829 1.91033 0
M  V30 5544 H 537.801 1.44119 3.43599 0
M  V30 5545 H 537.914 3.32538 3.44899 0
M  V30 5546 H 536.278 1.69691 1.8994 0
M  V30 5547 H 537.061 3.21577 1.20178 0
M  V30 5548 N 539.506 -0.963266 1.24736 0
M  V30 5549 C 540.917 -1.52145 1.08207 0
M  V30 5550 C 541.268 -1.93142 -0.345061 0
M  V30 5551 O 540.393 -1.77769 -1.23399 0
M  V30 5552 C 540.988 -2.76486 1.95808 0
M  V30 5553 C 539.547 -3.28646 1.8349 0
M  V30 5554 C 538.694 -2.01529 1.90476 0
M  V30 5555 H 541.645 -0.781083 1.38148 0
M  V30 5556 H 541.666 -3.49986 1.49297 0
M  V30 5557 H 541.178 -2.46617 2.99669 0
M  V30 5558 H 539.279 -3.63357 0.824787 0
M  V30 5559 H 539.392 -3.97246 2.67829 0
M  V30 5560 H 537.756 -2.16442 1.34258 0
M  V30 5561 H 538.539 -1.7402 2.95926 0
M  V30 5562 N 540.985 -1.06182 -1.16461 0
M  V30 5563 C 542.213 -0.798583 -1.90867 0
M  V30 5564 C 542.628 0.646921 -1.77371 0
M  V30 5565 O 541.985 1.44279 -1.11758 0
M  V30 5566 C 542.036 -1.18258 -3.4161 0
M  V30 5567 O 541.757 -2.57135 -3.54701 0
M  V30 5568 C 543.258 -0.946917 -4.33069 0
M  V30 5569 H 540.478 -0.289603 -0.605286 0
M  V30 5570 H 543.022 -1.41515 -1.47627 0
M  V30 5571 H 541.177 -0.610562 -3.82558 0
M  V30 5572 H 541.591 -2.72477 -4.4817 0
M  V30 5573 H 543.065 -1.26523 -5.37304 0
M  V30 5574 H 543.542 0.117406 -4.39043 0
M  V30 5575 H 544.148 -1.50326 -3.97847 0
M  V30 5576 N 542.463 1.3308 -0.844243 0
M  V30 5577 C 543.874 1.7992 -0.498566 0
M  V30 5578 C 544.225 1.69808 0.982834 0
M  V30 5579 O 543.35 1.25051 1.7661 0
M  V30 5580 C 543.945 3.26677 -0.898204 0
M  V30 5581 C 542.504 3.71513 -0.604583 0
M  V30 5582 C 541.651 2.54393 -1.10362 0
M  V30 5583 H 544.602 1.20526 -1.03244 0
M  V30 5584 H 544.623 3.79918 -0.21039 0
M  V30 5585 H 544.135 3.34004 -1.97643 0
M  V30 5586 H 542.236 3.69708 0.46335 0
M  V30 5587 H 542.349 4.64755 -1.16358 0
M  V30 5588 H 540.713 2.49246 -0.524273 0
M  V30 5589 H 541.496 2.6448 -2.18873 0
M  V30 5590 N 543.941 0.601185 1.45683 0
M  V30 5591 C 544.871 -0.108824 2.33246 0
M  V30 5592 C 545.852 -0.865223 1.46451 0
M  V30 5593 O 547.037 -0.83704 1.75235 0
M  V30 5594 C 544.167 -1.11101 3.2905 0
M  V30 5595 C 543.121 -0.468244 4.25431 0
M  V30 5596 C 542.447 -1.57822 5.10878 0
M  V30 5597 C 543.747 0.606469 5.18767 0
M  V30 5598 H 545.441 0.622306 2.92861 0
M  V30 5599 H 542.987 0.300714 1.40825 0
M  V30 5600 H 544.94 -1.61622 3.89174 0
M  V30 5601 H 543.664 -1.87265 2.67581 0
M  V30 5602 H 542.323 0.0160484 3.66596 0
M  V30 5603 H 541.971 -2.32998 4.45781 0
M  V30 5604 H 541.671 -1.15369 5.76163 0
M  V30 5605 H 543.195 -2.08583 5.73869 0
M  V30 5606 H 544.609 0.185589 5.73 0
M  V30 5607 H 543.006 0.952381 5.92494 0
M  V30 5608 H 544.076 1.48559 4.61582 0
M  V30 5609 N 545.419 -1.53889 0.339982 0
M  V30 5610 C 546.83 -1.86139 -0.144671 0
M  V30 5611 C 547.181 -1.2613 -1.50285 0
M  V30 5612 O 546.306 -0.573515 -2.08662 0
M  V30 5613 C 546.901 -3.37728 -0.269285 0
M  V30 5614 C 545.46 -3.69868 -0.698168 0
M  V30 5615 C 544.607 -2.76777 0.170249 0
M  V30 5616 H 547.558 -1.48503 0.559704 0
M  V30 5617 H 547.579 -3.64331 -1.0974 0
M  V30 5618 H 547.091 -3.81375 0.719366 0
M  V30 5619 H 545.192 -3.31764 -1.69597 0
M  V30 5620 H 545.305 -4.76582 -0.490533 0
M  V30 5621 H 543.669 -2.52188 -0.356844 0
M  V30 5622 H 544.452 -3.23253 1.15597 0
M  V30 5623 N 546.897 -0.0685191 -1.57451 0
M  V30 5624 C 548.125 0.610462 -1.97689 0
M  V30 5625 C 548.54 1.63346 -0.946758 0
M  V30 5626 O 547.897 1.82377 0.0669868 0
M  V30 5627 C 547.948 1.28196 -3.38006 0
M  V30 5628 O 547.669 0.299906 -4.37072 0
M  V30 5629 C 549.17 2.04907 -3.931 0
M  V30 5630 H 546.39 0.165689 -0.650222 0
M  V30 5631 H 548.934 -0.139953 -2.04021 0
M  V30 5632 H 547.089 1.98348 -3.32771 0
M  V30 5633 H 547.503 0.78126 -5.18649 0
M  V30 5634 H 548.977 2.47287 -4.93511 0
M  V30 5635 H 549.454 2.9043 -3.29465 0
M  V30 5636 H 550.06 1.39629 -4.01726 0
M  V30 5637 N 548.375 1.56261 0.205012 0
M  V30 5638 C 549.323 1.94631 1.27364 0
M  V30 5639 C 550.317 0.830434 1.47649 0
M  V30 5640 O 551.523 1.01538 1.48627 0
M  V30 5641 H 547.898 0.618755 0.427371 0
M  V30 5642 H 549.869 2.83768 0.922941 0
M  V30 5643 C 548.618 2.29358 2.61324 0
M  V30 5644 H 547.941 3.14744 2.46528 0
M  V30 5645 H 549.381 2.60076 3.34868 0
M  V30 5646 C 547.84 1.12461 3.17575 0
M  V30 5647 O 548.37 0.394407 3.99759 0
M  V30 5648 N 546.576 0.904036 2.7618 0
M  V30 5649 H 546.123 1.49956 2.09454 0
M  V30 5650 H 546.081 0.123662 3.14157 0
M  V30 5651 N 549.853 -0.472356 1.50355 0
M  V30 5652 C 551.13 -1.23356 1.51798 0
M  V30 5653 C 551.51 -2.09469 0.26193 0
M  V30 5654 O 550.858 -2.15677 -0.754691 0
M  V30 5655 C 551.068 -2.06568 2.81302 0
M  V30 5656 C 552.416 -2.648 3.31913 0
M  V30 5657 O 553.44 -2.16812 2.82614 0
M  V30 5658 O 552.299 -3.52231 4.17846 0
M  V30 5659 H 549.393 -0.559707 0.608816 0
M  V30 5660 H 551.939 -0.48428 1.62643 0
M  V30 5661 H 550.711 -1.43103 3.64194 0
M  V30 5662 H 550.334 -2.88633 2.73454 0
M  V30 5663 N 551.331 -1.39911 -0.725443 0
M  V30 5664 C 552.577 -1.37858 -1.48738 0
M  V30 5665 C 552.91 0.0224187 -1.94187 0
M  V30 5666 O 552.185 0.989204 -1.67466 0
M  V30 5667 C 552.468 -2.3594 -2.72038 0
M  V30 5668 C 552.321 -3.85023 -2.32546 0
M  V30 5669 C 553.64 -2.31704 -3.74167 0
M  V30 5670 H 550.759 -0.502074 -0.539528 0
M  V30 5671 H 553.401 -1.70974 -0.828728 0
M  V30 5672 H 551.551 -2.0783 -3.28236 0
M  V30 5673 H 553.223 -4.2392 -1.81905 0
M  V30 5674 H 551.466 -4.01334 -1.64661 0
M  V30 5675 H 552.137 -4.49152 -3.20884 0
M  V30 5676 H 554.613 -2.5658 -3.27576 0
M  V30 5677 H 553.489 -3.02395 -4.58092 0
M  V30 5678 H 553.75 -1.3253 -4.21768 0
M  V30 5679 N 552.809 0.956637 -1.25245 0
M  V30 5680 C 554.086 1.67716 -1.00651 0
M  V30 5681 C 554.466 2.0585 0.467866 0
M  V30 5682 O 553.814 1.77029 1.44475 0
M  V30 5683 C 554.024 2.90093 -1.94028 0
M  V30 5684 C 555.372 3.6209 -2.21756 0
M  V30 5685 O 556.396 3.00171 -1.9177 0
M  V30 5686 O 555.255 4.7358 -2.72735 0
M  V30 5687 H 552.349 0.733731 -0.381533 0
M  V30 5688 H 554.895 1.00974 -1.3639 0
M  V30 5689 H 553.667 2.58689 -2.93591 0
M  V30 5690 H 553.29 3.64566 -1.58674 0
M  V30 5691 N 554.287 1.06798 1.15896 0
M  V30 5692 C 555.533 0.788934 1.86825 0
M  V30 5693 C 555.866 -0.683084 1.8179 0
M  V30 5694 O 555.141 -1.50086 1.23711 0
M  V30 5695 C 555.424 1.29065 3.36176 0
M  V30 5696 C 555.277 2.8268 3.49874 0
M  V30 5697 C 556.596 0.902655 4.30744 0
M  V30 5698 H 553.715 0.288066 0.678371 0
M  V30 5699 H 556.357 1.32479 1.36195 0
M  V30 5700 H 554.507 0.834806 3.79425 0
M  V30 5701 H 556.179 3.36511 3.15528 0
M  V30 5702 H 554.422 3.21157 2.91617 0
M  V30 5703 H 555.093 3.12852 4.54783 0
M  V30 5704 H 557.569 1.29535 3.95424 0
M  V30 5705 H 556.445 1.28111 5.3374 0
M  V30 5706 H 556.706 -0.191951 4.41683 0
M  V30 5707 N 555.766 -1.3263 0.851289 0
M  V30 5708 C 556.996 -2.01271 0.466222 0
M  V30 5709 C 557.404 -1.64156 -0.940714 0
M  V30 5710 O 556.747 -0.857109 -1.62479 0
M  V30 5711 C 556.809 -3.55695 0.521672 0
M  V30 5712 C 556.473 -4.16227 1.88691 0
M  V30 5713 C 557.47 -4.34699 2.85189 0
M  V30 5714 C 555.155 -4.52377 2.18313 0
M  V30 5715 C 557.149 -4.88484 4.09465 0
M  V30 5716 C 554.836 -5.05868 3.42843 0
M  V30 5717 C 555.834 -5.23869 4.38235 0
M  V30 5718 O 555.522 -5.76218 5.6056 0
M  V30 5719 H 555.254 -0.651034 0.18202 0
M  V30 5720 H 557.808 -1.7026 1.14894 0
M  V30 5721 H 556.038 -3.86086 -0.217888 0
M  V30 5722 H 557.727 -4.05613 0.152682 0
M  V30 5723 H 558.493 -4.07107 2.63607 0
M  V30 5724 H 554.372 -4.37652 1.44851 0
M  V30 5725 H 557.916 -5.02451 4.83931 0
M  V30 5726 H 553.813 -5.32891 3.64277 0
M  V30 5727 H 554.581 -5.94616 5.62471 0
M  V30 5728 N 557.244 -0.608902 -1.45362 0
M  V30 5729 C 558.491 -0.104607 -2.0223 0
M  V30 5730 C 558.819 1.26534 -1.47714 0
M  V30 5731 O 558.074 1.84855 -0.642435 0
M  V30 5732 C 558.373 -0.0167296 -3.57396 0
M  V30 5733 C 558.039 -1.32251 -4.31069 0
M  V30 5734 C 556.701 -1.68019 -4.50914 0
M  V30 5735 C 559.053 -2.18542 -4.73169 0
M  V30 5736 C 556.381 -2.89828 -5.10114 0
M  V30 5737 C 558.733 -3.39602 -5.33717 0
M  V30 5738 C 557.397 -3.7562 -5.51784 0
M  V30 5739 H 556.667 -0.0382785 -0.740011 0
M  V30 5740 H 559.314 -0.790782 -1.7441 0
M  V30 5741 H 557.619 0.752715 -3.84502 0
M  V30 5742 H 559.316 0.389634 -3.99103 0
M  V30 5743 H 555.906 -1.03411 -4.15938 0
M  V30 5744 H 560.09 -1.92208 -4.5757 0
M  V30 5745 H 555.346 -3.17839 -5.22291 0
M  V30 5746 H 559.52 -4.06716 -5.65292 0
M  V30 5747 H 557.147 -4.70093 -5.97425 0
M  V30 5748 N 558.722 1.53707 -0.348139 0
M  V30 5749 C 559.632 2.28881 0.514857 0
M  V30 5750 C 560.648 1.34168 1.10793 0
M  V30 5751 O 561.824 1.6721 1.12262 0
M  V30 5752 C 558.889 3.05042 1.64774 0
M  V30 5753 C 557.95 4.15389 1.08398 0
M  V30 5754 C 557.183 4.87909 2.16287 0
M  V30 5755 O 557.406 4.60137 3.3709 0
M  V30 5756 O 556.34 5.74254 1.80323 0
M  V30 5757 H 560.166 3.03547 -0.0963699 0
M  V30 5758 H 557.751 1.48972 -0.113043 0
M  V30 5759 H 559.633 3.52656 2.30677 0
M  V30 5760 H 558.308 2.33228 2.24469 0
M  V30 5761 H 557.215 3.72068 0.389341 0
M  V30 5762 H 558.548 4.89318 0.531829 0
M  V30 5763 N 560.2 0.0768682 1.57412 0
M  V30 5764 C 561.428 -0.59997 1.9801 0
M  V30 5765 C 561.843 -1.62842 0.955408 0
M  V30 5766 O 561.2 -1.8241 -0.057314 0
M  V30 5767 C 561.251 -1.26401 3.38681 0
M  V30 5768 O 560.972 -0.276723 4.37225 0
M  V30 5769 C 562.473 -2.0282 3.94182 0
M  V30 5770 H 559.693 -0.162239 0.651091 0
M  V30 5771 H 562.237 0.150771 2.03943 0
M  V30 5772 H 560.392 -1.96581 3.33819 0
M  V30 5773 H 560.806 -0.753744 5.19056 0
M  V30 5774 H 562.28 -2.44667 4.94815 0
M  V30 5775 H 562.757 -2.88678 3.31001 0
M  V30 5776 H 563.363 -1.37496 4.02461 0
M  V30 5777 N 561.678 -1.56367 -0.196722 0
M  V30 5778 C 562.903 -1.84991 -0.937714 0
M  V30 5779 C 563.328 -0.660244 -1.76132 0
M  V30 5780 O 562.686 0.390967 -1.77034 0
M  V30 5781 C 562.734 -3.11828 -1.81096 0
M  V30 5782 O 561.838 -2.92266 -2.90955 0
M  V30 5783 H 561.179 -0.609193 -0.264159 0
M  V30 5784 H 563.709 -2.03595 -0.202529 0
M  V30 5785 H 563.719 -3.42579 -2.21594 0
M  V30 5786 H 562.394 -3.98037 -1.2058 0
M  V30 5787 H 560.971 -2.72809 -2.54224 0
M  V30 5788 N 563.156 0.464375 -1.50603 0
M  V30 5789 C 564.119 1.54393 -1.69397 0
M  V30 5790 C 565.119 1.50566 -0.564504 0
M  V30 5791 O 566.309 1.53066 -0.831645 0
M  V30 5792 C 563.441 2.9401 -1.72543 0
M  V30 5793 H 564.634 1.39044 -2.65719 0
M  V30 5794 H 562.187 0.69122 -1.40185 0
M  V30 5795 H 562.922 3.14795 -0.77938 0
M  V30 5796 H 562.707 2.98195 -2.54602 0
M  V30 5797 H 564.197 3.72375 -1.89015 0
M  V30 5798 N 564.634 1.40294 0.718013 0
M  V30 5799 C 565.911 1.2894 1.47084 0
M  V30 5800 C 566.291 -0.0933625 2.10893 0
M  V30 5801 O 565.639 -1.10598 1.99951 0
M  V30 5802 C 565.849 2.4264 2.50852 0
M  V30 5803 C 567.197 2.8276 3.16752 0
M  V30 5804 O 568.221 2.42215 2.61171 0
M  V30 5805 O 567.08 3.528 4.17366 0
M  V30 5806 H 564.174 0.506236 0.653952 0
M  V30 5807 H 566.72 1.52208 0.750394 0
M  V30 5808 H 565.492 3.35009 2.022 0
M  V30 5809 H 565.115 2.21129 3.30435 0
M  V30 5810 N 566.112 -0.949982 1.2575 0
M  V30 5811 C 567.389 -1.6718 1.01539 0
M  V30 5812 C 567.769 -2.06095 -0.456942 0
M  V30 5813 O 567.117 -1.77792 -1.43534 0
M  V30 5814 C 567.327 -2.8906 1.95564 0
M  V30 5815 C 568.675 -3.60909 2.23673 0
M  V30 5816 O 569.699 -2.9915 1.9336 0
M  V30 5817 O 568.558 -4.72127 2.75243 0
M  V30 5818 H 565.652 -0.731697 0.385419 0
M  V30 5819 H 568.198 -1.00249 1.36924 0
M  V30 5820 H 566.97 -2.57128 2.94959 0
M  V30 5821 H 566.593 -3.63719 1.60605 0
M  V30 5822 N 567.59 -1.07411 -1.15328 0
M  V30 5823 C 568.538 -0.689316 -2.22151 0
M  V30 5824 C 569.532 0.300156 -1.6672 0
M  V30 5825 O 570.738 0.163804 -1.79253 0
M  V30 5826 H 567.113 -0.204834 -0.723566 0
M  V30 5827 H 569.084 -1.59988 -2.51886 0
M  V30 5828 C 567.833 -0.103848 -3.47545 0
M  V30 5829 H 567.156 -0.856367 -3.90521 0
M  V30 5830 H 568.596 0.127725 -4.23808 0
M  V30 5831 C 567.055 1.15563 -3.1646 0
M  V30 5832 O 567.585 2.242 -3.33312 0
M  V30 5833 N 565.791 1.06203 -2.70498 0
M  V30 5834 H 565.338 0.177933 -2.56985 0
M  V30 5835 H 565.296 1.90553 -2.50074 0
M  V30 5836 N 569.068 1.32177 -0.85831 0
M  V30 5837 C 569.978 2.32561 -0.308606 0
M  V30 5838 C 570.994 1.64209 0.575462 0
M  V30 5839 O 572.17 1.95719 0.474961 0
M  V30 5840 C 569.235 3.43207 0.490909 0
M  V30 5841 C 568.296 4.27243 -0.419733 0
M  V30 5842 C 567.529 5.32605 0.341719 0
M  V30 5843 O 567.752 5.48332 1.57125 0
M  V30 5844 O 566.686 6.0118 -0.294379 0
M  V30 5845 H 570.512 2.81477 -1.14037 0
M  V30 5846 H 568.097 1.35866 -0.621349 0
M  V30 5847 H 569.979 4.10677 0.944574 0
M  V30 5848 H 568.654 2.96474 1.29941 0
M  V30 5849 H 567.561 3.62569 -0.921652 0
M  V30 5850 H 568.894 4.7751 -1.19352 0
M  V30 5851 N 570.547 0.616602 1.45037 0
M  V30 5852 C 571.497 -0.118543 2.27692 0
M  V30 5853 C 572.481 -0.830025 1.37838 0
M  V30 5854 O 573.673 -0.718528 1.6176 0
M  V30 5855 C 570.802 -1.10924 3.24886 0
M  V30 5856 C 569.888 -0.398134 4.22227 0
M  V30 5857 N 570.279 0.565233 5.02632 0
M  V30 5858 C 568.577 -0.644506 4.41319 0
M  V30 5859 C 569.278 0.984043 5.73316 0
M  V30 5860 N 568.254 0.325879 5.42622 0
M  V30 5861 H 572.056 0.621239 2.87259 0
M  V30 5862 H 569.57 0.440968 1.56299 0
M  V30 5863 H 571.567 -1.65038 3.82842 0
M  V30 5864 H 570.227 -1.84948 2.66879 0
M  V30 5865 H 571.238 0.942395 5.09254 0
M  V30 5866 H 567.915 -1.36873 3.94426 0
M  V30 5867 H 569.305 1.77911 6.47918 0
M  V30 5868 N 572.025 -1.5352 0.356285 0
M  V30 5869 C 572.988 -2.24071 -0.482182 0
M  V30 5870 C 573.988 -1.24531 -1.01729 0
M  V30 5871 O 575.178 -1.48876 -0.904513 0
M  V30 5872 C 572.31 -2.97025 -1.67299 0
M  V30 5873 H 573.503 -2.99596 0.135031 0
M  V30 5874 H 571.056 -1.55928 0.107825 0
M  V30 5875 H 571.791 -2.25719 -2.32855 0
M  V30 5876 H 571.576 -3.7005 -1.29636 0
M  V30 5877 H 573.066 -3.50683 -2.26741 0
M  V30 5878 N 573.503 -0.0852151 -1.57369 0
M  V30 5879 C 574.919 0.271436 -1.57275 0
M  V30 5880 C 575.119 1.69109 -1.09565 0
M  V30 5881 O 574.175 2.40549 -0.767611 0
M  V30 5882 C 575.488 0.0688638 -3.00621 0
M  V30 5883 C 577.036 0.137373 -3.12698 0
M  V30 5884 C 577.511 -0.0370832 -4.57985 0
M  V30 5885 N 579.002 0.0180794 -4.63196 0
M  V30 5886 C 579.737 -0.0922953 -5.73326 0
M  V30 5887 N 579.233 -0.256948 -6.92323 0
M  V30 5888 N 581.026 -0.0342702 -5.6209 0
M  V30 5889 H 573.177 -1.01288 -1.86693 0
M  V30 5890 H 575.44 -0.396138 -0.861266 0
M  V30 5891 H 575.146 -0.911277 -3.39689 0
M  V30 5892 H 575.02 0.815442 -3.6828 0
M  V30 5893 H 577.407 1.10801 -2.73509 0
M  V30 5894 H 577.488 -0.640532 -2.47651 0
M  V30 5895 H 577.132 -1.00455 -4.97867 0
M  V30 5896 H 577.062 0.760392 -5.21081 0
M  V30 5897 H 579.553 0.143202 -3.77629 0
M  V30 5898 H 579.866 -0.332949 -7.72082 0
M  V30 5899 H 578.211 -0.292487 -6.94384 0
M  V30 5900 H 581.402 0.0931605 -4.68007 0
M  V30 5901 H 581.575 -0.12374 -6.47882 0
M  V30 5902 N 574.981 1.5647 0.188427 0
M  V30 5903 C 576.228 1.81013 0.907779 0
M  V30 5904 C 576.556 0.65953 1.82977 0
M  V30 5905 O 575.811 -0.354308 1.92466 0
M  V30 5906 C 576.11 3.11596 1.7505 0
M  V30 5907 C 575.776 4.40145 0.978922 0
M  V30 5908 C 574.438 4.75066 0.765912 0
M  V30 5909 C 576.79 5.19369 0.436498 0
M  V30 5910 C 574.118 5.867 -0.00089868 0
M  V30 5911 C 576.47 6.31805 -0.317136 0
M  V30 5912 C 575.134 6.65303 -0.541103 0
M  V30 5913 H 574.404 0.662373 0.33218 0
M  V30 5914 H 577.051 1.9071 0.173732 0
M  V30 5915 H 575.356 2.97165 2.55343 0
M  V30 5916 H 577.053 3.27793 2.30983 0
M  V30 5917 H 573.643 4.12745 1.15497 0
M  V30 5918 H 577.827 4.92799 0.588449 0
M  V30 5919 H 573.083 6.11122 -0.184329 0
M  V30 5920 H 577.257 6.92406 -0.744788 0
M  V30 5921 H 574.884 7.51646 -1.13718 0
M  V30 5922 N 576.459 -0.456382 1.50847 0
M  V30 5923 C 577.391 -1.57033 1.66953 0
M  V30 5924 C 578.404 -1.53207 0.550593 0
M  V30 5925 O 579.593 -1.58328 0.824285 0
M  V30 5926 C 576.693 -2.95937 1.65149 0
M  V30 5927 C 575.866 -3.24475 2.93317 0
M  V30 5928 C 574.925 -4.43007 2.83957 0
M  V30 5929 O 573.951 -4.42592 3.57912 0
M  V30 5930 N 575.153 -5.45503 1.9851 0
M  V30 5931 H 577.918 -1.43629 2.63042 0
M  V30 5932 H 575.479 -0.645037 1.48495 0
M  V30 5933 H 577.471 -3.73224 1.56481 0
M  V30 5934 H 576.041 -3.03036 0.767343 0
M  V30 5935 H 575.261 -2.35664 3.16 0
M  V30 5936 H 576.549 -3.4036 3.78196 0
M  V30 5937 H 575.947 -5.48668 1.37766 0
M  V30 5938 H 574.504 -6.21716 1.95735 0
M  V30 5939 N 577.937 -1.40673 -0.710563 0
M  V30 5940 C 578.884 -1.41336 -1.82463 0
M  V30 5941 C 579.854 -0.269648 -1.63897 0
M  V30 5942 O 581.039 -0.468463 -1.8496 0
M  V30 5943 C 578.179 -1.28665 -3.20218 0
M  V30 5944 C 577.292 -2.52784 -3.5032 0
M  V30 5945 C 576.427 -2.32517 -4.77608 0
M  V30 5946 C 575.466 -3.52187 -5.0063 0
M  V30 5947 N 574.603 -3.31084 -6.19135 0
M  V30 5948 H 579.443 -2.36558 -1.8123 0
M  V30 5949 H 576.98 -1.17483 -0.885226 0
M  V30 5950 H 578.938 -1.19324 -3.99772 0
M  V30 5951 H 577.568 -0.370602 -3.20666 0
M  V30 5952 H 576.62 -2.72634 -2.65283 0
M  V30 5953 H 577.932 -3.41845 -3.63241 0
M  V30 5954 H 577.086 -2.20558 -5.65189 0
M  V30 5955 H 575.825 -1.40889 -4.66906 0
M  V30 5956 H 574.83 -3.64617 -4.11502 0
M  V30 5957 H 576.055 -4.44749 -5.13201 0
M  V30 5958 H 574.001 -2.42143 -6.09674 0
M  V30 5959 H 573.918 -4.13713 -6.32754 0
M  V30 5960 H 575.186 -3.22868 -7.0949 0
M  V30 5961 N 579.415 0.9433 -1.26252 0
M  V30 5962 C 580.378 2.02326 -1.07689 0
M  V30 5963 C 581.378 1.60779 -0.0259174 0
M  V30 5964 O 582.568 1.72108 -0.269134 0
M  V30 5965 C 579.7 3.34886 -0.63752 0
M  V30 5966 H 580.893 2.20225 -2.0357 0
M  V30 5967 H 578.446 1.12197 -1.08819 0
M  V30 5968 H 579.181 3.22684 0.323377 0
M  V30 5969 H 578.966 3.66393 -1.39637 0
M  V30 5970 H 580.456 4.14231 -0.529418 0
M  V30 5971 N 580.893 1.08022 1.14757 0
M  V30 5972 C 581.84 0.706657 2.19716 0
M  V30 5973 C 582.81 -0.30525 1.63271 0
M  V30 5974 O 583.995 -0.19015 1.8985 0
M  V30 5975 C 581.135 0.117914 3.44898 0
M  V30 5976 C 580.248 1.18212 4.15512 0
M  V30 5977 C 579.383 0.557659 5.28265 0
M  V30 5978 C 578.422 1.60418 5.90705 0
M  V30 5979 N 577.559 1.0018 6.94916 0
M  V30 5980 H 582.399 1.60603 2.51019 0
M  V30 5981 H 579.936 0.802664 1.23271 0
M  V30 5982 H 581.894 -0.241112 4.16503 0
M  V30 5983 H 580.524 -0.744788 3.1409 0
M  V30 5984 H 579.576 1.65863 3.42335 0
M  V30 5985 H 580.888 1.97533 4.5802 0
M  V30 5986 H 580.042 0.146654 6.06523 0
M  V30 5987 H 578.781 -0.267249 4.86967 0
M  V30 5988 H 577.786 2.02489 5.11154 0
M  V30 5989 H 579.011 2.43149 6.34078 0
M  V30 5990 H 576.957 0.197917 6.55701 0
M  V30 5991 H 576.874 1.73216 7.35889 0
M  V30 5992 H 578.142 0.616523 7.77058 0
M  V30 5993 N 582.371 -1.3172 0.865308 0
M  V30 5994 C 583.281 -2.32394 0.320935 0
M  V30 5995 C 584.297 -1.64511 -0.566746 0
M  V30 5996 O 585.473 -1.95969 -0.464575 0
M  V30 5997 C 582.538 -3.43462 -0.472701 0
M  V30 5998 C 581.599 -4.27015 0.442385 0
M  V30 5999 C 580.832 -5.32779 -0.313469 0
M  V30 6000 O 581.055 -5.49158 -1.54214 0
M  V30 6001 O 579.989 -6.01015 0.326257 0
M  V30 6002 H 583.815 -2.80868 1.15528 0
M  V30 6003 H 581.4 -1.35535 0.628545 0
M  V30 6004 H 583.282 -4.11172 -0.922781 0
M  V30 6005 H 581.957 -2.97159 -1.28367 0
M  V30 6006 H 580.864 -3.62075 0.940866 0
M  V30 6007 H 582.197 -4.76871 1.21882 0
M  V30 6008 N 583.85 -0.624285 -1.44708 0
M  V30 6009 C 584.782 0.12305 -2.28869 0
M  V30 6010 C 585.795 0.81557 -1.40898 0
M  V30 6011 O 586.984 0.678162 -1.65116 0
M  V30 6012 C 584.084 1.19612 -3.1709 0
M  V30 6013 C 583.257 0.587452 -4.33437 0
M  V30 6014 C 582.316 1.55358 -5.02743 0
M  V30 6015 O 581.341 1.07338 -5.58988 0
M  V30 6016 N 582.543 2.88798 -5.03563 0
M  V30 6017 H 585.308 -0.599193 -2.93649 0
M  V30 6018 H 582.87 -0.464954 -1.5508 0
M  V30 6019 H 584.861 1.84261 -3.60319 0
M  V30 6020 H 583.432 1.82067 -2.54107 0
M  V30 6021 H 582.652 -0.237509 -3.93484 0
M  V30 6022 H 583.94 0.161326 -5.08544 0
M  V30 6023 H 583.338 3.30399 -4.59188 0
M  V30 6024 H 581.894 3.48826 -5.50603 0
M  V30 6025 N 585.328 1.53329 -0.364422 0
M  V30 6026 C 586.258 2.28627 0.474543 0
M  V30 6027 C 587.239 1.31009 1.08492 0
M  V30 6028 O 588.424 1.59878 1.10239 0
M  V30 6029 C 585.554 3.07465 1.61501 0
M  V30 6030 C 584.508 4.1276 1.13194 0
M  V30 6031 C 583.834 4.79674 2.36255 0
M  V30 6032 C 585.134 5.21847 0.217507 0
M  V30 6033 H 586.828 2.99005 -0.153656 0
M  V30 6034 H 584.374 1.43803 -0.0753406 0
M  V30 6035 H 586.327 3.58889 2.20855 0
M  V30 6036 H 585.051 2.34775 2.27042 0
M  V30 6037 H 583.71 3.62281 0.56109 0
M  V30 6038 H 583.358 4.03557 3.00251 0
M  V30 6039 H 583.058 5.50827 2.04606 0
M  V30 6040 H 584.582 5.33892 2.96297 0
M  V30 6041 H 585.996 5.6878 0.718493 0
M  V30 6042 H 584.393 6.00099 -0.00806408 0
M  V30 6043 H 585.463 4.7921 -0.740653 0
M  V30 6044 N 586.806 0.0935595 1.57322 0
M  V30 6045 C 587.716 -0.880192 2.17462 0
M  V30 6046 C 588.732 -1.31135 1.14366 0
M  V30 6047 O 589.908 -1.37958 1.46729 0
M  V30 6048 C 586.973 -2.12184 2.74188 0
M  V30 6049 C 586.034 -1.74503 3.92234 0
M  V30 6050 C 585.267 -2.92748 4.46245 0
M  V30 6051 O 585.49 -4.07427 3.99198 0
M  V30 6052 O 584.424 -2.71303 5.37288 0
M  V30 6053 H 588.25 -0.398516 3.01074 0
M  V30 6054 H 585.835 -0.130707 1.48827 0
M  V30 6055 H 587.717 -2.84953 3.10451 0
M  V30 6056 H 586.392 -2.59407 1.93623 0
M  V30 6057 H 585.299 -0.989186 3.60785 0
M  V30 6058 H 586.632 -1.32044 4.74157 0
M  V30 6059 N 588.284 -1.56567 -0.180126 0
M  V30 6060 C 589.533 -1.80685 -0.896426 0
M  V30 6061 C 589.846 -0.669335 -1.83791 0
M  V30 6062 O 591.052 -0.795209 -2.59593 0
M  V30 6063 C 589.508 -3.20132 -1.6445 0
M  V30 6064 C 589.116 -4.41727 -0.747088 0
M  V30 6065 C 590.86 -3.53549 -2.34955 0
M  V30 6066 C 588.767 -5.72195 -1.49489 0
M  V30 6067 H 587.697 -0.673758 -0.338477 0
M  V30 6068 H 590.348 -1.8289 -0.149467 0
M  V30 6069 H 588.73 -3.12218 -2.43589 0
M  V30 6070 H 589.904 -4.608 0.00671129 0
M  V30 6071 H 588.219 -4.16122 -0.152134 0
M  V30 6072 H 590.816 -4.48267 -2.91481 0
M  V30 6073 H 591.159 -2.78006 -3.09868 0
M  V30 6074 H 591.692 -3.62976 -1.62768 0
M  V30 6075 H 588.431 -6.50743 -0.788251 0
M  V30 6076 H 587.951 -5.57115 -2.22224 0
M  V30 6077 H 589.63 -6.1384 -2.04472 0
M  V30 6078 N 589.762 0.448376 -1.51087 0
M  V30 6079 C 591.178 0.783984 -1.39017 0
M  V30 6080 C 591.378 1.96087 -0.463904 0
M  V30 6081 O 590.434 2.52357 0.0850534 0
M  V30 6082 C 591.747 1.07471 -2.80839 0
M  V30 6083 C 593.295 1.17981 -2.89913 0
M  V30 6084 C 593.77 1.50354 -4.32617 0
M  V30 6085 N 595.261 1.57301 -4.35673 0
M  V30 6086 C 595.996 1.839 -5.4311 0
M  V30 6087 N 595.492 2.08365 -6.60724 0
M  V30 6088 N 597.285 1.8559 -5.30578 0
M  V30 6089 H 589.436 -0.326881 -2.0987 0
M  V30 6090 H 591.699 -0.0838006 -0.944289 0
M  V30 6091 H 591.405 0.282768 -3.50561 0
M  V30 6092 H 591.279 2.00519 -3.19487 0
M  V30 6093 H 593.666 1.9624 -2.20395 0
M  V30 6094 H 593.747 0.228603 -2.54776 0
M  V30 6095 H 593.391 0.726273 -5.0268 0
M  V30 6096 H 593.321 2.46663 -4.65258 0
M  V30 6097 H 595.812 1.40342 -3.50874 0
M  V30 6098 H 596.125 2.27999 -7.38401 0
M  V30 6099 H 594.47 2.0571 -6.63859 0
M  V30 6100 H 597.661 1.65989 -4.37682 0
M  V30 6101 H 597.834 2.05983 -6.1439 0
M  V30 6102 N 591.24 1.41047 0.703093 0
M  V30 6103 C 592.19 1.38774 1.80903 0
M  V30 6104 C 593.174 0.263275 1.58731 0
M  V30 6105 O 594.366 0.503362 1.69692 0
M  V30 6106 C 591.495 1.26497 3.19145 0
M  V30 6107 C 590.581 2.43775 3.47037 0
M  V30 6108 N 590.972 3.69249 3.45672 0
M  V30 6109 C 589.27 2.37425 3.77552 0
M  V30 6110 C 589.971 4.46989 3.72258 0
M  V30 6111 N 588.947 3.76998 3.91629 0
M  V30 6112 H 592.749 2.33714 1.78199 0
M  V30 6113 H 590.263 1.34996 0.902762 0
M  V30 6114 H 592.26 1.2295 3.98358 0
M  V30 6115 H 590.92 0.32534 3.23066 0
M  V30 6116 H 591.931 4.02239 3.26228 0
M  V30 6117 H 588.608 1.51895 3.88888 0
M  V30 6118 H 589.998 5.55894 3.77402 0
M  V30 6119 N 592.718 -0.936591 1.26751 0
M  V30 6120 C 594.134 -1.21095 1.03963 0
M  V30 6121 C 594.334 -2.00156 -0.232372 0
M  V30 6122 O 593.39 -2.3434 -0.940274 0
M  V30 6123 C 594.703 -1.96775 2.27377 0
M  V30 6124 C 596.251 -2.09749 2.32324 0
M  V30 6125 C 596.726 -2.88832 3.55443 0
M  V30 6126 N 598.217 -2.96404 3.55948 0
M  V30 6127 C 598.952 -3.58036 4.47881 0
M  V30 6128 N 598.448 -4.21132 5.50109 0
M  V30 6129 N 600.241 -3.55353 4.35523 0
M  V30 6130 H 592.392 -0.408173 2.08441 0
M  V30 6131 H 594.655 -0.243139 0.91629 0
M  V30 6132 H 594.361 -1.46094 3.19921 0
M  V30 6133 H 594.235 -2.97424 2.31989 0
M  V30 6134 H 596.622 -2.5962 1.40291 0
M  V30 6135 H 596.703 -1.08347 2.31721 0
M  V30 6136 H 596.347 -2.39647 4.47808 0
M  V30 6137 H 596.277 -3.90499 3.53296 0
M  V30 6138 H 598.768 -2.51552 2.82011 0
M  V30 6139 H 599.081 -4.66071 6.16439 0
M  V30 6140 H 597.426 -4.19705 5.53961 0
M  V30 6141 H 600.617 -3.05256 3.54875 0
M  V30 6142 H 600.79 -4.03097 5.07363 0
M  V30 6143 N 594.196 -1.08629 -1.14182 0
M  V30 6144 C 595.144 -0.71284 -2.21408 0
M  V30 6145 C 596.138 0.282457 -1.67029 0
M  V30 6146 O 597.344 0.144783 -1.79417 0
M  V30 6147 H 593.719 -0.212497 -0.721352 0
M  V30 6148 H 595.69 -1.6265 -2.50175 0
M  V30 6149 C 594.439 -0.140704 -3.47415 0
M  V30 6150 H 593.762 -0.897739 -3.8959 0
M  V30 6151 H 595.202 0.0827677 -4.23919 0
M  V30 6152 C 593.661 1.122 -3.17668 0
M  V30 6153 O 594.191 2.20652 -3.35672 0
M  V30 6154 N 592.397 1.03328 -2.71609 0
M  V30 6155 H 591.944 0.150666 -2.57159 0
M  V30 6156 H 591.902 1.8789 -2.52081 0
M  V30 6157 N 595.674 1.31259 -0.872281 0
M  V30 6158 C 597.09 1.49283 -0.564521 0
M  V30 6159 C 597.29 1.80243 0.900807 0
M  V30 6160 O 596.346 1.88246 1.68284 0
M  V30 6161 C 597.659 2.62503 -1.46673 0
M  V30 6162 C 599.207 2.76386 -1.46901 0
M  V30 6163 C 599.682 3.92705 -2.35684 0
M  V30 6164 N 601.173 3.99995 -2.33577 0
M  V30 6165 C 601.908 4.89276 -2.98992 0
M  V30 6166 N 601.404 5.83443 -3.73585 0
M  V30 6167 N 603.197 4.82541 -2.88289 0
M  V30 6168 H 595.348 1.09432 -1.82039 0
M  V30 6169 H 597.611 0.540949 -0.77851 0
M  V30 6170 H 597.317 2.46407 -2.50951 0
M  V30 6171 H 597.191 3.58695 -1.16696 0
M  V30 6172 H 599.578 2.91894 -0.433796 0
M  V30 6173 H 599.659 1.80853 -1.80903 0
M  V30 6174 H 599.303 3.77954 -3.39283 0
M  V30 6175 H 599.233 4.87549 -1.99006 0
M  V30 6176 H 601.724 3.32624 -1.7936 0
M  V30 6177 H 602.037 6.48303 -4.20622 0
M  V30 6178 H 600.382 5.83415 -3.77694 0
M  V30 6179 H 603.573 4.07951 -2.2955 0
M  V30 6180 H 603.746 5.51916 -3.39549 0
M  V30 6181 N 597.152 0.631951 1.44375 0
M  V30 6182 C 598.085 -0.121822 2.27875 0
M  V30 6183 C 599.063 -0.850457 1.38586 0
M  V30 6184 O 600.247 -0.854378 1.68026 0
M  V30 6185 C 597.374 -1.17859 3.17533 0
M  V30 6186 C 596.42 -0.550391 4.22934 0
M  V30 6187 S 597.253 0.660145 5.31415 0
M  V30 6188 C 598.409 -0.396613 6.24642 0
M  V30 6189 H 598.642 0.586537 2.91457 0
M  V30 6190 H 596.175 0.420146 1.48574 0
M  V30 6191 H 598.133 -1.78335 3.69739 0
M  V30 6192 H 596.794 -1.85915 2.53169 0
M  V30 6193 H 595.987 -1.34631 4.85685 0
M  V30 6194 H 595.589 -0.0202306 3.73995 0
M  V30 6195 H 597.881 -1.26893 6.65511 0
M  V30 6196 H 598.824 0.195345 7.0783 0
M  V30 6197 H 599.232 -0.72288 5.59852 0
M  V30 6198 N 598.631 -1.53133 0.372548 0
M  V30 6199 C 599.908 -1.93704 -0.271693 0
M  V30 6200 C 600.288 -1.30667 -1.65799 0
M  V30 6201 O 599.636 -0.46838 -2.23648 0
M  V30 6202 C 599.846 -3.47576 -0.314903 0
M  V30 6203 C 601.194 -4.20998 -0.551912 0
M  V30 6204 O 602.218 -3.53994 -0.39582 0
M  V30 6205 O 601.077 -5.39748 -0.85639 0
M  V30 6206 H 598.171 -0.810457 -0.164586 0
M  V30 6207 H 600.717 -1.6427 0.425838 0
M  V30 6208 H 599.489 -3.85749 0.656792 0
M  V30 6209 H 599.112 -3.83264 -1.05804 0
M  V30 6210 N 600.109 -0.101901 -1.5727 0
M  V30 6211 C 601.525 0.254739 -1.57554 0
M  V30 6212 C 601.725 1.67937 -1.11352 0
M  V30 6213 O 600.781 2.39722 -0.793081 0
M  V30 6214 C 602.094 0.036975 -3.00677 0
M  V30 6215 C 603.642 0.104199 -3.12827 0
M  V30 6216 C 604.117 -0.0856565 -4.5792 0
M  V30 6217 N 605.608 -0.0310498 -4.6319 0
M  V30 6218 C 606.343 -0.153099 -5.73196 0
M  V30 6219 N 605.839 -0.330364 -6.92012 0
M  V30 6220 N 607.632 -0.0938854 -5.62022 0
M  V30 6221 H 599.783 -1.03263 -1.85609 0
M  V30 6222 H 602.046 -0.405251 -0.857016 0
M  V30 6223 H 601.752 -0.947254 -3.38703 0
M  V30 6224 H 601.626 0.776335 -3.69124 0
M  V30 6225 H 604.013 1.07894 -2.74669 0
M  V30 6226 H 604.094 -0.666762 -2.46957 0
M  V30 6227 H 603.738 -1.05729 -4.96773 0
M  V30 6228 H 603.668 0.705082 -5.21858 0
M  V30 6229 H 606.159 0.103141 -3.77759 0
M  V30 6230 H 606.472 -0.41482 -7.71686 0
M  V30 6231 H 604.817 -0.366119 -6.94035 0
M  V30 6232 H 608.008 0.0435168 -4.6808 0
M  V30 6233 H 608.181 -0.19245 -6.47714 0
M  V30 6234 N 601.587 1.56661 0.17182 0
M  V30 6235 C 602.833 1.82235 0.889845 0
M  V30 6236 C 603.166 0.679673 1.81918 0
M  V30 6237 O 602.441 -0.318404 1.91876 0
M  V30 6238 C 602.724 3.18195 1.68595 0
M  V30 6239 C 602.577 4.42989 0.779773 0
M  V30 6240 C 603.896 3.5109 2.65375 0
M  V30 6241 H 601.015 0.66291 0.322056 0
M  V30 6242 H 603.657 1.89358 0.15608 0
M  V30 6243 H 601.807 3.12253 2.3115 0
M  V30 6244 H 603.479 4.60997 0.16714 0
M  V30 6245 H 601.722 4.33711 0.0877964 0
M  V30 6246 H 602.393 5.3467 1.3723 0
M  V30 6247 H 604.869 3.57482 2.12946 0
M  V30 6248 H 603.745 4.47298 3.18144 0
M  V30 6249 H 604.006 2.75768 3.45549 0
M  V30 6250 N 603.065 -0.440357 1.51323 0
M  V30 6251 C 604.012 -1.53429 1.72419 0
M  V30 6252 C 604.982 -1.56165 0.565826 0
M  V30 6253 O 606.167 -1.73222 0.799917 0
M  V30 6254 C 603.307 -2.91169 1.85242 0
M  V30 6255 C 602.42 -2.97985 3.12777 0
M  V30 6256 C 601.555 -4.26829 3.16212 0
M  V30 6257 C 600.594 -4.27501 4.38074 0
M  V30 6258 N 599.731 -5.47866 4.39076 0
M  V30 6259 H 604.571 -1.34743 2.65797 0
M  V30 6260 H 602.108 -0.654608 1.31732 0
M  V30 6261 H 604.066 -3.71087 1.90658 0
M  V30 6262 H 602.696 -3.0842 0.952744 0
M  V30 6263 H 601.748 -2.10749 3.16685 0
M  V30 6264 H 603.06 -2.94342 4.02696 0
M  V30 6265 H 602.214 -5.15118 3.20527 0
M  V30 6266 H 600.953 -4.33124 2.24176 0
M  V30 6267 H 599.958 -3.37606 4.33938 0
M  V30 6268 H 601.183 -4.22873 5.31371 0
M  V30 6269 H 599.129 -5.54887 3.49909 0
M  V30 6270 H 599.046 -5.46091 5.22801 0
M  V30 6271 H 600.314 -6.38195 4.4758 0
M  V30 6272 N 604.543 -1.41418 -0.695603 0
M  V30 6273 C 605.49 -1.43264 -1.80954 0
M  V30 6274 C 606.46 -0.287016 -1.63601 0
M  V30 6275 O 607.645 -0.488054 -1.84452 0
M  V30 6276 C 604.785 -1.32054 -3.18835 0
M  V30 6277 C 603.898 -2.56485 -3.4762 0
M  V30 6278 C 603.033 -2.3757 -4.75115 0
M  V30 6279 C 602.072 -3.57477 -4.96867 0
M  V30 6280 N 601.209 -3.37632 -6.15588 0
M  V30 6281 H 606.049 -2.38467 -1.78711 0
M  V30 6282 H 603.586 -1.18415 -0.872715 0
M  V30 6283 H 605.544 -1.23558 -3.98484 0
M  V30 6284 H 604.174 -0.404592 -3.20254 0
M  V30 6285 H 603.226 -2.75432 -2.62376 0
M  V30 6286 H 604.538 -3.45678 -3.59594 0
M  V30 6287 H 603.692 -2.2654 -5.62818 0
M  V30 6288 H 602.431 -1.45834 -4.65386 0
M  V30 6289 H 601.436 -3.68961 -4.07612 0
M  V30 6290 H 602.661 -4.50167 -5.08455 0
M  V30 6291 H 600.607 -2.48596 -6.07072 0
M  V30 6292 H 600.524 -4.20401 -6.2833 0
M  V30 6293 H 601.792 -3.30375 -7.06026 0
M  V30 6294 N 606.021 0.929856 -1.27246 0
M  V30 6295 C 606.931 2.0636 -1.11592 0
M  V30 6296 C 607.947 1.73938 -0.046496 0
M  V30 6297 O 609.123 1.9981 -0.252544 0
M  V30 6298 C 606.188 3.38213 -0.762437 0
M  V30 6299 C 605.249 3.84346 -1.9125 0
M  V30 6300 C 604.482 5.09906 -1.57579 0
M  V30 6301 O 604.705 5.68354 -0.482694 0
M  V30 6302 O 603.639 5.51359 -2.41426 0
M  V30 6303 H 607.465 2.22478 -2.0673 0
M  V30 6304 H 605.05 1.04865 -1.06413 0
M  V30 6305 H 606.932 4.1741 -0.57854 0
M  V30 6306 H 605.607 3.23307 0.159439 0
M  V30 6307 H 604.514 3.06045 -2.15144 0
M  V30 6308 H 605.847 4.0379 -2.81451 0
M  V30 6309 N 607.499 1.09233 1.13605 0
M  V30 6310 C 608.745 0.838255 1.85324 0
M  V30 6311 C 609.1 -0.629314 1.81817 0
M  V30 6312 O 608.393 -1.45729 1.24393 0
M  V30 6313 C 608.587 1.305 3.32723 0
M  V30 6314 C 608.416 2.81641 3.50583 0
M  V30 6315 C 607.186 3.49494 3.64941 0
M  V30 6316 C 609.384 3.79789 3.46792 0
M  V30 6317 N 607.366 4.89082 3.71042 0
M  V30 6318 C 608.737 5.05319 3.59239 0
M  V30 6319 C 610.792 3.72673 3.30181 0
M  V30 6320 C 609.495 6.24574 3.56791 0
M  V30 6321 C 611.521 4.91413 3.29039 0
M  V30 6322 C 610.883 6.15785 3.42035 0
M  V30 6323 H 606.982 0.359572 0.69443 0
M  V30 6324 H 609.566 1.39232 1.36098 0
M  V30 6325 H 607.737 0.778411 3.8052 0
M  V30 6326 H 609.469 0.996465 3.92241 0
M  V30 6327 H 606.224 2.9992 3.66531 0
M  V30 6328 H 606.648 5.61787 3.77789 0
M  V30 6329 H 611.29 2.77444 3.19037 0
M  V30 6330 H 609.008 7.20105 3.66708 0
M  V30 6331 H 612.594 4.87604 3.17386 0
M  V30 6332 H 611.474 7.06126 3.41111 0
M  V30 6333 N 608.977 -1.30795 0.87923 0
M  V30 6334 C 609.887 -2.32041 0.345565 0
M  V30 6335 C 610.903 -1.65103 -0.549265 0
M  V30 6336 O 612.079 -1.9645 -0.443763 0
M  V30 6337 C 609.144 -3.43944 -0.436245 0
M  V30 6338 C 608.205 -4.26521 0.48765 0
M  V30 6339 C 607.438 -5.33081 -0.256943 0
M  V30 6340 O 607.661 -5.50762 -1.48381 0
M  V30 6341 O 606.595 -6.00635 0.389985 0
M  V30 6342 H 610.421 -2.79627 1.18501 0
M  V30 6343 H 608.006 -1.3486 0.642885 0
M  V30 6344 H 609.888 -4.12128 -0.879119 0
M  V30 6345 H 608.563 -2.98504 -1.25208 0
M  V30 6346 H 607.47 -3.61057 0.979216 0
M  V30 6347 H 608.803 -4.75551 1.26933 0
M  V30 6348 N 610.455 -0.639598 -1.44038 0
M  V30 6349 C 611.365 0.0612377 -2.3452 0
M  V30 6350 C 612.381 0.826717 -1.53106 0
M  V30 6351 O 613.557 0.777059 -1.85806 0
M  V30 6352 C 610.622 1.02492 -3.31204 0
M  V30 6353 C 609.683 0.25788 -4.28525 0
M  V30 6354 C 608.916 1.17566 -5.2059 0
M  V30 6355 O 609.139 2.41461 -5.16771 0
M  V30 6356 O 608.073 0.655407 -5.98321 0
M  V30 6357 H 611.899 -0.68318 -2.95916 0
M  V30 6358 H 609.484 -0.399784 -1.43952 0
M  V30 6359 H 611.366 1.57911 -3.90694 0
M  V30 6360 H 610.041 1.7498 -2.7233 0
M  V30 6361 H 608.948 -0.339566 -3.72556 0
M  V30 6362 H 610.281 -0.427154 -4.90343 0
M  V30 6363 N 611.933 1.52934 -0.380664 0
M  V30 6364 C 612.896 2.24809 0.446473 0
M  V30 6365 C 613.896 1.26133 0.997347 0
M  V30 6366 O 615.086 1.50297 0.880714 0
M  V30 6367 C 612.218 2.99649 1.62553 0
M  V30 6368 H 613.411 2.99343 -0.182677 0
M  V30 6369 H 610.964 1.55736 -0.132618 0
M  V30 6370 H 611.699 2.29395 2.29235 0
M  V30 6371 H 611.484 3.72066 1.23732 0
M  V30 6372 H 612.974 3.54246 2.21133 0
M  V30 6373 N 613.412 0.11024 1.57214 0
M  V30 6374 C 614.322 -0.857077 2.18383 0
M  V30 6375 C 615.338 -1.29915 1.1575 0
M  V30 6376 O 616.514 -1.36394 1.48184 0
M  V30 6377 C 613.579 -2.09264 2.76423 0
M  V30 6378 C 612.64 -1.70333 3.94063 0
M  V30 6379 C 611.873 -2.87999 4.49324 0
M  V30 6380 O 612.096 -4.0317 4.03497 0
M  V30 6381 O 611.03 -2.6559 5.40135 0
M  V30 6382 H 614.856 -0.366561 3.0148 0
M  V30 6383 H 612.441 -0.114914 1.48957 0
M  V30 6384 H 614.323 -2.81644 3.13456 0
M  V30 6385 H 612.998 -2.57339 1.96363 0
M  V30 6386 H 611.905 -0.950864 3.61814 0
M  V30 6387 H 613.238 -1.27007 4.75531 0
M  V30 6388 N 614.89 -1.56749 -0.16351 0
M  V30 6389 C 615.82 -2.00042 -1.20438 0
M  V30 6390 C 616.801 -0.877256 -1.45733 0
M  V30 6391 O 617.986 -1.1439 -1.56935 0
M  V30 6392 C 615.116 -2.36697 -2.54149 0
M  V30 6393 C 614.07 -3.52046 -2.43408 0
M  V30 6394 C 613.396 -3.74466 -3.81679 0
M  V30 6395 C 614.696 -4.85247 -1.93216 0
M  V30 6396 H 616.39 -2.87244 -0.844477 0
M  V30 6397 H 613.936 -1.38194 -0.40478 0
M  V30 6398 H 615.889 -2.65582 -3.27176 0
M  V30 6399 H 614.613 -1.46414 -2.91943 0
M  V30 6400 H 613.272 -3.23301 -1.72834 0
M  V30 6401 H 612.92 -2.81461 -4.1688 0
M  V30 6402 H 612.62 -4.52084 -3.75359 0
M  V30 6403 H 614.144 -4.0576 -4.5628 0
M  V30 6404 H 615.558 -5.12957 -2.56023 0
M  V30 6405 H 613.955 -5.66556 -1.97825 0
M  V30 6406 H 615.025 -4.7672 -0.88689 0
M  V30 6407 N 616.368 0.432326 -1.51554 0
M  V30 6408 C 617.3 1.54357 -1.6943 0
M  V30 6409 C 618.313 1.52311 -0.574897 0
M  V30 6410 O 619.502 1.56997 -0.849369 0
M  V30 6411 C 616.602 2.93273 -1.69836 0
M  V30 6412 C 615.775 3.19768 -2.98442 0
M  V30 6413 C 614.834 4.38433 -2.90969 0
M  V30 6414 O 613.86 4.36842 -3.64908 0
M  V30 6415 N 615.062 5.42276 -2.07163 0
M  V30 6416 H 617.827 1.39426 -2.65293 0
M  V30 6417 H 615.388 0.621331 -1.49503 0
M  V30 6418 H 617.38 3.70687 -1.62399 0
M  V30 6419 H 615.95 3.01777 -0.815456 0
M  V30 6420 H 615.17 2.30607 -3.19709 0
M  V30 6421 H 616.458 3.343 -3.83563 0
M  V30 6422 H 615.856 5.46407 -1.46477 0
M  V30 6423 H 614.413 6.18524 -2.05601 0
M  V30 6424 N 617.846 1.41785 0.688094 0
M  V30 6425 C 618.809 1.43936 1.78368 0
M  V30 6426 C 619.809 0.328866 1.57401 0
M  V30 6427 O 620.999 0.589093 1.63937 0
M  V30 6428 C 618.131 1.25804 3.16838 0
M  V30 6429 H 619.324 2.41472 1.77852 0
M  V30 6430 H 616.877 1.28037 0.896448 0
M  V30 6431 H 617.612 0.291386 3.22988 0
M  V30 6432 H 617.397 2.06272 3.33458 0
M  V30 6433 H 618.887 1.30162 3.96797 0
M  V30 6434 N 619.324 -0.923095 1.27737 0
M  V30 6435 C 620.271 -2.02432 1.1086 0
M  V30 6436 C 621.241 -1.66098 0.00835195 0
M  V30 6437 O 622.426 -1.90027 0.171542 0
M  V30 6438 C 619.566 -3.36476 0.766671 0
M  V30 6439 C 618.679 -3.85737 1.94501 0
M  V30 6440 C 617.814 -5.08249 1.54455 0
M  V30 6441 C 616.853 -5.49818 2.6901 0
M  V30 6442 N 615.99 -6.63524 2.29521 0
M  V30 6443 H 620.83 -2.16201 2.05089 0
M  V30 6444 H 618.367 -1.05909 1.02087 0
M  V30 6445 H 620.325 -4.13569 0.549223 0
M  V30 6446 H 618.955 -3.22502 -0.13867 0
M  V30 6447 H 618.007 -3.04883 2.27487 0
M  V30 6448 H 619.319 -4.12513 2.80419 0
M  V30 6449 H 618.473 -5.92857 1.28862 0
M  V30 6450 H 617.212 -4.83261 0.656534 0
M  V30 6451 H 616.217 -4.63757 2.95313 0
M  V30 6452 H 617.442 -5.76799 3.5844 0
M  V30 6453 H 615.388 -6.40185 1.43177 0
M  V30 6454 H 615.305 -6.89978 3.08977 0
M  V30 6455 H 616.573 -7.51461 2.07187 0
M  V30 6456 N 620.802 -1.09834 -1.13024 0
M  V30 6457 C 621.75 -0.736283 -2.20639 0
M  V30 6458 C 622.744 0.264725 -1.67319 0
M  V30 6459 O 623.95 0.125745 -1.7956 0
M  V30 6460 H 620.325 -0.220136 -0.719058 0
M  V30 6461 H 622.296 -1.65295 -2.48436 0
M  V30 6462 C 621.045 -0.177544 -3.47246 0
M  V30 6463 H 620.368 -0.939009 -3.88616 0
M  V30 6464 H 621.808 0.0378007 -4.23983 0
M  V30 6465 C 620.267 1.08824 -3.1884 0
M  V30 6466 O 620.797 2.1708 -3.37993 0
M  V30 6467 N 619.003 1.00442 -2.7269 0
M  V30 6468 H 618.55 0.123383 -2.57304 0
M  V30 6469 H 618.508 1.85206 -2.5406 0
M  V30 6470 N 622.28 1.30327 -0.886154 0
M  V30 6471 C 623.21 2.30549 -0.370028 0
M  V30 6472 C 624.191 1.61039 0.547751 0
M  V30 6473 O 625.376 1.8864 0.461353 0
M  V30 6474 C 622.506 3.44808 0.415275 0
M  V30 6475 C 621.46 4.26024 -0.41085 0
M  V30 6476 C 620.786 5.32347 0.501128 0
M  V30 6477 C 622.086 4.95433 -1.65359 0
M  V30 6478 H 623.78 2.73969 -1.20754 0
M  V30 6479 H 621.326 1.3171 -0.582097 0
M  V30 6480 H 623.279 4.13986 0.78699 0
M  V30 6481 H 622.003 3.00197 1.28644 0
M  V30 6482 H 620.662 3.58535 -0.764719 0
M  V30 6483 H 620.31 4.83982 1.37004 0
M  V30 6484 H 620.01 5.87581 -0.0478356 0
M  V30 6485 H 621.534 6.0438 0.869333 0
M  V30 6486 H 622.948 5.5712 -1.35239 0
M  V30 6487 H 621.345 5.60537 -2.14284 0
M  V30 6488 H 622.415 4.21493 -2.39733 0
M  V30 6489 N 623.758 0.647228 1.43697 0
M  V30 6490 C 625.169 0.238689 1.85168 0
M  V30 6491 C 625.52 -1.21345 1.54175 0
M  V30 6492 O 624.645 -1.92542 0.987743 0
M  V30 6493 C 625.24 0.426422 3.36106 0
M  V30 6494 C 623.799 0.0722541 3.76331 0
M  V30 6495 C 622.946 0.732153 2.6746 0
M  V30 6496 H 625.897 0.851309 1.33934 0
M  V30 6497 H 625.918 -0.32987 3.79067 0
M  V30 6498 H 625.43 1.48339 3.58632 0
M  V30 6499 H 623.531 -0.982355 3.59417 0
M  V30 6500 H 623.644 0.493541 4.76551 0
M  V30 6501 H 622.008 0.16594 2.54159 0
M  V30 6502 H 622.791 1.79204 2.92816 0
M  V30 6503 N 625.236 -1.5273 0.388769 0
M  V30 6504 C 626.183 -2.26437 -0.446639 0
M  V30 6505 C 627.153 -1.28025 -1.05824 0
M  V30 6506 O 628.338 -1.56852 -1.08637 0
M  V30 6507 C 625.478 -3.07407 -1.56828 0
M  V30 6508 C 624.591 -4.20747 -0.979589 0
M  V30 6509 C 623.726 -4.89113 -2.07224 0
M  V30 6510 C 622.765 -5.94447 -1.45942 0
M  V30 6511 N 621.902 -6.56411 -2.49135 0
M  V30 6512 H 626.742 -2.97404 0.18837 0
M  V30 6513 H 624.279 -1.46727 0.104725 0
M  V30 6514 H 626.237 -3.52642 -2.22934 0
M  V30 6515 H 624.867 -2.3865 -2.17361 0
M  V30 6516 H 623.919 -3.7983 -0.208151 0
M  V30 6517 H 625.231 -4.9637 -0.491747 0
M  V30 6518 H 624.385 -5.3765 -2.81101 0
M  V30 6519 H 623.124 -4.13013 -2.59368 0
M  V30 6520 H 622.129 -5.4525 -0.705894 0
M  V30 6521 H 623.354 -6.7248 -0.945932 0
M  V30 6522 H 621.3 -5.83152 -3.00449 0
M  V30 6523 H 621.217 -7.27645 -2.05105 0
M  V30 6524 H 622.485 -7.09592 -3.22644 0
M  V30 6525 N 626.714 -0.118576 -1.57153 0
M  V30 6526 C 627.677 0.817464 -2.14127 0
M  V30 6527 C 628.677 1.1949 -1.07604 0
M  V30 6528 O 629.867 1.12048 -1.33382 0
M  V30 6529 C 626.999 2.10541 -2.68115 0
M  V30 6530 H 628.192 0.322339 -2.98163 0
M  V30 6531 H 625.745 0.130655 -1.55753 0
M  V30 6532 H 626.48 2.64485 -1.87665 0
M  V30 6533 H 626.265 1.84425 -3.4602 0
M  V30 6534 H 627.755 2.77453 -3.12105 0
M  V30 6535 N 628.193 1.56834 0.155195 0
M  V30 6536 C 629.103 2.009 1.21146 0
M  V30 6537 C 630.119 0.923029 1.475 0
M  V30 6538 O 631.295 1.23189 1.59331 0
M  V30 6539 C 628.36 2.37378 2.52691 0
M  V30 6540 C 627.421 3.59883 2.34057 0
M  V30 6541 C 626.654 3.94612 3.59329 0
M  V30 6542 O 626.877 3.30104 4.65175 0
M  V30 6543 O 625.811 4.87895 3.52479 0
M  V30 6544 H 629.637 2.9105 0.867371 0
M  V30 6545 H 627.222 1.44916 0.363298 0
M  V30 6546 H 629.104 2.61737 3.3026 0
M  V30 6547 H 627.779 1.50385 2.86646 0
M  V30 6548 H 626.686 3.40722 1.54465 0
M  V30 6549 H 628.019 4.47468 2.0502 0
M  V30 6550 N 629.671 -0.424282 1.51781 0
M  V30 6551 C 631.087 -0.761768 1.40247 0
M  V30 6552 C 631.287 -1.95324 0.495041 0
M  V30 6553 O 630.343 -2.5246 -0.0448949 0
M  V30 6554 C 631.656 -1.0299 2.82513 0
M  V30 6555 C 633.204 -1.13354 2.91753 0
M  V30 6556 C 633.679 -1.43453 4.34954 0
M  V30 6557 N 635.17 -1.5035 4.3812 0
M  V30 6558 C 635.905 -1.75236 5.45967 0
M  V30 6559 N 635.401 -1.97827 6.63955 0
M  V30 6560 N 637.194 -1.77126 5.33463 0
M  V30 6561 H 629.345 0.360228 2.09323 0
M  V30 6562 H 631.608 0.0988128 0.942836 0
M  V30 6563 H 631.314 -0.226961 3.50967 0
M  V30 6564 H 631.188 -1.95411 3.22637 0
M  V30 6565 H 633.575 -1.92709 2.23489 0
M  V30 6566 H 633.656 -0.188041 2.55108 0
M  V30 6567 H 633.3 -0.646209 5.03772 0
M  V30 6568 H 633.23 -2.3923 4.69123 0
M  V30 6569 H 635.721 -1.34742 3.53062 0
M  V30 6570 H 636.034 -2.16223 7.41935 0
M  V30 6571 H 634.379 -1.95123 6.67047 0
M  V30 6572 H 637.57 -1.59005 4.40267 0
M  V30 6573 H 637.743 -1.96182 6.17589 0
M  V30 6574 N 631.149 -1.42148 -0.680565 0
M  V30 6575 C 632.081 -1.41119 -1.80605 0
M  V30 6576 C 633.094 -0.311099 -1.598 0
M  V30 6577 O 634.283 -0.573813 -1.69026 0
M  V30 6578 C 631.383 -1.18204 -3.17618 0
M  V30 6579 C 630.556 -2.40537 -3.65322 0
M  V30 6580 C 629.615 -2.13254 -4.8105 0
M  V30 6581 O 628.641 -2.8641 -4.91892 0
M  V30 6582 N 629.843 -1.13208 -5.69354 0
M  V30 6583 H 632.608 -2.38128 -1.81975 0
M  V30 6584 H 630.169 -1.36953 -0.863446 0
M  V30 6585 H 632.161 -0.97878 -3.92686 0
M  V30 6586 H 630.731 -0.29738 -3.11182 0
M  V30 6587 H 629.951 -2.76468 -2.80996 0
M  V30 6588 H 631.239 -3.22012 -3.93936 0
M  V30 6589 H 630.637 -0.526893 -5.63241 0
M  V30 6590 H 629.194 -0.988699 -6.44258 0
M  V30 6591 N 632.627 0.916307 -1.28225 0
M  V30 6592 C 633.855 1.69901 -1.18073 0
M  V30 6593 C 634.27 1.86988 0.260968 0
M  V30 6594 O 633.627 1.39505 1.17663 0
M  V30 6595 C 633.678 3.09254 -1.87201 0
M  V30 6596 O 633.399 2.92959 -3.2574 0
M  V30 6597 C 634.9 4.0362 -1.83319 0
M  V30 6598 H 632.12 0.531181 -0.409985 0
M  V30 6599 H 634.664 1.14703 -1.69303 0
M  V30 6600 H 632.819 3.61277 -1.39848 0
M  V30 6601 H 633.233 3.81139 -3.60324 0
M  V30 6602 H 634.707 4.98873 -2.36282 0
M  V30 6603 H 635.184 4.3176 -0.805007 0
M  V30 6604 H 635.79 3.57524 -2.3034 0
M  V30 6605 N 634.105 1.10431 1.1244 0
M  V30 6606 C 635.035 0.775143 2.20258 0
M  V30 6607 C 636.016 -0.25186 1.68225 0
M  V30 6608 O 637.201 -0.117637 1.93843 0
M  V30 6609 C 634.331 0.206133 3.46688 0
M  V30 6610 C 633.285 1.16382 4.11873 0
M  V30 6611 C 632.611 0.456014 5.32752 0
M  V30 6612 C 633.911 2.5104 4.58013 0
M  V30 6613 H 635.605 1.67665 2.4805 0
M  V30 6614 H 633.151 0.807595 1.19222 0
M  V30 6615 H 635.104 -0.036291 4.21384 0
M  V30 6616 H 633.828 -0.730614 3.18323 0
M  V30 6617 H 632.487 1.39169 3.39157 0
M  V30 6618 H 632.135 -0.485203 5.00654 0
M  V30 6619 H 631.835 1.09466 5.77314 0
M  V30 6620 H 633.359 0.222135 6.10196 0
M  V30 6621 H 634.773 2.32401 5.24083 0
M  V30 6622 H 633.17 3.10789 5.13352 0
M  V30 6623 H 634.24 3.11039 3.71998 0
M  V30 6624 N 635.583 -1.29855 0.893053 0
M  V30 6625 C 636.832 -1.95104 0.511597 0
M  V30 6626 C 637.145 -1.71226 -0.945567 0
M  V30 6627 O 638.351 -2.30525 -1.43424 0
M  V30 6628 C 636.807 -3.49374 0.864034 0
M  V30 6629 C 636.415 -3.82061 2.33952 0
M  V30 6630 C 638.159 -4.20894 0.552167 0
M  V30 6631 C 636.066 -5.29546 2.63316 0
M  V30 6632 H 634.996 -0.73029 0.187597 0
M  V30 6633 H 637.647 -1.47682 1.08914 0
M  V30 6634 H 636.029 -3.95413 0.215493 0
M  V30 6635 H 637.203 -3.46904 3.03305 0
M  V30 6636 H 635.518 -3.23665 2.61973 0
M  V30 6637 H 638.115 -5.29435 0.748489 0
M  V30 6638 H 638.458 -4.13178 -0.508924 0
M  V30 6639 H 638.991 -3.80564 1.15825 0
M  V30 6640 H 635.73 -5.4232 3.68197 0
M  V30 6641 H 635.25 -5.65974 1.9858 0
M  V30 6642 H 636.929 -5.97068 2.49236 0
M  V30 6643 N 637.061 -0.65484 -1.43351 0
M  V30 6644 C 637.993 0.0744757 -2.29079 0
M  V30 6645 C 639.006 0.7855 -1.42596 0
M  V30 6646 O 640.195 0.642986 -1.66517 0
M  V30 6647 C 637.295 1.12859 -3.19556 0
M  V30 6648 C 636.468 0.495381 -4.34586 0
M  V30 6649 C 635.527 1.44659 -5.05925 0
M  V30 6650 O 634.553 0.954567 -5.61139 0
M  V30 6651 N 635.755 2.78051 -5.09576 0
M  V30 6652 H 638.52 -0.661346 -2.92312 0
M  V30 6653 H 636.081 -0.497744 -1.54059 0
M  V30 6654 H 638.073 1.76577 -3.64147 0
M  V30 6655 H 636.643 1.76636 -2.57912 0
M  V30 6656 H 635.863 -0.32092 -3.92892 0
M  V30 6657 H 637.151 0.0534203 -5.08772 0
M  V30 6658 H 636.549 3.20584 -4.66093 0
M  V30 6659 H 635.106 3.37068 -5.57878 0
M  V30 6660 N 638.539 1.52521 -0.396863 0
M  V30 6661 C 639.489 2.2348 0.451722 0
M  V30 6662 C 640.473 1.2415 1.0235 0
M  V30 6663 O 641.665 1.4945 0.948348 0
M  V30 6664 C 638.794 3.05067 1.57445 0
M  V30 6665 C 637.88 4.11799 1.01404 0
M  V30 6666 N 638.271 5.05482 0.179234 0
M  V30 6667 C 636.569 4.27064 1.28578 0
M  V30 6668 C 637.27 5.81552 -0.131202 0
M  V30 6669 N 636.246 5.41523 0.474735 0
M  V30 6670 H 640.048 2.93269 -0.192534 0
M  V30 6671 H 637.562 1.61081 -0.206591 0
M  V30 6672 H 639.559 3.54446 2.19485 0
M  V30 6673 H 638.219 2.36816 2.22145 0
M  V30 6674 H 639.23 5.17573 -0.18411 0
M  V30 6675 H 635.907 3.70042 1.93327 0
M  V30 6676 H 637.297 6.67023 -0.808061 0
M  V30 6677 N 640.017 0.126909 1.57088 0
M  V30 6678 C 641.264 -0.529168 1.95464 0
M  V30 6679 C 641.592 -1.6618 1.01067 0
M  V30 6680 O 640.847 -1.95667 0.0360254 0
M  V30 6681 C 641.146 -1.095 3.40212 0
M  V30 6682 C 640.812 -0.0829015 4.50824 0
M  V30 6683 C 639.474 0.195377 4.80803 0
M  V30 6684 C 641.826 0.606411 5.1766 0
M  V30 6685 C 639.154 1.16912 5.74933 0
M  V30 6686 C 641.506 1.56884 6.12838 0
M  V30 6687 C 640.17 1.85502 6.41206 0
M  V30 6688 H 639.44 -0.193636 0.715252 0
M  V30 6689 H 642.087 0.209489 1.90351 0
M  V30 6690 H 640.392 -1.91058 3.42059 0
M  V30 6691 H 642.089 -1.61087 3.67222 0
M  V30 6692 H 638.679 -0.309979 4.27478 0
M  V30 6693 H 642.863 0.404597 4.94648 0
M  V30 6694 H 638.119 1.3975 5.95214 0
M  V30 6695 H 642.293 2.10859 6.6371 0
M  V30 6696 H 639.92 2.61109 7.13951 0
M  V30 6697 N 641.495 -1.56914 -0.146875 0
M  V30 6698 C 642.427 -1.94878 -1.20645 0
M  V30 6699 C 643.44 -0.844633 -1.39175 0
M  V30 6700 O 644.629 -1.12304 -1.38744 0
M  V30 6701 C 641.729 -2.20769 -2.57127 0
M  V30 6702 C 640.902 -3.52053 -2.59572 0
M  V30 6703 C 639.961 -3.66482 -3.77594 0
M  V30 6704 O 638.987 -4.38873 -3.62462 0
M  V30 6705 N 640.189 -3.03156 -4.95052 0
M  V30 6706 H 642.954 -2.86374 -0.883757 0
M  V30 6707 H 640.515 -1.58366 -0.336436 0
M  V30 6708 H 642.507 -2.27664 -3.34591 0
M  V30 6709 H 641.077 -1.35538 -2.81688 0
M  V30 6710 H 640.297 -3.56598 -1.68023 0
M  V30 6711 H 641.585 -4.38396 -2.58238 0
M  V30 6712 H 640.983 -2.44258 -5.10249 0
M  V30 6713 H 639.54 -3.15611 -5.70292 0
M  V30 6714 N 642.974 0.416227 -1.52004 0
M  V30 6715 C 643.937 1.48926 -1.74223 0
M  V30 6716 C 644.937 1.48693 -0.612119 0
M  V30 6717 O 646.127 1.50343 -0.879921 0
M  V30 6718 C 643.259 2.88372 -1.81809 0
M  V30 6719 H 644.452 1.3052 -2.70008 0
M  V30 6720 H 642.005 0.646271 -1.42313 0
M  V30 6721 H 642.74 3.12157 -0.879135 0
M  V30 6722 H 642.525 2.89944 -2.6396 0
M  V30 6723 H 644.015 3.66173 -2.00766 0
M  V30 6724 N 644.452 1.42507 0.673017 0
M  V30 6725 C 645.385 1.40557 1.79774 0
M  V30 6726 C 646.363 0.269606 1.60349 0
M  V30 6727 O 647.547 0.460105 1.82798 0
M  V30 6728 C 644.674 1.19815 3.168 0
M  V30 6729 C 643.72 2.36429 3.5497 0
M  V30 6730 S 644.553 3.98963 3.57196 0
M  V30 6731 C 645.709 3.80567 4.9691 0
M  V30 6732 H 645.942 2.35734 1.81154 0
M  V30 6733 H 643.475 1.293 0.843846 0
M  V30 6734 H 645.433 1.08535 3.95892 0
M  V30 6735 H 644.094 0.262215 3.13004 0
M  V30 6736 H 643.287 2.17669 4.54573 0
M  V30 6737 H 642.889 2.44233 2.83242 0
M  V30 6738 H 645.181 3.41668 5.85038 0
M  V30 6739 H 646.124 4.79852 5.20718 0
M  V30 6740 H 646.532 3.13399 4.69512 0
M  V30 6741 N 645.93 -0.909495 1.28709 0
M  V30 6742 C 647.176 -1.66151 1.16283 0
M  V30 6743 C 647.509 -1.92067 -0.287069 0
M  V30 6744 O 646.784 -1.52409 -1.20837 0
M  V30 6745 C 647.067 -3.01676 1.9663 0
M  V30 6746 C 646.92 -2.82888 3.49707 0
M  V30 6747 C 648.239 -4.02274 1.78504 0
M  V30 6748 H 645.358 -0.602966 0.423793 0
M  V30 6749 H 648 -1.05418 1.58073 0
M  V30 6750 H 646.15 -3.53515 1.61119 0
M  V30 6751 H 647.822 -2.38026 3.95147 0
M  V30 6752 H 646.065 -2.17862 3.75125 0
M  V30 6753 H 646.736 -3.79147 4.01187 0
M  V30 6754 H 649.212 -3.59511 2.09503 0
M  V30 6755 H 648.088 -4.95056 2.37088 0
M  V30 6756 H 648.349 -4.35903 0.737647 0
M  V30 6757 N 647.408 -1.11026 -1.11852 0
M  V30 6758 C 648.355 -0.764662 -2.17765 0
M  V30 6759 C 649.325 0.261854 -1.64023 0
M  V30 6760 O 650.51 0.139748 -1.90288 0
M  V30 6761 C 647.65 -0.209317 -3.44465 0
M  V30 6762 C 646.763 -1.29187 -4.12231 0
M  V30 6763 C 645.898 -0.697523 -5.266 0
M  V30 6764 C 644.937 -1.76023 -5.86244 0
M  V30 6765 N 644.074 -1.18569 -6.92016 0
M  V30 6766 H 648.914 -1.67202 -2.46673 0
M  V30 6767 H 646.451 -0.835065 -1.21099 0
M  V30 6768 H 648.409 0.130599 -4.16996 0
M  V30 6769 H 647.039 0.661251 -3.15955 0
M  V30 6770 H 646.091 -1.74881 -3.37818 0
M  V30 6771 H 647.403 -2.09607 -4.52622 0
M  V30 6772 H 646.557 -0.307412 -6.05921 0
M  V30 6773 H 645.296 0.138044 -4.87505 0
M  V30 6774 H 644.301 -2.1597 -5.05606 0
M  V30 6775 H 645.526 -2.59875 -6.27409 0
M  V30 6776 H 643.472 -0.371695 -6.54946 0
M  V30 6777 H 643.389 -1.92666 -7.31038 0
M  V30 6778 H 644.657 -0.82233 -7.7515 0
M  V30 6779 N 648.886 1.2938 -0.899927 0
M  V30 6780 C 649.849 2.25983 -0.382677 0
M  V30 6781 C 650.849 1.53366 0.483259 0
M  V30 6782 O 652.039 1.71798 0.28828 0
M  V30 6783 C 649.171 3.37878 0.452915 0
M  V30 6784 H 650.364 2.73252 -1.23586 0
M  V30 6785 H 647.917 1.40825 -0.678088 0
M  V30 6786 H 648.652 2.95949 1.32608 0
M  V30 6787 H 648.437 3.91742 -0.167562 0
M  V30 6788 H 649.927 4.09746 0.806107 0
M  V30 6789 N 650.364 0.662433 1.43002 0
M  V30 6790 C 651.294 -0.00979809 2.33498 0
M  V30 6791 C 652.275 -0.802329 1.49989 0
M  V30 6792 O 653.46 -0.761964 1.78627 0
M  V30 6793 C 650.59 -0.970446 3.33466 0
M  V30 6794 C 649.544 -0.287383 4.27034 0
M  V30 6795 C 648.87 -1.36012 5.17112 0
M  V30 6796 C 650.17 0.82595 5.15728 0
M  V30 6797 H 651.864 0.745959 2.89958 0
M  V30 6798 H 649.41 0.360172 1.39423 0
M  V30 6799 H 651.363 -1.44971 3.95679 0
M  V30 6800 H 650.087 -1.75748 2.75282 0
M  V30 6801 H 648.746 0.17152 3.66199 0
M  V30 6802 H 648.394 -2.13882 4.55262 0
M  V30 6803 H 648.094 -0.908276 5.80538 0
M  V30 6804 H 649.618 -1.84056 5.82199 0
M  V30 6805 H 651.032 0.42845 5.71697 0
M  V30 6806 H 649.429 1.20282 5.87922 0
M  V30 6807 H 650.499 1.68003 4.54866 0
M  V30 6808 N 651.842 -1.52309 0.404946 0
M  V30 6809 C 652.752 -2.30634 -0.429555 0
M  V30 6810 C 653.768 -1.38187 -1.05737 0
M  V30 6811 O 654.944 -1.71261 -1.05979 0
M  V30 6812 C 652.009 -3.10947 -1.53339 0
M  V30 6813 C 651.07 -4.19126 -0.929065 0
M  V30 6814 C 650.303 -4.95601 -1.9803 0
M  V30 6815 O 650.526 -4.72331 -3.1978 0
M  V30 6816 O 649.46 -5.80551 -1.58886 0
M  V30 6817 H 653.286 -3.0298 0.208963 0
M  V30 6818 H 650.871 -1.4845 0.168255 0
M  V30 6819 H 652.753 -3.60974 -2.1743 0
M  V30 6820 H 651.428 -2.41399 -2.15658 0
M  V30 6821 H 650.335 -3.73257 -0.250982 0
M  V30 6822 H 651.668 -4.90955 -0.349855 0
M  V30 6823 N 653.32 -0.135238 -1.57019 0
M  V30 6824 C 654.267 0.808908 -2.1616 0
M  V30 6825 C 655.237 1.25234 -1.09113 0
M  V30 6826 O 656.422 1.32697 -1.37099 0
M  V30 6827 C 653.562 2.04729 -2.77813 0
M  V30 6828 C 652.675 1.65074 -3.99218 0
M  V30 6829 C 651.81 2.84002 -4.48906 0
M  V30 6830 C 650.849 2.40663 -5.62803 0
M  V30 6831 N 649.986 3.5256 -6.07162 0
M  V30 6832 H 654.826 0.297751 -2.96509 0
M  V30 6833 H 652.363 0.135264 -1.46477 0
M  V30 6834 H 654.321 2.7731 -3.11697 0
M  V30 6835 H 652.951 2.53275 -2.00128 0
M  V30 6836 H 652.003 0.823029 -3.7139 0
M  V30 6837 H 653.315 1.29236 -4.81767 0
M  V30 6838 H 652.469 3.64788 -4.84783 0
M  V30 6839 H 651.208 3.23076 -3.65339 0
M  V30 6840 H 650.213 1.58314 -5.26514 0
M  V30 6841 H 651.438 2.02687 -6.48147 0
M  V30 6842 H 649.384 3.91278 -5.26534 0
M  V30 6843 H 649.301 3.20699 -6.84608 0
M  V30 6844 H 650.569 4.33738 -6.47682 0
M  V30 6845 N 654.798 1.5699 0.138552 0
M  V30 6846 C 655.708 2.02174 1.19008 0
M  V30 6847 C 656.724 0.938622 1.46512 0
M  V30 6848 O 657.9 1.24872 1.58016 0
M  V30 6849 C 654.965 2.40045 2.50159 0
M  V30 6850 C 654.026 3.62346 2.30226 0
M  V30 6851 C 653.259 3.98401 3.55123 0
M  V30 6852 O 653.482 3.35019 4.61647 0
M  V30 6853 O 652.416 4.91606 3.47285 0
M  V30 6854 H 656.242 2.91954 0.836452 0
M  V30 6855 H 653.827 1.45293 0.347907 0
M  V30 6856 H 655.709 2.65225 3.27465 0
M  V30 6857 H 654.384 1.53417 2.85035 0
M  V30 6858 H 653.291 3.42341 1.50843 0
M  V30 6859 H 654.624 4.49617 2.00262 0
M  V30 6860 N 656.276 -0.40816 1.52223 0
M  V30 6861 C 657.239 -1.48 1.7501 0
M  V30 6862 C 658.239 -1.48367 0.619996 0
M  V30 6863 O 659.429 -1.49874 0.887881 0
M  V30 6864 C 656.561 -2.87403 1.83336 0
M  V30 6865 H 657.754 -1.29086 2.70697 0
M  V30 6866 H 655.307 -0.638715 1.42654 0
M  V30 6867 H 656.042 -3.11686 0.895677 0
M  V30 6868 H 655.827 -2.8854 2.65494 0
M  V30 6869 H 657.317 -3.65103 2.02705 0
M  V30 6870 N 657.755 -1.42862 -0.66545 0
M  V30 6871 C 658.718 -1.46756 -1.76055 0
M  V30 6872 C 659.718 -0.353866 -1.56858 0
M  V30 6873 O 660.908 -0.615099 -1.62979 0
M  V30 6874 C 658.04 -1.30829 -3.14796 0
M  V30 6875 H 659.233 -2.44271 -1.73987 0
M  V30 6876 H 656.786 -1.29447 -0.875965 0
M  V30 6877 H 657.521 -0.342733 -3.22484 0
M  V30 6878 H 657.306 -2.11551 -3.30134 0
M  V30 6879 H 658.796 -1.36458 -3.94676 0
M  V30 6880 N 659.233 0.902656 -1.29189 0
M  V30 6881 C 660.458 1.69167 -1.19989 0
M  V30 6882 C 660.883 1.86607 0.236495 0
M  V30 6883 O 660.241 1.38425 1.17082 0
M  V30 6884 C 660.289 3.05532 -1.91527 0
M  V30 6885 O 659.393 3.93621 -1.2303 0
M  V30 6886 H 658.734 0.517584 -0.415936 0
M  V30 6887 H 661.264 1.12785 -1.70706 0
M  V30 6888 H 661.274 3.55693 -1.99866 0
M  V30 6889 H 659.949 2.92156 -2.96003 0
M  V30 6890 H 658.526 3.52055 -1.22928 0
M  V30 6891 N 660.711 1.11618 1.11262 0
M  V30 6892 C 661.621 0.78898 2.20935 0
M  V30 6893 C 662.637 -0.21867 1.7262 0
M  V30 6894 O 663.813 -0.0543826 2.01327 0
M  V30 6895 C 660.878 0.239014 3.45875 0
M  V30 6896 C 659.939 1.3055 4.08968 0
M  V30 6897 C 659.172 0.781687 5.27944 0
M  V30 6898 O 659.395 -0.387605 5.69082 0
M  V30 6899 O 658.329 1.54734 5.81671 0
M  V30 6900 H 662.155 1.70477 2.51339 0
M  V30 6901 H 659.74 0.892203 1.19834 0
M  V30 6902 H 661.622 -0.0632312 4.21353 0
M  V30 6903 H 660.297 -0.649454 3.17118 0
M  V30 6904 H 659.204 1.66079 3.35214 0
M  V30 6905 H 660.537 2.16743 4.41909 0
M  V30 6906 N 662.189 -1.289 0.906776 0
M  V30 6907 C 663.136 -2.2751 0.388313 0
M  V30 6908 C 664.106 -1.57301 -0.533439 0
M  V30 6909 O 665.291 -1.85243 -0.457148 0
M  V30 6910 C 662.431 -3.43091 -0.37181 0
M  V30 6911 C 661.544 -4.28066 0.581647 0
M  V30 6912 C 660.679 -5.30837 -0.19623 0
M  V30 6913 C 659.718 -6.07472 0.751294 0
M  V30 6914 N 658.855 -7.021 0.00737727 0
M  V30 6915 H 663.695 -2.71237 1.23428 0
M  V30 6916 H 661.232 -1.33397 0.619962 0
M  V30 6917 H 663.19 -4.08888 -0.828641 0
M  V30 6918 H 661.82 -3.00374 -1.18218 0
M  V30 6919 H 660.872 -3.62378 1.157 0
M  V30 6920 H 662.184 -4.81382 1.30665 0
M  V30 6921 H 661.338 -6.02485 -0.71394 0
M  V30 6922 H 660.077 -4.78272 -0.954324 0
M  V30 6923 H 659.082 -5.34682 1.28044 0
M  V30 6924 H 660.307 -6.62126 1.50883 0
M  V30 6925 H 658.253 -6.51894 -0.732854 0
M  V30 6926 H 658.17 -7.53004 0.672334 0
M  V30 6927 H 659.438 -7.77956 -0.490365 0
M  V30 6928 N 663.667 -0.670007 -1.42649 0
M  V30 6929 C 664.599 0.0501746 -2.29145 0
M  V30 6930 C 665.612 0.770331 -1.43422 0
M  V30 6931 O 666.801 0.625288 -1.6719 0
M  V30 6932 C 663.901 1.09463 -3.20735 0
M  V30 6933 C 663.074 0.44926 -4.35087 0
M  V30 6934 C 662.133 1.39285 -5.07431 0
M  V30 6935 O 661.159 0.894997 -5.6212 0
M  V30 6936 N 662.361 2.72631 -5.12496 0
M  V30 6937 H 665.126 -0.692312 -2.91594 0
M  V30 6938 H 662.687 -0.514056 -1.53522 0
M  V30 6939 H 664.679 1.72705 -3.65999 0
M  V30 6940 H 663.249 1.73891 -2.59771 0
M  V30 6941 H 662.469 -0.362573 -3.92529 0
M  V30 6942 H 663.757 -0.000544776 -5.088 0
M  V30 6943 H 663.155 3.15623 -4.69467 0
M  V30 6944 H 661.712 3.31132 -5.61422 0
M  V30 6945 N 665.145 1.52092 -0.413018 0
M  V30 6946 C 666.077 2.24819 0.445994 0
M  V30 6947 C 667.09 1.27925 1.00692 0
M  V30 6948 O 668.279 1.53845 0.905204 0
M  V30 6949 C 665.379 2.96951 1.6332 0
M  V30 6950 C 664.552 4.20746 1.19548 0
M  V30 6951 C 663.611 4.75668 2.25003 0
M  V30 6952 O 662.637 5.38148 1.85434 0
M  V30 6953 N 663.839 4.57579 3.57214 0
M  V30 6954 H 666.604 2.99176 -0.177209 0
M  V30 6955 H 664.165 1.60102 -0.240601 0
M  V30 6956 H 666.157 3.30586 2.33441 0
M  V30 6957 H 664.727 2.25756 2.16225 0
M  V30 6958 H 663.947 3.92881 0.32224 0
M  V30 6959 H 665.235 5.01132 0.880033 0
M  V30 6960 H 664.633 4.07758 3.92109 0
M  V30 6961 H 663.19 4.95642 4.23299 0
M  V30 6962 N 666.623 0.143563 1.56945 0
M  V30 6963 C 667.553 -0.7936 2.196 0
M  V30 6964 C 668.534 -1.25955 1.14321 0
M  V30 6965 O 669.719 -1.31773 1.42651 0
M  V30 6966 C 666.849 -2.03424 2.81489 0
M  V30 6967 C 665.803 -1.70519 3.92565 0
M  V30 6968 C 665.129 -3.01817 4.41373 0
M  V30 6969 C 666.429 -0.95449 5.13504 0
M  V30 6970 H 668.123 -0.271423 2.98167 0
M  V30 6971 H 665.669 -0.12911 1.4342 0
M  V30 6972 H 667.622 -2.69463 3.23987 0
M  V30 6973 H 666.346 -2.58008 2.00248 0
M  V30 6974 H 665.005 -1.06859 3.5068 0
M  V30 6975 H 664.653 -3.54386 3.56959 0
M  V30 6976 H 664.353 -2.80565 5.16292 0
M  V30 6977 H 665.877 -3.68934 4.86539 0
M  V30 6978 H 667.291 -1.5169 5.52868 0
M  V30 6979 H 665.688 -0.842035 5.94163 0
M  V30 6980 H 666.758 0.0544033 4.84869 0
M  V30 6981 N 668.101 -1.57061 -0.130224 0
M  V30 6982 C 669.347 -1.8453 -0.841216 0
M  V30 6983 C 669.68 -0.727666 -1.80052 0
M  V30 6984 O 668.955 0.267419 -1.92653 0
M  V30 6985 C 669.238 -3.22553 -1.60099 0
M  V30 6986 C 669.091 -4.44901 -0.662048 0
M  V30 6987 C 670.41 -3.58003 -2.55973 0
M  V30 6988 H 667.529 -0.671215 -0.304366 0
M  V30 6989 H 670.171 -1.89705 -0.105821 0
M  V30 6990 H 668.321 -3.18272 -2.22789 0
M  V30 6991 H 669.993 -4.61278 -0.0448559 0
M  V30 6992 H 668.236 -4.33791 0.0272253 0
M  V30 6993 H 668.907 -5.3812 -1.23006 0
M  V30 6994 H 671.383 -3.63002 -2.03393 0
M  V30 6995 H 670.259 -4.55576 -3.06172 0
M  V30 6996 H 670.52 -2.84833 -3.38116 0
M  V30 6997 N 669.579 0.400081 -1.52437 0
M  V30 6998 C 670.489 1.51253 -1.79331 0
M  V30 6999 C 671.505 1.60188 -0.679396 0
M  V30 7000 O 672.681 1.76733 -0.965791 0
M  V30 7001 C 669.746 2.869 -1.94652 0
M  V30 7002 C 668.807 2.87777 -3.18564 0
M  V30 7003 C 668.04 4.16954 -3.33145 0
M  V30 7004 O 668.263 5.11329 -2.52783 0
M  V30 7005 O 667.197 4.2487 -4.26343 0
M  V30 7006 H 671.023 1.31461 -2.73773 0
M  V30 7007 H 668.608 0.586834 -1.37392 0
M  V30 7008 H 670.49 3.67336 -2.065 0
M  V30 7009 H 669.165 3.06741 -1.034 0
M  V30 7010 H 668.072 2.06162 -3.12167 0
M  V30 7011 H 669.405 2.72886 -4.09627 0
M  V30 7012 N 671.057 1.43213 0.657864 0
M  V30 7013 C 672.285 1.48015 1.44566 0
M  V30 7014 C 672.7 0.0965951 1.88553 0
M  V30 7015 O 672.057 -0.892221 1.59203 0
M  V30 7016 C 672.108 2.42199 2.68369 0
M  V30 7017 O 671.829 3.75173 2.26223 0
M  V30 7018 C 673.33 2.56195 3.61772 0
M  V30 7019 H 670.55 0.502861 0.444266 0
M  V30 7020 H 673.094 1.87907 0.806917 0
M  V30 7021 H 671.249 2.05514 3.28394 0
M  V30 7022 H 671.663 4.25776 3.06293 0
M  V30 7023 H 673.137 3.26182 4.4532 0
M  V30 7024 H 673.614 1.60534 4.0881 0
M  V30 7025 H 674.22 2.93671 3.07632 0
M  V30 7026 N 672.536 -0.895792 1.29666 0
M  V30 7027 C 673.486 -1.98736 1.1175 0
M  V30 7028 C 674.47 -1.6086 0.0357834 0
M  V30 7029 O 675.662 -1.75111 0.257926 0
M  V30 7030 C 672.791 -3.33845 0.800156 0
M  V30 7031 C 671.877 -3.78068 1.9216 0
M  V30 7032 N 672.268 -3.94489 3.16563 0
M  V30 7033 C 670.566 -4.07376 1.81552 0
M  V30 7034 C 671.267 -4.31819 3.89753 0
M  V30 7035 N 670.243 -4.41081 3.17724 0
M  V30 7036 H 674.045 -2.09507 2.06117 0
M  V30 7037 H 671.559 -1.08488 1.20848 0
M  V30 7038 H 673.556 -4.11757 0.652841 0
M  V30 7039 H 672.216 -3.24417 -0.135551 0
M  V30 7040 H 673.227 -3.79914 3.51974 0
M  V30 7041 H 669.904 -4.06483 0.952787 0
M  V30 7042 H 671.294 -4.52337 4.96831 0
M  V30 7043 N 674.014 -1.12206 -1.10668 0
M  V30 7044 C 674.944 -0.810086 -2.18997 0
M  V30 7045 C 675.925 0.225065 -1.68604 0
M  V30 7046 O 677.11 0.086783 -1.94006 0
M  V30 7047 C 674.24 -0.261262 -3.46316 0
M  V30 7048 C 673.194 -1.2292 -4.09969 0
M  V30 7049 C 672.52 -0.540713 -5.31959 0
M  V30 7050 C 673.82 -2.58295 -4.53962 0
M  V30 7051 H 675.514 -1.7159 -2.45352 0
M  V30 7052 H 673.06 -0.82646 -1.17922 0
M  V30 7053 H 675.013 -0.0307522 -4.21389 0
M  V30 7054 H 673.737 0.679879 -3.19445 0
M  V30 7055 H 672.396 -1.44548 -3.369 0
M  V30 7056 H 672.044 0.405492 -5.01363 0
M  V30 7057 H 671.744 -1.18637 -5.75499 0
M  V30 7058 H 673.268 -0.319184 -6.09765 0
M  V30 7059 H 674.682 -2.40709 -5.20319 0
M  V30 7060 H 673.079 -3.18916 -5.08343 0
M  V30 7061 H 674.149 -3.16918 -3.67002 0
M  V30 7062 N 675.492 1.28418 -0.913599 0
M  V30 7063 C 676.455 2.25564 -0.406624 0
M  V30 7064 C 677.455 1.5387 0.466965 0
M  V30 7065 O 678.645 1.72094 0.270042 0
M  V30 7066 C 675.777 3.38339 0.417053 0
M  V30 7067 H 676.97 2.71926 -1.26477 0
M  V30 7068 H 674.523 1.40098 -0.692986 0
M  V30 7069 H 675.258 2.97339 1.29461 0
M  V30 7070 H 675.043 3.91542 -0.209102 0
M  V30 7071 H 676.533 4.10578 0.762602 0
M  V30 7072 N 676.97 0.677563 1.42291 0
M  V30 7073 C 678.386 0.347376 1.55774 0
M  V30 7074 C 678.586 -1.14703 1.65667 0
M  V30 7075 O 677.642 -1.93252 1.62512 0
M  V30 7076 C 678.955 1.08011 2.80631 0
M  V30 7077 C 680.503 1.06271 2.94407 0
M  V30 7078 C 680.978 1.77683 4.22129 0
M  V30 7079 N 682.469 1.74564 4.29047 0
M  V30 7080 C 683.204 2.26673 5.26694 0
M  V30 7081 N 682.7 2.87176 6.30477 0
M  V30 7082 N 684.493 2.17032 5.18511 0
M  V30 7083 H 676.644 1.64703 1.34114 0
M  V30 7084 H 678.907 0.694038 0.645768 0
M  V30 7085 H 678.613 2.13518 2.79469 0
M  V30 7086 H 678.487 0.647115 3.71608 0
M  V30 7087 H 680.874 0.0159658 2.95096 0
M  V30 7088 H 680.955 1.53461 2.04654 0
M  V30 7089 H 680.599 2.82327 4.22201 0
M  V30 7090 H 680.529 1.2794 5.10822 0
M  V30 7091 H 683.02 1.30436 3.54676 0
M  V30 7092 H 683.333 3.24551 7.01346 0
M  V30 7093 H 681.678 2.91247 6.31031 0
M  V30 7094 H 684.869 1.69451 4.36353 0
M  V30 7095 H 685.042 2.57948 5.94446 0
M  V30 7096 N 678.448 -1.51871 0.421078 0
M  V30 7097 C 679.694 -2.02237 -0.151014 0
M  V30 7098 C 680.027 -1.30554 -1.43768 0
M  V30 7099 O 679.302 -0.41546 -1.90011 0
M  V30 7100 C 679.585 -3.5802 -0.386482 0
M  V30 7101 C 679.438 -4.40339 0.9177 0
M  V30 7102 C 680.757 -4.24444 -1.16342 0
M  V30 7103 H 677.876 -0.735062 -0.0534102 0
M  V30 7104 H 680.518 -1.81656 0.556888 0
M  V30 7105 H 678.668 -3.75688 -0.989494 0
M  V30 7106 H 680.34 -4.34357 1.55344 0
M  V30 7107 H 678.583 -4.06073 1.526 0
M  V30 7108 H 679.254 -5.47451 0.707187 0
M  V30 7109 H 681.73 -4.10948 -0.652788 0
M  V30 7110 H 680.606 -5.33358 -1.29693 0
M  V30 7111 H 680.867 -3.84204 -2.18724 0
M  V30 7112 N 679.926 -0.151884 -1.56866 0
M  V30 7113 C 680.836 0.798876 -2.20579 0
M  V30 7114 C 681.852 1.268 -1.19154 0
M  V30 7115 O 683.028 1.32418 -1.51748 0
M  V30 7116 C 680.093 2.01861 -2.81874 0
M  V30 7117 C 679.154 1.59825 -3.9844 0
M  V30 7118 C 678.387 2.75984 -4.56802 0
M  V30 7119 O 678.61 3.92331 -4.14044 0
M  V30 7120 O 677.544 2.51175 -5.46987 0
M  V30 7121 H 681.37 0.2865 -3.02346 0
M  V30 7122 H 678.955 0.0753806 -1.4921 0
M  V30 7123 H 680.837 2.73235 -3.20813 0
M  V30 7124 H 679.512 2.52042 -2.03117 0
M  V30 7125 H 678.419 0.854601 -3.64208 0
M  V30 7126 H 679.752 1.14355 -4.78731 0
M  V30 7127 N 681.404 1.57128 0.121893 0
M  V30 7128 C 682.367 1.99197 1.13372 0
M  V30 7129 C 683.367 0.881728 1.3447 0
M  V30 7130 O 684.557 1.14783 1.31036 0
M  V30 7131 C 681.689 2.32963 2.4888 0
M  V30 7132 H 682.882 2.89788 0.772204 0
M  V30 7133 H 680.435 1.51952 0.366093 0
M  V30 7134 H 681.17 1.45243 2.89957 0
M  V30 7135 H 680.955 3.13934 2.34921 0
M  V30 7136 H 682.445 2.66261 3.21706 0
M  V30 7137 N 682.882 -0.391992 1.52647 0
M  V30 7138 C 683.815 -1.50019 1.71958 0
M  V30 7139 C 684.793 -1.5238 0.567365 0
M  V30 7140 O 685.977 -1.70831 0.796806 0
M  V30 7141 C 683.104 -2.88496 1.77447 0
M  V30 7142 C 682.15 -3.03974 2.99169 0
M  V30 7143 S 682.983 -2.75487 4.59203 0
M  V30 7144 C 684.139 -4.16163 4.67503 0
M  V30 7145 H 684.372 -1.33413 2.65685 0
M  V30 7146 H 681.905 -0.584674 1.42902 0
M  V30 7147 H 683.863 -3.68296 1.81296 0
M  V30 7148 H 682.524 -3.02431 0.848188 0
M  V30 7149 H 681.717 -4.05328 2.99542 0
M  V30 7150 H 681.319 -2.32062 2.93297 0
M  V30 7151 H 683.611 -5.10048 4.45934 0
M  V30 7152 H 684.554 -4.20806 5.69498 0
M  V30 7153 H 684.962 -4.01933 3.96371 0
M  V30 7154 N 684.36 -1.4356 -0.65026 0
M  V30 7155 C 685.29 -1.51758 -1.77459 0
M  V30 7156 C 686.271 -0.372019 -1.65982 0
M  V30 7157 O 687.456 -0.589627 -1.85033 0
M  V30 7158 C 684.586 -1.44302 -3.15902 0
M  V30 7159 C 683.54 -2.57138 -3.42146 0
M  V30 7160 C 682.866 -2.34735 -4.8042 0
M  V30 7161 C 684.166 -3.99373 -3.36598 0
M  V30 7162 H 685.86 -2.45863 -1.70855 0
M  V30 7163 H 683.406 -1.18333 -0.820566 0
M  V30 7164 H 685.359 -1.48641 -3.94314 0
M  V30 7165 H 684.083 -0.467026 -3.23244 0
M  V30 7166 H 682.742 -2.52157 -2.66106 0
M  V30 7167 H 682.39 -1.35372 -4.84441 0
M  V30 7168 H 682.09 -3.10375 -4.9894 0
M  V30 7169 H 683.614 -2.40862 -5.61086 0
M  V30 7170 H 685.028 -4.05826 -4.04942 0
M  V30 7171 H 683.425 -4.75063 -3.66654 0
M  V30 7172 H 684.495 -4.243 -2.34729 0
M  V30 7173 N 685.838 0.888903 -1.30139 0
M  V30 7174 C 686.786 2.0156 -1.16088 0
M  V30 7175 C 687.78 1.69239 -0.0737413 0
M  V30 7176 O 688.986 1.78468 -0.234313 0
M  V30 7177 H 685.361 0.660825 -0.358907 0
M  V30 7178 H 687.332 2.10547 -2.11453 0
M  V30 7179 C 686.081 3.36758 -0.865426 0
M  V30 7180 H 685.404 3.62137 -1.69402 0
M  V30 7181 H 686.844 4.16246 -0.807192 0
M  V30 7182 C 685.303 3.34124 0.431577 0
M  V30 7183 O 685.833 3.7445 1.45431 0
M  V30 7184 N 684.039 2.87229 0.441321 0
M  V30 7185 H 683.586 2.54609 -0.391433 0
M  V30 7186 H 683.544 2.8585 1.30909 0
M  V30 7187 N 687.317 1.12792 1.10072 0
M  V30 7188 C 688.594 0.796867 1.78632 0
M  V30 7189 C 688.974 -0.712739 1.98704 0
M  V30 7190 O 688.322 -1.64773 1.5831 0
M  V30 7191 C 688.532 1.57622 3.11378 0
M  V30 7192 C 689.88 1.76463 3.86194 0
M  V30 7193 O 690.904 1.54165 3.2111 0
M  V30 7194 O 689.763 2.13623 5.03018 0
M  V30 7195 H 686.857 0.290248 0.774394 0
M  V30 7196 H 689.403 1.23215 1.16688 0
M  V30 7197 H 688.175 2.60246 2.92212 0
M  V30 7198 H 687.798 1.13543 3.81043 0
M  V30 7199 N 688.795 -1.27931 0.920396 0
M  V30 7200 C 690.211 -1.47085 0.619537 0
M  V30 7201 C 690.411 -1.83463 -0.833291 0
M  V30 7202 O 689.467 -1.94363 -1.61181 0
M  V30 7203 C 690.78 -2.56878 1.56314 0
M  V30 7204 C 692.328 -2.70743 1.57058 0
M  V30 7205 C 692.803 -3.83687 2.50097 0
M  V30 7206 N 694.294 -3.9105 2.48262 0
M  V30 7207 C 695.029 -4.77842 3.16945 0
M  V30 7208 N 694.525 -5.69176 3.94982 0
M  V30 7209 N 696.318 -4.71509 3.06 0
M  V30 7210 H 688.469 -1.02601 1.85975 0
M  V30 7211 H 690.732 -0.511682 0.798051 0
M  V30 7212 H 690.438 -2.36923 2.59923 0
M  V30 7213 H 690.312 -3.54117 1.29928 0
M  V30 7214 H 692.699 -2.90083 0.541832 0
M  V30 7215 H 692.78 -1.74015 1.8749 0
M  V30 7216 H 692.424 -3.65101 3.53077 0
M  V30 7217 H 692.354 -4.79827 2.16964 0
M  V30 7218 H 694.845 -3.25738 1.91581 0
M  V30 7219 H 695.158 -6.32245 4.44394 0
M  V30 7220 H 693.503 -5.68995 3.99086 0
M  V30 7221 H 696.694 -3.99151 2.44533 0
M  V30 7222 H 696.867 -5.38933 3.59799 0
M  V30 7223 N 690.273 -0.685099 -1.4193 0
M  V30 7224 C 691.689 -0.355632 -1.55587 0
M  V30 7225 C 691.889 1.13823 -1.66273 0
M  V30 7226 O 690.945 1.92387 -1.63534 0
M  V30 7227 C 692.258 -1.09498 -2.80055 0
M  V30 7228 C 693.806 -1.07831 -2.93839 0
M  V30 7229 C 694.281 -1.79919 -4.21181 0
M  V30 7230 N 695.772 -1.76837 -4.28115 0
M  V30 7231 C 696.507 -2.29463 -5.25485 0
M  V30 7232 N 696.003 -2.90516 -6.28945 0
M  V30 7233 N 697.796 -2.19779 -5.17353 0
M  V30 7234 H 689.947 -1.65412 -1.33239 0
M  V30 7235 H 692.21 -0.697453 -0.642078 0
M  V30 7236 H 691.916 -2.14997 -2.78333 0
M  V30 7237 H 691.79 -0.666813 -3.71259 0
M  V30 7238 H 694.177 -0.0316152 -2.95083 0
M  V30 7239 H 694.258 -1.54545 -2.03837 0
M  V30 7240 H 693.902 -2.84562 -4.20698 0
M  V30 7241 H 693.832 -1.30647 -5.10136 0
M  V30 7242 H 696.323 -1.32315 -3.53979 0
M  V30 7243 H 696.636 -3.28266 -6.99615 0
M  V30 7244 H 694.981 -2.94589 -6.29478 0
M  V30 7245 H 698.172 -1.71763 -4.35448 0
M  V30 7246 H 698.345 -2.61097 -5.9307 0
M  V30 7247 N 691.751 1.51645 -0.429126 0
M  V30 7248 C 693.167 1.59394 -0.080994 0
M  V30 7249 C 693.367 1.44064 1.40882 0
M  V30 7250 O 692.423 1.27771 2.17786 0
M  V30 7251 C 693.736 2.94779 -0.593773 0
M  V30 7252 C 695.284 3.08067 -0.553494 0
M  V30 7253 C 695.759 4.45963 -1.04311 0
M  V30 7254 N 697.25 4.5226 -1.00076 0
M  V30 7255 C 697.985 5.57268 -1.35056 0
M  V30 7256 N 697.481 6.69734 -1.77282 0
M  V30 7257 N 699.274 5.47582 -1.26925 0
M  V30 7258 H 691.425 1.59856 -1.39857 0
M  V30 7259 H 693.688 0.753095 -0.575805 0
M  V30 7260 H 693.394 3.11342 -1.63583 0
M  V30 7261 H 693.268 3.77197 -0.0142202 0
M  V30 7262 H 695.655 2.91177 0.479556 0
M  V30 7263 H 695.736 2.27508 -1.16935 0
M  V30 7264 H 695.38 4.63598 -2.07459 0
M  V30 7265 H 695.31 5.25049 -0.403873 0
M  V30 7266 H 697.801 3.71537 -0.690564 0
M  V30 7267 H 698.114 7.4587 -2.02232 0
M  V30 7268 H 696.459 6.70963 -1.81202 0
M  V30 7269 H 699.65 4.58604 -0.93809 0
M  V30 7270 H 699.823 6.29308 -1.54516 0
M  V30 7271 N 693.229 0.160201 1.56784 0
M  V30 7272 C 694.162 -0.812797 2.13234 0
M  V30 7273 C 695.14 -1.2335 1.05942 0
M  V30 7274 O 696.324 -1.32725 1.33852 0
M  V30 7275 C 693.451 -2.09311 2.66283 0
M  V30 7276 C 692.497 -1.8173 3.85845 0
M  V30 7277 S 693.33 -0.996473 5.26147 0
M  V30 7278 C 694.486 -2.28769 5.82594 0
M  V30 7279 H 694.719 -0.332794 2.95432 0
M  V30 7280 H 692.252 -0.0542971 1.54304 0
M  V30 7281 H 694.21 -2.82854 2.97496 0
M  V30 7282 H 692.871 -2.54425 1.84192 0
M  V30 7283 H 692.064 -2.76699 4.21253 0
M  V30 7284 H 691.666 -1.16289 3.55462 0
M  V30 7285 H 693.958 -3.24319 5.9483 0
M  V30 7286 H 694.901 -1.97846 6.79899 0
M  V30 7287 H 695.309 -2.40021 5.10931 0
M  V30 7288 N 694.707 -1.5719 -0.113559 0
M  V30 7289 C 695.67 -1.99796 -1.12314 0
M  V30 7290 C 696.67 -0.888847 -1.34001 0
M  V30 7291 O 697.86 -1.15476 -1.30426 0
M  V30 7292 C 694.992 -2.34279 -2.47641 0
M  V30 7293 H 696.185 -2.90193 -0.756825 0
M  V30 7294 H 693.738 -1.52144 -0.358029 0
M  V30 7295 H 694.473 -1.46778 -2.89183 0
M  V30 7296 H 694.258 -3.15175 -2.33253 0
M  V30 7297 H 695.748 -2.67963 -3.2029 0
M  V30 7298 N 696.185 0.383891 -1.52853 0
M  V30 7299 C 697.115 1.47559 -1.80965 0
M  V30 7300 C 698.096 1.5669 -0.661986 0
M  V30 7301 O 699.281 1.71556 -0.910072 0
M  V30 7302 C 696.411 2.85114 -1.98312 0
M  V30 7303 C 695.365 2.9082 -3.14019 0
M  V30 7304 C 694.691 4.30873 -3.16627 0
M  V30 7305 C 695.991 2.60001 -4.52986 0
M  V30 7306 H 697.685 1.24283 -2.72386 0
M  V30 7307 H 695.231 0.596445 -1.31067 0
M  V30 7308 H 697.184 3.61496 -2.16561 0
M  V30 7309 H 695.908 3.09738 -1.03585 0
M  V30 7310 H 694.567 2.16886 -2.9556 0
M  V30 7311 H 694.215 4.52545 -2.19573 0
M  V30 7312 H 693.915 4.3561 -3.94357 0
M  V30 7313 H 695.439 5.09154 -3.37038 0
M  V30 7314 H 696.853 3.261 -4.71521 0
M  V30 7315 H 695.25 2.76081 -5.32822 0
M  V30 7316 H 696.32 1.5532 -4.59351 0
M  V30 7317 N 697.663 1.43903 0.642637 0
M  V30 7318 C 698.573 1.52349 1.78401 0
M  V30 7319 C 699.589 0.409869 1.69104 0
M  V30 7320 O 700.765 0.665548 1.90085 0
M  V30 7321 C 697.83 1.45408 3.14734 0
M  V30 7322 C 696.891 2.67528 3.35749 0
M  V30 7323 C 696.124 2.60909 4.65577 0
M  V30 7324 O 696.347 1.6627 5.45628 0
M  V30 7325 O 695.281 3.5158 4.88544 0
M  V30 7326 H 699.107 2.48752 1.7423 0
M  V30 7327 H 696.692 1.26021 0.802439 0
M  V30 7328 H 698.574 1.44019 3.96026 0
M  V30 7329 H 697.249 0.521437 3.19473 0
M  V30 7330 H 696.156 2.74487 2.5418 0
M  V30 7331 H 697.489 3.598 3.35864 0
M  V30 7332 N 699.141 -0.881989 1.30609 0
M  V30 7333 C 700.089 -2.00942 1.17155 0
M  V30 7334 C 701.083 -1.69198 0.0827154 0
M  V30 7335 O 702.289 -1.78342 0.243775 0
M  V30 7336 H 698.664 -0.658913 0.362406 0
M  V30 7337 H 700.635 -2.09423 2.12567 0
M  V30 7338 C 699.384 -3.36294 0.883273 0
M  V30 7339 H 698.707 -3.61233 1.7132 0
M  V30 7340 H 700.147 -4.15812 0.829255 0
M  V30 7341 C 698.606 -3.34348 -0.413851 0
M  V30 7342 O 699.136 -3.75216 -1.43444 0
M  V30 7343 N 697.342 -2.87459 -0.426082 0
M  V30 7344 H 696.889 -2.54397 0.40493 0
M  V30 7345 H 696.847 -2.8654 -1.29391 0
M  V30 7346 N 700.619 -1.13374 -1.09472 0
M  V30 7347 C 701.849 -0.917019 -1.85133 0
M  V30 7348 C 702.257 0.537568 -1.81402 0
M  V30 7349 O 701.6 1.38385 -1.20811 0
M  V30 7350 C 701.662 -1.32646 -3.34134 0
M  V30 7351 C 701.326 -2.79437 -3.61613 0
M  V30 7352 C 702.323 -3.77596 -3.57375 0
M  V30 7353 C 700.008 -3.16586 -3.89973 0
M  V30 7354 C 702.002 -5.10916 -3.81108 0
M  V30 7355 C 699.689 -4.50085 -4.13361 0
M  V30 7356 C 700.687 -5.47059 -4.0892 0
M  V30 7357 O 700.375 -6.78149 -4.31705 0
M  V30 7358 H 700.107 -0.326997 -0.591649 0
M  V30 7359 H 702.661 -1.51002 -1.39239 0
M  V30 7360 H 700.891 -0.676719 -3.80733 0
M  V30 7361 H 702.58 -1.08229 -3.91205 0
M  V30 7362 H 703.346 -3.50242 -3.35493 0
M  V30 7363 H 699.225 -2.41707 -3.92554 0
M  V30 7364 H 702.769 -5.86597 -3.77558 0
M  V30 7365 H 698.666 -4.77163 -4.34724 0
M  V30 7366 H 699.434 -6.84244 -4.49168 0
M  V30 7367 N 702.098 1.27442 -0.927168 0
M  V30 7368 C 703.028 2.29256 -0.443188 0
M  V30 7369 C 704.009 1.62701 0.49624 0
M  V30 7370 O 705.194 1.90013 0.401105 0
M  V30 7371 C 702.324 3.45955 0.305366 0
M  V30 7372 C 701.278 4.24501 -0.546178 0
M  V30 7373 C 700.604 5.33671 0.331512 0
M  V30 7374 C 701.904 4.89921 -1.81037 0
M  V30 7375 H 703.598 2.69988 -1.29409 0
M  V30 7376 H 701.144 1.29792 -0.623705 0
M  V30 7377 H 703.097 4.1628 0.654885 0
M  V30 7378 H 701.821 3.04138 1.19029 0
M  V30 7379 H 700.48 3.55921 -0.878398 0
M  V30 7380 H 700.128 4.88096 1.21537 0
M  V30 7381 H 699.828 5.87131 -0.234746 0
M  V30 7382 H 701.352 6.0684 0.676614 0
M  V30 7383 H 702.766 5.52536 -1.52895 0
M  V30 7384 H 701.163 5.53436 -2.32009 0
M  V30 7385 H 702.233 4.13652 -2.53021 0
M  V30 7386 N 703.576 0.692616 1.41565 0
M  V30 7387 C 704.539 0.0344174 2.29174 0
M  V30 7388 C 705.539 -0.710961 1.44229 0
M  V30 7389 O 706.729 -0.546293 1.65412 0
M  V30 7390 C 703.861 -0.961682 3.27054 0
M  V30 7391 H 705.054 0.805755 2.88873 0
M  V30 7392 H 702.607 0.455947 1.49502 0
M  V30 7393 H 703.342 -1.76089 2.72329 0
M  V30 7394 H 703.127 -0.430375 3.89731 0
M  V30 7395 H 704.617 -1.4201 3.92712 0
M  V30 7396 N 705.054 -1.51416 0.437162 0
M  V30 7397 C 706.017 -2.26312 -0.362729 0
M  V30 7398 C 707.017 -1.29748 -0.949847 0
M  V30 7399 O 708.207 -1.53462 -0.824325 0
M  V30 7400 C 705.339 -3.05475 -1.5132 0
M  V30 7401 H 706.532 -2.98459 0.29365 0
M  V30 7402 H 704.085 -1.55137 0.190327 0
M  V30 7403 H 704.82 -2.37744 -2.20563 0
M  V30 7404 H 704.605 -3.76401 -1.09838 0
M  V30 7405 H 706.095 -3.62209 -2.07833 0
M  V30 7406 N 706.532 -0.168513 -1.56696 0
M  V30 7407 C 707.462 0.758563 -2.20835 0
M  V30 7408 C 708.443 1.24121 -1.1631 0
M  V30 7409 O 709.628 1.29487 -1.4473 0
M  V30 7410 C 706.758 1.9892 -2.8469 0
M  V30 7411 C 705.712 1.64252 -3.95228 0
M  V30 7412 C 705.038 2.94757 -4.46119 0
M  V30 7413 C 706.338 0.872675 -5.14958 0
M  V30 7414 H 708.032 0.223953 -2.98561 0
M  V30 7415 H 705.578 0.106277 -1.43607 0
M  V30 7416 H 707.531 2.64275 -3.28233 0
M  V30 7417 H 706.255 2.5479 -2.04327 0
M  V30 7418 H 704.914 1.01266 -3.52336 0
M  V30 7419 H 704.562 3.48662 -3.62552 0
M  V30 7420 H 704.262 2.72316 -5.2069 0
M  V30 7421 H 705.786 3.61147 -4.92347 0
M  V30 7422 H 707.2 1.42875 -5.55211 0
M  V30 7423 H 705.597 0.747402 -5.95428 0
M  V30 7424 H 706.667 -0.131535 -4.84722 0
M  V30 7425 N 708.01 1.57248 0.105221 0
M  V30 7426 C 708.942 1.98008 1.15436 0
M  V30 7427 C 709.955 0.881236 1.36887 0
M  V30 7428 O 711.144 1.15943 1.35718 0
M  V30 7429 C 708.244 2.27509 2.51183 0
M  V30 7430 C 707.417 3.58811 2.50147 0
M  V30 7431 C 706.476 3.76365 3.67745 0
M  V30 7432 O 705.502 4.48329 3.50699 0
M  V30 7433 N 706.704 3.16174 4.86841 0
M  V30 7434 H 709.469 2.88616 0.807519 0
M  V30 7435 H 707.03 1.59202 0.29433 0
M  V30 7436 H 709.022 2.36455 3.28438 0
M  V30 7437 H 707.592 1.42959 2.77995 0
M  V30 7438 H 706.812 3.60927 1.5851 0
M  V30 7439 H 708.1 4.45088 2.46524 0
M  V30 7440 H 707.498 2.57701 5.03594 0
M  V30 7441 H 706.055 3.30621 5.61723 0
M  V30 7442 N 709.488 -0.375779 1.53054 0
M  V30 7443 C 710.713 -1.14484 1.7294 0
M  V30 7444 C 711.138 -1.82572 0.452668 0
M  V30 7445 O 710.496 -1.71343 -0.592567 0
M  V30 7446 C 710.544 -2.15857 2.88857 0
M  V30 7447 O 709.648 -3.22725 2.56753 0
M  V30 7448 H 708.989 -0.332666 0.574656 0
M  V30 7449 H 711.519 -0.436025 1.999 0
M  V30 7450 H 711.529 -2.59631 3.14731 0
M  V30 7451 H 710.204 -1.65689 3.81471 0
M  V30 7452 H 708.781 -2.83996 2.41663 0
M  V30 7453 N 710.966 -1.44241 -0.634997 0
M  V30 7454 C 712.243 -1.37296 -1.39317 0
M  V30 7455 C 712.623 -0.0297532 -2.11079 0
M  V30 7456 O 711.971 0.987524 -2.06059 0
M  V30 7457 C 712.181 -2.56853 -2.36279 0
M  V30 7458 C 713.529 -3.00747 -2.99728 0
M  V30 7459 O 714.553 -2.5703 -2.46605 0
M  V30 7460 O 713.412 -3.76533 -3.96087 0
M  V30 7461 H 710.506 -0.543503 -0.623325 0
M  V30 7462 H 713.052 -1.56324 -0.660376 0
M  V30 7463 H 711.824 -3.46228 -1.82324 0
M  V30 7464 H 711.447 -2.40019 -3.16981 0
M  V30 7465 N 712.444 0.87505 -1.31075 0
M  V30 7466 C 713.855 1.4433 -1.18431 0
M  V30 7467 C 714.206 1.9506 0.211189 0
M  V30 7468 O 713.331 1.85847 1.10859 0
M  V30 7469 C 713.926 2.62341 -2.14389 0
M  V30 7470 C 712.485 3.15225 -2.05694 0
M  V30 7471 C 711.632 1.87929 -2.03907 0
M  V30 7472 H 714.583 0.684061 -1.432 0
M  V30 7473 H 714.604 3.3887 -1.73053 0
M  V30 7474 H 714.116 2.25388 -3.15946 0
M  V30 7475 H 712.217 3.56812 -1.07314 0
M  V30 7476 H 712.33 3.77853 -2.94558 0
M  V30 7477 H 710.694 2.06679 -1.48849 0
M  V30 7478 H 711.477 1.53221 -3.07211 0
M  V30 7479 N 713.922 1.13953 1.08869 0
M  V30 7480 C 715.333 0.916649 1.62648 0
M  V30 7481 C 715.684 -0.545589 1.88462 0
M  V30 7482 O 714.809 -1.41351 1.63856 0
M  V30 7483 C 715.404 1.65751 2.95486 0
M  V30 7484 C 713.963 1.48034 3.46068 0
M  V30 7485 C 713.11 1.68305 2.20383 0
M  V30 7486 H 716.061 1.292 0.921572 0
M  V30 7487 H 716.082 1.11794 3.63707 0
M  V30 7488 H 715.594 2.72171 2.76667 0
M  V30 7489 H 713.695 0.439416 3.7 0
M  V30 7490 H 713.808 2.24719 4.23129 0
M  V30 7491 H 712.172 1.10833 2.29321 0
M  V30 7492 H 712.955 2.76057 2.04077 0
M  V30 7493 N 715.4 -1.26948 0.933913 0
M  V30 7494 C 716.816 -1.46419 0.635103 0
M  V30 7495 C 717.016 -1.84336 -0.813785 0
M  V30 7496 O 716.072 -1.96061 -1.59111 0
M  V30 7497 C 717.385 -2.55206 1.5903 0
M  V30 7498 C 718.933 -2.69062 1.5992 0
M  V30 7499 C 719.408 -3.81013 2.54152 0
M  V30 7500 N 720.899 -3.88395 2.52395 0
M  V30 7501 C 721.634 -4.74454 3.21996 0
M  V30 7502 N 721.13 -5.64954 4.00997 0
M  V30 7503 N 722.923 -4.68237 3.10983 0
M  V30 7504 H 715.074 -1.00622 1.87053 0
M  V30 7505 H 717.337 -0.503189 0.803433 0
M  V30 7506 H 717.043 -2.34153 2.62422 0
M  V30 7507 H 716.917 -3.52719 1.33677 0
M  V30 7508 H 719.304 -2.89492 0.572569 0
M  V30 7509 H 719.385 -1.72016 1.89325 0
M  V30 7510 H 719.029 -3.61336 3.5693 0
M  V30 7511 H 718.959 -4.77499 2.22041 0
M  V30 7512 H 721.45 -3.23687 1.95025 0
M  V30 7513 H 721.763 -6.27496 4.51074 0
M  V30 7514 H 720.108 -5.6473 4.05099 0
M  V30 7515 H 723.299 -3.96535 2.48753 0
M  V30 7516 H 723.472 -5.35087 3.65494 0
M  V30 7517 N 716.879 -0.700114 -1.41195 0
M  V30 7518 C 718.29 -0.307249 -1.84154 0
M  V30 7519 C 718.641 1.15539 -1.58572 0
M  V30 7520 O 717.766 1.88744 -1.05852 0
M  V30 7521 C 718.361 -0.550872 -3.34292 0
M  V30 7522 C 716.92 -0.211877 -3.75803 0
M  V30 7523 C 716.067 -0.830915 -2.64558 0
M  V30 7524 H 719.018 -0.900431 -1.30683 0
M  V30 7525 H 719.039 0.188954 -3.80031 0
M  V30 7526 H 718.551 -1.61548 -3.5288 0
M  V30 7527 H 716.652 0.848283 -3.62815 0
M  V30 7528 H 716.765 -0.67007 -4.74391 0
M  V30 7529 H 715.129 -0.260155 -2.53368 0
M  V30 7530 H 715.912 -1.89948 -2.85963 0
M  V30 7531 N 718.357 1.51182 -0.445186 0
M  V30 7532 C 719.307 2.24804 0.380394 0
M  V30 7533 C 720.291 1.27344 0.983482 0
M  V30 7534 O 721.483 1.52392 0.900322 0
M  V30 7535 C 718.612 3.09922 1.4766 0
M  V30 7536 C 717.698 4.14816 0.882517 0
M  V30 7537 N 718.089 5.05797 0.0183278 0
M  V30 7538 C 716.387 4.30938 1.14927 0
M  V30 7539 C 717.088 5.8084 -0.316152 0
M  V30 7540 N 716.064 5.42759 0.302214 0
M  V30 7541 H 719.866 2.92508 -0.285737 0
M  V30 7542 H 717.38 1.60342 -0.257733 0
M  V30 7543 H 719.377 3.61249 2.08098 0
M  V30 7544 H 718.037 2.43763 2.14498 0
M  V30 7545 H 719.048 5.16725 -0.348679 0
M  V30 7546 H 715.725 3.76005 1.81457 0
M  V30 7547 H 717.115 6.64115 -1.01986 0
M  V30 7548 N 719.835 0.176821 1.56605 0
M  V30 7549 C 721.251 -0.179278 1.5859 0
M  V30 7550 C 721.451 -1.62433 1.19238 0
M  V30 7551 O 720.507 -2.35665 0.906552 0
M  V30 7552 C 721.82 0.106524 3.00511 0
M  V30 7553 C 723.368 0.0451731 3.12967 0
M  V30 7554 C 723.843 0.304038 4.5699 0
M  V30 7555 N 725.334 0.252008 4.62514 0
M  V30 7556 C 726.069 0.426404 5.71812 0
M  V30 7557 N 725.565 0.660155 6.89648 0
M  V30 7558 N 727.358 0.361926 5.60934 0
M  V30 7559 H 719.509 1.12001 1.8047 0
M  V30 7560 H 721.772 0.445679 0.836704 0
M  V30 7561 H 721.478 1.10778 3.33798 0
M  V30 7562 H 721.352 -0.599337 3.72408 0
M  V30 7563 H 723.739 -0.946662 2.79504 0
M  V30 7564 H 723.82 0.78383 2.43495 0
M  V30 7565 H 723.464 1.29311 4.91163 0
M  V30 7566 H 723.394 -0.455294 5.24628 0
M  V30 7567 H 725.885 0.0772102 3.77821 0
M  V30 7568 H 726.198 0.782529 7.68828 0
M  V30 7569 H 724.543 0.696835 6.91498 0
M  V30 7570 H 727.734 0.17986 4.67754 0
M  V30 7571 H 727.907 0.501263 6.46058 0
M  V30 7572 N 721.313 -1.57302 -0.09688 0
M  V30 7573 C 722.562 -1.85183 -0.799388 0
M  V30 7574 C 722.875 -0.765818 -1.79985 0
M  V30 7575 O 724.081 -0.931696 -2.55013 0
M  V30 7576 C 722.537 -3.28399 -1.47249 0
M  V30 7577 C 722.145 -4.45066 -0.511888 0
M  V30 7578 C 723.889 -3.65506 -2.15883 0
M  V30 7579 C 721.796 -5.79315 -1.18948 0
M  V30 7580 H 720.726 -0.690752 -0.302287 0
M  V30 7581 H 723.377 -1.83425 -0.0523104 0
M  V30 7582 H 721.759 -3.24692 -2.26697 0
M  V30 7583 H 722.933 -4.60116 0.250962 0
M  V30 7584 H 721.248 -4.16343 0.0686576 0
M  V30 7585 H 723.845 -4.63087 -2.67309 0
M  V30 7586 H 724.188 -2.94041 -2.94696 0
M  V30 7587 H 724.721 -3.71094 -1.43298 0
M  V30 7588 H 721.46 -6.54007 -0.442198 0
M  V30 7589 H 720.98 -5.68111 -1.9238 0
M  V30 7590 H 722.659 -6.23816 -1.71646 0
M  V30 7591 N 722.791 0.367657 -1.53252 0
M  V30 7592 C 723.721 1.45632 -1.8252 0
M  V30 7593 C 724.702 1.55979 -0.678568 0
M  V30 7594 O 725.887 1.70581 -0.928217 0
M  V30 7595 C 723.017 2.82994 -2.01325 0
M  V30 7596 C 721.971 2.87473 -3.17086 0
M  V30 7597 C 721.297 4.2749 -3.21179 0
M  V30 7598 C 722.597 2.55182 -4.55719 0
M  V30 7599 H 724.291 1.21387 -2.73689 0
M  V30 7600 H 721.837 0.58251 -1.31692 0
M  V30 7601 H 723.79 3.59179 -2.20383 0
M  V30 7602 H 722.514 3.08622 -1.06864 0
M  V30 7603 H 721.173 2.13739 -2.97844 0
M  V30 7604 H 720.821 4.5019 -2.24361 0
M  V30 7605 H 720.521 4.31403 -3.98955 0
M  V30 7606 H 722.045 5.0555 -3.42419 0
M  V30 7607 H 723.459 3.21081 -4.74953 0
M  V30 7608 H 721.856 2.70414 -5.3572 0
M  V30 7609 H 722.926 1.5044 -4.60973 0
M  V30 7610 N 724.269 1.44576 0.627338 0
M  V30 7611 C 725.201 1.47724 1.75243 0
M  V30 7612 C 726.214 0.370193 1.58535 0
M  V30 7613 O 727.403 0.636151 1.66779 0
M  V30 7614 C 724.503 1.2991 3.13012 0
M  V30 7615 C 723.676 2.5393 3.56143 0
M  V30 7616 C 722.735 2.30961 4.72804 0
M  V30 7617 O 721.761 3.04469 4.80923 0
M  V30 7618 N 722.963 1.34261 5.6476 0
M  V30 7619 H 725.728 2.44718 1.73012 0
M  V30 7620 H 723.289 1.40064 0.812022 0
M  V30 7621 H 725.281 1.12385 3.88782 0
M  V30 7622 H 723.851 0.412668 3.09864 0
M  V30 7623 H 723.071 2.86707 2.70542 0
M  V30 7624 H 724.359 3.36411 3.81713 0
M  V30 7625 H 723.757 0.735573 5.60897 0
M  V30 7626 H 722.314 1.22713 6.40144 0
M  V30 7627 N 725.747 -0.868086 1.31537 0
M  V30 7628 C 726.71 -1.95703 1.19302 0
M  V30 7629 C 727.71 -1.60355 0.119612 0
M  V30 7630 O 728.9 -1.70247 0.36902 0
M  V30 7631 C 726.032 -3.30599 0.831684 0
M  V30 7632 H 727.225 -2.07982 2.16064 0
M  V30 7633 H 724.778 -1.05661 1.15176 0
M  V30 7634 H 725.513 -3.2402 -0.134694 0
M  V30 7635 H 725.298 -3.57629 1.60761 0
M  V30 7636 H 726.788 -4.10439 0.770026 0
M  V30 7637 N 727.225 -1.14528 -1.08264 0
M  V30 7638 C 728.155 -0.856356 -2.1723 0
M  V30 7639 C 729.136 0.189251 -1.69044 0
M  V30 7640 O 730.321 0.0456119 -1.94146 0
M  V30 7641 C 727.451 -0.334662 -3.45684 0
M  V30 7642 C 726.405 -1.31588 -4.0727 0
M  V30 7643 C 725.731 -0.653428 -5.30692 0
M  V30 7644 C 727.031 -2.67866 -4.48381 0
M  V30 7645 H 728.725 -1.76755 -2.41657 0
M  V30 7646 H 726.271 -0.851287 -1.16143 0
M  V30 7647 H 728.224 -0.120128 -4.21229 0
M  V30 7648 H 726.948 0.611967 -3.20815 0
M  V30 7649 H 725.607 -1.51661 -3.33758 0
M  V30 7650 H 725.255 0.299054 -5.0211 0
M  V30 7651 H 724.955 -1.30817 -5.72853 0
M  V30 7652 H 726.479 -0.448453 -6.08951 0
M  V30 7653 H 727.893 -2.51692 -5.15096 0
M  V30 7654 H 726.29 -3.29627 -5.01464 0
M  V30 7655 H 727.36 -3.24632 -3.60198 0
M  V30 7656 N 728.703 1.26451 -0.940633 0
M  V30 7657 C 730.119 1.4608 -0.642859 0
M  V30 7658 C 730.319 1.84765 0.803998 0
M  V30 7659 O 729.375 1.96902 1.58069 0
M  V30 7660 C 730.688 2.54359 -1.60381 0
M  V30 7661 C 732.236 2.6821 -1.61345 0
M  V30 7662 C 732.711 3.79659 -2.56169 0
M  V30 7663 N 734.202 3.87051 -2.54452 0
M  V30 7664 C 734.937 4.72739 -3.24507 0
M  V30 7665 N 734.433 5.6282 -4.03987 0
M  V30 7666 N 736.226 4.66581 -3.13462 0
M  V30 7667 H 728.377 0.996289 -1.87584 0
M  V30 7668 H 730.64 0.498921 -0.80609 0
M  V30 7669 H 730.346 2.32758 -2.6366 0
M  V30 7670 H 730.22 3.52005 -1.35545 0
M  V30 7671 H 732.607 2.89184 -0.587913 0
M  V30 7672 H 732.688 1.7101 -1.90235 0
M  V30 7673 H 732.332 3.59438 -3.58841 0
M  V30 7674 H 732.262 4.76315 -2.2457 0
M  V30 7675 H 734.753 3.22649 -1.96739 0
M  V30 7676 H 735.066 6.25095 -4.54396 0
M  V30 7677 H 733.411 5.62574 -4.08088 0
M  V30 7678 H 736.602 3.9521 -2.50852 0
M  V30 7679 H 736.775 5.33141 -3.68327 0
M  V30 7680 N 730.181 0.707592 1.40822 0
M  V30 7681 C 731.597 0.38034 1.55002 0
M  V30 7682 C 731.797 -1.11163 1.68062 0
M  V30 7683 O 730.853 -1.89761 1.66574 0
M  V30 7684 C 732.166 1.1394 2.78277 0
M  V30 7685 C 733.714 1.12492 2.92087 0
M  V30 7686 C 734.189 1.86597 4.18265 0
M  V30 7687 N 735.68 1.83626 4.25248 0
M  V30 7688 C 736.415 2.37794 5.21768 0
M  V30 7689 N 735.911 3.00485 6.24244 0
M  V30 7690 N 737.704 2.27982 5.13791 0
M  V30 7691 H 729.855 1.67511 1.3059 0
M  V30 7692 H 732.118 0.707579 0.630901 0
M  V30 7693 H 731.824 2.19398 2.74877 0
M  V30 7694 H 731.698 0.725793 3.70151 0
M  V30 7695 H 734.085 0.0785564 2.94995 0
M  V30 7696 H 734.166 1.57768 2.01353 0
M  V30 7697 H 733.81 2.91219 4.16118 0
M  V30 7698 H 733.74 1.38746 5.07993 0
M  V30 7699 H 736.231 1.3793 3.51829 0
M  V30 7700 H 736.544 3.39355 6.94304 0
M  V30 7701 H 734.889 3.04567 6.24711 0
M  V30 7702 H 738.08 1.78669 4.3266 0
M  V30 7703 H 738.253 2.70499 5.88841 0
M  V30 7704 N 731.66 -1.50943 0.453197 0
M  V30 7705 C 732.89 -2.06328 -0.105981 0
M  V30 7706 C 733.298 -1.31909 -1.35634 0
M  V30 7707 O 732.641 -0.376607 -1.79798 0
M  V30 7708 C 732.703 -3.5631 -0.477868 0
M  V30 7709 C 732.367 -4.52093 0.667925 0
M  V30 7710 C 733.364 -4.96421 1.54475 0
M  V30 7711 C 731.049 -4.95001 0.853168 0
M  V30 7712 C 733.043 -5.82346 2.59138 0
M  V30 7713 C 730.73 -5.80713 1.90305 0
M  V30 7714 C 731.728 -6.24284 2.77053 0
M  V30 7715 O 731.416 -7.08291 3.80236 0
M  V30 7716 H 731.148 -0.675986 -0.00427247 0
M  V30 7717 H 733.702 -1.95314 0.635738 0
M  V30 7718 H 731.932 -3.65163 -1.27252 0
M  V30 7719 H 733.621 -3.94138 -0.970039 0
M  V30 7720 H 734.387 -4.63953 1.41324 0
M  V30 7721 H 730.266 -4.60619 0.187482 0
M  V30 7722 H 733.81 -6.16276 3.2688 0
M  V30 7723 H 729.707 -6.12593 2.03469 0
M  V30 7724 H 730.475 -7.26504 3.77007 0
M  V30 7725 N 733.138 -0.185124 -1.56509 0
M  V30 7726 C 734.384 0.456934 -1.97585 0
M  V30 7727 C 734.717 1.61957 -1.07161 0
M  V30 7728 O 733.992 1.9412 -0.121546 0
M  V30 7729 C 734.275 0.926666 -3.47973 0
M  V30 7730 C 734.128 -0.237097 -4.49175 0
M  V30 7731 C 735.447 1.79561 -4.01803 0
M  V30 7732 H 732.566 0.164619 -0.71838 0
M  V30 7733 H 735.208 -0.274039 -1.88013 0
M  V30 7734 H 733.358 1.54954 -3.56261 0
M  V30 7735 H 735.03 -0.87454 -4.52934 0
M  V30 7736 H 733.273 -0.890446 -4.24563 0
M  V30 7737 H 733.944 0.133924 -5.51838 0
M  V30 7738 H 736.42 1.27039 -3.96232 0
M  V30 7739 H 735.296 2.09327 -5.07418 0
M  V30 7740 H 735.557 2.74629 -3.46455 0
M  V30 7741 N 734.616 1.57351 0.0885366 0
M  V30 7742 C 736.032 1.53331 0.442916 0
M  V30 7743 C 736.232 0.902831 1.80142 0
M  V30 7744 O 735.288 0.498147 2.47537 0
M  V30 7745 C 736.601 2.98036 0.399372 0
M  V30 7746 C 738.149 3.09286 0.480759 0
M  V30 7747 C 738.624 4.5561 0.467296 0
M  V30 7748 N 740.115 4.60182 0.52786 0
M  V30 7749 C 740.85 5.70857 0.539388 0
M  V30 7750 N 740.346 6.90944 0.506729 0
M  V30 7751 N 742.139 5.59051 0.584691 0
M  V30 7752 H 734.29 1.96709 -0.801215 0
M  V30 7753 H 736.553 0.899639 -0.298922 0
M  V30 7754 H 736.259 3.47656 -0.531806 0
M  V30 7755 H 736.133 3.57066 1.21589 0
M  V30 7756 H 738.52 2.5965 1.40236 0
M  V30 7757 H 738.601 2.53197 -0.364023 0
M  V30 7758 H 738.245 5.05899 -0.450384 0
M  V30 7759 H 738.175 5.09544 1.32938 0
M  V30 7760 H 740.666 3.73757 0.558028 0
M  V30 7761 H 740.979 7.71055 0.518989 0
M  V30 7762 H 739.324 6.93384 0.473675 0
M  V30 7763 H 742.515 4.64138 0.607781 0
M  V30 7764 H 742.688 6.45307 0.590206 0
M  V30 7765 N 736.094 -0.359525 1.53444 0
M  V30 7766 C 737.057 -1.42357 1.7963 0
M  V30 7767 C 738.057 -1.46319 0.666884 0
M  V30 7768 O 739.247 -1.46974 0.935113 0
M  V30 7769 C 736.379 -2.81425 1.92387 0
M  V30 7770 H 737.572 -1.20409 2.74666 0
M  V30 7771 H 735.125 -0.593007 1.44614 0
M  V30 7772 H 735.86 -3.08679 0.994384 0
M  V30 7773 H 735.645 -2.79947 2.74539 0
M  V30 7774 H 737.135 -3.5847 2.14218 0
M  V30 7775 N 737.572 -1.44907 -0.619662 0
M  V30 7776 C 738.482 -1.55168 -1.75955 0
M  V30 7777 C 739.498 -0.43672 -1.6843 0
M  V30 7778 O 740.674 -0.695704 -1.89002 0
M  V30 7779 C 737.739 -1.50397 -3.12381 0
M  V30 7780 C 736.8 -2.72835 -3.31451 0
M  V30 7781 C 736.033 -2.68283 -4.61368 0
M  V30 7782 O 736.256 -1.74929 -5.42914 0
M  V30 7783 O 735.19 -3.59308 -4.82889 0
M  V30 7784 H 739.016 -2.51493 -1.7025 0
M  V30 7785 H 736.601 -1.27282 -0.782289 0
M  V30 7786 H 738.483 -1.50301 -3.93685 0
M  V30 7787 H 737.158 -0.572197 -3.18603 0
M  V30 7788 H 736.065 -2.78496 -2.49781 0
M  V30 7789 H 737.398 -3.65098 -3.30098 0
M  V30 7790 N 739.05 0.861098 -1.31996 0
M  V30 7791 C 739.998 1.99052 -1.20337 0
M  V30 7792 C 740.992 1.69045 -0.109623 0
M  V30 7793 O 742.198 1.77931 -0.272117 0
M  V30 7794 H 738.573 0.653064 -0.372843 0
M  V30 7795 H 740.544 2.06015 -2.15872 0
M  V30 7796 C 739.293 3.34846 -0.936663 0
M  V30 7797 H 738.616 3.58462 -1.77045 0
M  V30 7798 H 740.056 4.1444 -0.895302 0
M  V30 7799 C 738.515 3.34965 0.360607 0
M  V30 7800 O 739.045 3.7745 1.37456 0
M  V30 7801 N 737.251 2.88101 0.380296 0
M  V30 7802 H 736.798 2.53721 -0.445351 0
M  V30 7803 H 736.756 2.88563 1.24816 0
M  V30 7804 N 740.528 1.15101 1.07655 0
M  V30 7805 C 741.475 0.844958 2.14777 0
M  V30 7806 C 742.445 -0.200798 1.64882 0
M  V30 7807 O 743.63 -0.0690278 1.90675 0
M  V30 7808 C 740.77 0.337018 3.4345 0
M  V30 7809 C 739.883 1.44398 4.07153 0
M  V30 7810 C 739.018 0.892487 5.23649 0
M  V30 7811 C 738.057 1.9766 5.79307 0
M  V30 7812 N 737.194 1.44171 6.87138 0
M  V30 7813 H 742.034 1.76242 2.40297 0
M  V30 7814 H 739.571 0.879435 1.17917 0
M  V30 7815 H 741.529 0.024256 4.17193 0
M  V30 7816 H 740.159 -0.543531 3.18191 0
M  V30 7817 H 739.211 1.87299 3.31094 0
M  V30 7818 H 740.523 2.26262 4.4453 0
M  V30 7819 H 739.677 0.532083 6.04362 0
M  V30 7820 H 738.416 0.0429854 4.87681 0
M  V30 7821 H 737.421 2.34586 4.97242 0
M  V30 7822 H 738.646 2.82982 6.17331 0
M  V30 7823 H 736.592 0.614518 6.53115 0
M  V30 7824 H 736.509 2.19665 7.23383 0
M  V30 7825 H 737.777 1.10945 7.71564 0
M  V30 7826 N 742.006 -1.2595 0.947325 0
M  V30 7827 C 743.283 -1.88676 0.515824 0
M  V30 7828 C 743.663 -1.85547 -1.00675 0
M  V30 7829 O 743.011 -1.31399 -1.8694 0
M  V30 7830 C 743.221 -3.31734 1.08415 0
M  V30 7831 C 744.569 -4.08545 1.15654 0
M  V30 7832 O 745.593 -3.40826 1.03517 0
M  V30 7833 O 744.452 -5.29663 1.34608 0
M  V30 7834 H 741.546 -0.809537 0.169055 0
M  V30 7835 H 744.092 -1.34075 1.04029 0
M  V30 7836 H 742.864 -3.28404 2.1276 0
M  V30 7837 H 742.487 -3.93882 0.542499 0
M  V30 7838 N 743.484 -0.715051 -1.40445 0
M  V30 7839 C 744.9 -0.388555 -1.54798 0
M  V30 7840 C 745.1 1.10271 -1.68649 0
M  V30 7841 O 744.156 1.88875 -1.67578 0
M  V30 7842 C 745.469 -1.15414 -2.77669 0
M  V30 7843 C 747.017 -1.14039 -2.91486 0
M  V30 7844 C 747.492 -1.88812 -4.1727 0
M  V30 7845 N 748.983 -1.85878 -4.24268 0
M  V30 7846 C 749.718 -2.40558 -5.20499 0
M  V30 7847 N 749.214 -3.03791 -6.22642 0
M  V30 7848 N 751.007 -2.30703 -5.12574 0
M  V30 7849 H 743.158 -1.68201 -1.297 0
M  V30 7850 H 745.421 -0.710915 -0.627139 0
M  V30 7851 H 745.127 -2.20853 -2.7371 0
M  V30 7852 H 745.001 -0.745412 -3.69761 0
M  V30 7853 H 747.388 -0.0941996 -2.9495 0
M  V30 7854 H 747.469 -1.58834 -2.00513 0
M  V30 7855 H 747.113 -2.93422 -4.14568 0
M  V30 7856 H 747.043 -1.41438 -5.0725 0
M  V30 7857 H 749.534 -1.39794 -3.51093 0
M  V30 7858 H 749.847 -3.43032 -6.92495 0
M  V30 7859 H 748.192 -3.07875 -6.23087 0
M  V30 7860 H 751.383 -1.80961 -4.31707 0
M  V30 7861 H 751.556 -2.73618 -5.87398 0
M  V30 7862 N 744.962 1.50701 -0.461195 0
M  V30 7863 C 745.892 2.31182 0.328184 0
M  V30 7864 C 746.873 1.37644 0.999408 0
M  V30 7865 O 748.058 1.66565 0.99848 0
M  V30 7866 C 745.188 3.17113 1.41621 0
M  V30 7867 C 744.142 4.19124 0.867148 0
M  V30 7868 C 743.468 4.93728 2.05272 0
M  V30 7869 C 744.768 5.22174 -0.114808 0
M  V30 7870 H 746.462 2.97423 -0.343501 0
M  V30 7871 H 744.008 1.43033 -0.166641 0
M  V30 7872 H 745.961 3.72208 1.97584 0
M  V30 7873 H 744.685 2.48739 2.11652 0
M  V30 7874 H 743.344 3.65116 0.329557 0
M  V30 7875 H 742.992 4.21835 2.73978 0
M  V30 7876 H 742.692 5.62724 1.69161 0
M  V30 7877 H 744.216 5.51654 2.61744 0
M  V30 7878 H 745.63 5.72198 0.355316 0
M  V30 7879 H 744.027 5.98833 -0.389689 0
M  V30 7880 H 745.097 4.7353 -1.04391 0
M  V30 7881 N 746.441 0.193421 1.56409 0
M  V30 7882 C 747.391 -0.74089 2.15627 0
M  V30 7883 C 748.375 -1.17747 1.09656 0
M  V30 7884 O 749.567 -1.13615 1.35723 0
M  V30 7885 C 746.696 -1.96091 2.81786 0
M  V30 7886 C 745.782 -1.54531 3.94944 0
M  V30 7887 N 746.173 -0.840569 4.98767 0
M  V30 7888 C 744.471 -1.83473 4.06514 0
M  V30 7889 C 745.172 -0.632571 5.7825 0
M  V30 7890 N 744.148 -1.18078 5.30621 0
M  V30 7891 H 747.95 -0.193718 2.93261 0
M  V30 7892 H 745.464 -0.00643211 1.62399 0
M  V30 7893 H 747.461 -2.64071 3.22602 0
M  V30 7894 H 746.121 -2.51282 2.05639 0
M  V30 7895 H 747.132 -0.496218 5.15517 0
M  V30 7896 H 743.809 -2.40184 3.41493 0
M  V30 7897 H 745.199 -0.0736433 6.7186 0
M  V30 7898 N 747.919 -1.57396 -0.0801906 0
M  V30 7899 C 749.147 -1.91055 -0.794075 0
M  V30 7900 C 749.562 -0.788583 -1.71542 0
M  V30 7901 O 748.919 0.238587 -1.80934 0
M  V30 7902 C 748.97 -3.24418 -1.59484 0
M  V30 7903 O 748.691 -4.323 -0.710532 0
M  V30 7904 C 750.192 -3.72037 -2.41046 0
M  V30 7905 H 747.412 -0.63171 -0.226238 0
M  V30 7906 H 749.956 -2.04431 -0.0529685 0
M  V30 7907 H 748.111 -3.12595 -2.2883 0
M  V30 7908 H 748.525 -5.08976 -1.26663 0
M  V30 7909 H 749.999 -4.68006 -2.92702 0
M  V30 7910 H 750.476 -3.00624 -3.2019 0
M  V30 7911 H 751.082 -3.86777 -1.76871 0
M  V30 7912 N 749.397 0.351382 -1.53633 0
M  V30 7913 C 750.646 1.08988 -1.69719 0
M  V30 7914 C 750.959 1.90043 -0.462948 0
M  V30 7915 O 752.165 2.66769 -0.504613 0
M  V30 7916 C 750.621 1.98691 -3.00083 0
M  V30 7917 C 750.229 1.22881 -4.30818 0
M  V30 7918 C 751.973 2.72446 -3.25536 0
M  V30 7919 C 749.88 2.11568 -5.52262 0
M  V30 7920 H 748.81 0.410588 -0.632403 0
M  V30 7921 H 751.461 0.349886 -1.80133 0
M  V30 7922 H 749.843 2.76478 -2.83506 0
M  V30 7923 H 751.017 0.500582 -4.58073 0
M  V30 7924 H 749.332 0.60928 -4.11918 0
M  V30 7925 H 751.929 3.39055 -4.13456 0
M  V30 7926 H 752.272 3.38588 -2.42206 0
M  V30 7927 H 752.805 2.01735 -3.42852 0
M  V30 7928 H 749.544 1.4998 -6.38111 0
M  V30 7929 H 749.064 2.82201 -5.29266 0
M  V30 7930 H 750.743 2.70802 -5.87601 0
M  V30 7931 N 750.875 1.45233 0.611969 0
M  V30 7932 C 752.291 1.29542 0.932251 0
M  V30 7933 C 752.491 0.24523 2.00002 0
M  V30 7934 O 751.547 -0.362333 2.49887 0
M  V30 7935 C 752.86 2.67301 1.37733 0
M  V30 7936 C 754.408 2.75163 1.49178 0
M  V30 7937 C 754.883 4.13437 1.97064 0
M  V30 7938 N 756.374 4.15709 2.04304 0
M  V30 7939 C 757.109 5.19566 2.42568 0
M  V30 7940 N 756.605 6.33771 2.79832 0
M  V30 7941 N 758.398 5.06923 2.42869 0
M  V30 7942 H 750.549 2.12192 -0.0938679 0
M  V30 7943 H 752.812 0.947775 0.0206569 0
M  V30 7944 H 752.518 3.45318 0.666951 0
M  V30 7945 H 752.392 2.95472 2.3447 0
M  V30 7946 H 754.779 1.97453 2.19309 0
M  V30 7947 H 754.86 2.50712 0.507674 0
M  V30 7948 H 754.504 4.91631 1.27521 0
M  V30 7949 H 754.434 4.35277 2.9638 0
M  V30 7950 H 756.925 3.33293 1.78113 0
M  V30 7951 H 757.238 7.08815 3.07898 0
M  V30 7952 H 755.583 6.37179 2.77538 0
M  V30 7953 H 758.774 4.1675 2.1316 0
M  V30 7954 H 758.947 5.87981 2.72364 0
M  V30 7955 N 752.353 -0.854086 1.3245 0
M  V30 7956 C 753.303 -1.9508 1.18016 0
M  V30 7957 C 754.287 -1.60665 0.0869417 0
M  V30 7958 O 755.479 -1.74201 0.313505 0
M  V30 7959 C 752.608 -3.3113 0.905961 0
M  V30 7960 C 751.694 -3.71763 2.04091 0
M  V30 7961 N 752.085 -3.84218 3.28953 0
M  V30 7962 C 750.383 -4.01393 1.94421 0
M  V30 7963 C 751.084 -4.192 4.03294 0
M  V30 7964 N 750.06 -4.30749 3.31596 0
M  V30 7965 H 753.862 -2.02843 2.12678 0
M  V30 7966 H 751.376 -1.04588 1.24238 0
M  V30 7967 H 753.373 -4.09471 0.783508 0
M  V30 7968 H 752.033 -3.24684 -0.0322715 0
M  V30 7969 H 753.044 -3.68524 3.63883 0
M  V30 7970 H 749.721 -4.03246 1.08162 0
M  V30 7971 H 751.111 -4.36301 5.1097 0
M  V30 7972 N 753.831 -1.1567 -1.07043 0
M  V30 7973 C 755.061 -0.956083 -1.83146 0
M  V30 7974 C 755.469 0.498969 -1.82502 0
M  V30 7975 O 754.812 1.35791 -1.23719 0
M  V30 7976 C 754.874 -1.39704 -3.31245 0
M  V30 7977 C 754.538 -2.87045 -3.55604 0
M  V30 7978 C 755.535 -3.85092 -3.49285 0
M  V30 7979 C 753.22 -3.24787 -3.8317 0
M  V30 7980 C 755.214 -5.18885 -3.70185 0
M  V30 7981 C 752.901 -4.58751 -4.03721 0
M  V30 7982 C 753.899 -5.55609 -3.97224 0
M  V30 7983 O 753.587 -6.87154 -4.17223 0
M  V30 7984 H 753.319 -0.339473 -0.58458 0
M  V30 7985 H 755.873 -1.53922 -1.36005 0
M  V30 7986 H 754.103 -0.757326 -3.79212 0
M  V30 7987 H 755.792 -1.16503 -3.88821 0
M  V30 7988 H 756.558 -3.5728 -3.27988 0
M  V30 7989 H 752.437 -2.49979 -3.87339 0
M  V30 7990 H 755.981 -5.94473 -3.6503 0
M  V30 7991 H 751.878 -4.86277 -4.24505 0
M  V30 7992 H 752.646 -6.93618 -4.34553 0
M  V30 7993 N 755.309 1.25446 -0.953992 0
M  V30 7994 C 756.241 2.25111 -0.431004 0
M  V30 7995 C 757.254 1.56377 0.452764 0
M  V30 7996 O 758.443 1.76579 0.261144 0
M  V30 7997 C 755.543 3.3655 0.39839 0
M  V30 7998 C 754.716 4.34843 -0.472229 0
M  V30 7999 C 753.775 5.25351 0.29886 0
M  V30 8000 O 752.801 5.68396 -0.302522 0
M  V30 8001 N 754.003 5.5824 1.59211 0
M  V30 8002 H 756.768 2.70619 -1.28785 0
M  V30 8003 H 754.329 1.39346 -0.824281 0
M  V30 8004 H 756.321 3.94059 0.921941 0
M  V30 8005 H 754.891 2.90436 1.15609 0
M  V30 8006 H 754.111 3.76222 -1.17689 0
M  V30 8007 H 755.399 4.97497 -1.06648 0
M  V30 8008 H 754.797 5.25172 2.10264 0
M  V30 8009 H 753.354 6.18336 2.06164 0
M  V30 8010 N 756.787 0.722489 1.40064 0
M  V30 8011 C 757.737 0.0506801 2.27944 0
M  V30 8012 C 758.721 -0.725493 1.43615 0
M  V30 8013 O 759.913 -0.596559 1.66644 0
M  V30 8014 C 757.042 -0.865195 3.32219 0
M  V30 8015 C 756.128 -0.0838393 4.24017 0
M  V30 8016 N 756.519 0.936516 4.97054 0
M  V30 8017 C 754.817 -0.315371 4.44884 0
M  V30 8018 C 755.518 1.4066 5.64437 0
M  V30 8019 N 754.494 0.727485 5.3871 0
M  V30 8020 H 758.296 0.832609 2.8186 0
M  V30 8021 H 755.81 0.555691 1.52597 0
M  V30 8022 H 757.807 -1.36186 3.94029 0
M  V30 8023 H 756.467 -1.64642 2.79862 0
M  V30 8024 H 757.478 1.31755 5.0086 0
M  V30 8025 H 754.155 -1.07238 4.03492 0
M  V30 8026 H 755.545 2.25482 6.32936 0
M  V30 8027 N 758.265 -1.50454 0.469181 0
M  V30 8028 C 759.511 -2.02615 -0.0865971 0
M  V30 8029 C 759.844 -1.35062 -1.39542 0
M  V30 8030 O 759.119 -0.475701 -1.88593 0
M  V30 8031 C 759.402 -3.59068 -0.272385 0
M  V30 8032 C 759.255 -4.37196 1.05733 0
M  V30 8033 C 760.574 -4.2793 -1.0278 0
M  V30 8034 H 757.693 -0.736389 -0.0299977 0
M  V30 8035 H 760.335 -1.79792 0.614399 0
M  V30 8036 H 758.485 -3.78646 -0.869471 0
M  V30 8037 H 760.157 -4.29195 1.69084 0
M  V30 8038 H 758.4 -4.01013 1.65442 0
M  V30 8039 H 759.071 -5.44924 0.880997 0
M  V30 8040 H 761.547 -4.12816 -0.521718 0
M  V30 8041 H 760.423 -5.37214 -1.12659 0
M  V30 8042 H 760.684 -3.90968 -2.0639 0
M  V30 8043 N 759.743 -0.201713 -1.56304 0
M  V30 8044 C 760.673 0.71155 -2.22394 0
M  V30 8045 C 761.654 1.21625 -1.18917 0
M  V30 8046 O 762.839 1.26388 -1.47444 0
M  V30 8047 C 759.969 1.92837 -2.88845 0
M  V30 8048 C 758.923 1.55831 -3.98623 0
M  V30 8049 C 758.249 2.85228 -4.52271 0
M  V30 8050 C 759.549 0.763249 -5.16693 0
M  V30 8051 H 761.243 0.160573 -2.98969 0
M  V30 8052 H 758.789 0.0757916 -1.438 0
M  V30 8053 H 760.742 2.57253 -3.33764 0
M  V30 8054 H 759.466 2.50398 -2.09686 0
M  V30 8055 H 758.125 0.9377 -3.54405 0
M  V30 8056 H 757.773 3.40893 -3.69866 0
M  V30 8057 H 757.473 2.6121 -5.26349 0
M  V30 8058 H 758.997 3.50622 -4.99897 0
M  V30 8059 H 760.411 1.31066 -5.58117 0
M  V30 8060 H 758.808 0.620935 -5.96879 0
M  V30 8061 H 759.878 -0.234322 -4.84334 0
M  V30 8062 N 761.222 1.57436 0.0718424 0
M  V30 8063 C 762.185 2.02703 1.06977 0
M  V30 8064 C 763.185 0.924062 1.31597 0
M  V30 8065 O 764.375 1.18894 1.27318 0
M  V30 8066 C 761.507 2.40763 2.41342 0
M  V30 8067 H 762.7 2.92098 0.679619 0
M  V30 8068 H 760.253 1.5304 0.317565 0
M  V30 8069 H 760.988 1.54394 2.8519 0
M  V30 8070 H 760.773 3.21249 2.24814 0
M  V30 8071 H 762.263 2.76361 3.13073 0
M  V30 8072 N 762.7 -0.34323 1.53817 0
M  V30 8073 C 763.946 -1.08504 1.71332 0
M  V30 8074 C 764.279 -1.88294 0.475285 0
M  V30 8075 O 763.554 -1.87205 -0.527688 0
M  V30 8076 C 763.837 -2.02597 2.97702 0
M  V30 8077 C 763.69 -1.26268 4.31713 0
M  V30 8078 C 765.009 -3.0241 3.19744 0
M  V30 8079 H 762.128 -0.393072 0.623429 0
M  V30 8080 H 764.77 -0.363579 1.86489 0
M  V30 8081 H 762.92 -2.64118 2.8491 0
M  V30 8082 H 764.592 -0.673594 4.56356 0
M  V30 8083 H 762.835 -0.564696 4.30109 0
M  V30 8084 H 763.506 -1.95253 5.16314 0
M  V30 8085 H 765.982 -2.51004 3.31868 0
M  V30 8086 H 764.858 -3.65449 4.09558 0
M  V30 8087 H 765.119 -3.73806 2.36054 0
M  V30 8088 N 764.178 -1.45556 -0.604258 0
M  V30 8089 C 765.455 -1.40221 -1.36373 0
M  V30 8090 C 765.835 -0.0745195 -2.10968 0
M  V30 8091 O 765.183 0.943594 -2.08107 0
M  V30 8092 C 765.393 -2.61807 -2.30777 0
M  V30 8093 C 766.741 -3.07037 -2.93281 0
M  V30 8094 O 767.765 -2.62203 -2.41097 0
M  V30 8095 O 766.624 -3.8485 -3.88011 0
M  V30 8096 H 763.718 -0.556602 -0.611656 0
M  V30 8097 H 766.264 -1.57689 -0.627069 0
M  V30 8098 H 765.036 -3.50017 -1.74939 0
M  V30 8099 H 764.659 -2.46688 -3.11818 0
M  V30 8100 N 765.656 0.84705 -1.32902 0
M  V30 8101 C 767.067 1.41785 -1.21466 0
M  V30 8102 C 767.418 1.95464 0.169767 0
M  V30 8103 O 766.543 1.88157 1.06892 0
M  V30 8104 C 767.138 2.57734 -2.19906 0
M  V30 8105 C 765.697 3.10791 -2.12334 0
M  V30 8106 C 764.844 1.83562 -2.07847 0
M  V30 8107 H 767.795 0.653532 -1.44619 0
M  V30 8108 H 767.816 3.35123 -1.80202 0
M  V30 8109 H 767.328 2.18635 -3.20656 0
M  V30 8110 H 765.429 3.54455 -1.14858 0
M  V30 8111 H 765.542 3.71519 -3.02506 0
M  V30 8112 H 763.906 2.03475 -1.53199 0
M  V30 8113 H 764.689 1.4667 -3.10392 0
M  V30 8114 N 767.134 1.16236 1.06428 0
M  V30 8115 C 768.044 0.881976 2.1739 0
M  V30 8116 C 769.06 -0.145259 1.73393 0
M  V30 8117 O 770.236 0.0310558 2.01376 0
M  V30 8118 C 767.301 0.385496 3.4455 0
M  V30 8119 C 766.362 1.47779 4.03063 0
M  V30 8120 C 765.595 1.0049 5.24154 0
M  V30 8121 O 765.818 -0.145889 5.70213 0
M  V30 8122 O 764.752 1.79265 5.74585 0
M  V30 8123 H 768.578 1.80983 2.43883 0
M  V30 8124 H 766.163 0.942226 1.15942 0
M  V30 8125 H 768.045 0.115536 4.21242 0
M  V30 8126 H 766.72 -0.514369 3.19587 0
M  V30 8127 H 765.627 1.80147 3.27869 0
M  V30 8128 H 766.96 2.35291 4.32318 0
M  V30 8129 N 768.612 -1.24939 0.960631 0
M  V30 8130 C 769.559 -2.25658 0.484459 0
M  V30 8131 C 770.529 -1.59422 -0.466242 0
M  V30 8132 O 771.714 -1.87015 -0.378169 0
M  V30 8133 C 768.854 -3.44359 -0.225958 0
M  V30 8134 C 767.967 -4.25214 0.762682 0
M  V30 8135 C 767.102 -5.31192 0.0290931 0
M  V30 8136 C 766.141 -6.03739 1.00827 0
M  V30 8137 N 765.278 -7.01437 0.305155 0
M  V30 8138 H 770.118 -2.65758 1.34821 0
M  V30 8139 H 767.655 -1.30648 0.675983 0
M  V30 8140 H 769.613 -4.12035 -0.654472 0
M  V30 8141 H 768.243 -3.05118 -1.05371 0
M  V30 8142 H 767.295 -3.57144 1.30966 0
M  V30 8143 H 768.607 -4.75406 1.50964 0
M  V30 8144 H 767.761 -6.04971 -0.457763 0
M  V30 8145 H 766.5 -4.81889 -0.750614 0
M  V30 8146 H 765.505 -5.2877 1.50607 0
M  V30 8147 H 766.73 -6.55131 1.7883 0
M  V30 8148 H 764.676 -6.54415 -0.455704 0
M  V30 8149 H 764.593 -7.49475 0.991104 0
M  V30 8150 H 765.861 -7.79336 -0.159966 0
M  V30 8151 N 770.09 -0.729906 -1.39679 0
M  V30 8152 C 771.053 -0.0951668 -2.29002 0
M  V30 8153 C 772.053 0.672471 -1.46063 0
M  V30 8154 O 773.243 0.502245 -1.66803 0
M  V30 8155 C 770.375 0.874631 -3.29489 0
M  V30 8156 H 771.568 -0.882062 -2.86635 0
M  V30 8157 H 769.121 -0.495424 -1.4824 0
M  V30 8158 H 769.856 1.68807 -2.76902 0
M  V30 8159 H 769.641 0.326893 -3.90735 0
M  V30 8160 H 771.131 1.31548 -3.96339 0
M  V30 8161 N 771.568 1.50203 -0.477153 0
M  V30 8162 C 772.531 2.27194 0.302599 0
M  V30 8163 C 773.531 1.32221 0.915112 0
M  V30 8164 O 774.721 1.55593 0.783348 0
M  V30 8165 C 771.853 3.0938 1.43167 0
M  V30 8166 H 773.046 2.97575 -0.372678 0
M  V30 8167 H 770.599 1.54578 -0.231392 0
M  V30 8168 H 771.334 2.43509 2.14182 0
M  V30 8169 H 771.119 3.79181 0.998197 0
M  V30 8170 H 772.609 3.67592 1.98157 0
M  V30 8171 N 773.046 0.209999 1.56195 0
M  V30 8172 C 773.978 -0.736967 2.17029 0
M  V30 8173 C 774.991 -1.16599 1.13616 0
M  V30 8174 O 776.18 -1.09914 1.40646 0
M  V30 8175 C 773.28 -2.00852 2.72969 0
M  V30 8176 C 772.453 -1.73691 4.01435 0
M  V30 8177 C 771.512 -2.85439 4.42053 0
M  V30 8178 O 770.538 -2.54405 5.09183 0
M  V30 8179 N 771.74 -4.14135 4.06783 0
M  V30 8180 H 774.505 -0.216656 2.98916 0
M  V30 8181 H 772.066 0.0285672 1.61875 0
M  V30 8182 H 774.058 -2.74778 2.97118 0
M  V30 8183 H 772.628 -2.43963 1.95451 0
M  V30 8184 H 771.848 -0.834676 3.85262 0
M  V30 8185 H 773.136 -1.52961 4.85263 0
M  V30 8186 H 772.534 -4.42196 3.52816 0
M  V30 8187 H 771.091 -4.84642 4.35851 0
M  V30 8188 N 774.524 -1.57472 -0.0634922 0
M  V30 8189 C 775.457 -1.99571 -1.10664 0
M  V30 8190 C 776.435 -0.874015 -1.37112 0
M  V30 8191 O 777.619 -1.13702 -1.50347 0
M  V30 8192 C 774.746 -2.3395 -2.44918 0
M  V30 8193 C 773.792 -3.56213 -2.34551 0
M  V30 8194 S 774.625 -5.06727 -1.73169 0
M  V30 8195 C 775.781 -5.44316 -3.08984 0
M  V30 8196 H 776.014 -2.87739 -0.747905 0
M  V30 8197 H 773.547 -1.5198 -0.272316 0
M  V30 8198 H 775.505 -2.54431 -3.22141 0
M  V30 8199 H 774.166 -1.46297 -2.7795 0
M  V30 8200 H 773.359 -3.77812 -3.33578 0
M  V30 8201 H 772.961 -3.35406 -1.65466 0
M  V30 8202 H 775.253 -5.42894 -4.05305 0
M  V30 8203 H 776.196 -6.4502 -2.92156 0
M  V30 8204 H 776.604 -4.71781 -3.09972 0
M  V30 8205 N 776.003 0.335068 -1.53997 0
M  V30 8206 C 776.95 1.41187 -1.82579 0
M  V30 8207 C 777.92 1.51897 -0.672061 0
M  V30 8208 O 779.105 1.673 -0.917346 0
M  V30 8209 C 776.245 2.77717 -2.0486 0
M  V30 8210 C 775.358 2.7573 -3.32561 0
M  V30 8211 C 774.493 4.04032 -3.44864 0
M  V30 8212 C 773.532 3.96308 -4.66483 0
M  V30 8213 N 772.669 5.16317 -4.75774 0
M  V30 8214 H 777.509 1.16113 -2.74448 0
M  V30 8215 H 775.046 0.562305 -1.35928 0
M  V30 8216 H 777.004 3.57071 -2.15768 0
M  V30 8217 H 775.634 3.01124 -1.16294 0
M  V30 8218 H 774.686 1.88432 -3.3045 0
M  V30 8219 H 775.998 2.65902 -4.22016 0
M  V30 8220 H 775.152 4.91814 -3.55251 0
M  V30 8221 H 773.891 4.16652 -2.53481 0
M  V30 8222 H 772.896 3.06911 -4.56164 0
M  V30 8223 H 774.121 3.85263 -5.5924 0
M  V30 8224 H 772.067 5.29464 -3.87303 0
M  V30 8225 H 771.984 5.08779 -5.59178 0
M  V30 8226 H 773.252 6.05846 -4.9048 0
M  V30 8227 N 777.481 1.45874 0.596531 0
M  V30 8228 C 778.706 1.54247 1.38646 0
M  V30 8229 C 779.131 0.179571 1.87241 0
M  V30 8230 O 778.489 -0.837831 1.6078 0
M  V30 8231 C 778.537 2.54015 2.55946 0
M  V30 8232 O 777.641 2.06561 3.5694 0
M  V30 8233 H 776.982 0.519555 0.413471 0
M  V30 8234 H 779.512 1.91327 0.724936 0
M  V30 8235 H 779.522 2.73179 3.03047 0
M  V30 8236 H 778.197 3.52994 2.19928 0
M  V30 8237 H 776.774 1.97324 3.16414 0
M  V30 8238 N 778.959 -0.83999 1.33349 0
M  V30 8239 C 779.891 -1.95678 1.19344 0
M  V30 8240 C 780.904 -1.62322 0.124692 0
M  V30 8241 O 782.093 -1.74516 0.375012 0
M  V30 8242 C 779.193 -3.29133 0.807771 0
M  V30 8243 C 778.366 -3.9063 1.96792 0
M  V30 8244 C 777.425 -5.02438 1.56341 0
M  V30 8245 O 776.451 -5.21646 2.27759 0
M  V30 8246 N 777.653 -5.78612 0.467767 0
M  V30 8247 H 780.418 -2.08229 2.15548 0
M  V30 8248 H 777.979 -1.01566 1.26079 0
M  V30 8249 H 779.971 -4.01355 0.519282 0
M  V30 8250 H 778.541 -3.12535 -0.063555 0
M  V30 8251 H 777.761 -3.11011 2.4221 0
M  V30 8252 H 779.049 -4.2845 2.74422 0
M  V30 8253 H 778.447 -5.65559 -0.126324 0
M  V30 8254 H 777.004 -6.51362 0.238945 0
M  V30 8255 N 780.437 -1.16799 -1.0581 0
M  V30 8256 C 781.683 -0.953935 -1.78963 0
M  V30 8257 C 782.016 0.516638 -1.87202 0
M  V30 8258 O 781.291 1.38338 -1.36721 0
M  V30 8259 C 781.574 -1.58808 -3.23191 0
M  V30 8260 C 781.427 -3.13032 -3.23003 0
M  V30 8261 C 782.746 -1.2868 -4.20867 0
M  V30 8262 H 779.865 -0.347972 -0.64968 0
M  V30 8263 H 782.507 -1.44204 -1.23715 0
M  V30 8264 H 780.657 -1.17303 -3.70368 0
M  V30 8265 H 782.329 -3.63553 -2.83949 0
M  V30 8266 H 780.572 -3.46108 -2.61518 0
M  V30 8267 H 781.243 -3.52527 -4.24769 0
M  V30 8268 H 783.719 -1.6461 -3.82155 0
M  V30 8269 H 782.595 -1.75645 -5.20038 0
M  V30 8270 H 782.856 -0.206491 -4.41618 0
M  V30 8271 N 781.915 1.24427 -0.967243 0
M  V30 8272 C 782.848 2.23885 -0.441683 0
M  V30 8273 C 783.826 1.55231 0.483963 0
M  V30 8274 O 785.01 1.83865 0.415445 0
M  V30 8275 C 782.137 3.36755 0.362458 0
M  V30 8276 C 781.183 4.23495 -0.505407 0
M  V30 8277 S 782.016 4.98916 -1.94534 0
M  V30 8278 C 783.172 6.15245 -1.14997 0
M  V30 8279 H 783.405 2.68118 -1.28453 0
M  V30 8280 H 780.938 1.337 -0.772243 0
M  V30 8281 H 782.896 4.02218 0.820445 0
M  V30 8282 H 781.557 2.91081 1.18027 0
M  V30 8283 H 780.75 5.03876 0.111979 0
M  V30 8284 H 780.352 3.63032 -0.899104 0
M  V30 8285 H 782.644 6.7629 -0.404769 0
M  V30 8286 H 783.587 6.81343 -1.92814 0
M  V30 8287 H 783.995 5.60455 -0.674543 0
M  V30 8288 N 783.393 0.737304 1.3929 0
M  V30 8289 C 784.621 0.296573 2.04763 0
M  V30 8290 C 785.036 -1.06941 1.55592 0
M  V30 8291 O 784.393 -1.67619 0.721822 0
M  V30 8292 C 784.444 0.291906 3.6032 0
M  V30 8293 O 784.165 1.60397 4.07682 0
M  V30 8294 C 785.666 -0.164708 4.42994 0
M  V30 8295 H 782.886 0.129251 0.658434 0
M  V30 8296 H 785.43 1.0016 1.78293 0
M  V30 8297 H 783.585 -0.364251 3.85684 0
M  V30 8298 H 783.999 1.51909 5.0202 0
M  V30 8299 H 785.473 -0.116814 5.51876 0
M  V30 8300 H 785.95 -1.21022 4.22197 0
M  V30 8301 H 786.556 0.461968 4.22784 0
M  V30 8302 N 784.871 -1.49948 0.485112 0
M  V30 8303 C 785.821 -2.25734 -0.320658 0
M  V30 8304 C 786.805 -1.29907 -0.949373 0
M  V30 8305 O 787.997 -1.54725 -0.859601 0
M  V30 8306 C 785.126 -3.13728 -1.39391 0
M  V30 8307 C 784.212 -4.1701 -0.772225 0
M  V30 8308 N 784.603 -5.05667 0.115782 0
M  V30 8309 C 782.901 -4.33834 -1.03461 0
M  V30 8310 C 783.602 -5.79798 0.47004 0
M  V30 8311 N 782.578 -5.4337 -0.158204 0
M  V30 8312 H 786.38 -2.91647 0.36319 0
M  V30 8313 H 783.894 -1.59602 0.300154 0
M  V30 8314 H 785.891 -3.66639 -1.98447 0
M  V30 8315 H 784.551 -2.49365 -2.0796 0
M  V30 8316 H 785.562 -5.15619 0.485557 0
M  V30 8317 H 782.239 -3.80684 -1.71424 0
M  V30 8318 H 783.629 -6.61177 1.19558 0
M  V30 8319 N 786.349 -0.21828 -1.56081 0
M  V30 8320 C 787.279 0.687922 -2.23136 0
M  V30 8321 C 788.26 1.20357 -1.202 0
M  V30 8322 O 789.445 1.24817 -1.48776 0
M  V30 8323 C 786.575 1.89762 -2.90874 0
M  V30 8324 C 785.529 1.51595 -4.00254 0
M  V30 8325 C 784.855 2.80415 -4.55271 0
M  V30 8326 C 786.155 0.708404 -5.17474 0
M  V30 8327 H 787.849 0.128854 -2.99123 0
M  V30 8328 H 785.395 0.0605354 -1.43873 0
M  V30 8329 H 787.348 2.53699 -3.36474 0
M  V30 8330 H 786.072 2.4816 -2.1233 0
M  V30 8331 H 784.731 0.900058 -3.55379 0
M  V30 8332 H 784.379 3.36951 -3.73461 0
M  V30 8333 H 784.079 2.55613 -5.2909 0
M  V30 8334 H 785.603 3.453 -5.03587 0
M  V30 8335 H 787.017 1.2514 -5.59476 0
M  V30 8336 H 785.414 0.557593 -5.97504 0
M  V30 8337 H 786.484 -0.285679 -4.84058 0
M  V30 8338 N 787.827 1.57504 0.0551401 0
M  V30 8339 C 788.777 2.0128 1.071 0
M  V30 8340 C 789.761 0.897592 1.33537 0
M  V30 8341 O 790.953 1.16151 1.33558 0
M  V30 8342 C 788.082 2.47414 2.37994 0
M  V30 8343 C 787.168 3.65703 2.14761 0
M  V30 8344 N 787.559 4.79323 1.61504 0
M  V30 8345 C 785.857 3.72574 2.45162 0
M  V30 8346 C 786.558 5.61089 1.53472 0
M  V30 8347 N 785.534 5.05426 2.00114 0
M  V30 8348 H 789.336 2.86558 0.652829 0
M  V30 8349 H 786.85 1.60274 0.26193 0
M  V30 8350 H 788.847 2.77023 3.11551 0
M  V30 8351 H 787.507 1.6353 2.80514 0
M  V30 8352 H 788.518 5.01284 1.30134 0
M  V30 8353 H 785.195 2.99439 2.90934 0
M  V30 8354 H 786.585 6.62328 1.13008 0
M  V30 8355 N 789.305 -0.326896 1.54172 0
M  V30 8356 C 790.551 -1.06681 1.72473 0
M  V30 8357 C 790.884 -1.87779 0.49523 0
M  V30 8358 O 790.159 -1.87754 -0.507803 0
M  V30 8359 C 790.442 -1.99429 2.99834 0
M  V30 8360 C 790.295 -1.21682 4.33028 0
M  V30 8361 C 791.614 -2.99002 3.22933 0
M  V30 8362 H 788.733 -0.386438 0.627563 0
M  V30 8363 H 791.375 -0.343779 1.86864 0
M  V30 8364 H 789.525 -2.61081 2.87696 0
M  V30 8365 H 791.197 -0.625153 4.57044 0
M  V30 8366 H 789.44 -0.519045 4.30684 0
M  V30 8367 H 790.111 -1.89766 5.18356 0
M  V30 8368 H 792.587 -2.4747 3.34511 0
M  V30 8369 H 791.463 -3.61085 4.13412 0
M  V30 8370 H 791.724 -3.71281 2.40006 0
M  V30 8371 N 790.784 -1.46188 -0.588786 0
M  V30 8372 C 792.033 -1.50452 -1.34339 0
M  V30 8373 C 792.346 -0.158096 -1.9496 0
M  V30 8374 O 793.552 -0.0784918 -2.71387 0
M  V30 8375 C 792.008 -2.65074 -2.43441 0
M  V30 8376 C 791.616 -4.06111 -1.8915 0
M  V30 8377 C 793.36 -2.78603 -3.20282 0
M  V30 8378 C 791.267 -5.12084 -2.95845 0
M  V30 8379 H 790.197 -0.559905 -0.504997 0
M  V30 8380 H 792.848 -1.72382 -0.629014 0
M  V30 8381 H 791.23 -2.36462 -3.1765 0
M  V30 8382 H 792.404 -4.44487 -1.21524 0
M  V30 8383 H 790.719 -3.97197 -1.24995 0
M  V30 8384 H 793.316 -3.54944 -3.99898 0
M  V30 8385 H 793.659 -1.85902 -3.72486 0
M  V30 8386 H 794.192 -3.06832 -2.53178 0
M  V30 8387 H 790.931 -6.06556 -2.48535 0
M  V30 8388 H 790.451 -4.78259 -3.61979 0
M  V30 8389 H 792.13 -5.37661 -3.59902 0
M  V30 8390 N 792.262 0.832906 -1.33792 0
M  V30 8391 C 793.172 1.97514 -1.26592 0
M  V30 8392 C 794.188 1.73114 -0.175391 0
M  V30 8393 O 795.364 1.97387 -0.400062 0
M  V30 8394 C 792.429 3.31625 -1.01121 0
M  V30 8395 C 791.49 3.69101 -2.19233 0
M  V30 8396 C 790.723 4.96813 -1.94968 0
M  V30 8397 O 790.946 5.63208 -0.902955 0
M  V30 8398 O 789.88 5.31932 -2.8166 0
M  V30 8399 H 793.706 2.0653 -2.22664 0
M  V30 8400 H 791.291 0.966826 -1.13898 0
M  V30 8401 H 793.173 4.11968 -0.886571 0
M  V30 8402 H 791.848 3.23599 -0.080822 0
M  V30 8403 H 790.755 2.89243 -2.37253 0
M  V30 8404 H 792.088 3.818 -3.10628 0
M  V30 8405 N 793.74 1.17359 1.05189 0
M  V30 8406 C 794.65 0.904984 2.16442 0
M  V30 8407 C 795.666 -0.12686 1.73537 0
M  V30 8408 O 796.842 0.0524127 2.01332 0
M  V30 8409 C 793.907 0.422019 3.44122 0
M  V30 8410 C 792.968 1.52045 4.01473 0
M  V30 8411 C 792.201 1.06044 5.23059 0
M  V30 8412 O 792.424 -0.0854023 5.70336 0
M  V30 8413 O 791.358 1.85349 5.72651 0
M  V30 8414 H 795.184 1.8356 2.41949 0
M  V30 8415 H 792.769 0.95447 1.14936 0
M  V30 8416 H 794.651 0.160208 4.21095 0
M  V30 8417 H 793.326 -0.480444 3.20115 0
M  V30 8418 H 792.233 1.83615 3.25939 0
M  V30 8419 H 793.566 2.39863 4.29798 0
M  V30 8420 N 795.218 -1.23913 0.973828 0
M  V30 8421 C 796.634 -1.44325 0.681363 0
M  V30 8422 C 796.834 -1.86832 -0.754728 0
M  V30 8423 O 795.89 -2.01024 -1.52793 0
M  V30 8424 C 797.203 -2.50017 1.67069 0
M  V30 8425 C 798.751 -2.63838 1.68399 0
M  V30 8426 C 799.226 -3.72734 2.66145 0
M  V30 8427 N 800.717 -3.80169 2.64624 0
M  V30 8428 C 801.452 -4.6397 3.36927 0
M  V30 8429 N 800.948 -5.51911 4.18767 0
M  V30 8430 N 802.741 -4.58106 3.25722 0
M  V30 8431 H 794.892 -0.946204 1.9016 0
M  V30 8432 H 797.155 -0.477374 0.819035 0
M  V30 8433 H 796.861 -2.25686 2.69738 0
M  V30 8434 H 796.735 -3.48287 1.4483 0
M  V30 8435 H 799.122 -2.87524 0.664379 0
M  V30 8436 H 799.203 -1.65906 1.94702 0
M  V30 8437 H 798.847 -3.49797 3.68245 0
M  V30 8438 H 798.777 -4.70193 2.3712 0
M  V30 8439 H 801.268 -3.17319 2.05224 0
M  V30 8440 H 801.581 -6.12828 4.70809 0
M  V30 8441 H 799.926 -5.51556 4.2286 0
M  V30 8442 H 803.117 -3.8842 2.61242 0
M  V30 8443 H 803.29 -5.23188 3.82333 0
M  V30 8444 N 796.696 -0.74468 -1.38897 0
M  V30 8445 C 798.112 -0.421302 -1.53939 0
M  V30 8446 C 798.312 1.06668 -1.70951 0
M  V30 8447 O 797.368 1.85278 -1.71547 0
M  V30 8448 C 798.681 -1.21278 -2.75159 0
M  V30 8449 C 800.229 -1.20196 -2.89001 0
M  V30 8450 C 800.704 -1.97621 -4.13171 0
M  V30 8451 N 802.195 -1.94836 -4.2023 0
M  V30 8452 C 802.93 -2.51545 -5.15279 0
M  V30 8453 N 802.426 -3.1693 -6.16058 0
M  V30 8454 N 804.219 -2.41524 -5.07565 0
M  V30 8455 H 796.37 -1.70914 -1.26103 0
M  V30 8456 H 798.633 -0.724058 -0.611919 0
M  V30 8457 H 798.339 -2.26609 -2.68963 0
M  V30 8458 H 798.213 -0.823677 -3.68097 0
M  V30 8459 H 800.6 -0.156742 -2.94683 0
M  V30 8460 H 800.681 -1.63051 -1.97099 0
M  V30 8461 H 800.325 -3.02149 -4.0825 0
M  V30 8462 H 800.255 -1.52166 -5.04136 0
M  V30 8463 H 802.746 -1.4721 -3.48048 0
M  V30 8464 H 803.059 -3.57644 -6.85062 0
M  V30 8465 H 801.404 -3.21023 -6.16417 0
M  V30 8466 H 804.595 -1.90077 -4.27771 0
M  V30 8467 H 804.768 -2.86016 -5.81462 0
M  V30 8468 N 798.174 1.49689 -0.493057 0
M  V30 8469 C 799.122 2.30613 0.303383 0
M  V30 8470 C 800.116 1.38867 0.970165 0
M  V30 8471 O 801.322 1.55956 0.898761 0
M  V30 8472 H 797.697 0.742891 0.116691 0
M  V30 8473 H 799.668 2.95717 -0.39924 0
M  V30 8474 C 798.417 3.20008 1.35978 0
M  V30 8475 H 797.74 3.90526 0.856103 0
M  V30 8476 H 799.18 3.79586 1.88919 0
M  V30 8477 C 797.639 2.39079 2.37367 0
M  V30 8478 O 798.169 2.08933 3.43089 0
M  V30 8479 N 796.375 2.0125 2.09635 0
M  V30 8480 H 795.922 2.25966 1.23682 0
M  V30 8481 H 795.88 1.47408 2.77702 0
M  V30 8482 N 799.652 0.226554 1.55963 0
M  V30 8483 C 800.584 -0.713907 2.17798 0
M  V30 8484 C 801.597 -1.15387 1.14846 0
M  V30 8485 O 802.786 -1.08416 1.41804 0
M  V30 8486 C 799.886 -1.97945 2.75084 0
M  V30 8487 C 799.059 -1.69424 4.03255 0
M  V30 8488 C 798.118 -2.80734 4.45056 0
M  V30 8489 O 797.144 -2.4899 5.11852 0
M  V30 8490 N 798.346 -4.09797 4.11152 0
M  V30 8491 H 801.111 -0.18494 2.99129 0
M  V30 8492 H 798.672 0.0457346 1.61835 0
M  V30 8493 H 800.664 -2.71611 3.00016 0
M  V30 8494 H 799.234 -2.41876 1.98027 0
M  V30 8495 H 798.454 -0.793767 3.86126 0
M  V30 8496 H 799.742 -1.47806 4.86858 0
M  V30 8497 H 799.14 -4.38429 3.57486 0
M  V30 8498 H 797.697 -4.79992 4.40966 0
M  V30 8499 N 801.13 -1.57531 -0.0467866 0
M  V30 8500 C 802.355 -1.93087 -0.757123 0
M  V30 8501 C 802.78 -0.825116 -1.69037 0
M  V30 8502 O 802.138 0.220449 -1.79955 0
M  V30 8503 C 802.186 -3.27669 -1.5055 0
M  V30 8504 O 801.29 -3.18667 -2.61773 0
M  V30 8505 H 800.631 -0.631597 -0.204892 0
M  V30 8506 H 803.161 -2.04599 -0.00755232 0
M  V30 8507 H 803.171 -3.6214 -1.87932 0
M  V30 8508 H 801.846 -4.07717 -0.820931 0
M  V30 8509 H 800.423 -2.95798 -2.27064 0
M  V30 8510 N 802.608 0.318715 -1.54344 0
M  V30 8511 C 803.538 1.39751 -1.87061 0
M  V30 8512 C 804.519 1.53741 -0.727848 0
M  V30 8513 O 805.704 1.67541 -0.982016 0
M  V30 8514 C 802.834 2.76446 -2.10226 0
M  V30 8515 C 801.788 2.77239 -3.26071 0
M  V30 8516 C 801.114 4.17056 -3.34617 0
M  V30 8517 C 802.414 2.40555 -4.63606 0
M  V30 8518 H 804.108 1.12619 -2.77412 0
M  V30 8519 H 801.654 0.540318 -1.33479 0
M  V30 8520 H 803.607 3.51985 -2.31699 0
M  V30 8521 H 802.331 3.05066 -1.16629 0
M  V30 8522 H 800.99 2.04155 -3.04493 0
M  V30 8523 H 800.638 4.42824 -2.3857 0
M  V30 8524 H 800.338 4.18492 -4.12478 0
M  V30 8525 H 801.862 4.94401 -3.5833 0
M  V30 8526 H 803.276 3.05808 -4.84927 0
M  V30 8527 H 801.673 2.53234 -5.44052 0
M  V30 8528 H 802.743 1.35698 -4.65526 0
M  V30 8529 N 804.086 1.46499 0.581025 0
M  V30 8530 C 805.311 1.55708 1.37002 0
M  V30 8531 C 805.736 0.19942 1.8704 0
M  V30 8532 O 805.094 -0.820731 1.61659 0
M  V30 8533 C 805.142 2.56716 2.53238 0
M  V30 8534 O 804.246 2.10336 3.54729 0
M  V30 8535 H 803.587 0.523912 0.407937 0
M  V30 8536 H 806.117 1.92085 0.704602 0
M  V30 8537 H 806.127 2.76378 3.00132 0
M  V30 8538 H 804.802 3.55307 2.16171 0
M  V30 8539 H 803.379 2.00669 3.14303 0
M  V30 8540 N 805.565 -0.825799 1.34232 0
M  V30 8541 C 806.495 -1.95151 1.28212 0
M  V30 8542 C 807.476 -1.69345 0.160123 0
M  V30 8543 O 808.661 -1.90983 0.352019 0
M  V30 8544 C 805.791 -3.31554 1.03388 0
M  V30 8545 C 804.745 -3.71793 2.12023 0
M  V30 8546 C 804.071 -5.06147 1.72392 0
M  V30 8547 C 805.371 -3.84193 3.53826 0
M  V30 8548 H 807.065 -2.00445 2.22401 0
M  V30 8549 H 804.611 -0.962996 1.07063 0
M  V30 8550 H 806.564 -4.09889 0.978225 0
M  V30 8551 H 805.288 -3.26551 0.0564142 0
M  V30 8552 H 803.947 -2.95731 2.16654 0
M  V30 8553 H 803.595 -4.97628 0.733137 0
M  V30 8554 H 803.295 -5.34041 2.451 0
M  V30 8555 H 804.819 -5.86943 1.68317 0
M  V30 8556 H 806.233 -4.52806 3.51624 0
M  V30 8557 H 804.63 -4.23538 4.2513 0
M  V30 8558 H 805.7 -2.86272 3.91377 0
M  V30 8559 N 807.043 -1.17915 -1.04565 0
M  V30 8560 C 807.973 -0.925033 -2.14395 0
M  V30 8561 C 808.954 0.135375 -1.6956 0
M  V30 8562 O 810.139 -0.0161774 -1.94193 0
M  V30 8563 C 807.269 -0.444469 -3.44444 0
M  V30 8564 C 806.223 -1.44478 -4.02877 0
M  V30 8565 C 805.549 -0.821933 -5.28345 0
M  V30 8566 C 806.849 -2.81995 -4.39632 0
M  V30 8567 H 808.543 -1.84354 -2.35911 0
M  V30 8568 H 806.089 -0.887806 -1.13375 0
M  V30 8569 H 808.042 -0.254078 -4.20633 0
M  V30 8570 H 806.766 0.509592 -3.226 0
M  V30 8571 H 805.425 -1.62203 -3.28764 0
M  V30 8572 H 805.073 0.139161 -5.02807 0
M  V30 8573 H 804.773 -1.48976 -5.68401 0
M  V30 8574 H 806.297 -0.641959 -6.07216 0
M  V30 8575 H 807.711 -2.67952 -5.06828 0
M  V30 8576 H 806.108 -3.45414 -4.90723 0
M  V30 8577 H 807.178 -3.35927 -3.49687 0
M  V30 8578 N 808.521 1.23394 -0.980386 0
M  V30 8579 C 809.751 1.9556 -0.666319 0
M  V30 8580 C 810.159 1.72786 0.770815 0
M  V30 8581 O 809.502 1.0162 1.53033 0
M  V30 8582 C 809.564 3.48643 -0.876825 0
M  V30 8583 C 809.228 3.95135 -2.29602 0
M  V30 8584 C 810.225 4.03806 -3.2747 0
M  V30 8585 C 807.91 4.28122 -2.62711 0
M  V30 8586 C 809.904 4.44818 -4.56526 0
M  V30 8587 C 807.591 4.68814 -3.9199 0
M  V30 8588 C 808.589 4.77129 -4.88709 0
M  V30 8589 O 808.277 5.16908 -6.15679 0
M  V30 8590 H 808.009 0.629422 -0.246585 0
M  V30 8591 H 810.563 1.57839 -1.31438 0
M  V30 8592 H 808.793 3.86319 -0.171587 0
M  V30 8593 H 810.482 4.0202 -0.55992 0
M  V30 8594 H 811.248 3.78526 -3.03222 0
M  V30 8595 H 807.127 4.20861 -1.8814 0
M  V30 8596 H 810.671 4.51223 -5.32018 0
M  V30 8597 H 806.568 4.93545 -4.16033 0
M  V30 8598 H 807.336 5.3502 -6.19432 0
M  V30 8599 N 809.999 0.752036 1.385 0
M  V30 8600 C 810.946 0.123288 2.3047 0
M  V30 8601 C 811.916 -0.711326 1.50098 0
M  V30 8602 O 813.101 -0.667775 1.78733 0
M  V30 8603 C 810.241 -0.765085 3.36512 0
M  V30 8604 C 809.354 0.0839885 4.31918 0
M  V30 8605 C 808.489 -0.807243 5.25031 0
M  V30 8606 C 807.528 0.0455583 6.12083 0
M  V30 8607 N 806.665 -0.802547 6.97498 0
M  V30 8608 H 811.505 0.913169 2.83664 0
M  V30 8609 H 809.042 0.46195 1.39658 0
M  V30 8610 H 811 -1.29476 3.966 0
M  V30 8611 H 809.63 -1.52077 2.84732 0
M  V30 8612 H 808.682 0.731276 3.73305 0
M  V30 8613 H 809.994 0.74265 4.9324 0
M  V30 8614 H 809.148 -1.40414 5.90228 0
M  V30 8615 H 807.887 -1.49964 4.64071 0
M  V30 8616 H 806.892 0.655137 5.45883 0
M  V30 8617 H 808.117 0.734994 6.75111 0
M  V30 8618 H 806.063 -1.47992 6.39089 0
M  V30 8619 H 805.98 -0.200747 7.55733 0
M  V30 8620 H 807.248 -1.38447 7.67107 0
M  V30 8621 N 811.477 -1.49425 0.500989 0
M  V30 8622 C 812.723 -2.02753 -0.0436 0
M  V30 8623 C 813.056 -1.37991 -1.36646 0
M  V30 8624 O 812.331 -0.515597 -1.87542 0
M  V30 8625 C 812.614 -3.59565 -0.19616 0
M  V30 8626 C 812.467 -4.34855 1.14982 0
M  V30 8627 C 813.786 -4.30014 -0.936795 0
M  V30 8628 H 810.905 -0.73686 -0.0143711 0
M  V30 8629 H 813.547 -1.78448 0.652397 0
M  V30 8630 H 811.697 -3.80405 -0.788959 0
M  V30 8631 H 813.369 -4.25512 1.7815 0
M  V30 8632 H 811.612 -3.97414 1.73911 0
M  V30 8633 H 812.283 -5.42933 0.996385 0
M  V30 8634 H 814.759 -4.1383 -0.434036 0
M  V30 8635 H 813.635 -5.39483 -1.01238 0
M  V30 8636 H 813.896 -3.95257 -1.9805 0
M  V30 8637 N 812.955 -0.234822 -1.55841 0
M  V30 8638 C 814.366 0.270588 -1.84729 0
M  V30 8639 C 814.717 1.58494 -1.15646 0
M  V30 8640 O 813.842 2.12071 -0.430667 0
M  V30 8641 C 814.437 0.497733 -3.35124 0
M  V30 8642 C 812.996 0.947428 -3.64281 0
M  V30 8643 C 812.143 0.01787 -2.77294 0
M  V30 8644 H 815.094 -0.457691 -1.51957 0
M  V30 8645 H 815.115 1.34199 -3.56049 0
M  V30 8646 H 814.627 -0.459037 -3.85376 0
M  V30 8647 H 812.728 1.91709 -3.19497 0
M  V30 8648 H 812.841 0.812651 -4.72158 0
M  V30 8649 H 811.205 0.527071 -2.49187 0
M  V30 8650 H 811.988 -0.934056 -3.30349 0
M  V30 8651 N 814.433 1.57553 0.0384317 0
M  V30 8652 C 815.663 1.92813 0.742064 0
M  V30 8653 C 816.071 0.832157 1.69917 0
M  V30 8654 O 815.414 -0.200917 1.82598 0
M  V30 8655 C 815.476 3.23806 1.56172 0
M  V30 8656 C 815.14 4.50459 0.770407 0
M  V30 8657 C 816.137 5.19846 0.0748006 0
M  V30 8658 C 813.822 4.97001 0.727714 0
M  V30 8659 C 815.816 6.34047 -0.652902 0
M  V30 8660 C 813.503 6.111 -0.00373992 0
M  V30 8661 C 814.501 6.79477 -0.692816 0
M  V30 8662 O 814.189 7.91395 -1.41241 0
M  V30 8663 H 813.921 0.641174 0.214179 0
M  V30 8664 H 816.475 2.054 0.00285095 0
M  V30 8665 H 814.705 3.0752 2.34453 0
M  V30 8666 H 816.394 3.44463 2.14709 0
M  V30 8667 H 817.16 4.84899 0.098875 0
M  V30 8668 H 813.039 4.43629 1.25355 0
M  V30 8669 H 816.583 6.87353 -1.1913 0
M  V30 8670 H 812.48 6.45493 -0.0297703 0
M  V30 8671 H 813.248 8.07702 -1.32512 0
M  V30 8672 N 815.911 -0.310526 1.54511 0
M  V30 8673 C 817.157 -1.04846 1.73595 0
M  V30 8674 C 817.49 -1.87244 0.515118 0
M  V30 8675 O 816.765 -1.88282 -0.48786 0
M  V30 8676 C 817.048 -1.96237 3.01932 0
M  V30 8677 C 816.901 -1.17082 4.34295 0
M  V30 8678 C 818.22 -2.9556 3.26086 0
M  V30 8679 H 815.339 -0.37976 0.631626 0
M  V30 8680 H 817.981 -0.32394 1.87218 0
M  V30 8681 H 816.131 -2.58015 2.90449 0
M  V30 8682 H 817.803 -0.576643 4.57682 0
M  V30 8683 H 816.046 -0.473336 4.3121 0
M  V30 8684 H 816.717 -1.84257 5.20339 0
M  V30 8685 H 819.193 -2.43908 3.37117 0
M  V30 8686 H 818.069 -3.5668 4.17218 0
M  V30 8687 H 818.33 -3.68715 2.4393 0
M  V30 8688 N 817.389 -1.46805 -0.573248 0
M  V30 8689 C 818.352 -1.57655 -1.66366 0
M  V30 8690 C 819.352 -0.452905 -1.5429 0
M  V30 8691 O 820.542 -0.717502 -1.58737 0
M  V30 8692 C 817.674 -1.50584 -3.05839 0
M  V30 8693 H 818.867 -2.54842 -1.581 0
M  V30 8694 H 816.42 -1.34756 -0.791868 0
M  V30 8695 H 817.155 -0.547127 -3.19651 0
M  V30 8696 H 816.94 -2.32118 -3.16012 0
M  V30 8697 H 818.43 -1.61282 -3.85199 0
M  V30 8698 N 818.867 0.818669 -1.34668 0
M  V30 8699 C 819.799 1.93754 -1.22442 0
M  V30 8700 C 820.812 1.62103 -0.150501 0
M  V30 8701 O 822.001 1.73898 -0.402728 0
M  V30 8702 C 819.101 3.27806 -0.860031 0
M  V30 8703 C 818.274 3.8745 -2.02981 0
M  V30 8704 C 817.333 4.99887 -1.64314 0
M  V30 8705 O 816.359 5.17957 -2.36029 0
M  V30 8706 N 817.561 5.77795 -0.55976 0
M  V30 8707 H 820.326 2.04773 -2.18833 0
M  V30 8708 H 817.887 0.995472 -1.27679 0
M  V30 8709 H 819.879 4.00478 -0.583068 0
M  V30 8710 H 818.449 3.12597 0.0138253 0
M  V30 8711 H 817.669 3.07119 -2.47127 0
M  V30 8712 H 818.957 4.2403 -2.81204 0
M  V30 8713 H 818.355 5.65688 0.0363329 0
M  V30 8714 H 816.912 6.50899 -0.342541 0
M  V30 8715 N 820.346 1.18468 1.03938 0
M  V30 8716 C 821.256 0.927889 2.1547 0
M  V30 8717 C 822.272 -0.108447 1.73662 0
M  V30 8718 O 823.448 0.0737636 2.01265 0
M  V30 8719 C 820.513 0.458494 3.43655 0
M  V30 8720 C 819.574 1.56295 3.99838 0
M  V30 8721 C 818.807 1.11586 5.21904 0
M  V30 8722 O 819.03 -0.0249057 5.70395 0
M  V30 8723 O 817.964 1.91412 5.70653 0
M  V30 8724 H 821.79 1.86116 2.39989 0
M  V30 8725 H 819.375 0.966607 1.13917 0
M  V30 8726 H 821.257 0.204861 4.20902 0
M  V30 8727 H 819.932 -0.446464 3.20606 0
M  V30 8728 H 818.839 1.87061 3.23974 0
M  V30 8729 H 820.172 2.44408 4.2723 0
M  V30 8730 N 821.824 -1.22873 0.986916 0
M  V30 8731 C 823.073 -1.90772 0.654911 0
M  V30 8732 C 823.386 -1.77768 -0.81595 0
M  V30 8733 O 824.592 -2.40529 -1.25929 0
M  V30 8734 C 823.048 -3.42003 1.12081 0
M  V30 8735 C 822.656 -3.63655 2.61647 0
M  V30 8736 C 824.4 -4.15638 0.862854 0
M  V30 8737 C 822.307 -5.08555 3.01871 0
M  V30 8738 H 821.237 -0.714362 0.241252 0
M  V30 8739 H 823.888 -1.39196 1.19568 0
M  V30 8740 H 822.27 -3.92725 0.508207 0
M  V30 8741 H 823.444 -3.2345 3.28202 0
M  V30 8742 H 821.759 -3.03341 2.8526 0
M  V30 8743 H 824.356 -5.22425 1.13915 0
M  V30 8744 H 824.699 -4.15814 -0.201036 0
M  V30 8745 H 825.232 -3.70924 1.43736 0
M  V30 8746 H 821.971 -5.13514 4.07411 0
M  V30 8747 H 821.491 -5.49684 2.40015 0
M  V30 8748 H 823.17 -5.76936 2.92839 0
M  V30 8749 N 823.302 -0.75937 -1.38099 0
M  V30 8750 C 824.234 -0.0956547 -2.29 0
M  V30 8751 C 825.247 0.677561 -1.4803 0
M  V30 8752 O 826.436 0.517696 -1.70828 0
M  V30 8753 C 823.536 0.88844 -3.27047 0
M  V30 8754 C 822.709 0.171652 -4.37063 0
M  V30 8755 C 821.768 1.06733 -5.15262 0
M  V30 8756 O 820.794 0.535698 -5.66674 0
M  V30 8757 N 821.996 2.39486 -5.28797 0
M  V30 8758 H 824.761 -0.876354 -2.86601 0
M  V30 8759 H 822.322 -0.61065 -1.49942 0
M  V30 8760 H 824.314 1.49079 -3.76241 0
M  V30 8761 H 822.884 1.57018 -2.70304 0
M  V30 8762 H 822.104 -0.611473 -3.89429 0
M  V30 8763 H 823.392 -0.324121 -5.07767 0
M  V30 8764 H 822.79 2.85127 -4.88589 0
M  V30 8765 H 821.347 2.94758 -5.81344 0
M  V30 8766 N 824.78 1.49157 -0.508906 0
M  V30 8767 C 825.69 2.33045 0.269656 0
M  V30 8768 C 826.706 1.45143 0.959662 0
M  V30 8769 O 827.882 1.78155 0.939295 0
M  V30 8770 C 824.947 3.20772 1.31554 0
M  V30 8771 C 824.008 4.24531 0.638131 0
M  V30 8772 C 823.241 5.08065 1.63418 0
M  V30 8773 O 823.464 4.93238 2.86483 0
M  V30 8774 O 822.398 5.90117 1.18516 0
M  V30 8775 H 826.224 3.00821 -0.417183 0
M  V30 8776 H 823.809 1.46938 -0.270119 0
M  V30 8777 H 825.691 3.75095 1.92047 0
M  V30 8778 H 824.366 2.55681 1.98516 0
M  V30 8779 H 823.273 3.74099 -0.00674357 0
M  V30 8780 H 824.606 4.92199 0.0108155 0
M  V30 8781 N 826.258 0.243083 1.55714 0
M  V30 8782 C 827.168 -0.668913 2.24862 0
M  V30 8783 C 828.184 -1.19638 1.26344 0
M  V30 8784 O 829.36 -1.23345 1.5921 0
M  V30 8785 C 826.425 -1.85084 2.93163 0
M  V30 8786 C 825.486 -1.36323 4.07081 0
M  V30 8787 C 824.719 -2.48882 4.72116 0
M  V30 8788 O 824.942 -3.67523 4.36214 0
M  V30 8789 O 823.876 -2.18857 5.60701 0
M  V30 8790 H 827.702 -0.109737 3.03502 0
M  V30 8791 H 825.287 0.0117411 1.49395 0
M  V30 8792 H 827.169 -2.54065 3.36197 0
M  V30 8793 H 825.844 -2.39771 2.17466 0
M  V30 8794 H 824.751 -0.640804 3.68571 0
M  V30 8795 H 826.084 -0.86249 4.84584 0
M  V30 8796 N 827.736 -1.57571 -0.0300757 0
M  V30 8797 C 828.985 -1.88407 -0.720126 0
M  V30 8798 C 829.298 -0.841466 -1.76575 0
M  V30 8799 O 830.504 -1.03902 -2.50832 0
M  V30 8800 C 828.96 -3.34348 -1.33188 0
M  V30 8801 C 828.568 -4.46837 -0.32266 0
M  V30 8802 C 830.312 -3.74333 -2.00187 0
M  V30 8803 C 828.219 -5.83838 -0.942703 0
M  V30 8804 H 827.149 -0.702952 -0.272718 0
M  V30 8805 H 829.8 -1.83482 0.0255337 0
M  V30 8806 H 828.182 -3.34014 -2.12721 0
M  V30 8807 H 829.356 -4.58638 0.445887 0
M  V30 8808 H 827.671 -4.15678 0.245181 0
M  V30 8809 H 830.268 -4.74008 -2.47428 0
M  V30 8810 H 830.611 -3.06275 -2.81959 0
M  V30 8811 H 831.144 -3.76837 -1.2743 0
M  V30 8812 H 827.883 -6.55294 -0.164413 0
M  V30 8813 H 827.403 -5.75759 -1.68111 0
M  V30 8814 H 829.082 -6.30535 -1.45034 0
M  V30 8815 N 829.214 0.302327 -1.54673 0
M  V30 8816 C 830.491 1.05721 -1.64567 0
M  V30 8817 C 830.871 2.0526 -0.493108 0
M  V30 8818 O 830.219 2.22729 0.510315 0
M  V30 8819 C 830.429 1.74025 -3.02517 0
M  V30 8820 C 831.777 2.26271 -3.59286 0
M  V30 8821 O 832.801 1.8406 -3.0496 0
M  V30 8822 O 831.66 3.0361 -4.54404 0
M  V30 8823 H 828.754 0.488577 -0.667249 0
M  V30 8824 H 831.3 0.300521 -1.67018 0
M  V30 8825 H 830.072 1.0174 -3.77842 0
M  V30 8826 H 829.695 2.56454 -3.03838 0
M  V30 8827 N 830.692 1.47107 0.565454 0
M  V30 8828 C 831.602 1.61591 1.70075 0
M  V30 8829 C 832.618 0.498931 1.66693 0
M  V30 8830 O 833.794 0.765372 1.8629 0
M  V30 8831 C 830.859 1.61887 3.06583 0
M  V30 8832 C 829.92 2.84949 3.21096 0
M  V30 8833 C 829.153 2.85221 4.51093 0
M  V30 8834 O 829.376 1.94959 5.36048 0
M  V30 8835 O 828.31 3.76982 4.69221 0
M  V30 8836 H 832.136 2.57638 1.60799 0
M  V30 8837 H 829.721 1.30097 0.73451 0
M  V30 8838 H 831.603 1.64809 3.87835 0
M  V30 8839 H 830.278 0.69005 3.16259 0
M  V30 8840 H 829.185 2.87575 2.39273 0
M  V30 8841 H 830.518 3.77098 3.1632 0
M  V30 8842 N 832.17 -0.811516 1.35101 0
M  V30 8843 C 833.1 -1.9378 1.30275 0
M  V30 8844 C 834.081 -1.69165 0.178075 0
M  V30 8845 O 835.266 -1.90599 0.372256 0
M  V30 8846 C 832.396 -3.30439 1.06899 0
M  V30 8847 C 831.35 -3.69523 2.15955 0
M  V30 8848 C 830.676 -5.0429 1.77751 0
M  V30 8849 C 831.976 -3.80419 3.57881 0
M  V30 8850 H 833.67 -1.98075 2.24514 0
M  V30 8851 H 831.216 -0.951586 1.08078 0
M  V30 8852 H 833.169 -4.08828 1.02164 0
M  V30 8853 H 831.893 -3.26473 0.0910462 0
M  V30 8854 H 830.552 -2.93416 2.19778 0
M  V30 8855 H 830.2 -4.96823 0.785876 0
M  V30 8856 H 829.9 -5.31411 2.5075 0
M  V30 8857 H 831.424 -5.85125 1.74533 0
M  V30 8858 H 832.838 -4.49051 3.56407 0
M  V30 8859 H 831.235 -4.19005 4.29598 0
M  V30 8860 H 832.305 -2.82105 3.94391 0
M  V30 8861 N 833.648 -1.19017 -1.03309 0
M  V30 8862 C 834.578 -0.94772 -2.13402 0
M  V30 8863 C 835.559 0.117383 -1.69694 0
M  V30 8864 O 836.744 -0.0367733 -1.94165 0
M  V30 8865 C 833.874 -0.480977 -3.43953 0
M  V30 8866 C 832.828 -1.48743 -4.01322 0
M  V30 8867 C 832.154 -0.877924 -5.27443 0
M  V30 8868 C 833.454 -2.86642 -4.36616 0
M  V30 8869 H 835.148 -1.86846 -2.33942 0
M  V30 8870 H 832.694 -0.899781 -1.12427 0
M  V30 8871 H 834.647 -0.298677 -4.2034 0
M  V30 8872 H 833.371 0.475348 -3.23122 0
M  V30 8873 H 832.03 -1.65681 -3.27025 0
M  V30 8874 H 831.678 0.0858232 -5.02927 0
M  V30 8875 H 831.378 -1.54996 -5.66789 0
M  V30 8876 H 832.902 -0.706326 -6.06501 0
M  V30 8877 H 834.316 -2.73312 -5.03958 0
M  V30 8878 H 832.713 -3.50599 -4.87032 0
M  V30 8879 H 833.783 -3.39617 -3.46105 0
M  V30 8880 N 835.127 1.22348 -0.993418 0
M  V30 8881 C 836.059 2.23626 -0.502404 0
M  V30 8882 C 837.072 1.57739 0.402784 0
M  V30 8883 O 838.261 1.77321 0.204835 0
M  V30 8884 C 835.361 3.37647 0.291118 0
M  V30 8885 C 834.534 4.33121 -0.610332 0
M  V30 8886 C 833.593 5.26035 0.131572 0
M  V30 8887 O 832.619 5.67145 -0.483199 0
M  V30 8888 N 833.821 5.63023 1.41371 0
M  V30 8889 H 836.586 2.66385 -1.37329 0
M  V30 8890 H 834.147 1.36653 -0.868196 0
M  V30 8891 H 836.139 3.96792 0.796107 0
M  V30 8892 H 834.709 2.93967 1.0631 0
M  V30 8893 H 833.929 3.72287 -1.29598 0
M  V30 8894 H 835.217 4.93853 -1.22422 0
M  V30 8895 H 834.615 5.31596 1.93449 0
M  V30 8896 H 833.172 6.24582 1.86388 0
M  V30 8897 N 836.605 0.766683 1.37694 0
M  V30 8898 C 837.515 0.150158 2.34119 0
M  V30 8899 C 838.531 -0.685513 1.59927 0
M  V30 8900 O 839.707 -0.606616 1.92047 0
M  V30 8901 C 836.772 -0.722562 3.39087 0
M  V30 8902 C 835.833 0.128983 4.29106 0
M  V30 8903 C 835.066 -0.702178 5.29061 0
M  V30 8904 O 835.289 -1.93954 5.36412 0
M  V30 8905 O 834.223 -0.114056 6.01792 0
M  V30 8906 H 838.049 0.946829 2.88563 0
M  V30 8907 H 835.634 0.527765 1.39768 0
M  V30 8908 H 837.516 -1.22095 4.03325 0
M  V30 8909 H 836.191 -1.49751 2.86978 0
M  V30 8910 H 835.098 0.673612 3.67985 0
M  V30 8911 H 836.431 0.866892 4.84506 0
M  V30 8912 N 838.083 -1.48885 0.516809 0
M  V30 8913 C 839.015 -2.27357 -0.290061 0
M  V30 8914 C 840.028 -1.34558 -0.916406 0
M  V30 8915 O 841.217 -1.59715 -0.797073 0
M  V30 8916 C 838.317 -3.07496 -1.42476 0
M  V30 8917 C 837.49 -4.27982 -0.902793 0
M  V30 8918 C 836.549 -4.90038 -1.91701 0
M  V30 8919 O 835.575 -5.49643 -1.47922 0
M  V30 8920 N 836.777 -4.811 -3.24843 0
M  V30 8921 H 839.542 -2.97244 0.382884 0
M  V30 8922 H 837.103 -1.58064 0.35032 0
M  V30 8923 H 839.095 -3.45882 -2.10113 0
M  V30 8924 H 837.665 -2.40115 -2.00159 0
M  V30 8925 H 836.885 -3.94167 -0.0508272 0
M  V30 8926 H 838.173 -5.06003 -0.532723 0
M  V30 8927 H 837.571 -4.33801 -3.63088 0
M  V30 8928 H 836.128 -5.23625 -3.8815 0
M  V30 8929 N 839.561 -0.251338 -1.55583 0
M  V30 8930 C 840.977 0.103409 -1.59265 0
M  V30 8931 C 841.177 1.56559 -1.26852 0
M  V30 8932 O 840.233 2.31071 -1.01796 0
M  V30 8933 C 841.546 -0.249781 -2.99661 0
M  V30 8934 C 843.094 -0.194442 -3.12395 0
M  V30 8935 C 843.569 -0.521728 -4.55019 0
M  V30 8936 N 845.06 -0.472393 -4.60785 0
M  V30 8937 C 845.795 -0.698737 -5.69127 0
M  V30 8938 N 845.291 -0.988443 -6.85713 0
M  V30 8939 N 847.084 -0.629143 -5.58568 0
M  V30 8940 H 839.235 -1.20484 -1.74921 0
M  V30 8941 H 841.498 -0.485092 -0.814488 0
M  V30 8942 H 841.204 -1.26577 -3.28133 0
M  V30 8943 H 841.078 0.420973 -3.74844 0
M  V30 8944 H 843.465 0.812229 -2.83702 0
M  V30 8945 H 843.546 -0.899111 -2.39478 0
M  V30 8946 H 843.19 -1.52597 -4.84434 0
M  V30 8947 H 843.12 0.204468 -5.26203 0
M  V30 8948 H 845.611 -0.257386 -3.77022 0
M  V30 8949 H 845.924 -1.14846 -7.64219 0
M  V30 8950 H 844.269 -1.02596 -6.87386 0
M  V30 8951 H 847.46 -0.402826 -4.66364 0
M  V30 8952 H 847.633 -0.808935 -6.42931 0
M  V30 8953 N 841.039 1.57585 0.0217189 0
M  V30 8954 C 842.002 2.06004 1.00474 0
M  V30 8955 C 843.002 0.965461 1.2859 0
M  V30 8956 O 844.192 1.22884 1.23471 0
M  V30 8957 C 841.324 2.48319 2.33561 0
M  V30 8958 H 842.517 2.94112 0.586346 0
M  V30 8959 H 840.07 1.53973 0.268716 0
M  V30 8960 H 840.805 1.63389 2.80133 0
M  V30 8961 H 840.59 3.28239 2.1448 0
M  V30 8962 H 842.08 2.86181 3.04122 0
M  V30 8963 N 842.517 -0.29412 1.54831 0
M  V30 8964 C 843.794 -1.04847 1.65126 0
M  V30 8965 C 844.174 -2.04996 0.503986 0
M  V30 8966 O 843.522 -2.22996 -0.498496 0
M  V30 8967 C 843.732 -1.72418 3.03435 0
M  V30 8968 C 845.08 -2.24362 3.60481 0
M  V30 8969 O 846.104 -1.8244 3.05932 0
M  V30 8970 O 844.963 -3.01196 4.56008 0
M  V30 8971 H 842.057 -0.485032 0.669831 0
M  V30 8972 H 844.603 -0.291659 1.67175 0
M  V30 8973 H 843.375 -0.997351 3.78376 0
M  V30 8974 H 842.998 -2.54839 3.05193 0
M  V30 8975 N 843.995 -1.47404 -0.557645 0
M  V30 8976 C 844.928 -1.54399 -1.68036 0
M  V30 8977 C 845.906 -0.396175 -1.577 0
M  V30 8978 O 847.09 -0.603911 -1.78564 0
M  V30 8979 C 844.217 -1.44611 -3.06277 0
M  V30 8980 C 843.263 -2.63889 -3.35059 0
M  V30 8981 S 844.096 -4.26086 -3.24362 0
M  V30 8982 C 845.252 -4.1885 -4.65097 0
M  V30 8983 H 845.485 -2.49384 -1.61849 0
M  V30 8984 H 843.018 -1.35597 -0.738429 0
M  V30 8985 H 844.976 -1.39651 -3.86015 0
M  V30 8986 H 843.637 -0.510114 -3.0993 0
M  V30 8987 H 842.83 -2.53103 -4.35838 0
M  V30 8988 H 842.432 -2.65969 -2.62938 0
M  V30 8989 H 844.724 -3.87077 -5.56037 0
M  V30 8990 H 845.667 -5.19714 -4.8094 0
M  V30 8991 H 846.075 -3.49717 -4.43123 0
M  V30 8992 N 845.473 0.80434 -1.35529 0
M  V30 8993 C 846.75 1.5486 -1.1949 0
M  V30 8994 C 847.13 2.09897 0.22506 0
M  V30 8995 O 846.478 1.92643 1.22886 0
M  V30 8996 C 846.688 2.65535 -2.26478 0
M  V30 8997 C 848.036 3.33814 -2.62399 0
M  V30 8998 O 849.06 2.75807 -2.25409 0
M  V30 8999 O 847.919 4.38612 -3.26009 0
M  V30 9000 H 845.013 0.68433 -0.464351 0
M  V30 9001 H 847.559 0.844107 -1.47217 0
M  V30 9002 H 846.331 2.22754 -3.21709 0
M  V30 9003 H 845.954 3.43617 -2.00033 0
M  V30 9004 N 846.951 1.19563 1.02676 0
M  V30 9005 C 847.883 0.893054 2.11086 0
M  V30 9006 C 848.896 -0.115101 1.62393 0
M  V30 9007 O 850.085 0.11459 1.78132 0
M  V30 9008 C 847.185 0.315533 3.37428 0
M  V30 9009 C 846.358 1.37276 4.153 0
M  V30 9010 C 845.417 0.808398 5.19953 0
M  V30 9011 O 844.443 1.48661 5.49444 0
M  V30 9012 N 845.645 -0.387253 5.79207 0
M  V30 9013 H 848.41 1.82622 2.37633 0
M  V30 9014 H 845.971 1.09792 1.18984 0
M  V30 9015 H 847.963 -0.0759166 4.04629 0
M  V30 9016 H 846.533 -0.521961 3.08211 0
M  V30 9017 H 845.753 1.93897 3.43217 0
M  V30 9018 H 847.041 2.08509 4.64114 0
M  V30 9019 H 846.439 -0.955725 5.57568 0
M  V30 9020 H 844.996 -0.720457 6.47806 0
M  V30 9021 N 848.429 -1.21819 0.999893 0
M  V30 9022 C 849.676 -1.90752 0.679694 0
M  V30 9023 C 850.004 -1.77777 -0.789014 0
M  V30 9024 O 849.259 -1.14518 -1.58695 0
M  V30 9025 C 849.558 -3.4193 1.04012 0
M  V30 9026 C 849.224 -3.75098 2.50225 0
M  V30 9027 C 847.886 -3.83861 2.90179 0
M  V30 9028 C 850.238 -3.90706 3.44961 0
M  V30 9029 C 847.566 -4.05676 4.23844 0
M  V30 9030 C 849.918 -4.14027 4.78294 0
M  V30 9031 C 848.582 -4.21016 5.17979 0
M  V30 9032 H 847.852 -0.698012 0.248718 0
M  V30 9033 H 850.499 -1.44437 1.25738 0
M  V30 9034 H 848.804 -3.89947 0.380606 0
M  V30 9035 H 850.501 -3.93532 0.770301 0
M  V30 9036 H 847.091 -3.68865 2.18258 0
M  V30 9037 H 851.275 -3.83307 3.15261 0
M  V30 9038 H 846.531 -4.09316 4.5417 0
M  V30 9039 H 850.705 -4.25046 5.51642 0
M  V30 9040 H 848.332 -4.37672 6.21568 0
M  V30 9041 N 849.908 -0.773975 -1.37286 0
M  V30 9042 C 851.136 -0.350758 -2.03905 0
M  V30 9043 C 851.551 1.02779 -1.58373 0
M  V30 9044 O 850.908 1.65646 -0.766009 0
M  V30 9045 C 850.959 -0.387335 -3.59419 0
M  V30 9046 O 850.68 -1.7115 -4.03286 0
M  V30 9047 C 852.181 0.047198 -4.43275 0
M  V30 9048 H 849.401 -0.146663 -0.654775 0
M  V30 9049 H 851.945 -1.04852 -1.75574 0
M  V30 9050 H 850.1 0.261865 -3.86514 0
M  V30 9051 H 850.514 -1.65166 -4.97816 0
M  V30 9052 H 851.988 -0.0295474 -5.51992 0
M  V30 9053 H 852.465 1.09786 -4.25257 0
M  V30 9054 H 853.071 -0.573899 -4.2141 0
M  V30 9055 N 851.386 1.48609 -0.524698 0
M  V30 9056 C 852.349 2.28041 0.230166 0
M  V30 9057 C 853.349 1.35065 0.872584 0
M  V30 9058 O 854.539 1.58007 0.73345 0
M  V30 9059 C 851.671 3.13778 1.33252 0
M  V30 9060 H 852.864 2.96239 -0.467161 0
M  V30 9061 H 850.417 1.53763 -0.280452 0
M  V30 9062 H 851.152 2.502 2.06327 0
M  V30 9063 H 850.937 3.82165 0.877058 0
M  V30 9064 H 852.427 3.7371 1.86362 0
M  V30 9065 N 852.864 0.259585 1.55447 0
M  V30 9066 C 854.089 -0.368317 2.04103 0
M  V30 9067 C 854.514 -1.49827 1.13725 0
M  V30 9068 O 853.872 -1.80814 0.132705 0
M  V30 9069 C 853.92 -0.841506 3.50644 0
M  V30 9070 O 853.024 -1.95008 3.63381 0
M  V30 9071 H 852.365 -0.0785227 0.659341 0
M  V30 9072 H 854.895 0.389349 2.00861 0
M  V30 9073 H 854.905 -1.14138 3.9171 0
M  V30 9074 H 853.58 -0.0147001 4.15897 0
M  V30 9075 H 852.157 -1.65393 3.34215 0
M  V30 9076 N 854.342 -1.57594 -0.0133615 0
M  V30 9077 C 855.591 -1.8916 -0.700103 0
M  V30 9078 C 855.904 -0.860147 -1.75673 0
M  V30 9079 O 857.11 -1.06556 -2.49716 0
M  V30 9080 C 855.566 -3.35742 -1.29635 0
M  V30 9081 C 855.174 -4.47154 -0.275249 0
M  V30 9082 C 856.918 -3.76436 -1.96205 0
M  V30 9083 C 854.825 -5.84805 -0.880726 0
M  V30 9084 H 853.755 -0.705805 -0.265247 0
M  V30 9085 H 856.406 -1.83445 0.044993 0
M  V30 9086 H 854.788 -3.36252 -2.09167 0
M  V30 9087 H 855.962 -4.58139 0.494506 0
M  V30 9088 H 854.277 -4.15394 0.289256 0
M  V30 9089 H 856.874 -4.76606 -2.42386 0
M  V30 9090 H 857.217 -3.09249 -2.78695 0
M  V30 9091 H 857.75 -3.78168 -1.23426 0
M  V30 9092 H 854.489 -6.55431 -0.0949013 0
M  V30 9093 H 854.009 -5.7751 -1.61995 0
M  V30 9094 H 855.688 -6.32038 -1.38338 0
M  V30 9095 N 855.82 0.285905 -1.54985 0
M  V30 9096 C 857.045 1.04207 -1.7932 0
M  V30 9097 C 857.47 1.79622 -0.558343 0
M  V30 9098 O 856.828 1.74506 0.491661 0
M  V30 9099 C 856.876 1.98648 -3.0095 0
M  V30 9100 O 855.98 3.07207 -2.75132 0
M  V30 9101 H 855.321 0.298596 -0.593074 0
M  V30 9102 H 857.851 0.318736 -2.02102 0
M  V30 9103 H 857.861 2.4084 -3.29333 0
M  V30 9104 H 856.536 1.43167 -3.90482 0
M  V30 9105 H 855.113 2.69423 -2.57809 0
M  V30 9106 N 857.298 1.47698 0.54982 0
M  V30 9107 C 858.208 1.63386 1.68351 0
M  V30 9108 C 859.224 0.516583 1.66155 0
M  V30 9109 O 860.4 0.785088 1.85468 0
M  V30 9110 C 857.465 1.6513 3.04849 0
M  V30 9111 C 856.526 2.88338 3.18056 0
M  V30 9112 C 855.759 2.8999 4.48042 0
M  V30 9113 O 855.982 2.00633 5.3395 0
M  V30 9114 O 854.916 3.81938 4.65196 0
M  V30 9115 H 858.742 2.59329 1.58057 0
M  V30 9116 H 856.327 1.30869 0.72067 0
M  V30 9117 H 858.209 1.68913 3.86065 0
M  V30 9118 H 856.884 0.723555 3.1551 0
M  V30 9119 H 855.791 2.90097 2.36209 0
M  V30 9120 H 857.124 3.80431 3.12302 0
M  V30 9121 N 858.776 -0.797141 1.35954 0
M  V30 9122 C 860.004 -1.5858 1.32891 0
M  V30 9123 C 860.419 -1.88578 -0.0915564 0
M  V30 9124 O 859.776 -1.49532 -1.04625 0
M  V30 9125 C 859.827 -2.91143 2.14284 0
M  V30 9126 O 859.548 -2.62442 3.50793 0
M  V30 9127 C 861.049 -3.85476 2.18914 0
M  V30 9128 H 858.269 -0.492111 0.456144 0
M  V30 9129 H 860.813 -0.98994 1.78943 0
M  V30 9130 H 858.968 -3.47219 1.71807 0
M  V30 9131 H 859.382 -3.4715 3.93175 0
M  V30 9132 H 860.856 -4.75574 2.80238 0
M  V30 9133 H 861.333 -4.22758 1.19047 0
M  V30 9134 H 861.939 -3.35334 2.61593 0
M  V30 9135 N 860.254 -1.20106 -1.0204 0
M  V30 9136 C 861.665 -1.00992 -1.57027 0
M  V30 9137 C 862.016 0.434782 -1.91322 0
M  V30 9138 O 861.141 1.31557 -1.71819 0
M  V30 9139 C 861.736 -1.82697 -2.85319 0
M  V30 9140 C 860.295 -1.67959 -3.36848 0
M  V30 9141 C 859.442 -1.80868 -2.10195 0
M  V30 9142 H 862.393 -1.34354 -0.844676 0
M  V30 9143 H 862.414 -1.32809 -3.5657 0
M  V30 9144 H 861.926 -2.87839 -2.60328 0
M  V30 9145 H 860.027 -0.654389 -3.66809 0
M  V30 9146 H 860.14 -2.49006 -4.09308 0
M  V30 9147 H 858.504 -1.24015 -2.22469 0
M  V30 9148 H 859.287 -2.87486 -1.87635 0
M  V30 9149 N 861.732 1.21287 -1.00634 0
M  V30 9150 C 862.978 1.90671 -0.690822 0
M  V30 9151 C 863.311 1.77996 0.776592 0
M  V30 9152 O 862.586 1.15748 1.5631 0
M  V30 9153 C 862.869 3.42426 -1.11428 0
M  V30 9154 C 862.722 3.64086 -2.64124 0
M  V30 9155 C 864.041 4.34851 -0.677686 0
M  V30 9156 H 861.16 0.692419 -0.252439 0
M  V30 9157 H 863.802 1.42893 -1.25226 0
M  V30 9158 H 861.952 3.83249 -0.636586 0
M  V30 9159 H 863.624 3.32582 -3.19667 0
M  V30 9160 H 861.867 3.07906 -3.05576 0
M  V30 9161 H 862.538 4.7042 -2.88806 0
M  V30 9162 H 865.014 4.01619 -1.0882 0
M  V30 9163 H 863.89 5.39675 -1.00213 0
M  V30 9164 H 864.151 4.4009 0.421125 0
M  V30 9165 N 863.21 0.781244 1.36873 0
M  V30 9166 C 864.487 0.274217 1.93668 0
M  V30 9167 C 864.867 -1.2323 1.71399 0
M  V30 9168 O 864.215 -2.01993 1.06822 0
M  V30 9169 C 864.425 0.657939 3.42742 0
M  V30 9170 C 865.773 0.63307 4.19854 0
M  V30 9171 O 866.797 0.597909 3.51146 0
M  V30 9172 O 865.656 0.668636 5.42394 0
M  V30 9173 H 862.75 0.0658059 0.824378 0
M  V30 9174 H 865.296 0.863238 1.46104 0
M  V30 9175 H 864.068 1.69728 3.52573 0
M  V30 9176 H 863.691 0.0423678 3.97577 0
M  V30 9177 N 864.689 -1.48329 0.532571 0
M  V30 9178 C 865.935 -2.028 -0.000583219 0
M  V30 9179 C 866.268 -1.40858 -1.33688 0
M  V30 9180 O 865.543 -0.555261 -1.86406 0
M  V30 9181 C 865.826 -3.59901 -0.119846 0
M  V30 9182 C 865.679 -4.32318 1.2418 0
M  V30 9183 C 866.998 -4.31904 -0.845372 0
M  V30 9184 H 864.117 -0.736999 0.00126205 0
M  V30 9185 H 866.759 -1.77024 0.690102 0
M  V30 9186 H 864.909 -3.81993 -0.708092 0
M  V30 9187 H 866.581 -4.21637 1.87136 0
M  V30 9188 H 864.824 -3.93635 1.82301 0
M  V30 9189 H 865.495 -5.40697 1.11132 0
M  V30 9190 H 867.971 -4.14658 -0.346159 0
M  V30 9191 H 866.847 -5.41509 -0.897723 0
M  V30 9192 H 867.108 -3.99369 -1.89622 0
M  V30 9193 N 866.167 -0.267825 -1.55308 0
M  V30 9194 C 867.583 0.0865107 -1.59365 0
M  V30 9195 C 867.783 1.55205 -1.28505 0
M  V30 9196 O 866.839 2.29978 -1.04241 0
M  V30 9197 C 868.152 -0.28155 -2.99379 0
M  V30 9198 C 869.7 -0.227565 -3.12172 0
M  V30 9199 C 870.175 -0.569959 -4.5444 0
M  V30 9200 N 871.666 -0.521238 -4.60258 0
M  V30 9201 C 872.401 -0.759061 -5.68354 0
M  V30 9202 N 871.897 -1.06112 -6.84626 0
M  V30 9203 N 873.69 -0.688351 -5.57869 0
M  V30 9204 H 865.841 -1.22332 -1.73633 0
M  V30 9205 H 868.104 -0.493703 -0.809297 0
M  V30 9206 H 867.81 -1.3005 -3.26772 0
M  V30 9207 H 867.684 0.381192 -3.75269 0
M  V30 9208 H 870.071 0.782093 -2.84548 0
M  V30 9209 H 870.152 -0.924461 -2.38511 0
M  V30 9210 H 869.796 -1.57727 -4.82788 0
M  V30 9211 H 869.726 0.148646 -5.2639 0
M  V30 9212 H 872.217 -0.297359 -3.76728 0
M  V30 9213 H 872.53 -1.22945 -7.62958 0
M  V30 9214 H 870.875 -1.09881 -6.86259 0
M  V30 9215 H 874.066 -0.452268 -4.6591 0
M  V30 9216 H 874.239 -0.877081 -6.42037 0
M  V30 9217 N 867.645 1.57599 0.00500368 0
M  V30 9218 C 868.891 1.90631 0.691919 0
M  V30 9219 C 869.224 0.868443 1.737 0
M  V30 9220 O 868.499 -0.113482 1.94169 0
M  V30 9221 C 868.782 3.34255 1.33961 0
M  V30 9222 C 868.635 4.48755 0.306413 0
M  V30 9223 C 869.954 3.77211 2.26715 0
M  V30 9224 H 867.073 0.693279 0.250066 0
M  V30 9225 H 869.715 1.89946 -0.0452634 0
M  V30 9226 H 867.865 3.3497 1.96793 0
M  V30 9227 H 869.537 4.60176 -0.321841 0
M  V30 9228 H 867.78 4.32203 -0.371852 0
M  V30 9229 H 868.451 5.46193 0.798554 0
M  V30 9230 H 870.927 3.78017 1.73904 0
M  V30 9231 H 869.803 4.78466 2.69002 0
M  V30 9232 H 870.064 3.10801 3.14413 0
M  V30 9233 N 869.123 -0.277682 1.55134 0
M  V30 9234 C 870.348 -1.03254 1.7987 0
M  V30 9235 C 870.773 -1.79324 0.567861 0
M  V30 9236 O 870.131 -1.74764 -0.4824 0
M  V30 9237 C 870.179 -1.9705 3.02 0
M  V30 9238 O 869.283 -3.05744 2.76757 0
M  V30 9239 H 868.624 -0.295447 0.594649 0
M  V30 9240 H 871.154 -0.308013 2.02268 0
M  V30 9241 H 871.164 -2.3909 3.30606 0
M  V30 9242 H 869.839 -1.41094 3.91236 0
M  V30 9243 H 868.416 -2.68052 2.59235 0
M  V30 9244 N 870.601 -1.47988 -0.541979 0
M  V30 9245 C 871.826 -1.59286 -1.32826 0
M  V30 9246 C 872.251 -0.24894 -1.86445 0
M  V30 9247 O 871.609 0.777581 -1.63778 0
M  V30 9248 C 871.657 -2.6334 -2.46343 0
M  V30 9249 O 870.761 -2.19667 -3.49028 0
M  V30 9250 H 870.102 -0.534543 -0.393903 0
M  V30 9251 H 872.632 -1.93885 -0.653427 0
M  V30 9252 H 872.642 -2.84238 -2.92699 0
M  V30 9253 H 871.317 -3.60913 -2.06675 0
M  V30 9254 H 869.894 -2.08932 -3.08872 0
M  V30 9255 N 872.079 0.78992 -1.36375 0
M  V30 9256 C 872.989 1.93386 -1.32812 0
M  V30 9257 C 874.005 1.72468 -0.230377 0
M  V30 9258 O 875.181 1.96014 -0.462657 0
M  V30 9259 C 872.246 3.2824 -1.11621 0
M  V30 9260 C 871.307 3.61939 -2.30865 0
M  V30 9261 C 870.54 4.90359 -2.10675 0
M  V30 9262 O 870.763 5.6005 -1.08168 0
M  V30 9263 O 869.697 5.22702 -2.9844 0
M  V30 9264 H 873.523 1.99342 -2.29121 0
M  V30 9265 H 871.108 0.9301 -1.16917 0
M  V30 9266 H 872.99 4.08939 -1.01719 0
M  V30 9267 H 871.665 3.23178 -0.183732 0
M  V30 9268 H 870.572 2.81549 -2.46335 0
M  V30 9269 H 871.905 3.71725 -3.22617 0
M  V30 9270 N 873.557 1.20646 1.01402 0
M  V30 9271 C 874.467 0.973385 2.13453 0
M  V30 9272 C 875.483 -0.0715865 1.73853 0
M  V30 9273 O 876.659 0.116438 2.01063 0
M  V30 9274 C 873.724 0.531285 3.42605 0
M  V30 9275 C 872.785 1.64741 3.96433 0
M  V30 9276 C 872.018 1.22631 5.1942 0
M  V30 9277 O 872.241 0.0960891 5.70319 0
M  V30 9278 O 871.175 2.03474 5.66465 0
M  V30 9279 H 875.001 1.91164 2.35987 0
M  V30 9280 H 872.586 0.990553 1.11841 0
M  V30 9281 H 874.468 0.294095 4.20373 0
M  V30 9282 H 873.143 -0.378358 3.21481 0
M  V30 9283 H 872.05 1.93891 3.19933 0
M  V30 9284 H 873.383 2.53415 4.2195 0
M  V30 9285 N 875.035 -1.20752 1.01276 0
M  V30 9286 C 876.26 -1.94547 0.718769 0
M  V30 9287 C 876.685 -1.7404 -0.713563 0
M  V30 9288 O 876.043 -1.03221 -1.49047 0
M  V30 9289 C 876.091 -3.44823 1.05497 0
M  V30 9290 O 875.195 -4.12072 0.164516 0
M  V30 9291 H 874.536 -0.607931 0.267051 0
M  V30 9292 H 877.066 -1.53292 1.35509 0
M  V30 9293 H 877.076 -3.95427 1.00507 0
M  V30 9294 H 875.751 -3.59072 2.09858 0
M  V30 9295 H 874.328 -3.71909 0.271615 0
M  V30 9296 N 876.513 -0.788492 -1.36457 0
M  V30 9297 C 877.423 -0.187385 -2.3385 0
M  V30 9298 C 878.439 0.659984 -1.60998 0
M  V30 9299 O 879.615 0.575986 -1.92988 0
M  V30 9300 C 876.68 0.668525 -3.40194 0
M  V30 9301 C 875.741 -0.197234 -4.28847 0
M  V30 9302 C 874.974 0.61792 -5.30111 0
M  V30 9303 O 875.197 1.85396 -5.3943 0
M  V30 9304 O 874.131 0.0183016 -6.01897 0
M  V30 9305 H 877.957 -0.992617 -2.87021 0
M  V30 9306 H 875.542 -0.549934 -1.3891 0
M  V30 9307 H 877.424 1.15663 -4.05216 0
M  V30 9308 H 876.099 1.45166 -2.89324 0
M  V30 9309 H 875.006 -0.73207 -3.66867 0
M  V30 9310 H 876.339 -0.943863 -4.83065 0
M  V30 9311 N 877.991 1.48044 -0.54043 0
M  V30 9312 C 878.901 2.33565 0.220163 0
M  V30 9313 C 879.917 1.47146 0.928659 0
M  V30 9314 O 881.093 1.80107 0.901295 0
M  V30 9315 C 878.158 3.2349 1.2472 0
M  V30 9316 C 877.219 4.25789 0.547938 0
M  V30 9317 C 876.452 5.11417 1.52605 0
M  V30 9318 O 876.675 4.99204 2.75956 0
M  V30 9319 O 875.609 5.92498 1.05972 0
M  V30 9320 H 879.435 2.99868 -0.480898 0
M  V30 9321 H 877.02 1.46332 -0.301226 0
M  V30 9322 H 878.902 3.79084 1.84047 0
M  V30 9323 H 877.577 2.59835 1.93048 0
M  V30 9324 H 876.484 3.74001 -0.0860941 0
M  V30 9325 H 877.817 4.92111 -0.0935896 0
M  V30 9326 N 879.47 0.276058 1.55163 0
M  V30 9327 C 880.719 -0.341098 1.98795 0
M  V30 9328 C 881.032 -1.56905 1.16791 0
M  V30 9329 O 882.238 -2.25922 1.50571 0
M  V30 9330 C 880.694 -0.658231 3.5383 0
M  V30 9331 C 880.302 0.549972 4.44611 0
M  V30 9332 C 882.046 -1.23796 4.06048 0
M  V30 9333 C 879.953 0.207373 5.91036 0
M  V30 9334 H 878.883 -0.131224 0.742493 0
M  V30 9335 H 881.534 0.380858 1.79504 0
M  V30 9336 H 879.916 -1.43911 3.68925 0
M  V30 9337 H 881.09 1.32681 4.41285 0
M  V30 9338 H 879.405 1.04661 4.03032 0
M  V30 9339 H 882.002 -1.50811 5.12991 0
M  V30 9340 H 882.345 -2.17214 3.55139 0
M  V30 9341 H 882.878 -0.519345 3.94395 0
M  V30 9342 H 879.617 1.10946 6.46043 0
M  V30 9343 H 879.137 -0.532687 5.9743 0
M  V30 9344 H 880.816 -0.200072 6.46691 0
M  V30 9345 N 880.948 -1.576 0.00335426 0
M  V30 9346 C 882.359 -1.7875 -0.539008 0
M  V30 9347 C 882.71 -0.911097 -1.73763 0
M  V30 9348 O 881.835 -0.114476 -2.16097 0
M  V30 9349 C 882.43 -3.24177 -0.984611 0
M  V30 9350 C 880.989 -3.46412 -1.47226 0
M  V30 9351 C 880.136 -2.74024 -0.425004 0
M  V30 9352 H 883.087 -1.57032 0.229511 0
M  V30 9353 H 883.108 -3.32474 -1.85044 0
M  V30 9354 H 882.62 -3.87938 -0.112035 0
M  V30 9355 H 880.721 -2.8787 -2.36562 0
M  V30 9356 H 880.834 -4.55098 -1.49741 0
M  V30 9357 H 879.198 -2.38741 -0.887394 0
M  V30 9358 H 879.981 -3.40486 0.438662 0
M  V30 9359 N 882.426 0.269451 -1.5528 0
M  V30 9360 C 883.837 0.840233 -1.66724 0
M  V30 9361 C 884.188 1.86909 -0.596621 0
M  V30 9362 O 883.313 2.14817 0.261246 0
M  V30 9363 C 883.908 1.5308 -3.02245 0
M  V30 9364 C 882.467 2.04957 -3.15705 0
M  V30 9365 C 881.614 0.892838 -2.62533 0
M  V30 9366 H 884.565 0.0457236 -1.58634 0
M  V30 9367 H 884.586 2.39792 -2.95432 0
M  V30 9368 H 884.098 0.781741 -3.80145 0
M  V30 9369 H 882.199 2.82813 -2.42585 0
M  V30 9370 H 882.312 2.26244 -4.22316 0
M  V30 9371 H 880.676 1.28719 -2.19781 0
M  V30 9372 H 881.459 0.157229 -3.4294 0
M  V30 9373 N 883.904 1.48273 0.534124 0
M  V30 9374 C 885.151 1.56079 1.29017 0
M  V30 9375 C 885.479 0.232912 1.931 0
M  V30 9376 O 884.734 -0.77642 1.79639 0
M  V30 9377 C 885.033 2.64468 2.40398 0
M  V30 9378 C 884.699 4.07034 1.93995 0
M  V30 9379 C 883.361 4.45838 1.81058 0
M  V30 9380 C 885.713 4.96395 1.58877 0
M  V30 9381 C 883.041 5.71812 1.31331 0
M  V30 9382 C 885.393 6.22854 1.10614 0
M  V30 9383 C 884.057 6.60518 0.962895 0
M  V30 9384 H 883.327 0.571135 0.472108 0
M  V30 9385 H 885.974 1.81973 0.5965 0
M  V30 9386 H 884.279 2.32419 3.15418 0
M  V30 9387 H 885.976 2.67725 2.98537 0
M  V30 9388 H 882.566 3.76387 2.05015 0
M  V30 9389 H 886.75 4.67096 1.67734 0
M  V30 9390 H 882.006 5.99722 1.18924 0
M  V30 9391 H 886.18 6.91495 0.825095 0
M  V30 9392 H 883.807 7.58019 0.575369 0
M  V30 9393 N 885.382 -0.782676 1.36792 0
M  V30 9394 C 886.332 -1.8855 1.28191 0
M  V30 9395 C 887.316 -1.59978 0.171984 0
M  V30 9396 O 888.508 -1.72295 0.405405 0
M  V30 9397 C 885.637 -3.25862 1.08021 0
M  V30 9398 C 884.723 -3.60422 2.2351 0
M  V30 9399 N 885.114 -3.66241 3.48857 0
M  V30 9400 C 883.412 -3.90523 2.15424 0
M  V30 9401 C 884.113 -3.97233 4.24948 0
M  V30 9402 N 883.089 -4.12567 3.53963 0
M  V30 9403 H 886.891 -1.91285 2.23131 0
M  V30 9404 H 884.405 -0.978554 1.29607 0
M  V30 9405 H 886.402 -4.04742 0.999458 0
M  V30 9406 H 885.062 -3.24399 0.139882 0
M  V30 9407 H 886.073 -3.48717 3.82906 0
M  V30 9408 H 882.75 -3.96945 1.29386 0
M  V30 9409 H 884.14 -4.08602 5.33379 0
M  V30 9410 N 886.86 -1.21182 -1.00761 0
M  V30 9411 C 888.271 -1.02652 -1.55947 0
M  V30 9412 C 888.622 0.414466 -1.91772 0
M  V30 9413 O 887.747 1.29727 -1.73204 0
M  V30 9414 C 888.342 -1.85713 -2.83366 0
M  V30 9415 C 886.901 -1.71523 -3.35048 0
M  V30 9416 C 886.048 -1.83087 -2.08265 0
M  V30 9417 H 888.999 -1.35242 -0.830379 0
M  V30 9418 H 889.02 -1.36583 -3.55141 0
M  V30 9419 H 888.532 -2.90584 -2.5726 0
M  V30 9420 H 886.633 -0.693257 -3.66094 0
M  V30 9421 H 886.746 -2.53333 -4.06644 0
M  V30 9422 H 885.11 -1.26367 -2.21141 0
M  V30 9423 H 885.893 -2.8946 -1.84575 0
M  V30 9424 N 888.338 1.20213 -1.01915 0
M  V30 9425 C 889.585 1.89647 -0.709955 0
M  V30 9426 C 889.913 1.7901 0.760631 0
M  V30 9427 O 889.168 1.17028 1.56853 0
M  V30 9428 C 889.467 3.40232 -1.09438 0
M  V30 9429 C 889.133 3.7107 -2.5616 0
M  V30 9430 C 887.795 3.79196 -2.96249 0
M  V30 9431 C 890.147 3.85169 -3.51133 0
M  V30 9432 C 887.475 3.98882 -4.30244 0
M  V30 9433 C 889.827 4.06365 -4.8482 0
M  V30 9434 C 888.491 4.12722 -5.24611 0
M  V30 9435 H 887.761 0.693967 -0.259791 0
M  V30 9436 H 890.408 1.42419 -1.2802 0
M  V30 9437 H 888.713 3.89292 -0.442596 0
M  V30 9438 H 890.41 3.92257 -0.832811 0
M  V30 9439 H 887 3.65346 -2.24099 0
M  V30 9440 H 891.184 3.78243 -3.21319 0
M  V30 9441 H 886.44 4.02039 -4.60624 0
M  V30 9442 H 890.614 4.16216 -5.58334 0
M  V30 9443 H 888.241 4.27728 -6.28453 0
M  V30 9444 N 889.816 0.795718 1.36037 0
M  V30 9445 C 890.766 0.171437 2.27355 0
M  V30 9446 C 891.75 -0.648346 1.47259 0
M  V30 9447 O 892.942 -0.507386 1.69572 0
M  V30 9448 C 890.071 -0.687876 3.36338 0
M  V30 9449 C 889.157 0.141041 4.23865 0
M  V30 9450 N 889.548 1.19868 4.91391 0
M  V30 9451 C 887.846 -0.0791045 4.4593 0
M  V30 9452 C 888.547 1.70382 5.56188 0
M  V30 9453 N 887.523 1.01202 5.34097 0
M  V30 9454 H 891.325 0.980846 2.7705 0
M  V30 9455 H 888.839 0.635798 1.49437 0
M  V30 9456 H 890.836 -1.15107 4.00694 0
M  V30 9457 H 889.496 -1.49576 2.88196 0
M  V30 9458 H 890.507 1.58119 4.93172 0
M  V30 9459 H 887.184 -0.856993 4.0861 0
M  V30 9460 H 888.574 2.58715 6.20093 0
M  V30 9461 N 891.294 -1.47756 0.548274 0
M  V30 9462 C 892.705 -1.8636 0.112547 0
M  V30 9463 C 893.056 -1.45589 -1.31523 0
M  V30 9464 O 892.181 -0.854874 -1.98799 0
M  V30 9465 C 892.776 -3.38224 0.197473 0
M  V30 9466 C 891.335 -3.75954 -0.183163 0
M  V30 9467 C 890.482 -2.7181 0.549059 0
M  V30 9468 H 893.433 -1.394 0.758506 0
M  V30 9469 H 893.454 -3.75957 -0.586217 0
M  V30 9470 H 892.966 -3.67868 1.23673 0
M  V30 9471 H 891.067 -3.51926 -1.22387 0
M  V30 9472 H 891.18 -4.78801 0.169178 0
M  V30 9473 H 889.544 -2.54699 -0.00682862 0
M  V30 9474 H 890.327 -3.04296 1.5893 0
M  V30 9475 N 892.772 -0.284283 -1.55015 0
M  V30 9476 C 894.019 0.329864 -1.99795 0
M  V30 9477 C 894.347 1.55171 -1.1727 0
M  V30 9478 O 893.602 1.94312 -0.232667 0
M  V30 9479 C 893.901 0.747219 -3.49502 0
M  V30 9480 C 893.567 -0.37101 -4.49371 0
M  V30 9481 C 892.229 -0.678034 -4.76399 0
M  V30 9482 C 894.581 -1.12406 -5.08935 0
M  V30 9483 C 891.909 -1.74152 -5.60257 0
M  V30 9484 C 894.261 -2.17734 -5.93948 0
M  V30 9485 C 892.925 -2.49061 -6.19294 0
M  V30 9486 H 892.195 0.120706 -0.731103 0
M  V30 9487 H 894.842 -0.399904 -1.87278 0
M  V30 9488 H 893.147 1.55681 -3.59542 0
M  V30 9489 H 894.844 1.2333 -3.81563 0
M  V30 9490 H 891.434 -0.1216 -4.28427 0
M  V30 9491 H 895.618 -0.900119 -4.88069 0
M  V30 9492 H 890.874 -1.98915 -5.78137 0
M  V30 9493 H 895.048 -2.76553 -6.39133 0
M  V30 9494 H 892.675 -3.31602 -6.84064 0
M  V30 9495 N 894.251 1.57596 -0.0117121 0
M  V30 9496 C 895.662 1.79033 0.529521 0
M  V30 9497 C 896.013 0.920299 1.73277 0
M  V30 9498 O 895.138 0.125934 2.16033 0
M  V30 9499 C 895.733 3.24695 0.967405 0
M  V30 9500 C 894.292 3.47188 1.45387 0
M  V30 9501 C 893.439 2.74245 0.410466 0
M  V30 9502 H 896.39 1.56908 -0.237836 0
M  V30 9503 H 896.411 3.33451 1.83278 0
M  V30 9504 H 895.923 3.87992 0.0914605 0
M  V30 9505 H 894.024 2.89121 2.35032 0
M  V30 9506 H 894.137 4.55886 1.47325 0
M  V30 9507 H 892.501 2.39209 0.874721 0
M  V30 9508 H 893.284 3.40248 -0.456713 0
M  V30 9509 N 895.729 -0.261212 1.5542 0
M  V30 9510 C 896.692 -1.30645 1.8832 0
M  V30 9511 C 897.692 -1.41782 0.758588 0
M  V30 9512 O 898.882 -1.40729 1.02669 0
M  V30 9513 C 896.014 -2.6862 2.09895 0
M  V30 9514 H 897.207 -1.02698 2.81768 0
M  V30 9515 H 894.76 -0.499838 1.48092 0
M  V30 9516 H 895.495 -3.0173 1.18868 0
M  V30 9517 H 895.28 -2.61921 2.91787 0
M  V30 9518 H 896.77 -3.44121 2.36581 0
M  V30 9519 N 897.207 -1.48554 -0.526253 0
M  V30 9520 C 898.137 -1.66252 -1.63959 0
M  V30 9521 C 899.118 -0.511351 -1.62232 0
M  V30 9522 O 900.303 -0.744322 -1.7937 0
M  V30 9523 C 897.433 -1.70556 -3.02536 0
M  V30 9524 C 896.387 -2.8521 -3.19123 0
M  V30 9525 C 895.713 -2.74606 -4.58798 0
M  V30 9526 C 897.013 -4.26463 -3.0154 0
M  V30 9527 H 898.707 -2.59459 -1.49404 0
M  V30 9528 H 896.253 -1.24862 -0.717326 0
M  V30 9529 H 898.206 -1.81524 -3.80298 0
M  V30 9530 H 896.93 -0.739297 -3.18123 0
M  V30 9531 H 895.589 -2.73802 -2.43779 0
M  V30 9532 H 895.237 -1.75941 -4.71226 0
M  V30 9533 H 894.937 -3.51544 -4.70841 0
M  V30 9534 H 896.461 -2.87548 -5.38655 0
M  V30 9535 H 897.875 -4.38685 -3.69091 0
M  V30 9536 H 896.272 -5.04428 -3.25073 0
M  V30 9537 H 897.342 -4.42667 -1.97925 0
M  V30 9538 N 898.685 0.775411 -1.37205 0
M  V30 9539 C 900.096 1.35147 -1.28811 0
M  V30 9540 C 900.447 1.96089 0.0659168 0
M  V30 9541 O 899.572 1.93558 0.967684 0
M  V30 9542 C 900.167 2.45715 -2.33258 0
M  V30 9543 C 898.726 2.99099 -2.2851 0
M  V30 9544 C 897.873 1.72286 -2.17285 0
M  V30 9545 H 900.824 0.575954 -1.4788 0
M  V30 9546 H 900.845 3.251 -1.97712 0
M  V30 9547 H 900.357 2.01331 -3.31795 0
M  V30 9548 H 898.458 3.47868 -1.33485 0
M  V30 9549 H 898.571 3.54962 -3.21774 0
M  V30 9550 H 896.935 1.95068 -1.6377 0
M  V30 9551 H 897.718 1.3001 -3.1773 0
M  V30 9552 N 900.163 1.21714 1.00117 0
M  V30 9553 C 901.073 0.99597 2.12409 0
M  V30 9554 C 902.089 -0.0531431 1.73919 0
M  V30 9555 O 903.265 0.137757 2.00928 0
M  V30 9556 C 900.33 0.567593 3.42022 0
M  V30 9557 C 899.391 1.68936 3.94663 0
M  V30 9558 C 898.624 1.28133 5.1809 0
M  V30 9559 O 898.847 0.156574 5.70185 0
M  V30 9560 O 897.781 2.0947 5.64275 0
M  V30 9561 H 901.607 1.93657 2.33946 0
M  V30 9562 H 899.192 1.00236 1.10784 0
M  V30 9563 H 901.074 0.338664 4.20037 0
M  V30 9564 H 899.749 -0.34424 3.21864 0
M  V30 9565 H 898.656 1.97274 3.17858 0
M  V30 9566 H 899.989 2.57876 4.19238 0
M  V30 9567 N 901.641 -1.19671 1.02551 0
M  V30 9568 C 902.589 -2.24812 0.596867 0
M  V30 9569 C 903.583 -1.65336 -0.368839 0
M  V30 9570 O 904.789 -1.78422 -0.237786 0
M  V30 9571 H 901.164 -0.731417 0.174739 0
M  V30 9572 H 903.135 -2.58286 1.49435 0
M  V30 9573 C 901.884 -3.47677 -0.0399514 0
M  V30 9574 H 901.207 -3.93728 0.694153 0
M  V30 9575 H 902.647 -4.22917 -0.302861 0
M  V30 9576 C 901.106 -3.11411 -1.2855 0
M  V30 9577 O 901.636 -3.23757 -2.37791 0
M  V30 9578 N 899.842 -2.65875 -1.17297 0
M  V30 9579 H 899.389 -2.56029 -0.284045 0
M  V30 9580 H 899.347 -2.41981 -2.00731 0
M  V30 9581 N 903.119 -0.802921 -1.35613 0
M  V30 9582 C 904.029 -0.212177 -2.33639 0
M  V30 9583 C 905.045 0.642871 -1.61689 0
M  V30 9584 O 906.221 0.555485 -1.93588 0
M  V30 9585 C 903.286 0.632406 -3.40883 0
M  V30 9586 C 902.347 -0.242708 -4.28613 0
M  V30 9587 C 901.58 0.56166 -5.30736 0
M  V30 9588 O 901.803 1.79664 -5.41366 0
M  V30 9589 O 900.737 -0.0455387 -6.01883 0
M  V30 9590 H 904.563 -1.023 -2.85952 0
M  V30 9591 H 902.148 -0.564636 -1.38319 0
M  V30 9592 H 904.03 1.11358 -4.0642 0
M  V30 9593 H 902.705 1.42089 -2.90848 0
M  V30 9594 H 901.612 -0.77094 -3.6607 0
M  V30 9595 H 902.945 -0.995046 -4.82037 0
M  V30 9596 N 904.597 1.47463 -0.556102 0
M  V30 9597 C 905.874 1.9557 0.0339892 0
M  V30 9598 C 906.254 1.49869 1.48669 0
M  V30 9599 O 905.602 0.737019 2.16288 0
M  V30 9600 C 905.812 3.48826 -0.110343 0
M  V30 9601 C 907.16 4.24585 0.0355716 0
M  V30 9602 O 908.184 3.5618 -0.0378356 0
M  V30 9603 O 907.043 5.46158 0.193299 0
M  V30 9604 H 904.137 0.824461 0.0647521 0
M  V30 9605 H 906.683 1.57868 -0.622547 0
M  V30 9606 H 905.455 3.74891 -1.12126 0
M  V30 9607 H 905.078 3.9329 0.583855 0
M  V30 9608 N 906.075 0.2925 1.54862 0
M  V30 9609 C 907.303 -0.322113 2.04377 0
M  V30 9610 C 907.718 -1.48164 1.17016 0
M  V30 9611 O 907.075 -1.81466 0.19395 0
M  V30 9612 C 907.126 -0.786506 3.5284 0
M  V30 9613 O 906.847 0.326863 4.36879 0
M  V30 9614 C 908.348 -1.46715 4.18318 0
M  V30 9615 H 905.568 -0.0712074 0.667211 0
M  V30 9616 H 908.112 0.429657 1.99935 0
M  V30 9617 H 906.267 -1.48832 3.5767 0
M  V30 9618 H 906.681 -0.0331558 5.2449 0
M  V30 9619 H 908.155 -1.74333 5.23748 0
M  V30 9620 H 908.632 -2.40443 3.67538 0
M  V30 9621 H 909.238 -0.808735 4.1754 0
M  V30 9622 N 907.553 -1.57587 0.0200696 0
M  V30 9623 C 908.485 -2.06555 -0.993359 0
M  V30 9624 C 909.498 -0.987227 -1.29451 0
M  V30 9625 O 910.687 -1.26361 -1.26075 0
M  V30 9626 C 907.787 -2.4675 -2.3231 0
M  V30 9627 C 906.96 -3.77554 -2.20843 0
M  V30 9628 C 906.019 -4.04397 -3.36674 0
M  V30 9629 O 905.045 -4.7478 -3.13963 0
M  V30 9630 N 906.247 -3.53861 -4.60176 0
M  V30 9631 H 909.012 -2.9412 -0.575617 0
M  V30 9632 H 906.573 -1.61038 -0.166889 0
M  V30 9633 H 908.565 -2.61806 -3.08609 0
M  V30 9634 H 907.135 -1.64598 -2.65756 0
M  V30 9635 H 906.355 -3.72382 -1.29327 0
M  V30 9636 H 907.643 -4.63271 -2.10375 0
M  V30 9637 H 907.041 -2.96904 -4.81523 0
M  V30 9638 H 905.598 -3.74213 -5.33674 0
M  V30 9639 N 909.032 0.252966 -1.55557 0
M  V30 9640 C 910.443 0.822503 -1.67606 0
M  V30 9641 C 910.794 1.86265 -0.616411 0
M  V30 9642 O 909.919 2.15082 0.238447 0
M  V30 9643 C 910.514 1.49866 -3.03852 0
M  V30 9644 C 909.073 2.01597 -3.17861 0
M  V30 9645 C 908.22 0.864943 -2.63465 0
M  V30 9646 H 911.171 0.0288958 -1.58674 0
M  V30 9647 H 911.192 2.36646 -2.97958 0
M  V30 9648 H 910.704 0.741378 -3.80953 0
M  V30 9649 H 908.805 2.80224 -2.45571 0
M  V30 9650 H 908.918 2.21752 -4.24692 0
M  V30 9651 H 907.282 1.2638 -2.21134 0
M  V30 9652 H 908.065 0.120847 -3.43087 0
M  V30 9653 N 910.51 1.48831 0.518367 0
M  V30 9654 C 911.42 1.6692 1.64848 0
M  V30 9655 C 912.436 0.551711 1.65022 0
M  V30 9656 O 913.612 0.824251 1.83761 0
M  V30 9657 C 910.677 1.71559 3.01278 0
M  V30 9658 C 909.738 2.9502 3.11868 0
M  V30 9659 C 908.971 2.99428 4.4179 0
M  V30 9660 O 909.194 2.11914 5.29574 0
M  V30 9661 O 908.128 3.91719 4.5699 0
M  V30 9662 H 911.954 2.62623 1.52521 0
M  V30 9663 H 909.539 1.32368 0.692749 0
M  V30 9664 H 911.421 1.77064 3.82396 0
M  V30 9665 H 910.096 0.790316 3.13904 0
M  V30 9666 H 909.003 2.95042 2.30003 0
M  V30 9667 H 910.336 3.8697 3.04163 0
M  V30 9668 N 911.988 -0.768124 1.37614 0
M  V30 9669 C 912.918 -1.89537 1.36374 0
M  V30 9670 C 913.899 -1.68513 0.231803 0
M  V30 9671 O 915.084 -1.89318 0.432705 0
M  V30 9672 C 912.214 -3.26871 1.17358 0
M  V30 9673 C 911.168 -3.62466 2.27602 0
M  V30 9674 C 910.494 -4.9838 1.93705 0
M  V30 9675 C 911.794 -3.68841 3.69802 0
M  V30 9676 H 913.488 -1.90832 2.30702 0
M  V30 9677 H 911.034 -0.91672 1.11051 0
M  V30 9678 H 912.987 -4.05371 1.15119 0
M  V30 9679 H 911.711 -3.26018 0.194865 0
M  V30 9680 H 910.37 -2.86276 2.29002 0
M  V30 9681 H 910.018 -4.94071 0.943539 0
M  V30 9682 H 909.718 -5.23165 2.6753 0
M  V30 9683 H 911.242 -5.79276 1.93059 0
M  V30 9684 H 912.656 -4.37485 3.70513 0
M  V30 9685 H 911.053 -4.05126 4.42711 0
M  V30 9686 H 912.123 -2.69415 4.03167 0
M  V30 9687 N 913.466 -1.22244 -0.994698 0
M  V30 9688 C 914.696 -1.07062 -1.76695 0
M  V30 9689 C 915.104 0.381895 -1.85306 0
M  V30 9690 O 914.447 1.27648 -1.32105 0
M  V30 9691 C 914.509 -1.60487 -3.2169 0
M  V30 9692 C 914.173 -3.09079 -3.36629 0
M  V30 9693 C 915.17 -4.06526 -3.24088 0
M  V30 9694 C 912.855 -3.48497 -3.61739 0
M  V30 9695 C 914.849 -5.41377 -3.36437 0
M  V30 9696 C 912.536 -4.83498 -3.73729 0
M  V30 9697 C 913.534 -5.79747 -3.61086 0
M  V30 9698 O 913.222 -7.12297 -3.72678 0
M  V30 9699 H 912.954 -0.375963 -0.561807 0
M  V30 9700 H 915.508 -1.62259 -1.25941 0
M  V30 9701 H 913.738 -0.996957 -3.73628 0
M  V30 9702 H 915.427 -1.40994 -3.80625 0
M  V30 9703 H 916.193 -3.77415 -3.04602 0
M  V30 9704 H 912.072 -2.74106 -3.70657 0
M  V30 9705 H 915.616 -6.16485 -3.26485 0
M  V30 9706 H 911.513 -5.1229 -3.92721 0
M  V30 9707 H 912.281 -7.1985 -3.89562 0
M  V30 9708 N 914.944 1.19125 -1.03184 0
M  V30 9709 C 915.894 2.20348 -0.585731 0
M  V30 9710 C 916.878 1.56656 0.367109 0
M  V30 9711 O 918.07 1.76003 0.187598 0
M  V30 9712 C 915.199 3.43249 0.0590006 0
M  V30 9713 C 914.285 4.1408 -0.916457 0
M  V30 9714 N 914.676 4.61051 -2.08005 0
M  V30 9715 C 912.974 4.39809 -0.74054 0
M  V30 9716 C 913.675 5.15477 -2.69552 0
M  V30 9717 N 912.651 5.06456 -1.97493 0
M  V30 9718 H 916.453 2.54346 -1.47259 0
M  V30 9719 H 913.967 1.35232 -0.899225 0
M  V30 9720 H 915.964 4.15013 0.396236 0
M  V30 9721 H 914.624 3.1075 0.941507 0
M  V30 9722 H 915.635 4.55782 -2.45934 0
M  V30 9723 H 912.312 4.17397 0.0926238 0
M  V30 9724 H 913.702 5.62088 -3.68112 0
M  V30 9725 N 916.422 0.810101 1.35185 0
M  V30 9726 C 917.833 0.452616 1.81131 0
M  V30 9727 C 918.184 -1.02573 1.67252 0
M  V30 9728 O 917.309 -1.79735 1.20516 0
M  V30 9729 C 917.904 0.814775 3.28857 0
M  V30 9730 C 916.463 0.509839 3.72931 0
M  V30 9731 C 915.61 1.03852 2.57119 0
M  V30 9732 H 918.561 1.00143 1.23114 0
M  V30 9733 H 918.582 0.113635 3.8033 0
M  V30 9734 H 918.094 1.89078 3.38926 0
M  V30 9735 H 916.195 -0.557289 3.68409 0
M  V30 9736 H 916.308 1.04493 4.67566 0
M  V30 9737 H 914.672 0.460671 2.50499 0
M  V30 9738 H 915.455 2.12071 2.69964 0
M  V30 9739 N 917.9 -1.47166 0.563914 0
M  V30 9740 C 918.833 -2.27058 -0.227989 0
M  V30 9741 C 919.811 -1.34468 -0.914179 0
M  V30 9742 O 920.995 -1.63857 -0.931829 0
M  V30 9743 C 918.122 -3.11689 -1.32543 0
M  V30 9744 C 917.168 -4.19906 -0.747084 0
M  V30 9745 S 918.001 -5.33916 0.41153 0
M  V30 9746 C 919.157 -6.22112 -0.687566 0
M  V30 9747 H 919.39 -2.93876 0.449939 0
M  V30 9748 H 916.923 -1.50372 0.350382 0
M  V30 9749 H 918.881 -3.61017 -1.95389 0
M  V30 9750 H 917.542 -2.44221 -1.97522 0
M  V30 9751 H 916.735 -4.78876 -1.57141 0
M  V30 9752 H 916.337 -3.73493 -0.194671 0
M  V30 9753 H 918.629 -6.58867 -1.578 0
M  V30 9754 H 919.572 -7.07971 -0.135058 0
M  V30 9755 H 919.98 -5.55871 -0.983255 0
M  V30 9756 N 919.378 -0.300708 -1.54705 0
M  V30 9757 C 920.325 0.57552 -2.23509 0
M  V30 9758 C 921.295 1.12979 -1.21758 0
M  V30 9759 O 922.48 1.17437 -1.50377 0
M  V30 9760 C 919.62 1.74167 -2.97926 0
M  V30 9761 C 918.733 1.21882 -4.1445 0
M  V30 9762 C 917.868 2.34881 -4.7645 0
M  V30 9763 C 916.907 1.79729 -5.85119 0
M  V30 9764 N 916.044 2.863 -6.41075 0
M  V30 9765 H 920.884 -0.0178257 -2.97995 0
M  V30 9766 H 918.421 -0.0205666 -1.47086 0
M  V30 9767 H 920.379 2.42753 -3.39303 0
M  V30 9768 H 919.009 2.30665 -2.25817 0
M  V30 9769 H 918.061 0.425227 -3.78016 0
M  V30 9770 H 919.373 0.775065 -4.92741 0
M  V30 9771 H 918.527 3.11415 -5.20678 0
M  V30 9772 H 917.266 2.82584 -3.97489 0
M  V30 9773 H 916.271 1.01684 -5.40315 0
M  V30 9774 H 917.496 1.32931 -6.65963 0
M  V30 9775 H 915.442 3.33337 -5.64998 0
M  V30 9776 H 915.359 2.46419 -7.14712 0
M  V30 9777 H 916.627 3.62732 -6.89961 0
M  V30 9778 N 920.856 1.57574 -0.0284266 0
M  V30 9779 C 921.803 2.10176 0.953658 0
M  V30 9780 C 922.773 1.00367 1.32347 0
M  V30 9781 O 923.958 1.27783 1.4169 0
M  V30 9782 C 921.098 2.63287 2.231 0
M  V30 9783 C 920.211 3.87102 1.91771 0
M  V30 9784 C 919.346 4.28609 3.13795 0
M  V30 9785 C 918.385 5.45184 2.78282 0
M  V30 9786 N 917.522 5.81851 3.92929 0
M  V30 9787 H 922.362 2.93806 0.498176 0
M  V30 9788 H 919.899 1.45222 0.234302 0
M  V30 9789 H 921.857 2.9217 2.97813 0
M  V30 9790 H 920.487 1.82489 2.66266 0
M  V30 9791 H 919.539 3.64952 1.07303 0
M  V30 9792 H 920.851 4.71892 1.61615 0
M  V30 9793 H 920.005 4.58925 3.96829 0
M  V30 9794 H 918.744 3.42585 3.47112 0
M  V30 9795 H 917.749 5.14563 1.93661 0
M  V30 9796 H 918.974 6.32907 2.46182 0
M  V30 9797 H 916.92 4.98782 4.2609 0
M  V30 9798 H 916.837 6.6128 3.66395 0
M  V30 9799 H 918.105 6.16772 4.76669 0
M  V30 9800 N 922.334 -0.244713 1.55689 0
M  V30 9801 C 923.582 -0.970525 1.77272 0
M  V30 9802 C 923.903 -1.85771 0.592804 0
M  V30 9803 O 923.173 -1.91952 -0.391323 0
M  V30 9804 H 921.753 -0.361342 0.653789 0
M  V30 9805 H 924.415 -0.262134 1.93129 0
M  V30 9806 H 923.511 -1.59096 2.68505 0
M  V30 9807 N 923.813 -1.49104 -0.510467 0
M  V30 9808 C 925.038 -1.62068 -1.29417 0
M  V30 9809 C 925.463 -0.288432 -1.85875 0
M  V30 9810 O 924.821 0.742667 -1.65391 0
M  V30 9811 C 924.869 -2.68506 -2.40701 0
M  V30 9812 O 923.973 -2.27021 -3.4429 0
M  V30 9813 H 923.314 -0.542778 -0.382476 0
M  V30 9814 H 925.844 -1.95228 -0.612154 0
M  V30 9815 H 925.854 -2.90383 -2.86604 0
M  V30 9816 H 924.529 -3.65216 -1.98973 0
M  V30 9817 H 923.106 -2.15436 -3.04371 0
M  V30 9818 N 925.291 0.760815 -1.38019 0
M  V30 9819 C 926.539 1.51673 -1.33566 0
M  V30 9820 C 926.86 1.94852 0.076024 0
M  V30 9821 O 926.13 1.67112 1.02227 0
M  V30 9822 H 924.71 0.562581 -0.491438 0
M  V30 9823 H 927.372 0.904832 -1.72623 0
M  V30 9824 H 926.468 2.41102 -1.98182 0
M  V30 9825 N 926.769 1.22769 0.988202 0
M  V30 9826 C 928.015 1.05665 1.73097 0
M  V30 9827 C 928.348 -0.406615 1.89895 0
M  V30 9828 O 927.623 -1.30132 1.44554 0
M  V30 9829 C 927.906 1.77381 3.13382 0
M  V30 9830 C 927.759 3.31332 3.04203 0
M  V30 9831 C 929.078 1.52999 4.12649 0
M  V30 9832 H 926.197 0.385258 0.628288 0
M  V30 9833 H 928.839 1.51171 1.15097 0
M  V30 9834 H 926.989 1.38696 3.62899 0
M  V30 9835 H 928.661 3.79489 2.6227 0
M  V30 9836 H 926.904 3.60767 2.40894 0
M  V30 9837 H 927.575 3.76692 4.03493 0
M  V30 9838 H 930.051 1.86611 3.71908 0
M  V30 9839 H 928.927 2.05666 5.08913 0
M  V30 9840 H 929.188 0.463615 4.39662 0
M  V30 9841 N 928.247 -1.18576 1.03814 0
M  V30 9842 C 929.495 -1.88121 0.738574 0
M  V30 9843 C 929.816 -1.80587 -0.735744 0
M  V30 9844 O 929.086 -1.22251 -1.53074 0
M  V30 9845 H 927.666 -0.696417 0.270208 0
M  V30 9846 H 930.328 -1.43912 1.31435 0
M  V30 9847 H 929.424 -2.94222 1.04115 0
M  V30 9848 N 929.725 -0.817259 -1.34754 0
M  V30 9849 C 930.635 -0.236946 -2.334 0
M  V30 9850 C 931.651 0.625685 -1.62361 0
M  V30 9851 O 932.827 0.534921 -1.94166 0
M  V30 9852 C 929.892 0.596215 -3.41535 0
M  V30 9853 C 928.953 -0.288154 -4.28332 0
M  V30 9854 C 928.186 0.505337 -5.31302 0
M  V30 9855 O 928.409 1.73912 -5.43241 0
M  V30 9856 O 927.343 -0.109374 -6.01801 0
M  V30 9857 H 931.169 -1.05327 -2.84851 0
M  V30 9858 H 928.754 -0.579275 -1.37713 0
M  V30 9859 H 930.636 1.07041 -4.07578 0
M  V30 9860 H 929.311 1.38997 -2.92338 0
M  V30 9861 H 928.218 -0.809724 -3.65232 0
M  V30 9862 H 929.551 -1.04612 -4.80955 0
M  V30 9863 N 931.203 1.46865 -0.571711 0
M  V30 9864 C 932.135 2.28277 0.205479 0
M  V30 9865 C 933.148 1.37866 0.865835 0
M  V30 9866 O 934.337 1.62564 0.737247 0
M  V30 9867 C 931.437 3.12572 1.30965 0
M  V30 9868 C 930.61 4.31038 0.743328 0
M  V30 9869 C 929.669 4.96815 1.73382 0
M  V30 9870 O 928.695 5.54755 1.2742 0
M  V30 9871 N 929.897 4.92825 3.06764 0
M  V30 9872 H 932.662 2.95618 -0.49294 0
M  V30 9873 H 930.223 1.56655 -0.408744 0
M  V30 9874 H 932.215 3.53442 1.97131 0
M  V30 9875 H 930.785 2.47378 1.91109 0
M  V30 9876 H 930.005 3.94084 -0.0955004 0
M  V30 9877 H 931.293 5.07632 0.344556 0
M  V30 9878 H 930.691 4.46978 3.46738 0
M  V30 9879 H 929.248 5.3767 3.68449 0
M  V30 9880 N 932.681 0.308908 1.54543 0
M  V30 9881 C 933.958 -0.351558 1.92415 0
M  V30 9882 C 934.338 -1.71061 1.23699 0
M  V30 9883 O 933.686 -2.25394 0.3755 0
M  V30 9884 C 933.896 -0.458357 3.45977 0
M  V30 9885 C 935.244 -0.725524 4.18355 0
M  V30 9886 O 936.268 -0.541859 3.52054 0
M  V30 9887 O 935.127 -1.07884 5.35745 0
M  V30 9888 H 932.221 -0.197957 0.802958 0
M  V30 9889 H 934.767 0.357548 1.65891 0
M  V30 9890 H 933.539 0.496723 3.88134 0
M  V30 9891 H 933.162 -1.21562 3.78561 0
M  V30 9892 N 934.159 -1.57557 0.0367827 0
M  V30 9893 C 935.407 -1.91735 -0.63892 0
M  V30 9894 C 935.728 -0.914515 -1.72226 0
M  V30 9895 O 934.998 0.0428248 -1.95853 0
M  V30 9896 H 933.578 -0.707738 -0.23899 0
M  V30 9897 H 936.24 -1.94708 0.0863931 0
M  V30 9898 H 935.336 -2.92568 -1.08676 0
M  V30 9899 N 935.637 0.236453 -1.55816 0
M  V30 9900 C 936.885 0.96111 -1.77784 0
M  V30 9901 C 937.206 1.85454 -0.602648 0
M  V30 9902 O 936.476 1.92157 0.381137 0
M  V30 9903 H 935.056 0.35787 -0.655697 0
M  V30 9904 H 937.718 0.251888 -1.93265 0
M  V30 9905 H 936.814 1.5767 -2.69345 0
M  V30 9906 N 937.115 1.49373 0.502552 0
M  V30 9907 C 938.045 1.68839 1.61294 0
M  V30 9908 C 939.026 0.537096 1.61398 0
M  V30 9909 O 940.211 0.772764 1.78163 0
M  V30 9910 C 937.341 1.75347 2.99784 0
M  V30 9911 C 936.295 2.90251 3.14545 0
M  V30 9912 C 935.621 2.8187 4.54371 0
M  V30 9913 C 936.921 4.31207 2.94717 0
M  V30 9914 H 938.615 2.61803 1.45257 0
M  V30 9915 H 936.161 1.25987 0.697371 0
M  V30 9916 H 938.114 1.87552 3.77362 0
M  V30 9917 H 936.838 0.789814 3.16906 0
M  V30 9918 H 935.497 2.77646 2.39392 0
M  V30 9919 H 935.145 1.83416 4.68367 0
M  V30 9920 H 934.845 3.5899 4.65188 0
M  V30 9921 H 936.369 2.96081 5.34012 0
M  V30 9922 H 937.783 4.44501 3.62065 0
M  V30 9923 H 936.18 5.09536 3.17007 0
M  V30 9924 H 937.25 4.45759 1.90857 0
M  V30 9925 N 938.594 -0.753485 1.38421 0
M  V30 9926 C 939.843 -1.50797 1.33952 0
M  V30 9927 C 940.156 -1.95482 -0.0678464 0
M  V30 9928 O 941.362 -2.7048 -0.235078 0
M  V30 9929 C 939.818 -2.72393 2.35224 0
M  V30 9930 C 939.426 -2.34733 3.81582 0
M  V30 9931 C 941.17 -3.50281 2.39798 0
M  V30 9932 C 939.077 -3.52939 4.7454 0
M  V30 9933 H 938.007 -0.566211 0.497916 0
M  V30 9934 H 940.658 -0.823659 1.63976 0
M  V30 9935 H 939.04 -3.42806 1.98243 0
M  V30 9936 H 940.214 -1.71985 4.27502 0
M  V30 9937 H 938.529 -1.69978 3.80127 0
M  V30 9938 H 941.126 -4.38172 3.06447 0
M  V30 9939 H 941.469 -3.91444 1.41695 0
M  V30 9940 H 942.002 -2.86881 2.75579 0
M  V30 9941 H 938.741 -3.16843 5.73839 0
M  V30 9942 H 938.261 -4.1473 4.33312 0
M  V30 9943 H 939.94 -4.19519 4.92557 0
M  V30 9944 N 940.072 -1.23292 -0.981677 0
M  V30 9945 C 941.32 -1.06214 -1.71939 0
M  V30 9946 C 941.641 0.401989 -1.90812 0
M  V30 9947 O 940.911 1.28825 -1.47584 0
M  V30 9948 H 939.491 -0.390042 -0.637084 0
M  V30 9949 H 942.153 -1.54988 -1.18173 0
M  V30 9950 H 941.249 -1.54904 -2.70945 0
M  V30 9951 N 941.55 1.18024 -1.04442 0
M  V30 9952 C 942.513 2.19992 -0.643136 0
M  V30 9953 C 943.513 1.57949 0.301444 0
M  V30 9954 O 944.703 1.73986 0.0863341 0
M  V30 9955 C 941.835 3.40853 0.0565208 0
M  V30 9956 H 943.028 2.57008 -1.54554 0
M  V30 9957 H 940.581 1.31974 -0.837408 0
M  V30 9958 H 941.316 3.09373 0.972553 0
M  V30 9959 H 941.101 3.87128 -0.622439 0
M  V30 9960 H 942.591 4.16344 0.323652 0
M  V30 9961 N 943.028 0.824394 1.34319 0
M  V30 9962 C 943.938 0.24932 2.33271 0
M  V30 9963 C 944.954 -0.617066 1.62691 0
M  V30 9964 O 946.13 -0.524616 1.94447 0
M  V30 9965 C 943.195 -0.578094 3.41846 0
M  V30 9966 C 942.256 0.310866 4.28173 0
M  V30 9967 C 941.489 -0.477153 5.31563 0
M  V30 9968 O 941.712 -1.71028 5.44156 0
M  V30 9969 O 940.646 0.141287 6.01734 0
M  V30 9970 H 944.472 1.06837 2.84288 0
M  V30 9971 H 942.057 0.58657 1.37403 0
M  V30 9972 H 943.939 -1.04878 4.0814 0
M  V30 9973 H 942.614 -1.37444 2.93071 0
M  V30 9974 H 941.521 0.829081 3.64797 0
M  V30 9975 H 942.854 1.07161 4.80393 0
M  V30 9976 N 944.506 -1.46559 0.579492 0
M  V30 9977 C 945.416 -2.34066 -0.15816 0
M  V30 9978 C 946.432 -1.49556 -0.88932 0
M  V30 9979 O 947.608 -1.82434 -0.853226 0
M  V30 9980 C 944.673 -3.26683 -1.161 0
M  V30 9981 C 943.734 -4.27092 -0.434855 0
M  V30 9982 C 942.967 -5.15283 -1.38992 0
M  V30 9983 O 943.19 -5.06345 -2.62623 0
M  V30 9984 O 942.124 -5.95099 -0.902253 0
M  V30 9985 H 945.95 -2.98488 0.560234 0
M  V30 9986 H 943.535 -1.45482 0.339918 0
M  V30 9987 H 945.417 -3.8383 -1.73932 0
M  V30 9988 H 944.092 -2.64862 -1.86091 0
M  V30 9989 H 942.999 -3.73641 0.185224 0
M  V30 9990 H 944.332 -4.9169 0.224031 0
M  V30 9991 N 945.984 -0.3171 -1.54377 0
M  V30 9992 C 946.931 0.551782 -2.24107 0
M  V30 9993 C 947.901 1.11681 -1.22949 0
M  V30 9994 O 949.086 1.15836 -1.51614 0
M  V30 9995 C 946.226 1.70997 -2.99756 0
M  V30 9996 C 945.339 1.17479 -4.15719 0
M  V30 9997 C 944.474 2.29815 -4.78914 0
M  V30 9998 C 943.513 1.73513 -5.86992 0
M  V30 9999 N 942.65 2.79485 -6.44075 0
M  V30 10000 H 947.49 -0.049431 -2.97959 0
M  V30 10001 H 945.027 -0.0361658 -1.47056 0
M  V30 10002 H 946.985 2.39141 -3.41859 0
M  V30 10003 H 945.615 2.28257 -2.28251 0
M  V30 10004 H 944.667 0.385109 -3.78446 0
M  V30 10005 H 945.979 0.72276 -4.93536 0
M  V30 10006 H 945.133 3.05875 -5.23952 0
M  V30 10007 H 943.872 2.78352 -4.00464 0
M  V30 10008 H 942.877 0.959475 -5.41363 0
M  V30 10009 H 944.102 1.2586 -6.67335 0
M  V30 10010 H 942.048 3.27325 -5.68502 0
M  V30 10011 H 941.965 2.38825 -7.17286 0
M  V30 10012 H 943.233 3.55394 -6.93769 0
M  V30 10013 N 947.462 1.57535 -0.0451378 0
M  V30 10014 C 948.708 1.92736 0.630921 0
M  V30 10015 C 949.041 0.923265 1.70849 0
M  V30 10016 O 948.316 -0.0516512 1.94431 0
M  V30 10017 C 948.599 3.38348 1.23259 0
M  V30 10018 C 948.452 4.49503 0.16349 0
M  V30 10019 C 949.771 3.84233 2.14599 0
M  V30 10020 H 946.89 0.700884 0.227883 0
M  V30 10021 H 949.532 1.89706 -0.10567 0
M  V30 10022 H 947.682 3.41061 1.86037 0
M  V30 10023 H 949.354 4.58919 -0.46808 0
M  V30 10024 H 947.597 4.30802 -0.509166 0
M  V30 10025 H 948.268 5.48457 0.624382 0
M  V30 10026 H 950.744 3.83358 1.6179 0
M  V30 10027 H 949.62 4.86781 2.53644 0
M  V30 10028 H 949.881 3.20646 3.04366 0
M  V30 10029 N 948.94 -0.228186 1.55939 0
M  V30 10030 C 950.189 -0.951563 1.77843 0
M  V30 10031 C 950.502 -1.85763 0.612501 0
M  V30 10032 O 951.708 -2.61916 0.715006 0
M  V30 10033 C 950.164 -1.74216 3.14923 0
M  V30 10034 C 949.772 -0.882569 4.39221 0
M  V30 10035 C 951.516 -2.45715 3.46156 0
M  V30 10036 C 949.423 -1.67014 5.67327 0
M  V30 10037 H 948.353 -0.359035 0.663031 0
M  V30 10038 H 951.004 -0.205636 1.82344 0
M  V30 10039 H 949.386 -2.53075 3.0458 0
M  V30 10040 H 950.56 -0.13499 4.60602 0
M  V30 10041 H 948.875 -0.280022 4.15457 0
M  V30 10042 H 951.472 -3.05127 4.39092 0
M  V30 10043 H 951.815 -3.1827 2.68346 0
M  V30 10044 H 952.348 -1.73852 3.57799 0
M  V30 10045 H 949.087 -0.987985 6.48012 0
M  V30 10046 H 948.607 -2.3925 5.50018 0
M  V30 10047 H 950.286 -2.23252 6.07262 0
M  V30 10048 N 950.418 -1.49637 -0.494624 0
M  V30 10049 C 951.366 -1.6727 -1.61627 0
M  V30 10050 C 952.36 -0.538587 -1.6061 0
M  V30 10051 O 953.566 -0.718411 -1.65042 0
M  V30 10052 H 949.941 -0.527557 -0.535899 0
M  V30 10053 H 951.912 -2.61405 -1.43909 0
M  V30 10054 C 950.661 -1.7624 -2.99725 0
M  V30 10055 H 949.984 -2.62886 -3.01216 0
M  V30 10056 H 951.424 -1.92611 -3.77726 0
M  V30 10057 C 949.883 -0.508632 -3.33038 0
M  V30 10058 O 950.413 0.362828 -4.00058 0
M  V30 10059 N 948.619 -0.369667 -2.88239 0
M  V30 10060 H 948.166 -1.07984 -2.33875 0
M  V30 10061 H 948.124 0.468112 -3.10896 0
M  V30 10062 N 951.896 0.746133 -1.38819 0
M  V30 10063 C 953.121 1.54049 -1.38866 0
M  V30 10064 C 953.546 1.88092 0.0176624 0
M  V30 10065 O 952.904 1.51113 1.00173 0
M  V30 10066 C 952.952 2.8116 -2.25791 0
M  V30 10067 O 952.056 3.76623 -1.68014 0
M  V30 10068 H 951.397 0.465648 -0.473359 0
M  V30 10069 H 953.927 0.921469 -1.82675 0
M  V30 10070 H 953.937 3.30009 -2.39913 0
M  V30 10071 H 952.612 2.55713 -3.27999 0
M  V30 10072 H 951.189 3.35352 -1.63074 0
M  V30 10073 N 953.375 1.23811 0.975125 0
M  V30 10074 C 954.322 1.02394 2.06843 0
M  V30 10075 C 955.292 -0.060337 1.6599 0
M  V30 10076 O 956.477 0.0928187 1.90574 0
M  V30 10077 C 953.617 0.626882 3.39359 0
M  V30 10078 C 952.73 1.78385 3.9345 0
M  V30 10079 C 951.865 1.33307 5.14201 0
M  V30 10080 C 950.904 2.46045 5.60471 0
M  V30 10081 N 950.041 2.01888 6.72448 0
M  V30 10082 H 954.881 1.95973 2.24496 0
M  V30 10083 H 952.418 0.976206 1.10039 0
M  V30 10084 H 954.376 0.377742 4.15486 0
M  V30 10085 H 953.006 -0.271907 3.21653 0
M  V30 10086 H 952.058 2.14685 3.14029 0
M  V30 10087 H 953.37 2.63122 4.23755 0
M  V30 10088 H 952.524 1.04237 5.97678 0
M  V30 10089 H 951.263 0.456143 4.85562 0
M  V30 10090 H 950.268 2.75884 4.75571 0
M  V30 10091 H 951.493 3.34283 5.91127 0
M  V30 10092 H 949.439 1.16583 6.45558 0
M  V30 10093 H 949.356 2.80182 7.02164 0
M  V30 10094 H 950.624 1.75937 7.59386 0
M  V30 10095 N 954.853 -1.17469 1.05066 0
M  V30 10096 C 955.801 -2.23495 0.644418 0
M  V30 10097 C 956.795 -1.66081 -0.333685 0
M  V30 10098 O 958.001 -1.78887 -0.199886 0
M  V30 10099 H 954.376 -0.727546 0.190214 0
M  V30 10100 H 956.347 -2.55058 1.5488 0
M  V30 10101 C 955.096 -3.47684 0.0338051 0
M  V30 10102 H 954.419 -3.92167 0.777513 0
M  V30 10103 H 955.859 -4.23464 -0.213086 0
M  V30 10104 C 954.318 -3.14067 -1.21915 0
M  V30 10105 O 954.848 -3.28728 -2.3087 0
M  V30 10106 N 953.054 -2.68304 -1.11631 0
M  V30 10107 H 952.601 -2.56574 -0.229673 0
M  V30 10108 H 952.559 -2.46184 -1.95553 0
M  V30 10109 N 956.331 -0.831506 -1.3388 0
M  V30 10110 C 957.278 -0.257449 -2.2936 0
M  V30 10111 C 958.248 0.622604 -1.5399 0
M  V30 10112 O 959.433 0.562432 -1.82322 0
M  V30 10113 C 956.573 0.567587 -3.404 0
M  V30 10114 C 955.686 -0.335666 -4.30694 0
M  V30 10115 C 954.821 0.499762 -5.28844 0
M  V30 10116 C 953.86 -0.402343 -6.10776 0
M  V30 10117 N 952.997 0.39452 -7.00991 0
M  V30 10118 H 957.837 -1.077 -2.77857 0
M  V30 10119 H 955.374 -0.542589 -1.36727 0
M  V30 10120 H 957.332 1.06133 -4.03474 0
M  V30 10121 H 955.962 1.35217 -2.93115 0
M  V30 10122 H 955.014 -0.94768 -3.68406 0
M  V30 10123 H 956.326 -1.02896 -4.88072 0
M  V30 10124 H 955.48 1.05763 -5.9741 0
M  V30 10125 H 954.219 1.22652 -4.72025 0
M  V30 10126 H 953.224 -0.972288 -5.41135 0
M  V30 10127 H 954.449 -1.12735 -6.69677 0
M  V30 10128 H 952.395 1.1048 -6.4663 0
M  V30 10129 H 952.312 -0.240209 -7.55618 0
M  V30 10130 H 953.58 0.934867 -7.73874 0
M  V30 10131 N 957.809 1.4625 -0.587256 0
M  V30 10132 C 959.055 2.02662 -0.0746851 0
M  V30 10133 C 959.388 1.45723 1.28368 0
M  V30 10134 O 958.663 0.624062 1.84216 0
M  V30 10135 C 958.946 3.60097 -0.0138109 0
M  V30 10136 C 958.799 4.27412 -1.4014 0
M  V30 10137 C 960.118 4.34744 0.684491 0
M  V30 10138 H 957.237 0.736444 -0.0286144 0
M  V30 10139 H 959.879 1.74341 -0.755328 0
M  V30 10140 H 958.029 3.84357 0.56583 0
M  V30 10141 H 959.701 4.14401 -2.02656 0
M  V30 10142 H 957.944 3.86598 -1.96785 0
M  V30 10143 H 958.615 5.362 -1.31124 0
M  V30 10144 H 961.091 4.15657 0.192023 0
M  V30 10145 H 959.967 5.44468 0.696127 0
M  V30 10146 H 960.228 4.06132 1.74669 0
M  V30 10147 N 959.287 0.325282 1.54207 0
M  V30 10148 C 960.564 -0.33113 1.92777 0
M  V30 10149 C 960.944 -1.69739 1.25506 0
M  V30 10150 O 960.292 -2.24983 0.399385 0
M  V30 10151 C 960.502 -0.421636 3.46444 0
M  V30 10152 C 961.85 -0.681111 4.19101 0
M  V30 10153 O 962.874 -0.504488 3.52609 0
M  V30 10154 O 961.733 -1.02196 5.3686 0
M  V30 10155 H 958.827 -0.18943 0.805013 0
M  V30 10156 H 961.373 0.375123 1.65502 0
M  V30 10157 H 960.145 0.537862 3.87586 0
M  V30 10158 H 959.768 -1.1754 3.79829 0
M  V30 10159 N 960.765 -1.57509 0.0534917 0
M  V30 10160 C 961.675 -2.15152 -0.935249 0
M  V30 10161 C 962.691 -1.10991 -1.34003 0
M  V30 10162 O 963.867 -1.43171 -1.41648 0
M  V30 10163 C 960.932 -2.68699 -2.19093 0
M  V30 10164 C 959.993 -3.87666 -1.84428 0
M  V30 10165 C 959.226 -4.3865 -3.0401 0
M  V30 10166 O 959.449 -3.887 -4.17455 0
M  V30 10167 O 958.383 -5.30209 -2.84889 0
M  V30 10168 H 962.209 -2.99962 -0.475009 0
M  V30 10169 H 959.794 -1.48446 -0.16854 0
M  V30 10170 H 961.676 -3.03098 -2.92762 0
M  V30 10171 H 960.351 -1.86958 -2.6425 0
M  V30 10172 H 959.258 -3.58151 -1.08068 0
M  V30 10173 H 960.591 -4.70643 -1.44068 0
M  V30 10174 N 962.243 0.219913 -1.56058 0
M  V30 10175 C 963.191 1.29215 -1.93407 0
M  V30 10176 C 964.185 1.48434 -0.816307 0
M  V30 10177 O 965.391 1.49589 -1.00115 0
M  V30 10178 H 961.766 0.433256 -0.614649 0
M  V30 10179 H 963.737 0.949977 -2.82875 0
M  V30 10180 C 962.486 2.63501 -2.26854 0
M  V30 10181 H 961.809 2.4952 -3.12377 0
M  V30 10182 H 963.249 3.37334 -2.56869 0
M  V30 10183 C 961.708 3.18634 -1.09425 0
M  V30 10184 O 962.238 4.00117 -0.356243 0
M  V30 10185 N 960.444 2.7703 -0.877642 0
M  V30 10186 H 959.991 2.10875 -1.47951 0
M  V30 10187 H 959.949 3.1426 -0.0936792 0
M  V30 10188 N 963.721 1.49897 0.486681 0
M  V30 10189 C 964.654 1.6224 1.60479 0
M  V30 10190 C 965.632 0.470964 1.5563 0
M  V30 10191 O 966.816 0.688418 1.75479 0
M  V30 10192 C 963.943 1.59059 2.99028 0
M  V30 10193 C 962.989 2.79575 3.22087 0
M  V30 10194 S 963.822 4.41077 3.03664 0
M  V30 10195 C 964.978 4.40564 4.44583 0
M  V30 10196 H 965.211 2.56822 1.49766 0
M  V30 10197 H 962.744 1.38966 0.672893 0
M  V30 10198 H 964.702 1.5791 3.78913 0
M  V30 10199 H 963.363 0.657405 3.07143 0
M  V30 10200 H 962.556 2.73609 4.23266 0
M  V30 10201 H 962.158 2.78211 2.49949 0
M  V30 10202 H 964.45 4.13166 5.36936 0
M  V30 10203 H 965.393 5.42068 4.55596 0
M  V30 10204 H 965.801 3.70461 4.25933 0
M  V30 10205 N 965.199 -0.738761 1.39212 0
M  V30 10206 C 966.445 -1.50046 1.36433 0
M  V30 10207 C 966.778 -1.94157 -0.0409474 0
M  V30 10208 O 966.053 -1.66515 -1.00514 0
M  V30 10209 C 966.336 -2.74277 2.33333 0
M  V30 10210 C 966.189 -2.36209 3.82786 0
M  V30 10211 C 967.508 -3.76361 2.28123 0
M  V30 10212 H 964.627 -0.544294 0.496903 0
M  V30 10213 H 967.269 -0.845005 1.70175 0
M  V30 10214 H 965.419 -3.30204 2.04689 0
M  V30 10215 H 967.091 -1.85942 4.22165 0
M  V30 10216 H 965.334 -1.68483 3.99745 0
M  V30 10217 H 966.005 -3.25156 4.46069 0
M  V30 10218 H 968.481 -3.30009 2.53443 0
M  V30 10219 H 967.357 -4.60957 2.9801 0
M  V30 10220 H 967.618 -4.23013 1.28499 0
M  V30 10221 N 966.677 -1.24326 -0.968545 0
M  V30 10222 C 967.926 -1.07647 -1.70572 0
M  V30 10223 C 968.239 0.384821 -1.91777 0
M  V30 10224 O 969.445 0.671782 -2.63058 0
M  V30 10225 C 967.901 -1.87799 -3.07017 0
M  V30 10226 C 967.509 -3.38333 -2.93658 0
M  V30 10227 C 969.253 -1.79647 -3.84613 0
M  V30 10228 C 967.16 -4.10831 -4.25407 0
M  V30 10229 H 966.09 -0.399216 -0.639642 0
M  V30 10230 H 968.741 -1.484 -1.07934 0
M  V30 10231 H 967.123 -1.3986 -3.7048 0
M  V30 10232 H 968.297 -3.93845 -2.39213 0
M  V30 10233 H 966.612 -3.47427 -2.29528 0
M  V30 10234 H 969.209 -2.31116 -4.82172 0
M  V30 10235 H 969.552 -0.761553 -4.09275 0
M  V30 10236 H 970.085 -2.25261 -3.27875 0
M  V30 10237 H 966.824 -5.14679 -4.05939 0
M  V30 10238 H 966.344 -3.60105 -4.79671 0
M  V30 10239 H 968.023 -4.17783 -4.94031 0
M  V30 10240 N 968.156 1.1691 -1.05688 0
M  V30 10241 C 969.433 1.83266 -0.683601 0
M  V30 10242 C 969.813 1.93858 0.835602 0
M  V30 10243 O 969.161 1.47696 1.7435 0
M  V30 10244 C 969.371 3.20625 -1.37842 0
M  V30 10245 C 970.719 3.96473 -1.51967 0
M  V30 10246 O 971.743 3.30122 -1.33783 0
M  V30 10247 O 970.602 5.15393 -1.81749 0
M  V30 10248 H 967.696 0.791028 -0.241254 0
M  V30 10249 H 970.242 1.24165 -1.15677 0
M  V30 10250 H 969.014 3.07914 -2.41463 0
M  V30 10251 H 968.637 3.87398 -0.894921 0
M  V30 10252 N 969.634 0.838594 1.33437 0
M  V30 10253 C 970.544 0.274048 2.32994 0
M  V30 10254 C 971.56 -0.599776 1.63336 0
M  V30 10255 O 972.736 -0.503963 1.94993 0
M  V30 10256 C 969.801 -0.541804 3.4244 0
M  V30 10257 C 968.862 0.356262 4.27819 0
M  V30 10258 C 968.095 -0.420747 5.32039 0
M  V30 10259 O 968.318 -1.65247 5.45939 0
M  V30 10260 O 967.252 0.205101 6.0155 0
M  V30 10261 H 971.078 1.09846 2.83139 0
M  V30 10262 H 968.663 0.601111 1.36774 0
M  V30 10263 H 970.545 -1.00544 4.0923 0
M  V30 10264 H 969.22 -1.34328 2.94513 0
M  V30 10265 H 968.127 0.867726 3.63897 0
M  V30 10266 H 969.46 1.1225 4.79229 0
M  V30 10267 N 971.112 -1.45937 0.595003 0
M  V30 10268 C 972.34 -2.06698 0.091293 0
M  V30 10269 C 972.755 -1.44176 -1.21897 0
M  V30 10270 O 972.112 -0.551402 -1.73971 0
M  V30 10271 C 972.163 -3.61436 -0.0681801 0
M  V30 10272 O 971.884 -4.21622 1.19023 0
M  V30 10273 C 973.385 -4.39155 -0.604814 0
M  V30 10274 H 970.605 -0.668029 0.0630737 0
M  V30 10275 H 973.149 -1.87376 0.819165 0
M  V30 10276 H 971.304 -3.80143 -0.746324 0
M  V30 10277 H 971.718 -5.14647 1.01187 0
M  V30 10278 H 973.192 -5.47973 -0.665532 0
M  V30 10279 H 973.669 -4.08055 -1.62444 0
M  V30 10280 H 974.275 -4.25282 0.0388658 0
M  V30 10281 N 972.59 -0.333456 -1.54032 0
M  V30 10282 C 973.52 0.52051 -2.27625 0
M  V30 10283 C 974.501 1.1111 -1.28797 0
M  V30 10284 O 975.686 1.13438 -1.57625 0
M  V30 10285 C 972.816 1.67663 -3.04149 0
M  V30 10286 C 971.77 1.21487 -4.10396 0
M  V30 10287 C 971.096 2.45872 -4.74817 0
M  V30 10288 C 972.396 0.322603 -5.21303 0
M  V30 10289 H 974.09 -0.0933823 -2.99254 0
M  V30 10290 H 971.636 -0.0463526 -1.43925 0
M  V30 10291 H 973.589 2.28041 -3.54366 0
M  V30 10292 H 972.313 2.31727 -2.30153 0
M  V30 10293 H 970.972 0.633966 -3.61077 0
M  V30 10294 H 970.62 3.0832 -3.97426 0
M  V30 10295 H 970.32 2.15662 -5.46593 0
M  V30 10296 H 971.844 3.06994 -5.27814 0
M  V30 10297 H 973.258 0.832942 -5.67217 0
M  V30 10298 H 971.655 0.112843 -5.99994 0
M  V30 10299 H 972.725 -0.643954 -4.80605 0
M  V30 10300 N 974.068 1.57479 -0.061844 0
M  V30 10301 C 975.345 1.84484 0.649993 0
M  V30 10302 C 975.725 0.952366 1.88396 0
M  V30 10303 O 975.073 0.0161035 2.28494 0
M  V30 10304 C 975.283 3.34452 0.997133 0
M  V30 10305 C 976.631 4.01724 1.37488 0
M  V30 10306 O 977.655 3.3914 1.08916 0
M  V30 10307 O 976.514 5.12091 1.90854 0
M  V30 10308 H 973.608 0.761798 0.321858 0
M  V30 10309 H 976.154 1.6945 -0.0920192 0
M  V30 10310 H 974.926 3.91115 0.120301 0
M  V30 10311 H 974.549 3.54713 1.79624 0
M  V30 10312 N 975.546 -0.211634 1.56173 0
M  V30 10313 C 976.792 -0.935935 1.79911 0
M  V30 10314 C 977.125 -1.83589 0.633155 0
M  V30 10315 O 976.4 -1.91004 -0.367132 0
M  V30 10316 C 976.683 -1.76638 3.13801 0
M  V30 10317 C 976.536 -0.892259 4.40861 0
M  V30 10318 C 977.855 -2.74224 3.44223 0
M  V30 10319 H 974.974 -0.338822 0.654499 0
M  V30 10320 H 977.616 -0.20422 1.88899 0
M  V30 10321 H 975.766 -2.39021 3.0627 0
M  V30 10322 H 977.438 -0.284407 4.60422 0
M  V30 10323 H 975.681 -0.198145 4.33347 0
M  V30 10324 H 976.352 -1.50793 5.31004 0
M  V30 10325 H 978.828 -2.21975 3.51946 0
M  V30 10326 H 977.704 -3.29424 4.39057 0
M  V30 10327 H 977.965 -3.52455 2.66885 0
M  V30 10328 N 977.024 -1.50153 -0.478725 0
M  V30 10329 C 977.971 -1.68458 -1.57767 0
M  V30 10330 C 978.941 -0.5259 -1.57555 0
M  V30 10331 O 980.126 -0.755574 -1.75202 0
M  V30 10332 C 977.266 -1.77772 -2.95789 0
M  V30 10333 C 976.379 -3.05092 -3.05848 0
M  V30 10334 C 975.514 -3.05247 -4.34739 0
M  V30 10335 C 974.553 -4.27053 -4.38512 0
M  V30 10336 N 973.69 -4.24991 -5.58862 0
M  V30 10337 H 978.53 -2.62282 -1.41464 0
M  V30 10338 H 976.067 -1.30023 -0.687921 0
M  V30 10339 H 978.025 -1.81152 -3.75819 0
M  V30 10340 H 976.655 -0.873944 -3.10744 0
M  V30 10341 H 975.707 -3.11219 -2.1874 0
M  V30 10342 H 977.019 -3.95075 -3.04495 0
M  V30 10343 H 976.173 -3.07314 -5.23109 0
M  V30 10344 H 974.912 -2.13081 -4.38689 0
M  V30 10345 H 973.917 -4.25206 -3.4854 0
M  V30 10346 H 975.142 -5.20437 -4.36259 0
M  V30 10347 H 973.088 -3.35674 -5.63612 0
M  V30 10348 H 973.005 -5.08734 -5.59219 0
M  V30 10349 H 974.273 -4.31193 -6.49379 0
M  V30 10350 N 978.502 0.731368 -1.39602 0
M  V30 10351 C 979.412 1.87579 -1.40894 0
M  V30 10352 C 980.428 1.71336 -0.303319 0
M  V30 10353 O 981.604 1.93875 -0.545377 0
M  V30 10354 C 978.669 3.23211 -1.25442 0
M  V30 10355 C 977.73 3.51822 -2.46008 0
M  V30 10356 C 976.963 4.80982 -2.31284 0
M  V30 10357 O 977.186 5.54958 -1.31824 0
M  V30 10358 O 976.12 5.09574 -3.20341 0
M  V30 10359 H 979.946 1.89444 -2.3737 0
M  V30 10360 H 977.531 0.879675 -1.20756 0
M  V30 10361 H 979.413 4.04257 -1.18972 0
M  V30 10362 H 978.088 3.22108 -0.320637 0
M  V30 10363 H 976.995 2.70847 -2.58055 0
M  V30 10364 H 978.328 3.57707 -3.38093 0
M  V30 10365 N 979.98 1.24838 0.961938 0
M  V30 10366 C 980.913 0.989041 2.05653 0
M  V30 10367 C 981.891 -0.079199 1.62407 0
M  V30 10368 O 983.075 0.0589397 1.88408 0
M  V30 10369 C 980.202 0.493661 3.35083 0
M  V30 10370 C 979.248 1.55132 3.97286 0
M  V30 10371 S 980.081 3.13438 4.34185 0
M  V30 10372 C 981.237 2.65617 5.66744 0
M  V30 10373 H 981.47 1.91588 2.27335 0
M  V30 10374 H 979.003 1.08287 1.10061 0
M  V30 10375 H 980.961 0.214482 4.09939 0
M  V30 10376 H 979.622 -0.412559 3.11379 0
M  V30 10377 H 978.815 1.15525 4.90581 0
M  V30 10378 H 978.417 1.78081 3.28882 0
M  V30 10379 H 980.709 2.08788 6.44526 0
M  V30 10380 H 981.652 3.57524 6.11214 0
M  V30 10381 H 982.06 2.05853 5.25628 0
M  V30 10382 N 981.458 -1.16348 1.06306 0
M  V30 10383 C 982.707 -1.8622 0.774909 0
M  V30 10384 C 983.02 -1.82598 -0.701245 0
M  V30 10385 O 984.226 -2.48051 -1.10377 0
M  V30 10386 C 982.682 -3.34182 1.33604 0
M  V30 10387 C 982.29 -3.46279 2.84245 0
M  V30 10388 C 984.034 -4.09309 1.12544 0
M  V30 10389 C 981.941 -4.88327 3.33602 0
M  V30 10390 H 980.871 -0.697574 0.286194 0
M  V30 10391 H 983.522 -1.31311 1.28179 0
M  V30 10392 H 981.904 -3.88698 0.756937 0
M  V30 10393 H 983.078 -3.01923 3.48108 0
M  V30 10394 H 981.393 -2.84585 3.03974 0
M  V30 10395 H 983.99 -5.14123 1.46909 0
M  V30 10396 H 984.333 -4.16251 0.0638129 0
M  V30 10397 H 984.866 -3.61032 1.67034 0
M  V30 10398 H 981.605 -4.86565 4.39244 0
M  V30 10399 H 981.125 -5.33307 2.74487 0
M  V30 10400 H 982.804 -5.57144 3.28937 0
M  V30 10401 N 982.937 -0.845659 -1.3299 0
M  V30 10402 C 984.184 -0.444653 -1.97558 0
M  V30 10403 C 984.512 0.997682 -1.66963 0
M  V30 10404 O 983.767 1.71349 -0.94541 0
M  V30 10405 C 984.066 -0.6201 -3.51979 0
M  V30 10406 C 983.732 -2.03155 -4.02541 0
M  V30 10407 C 982.394 -2.4176 -4.16059 0
M  V30 10408 C 984.746 -2.95317 -4.29462 0
M  V30 10409 C 982.074 -3.71818 -4.53837 0
M  V30 10410 C 984.426 -4.24863 -4.68694 0
M  V30 10411 C 983.09 -4.63416 -4.80419 0
M  V30 10412 H 982.36 -0.16271 -0.722915 0
M  V30 10413 H 985.007 -1.07399 -1.58549 0
M  V30 10414 H 983.312 0.092513 -3.91691 0
M  V30 10415 H 985.009 -0.290012 -3.9995 0
M  V30 10416 H 981.599 -1.72174 -3.92497 0
M  V30 10417 H 985.783 -2.66726 -4.18534 0
M  V30 10418 H 981.039 -4.01484 -4.61108 0
M  V30 10419 H 985.213 -4.96347 -4.8848 0
M  V30 10420 H 982.84 -5.6424 -5.09448 0
M  V30 10421 N 984.415 1.45619 -0.602734 0
M  V30 10422 C 985.363 2.32228 0.131484 0
M  V30 10423 C 986.357 1.45681 0.864484 0
M  V30 10424 O 987.563 1.62193 0.7806 0
M  V30 10425 H 983.938 0.7495 0.0612638 0
M  V30 10426 H 985.909 2.91941 -0.617496 0
M  V30 10427 C 984.658 3.29213 1.11866 0
M  V30 10428 H 983.981 3.95801 0.564061 0
M  V30 10429 H 985.421 3.92554 1.60242 0
M  V30 10430 C 983.88 2.56028 2.18978 0
M  V30 10431 O 984.41 2.33806 3.26646 0
M  V30 10432 N 982.616 2.16245 1.94129 0
M  V30 10433 H 982.163 2.34518 1.06579 0
M  V30 10434 H 982.121 1.67601 2.66003 0
M  V30 10435 N 985.893 0.34162 1.53853 0
M  V30 10436 C 986.856 -0.503541 2.236 0
M  V30 10437 C 987.856 -1.02912 1.23554 0
M  V30 10438 O 989.046 -0.918678 1.48007 0
M  V30 10439 C 986.178 -1.70126 2.95415 0
M  V30 10440 H 987.371 0.106437 2.99711 0
M  V30 10441 H 984.924 0.0929408 1.56023 0
M  V30 10442 H 985.659 -2.34999 2.23486 0
M  V30 10443 H 985.444 -1.33161 3.68796 0
M  V30 10444 H 986.934 -2.30077 3.48503 0
M  V30 10445 N 987.371 -1.57444 0.0701946 0
M  V30 10446 C 988.281 -2.16132 -0.912377 0
M  V30 10447 C 989.297 -1.12406 -1.32819 0
M  V30 10448 O 990.473 -1.44665 -1.40121 0
M  V30 10449 C 987.538 -2.71008 -2.16231 0
M  V30 10450 C 986.599 -3.896 -1.80306 0
M  V30 10451 C 985.832 -4.4185 -2.9934 0
M  V30 10452 O 986.055 -3.93106 -4.13309 0
M  V30 10453 O 984.989 -5.33201 -2.7925 0
M  V30 10454 H 988.815 -3.00449 -0.443167 0
M  V30 10455 H 986.4 -1.48617 -0.152786 0
M  V30 10456 H 988.282 -3.06186 -2.8953 0
M  V30 10457 H 986.957 -1.8975 -2.62253 0
M  V30 10458 H 985.864 -3.59277 -1.04264 0
M  V30 10459 H 987.197 -4.72145 -1.39068 0
M  V30 10460 N 988.849 0.203349 -1.56283 0
M  V30 10461 C 990.265 0.55384 -1.49682 0
M  V30 10462 C 990.465 1.86261 -0.768701 0
M  V30 10463 O 989.521 2.50517 -0.315824 0
M  V30 10464 C 990.834 0.616216 -2.94318 0
M  V30 10465 C 992.382 0.705611 -3.04943 0
M  V30 10466 C 992.857 0.79917 -4.50974 0
M  V30 10467 N 994.348 0.862916 -4.55091 0
M  V30 10468 C 995.083 0.955334 -5.65386 0
M  V30 10469 N 994.579 1.01057 -6.8539 0
M  V30 10470 N 996.372 0.991884 -5.53279 0
M  V30 10471 H 988.523 -0.655244 -2.0204 0
M  V30 10472 H 990.786 -0.232344 -0.919087 0
M  V30 10473 H 990.492 -0.27619 -3.50614 0
M  V30 10474 H 990.366 1.47371 -3.4722 0
M  V30 10475 H 992.753 1.58845 -2.48701 0
M  V30 10476 H 992.834 -0.177921 -2.5518 0
M  V30 10477 H 992.478 -0.0792841 -5.07838 0
M  V30 10478 H 992.408 1.69838 -4.9846 0
M  V30 10479 H 994.899 0.829812 -3.68677 0
M  V30 10480 H 995.212 1.08137 -7.65197 0
M  V30 10481 H 993.557 0.979384 -6.88065 0
M  V30 10482 H 996.748 0.945514 -4.58451 0
M  V30 10483 H 996.921 1.06045 -6.39264 0
M  V30 10484 N 990.327 1.50405 0.470755 0
M  V30 10485 C 991.573 1.6165 1.22462 0
M  V30 10486 C 991.906 0.316034 1.91611 0
M  V30 10487 O 991.181 -0.682509 1.82132 0
M  V30 10488 C 991.464 2.79702 2.26801 0
M  V30 10489 C 991.317 4.19631 1.61955 0
M  V30 10490 C 992.636 2.93313 3.28109 0
M  V30 10491 H 989.755 0.588345 0.443868 0
M  V30 10492 H 992.397 1.82792 0.518376 0
M  V30 10493 H 990.547 2.61807 2.87036 0
M  V30 10494 H 992.219 4.49117 1.05316 0
M  V30 10495 H 990.462 4.23874 0.922674 0
M  V30 10496 H 991.133 4.98162 2.37779 0
M  V30 10497 H 993.609 3.09697 2.77897 0
M  V30 10498 H 992.485 3.77537 3.98443 0
M  V30 10499 H 992.746 2.03942 3.9225 0
M  V30 10500 N 991.805 -0.723954 1.39988 0
M  V30 10501 C 993.053 -1.48078 1.3754 0
M  V30 10502 C 993.374 -1.94985 -0.0243358 0
M  V30 10503 O 992.644 -1.69764 -0.977602 0
M  V30 10504 H 991.224 -0.549354 0.506181 0
M  V30 10505 H 993.886 -0.858746 1.74962 0
M  V30 10506 H 992.982 -2.35763 2.04505 0
M  V30 10507 N 993.283 -1.25346 -0.955304 0
M  V30 10508 C 994.531 -1.09837 -1.69647 0
M  V30 10509 C 994.852 0.361425 -1.91621 0
M  V30 10510 O 994.122 1.25666 -1.50283 0
M  V30 10511 H 992.702 -0.403467 -0.628668 0
M  V30 10512 H 995.364 -1.57459 -1.14859 0
M  V30 10513 H 994.46 -1.60616 -2.67598 0
M  V30 10514 N 994.761 1.15782 -1.06922 0
M  V30 10515 C 995.691 2.22538 -0.707045 0
M  V30 10516 C 996.672 1.67371 0.303471 0
M  V30 10517 O 997.857 1.9339 0.177189 0
M  V30 10518 C 994.987 3.47158 -0.0994269 0
M  V30 10519 C 993.941 4.15257 -1.03661 0
M  V30 10520 C 993.267 5.33902 -0.291974 0
M  V30 10521 C 994.567 4.65516 -2.36837 0
M  V30 10522 H 996.261 2.53089 -1.59958 0
M  V30 10523 H 993.807 1.21649 -0.770552 0
M  V30 10524 H 995.76 4.21073 0.165852 0
M  V30 10525 H 994.484 3.15926 0.828155 0
M  V30 10526 H 993.143 3.43276 -1.28674 0
M  V30 10527 H 992.791 4.98926 0.638928 0
M  V30 10528 H 992.491 5.80407 -0.916613 0
M  V30 10529 H 994.015 6.1059 -0.0343915 0
M  V30 10530 H 995.429 5.30981 -2.16175 0
M  V30 10531 H 993.826 5.22666 -2.94856 0
M  V30 10532 H 994.896 3.81387 -2.99453 0
M  V30 10533 N 996.239 0.8527 1.3254 0
M  V30 10534 C 997.149 0.298744 2.3269 0
M  V30 10535 C 998.165 -0.582418 1.63963 0
M  V30 10536 O 999.341 -0.483253 1.95516 0
M  V30 10537 C 996.406 -0.505453 3.42996 0
M  V30 10538 C 995.467 0.401618 4.27417 0
M  V30 10539 C 994.7 -0.364294 5.32455 0
M  V30 10540 O 994.923 -1.59448 5.47661 0
M  V30 10541 O 993.857 0.268892 6.01299 0
M  V30 10542 H 997.683 1.12843 2.81958 0
M  V30 10543 H 995.268 0.615584 1.36128 0
M  V30 10544 H 997.15 -0.961974 4.10273 0
M  V30 10545 H 995.825 -1.31197 2.95921 0
M  V30 10546 H 994.732 0.906274 3.62957 0
M  V30 10547 H 996.065 1.17327 4.78012 0
M  V30 10548 N 997.718 -1.45297 0.610449 0
M  V30 10549 C 998.628 -2.34349 -0.108475 0
M  V30 10550 C 999.644 -1.51409 -0.857397 0
M  V30 10551 O 1000.82 -1.84202 -0.814337 0
M  V30 10552 C 997.885 -3.29072 -1.09144 0
M  V30 10553 C 996.946 -4.27918 -0.344165 0
M  V30 10554 C 996.179 -5.18116 -1.28031 0
M  V30 10555 O 996.402 -5.11802 -2.51824 0
M  V30 10556 O 995.336 -5.96879 -0.775821 0
M  V30 10557 H 999.162 -2.97232 0.623421 0
M  V30 10558 H 996.747 -1.44728 0.3707 0
M  V30 10559 H 998.629 -3.87433 -1.65751 0
M  V30 10560 H 997.304 -2.68749 -1.80431 0
M  V30 10561 H 996.211 -3.73164 0.264437 0
M  V30 10562 H 997.544 -4.91104 0.328275 0
M  V30 10563 N 999.196 -0.349774 -1.5367 0
M  V30 10564 C 1000.11 0.512421 -2.28935 0
M  V30 10565 C 1001.12 1.1065 -1.34286 0
M  V30 10566 O 1002.3 1.12084 -1.67329 0
M  V30 10567 C 999.363 1.64449 -3.05217 0
M  V30 10568 C 998.424 1.07956 -4.15505 0
M  V30 10569 C 997.657 2.15768 -4.88139 0
M  V30 10570 O 997.88 3.366 -4.60496 0
M  V30 10571 O 996.814 1.79712 -5.74445 0
M  V30 10572 H 1000.64 -0.0996001 -3.03537 0
M  V30 10573 H 998.225 -0.114629 -1.4896 0
M  V30 10574 H 1000.11 2.30302 -3.52901 0
M  V30 10575 H 998.782 2.24221 -2.33467 0
M  V30 10576 H 997.689 0.385381 -3.7211 0
M  V30 10577 H 999.022 0.526621 -4.89375 0
M  V30 10578 N 1000.67 1.57404 -0.0785433 0
M  V30 10579 C 1002.09 1.57158 0.2781 0
M  V30 10580 C 1002.29 1.08847 1.69572 0
M  V30 10581 O 1001.35 0.757407 2.40873 0
M  V30 10582 C 1002.66 3.00589 0.0816067 0
M  V30 10583 C 1004.21 3.12637 0.150627 0
M  V30 10584 C 1004.68 4.57997 -0.0176685 0
M  V30 10585 N 1006.17 4.63185 0.0377145 0
M  V30 10586 C 1006.91 5.7336 -0.0679907 0
M  V30 10587 N 1006.4 6.92426 -0.227598 0
M  V30 10588 N 1008.2 5.62099 -0.0104424 0
M  V30 10589 H 1000.35 1.87121 -1.00496 0
M  V30 10590 H 1002.61 0.862937 -0.392484 0
M  V30 10591 H 1002.32 3.40072 -0.896869 0
M  V30 10592 H 1002.19 3.67931 0.831046 0
M  V30 10593 H 1004.58 2.73037 1.11959 0
M  V30 10594 H 1004.66 2.4792 -0.630028 0
M  V30 10595 H 1004.3 4.98288 -0.983431 0
M  V30 10596 H 1004.23 5.20754 0.782475 0
M  V30 10597 H 1006.72 3.77564 0.159208 0
M  V30 10598 H 1007.04 7.72217 -0.300217 0
M  V30 10599 H 1005.38 6.94502 -0.263049 0
M  V30 10600 H 1008.57 4.67964 0.112999 0
M  V30 10601 H 1008.75 6.47928 -0.0962747 0
M  V30 10602 N 1002.15 -0.195058 1.56388 0
M  V30 10603 C 1003.06 -1.26219 1.97752 0
M  V30 10604 C 1004.08 -1.49801 0.885192 0
M  V30 10605 O 1005.25 -1.62415 1.19094 0
M  V30 10606 C 1002.32 -2.5865 2.3087 0
M  V30 10607 C 1001.38 -2.4314 3.5381 0
M  V30 10608 C 1000.61 -3.69255 3.85339 0
M  V30 10609 O 1000.84 -4.73425 3.18159 0
M  V30 10610 O 999.77 -3.64782 4.78767 0
M  V30 10611 H 1003.6 -0.941161 2.88749 0
M  V30 10612 H 1001.18 -0.40006 1.43944 0
M  V30 10613 H 1003.06 -3.36814 2.53247 0
M  V30 10614 H 1001.74 -2.9038 1.43042 0
M  V30 10615 H 1000.64 -1.63086 3.3668 0
M  V30 10616 H 1001.98 -2.16341 4.42105 0
M  V30 10617 N 1003.63 -1.50653 -0.462772 0
M  V30 10618 C 1004.85 -1.66103 -1.24196 0
M  V30 10619 C 1005.28 -0.347421 -1.84864 0
M  V30 10620 O 1004.64 0.689673 -1.6767 0
M  V30 10621 C 1004.69 -2.76027 -2.32037 0
M  V30 10622 O 1003.79 -2.37859 -3.36893 0
M  V30 10623 H 1003.13 -0.554672 -0.365014 0
M  V30 10624 H 1005.66 -1.97076 -0.549734 0
M  V30 10625 H 1005.67 -2.99354 -2.77221 0
M  V30 10626 H 1004.35 -3.71361 -1.87253 0
M  V30 10627 H 1002.92 -2.2501 -2.97363 0
M  V30 10628 N 1005.11 0.71652 -1.4037 0
M  V30 10629 C 1006.35 1.47857 -1.38803 0
M  V30 10630 C 1006.69 1.94197 0.0100536 0
M  V30 10631 O 1005.96 1.68093 0.978521 0
M  V30 10632 C 1006.25 2.7053 -2.37667 0
M  V30 10633 C 1006.1 2.3009 -3.86496 0
M  V30 10634 C 1007.42 3.72684 -2.34082 0
M  V30 10635 H 1004.54 0.53632 -0.505499 0
M  V30 10636 H 1007.18 0.817824 -1.71498 0
M  V30 10637 H 1005.33 3.26906 -2.09916 0
M  V30 10638 H 1007 1.79202 -4.2507 0
M  V30 10639 H 1005.24 1.62102 -4.02375 0
M  V30 10640 H 1005.91 3.18018 -4.51186 0
M  V30 10641 H 1008.39 3.25935 -2.58661 0
M  V30 10642 H 1007.27 4.56157 -3.05306 0
M  V30 10643 H 1007.53 4.20916 -1.35213 0
M  V30 10644 N 1006.59 1.25851 0.948643 0
M  V30 10645 C 1007.83 1.10735 1.69062 0
M  V30 10646 C 1008.16 -0.351257 1.9181 0
M  V30 10647 O 1007.43 -1.24867 1.50947 0
M  V30 10648 H 1006.01 0.406796 0.626519 0
M  V30 10649 H 1008.67 1.58066 1.14022 0
M  V30 10650 H 1007.76 1.62033 2.66743 0
M  V30 10651 N 1008.06 -1.15214 1.07534 0
M  V30 10652 C 1009.48 -1.67628 0.822045 0
M  V30 10653 C 1009.83 -1.8503 -0.652571 0
M  V30 10654 O 1008.95 -1.55497 -1.50498 0
M  V30 10655 C 1009.55 -3.04489 1.48566 0
M  V30 10656 C 1008.11 -3.53974 1.27983 0
M  V30 10657 C 1007.25 -2.29656 1.55414 0
M  V30 10658 H 1010.2 -0.994016 1.23713 0
M  V30 10659 H 1010.22 -3.69509 0.907916 0
M  V30 10660 H 1009.74 -2.91792 2.55888 0
M  V30 10661 H 1007.84 -3.71908 0.226906 0
M  V30 10662 H 1007.95 -4.35298 2.0013 0
M  V30 10663 H 1006.31 -2.35289 0.975251 0
M  V30 10664 H 1007.1 -2.19544 2.63923 0
M  V30 10665 N 1009.54 -0.859717 -1.32086 0
M  V30 10666 C 1010.47 -0.323502 -2.31248 0
M  V30 10667 C 1011.45 0.580085 -1.59903 0
M  V30 10668 O 1012.64 0.499265 -1.87673 0
M  V30 10669 C 1009.77 0.484661 -3.43902 0
M  V30 10670 C 1008.72 -0.324933 -4.26765 0
M  V30 10671 C 1008.05 0.608281 -5.31229 0
M  V30 10672 C 1009.35 -1.55344 -4.98664 0
M  V30 10673 H 1011.04 -1.15209 -2.76346 0
M  V30 10674 H 1008.59 -0.555442 -1.32856 0
M  V30 10675 H 1010.54 0.870238 -4.12316 0
M  V30 10676 H 1009.27 1.34666 -2.97544 0
M  V30 10677 H 1007.92 -0.692328 -3.60003 0
M  V30 10678 H 1007.57 1.46727 -4.81124 0
M  V30 10679 H 1007.27 0.0705571 -5.87558 0
M  V30 10680 H 1008.8 0.990925 -6.02506 0
M  V30 10681 H 1010.21 -1.23987 -5.59732 0
M  V30 10682 H 1008.61 -2.02947 -5.64741 0
M  V30 10683 H 1009.68 -2.31192 -4.26237 0
M  V30 10684 N 1011.02 1.44971 -0.618145 0
M  V30 10685 C 1012.44 1.57077 -0.282666 0
M  V30 10686 C 1012.64 1.60782 1.21456 0
M  V30 10687 O 1011.69 1.54382 1.99806 0
M  V30 10688 C 1013.01 2.84858 -0.963148 0
M  V30 10689 C 1014.55 2.9855 -0.940062 0
M  V30 10690 C 1015.03 4.29115 -1.60076 0
M  V30 10691 N 1016.52 4.35899 -1.56674 0
M  V30 10692 C 1017.25 5.35617 -2.04701 0
M  V30 10693 N 1016.75 6.41813 -2.6086 0
M  V30 10694 N 1018.54 5.27042 -1.95406 0
M  V30 10695 H 1010.69 1.4081 -1.59017 0
M  V30 10696 H 1012.96 0.673914 -0.666741 0
M  V30 10697 H 1012.66 2.88059 -2.0178 0
M  V30 10698 H 1012.54 3.73966 -0.492901 0
M  V30 10699 H 1014.92 2.94909 0.10607 0
M  V30 10700 H 1015.01 2.10825 -1.44868 0
M  V30 10701 H 1014.65 4.33514 -2.64627 0
M  V30 10702 H 1014.58 5.15675 -1.06708 0
M  V30 10703 H 1017.07 3.59766 -1.15659 0
M  V30 10704 H 1017.38 7.14166 -2.95273 0
M  V30 10705 H 1015.73 6.42534 -2.64905 0
M  V30 10706 H 1018.92 4.42987 -1.51263 0
M  V30 10707 H 1019.09 6.04604 -2.33147 0
M  V30 10708 N 1012.5 0.357919 1.53482 0
M  V30 10709 C 1013.41 -0.500273 2.29204 0
M  V30 10710 C 1014.42 -1.09936 1.3487 0
M  V30 10711 O 1015.6 -1.11195 1.67921 0
M  V30 10712 C 1012.67 -1.62828 3.06085 0
M  V30 10713 C 1011.73 -1.05751 4.16071 0
M  V30 10714 C 1010.96 -2.13176 4.89277 0
M  V30 10715 O 1011.18 -3.34153 4.62274 0
M  V30 10716 O 1010.12 -1.76663 5.7539 0
M  V30 10717 H 1013.94 0.115696 3.0348 0
M  V30 10718 H 1011.53 0.122527 1.48897 0
M  V30 10719 H 1013.41 -2.28427 3.54117 0
M  V30 10720 H 1012.08 -2.22979 2.34653 0
M  V30 10721 H 1010.99 -0.365642 3.72309 0
M  V30 10722 H 1012.32 -0.500661 4.89647 0
M  V30 10723 N 1013.98 -1.5736 0.0868897 0
M  V30 10724 C 1015.25 -1.85495 -0.620561 0
M  V30 10725 C 1015.63 -0.982218 -1.86857 0
M  V30 10726 O 1014.98 -0.0524529 -2.2844 0
M  V30 10727 C 1015.19 -3.35996 -0.943798 0
M  V30 10728 C 1016.54 -4.03861 -1.31079 0
M  V30 10729 O 1017.56 -3.4083 -1.03507 0
M  V30 10730 O 1016.42 -5.15062 -1.82683 0
M  V30 10731 H 1013.52 -0.766822 -0.309697 0
M  V30 10732 H 1016.06 -1.69282 0.118966 0
M  V30 10733 H 1014.83 -3.91257 -0.0580628 0
M  V30 10734 H 1014.46 -3.57525 -1.73958 0
M  V30 10735 N 1015.45 0.186762 -1.56489 0
M  V30 10736 C 1016.7 0.905852 -1.81109 0
M  V30 10737 C 1017.03 1.82906 -0.661477 0
M  V30 10738 O 1016.28 1.92504 0.35226 0
M  V30 10739 C 1016.58 1.74719 -3.11782 0
M  V30 10740 C 1016.25 0.974238 -4.40249 0
M  V30 10741 C 1014.91 0.760856 -4.75147 0
M  V30 10742 C 1017.26 0.430971 -5.19415 0
M  V30 10743 C 1014.59 -0.00714216 -5.867 0
M  V30 10744 C 1016.94 -0.323859 -6.3177 0
M  V30 10745 C 1015.61 -0.548183 -6.65245 0
M  V30 10746 H 1014.88 0.331475 -0.662726 0
M  V30 10747 H 1017.52 0.171703 -1.90729 0
M  V30 10748 H 1015.83 2.55027 -2.97437 0
M  V30 10749 H 1017.53 2.30634 -3.28038 0
M  V30 10750 H 1014.12 1.15057 -4.12868 0
M  V30 10751 H 1018.3 0.583205 -4.92861 0
M  V30 10752 H 1013.56 -0.190832 -6.11102 0
M  V30 10753 H 1017.73 -0.752155 -6.92326 0
M  V30 10754 H 1015.36 -1.14518 -7.51525 0
M  V30 10755 N 1016.93 1.50896 0.454776 0
M  V30 10756 C 1018.16 1.66759 1.23313 0
M  V30 10757 C 1018.58 0.35722 1.84677 0
M  V30 10758 O 1017.94 -0.680771 1.68033 0
M  V30 10759 C 1017.99 2.77254 2.3057 0
M  V30 10760 O 1017.09 2.39642 3.35627 0
M  V30 10761 H 1016.43 0.556599 0.362068 0
M  V30 10762 H 1018.96 1.97365 0.539274 0
M  V30 10763 H 1018.97 3.0082 2.75629 0
M  V30 10764 H 1017.65 3.72349 1.85281 0
M  V30 10765 H 1016.23 2.26584 2.96165 0
M  V30 10766 N 1018.41 -0.709066 1.40748 0
M  V30 10767 C 1019.34 -1.83583 1.4429 0
M  V30 10768 C 1020.32 -1.67378 0.303067 0
M  V30 10769 O 1021.51 -1.87312 0.512612 0
M  V30 10770 C 1018.64 -3.21599 1.31116 0
M  V30 10771 C 1017.59 -3.52486 2.4277 0
M  V30 10772 C 1016.92 -4.89716 2.14668 0
M  V30 10773 C 1018.22 -3.52824 3.85113 0
M  V30 10774 H 1019.91 -1.80876 2.38588 0
M  V30 10775 H 1017.46 -0.868795 1.14839 0
M  V30 10776 H 1019.41 -4.00123 1.32209 0
M  V30 10777 H 1018.13 -3.24898 0.332965 0
M  V30 10778 H 1016.79 -2.76305 2.40937 0
M  V30 10779 H 1016.44 -4.89625 1.15224 0
M  V30 10780 H 1016.14 -5.11347 2.89478 0
M  V30 10781 H 1017.66 -5.70566 2.17455 0
M  V30 10782 H 1019.08 -4.21377 3.88734 0
M  V30 10783 H 1017.48 -3.85984 4.59496 0
M  V30 10784 H 1018.55 -2.52073 4.14231 0
M  V30 10785 N 1019.89 -1.26353 -0.941956 0
M  V30 10786 C 1021.11 -1.14731 -1.72776 0
M  V30 10787 C 1021.54 0.293766 -1.85792 0
M  V30 10788 O 1020.9 1.21284 -1.34759 0
M  V30 10789 C 1020.95 -1.82041 -3.11277 0
M  V30 10790 O 1020.05 -1.10867 -3.97218 0
M  V30 10791 H 1019.39 -0.399823 -0.53013 0
M  V30 10792 H 1021.92 -1.67157 -1.17981 0
M  V30 10793 H 1021.93 -1.88834 -3.61671 0
M  V30 10794 H 1020.61 -2.86879 -3.0112 0
M  V30 10795 H 1019.18 -1.12044 -3.55669 0
M  V30 10796 N 1021.37 1.14642 -1.08144 0
M  V30 10797 C 1022.59 1.90025 -0.830972 0
M  V30 10798 C 1023.02 1.77904 0.610879 0
M  V30 10799 O 1022.38 1.11735 1.42776 0
M  V30 10800 C 1022.42 3.38085 -1.25422 0
M  V30 10801 O 1021.53 4.10412 -0.404486 0
M  V30 10802 H 1020.87 0.591327 -0.302041 0
M  V30 10803 H 1023.4 1.4513 -1.44216 0
M  V30 10804 H 1023.41 3.88894 -1.23391 0
M  V30 10805 H 1022.08 3.46226 -2.30435 0
M  V30 10806 H 1020.66 3.69693 -0.487987 0
M  V30 10807 N 1022.85 0.866709 1.31628 0
M  V30 10808 C 1024.07 0.48956 2.01539 0
M  V30 10809 C 1024.5 -0.909556 1.64647 0
M  V30 10810 O 1023.85 -1.59959 0.853391 0
M  V30 10811 C 1023.9 0.650176 3.5469 0
M  V30 10812 O 1023.01 -0.311908 4.11219 0
M  V30 10813 H 1022.35 0.195144 0.634677 0
M  V30 10814 H 1024.88 1.16923 1.679 0
M  V30 10815 H 1024.89 0.542236 4.04381 0
M  V30 10816 H 1023.56 1.67038 3.80882 0
M  V30 10817 H 1022.14 -0.159197 3.7256 0
M  V30 10818 N 1024.32 -1.44642 0.625825 0
M  V30 10819 C 1025.29 -2.29085 -0.072526 0
M  V30 10820 C 1026.29 -1.40755 -0.777467 0
M  V30 10821 O 1027.48 -1.62684 -0.622861 0
M  V30 10822 C 1024.61 -3.22212 -1.1132 0
M  V30 10823 H 1025.8 -2.92317 0.670124 0
M  V30 10824 H 1023.35 -1.51466 0.38571 0
M  V30 10825 H 1024.09 -2.63819 -1.88601 0
M  V30 10826 H 1023.87 -3.87299 -0.611709 0
M  V30 10827 H 1025.36 -3.8566 -1.60175 0
M  V30 10828 N 1025.8 -0.366053 -1.5329 0
M  V30 10829 C 1026.73 0.47211 -2.28677 0
M  V30 10830 C 1027.71 1.08353 -1.31125 0
M  V30 10831 O 1028.9 1.10069 -1.59995 0
M  V30 10832 C 1026.03 1.61174 -3.07637 0
M  V30 10833 C 1024.98 1.12755 -4.12881 0
M  V30 10834 C 1024.31 2.35745 -4.79925 0
M  V30 10835 C 1025.61 0.211954 -5.2187 0
M  V30 10836 H 1027.3 -0.156838 -2.98989 0
M  V30 10837 H 1024.85 -0.0768709 -1.43795 0
M  V30 10838 H 1026.8 2.20473 -3.59123 0
M  V30 10839 H 1025.52 2.26793 -2.35016 0
M  V30 10840 H 1024.18 0.557234 -3.6234 0
M  V30 10841 H 1023.83 2.99821 -4.03877 0
M  V30 10842 H 1023.53 2.04019 -5.51044 0
M  V30 10843 H 1025.06 2.95729 -5.34207 0
M  V30 10844 H 1026.47 0.71244 -5.68856 0
M  V30 10845 H 1024.87 -0.0144501 -6.00098 0
M  V30 10846 H 1025.94 -0.745753 -4.79131 0
M  V30 10847 N 1027.28 1.57312 -0.0952337 0
M  V30 10848 C 1028.53 1.93533 0.568131 0
M  V30 10849 C 1028.84 0.979121 1.6933 0
M  V30 10850 O 1030.05 1.23506 2.41782 0
M  V30 10851 C 1028.5 3.43875 1.06198 0
M  V30 10852 C 1028.11 4.47988 -0.0334397 0
M  V30 10853 C 1029.86 3.89057 1.69807 0
M  V30 10854 C 1027.76 5.89483 0.475774 0
M  V30 10855 H 1026.69 0.7224 0.215995 0
M  V30 10856 H 1029.34 1.82699 -0.171257 0
M  V30 10857 H 1027.73 3.49862 1.85506 0
M  V30 10858 H 1028.9 4.53644 -0.808934 0
M  V30 10859 H 1027.21 4.12415 -0.574725 0
M  V30 10860 H 1029.81 4.92171 2.08978 0
M  V30 10861 H 1030.15 3.27713 2.5673 0
M  V30 10862 H 1030.69 3.85772 0.970815 0
M  V30 10863 H 1027.43 6.54528 -0.356837 0
M  V30 10864 H 1026.95 5.87297 1.21827 0
M  V30 10865 H 1028.63 6.40066 0.944697 0
M  V30 10866 N 1028.76 -0.17846 1.56586 0
M  V30 10867 C 1030.01 -0.894464 1.81228 0
M  V30 10868 C 1030.33 -1.83089 0.671062 0
M  V30 10869 O 1029.6 -1.93439 -0.309557 0
M  V30 10870 H 1028.18 -0.333288 0.668527 0
M  V30 10871 H 1030.84 -0.179986 1.94067 0
M  V30 10872 H 1029.93 -1.47565 2.75011 0
M  V30 10873 N 1030.24 -1.51135 -0.446768 0
M  V30 10874 C 1031.17 -1.74709 -1.54916 0
M  V30 10875 C 1032.15 -0.596628 -1.59293 0
M  V30 10876 O 1033.33 -0.838356 -1.75172 0
M  V30 10877 C 1030.46 -1.86353 -2.9307 0
M  V30 10878 C 1029.42 -3.01725 -3.03556 0
M  V30 10879 C 1028.74 -2.9854 -4.43597 0
M  V30 10880 C 1030.04 -4.41848 -2.7851 0
M  V30 10881 H 1031.74 -2.67014 -1.3544 0
M  V30 10882 H 1029.28 -1.28489 -0.650131 0
M  V30 10883 H 1031.23 -2.01428 -3.70141 0
M  V30 10884 H 1029.96 -0.906887 -3.13756 0
M  V30 10885 H 1028.62 -2.86339 -2.28922 0
M  V30 10886 H 1028.27 -2.00673 -4.61237 0
M  V30 10887 H 1027.97 -3.76008 -4.51544 0
M  V30 10888 H 1029.49 -3.15696 -5.22655 0
M  V30 10889 H 1030.9 -4.57633 -3.45319 0
M  V30 10890 H 1029.3 -5.2095 -2.97877 0
M  V30 10891 H 1030.37 -4.52536 -1.74182 0
M  V30 10892 N 1031.71 0.701592 -1.41122 0
M  V30 10893 C 1032.64 1.82815 -1.45262 0
M  V30 10894 C 1033.62 1.67215 -0.311939 0
M  V30 10895 O 1034.81 1.87038 -0.522538 0
M  V30 10896 C 1031.94 3.20899 -1.32819 0
M  V30 10897 C 1030.89 3.51194 -2.44636 0
M  V30 10898 C 1030.22 4.8857 -2.17263 0
M  V30 10899 C 1031.52 3.50777 -3.86979 0
M  V30 10900 H 1033.21 1.79608 -2.39544 0
M  V30 10901 H 1030.76 0.862693 -1.15298 0
M  V30 10902 H 1032.71 3.99417 -1.34329 0
M  V30 10903 H 1031.44 3.24717 -0.350191 0
M  V30 10904 H 1030.1 2.75024 -2.42399 0
M  V30 10905 H 1029.74 4.89007 -1.17819 0
M  V30 10906 H 1029.44 5.09805 -2.92186 0
M  V30 10907 H 1030.97 5.69405 -2.20478 0
M  V30 10908 H 1032.38 4.19309 -3.90964 0
M  V30 10909 H 1030.78 3.83542 -4.61536 0
M  V30 10910 H 1031.85 2.49873 -4.15562 0
M  V30 10911 N 1033.19 1.2685 0.935242 0
M  V30 10912 C 1034.44 1.12912 1.6846 0
M  V30 10913 C 1034.77 -0.325708 1.91449 0
M  V30 10914 O 1034.05 -1.23884 1.49944 0
M  V30 10915 C 1034.33 1.90513 3.05576 0
M  V30 10916 C 1034.18 3.43936 2.89876 0
M  V30 10917 C 1035.5 1.70363 4.05789 0
M  V30 10918 H 1032.62 0.411559 0.611382 0
M  V30 10919 H 1035.26 1.55917 1.08582 0
M  V30 10920 H 1033.41 1.53963 3.5669 0
M  V30 10921 H 1035.08 3.90272 2.45939 0
M  V30 10922 H 1033.33 3.70659 2.25376 0
M  V30 10923 H 1034 3.93467 3.87153 0
M  V30 10924 H 1036.47 2.02217 3.63659 0
M  V30 10925 H 1035.35 2.27066 4.99732 0
M  V30 10926 H 1035.61 0.649674 4.373 0
M  V30 10927 N 1034.67 -1.14067 1.0875 0
M  V30 10928 C 1035.92 -1.84535 0.814235 0
M  V30 10929 C 1036.23 -1.84044 -0.662355 0
M  V30 10930 O 1037.44 -2.50336 -1.05091 0
M  V30 10931 C 1035.89 -3.31273 1.40663 0
M  V30 10932 C 1035.5 -3.40171 2.91526 0
M  V30 10933 C 1037.25 -4.0683 1.21201 0
M  V30 10934 C 1035.15 -4.81141 3.43885 0
M  V30 10935 H 1034.08 -0.691346 0.300926 0
M  V30 10936 H 1036.73 -1.28562 1.30935 0
M  V30 10937 H 1035.12 -3.87005 0.839215 0
M  V30 10938 H 1036.29 -2.94471 3.54434 0
M  V30 10939 H 1034.61 -2.78073 3.09942 0
M  V30 10940 H 1037.2 -5.10891 1.57781 0
M  V30 10941 H 1037.55 -4.16022 0.152092 0
M  V30 10942 H 1038.08 -3.57408 1.74655 0
M  V30 10943 H 1034.82 -4.77138 4.49466 0
M  V30 10944 H 1034.34 -5.27365 2.85738 0
M  V30 10945 H 1036.02 -5.50042 3.40681 0
M  V30 10946 N 1036.15 -0.873678 -1.31166 0
M  V30 10947 C 1037.11 -0.337069 -2.26708 0
M  V30 10948 C 1038.11 0.51406 -1.52362 0
M  V30 10949 O 1039.3 0.322834 -1.71182 0
M  V30 10950 C 1036.43 0.520897 -3.36897 0
M  V30 10951 H 1037.63 -1.18056 -2.75686 0
M  V30 10952 H 1035.18 -0.649577 -1.42163 0
M  V30 10953 H 1035.91 1.38543 -2.93217 0
M  V30 10954 H 1035.7 -0.0886015 -3.92 0
M  V30 10955 H 1037.19 0.888497 -4.08039 0
M  V30 10956 N 1037.63 1.44308 -0.633487 0
M  V30 10957 C 1038.87 2.02322 -0.139123 0
M  V30 10958 C 1039.21 1.49733 1.23667 0
M  V30 10959 O 1038.48 0.682353 1.82138 0
M  V30 10960 C 1038.76 3.59871 -0.128366 0
M  V30 10961 C 1038.62 4.22737 -1.53667 0
M  V30 10962 C 1039.94 4.36702 0.545834 0
M  V30 10963 H 1037.05 0.735161 -0.0520293 0
M  V30 10964 H 1039.7 1.7185 -0.810411 0
M  V30 10965 H 1037.85 3.85963 0.443263 0
M  V30 10966 H 1039.52 4.07744 -2.15737 0
M  V30 10967 H 1037.76 3.80142 -2.08985 0
M  V30 10968 H 1038.43 5.31757 -1.48116 0
M  V30 10969 H 1040.91 4.16057 0.0596879 0
M  V30 10970 H 1039.78 5.46407 0.522557 0
M  V30 10971 H 1040.05 4.11483 1.6166 0
M  V30 10972 N 1039.1 0.374177 1.53094 0
M  V30 10973 C 1040.07 -0.455999 2.24618 0
M  V30 10974 C 1041.07 -1.00269 1.25709 0
M  V30 10975 O 1042.26 -0.887077 1.49922 0
M  V30 10976 C 1039.39 -1.63822 2.98957 0
M  V30 10977 H 1040.58 0.169986 2.99418 0
M  V30 10978 H 1038.14 0.126015 1.55791 0
M  V30 10979 H 1038.87 -2.30205 2.28421 0
M  V30 10980 H 1038.66 -1.25308 3.71538 0
M  V30 10981 H 1040.15 -2.22633 3.53305 0
M  V30 10982 N 1040.58 -1.57259 0.103575 0
M  V30 10983 C 1041.83 -1.93832 -0.55786 0
M  V30 10984 C 1042.14 -0.988087 -1.68808 0
M  V30 10985 O 1043.35 -1.24786 -2.41124 0
M  V30 10986 C 1041.81 -3.44433 -1.04373 0
M  V30 10987 C 1041.41 -4.47963 0.0571971 0
M  V30 10988 C 1043.16 -3.89953 -1.67742 0
M  V30 10989 C 1041.07 -5.89727 -0.444505 0
M  V30 10990 H 1040 -0.723536 -0.212161 0
M  V30 10991 H 1042.65 -1.82606 0.180944 0
M  V30 10992 H 1041.03 -3.50841 -1.83648 0
M  V30 10993 H 1042.2 -4.53209 0.83298 0
M  V30 10994 H 1040.52 -4.12104 0.596588 0
M  V30 10995 H 1043.11 -4.93272 -2.06365 0
M  V30 10996 H 1043.46 -3.2907 -2.54988 0
M  V30 10997 H 1043.99 -3.86281 -0.950342 0
M  V30 10998 H 1040.73 -6.5433 0.391543 0
M  V30 10999 H 1040.25 -5.87935 -1.18711 0
M  V30 11000 H 1041.93 -6.40558 -0.910739 0
M  V30 11001 N 1042.06 0.170153 -1.56679 0
M  V30 11002 C 1043.02 1.19443 -1.95617 0
M  V30 11003 C 1044.02 1.37118 -0.83996 0
M  V30 11004 O 1045.21 1.34504 -1.10699 0
M  V30 11005 C 1042.35 2.55926 -2.25199 0
M  V30 11006 H 1043.54 0.86095 -2.87276 0
M  V30 11007 H 1041.09 0.412646 -1.50755 0
M  V30 11008 H 1041.83 2.94286 -1.36257 0
M  V30 11009 H 1041.61 2.44464 -3.06562 0
M  V30 11010 H 1043.1 3.29742 -2.56242 0
M  V30 11011 N 1043.54 1.5137 0.438746 0
M  V30 11012 C 1044.77 1.67774 1.21077 0
M  V30 11013 C 1045.18 0.374489 1.85049 0
M  V30 11014 O 1044.54 -0.646867 1.70651 0
M  V30 11015 C 1044.59 2.79238 2.29584 0
M  V30 11016 O 1044.31 4.04513 1.68228 0
M  V30 11017 C 1045.81 3.06898 3.19888 0
M  V30 11018 H 1043.03 0.563054 0.364981 0
M  V30 11019 H 1045.58 1.97777 0.520035 0
M  V30 11020 H 1043.73 2.51837 2.94375 0
M  V30 11021 H 1044.14 4.66405 2.3993 0
M  V30 11022 H 1045.62 3.88476 3.92162 0
M  V30 11023 H 1046.1 2.19249 3.80561 0
M  V30 11024 H 1046.7 3.35952 2.60799 0
M  V30 11025 N 1045.02 -0.694098 1.41492 0
M  V30 11026 C 1046.26 -1.4563 1.41137 0
M  V30 11027 C 1046.6 -1.94189 0.0208428 0
M  V30 11028 O 1045.87 -1.69628 -0.951655 0
M  V30 11029 C 1046.15 -2.66714 2.41941 0
M  V30 11030 C 1046.01 -2.23912 3.90107 0
M  V30 11031 C 1047.33 -3.68913 2.39981 0
M  V30 11032 H 1044.44 -0.52821 0.513968 0
M  V30 11033 H 1047.09 -0.790437 1.72778 0
M  V30 11034 H 1045.24 -3.23525 2.1509 0
M  V30 11035 H 1046.91 -1.72417 4.27867 0
M  V30 11036 H 1045.15 -1.5568 4.04903 0
M  V30 11037 H 1045.82 -3.108 4.56188 0
M  V30 11038 H 1048.3 -3.21779 2.63813 0
M  V30 11039 H 1047.17 -4.51242 3.12524 0
M  V30 11040 H 1047.44 -4.18711 1.41892 0
M  V30 11041 N 1046.49 -1.27344 -0.928501 0
M  V30 11042 C 1047.74 -1.13019 -1.67061 0
M  V30 11043 C 1048.06 0.323614 -1.92904 0
M  V30 11044 O 1049.26 0.587752 -2.65062 0
M  V30 11045 C 1047.72 -1.97471 -3.00887 0
M  V30 11046 C 1047.33 -3.47504 -2.82746 0
M  V30 11047 C 1049.07 -1.91792 -3.78703 0
M  V30 11048 C 1046.98 -4.24158 -4.12122 0
M  V30 11049 H 1045.91 -0.419364 -0.626618 0
M  V30 11050 H 1048.56 -1.51759 -1.03158 0
M  V30 11051 H 1046.94 -1.51576 -3.65843 0
M  V30 11052 H 1048.11 -4.01256 -2.26562 0
M  V30 11053 H 1046.43 -3.54554 -2.18359 0
M  V30 11054 H 1049.03 -2.46339 -4.74575 0
M  V30 11055 H 1049.37 -0.891375 -4.06645 0
M  V30 11056 H 1049.9 -2.35578 -3.20543 0
M  V30 11057 H 1046.64 -5.27333 -3.89359 0
M  V30 11058 H 1046.16 -3.75183 -4.67972 0
M  V30 11059 H 1047.84 -4.33288 -4.80489 0
M  V30 11060 N 1047.97 1.13488 -1.09353 0
M  V30 11061 C 1049.22 1.85022 -0.830354 0
M  V30 11062 C 1049.55 1.83266 0.64242 0
M  V30 11063 O 1048.83 1.27024 1.47293 0
M  V30 11064 C 1049.11 3.33218 -1.36521 0
M  V30 11065 C 1048.96 3.43491 -2.90404 0
M  V30 11066 C 1050.28 4.28626 -0.998381 0
M  V30 11067 H 1047.4 0.671786 -0.303105 0
M  V30 11068 H 1050.04 1.33211 -1.3548 0
M  V30 11069 H 1048.19 3.77471 -0.919117 0
M  V30 11070 H 1049.86 3.07954 -3.43456 0
M  V30 11071 H 1048.11 2.84391 -3.27573 0
M  V30 11072 H 1048.78 4.47702 -3.22905 0
M  V30 11073 H 1051.25 3.9244 -1.38311 0
M  V30 11074 H 1050.13 5.30754 -1.39968 0
M  V30 11075 H 1050.39 4.42001 0.093517 0
M  V30 11076 N 1049.45 0.880621 1.30701 0
M  V30 11077 C 1050.7 0.492957 1.95583 0
M  V30 11078 C 1051.01 -0.961863 1.70316 0
M  V30 11079 O 1052.22 -1.45617 2.29146 0
M  V30 11080 C 1050.68 0.830656 3.50183 0
M  V30 11081 C 1050.28 2.30295 3.84276 0
M  V30 11082 C 1052.03 0.511979 4.21401 0
M  V30 11083 C 1049.93 2.58251 5.32034 0
M  V30 11084 H 1048.86 0.18062 0.732047 0
M  V30 11085 H 1051.52 1.075 1.48715 0
M  V30 11086 H 1049.9 0.177752 3.95601 0
M  V30 11087 H 1051.07 2.99981 3.49783 0
M  V30 11088 H 1049.39 2.58873 3.2615 0
M  V30 11089 H 1051.98 0.697935 5.30125 0
M  V30 11090 H 1052.33 -0.548327 4.12673 0
M  V30 11091 H 1052.86 1.12189 3.81652 0
M  V30 11092 H 1049.6 3.63005 5.45809 0
M  V30 11093 H 1049.12 1.9317 5.67843 0
M  V30 11094 H 1050.8 2.43527 5.99419 0
M  V30 11095 N 1050.93 -1.4397 0.641131 0
M  V30 11096 C 1052.15 -2.06818 0.155318 0
M  V30 11097 C 1052.58 -1.47665 -1.16519 0
M  V30 11098 O 1051.94 -0.58192 -1.71707 0
M  V30 11099 C 1051.99 -3.60542 0.0647537 0
M  V30 11100 O 1051.09 -4.00674 -0.976447 0
M  V30 11101 H 1050.43 -0.657962 0.0893404 0
M  V30 11102 H 1052.96 -1.84678 0.88064 0
M  V30 11103 H 1052.97 -4.07816 -0.122552 0
M  V30 11104 H 1051.65 -4.02975 1.02878 0
M  V30 11105 H 1050.22 -3.65013 -0.762905 0
M  V30 11106 N 1052.41 -0.382291 -1.52893 0
M  V30 11107 C 1053.34 0.447829 -2.29165 0
M  V30 11108 C 1054.32 1.06956 -1.32267 0
M  V30 11109 O 1055.5 1.08365 -1.61154 0
M  V30 11110 C 1052.63 1.57902 -3.09329 0
M  V30 11111 C 1051.59 1.08369 -4.14053 0
M  V30 11112 C 1050.91 2.30641 -4.82399 0
M  V30 11113 C 1052.21 0.156591 -5.22065 0
M  V30 11114 H 1053.91 -0.188541 -2.98806 0
M  V30 11115 H 1051.45 -0.0921179 -1.43705 0
M  V30 11116 H 1053.41 2.16652 -3.61442 0
M  V30 11117 H 1052.13 2.24287 -2.37409 0
M  V30 11118 H 1050.79 0.518772 -3.62911 0
M  V30 11119 H 1050.44 2.9552 -4.07034 0
M  V30 11120 H 1050.14 1.98163 -5.53177 0
M  V30 11121 H 1051.66 2.90047 -5.37313 0
M  V30 11122 H 1053.08 0.652065 -5.6958 0
M  V30 11123 H 1051.47 -0.0780978 -6.00049 0
M  V30 11124 H 1052.54 -0.796529 -4.78313 0
M  V30 11125 N 1053.89 1.57202 -0.111913 0
M  V30 11126 C 1055.13 1.95239 0.548607 0
M  V30 11127 C 1055.46 0.994897 1.6678 0
M  V30 11128 O 1054.74 0.0308603 1.94476 0
M  V30 11129 C 1055.02 3.43271 1.08798 0
M  V30 11130 C 1054.88 4.49792 -0.0273064 0
M  V30 11131 C 1056.19 3.92989 1.98109 0
M  V30 11132 H 1053.31 0.709919 0.197951 0
M  V30 11133 H 1055.96 1.89087 -0.186036 0
M  V30 11134 H 1054.11 3.48644 1.71404 0
M  V30 11135 H 1055.78 4.56521 -0.662302 0
M  V30 11136 H 1054.02 4.28254 -0.691426 0
M  V30 11137 H 1054.69 5.50612 0.391201 0
M  V30 11138 H 1057.17 3.89875 1.45385 0
M  V30 11139 H 1056.04 4.97101 2.32769 0
M  V30 11140 H 1056.3 3.33267 2.90492 0
M  V30 11141 N 1055.36 -0.161842 1.56767 0
M  V30 11142 C 1056.3 -1.22927 1.9226 0
M  V30 11143 C 1057.27 -1.42309 0.786562 0
M  V30 11144 O 1058.46 -1.57163 1.04078 0
M  V30 11145 C 1055.59 -2.59069 2.18177 0
M  V30 11146 C 1054.63 -2.56368 3.40849 0
M  V30 11147 S 1055.46 -2.04518 4.94907 0
M  V30 11148 C 1056.62 -3.42418 5.23928 0
M  V30 11149 H 1056.85 -0.926377 2.82499 0
M  V30 11150 H 1054.39 -0.366822 1.49979 0
M  V30 11151 H 1056.34 -3.37421 2.33789 0
M  V30 11152 H 1055.01 -2.86554 1.28629 0
M  V30 11153 H 1054.2 -3.56551 3.56213 0
M  V30 11154 H 1053.8 -1.86116 3.24402 0
M  V30 11155 H 1056.09 -4.38461 5.16486 0
M  V30 11156 H 1057.04 -3.3192 6.25487 0
M  V30 11157 H 1057.44 -3.38868 4.51474 0
M  V30 11158 N 1056.84 -1.516 -0.430713 0
M  V30 11159 C 1057.77 -1.76342 -1.53054 0
M  V30 11160 C 1058.75 -0.61349 -1.58652 0
M  V30 11161 O 1059.94 -0.856888 -1.74273 0
M  V30 11162 C 1057.07 -1.8945 -2.91077 0
M  V30 11163 C 1056.02 -3.04928 -3.00339 0
M  V30 11164 C 1055.35 -3.03228 -4.40405 0
M  V30 11165 C 1056.65 -4.44777 -2.73808 0
M  V30 11166 H 1058.34 -2.68435 -1.326 0
M  V30 11167 H 1055.89 -1.29171 -0.636466 0
M  V30 11168 H 1057.84 -2.05343 -3.67984 0
M  V30 11169 H 1056.56 -0.940114 -3.12777 0
M  V30 11170 H 1055.22 -2.88751 -2.25872 0
M  V30 11171 H 1054.87 -2.05553 -4.59083 0
M  V30 11172 H 1054.57 -3.80776 -4.47531 0
M  V30 11173 H 1056.1 -3.21222 -5.19277 0
M  V30 11174 H 1057.51 -4.6127 -3.40445 0
M  V30 11175 H 1055.91 -5.2408 -2.92335 0
M  V30 11176 H 1056.98 -4.54358 -1.69372 0
M  V30 11177 N 1058.32 0.686584 -1.41858 0
M  V30 11178 C 1059.74 0.998283 -1.24525 0
M  V30 11179 C 1059.94 2.01006 -0.141007 0
M  V30 11180 O 1058.99 2.47667 0.491648 0
M  V30 11181 C 1060.3 1.51432 -2.59786 0
M  V30 11182 C 1061.85 1.6327 -2.67043 0
M  V30 11183 C 1062.33 2.18274 -4.02642 0
M  V30 11184 N 1063.82 2.25622 -4.04535 0
M  V30 11185 C 1064.55 2.69229 -5.06264 0
M  V30 11186 N 1064.05 3.12375 -6.1838 0
M  V30 11187 N 1065.84 2.68873 -4.93623 0
M  V30 11188 H 1057.99 0.0164825 -2.12394 0
M  V30 11189 H 1060.26 0.0698613 -0.945422 0
M  V30 11190 H 1059.96 0.845426 -3.41388 0
M  V30 11191 H 1059.84 2.49502 -2.82894 0
M  V30 11192 H 1062.22 2.29269 -1.85794 0
M  V30 11193 H 1062.3 0.637221 -2.47736 0
M  V30 11194 H 1061.95 1.52887 -4.84343 0
M  V30 11195 H 1061.88 3.18591 -4.19294 0
M  V30 11196 H 1064.37 1.95186 -3.23591 0
M  V30 11197 H 1064.68 3.44301 -6.91864 0
M  V30 11198 H 1063.03 3.10262 -6.21902 0
M  V30 11199 H 1066.22 2.34521 -4.05114 0
M  V30 11200 H 1066.39 3.02539 -5.7304 0
M  V30 11201 N 1059.8 1.27835 0.921735 0
M  V30 11202 C 1060.74 1.11075 2.02314 0
M  V30 11203 C 1061.71 0.0101195 1.66097 0
M  V30 11204 O 1062.9 0.173564 1.90009 0
M  V30 11205 C 1060.04 0.770251 3.36394 0
M  V30 11206 C 1059.15 1.94912 3.8553 0
M  V30 11207 C 1058.29 1.54996 5.08084 0
M  V30 11208 C 1057.33 2.69595 5.49531 0
M  V30 11209 N 1056.46 2.30227 6.6328 0
M  V30 11210 H 1061.3 2.05319 2.15982 0
M  V30 11211 H 1058.84 1.022 1.058 0
M  V30 11212 H 1060.8 0.553624 4.1351 0
M  V30 11213 H 1059.43 -0.135238 3.22517 0
M  V30 11214 H 1058.48 2.27811 3.04641 0
M  V30 11215 H 1059.79 2.80858 4.12214 0
M  V30 11216 H 1058.95 1.29493 5.9272 0
M  V30 11217 H 1057.69 0.661676 4.83191 0
M  V30 11218 H 1056.69 2.95806 4.63442 0
M  V30 11219 H 1057.92 3.59054 5.76417 0
M  V30 11220 H 1055.86 1.43858 6.40032 0
M  V30 11221 H 1055.78 3.09711 6.89649 0
M  V30 11222 H 1057.05 2.07987 7.5124 0
M  V30 11223 N 1061.28 -1.12907 1.09954 0
M  V30 11224 C 1062.69 -1.363 0.830326 0
M  V30 11225 C 1062.89 -1.93772 -0.552694 0
M  V30 11226 O 1061.95 -2.1607 -1.30652 0
M  V30 11227 C 1063.26 -2.30925 1.92598 0
M  V30 11228 C 1064.81 -2.44528 1.95385 0
M  V30 11229 C 1065.28 -3.42464 3.0411 0
M  V30 11230 N 1066.77 -3.50018 3.03384 0
M  V30 11231 C 1067.51 -4.25693 3.84152 0
M  V30 11232 N 1067.01 -5.04476 4.74843 0
M  V30 11233 N 1068.8 -4.21049 3.7239 0
M  V30 11234 H 1060.95 -0.739571 1.99108 0
M  V30 11235 H 1063.21 -0.387983 0.86497 0
M  V30 11236 H 1062.92 -1.95861 2.92115 0
M  V30 11237 H 1062.79 -3.30997 1.80889 0
M  V30 11238 H 1065.18 -2.78875 0.965037 0
M  V30 11239 H 1065.26 -1.44361 2.11172 0
M  V30 11240 H 1064.9 -3.08847 4.03207 0
M  V30 11241 H 1064.83 -4.42448 2.85565 0
M  V30 11242 H 1067.33 -2.93809 2.37665 0
M  V30 11243 H 1067.64 -5.59541 5.33042 0
M  V30 11244 H 1065.98 -5.0369 4.78875 0
M  V30 11245 H 1069.17 -3.5858 3.00895 0
M  V30 11246 H 1069.35 -4.79771 4.35572 0
M  V30 11247 N 1062.75 -0.88754 -1.30232 0
M  V30 11248 C 1063.69 -0.313488 -2.27046 0
M  V30 11249 C 1064.7 0.533383 -1.53814 0
M  V30 11250 O 1065.89 0.352516 -1.74984 0
M  V30 11251 C 1062.99 0.572674 -3.34026 0
M  V30 11252 C 1062.16 -0.245712 -4.36709 0
M  V30 11253 C 1061.22 0.57135 -5.23089 0
M  V30 11254 O 1060.25 -0.00685948 -5.692 0
M  V30 11255 N 1061.45 1.87994 -5.49216 0
M  V30 11256 H 1064.21 -1.14553 -2.76943 0
M  V30 11257 H 1061.77 -0.750785 -1.43439 0
M  V30 11258 H 1063.77 1.12539 -3.88738 0
M  V30 11259 H 1062.34 1.3054 -2.84039 0
M  V30 11260 H 1061.56 -0.979869 -3.81827 0
M  V30 11261 H 1062.84 -0.806618 -5.02366 0
M  V30 11262 H 1062.24 2.3726 -5.13541 0
M  V30 11263 H 1060.8 2.38005 -6.06792 0
M  V30 11264 N 1064.23 1.43628 -0.648757 0
M  V30 11265 C 1065.46 2.05918 -0.167701 0
M  V30 11266 C 1065.87 1.48681 1.17006 0
M  V30 11267 O 1065.21 0.610984 1.73242 0
M  V30 11268 C 1065.28 3.595 0.00265514 0
M  V30 11269 C 1064.94 4.39295 -1.2597 0
M  V30 11270 C 1065.94 4.71643 -2.18743 0
M  V30 11271 C 1063.62 4.79379 -1.50004 0
M  V30 11272 C 1065.62 5.42978 -3.33846 0
M  V30 11273 C 1063.3 5.50459 -2.65401 0
M  V30 11274 C 1064.3 5.82181 -3.57148 0
M  V30 11275 O 1063.99 6.5181 -4.7053 0
M  V30 11276 H 1063.72 0.670619 -0.0851261 0
M  V30 11277 H 1066.27 1.85196 -0.888351 0
M  V30 11278 H 1064.5 3.7878 0.77863 0
M  V30 11279 H 1066.19 4.03503 0.440501 0
M  V30 11280 H 1066.96 4.41199 -2.01416 0
M  V30 11281 H 1062.84 4.54098 -0.794745 0
M  V30 11282 H 1066.38 5.67656 -4.05479 0
M  V30 11283 H 1062.28 5.8032 -2.82664 0
M  V30 11284 H 1063.05 6.7029 -4.69738 0
M  V30 11285 N 1065.71 0.390394 1.52688 0
M  V30 11286 C 1066.96 -0.191067 2.01195 0
M  V30 11287 C 1067.28 -1.47229 1.27862 0
M  V30 11288 O 1066.55 -1.91793 0.399007 0
M  V30 11289 H 1065.13 -0.073596 0.743366 0
M  V30 11290 H 1067.79 0.522334 1.8777 0
M  V30 11291 H 1066.89 -0.40051 3.0952 0
M  V30 11292 N 1067.19 -1.57141 0.120249 0
M  V30 11293 C 1068.42 -1.99589 -0.545136 0
M  V30 11294 C 1068.83 -0.999951 -1.60145 0
M  V30 11295 O 1068.19 0.00698897 -1.82499 0
M  V30 11296 C 1068.24 -3.42038 -1.17014 0
M  V30 11297 O 1067.96 -4.37822 -0.156044 0
M  V30 11298 C 1069.46 -3.99625 -1.91872 0
M  V30 11299 H 1066.68 -0.655318 -0.144222 0
M  V30 11300 H 1069.23 -2.0345 0.206955 0
M  V30 11301 H 1067.38 -3.39113 -1.873 0
M  V30 11302 H 1067.79 -5.20937 -0.610317 0
M  V30 11303 H 1069.27 -5.01374 -2.30928 0
M  V30 11304 H 1069.75 -3.38836 -2.7944 0
M  V30 11305 H 1070.35 -4.061 -1.26345 0
M  V30 11306 N 1068.67 0.153526 -1.5685 0
M  V30 11307 C 1069.92 0.865628 -1.82181 0
M  V30 11308 C 1070.23 1.82629 -0.700434 0
M  V30 11309 O 1071.43 2.58206 -0.839155 0
M  V30 11310 C 1069.89 1.58993 -3.22877 0
M  V30 11311 C 1069.5 0.672006 -4.42931 0
M  V30 11312 C 1071.24 2.2892 -3.57486 0
M  V30 11313 C 1069.15 1.39755 -5.7465 0
M  V30 11314 H 1068.08 0.326993 -0.679406 0
M  V30 11315 H 1070.73 0.118403 -1.83118 0
M  V30 11316 H 1069.11 2.38255 -3.16308 0
M  V30 11317 H 1070.29 -0.0849226 -4.60722 0
M  V30 11318 H 1068.6 0.0814825 -4.1632 0
M  V30 11319 H 1071.2 2.8383 -4.5315 0
M  V30 11320 H 1071.54 3.05105 -2.83226 0
M  V30 11321 H 1072.07 1.56583 -3.65686 0
M  V30 11322 H 1068.81 0.677686 -6.51987 0
M  V30 11323 H 1068.33 2.12736 -5.60806 0
M  V30 11324 H 1070.01 1.94024 -6.17223 0
M  V30 11325 N 1070.14 1.51827 0.422667 0
M  V30 11326 C 1071.37 1.69337 1.19748 0
M  V30 11327 C 1071.79 0.396312 1.83878 0
M  V30 11328 O 1071.15 -0.644976 1.6944 0
M  V30 11329 C 1071.2 2.82082 2.24637 0
M  V30 11330 O 1070.3 2.46708 3.30468 0
M  V30 11331 H 1069.65 0.564154 0.35018 0
M  V30 11332 H 1072.18 1.98465 0.497289 0
M  V30 11333 H 1072.19 3.06599 2.69186 0
M  V30 11334 H 1070.86 3.76195 1.77341 0
M  V30 11335 H 1069.44 2.32815 2.91293 0
M  V30 11336 N 1071.62 -0.679052 1.4222 0
M  V30 11337 C 1072.57 -1.78522 1.41824 0
M  V30 11338 C 1073.56 -1.58262 0.290179 0
M  V30 11339 O 1074.75 -1.68813 0.532092 0
M  V30 11340 C 1071.88 -3.16952 1.31895 0
M  V30 11341 C 1070.96 -3.42849 2.4963 0
M  V30 11342 N 1071.35 -3.39354 3.75063 0
M  V30 11343 C 1069.65 -3.73468 2.43799 0
M  V30 11344 C 1070.35 -3.64617 4.53243 0
M  V30 11345 N 1069.33 -3.85174 3.83591 0
M  V30 11346 H 1073.13 -1.74206 2.36705 0
M  V30 11347 H 1070.65 -0.879719 1.36509 0
M  V30 11348 H 1072.64 -3.96214 1.29693 0
M  V30 11349 H 1071.3 -3.22467 0.380127 0
M  V30 11350 H 1072.31 -3.19354 4.07718 0
M  V30 11351 H 1068.99 -3.86254 1.58474 0
M  V30 11352 H 1070.38 -3.67912 5.62219 0
M  V30 11353 N 1073.1 -1.28322 -0.914942 0
M  V30 11354 C 1074.35 -1.15179 -1.66067 0
M  V30 11355 C 1074.67 0.300279 -1.92674 0
M  V30 11356 O 1073.94 1.20821 -1.54205 0
M  V30 11357 H 1072.52 -0.423264 -0.615513 0
M  V30 11358 H 1075.18 -1.61034 -1.09791 0
M  V30 11359 H 1074.28 -1.69048 -2.62353 0
M  V30 11360 N 1074.58 1.12322 -1.10551 0
M  V30 11361 C 1075.83 1.83216 -0.84349 0
M  V30 11362 C 1076.14 1.85075 0.632992 0
M  V30 11363 O 1077.35 2.51976 1.01095 0
M  V30 11364 C 1075.8 3.28994 -1.45915 0
M  V30 11365 C 1075.41 3.3549 -2.96901 0
M  V30 11366 C 1077.15 4.0485 -1.27657 0
M  V30 11367 C 1075.06 4.7561 -3.51496 0
M  V30 11368 H 1073.99 0.686471 -0.311887 0
M  V30 11369 H 1076.64 1.26463 -1.32964 0
M  V30 11370 H 1075.02 3.85621 -0.900678 0
M  V30 11371 H 1076.2 2.88795 -3.59074 0
M  V30 11372 H 1074.51 2.73107 -3.14327 0
M  V30 11373 H 1077.11 5.08316 -1.65889 0
M  V30 11374 H 1077.45 4.15727 -0.218258 0
M  V30 11375 H 1077.99 3.54584 -1.80318 0
M  V30 11376 H 1074.73 4.69927 -4.56999 0
M  V30 11377 H 1074.25 5.22753 -2.94091 0
M  V30 11378 H 1075.92 5.44552 -3.49388 0
M  V30 11379 N 1076.06 0.894434 1.2976 0
M  V30 11380 C 1077.3 0.518435 1.96061 0
M  V30 11381 C 1077.64 -0.931882 1.70381 0
M  V30 11382 O 1076.91 -1.65988 1.01381 0
M  V30 11383 C 1077.19 0.80519 3.50982 0
M  V30 11384 C 1077.05 2.30683 3.86142 0
M  V30 11385 C 1078.37 0.288096 4.39156 0
M  V30 11386 H 1075.48 0.18983 0.712133 0
M  V30 11387 H 1078.13 1.12016 1.53468 0
M  V30 11388 H 1076.28 0.293071 3.87393 0
M  V30 11389 H 1077.95 2.88808 3.59705 0
M  V30 11390 H 1076.19 2.76968 3.33873 0
M  V30 11391 H 1076.86 2.45805 4.94251 0
M  V30 11392 H 1079.34 0.726547 4.09708 0
M  V30 11393 H 1078.21 0.517985 5.4645 0
M  V30 11394 H 1078.48 -0.811018 4.34597 0
M  V30 11395 N 1077.53 -1.43282 0.656365 0
M  V30 11396 C 1078.44 -2.34576 -0.033864 0
M  V30 11397 C 1079.46 -1.5406 -0.808793 0
M  V30 11398 O 1080.64 -1.867 -0.755322 0
M  V30 11399 C 1077.7 -3.32378 -0.986197 0
M  V30 11400 C 1076.76 -4.28797 -0.207851 0
M  V30 11401 C 1076 -5.21927 -1.11482 0
M  V30 11402 O 1076.22 -5.19554 -2.35414 0
M  V30 11403 O 1075.15 -5.99045 -0.585536 0
M  V30 11404 H 1078.98 -2.95099 0.717668 0
M  V30 11405 H 1076.56 -1.43475 0.416556 0
M  V30 11406 H 1078.45 -3.9251 -1.53341 0
M  V30 11407 H 1077.12 -2.74354 -1.7179 0
M  V30 11408 H 1076.03 -3.72134 0.383022 0
M  V30 11409 H 1077.36 -4.89811 0.48435 0
M  V30 11410 N 1079.01 -0.398486 -1.52479 0
M  V30 11411 C 1080.26 0.181019 -2.0199 0
M  V30 11412 C 1080.59 1.45691 -1.28405 0
M  V30 11413 O 1079.87 1.90607 -0.387207 0
M  V30 11414 C 1080.15 0.439587 -3.57407 0
M  V30 11415 C 1080 -0.85223 -4.41653 0
M  V30 11416 C 1081.32 1.2263 -4.2267 0
M  V30 11417 H 1078.44 0.0643164 -0.734188 0
M  V30 11418 H 1081.08 -0.52986 -1.82462 0
M  V30 11419 H 1079.23 1.04516 -3.74177 0
M  V30 11420 H 1080.91 -1.48879 -4.36615 0
M  V30 11421 H 1079.15 -1.46555 -4.08294 0
M  V30 11422 H 1079.82 -0.625839 -5.48441 0
M  V30 11423 H 1082.3 0.713722 -4.09933 0
M  V30 11424 H 1081.17 1.37596 -5.31374 0
M  V30 11425 H 1081.43 2.24403 -3.80914 0
M  V30 11426 N 1080.49 1.57075 -0.12858 0
M  V30 11427 C 1081.77 1.87075 0.571162 0
M  V30 11428 C 1082.15 1.03141 1.84188 0
M  V30 11429 O 1081.5 0.113001 2.2822 0
M  V30 11430 C 1081.71 3.3838 0.854383 0
M  V30 11431 C 1083.05 4.07194 1.20326 0
M  V30 11432 O 1084.08 3.43454 0.944338 0
M  V30 11433 O 1082.94 5.19725 1.68963 0
M  V30 11434 H 1080.03 0.774764 0.289258 0
M  V30 11435 H 1082.58 1.68908 -0.163806 0
M  V30 11436 H 1081.35 3.91273 -0.0456925 0
M  V30 11437 H 1080.97 3.62012 1.64418 0
M  V30 11438 N 1081.97 -0.145205 1.5693 0
M  V30 11439 C 1083.38 -0.705089 1.72874 0
M  V30 11440 C 1083.73 -1.81577 0.743261 0
M  V30 11441 O 1082.86 -2.16214 -0.0897153 0
M  V30 11442 C 1083.45 -1.28578 3.13454 0
M  V30 11443 C 1082.01 -1.79221 3.30994 0
M  V30 11444 C 1081.16 -0.681392 2.68798 0
M  V30 11445 H 1084.11 0.0804798 1.58496 0
M  V30 11446 H 1084.13 -2.15558 3.13552 0
M  V30 11447 H 1083.64 -0.477186 3.85155 0
M  V30 11448 H 1081.74 -2.62642 2.64292 0
M  V30 11449 H 1081.86 -1.91969 4.38959 0
M  V30 11450 H 1080.22 -1.10847 2.29314 0
M  V30 11451 H 1081 0.115786 3.43105 0
M  V30 11452 N 1083.45 -1.52049 -0.414609 0
M  V30 11453 C 1084.38 -1.69712 -1.52555 0
M  V30 11454 C 1085.36 -0.544681 -1.53206 0
M  V30 11455 O 1086.54 -0.771358 -1.71995 0
M  V30 11456 C 1083.67 -1.73145 -2.91099 0
M  V30 11457 C 1082.72 -2.94624 -3.08382 0
M  V30 11458 S 1083.55 -4.55062 -2.82274 0
M  V30 11459 C 1084.7 -4.61274 -4.23057 0
M  V30 11460 H 1084.94 -2.63675 -1.37342 0
M  V30 11461 H 1082.47 -1.42018 -0.605824 0
M  V30 11462 H 1084.43 -1.75808 -3.70947 0
M  V30 11463 H 1083.09 -0.803198 -3.03657 0
M  V30 11464 H 1082.28 -2.93492 -4.0973 0
M  V30 11465 H 1081.88 -2.8982 -2.36391 0
M  V30 11466 H 1084.18 -4.38313 -5.16612 0
M  V30 11467 H 1085.12 -5.63188 -4.29214 0
M  V30 11468 H 1085.53 -3.90361 -4.07773 0
M  V30 11469 N 1084.93 0.6715 -1.42579 0
M  V30 11470 C 1085.86 1.79693 -1.49107 0
M  V30 11471 C 1086.84 1.66516 -0.347338 0
M  V30 11472 O 1088.02 1.85887 -0.562094 0
M  V30 11473 C 1085.15 3.1801 -1.39596 0
M  V30 11474 C 1084.11 3.45926 -2.5203 0
M  V30 11475 C 1083.43 4.83852 -2.27577 0
M  V30 11476 C 1084.73 3.4249 -3.94333 0
M  V30 11477 H 1086.43 1.74486 -2.433 0
M  V30 11478 H 1083.97 0.838042 -1.17102 0
M  V30 11479 H 1085.92 3.96478 -1.42771 0
M  V30 11480 H 1084.65 3.23901 -0.418989 0
M  V30 11481 H 1083.31 2.6982 -2.48178 0
M  V30 11482 H 1082.96 4.86398 -1.28165 0
M  V30 11483 H 1082.66 5.03493 -3.02934 0
M  V30 11484 H 1084.18 5.646 -2.32506 0
M  V30 11485 H 1085.59 4.10922 -3.9977 0
M  V30 11486 H 1083.99 3.73666 -4.69568 0
M  V30 11487 H 1085.06 2.41002 -4.20768 0
M  V30 11488 N 1086.4 1.28806 0.908124 0
M  V30 11489 C 1087.63 1.19153 1.69146 0
M  V30 11490 C 1088.05 -0.249056 1.8715 0
M  V30 11491 O 1087.4 -1.16772 1.40251 0
M  V30 11492 C 1087.45 1.89167 3.08055 0
M  V30 11493 O 1087.18 3.27599 2.90879 0
M  V30 11494 C 1088.68 1.85886 4.02444 0
M  V30 11495 H 1085.9 0.413359 0.528559 0
M  V30 11496 H 1088.44 1.7003 1.13622 0
M  V30 11497 H 1086.6 1.42146 3.60379 0
M  V30 11498 H 1087.01 3.62743 3.78837 0
M  V30 11499 H 1088.48 2.39454 4.97359 0
M  V30 11500 H 1088.96 0.832483 4.31238 0
M  V30 11501 H 1089.57 2.32612 3.5605 0
M  V30 11502 N 1087.88 -1.11734 1.11145 0
M  V30 11503 C 1089.29 -1.64928 0.874959 0
M  V30 11504 C 1089.64 -1.87012 -0.593375 0
M  V30 11505 O 1088.77 -1.60206 -1.45475 0
M  V30 11506 C 1089.36 -2.99608 1.58178 0
M  V30 11507 C 1087.92 -3.49723 1.39179 0
M  V30 11508 C 1087.07 -2.24595 1.62642 0
M  V30 11509 H 1090.02 -0.954154 1.26813 0
M  V30 11510 H 1090.04 -3.66434 1.02501 0
M  V30 11511 H 1089.55 -2.83504 2.65042 0
M  V30 11512 H 1087.65 -3.70998 0.345111 0
M  V30 11513 H 1087.77 -4.28711 2.13878 0
M  V30 11514 H 1086.13 -2.32067 1.04961 0
M  V30 11515 H 1086.91 -2.11036 2.70774 0
M  V30 11516 N 1089.36 -0.901303 -1.29284 0
M  V30 11517 C 1090.27 -0.3849 -2.31421 0
M  V30 11518 C 1091.29 0.521163 -1.66012 0
M  V30 11519 O 1092.46 0.410356 -1.97175 0
M  V30 11520 C 1089.53 0.377804 -3.44635 0
M  V30 11521 C 1088.59 -0.559974 -4.25632 0
M  V30 11522 C 1087.82 0.166425 -5.3344 0
M  V30 11523 O 1088.04 1.39012 -5.53202 0
M  V30 11524 O 1086.98 -0.491875 -5.99887 0
M  V30 11525 H 1090.8 -1.2323 -2.77575 0
M  V30 11526 H 1088.39 -0.665683 -1.3375 0
M  V30 11527 H 1090.27 0.809041 -4.13561 0
M  V30 11528 H 1088.95 1.20124 -3.00586 0
M  V30 11529 H 1087.85 -1.04036 -3.59343 0
M  V30 11530 H 1089.19 -1.34987 -4.73328 0
M  V30 11531 N 1090.84 1.42931 -0.663954 0
M  V30 11532 C 1091.75 2.3459 0.0214234 0
M  V30 11533 C 1092.76 1.54487 0.800611 0
M  V30 11534 O 1093.94 1.87098 0.74541 0
M  V30 11535 C 1091 3.32896 0.968556 0
M  V30 11536 C 1090.07 4.28901 0.185108 0
M  V30 11537 C 1089.3 5.2251 1.08713 0
M  V30 11538 O 1089.52 5.20795 2.32655 0
M  V30 11539 O 1088.46 5.99347 0.553758 0
M  V30 11540 H 1092.28 2.94714 -0.733308 0
M  V30 11541 H 1089.87 1.43252 -0.424159 0
M  V30 11542 H 1091.75 3.93318 1.51257 0
M  V30 11543 H 1090.42 2.75261 1.70333 0
M  V30 11544 H 1089.33 3.71926 -0.402752 0
M  V30 11545 H 1090.66 4.89547 -0.510319 0
M  V30 11546 N 1092.32 0.406567 1.52266 0
M  V30 11547 C 1093.73 0.0573228 1.59497 0
M  V30 11548 C 1093.93 -1.43005 1.41957 0
M  V30 11549 O 1092.99 -2.19659 1.24523 0
M  V30 11550 C 1094.3 0.549947 2.95628 0
M  V30 11551 C 1095.85 0.5077 3.08855 0
M  V30 11552 C 1096.32 0.976792 4.47463 0
M  V30 11553 N 1097.81 0.933508 4.53696 0
M  V30 11554 C 1098.55 1.26769 5.59211 0
M  V30 11555 N 1098.05 1.6732 6.72292 0
M  V30 11556 N 1099.84 1.18782 5.49406 0
M  V30 11557 H 1091.99 1.37468 1.61914 0
M  V30 11558 H 1094.25 0.564562 0.76156 0
M  V30 11559 H 1093.96 1.58943 3.13736 0
M  V30 11560 H 1093.83 -0.0417767 3.77177 0
M  V30 11561 H 1096.22 -0.522728 2.90433 0
M  V30 11562 H 1096.3 1.13545 2.29219 0
M  V30 11563 H 1095.94 2.00554 4.66627 0
M  V30 11564 H 1095.87 0.325885 5.25591 0
M  V30 11565 H 1098.37 0.635333 3.72521 0
M  V30 11566 H 1098.68 1.91137 7.4879 0
M  V30 11567 H 1097.02 1.71221 6.73579 0
M  V30 11568 H 1100.21 0.869906 4.59946 0
M  V30 11569 H 1100.39 1.45157 6.31533 0
M  V30 11570 N 1093.79 -1.57004 0.136909 0
M  V30 11571 C 1094.74 -2.12815 -0.818144 0
M  V30 11572 C 1095.73 -1.0534 -1.21623 0
M  V30 11573 O 1096.92 -1.31539 -1.18434 0
M  V30 11574 C 1094.05 -2.74533 -2.06122 0
M  V30 11575 C 1093.14 -3.89117 -1.68669 0
M  V30 11576 N 1093.53 -4.95412 -1.01983 0
M  V30 11577 C 1091.82 -3.99636 -1.98009 0
M  V30 11578 C 1092.53 -5.75594 -0.840624 0
M  V30 11579 N 1091.5 -5.26019 -1.37131 0
M  V30 11580 H 1095.3 -2.92372 -0.299315 0
M  V30 11581 H 1092.82 -1.6227 -0.0649741 0
M  V30 11582 H 1094.81 -3.12872 -2.7553 0
M  V30 11583 H 1093.47 -1.96446 -2.58532 0
M  V30 11584 H 1094.49 -5.13393 -0.681744 0
M  V30 11585 H 1091.16 -3.32613 -2.52339 0
M  V30 11586 H 1092.55 -6.71157 -0.315807 0
M  V30 11587 N 1095.27 0.136881 -1.57004 0
M  V30 11588 C 1096.2 1.17026 -2.02057 0
M  V30 11589 C 1097.18 1.44223 -0.901866 0
M  V30 11590 O 1098.37 1.54971 -1.17037 0
M  V30 11591 C 1095.5 2.50095 -2.40977 0
M  V30 11592 C 1094.45 2.37398 -3.56127 0
M  V30 11593 C 1093.78 3.75268 -3.80891 0
M  V30 11594 C 1095.08 1.84952 -4.88457 0
M  V30 11595 H 1096.77 0.795601 -2.88636 0
M  V30 11596 H 1094.32 0.381266 -1.38861 0
M  V30 11597 H 1096.27 3.22621 -2.71097 0
M  V30 11598 H 1095 2.89416 -1.51348 0
M  V30 11599 H 1093.65 1.67322 -3.26188 0
M  V30 11600 H 1093.3 4.12043 -2.88496 0
M  V30 11601 H 1093 3.67631 -4.5839 0
M  V30 11602 H 1094.53 4.49327 -4.13446 0
M  V30 11603 H 1095.94 2.4728 -5.17229 0
M  V30 11604 H 1094.34 1.88181 -5.69832 0
M  V30 11605 H 1095.41 0.805848 -4.78157 0
M  V30 11606 N 1096.75 1.52266 0.40654 0
M  V30 11607 C 1097.7 1.76409 1.516 0
M  V30 11608 C 1098.69 0.631311 1.57197 0
M  V30 11609 O 1099.9 0.813413 1.60573 0
M  V30 11610 H 1096.27 0.557904 0.50423 0
M  V30 11611 H 1098.24 2.69351 1.28424 0
M  V30 11612 C 1096.99 1.93415 2.88939 0
M  V30 11613 H 1096.32 2.8 2.85377 0
M  V30 11614 H 1097.76 2.14306 3.65854 0
M  V30 11615 C 1096.22 0.701938 3.29506 0
M  V30 11616 O 1096.75 -0.128965 4.01493 0
M  V30 11617 N 1094.95 0.537089 2.85594 0
M  V30 11618 H 1094.5 1.21435 2.27181 0
M  V30 11619 H 1094.46 -0.286055 3.13096 0
M  V30 11620 N 1098.23 -0.663929 1.42933 0
M  V30 11621 C 1099.18 -1.77717 1.47259 0
M  V30 11622 C 1100.15 -1.62922 0.323387 0
M  V30 11623 O 1101.33 -1.83319 0.529021 0
M  V30 11624 C 1098.47 -3.15814 1.39124 0
M  V30 11625 C 1097.58 -3.4182 2.64165 0
M  V30 11626 C 1096.72 -4.69705 2.48094 0
M  V30 11627 C 1095.76 -4.88781 3.68456 0
M  V30 11628 N 1094.89 -6.07915 3.51261 0
M  V30 11629 H 1099.73 -1.73355 2.42388 0
M  V30 11630 H 1097.27 -0.846121 1.2033 0
M  V30 11631 H 1099.23 -3.95633 1.32403 0
M  V30 11632 H 1097.86 -3.19274 0.475829 0
M  V30 11633 H 1096.91 -2.56176 2.81208 0
M  V30 11634 H 1098.22 -3.51805 3.53602 0
M  V30 11635 H 1097.38 -5.57632 2.39021 0
M  V30 11636 H 1096.12 -4.62022 1.56164 0
M  V30 11637 H 1095.12 -3.99292 3.7795 0
M  V30 11638 H 1096.35 -4.98301 4.61381 0
M  V30 11639 H 1094.29 -6.01384 2.62057 0
M  V30 11640 H 1094.21 -6.1881 4.34293 0
M  V30 11641 H 1095.48 -6.98492 3.4602 0
M  V30 11642 N 1099.71 -1.29285 -0.901281 0
M  V30 11643 C 1100.64 -1.08603 -2.007 0
M  V30 11644 C 1101.62 0.00162233 -1.626 0
M  V30 11645 O 1102.8 -0.148764 -1.87912 0
M  V30 11646 C 1099.93 -0.652972 -3.32346 0
M  V30 11647 C 1098.97 -1.73911 -3.89432 0
M  V30 11648 S 1099.81 -3.33797 -4.18736 0
M  V30 11649 C 1100.96 -2.92355 -5.53425 0
M  V30 11650 H 1101.2 -2.02216 -2.17936 0
M  V30 11651 H 1098.73 -1.13414 -1.04769 0
M  V30 11652 H 1100.69 -0.409825 -4.08449 0
M  V30 11653 H 1099.35 0.263527 -3.12993 0
M  V30 11654 H 1098.54 -1.388 -4.84511 0
M  V30 11655 H 1098.14 -1.93569 -3.20011 0
M  V30 11656 H 1100.44 -2.39301 -6.33831 0
M  V30 11657 H 1101.38 -3.86278 -5.9346 0
M  V30 11658 H 1101.79 -2.30697 -5.15208 0
M  V30 11659 N 1101.18 1.11143 -1.11736 0
M  V30 11660 C 1102.12 2.1705 -0.736325 0
M  V30 11661 C 1103.13 1.61116 0.233528 0
M  V30 11662 O 1104.32 1.78493 0.0159602 0
M  V30 11663 C 1101.42 3.38832 -0.067974 0
M  V30 11664 C 1100.59 4.24226 -1.06543 0
M  V30 11665 C 1099.65 5.24472 -0.426063 0
M  V30 11666 O 1098.68 5.58843 -1.0809 0
M  V30 11667 N 1099.88 5.74825 0.809711 0
M  V30 11668 H 1102.64 2.50349 -1.64758 0
M  V30 11669 H 1100.2 1.26693 -1.00799 0
M  V30 11670 H 1102.2 4.02991 0.371563 0
M  V30 11671 H 1100.77 3.0357 0.745917 0
M  V30 11672 H 1099.99 3.56475 -1.68283 0
M  V30 11673 H 1101.27 4.78117 -1.74016 0
M  V30 11674 H 1100.67 5.49088 1.36084 0
M  V30 11675 H 1099.23 6.40804 1.19218 0
M  V30 11676 N 1102.66 0.908147 1.28804 0
M  V30 11677 C 1103.61 0.382315 2.29437 0
M  V30 11678 C 1104.6 -0.523033 1.61123 0
M  V30 11679 O 1105.81 -0.404898 1.75387 0
M  V30 11680 H 1102.19 0.105022 0.74463 0
M  V30 11681 H 1104.16 1.24425 2.71221 0
M  V30 11682 C 1102.91 -0.367475 3.45753 0
M  V30 11683 H 1102.23 0.319957 3.98518 0
M  V30 11684 H 1103.67 -0.700131 4.1818 0
M  V30 11685 C 1102.13 -1.57329 2.97908 0
M  V30 11686 O 1102.66 -2.67248 2.99902 0
M  V30 11687 N 1100.86 -1.41835 2.53636 0
M  V30 11688 H 1100.41 -0.524099 2.52212 0
M  V30 11689 H 1100.37 -2.22645 2.21984 0
M  V30 11690 N 1104.14 -1.42577 0.671525 0
M  V30 11691 C 1105.09 -2.27978 -0.0315286 0
M  V30 11692 C 1106.07 -1.40907 -0.776796 0
M  V30 11693 O 1107.27 -1.64385 -0.656248 0
M  V30 11694 C 1104.4 -3.28884 -0.9844 0
M  V30 11695 C 1103.48 -4.23439 -0.236647 0
M  V30 11696 N 1103.87 -5.00107 0.756714 0
M  V30 11697 C 1102.17 -4.43457 -0.475551 0
M  V30 11698 C 1102.87 -5.69141 1.20221 0
M  V30 11699 N 1101.85 -5.40983 0.532802 0
M  V30 11700 H 1105.65 -2.84678 0.730455 0
M  V30 11701 H 1103.16 -1.54501 0.500317 0
M  V30 11702 H 1105.16 -3.88864 -1.50302 0
M  V30 11703 H 1103.82 -2.73745 -1.74625 0
M  V30 11704 H 1104.83 -5.05285 1.13613 0
M  V30 11705 H 1101.51 -3.99364 -1.21715 0
M  V30 11706 H 1102.9 -6.40653 2.02517 0
M  V30 11707 N 1105.62 -0.414636 -1.52048 0
M  V30 11708 C 1106.87 0.159034 -2.01473 0
M  V30 11709 C 1107.19 1.45176 -1.30188 0
M  V30 11710 O 1106.46 1.91134 -0.429469 0
M  V30 11711 H 1105.04 0.0617604 -0.744443 0
M  V30 11712 H 1107.7 -0.552141 -1.86916 0
M  V30 11713 H 1106.8 0.351217 -3.10118 0
M  V30 11714 N 1107.1 1.56929 -0.145233 0
M  V30 11715 C 1108.33 2.00141 0.51257 0
M  V30 11716 C 1108.73 1.0243 1.59075 0
M  V30 11717 O 1108.08 0.0130063 1.83695 0
M  V30 11718 C 1108.14 3.39785 1.17417 0
M  V30 11719 C 1107.8 4.56365 0.240801 0
M  V30 11720 C 1108.8 5.17183 -0.530847 0
M  V30 11721 C 1106.49 5.02093 0.144221 0
M  V30 11722 C 1108.48 6.22136 -1.38654 0
M  V30 11723 C 1106.17 6.06902 -0.71508 0
M  V30 11724 C 1107.16 6.66793 -1.47907 0
M  V30 11725 O 1106.85 7.69573 -2.32405 0
M  V30 11726 H 1106.58 0.661747 0.138085 0
M  V30 11727 H 1109.14 2.04037 -0.236269 0
M  V30 11728 H 1107.37 3.32722 1.97061 0
M  V30 11729 H 1109.06 3.67115 1.73152 0
M  V30 11730 H 1109.82 4.82754 -0.466256 0
M  V30 11731 H 1105.7 4.55206 0.728613 0
M  V30 11732 H 1109.25 6.68812 -1.98333 0
M  V30 11733 H 1105.14 6.40758 -0.78097 0
M  V30 11734 H 1105.91 7.86786 -2.25634 0
M  V30 11735 N 1108.58 -0.128553 1.57075 0
M  V30 11736 C 1109.49 -1.17718 2.02927 0
M  V30 11737 C 1110.5 -1.45912 0.947932 0
M  V30 11738 O 1111.68 -1.57217 1.25876 0
M  V30 11739 C 1108.74 -2.48625 2.41633 0
M  V30 11740 C 1107.8 -2.27914 3.63804 0
M  V30 11741 C 1107.04 -3.52579 4.00654 0
M  V30 11742 O 1107.26 -4.59505 3.37952 0
M  V30 11743 O 1106.19 -3.44147 4.93808 0
M  V30 11744 H 1110.02 -0.817846 2.92481 0
M  V30 11745 H 1107.6 -0.338649 1.45511 0
M  V30 11746 H 1109.49 -3.2577 2.67305 0
M  V30 11747 H 1108.16 -2.84052 1.55229 0
M  V30 11748 H 1107.07 -1.4866 3.43294 0
M  V30 11749 H 1108.4 -1.97395 4.50883 0
M  V30 11750 N 1110.05 -1.5248 -0.398459 0
M  V30 11751 C 1111 -1.77211 -1.50662 0
M  V30 11752 C 1112 -0.639638 -1.5686 0
M  V30 11753 O 1113.2 -0.821917 -1.60139 0
M  V30 11754 H 1109.58 -0.56057 -0.501264 0
M  V30 11755 H 1111.55 -2.70028 -1.26993 0
M  V30 11756 C 1110.3 -1.94944 -2.8791 0
M  V30 11757 H 1109.62 -2.8151 -2.83888 0
M  V30 11758 H 1111.06 -2.16243 -3.64712 0
M  V30 11759 C 1109.52 -0.719402 -3.29129 0
M  V30 11760 O 1110.05 0.107671 -4.01556 0
M  V30 11761 N 1108.25 -0.552228 -2.85305 0
M  V30 11762 H 1107.8 -1.22638 -2.26534 0
M  V30 11763 H 1107.76 0.269447 -3.13243 0
M  V30 11764 N 1111.53 0.65634 -1.43283 0
M  V30 11765 C 1112.94 1.23744 -1.39801 0
M  V30 11766 C 1113.29 1.95942 -0.100507 0
M  V30 11767 O 1112.42 2.01063 0.800161 0
M  V30 11768 C 1113.01 2.25062 -2.53244 0
M  V30 11769 C 1111.57 2.78657 -2.53036 0
M  V30 11770 C 1110.72 1.53251 -2.31105 0
M  V30 11771 H 1113.67 0.448553 -1.52229 0
M  V30 11772 H 1113.69 3.07174 -2.24553 0
M  V30 11773 H 1113.2 1.72487 -3.47664 0
M  V30 11774 H 1111.3 3.35304 -1.62487 0
M  V30 11775 H 1111.42 3.26414 -3.507 0
M  V30 11776 H 1109.78 1.80487 -1.79713 0
M  V30 11777 H 1110.56 1.02615 -3.27605 0
M  V30 11778 N 1113.01 1.29761 0.894412 0
M  V30 11779 C 1114.24 1.2094 1.67872 0
M  V30 11780 C 1114.65 -0.229192 1.87404 0
M  V30 11781 O 1114.01 -1.15278 1.41482 0
M  V30 11782 C 1114.06 1.92424 3.06032 0
M  V30 11783 O 1113.78 3.30665 2.87388 0
M  V30 11784 C 1115.28 1.90144 4.0045 0
M  V30 11785 H 1112.5 0.418942 0.524145 0
M  V30 11786 H 1115.05 1.71226 1.11813 0
M  V30 11787 H 1113.2 1.4596 3.58851 0
M  V30 11788 H 1113.62 3.66741 3.74969 0
M  V30 11789 H 1115.09 2.44716 4.94791 0
M  V30 11790 H 1115.57 0.878175 4.30331 0
M  V30 11791 H 1116.17 2.36375 3.53563 0
M  V30 11792 N 1114.49 -1.10549 1.12324 0
M  V30 11793 C 1115.72 -1.86 0.899312 0
M  V30 11794 C 1116.13 -1.80881 -0.554854 0
M  V30 11795 O 1115.47 -1.19485 -1.39531 0
M  V30 11796 C 1115.53 -3.35384 1.29452 0
M  V30 11797 C 1115.19 -3.64263 2.75974 0
M  V30 11798 C 1116.19 -3.60962 3.74169 0
M  V30 11799 C 1113.88 -3.92976 3.1285 0
M  V30 11800 C 1115.87 -3.85966 5.07256 0
M  V30 11801 C 1113.56 -4.17637 4.4612 0
M  V30 11802 C 1114.56 -4.14122 5.43132 0
M  V30 11803 O 1114.24 -4.38156 6.73999 0
M  V30 11804 H 1113.98 -0.594743 0.321337 0
M  V30 11805 H 1116.53 -1.40674 1.49667 0
M  V30 11806 H 1114.76 -3.81361 0.640358 0
M  V30 11807 H 1116.45 -3.9222 1.04491 0
M  V30 11808 H 1117.21 -3.38819 3.47025 0
M  V30 11809 H 1113.09 -3.94843 2.3795 0
M  V30 11810 H 1116.64 -3.83138 5.82967 0
M  V30 11811 H 1112.53 -4.39258 4.72993 0
M  V30 11812 H 1113.3 -4.55677 6.79927 0
M  V30 11813 N 1115.97 -0.914965 -1.28321 0
M  V30 11814 C 1116.91 -0.402792 -2.27258 0
M  V30 11815 C 1117.88 0.523412 -1.57638 0
M  V30 11816 O 1119.07 0.445344 -1.8553 0
M  V30 11817 C 1116.21 0.349956 -3.43321 0
M  V30 11818 C 1115.32 -0.608892 -4.27687 0
M  V30 11819 C 1114.46 0.162425 -5.30952 0
M  V30 11820 C 1113.49 -0.789959 -6.06981 0
M  V30 11821 N 1112.63 -0.0520826 -7.02081 0
M  V30 11822 H 1117.47 -1.25153 -2.70446 0
M  V30 11823 H 1115.01 -0.628444 -1.33 0
M  V30 11824 H 1116.97 0.802589 -4.09407 0
M  V30 11825 H 1115.6 1.16303 -3.01121 0
M  V30 11826 H 1114.65 -1.18005 -3.61634 0
M  V30 11827 H 1115.96 -1.33727 -4.8054 0
M  V30 11828 H 1115.11 0.675563 -6.02927 0
M  V30 11829 H 1113.85 0.923851 -4.7887 0
M  V30 11830 H 1112.86 -1.31446 -5.33856 0
M  V30 11831 H 1114.08 -1.55096 -6.61152 0
M  V30 11832 H 1112.03 0.691331 -6.52347 0
M  V30 11833 H 1111.95 -0.720267 -7.52561 0
M  V30 11834 H 1113.21 0.44082 -7.78253 0
M  V30 11835 N 1117.44 1.42219 -0.679077 0
M  V30 11836 C 1118.67 2.05516 -0.211342 0
M  V30 11837 C 1119.08 1.5113 1.13826 0
M  V30 11838 O 1118.42 0.647593 1.71907 0
M  V30 11839 C 1118.49 3.59425 -0.0736007 0
M  V30 11840 C 1118.15 4.36525 -1.3526 0
M  V30 11841 C 1119.15 4.66897 -2.28698 0
M  V30 11842 C 1116.83 4.76089 -1.60139 0
M  V30 11843 C 1118.83 5.35775 -3.45288 0
M  V30 11844 C 1116.51 5.44706 -2.77017 0
M  V30 11845 C 1117.51 5.74474 -3.69416 0
M  V30 11846 O 1117.2 6.41683 -4.8425 0
M  V30 11847 H 1116.93 0.668662 -0.0993318 0
M  V30 11848 H 1119.49 1.8327 -0.927434 0
M  V30 11849 H 1117.72 3.80346 0.69811 0
M  V30 11850 H 1119.4 4.04346 0.354813 0
M  V30 11851 H 1120.17 4.36828 -2.10729 0
M  V30 11852 H 1116.05 4.5231 -0.890887 0
M  V30 11853 H 1119.59 5.58927 -4.17428 0
M  V30 11854 H 1115.49 5.74194 -2.9491 0
M  V30 11855 H 1116.26 6.60175 -4.8385 0
M  V30 11856 N 1118.92 0.422693 1.51826 0
M  V30 11857 C 1119.85 -0.386913 2.30272 0
M  V30 11858 C 1120.83 -1.03411 1.35056 0
M  V30 11859 O 1122.02 -1.04055 1.6397 0
M  V30 11860 C 1119.15 -1.49645 3.13407 0
M  V30 11861 C 1118.1 -0.973532 4.16781 0
M  V30 11862 C 1117.43 -2.1777 4.88344 0
M  V30 11863 C 1118.73 -0.0181194 5.22297 0
M  V30 11864 H 1120.42 0.267697 2.98201 0
M  V30 11865 H 1117.97 0.130186 1.4341 0
M  V30 11866 H 1119.92 -2.06993 3.67059 0
M  V30 11867 H 1118.64 -2.17914 2.43272 0
M  V30 11868 H 1117.3 -0.42237 3.64159 0
M  V30 11869 H 1116.95 -2.84625 4.14726 0
M  V30 11870 H 1116.65 -1.83427 5.58237 0
M  V30 11871 H 1118.18 -2.75699 5.44814 0
M  V30 11872 H 1119.59 -0.500822 5.71108 0
M  V30 11873 H 1117.99 0.237163 5.99631 0
M  V30 11874 H 1119.06 0.923065 4.76033 0
M  V30 11875 N 1120.4 -1.5685 0.153553 0
M  V30 11876 C 1121.31 -2.20664 -0.796528 0
M  V30 11877 C 1122.33 -1.19289 -1.26674 0
M  V30 11878 O 1123.5 -1.51889 -1.32256 0
M  V30 11879 C 1120.57 -2.82088 -2.01561 0
M  V30 11880 C 1119.63 -3.9861 -1.59401 0
M  V30 11881 C 1118.86 -4.57096 -2.75498 0
M  V30 11882 O 1119.08 -4.14462 -3.9189 0
M  V30 11883 O 1118.02 -5.47254 -2.50593 0
M  V30 11884 H 1121.84 -3.02376 -0.283282 0
M  V30 11885 H 1119.43 -1.49218 -0.0737927 0
M  V30 11886 H 1121.31 -3.21103 -2.72893 0
M  V30 11887 H 1119.99 -2.03385 -2.51826 0
M  V30 11888 H 1118.89 -3.64299 -0.850725 0
M  V30 11889 H 1120.23 -4.78853 -1.13845 0
M  V30 11890 N 1121.88 0.120221 -1.57141 0
M  V30 11891 C 1122.81 1.1732 -1.96898 0
M  V30 11892 C 1123.82 1.37722 -0.868134 0
M  V30 11893 O 1125.01 1.36818 -1.14643 0
M  V30 11894 C 1122.11 2.53343 -2.25102 0
M  V30 11895 C 1121.28 2.53559 -3.56408 0
M  V30 11896 C 1120.34 3.71319 -3.72838 0
M  V30 11897 O 1119.37 3.54961 -4.44962 0
M  V30 11898 N 1120.57 4.89836 -3.11514 0
M  V30 11899 H 1123.34 0.835023 -2.87832 0
M  V30 11900 H 1120.9 0.309508 -1.58914 0
M  V30 11901 H 1122.89 3.30679 -2.3331 0
M  V30 11902 H 1121.46 2.79347 -1.403 0
M  V30 11903 H 1120.68 1.61946 -3.59398 0
M  V30 11904 H 1121.97 2.5076 -4.42716 0
M  V30 11905 H 1121.37 5.0603 -2.52884 0
M  V30 11906 H 1119.92 5.64853 -3.25246 0
M  V30 11907 N 1123.36 1.52689 0.390367 0
M  V30 11908 C 1124.29 1.72118 1.49836 0
M  V30 11909 C 1125.27 0.568986 1.5232 0
M  V30 11910 O 1126.45 0.798623 1.70746 0
M  V30 11911 C 1123.58 1.77754 2.88307 0
M  V30 11912 C 1122.62 2.99492 3.03655 0
M  V30 11913 S 1123.46 4.59496 2.74998 0
M  V30 11914 C 1124.61 4.67946 4.15665 0
M  V30 11915 H 1124.85 2.65826 1.3313 0
M  V30 11916 H 1122.38 1.42964 0.583153 0
M  V30 11917 H 1124.34 1.81687 3.68103 0
M  V30 11918 H 1123 0.851406 3.02341 0
M  V30 11919 H 1122.19 2.99973 4.05009 0
M  V30 11920 H 1121.79 2.93544 2.3175 0
M  V30 11921 H 1124.09 4.46476 5.09573 0
M  V30 11922 H 1125.03 5.69945 4.202 0
M  V30 11923 H 1125.44 3.96799 4.01511 0
M  V30 11924 N 1124.83 -0.648732 1.43629 0
M  V30 11925 C 1125.77 -1.77417 1.45107 0
M  V30 11926 C 1126.78 -1.59067 0.346618 0
M  V30 11927 O 1127.97 -1.67705 0.611322 0
M  V30 11928 C 1125.07 -3.14906 1.25249 0
M  V30 11929 C 1124.24 -3.59874 2.48616 0
M  V30 11930 C 1123.3 -4.76181 2.23916 0
M  V30 11931 O 1122.33 -4.8539 2.97296 0
M  V30 11932 N 1123.53 -5.66691 1.25862 0
M  V30 11933 H 1126.29 -1.76626 2.42123 0
M  V30 11934 H 1123.85 -0.832725 1.38843 0
M  V30 11935 H 1125.85 -3.90408 1.06601 0
M  V30 11936 H 1124.42 -3.10443 0.366623 0
M  V30 11937 H 1123.64 -2.74768 2.82659 0
M  V30 11938 H 1124.92 -3.86665 3.30708 0
M  V30 11939 H 1124.32 -5.61927 0.652227 0
M  V30 11940 H 1122.88 -6.41895 1.13196 0
M  V30 11941 N 1126.31 -1.30234 -0.887518 0
M  V30 11942 C 1127.56 -1.18277 -1.63381 0
M  V30 11943 C 1127.87 0.262079 -1.93836 0
M  V30 11944 O 1129.08 0.503127 -2.66797 0
M  V30 11945 C 1127.54 -2.06944 -2.94452 0
M  V30 11946 C 1127.14 -3.56323 -2.71547 0
M  V30 11947 C 1128.89 -2.03743 -3.7241 0
M  V30 11948 C 1126.8 -4.37054 -3.98419 0
M  V30 11949 H 1125.73 -0.439087 -0.612959 0
M  V30 11950 H 1128.38 -1.54964 -0.982779 0
M  V30 11951 H 1126.76 -1.63138 -3.60835 0
M  V30 11952 H 1127.93 -4.08261 -2.13681 0
M  V30 11953 H 1126.25 -3.61321 -2.06969 0
M  V30 11954 H 1128.84 -2.61312 -4.66497 0
M  V30 11955 H 1129.19 -1.02029 -4.03603 0
M  V30 11956 H 1129.72 -2.45657 -3.12886 0
M  V30 11957 H 1126.46 -5.39453 -3.72385 0
M  V30 11958 H 1125.98 -3.89881 -4.55799 0
M  V30 11959 H 1127.66 -4.48356 -4.66462 0
M  V30 11960 O 1127.83 1.02351 -1.24926 0
M  V30 11961 H 1128.52 1.64072 -1.02957 0
M  V30 END ATOM
M  V30 BEGIN BOND
M  V30 END BOND
M  V30 END CTAB
M  END
$$$$
