drugbank_target|Q06528 Carminomycin 4-O-methyltransferase DnrK (DB01752; DB03199)
 OpenBabel12092119583D

  0  0  0     0  0            999 V3000
M  V30 BEGIN CTAB
M  V30 COUNTS 5471 5527 0 0 0
M  V30 BEGIN ATOM
M  V30 1 H -0.908 1.98254 -0.117106 0
M  V30 2 N 0 1.576 0 0
M  V30 3 C 0.933 2.03868 1.02534 0
M  V30 4 C 1.911 0.928543 1.3348 0
M  V30 5 O 3.095 1.19667 1.45644 0
M  V30 6 C 0.222 2.43627 2.35294 0
M  V30 7 C -0.732 3.65373 2.2001 0
M  V30 8 S 0.101 5.13292 1.52614 0
M  V30 9 C 1.257 5.56322 2.86805 0
M  V30 10 H 1.49 2.90518 0.631377 0
M  V30 11 H -0.977 1.52953 0.210867 0
M  V30 12 H 0.981 2.67203 3.11629 0
M  V30 13 H -0.358 1.57376 2.7183 0
M  V30 14 H -1.165 3.90944 3.18086 0
M  V30 15 H -1.563 3.418 1.51819 0
M  V30 16 H 0.729 5.58782 3.83104 0
M  V30 17 H 1.672 6.56266 2.65933 0
M  V30 18 H 2.08 4.83886 2.90714 0
M  V30 19 N 1.4781 -0.272755 1.55222 0
M  V30 20 C 2.7061 -1.02255 1.79865 0
M  V30 21 C 3.1211 -1.79924 0.572088 0
M  V30 22 O 2.4781 -1.76638 -0.458842 0
M  V30 23 C 2.5291 -1.98094 3.02392 0
M  V30 24 O 2.2501 -1.23572 4.20311 0
M  V30 25 C 3.7511 -2.84884 3.39641 0
M  V30 26 H 0.9711 -0.302057 0.599168 0
M  V30 27 H 3.5151 -0.303465 2.02236 0
M  V30 28 H 1.6701 -2.65465 2.82147 0
M  V30 29 H 2.0841 -1.88172 4.89583 0
M  V30 30 H 3.5581 -3.47927 4.28545 0
M  V30 31 H 4.0351 -3.54665 2.59055 0
M  V30 32 H 4.6411 -2.23003 3.62146 0
M  V30 33 N 2.9562 -1.48159 -0.537278 0
M  V30 34 C 3.9192 -1.61665 -1.62472 0
M  V30 35 C 4.9192 -0.490395 -1.5314 0
M  V30 36 O 6.1092 -0.755998 -1.5694 0
M  V30 37 C 3.2412 -1.57997 -3.02076 0
M  V30 38 H 4.4342 -2.58621 -1.51839 0
M  V30 39 H 1.9872 -1.36647 -0.758771 0
M  V30 40 H 2.7222 -0.624913 -3.18222 0
M  V30 41 H 2.5072 -2.39755 -3.10258 0
M  V30 42 H 3.9972 -1.70627 -3.81151 0
M  V30 43 N 4.4343 0.785586 -1.36625 0
M  V30 44 C 5.3443 1.92964 -1.33425 0
M  V30 45 C 6.3603 1.72394 -0.235851 0
M  V30 46 O 7.5363 1.95866 -0.468878 0
M  V30 47 C 4.6013 3.27884 -1.12662 0
M  V30 48 C 3.6623 3.61204 -2.32013 0
M  V30 49 C 2.8953 4.89687 -2.12231 0
M  V30 50 O 3.1183 5.59704 -1.09945 0
M  V30 51 O 2.0523 5.21752 -3.00098 0
M  V30 52 H 5.8783 1.98613 -2.29753 0
M  V30 53 H 3.4633 0.926384 -1.17211 0
M  V30 54 H 5.3453 4.08614 -1.03016 0
M  V30 55 H 4.0203 3.23118 -0.193991 0
M  V30 56 H 2.9273 2.80765 -2.47228 0
M  V30 57 H 4.2603 3.70698 -3.23796 0
M  V30 58 N 5.9124 1.20967 1.01018 0
M  V30 59 C 7.3234 1.02319 1.56165 0
M  V30 60 C 7.6744 -0.418546 1.91684 0
M  V30 61 O 6.7994 -1.30096 1.72928 0
M  V30 62 C 7.3944 1.85109 2.8376 0
M  V30 63 C 5.9534 1.70809 3.35412 0
M  V30 64 C 5.1004 1.82643 2.08655 0
M  V30 65 H 8.0514 1.35065 0.833255 0
M  V30 66 H 8.0724 1.35827 3.55431 0
M  V30 67 H 7.5844 2.90035 2.57878 0
M  V30 68 H 5.6854 0.685464 3.66241 0
M  V30 69 H 5.7984 2.52467 4.07182 0
M  V30 70 H 4.1624 1.25896 2.21409 0
M  V30 71 H 4.9454 2.89066 1.85191 0
M  V30 72 N 7.3905 -1.2043 1.01659 0
M  V30 73 C 8.6185 -1.93777 0.725132 0
M  V30 74 C 9.0335 -1.74772 -0.714166 0
M  V30 75 O 8.3905 -1.06169 -1.4844 0
M  V30 76 C 8.4415 -3.45876 1.05129 0
M  V30 77 O 8.1625 -3.6426 2.43406 0
M  V30 78 C 9.6635 -4.36368 0.780891 0
M  V30 79 H 6.8835 -0.615901 0.266284 0
M  V30 80 H 9.4275 -1.52922 1.35776 0
M  V30 81 H 7.5825 -3.8461 0.464065 0
M  V30 82 H 7.9965 -4.58246 2.55169 0
M  V30 83 H 9.4705 -5.41743 1.05918 0
M  V30 84 H 9.9475 -4.38275 -0.284937 0
M  V30 85 H 10.5535 -4.03296 1.35027 0
M  V30 86 N 8.8686 -0.792821 -1.36206 0
M  V30 87 C 10.1146 -0.36733 -1.99446 0
M  V30 88 C 10.4476 1.05917 -1.62774 0
M  V30 89 O 9.7226 1.7324 -0.88421 0
M  V30 90 C 10.0056 -0.535044 -3.56103 0
M  V30 91 C 9.8586 -2.00548 -4.02617 0
M  V30 92 C 11.1776 0.0478191 -4.40074 0
M  V30 93 H 8.2966 -0.134941 -0.724541 0
M  V30 94 H 10.9386 -0.999794 -1.61568 0
M  V30 95 H 9.0886 0.00336329 -3.885 0
M  V30 96 H 10.7606 -2.60521 -3.80692 0
M  V30 97 H 9.0036 -2.50686 -3.54032 0
M  V30 98 H 9.6746 -2.07377 -5.11565 0
M  V30 99 H 12.1506 -0.411822 -4.14057 0
M  V30 100 H 11.0266 -0.0995336 -5.4881 0
M  V30 101 H 11.2876 1.14025 -4.27142 0
M  V30 102 N 10.3467 1.47872 -0.545128 0
M  V30 103 C 11.3097 2.28337 0.198717 0
M  V30 104 C 12.3097 1.36255 0.853888 0
M  V30 105 O 13.4997 1.59003 0.711606 0
M  V30 106 C 10.6317 3.15585 1.28915 0
M  V30 107 H 11.8247 2.95567 -0.507941 0
M  V30 108 H 9.3777 1.53362 -0.301616 0
M  V30 109 H 10.1127 2.53019 2.02859 0
M  V30 110 H 9.8977 3.83337 0.824309 0
M  V30 111 H 11.3877 3.76243 1.81194 0
M  V30 112 N 11.8248 0.280983 1.55075 0
M  V30 113 C 12.7878 -0.590896 2.21452 0
M  V30 114 C 13.7878 -1.07682 1.19421 0
M  V30 115 O 14.9778 -0.97605 1.44288 0
M  V30 116 C 12.1098 -1.81587 2.88511 0
M  V30 117 H 13.3028 -0.0112554 2.99898 0
M  V30 118 H 10.8558 0.0316438 1.56268 0
M  V30 119 H 11.5908 -2.43587 2.14093 0
M  V30 120 H 11.3758 -1.4753 3.63287 0
M  V30 121 H 12.8658 -2.43575 3.39206 0
M  V30 122 N 13.3029 -1.57598 0.00835791 0
M  V30 123 C 14.7189 -1.55764 -0.347822 0
M  V30 124 C 14.9189 -1.01186 -1.74252 0
M  V30 125 O 13.9749 -0.649371 -2.44007 0
M  V30 126 C 15.2879 -2.99927 -0.215407 0
M  V30 127 C 16.8359 -3.11656 -0.289725 0
M  V30 128 C 17.3109 -4.57621 -0.18634 0
M  V30 129 N 18.8019 -4.62557 -0.243978 0
M  V30 130 C 19.5369 -5.73094 -0.18745 0
M  V30 131 N 19.0329 -6.92753 -0.0810331 0
M  V30 132 N 20.8259 -5.61588 -0.239925 0
M  V30 133 H 12.9769 -1.91411 0.92062 0
M  V30 134 H 15.2399 -0.879562 0.353659 0
M  V30 135 H 14.9459 -3.43729 0.744512 0
M  V30 136 H 14.8199 -3.63865 -0.994097 0
M  V30 137 H 17.2069 -2.67779 -1.24009 0
M  V30 138 H 17.2879 -2.5048 0.51898 0
M  V30 139 H 16.9319 -5.02174 0.760519 0
M  V30 140 H 16.8619 -5.16752 -1.01364 0
M  V30 141 H 19.3529 -3.76481 -0.327217 0
M  V30 142 H 19.6659 -7.72787 -0.0440241 0
M  V30 143 H 18.0109 -6.94984 -0.0465419 0
M  V30 144 H 21.2019 -4.66996 -0.321317 0
M  V30 145 H 21.3749 -6.47714 -0.192407 0
M  V30 146 N 14.781 0.264519 -1.55364 0
M  V30 147 C 16.192 0.834936 -1.6699 0
M  V30 148 C 16.543 1.86718 -0.602552 0
M  V30 149 O 15.668 2.14899 0.254425 0
M  V30 150 C 16.263 1.5212 -3.02729 0
M  V30 151 C 14.822 2.03954 -3.16354 0
M  V30 152 C 13.969 0.884498 -2.62815 0
M  V30 153 H 16.92 0.0406869 -1.58648 0
M  V30 154 H 16.941 2.38853 -2.96191 0
M  V30 155 H 16.453 0.769668 -3.80392 0
M  V30 156 H 14.554 2.82041 -2.43482 0
M  V30 157 H 14.667 2.24902 -4.23032 0
M  V30 158 H 13.031 1.2802 -2.20188 0
M  V30 159 H 13.814 0.14634 -3.42988 0
M  V30 160 N 16.2591 1.48442 0.529413 0
M  V30 161 C 17.1911 1.59095 1.64989 0
M  V30 162 C 18.2041 0.475212 1.5571 0
M  V30 163 O 19.3931 0.746081 1.6216 0
M  V30 164 C 16.4931 1.50518 3.0364 0
M  V30 165 C 15.6661 2.77142 3.38395 0
M  V30 166 C 14.7251 2.62012 4.56329 0
M  V30 167 O 13.7511 3.35898 4.59522 0
M  V30 168 N 14.9531 1.71667 5.54536 0
M  V30 169 H 17.7181 2.55723 1.56287 0
M  V30 170 H 15.2791 1.45173 0.716697 0
M  V30 171 H 17.2711 1.38091 3.80412 0
M  V30 172 H 15.8411 0.618627 3.06418 0
M  V30 173 H 15.0611 3.0413 2.50796 0
M  V30 174 H 16.3491 3.61146 3.58401 0
M  V30 175 H 15.7471 1.10841 5.54735 0
M  V30 176 H 14.3041 1.65178 6.30523 0
M  V30 177 N 17.7372 -0.778329 1.37039 0
M  V30 178 C 18.6692 -1.90034 1.2814 0
M  V30 179 C 19.6822 -1.61585 0.198558 0
M  V30 180 O 20.8712 -1.72625 0.454175 0
M  V30 181 C 17.9712 -3.25108 0.956968 0
M  V30 182 C 17.1442 -3.81253 2.14394 0
M  V30 183 C 16.2032 -4.94789 1.79082 0
M  V30 184 O 15.2292 -5.10721 2.51301 0
M  V30 185 N 16.4312 -5.75878 0.731043 0
M  V30 186 H 19.1962 -1.98186 2.24816 0
M  V30 187 H 16.7572 -0.957129 1.30578 0
M  V30 188 H 18.7492 -3.9857 0.701701 0
M  V30 189 H 17.3192 -3.125 0.0789812 0
M  V30 190 H 16.5392 -2.99647 2.56135 0
M  V30 191 H 17.8272 -4.15495 2.93668 0
M  V30 192 H 17.2252 -5.65547 0.131618 0
M  V30 193 H 15.7822 -6.49596 0.535622 0
M  V30 194 N 19.2153 -1.21501 -1.00376 0
M  V30 195 C 20.4643 -1.02718 -1.73586 0
M  V30 196 C 20.7773 0.439589 -1.90596 0
M  V30 197 O 21.9833 0.746848 -2.61026 0
M  V30 198 C 20.4393 -1.78929 -3.1227 0
M  V30 199 C 20.0473 -3.29783 -3.03228 0
M  V30 200 C 21.7913 -1.68557 -3.89601 0
M  V30 201 C 19.6983 -3.98479 -4.36999 0
M  V30 202 H 18.6283 -0.380733 -0.650814 0
M  V30 203 H 21.2793 -1.45248 -1.1214 0
M  V30 204 H 19.6613 -1.29192 -3.74333 0
M  V30 205 H 20.8353 -3.86832 -2.50395 0
M  V30 206 H 19.1503 -3.40711 -2.39385 0
M  V30 207 H 21.7473 -2.17211 -4.88593 0
M  V30 208 H 22.0903 -0.644021 -4.11288 0
M  V30 209 H 22.6233 -2.15778 -3.34193 0
M  V30 210 H 19.3623 -5.02841 -4.20513 0
M  V30 211 H 18.8823 -3.46219 -4.89788 0
M  V30 212 H 20.5613 -4.03462 -5.05794 0
M  V30 213 N 20.6934 1.19889 -1.02296 0
M  V30 214 C 21.9704 1.85148 -0.630832 0
M  V30 215 C 22.3504 1.91385 0.890782 0
M  V30 216 O 21.6984 1.42642 1.78509 0
M  V30 217 C 21.9084 3.24442 -1.28602 0
M  V30 218 C 23.2564 4.00663 -1.4055 0
M  V30 219 O 24.2804 3.33818 -1.24273 0
M  V30 220 O 23.1394 5.20387 -1.66913 0
M  V30 221 H 20.2334 0.797613 -0.218499 0
M  V30 222 H 22.7794 1.27427 -1.12074 0
M  V30 223 H 21.5514 3.14704 -2.32545 0
M  V30 224 H 21.1744 3.89802 -0.7836 0
M  V30 225 N 22.1715 0.800033 1.35784 0
M  V30 226 C 23.1345 0.211565 2.28221 0
M  V30 227 C 24.1345 -0.59728 1.49296 0
M  V30 228 O 25.3245 -0.416721 1.69142 0
M  V30 229 C 22.4565 -0.705846 3.33513 0
M  V30 230 H 23.6495 1.02677 2.81776 0
M  V30 231 H 21.2025 0.570211 1.45528 0
M  V30 232 H 21.9375 -1.54498 2.85133 0
M  V30 233 H 21.7225 -0.127655 3.91892 0
M  V30 234 H 23.2125 -1.11211 4.02519 0
M  V30 235 N 23.6496 -1.47581 0.552962 0
M  V30 236 C 24.5796 -2.32762 -0.185451 0
M  V30 237 C 25.5606 -1.43527 -0.912905 0
M  V30 238 O 26.7456 -1.72388 -0.894201 0
M  V30 239 C 23.8756 -3.25219 -1.21859 0
M  V30 240 C 22.8296 -4.23661 -0.607864 0
M  V30 241 C 22.1556 -5.05413 -1.74533 0
M  V30 242 C 23.4556 -5.20481 0.435582 0
M  V30 243 H 25.1496 -2.94749 0.525684 0
M  V30 244 H 22.6956 -1.41738 0.254251 0
M  V30 245 H 24.6486 -3.8365 -1.7433 0
M  V30 246 H 23.3726 -2.61279 -1.95961 0
M  V30 247 H 22.0316 -3.66451 -0.104489 0
M  V30 248 H 21.6796 -4.3788 -2.47529 0
M  V30 249 H 21.3796 -5.72059 -1.34249 0
M  V30 250 H 22.9036 -5.66701 -2.27338 0
M  V30 251 H 24.3176 -5.733 -0.00290157 0
M  V30 252 H 22.7146 -5.95305 0.757067 0
M  V30 253 H 23.7846 -4.66217 1.33303 0
M  V30 254 N 25.1277 -0.289203 -1.54924 0
M  V30 255 C 26.5437 0.0645403 -1.59469 0
M  V30 256 C 26.7437 1.53419 -1.30632 0
M  V30 257 O 25.7997 2.2852 -1.074 0
M  V30 258 C 27.1127 -0.32278 -2.98963 0
M  V30 259 C 28.6607 -0.270564 -3.11828 0
M  V30 260 C 29.1357 -0.632532 -4.53611 0
M  V30 261 N 30.6267 -0.584617 -4.59496 0
M  V30 262 C 31.3617 -0.837314 -5.67254 0
M  V30 263 N 30.8577 -1.15536 -6.83098 0
M  V30 264 N 32.6507 -0.765166 -5.56868 0
M  V30 265 H 24.8017 -1.24714 -1.71931 0
M  V30 266 H 27.0647 -0.504809 -0.802416 0
M  V30 267 H 26.7707 -1.34541 -3.24948 0
M  V30 268 H 26.6447 0.32944 -3.75759 0
M  V30 269 H 29.0317 0.742805 -2.85598 0
M  V30 270 H 29.1127 -0.957242 -2.37214 0
M  V30 271 H 28.7567 -1.64365 -4.80569 0
M  V30 272 H 28.6867 0.07609 -5.26545 0
M  V30 273 H 31.1777 -0.349248 -3.76283 0
M  V30 274 H 31.4907 -1.33447 -7.61191 0
M  V30 275 H 29.8357 -1.19328 -6.84679 0
M  V30 276 H 33.0267 -0.516432 -4.65243 0
M  V30 277 H 33.1997 -0.965477 -6.40767 0
M  V30 278 N 26.6058 1.57591 -0.0167156 0
M  V30 279 C 27.8338 1.95575 0.675128 0
M  V30 280 C 28.2488 0.892542 1.6637 0
M  V30 281 O 27.6058 -0.126912 1.82058 0
M  V30 282 C 27.6568 3.33608 1.39239 0
M  V30 283 O 27.3778 4.3585 0.443444 0
M  V30 284 C 28.8788 3.86151 2.17721 0
M  V30 285 H 26.0988 0.644423 0.186978 0
M  V30 286 H 28.6428 2.0437 -0.0728 0
M  V30 287 H 26.7978 3.2607 2.09182 0
M  V30 288 H 27.2118 5.158 0.951358 0
M  V30 289 H 28.6858 4.85114 2.63379 0
M  V30 290 H 29.1628 3.19738 3.01105 0
M  V30 291 H 29.7688 3.96918 1.52761 0
M  V30 292 N 28.0839 -0.256276 1.55502 0
M  V30 293 C 29.0139 -1.32102 1.92539 0
M  V30 294 C 29.9949 -1.50684 0.789194 0
M  V30 295 O 31.1799 -1.63449 1.04872 0
M  V30 296 C 28.3099 -2.67752 2.21192 0
M  V30 297 C 27.2639 -2.63878 3.36975 0
M  V30 298 C 26.5899 -4.03236 3.51147 0
M  V30 299 C 27.8899 -2.21682 4.72921 0
M  V30 300 H 29.5839 -1.01351 2.81724 0
M  V30 301 H 27.1299 -0.486105 1.35547 0
M  V30 302 H 29.0829 -3.42365 2.45691 0
M  V30 303 H 27.8069 -3.0012 1.28824 0
M  V30 304 H 26.4659 -1.91722 3.12471 0
M  V30 305 H 26.1139 -4.32854 2.56216 0
M  V30 306 H 25.8139 -4.01535 4.29003 0
M  V30 307 H 27.3379 -4.79563 3.77957 0
M  V30 308 H 28.7519 -2.86023 4.96854 0
M  V30 309 H 27.1489 -2.3111 5.53812 0
M  V30 310 H 28.2189 -1.16833 4.70615 0
M  V30 311 N 29.562 -1.4872 -0.521534 0
M  V30 312 C 30.811 -1.56419 -1.27341 0
M  V30 313 C 31.124 -0.246805 -1.94037 0
M  V30 314 O 32.33 -0.202122 -2.70747 0
M  V30 315 C 30.786 -2.75896 -2.31105 0
M  V30 316 C 30.394 -4.14311 -1.70441 0
M  V30 317 C 32.138 -2.92913 -3.07249 0
M  V30 318 C 30.045 -5.25038 -2.72194 0
M  V30 319 H 28.975 -0.582344 -0.478949 0
M  V30 320 H 31.626 -1.75071 -0.549779 0
M  V30 321 H 30.008 -2.50697 -3.06541 0
M  V30 322 H 31.182 -4.49564 -1.01136 0
M  V30 323 H 29.497 -4.02482 -1.06759 0
M  V30 324 H 32.094 -3.72805 -3.83302 0
M  V30 325 H 32.437 -2.02689 -3.63625 0
M  V30 326 H 32.97 -3.18054 -2.38928 0
M  V30 327 H 29.709 -6.17255 -2.20627 0
M  V30 328 H 29.229 -4.94263 -3.39801 0
M  V30 329 H 30.908 -5.53508 -3.35019 0
M  V30 330 N 31.0401 0.771051 -1.3745 0
M  V30 331 C 32.4561 1.07171 -1.18265 0
M  V30 332 C 32.6561 2.01491 -0.019287 0
M  V30 333 O 31.7121 2.44244 0.640408 0
M  V30 334 C 33.0251 1.66854 -2.50161 0
M  V30 335 C 34.5731 1.79109 -2.56689 0
M  V30 336 C 35.0481 2.42205 -3.88717 0
M  V30 337 N 36.5391 2.49655 -3.90162 0
M  V30 338 C 37.2741 2.9933 -4.8907 0
M  V30 339 N 36.7701 3.49172 -5.98374 0
M  V30 340 N 38.5631 2.9821 -4.76474 0
M  V30 341 H 30.7141 0.144796 -2.11906 0
M  V30 342 H 32.9771 0.126863 -0.939473 0
M  V30 343 H 32.6831 1.05017 -3.35655 0
M  V30 344 H 32.5571 2.6614 -2.673 0
M  V30 345 H 34.9441 2.40077 -1.71601 0
M  V30 346 H 35.0251 0.785757 -2.43433 0
M  V30 347 H 34.6691 1.81875 -4.74219 0
M  V30 348 H 34.5991 3.43345 -3.99276 0
M  V30 349 H 37.0901 2.14383 -3.11205 0
M  V30 350 H 37.4031 3.8548 -6.69795 0
M  V30 351 H 35.7481 3.47275 -6.02018 0
M  V30 352 H 38.9391 2.58572 -3.90203 0
M  V30 353 H 39.1121 3.36613 -5.53711 0
M  V30 354 N 32.5182 1.22032 0.997298 0
M  V30 355 C 33.4482 1.01065 2.10495 0
M  V30 356 C 34.4292 -0.0669542 1.69968 0
M  V30 357 O 35.6142 0.0943987 1.9397 0
M  V30 358 C 32.7442 0.582874 3.42374 0
M  V30 359 C 31.6982 1.60592 3.96729 0
M  V30 360 C 31.0242 1.03412 5.24605 0
M  V30 361 C 32.3242 2.99478 4.27914 0
M  V30 362 H 34.0182 1.93708 2.28292 0
M  V30 363 H 31.5642 0.932761 1.09707 0
M  V30 364 H 33.5172 0.423332 4.19268 0
M  V30 365 H 32.2412 -0.379213 3.24391 0
M  V30 366 H 30.9002 1.75316 3.21963 0
M  V30 367 H 30.5482 0.063518 5.0296 0
M  V30 368 H 30.2482 1.71754 5.61938 0
M  V30 369 H 31.7722 0.886066 6.04137 0
M  V30 370 H 33.1862 2.88153 4.95622 0
M  V30 371 H 31.5832 3.64903 4.76409 0
M  V30 372 H 32.6532 3.49742 3.3587 0
M  V30 373 N 33.9963 -1.19345 1.0293 0
M  V30 374 C 35.2443 -1.88665 0.724574 0
M  V30 375 C 35.5653 -1.80036 -0.749144 0
M  V30 376 O 34.8353 -1.2111 -1.53978 0
M  V30 377 H 33.4153 -0.698406 0.265025 0
M  V30 378 H 36.0773 -1.44885 1.30362 0
M  V30 379 H 35.1733 -2.94987 1.01926 0
M  V30 380 N 35.4744 -0.807222 -1.35358 0
M  V30 381 C 36.6994 -0.399309 -2.0352 0
M  V30 382 C 37.1244 0.981986 -1.60433 0
M  V30 383 O 36.4824 1.63601 -0.781299 0
M  V30 384 C 36.5304 -0.491552 -3.57234 0
M  V30 385 O 35.6344 0.494754 -4.09421 0
M  V30 386 H 34.9754 -0.166682 -0.642739 0
M  V30 387 H 37.5054 -1.09328 -1.72941 0
M  V30 388 H 37.5154 -0.361588 -4.06395 0
M  V30 389 H 36.1904 -1.49907 -3.87944 0
M  V30 390 H 34.7674 0.324977 -3.71481 0
M  V30 391 N 36.9525 1.47285 -0.560781 0
M  V30 392 C 37.8825 2.32857 0.173105 0
M  V30 393 C 38.8635 1.44009 0.905281 0
M  V30 394 O 40.0485 1.7286 0.885046 0
M  V30 395 C 37.1785 3.25861 1.20133 0
M  V30 396 C 36.1325 4.23978 0.585388 0
M  V30 397 C 35.4585 5.06332 1.7185 0
M  V30 398 C 36.7585 5.20242 -0.463178 0
M  V30 399 H 38.4525 2.94466 -0.541307 0
M  V30 400 H 35.9985 1.41601 -0.261764 0
M  V30 401 H 37.9515 3.84569 1.72293 0
M  V30 402 H 36.6755 2.62315 1.94573 0
M  V30 403 H 35.3345 3.66501 0.085054 0
M  V30 404 H 34.9825 4.39186 2.45203 0
M  V30 405 H 34.6825 5.72762 1.31213 0
M  V30 406 H 36.2065 5.67899 2.24329 0
M  V30 407 H 37.6205 5.73293 -0.027502 0
M  V30 408 H 36.0175 5.94896 -0.788627 0
M  V30 409 H 37.0875 4.65504 -1.35773 0
M  V30 410 N 38.4306 0.297415 1.54768 0
M  V30 411 C 39.3806 -0.595275 2.20092 0
M  V30 412 C 40.3646 -1.10163 1.17273 0
M  V30 413 O 41.5566 -1.043 1.43006 0
M  V30 414 C 38.6856 -1.7684 2.94249 0
M  V30 415 C 37.7716 -1.27818 4.0438 0
M  V30 416 N 38.1626 -0.505695 5.03266 0
M  V30 417 C 36.4606 -1.55923 4.17857 0
M  V30 418 C 37.1616 -0.245094 5.81183 0
M  V30 419 N 36.1376 -0.823881 5.3732 0
M  V30 420 H 39.9396 0.00250837 2.939 0
M  V30 421 H 37.4536 0.102007 1.62079 0
M  V30 422 H 39.4506 -2.41944 3.39513 0
M  V30 423 H 38.1106 -2.36992 2.21957 0
M  V30 424 H 39.1216 -0.150928 5.1768 0
M  V30 425 H 35.7986 -2.16849 3.56767 0
M  V30 426 H 37.1886 0.375084 6.70852 0
M  V30 427 N 39.9087 -1.5758 0.0250728 0
M  V30 428 C 41.1367 -1.9593 -0.664747 0
M  V30 429 C 41.5517 -0.901352 -1.65895 0
M  V30 430 O 40.9087 0.117255 -1.82123 0
M  V30 431 C 40.9597 -3.34342 -1.37468 0
M  V30 432 O 40.6807 -4.36079 -0.420324 0
M  V30 433 C 42.1817 -3.873 -2.1567 0
M  V30 434 H 39.4017 -0.645405 -0.183557 0
M  V30 435 H 41.9457 -2.04329 0.0836372 0
M  V30 436 H 40.1007 -3.27175 -2.0745 0
M  V30 437 H 40.5147 -5.16297 -0.923991 0
M  V30 438 H 41.9887 -4.86504 -2.60803 0
M  V30 439 H 42.4657 -3.21331 -2.99405 0
M  V30 440 H 43.0717 -3.97723 -1.50654 0
M  V30 441 N 41.3868 0.248026 -1.55636 0
M  V30 442 C 42.7978 0.817177 -1.67866 0
M  V30 443 C 43.1488 1.86069 -0.622322 0
M  V30 444 O 42.2738 2.15157 0.231618 0
M  V30 445 C 42.8688 1.489 -3.04326 0
M  V30 446 C 41.4278 2.00587 -3.185 0
M  V30 447 C 40.5748 0.856573 -2.63739 0
M  V30 448 H 43.5258 0.0238579 -1.58682 0
M  V30 449 H 43.5468 2.35698 -2.98708 0
M  V30 450 H 43.0588 0.729279 -3.81186 0
M  V30 451 H 41.1598 2.79443 -2.4646 0
M  V30 452 H 41.2728 2.20402 -4.25393 0
M  V30 453 H 39.6368 1.25678 -2.21534 0
M  V30 454 H 40.4198 0.109953 -3.43124 0
M  V30 455 N 42.8649 1.48995 0.513639 0
M  V30 456 C 43.7979 1.59319 1.63379 0
M  V30 457 C 44.7759 0.442816 1.56454 0
M  V30 458 O 45.9599 0.656655 1.76693 0
M  V30 459 C 43.0869 1.5364 3.01848 0
M  V30 460 C 42.1329 2.7372 3.27078 0
M  V30 461 S 42.9659 4.35528 3.1157 0
M  V30 462 C 44.1219 4.32473 4.52458 0
M  V30 463 H 44.3549 2.54079 1.54374 0
M  V30 464 H 41.8879 1.3773 0.697849 0
M  V30 465 H 43.8459 1.51049 3.81699 0
M  V30 466 H 42.5069 0.601898 3.08279 0
M  V30 467 H 41.6999 2.6593 4.28132 0
M  V30 468 H 41.3019 2.73657 2.54927 0
M  V30 469 H 43.5939 4.03414 5.44301 0
M  V30 470 H 44.5369 5.33762 4.65299 0
M  V30 471 H 44.9449 3.62718 4.32546 0
M  V30 472 N 44.343 -0.763751 1.37857 0
M  V30 473 C 45.589 -1.52483 1.33704 0
M  V30 474 C 45.922 -1.94051 -0.0759612 0
M  V30 475 O 45.197 -1.64675 -1.03501 0
M  V30 476 C 45.48 -2.78441 2.28348 0
M  V30 477 C 45.333 -2.43075 3.78463 0
M  V30 478 C 46.652 -3.80415 2.21298 0
M  V30 479 H 43.771 -0.553169 0.487005 0
M  V30 480 H 46.413 -0.875562 1.68624 0
M  V30 481 H 44.563 -3.33842 1.987 0
M  V30 482 H 46.235 -1.93527 4.18742 0
M  V30 483 H 44.478 -1.75666 3.96641 0
M  V30 484 H 45.149 -3.33149 4.40132 0
M  V30 485 H 47.625 -3.34527 2.47449 0
M  V30 486 H 46.501 -4.66257 2.89647 0
M  V30 487 H 46.762 -4.25262 1.20849 0
M  V30 488 N 45.8211 -1.22559 -0.990812 0
M  V30 489 C 47.0671 -1.05297 -1.73322 0
M  V30 490 C 47.4001 0.410655 -1.89808 0
M  V30 491 O 46.6751 1.30439 -1.44277 0
M  V30 492 C 46.9581 -1.76713 -3.13759 0
M  V30 493 C 46.8111 -3.30684 -3.04907 0
M  V30 494 C 48.1301 -1.52121 -4.12974 0
M  V30 495 H 45.2491 -0.38392 -0.629106 0
M  V30 496 H 47.8911 -1.50926 -1.15418 0
M  V30 497 H 46.0411 -1.37924 -3.63193 0
M  V30 498 H 47.7131 -3.7893 -2.63077 0
M  V30 499 H 45.9561 -3.60253 -2.41661 0
M  V30 500 H 46.6271 -3.75833 -4.04294 0
M  V30 501 H 49.1031 -1.85819 -3.72304 0
M  V30 502 H 47.9791 -2.04582 -5.0935 0
M  V30 503 H 48.2401 -0.454257 -4.3976 0
M  V30 504 N 47.2992 1.18797 -1.03562 0
M  V30 505 C 48.7152 1.40671 -0.753917 0
M  V30 506 C 48.9152 1.9043 0.658686 0
M  V30 507 O 47.9712 2.08538 1.42366 0
M  V30 508 C 49.2842 2.41192 -1.79574 0
M  V30 509 C 50.8322 2.54928 -1.81606 0
M  V30 510 C 51.3072 3.58709 -2.84766 0
M  V30 511 N 52.7982 3.66212 -2.83625 0
M  V30 512 C 53.5332 4.46225 -3.60098 0
M  V30 513 N 53.0292 5.29888 -4.46308 0
M  V30 514 N 54.8222 4.40939 -3.4861 0
M  V30 515 H 46.9732 0.848221 -1.94728 0
M  V30 516 H 49.2362 0.435081 -0.842264 0
M  V30 517 H 48.9422 2.11669 -2.80872 0
M  V30 518 H 48.8162 3.40467 -1.62365 0
M  V30 519 H 51.2032 2.83771 -0.809817 0
M  V30 520 H 51.2842 1.55784 -2.02891 0
M  V30 521 H 50.9282 3.30607 -3.85566 0
M  V30 522 H 50.8582 4.57519 -2.60737 0
M  V30 523 H 53.3492 3.06466 -2.21105 0
M  V30 524 H 53.6622 5.88078 -5.01382 0
M  V30 525 H 52.0072 5.29326 -4.50377 0
M  V30 526 H 55.1982 3.74624 -2.80668 0
M  V30 527 H 55.3712 5.03056 -4.08459 0
M  V30 528 N 48.7773 0.814389 1.34928 0
M  V30 529 C 50.0053 0.411136 2.02774 0
M  V30 530 C 50.4203 -0.980316 1.61354 0
M  V30 531 O 49.7773 -1.63299 0.814847 0
M  V30 532 C 49.8283 0.493865 3.58111 0
M  V30 533 O 49.5493 1.83047 3.98027 0
M  V30 534 C 51.0503 0.0844174 4.4322 0
M  V30 535 H 48.2703 0.166037 0.650133 0
M  V30 536 H 50.8143 1.10018 1.72384 0
M  V30 537 H 48.9693 -0.147006 3.87121 0
M  V30 538 H 49.3833 1.79872 4.92693 0
M  V30 539 H 50.8573 0.193404 5.51661 0
M  V30 540 H 51.3343 -0.97113 4.28329 0
M  V30 541 H 51.9403 0.69875 4.19521 0
M  V30 542 N 50.2554 -1.46986 0.568584 0
M  V30 543 C 51.2184 -2.28624 -0.162366 0
M  V30 544 C 52.2184 -1.37596 -0.832103 0
M  V30 545 O 53.4084 -1.60115 -0.68622 0
M  V30 546 C 50.5404 -3.17596 -1.23878 0
M  V30 547 H 51.7334 -2.94722 0.554899 0
M  V30 548 H 49.2864 -1.52863 0.325976 0
M  V30 549 H 50.0214 -2.56214 -1.98808 0
M  V30 550 H 49.8064 -3.846 -0.763219 0
M  V30 551 H 51.2964 -3.79078 -1.75185 0
M  V30 552 N 51.7335 -0.305618 -1.54608 0
M  V30 553 C 52.6965 0.555591 -2.22364 0
M  V30 554 C 53.6965 1.05768 -1.21119 0
M  V30 555 O 54.8865 0.952972 -1.45822 0
M  V30 556 C 52.0185 1.76974 -2.91364 0
M  V30 557 H 53.2115 -0.0364572 -2.99878 0
M  V30 558 H 50.7645 -0.0565007 -1.56198 0
M  V30 559 H 51.4995 2.40151 -2.17941 0
M  V30 560 H 51.2845 1.41732 -3.65588 0
M  V30 561 H 52.7745 2.38148 -3.43038 0
M  V30 562 N 53.2116 1.57565 -0.0334293 0
M  V30 563 C 54.4396 1.9628 0.654347 0
M  V30 564 C 54.8546 0.910138 1.65414 0
M  V30 565 O 54.2116 -0.107595 1.82183 0
M  V30 566 C 54.2626 3.35067 1.35693 0
M  V30 567 O 53.9836 4.36296 0.397191 0
M  V30 568 C 55.4846 3.88439 2.13613 0
M  V30 569 H 52.7046 0.646369 0.180132 0
M  V30 570 H 55.2486 2.04282 -0.0944721 0
M  V30 571 H 53.4036 3.2827 2.05712 0
M  V30 572 H 53.8176 5.1678 0.896597 0
M  V30 573 H 55.2916 4.8788 2.58219 0
M  V30 574 H 55.7686 3.22914 2.97696 0
M  V30 575 H 56.3746 3.98516 1.48543 0
M  V30 576 N 54.6897 -0.239769 1.55765 0
M  V30 577 C 55.6197 -1.30052 1.9393 0
M  V30 578 C 56.6007 -1.49839 0.805132 0
M  V30 579 O 57.7857 -1.62328 1.06599 0
M  V30 580 C 54.9157 -2.65391 2.2402 0
M  V30 581 C 53.8697 -2.60289 3.39755 0
M  V30 582 C 53.1957 -3.99489 3.55405 0
M  V30 583 C 54.4957 -2.16654 4.75246 0
M  V30 584 H 56.1897 -0.983573 2.82783 0
M  V30 585 H 53.7357 -0.471701 1.36055 0
M  V30 586 H 55.6887 -3.3974 2.49308 0
M  V30 587 H 54.4127 -2.98736 1.32 0
M  V30 588 H 53.0717 -1.88398 3.14487 0
M  V30 589 H 52.7197 -4.30112 2.60793 0
M  V30 590 H 52.4197 -3.96962 4.33238 0
M  V30 591 H 53.9437 -4.75528 3.83022 0
M  V30 592 H 55.3577 -2.80737 4.99859 0
M  V30 593 H 53.7547 -2.25223 5.56232 0
M  V30 594 H 54.8247 -1.11835 4.71827 0
M  V30 595 N 56.1678 -1.49265 -0.50573 0
M  V30 596 C 57.5838 -1.35923 -0.836486 0
M  V30 597 C 57.7838 -0.388704 -1.97715 0
M  V30 598 O 56.8398 0.181336 -2.51848 0
M  V30 599 C 58.1528 -2.76531 -1.18115 0
M  V30 600 C 59.7008 -2.85197 -1.28964 0
M  V30 601 C 60.1758 -4.26561 -1.66761 0
M  V30 602 N 61.6668 -4.2935 -1.73819 0
M  V30 603 C 62.4018 -5.35693 -2.045 0
M  V30 604 N 61.8978 -6.52287 -2.33438 0
M  V30 605 N 63.6908 -5.23105 -2.05711 0
M  V30 606 H 55.8418 -2.10965 0.246519 0
M  V30 607 H 58.1048 -0.9468 0.0476887 0
M  V30 608 H 57.8108 -3.49226 -0.416398 0
M  V30 609 H 57.6848 -3.11599 -2.1257 0
M  V30 610 H 60.0718 -2.12742 -2.04511 0
M  V30 611 H 60.1528 -2.53718 -0.325704 0
M  V30 612 H 59.7968 -4.99541 -0.917656 0
M  V30 613 H 59.7268 -4.55502 -2.64246 0
M  V30 614 H 62.2178 -3.4526 -1.53635 0
M  V30 615 H 62.5308 -7.29158 -2.56024 0
M  V30 616 H 60.8758 -6.55521 -2.30905 0
M  V30 617 H 64.0668 -4.31026 -1.82577 0
M  V30 618 H 64.2398 -6.06078 -2.29289 0
M  V30 619 N 57.6459 0.756429 -1.3826 0
M  V30 620 C 58.5759 1.88374 -1.37976 0
M  V30 621 C 59.5569 1.68311 -0.246082 0
M  V30 622 O 60.7419 1.88944 -0.44874 0
M  V30 623 C 57.8719 3.25864 -1.20125 0
M  V30 624 C 56.8259 3.60523 -2.30666 0
M  V30 625 C 56.1519 4.9672 -1.97923 0
M  V30 626 C 57.4519 3.65692 -3.72916 0
M  V30 627 H 59.1459 1.88869 -2.32312 0
M  V30 628 H 56.6919 0.907272 -1.11824 0
M  V30 629 H 58.6449 4.0438 -1.18552 0
M  V30 630 H 57.3689 3.25841 -0.222498 0
M  V30 631 H 56.0279 2.84324 -2.3142 0
M  V30 632 H 55.6759 4.93253 -0.985393 0
M  V30 633 H 55.3759 5.20878 -2.71955 0
M  V30 634 H 56.8999 5.77618 -1.97964 0
M  V30 635 H 58.3139 4.34328 -3.74208 0
M  V30 636 H 56.7109 4.01358 -4.4613 0
M  V30 637 H 57.7809 2.65987 -4.05436 0
M  V30 638 N 59.124 1.23083 0.984299 0
M  V30 639 C 60.37 1.06214 1.72761 0
M  V30 640 C 60.703 -0.400584 1.90024 0
M  V30 641 O 59.978 -1.29672 1.44967 0
M  V30 642 C 60.261 1.78375 3.12817 0
M  V30 643 C 60.114 3.32296 3.03149 0
M  V30 644 C 61.433 1.54309 4.12161 0
M  V30 645 H 58.552 0.387251 0.627061 0
M  V30 646 H 61.194 1.51536 1.14616 0
M  V30 647 H 59.344 1.39848 3.62457 0
M  V30 648 H 61.016 3.8032 2.61064 0
M  V30 649 H 59.259 3.6153 2.39747 0
M  V30 650 H 59.93 3.77972 4.02295 0
M  V30 651 H 62.406 1.87791 3.71314 0
M  V30 652 H 61.282 2.07281 5.08258 0
M  V30 653 H 61.543 0.477572 4.39513 0
M  V30 654 N 60.6021 -1.18246 1.0419 0
M  V30 655 C 61.8791 -1.84121 0.660208 0
M  V30 656 C 62.2591 -1.92778 -0.860221 0
M  V30 657 O 61.6071 -1.45464 -1.76217 0
M  V30 658 C 61.8171 -3.22355 1.33747 0
M  V30 659 C 63.1651 -3.98376 1.46906 0
M  V30 660 O 64.1891 -3.31799 1.29568 0
M  V30 661 O 63.0481 -5.17665 1.75171 0
M  V30 662 H 60.1421 -0.794036 0.231161 0
M  V30 663 H 62.6881 -1.25628 1.14087 0
M  V30 664 H 61.4601 -3.10964 2.37522 0
M  V30 665 H 61.0831 -3.88506 0.845515 0
M  V30 666 N 62.0802 -0.821533 -1.34494 0
M  V30 667 C 63.0302 -0.214793 -2.26986 0
M  V30 668 C 64.0142 0.620125 -1.4847 0
M  V30 669 O 65.2062 0.474933 -1.70509 0
M  V30 670 C 62.3352 0.623566 -3.37589 0
M  V30 671 C 61.4212 -0.221904 -4.23519 0
M  V30 672 N 61.8122 -1.29223 -4.89014 0
M  V30 673 C 60.1102 -0.00600922 -4.46 0
M  V30 674 C 60.8112 -1.80965 -5.52835 0
M  V30 675 N 59.7872 -1.11376 -5.32068 0
M  V30 676 H 63.5892 -1.03354 -2.75128 0
M  V30 677 H 61.1032 -0.6642 -1.48196 0
M  V30 678 H 63.1002 1.0744 -4.02818 0
M  V30 679 H 61.7602 1.44049 -2.90998 0
M  V30 680 H 62.7712 -1.67502 -4.90065 0
M  V30 681 H 59.4482 0.77886 -4.10171 0
M  V30 682 H 60.8382 -2.70502 -6.15043 0
M  V30 683 N 63.5583 1.46682 -0.576371 0
M  V30 684 C 64.8073 2.01619 -0.0572825 0
M  V30 685 C 65.1203 1.45417 1.30818 0
M  V30 686 O 66.3263 1.92133 1.91825 0
M  V30 687 C 64.7823 3.59863 -0.0518371 0
M  V30 688 C 64.3903 4.25059 -1.41523 0
M  V30 689 C 66.1343 4.2248 0.413639 0
M  V30 690 C 64.0413 5.75364 -1.36785 0
M  V30 691 H 62.9713 0.753794 -0.0176448 0
M  V30 692 H 65.6223 1.68481 -0.727076 0
M  V30 693 H 64.0043 3.90048 0.683994 0
M  V30 694 H 65.1783 4.06491 -2.17029 0
M  V30 695 H 63.4933 3.7451 -1.8202 0
M  V30 696 H 66.0903 5.3265 0.467779 0
M  V30 697 H 66.4333 3.90976 1.42982 0
M  V30 698 H 66.9663 3.96897 -0.267929 0
M  V30 699 H 63.7053 6.11518 -2.36063 0
M  V30 700 H 63.2253 5.96214 -0.654895 0
M  V30 701 H 64.9043 6.37955 -1.07805 0
M  V30 702 N 65.0364 0.313813 1.54444 0
M  V30 703 C 65.9664 -0.549454 2.26943 0
M  V30 704 C 66.9474 -1.12741 1.27372 0
M  V30 705 O 68.1324 -1.15436 1.56167 0
M  V30 706 C 65.2624 -1.71523 3.01989 0
M  V30 707 C 64.2164 -1.26703 4.08816 0
M  V30 708 C 63.5424 -2.51898 4.71647 0
M  V30 709 C 64.8424 -0.388962 5.2085 0
M  V30 710 H 66.5364 0.0552661 2.99349 0
M  V30 711 H 64.0824 0.0280207 1.43973 0
M  V30 712 H 66.0354 -2.32535 3.51433 0
M  V30 713 H 64.7594 -2.34639 2.27183 0
M  V30 714 H 63.4184 -0.679896 3.6024 0
M  V30 715 H 63.0664 -3.13356 3.93468 0
M  V30 716 H 62.7664 -2.22605 5.43802 0
M  V30 717 H 64.2904 -3.1369 5.23861 0
M  V30 718 H 65.7044 -0.905107 5.6611 0
M  V30 719 H 64.1014 -0.18924 5.99802 0
M  V30 720 H 65.1714 0.582699 4.81386 0
M  V30 721 N 66.5145 -1.57545 0.0417849 0
M  V30 722 C 67.4775 -2.09885 -0.92093 0
M  V30 723 C 68.4775 -1.01648 -1.24596 0
M  V30 724 O 69.6675 -1.27759 -1.1842 0
M  V30 725 C 66.7995 -2.57527 -2.23367 0
M  V30 726 H 67.9925 -2.96236 -0.467382 0
M  V30 727 H 65.5455 -1.5493 -0.206467 0
M  V30 728 H 66.2805 -1.74542 -2.73323 0
M  V30 729 H 66.0655 -3.36613 -2.01083 0
M  V30 730 H 67.5555 -2.98201 -2.92346 0
M  V30 731 N 67.9926 0.231505 -1.5589 0
M  V30 732 C 69.2406 0.955461 -1.78088 0
M  V30 733 C 69.5616 1.85262 -0.608533 0
M  V30 734 O 68.8316 1.92277 0.375035 0
M  V30 735 H 67.4116 0.355787 -0.656829 0
M  V30 736 H 70.0736 0.245751 -1.93344 0
M  V30 737 H 69.1696 1.56814 -2.69844 0
M  V30 738 N 69.4707 1.49531 0.497807 0
M  V30 739 C 70.4337 1.65916 1.58128 0
M  V30 740 C 71.4337 0.530825 1.51786 0
M  V30 741 O 72.6237 0.797342 1.54881 0
M  V30 742 C 69.7557 1.65951 2.9778 0
M  V30 743 H 70.9487 2.62556 1.44929 0
M  V30 744 H 68.5017 1.38611 0.722275 0
M  V30 745 H 69.2367 0.709065 3.16453 0
M  V30 746 H 69.0217 2.47897 3.03792 0
M  V30 747 H 70.5117 1.80673 3.76493 0
M  V30 748 N 70.9488 -0.749086 1.3866 0
M  V30 749 C 72.3648 -1.05276 1.19955 0
M  V30 750 C 72.5648 -2.01435 0.05134 0
M  V30 751 O 71.6208 -2.45232 -0.60147 0
M  V30 752 C 72.9338 -1.62853 2.52783 0
M  V30 753 C 74.4818 -1.75002 2.59506 0
M  V30 754 C 74.9568 -2.35991 3.92521 0
M  V30 755 N 76.4478 -2.43416 3.94085 0
M  V30 756 C 77.1828 -2.91511 4.9377 0
M  V30 757 N 76.6788 -3.39608 6.03853 0
M  V30 758 N 78.4718 -2.90592 4.81157 0
M  V30 759 H 70.6228 -0.111066 2.12109 0
M  V30 760 H 72.8858 -0.111901 0.941373 0
M  V30 761 H 72.5918 -0.99664 3.37283 0
M  V30 762 H 72.4658 -2.61854 2.715 0
M  V30 763 H 74.8528 -2.37317 1.75398 0
M  V30 764 H 74.9338 -0.74693 2.44652 0
M  V30 765 H 74.5778 -1.74308 4.77053 0
M  V30 766 H 74.5078 -3.3695 4.04688 0
M  V30 767 H 76.9988 -2.09405 3.14576 0
M  V30 768 H 77.3118 -3.74775 6.75843 0
M  V30 769 H 75.6568 -3.37653 6.07466 0
M  V30 770 H 78.8478 -2.52332 3.94267 0
M  V30 771 H 79.0208 -3.27762 5.58996 0
M  V30 772 N 72.4269 -1.23603 -0.977757 0
M  V30 773 C 73.6549 -1.09646 -1.75458 0
M  V30 774 C 74.0699 0.351859 -1.85492 0
M  V30 775 O 73.4269 1.24327 -1.336 0
M  V30 776 C 73.4779 -1.71895 -3.18016 0
M  V30 777 O 73.1989 -3.11063 -3.08498 0
M  V30 778 C 74.6999 -1.63415 -4.12081 0
M  V30 779 H 71.9199 -0.38359 -0.550545 0
M  V30 780 H 74.4639 -1.63507 -1.22824 0
M  V30 781 H 72.6189 -1.22061 -3.67668 0
M  V30 782 H 73.0329 -3.41305 -3.9826 0
M  V30 783 H 74.5069 -2.11669 -5.09804 0
M  V30 784 H 74.9839 -0.593462 -4.35172 0
M  V30 785 H 75.5899 -2.12628 -3.68334 0
M  V30 786 N 73.905 1.17692 -1.04816 0
M  V30 787 C 75.151 1.88137 -0.75711 0
M  V30 788 C 75.484 1.80604 0.713841 0
M  V30 789 O 74.759 1.21146 1.52164 0
M  V30 790 C 75.042 3.38318 -1.2334 0
M  V30 791 C 74.895 3.54622 -2.76701 0
M  V30 792 C 76.214 4.32214 -0.829415 0
M  V30 793 H 73.333 0.683163 -0.27651 0
M  V30 794 H 75.975 1.38424 -1.30149 0
M  V30 795 H 74.125 3.80787 -0.770286 0
M  V30 796 H 75.797 3.21194 -3.31107 0
M  V30 797 H 74.04 2.97026 -3.16161 0
M  V30 798 H 74.711 4.60028 -3.05088 0
M  V30 799 H 77.187 3.97565 -1.22805 0
M  V30 800 H 76.063 5.35838 -1.19033 0
M  V30 801 H 76.324 4.41294 0.266891 0
M  V30 802 N 75.3831 0.828654 1.34056 0
M  V30 803 C 76.3301 0.252567 2.29414 0
M  V30 804 C 77.3001 -0.62588 1.53857 0
M  V30 805 O 78.4851 -0.566312 1.82202 0
M  V30 806 C 75.6251 -0.574831 3.40279 0
M  V30 807 C 74.7381 0.326499 4.30764 0
M  V30 808 C 73.8731 -0.511016 5.28736 0
M  V30 809 C 72.9121 0.389342 6.1086 0
M  V30 810 N 72.0491 -0.409439 7.00905 0
M  V30 811 H 76.8891 1.07108 2.78086 0
M  V30 812 H 74.4261 0.539677 1.36843 0
M  V30 813 H 76.3841 -1.06992 4.03248 0
M  V30 814 H 75.0141 -1.35841 2.92826 0
M  V30 815 H 74.0661 0.939837 3.68607 0
M  V30 816 H 75.3781 1.01857 4.88289 0
M  V30 817 H 74.5321 -1.07035 5.97184 0
M  V30 818 H 73.2711 -1.23657 4.71763 0
M  V30 819 H 72.2761 0.960769 5.4134 0
M  V30 820 H 73.5011 1.1131 6.69916 0
M  V30 821 H 71.4471 -1.11856 6.46393 0
M  V30 822 H 71.3641 0.224126 7.55668 0
M  V30 823 H 72.6321 -0.951336 7.73673 0
M  V30 824 N 76.8612 -1.46375 0.584142 0
M  V30 825 C 77.8242 -2.28784 -0.138108 0
M  V30 826 C 78.8242 -1.38471 -0.817462 0
M  V30 827 O 80.0142 -1.60833 -0.669199 0
M  V30 828 C 77.1462 -3.18892 -1.20503 0
M  V30 829 H 78.3392 -2.94117 0.586127 0
M  V30 830 H 75.8922 -1.52509 0.342171 0
M  V30 831 H 76.6272 -2.58309 -1.96079 0
M  V30 832 H 76.4122 -3.85388 -0.722384 0
M  V30 833 H 77.9022 -3.80914 -1.71155 0
M  V30 834 N 78.3393 -0.321999 -1.54275 0
M  V30 835 C 79.2693 0.537411 -2.27231 0
M  V30 836 C 80.2503 1.12064 -1.27968 0
M  V30 837 O 81.4353 1.14606 -1.56777 0
M  V30 838 C 78.5653 1.69919 -3.02894 0
M  V30 839 C 77.5193 1.24534 -4.09482 0
M  V30 840 C 76.8453 2.49394 -4.72977 0
M  V30 841 C 78.1453 0.361335 -5.21049 0
M  V30 842 H 79.8393 -0.0711406 -2.99315 0
M  V30 843 H 77.3853 -0.0356555 -1.43956 0
M  V30 844 H 79.3383 2.30668 -3.52662 0
M  V30 845 H 78.0623 2.33431 -2.28424 0
M  V30 846 H 76.7213 0.660782 -3.60596 0
M  V30 847 H 76.3693 3.11265 -3.95124 0
M  V30 848 H 76.0693 2.19718 -5.44975 0
M  V30 849 H 77.5933 3.10908 -5.25517 0
M  V30 850 H 79.0073 0.875072 -5.66582 0
M  V30 851 H 77.4043 0.157428 -5.99893 0
M  V30 852 H 78.4743 -0.60822 -4.8107 0
M  V30 853 N 79.8174 1.5752 -0.0501392 0
M  V30 854 C 80.7804 2.1037 0.909786 0
M  V30 855 C 81.7804 1.02308 1.24056 0
M  V30 856 O 82.9704 1.28385 1.17741 0
M  V30 857 C 80.1024 2.58708 2.21998 0
M  V30 858 H 81.2954 2.96479 0.451665 0
M  V30 859 H 78.8484 1.55038 0.198248 0
M  V30 860 H 79.5834 1.75989 2.72394 0
M  V30 861 H 79.3684 3.37675 1.99295 0
M  V30 862 H 80.8584 2.99747 2.9076 0
M  V30 863 N 81.2955 -0.223234 1.56011 0
M  V30 864 C 82.2585 -1.26014 1.9145 0
M  V30 865 C 83.2585 -1.3989 0.792937 0
M  V30 866 O 84.4485 -1.38184 1.0607 0
M  V30 867 C 81.5805 -2.63422 2.16383 0
M  V30 868 H 82.7735 -0.95796 2.84189 0
M  V30 869 H 80.3265 -0.463576 1.49267 0
M  V30 870 H 81.0615 -2.98741 1.2619 0
M  V30 871 H 80.8465 -2.54728 2.98088 0
M  V30 872 H 82.3365 -3.38249 2.44903 0
M  V30 873 N 82.7736 -1.49793 -0.48987 0
M  V30 874 C 84.1896 -1.36803 -0.822022 0
M  V30 875 C 84.3896 -0.409652 -1.97292 0
M  V30 876 O 83.4456 0.154614 -2.52026 0
M  V30 877 C 84.7586 -2.77768 -1.15175 0
M  V30 878 C 86.3066 -2.86549 -1.25931 0
M  V30 879 C 86.7816 -4.28306 -1.62228 0
M  V30 880 N 88.2726 -4.31169 -1.69256 0
M  V30 881 C 89.0076 -5.37832 -1.98807 0
M  V30 882 N 88.5036 -6.54726 -2.26507 0
M  V30 883 N 90.2966 -5.25258 -2.00152 0
M  V30 884 H 82.4476 -2.10691 0.268881 0
M  V30 885 H 84.7106 -0.946241 0.057728 0
M  V30 886 H 84.4166 -3.49648 -0.379335 0
M  V30 887 H 84.2906 -3.13836 -2.09253 0
M  V30 888 H 86.6776 -2.14899 -2.02243 0
M  V30 889 H 86.7586 -2.54049 -0.298776 0
M  V30 890 H 86.4026 -5.00486 -0.864622 0
M  V30 891 H 86.3326 -4.58279 -2.594 0
M  V30 892 H 88.8236 -3.4687 -1.49965 0
M  V30 893 H 89.1366 -7.31833 -2.48276 0
M  V30 894 H 87.4816 -6.57933 -2.23939 0
M  V30 895 H 90.6726 -4.32938 -1.77996 0
M  V30 896 H 90.8456 -6.08476 -2.22848 0
M  V30 897 N 84.2517 0.741722 -1.39055 0
M  V30 898 C 85.4797 1.53098 -1.39171 0
M  V30 899 C 85.8947 1.88794 0.0155099 0
M  V30 900 O 85.2517 1.53626 0.985159 0
M  V30 901 C 85.3027 2.82274 -2.2584 0
M  V30 902 O 85.0237 2.48097 -3.61081 0
M  V30 903 C 86.5247 3.76343 -2.34266 0
M  V30 904 H 83.7447 0.473335 -0.4756 0
M  V30 905 H 86.2887 0.917045 -1.82785 0
M  V30 906 H 84.4437 3.40015 -1.85656 0
M  V30 907 H 84.8577 3.31029 -4.06842 0
M  V30 908 H 86.3317 4.63898 -2.9917 0
M  V30 909 H 86.8087 4.17619 -1.35982 0
M  V30 910 H 87.4147 3.24523 -2.74891 0
M  V30 911 N 85.7298 1.2412 0.971189 0
M  V30 912 C 87.0068 0.986867 1.6888 0
M  V30 913 C 87.3868 -0.491857 2.0529 0
M  V30 914 O 86.7348 -1.46531 1.75331 0
M  V30 915 C 86.9448 1.9063 2.92338 0
M  V30 916 C 88.2928 2.17515 3.64654 0
M  V30 917 O 89.3168 1.88254 3.02388 0
M  V30 918 O 88.1758 2.6719 4.7673 0
M  V30 919 H 85.2698 0.372944 0.738134 0
M  V30 920 H 87.8158 1.35203 1.02559 0
M  V30 921 H 86.5878 2.90552 2.62097 0
M  V30 922 H 86.2108 1.54408 3.66393 0
M  V30 923 N 87.2079 -1.17134 1.05439 0
M  V30 924 C 88.4359 -1.91372 0.786414 0
M  V30 925 C 88.8509 -1.76955 -0.658202 0
M  V30 926 O 88.2079 -1.10838 -1.44987 0
M  V30 927 C 88.2589 -3.42356 1.1608 0
M  V30 928 O 87.9799 -3.56332 2.54871 0
M  V30 929 C 89.4809 -4.33663 0.919322 0
M  V30 930 H 86.7009 -0.607118 0.285743 0
M  V30 931 H 89.2449 -1.48525 1.40572 0
M  V30 932 H 87.3999 -3.82939 0.586191 0
M  V30 933 H 87.8139 -4.49896 2.69618 0
M  V30 934 H 89.2879 -5.38099 1.231 0
M  V30 935 H 89.7649 -4.38959 -0.145359 0
M  V30 936 H 90.3709 -3.98796 1.47789 0
M  V30 937 N 88.686 -0.835752 -1.33615 0
M  V30 938 C 90.102 -0.523139 -1.50783 0
M  V30 939 C 90.302 0.950171 -1.77691 0
M  V30 940 O 89.358 1.73411 -1.83534 0
M  V30 941 C 90.671 -1.39378 -2.66448 0
M  V30 942 C 92.219 -1.39223 -2.80332 0
M  V30 943 C 92.694 -2.24765 -3.99055 0
M  V30 944 N 94.185 -2.22458 -4.06284 0
M  V30 945 C 94.92 -2.85386 -4.97336 0
M  V30 946 N 94.416 -3.57354 -5.93523 0
M  V30 947 N 96.209 -2.74872 -4.90308 0
M  V30 948 H 88.36 -1.78952 -1.14411 0
M  V30 949 H 90.623 -0.763297 -0.562212 0
M  V30 950 H 90.329 -2.44061 -2.53234 0
M  V30 951 H 90.203 -1.0676 -3.61776 0
M  V30 952 H 92.59 -0.353136 -2.92979 0
M  V30 953 H 92.671 -1.75846 -1.85773 0
M  V30 954 H 92.315 -3.28732 -3.87167 0
M  V30 955 H 92.245 -1.85485 -4.92852 0
M  V30 956 H 94.736 -1.70119 -3.37443 0
M  V30 957 H 95.049 -4.02584 -6.59656 0
M  V30 958 H 93.394 -3.61461 -5.93608 0
M  V30 959 H 96.585 -2.18213 -4.14126 0
M  V30 960 H 96.758 -3.24199 -5.61069 0
M  V30 961 N 90.1641 1.46063 -0.591896 0
M  V30 962 C 91.5751 1.85944 -0.167822 0
M  V30 963 C 91.9261 1.49429 1.27143 0
M  V30 964 O 91.0511 0.913515 1.96173 0
M  V30 965 C 91.6461 3.37489 -0.297794 0
M  V30 966 C 90.2051 3.76332 0.0714732 0
M  V30 967 C 89.3521 2.7006 -0.629509 0
M  V30 968 H 92.3031 1.37087 -0.799555 0
M  V30 969 H 92.3241 3.77532 0.474349 0
M  V30 970 H 91.8361 3.64034 -1.3454 0
M  V30 971 H 89.9371 3.55405 1.11886 0
M  V30 972 H 90.0501 4.78088 -0.311245 0
M  V30 973 H 88.4141 2.54607 -0.0687867 0
M  V30 974 H 89.1971 2.99444 -1.67894 0
M  V30 975 N 91.6422 0.330177 1.54103 0
M  V30 976 C 92.5522 -0.541534 2.28264 0
M  V30 977 C 93.5682 -1.12351 1.32866 0
M  V30 978 O 94.7442 -1.14206 1.65888 0
M  V30 979 C 91.8092 -1.68322 3.03098 0
M  V30 980 C 90.8702 -1.13238 4.14096 0
M  V30 981 C 90.1032 -2.21966 4.85352 0
M  V30 982 O 90.3262 -3.42437 4.56172 0
M  V30 983 O 89.2602 -1.87013 5.7211 0
M  V30 984 H 93.0862 0.060938 3.03639 0
M  V30 985 H 90.6712 0.09565 1.49093 0
M  V30 986 H 92.5532 -2.34777 3.49939 0
M  V30 987 H 91.2282 -2.27176 2.30593 0
M  V30 988 H 90.1352 -0.432736 3.71589 0
M  V30 989 H 91.4682 -0.588898 4.88664 0
M  V30 990 N 93.1203 -1.57491 0.0584922 0
M  V30 991 C 94.0833 -2.1085 -0.898617 0
M  V30 992 C 95.0833 -1.02964 -1.23511 0
M  V30 993 O 96.2733 -1.29007 -1.17059 0
M  V30 994 C 93.4053 -2.59881 -2.20623 0
M  V30 995 H 94.5983 -2.96715 -0.435936 0
M  V30 996 H 92.1513 -1.55141 -0.190023 0
M  V30 997 H 92.8863 -1.77431 -2.71457 0
M  V30 998 H 92.6713 -3.38727 -1.97501 0
M  V30 999 H 94.1613 -3.01285 -2.89166 0
M  V30 1000 N 94.5984 0.214957 -1.56127 0
M  V30 1001 C 95.5284 1.2695 -1.95974 0
M  V30 1002 C 96.5094 1.48539 -0.828868 0
M  V30 1003 O 97.6944 1.60611 -1.09168 0
M  V30 1004 C 94.8244 2.61794 -2.28214 0
M  V30 1005 C 93.7784 2.54851 -3.43853 0
M  V30 1006 C 93.1044 3.93785 -3.61715 0
M  V30 1007 C 94.4044 2.09065 -4.78632 0
M  V30 1008 H 96.0984 0.93846 -2.84312 0
M  V30 1009 H 93.6444 0.449996 -1.36788 0
M  V30 1010 H 95.5974 3.35731 -2.54682 0
M  V30 1011 H 94.3214 2.96599 -1.36736 0
M  V30 1012 H 92.9804 1.8337 -3.17444 0
M  V30 1013 H 92.6284 4.25908 -2.67602 0
M  V30 1014 H 92.3284 3.90019 -4.39498 0
M  V30 1015 H 93.8524 4.69374 -3.90539 0
M  V30 1016 H 95.2664 2.7275 -5.04262 0
M  V30 1017 H 93.6634 2.16346 -5.59745 0
M  V30 1018 H 94.7334 1.04315 -4.73547 0
M  V30 1019 N 96.0765 1.50051 0.48192 0
M  V30 1020 C 97.0065 1.71046 1.58951 0
M  V30 1021 C 97.9875 0.559288 1.60642 0
M  V30 1022 O 99.1725 0.797243 1.77081 0
M  V30 1023 C 96.3025 1.79462 2.97339 0
M  V30 1024 C 95.2565 2.94558 3.10515 0
M  V30 1025 C 94.5825 2.88105 4.50444 0
M  V30 1026 C 95.8825 4.35227 2.88747 0
M  V30 1027 H 97.5765 2.6378 1.41635 0
M  V30 1028 H 95.1225 1.26936 0.679942 0
M  V30 1029 H 97.0755 1.92734 3.74742 0
M  V30 1030 H 95.7995 0.833412 3.15788 0
M  V30 1031 H 94.4585 2.80918 2.35543 0
M  V30 1032 H 94.1065 1.89853 4.65795 0
M  V30 1033 H 93.8065 3.65366 4.60197 0
M  V30 1034 H 95.3305 3.03412 5.29881 0
M  V30 1035 H 96.7445 4.49449 3.55905 0
M  V30 1036 H 95.1415 5.13856 3.09955 0
M  V30 1037 H 96.2115 4.48347 1.84696 0
M  V30 1038 N 97.5546 -0.734337 1.39446 0
M  V30 1039 C 98.9706 -1.03997 1.21065 0
M  V30 1040 C 99.1706 -2.01369 0.0727019 0
M  V30 1041 O 98.2266 -2.45856 -0.575426 0
M  V30 1042 C 99.5396 -1.60163 2.54496 0
M  V30 1043 C 101.088 -1.7224 2.61347 0
M  V30 1044 C 101.563 -2.31814 3.95002 0
M  V30 1045 N 103.054 -2.39223 3.96644 0
M  V30 1046 C 103.789 -2.86258 4.96834 0
M  V30 1047 N 103.285 -3.33184 6.07421 0
M  V30 1048 N 105.078 -2.85473 4.84213 0
M  V30 1049 H 97.2286 -0.0885624 2.12215 0
M  V30 1050 H 99.4916 -0.10191 0.942506 0
M  V30 1051 H 99.1976 -0.960811 3.38321 0
M  V30 1052 H 99.0716 -2.5896 2.74262 0
M  V30 1053 H 101.459 -2.35443 1.77906 0
M  V30 1054 H 101.54 -0.720939 2.4543 0
M  V30 1055 H 101.184 -1.69238 4.78875 0
M  V30 1056 H 101.114 -3.32638 4.08239 0
M  V30 1057 H 103.605 -2.06057 3.16779 0
M  V30 1058 H 103.918 -3.67586 6.7978 0
M  V30 1059 H 102.263 -3.31191 6.11013 0
M  V30 1060 H 105.454 -2.48136 3.96921 0
M  V30 1061 H 105.627 -3.21814 5.62441 0
M  V30 1062 N 99.0327 -1.24633 -0.964593 0
M  V30 1063 C 99.9627 -1.06611 -2.07741 0
M  V30 1064 C 100.944 0.0218666 -1.70086 0
M  V30 1065 O 102.129 -0.145793 -1.93652 0
M  V30 1066 C 99.2587 -0.673444 -3.40708 0
M  V30 1067 C 98.2127 -1.71054 -3.92332 0
M  V30 1068 C 97.5387 -1.17285 -5.21678 0
M  V30 1069 C 98.8387 -3.10718 -4.19824 0
M  V30 1070 H 100.533 -1.99693 -2.23076 0
M  V30 1071 H 98.0787 -0.96152 -1.07195 0
M  V30 1072 H 100.032 -0.534345 -4.17998 0
M  V30 1073 H 98.7557 0.293073 -3.25282 0
M  V30 1074 H 97.4147 -1.83791 -3.17201 0
M  V30 1075 H 97.0627 -0.196847 -5.02615 0
M  V30 1076 H 96.7627 -1.86592 -5.57187 0
M  V30 1077 H 98.2867 -1.04593 -6.01575 0
M  V30 1078 H 99.7007 -3.01192 -4.87808 0
M  V30 1079 H 98.0977 -3.77406 -4.66567 0
M  V30 1080 H 99.1677 -3.58524 -3.26479 0
M  V30 1081 N 100.511 1.16574 -1.06058 0
M  V30 1082 C 101.76 1.86385 -0.770944 0
M  V30 1083 C 102.073 1.82448 0.705129 0
M  V30 1084 O 103.279 2.47815 1.10905 0
M  V30 1085 C 101.735 3.34466 -1.32893 0
M  V30 1086 C 101.343 3.46883 -2.83507 0
M  V30 1087 C 103.087 4.09548 -1.11672 0
M  V30 1088 C 100.994 4.89036 -3.32562 0
M  V30 1089 H 99.9238 0.698181 -0.284709 0
M  V30 1090 H 102.575 1.31583 -1.27899 0
M  V30 1091 H 100.957 3.88859 -0.748662 0
M  V30 1092 H 102.131 3.02663 -3.47465 0
M  V30 1093 H 100.446 2.85232 -3.03368 0
M  V30 1094 H 103.043 5.14434 -1.45814 0
M  V30 1095 H 103.386 4.16264 -0.0549535 0
M  V30 1096 H 103.919 3.61387 -1.66265 0
M  V30 1097 H 100.658 4.87499 -4.38207 0
M  V30 1098 H 100.178 5.3389 -2.73351 0
M  V30 1099 H 101.857 5.57843 -3.2775 0
M  V30 1100 N 101.989 0.842826 1.3317 0
M  V30 1101 C 103.405 0.531128 1.50503 0
M  V30 1102 C 103.605 -0.940734 1.78192 0
M  V30 1103 O 102.661 -1.72436 1.84451 0
M  V30 1104 C 103.974 1.40789 2.65705 0
M  V30 1105 C 105.522 1.40708 2.79589 0
M  V30 1106 C 105.997 2.26878 3.97857 0
M  V30 1107 N 107.488 2.24609 4.05099 0
M  V30 1108 C 108.223 2.88019 4.95815 0
M  V30 1109 N 107.719 3.60496 5.9162 0
M  V30 1110 N 109.512 2.77469 4.88843 0
M  V30 1111 H 101.663 1.79557 1.1346 0
M  V30 1112 H 103.926 0.766267 0.558156 0
M  V30 1113 H 103.632 2.454 2.51936 0
M  V30 1114 H 103.506 1.08677 3.61205 0
M  V30 1115 H 105.893 0.368668 2.92788 0
M  V30 1116 H 105.974 1.76829 1.84838 0
M  V30 1117 H 105.618 3.3078 3.85418 0
M  V30 1118 H 105.548 1.88096 4.91861 0
M  V30 1119 H 108.039 1.71906 3.36536 0
M  V30 1120 H 108.352 4.06076 6.57512 0
M  V30 1121 H 106.697 3.64604 5.91683 0
M  V30 1122 H 109.888 2.20406 4.12963 0
M  V30 1123 H 110.061 3.2717 5.59342 0
M  V30 1124 N 103.467 -1.45747 0.599634 0
M  V30 1125 C 104.417 -2.27538 -0.145107 0
M  V30 1126 C 105.401 -1.3686 -0.846055 0
M  V30 1127 O 106.593 -1.6091 -0.737357 0
M  V30 1128 C 103.722 -3.23569 -1.14708 0
M  V30 1129 C 102.808 -4.21734 -0.447383 0
M  V30 1130 N 103.199 -5.03257 0.506535 0
M  V30 1131 C 101.497 -4.40536 -0.695966 0
M  V30 1132 C 102.198 -5.74426 0.917068 0
M  V30 1133 N 101.174 -5.42966 0.26253 0
M  V30 1134 H 104.976 -2.87965 0.587672 0
M  V30 1135 H 102.49 -1.56803 0.422697 0
M  V30 1136 H 104.487 -3.8089 -1.69495 0
M  V30 1137 H 103.147 -2.64702 -1.8805 0
M  V30 1138 H 104.158 -5.10319 0.882899 0
M  V30 1139 H 100.835 -3.92802 -1.41467 0
M  V30 1140 H 102.225 -6.4995 1.70338 0
M  V30 1141 N 104.945 -0.338344 -1.53925 0
M  V30 1142 C 105.875 0.51328 -2.27789 0
M  V30 1143 C 106.856 1.107 -1.29149 0
M  V30 1144 O 108.041 1.12937 -1.57984 0
M  V30 1145 C 105.171 1.66697 -3.04679 0
M  V30 1146 C 104.125 1.20183 -4.1078 0
M  V30 1147 C 103.451 2.44363 -4.75595 0
M  V30 1148 C 104.751 0.30605 -5.21403 0
M  V30 1149 H 106.445 -0.102883 -2.99223 0
M  V30 1150 H 103.991 -0.0509219 -1.4391 0
M  V30 1151 H 105.944 2.26915 -3.55088 0
M  V30 1152 H 104.668 2.30995 -2.30887 0
M  V30 1153 H 103.327 0.622499 -3.61276 0
M  V30 1154 H 102.975 3.07057 -3.98403 0
M  V30 1155 H 102.675 2.13925 -5.47275 0
M  V30 1156 H 104.199 3.05317 -5.28786 0
M  V30 1157 H 105.613 0.814929 -5.67478 0
M  V30 1158 H 104.01 0.0937929 -6.00027 0
M  V30 1159 H 105.08 -0.65921 -4.80398 0
M  V30 1160 N 106.423 1.57458 -0.0668435 0
M  V30 1161 C 107.669 1.93587 0.6043 0
M  V30 1162 C 108.002 0.946722 1.69561 0
M  V30 1163 O 107.277 -0.0248516 1.94484 0
M  V30 1164 C 107.56 3.40014 1.18585 0
M  V30 1165 C 107.413 4.49685 0.101529 0
M  V30 1166 C 108.732 3.87154 2.09284 0
M  V30 1167 H 105.851 0.703958 0.218202 0
M  V30 1168 H 108.493 1.89542 -0.131804 0
M  V30 1169 H 106.643 3.43592 1.81319 0
M  V30 1170 H 108.315 4.5823 -0.531279 0
M  V30 1171 H 106.558 4.30059 -0.568487 0
M  V30 1172 H 107.229 5.49266 0.54874 0
M  V30 1173 H 109.705 3.85551 1.56491 0
M  V30 1174 H 108.581 4.90231 2.46911 0
M  V30 1175 H 108.842 3.2481 2.99918 0
M  V30 1176 N 107.901 -0.206675 1.56239 0
M  V30 1177 C 108.864 -1.23976 1.92776 0
M  V30 1178 C 109.864 -1.39041 0.807729 0
M  V30 1179 O 111.054 -1.37051 1.0753 0
M  V30 1180 C 108.186 -2.61112 2.19165 0
M  V30 1181 H 109.379 -0.927764 2.85189 0
M  V30 1182 H 106.932 -0.447718 1.4975 0
M  V30 1183 H 107.667 -2.97386 1.29352 0
M  V30 1184 H 107.452 -2.51552 3.00772 0
M  V30 1185 H 108.942 -3.35633 2.48476 0
M  V30 1186 N 109.379 -1.50304 -0.473955 0
M  V30 1187 C 110.628 -1.60392 -1.22301 0
M  V30 1188 C 110.941 -0.308411 -1.93153 0
M  V30 1189 O 112.147 -0.288156 -2.69966 0
M  V30 1190 C 110.603 -2.83109 -2.2221 0
M  V30 1191 C 110.211 -4.19524 -1.57173 0
M  V30 1192 C 111.955 -3.0254 -2.97775 0
M  V30 1193 C 109.862 -5.33431 -2.55353 0
M  V30 1194 H 108.792 -0.597286 -0.460179 0
M  V30 1195 H 111.443 -1.76731 -0.493803 0
M  V30 1196 H 109.825 -2.60322 -2.9841 0
M  V30 1197 H 110.999 -4.52554 -0.867824 0
M  V30 1198 H 109.314 -4.05674 -0.939002 0
M  V30 1199 H 111.911 -3.84811 -3.71248 0
M  V30 1200 H 112.254 -2.14154 -3.56992 0
M  V30 1201 H 112.787 -3.25494 -2.28688 0
M  V30 1202 H 109.526 -6.23962 -2.00878 0
M  V30 1203 H 109.046 -5.04823 -3.23904 0
M  V30 1204 H 110.725 -5.63887 -3.17239 0
M  V30 1205 N 110.857 0.726932 -1.39834 0
M  V30 1206 C 112.105 1.4837 -1.37225 0
M  V30 1207 C 112.426 1.94979 0.0284857 0
M  V30 1208 O 111.696 1.69555 0.981213 0
M  V30 1209 H 110.276 0.55043 -0.505011 0
M  V30 1210 H 112.938 0.862468 -1.74778 0
M  V30 1211 H 112.034 2.36198 -2.04003 0
M  V30 1212 N 112.336 1.25143 0.95797 0
M  V30 1213 C 113.266 1.07711 2.07173 0
M  V30 1214 C 114.247 -0.0128462 1.70095 0
M  V30 1215 O 115.432 0.156061 1.93572 0
M  V30 1216 C 112.562 0.691503 3.40346 0
M  V30 1217 C 111.516 1.73132 3.9142 0
M  V30 1218 C 110.842 1.20049 5.21049 0
M  V30 1219 C 112.142 3.1294 4.1817 0
M  V30 1220 H 113.836 2.00873 2.22014 0
M  V30 1221 H 111.382 0.967191 1.06684 0
M  V30 1222 H 113.335 0.556505 4.17709 0
M  V30 1223 H 112.059 -0.275819 3.25433 0
M  V30 1224 H 110.718 1.8547 3.16222 0
M  V30 1225 H 110.366 0.223499 5.02503 0
M  V30 1226 H 110.066 1.89545 5.56189 0
M  V30 1227 H 111.59 1.07782 6.01012 0
M  V30 1228 H 113.004 3.03775 4.86203 0
M  V30 1229 H 111.401 3.79875 4.64559 0
M  V30 1230 H 112.471 3.6025 3.24573 0
M  V30 1231 N 113.814 -1.1601 1.06675 0
M  V30 1232 C 114.744 -2.22688 0.702307 0
M  V30 1233 C 115.725 -1.67306 -0.307032 0
M  V30 1234 O 116.91 -1.93352 -0.181305 0
M  V30 1235 C 114.04 -3.47178 0.092038 0
M  V30 1236 C 112.994 -4.15477 1.02777 0
M  V30 1237 C 112.32 -5.33963 0.28061 0
M  V30 1238 C 113.62 -4.66019 2.35846 0
M  V30 1239 H 115.314 -2.53429 1.59419 0
M  V30 1240 H 112.86 -1.21813 0.767961 0
M  V30 1241 H 114.813 -4.21037 -0.174814 0
M  V30 1242 H 113.537 -3.15749 -0.834877 0
M  V30 1243 H 112.196 -3.43549 1.27944 0
M  V30 1244 H 111.844 -4.98788 -0.649545 0
M  V30 1245 H 111.544 -5.806 0.904258 0
M  V30 1246 H 113.068 -6.10596 0.021396 0
M  V30 1247 H 114.482 -5.3144 2.15045 0
M  V30 1248 H 112.879 -5.23293 2.93743 0
M  V30 1249 H 113.949 -3.82023 2.98641 0
M  V30 1250 N 115.292 -0.849877 -1.32721 0
M  V30 1251 C 116.202 -0.293791 -2.32753 0
M  V30 1252 C 117.218 0.585906 -1.63839 0
M  V30 1253 O 118.394 0.487413 -1.95413 0
M  V30 1254 C 115.459 0.512752 -3.42887 0
M  V30 1255 C 114.52 -0.39252 -4.27502 0
M  V30 1256 C 113.753 0.375625 -5.32377 0
M  V30 1257 O 113.976 1.60613 -5.4732 0
M  V30 1258 O 112.91 -0.256094 -6.01355 0
M  V30 1259 H 116.736 -1.12242 -2.82197 0
M  V30 1260 H 114.321 -0.612685 -1.36259 0
M  V30 1261 H 116.203 0.970704 -4.10067 0
M  V30 1262 H 114.878 1.31826 -2.95641 0
M  V30 1263 H 113.785 -0.898547 -3.63149 0
M  V30 1264 H 115.118 -1.16309 -4.7826 0
M  V30 1265 N 116.77 1.45427 -0.607355 0
M  V30 1266 C 117.68 2.34325 0.113463 0
M  V30 1267 C 118.696 1.51226 0.860617 0
M  V30 1268 O 119.872 1.84029 0.818255 0
M  V30 1269 C 116.937 3.28839 1.09844 0
M  V30 1270 C 115.998 4.27844 0.353271 0
M  V30 1271 C 115.231 5.17842 1.29133 0
M  V30 1272 O 115.454 5.11264 2.52913 0
M  V30 1273 O 114.388 5.96713 0.788523 0
M  V30 1274 H 118.214 2.97364 -0.617094 0
M  V30 1275 H 115.799 1.44807 -0.367619 0
M  V30 1276 H 117.681 3.8708 1.66575 0
M  V30 1277 H 116.356 2.68365 1.81003 0
M  V30 1278 H 115.263 3.7322 -0.256494 0
M  V30 1279 H 116.596 4.91173 -0.317822 0
M  V30 1280 N 118.248 0.346503 1.53744 0
M  V30 1281 C 119.525 -0.304532 1.93215 0
M  V30 1282 C 119.905 -1.67993 1.27834 0
M  V30 1283 O 119.253 -2.24411 0.430352 0
M  V30 1284 C 119.463 -0.373852 3.46992 0
M  V30 1285 C 120.811 -0.62329 4.2 0
M  V30 1286 O 121.835 -0.455847 3.53271 0
M  V30 1287 O 120.694 -0.947879 5.38217 0
M  V30 1288 H 117.788 -0.178318 0.807547 0
M  V30 1289 H 120.334 0.397895 1.64969 0
M  V30 1290 H 119.106 0.591224 3.86808 0
M  V30 1291 H 118.729 -1.12294 3.81413 0
M  V30 1292 N 119.726 -1.57421 0.075193 0
M  V30 1293 C 120.689 -2.11791 -0.876203 0
M  V30 1294 C 121.689 -1.04268 -1.22412 0
M  V30 1295 O 122.879 -1.30242 -1.15684 0
M  V30 1296 C 120.011 -2.62207 -2.17854 0
M  V30 1297 H 121.204 -2.9716 -0.40444 0
M  V30 1298 H 118.757 -1.55333 -0.173557 0
M  V30 1299 H 119.492 -1.803 -2.6956 0
M  V30 1300 H 119.277 -3.40802 -1.93897 0
M  V30 1301 H 120.767 -3.04335 -2.85955 0
M  V30 1302 N 121.204 0.198386 -1.56346 0
M  V30 1303 C 122.615 0.763358 -1.70381 0
M  V30 1304 C 122.966 1.83995 -0.681203 0
M  V30 1305 O 122.091 2.15785 0.16305 0
M  V30 1306 C 122.686 1.39143 -3.08909 0
M  V30 1307 C 121.245 1.90352 -3.2472 0
M  V30 1308 C 120.392 0.772233 -2.6633 0
M  V30 1309 H 123.343 -0.0266377 -1.58678 0
M  V30 1310 H 123.364 2.26076 -3.06055 0
M  V30 1311 H 122.876 0.607638 -3.83314 0
M  V30 1312 H 120.977 2.71461 -2.55225 0
M  V30 1313 H 121.09 2.06757 -4.3219 0
M  V30 1314 H 119.454 1.18566 -2.2542 0
M  V30 1315 H 120.237 0.00073556 -3.433 0
M  V30 1316 N 122.682 1.50554 0.465978 0
M  V30 1317 C 123.93 1.61479 1.21528 0
M  V30 1318 C 124.251 0.319596 1.92363 0
M  V30 1319 O 123.521 -0.663194 1.84333 0
M  V30 1320 H 122.101 0.595055 0.451573 0
M  V30 1321 H 124.763 1.87355 0.53704 0
M  V30 1322 H 123.859 2.42846 1.96042 0
M  V30 1323 N 124.16 -0.719506 1.40217 0
M  V30 1324 C 125.07 -1.86378 1.42479 0
M  V30 1325 C 126.086 -1.71073 0.317834 0
M  V30 1326 O 127.262 -1.93406 0.561794 0
M  V30 1327 C 124.327 -3.22136 1.28178 0
M  V30 1328 C 123.388 -3.49723 2.48982 0
M  V30 1329 C 122.621 -4.79004 2.35353 0
M  V30 1330 O 122.844 -5.53821 1.36524 0
M  V30 1331 O 121.778 -5.06839 3.2465 0
M  V30 1332 H 125.604 -1.87425 2.38968 0
M  V30 1333 H 123.189 -0.869405 1.21498 0
M  V30 1334 H 125.071 -4.03234 1.22395 0
M  V30 1335 H 123.746 -3.21825 0.347934 0
M  V30 1336 H 122.653 -2.6865 2.60342 0
M  V30 1337 H 123.986 -3.54828 3.41113 0
M  V30 1338 N 125.638 -1.25649 -0.95132 0
M  V30 1339 C 126.885 -1.10594 -1.69633 0
M  V30 1340 C 127.213 0.352515 -1.91279 0
M  V30 1341 O 126.468 1.27601 -1.4838 0
M  V30 1342 C 126.767 -1.80909 -3.08231 0
M  V30 1343 C 126.433 -3.30825 -3.06375 0
M  V30 1344 C 125.095 -3.71722 -3.05576 0
M  V30 1345 C 127.447 -4.26589 -2.99452 0
M  V30 1346 C 124.775 -5.06788 -2.95606 0
M  V30 1347 C 127.127 -5.61683 -2.91024 0
M  V30 1348 C 125.791 -6.01904 -2.88562 0
M  V30 1349 H 125.061 -0.404691 -0.620731 0
M  V30 1350 H 127.708 -1.55964 -1.11119 0
M  V30 1351 H 126.013 -1.27979 -3.70309 0
M  V30 1352 H 127.71 -1.6671 -3.64704 0
M  V30 1353 H 124.3 -2.98287 -3.07771 0
M  V30 1354 H 128.484 -3.95982 -2.99185 0
M  V30 1355 H 123.74 -5.37126 -2.92071 0
M  V30 1356 H 127.914 -6.35578 -2.84629 0
M  V30 1357 H 125.541 -7.06521 -2.80593 0
M  V30 1358 N 127.117 1.15442 -1.07289 0
M  V30 1359 C 128.363 1.86489 -0.796846 0
M  V30 1360 C 128.696 1.82078 0.675371 0
M  V30 1361 O 127.971 1.24346 1.4956 0
M  V30 1362 C 128.254 3.35626 -1.30489 0
M  V30 1363 C 128.107 3.48673 -2.84161 0
M  V30 1364 C 129.426 4.30357 -0.920907 0
M  V30 1365 H 126.545 0.677144 -0.290939 0
M  V30 1366 H 129.187 1.35633 -1.33056 0
M  V30 1367 H 127.337 3.79068 -0.850883 0
M  V30 1368 H 129.009 3.14099 -3.37846 0
M  V30 1369 H 127.252 2.90253 -3.22391 0
M  V30 1370 H 127.923 4.53453 -3.14777 0
M  V30 1371 H 130.399 3.94871 -1.3121 0
M  V30 1372 H 129.275 5.33193 -1.30372 0
M  V30 1373 H 129.536 4.4176 0.173226 0
M  V30 1374 N 128.595 0.856903 1.32268 0
M  V30 1375 C 130.006 0.515711 1.79436 0
M  V30 1376 C 130.357 -0.966586 1.70738 0
M  V30 1377 O 129.482 -1.75409 1.26731 0
M  V30 1378 C 130.077 0.929335 3.25805 0
M  V30 1379 C 128.636 0.640006 3.70919 0
M  V30 1380 C 127.783 1.12784 2.53328 0
M  V30 1381 H 130.734 1.04389 1.19535 0
M  V30 1382 H 130.755 0.246633 3.797 0
M  V30 1383 H 130.267 2.00821 3.32103 0
M  V30 1384 H 128.368 -0.428051 3.70133 0
M  V30 1385 H 128.481 1.20788 4.63624 0
M  V30 1386 H 126.845 0.548033 2.48734 0
M  V30 1387 H 127.628 2.21387 2.62379 0
M  V30 1388 N 130.073 -1.45103 0.615059 0
M  V30 1389 C 131.301 -2.06553 0.11977 0
M  V30 1390 C 131.716 -1.45842 -1.19898 0
M  V30 1391 O 131.073 -0.575325 -1.73194 0
M  V30 1392 C 131.124 -3.61495 -0.018364 0
M  V30 1393 O 130.845 -4.19942 1.24822 0
M  V30 1394 C 132.346 -4.39947 -0.544237 0
M  V30 1395 H 129.566 -0.667096 0.0722739 0
M  V30 1396 H 132.11 -1.8623 0.84491 0
M  V30 1397 H 130.265 -3.81135 -0.693865 0
M  V30 1398 H 130.679 -5.13204 1.0827 0
M  V30 1399 H 132.153 -5.48838 -0.589953 0
M  V30 1400 H 132.63 -4.10255 -1.56805 0
M  V30 1401 H 133.236 -4.25188 0.0974703 0
M  V30 1402 N 131.551 -0.354651 -1.53558 0
M  V30 1403 C 132.461 0.50515 -2.29097 0
M  V30 1404 C 133.477 1.10223 -1.34636 0
M  V30 1405 O 134.653 1.11553 -1.67684 0
M  V30 1406 C 131.718 1.63479 -3.05738 0
M  V30 1407 C 130.779 1.06636 -4.15845 0
M  V30 1408 C 130.012 2.14217 -4.88822 0
M  V30 1409 O 130.235 3.35137 -4.61562 0
M  V30 1410 O 129.169 1.77887 -5.75013 0
M  V30 1411 H 132.995 -0.109237 -3.03503 0
M  V30 1412 H 130.58 -0.119357 -1.48922 0
M  V30 1413 H 132.462 2.2918 -3.5363 0
M  V30 1414 H 131.137 2.23478 -2.34178 0
M  V30 1415 H 130.044 0.373565 -3.7223 0
M  V30 1416 H 131.377 0.511081 -4.89539 0
M  V30 1417 N 133.029 1.57378 -0.0835403 0
M  V30 1418 C 134.275 1.94217 0.583733 0
M  V30 1419 C 134.608 0.964653 1.68547 0
M  V30 1420 O 133.883 -0.00422258 1.945 0
M  V30 1421 C 134.166 3.41253 1.14972 0
M  V30 1422 C 134.019 4.49768 0.0538277 0
M  V30 1423 C 135.338 3.89352 2.05166 0
M  V30 1424 H 132.457 0.706233 0.210724 0
M  V30 1425 H 135.099 1.89392 -0.1519 0
M  V30 1426 H 133.249 3.45496 1.77665 0
M  V30 1427 H 134.921 4.57641 -0.579851 0
M  V30 1428 H 133.164 4.29432 -0.614068 0
M  V30 1429 H 133.835 5.49817 0.490452 0
M  V30 1430 H 136.311 3.87189 1.52393 0
M  V30 1431 H 135.187 4.92822 2.41698 0
M  V30 1432 H 135.448 3.27973 2.96456 0
M  V30 1433 N 134.507 -0.190092 1.56449 0
M  V30 1434 C 135.755 -0.907908 1.80559 0
M  V30 1435 C 136.076 -1.83583 0.657438 0
M  V30 1436 O 135.346 -1.93203 -0.323924 0
M  V30 1437 H 133.926 -0.338247 0.666032 0
M  V30 1438 H 136.588 -0.194403 1.93928 0
M  V30 1439 H 135.684 -1.49604 2.73907 0
M  V30 1440 N 135.985 -1.50799 -0.457987 0
M  V30 1441 C 136.895 -1.73426 -1.57989 0
M  V30 1442 C 137.911 -0.617745 -1.62665 0
M  V30 1443 O 139.087 -0.897614 -1.80291 0
M  V30 1444 C 136.152 -1.83557 -2.94122 0
M  V30 1445 C 135.213 -3.07345 -2.99729 0
M  V30 1446 C 134.446 -3.16983 -4.29368 0
M  V30 1447 O 134.669 -2.33077 -5.20607 0
M  V30 1448 O 133.603 -4.09812 -4.40837 0
M  V30 1449 H 137.429 -2.68555 -1.41817 0
M  V30 1450 H 135.014 -1.35052 -0.638859 0
M  V30 1451 H 136.896 -1.92326 -3.74952 0
M  V30 1452 H 135.571 -0.916137 -3.10465 0
M  V30 1453 H 134.478 -3.04068 -2.1793 0
M  V30 1454 H 135.811 -3.9891 -2.88326 0
M  V30 1455 N 137.463 0.71206 -1.40597 0
M  V30 1456 C 138.393 1.83889 -1.43899 0
M  V30 1457 C 139.374 1.67442 -0.299504 0
M  V30 1458 O 140.559 1.87421 -0.508624 0
M  V30 1459 C 137.689 3.21877 -1.30431 0
M  V30 1460 C 136.643 3.53002 -2.42019 0
M  V30 1461 C 135.969 4.90172 -2.13626 0
M  V30 1462 C 137.269 3.53643 -3.84362 0
M  V30 1463 H 138.963 1.81383 -2.38203 0
M  V30 1464 H 136.509 0.871237 -1.14654 0
M  V30 1465 H 138.462 4.00404 -1.31357 0
M  V30 1466 H 137.186 3.24968 -0.326049 0
M  V30 1467 H 135.845 2.76818 -2.40349 0
M  V30 1468 H 135.493 4.89869 -1.14182 0
M  V30 1469 H 135.193 5.11962 -2.88389 0
M  V30 1470 H 136.717 5.71028 -2.1624 0
M  V30 1471 H 138.131 4.22203 -3.87837 0
M  V30 1472 H 136.528 3.86961 -4.58673 0
M  V30 1473 H 137.598 2.52954 -4.13693 0
M  V30 1474 N 138.941 1.26152 0.944643 0
M  V30 1475 C 139.871 1.09902 2.06019 0
M  V30 1476 C 140.852 0.00519538 1.70099 0
M  V30 1477 O 142.037 0.176583 1.93396 0
M  V30 1478 C 139.167 0.727562 3.39594 0
M  V30 1479 C 138.121 1.77274 3.89561 0
M  V30 1480 C 137.447 1.25569 5.19747 0
M  V30 1481 C 138.747 3.17357 4.14827 0
M  V30 1482 H 140.441 2.03217 2.19871 0
M  V30 1483 H 137.987 0.978452 1.05652 0
M  V30 1484 H 139.94 0.600777 4.17095 0
M  V30 1485 H 138.664 -0.241287 3.25707 0
M  V30 1486 H 137.323 1.88814 3.14237 0
M  V30 1487 H 136.971 0.276783 5.02238 0
M  V30 1488 H 136.671 1.95433 5.54148 0
M  V30 1489 H 138.195 1.1415 5.99835 0
M  V30 1490 H 139.609 3.08914 4.82954 0
M  V30 1491 H 138.006 3.84781 4.60504 0
M  V30 1492 H 139.076 3.63673 3.20734 0
M  V30 1493 N 140.419 -1.14872 1.07899 0
M  V30 1494 C 141.382 -2.17986 0.708161 0
M  V30 1495 C 142.382 -1.58775 -0.25442 0
M  V30 1496 O 143.572 -1.74166 -0.034645 0
M  V30 1497 C 140.704 -3.40871 0.0446929 0
M  V30 1498 H 141.897 -2.52306 1.62116 0
M  V30 1499 H 139.45 -1.2943 0.876218 0
M  V30 1500 H 140.185 -3.12124 -0.880281 0
M  V30 1501 H 139.97 -3.8511 0.737091 0
M  V30 1502 H 141.46 -4.17121 -0.19991 0
M  V30 1503 N 141.898 -0.863906 -1.31812 0
M  V30 1504 C 143.175 -0.39275 -1.91616 0
M  V30 1505 C 143.555 1.12461 -1.7865 0
M  V30 1506 O 142.903 1.95045 -1.19037 0
M  V30 1507 C 143.113 -0.867385 -3.38049 0
M  V30 1508 C 144.461 -0.889966 -4.15168 0
M  V30 1509 O 145.485 -0.812635 -3.46806 0
M  V30 1510 O 144.344 -1.00079 -5.37258 0
M  V30 1511 H 141.438 -0.116358 -0.818773 0
M  V30 1512 H 143.984 -0.951418 -1.40521 0
M  V30 1513 H 142.756 -1.91081 -3.41473 0
M  V30 1514 H 142.379 -0.286687 -3.96565 0
M  V30 1515 N 143.376 1.44774 -0.622745 0
M  V30 1516 C 144.653 1.95522 -0.0551974 0
M  V30 1517 C 145.033 1.5649 1.41683 0
M  V30 1518 O 144.381 0.834848 2.12703 0
M  V30 1519 C 144.591 3.4796 -0.269242 0
M  V30 1520 C 145.939 4.24306 -0.158014 0
M  V30 1521 O 146.963 3.55637 -0.200162 0
M  V30 1522 O 145.822 5.46471 -0.0558693 0
M  V30 1523 H 142.916 0.826556 0.0271015 0
M  V30 1524 H 145.462 1.54866 -0.693864 0
M  V30 1525 H 144.234 3.6939 -1.29099 0
M  V30 1526 H 143.857 3.95543 0.403966 0
M  V30 1527 N 144.854 0.36279 1.53368 0
M  V30 1528 C 145.804 -0.501391 2.22419 0
M  V30 1529 C 146.788 -1.0509 1.2184 0
M  V30 1530 O 147.98 -0.981404 1.47301 0
M  V30 1531 C 145.109 -1.64201 3.01484 0
M  V30 1532 C 144.195 -1.10552 4.09438 0
M  V30 1533 N 144.586 -0.291788 5.04958 0
M  V30 1534 C 142.884 -1.3806 4.24094 0
M  V30 1535 C 143.585 0.00162655 5.817 0
M  V30 1536 N 142.561 -0.595244 5.40331 0
M  V30 1537 H 146.363 0.127159 2.93625 0
M  V30 1538 H 143.877 0.170658 1.61501 0
M  V30 1539 H 145.874 -2.27326 3.49469 0
M  V30 1540 H 144.534 -2.27365 2.31809 0
M  V30 1541 H 145.545 0.0687731 5.17854 0
M  V30 1542 H 142.222 -2.01522 3.65644 0
M  V30 1543 H 143.612 0.659278 6.68658 0
M  V30 1544 N 146.332 -1.57332 0.0918853 0
M  V30 1545 C 147.743 -1.81496 -0.437739 0
M  V30 1546 C 148.094 -1.00727 -1.6837 0
M  V30 1547 O 147.219 -0.235694 -2.15113 0
M  V30 1548 C 147.814 -3.29197 -0.800939 0
M  V30 1549 C 146.373 -3.54136 -1.27532 0
M  V30 1550 C 145.52 -2.75979 -0.270392 0
M  V30 1551 H 148.471 -1.55494 0.317366 0
M  V30 1552 H 148.492 -3.42344 -1.66074 0
M  V30 1553 H 148.004 -3.87955 0.106078 0
M  V30 1554 H 146.105 -3.00705 -2.20016 0
M  V30 1555 H 146.218 -4.62792 -1.23938 0
M  V30 1556 H 144.582 -2.43349 -0.751872 0
M  V30 1557 H 145.365 -3.37484 0.629248 0
M  V30 1558 N 147.81 0.181792 -1.56548 0
M  V30 1559 C 148.773 1.20894 -1.94724 0
M  V30 1560 C 149.773 1.37738 -0.829747 0
M  V30 1561 O 150.963 1.35323 -1.09697 0
M  V30 1562 C 148.095 2.57593 -2.23291 0
M  V30 1563 H 149.288 0.882275 -2.86629 0
M  V30 1564 H 146.841 0.423838 -1.50444 0
M  V30 1565 H 147.576 2.95291 -1.34067 0
M  V30 1566 H 147.361 2.46735 -3.04736 0
M  V30 1567 H 148.851 3.31637 -2.53785 0
M  V30 1568 N 149.288 1.51039 0.449983 0
M  V30 1569 C 150.251 1.70863 1.5277 0
M  V30 1570 C 151.251 0.578846 1.5002 0
M  V30 1571 O 152.441 0.846213 1.52266 0
M  V30 1572 C 149.573 1.75341 2.9235 0
M  V30 1573 H 150.766 2.67034 1.36502 0
M  V30 1574 H 148.319 1.40838 0.677812 0
M  V30 1575 H 149.054 0.809383 3.14037 0
M  V30 1576 H 148.839 2.57436 2.95752 0
M  V30 1577 H 150.329 1.92559 3.70555 0
M  V30 1578 N 150.766 -0.704594 1.40972 0
M  V30 1579 C 151.698 -1.82974 1.38033 0
M  V30 1580 C 152.711 -1.60305 0.283931 0
M  V30 1581 O 153.9 -1.69975 0.545042 0
M  V30 1582 C 151 -3.19578 1.12795 0
M  V30 1583 C 150.173 -3.69352 2.34302 0
M  V30 1584 C 149.232 -4.84601 2.05058 0
M  V30 1585 O 148.258 -4.96682 2.7802 0
M  V30 1586 N 149.46 -5.71194 1.03528 0
M  V30 1587 H 152.225 -1.85991 2.35005 0
M  V30 1588 H 149.786 -0.886567 1.35468 0
M  V30 1589 H 151.778 -3.9429 0.911987 0
M  V30 1590 H 150.348 -3.11642 0.24452 0
M  V30 1591 H 149.568 -2.85649 2.71659 0
M  V30 1592 H 150.856 -3.99345 3.1528 0
M  V30 1593 H 150.254 -5.64054 0.431217 0
M  V30 1594 H 148.811 -6.45843 0.879205 0
M  V30 1595 N 152.244 -1.26651 -0.937939 0
M  V30 1596 C 153.66 -1.03834 -1.21205 0
M  V30 1597 C 153.86 0.234502 -2.00131 0
M  V30 1598 O 152.916 0.942767 -2.3424 0
M  V30 1599 C 154.229 -2.27167 -1.97017 0
M  V30 1600 C 155.777 -2.32101 -2.09996 0
M  V30 1601 C 156.252 -3.55136 -2.8921 0
M  V30 1602 N 157.743 -3.55632 -2.96783 0
M  V30 1603 C 158.478 -4.475 -3.58512 0
M  V30 1604 N 157.974 -5.4966 -4.21717 0
M  V30 1605 N 159.767 -4.35145 -3.55816 0
M  V30 1606 H 151.918 -2.08398 -0.410391 0
M  V30 1607 H 154.181 -0.916031 -0.244114 0
M  V30 1608 H 153.887 -3.19765 -1.46434 0
M  V30 1609 H 153.761 -2.31672 -2.97671 0
M  V30 1610 H 156.148 -1.40015 -2.59769 0
M  V30 1611 H 156.229 -2.31605 -1.08594 0
M  V30 1612 H 155.873 -4.47553 -2.40123 0
M  V30 1613 H 155.803 -3.5288 -3.90875 0
M  V30 1614 H 158.294 -2.81743 -2.51852 0
M  V30 1615 H 158.607 -6.15943 -4.66727 0
M  V30 1616 H 156.952 -5.53514 -4.20294 0
M  V30 1617 H 160.143 -3.5455 -3.05634 0
M  V30 1618 H 160.316 -5.06934 -4.03636 0
M  V30 1619 N 153.722 1.14298 -1.08507 0
M  V30 1620 C 154.685 2.17607 -0.719711 0
M  V30 1621 C 155.685 1.58907 0.245997 0
M  V30 1622 O 156.875 1.74181 0.0254081 0
M  V30 1623 C 154.007 3.40842 -0.0627695 0
M  V30 1624 H 155.2 2.51443 -1.63452 0
M  V30 1625 H 152.753 1.28963 -0.88307 0
M  V30 1626 H 153.488 3.12587 0.863716 0
M  V30 1627 H 153.273 3.84713 -0.757504 0
M  V30 1628 H 154.763 4.17221 0.177786 0
M  V30 1629 N 155.201 0.870884 1.31352 0
M  V30 1630 C 156.447 0.492314 1.97352 0
M  V30 1631 C 156.802 -0.945174 1.67583 0
M  V30 1632 O 156.095 -1.65674 0.962423 0
M  V30 1633 C 156.289 0.687157 3.50732 0
M  V30 1634 C 156.118 2.14203 3.95407 0
M  V30 1635 C 154.888 2.78382 4.21701 0
M  V30 1636 C 157.086 3.1144 4.09279 0
M  V30 1637 N 155.068 4.14611 4.52737 0
M  V30 1638 C 156.439 4.32702 4.44037 0
M  V30 1639 C 158.494 3.07418 3.91661 0
M  V30 1640 C 157.197 5.50463 4.63015 0
M  V30 1641 C 159.223 4.24438 4.11833 0
M  V30 1642 C 158.585 5.44463 4.46923 0
M  V30 1643 H 154.684 0.229206 0.747655 0
M  V30 1644 H 157.268 1.12568 1.5886 0
M  V30 1645 H 155.439 0.083384 3.8831 0
M  V30 1646 H 157.171 0.276883 4.03752 0
M  V30 1647 H 153.926 2.29326 4.14375 0
M  V30 1648 H 154.35 4.84928 4.72413 0
M  V30 1649 H 158.992 2.15732 3.6362 0
M  V30 1650 H 156.71 6.42666 4.89904 0
M  V30 1651 H 160.296 4.2278 3.99685 0
M  V30 1652 H 159.176 6.33504 4.62214 0
M  V30 1653 N 156.679 -1.44442 0.630414 0
M  V30 1654 C 157.629 -2.27794 -0.0968103 0
M  V30 1655 C 158.613 -1.38624 -0.816834 0
M  V30 1656 O 159.805 -1.62438 -0.70306 0
M  V30 1657 C 156.934 -3.25929 -1.07819 0
M  V30 1658 C 156.02 -4.22588 -0.357826 0
M  V30 1659 N 156.411 -5.0207 0.613169 0
M  V30 1660 C 154.709 -4.41914 -0.602365 0
M  V30 1661 C 155.41 -5.72351 1.03871 0
M  V30 1662 N 154.386 -5.42287 0.377642 0
M  V30 1663 H 158.188 -2.86653 0.648621 0
M  V30 1664 H 155.702 -1.55871 0.455862 0
M  V30 1665 H 157.699 -3.84399 -1.61378 0
M  V30 1666 H 156.359 -2.68631 -1.82393 0
M  V30 1667 H 157.37 -5.08331 0.990947 0
M  V30 1668 H 154.047 -3.95714 -1.33103 0
M  V30 1669 H 155.437 -6.4619 1.84086 0
M  V30 1670 N 158.157 -0.370918 -1.53173 0
M  V30 1671 C 159.434 0.273754 -1.93675 0
M  V30 1672 C 159.814 1.65938 -1.3049 0
M  V30 1673 O 159.162 2.23698 -0.465999 0
M  V30 1674 C 159.372 0.318602 -3.47543 0
M  V30 1675 C 160.72 0.556392 -4.20939 0
M  V30 1676 O 161.744 0.399587 -3.53952 0
M  V30 1677 O 160.603 0.862133 -5.39657 0
M  V30 1678 H 157.697 0.165448 -0.810281 0
M  V30 1679 H 160.243 -0.42409 -1.64315 0
M  V30 1680 H 159.015 -0.652687 -3.85818 0
M  V30 1681 H 158.638 1.06212 -3.83151 0
M  V30 1682 N 159.635 1.57281 -0.100228 0
M  V30 1683 C 160.565 2.17328 0.853857 0
M  V30 1684 C 161.546 1.10804 1.2906 0
M  V30 1685 O 162.731 1.38963 1.35657 0
M  V30 1686 C 159.861 2.75772 2.11109 0
M  V30 1687 C 158.815 3.87713 1.81279 0
M  V30 1688 C 158.141 4.32882 3.13874 0
M  V30 1689 C 159.441 5.10677 1.09574 0
M  V30 1690 H 161.135 2.97305 0.353545 0
M  V30 1691 H 158.681 1.43009 0.168612 0
M  V30 1692 H 160.634 3.16433 2.78296 0
M  V30 1693 H 159.358 1.93057 2.63432 0
M  V30 1694 H 158.017 3.476 1.16489 0
M  V30 1695 H 157.665 3.47051 3.64095 0
M  V30 1696 H 157.365 5.08358 2.94696 0
M  V30 1697 H 158.889 4.7618 3.82211 0
M  V30 1698 H 160.303 5.48474 1.66879 0
M  V30 1699 H 158.7 5.91615 1.00557 0
M  V30 1700 H 159.77 4.84835 0.0793299 0
M  V30 1701 N 161.113 -0.173488 1.56642 0
M  V30 1702 C 162.341 -0.906095 1.86004 0
M  V30 1703 C 162.756 -1.75921 0.685355 0
M  V30 1704 O 162.113 -1.79198 -0.345578 0
M  V30 1705 C 162.164 -1.78462 3.14378 0
M  V30 1706 O 161.885 -0.965914 4.27319 0
M  V30 1707 C 163.386 -2.62707 3.57071 0
M  V30 1708 H 160.606 -0.263341 0.617165 0
M  V30 1709 H 163.15 -0.174236 2.03756 0
M  V30 1710 H 161.305 -2.46984 2.98459 0
M  V30 1711 H 161.719 -1.56655 5.00559 0
M  V30 1712 H 163.193 -3.19969 4.49804 0
M  V30 1713 H 163.67 -3.37472 2.81086 0
M  V30 1714 H 164.276 -1.99521 3.75595 0
M  V30 1715 N 162.591 -1.51276 -0.441967 0
M  V30 1716 C 163.523 -1.68444 -1.55433 0
M  V30 1717 C 164.536 -0.565187 -1.52674 0
M  V30 1718 O 165.725 -0.839356 -1.57534 0
M  V30 1719 C 162.825 -1.67966 -2.94348 0
M  V30 1720 C 161.998 -2.964 -3.21661 0
M  V30 1721 C 161.057 -2.88171 -4.40277 0
M  V30 1722 O 160.083 -3.62119 -4.39157 0
M  V30 1723 N 161.285 -2.03706 -5.43584 0
M  V30 1724 H 164.05 -2.644 -1.41112 0
M  V30 1725 H 161.611 -1.49104 -0.630838 0
M  V30 1726 H 163.603 -1.60035 -3.71713 0
M  V30 1727 H 162.173 -0.796225 -3.0229 0
M  V30 1728 H 161.393 -3.18234 -2.32638 0
M  V30 1729 H 162.681 -3.81427 -3.36736 0
M  V30 1730 H 162.079 -1.42995 -5.47329 0
M  V30 1731 H 160.636 -2.01658 -6.1982 0
M  V30 1732 N 164.069 0.697108 -1.41344 0
M  V30 1733 C 165.032 1.79281 -1.42797 0
M  V30 1734 C 166.032 1.57607 -0.318837 0
M  V30 1735 O 167.222 1.64309 -0.578642 0
M  V30 1736 C 164.354 3.17632 -1.23785 0
M  V30 1737 H 165.547 1.79385 -2.40335 0
M  V30 1738 H 163.1 0.904582 -1.27464 0
M  V30 1739 H 163.835 3.23167 -0.270814 0
M  V30 1740 H 163.62 3.34765 -2.04144 0
M  V30 1741 H 165.11 3.97617 -1.27633 0
M  V30 1742 N 165.547 1.27147 0.931209 0
M  V30 1743 C 166.793 1.13446 1.68101 0
M  V30 1744 C 167.126 -0.319628 1.91552 0
M  V30 1745 O 166.401 -1.23407 1.50336 0
M  V30 1746 C 166.684 1.91482 3.0497 0
M  V30 1747 C 166.537 3.44855 2.88782 0
M  V30 1748 C 167.856 1.71651 4.05246 0
M  V30 1749 H 164.975 0.413498 0.610072 0
M  V30 1750 H 167.617 1.56261 1.08086 0
M  V30 1751 H 165.767 1.55095 3.56199 0
M  V30 1752 H 167.439 3.9105 2.44698 0
M  V30 1753 H 165.682 3.71373 2.24198 0
M  V30 1754 H 166.353 3.94694 3.85902 0
M  V30 1755 H 168.829 2.0337 3.63015 0
M  V30 1756 H 167.705 2.28651 4.99009 0
M  V30 1757 H 167.966 0.663555 4.37092 0
M  V30 1758 N 167.025 -1.13721 1.09112 0
M  V30 1759 C 167.988 -2.17222 0.731241 0
M  V30 1760 C 168.988 -1.59035 -0.237566 0
M  V30 1761 O 170.178 -1.74192 -0.0161704 0
M  V30 1762 C 167.31 -3.40804 0.0808443 0
M  V30 1763 H 168.503 -2.50573 1.64783 0
M  V30 1764 H 166.056 -1.28493 0.889897 0
M  V30 1765 H 166.791 -3.1304 -0.847127 0
M  V30 1766 H 166.576 -3.84306 0.777896 0
M  V30 1767 H 168.066 -4.1731 -0.155657 0
M  V30 1768 N 168.503 -0.877838 -1.30888 0
M  V30 1769 C 169.919 -0.570844 -1.49042 0
M  V30 1770 C 170.119 0.893159 -1.80624 0
M  V30 1771 O 169.175 1.67485 -1.88958 0
M  V30 1772 C 170.488 -1.47784 -2.61878 0
M  V30 1773 C 172.036 -1.48071 -2.75761 0
M  V30 1774 C 172.511 -2.37347 -3.91702 0
M  V30 1775 N 174.002 -2.35271 -3.99001 0
M  V30 1776 C 174.737 -3.01063 -4.88004 0
M  V30 1777 N 174.233 -3.76055 -5.81854 0
M  V30 1778 N 176.026 -2.90332 -4.81315 0
M  V30 1779 H 168.177 -1.82502 -1.0866 0
M  V30 1780 H 170.44 -0.780797 -0.537644 0
M  V30 1781 H 170.146 -2.51993 -2.45341 0
M  V30 1782 H 170.02 -1.18215 -3.58197 0
M  V30 1783 H 172.407 -0.446166 -2.91708 0
M  V30 1784 H 172.488 -1.81668 -1.80085 0
M  V30 1785 H 172.132 -3.40883 -3.76512 0
M  V30 1786 H 172.062 -2.01071 -4.86701 0
M  V30 1787 H 174.553 -1.80768 -3.3186 0
M  V30 1788 H 174.866 -4.23366 -6.46514 0
M  V30 1789 H 173.211 -3.80163 -5.81808 0
M  V30 1790 H 176.402 -2.31278 -4.06974 0
M  V30 1791 H 176.575 -3.41885 -5.50471 0
M  V30 1792 N 169.982 1.44106 -0.638065 0
M  V30 1793 C 170.945 2.29138 0.0531013 0
M  V30 1794 C 171.945 1.41409 0.765506 0
M  V30 1795 O 173.135 1.63206 0.609046 0
M  V30 1796 C 170.267 3.23144 1.08584 0
M  V30 1797 H 171.46 2.91739 -0.694883 0
M  V30 1798 H 169.013 1.51134 -0.398538 0
M  V30 1799 H 169.748 2.65408 1.86357 0
M  V30 1800 H 169.533 3.87804 0.578852 0
M  V30 1801 H 171.023 3.87004 1.56899 0
M  V30 1802 N 171.46 0.379036 1.52974 0
M  V30 1803 C 172.737 -0.263479 1.93817 0
M  V30 1804 C 173.117 -1.65244 1.31368 0
M  V30 1805 O 172.465 -2.23448 0.477856 0
M  V30 1806 C 172.675 -0.300166 3.47707 0
M  V30 1807 C 174.023 -0.534061 4.21228 0
M  V30 1808 O 175.047 -0.38081 3.54159 0
M  V30 1809 O 173.906 -0.833501 5.40106 0
M  V30 1810 H 171 -0.161149 0.811147 0
M  V30 1811 H 173.546 0.432798 1.64088 0
M  V30 1812 H 172.318 0.673138 3.85467 0
M  V30 1813 H 171.941 -1.04179 3.83709 0
M  V30 1814 N 172.938 -1.57226 0.108567 0
M  V30 1815 C 174.187 -1.94008 -0.551703 0
M  V30 1816 C 174.5 -0.993442 -1.68494 0
M  V30 1817 O 175.706 -1.25551 -2.40726 0
M  V30 1818 C 174.162 -3.44763 -1.03279 0
M  V30 1819 C 173.77 -4.47943 0.0714193 0
M  V30 1820 C 175.514 -3.90483 -1.66503 0
M  V30 1821 C 173.421 -5.89865 -0.425779 0
M  V30 1822 H 172.351 -0.724206 -0.209863 0
M  V30 1823 H 175.002 -1.82547 0.186741 0
M  V30 1824 H 173.384 -3.51422 -1.82533 0
M  V30 1825 H 174.558 -4.52942 0.847365 0
M  V30 1826 H 172.873 -4.11913 0.609669 0
M  V30 1827 H 175.47 -4.93925 -2.04798 0
M  V30 1828 H 175.813 -3.29877 -2.53942 0
M  V30 1829 H 176.346 -3.86581 -0.938074 0
M  V30 1830 H 173.085 -6.54202 0.412316 0
M  V30 1831 H 172.605 -5.88309 -1.16843 0
M  V30 1832 H 174.284 -6.40844 -0.890397 0
M  V30 1833 N 174.416 0.165178 -1.56732 0
M  V30 1834 C 175.641 0.900253 -1.86843 0
M  V30 1835 C 176.066 1.74766 -0.695596 0
M  V30 1836 O 175.424 1.77786 0.35522 0
M  V30 1837 C 175.472 1.74777 -3.15413 0
M  V30 1838 O 174.576 2.85007 -2.98068 0
M  V30 1839 H 173.917 0.251832 -0.614391 0
M  V30 1840 H 176.447 0.161468 -2.03962 0
M  V30 1841 H 176.457 2.14646 -3.46974 0
M  V30 1842 H 175.132 1.12537 -4.00385 0
M  V30 1843 H 173.709 2.48676 -2.77875 0
M  V30 1844 N 175.894 1.51508 0.433938 0
M  V30 1845 C 177.141 1.64345 1.18309 0
M  V30 1846 C 177.469 0.361315 1.91115 0
M  V30 1847 O 176.724 -0.654753 1.84422 0
M  V30 1848 C 177.023 2.79928 2.22205 0
M  V30 1849 C 176.689 4.19078 1.66387 0
M  V30 1850 C 175.351 4.56932 1.50887 0
M  V30 1851 C 177.703 5.05894 1.25381 0
M  V30 1852 C 175.031 5.79305 0.928608 0
M  V30 1853 C 177.383 6.2885 0.687823 0
M  V30 1854 C 176.047 6.65473 0.519755 0
M  V30 1855 H 175.317 0.601381 0.432923 0
M  V30 1856 H 177.964 1.85549 0.473676 0
M  V30 1857 H 176.269 2.52959 2.99197 0
M  V30 1858 H 177.966 2.87059 2.79997 0
M  V30 1859 H 174.556 3.89234 1.79428 0
M  V30 1860 H 178.74 4.77253 1.36175 0
M  V30 1861 H 173.996 6.06324 0.786186 0
M  V30 1862 H 178.17 6.95461 0.361581 0
M  V30 1863 H 175.797 7.6017 0.0679979 0
M  V30 1864 N 177.372 -0.689602 1.41712 0
M  V30 1865 C 178.6 -1.47827 1.44758 0
M  V30 1866 C 179.015 -1.88721 0.0545703 0
M  V30 1867 O 178.372 -1.57176 -0.927463 0
M  V30 1868 C 178.423 -2.73698 2.3616 0
M  V30 1869 O 178.144 -2.34524 3.7004 0
M  V30 1870 C 179.645 -3.67389 2.48072 0
M  V30 1871 H 176.865 -0.455357 0.49284 0
M  V30 1872 H 179.409 -0.848574 1.86063 0
M  V30 1873 H 177.564 -3.32891 1.98148 0
M  V30 1874 H 177.978 -3.15701 4.18847 0
M  V30 1875 H 179.452 -4.52475 3.16181 0
M  V30 1876 H 179.929 -4.12284 1.51388 0
M  V30 1877 H 180.535 -3.14097 2.86746 0
M  V30 1878 N 178.85 -1.27639 -0.924453 0
M  V30 1879 C 180.266 -1.05113 -1.20097 0
M  V30 1880 C 180.466 0.213262 -2.00368 0
M  V30 1881 O 179.522 0.91787 -2.35226 0
M  V30 1882 C 180.835 -2.29244 -1.94596 0
M  V30 1883 C 182.383 -2.34315 -2.07522 0
M  V30 1884 C 182.858 -3.58183 -2.85427 0
M  V30 1885 N 184.349 -3.5876 -2.92994 0
M  V30 1886 C 185.084 -4.51277 -3.53746 0
M  V30 1887 N 184.58 -5.54102 -4.15863 0
M  V30 1888 N 186.373 -4.38894 -3.51181 0
M  V30 1889 H 178.524 -2.08821 -0.388264 0
M  V30 1890 H 180.787 -0.918568 -0.234385 0
M  V30 1891 H 180.493 -3.21301 -1.43034 0
M  V30 1892 H 180.367 -2.34816 -2.95197 0
M  V30 1893 H 182.754 -1.42762 -2.58269 0
M  V30 1894 H 182.835 -2.32744 -1.06131 0
M  V30 1895 H 182.479 -4.50074 -2.35363 0
M  V30 1896 H 182.409 -3.57006 -3.8711 0
M  V30 1897 H 184.9 -2.84398 -2.4885 0
M  V30 1898 H 185.213 -6.20859 -4.60168 0
M  V30 1899 H 183.558 -5.57941 -4.144 0
M  V30 1900 H 186.749 -3.57772 -3.01856 0
M  V30 1901 H 186.922 -5.11186 -3.98237 0
M  V30 1902 N 180.328 1.1314 -1.09713 0
M  V30 1903 C 181.258 2.20748 -0.761102 0
M  V30 1904 C 182.239 1.68061 0.262566 0
M  V30 1905 O 183.424 1.93765 0.129977 0
M  V30 1906 C 180.554 3.46812 -0.184054 0
M  V30 1907 C 179.508 4.12606 -1.13757 0
M  V30 1908 C 178.834 5.33031 -0.422083 0
M  V30 1909 C 180.134 4.59603 -2.48118 0
M  V30 1910 H 181.828 2.49113 -1.66082 0
M  V30 1911 H 179.374 1.19734 -0.799987 0
M  V30 1912 H 181.327 4.21353 0.0631215 0
M  V30 1913 H 180.051 3.17851 0.750868 0
M  V30 1914 H 178.71 3.40036 -1.37007 0
M  V30 1915 H 178.358 5.00335 0.517072 0
M  V30 1916 H 178.058 5.77999 -1.05788 0
M  V30 1917 H 179.582 6.10325 -0.183277 0
M  V30 1918 H 180.996 5.25552 -2.29059 0
M  V30 1919 H 179.393 5.15321 -3.07514 0
M  V30 1920 H 180.463 3.73971 -3.08665 0
M  V30 1921 N 181.806 0.884767 1.30421 0
M  V30 1922 C 183.217 0.553656 1.78302 0
M  V30 1923 C 183.568 -0.930153 1.7275 0
M  V30 1924 O 182.693 -1.72681 1.30423 0
M  V30 1925 C 183.288 0.998234 3.2376 0
M  V30 1926 C 181.847 0.71854 3.69478 0
M  V30 1927 C 180.994 1.18132 2.50879 0
M  V30 1928 H 183.945 1.06901 1.17294 0
M  V30 1929 H 183.966 0.327118 3.79091 0
M  V30 1930 H 183.478 2.0782 3.27769 0
M  V30 1931 H 181.579 -0.349444 3.70958 0
M  V30 1932 H 181.692 1.30595 4.60958 0
M  V30 1933 H 180.056 0.600669 2.47516 0
M  V30 1934 H 180.839 2.26902 2.57624 0
M  V30 1935 N 183.284 -1.43765 0.645699 0
M  V30 1936 C 184.561 -1.9541 0.0862963 0
M  V30 1937 C 184.941 -1.58725 -1.39175 0
M  V30 1938 O 184.289 -0.868581 -2.11348 0
M  V30 1939 C 184.499 -3.47488 0.324565 0
M  V30 1940 C 185.847 -4.24001 0.225497 0
M  V30 1941 O 186.871 -3.55274 0.256715 0
M  V30 1942 O 185.73 -5.46313 0.142801 0
M  V30 1943 H 182.824 -0.826882 -0.0139483 0
M  V30 1944 H 185.37 -1.53743 0.718415 0
M  V30 1945 H 184.142 -3.67289 1.3496 0
M  V30 1946 H 183.765 -3.96135 -0.340987 0
M  V30 1947 N 184.763 -0.387143 -1.52771 0
M  V30 1948 C 185.726 0.436939 -2.24997 0
M  V30 1949 C 186.726 0.991991 -1.26555 0
M  V30 1950 O 187.916 0.874335 -1.50669 0
M  V30 1951 C 185.048 1.61281 -3.00335 0
M  V30 1952 H 186.241 -0.195365 -2.99263 0
M  V30 1953 H 183.794 -0.139218 -1.55679 0
M  V30 1954 H 184.529 2.2826 -2.30364 0
M  V30 1955 H 184.314 1.22154 -3.72587 0
M  V30 1956 H 185.804 2.19629 -3.5518 0
M  V30 1957 N 186.241 1.57166 -0.116904 0
M  V30 1958 C 187.49 1.94298 0.541407 0
M  V30 1959 C 187.803 1.00236 1.67964 0
M  V30 1960 O 189.009 1.26826 2.40057 0
M  V30 1961 C 187.465 3.45306 1.01449 0
M  V30 1962 C 187.073 4.47899 -0.0951738 0
M  V30 1963 C 188.817 3.91361 1.6443 0
M  V30 1964 C 186.724 5.90083 0.394491 0
M  V30 1965 H 185.654 0.725308 0.206019 0
M  V30 1966 H 188.305 1.82446 -0.196419 0
M  V30 1967 H 186.687 3.52385 1.80667 0
M  V30 1968 H 187.861 4.52486 -0.871374 0
M  V30 1969 H 186.176 4.11583 -0.631505 0
M  V30 1970 H 188.773 4.95004 2.02176 0
M  V30 1971 H 189.116 3.3122 2.52189 0
M  V30 1972 H 189.649 3.87073 0.917559 0
M  V30 1973 H 186.388 6.53974 -0.447004 0
M  V30 1974 H 185.908 5.88921 1.13722 0
M  V30 1975 H 187.587 6.41307 0.856399 0
M  V30 1976 N 187.719 -0.156864 1.56817 0
M  V30 1977 C 189.135 -0.50916 1.5126 0
M  V30 1978 C 189.335 -1.83897 0.823658 0
M  V30 1979 O 188.391 -2.49469 0.390055 0
M  V30 1980 C 189.704 -0.52857 2.96018 0
M  V30 1981 C 191.252 -0.614771 3.06903 0
M  V30 1982 C 191.727 -0.664938 4.53147 0
M  V30 1983 N 193.218 -0.727433 4.57452 0
M  V30 1984 C 193.953 -0.787067 5.67973 0
M  V30 1985 N 193.449 -0.806649 6.88088 0
M  V30 1986 N 195.242 -0.827195 5.5598 0
M  V30 1987 H 187.393 0.714935 2.00006 0
M  V30 1988 H 189.656 0.259526 0.911784 0
M  V30 1989 H 189.362 0.380154 3.49639 0
M  V30 1990 H 189.236 -1.36998 3.51442 0
M  V30 1991 H 191.623 -1.51392 2.53307 0
M  V30 1992 H 191.704 0.253597 2.5454 0
M  V30 1993 H 191.348 0.230011 5.07379 0
M  V30 1994 H 191.278 -1.54966 5.03282 0
M  V30 1995 H 193.769 -0.719998 3.70978 0
M  V30 1996 H 194.082 -0.853727 7.6807 0
M  V30 1997 H 192.427 -0.774687 6.90669 0
M  V30 1998 H 195.618 -0.808998 4.61056 0
M  V30 1999 H 195.791 -0.870206 6.4213 0
M  V30 2000 N 189.197 -1.51736 -0.425897 0
M  V30 2001 C 190.425 -1.68794 -1.1965 0
M  V30 2002 C 190.84 -0.390164 -1.84725 0
M  V30 2003 O 190.197 0.632376 -1.71194 0
M  V30 2004 C 190.248 -2.81174 -2.27208 0
M  V30 2005 O 189.969 -4.05925 -1.64793 0
M  V30 2006 C 191.47 -3.09599 -3.17275 0
M  V30 2007 H 188.69 -0.566128 -0.360194 0
M  V30 2008 H 191.234 -1.98211 -0.503249 0
M  V30 2009 H 189.389 -2.54324 -2.9223 0
M  V30 2010 H 189.803 -4.68423 -2.35967 0
M  V30 2011 H 191.277 -3.91786 -3.88854 0
M  V30 2012 H 191.754 -2.22468 -3.78688 0
M  V30 2013 H 192.36 -3.38151 -2.57941 0
M  V30 2014 N 190.675 0.682077 -1.42076 0
M  V30 2015 C 191.923 1.4393 -1.41876 0
M  V30 2016 C 192.244 1.94971 -0.0335599 0
M  V30 2017 O 191.514 1.72591 0.926773 0
M  V30 2018 H 190.094 0.534085 -0.522267 0
M  V30 2019 H 192.756 0.806427 -1.77434 0
M  V30 2020 H 191.852 2.29588 -2.11414 0
M  V30 2021 N 192.153 1.28127 0.917671 0
M  V30 2022 C 193.569 1.05749 1.19538 0
M  V30 2023 C 193.769 -0.202633 2.00479 0
M  V30 2024 O 192.825 -0.905382 2.3571 0
M  V30 2025 C 194.138 2.30273 1.93378 0
M  V30 2026 C 195.686 2.35412 2.06277 0
M  V30 2027 C 196.161 3.59692 2.83524 0
M  V30 2028 N 197.652 3.60309 2.91087 0
M  V30 2029 C 198.387 4.53147 3.51348 0
M  V30 2030 N 197.883 5.563 4.12919 0
M  V30 2031 N 199.676 4.40751 3.48849 0
M  V30 2032 H 191.827 2.09024 0.377184 0
M  V30 2033 H 194.09 0.919798 0.22951 0
M  V30 2034 H 193.796 3.22055 1.41328 0
M  V30 2035 H 193.67 2.36378 2.93947 0
M  V30 2036 H 196.057 1.4413 2.57508 0
M  V30 2037 H 196.138 2.33304 1.04895 0
M  V30 2038 H 195.782 4.51316 2.32973 0
M  V30 2039 H 195.712 3.59054 3.85211 0
M  V30 2040 H 198.203 2.85714 2.47338 0
M  V30 2041 H 198.516 6.2329 4.56869 0
M  V30 2042 H 196.861 5.60131 4.11435 0
M  V30 2043 H 200.052 3.59367 2.99955 0
M  V30 2044 H 200.225 5.13291 3.9552 0
M  V30 2045 N 193.631 -1.12557 1.10312 0
M  V30 2046 C 195.042 -1.65574 0.862678 0
M  V30 2047 C 195.393 -1.86566 -0.607256 0
M  V30 2048 O 194.518 -1.59121 -1.46662 0
M  V30 2049 C 195.113 -3.00776 1.55947 0
M  V30 2050 C 193.672 -3.50748 1.36576 0
M  V30 2051 C 192.819 -2.25797 1.60968 0
M  V30 2052 H 195.77 -0.963552 1.26101 0
M  V30 2053 H 195.791 -3.67185 0.997753 0
M  V30 2054 H 195.303 -2.85465 2.62928 0
M  V30 2055 H 193.404 -3.71245 0.317531 0
M  V30 2056 H 193.517 -4.30289 2.10686 0
M  V30 2057 H 191.881 -2.32841 1.03234 0
M  V30 2058 H 192.664 -2.13043 2.69198 0
M  V30 2059 N 195.109 -0.891671 -1.2995 0
M  V30 2060 C 196.337 -0.52866 -2.00032 0
M  V30 2061 C 196.752 0.884574 -1.66795 0
M  V30 2062 O 196.109 1.5827 -0.908669 0
M  V30 2063 C 196.16 -0.701814 -3.54622 0
M  V30 2064 O 195.881 -2.05942 -3.86678 0
M  V30 2065 C 197.382 -0.342683 -4.41973 0
M  V30 2066 H 194.602 -0.203659 -0.639347 0
M  V30 2067 H 197.146 -1.19881 -1.65677 0
M  V30 2068 H 195.301 -0.0789468 -3.8732 0
M  V30 2069 H 195.715 -2.08291 -4.81368 0
M  V30 2070 H 197.189 -0.514709 -5.49595 0
M  V30 2071 H 197.666 0.71975 -4.33262 0
M  V30 2072 H 198.272 -0.942154 -4.14733 0
M  V30 2073 N 196.587 1.43421 -0.653314 0
M  V30 2074 C 197.817 2.05864 -0.174238 0
M  V30 2075 C 198.225 1.49052 1.16534 0
M  V30 2076 O 197.568 0.616481 1.73047 0
M  V30 2077 C 197.63 3.59499 -0.00875873 0
M  V30 2078 C 197.294 4.38893 -1.27364 0
M  V30 2079 C 198.291 4.70947 -2.20239 0
M  V30 2080 C 195.976 4.789 -1.51525 0
M  V30 2081 C 197.97 5.41916 -3.35568 0
M  V30 2082 C 195.657 5.49614 -2.67147 0
M  V30 2083 C 196.655 5.81044 -3.58994 0
M  V30 2084 O 196.343 6.50313 -4.72597 0
M  V30 2085 H 196.075 0.670345 -0.0872549 0
M  V30 2086 H 198.629 1.84913 -0.894226 0
M  V30 2087 H 196.859 3.79025 0.7666 0
M  V30 2088 H 198.548 4.0364 0.427687 0
M  V30 2089 H 199.314 4.40558 -2.02815 0
M  V30 2090 H 195.193 4.53843 -0.809158 0
M  V30 2091 H 198.737 5.66365 -4.07279 0
M  V30 2092 H 194.634 5.79419 -2.84505 0
M  V30 2093 H 195.402 6.68795 -4.71864 0
M  V30 2094 N 198.065 0.39524 1.52563 0
M  V30 2095 C 198.975 -0.444232 2.30356 0
M  V30 2096 C 199.991 -1.06615 1.37511 0
M  V30 2097 O 201.167 -1.07067 1.70583 0
M  V30 2098 C 198.232 -1.55315 3.09964 0
M  V30 2099 C 197.293 -0.955734 4.18526 0
M  V30 2100 C 196.526 -2.01181 4.9433 0
M  V30 2101 O 196.749 -3.22781 4.70285 0
M  V30 2102 O 195.683 -1.62579 5.79527 0
M  V30 2103 H 199.509 0.189667 3.03107 0
M  V30 2104 H 197.094 0.1588 1.48554 0
M  V30 2105 H 198.976 -2.19724 3.59582 0
M  V30 2106 H 197.651 -2.17191 2.4002 0
M  V30 2107 H 196.558 -0.274743 3.7309 0
M  V30 2108 H 197.891 -0.381109 4.90722 0
M  V30 2109 N 199.544 -1.57102 0.125237 0
M  V30 2110 C 200.769 -2.0019 -0.542101 0
M  V30 2111 C 201.194 -1.00449 -1.59034 0
M  V30 2112 O 200.552 0.0229423 -1.81285 0
M  V30 2113 C 200.6 -3.42129 -1.13929 0
M  V30 2114 O 199.704 -3.45307 -2.2547 0
M  V30 2115 H 199.045 -0.650171 -0.134812 0
M  V30 2116 H 201.575 -2.03461 0.215553 0
M  V30 2117 H 201.585 -3.80471 -1.4733 0
M  V30 2118 H 200.26 -4.14237 -0.371531 0
M  V30 2119 H 198.837 -3.1879 -1.93462 0
M  V30 2120 N 201.022 0.148545 -1.56898 0
M  V30 2121 C 202.271 0.85984 -1.82454 0
M  V30 2122 C 202.584 1.82406 -0.706229 0
M  V30 2123 O 203.79 2.57938 -0.847349 0
M  V30 2124 C 202.246 1.57967 -3.2338 0
M  V30 2125 C 201.854 0.65794 -4.43142 0
M  V30 2126 C 203.598 2.27784 -3.58211 0
M  V30 2127 C 201.505 1.3793 -5.75091 0
M  V30 2128 H 200.435 0.324834 -0.68044 0
M  V30 2129 H 203.086 0.112588 -1.83154 0
M  V30 2130 H 201.468 2.37249 -3.17063 0
M  V30 2131 H 202.642 -0.0995497 -4.60692 0
M  V30 2132 H 200.957 0.0682643 -4.16344 0
M  V30 2133 H 203.554 2.8239 -4.54048 0
M  V30 2134 H 203.897 3.04204 -2.84193 0
M  V30 2135 H 204.43 1.55421 -3.66182 0
M  V30 2136 H 201.169 0.656982 -6.52199 0
M  V30 2137 H 200.689 2.10954 -5.61479 0
M  V30 2138 H 202.368 1.92063 -6.17835 0
M  V30 2139 N 202.5 1.5196 0.417844 0
M  V30 2140 C 203.73 1.69181 1.18581 0
M  V30 2141 C 204.138 0.397104 1.84986 0
M  V30 2142 O 203.481 -0.636011 1.72339 0
M  V30 2143 C 203.543 2.76497 2.29759 0
M  V30 2144 C 203.207 4.18514 1.83563 0
M  V30 2145 C 204.204 5.02648 1.32821 0
M  V30 2146 C 201.889 4.64708 1.90661 0
M  V30 2147 C 203.883 6.31044 0.897894 0
M  V30 2148 C 201.57 5.93096 1.47241 0
M  V30 2149 C 202.568 6.76093 0.968891 0
M  V30 2150 O 202.256 8.02078 0.540924 0
M  V30 2151 H 201.988 0.570457 0.362705 0
M  V30 2152 H 204.542 1.99249 0.498885 0
M  V30 2153 H 202.772 2.41786 3.01789 0
M  V30 2154 H 204.461 2.82403 2.91553 0
M  V30 2155 H 205.227 4.68154 1.26716 0
M  V30 2156 H 201.106 4.00216 2.28797 0
M  V30 2157 H 204.65 6.95776 0.504192 0
M  V30 2158 H 200.547 6.271 1.53022 0
M  V30 2159 H 201.315 8.15794 0.66502 0
M  V30 2160 N 203.978 -0.674533 1.42435 0
M  V30 2161 C 205.226 -1.43175 1.42637 0
M  V30 2162 C 205.547 -1.94951 0.0438992 0
M  V30 2163 O 204.817 -1.7308 -0.917607 0
M  V30 2164 H 203.397 -0.531307 0.525092 0
M  V30 2165 H 206.059 -0.797006 1.77859 0
M  V30 2166 H 205.155 -2.28463 2.12629 0
M  V30 2167 N 205.456 -1.28612 -0.910864 0
M  V30 2168 C 206.403 -1.12786 -2.01365 0
M  V30 2169 C 207.373 -0.024201 -1.66082 0
M  V30 2170 O 208.558 -0.189667 -1.89855 0
M  V30 2171 C 205.698 -0.798743 -3.35729 0
M  V30 2172 C 204.811 -1.98173 -3.83864 0
M  V30 2173 C 203.946 -1.59298 -5.06752 0
M  V30 2174 C 202.985 -2.74245 -5.47226 0
M  V30 2175 N 202.122 -2.35842 -6.61304 0
M  V30 2176 H 206.962 -2.07142 -2.14234 0
M  V30 2177 H 204.499 -1.03093 -1.0493 0
M  V30 2178 H 206.457 -0.588662 -4.13026 0
M  V30 2179 H 205.087 0.10789 -3.2262 0
M  V30 2180 H 204.139 -2.30386 -3.02699 0
M  V30 2181 H 205.451 -2.84343 -4.09818 0
M  V30 2182 H 204.605 -1.34513 -5.916 0
M  V30 2183 H 203.344 -0.702618 -4.82612 0
M  V30 2184 H 202.349 -2.99725 -4.60918 0
M  V30 2185 H 203.574 -3.63928 -5.73353 0
M  V30 2186 H 201.52 -1.49279 -6.38789 0
M  V30 2187 H 201.437 -3.15546 -6.86998 0
M  V30 2188 H 202.705 -2.14348 -7.4945 0
M  V30 2189 N 206.934 1.1197 -1.10907 0
M  V30 2190 C 208.345 1.65114 -0.871446 0
M  V30 2191 C 208.696 1.86885 0.597353 0
M  V30 2192 O 207.821 1.59896 1.45816 0
M  V30 2193 C 208.416 2.99944 -1.5754 0
M  V30 2194 C 206.975 3.50018 -1.38435 0
M  V30 2195 C 206.122 2.24941 -1.62164 0
M  V30 2196 H 209.073 0.956851 -1.2661 0
M  V30 2197 H 209.094 3.66651 -1.01721 0
M  V30 2198 H 208.606 2.84067 -2.64438 0
M  V30 2199 H 206.707 3.71071 -0.337214 0
M  V30 2200 H 206.82 4.29165 -2.12965 0
M  V30 2201 H 205.184 2.3229 -1.04467 0
M  V30 2202 H 205.967 2.11612 -2.70324 0
M  V30 2203 N 208.412 0.89855 1.29475 0
M  V30 2204 C 209.659 0.523882 1.95606 0
M  V30 2205 C 209.987 -0.929608 1.70847 0
M  V30 2206 O 209.242 -1.67401 1.01367 0
M  V30 2207 C 209.541 0.761398 3.49195 0
M  V30 2208 C 209.207 2.19207 3.94029 0
M  V30 2209 C 207.869 2.58326 4.05982 0
M  V30 2210 C 210.221 3.12379 4.17216 0
M  V30 2211 C 207.549 3.898 4.38489 0
M  V30 2212 C 209.901 4.43401 4.51197 0
M  V30 2213 C 208.565 4.82394 4.61359 0
M  V30 2214 H 207.835 0.191702 0.715773 0
M  V30 2215 H 210.482 1.13699 1.54094 0
M  V30 2216 H 208.787 0.0653622 3.91745 0
M  V30 2217 H 210.484 0.450904 3.98457 0
M  V30 2218 H 207.074 1.87846 3.85242 0
M  V30 2219 H 211.258 2.83371 4.07449 0
M  V30 2220 H 206.514 4.19734 4.44559 0
M  V30 2221 H 210.688 5.15623 4.68087 0
M  V30 2222 H 208.315 5.84306 4.86303 0
M  V30 2223 N 209.89 -1.43072 0.660911 0
M  V30 2224 C 211.12 -2.05769 0.185153 0
M  V30 2225 C 211.528 -1.49668 -1.15742 0
M  V30 2226 O 210.871 -0.625649 -1.72717 0
M  V30 2227 C 210.933 -3.59489 0.0278237 0
M  V30 2228 C 210.597 -4.38212 1.2969 0
M  V30 2229 C 211.594 -4.69772 2.22734 0
M  V30 2230 C 209.279 -4.7809 1.54063 0
M  V30 2231 C 211.273 -5.40129 3.38437 0
M  V30 2232 C 208.96 -5.4819 2.70058 0
M  V30 2233 C 209.958 -5.79132 3.62071 0
M  V30 2234 O 209.646 -6.47798 4.76039 0
M  V30 2235 H 209.378 -0.669873 0.0908086 0
M  V30 2236 H 211.932 -1.84436 0.90402 0
M  V30 2237 H 210.162 -3.79426 -0.746489 0
M  V30 2238 H 211.851 -4.03862 -0.406275 0
M  V30 2239 H 212.617 -4.39476 2.05149 0
M  V30 2240 H 208.496 -4.53408 0.833215 0
M  V30 2241 H 212.04 -5.64198 4.10277 0
M  V30 2242 H 207.937 -5.77902 2.87574 0
M  V30 2243 H 208.705 -6.66283 4.75404 0
M  V30 2244 N 211.368 -0.403325 -1.52352 0
M  V30 2245 C 212.278 0.432009 -2.30588 0
M  V30 2246 C 213.294 1.05884 -1.38075 0
M  V30 2247 O 214.47 1.06161 -1.71148 0
M  V30 2248 C 211.535 1.53669 -3.10784 0
M  V30 2249 C 210.596 0.933525 -4.19027 0
M  V30 2250 C 209.829 1.98557 -4.9539 0
M  V30 2251 O 210.052 3.20283 -4.71991 0
M  V30 2252 O 208.986 1.59504 -5.80381 0
M  V30 2253 H 212.812 -0.205739 -3.03002 0
M  V30 2254 H 210.397 -0.166675 -1.48467 0
M  V30 2255 H 212.279 2.17814 -3.60742 0
M  V30 2256 H 210.954 2.15915 -2.41169 0
M  V30 2257 H 209.861 0.254954 -3.7323 0
M  V30 2258 H 211.194 0.35508 -4.90918 0
M  V30 2259 N 212.846 1.57033 -0.133567 0
M  V30 2260 C 214.123 1.87256 0.56522 0
M  V30 2261 C 214.503 1.03726 1.83859 0
M  V30 2262 O 213.851 0.120247 2.28183 0
M  V30 2263 C 214.061 3.3865 0.843636 0
M  V30 2264 C 215.409 4.07574 1.19032 0
M  V30 2265 O 216.433 3.43752 0.933429 0
M  V30 2266 O 215.292 5.20259 1.67312 0
M  V30 2267 H 212.386 0.775678 0.286796 0
M  V30 2268 H 214.932 1.68855 -0.169168 0
M  V30 2269 H 213.704 3.91257 -0.0581149 0
M  V30 2270 H 213.327 3.62532 1.63268 0
M  V30 2271 N 214.325 -0.140222 1.56975 0
M  V30 2272 C 215.255 -1.17456 2.01808 0
M  V30 2273 C 216.236 -1.44415 0.898794 0
M  V30 2274 O 217.421 -1.5522 1.16707 0
M  V30 2275 C 214.551 -2.50607 2.40444 0
M  V30 2276 C 213.505 -2.38155 3.55621 0
M  V30 2277 C 212.831 -3.76078 3.80091 0
M  V30 2278 C 214.131 -1.85991 4.88062 0
M  V30 2279 H 215.825 -0.801743 2.88466 0
M  V30 2280 H 213.371 -0.38422 1.38779 0
M  V30 2281 H 215.324 -3.23197 2.7041 0
M  V30 2282 H 214.048 -2.89737 1.50732 0
M  V30 2283 H 212.707 -1.68016 3.25832 0
M  V30 2284 H 212.355 -4.12656 2.87618 0
M  V30 2285 H 212.055 -3.68606 4.57606 0
M  V30 2286 H 213.579 -4.50206 4.12488 0
M  V30 2287 H 214.993 -2.4838 5.16701 0
M  V30 2288 H 213.39 -1.89393 5.6943 0
M  V30 2289 H 214.46 -0.816023 4.77984 0
M  V30 2290 N 215.803 -1.52179 -0.40978 0
M  V30 2291 C 216.766 -1.74853 -1.48186 0
M  V30 2292 C 217.766 -0.618417 -1.48433 0
M  V30 2293 O 218.956 -0.886286 -1.49969 0
M  V30 2294 C 216.088 -1.8303 -2.87598 0
M  V30 2295 H 217.281 -2.70559 -1.29374 0
M  V30 2296 H 214.834 -1.42586 -0.640233 0
M  V30 2297 H 215.569 -0.89236 -3.11781 0
M  V30 2298 H 215.354 -2.65187 -2.88822 0
M  V30 2299 H 216.844 -2.02316 -3.65319 0
M  V30 2300 N 217.281 0.66697 -1.42791 0
M  V30 2301 C 218.529 1.42417 -1.43394 0
M  V30 2302 C 218.85 1.94925 -0.0542373 0
M  V30 2303 O 218.12 1.73564 0.908415 0
M  V30 2304 H 216.7 0.528515 -0.527902 0
M  V30 2305 H 219.362 0.787562 -1.78279 0
M  V30 2306 H 218.458 2.27333 -2.13837 0
M  V30 2307 N 218.759 1.29093 0.90403 0
M  V30 2308 C 220.175 1.07011 1.1841 0
M  V30 2309 C 220.375 -0.181358 2.00682 0
M  V30 2310 O 219.431 -0.880331 2.36657 0
M  V30 2311 C 220.744 2.32311 1.90924 0
M  V30 2312 C 222.292 2.37587 2.03768 0
M  V30 2313 C 222.767 3.62679 2.79693 0
M  V30 2314 N 224.258 3.63376 2.87249 0
M  V30 2315 C 224.993 4.56848 3.46522 0
M  V30 2316 N 224.489 5.60648 4.06996 0
M  V30 2317 N 226.282 4.44426 3.44154 0
M  V30 2318 H 218.433 2.09412 0.354993 0
M  V30 2319 H 220.696 0.922181 0.219742 0
M  V30 2320 H 220.402 3.23536 1.37905 0
M  V30 2321 H 220.276 2.39483 2.91424 0
M  V30 2322 H 222.663 1.46853 2.55965 0
M  V30 2323 H 222.744 2.34403 1.02415 0
M  V30 2324 H 222.388 4.53762 2.28173 0
M  V30 2325 H 222.318 3.63119 3.81381 0
M  V30 2326 H 224.809 2.88321 2.44293 0
M  V30 2327 H 225.122 6.28101 4.50232 0
M  V30 2328 H 223.467 5.64463 4.05471 0
M  V30 2329 H 226.658 3.62529 2.96126 0
M  V30 2330 H 226.831 5.17457 3.90054 0
M  V30 2331 N 220.237 -1.11381 1.11499 0
M  V30 2332 C 221.648 -1.6465 0.880191 0
M  V30 2333 C 221.999 -1.87199 -0.587434 0
M  V30 2334 O 221.124 -1.60667 -1.44966 0
M  V30 2335 C 221.719 -2.99105 1.59128 0
M  V30 2336 C 220.278 -3.49279 1.40289 0
M  V30 2337 C 219.425 -2.24077 1.63354 0
M  V30 2338 H 222.376 -0.950123 1.27116 0
M  V30 2339 H 222.397 -3.66107 1.03664 0
M  V30 2340 H 221.909 -2.82661 2.65941 0
M  V30 2341 H 220.01 -3.70887 0.356888 0
M  V30 2342 H 220.123 -4.2803 2.15238 0
M  V30 2343 H 218.487 -2.31733 1.05698 0
M  V30 2344 H 219.27 -2.10175 2.71443 0
M  V30 2345 N 221.715 -0.905404 -1.28997 0
M  V30 2346 C 222.992 -0.453513 -1.9027 0
M  V30 2347 C 223.372 1.06721 -1.82137 0
M  V30 2348 O 222.72 1.91159 -1.25182 0
M  V30 2349 C 222.93 -0.974494 -3.35119 0
M  V30 2350 C 224.278 -1.0216 -4.12127 0
M  V30 2351 O 225.302 -0.922557 -3.44046 0
M  V30 2352 O 224.161 -1.17121 -5.33802 0
M  V30 2353 H 221.255 -0.142347 -0.814657 0
M  V30 2354 H 223.801 -0.995642 -1.37423 0
M  V30 2355 H 222.573 -2.01848 -3.35221 0
M  V30 2356 H 222.196 -0.412706 -3.95452 0
M  V30 2357 N 223.193 1.4272 -0.668489 0
M  V30 2358 C 224.123 2.335 -0.000100175 0
M  V30 2359 C 225.104 1.50328 0.795964 0
M  V30 2360 O 226.289 1.78949 0.754385 0
M  V30 2361 C 223.419 3.33874 0.956302 0
M  V30 2362 C 222.373 4.27152 0.269278 0
M  V30 2363 C 221.699 5.17684 1.33818 0
M  V30 2364 C 222.999 5.15373 -0.847805 0
M  V30 2365 H 224.693 2.89639 -0.758244 0
M  V30 2366 H 222.239 1.39269 -0.366079 0
M  V30 2367 H 224.192 3.9629 1.43292 0
M  V30 2368 H 222.916 2.76025 1.74579 0
M  V30 2369 H 221.575 3.66123 -0.187042 0
M  V30 2370 H 221.223 4.56165 2.1195 0
M  V30 2371 H 220.923 5.80918 0.883659 0
M  V30 2372 H 222.447 5.82974 1.81586 0
M  V30 2373 H 223.861 5.7151 -0.452681 0
M  V30 2374 H 222.258 5.87407 -1.22773 0
M  V30 2375 H 223.328 4.5415 -1.69929 0
M  V30 2376 N 224.671 0.411399 1.52136 0
M  V30 2377 C 226.087 0.0623865 1.59478 0
M  V30 2378 C 226.287 -1.42554 1.4241 0
M  V30 2379 O 225.343 -2.19263 1.2522 0
M  V30 2380 C 226.656 0.559331 2.95452 0
M  V30 2381 C 228.204 0.517503 3.08692 0
M  V30 2382 C 228.679 0.990994 4.4715 0
M  V30 2383 N 230.17 0.947908 4.53397 0
M  V30 2384 C 230.905 1.28544 5.58806 0
M  V30 2385 N 230.401 1.69454 6.71757 0
M  V30 2386 N 232.194 1.20526 5.49026 0
M  V30 2387 H 224.345 1.37982 1.61477 0
M  V30 2388 H 226.608 0.566977 0.759764 0
M  V30 2389 H 226.314 1.59938 3.1323 0
M  V30 2390 H 226.188 -0.0298014 3.77188 0
M  V30 2391 H 228.575 -0.513505 2.90598 0
M  V30 2392 H 228.656 1.14272 2.28857 0
M  V30 2393 H 228.3 2.02034 4.65988 0
M  V30 2394 H 228.23 0.34257 5.25485 0
M  V30 2395 H 230.721 0.647157 3.72317 0
M  V30 2396 H 231.034 1.93513 7.48179 0
M  V30 2397 H 229.379 1.73359 6.73032 0
M  V30 2398 H 232.57 0.884505 4.59667 0
M  V30 2399 H 232.743 1.47161 6.31069 0
M  V30 2400 N 226.149 -1.5696 0.141893 0
M  V30 2401 C 227.112 -2.15316 -0.785587 0
M  V30 2402 C 228.112 -1.09366 -1.1788 0
M  V30 2403 O 229.302 -1.35031 -1.10056 0
M  V30 2404 C 226.434 -2.71211 -2.06537 0
M  V30 2405 H 227.627 -2.98608 -0.278041 0
M  V30 2406 H 225.18 -1.5593 -0.107519 0
M  V30 2407 H 225.915 -1.91571 -2.6167 0
M  V30 2408 H 225.7 -3.4872 -1.79268 0
M  V30 2409 H 227.19 -3.16189 -2.72789 0
M  V30 2410 N 227.627 0.131896 -1.57047 0
M  V30 2411 C 228.852 0.860418 -1.8871 0
M  V30 2412 C 229.277 1.73251 -0.73251 0
M  V30 2413 O 228.635 1.785 0.317429 0
M  V30 2414 C 228.683 1.68047 -3.19049 0
M  V30 2415 O 227.787 2.7862 -3.04047 0
M  V30 2416 H 227.128 0.238743 -0.619595 0
M  V30 2417 H 229.658 0.118169 -2.04258 0
M  V30 2418 H 229.668 2.07238 -3.51449 0
M  V30 2419 H 228.343 1.04018 -4.02682 0
M  V30 2420 H 226.92 2.42726 -2.83088 0
M  V30 2421 N 229.106 1.52395 0.401703 0
M  V30 2422 C 230.353 1.66817 1.14796 0
M  V30 2423 C 230.681 0.401772 1.90305 0
M  V30 2424 O 229.936 -0.615487 1.85769 0
M  V30 2425 C 230.235 2.84578 2.16217 0
M  V30 2426 C 229.901 4.22513 1.5746 0
M  V30 2427 C 228.563 4.60029 1.41161 0
M  V30 2428 C 230.915 5.0844 1.14622 0
M  V30 2429 C 228.243 5.81144 0.80552 0
M  V30 2430 C 230.595 6.30167 0.55428 0
M  V30 2431 C 229.259 6.66426 0.378482 0
M  V30 2432 H 228.529 0.610428 0.420069 0
M  V30 2433 H 231.176 1.86512 0.434212 0
M  V30 2434 H 229.481 2.59248 2.93764 0
M  V30 2435 H 231.178 2.92933 2.73845 0
M  V30 2436 H 227.768 3.92953 1.71132 0
M  V30 2437 H 231.952 4.80034 1.26021 0
M  V30 2438 H 227.208 6.07855 0.657399 0
M  V30 2439 H 231.382 6.96071 0.213983 0
M  V30 2440 H 229.009 7.60143 -0.0932606 0
M  V30 2441 N 230.584 -0.659388 1.43143 0
M  V30 2442 C 231.861 -1.41627 1.34912 0
M  V30 2443 C 232.241 -2.11099 -0.00607785 0
M  V30 2444 O 231.589 -2.04353 -1.02236 0
M  V30 2445 C 231.799 -2.40604 2.52805 0
M  V30 2446 C 233.147 -3.04789 2.95616 0
M  V30 2447 O 234.171 -2.50932 2.52807 0
M  V30 2448 O 233.03 -4.02421 3.69756 0
M  V30 2449 H 230.124 -0.63246 0.532844 0
M  V30 2450 H 232.67 -0.686814 1.5518 0
M  V30 2451 H 231.442 -1.88174 3.43083 0
M  V30 2452 H 231.065 -3.21009 2.34604 0
M  V30 2453 N 232.062 -1.29571 -0.897171 0
M  V30 2454 C 233.287 -1.20705 -1.68656 0
M  V30 2455 C 233.712 0.228582 -1.86706 0
M  V30 2456 O 233.07 1.16494 -1.3892 0
M  V30 2457 C 233.118 -1.9282 -3.04717 0
M  V30 2458 O 232.222 -1.24697 -3.93096 0
M  V30 2459 H 231.563 -0.418126 -0.515816 0
M  V30 2460 H 234.093 -1.71183 -1.12061 0
M  V30 2461 H 234.103 -2.01372 -3.54843 0
M  V30 2462 H 232.778 -2.97239 -2.90899 0
M  V30 2463 H 231.355 -1.2442 -3.51531 0
M  V30 2464 N 233.54 1.10788 -1.12088 0
M  V30 2465 C 234.47 2.19083 -0.807755 0
M  V30 2466 C 235.451 1.6858 0.226859 0
M  V30 2467 O 236.636 1.93997 0.0888475 0
M  V30 2468 C 233.766 3.46344 -0.257576 0
M  V30 2469 C 232.72 4.101 -1.22483 0
M  V30 2470 C 232.046 5.32016 -0.535052 0
M  V30 2471 C 233.346 4.54236 -2.57811 0
M  V30 2472 H 235.04 2.45534 -1.71328 0
M  V30 2473 H 232.586 1.1801 -0.825205 0
M  V30 2474 H 234.539 4.21392 -0.0262679 0
M  V30 2475 H 233.263 3.19373 0.683278 0
M  V30 2476 H 231.922 3.37054 -1.44189 0
M  V30 2477 H 231.57 5.01319 0.410827 0
M  V30 2478 H 231.27 5.75625 -1.18024 0
M  V30 2479 H 232.794 6.09799 -0.312695 0
M  V30 2480 H 234.208 5.20575 -2.40155 0
M  V30 2481 H 232.605 5.08682 -3.18375 0
M  V30 2482 H 233.675 3.6734 -3.16528 0
M  V30 2483 N 235.018 0.912232 1.28515 0
M  V30 2484 C 235.948 0.416403 2.29757 0
M  V30 2485 C 236.929 -0.515194 1.6211 0
M  V30 2486 O 238.114 -0.423253 1.89532 0
M  V30 2487 C 235.244 -0.34572 3.45575 0
M  V30 2488 C 234.198 0.496599 4.25109 0
M  V30 2489 C 233.524 -0.393771 5.33248 0
M  V30 2490 C 234.824 1.75307 4.92001 0
M  V30 2491 H 236.518 1.26249 2.7148 0
M  V30 2492 H 234.064 0.608515 1.30511 0
M  V30 2493 H 236.017 -0.703422 4.15488 0
M  V30 2494 H 234.741 -1.2257 3.02728 0
M  V30 2495 H 233.4 0.8368 3.56922 0
M  V30 2496 H 233.048 -1.27225 4.86644 0
M  V30 2497 H 232.748 0.166209 5.87365 0
M  V30 2498 H 234.272 -0.747389 6.06009 0
M  V30 2499 H 235.686 1.46437 5.54283 0
M  V30 2500 H 234.083 2.25534 5.56106 0
M  V30 2501 H 235.153 2.48176 4.16577 0
M  V30 2502 N 236.496 -1.42363 0.676048 0
M  V30 2503 C 237.459 -2.29199 0.00766941 0
M  V30 2504 C 238.459 -1.43389 -0.727745 0
M  V30 2505 O 239.649 -1.64764 -0.56556 0
M  V30 2506 C 236.781 -3.2591 -0.999785 0
M  V30 2507 H 237.974 -2.89794 0.771988 0
M  V30 2508 H 235.527 -1.50024 0.438468 0
M  V30 2509 H 236.262 -2.70256 -1.79255 0
M  V30 2510 H 236.047 -3.89202 -0.475829 0
M  V30 2511 H 237.537 -3.91028 -1.46583 0
M  V30 2512 N 237.974 -0.419461 -1.51915 0
M  V30 2513 C 239.214 0.152336 -2.03832 0
M  V30 2514 C 239.578 1.41501 -1.29775 0
M  V30 2515 O 240.779 2.06591 -1.7197 0
M  V30 2516 C 239.05 0.383812 -3.55333 0
M  V30 2517 S 240.609 0.921577 -4.29013 0
M  V30 2518 H 237.427 0.0402193 -0.709862 0
M  V30 2519 H 240.029 -0.574758 -1.8686 0
M  V30 2520 H 238.733 -0.541794 -4.06808 0
M  V30 2521 H 238.264 1.13849 -3.76566 0
M  V30 2522 H 240.279 2.20108 -4.4471 0
M  V30 2523 N 239.452 1.56882 -0.150215 0
M  V30 2524 C 240.729 1.87844 0.545327 0
M  V30 2525 C 241.109 1.0567 1.82749 0
M  V30 2526 O 240.457 0.144442 2.28043 0
M  V30 2527 C 240.667 3.39526 0.80767 0
M  V30 2528 C 242.015 4.08814 1.14703 0
M  V30 2529 O 243.039 3.44723 0.896917 0
M  V30 2530 O 241.898 5.22004 1.61784 0
M  V30 2531 H 238.992 0.778677 0.278553 0
M  V30 2532 H 241.538 1.68666 -0.187068 0
M  V30 2533 H 240.31 3.91173 -0.0996096 0
M  V30 2534 H 239.933 3.64243 1.59413 0
M  V30 2535 N 240.93 -0.123565 1.57115 0
M  V30 2536 C 241.862 -1.17739 1.96648 0
M  V30 2537 C 242.875 -1.37906 0.865201 0
M  V30 2538 O 244.064 -1.37062 1.14351 0
M  V30 2539 C 241.164 -2.53821 2.24562 0
M  V30 2540 C 240.337 -2.54317 3.55867 0
M  V30 2541 C 239.396 -3.72112 3.72047 0
M  V30 2542 O 238.422 -3.55907 4.44206 0
M  V30 2543 N 239.624 -4.90498 3.10471 0
M  V30 2544 H 242.389 -0.841147 2.87654 0
M  V30 2545 H 239.95 -0.31289 1.58848 0
M  V30 2546 H 241.942 -3.31175 2.32606 0
M  V30 2547 H 240.512 -2.79645 1.39705 0
M  V30 2548 H 239.732 -1.62711 3.59053 0
M  V30 2549 H 241.02 -2.51701 4.42181 0
M  V30 2550 H 240.418 -5.06567 2.51806 0
M  V30 2551 H 238.975 -5.65544 3.24043 0
M  V30 2552 N 242.408 -1.52605 -0.393616 0
M  V30 2553 C 243.685 -1.58001 -1.15304 0
M  V30 2554 C 244.065 -0.370385 -2.07825 0
M  V30 2555 O 243.413 0.641638 -2.19306 0
M  V30 2556 C 243.623 -2.91652 -1.91677 0
M  V30 2557 C 244.971 -3.4522 -2.47201 0
M  V30 2558 O 245.995 -2.93495 -2.01839 0
M  V30 2559 O 244.854 -4.35579 -3.3005 0
M  V30 2560 H 241.948 -0.637068 -0.527327 0
M  V30 2561 H 244.494 -1.64939 -0.399141 0
M  V30 2562 H 243.266 -3.71136 -1.23992 0
M  V30 2563 H 242.889 -2.88077 -2.74039 0
M  V30 2564 N 243.887 0.651787 -1.4349 0
M  V30 2565 C 245.133 1.41376 -1.45398 0
M  V30 2566 C 245.466 1.94041 -0.0784823 0
M  V30 2567 O 244.741 1.72379 0.900878 0
M  V30 2568 C 245.024 2.59414 -2.49752 0
M  V30 2569 C 244.877 2.12232 -3.96582 0
M  V30 2570 C 246.196 3.61626 -2.50827 0
M  V30 2571 H 243.315 0.512719 -0.529422 0
M  V30 2572 H 245.957 0.738796 -1.75048 0
M  V30 2573 H 244.107 3.16997 -2.246 0
M  V30 2574 H 245.779 1.59639 -4.32797 0
M  V30 2575 H 244.022 1.43592 -4.09346 0
M  V30 2576 H 244.693 2.9712 -4.65214 0
M  V30 2577 H 247.169 3.13805 -2.7325 0
M  V30 2578 H 246.045 4.41766 -3.25783 0
M  V30 2579 H 246.306 4.14314 -1.5426 0
M  V30 2580 N 245.365 1.30045 0.890287 0
M  V30 2581 C 246.328 1.15963 1.977 0
M  V30 2582 C 247.328 0.0923777 1.60534 0
M  V30 2583 O 248.518 0.340071 1.70848 0
M  V30 2584 C 245.65 0.775451 3.31963 0
M  V30 2585 H 246.843 2.12502 2.11619 0
M  V30 2586 H 244.396 1.13366 1.07601 0
M  V30 2587 H 245.131 -0.189671 3.23745 0
M  V30 2588 H 244.916 1.54668 3.60306 0
M  V30 2589 H 246.406 0.700251 4.11687 0
M  V30 2590 N 246.843 -1.10192 1.12674 0
M  V30 2591 C 248.09 -1.82205 0.883606 0
M  V30 2592 C 248.418 -1.8532 -0.590492 0
M  V30 2593 O 247.673 -1.31137 -1.45264 0
M  V30 2594 C 247.972 -3.28552 1.4067 0
M  V30 2595 C 247.638 -3.45582 2.89627 0
M  V30 2596 C 246.3 -3.49937 3.30299 0
M  V30 2597 C 248.652 -3.50768 3.85501 0
M  V30 2598 C 245.98 -3.57049 4.65546 0
M  V30 2599 C 248.332 -3.59414 5.20581 0
M  V30 2600 C 246.996 -3.62034 5.60792 0
M  V30 2601 H 246.266 -0.666735 0.323334 0
M  V30 2602 H 248.913 -1.29868 1.40736 0
M  V30 2603 H 247.218 -3.83473 0.80347 0
M  V30 2604 H 248.915 -3.82788 1.19475 0
M  V30 2605 H 245.505 -3.42871 2.57172 0
M  V30 2606 H 249.689 -3.46651 3.55171 0
M  V30 2607 H 244.945 -3.57361 4.96088 0
M  V30 2608 H 249.119 -3.62371 5.94693 0
M  V30 2609 H 246.746 -3.67298 6.6558 0
M  V30 2610 N 248.321 -0.919034 -1.28029 0
M  V30 2611 C 249.598 -0.473668 -1.89778 0
M  V30 2612 C 249.978 1.04783 -1.83259 0
M  V30 2613 O 249.326 1.8982 -1.27202 0
M  V30 2614 C 249.536 -1.00998 -3.34066 0
M  V30 2615 C 250.884 -1.06525 -4.1102 0
M  V30 2616 O 251.908 -0.958996 -3.43048 0
M  V30 2617 O 250.767 -1.22776 -5.3253 0
M  V30 2618 H 247.861 -0.15098 -0.813101 0
M  V30 2619 H 250.407 -1.01016 -1.36359 0
M  V30 2620 H 249.179 -2.05392 -3.33061 0
M  V30 2621 H 248.802 -0.454626 -3.94992 0
M  V30 2622 N 249.799 1.42003 -0.683588 0
M  V30 2623 C 250.762 2.29191 -0.0198243 0
M  V30 2624 C 251.762 1.43773 0.72013 0
M  V30 2625 O 252.952 1.65061 0.556815 0
M  V30 2626 C 250.084 3.26435 0.982487 0
M  V30 2627 H 251.277 2.8938 -0.787345 0
M  V30 2628 H 248.83 1.49789 -0.446418 0
M  V30 2629 H 249.565 2.71203 1.77819 0
M  V30 2630 H 249.35 3.89449 0.455182 0
M  V30 2631 H 250.84 3.918 1.44508 0
M  V30 2632 N 251.277 0.427512 1.51691 0
M  V30 2633 C 252.688 -0.0378867 1.86662 0
M  V30 2634 C 253.039 -1.42819 1.34525 0
M  V30 2635 O 252.164 -2.05037 0.692014 0
M  V30 2636 C 252.759 -0.0755266 3.38716 0
M  V30 2637 C 251.318 -0.485309 3.73258 0
M  V30 2638 C 250.465 0.328399 2.75349 0
M  V30 2639 H 253.416 0.64379 1.45055 0
M  V30 2640 H 253.437 -0.887056 3.70016 0
M  V30 2641 H 252.949 0.936487 3.76632 0
M  V30 2642 H 251.05 -1.50329 3.40928 0
M  V30 2643 H 251.163 -0.21693 4.78609 0
M  V30 2644 H 249.527 -0.211905 2.53817 0
M  V30 2645 H 250.31 1.3391 3.16106 0
M  V30 2646 N 252.755 -1.56801 0.158532 0
M  V30 2647 C 253.718 -2.16138 -0.762705 0
M  V30 2648 C 254.718 -1.1061 -1.16713 0
M  V30 2649 O 255.908 -1.36191 -1.08617 0
M  V30 2650 C 253.04 -2.73386 -2.03649 0
M  V30 2651 H 254.233 -2.98886 -0.246354 0
M  V30 2652 H 251.786 -1.56035 -0.0909744 0
M  V30 2653 H 252.521 -1.94335 -2.59623 0
M  V30 2654 H 252.306 -3.50601 -1.75559 0
M  V30 2655 H 253.796 -3.19065 -2.6942 0
M  V30 2656 N 254.233 0.115231 -1.57178 0
M  V30 2657 C 255.196 1.12526 -1.99676 0
M  V30 2658 C 256.196 1.34095 -0.88742 0
M  V30 2659 O 257.386 1.30548 -1.15337 0
M  V30 2660 C 254.518 2.4789 -2.34015 0
M  V30 2661 H 255.711 0.759912 -2.90113 0
M  V30 2662 H 253.264 0.359648 -1.52106 0
M  V30 2663 H 253.999 2.89339 -1.4647 0
M  V30 2664 H 253.784 2.33588 -3.14927 0
M  V30 2665 H 255.274 3.20575 -2.67622 0
M  V30 2666 N 255.711 1.52812 0.385517 0
M  V30 2667 C 256.674 1.77188 1.45386 0
M  V30 2668 C 257.674 0.641953 1.4743 0
M  V30 2669 O 258.864 0.910033 1.4854 0
M  V30 2670 C 255.996 1.87582 2.8465 0
M  V30 2671 H 257.189 2.72583 1.25054 0
M  V30 2672 H 254.742 1.43586 0.617467 0
M  V30 2673 H 255.477 0.941849 3.10322 0
M  V30 2674 H 255.262 2.69748 2.84567 0
M  V30 2675 H 256.752 2.08102 3.62054 0
M  V30 2676 N 257.189 -0.644168 1.43834 0
M  V30 2677 C 258.419 -1.42939 1.49171 0
M  V30 2678 C 258.827 -1.88874 0.111048 0
M  V30 2679 O 258.17 -1.60656 -0.8908 0
M  V30 2680 C 258.232 -2.69151 2.38324 0
M  V30 2681 C 257.896 -2.45097 3.85715 0
M  V30 2682 C 258.893 -2.07747 4.76589 0
M  V30 2683 C 256.578 -2.59141 4.30292 0
M  V30 2684 C 258.572 -1.8475 6.10038 0
M  V30 2685 C 256.259 -2.35759 5.63792 0
M  V30 2686 C 257.257 -1.9862 6.53482 0
M  V30 2687 O 256.945 -1.75489 7.84512 0
M  V30 2688 H 256.677 -0.445271 0.508635 0
M  V30 2689 H 259.231 -0.79621 1.8934 0
M  V30 2690 H 257.461 -3.3506 1.93058 0
M  V30 2691 H 259.15 -3.31123 2.3476 0
M  V30 2692 H 259.916 -1.96465 4.43426 0
M  V30 2693 H 255.795 -2.87022 3.60749 0
M  V30 2694 H 259.339 -1.55686 6.80006 0
M  V30 2695 H 255.236 -2.46646 5.9652 0
M  V30 2696 H 256.004 -1.89841 7.9618 0
M  V30 2697 N 258.668 -1.30515 -0.883378 0
M  V30 2698 C 259.945 -1.10086 -1.6168 0
M  V30 2699 C 260.325 0.349269 -2.08191 0
M  V30 2700 O 259.673 1.34105 -1.85008 0
M  V30 2701 C 259.883 -2.10315 -2.78511 0
M  V30 2702 C 261.231 -2.42119 -3.48803 0
M  V30 2703 O 262.255 -2.08638 -2.88702 0
M  V30 2704 O 261.114 -2.99396 -4.57192 0
M  V30 2705 H 258.208 -0.422907 -0.710689 0
M  V30 2706 H 260.754 -1.41947 -0.930015 0
M  V30 2707 H 259.526 -3.07917 -2.41459 0
M  V30 2708 H 259.149 -1.79282 -3.54886 0
M  V30 2709 N 260.146 1.09593 -1.13257 0
M  V30 2710 C 261.392 1.82181 -0.904521 0
M  V30 2711 C 261.747 1.83967 0.563358 0
M  V30 2712 O 261.04 1.29566 1.41149 0
M  V30 2713 C 261.234 3.27802 -1.42411 0
M  V30 2714 C 261.063 3.40201 -2.94097 0
M  V30 2715 C 259.833 3.52104 -3.62424 0
M  V30 2716 C 262.031 3.32875 -3.92044 0
M  V30 2717 N 260.013 3.53169 -5.0214 0
M  V30 2718 C 261.384 3.40789 -5.17941 0
M  V30 2719 C 263.439 3.16531 -3.84334 0
M  V30 2720 C 262.142 3.34042 -6.37031 0
M  V30 2721 C 264.168 3.11109 -5.02956 0
M  V30 2722 C 263.53 3.19614 -6.27715 0
M  V30 2723 H 259.629 0.681015 -0.384373 0
M  V30 2724 H 262.213 1.3099 -1.44048 0
M  V30 2725 H 260.384 3.77466 -0.915086 0
M  V30 2726 H 262.116 3.88393 -1.13722 0
M  V30 2727 H 258.871 3.5548 -3.12939 0
M  V30 2728 H 259.295 3.57291 -5.75041 0
M  V30 2729 H 263.937 3.08827 -2.88766 0
M  V30 2730 H 261.655 3.4051 -7.32857 0
M  V30 2731 H 265.241 2.99601 -4.98729 0
M  V30 2732 H 264.121 3.15432 -7.17964 0
M  V30 2733 N 261.624 0.925811 1.2754 0
M  V30 2734 C 262.852 0.581509 1.9856 0
M  V30 2735 C 263.267 -0.840041 1.69082 0
M  V30 2736 O 262.624 -1.55805 0.950312 0
M  V30 2737 C 262.675 0.795589 3.52637 0
M  V30 2738 O 262.396 2.16121 3.81082 0
M  V30 2739 C 263.897 0.459744 4.4091 0
M  V30 2740 H 261.117 0.220538 0.633722 0
M  V30 2741 H 263.661 1.24232 1.6244 0
M  V30 2742 H 261.816 0.18161 3.86974 0
M  V30 2743 H 262.23 2.2098 4.75676 0
M  V30 2744 H 263.704 0.660244 5.48037 0
M  V30 2745 H 264.181 -0.604625 4.35018 0
M  V30 2746 H 264.787 1.05178 4.12089 0
M  V30 2747 N 263.102 -1.41638 0.69111 0
M  V30 2748 C 264.05 -2.32597 0.0115199 0
M  V30 2749 C 265.044 -1.5072 -0.773296 0
M  V30 2750 O 266.25 -1.66685 -0.67942 0
M  V30 2751 H 262.625 -0.751849 -0.0150746 0
M  V30 2752 H 264.596 -2.87593 0.795791 0
M  V30 2753 C 263.345 -3.35467 -0.914172 0
M  V30 2754 H 262.668 -3.9852 -0.319687 0
M  V30 2755 H 264.108 -4.01662 -1.35808 0
M  V30 2756 C 262.567 -2.69004 -2.02826 0
M  V30 2757 O 263.097 -2.53444 -3.11655 0
M  V30 2758 N 261.303 -2.2777 -1.80469 0
M  V30 2759 H 260.85 -2.40626 -0.919615 0
M  V30 2760 H 260.808 -1.83635 -2.55197 0
M  V30 2761 N 264.58 -0.43555 -1.51462 0
M  V30 2762 C 265.826 0.131709 -2.02372 0
M  V30 2763 C 266.159 1.42516 -1.3192 0
M  V30 2764 O 265.434 1.89606 -0.433573 0
M  V30 2765 C 265.717 0.352301 -3.58373 0
M  V30 2766 C 265.57 -0.959676 -4.39443 0
M  V30 2767 C 266.889 1.12286 -4.25535 0
M  V30 2768 H 264.008 0.0463936 -0.735538 0
M  V30 2769 H 266.65 -0.574197 -1.81116 0
M  V30 2770 H 264.8 0.9536 -3.76615 0
M  V30 2771 H 266.472 -1.59482 -4.32855 0
M  V30 2772 H 264.715 -1.56468 -4.04599 0
M  V30 2773 H 265.386 -0.759394 -5.46752 0
M  V30 2774 H 267.862 0.613545 -4.11552 0
M  V30 2775 H 266.738 1.24598 -5.34571 0
M  V30 2776 H 266.999 2.15048 -3.86273 0
M  V30 2777 N 266.058 1.56714 -0.166846 0
M  V30 2778 C 267.474 1.58473 0.189372 0
M  V30 2779 C 267.674 1.18201 1.63189 0
M  V30 2780 O 266.73 0.891528 2.36237 0
M  V30 2781 C 268.043 3.00573 -0.0873872 0
M  V30 2782 C 269.591 3.1299 -0.0252443 0
M  V30 2783 C 270.066 4.57174 -0.274934 0
M  V30 2784 N 271.557 4.62665 -0.222553 0
M  V30 2785 C 272.292 5.72072 -0.389985 0
M  V30 2786 N 271.788 6.90054 -0.616229 0
M  V30 2787 N 273.581 5.61153 -0.326202 0
M  V30 2788 H 265.732 1.8118 -1.10849 0
M  V30 2789 H 267.995 0.839525 -0.440342 0
M  V30 2790 H 267.701 3.34497 -1.0865 0
M  V30 2791 H 267.575 3.72019 0.623037 0
M  V30 2792 H 269.962 2.78895 0.96444 0
M  V30 2793 H 270.043 2.43989 -0.768309 0
M  V30 2794 H 269.687 4.91976 -1.26181 0
M  V30 2795 H 269.617 5.24328 0.48869 0
M  V30 2796 H 272.108 3.77863 -0.0531512 0
M  V30 2797 H 272.421 7.69311 -0.733559 0
M  V30 2798 H 270.766 6.91927 -0.652791 0
M  V30 2799 H 273.957 4.67859 -0.150072 0
M  V30 2800 H 274.13 6.46364 -0.460116 0
M  V30 2801 N 267.536 -0.106894 1.57237 0
M  V30 2802 C 268.486 -1.1366 1.9765 0
M  V30 2803 C 269.47 -1.36416 0.853203 0
M  V30 2804 O 270.662 -1.37305 1.11697 0
M  V30 2805 C 267.791 -2.46 2.39455 0
M  V30 2806 C 266.877 -2.26668 3.58445 0
M  V30 2807 N 267.268 -1.77176 4.73754 0
M  V30 2808 C 265.566 -2.57279 3.64312 0
M  V30 2809 C 266.267 -1.71836 5.5574 0
M  V30 2810 N 265.243 -2.16623 4.98573 0
M  V30 2811 H 269.045 -0.74669 2.84256 0
M  V30 2812 H 266.559 -0.314483 1.59326 0
M  V30 2813 H 268.556 -3.2049 2.6663 0
M  V30 2814 H 267.216 -2.85738 1.54219 0
M  V30 2815 H 268.227 -1.46545 4.96734 0
M  V30 2816 H 264.904 -3.00622 2.89711 0
M  V30 2817 H 266.294 -1.34723 6.58255 0
M  V30 2818 N 269.014 -1.53014 -0.377408 0
M  V30 2819 C 270.26 -1.68872 -1.12294 0
M  V30 2820 C 270.593 -0.433224 -1.89306 0
M  V30 2821 O 269.868 0.569258 -1.85983 0
M  V30 2822 C 270.151 -2.93115 -2.09179 0
M  V30 2823 C 270.004 -4.28794 -1.35853 0
M  V30 2824 C 271.323 -3.12928 -3.09458 0
M  V30 2825 H 268.442 -0.614518 -0.406862 0
M  V30 2826 H 271.084 -1.85633 -0.40503 0
M  V30 2827 H 269.234 -2.78956 -2.70399 0
M  V30 2828 H 270.906 -4.54742 -0.775082 0
M  V30 2829 H 269.149 -4.28744 -0.660364 0
M  V30 2830 H 269.82 -5.11837 -2.06706 0
M  V30 2831 H 272.296 -3.26194 -2.58334 0
M  V30 2832 H 271.172 -4.01316 -3.74482 0
M  V30 2833 H 271.433 -2.27669 -3.78971 0
M  V30 2834 N 270.492 0.636531 -1.44174 0
M  V30 2835 C 271.422 1.76003 -1.53444 0
M  V30 2836 C 272.403 1.65619 -0.387841 0
M  V30 2837 O 273.588 1.84461 -0.607257 0
M  V30 2838 C 270.718 3.14511 -1.4731 0
M  V30 2839 C 269.672 3.39677 -2.60391 0
M  V30 2840 C 268.998 4.78159 -2.39308 0
M  V30 2841 C 270.298 3.32772 -4.02567 0
M  V30 2842 H 271.992 1.68501 -2.47483 0
M  V30 2843 H 269.538 0.809237 -1.19111 0
M  V30 2844 H 271.491 3.92878 -1.52397 0
M  V30 2845 H 270.215 3.22783 -0.49785 0
M  V30 2846 H 268.874 2.63688 -2.54684 0
M  V30 2847 H 268.522 4.83128 -1.39988 0
M  V30 2848 H 268.222 4.95956 -3.15122 0
M  V30 2849 H 269.746 5.58762 -2.46205 0
M  V30 2850 H 271.16 4.01051 -4.09672 0
M  V30 2851 H 269.557 3.62104 -4.7854 0
M  V30 2852 H 270.627 2.30669 -4.2652 0
M  V30 2853 N 271.97 1.30982 0.876444 0
M  V30 2854 C 273.247 1.10942 1.61094 0
M  V30 2855 C 273.627 -0.338223 2.08373 0
M  V30 2856 O 272.975 -1.33122 1.85717 0
M  V30 2857 C 273.185 2.11789 2.77392 0
M  V30 2858 C 274.533 2.43965 3.47514 0
M  V30 2859 O 275.557 2.10166 2.87591 0
M  V30 2860 O 274.416 3.01817 4.55597 0
M  V30 2861 H 271.51 0.42667 0.708436 0
M  V30 2862 H 274.056 1.42438 0.922474 0
M  V30 2863 H 272.828 3.09194 2.39823 0
M  V30 2864 H 272.451 1.81161 3.5393 0
M  V30 2865 N 273.449 -1.08991 1.13837 0
M  V30 2866 C 274.695 -1.81526 0.90422 0
M  V30 2867 C 275.028 -1.85706 -0.568066 0
M  V30 2868 O 274.303 -1.32855 -1.42056 0
M  V30 2869 C 274.586 -3.27447 1.49835 0
M  V30 2870 C 274.439 -3.31512 3.04006 0
M  V30 2871 C 275.758 -4.24256 1.17025 0
M  V30 2872 H 272.877 -0.659029 0.329923 0
M  V30 2873 H 275.519 -1.27644 1.40737 0
M  V30 2874 H 273.669 -3.73462 1.07044 0
M  V30 2875 H 275.341 -2.93867 3.55584 0
M  V30 2876 H 273.584 -2.70963 3.38765 0
M  V30 2877 H 274.255 -4.34329 3.40679 0
M  V30 2878 H 276.731 -3.86549 1.54009 0
M  V30 2879 H 275.607 -5.24684 1.61237 0
M  V30 2880 H 275.868 -4.42019 0.0846274 0
M  V30 2881 N 274.927 -0.932562 -1.27047 0
M  V30 2882 C 276.175 -0.574422 -1.93765 0
M  V30 2883 C 276.496 0.887993 -1.73608 0
M  V30 2884 O 275.766 1.62999 -1.08665 0
M  V30 2885 H 274.346 -0.209451 -0.717035 0
M  V30 2886 H 277.008 -1.18601 -1.5466 0
M  V30 2887 H 276.104 -0.784841 -3.02071 0
M  V30 2888 N 276.405 1.4127 -0.698611 0
M  V30 2889 C 277.653 2.00782 -0.230409 0
M  V30 2890 C 277.974 1.5562 1.17505 0
M  V30 2891 O 277.244 0.78815 1.79346 0
M  V30 2892 H 275.824 0.742464 -0.0821944 0
M  V30 2893 H 278.486 1.72852 -0.90045 0
M  V30 2894 H 277.582 3.11095 -0.25021 0
M  V30 2895 N 277.883 0.443576 1.51229 0
M  V30 2896 C 279.131 -0.120557 2.0174 0
M  V30 2897 C 279.452 -1.42665 1.32935 0
M  V30 2898 O 278.722 -1.9028 0.465866 0
M  V30 2899 H 277.302 -0.0475426 0.745486 0
M  V30 2900 H 279.964 0.587711 1.85828 0
M  V30 2901 H 279.06 -0.291972 3.10731 0
M  V30 2902 N 279.361 -1.56624 0.175154 0
M  V30 2903 C 280.308 -2.18149 -0.753634 0
M  V30 2904 C 281.278 -1.12265 -1.22417 0
M  V30 2905 O 282.463 -1.40432 -1.29165 0
M  V30 2906 C 279.603 -2.82933 -1.97592 0
M  V30 2907 C 278.716 -4.03289 -1.5486 0
M  V30 2908 C 277.851 -4.55988 -2.72485 0
M  V30 2909 C 276.89 -5.68746 -2.26262 0
M  V30 2910 N 276.027 -6.15938 -3.36994 0
M  V30 2911 H 280.867 -2.9717 -0.222195 0
M  V30 2912 H 278.404 -1.46774 -0.0979422 0
M  V30 2913 H 280.362 -3.18653 -2.69288 0
M  V30 2914 H 278.992 -2.06509 -2.481 0
M  V30 2915 H 278.044 -3.73364 -0.728246 0
M  V30 2916 H 279.356 -4.849 -1.16933 0
M  V30 2917 H 278.51 -4.9391 -3.52332 0
M  V30 2918 H 277.249 -3.73443 -3.13674 0
M  V30 2919 H 276.254 -5.30372 -1.44863 0
M  V30 2920 H 277.479 -6.53095 -1.86127 0
M  V30 2921 H 275.425 -5.36321 -3.77751 0
M  V30 2922 H 275.342 -6.92548 -3.03172 0
M  V30 2923 H 276.61 -6.58511 -4.17114 0
M  V30 2924 N 280.839 0.0985539 -1.57292 0
M  V30 2925 C 282.087 0.801092 -1.85545 0
M  V30 2926 C 282.408 1.79438 -0.763353 0
M  V30 2927 O 281.678 1.94763 0.21073 0
M  V30 2928 H 280.258 0.29884 -0.684619 0
M  V30 2929 H 282.92 0.0810064 -1.94732 0
M  V30 2930 H 282.016 1.3338 -2.82163 0
M  V30 2931 N 282.317 1.53212 0.369288 0
M  V30 2932 C 283.565 1.68881 1.11012 0
M  V30 2933 C 283.886 0.441285 1.89941 0
M  V30 2934 O 283.156 -0.544623 1.88177 0
M  V30 2935 H 281.736 0.622569 0.412816 0
M  V30 2936 H 284.398 1.90391 0.416802 0
M  V30 2937 H 283.494 2.54822 1.80201 0
M  V30 2938 N 283.795 -0.628877 1.44509 0
M  V30 2939 C 285.042 -1.38839 1.47411 0
M  V30 2940 C 285.37 -1.94202 0.10757 0
M  V30 2941 O 284.625 -1.74243 -0.890947 0
M  V30 2942 C 284.924 -2.56995 2.48371 0
M  V30 2943 C 284.59 -2.19908 3.93639 0
M  V30 2944 C 283.252 -2.09506 4.33198 0
M  V30 2945 C 285.604 -1.9064 4.85083 0
M  V30 2946 C 282.932 -1.68028 5.62124 0
M  V30 2947 C 285.284 -1.50655 6.14399 0
M  V30 2948 C 283.948 -1.38796 6.5291 0
M  V30 2949 H 283.218 -0.508048 0.539414 0
M  V30 2950 H 285.865 -0.712913 1.77735 0
M  V30 2951 H 284.17 -3.29786 2.11538 0
M  V30 2952 H 285.867 -3.15223 2.47861 0
M  V30 2953 H 282.457 -2.28922 3.62343 0
M  V30 2954 H 286.641 -1.97585 4.55273 0
M  V30 2955 H 281.897 -1.57452 5.90778 0
M  V30 2956 H 286.071 -1.27048 6.84713 0
M  V30 2957 H 283.698 -1.06429 7.52713 0
M  V30 2958 N 285.273 -1.31445 -0.869486 0
M  V30 2959 C 286.236 -1.19094 -1.9583 0
M  V30 2960 C 287.236 -0.117906 -1.60367 0
M  V30 2961 O 288.426 -0.367208 -1.70286 0
M  V30 2962 C 285.558 -0.828165 -3.30688 0
M  V30 2963 H 286.751 -2.15842 -2.08212 0
M  V30 2964 H 284.304 -1.15063 -1.05784 0
M  V30 2965 H 285.039 0.138142 -3.24006 0
M  V30 2966 H 284.824 -1.6038 -3.578 0
M  V30 2967 H 286.314 -0.765658 -4.10521 0
M  V30 2968 N 286.751 1.08385 -1.14413 0
M  V30 2969 C 287.714 2.13486 -0.834048 0
M  V30 2970 C 288.714 1.59988 0.161418 0
M  V30 2971 O 289.904 1.74071 -0.0669575 0
M  V30 2972 C 287.036 3.4003 -0.243354 0
M  V30 2973 H 288.229 2.42425 -1.7655 0
M  V30 2974 H 285.782 1.24101 -0.950189 0
M  V30 2975 H 286.517 3.16726 0.696807 0
M  V30 2976 H 286.302 3.80157 -0.960367 0
M  V30 2977 H 287.792 4.17577 -0.0436242 0
M  V30 2978 N 288.23 0.939286 1.26551 0
M  V30 2979 C 289.193 0.451987 2.24699 0
M  V30 2980 C 290.193 -0.435869 1.5478 0
M  V30 2981 O 291.383 -0.235314 1.72603 0
M  V30 2982 C 288.515 -0.348801 3.39111 0
M  V30 2983 H 289.708 1.3193 2.69322 0
M  V30 2984 H 287.261 0.721072 1.38673 0
M  V30 2985 H 287.996 -1.23444 2.99887 0
M  V30 2986 H 287.781 0.287945 3.91041 0
M  V30 2987 H 289.271 -0.679726 4.12031 0
M  V30 2988 N 289.708 -1.40897 0.706093 0
M  V30 2989 C 290.957 -2.00284 0.238574 0
M  V30 2990 C 291.27 -1.56604 -1.17194 0
M  V30 2991 O 292.476 -2.08624 -1.73748 0
M  V30 2992 C 290.932 -3.57934 0.375623 0
M  V30 2993 C 290.54 -4.10591 1.79217 0
M  V30 2994 C 292.284 -4.24488 -0.0315857 0
M  V30 2995 C 290.191 -5.60712 1.88032 0
M  V30 2996 H 289.121 -0.749144 0.0854398 0
M  V30 2997 H 291.772 -1.61251 0.875813 0
M  V30 2998 H 290.154 -3.94622 -0.330042 0
M  V30 2999 H 291.328 -3.85301 2.52745 0
M  V30 3000 H 289.643 -3.56601 2.15 0
M  V30 3001 H 292.24 -5.34698 0.0136842 0
M  V30 3002 H 292.583 -4.02261 -1.072 0
M  V30 3003 H 293.116 -3.92873 0.624181 0
M  V30 3004 H 289.855 -5.87781 2.90161 0
M  V30 3005 H 289.375 -5.87896 1.18903 0
M  V30 3006 H 291.054 -6.25658 1.64805 0
M  V30 3007 N 291.186 -0.45159 -1.50991 0
M  V30 3008 C 292.149 0.341117 -2.26647 0
M  V30 3009 C 293.149 0.937422 -1.30649 0
M  V30 3010 O 294.339 0.809644 -1.54241 0
M  V30 3011 C 291.471 1.48398 -3.06905 0
M  V30 3012 H 292.664 -0.322117 -2.98165 0
M  V30 3013 H 290.217 -0.205122 -1.54948 0
M  V30 3014 H 290.952 2.18284 -2.39838 0
M  V30 3015 H 290.737 1.06241 -3.77432 0
M  V30 3016 H 292.227 2.04367 -3.64176 0
M  V30 3017 N 292.664 1.56529 -0.183458 0
M  V30 3018 C 294.08 1.58664 0.172554 0
M  V30 3019 C 294.28 1.19925 1.61926 0
M  V30 3020 O 293.336 0.916534 2.35278 0
M  V30 3021 C 294.649 3.00463 -0.119262 0
M  V30 3022 C 296.197 3.12945 -0.0584396 0
M  V30 3023 C 296.672 4.56857 -0.323408 0
M  V30 3024 N 298.163 4.62403 -0.271612 0
M  V30 3025 C 298.898 5.71626 -0.450639 0
M  V30 3026 N 298.394 6.89362 -0.689384 0
M  V30 3027 N 300.187 5.60775 -0.385701 0
M  V30 3028 H 292.338 1.79994 -1.12765 0
M  V30 3029 H 294.601 0.834808 -0.449222 0
M  V30 3030 H 294.307 3.33326 -1.12192 0
M  V30 3031 H 294.181 3.72659 0.583544 0
M  V30 3032 H 296.568 2.79902 0.934805 0
M  V30 3033 H 296.649 2.4316 -0.794144 0
M  V30 3034 H 296.293 4.9061 -1.31392 0
M  V30 3035 H 296.223 5.24816 0.43305 0
M  V30 3036 H 298.714 3.77785 -0.0932256 0
M  V30 3037 H 299.027 7.68489 -0.815113 0
M  V30 3038 H 297.372 6.91196 -0.726142 0
M  V30 3039 H 300.563 4.67674 -0.199687 0
M  V30 3040 H 300.736 6.4584 -0.528646 0
M  V30 3041 N 294.142 -0.090211 1.57342 0
M  V30 3042 C 295.558 -0.444547 1.53284 0
M  V30 3043 C 295.758 -1.80238 0.900914 0
M  V30 3044 O 294.814 -2.4759 0.495513 0
M  V30 3045 C 296.127 -0.402543 2.97993 0
M  V30 3046 C 297.675 -0.48405 3.09234 0
M  V30 3047 C 298.15 -0.472144 4.5556 0
M  V30 3048 N 299.641 -0.532757 4.60126 0
M  V30 3049 C 300.376 -0.545462 5.708 0
M  V30 3050 N 299.872 -0.514082 6.9089 0
M  V30 3051 N 301.665 -0.59064 5.58988 0
M  V30 3052 H 293.816 0.799121 1.96794 0
M  V30 3053 H 296.079 0.297965 0.899956 0
M  V30 3054 H 295.785 0.528106 3.47712 0
M  V30 3055 H 295.659 -1.21969 3.56936 0
M  V30 3056 H 298.046 -1.40512 2.595 0
M  V30 3057 H 298.127 0.361328 2.53235 0
M  V30 3058 H 297.771 0.445 5.05947 0
M  V30 3059 H 297.701 -1.3348 5.09402 0
M  V30 3060 H 300.192 -0.562006 3.73698 0
M  V30 3061 H 300.505 -0.527195 7.71 0
M  V30 3062 H 298.85 -0.481054 6.93333 0
M  V30 3063 H 302.041 -0.61272 4.64073 0
M  V30 3064 H 302.214 -0.597073 6.45243 0
M  V30 3065 N 295.62 -1.53406 -0.361157 0
M  V30 3066 C 296.583 -1.79479 -1.42548 0
M  V30 3067 C 297.583 -0.665327 -1.4639 0
M  V30 3068 O 298.773 -0.933549 -1.47073 0
M  V30 3069 C 295.905 -1.92087 -2.8163 0
M  V30 3070 H 297.098 -2.74538 -1.20701 0
M  V30 3071 H 294.651 -1.4455 -0.594546 0
M  V30 3072 H 295.386 -0.991099 -3.08784 0
M  V30 3073 H 295.171 -2.74241 -2.80239 0
M  V30 3074 H 296.661 -2.13836 -3.58697 0
M  V30 3075 N 297.098 0.621204 -1.44841 0
M  V30 3076 C 298.509 1.20298 -1.42777 0
M  V30 3077 C 298.86 1.95639 -0.148259 0
M  V30 3078 O 297.985 2.02955 0.750892 0
M  V30 3079 C 298.58 2.1882 -2.58657 0
M  V30 3080 C 297.139 2.72403 -2.59756 0
M  V30 3081 C 296.286 1.4757 -2.34773 0
M  V30 3082 H 299.237 0.411297 -1.53278 0
M  V30 3083 H 299.258 3.01607 -2.31977 0
M  V30 3084 H 298.77 1.63957 -3.51766 0
M  V30 3085 H 296.871 3.31242 -1.70615 0
M  V30 3086 H 296.984 3.17765 -3.58556 0
M  V30 3087 H 295.348 1.76051 -1.8406 0
M  V30 3088 H 296.131 0.945954 -3.3001 0
M  V30 3089 N 298.576 1.31904 0.862503 0
M  V30 3090 C 299.526 1.16772 1.95827 0
M  V30 3091 C 300.51 0.0767098 1.60717 0
M  V30 3092 O 301.702 0.302407 1.74398 0
M  V30 3093 C 298.831 0.884858 3.317 0
M  V30 3094 C 297.917 2.0172 3.73055 0
M  V30 3095 N 298.308 3.265 3.86305 0
M  V30 3096 C 296.606 1.91861 4.02623 0
M  V30 3097 C 297.307 4.00616 4.2176 0
M  V30 3098 N 296.283 3.28847 4.32852 0
M  V30 3099 H 300.085 2.11382 2.04193 0
M  V30 3100 H 297.599 1.2357 1.05377 0
M  V30 3101 H 299.596 0.757419 4.09962 0
M  V30 3102 H 298.256 -0.0529448 3.24657 0
M  V30 3103 H 299.267 3.61529 3.70833 0
M  V30 3104 H 295.944 1.05593 4.03926 0
M  V30 3105 H 297.334 5.08182 4.39546 0
M  V30 3106 N 300.054 -1.07777 1.14986 0
M  V30 3107 C 301.3 -1.80557 0.923422 0
M  V30 3108 C 301.633 -1.86298 -0.548337 0
M  V30 3109 O 300.908 -1.34354 -1.40639 0
M  V30 3110 C 301.191 -3.25839 1.53299 0
M  V30 3111 C 301.044 -3.28269 3.07505 0
M  V30 3112 C 302.363 -4.22991 1.21518 0
M  V30 3113 H 299.482 -0.655493 0.336894 0
M  V30 3114 H 302.124 -1.26144 1.42083 0
M  V30 3115 H 300.274 -3.72306 1.10999 0
M  V30 3116 H 301.946 -2.90079 3.58681 0
M  V30 3117 H 300.189 -2.67355 3.4162 0
M  V30 3118 H 300.86 -4.30691 3.45266 0
M  V30 3119 H 303.336 -3.84894 1.581 0
M  V30 3120 H 302.212 -5.22945 1.66793 0
M  V30 3121 H 302.473 -4.41904 0.131505 0
M  V30 3122 N 301.532 -0.945985 -1.26051 0
M  V30 3123 C 302.757 -0.612525 -1.98149 0
M  V30 3124 C 303.182 0.806623 -1.69927 0
M  V30 3125 O 302.54 1.54411 -0.950108 0
M  V30 3126 C 302.588 -0.866981 -3.50023 0
M  V30 3127 O 301.692 0.0585333 -4.12358 0
M  V30 3128 H 301.033 -0.23379 -0.621481 0
M  V30 3129 H 303.563 -1.27023 -1.60395 0
M  V30 3130 H 303.573 -0.789792 -4.00283 0
M  V30 3131 H 302.248 -1.90135 -3.69894 0
M  V30 3132 H 300.825 -0.0701241 -3.72834 0
M  V30 3133 N 303.011 1.40521 -0.713556 0
M  V30 3134 C 303.974 2.29098 -0.0684347 0
M  V30 3135 C 304.974 1.45268 0.689472 0
M  V30 3136 O 306.164 1.66205 0.521677 0
M  V30 3137 C 303.296 3.28446 0.913024 0
M  V30 3138 H 304.489 2.87645 -0.84855 0
M  V30 3139 H 302.042 1.48809 -0.47809 0
M  V30 3140 H 302.777 2.74913 1.72027 0
M  V30 3141 H 302.562 3.90327 0.372472 0
M  V30 3142 H 304.052 3.94777 1.36165 0
M  V30 3143 N 304.489 0.459591 1.5075 0
M  V30 3144 C 305.717 -0.0973749 2.06671 0
M  V30 3145 C 306.132 -1.34524 1.32472 0
M  V30 3146 O 305.489 -1.7827 0.390634 0
M  V30 3147 C 305.54 -0.39714 3.59312 0
M  V30 3148 O 305.261 0.801214 4.30711 0
M  V30 3149 C 306.762 -1.00234 4.31819 0
M  V30 3150 H 303.982 0.00195854 0.670997 0
M  V30 3151 H 306.526 0.645072 1.94059 0
M  V30 3152 H 304.681 -1.08951 3.71764 0
M  V30 3153 H 305.095 0.538857 5.21725 0
M  V30 3154 H 306.569 -1.16193 5.39632 0
M  V30 3155 H 307.046 -1.98939 3.91561 0
M  V30 3156 H 307.652 -0.348699 4.23868 0
M  V30 3157 N 305.967 -1.56429 0.191757 0
M  V30 3158 C 307.213 -1.97777 -0.448554 0
M  V30 3159 C 307.546 -1.07847 -1.61501 0
M  V30 3160 O 306.821 -0.129774 -1.94067 0
M  V30 3161 C 307.104 -3.48362 -0.911906 0
M  V30 3162 C 306.957 -4.4907 0.256136 0
M  V30 3163 C 308.276 -4.02561 -1.77857 0
M  V30 3164 H 305.395 -0.719071 -0.161572 0
M  V30 3165 H 308.037 -1.87896 0.282007 0
M  V30 3166 H 306.187 -3.56914 -1.53442 0
M  V30 3167 H 307.859 -4.5256 0.893733 0
M  V30 3168 H 306.102 -4.24181 0.908436 0
M  V30 3169 H 306.773 -5.51889 -0.11053 0
M  V30 3170 H 309.249 -3.96767 -1.25359 0
M  V30 3171 H 308.125 -5.08301 -2.07174 0
M  V30 3172 H 308.386 -3.47616 -2.73158 0
M  V30 3173 N 307.445 0.0818655 -1.57387 0
M  V30 3174 C 308.375 1.09885 -2.06028 0
M  V30 3175 C 309.356 1.4098 -0.951774 0
M  V30 3176 O 310.541 1.50781 -1.22387 0
M  V30 3177 C 307.671 2.4151 -2.4958 0
M  V30 3178 C 306.625 2.24792 -3.64215 0
M  V30 3179 C 305.951 3.61712 -3.93787 0
M  V30 3180 C 307.251 1.67749 -4.94629 0
M  V30 3181 H 308.945 0.694128 -2.91243 0
M  V30 3182 H 306.491 0.332448 -1.4011 0
M  V30 3183 H 308.444 3.12939 -2.82219 0
M  V30 3184 H 307.168 2.83943 -1.61381 0
M  V30 3185 H 305.827 1.55807 -3.31843 0
M  V30 3186 H 305.475 4.01697 -3.02735 0
M  V30 3187 H 305.175 3.51368 -4.70971 0
M  V30 3188 H 306.699 4.34587 -4.28913 0
M  V30 3189 H 308.113 2.29032 -5.25564 0
M  V30 3190 H 306.51 1.68128 -5.76067 0
M  V30 3191 H 307.58 0.638059 -4.80684 0
M  V30 3192 N 308.923 1.53595 0.353017 0
M  V30 3193 C 309.833 1.83897 1.45667 0
M  V30 3194 C 310.849 0.728334 1.58023 0
M  V30 3195 O 312.025 1.01968 1.73679 0
M  V30 3196 C 309.09 2.03383 2.80778 0
M  V30 3197 C 308.151 3.27262 2.77845 0
M  V30 3198 C 307.384 3.45809 4.06512 0
M  V30 3199 O 307.607 2.68387 5.03314 0
M  V30 3200 O 306.541 4.39207 4.11559 0
M  V30 3201 H 310.367 2.77686 1.2298 0
M  V30 3202 H 307.952 1.39132 0.544308 0
M  V30 3203 H 309.834 2.17698 3.60812 0
M  V30 3204 H 308.509 1.12783 3.03417 0
M  V30 3205 H 307.416 3.18359 1.96465 0
M  V30 3206 H 308.749 4.17824 2.60161 0
M  V30 3207 N 310.401 -0.613514 1.45168 0
M  V30 3208 C 311.334 -1.73809 1.47871 0
M  V30 3209 C 312.312 -1.59097 0.33568 0
M  V30 3210 O 313.496 -1.8074 0.535299 0
M  V30 3211 C 310.623 -3.11574 1.32813 0
M  V30 3212 C 309.669 -3.4489 2.50905 0
M  V30 3213 S 310.502 -3.40393 4.13392 0
M  V30 3214 C 311.658 -4.80749 4.00789 0
M  V30 3215 H 311.891 -1.71252 2.43023 0
M  V30 3216 H 309.424 -0.789658 1.32679 0
M  V30 3217 H 311.382 -3.91065 1.24812 0
M  V30 3218 H 310.043 -3.11652 0.391418 0
M  V30 3219 H 309.236 -4.45183 2.36279 0
M  V30 3220 H 308.838 -2.72901 2.55736 0
M  V30 3221 H 311.13 -5.7041 3.65567 0
M  V30 3222 H 312.073 -5.00431 5.00974 0
M  V30 3223 H 312.481 -4.56151 3.32545 0
M  V30 3224 N 311.879 -1.3236 -0.855495 0
M  V30 3225 C 312.842 -1.21164 -1.94556 0
M  V30 3226 C 313.842 -0.134908 -1.60233 0
M  V30 3227 O 315.032 -0.385249 -1.69887 0
M  V30 3228 C 312.164 -0.863192 -3.29791 0
M  V30 3229 H 313.357 -2.18038 -2.05911 0
M  V30 3230 H 310.91 -1.16179 -1.04557 0
M  V30 3231 H 311.645 0.103769 -3.24134 0
M  V30 3232 H 311.43 -1.64166 -3.56078 0
M  V30 3233 H 312.92 -0.809156 -4.09686 0
M  V30 3234 N 313.357 1.07166 -1.15556 0
M  V30 3235 C 314.605 1.79443 -0.929764 0
M  V30 3236 C 314.926 1.87246 0.544414 0
M  V30 3237 O 314.196 1.37473 1.39564 0
M  V30 3238 H 312.776 0.664625 -0.341003 0
M  V30 3239 H 315.438 1.29499 -1.45657 0
M  V30 3240 H 314.534 2.81832 -1.34079 0
M  V30 3241 N 314.835 0.952656 1.25548 0
M  V30 3242 C 316.063 0.623496 1.97282 0
M  V30 3243 C 316.478 -0.803987 1.70826 0
M  V30 3244 O 315.835 -1.53755 0.983147 0
M  V30 3245 C 315.886 0.870209 3.5087 0
M  V30 3246 O 315.607 2.24156 3.76412 0
M  V30 3247 C 317.108 0.553164 4.39835 0
M  V30 3248 H 314.328 0.233931 0.628902 0
M  V30 3249 H 316.872 1.27649 1.59768 0
M  V30 3250 H 315.027 0.263652 3.86502 0
M  V30 3251 H 315.441 2.31021 4.70882 0
M  V30 3252 H 316.915 0.776342 5.46513 0
M  V30 3253 H 317.392 -0.512215 4.36203 0
M  V30 3254 H 317.998 1.13896 4.09766 0
M  V30 3255 N 316.313 -1.40141 0.720998 0
M  V30 3256 C 317.559 -2.01084 0.263231 0
M  V30 3257 C 317.892 -1.57052 -1.14229 0
M  V30 3258 O 317.167 -0.793027 -1.77599 0
M  V30 3259 C 317.45 -3.58401 0.349344 0
M  V30 3260 C 317.303 -4.12491 1.79363 0
M  V30 3261 C 318.622 -4.39231 -0.276351 0
M  V30 3262 H 315.741 -0.730572 0.0971228 0
M  V30 3263 H 318.383 -1.66543 0.914518 0
M  V30 3264 H 316.533 -3.87958 -0.205165 0
M  V30 3265 H 318.205 -3.93711 2.40394 0
M  V30 3266 H 316.448 -3.66576 2.31958 0
M  V30 3267 H 317.119 -5.21646 1.80524 0
M  V30 3268 H 319.595 -4.15637 0.196184 0
M  V30 3269 H 318.471 -5.48586 -0.185681 0
M  V30 3270 H 318.732 -4.20643 -1.36059 0
M  V30 3271 N 317.792 -0.46758 -1.50504 0
M  V30 3272 C 319.069 0.15003 -1.95024 0
M  V30 3273 C 319.449 1.57304 -1.40779 0
M  V30 3274 O 318.797 2.20281 -0.607319 0
M  V30 3275 C 319.007 0.0969324 -3.48865 0
M  V30 3276 C 320.355 0.287565 -4.23625 0
M  V30 3277 O 321.379 0.173678 -3.55776 0
M  V30 3278 O 320.238 0.517186 -5.44047 0
M  V30 3279 H 317.332 0.113582 -0.819163 0
M  V30 3280 H 319.878 -0.52773 -1.61286 0
M  V30 3281 H 318.65 -0.896732 -3.80886 0
M  V30 3282 H 318.273 0.816303 -3.8913 0
M  V30 3283 N 319.27 1.56325 -0.20005 0
M  V30 3284 C 320.498 2.02105 0.442874 0
M  V30 3285 C 320.913 1.08014 1.5485 0
M  V30 3286 O 320.27 0.0858797 1.82298 0
M  V30 3287 C 320.321 3.47549 0.994583 0
M  V30 3288 O 320.042 4.38049 -0.0669322 0
M  V30 3289 C 321.543 4.0887 1.7129 0
M  V30 3290 H 318.763 0.661807 0.110691 0
M  V30 3291 H 321.307 2.02134 -0.310207 0
M  V30 3292 H 319.462 3.48204 1.69803 0
M  V30 3293 H 319.876 5.23368 0.344462 0
M  V30 3294 H 321.35 5.12475 2.05118 0
M  V30 3295 H 321.827 3.52615 2.61838 0
M  V30 3296 H 322.433 4.12002 1.05518 0
M  V30 3297 N 320.748 -0.0735177 1.57428 0
M  V30 3298 C 321.711 -1.07192 2.02589 0
M  V30 3299 C 322.711 -1.31695 0.922661 0
M  V30 3300 O 323.901 -1.27445 1.18758 0
M  V30 3301 C 321.033 -2.41599 2.40506 0
M  V30 3302 H 322.226 -0.682727 2.92025 0
M  V30 3303 H 319.779 -0.319193 1.53006 0
M  V30 3304 H 320.514 -2.85354 1.5409 0
M  V30 3305 H 320.299 -2.25156 3.21009 0
M  V30 3306 H 321.789 -3.13367 2.76027 0
M  V30 3307 N 322.226 -1.5378 -0.344866 0
M  V30 3308 C 323.642 -1.44015 -0.687888 0
M  V30 3309 C 323.842 -0.595834 -1.92489 0
M  V30 3310 O 322.898 -0.0863064 -2.52352 0
M  V30 3311 C 324.211 -2.87481 -0.881758 0
M  V30 3312 C 325.759 -2.97247 -0.980459 0
M  V30 3313 C 326.234 -4.41819 -1.20665 0
M  V30 3314 N 327.725 -4.45339 -1.27389 0
M  V30 3315 C 328.46 -5.54333 -1.46639 0
M  V30 3316 N 327.956 -6.73335 -1.63071 0
M  V30 3317 N 329.749 -5.41944 -1.49176 0
M  V30 3318 H 321.9 -2.07169 0.468475 0
M  V30 3319 H 324.163 -0.93643 0.147655 0
M  V30 3320 H 323.869 -3.51672 -0.0443444 0
M  V30 3321 H 323.743 -3.32352 -1.78388 0
M  V30 3322 H 326.13 -2.33197 -1.8084 0
M  V30 3323 H 326.211 -2.5574 -0.0552713 0
M  V30 3324 H 325.855 -5.06449 -0.383652 0
M  V30 3325 H 325.785 -4.80917 -2.14539 0
M  V30 3326 H 328.276 -3.59585 -1.1622 0
M  V30 3327 H 328.589 -7.52165 -1.77391 0
M  V30 3328 H 326.934 -6.76282 -1.60209 0
M  V30 3329 H 330.125 -4.47932 -1.3592 0
M  V30 3330 H 330.298 -6.26946 -1.63837 0
M  V30 3331 N 323.704 0.605807 -1.45491 0
M  V30 3332 C 324.929 1.39625 -1.53361 0
M  V30 3333 C 325.354 1.87351 -0.167645 0
M  V30 3334 O 324.712 1.60243 0.848051 0
M  V30 3335 C 324.76 2.57559 -2.5238 0
M  V30 3336 O 323.864 3.58248 -2.04285 0
M  V30 3337 H 323.205 0.416771 -0.516912 0
M  V30 3338 H 325.735 0.737103 -1.90861 0
M  V30 3339 H 325.745 3.0478 -2.71244 0
M  V30 3340 H 324.42 2.22171 -3.51586 0
M  V30 3341 H 322.997 3.17664 -1.95305 0
M  V30 3342 N 325.182 1.32811 0.848464 0
M  V30 3343 C 326.412 1.26556 1.63301 0
M  V30 3344 C 326.82 -0.1676 1.88456 0
M  V30 3345 O 326.163 -1.11713 1.45828 0
M  V30 3346 C 326.225 1.96202 3.01239 0
M  V30 3347 C 325.889 3.45528 2.99098 0
M  V30 3348 C 326.886 4.40903 2.75501 0
M  V30 3349 C 324.571 3.87558 3.19537 0
M  V30 3350 C 326.565 5.76282 2.72356 0
M  V30 3351 C 324.252 5.23044 3.16019 0
M  V30 3352 C 325.25 6.17217 2.92458 0
M  V30 3353 O 324.938 7.50223 2.88825 0
M  V30 3354 H 324.67 0.43771 0.515156 0
M  V30 3355 H 327.224 1.7559 1.0657 0
M  V30 3356 H 325.454 1.41746 3.59785 0
M  V30 3357 H 327.143 1.83573 3.62016 0
M  V30 3358 H 327.909 4.09756 2.5947 0
M  V30 3359 H 323.788 3.14674 3.369 0
M  V30 3360 H 327.332 6.4976 2.53886 0
M  V30 3361 H 323.229 5.53818 3.31596 0
M  V30 3362 H 323.997 7.59657 3.04735 0
M  V30 3363 N 326.66 -1.06551 1.16123 0
M  V30 3364 C 327.59 -2.15935 0.88851 0
M  V30 3365 C 328.571 -1.69306 -0.164135 0
M  V30 3366 O 329.756 -1.94193 -0.0167857 0
M  V30 3367 C 326.886 -3.45149 0.385942 0
M  V30 3368 C 325.84 -4.05271 1.3762 0
M  V30 3369 C 325.166 -5.29664 0.732137 0
M  V30 3370 C 326.466 -4.44355 2.74493 0
M  V30 3371 H 328.16 -2.39006 1.80323 0
M  V30 3372 H 325.706 -1.14866 0.868435 0
M  V30 3373 H 327.659 -4.21004 0.182647 0
M  V30 3374 H 326.383 -3.21689 -0.564274 0
M  V30 3375 H 325.042 -3.3147 1.56599 0
M  V30 3376 H 324.69 -5.02499 -0.224483 0
M  V30 3377 H 324.39 -5.70848 1.39307 0
M  V30 3378 H 325.914 -6.08218 0.538802 0
M  V30 3379 H 327.328 -5.11303 2.59311 0
M  V30 3380 H 325.725 -4.96515 3.37035 0
M  V30 3381 H 326.795 -3.55339 3.29943 0
M  V30 3382 N 328.138 -0.959301 -1.25041 0
M  V30 3383 C 329.085 -0.482057 -2.2571 0
M  V30 3384 C 330.055 0.467939 -1.59372 0
M  V30 3385 O 331.24 0.380159 -1.86974 0
M  V30 3386 C 328.38 0.229623 -3.44335 0
M  V30 3387 C 327.493 -0.758156 -4.25295 0
M  V30 3388 C 326.628 -0.0234403 -5.31195 0
M  V30 3389 C 325.667 -1.00184 -6.03846 0
M  V30 3390 N 324.804 -0.29769 -7.01469 0
M  V30 3391 H 329.644 -1.34538 -2.65901 0
M  V30 3392 H 327.181 -0.674592 -1.3072 0
M  V30 3393 H 329.139 0.658856 -4.11965 0
M  V30 3394 H 327.769 1.05696 -3.05005 0
M  V30 3395 H 326.821 -1.30586 -3.57284 0
M  V30 3396 H 328.133 -1.50458 -4.75567 0
M  V30 3397 H 327.287 0.464201 -6.04922 0
M  V30 3398 H 326.026 0.755741 -4.81809 0
M  V30 3399 H 325.031 -1.50044 -5.2893 0
M  V30 3400 H 326.256 -1.78133 -6.55321 0
M  V30 3401 H 324.202 0.462668 -6.54366 0
M  V30 3402 H 324.119 -0.983128 -7.4958 0
M  V30 3403 H 325.387 0.16826 -7.79318 0
M  V30 3404 N 329.616 1.39756 -0.72842 0
M  V30 3405 C 330.893 1.94574 -0.200079 0
M  V30 3406 C 331.273 1.66569 1.29684 0
M  V30 3407 O 330.621 0.990326 2.05924 0
M  V30 3408 C 330.831 3.45004 -0.526608 0
M  V30 3409 C 332.179 4.21965 -0.472318 0
M  V30 3410 O 333.203 3.53173 -0.463413 0
M  V30 3411 O 332.062 5.44552 -0.461075 0
M  V30 3412 H 329.156 0.826289 -0.0342851 0
M  V30 3413 H 331.702 1.49293 -0.806829 0
M  V30 3414 H 330.474 3.58796 -1.56144 0
M  V30 3415 H 330.097 3.97449 0.109449 0
M  V30 3416 N 331.094 0.475555 1.50254 0
M  V30 3417 C 332.004 -0.321501 2.32387 0
M  V30 3418 C 333.02 -0.991755 1.42969 0
M  V30 3419 O 334.196 -0.978747 1.76018 0
M  V30 3420 C 331.261 -1.38667 3.17762 0
M  V30 3421 C 330.322 -0.732538 4.23004 0
M  V30 3422 C 329.555 -1.74695 5.04299 0
M  V30 3423 O 329.778 -2.97399 4.86734 0
M  V30 3424 O 328.712 -1.31631 5.8733 0
M  V30 3425 H 332.538 0.350071 3.01676 0
M  V30 3426 H 330.123 0.237321 1.47503 0
M  V30 3427 H 332.005 -2.00354 3.70724 0
M  V30 3428 H 330.68 -2.04163 2.51196 0
M  V30 3429 H 329.587 -0.0765902 3.74022 0
M  V30 3430 H 330.92 -0.120452 4.92053 0
M  V30 3431 N 332.573 -1.56217 0.208337 0
M  V30 3432 C 333.821 -1.97558 -0.426076 0
M  V30 3433 C 334.142 -1.09683 -1.61229 0
M  V30 3434 O 333.412 -0.170956 -1.95153 0
M  V30 3435 H 331.992 -0.729575 -0.160405 0
M  V30 3436 H 334.654 -1.92606 0.298155 0
M  V30 3437 H 333.75 -3.02672 -0.761312 0
M  V30 3438 N 334.051 0.0651679 -1.57465 0
M  V30 3439 C 334.981 1.07693 -2.07182 0
M  V30 3440 C 335.962 1.39962 -0.966673 0
M  V30 3441 O 337.147 1.49475 -1.2398 0
M  V30 3442 C 334.277 2.3885 -2.52127 0
M  V30 3443 C 333.231 2.20917 -3.66579 0
M  V30 3444 C 332.557 3.57515 -3.97601 0
M  V30 3445 C 333.857 1.62493 -4.9638 0
M  V30 3446 H 335.551 0.663199 -2.91962 0
M  V30 3447 H 333.097 0.317569 -1.40455 0
M  V30 3448 H 335.05 3.09928 -2.85522 0
M  V30 3449 H 333.774 2.82215 -1.64384 0
M  V30 3450 H 332.433 1.52279 -3.33477 0
M  V30 3451 H 332.081 3.98463 -3.06979 0
M  V30 3452 H 331.781 3.46353 -4.74672 0
M  V30 3453 H 333.305 4.30013 -4.33499 0
M  V30 3454 H 334.719 2.23445 -5.27963 0
M  V30 3455 H 333.116 1.62009 -5.77818 0
M  V30 3456 H 334.186 0.587041 -4.81333 0
M  V30 3457 N 335.529 1.53961 0.336706 0
M  V30 3458 C 336.754 1.75797 1.10046 0
M  V30 3459 C 337.179 0.498985 1.81361 0
M  V30 3460 O 336.537 -0.548769 1.72795 0
M  V30 3461 C 336.585 2.94257 2.08436 0
M  V30 3462 O 335.689 2.64883 3.16087 0
M  V30 3463 H 335.03 0.582936 0.317934 0
M  V30 3464 H 337.56 2.00945 0.38501 0
M  V30 3465 H 337.57 3.21237 2.51537 0
M  V30 3466 H 336.245 3.85564 1.55927 0
M  V30 3467 H 334.822 2.48812 2.77753 0
M  V30 3468 N 337.007 -0.598083 1.45811 0
M  V30 3469 C 338.284 -1.35777 1.40797 0
M  V30 3470 C 338.664 -2.10935 0.083462 0
M  V30 3471 O 338.012 -2.08505 -0.934763 0
M  V30 3472 C 338.222 -2.29666 2.62783 0
M  V30 3473 C 339.57 -2.91977 3.08277 0
M  V30 3474 O 340.594 -2.39984 2.63223 0
M  V30 3475 O 339.453 -3.86376 3.86491 0
M  V30 3476 H 336.547 -0.609291 0.55919 0
M  V30 3477 H 339.093 -0.620379 1.57954 0
M  V30 3478 H 337.865 -1.73454 3.50756 0
M  V30 3479 H 337.488 -3.1077 2.48008 0
M  V30 3480 N 338.485 -1.33259 -0.841409 0
M  V30 3481 C 339.901 -1.12538 -1.13169 0
M  V30 3482 C 340.101 0.0854037 -2.01319 0
M  V30 3483 O 339.157 0.766417 -2.40587 0
M  V30 3484 C 340.47 -2.41156 -1.79623 0
M  V30 3485 C 342.018 -2.47038 -1.922 0
M  V30 3486 C 342.493 -3.7561 -2.6207 0
M  V30 3487 N 343.984 -3.76667 -2.69585 0
M  V30 3488 C 344.719 -4.72861 -3.2433 0
M  V30 3489 N 344.215 -5.79428 -3.79783 0
M  V30 3490 N 346.008 -4.6034 -3.22558 0
M  V30 3491 H 338.159 -2.10868 -0.254676 0
M  V30 3492 H 340.422 -0.931615 -0.175493 0
M  V30 3493 H 340.128 -3.29747 -1.22311 0
M  V30 3494 H 340.002 -2.53114 -2.79666 0
M  V30 3495 H 342.389 -1.58898 -2.48667 0
M  V30 3496 H 342.47 -2.39022 -0.911148 0
M  V30 3497 H 342.114 -4.64131 -2.06263 0
M  V30 3498 H 342.044 -3.80902 -3.63622 0
M  V30 3499 H 344.535 -2.99648 -2.30259 0
M  V30 3500 H 344.848 -6.48867 -4.19752 0
M  V30 3501 H 343.193 -5.83166 -3.78078 0
M  V30 3502 H 346.384 -3.76244 -2.78492 0
M  V30 3503 H 346.557 -5.35478 -3.64921 0
M  V30 3504 N 339.963 1.05934 -1.16686 0
M  V30 3505 C 341.209 1.79065 -0.95203 0
M  V30 3506 C 341.542 1.87147 0.518629 0
M  V30 3507 O 340.817 1.36574 1.38484 0
M  V30 3508 C 341.1 3.23359 -1.58464 0
M  V30 3509 C 340.953 3.23336 -3.12689 0
M  V30 3510 C 342.272 4.21004 -1.28232 0
M  V30 3511 H 339.391 0.65005 -0.34728 0
M  V30 3512 H 342.033 1.23868 -1.44072 0
M  V30 3513 H 340.183 3.70493 -1.16908 0
M  V30 3514 H 341.855 2.84336 -3.6325 0
M  V30 3515 H 340.098 2.61886 -3.4583 0
M  V30 3516 H 340.769 4.25144 -3.52075 0
M  V30 3517 H 343.245 3.8233 -1.64203 0
M  V30 3518 H 342.121 5.20225 -1.75092 0
M  V30 3519 H 342.382 4.41639 -0.201791 0
M  V30 3520 N 341.441 0.965919 1.2453 0
M  V30 3521 C 342.718 0.543777 1.87889 0
M  V30 3522 C 343.098 -0.97909 1.87021 0
M  V30 3523 O 342.446 -1.84969 1.3416 0
M  V30 3524 C 342.656 1.13327 3.30088 0
M  V30 3525 C 344.004 1.21707 4.06783 0
M  V30 3526 O 345.028 1.08566 3.39252 0
M  V30 3527 O 343.887 1.42456 5.27606 0
M  V30 3528 H 340.981 0.181054 0.806938 0
M  V30 3529 H 343.527 1.06007 1.32516 0
M  V30 3530 H 342.299 2.17612 3.25209 0
M  V30 3531 H 341.922 0.600911 3.93033 0
M  V30 3532 N 342.919 -1.39368 0.735821 0
M  V30 3533 C 344.165 -2.00794 0.284544 0
M  V30 3534 C 344.498 -1.58255 -1.12557 0
M  V30 3535 O 343.773 -0.811819 -1.76748 0
M  V30 3536 C 344.056 -3.58011 0.387337 0
M  V30 3537 C 343.909 -4.10566 1.83728 0
M  V30 3538 C 345.228 -4.395 -0.22975 0
M  V30 3539 H 342.347 -0.729501 0.104866 0
M  V30 3540 H 344.989 -1.65564 0.93213 0
M  V30 3541 H 343.139 -3.88154 -0.164006 0
M  V30 3542 H 344.811 -3.91139 2.44556 0
M  V30 3543 H 343.054 -3.64095 2.35833 0
M  V30 3544 H 343.725 -5.19702 1.86047 0
M  V30 3545 H 346.201 -4.15406 0.240257 0
M  V30 3546 H 345.077 -5.48752 -0.127485 0
M  V30 3547 H 345.338 -4.22062 -1.3159 0
M  V30 3548 N 344.397 -0.483516 -1.5 0
M  V30 3549 C 345.643 0.0672592 -2.02688 0
M  V30 3550 C 345.976 1.38247 -1.36387 0
M  V30 3551 O 345.251 1.88131 -0.493675 0
M  V30 3552 C 345.534 0.238109 -3.59312 0
M  V30 3553 C 345.387 -1.099 -4.36168 0
M  V30 3554 C 346.706 0.986916 -4.28892 0
M  V30 3555 H 343.825 0.0229696 -0.736642 0
M  V30 3556 H 346.467 -0.631527 -1.79197 0
M  V30 3557 H 344.617 0.8333 -3.79458 0
M  V30 3558 H 346.289 -1.73172 -4.27562 0
M  V30 3559 H 344.532 -1.69261 -3.99416 0
M  V30 3560 H 345.203 -0.932954 -5.44059 0
M  V30 3561 H 347.679 0.482302 -4.13295 0
M  V30 3562 H 346.555 1.07527 -5.38265 0
M  V30 3563 H 346.816 2.0265 -3.92919 0
M  V30 3564 N 345.875 1.56104 -0.216619 0
M  V30 3565 C 346.785 2.23694 0.706982 0
M  V30 3566 C 347.801 1.24295 1.21765 0
M  V30 3567 O 348.977 1.57094 1.2603 0
M  V30 3568 C 346.042 2.8998 1.90033 0
M  V30 3569 C 345.103 4.04708 1.43213 0
M  V30 3570 C 344.336 4.67824 2.56859 0
M  V30 3571 O 344.559 4.29913 3.74874 0
M  V30 3572 O 343.493 5.56905 2.28343 0
M  V30 3573 H 347.319 3.03272 0.161235 0
M  V30 3574 H 344.904 1.49394 0.0136177 0
M  V30 3575 H 346.786 3.31837 2.59735 0
M  V30 3576 H 345.461 2.13365 2.43428 0
M  V30 3577 H 344.368 3.6743 0.70327 0
M  V30 3578 H 345.701 4.83051 0.944615 0
M  V30 3579 N 347.353 -0.0568162 1.57498 0
M  V30 3580 C 348.601 -0.751617 1.87604 0
M  V30 3581 C 348.922 -1.77351 0.81066 0
M  V30 3582 O 348.192 -1.95254 -0.159018 0
M  V30 3583 H 346.772 -0.280583 0.692302 0
M  V30 3584 H 349.434 -0.0293483 1.94878 0
M  V30 3585 H 348.53 -1.25852 2.856 0
M  V30 3586 N 348.832 -1.54138 -0.328536 0
M  V30 3587 C 350.109 -1.62749 -1.08499 0
M  V30 3588 C 350.489 -0.458198 -2.06067 0
M  V30 3589 O 349.837 0.548046 -2.2183 0
M  V30 3590 C 350.047 -2.99519 -1.79135 0
M  V30 3591 C 351.395 -3.55394 -2.32337 0
M  V30 3592 O 352.419 -3.01792 -1.89209 0
M  V30 3593 O 351.278 -4.49186 -3.11279 0
M  V30 3594 H 348.372 -0.65886 -0.499832 0
M  V30 3595 H 350.918 -1.66484 -0.328826 0
M  V30 3596 H 349.69 -3.76061 -1.08139 0
M  V30 3597 H 349.313 -2.99441 -2.61574 0
M  V30 3598 N 350.31 0.590341 -1.46126 0
M  V30 3599 C 351.557 1.34882 -1.5104 0
M  V30 3600 C 351.885 1.93849 -0.159021 0
M  V30 3601 O 351.14 1.76544 0.844436 0
M  V30 3602 C 351.439 2.5032 -2.55097 0
M  V30 3603 C 351.105 2.09394 -3.99331 0
M  V30 3604 C 349.767 1.97947 -4.38601 0
M  V30 3605 C 352.119 1.77712 -4.89967 0
M  V30 3606 C 349.447 1.53065 -5.66381 0
M  V30 3607 C 351.799 1.34312 -6.18177 0
M  V30 3608 C 350.463 1.21436 -6.56361 0
M  V30 3609 H 349.733 0.493568 -0.552695 0
M  V30 3610 H 352.38 0.665539 -1.79563 0
M  V30 3611 H 350.685 3.24062 -2.20207 0
M  V30 3612 H 352.382 3.08541 -2.56132 0
M  V30 3613 H 348.972 2.19235 -3.68285 0
M  V30 3614 H 353.156 1.85445 -4.60352 0
M  V30 3615 H 348.412 1.41733 -5.94745 0
M  V30 3616 H 352.586 1.08849 -6.87841 0
M  V30 3617 H 350.213 0.864345 -7.5527 0
M  V30 3618 N 351.788 1.33704 0.83433 0
M  V30 3619 C 353.035 1.25417 1.58987 0
M  V30 3620 C 353.363 -0.178869 1.93676 0
M  V30 3621 O 352.618 -1.13723 1.59265 0
M  V30 3622 C 352.917 2.07926 2.90692 0
M  V30 3623 C 352.583 3.57066 2.75345 0
M  V30 3624 C 351.245 3.97724 2.70867 0
M  V30 3625 C 353.597 4.51817 2.59828 0
M  V30 3626 C 350.925 5.31344 2.48778 0
M  V30 3627 C 353.277 5.85604 2.39272 0
M  V30 3628 C 351.941 6.25439 2.33199 0
M  V30 3629 H 351.211 0.458934 0.581774 0
M  V30 3630 H 353.858 1.65335 0.966261 0
M  V30 3631 H 352.163 1.608 3.57282 0
M  V30 3632 H 353.86 1.98868 3.48213 0
M  V30 3633 H 350.45 3.24785 2.79665 0
M  V30 3634 H 354.634 4.21311 2.62319 0
M  V30 3635 H 349.89 5.61241 2.42526 0
M  V30 3636 H 354.064 6.58623 2.2625 0
M  V30 3637 H 351.691 7.28914 2.15843 0
M  V30 3638 N 353.266 -1.05314 1.17247 0
M  V30 3639 C 354.176 -2.16538 0.90268 0
M  V30 3640 C 355.192 -1.73523 -0.128707 0
M  V30 3641 O 356.368 -2.01337 0.0502701 0
M  V30 3642 C 353.433 -3.44167 0.418356 0
M  V30 3643 C 352.494 -4.01635 1.51618 0
M  V30 3644 C 351.727 -5.23171 1.05487 0
M  V30 3645 O 351.95 -5.70327 -0.0914715 0
M  V30 3646 O 350.884 -5.72848 1.8474 0
M  V30 3647 H 354.71 -2.42145 1.83302 0
M  V30 3648 H 352.295 -1.15037 0.953246 0
M  V30 3649 H 354.177 -4.21112 0.155726 0
M  V30 3650 H 352.852 -3.20063 -0.48385 0
M  V30 3651 H 351.759 -3.26135 1.83268 0
M  V30 3652 H 353.092 -4.30053 2.39405 0
M  V30 3653 N 354.744 -0.972509 -1.24016 0
M  V30 3654 C 356.155 -0.67517 -1.74064 0
M  V30 3655 C 356.506 0.808939 -1.78747 0
M  V30 3656 O 355.631 1.63286 -1.42009 0
M  V30 3657 C 356.226 -1.21889 -3.16115 0
M  V30 3658 C 354.785 -0.971358 -3.6365 0
M  V30 3659 C 353.932 -1.35134 -2.42145 0
M  V30 3660 H 356.883 -1.14727 -1.09651 0
M  V30 3661 H 356.904 -0.587489 -3.75937 0
M  V30 3662 H 356.416 -2.29906 -3.12674 0
M  V30 3663 H 354.517 0.0930686 -3.72484 0
M  V30 3664 H 354.63 -1.62039 -4.50866 0
M  V30 3665 H 352.994 -0.769751 -2.4279 0
M  V30 3666 H 353.777 -2.4411 -2.41381 0
M  V30 3667 N 356.222 1.38976 -0.743202 0
M  V30 3668 C 357.152 2.33171 -0.123873 0
M  V30 3669 C 358.133 1.54336 0.71516 0
M  V30 3670 O 359.318 1.82696 0.658467 0
M  V30 3671 C 356.448 3.38474 0.777978 0
M  V30 3672 C 355.402 4.27979 0.0424758 0
M  V30 3673 C 354.728 5.2405 1.06189 0
M  V30 3674 C 356.028 5.10155 -1.1198 0
M  V30 3675 H 357.722 2.85213 -0.910709 0
M  V30 3676 H 355.268 1.37133 -0.439388 0
M  V30 3677 H 357.221 4.03328 1.22084 0
M  V30 3678 H 355.945 2.84891 1.59702 0
M  V30 3679 H 354.604 3.64616 -0.380853 0
M  V30 3680 H 354.252 4.66758 1.87472 0
M  V30 3681 H 353.952 5.84785 0.574485 0
M  V30 3682 H 355.476 5.9178 1.50428 0
M  V30 3683 H 356.89 5.68307 -0.75499 0
M  V30 3684 H 355.287 5.80073 -1.53738 0
M  V30 3685 H 356.357 4.44504 -1.93764 0
M  V30 3686 N 357.7 0.491464 1.49741 0
M  V30 3687 C 359.111 0.0413169 1.86654 0
M  V30 3688 C 359.462 -1.36985 1.40462 0
M  V30 3689 O 358.587 -2.01917 0.778354 0
M  V30 3690 C 359.182 0.0682023 3.38731 0
M  V30 3691 C 357.741 -0.32656 3.74981 0
M  V30 3692 C 356.888 0.444888 2.73708 0
M  V30 3693 H 359.839 0.704733 1.42194 0
M  V30 3694 H 359.86 -0.729322 3.73445 0
M  V30 3695 H 359.372 1.09539 3.72321 0
M  V30 3696 H 357.473 -1.35734 3.46997 0
M  V30 3697 H 357.586 -0.013741 4.79098 0
M  V30 3698 H 355.95 -0.104062 2.54487 0
M  V30 3699 H 356.733 1.47197 3.10142 0
M  V30 3700 N 359.178 -1.55987 0.224894 0
M  V30 3701 C 360.594 -1.59066 -0.130426 0
M  V30 3702 C 360.794 -1.24176 -1.5869 0
M  V30 3703 O 359.85 -0.978592 -2.32766 0
M  V30 3704 C 361.163 -3.00042 0.198883 0
M  V30 3705 C 362.711 -3.1268 0.141391 0
M  V30 3706 C 363.186 -4.55839 0.444422 0
M  V30 3707 N 364.677 -4.6152 0.394115 0
M  V30 3708 C 365.412 -5.70231 0.602038 0
M  V30 3709 N 364.908 -6.87291 0.871914 0
M  V30 3710 N 366.701 -5.59555 0.534245 0
M  V30 3711 H 358.852 -1.76941 1.17497 0
M  V30 3712 H 361.115 -0.822604 0.471197 0
M  V30 3713 H 360.821 -3.30234 1.2099 0
M  V30 3714 H 360.695 -3.74075 -0.484535 0
M  V30 3715 H 363.082 -2.82283 -0.860265 0
M  V30 3716 H 363.163 -2.40969 0.858335 0
M  V30 3717 H 362.807 -4.86954 1.44353 0
M  V30 3718 H 362.737 -5.2578 -0.293752 0
M  V30 3719 H 365.228 -3.77405 0.193356 0
M  V30 3720 H 365.541 -7.66058 1.01858 0
M  V30 3721 H 363.886 -6.89028 0.909145 0
M  V30 3722 H 367.077 -4.6698 0.323612 0
M  V30 3723 H 367.25 -6.44211 0.699693 0
M  V30 3724 N 360.656 0.0484629 -1.57525 0
M  V30 3725 C 361.603 1.05504 -2.05275 0
M  V30 3726 C 362.573 1.37084 -0.937927 0
M  V30 3727 O 363.758 1.47754 -1.2072 0
M  V30 3728 C 360.898 2.35676 -2.52093 0
M  V30 3729 C 360.011 2.10423 -3.77288 0
M  V30 3730 C 359.146 3.34327 -4.12794 0
M  V30 3731 C 358.185 3.04542 -5.30962 0
M  V30 3732 N 357.322 4.20841 -5.61994 0
M  V30 3733 H 362.162 0.640885 -2.91027 0
M  V30 3734 H 359.699 0.304854 -1.43906 0
M  V30 3735 H 361.657 3.11709 -2.77297 0
M  V30 3736 H 360.287 2.7485 -1.69285 0
M  V30 3737 H 359.339 1.24976 -3.59284 0
M  V30 3738 H 360.651 1.84438 -4.63448 0
M  V30 3739 H 359.805 4.1874 -4.39024 0
M  V30 3740 H 358.544 3.63408 -3.25247 0
M  V30 3741 H 357.549 2.18528 -5.04505 0
M  V30 3742 H 358.774 2.76758 -6.20146 0
M  V30 3743 H 356.72 4.4991 -4.77406 0
M  V30 3744 H 356.637 3.98212 -6.42622 0
M  V30 3745 H 357.905 5.06184 -5.92789 0
M  V30 3746 N 362.134 1.5431 0.320358 0
M  V30 3747 C 363.097 1.83195 1.3774 0
M  V30 3748 C 364.097 0.703906 1.44575 0
M  V30 3749 O 365.287 0.972214 1.44546 0
M  V30 3750 C 362.419 1.99487 2.76438 0
M  V30 3751 H 363.612 2.77642 1.1338 0
M  V30 3752 H 361.165 1.46076 0.556012 0
M  V30 3753 H 361.9 1.07262 3.06048 0
M  V30 3754 H 361.685 2.81575 2.7287 0
M  V30 3755 H 363.175 2.23271 3.52902 0
M  V30 3756 N 363.613 -0.582584 1.46437 0
M  V30 3757 C 364.89 -1.34276 1.4223 0
M  V30 3758 C 365.27 -2.10835 0.10583 0
M  V30 3759 O 364.618 -2.09485 -0.912596 0
M  V30 3760 C 364.828 -2.26865 2.65204 0
M  V30 3761 C 366.176 -2.88691 3.11356 0
M  V30 3762 O 367.2 -2.37178 2.65753 0
M  V30 3763 O 366.059 -3.82255 3.90568 0
M  V30 3764 H 363.153 -0.603326 0.565621 0
M  V30 3765 H 365.699 -0.603591 1.58603 0
M  V30 3766 H 364.471 -1.69724 3.52576 0
M  V30 3767 H 364.094 -3.08122 2.5129 0
M  V30 3768 N 365.091 -1.34144 -0.827227 0
M  V30 3769 C 366.054 -1.25264 -1.91942 0
M  V30 3770 C 367.054 -0.168866 -1.59911 0
M  V30 3771 O 368.244 -0.421198 -1.69031 0
M  V30 3772 C 365.376 -0.932952 -3.27885 0
M  V30 3773 H 366.569 -2.22357 -2.0124 0
M  V30 3774 H 364.122 -1.1837 -1.0207 0
M  V30 3775 H 364.857 0.0349917 -3.24281 0
M  V30 3776 H 364.642 -1.71682 -3.52516 0
M  V30 3777 H 366.132 -0.895874 -4.07877 0
M  V30 3778 N 366.569 1.04691 -1.17803 0
M  V30 3779 C 367.818 1.77176 -0.963931 0
M  V30 3780 C 368.131 1.88888 0.508015 0
M  V30 3781 O 369.337 2.58164 0.840465 0
M  V30 3782 C 367.793 3.18518 -1.67555 0
M  V30 3783 C 367.401 3.14919 -3.18637 0
M  V30 3784 C 369.145 3.95424 -1.54402 0
M  V30 3785 C 367.052 4.51081 -3.82466 0
M  V30 3786 H 365.982 0.664116 -0.357023 0
M  V30 3787 H 368.633 1.17303 -1.4111 0
M  V30 3788 H 367.015 3.78748 -1.15613 0
M  V30 3789 H 368.189 2.64178 -3.77554 0
M  V30 3790 H 366.504 2.51512 -3.31859 0
M  V30 3791 H 369.101 4.96106 -1.99456 0
M  V30 3792 H 369.444 4.13343 -0.495329 0
M  V30 3793 H 369.977 3.41754 -2.0359 0
M  V30 3794 H 366.716 4.38368 -4.87354 0
M  V30 3795 H 366.236 5.01951 -3.28337 0
M  V30 3796 H 367.915 5.2001 -3.84965 0
M  V30 3797 N 368.047 0.979072 1.23499 0
M  V30 3798 C 369.296 0.642751 1.91185 0
M  V30 3799 C 369.609 -0.827253 1.77245 0
M  V30 3800 O 370.815 -1.27458 2.39722 0
M  V30 3801 C 369.271 1.09901 3.42709 0
M  V30 3802 C 368.879 2.59327 3.65313 0
M  V30 3803 C 370.623 0.836371 4.16179 0
M  V30 3804 C 368.53 2.98627 5.10467 0
M  V30 3805 H 367.46 0.236698 0.715884 0
M  V30 3806 H 370.111 1.1868 1.39955 0
M  V30 3807 H 368.493 0.48319 3.93041 0
M  V30 3808 H 369.667 3.26136 3.25533 0
M  V30 3809 H 367.982 2.83323 3.05151 0
M  V30 3810 H 370.579 1.10586 5.23139 0
M  V30 3811 H 370.922 -0.227509 4.15678 0
M  V30 3812 H 371.455 1.41371 3.71832 0
M  V30 3813 H 368.194 4.04133 5.16098 0
M  V30 3814 H 367.714 2.3651 5.51201 0
M  V30 3815 H 369.393 2.89159 5.78788 0
M  V30 3816 N 369.525 -1.3858 0.750561 0
M  V30 3817 C 370.455 -2.33102 0.136237 0
M  V30 3818 C 371.436 -1.54713 -0.706965 0
M  V30 3819 O 372.621 -1.83043 -0.648769 0
M  V30 3820 C 369.751 -3.38882 -0.760017 0
M  V30 3821 C 368.705 -4.27995 -0.0197785 0
M  V30 3822 C 368.031 -5.24605 -1.03408 0
M  V30 3823 C 369.331 -5.09554 1.14684 0
M  V30 3824 H 371.025 -2.84726 0.925822 0
M  V30 3825 H 368.571 -1.36898 0.446654 0
M  V30 3826 H 370.524 -4.0397 -1.19943 0
M  V30 3827 H 369.248 -2.85734 -1.58189 0
M  V30 3828 H 367.907 -3.64409 0.400184 0
M  V30 3829 H 367.555 -4.67746 -1.84994 0
M  V30 3830 H 367.255 -5.85081 -0.543464 0
M  V30 3831 H 368.779 -5.9257 -1.47288 0
M  V30 3832 H 370.193 -5.67899 0.785118 0
M  V30 3833 H 368.59 -5.7925 1.56812 0
M  V30 3834 H 369.66 -4.4347 1.96118 0
M  V30 3835 N 371.003 -0.499398 -1.49478 0
M  V30 3836 C 372.228 0.044722 -2.07352 0
M  V30 3837 C 372.653 1.30207 -1.35749 0
M  V30 3838 O 372.011 1.76516 -0.413732 0
M  V30 3839 C 372.059 0.283013 -3.59488 0
M  V30 3840 O 371.163 1.35804 -3.89398 0
M  V30 3841 H 370.504 -0.0255147 -0.66351 0
M  V30 3842 H 373.034 -0.698561 -1.92305 0
M  V30 3843 H 373.044 0.515007 -4.04737 0
M  V30 3844 H 371.719 -0.635636 -4.11014 0
M  V30 3845 H 370.296 1.11113 -3.55961 0
M  V30 3846 N 372.481 1.55866 -0.233164 0
M  V30 3847 C 373.728 1.98603 0.395374 0
M  V30 3848 C 374.056 1.12105 1.58942 0
M  V30 3849 O 373.311 0.168656 1.94972 0
M  V30 3850 C 373.61 3.46856 0.861724 0
M  V30 3851 C 373.276 4.50348 -0.223066 0
M  V30 3852 C 371.938 4.78371 -0.521038 0
M  V30 3853 C 374.29 5.12355 -0.956124 0
M  V30 3854 C 371.618 5.6568 -1.55638 0
M  V30 3855 C 373.97 6.00786 -1.98089 0
M  V30 3856 C 372.634 6.27148 -2.28565 0
M  V30 3857 H 371.904 0.726739 0.144677 0
M  V30 3858 H 374.551 1.88491 -0.338114 0
M  V30 3859 H 372.856 3.5423 1.67418 0
M  V30 3860 H 374.553 3.77302 1.35809 0
M  V30 3861 H 371.143 4.28596 0.0193234 0
M  V30 3862 H 375.327 4.90765 -0.739166 0
M  V30 3863 H 370.583 5.84365 -1.798 0
M  V30 3864 H 374.757 6.4788 -2.55391 0
M  V30 3865 H 372.384 6.94597 -3.08932 0
M  V30 3866 N 373.959 -0.0401083 1.57549 0
M  V30 3867 C 375.205 -0.734211 1.89043 0
M  V30 3868 C 375.538 -1.75591 0.829535 0
M  V30 3869 O 374.813 -1.93868 -0.156706 0
M  V30 3870 C 375.096 -1.41374 3.31188 0
M  V30 3871 C 374.949 -0.406299 4.47961 0
M  V30 3872 C 376.268 -2.35061 3.72068 0
M  V30 3873 H 373.387 -0.265447 0.687537 0
M  V30 3874 H 376.029 0.00294087 1.9 0
M  V30 3875 H 374.179 -2.04206 3.30503 0
M  V30 3876 H 375.851 0.219255 4.60779 0
M  V30 3877 H 374.094 0.275485 4.32924 0
M  V30 3878 H 374.765 -0.920022 5.44279 0
M  V30 3879 H 377.241 -1.82282 3.74049 0
M  V30 3880 H 376.117 -2.79593 4.72355 0
M  V30 3881 H 376.378 -3.21258 3.0372 0
M  V30 3882 N 375.437 -1.54477 -0.31217 0
M  V30 3883 C 376.367 -1.87652 -1.38957 0
M  V30 3884 C 377.348 -0.734358 -1.53431 0
M  V30 3885 O 378.533 -0.98911 -1.67123 0
M  V30 3886 C 375.663 -2.11396 -2.75552 0
M  V30 3887 C 374.617 -3.27243 -2.75855 0
M  V30 3888 C 373.943 -3.36382 -4.15633 0
M  V30 3889 C 375.243 -4.64622 -2.38587 0
M  V30 3890 H 376.937 -2.77887 -1.11442 0
M  V30 3891 H 374.483 -1.33707 -0.534655 0
M  V30 3892 H 376.436 -2.33189 -3.51 0
M  V30 3893 H 375.16 -1.17921 -3.04569 0
M  V30 3894 H 373.819 -3.05356 -2.02863 0
M  V30 3895 H 373.467 -2.40445 -4.41809 0
M  V30 3896 H 373.167 -4.14249 -4.1674 0
M  V30 3897 H 374.691 -3.60422 -4.92877 0
M  V30 3898 H 376.105 -4.86219 -3.03749 0
M  V30 3899 H 374.502 -5.45121 -2.50925 0
M  V30 3900 H 375.572 -4.66097 -1.33723 0
M  V30 3901 N 376.915 0.57481 -1.46744 0
M  V30 3902 C 377.845 1.69337 -1.60771 0
M  V30 3903 C 378.826 1.63825 -0.457736 0
M  V30 3904 O 380.011 1.8172 -0.684947 0
M  V30 3905 C 377.141 3.0798 -1.60517 0
M  V30 3906 C 376.095 3.28327 -2.74564 0
M  V30 3907 C 375.421 4.67578 -2.59373 0
M  V30 3908 C 376.721 3.15398 -4.16319 0
M  V30 3909 H 378.415 1.57853 -2.54407 0
M  V30 3910 H 375.961 0.75799 -1.22436 0
M  V30 3911 H 377.914 3.86061 -1.68923 0
M  V30 3912 H 376.638 3.20381 -0.634305 0
M  V30 3913 H 375.297 2.52649 -2.65639 0
M  V30 3914 H 374.945 4.76755 -1.60353 0
M  V30 3915 H 374.645 4.82144 -3.35873 0
M  V30 3916 H 376.169 5.47817 -2.69682 0
M  V30 3917 H 377.583 3.83315 -4.26313 0
M  V30 3918 H 375.98 3.41482 -4.93468 0
M  V30 3919 H 377.05 2.12372 -4.3592 0
M  V30 3920 N 378.394 1.34581 0.820102 0
M  V30 3921 C 379.342 1.26401 1.95258 0
M  V30 3922 C 380.336 0.161553 1.68628 0
M  V30 3923 O 381.542 0.326703 1.7701 0
M  V30 3924 H 377.917 0.392749 0.64129 0
M  V30 3925 H 379.888 2.22105 1.99279 0
M  V30 3926 C 378.637 1.03919 3.31807 0
M  V30 3927 H 377.96 1.87984 3.52848 0
M  V30 3928 H 379.4 1.02232 4.11491 0
M  V30 3929 C 377.859 -0.257433 3.35915 0
M  V30 3930 O 378.389 -1.25784 3.81499 0
M  V30 3931 N 376.595 -0.291524 2.89134 0
M  V30 3932 H 376.142 0.523161 2.52232 0
M  V30 3933 H 376.1 -1.15883 2.92264 0
M  V30 3934 N 379.872 -1.04064 1.18357 0
M  V30 3935 C 381.118 -1.77658 0.990412 0
M  V30 3936 C 381.473 -1.86446 -0.474944 0
M  V30 3937 O 380.766 -1.36153 -1.34807 0
M  V30 3938 C 380.96 -3.20634 1.57888 0
M  V30 3939 C 380.789 -3.25782 3.09994 0
M  V30 3940 C 379.559 -3.34411 3.7881 0
M  V30 3941 C 381.757 -3.13791 4.0748 0
M  V30 3942 N 379.739 -3.28809 5.18418 0
M  V30 3943 C 381.11 -3.15689 5.33611 0
M  V30 3944 C 383.165 -2.97833 3.98998 0
M  V30 3945 C 381.868 -3.03268 6.52243 0
M  V30 3946 C 383.894 -2.86759 5.17227 0
M  V30 3947 C 383.256 -2.893 6.4225 0
M  V30 3948 H 379.355 -0.661901 0.416427 0
M  V30 3949 H 381.939 -1.23968 1.50133 0
M  V30 3950 H 380.11 -3.7267 1.09414 0
M  V30 3951 H 381.842 -3.82525 1.32124 0
M  V30 3952 H 378.597 -3.40144 3.29543 0
M  V30 3953 H 379.021 -3.29448 5.91433 0
M  V30 3954 H 383.663 -2.94698 3.03171 0
M  V30 3955 H 381.381 -3.05156 7.48268 0
M  V30 3956 H 384.967 -2.75465 5.12455 0
M  V30 3957 H 383.847 -2.80818 7.32196 0
M  V30 3958 N 381.35 -0.985608 -1.22978 0
M  V30 3959 C 382.761 -0.693593 -1.73338 0
M  V30 3960 C 383.112 0.789935 -1.79595 0
M  V30 3961 O 382.237 1.61771 -1.43733 0
M  V30 3962 C 382.832 -1.25235 -3.14804 0
M  V30 3963 C 381.391 -1.00987 -3.626 0
M  V30 3964 C 380.538 -1.37695 -2.40698 0
M  V30 3965 H 383.489 -1.15884 -1.08428 0
M  V30 3966 H 383.51 -0.627329 -3.75293 0
M  V30 3967 H 383.022 -2.33209 -3.10218 0
M  V30 3968 H 381.123 0.0535565 -3.72562 0
M  V30 3969 H 381.236 -1.66812 -4.49122 0
M  V30 3970 H 379.6 -0.795459 -2.4196 0
M  V30 3971 H 380.383 -2.46657 -2.38779 0
M  V30 3972 N 382.828 1.3818 -0.7579 0
M  V30 3973 C 384.105 1.94106 -0.241306 0
M  V30 3974 C 384.485 1.69282 1.26122 0
M  V30 3975 O 383.833 1.03378 2.03777 0
M  V30 3976 C 384.043 3.43809 -0.59967 0
M  V30 3977 C 385.391 4.20868 -0.561717 0
M  V30 3978 O 386.415 3.5211 -0.538222 0
M  V30 3979 O 385.274 5.43451 -0.576478 0
M  V30 3980 H 382.368 0.825376 -0.0518042 0
M  V30 3981 H 384.914 1.47548 -0.838315 0
M  V30 3982 H 383.686 3.55403 -1.6372 0
M  V30 3983 H 383.309 3.97592 0.0251197 0
M  V30 3984 N 384.306 0.507319 1.49211 0
M  V30 3985 C 385.256 -0.287112 2.26185 0
M  V30 3986 C 386.24 -0.929983 1.31302 0
M  V30 3987 O 387.432 -0.836538 1.55984 0
M  V30 3988 C 384.561 -1.34718 3.15763 0
M  V30 3989 C 383.647 -0.710235 4.18111 0
M  V30 3990 N 384.038 0.190836 5.0544 0
M  V30 3991 C 382.336 -0.97009 4.35322 0
M  V30 3992 C 383.037 0.55606 5.79036 0
M  V30 3993 N 382.013 -0.0775232 5.43545 0
M  V30 3994 H 385.815 0.406445 2.91076 0
M  V30 3995 H 383.329 0.323814 1.59139 0
M  V30 3996 H 385.326 -1.92982 3.69545 0
M  V30 3997 H 383.986 -2.04235 2.52424 0
M  V30 3998 H 384.997 0.562047 5.14841 0
M  V30 3999 H 381.674 -1.65753 3.83187 0
M  V30 4000 H 383.064 1.2936 6.5933 0
M  V30 4001 N 385.784 -1.5574 0.241426 0
M  V30 4002 C 387.061 -1.90704 -0.434881 0
M  V30 4003 C 387.441 -1.16145 -1.76277 0
M  V30 4004 O 386.789 -0.277152 -2.26813 0
M  V30 4005 C 386.999 -3.43657 -0.608343 0
M  V30 4006 C 388.347 -4.14806 -0.906725 0
M  V30 4007 O 389.371 -3.49366 -0.694408 0
M  V30 4008 O 388.23 -5.30548 -1.31075 0
M  V30 4009 H 385.324 -0.793592 -0.23268 0
M  V30 4010 H 387.87 -1.67288 0.285086 0
M  V30 4011 H 386.642 -3.89927 0.327505 0
M  V30 4012 H 386.265 -3.72918 -1.37906 0
M  V30 4013 N 387.262 0.0317525 -1.57568 0
M  V30 4014 C 388.225 1.01783 -2.0536 0
M  V30 4015 C 389.225 1.29203 -0.957253 0
M  V30 4016 O 390.415 1.24251 -1.22095 0
M  V30 4017 C 387.547 2.35137 -2.46827 0
M  V30 4018 H 388.74 0.605062 -2.93733 0
M  V30 4019 H 386.293 0.278514 -1.53799 0
M  V30 4020 H 387.028 2.81168 -1.61602 0
M  V30 4021 H 386.813 2.16566 -3.26866 0
M  V30 4022 H 388.303 3.05938 -2.84239 0
M  V30 4023 N 388.74 1.54641 0.303973 0
M  V30 4024 C 389.986 1.74038 1.04109 0
M  V30 4025 C 390.319 0.523051 1.87024 0
M  V30 4026 O 389.594 -0.479874 1.88487 0
M  V30 4027 C 389.877 3.02761 1.94955 0
M  V30 4028 C 389.73 4.34787 1.1524 0
M  V30 4029 C 391.049 3.27336 2.94175 0
M  V30 4030 H 388.168 0.63323 0.377079 0
M  V30 4031 H 390.81 1.87354 0.316001 0
M  V30 4032 H 388.96 2.9154 2.56782 0
M  V30 4033 H 390.632 4.57922 0.557236 0
M  V30 4034 H 388.875 4.31407 0.455053 0
M  V30 4035 H 389.546 5.21116 1.8205 0
M  V30 4036 H 392.022 3.38148 2.42477 0
M  V30 4037 H 390.898 4.18726 3.54908 0
M  V30 4038 H 391.159 2.45491 3.67677 0
M  V30 4039 N 390.218 -0.567019 1.47046 0
M  V30 4040 C 391.634 -0.891975 1.32348 0
M  V30 4041 C 391.834 -1.99154 0.306616 0
M  V30 4042 O 390.89 -2.50883 -0.28532 0
M  V30 4043 C 392.203 -1.29449 2.7141 0
M  V30 4044 C 393.751 -1.40646 2.79621 0
M  V30 4045 C 394.226 -1.84257 4.19301 0
M  V30 4046 N 395.717 -1.91424 4.21795 0
M  V30 4047 C 396.452 -2.26476 5.26779 0
M  V30 4048 N 395.948 -2.60211 6.42077 0
M  V30 4049 N 397.741 -2.27166 5.14152 0
M  V30 4050 H 389.892 0.159074 2.11803 0
M  V30 4051 H 392.155 0.00849752 0.947962 0
M  V30 4052 H 391.861 -0.560448 3.47206 0
M  V30 4053 H 391.735 -2.25273 3.02542 0
M  V30 4054 H 394.122 -2.13133 2.04104 0
M  V30 4055 H 394.203 -0.430339 2.52154 0
M  V30 4056 H 393.847 -1.12343 4.95319 0
M  V30 4057 H 393.777 -2.82855 4.44185 0
M  V30 4058 H 396.268 -1.6778 3.38612 0
M  V30 4059 H 396.581 -2.85956 7.17948 0
M  V30 4060 H 394.926 -2.57813 6.45413 0
M  V30 4061 H 398.117 -2.00244 4.23107 0
M  V30 4062 H 398.29 -2.54154 5.96079 0
M  V30 4063 N 391.696 -1.35014 -0.812953 0
M  V30 4064 C 392.945 -1.27269 -1.56479 0
M  V30 4065 C 393.258 0.152771 -1.95002 0
M  V30 4066 O 394.464 0.352451 -2.69203 0
M  V30 4067 C 392.92 -2.23159 -2.82362 0
M  V30 4068 C 392.528 -3.71016 -2.511 0
M  V30 4069 C 394.272 -2.24342 -3.60376 0
M  V30 4070 C 392.179 -4.58746 -3.73237 0
M  V30 4071 H 391.109 -0.472829 -0.587324 0
M  V30 4072 H 393.76 -1.6024 -0.894171 0
M  V30 4073 H 392.142 -1.83151 -3.51101 0
M  V30 4074 H 393.316 -4.1962 -1.90409 0
M  V30 4075 H 391.631 -3.72378 -1.86343 0
M  V30 4076 H 394.228 -2.87107 -4.51081 0
M  V30 4077 H 394.571 -1.24542 -3.97234 0
M  V30 4078 H 395.104 -2.62846 -2.98591 0
M  V30 4079 H 391.843 -5.59521 -3.41492 0
M  V30 4080 H 391.363 -4.14871 -4.33176 0
M  V30 4081 H 393.042 -4.73852 -4.40537 0
M  V30 4082 N 393.175 1.03435 -1.18907 0
M  V30 4083 C 394.105 2.13503 -0.945448 0
M  V30 4084 C 395.086 1.69682 0.119189 0
M  V30 4085 O 396.271 1.94169 -0.034707 0
M  V30 4086 C 393.401 3.44004 -0.477316 0
M  V30 4087 C 392.355 4.0148 -1.48316 0
M  V30 4088 C 391.681 5.27537 -0.872311 0
M  V30 4089 C 392.981 4.36921 -2.86177 0
M  V30 4090 H 394.675 2.34141 -1.86597 0
M  V30 4091 H 392.221 1.12523 -0.898584 0
M  V30 4092 H 394.174 4.20372 -0.294204 0
M  V30 4093 H 392.898 3.23072 0.478786 0
M  V30 4094 H 391.557 3.27201 -1.65332 0
M  V30 4095 H 391.205 5.02917 0.0911752 0
M  V30 4096 H 390.905 5.66954 -1.54393 0
M  V30 4097 H 392.429 6.06576 -0.699871 0
M  V30 4098 H 393.843 5.04248 -2.72776 0
M  V30 4099 H 392.24 4.87405 -3.50081 0
M  V30 4100 H 393.31 3.46466 -3.39248 0
M  V30 4101 N 394.653 0.992116 1.22453 0
M  V30 4102 C 395.881 0.685944 1.95198 0
M  V30 4103 C 396.296 -0.749233 1.73297 0
M  V30 4104 O 395.653 -1.50549 1.03156 0
M  V30 4105 C 395.704 0.981395 3.47924 0
M  V30 4106 O 395.425 2.36018 3.6909 0
M  V30 4107 C 396.926 0.692815 4.37853 0
M  V30 4108 H 394.146 0.253821 0.621141 0
M  V30 4109 H 396.69 1.32668 1.55626 0
M  V30 4110 H 394.845 0.386481 3.85467 0
M  V30 4111 H 395.259 2.45884 4.63294 0
M  V30 4112 H 396.733 0.949818 5.43767 0
M  V30 4113 H 397.21 -0.373181 4.37612 0
M  V30 4114 H 397.816 1.26874 4.05935 0
M  V30 4115 N 396.131 -1.37776 0.765217 0
M  V30 4116 C 397.547 -1.53297 0.444108 0
M  V30 4117 C 397.747 -1.72515 -1.04119 0
M  V30 4118 O 396.803 -1.74278 -1.82711 0
M  V30 4119 C 398.116 -2.73328 1.25349 0
M  V30 4120 C 399.664 -2.87185 1.24473 0
M  V30 4121 C 400.139 -4.10191 2.03733 0
M  V30 4122 N 401.63 -4.17291 2.01053 0
M  V30 4123 C 402.365 -5.11488 2.59166 0
M  V30 4124 N 401.861 -6.11285 3.26041 0
M  V30 4125 N 403.654 -5.03924 2.49032 0
M  V30 4126 H 395.805 -1.23552 1.72768 0
M  V30 4127 H 398.068 -0.601103 0.733062 0
M  V30 4128 H 397.774 -2.6557 2.30577 0
M  V30 4129 H 397.648 -3.66834 0.87823 0
M  V30 4130 H 400.035 -2.94418 0.20047 0
M  V30 4131 H 400.116 -1.94657 1.65959 0
M  V30 4132 H 399.76 -4.0372 3.08176 0
M  V30 4133 H 399.69 -5.01821 1.59633 0
M  V30 4134 H 402.181 -3.45825 1.5236 0
M  V30 4135 H 402.494 -6.79678 3.67774 0
M  V30 4136 H 400.839 -6.11583 3.30138 0
M  V30 4137 H 404.03 -4.24902 1.96407 0
M  V30 4138 H 404.203 -5.77152 2.94617 0
M  V30 4139 N 397.609 -0.515225 -1.4894 0
M  V30 4140 C 398.849 0.0223983 -2.04388 0
M  V30 4141 C 399.213 1.32961 -1.38511 0
M  V30 4142 O 400.414 1.95236 -1.8476 0
M  V30 4143 C 398.685 0.157056 -3.57055 0
M  V30 4144 S 400.244 0.646875 -4.34006 0
M  V30 4145 H 397.062 -0.00500662 -0.710982 0
M  V30 4146 H 399.664 -0.69243 -1.82827 0
M  V30 4147 H 398.368 -0.799412 -4.02539 0
M  V30 4148 H 397.899 0.896704 -3.83044 0
M  V30 4149 H 399.914 1.91381 -4.57808 0
M  V30 4150 N 399.087 1.5561 -0.249682 0
M  V30 4151 C 400.05 2.20217 0.635394 0
M  V30 4152 C 401.05 1.17227 1.10066 0
M  V30 4153 O 402.24 1.42292 1.00492 0
M  V30 4154 C 399.372 2.84794 1.87363 0
M  V30 4155 H 400.565 2.99814 0.0716752 0
M  V30 4156 H 398.118 1.563 -0.000153234 0
M  V30 4157 H 398.853 2.09142 2.47851 0
M  V30 4158 H 398.638 3.60241 1.5482 0
M  V30 4159 H 400.128 3.3423 2.5036 0
M  V30 4160 N 400.565 -0.0233959 1.57583 0
M  V30 4161 C 401.475 -1.03907 2.10334 0
M  V30 4162 C 402.491 -1.39257 1.04323 0
M  V30 4163 O 403.667 -1.48462 1.36091 0
M  V30 4164 C 400.732 -2.31938 2.57693 0
M  V30 4165 C 399.793 -2.03117 3.78209 0
M  V30 4166 C 399.026 -3.25043 4.233 0
M  V30 4167 O 399.249 -4.35916 3.67876 0
M  V30 4168 O 398.183 -3.10411 5.15683 0
M  V30 4169 H 402.009 -0.620748 2.97288 0
M  V30 4170 H 399.594 -0.240743 1.47448 0
M  V30 4171 H 401.476 -3.07196 2.88458 0
M  V30 4172 H 400.151 -2.73055 1.73847 0
M  V30 4173 H 399.058 -1.25408 3.52454 0
M  V30 4174 H 400.391 -1.66852 4.63056 0
M  V30 4175 N 402.043 -1.548 -0.295768 0
M  V30 4176 C 403.006 -1.85363 -1.34808 0
M  V30 4177 C 404.006 -0.726817 -1.43436 0
M  V30 4178 O 405.196 -0.995088 -1.42981 0
M  V30 4179 C 402.328 -2.03859 -2.73229 0
M  V30 4180 H 403.521 -2.7941 -1.08949 0
M  V30 4181 H 401.074 -1.46942 -0.532702 0
M  V30 4182 H 401.809 -1.12117 -3.04303 0
M  V30 4183 H 401.594 -2.8588 -2.68356 0
M  V30 4184 H 403.084 -2.28857 -3.49305 0
M  V30 4185 N 403.521 0.559213 -1.47345 0
M  V30 4186 C 404.451 1.67622 -1.62558 0
M  V30 4187 C 405.432 1.63331 -0.475087 0
M  V30 4188 O 406.617 1.80983 -0.704182 0
M  V30 4189 C 403.747 3.0626 -1.63774 0
M  V30 4190 C 402.701 3.25397 -2.7803 0
M  V30 4191 C 402.027 4.64801 -2.64318 0
M  V30 4192 C 403.327 3.10965 -4.19641 0
M  V30 4193 H 405.021 1.55146 -2.56067 0
M  V30 4194 H 402.567 0.744961 -1.23233 0
M  V30 4195 H 404.52 3.84247 -1.73008 0
M  V30 4196 H 403.244 3.1969 -0.66825 0
M  V30 4197 H 401.903 2.49817 -2.68304 0
M  V30 4198 H 401.551 4.75028 -1.65401 0
M  V30 4199 H 401.251 4.78555 -3.40968 0
M  V30 4200 H 402.775 5.44926 -2.75478 0
M  V30 4201 H 404.189 3.78772 -4.30354 0
M  V30 4202 H 402.586 3.36229 -4.97062 0
M  V30 4203 H 403.656 2.07736 -4.38148 0
M  V30 4204 N 404.999 1.35443 0.805782 0
M  V30 4205 C 405.909 1.30546 1.94923 0
M  V30 4206 C 406.925 0.210233 1.72725 0
M  V30 4207 O 408.101 0.43975 1.9654 0
M  V30 4208 C 405.166 1.07782 3.29521 0
M  V30 4209 C 404.227 2.26625 3.64609 0
M  V30 4210 C 403.46 2.04938 4.92784 0
M  V30 4211 O 403.683 1.01624 5.61274 0
M  V30 4212 O 402.617 2.9232 5.26149 0
M  V30 4213 H 406.443 2.26779 2.02002 0
M  V30 4214 H 404.028 1.15823 0.943682 0
M  V30 4215 H 405.91 0.969392 4.10098 0
M  V30 4216 H 404.585 0.146003 3.23371 0
M  V30 4217 H 403.492 2.43033 2.84404 0
M  V30 4218 H 404.825 3.18257 3.75464 0
M  V30 4219 N 406.477 -1.02803 1.19454 0
M  V30 4220 C 407.888 -1.57667 0.999899 0
M  V30 4221 C 408.239 -1.91041 -0.446956 0
M  V30 4222 O 407.364 -1.70978 -1.32648 0
M  V30 4223 C 407.959 -2.86477 1.80877 0
M  V30 4224 C 406.518 -3.37911 1.65811 0
M  V30 4225 C 405.665 -2.11343 1.79526 0
M  V30 4226 H 408.616 -0.853214 1.33813 0
M  V30 4227 H 408.637 -3.57408 1.30536 0
M  V30 4228 H 408.149 -2.62155 2.86175 0
M  V30 4229 H 406.25 -3.67218 0.63102 0
M  V30 4230 H 406.363 -4.10885 2.46395 0
M  V30 4231 H 404.727 -2.23254 1.22596 0
M  V30 4232 H 405.51 -1.89461 2.86285 0
M  V30 4233 N 407.956 -0.998596 -1.21925 0
M  V30 4234 C 409.204 -0.676325 -1.90448 0
M  V30 4235 C 409.525 0.794719 -1.78071 0
M  V30 4236 O 408.795 1.5701 -1.17152 0
M  V30 4237 H 407.375 -0.247165 -0.704925 0
M  V30 4238 H 410.037 -1.26633 -1.48156 0
M  V30 4239 H 409.133 -0.943858 -2.97486 0
M  V30 4240 N 409.434 1.37368 -0.772513 0
M  V30 4241 C 410.682 1.99279 -0.336516 0
M  V30 4242 C 411.003 1.6163 1.09091 0
M  V30 4243 O 410.273 0.882109 1.74916 0
M  V30 4244 H 408.853 0.737063 -0.121435 0
M  V30 4245 H 411.515 1.67836 -0.990809 0
M  V30 4246 H 410.611 3.09332 -0.414763 0
M  V30 4247 N 410.912 0.523116 1.48665 0
M  V30 4248 C 412.328 0.180511 1.58576 0
M  V30 4249 C 412.528 -1.31597 1.52592 0
M  V30 4250 O 411.584 -2.0937 1.4114 0
M  V30 4251 C 412.897 0.776949 2.90489 0
M  V30 4252 C 414.445 0.745058 3.04003 0
M  V30 4253 C 414.92 1.31995 4.38567 0
M  V30 4254 N 416.411 1.28162 4.45117 0
M  V30 4255 C 417.146 1.6964 5.47731 0
M  V30 4256 N 416.642 2.18816 6.57337 0
M  V30 4257 N 418.435 1.6092 5.38573 0
M  V30 4258 H 410.586 1.4958 1.50797 0
M  V30 4259 H 412.849 0.621772 0.715614 0
M  V30 4260 H 412.555 1.82732 3.00503 0
M  V30 4261 H 412.429 0.25007 3.7637 0
M  V30 4262 H 414.816 -0.296532 2.93606 0
M  V30 4263 H 414.897 1.30933 2.1975 0
M  V30 4264 H 414.541 2.36043 4.49718 0
M  V30 4265 H 414.471 0.731418 5.21496 0
M  V30 4266 H 416.962 0.92155 3.66491 0
M  V30 4267 H 417.275 2.48478 7.31764 0
M  V30 4268 H 415.62 2.22805 6.58318 0
M  V30 4269 H 418.811 1.22304 4.5184 0
M  V30 4270 H 418.984 1.93567 6.18414 0
M  V30 4271 N 412.39 -1.55475 0.257931 0
M  V30 4272 C 413.639 -1.98383 -0.364275 0
M  V30 4273 C 413.952 -1.14952 -1.58258 0
M  V30 4274 O 415.158 -1.47924 -2.27664 0
M  V30 4275 C 413.614 -3.53037 -0.699479 0
M  V30 4276 C 413.222 -4.45223 0.498046 0
M  V30 4277 C 414.966 -4.04575 -1.28526 0
M  V30 4278 C 412.873 -5.91238 0.138383 0
M  V30 4279 H 411.803 -0.740911 -0.13988 0
M  V30 4280 H 414.454 -1.79936 0.359883 0
M  V30 4281 H 412.836 -3.6722 -1.48207 0
M  V30 4282 H 414.01 -4.42803 1.27522 0
M  V30 4283 H 412.325 -4.04226 0.999503 0
M  V30 4284 H 414.922 -5.11196 -1.56788 0
M  V30 4285 H 415.265 -3.5258 -2.21344 0
M  V30 4286 H 415.798 -3.93762 -0.565337 0
M  V30 4287 H 412.537 -6.47294 1.03398 0
M  V30 4288 H 412.057 -5.96768 -0.602374 0
M  V30 4289 H 413.736 -6.46413 -0.27553 0
M  V30 4290 N 413.868 0.0150385 -1.57593 0
M  V30 4291 C 414.798 1.01047 -2.10503 0
M  V30 4292 C 415.779 1.36816 -1.01071 0
M  V30 4293 O 416.964 1.45455 -1.28672 0
M  V30 4294 C 414.094 2.30708 -2.59598 0
M  V30 4295 C 413.048 2.09142 -3.73421 0
M  V30 4296 C 412.374 3.44685 -4.08774 0
M  V30 4297 C 413.674 1.46619 -5.01298 0
M  V30 4298 H 415.368 0.569978 -2.93925 0
M  V30 4299 H 412.914 0.272724 -1.41394 0
M  V30 4300 H 414.867 3.00687 -2.95238 0
M  V30 4301 H 413.591 2.76843 -1.73279 0
M  V30 4302 H 412.25 1.41592 -3.38153 0
M  V30 4303 H 411.898 3.88495 -3.195 0
M  V30 4304 H 411.598 3.31077 -4.8545 0
M  V30 4305 H 413.122 4.16004 -4.4696 0
M  V30 4306 H 414.536 2.06535 -5.34805 0
M  V30 4307 H 412.933 1.43544 -5.82679 0
M  V30 4308 H 414.003 0.433611 -4.82957 0
M  V30 4309 N 415.346 1.54954 0.287554 0
M  V30 4310 C 416.595 1.74081 1.01877 0
M  V30 4311 C 416.908 0.541135 1.87966 0
M  V30 4312 O 418.114 0.614491 2.64455 0
M  V30 4313 C 416.57 3.08042 1.86113 0
M  V30 4314 C 416.178 4.35531 1.04961 0
M  V30 4315 C 417.922 3.36523 2.58752 0
M  V30 4316 C 415.829 5.60538 1.88551 0
M  V30 4317 H 414.759 0.64884 0.384087 0
M  V30 4318 H 417.41 1.81426 0.275101 0
M  V30 4319 H 415.792 2.94696 2.64519 0
M  V30 4320 H 416.966 4.59751 0.31074 0
M  V30 4321 H 415.281 4.14085 0.43843 0
M  V30 4322 H 417.878 4.27122 3.21668 0
M  V30 4323 H 418.221 2.56 3.28283 0
M  V30 4324 H 418.754 3.50901 1.87386 0
M  V30 4325 H 415.493 6.43767 1.23466 0
M  V30 4326 H 415.013 5.40483 2.60074 0
M  V30 4327 H 416.692 5.98297 2.46273 0
M  V30 4328 N 416.824 -0.551391 1.4764 0
M  V30 4329 C 417.774 -1.65362 1.56969 0
M  V30 4330 C 418.758 -1.55098 0.428189 0
M  V30 4331 O 419.95 -1.63481 0.678441 0
M  V30 4332 C 417.079 -3.04129 1.59249 0
M  V30 4333 C 416.165 -3.19576 2.78804 0
M  V30 4334 N 416.556 -3.05067 4.03445 0
M  V30 4335 C 414.854 -3.50588 2.75688 0
M  V30 4336 C 415.555 -3.2336 4.83543 0
M  V30 4337 N 414.531 -3.4996 4.15968 0
M  V30 4338 H 418.333 -1.52722 2.51104 0
M  V30 4339 H 415.847 -0.756303 1.43714 0
M  V30 4340 H 417.844 -3.83278 1.64024 0
M  V30 4341 H 416.504 -3.17877 0.662148 0
M  V30 4342 H 417.515 -2.82273 4.34215 0
M  V30 4343 H 414.192 -3.70827 1.91817 0
M  V30 4344 H 415.582 -3.17061 5.92387 0
M  V30 4345 N 418.302 -1.35869 -0.798587 0
M  V30 4346 C 419.212 -1.31578 -1.94228 0
M  V30 4347 C 420.228 -0.21939 -1.72611 0
M  V30 4348 O 421.404 -0.450167 -1.96305 0
M  V30 4349 C 418.469 -1.09528 -3.28944 0
M  V30 4350 C 417.53 -2.28556 -3.63402 0
M  V30 4351 C 416.763 -2.07549 -4.9169 0
M  V30 4352 O 416.986 -1.046 -5.60727 0
M  V30 4353 O 415.92 -2.95106 -5.24591 0
M  V30 4354 H 419.746 -2.27847 -2.00796 0
M  V30 4355 H 417.331 -1.16322 -0.937526 0
M  V30 4356 H 419.213 -0.991127 -4.09579 0
M  V30 4357 H 417.888 -0.16315 -3.23289 0
M  V30 4358 H 416.795 -2.44538 -2.83112 0
M  V30 4359 H 418.128 -3.20244 -3.73771 0
M  V30 4360 N 419.78 1.02168 -1.19998 0
M  V30 4361 C 421.196 1.27969 -0.953737 0
M  V30 4362 C 421.396 1.98079 0.369703 0
M  V30 4363 O 420.452 2.27306 1.09947 0
M  V30 4364 C 421.765 2.11971 -2.13281 0
M  V30 4365 C 423.313 2.25255 -2.17323 0
M  V30 4366 C 423.788 3.12632 -3.34702 0
M  V30 4367 N 425.279 3.2022 -3.34684 0
M  V30 4368 C 426.014 3.88039 -4.22153 0
M  V30 4369 N 425.51 4.58027 -5.19791 0
M  V30 4370 N 427.303 3.84511 -4.10009 0
M  V30 4371 H 419.454 0.550794 -2.05134 0
M  V30 4372 H 421.717 0.305683 -0.897364 0
M  V30 4373 H 421.423 1.67785 -3.09097 0
M  V30 4374 H 421.297 3.12699 -2.10949 0
M  V30 4375 H 423.684 2.68667 -1.22073 0
M  V30 4376 H 423.765 1.24053 -2.23706 0
M  V30 4377 H 423.409 2.69926 -4.30235 0
M  V30 4378 H 423.339 4.13909 -3.25556 0
M  V30 4379 H 425.83 2.70382 -2.64012 0
M  V30 4380 H 426.143 5.07429 -5.82868 0
M  V30 4381 H 424.488 4.56869 -5.23733 0
M  V30 4382 H 427.679 3.28978 -3.33003 0
M  V30 4383 H 427.852 4.3709 -4.78389 0
M  V30 4384 N 421.258 1.00505 1.21394 0
M  V30 4385 C 422.535 0.603277 1.86064 0
M  V30 4386 C 422.915 -0.919095 1.90042 0
M  V30 4387 O 422.263 -1.80607 1.39977 0
M  V30 4388 C 422.473 1.23772 3.26315 0
M  V30 4389 C 423.821 1.34586 4.02705 0
M  V30 4390 O 424.845 1.19304 3.35626 0
M  V30 4391 O 423.704 1.59169 5.22807 0
M  V30 4392 H 420.798 0.206634 0.800769 0
M  V30 4393 H 423.344 1.1017 1.29076 0
M  V30 4394 H 422.116 2.27848 3.18121 0
M  V30 4395 H 421.739 0.725648 3.90922 0
M  V30 4396 N 422.737 -1.36956 0.779787 0
M  V30 4397 C 424.014 -1.93697 0.272156 0
M  V30 4398 C 424.394 -1.71267 -1.23413 0
M  V30 4399 O 423.742 -1.06607 -2.02107 0
M  V30 4400 C 423.952 -3.42812 0.654291 0
M  V30 4401 C 425.3 -4.19921 0.628602 0
M  V30 4402 O 426.324 -3.51209 0.594172 0
M  V30 4403 O 425.183 -5.42465 0.662864 0
M  V30 4404 H 422.277 -0.824447 0.0649286 0
M  V30 4405 H 424.823 -1.46196 0.861682 0
M  V30 4406 H 423.595 -3.52754 1.69353 0
M  V30 4407 H 423.218 -3.97582 0.0381369 0
M  V30 4408 N 424.215 -0.530993 -1.48385 0
M  V30 4409 C 425.145 0.219985 -2.32461 0
M  V30 4410 C 426.126 0.934111 -1.42156 0
M  V30 4411 O 427.311 0.919694 -1.71042 0
M  V30 4412 C 424.441 1.26674 -3.23375 0
M  V30 4413 C 423.395 0.67069 -4.22712 0
M  V30 4414 C 422.721 1.82017 -5.02766 0
M  V30 4415 C 424.021 -0.358268 -5.2107 0
M  V30 4416 H 425.715 -0.48187 -2.95497 0
M  V30 4417 H 423.261 -0.233182 -1.42099 0
M  V30 4418 H 425.214 1.80006 -3.81019 0
M  V30 4419 H 423.938 1.99818 -2.58341 0
M  V30 4420 H 422.597 0.158878 -3.66256 0
M  V30 4421 H 422.245 2.54002 -4.34157 0
M  V30 4422 H 421.945 1.42727 -5.70003 0
M  V30 4423 H 423.469 2.35725 -5.63264 0
M  V30 4424 H 424.883 0.0880081 -5.73232 0
M  V30 4425 H 423.28 -0.66861 -5.96364 0
M  V30 4426 H 424.35 -1.26367 -4.68145 0
M  V30 4427 N 425.693 1.55336 -0.266172 0
M  V30 4428 C 426.643 2.18848 0.639497 0
M  V30 4429 C 427.627 1.1503 1.12503 0
M  V30 4430 O 428.819 1.40875 1.0716 0
M  V30 4431 C 425.948 2.90626 1.82733 0
M  V30 4432 C 425.034 4.01723 1.35939 0
M  V30 4433 N 425.425 5.02145 0.606988 0
M  V30 4434 C 423.723 4.1463 1.6431 0
M  V30 4435 C 424.424 5.80572 0.362138 0
M  V30 4436 N 423.4 5.35551 0.931971 0
M  V30 4437 H 427.202 2.93845 0.0567057 0
M  V30 4438 H 424.716 1.62252 -0.0693312 0
M  V30 4439 H 426.713 3.34569 2.48735 0
M  V30 4440 H 425.373 2.17137 2.41416 0
M  V30 4441 H 426.384 5.17271 0.255198 0
M  V30 4442 H 423.061 3.52326 2.23993 0
M  V30 4443 H 424.451 6.71472 -0.239848 0
M  V30 4444 N 427.171 -0.0066808 1.57599 0
M  V30 4445 C 428.081 -1.01671 2.11424 0
M  V30 4446 C 429.097 -1.38143 1.05795 0
M  V30 4447 O 430.273 -1.47011 1.37658 0
M  V30 4448 C 427.338 -2.29192 2.60139 0
M  V30 4449 C 426.399 -1.99094 3.80342 0
M  V30 4450 C 425.632 -3.20535 4.26724 0
M  V30 4451 O 425.855 -4.3199 3.72479 0
M  V30 4452 O 424.789 -3.04924 5.18946 0
M  V30 4453 H 428.615 -0.589181 2.9793 0
M  V30 4454 H 426.2 -0.225091 1.47695 0
M  V30 4455 H 428.082 -3.0412 2.917 0
M  V30 4456 H 426.757 -2.71195 1.76733 0
M  V30 4457 H 425.664 -1.21663 3.53764 0
M  V30 4458 H 426.997 -1.61931 4.648 0
M  V30 4459 N 428.649 -1.55105 -0.279332 0
M  V30 4460 C 429.597 -1.88333 -1.36505 0
M  V30 4461 C 430.591 -0.759043 -1.51443 0
M  V30 4462 O 431.797 -0.943312 -1.53302 0
M  V30 4463 H 428.172 -0.59766 -0.456406 0
M  V30 4464 H 430.143 -2.79041 -1.05728 0
M  V30 4465 C 428.892 -2.16628 -2.7197 0
M  V30 4466 H 428.215 -3.02624 -2.61264 0
M  V30 4467 H 429.655 -2.43803 -3.46895 0
M  V30 4468 C 428.114 -0.971807 -3.22579 0
M  V30 4469 O 428.644 -0.203228 -4.01186 0
M  V30 4470 N 426.85 -0.771238 -2.80179 0
M  V30 4471 H 426.397 -1.39792 -2.1637 0
M  V30 4472 H 426.355 0.0263667 -3.14389 0
M  V30 4473 N 430.127 0.543554 -1.4793 0
M  V30 4474 C 431.352 1.32995 -1.59145 0
M  V30 4475 C 431.777 1.86472 -0.246956 0
M  V30 4476 O 431.135 1.63696 0.779324 0
M  V30 4477 C 431.183 2.46623 -2.63077 0
M  V30 4478 O 430.287 3.49261 -2.19295 0
M  V30 4479 H 429.628 0.394472 -0.534124 0
M  V30 4480 H 432.158 0.655489 -1.93816 0
M  V30 4481 H 432.168 2.93001 -2.83926 0
M  V30 4482 H 430.843 2.07059 -3.60693 0
M  V30 4483 H 429.42 3.09094 -2.08603 0
M  V30 4484 N 431.605 1.3629 0.791371 0
M  V30 4485 C 432.852 1.30412 1.54916 0
M  V30 4486 C 433.18 -0.117162 1.94147 0
M  V30 4487 O 432.435 -1.08599 1.62803 0
M  V30 4488 C 432.734 2.17068 2.8393 0
M  V30 4489 C 432.4 3.65645 2.63846 0
M  V30 4490 C 431.062 4.0614 2.58077 0
M  V30 4491 C 433.414 4.59855 2.45322 0
M  V30 4492 C 430.742 5.3899 2.31748 0
M  V30 4493 C 433.094 5.9292 2.2052 0
M  V30 4494 C 431.758 6.32542 2.13183 0
M  V30 4495 H 431.028 0.47721 0.566879 0
M  V30 4496 H 433.675 1.68325 0.913172 0
M  V30 4497 H 431.98 1.72085 3.51986 0
M  V30 4498 H 433.677 2.09846 3.4171 0
M  V30 4499 H 430.267 3.33518 2.69191 0
M  V30 4500 H 434.451 4.29443 2.48782 0
M  V30 4501 H 429.707 5.68672 2.24548 0
M  V30 4502 H 433.881 6.65487 2.05182 0
M  V30 4503 H 431.508 7.35412 1.92544 0
M  V30 4504 N 433.083 -1.0153 1.20538 0
M  V30 4505 C 434.031 -2.12215 0.952235 0
M  V30 4506 C 435.025 -1.69123 -0.0968735 0
M  V30 4507 O 436.231 -1.7992 0.0536006 0
M  V30 4508 H 432.606 -0.693576 0.290613 0
M  V30 4509 H 434.577 -2.3075 1.89201 0
M  V30 4510 C 433.326 -3.43755 0.522287 0
M  V30 4511 H 432.649 -3.7734 1.32115 0
M  V30 4512 H 434.089 -4.22254 0.384389 0
M  V30 4513 C 432.548 -3.28088 -0.765489 0
M  V30 4514 O 433.078 -3.57921 -1.8236 0
M  V30 4515 N 431.284 -2.81333 -0.728011 0
M  V30 4516 H 430.831 -2.57255 0.133332 0
M  V30 4517 H 430.789 -2.71232 -1.58999 0
M  V30 4518 N 434.561 -1.01147 -1.20859 0
M  V30 4519 C 435.471 -0.58686 -2.27141 0
M  V30 4520 C 436.487 0.373198 -1.69951 0
M  V30 4521 O 437.663 0.235423 -2.00019 0
M  V30 4522 C 434.728 0.0733602 -3.46622 0
M  V30 4523 C 433.789 -0.931995 -4.19061 0
M  V30 4524 C 433.022 -0.303186 -5.32838 0
M  V30 4525 O 433.245 0.898395 -5.63281 0
M  V30 4526 O 432.179 -1.01735 -5.9324 0
M  V30 4527 H 436.005 -1.47155 -2.65667 0
M  V30 4528 H 433.59 -0.780689 -1.2738 0
M  V30 4529 H 435.472 0.442333 -4.19072 0
M  V30 4530 H 434.147 0.932329 -3.09983 0
M  V30 4531 H 433.054 -1.35224 -3.48805 0
M  V30 4532 H 434.387 -1.76076 -4.59628 0
M  V30 4533 N 436.039 1.36541 -0.78704 0
M  V30 4534 C 436.971 2.28761 -0.141773 0
M  V30 4535 C 437.984 1.49365 0.647599 0
M  V30 4536 O 439.173 1.71836 0.483173 0
M  V30 4537 C 436.273 3.28771 0.822368 0
M  V30 4538 C 435.446 4.3732 0.0835594 0
M  V30 4539 C 434.505 5.17307 0.963296 0
M  V30 4540 O 433.531 5.67638 0.421419 0
M  V30 4541 N 434.733 5.33515 2.28784 0
M  V30 4542 H 437.498 2.84777 -0.933919 0
M  V30 4543 H 435.059 1.48682 -0.640735 0
M  V30 4544 H 437.051 3.79169 1.41468 0
M  V30 4545 H 435.621 2.73412 1.5154 0
M  V30 4546 H 434.841 3.88118 -0.689809 0
M  V30 4547 H 436.129 5.0701 -0.426358 0
M  V30 4548 H 435.527 4.94234 2.75226 0
M  V30 4549 H 434.084 5.87165 2.82985 0
M  V30 4550 N 437.518 0.538854 1.48102 0
M  V30 4551 C 438.765 0.0080018 2.02498 0
M  V30 4552 C 439.093 -1.33437 1.41509 0
M  V30 4553 O 438.348 -1.87709 0.553507 0
M  V30 4554 C 438.647 -0.153808 3.57069 0
M  V30 4555 C 438.313 1.11533 4.36888 0
M  V30 4556 C 436.975 1.46314 4.58417 0
M  V30 4557 C 439.327 1.95718 4.83057 0
M  V30 4558 C 436.655 2.6516 5.23361 0
M  V30 4559 C 439.007 3.13751 5.49312 0
M  V30 4560 C 437.671 3.48866 5.69077 0
M  V30 4561 H 436.941 0.00292807 0.740994 0
M  V30 4562 H 439.588 0.706668 1.77984 0
M  V30 4563 H 437.893 -0.935309 3.80472 0
M  V30 4564 H 439.59 -0.579607 3.96789 0
M  V30 4565 H 436.18 0.834484 4.20398 0
M  V30 4566 H 440.364 1.70158 4.66219 0
M  V30 4567 H 435.62 2.92558 5.36861 0
M  V30 4568 H 439.794 3.79282 5.84053 0
M  V30 4569 H 437.421 4.41054 6.19173 0
M  V30 4570 N 438.996 -1.55193 0.274407 0
M  V30 4571 C 440.224 -2.03987 -0.345943 0
M  V30 4572 C 440.639 -1.15279 -1.4952 0
M  V30 4573 O 439.996 -0.172759 -1.8168 0
M  V30 4574 C 440.047 -3.51898 -0.827631 0
M  V30 4575 O 439.768 -4.37231 0.275855 0
M  V30 4576 C 441.269 -4.16577 -1.51587 0
M  V30 4577 H 438.489 -0.666335 -0.0789892 0
M  V30 4578 H 441.033 -2.00423 0.406294 0
M  V30 4579 H 439.188 -3.55909 -1.52996 0
M  V30 4580 H 439.602 -5.24415 -0.0943638 0
M  V30 4581 H 441.076 -5.21678 -1.80433 0
M  V30 4582 H 441.553 -3.64707 -2.44716 0
M  V30 4583 H 442.159 -4.16568 -0.857409 0
M  V30 4584 N 440.474 -0.00167713 -1.576 0
M  V30 4585 C 441.384 1.00548 -2.1196 0
M  V30 4586 C 442.4 1.3758 -1.06526 0
M  V30 4587 O 443.576 1.46278 -1.38436 0
M  V30 4588 C 440.641 2.27809 -2.6135 0
M  V30 4589 C 439.702 1.97074 -3.81393 0
M  V30 4590 C 438.935 3.18267 -4.28417 0
M  V30 4591 O 439.158 4.30009 -3.74765 0
M  V30 4592 O 438.092 3.02167 -5.20556 0
M  V30 4593 H 441.918 0.573373 -2.98238 0
M  V30 4594 H 439.503 0.217255 -1.47812 0
M  V30 4595 H 441.385 3.02568 -2.93309 0
M  V30 4596 H 440.06 2.70254 -1.78169 0
M  V30 4597 H 438.967 1.19785 -3.54404 0
M  V30 4598 H 440.3 1.59464 -4.65652 0
M  V30 4599 N 441.952 1.55251 0.271103 0
M  V30 4600 C 442.882 1.9127 1.33933 0
M  V30 4601 C 443.863 0.77478 1.5143 0
M  V30 4602 O 445.048 1.03307 1.64442 0
M  V30 4603 C 442.178 2.18627 2.69851 0
M  V30 4604 C 441.132 3.34442 2.67081 0
M  V30 4605 C 440.458 3.47284 4.06569 0
M  V30 4606 C 441.758 4.70784 2.26185 0
M  V30 4607 H 443.452 2.80744 1.04035 0
M  V30 4608 H 440.998 1.35077 0.499017 0
M  V30 4609 H 442.951 2.42413 3.44694 0
M  V30 4610 H 441.675 1.25955 3.01335 0
M  V30 4611 H 440.334 3.10627 1.94695 0
M  V30 4612 H 439.982 2.52074 4.35279 0
M  V30 4613 H 439.682 4.25152 4.0561 0
M  V30 4614 H 441.206 3.73363 4.83148 0
M  V30 4615 H 442.62 4.94102 2.90751 0
M  V30 4616 H 441.017 5.51582 2.36384 0
M  V30 4617 H 442.087 4.69478 1.21319 0
M  V30 4618 N 443.43 -0.535701 1.48216 0
M  V30 4619 C 444.707 -1.29683 1.46429 0
M  V30 4620 C 445.087 -2.10391 0.172852 0
M  V30 4621 O 444.435 -2.12282 -0.845488 0
M  V30 4622 C 444.645 -2.18313 2.72287 0
M  V30 4623 C 445.993 -2.78639 3.20383 0
M  V30 4624 O 447.017 -2.28604 2.73164 0
M  V30 4625 O 445.876 -3.69636 4.02531 0
M  V30 4626 H 442.97 -0.585026 0.584529 0
M  V30 4627 H 445.516 -0.552827 1.60443 0
M  V30 4628 H 444.288 -1.58421 3.57797 0
M  V30 4629 H 443.911 -2.99971 2.60966 0
M  V30 4630 N 444.908 -1.36708 -0.784132 0
M  V30 4631 C 445.838 -1.34153 -1.91116 0
M  V30 4632 C 446.819 -0.212121 -1.68772 0
M  V30 4633 O 448.004 -0.410581 -1.8981 0
M  V30 4634 C 445.134 -1.13535 -3.28218 0
M  V30 4635 C 444.088 -2.23356 -3.65097 0
M  V30 4636 C 443.414 -1.87875 -5.00607 0
M  V30 4637 C 444.714 -3.65473 -3.73131 0
M  V30 4638 H 446.408 -2.28459 -1.93512 0
M  V30 4639 H 443.954 -1.09973 -0.929618 0
M  V30 4640 H 445.907 -1.10381 -4.06687 0
M  V30 4641 H 444.631 -0.156804 -3.26223 0
M  V30 4642 H 443.29 -2.25645 -2.88929 0
M  V30 4643 H 442.938 -0.885814 -4.95139 0
M  V30 4644 H 442.638 -2.61406 -5.26252 0
M  V30 4645 H 444.162 -1.86286 -5.81489 0
M  V30 4646 H 445.576 -3.65382 -4.41779 0
M  V30 4647 H 443.973 -4.37953 -4.10265 0
M  V30 4648 H 445.043 -3.99995 -2.74102 0
M  V30 4649 N 446.386 1.0089 -1.21074 0
M  V30 4650 C 447.802 1.2695 -0.967257 0
M  V30 4651 C 448.002 1.9846 0.348673 0
M  V30 4652 O 447.058 2.28459 1.0753 0
M  V30 4653 C 448.371 2.09697 -2.15517 0
M  V30 4654 C 449.919 2.22937 -2.197 0
M  V30 4655 C 450.394 3.09064 -3.37999 0
M  V30 4656 N 451.885 3.16653 -3.38061 0
M  V30 4657 C 452.62 3.8354 -4.26245 0
M  V30 4658 N 452.116 4.52488 -5.2462 0
M  V30 4659 N 453.909 3.80141 -4.14064 0
M  V30 4660 H 446.06 0.529005 -2.05707 0
M  V30 4661 H 448.323 0.296148 -0.900556 0
M  V30 4662 H 448.029 1.64497 -3.10859 0
M  V30 4663 H 447.903 3.10444 -2.14253 0
M  V30 4664 H 450.29 2.67357 -1.24916 0
M  V30 4665 H 450.371 1.21673 -2.2501 0
M  V30 4666 H 450.015 2.65347 -4.33074 0
M  V30 4667 H 449.945 4.10433 -3.29928 0
M  V30 4668 H 452.436 2.67566 -2.66865 0
M  V30 4669 H 452.749 5.01219 -5.88217 0
M  V30 4670 H 451.094 4.51288 -5.28549 0
M  V30 4671 H 454.285 3.25427 -3.36474 0
M  V30 4672 H 454.458 4.31992 -4.82998 0
M  V30 4673 N 447.864 1.01787 1.20321 0
M  V30 4674 C 448.797 0.533882 2.21867 0
M  V30 4675 C 449.775 -0.419361 1.57099 0
M  V30 4676 O 450.959 -0.339062 1.85426 0
M  V30 4677 C 448.086 -0.222899 3.37966 0
M  V30 4678 C 447.132 0.680091 4.21043 0
M  V30 4679 S 447.965 2.14997 4.90445 0
M  V30 4680 C 449.121 1.40339 6.09964 0
M  V30 4681 H 449.354 1.39429 2.62577 0
M  V30 4682 H 446.887 0.826867 1.30393 0
M  V30 4683 H 448.845 -0.653425 4.05266 0
M  V30 4684 H 447.506 -1.0589 2.95713 0
M  V30 4685 H 446.699 0.0964704 5.03908 0
M  V30 4686 H 446.301 1.04845 3.59004 0
M  V30 4687 H 448.593 0.68407 6.74038 0
M  V30 4688 H 449.536 2.20823 6.72787 0
M  V30 4689 H 449.944 0.905716 5.57187 0
M  V30 4690 N 449.342 -1.36122 0.79427 0
M  V30 4691 C 450.272 -2.32551 0.210328 0
M  V30 4692 C 451.253 -1.56884 -0.657386 0
M  V30 4693 O 452.438 -1.85014 -0.590207 0
M  V30 4694 C 449.568 -3.41128 -0.651819 0
M  V30 4695 C 448.522 -4.27842 0.116395 0
M  V30 4696 C 447.848 -5.2763 -0.86666 0
M  V30 4697 C 449.148 -5.05647 1.30837 0
M  V30 4698 H 450.842 -2.81636 1.01594 0
M  V30 4699 H 448.388 -1.35407 0.489981 0
M  V30 4700 H 450.341 -4.07581 -1.07031 0
M  V30 4701 H 449.065 -2.90622 -1.49019 0
M  V30 4702 H 447.724 -3.62952 0.515915 0
M  V30 4703 H 447.372 -4.73395 -1.70019 0
M  V30 4704 H 447.072 -5.86514 -0.35705 0
M  V30 4705 H 448.596 -5.96955 -1.28361 0
M  V30 4706 H 450.01 -5.65113 0.965393 0
M  V30 4707 H 448.407 -5.73967 1.75161 0
M  V30 4708 H 449.477 -4.37006 2.10128 0
M  V30 4709 N 450.82 -0.546701 -1.47814 0
M  V30 4710 C 452.066 -0.0187684 -2.02791 0
M  V30 4711 C 452.399 1.32338 -1.42128 0
M  V30 4712 O 451.674 1.85867 -0.573023 0
M  V30 4713 C 451.957 0.0854985 -3.59998 0
M  V30 4714 C 451.81 -1.283 -4.31114 0
M  V30 4715 C 453.129 0.80412 -4.32691 0
M  V30 4716 H 450.248 -0.0082946 -0.736953 0
M  V30 4717 H 452.89 -0.706962 -1.76358 0
M  V30 4718 H 451.04 0.671609 -3.82651 0
M  V30 4719 H 452.712 -1.91151 -4.19832 0
M  V30 4720 H 450.955 -1.86049 -3.91878 0
M  V30 4721 H 451.626 -1.16287 -5.39612 0
M  V30 4722 H 454.102 0.306576 -4.14969 0
M  V30 4723 H 452.978 0.846011 -5.42341 0
M  V30 4724 H 453.239 1.85802 -4.01161 0
M  V30 4725 N 452.299 1.55045 -0.282633 0
M  V30 4726 C 453.546 1.9976 0.33199 0
M  V30 4727 C 453.874 1.17105 1.55295 0
M  V30 4728 O 453.129 0.230599 1.94337 0
M  V30 4729 C 453.428 3.49422 0.750938 0
M  V30 4730 C 453.094 4.4941 -0.366228 0
M  V30 4731 C 451.756 4.76471 -0.672964 0
M  V30 4732 C 454.108 5.09054 -1.11864 0
M  V30 4733 C 451.436 5.60442 -1.73556 0
M  V30 4734 C 453.788 5.9418 -2.17102 0
M  V30 4735 C 452.452 6.19558 -2.48402 0
M  V30 4736 H 451.722 0.730974 0.121484 0
M  V30 4737 H 454.369 1.8732 -0.39791 0
M  V30 4738 H 452.674 3.59377 1.56063 0
M  V30 4739 H 454.371 3.81432 1.23736 0
M  V30 4740 H 450.961 4.2844 -0.117041 0
M  V30 4741 H 455.145 4.88165 -0.894925 0
M  V30 4742 H 450.401 5.78349 -1.983 0
M  V30 4743 H 454.575 6.39427 -2.75873 0
M  V30 4744 H 452.202 6.84417 -3.30874 0
M  V30 4745 N 453.777 0.010035 1.57597 0
M  V30 4746 C 454.707 -0.976857 2.12084 0
M  V30 4747 C 455.688 -1.35191 1.03235 0
M  V30 4748 O 456.873 -1.43389 1.3097 0
M  V30 4749 C 454.003 -2.26548 2.63236 0
M  V30 4750 C 452.957 -2.03175 3.76701 0
M  V30 4751 C 452.283 -3.38138 4.14206 0
M  V30 4752 C 453.583 -1.38625 5.03568 0
M  V30 4753 H 455.277 -0.523145 2.94794 0
M  V30 4754 H 452.823 -0.250195 1.4181 0
M  V30 4755 H 454.776 -2.95952 2.99984 0
M  V30 4756 H 453.5 -2.74051 1.77661 0
M  V30 4757 H 452.159 -1.36195 3.40362 0
M  V30 4758 H 451.807 -3.83363 3.25641 0
M  V30 4759 H 451.507 -3.23312 4.90656 0
M  V30 4760 H 453.031 -4.08841 4.53521 0
M  V30 4761 H 454.445 -1.98 5.38023 0
M  V30 4762 H 452.842 -1.34256 5.84889 0
M  V30 4763 H 453.912 -0.356722 4.83586 0
M  V30 4764 N 455.255 -1.55392 -0.262866 0
M  V30 4765 C 456.503 -1.76127 -0.991147 0
M  V30 4766 C 456.824 -0.571083 -1.8645 0
M  V30 4767 O 456.094 0.413698 -1.91482 0
M  V30 4768 H 454.674 -0.649528 -0.368948 0
M  V30 4769 H 457.336 -1.9281 -0.284655 0
M  V30 4770 H 456.432 -2.6663 -1.62219 0
M  V30 4771 N 456.733 0.527833 -1.48498 0
M  V30 4772 C 457.981 1.28101 -1.56316 0
M  V30 4773 C 458.302 1.9352 -0.239781 0
M  V30 4774 O 457.572 1.81433 0.738849 0
M  V30 4775 H 456.152 0.475793 -0.575873 0
M  V30 4776 H 458.814 0.614052 -1.84974 0
M  V30 4777 H 457.91 2.05916 -2.34532 0
M  V30 4778 N 458.211 1.37122 0.776871 0
M  V30 4779 C 459.174 1.32301 1.8716 0
M  V30 4780 C 460.174 0.228099 1.59174 0
M  V30 4781 O 461.364 0.483642 1.67352 0
M  V30 4782 C 458.496 1.054 3.24197 0
M  V30 4783 H 459.689 2.29673 1.92848 0
M  V30 4784 H 457.242 1.22077 0.97606 0
M  V30 4785 H 457.977 0.0853872 3.24188 0
M  V30 4786 H 457.762 1.84648 3.45901 0
M  V30 4787 H 459.252 1.04664 4.04271 0
M  V30 4788 N 459.689 -1.00246 1.21608 0
M  V30 4789 C 460.619 -2.10921 1.00172 0
M  V30 4790 C 461.6 -1.69938 -0.0741587 0
M  V30 4791 O 462.785 -1.94009 0.0861753 0
M  V30 4792 C 459.915 -3.42618 0.568355 0
M  V30 4793 C 458.869 -3.97407 1.58909 0
M  V30 4794 C 458.195 -5.25038 1.01187 0
M  V30 4795 C 459.495 -4.2918 2.97661 0
M  V30 4796 H 461.189 -2.29112 1.92739 0
M  V30 4797 H 458.735 -1.10101 0.928102 0
M  V30 4798 H 460.688 -4.19444 0.405555 0
M  V30 4799 H 459.412 -3.24227 -0.392961 0
M  V30 4800 H 458.071 -3.22703 1.73949 0
M  V30 4801 H 457.719 -5.02982 0.0421965 0
M  V30 4802 H 457.419 -5.62661 1.6937 0
M  V30 4803 H 458.943 -6.04507 0.860448 0
M  V30 4804 H 460.357 -4.96839 2.86049 0
M  V30 4805 H 458.754 -4.77952 3.6288 0
M  V30 4806 H 459.824 -3.3735 3.48315 0
M  V30 4807 N 461.167 -1.02423 -1.1978 0
M  V30 4808 C 462.583 -0.740459 -1.41384 0
M  V30 4809 C 462.783 0.676827 -1.89793 0
M  V30 4810 O 461.839 1.4435 -2.0717 0
M  V30 4811 C 463.152 -1.77264 -2.42895 0
M  V30 4812 C 464.7 -1.79165 -2.56649 0
M  V30 4813 C 465.175 -2.8133 -3.6141 0
M  V30 4814 N 466.666 -2.80118 -3.68901 0
M  V30 4815 C 467.401 -3.55824 -4.49641 0
M  V30 4816 N 466.897 -4.41231 -5.34123 0
M  V30 4817 N 468.69 -3.44387 -4.44246 0
M  V30 4818 H 460.841 -1.9391 -0.866764 0
M  V30 4819 H 463.104 -0.838074 -0.443098 0
M  V30 4820 H 462.81 -2.7884 -2.14339 0
M  V30 4821 H 462.684 -1.59108 -3.42001 0
M  V30 4822 H 465.071 -0.782702 -2.84531 0
M  V30 4823 H 465.152 -2.01396 -1.57713 0
M  V30 4824 H 464.796 -3.82394 -3.34271 0
M  V30 4825 H 464.726 -2.56359 -4.59986 0
M  V30 4826 H 467.217 -2.1817 -3.08562 0
M  V30 4827 H 467.53 -4.95747 -5.92836 0
M  V30 4828 H 465.875 -4.45306 -5.33599 0
M  V30 4829 H 469.066 -2.7708 -3.77285 0
M  V30 4830 H 469.239 -4.0364 -5.06931 0
M  V30 4831 N 462.645 1.35699 -0.801477 0
M  V30 4832 C 463.873 2.03157 -0.391768 0
M  V30 4833 C 464.288 1.60412 0.995668 0
M  V30 4834 O 463.645 0.799228 1.64069 0
M  V30 4835 C 463.696 3.58566 -0.459671 0
M  V30 4836 O 463.417 3.99756 -1.7924 0
M  V30 4837 C 464.918 4.4328 -0.0421205 0
M  V30 4838 H 462.138 0.651688 -0.159825 0
M  V30 4839 H 464.682 1.73426 -1.08368 0
M  V30 4840 H 462.837 3.86963 0.183939 0
M  V30 4841 H 463.251 4.94387 -1.75162 0
M  V30 4842 H 464.725 5.51821 -0.140754 0
M  V30 4843 H 465.202 4.27383 1.01196 0
M  V30 4844 H 465.808 4.20168 -0.658687 0
M  V30 4845 N 464.123 0.554532 1.47522 0
M  V30 4846 C 465.539 0.214107 1.58157 0
M  V30 4847 C 465.739 -1.28331 1.55349 0
M  V30 4848 O 464.795 -2.06329 1.45549 0
M  V30 4849 C 466.108 0.838391 2.88776 0
M  V30 4850 C 467.656 0.809374 3.02354 0
M  V30 4851 C 468.131 1.41268 4.35669 0
M  V30 4852 N 469.622 1.37574 4.42298 0
M  V30 4853 C 470.357 1.8122 5.4401 0
M  V30 4854 N 469.853 2.3271 6.52547 0
M  V30 4855 N 471.646 1.72307 5.35039 0
M  V30 4856 H 463.797 1.52744 1.4759 0
M  V30 4857 H 466.06 0.636812 0.702264 0
M  V30 4858 H 465.766 1.89065 2.96559 0
M  V30 4859 H 465.64 0.329847 3.75755 0
M  V30 4860 H 468.027 -0.234187 2.94169 0
M  V30 4861 H 468.108 1.35565 2.16924 0
M  V30 4862 H 467.752 2.45529 4.4461 0
M  V30 4863 H 467.682 0.841871 5.19827 0
M  V30 4864 H 470.173 0.999081 3.64454 0
M  V30 4865 H 470.486 2.63944 7.26329 0
M  V30 4866 H 468.831 2.36719 6.53444 0
M  V30 4867 H 472.022 1.3186 4.49144 0
M  V30 4868 H 472.195 2.06641 6.14169 0
M  V30 4869 N 465.601 -1.54893 0.290851 0
M  V30 4870 C 466.511 -2.26812 -0.59945 0
M  V30 4871 C 467.527 -1.29963 -1.15696 0
M  V30 4872 O 468.703 -1.62928 -1.18391 0
M  V30 4873 C 465.768 -2.98716 -1.75982 0
M  V30 4874 C 464.829 -4.1108 -1.2374 0
M  V30 4875 C 464.062 -4.79546 -2.34246 0
M  V30 4876 O 464.285 -4.47309 -3.53936 0
M  V30 4877 O 463.219 -5.67165 -2.01512 0
M  V30 4878 H 467.045 -3.03696 -0.0163561 0
M  V30 4879 H 464.63 -1.49289 0.0576755 0
M  V30 4880 H 466.512 -3.43851 -2.43607 0
M  V30 4881 H 465.187 -2.24737 -2.3297 0
M  V30 4882 H 464.094 -3.70367 -0.527163 0
M  V30 4883 H 465.427 -4.87007 -0.71307 0
M  V30 4884 N 467.08 -0.0183926 -1.57589 0
M  V30 4885 C 468.027 0.967022 -2.09565 0
M  V30 4886 C 468.997 1.32983 -0.995225 0
M  V30 4887 O 470.182 1.42501 -1.26878 0
M  V30 4888 C 467.322 2.24772 -2.61861 0
M  V30 4889 C 466.435 1.94232 -3.85873 0
M  V30 4890 C 465.57 3.16518 -4.26603 0
M  V30 4891 C 464.609 2.81748 -5.43401 0
M  V30 4892 N 463.746 3.96626 -5.79338 0
M  V30 4893 H 468.586 0.516874 -2.93483 0
M  V30 4894 H 466.123 0.243544 -1.4507 0
M  V30 4895 H 468.081 2.99667 -2.90268 0
M  V30 4896 H 466.711 2.67423 -1.8079 0
M  V30 4897 H 465.763 1.09625 -3.64262 0
M  V30 4898 H 467.075 1.64616 -4.70853 0
M  V30 4899 H 466.229 3.99743 -4.56389 0
M  V30 4900 H 464.968 3.49286 -3.40368 0
M  V30 4901 H 463.973 1.96933 -5.1332 0
M  V30 4902 H 465.198 2.50207 -6.31327 0
M  V30 4903 H 463.144 4.29257 -4.96059 0
M  V30 4904 H 463.061 3.70598 -6.58933 0
M  V30 4905 H 464.329 4.80586 -6.13724 0
M  V30 4906 N 468.558 1.5553 0.254621 0
M  V30 4907 C 469.804 1.7818 0.980989 0
M  V30 4908 C 470.159 0.586059 1.83257 0
M  V30 4909 O 469.452 -0.420889 1.8692 0
M  V30 4910 C 469.646 3.03891 1.88109 0
M  V30 4911 C 469.475 4.35578 1.11812 0
M  V30 4912 C 468.245 4.98497 0.826343 0
M  V30 4913 C 470.443 5.11869 0.499486 0
M  V30 4914 N 468.425 6.13888 0.0385095 0
M  V30 4915 C 469.796 6.1981 -0.153292 0
M  V30 4916 C 471.851 4.96216 0.409175 0
M  V30 4917 C 470.554 7.13801 -0.8877 0
M  V30 4918 C 472.58 5.90578 -0.311683 0
M  V30 4919 C 471.942 6.97922 -0.953129 0
M  V30 4920 H 468.041 0.704057 0.340335 0
M  V30 4921 H 470.625 1.93025 0.254855 0
M  V30 4922 H 468.796 2.90389 2.57932 0
M  V30 4923 H 470.528 3.14869 2.54244 0
M  V30 4924 H 467.283 4.59769 1.13621 0
M  V30 4925 H 467.707 6.76129 -0.343275 0
M  V30 4926 H 472.349 4.1331 0.890765 0
M  V30 4927 H 470.067 7.96214 -1.38092 0
M  V30 4928 H 473.653 5.80544 -0.382125 0
M  V30 4929 H 472.533 7.69681 -1.50203 0
M  V30 4930 N 470.036 -0.519951 1.48776 0
M  V30 4931 C 471.313 -1.28123 1.47797 0
M  V30 4932 C 471.693 -2.10196 0.195157 0
M  V30 4933 O 471.041 -2.13167 -0.822925 0
M  V30 4934 C 471.251 -2.15413 2.74587 0
M  V30 4935 C 472.599 -2.75225 3.23321 0
M  V30 4936 O 473.623 -2.25694 2.75574 0
M  V30 4937 O 472.482 -3.65346 4.06429 0
M  V30 4938 H 469.576 -0.578793 0.590701 0
M  V30 4939 H 472.122 -0.535779 1.6102 0
M  V30 4940 H 470.894 -1.54617 3.59457 0
M  V30 4941 H 470.517 -2.97186 2.64132 0
M  V30 4942 N 471.514 -1.37532 -0.769588 0
M  V30 4943 C 472.762 -1.32597 -1.5252 0
M  V30 4944 C 473.083 0.0884294 -1.94799 0
M  V30 4945 O 472.353 1.03289 -1.66458 0
M  V30 4946 H 470.933 -0.487846 -0.565699 0
M  V30 4947 H 473.595 -1.72044 -0.915806 0
M  V30 4948 H 472.691 -1.96643 -2.42359 0
M  V30 4949 N 472.992 0.995999 -1.22138 0
M  V30 4950 C 473.922 2.10387 -1.01289 0
M  V30 4951 C 474.903 1.69975 0.0651454 0
M  V30 4952 O 476.088 1.9396 -0.0964628 0
M  V30 4953 C 473.218 3.42312 -0.586517 0
M  V30 4954 C 472.172 3.96558 -1.61014 0
M  V30 4955 C 471.498 5.24494 -1.0397 0
M  V30 4956 C 472.798 4.27595 -2.99933 0
M  V30 4957 H 474.492 2.28086 -1.93951 0
M  V30 4958 H 472.038 1.09607 -0.933928 0
M  V30 4959 H 473.991 4.19223 -0.427793 0
M  V30 4960 H 472.715 3.24431 0.375761 0
M  V30 4961 H 471.374 3.21776 -1.75658 0
M  V30 4962 H 471.022 5.02953 -0.0688703 0
M  V30 4963 H 470.722 5.61755 -1.72352 0
M  V30 4964 H 472.246 6.04042 -0.892494 0
M  V30 4965 H 473.66 4.95315 -2.8868 0
M  V30 4966 H 472.057 4.76021 -3.6541 0
M  V30 4967 H 473.127 3.35498 -3.50099 0
M  V30 4968 N 474.47 1.03057 1.19235 0
M  V30 4969 C 475.433 0.617418 2.20727 0
M  V30 4970 C 476.433 -0.319856 1.57587 0
M  V30 4971 O 477.623 -0.106633 1.73873 0
M  V30 4972 C 474.755 -0.096296 3.40764 0
M  V30 4973 H 475.948 1.51544 2.58794 0
M  V30 4974 H 473.501 0.821949 1.32942 0
M  V30 4975 H 474.236 -1.00859 3.08217 0
M  V30 4976 H 474.021 0.577217 3.87828 0
M  V30 4977 H 475.511 -0.372219 4.15938 0
M  V30 4978 N 475.948 -1.35272 0.808662 0
M  V30 4979 C 476.911 -2.28082 0.226093 0
M  V30 4980 C 477.911 -1.49673 -0.587762 0
M  V30 4981 O 479.101 -1.69404 -0.405943 0
M  V30 4982 C 476.233 -3.33955 -0.684596 0
M  V30 4983 H 477.426 -2.81116 1.04469 0
M  V30 4984 H 474.979 -1.45162 0.579466 0
M  V30 4985 H 475.714 -2.86111 -1.5268 0
M  V30 4986 H 475.499 -3.91965 -0.102699 0
M  V30 4987 H 476.989 -4.03219 -1.08646 0
M  V30 4988 N 477.426 -0.562348 -1.47226 0
M  V30 4989 C 478.651 -0.0432632 -2.07355 0
M  V30 4990 C 479.076 1.24332 -1.41149 0
M  V30 4991 O 478.434 1.74603 -0.488226 0
M  V30 4992 C 478.482 0.130288 -3.60365 0
M  V30 4993 O 477.586 1.19166 -3.94808 0
M  V30 4994 H 476.927 -0.0536334 -0.66183 0
M  V30 4995 H 479.457 -0.779495 -1.89169 0
M  V30 4996 H 479.467 0.342881 -4.06557 0
M  V30 4997 H 478.142 -0.809389 -4.07948 0
M  V30 4998 H 476.719 0.959153 -3.60354 0
M  V30 4999 N 478.904 1.54736 -0.299062 0
M  V30 5000 C 479.867 2.22127 0.565012 0
M  V30 5001 C 480.867 1.20669 1.06281 0
M  V30 5002 O 482.057 1.45417 0.959145 0
M  V30 5003 C 479.189 2.90611 1.78208 0
M  V30 5004 H 480.382 2.99891 -0.0237448 0
M  V30 5005 H 477.935 1.5622 -0.0498788 0
M  V30 5006 H 478.67 2.16921 2.41072 0
M  V30 5007 H 478.455 3.64984 1.43281 0
M  V30 5008 H 479.945 3.42026 2.396 0
M  V30 5009 N 480.382 0.0267497 1.57577 0
M  V30 5010 C 481.63 -0.651116 1.91324 0
M  V30 5011 C 481.951 -1.72804 0.90353 0
M  V30 5012 O 481.221 -1.95822 -0.0552946 0
M  V30 5013 H 479.801 -0.243491 0.706202 0
M  V30 5014 H 482.463 0.0739935 1.94759 0
M  V30 5015 H 481.559 -1.10536 2.9187 0
M  V30 5016 N 481.861 -1.55662 -0.24637 0
M  V30 5017 C 482.791 -1.93377 -1.30873 0
M  V30 5018 C 483.772 -0.798773 -1.50179 0
M  V30 5019 O 484.957 -1.0591 -1.62778 0
M  V30 5020 C 482.087 -2.22893 -2.66338 0
M  V30 5021 C 481.041 -3.38649 -2.61727 0
M  V30 5022 C 480.367 -3.53708 -4.00992 0
M  V30 5023 C 481.667 -4.74323 -2.18666 0
M  V30 5024 H 483.361 -2.82363 -0.995552 0
M  V30 5025 H 480.907 -1.35854 -0.477464 0
M  V30 5026 H 482.86 -2.47866 -3.40794 0
M  V30 5027 H 481.584 -1.30733 -2.99293 0
M  V30 5028 H 480.243 -3.13685 -1.89729 0
M  V30 5029 H 479.891 -2.58967 -4.31214 0
M  V30 5030 H 479.591 -4.31551 -3.98795 0
M  V30 5031 H 481.115 -3.81003 -4.77147 0
M  V30 5032 H 482.529 -4.98665 -2.82854 0
M  V30 5033 H 480.926 -5.55273 -2.27579 0
M  V30 5034 H 481.996 -4.71349 -1.13834 0
M  V30 5035 N 483.339 0.512053 -1.4905 0
M  V30 5036 C 484.585 1.26874 -1.58212 0
M  V30 5037 C 484.918 1.9241 -0.263073 0
M  V30 5038 O 484.193 1.80181 0.732476 0
M  V30 5039 C 484.476 2.34428 -2.73341 0
M  V30 5040 C 484.329 1.73466 -4.15006 0
M  V30 5041 C 485.648 3.36073 -2.84154 0
M  V30 5042 H 482.767 0.459924 -0.575881 0
M  V30 5043 H 485.409 0.568587 -1.81293 0
M  V30 5044 H 483.559 2.94146 -2.53792 0
M  V30 5045 H 485.231 1.17661 -4.46042 0
M  V30 5046 H 483.474 1.03921 -4.21168 0
M  V30 5047 H 484.145 2.51426 -4.91415 0
M  V30 5048 H 486.621 2.86332 -3.01916 0
M  V30 5049 H 485.497 4.08703 -3.66406 0
M  V30 5050 H 485.758 3.97725 -1.93048 0
M  V30 5051 N 484.817 1.37938 0.762283 0
M  V30 5052 C 486.063 1.33866 1.52341 0
M  V30 5053 C 486.396 -0.0738961 1.94059 0
M  V30 5054 O 485.671 -1.03326 1.64785 0
M  V30 5055 C 485.954 2.28644 2.78197 0
M  V30 5056 C 485.807 3.78722 2.42672 0
M  V30 5057 C 487.126 2.21702 3.80179 0
M  V30 5058 H 484.245 0.487593 0.55265 0
M  V30 5059 H 486.887 1.68717 0.873767 0
M  V30 5060 H 485.037 1.99055 3.33631 0
M  V30 5061 H 486.709 4.18948 1.93081 0
M  V30 5062 H 484.952 3.96827 1.75244 0
M  V30 5063 H 485.623 4.40486 3.3268 0
M  V30 5064 H 488.099 2.47805 3.34263 0
M  V30 5065 H 486.975 2.90143 4.65949 0
M  V30 5066 H 487.236 1.21301 4.25133 0
M  V30 5067 N 486.295 -0.989507 1.22664 0
M  V30 5068 C 487.205 -2.11449 1.01619 0
M  V30 5069 C 488.221 -1.73962 -0.036545 0
M  V30 5070 O 489.397 -2.00788 0.156924 0
M  V30 5071 C 486.462 -3.41465 0.600204 0
M  V30 5072 C 485.523 -3.93033 1.72695 0
M  V30 5073 C 484.756 -5.16844 1.33071 0
M  V30 5074 O 484.979 -5.7001 0.210975 0
M  V30 5075 O 483.913 -5.6225 2.14845 0
M  V30 5076 H 487.739 -2.32088 1.9588 0
M  V30 5077 H 485.324 -1.09823 1.01289 0
M  V30 5078 H 487.206 -4.19695 0.37873 0
M  V30 5079 H 485.881 -3.22178 -0.313511 0
M  V30 5080 H 484.788 -3.15961 2.00298 0
M  V30 5081 H 486.121 -4.16758 2.61865 0
M  V30 5082 N 487.773 -1.03688 -1.18687 0
M  V30 5083 C 488.683 -0.634908 -2.25845 0
M  V30 5084 C 489.699 0.337065 -1.70704 0
M  V30 5085 O 490.875 0.192943 -2.00474 0
M  V30 5086 C 487.94 -0.000180054 -3.467 0
M  V30 5087 C 487.001 -1.02067 -4.1699 0
M  V30 5088 C 486.234 -0.41614 -5.32075 0
M  V30 5089 O 486.457 0.778712 -5.65059 0
M  V30 5090 O 485.391 -1.14296 -5.90948 0
M  V30 5091 H 489.217 -1.52757 -2.62486 0
M  V30 5092 H 486.802 -0.807533 -1.25695 0
M  V30 5093 H 488.684 0.353342 -4.19916 0
M  V30 5094 H 487.359 0.866367 -3.11891 0
M  V30 5095 H 486.266 -1.42592 -3.45859 0
M  V30 5096 H 487.599 -1.85786 -4.5579 0
M  V30 5097 N 489.251 1.34841 -0.815825 0
M  V30 5098 C 490.497 1.98793 -0.401129 0
M  V30 5099 C 490.83 1.64548 1.03139 0
M  V30 5100 O 490.105 0.913487 1.71714 0
M  V30 5101 C 490.388 3.55143 -0.595409 0
M  V30 5102 C 490.241 3.99155 -2.07352 0
M  V30 5103 C 491.56 4.40092 -0.0268823 0
M  V30 5104 H 488.679 0.722146 -0.14722 0
M  V30 5105 H 491.321 1.59847 -1.02707 0
M  V30 5106 H 489.471 3.8845 -0.0625779 0
M  V30 5107 H 491.143 3.76216 -2.66945 0
M  V30 5108 H 489.386 3.49726 -2.56659 0
M  V30 5109 H 490.057 5.07971 -2.1603 0
M  V30 5110 H 492.533 4.13298 -0.482042 0
M  V30 5111 H 491.409 5.48562 -0.19267 0
M  V30 5112 H 491.67 4.29016 1.06759 0
M  V30 5113 N 490.729 0.570148 1.46925 0
M  V30 5114 C 492.145 0.23087 1.57921 0
M  V30 5115 C 492.345 -1.26676 1.56702 0
M  V30 5116 O 491.401 -2.04774 1.47729 0
M  V30 5117 C 492.714 0.868973 2.8787 0
M  V30 5118 C 494.262 0.841397 3.01479 0
M  V30 5119 C 494.737 1.45881 4.34146 0
M  V30 5120 N 496.228 1.42258 4.40814 0
M  V30 5121 C 496.963 1.8698 5.42057 0
M  V30 5122 N 496.459 2.39618 6.50042 0
M  V30 5123 N 498.252 1.77972 5.33181 0
M  V30 5124 H 490.403 1.54301 1.45962 0
M  V30 5125 H 492.666 0.644224 0.69547 0
M  V30 5126 H 492.372 1.922 2.94537 0
M  V30 5127 H 492.246 0.369682 3.75384 0
M  V30 5128 H 494.633 -0.202973 2.94401 0
M  V30 5129 H 494.714 1.37858 2.15474 0
M  V30 5130 H 494.358 2.50231 4.4198 0
M  V30 5131 H 494.288 0.896958 5.18905 0
M  V30 5132 H 496.779 1.03768 3.63374 0
M  V30 5133 H 497.092 2.71633 7.23488 0
M  V30 5134 H 495.437 2.43636 6.50897 0
M  V30 5135 H 498.628 1.36617 4.4772 0
M  V30 5136 H 498.801 2.13143 6.11943 0
M  V30 5137 N 492.207 -1.54576 0.307264 0
M  V30 5138 C 493.139 -2.21212 -0.599807 0
M  V30 5139 C 494.152 -1.20685 -1.09266 0
M  V30 5140 O 495.341 -1.47244 -1.00903 0
M  V30 5141 C 492.441 -2.84994 -1.83389 0
M  V30 5142 C 491.614 -4.11511 -1.48248 0
M  V30 5143 C 490.673 -4.59038 -2.57237 0
M  V30 5144 O 489.699 -5.24095 -2.22065 0
M  V30 5145 N 490.901 -4.31884 -3.87887 0
M  V30 5146 H 493.666 -2.99686 -0.0293075 0
M  V30 5147 H 491.227 -1.61379 0.129738 0
M  V30 5148 H 493.219 -3.1372 -2.5566 0
M  V30 5149 H 491.789 -2.10324 -2.31263 0
M  V30 5150 H 491.009 -3.89728 -0.592122 0
M  V30 5151 H 492.297 -4.93879 -1.22316 0
M  V30 5152 H 491.695 -3.79778 -4.19268 0
M  V30 5153 H 490.252 -4.65304 -4.56438 0
M  V30 5154 N 493.685 -0.035106 -1.57561 0
M  V30 5155 C 494.615 0.942993 -2.13612 0
M  V30 5156 C 495.596 1.33531 -1.05373 0
M  V30 5157 O 496.781 1.41287 -1.33235 0
M  V30 5158 C 493.911 2.22332 -2.66807 0
M  V30 5159 C 492.865 1.97156 -3.79886 0
M  V30 5160 C 492.191 3.31506 -4.19533 0
M  V30 5161 C 493.491 1.30596 -5.05709 0
M  V30 5162 H 495.185 0.476179 -2.95589 0
M  V30 5163 H 492.731 0.227602 -1.4219 0
M  V30 5164 H 494.684 2.91142 -3.04654 0
M  V30 5165 H 493.408 2.7119 -1.81999 0
M  V30 5166 H 492.067 1.30763 -3.42486 0
M  V30 5167 H 491.715 3.78134 -3.31698 0
M  V30 5168 H 491.415 3.15465 -4.95738 0
M  V30 5169 H 492.939 4.01574 -4.59968 0
M  V30 5170 H 494.353 1.89416 -5.41105 0
M  V30 5171 H 492.75 1.24934 -5.86951 0
M  V30 5172 H 493.82 0.279742 -4.84092 0
M  V30 5173 N 495.163 1.55791 0.238111 0
M  V30 5174 C 496.574 1.68383 0.806472 0
M  V30 5175 C 496.925 0.634157 1.85669 0
M  V30 5176 O 496.05 -0.217913 2.153 0
M  V30 5177 C 496.645 3.05268 1.46959 0
M  V30 5178 C 495.204 3.1977 1.98555 0
M  V30 5179 C 494.351 2.64279 0.839763 0
M  V30 5180 H 497.302 1.58694 0.0137535 0
M  V30 5181 H 497.323 3.00203 2.33792 0
M  V30 5182 H 496.835 3.81643 0.704993 0
M  V30 5183 H 494.936 2.48234 2.77868 0
M  V30 5184 H 495.049 4.26788 2.17689 0
M  V30 5185 H 493.413 2.22329 1.24265 0
M  V30 5186 H 494.196 3.43187 0.0881032 0
M  V30 5187 N 496.642 -0.504142 1.49319 0
M  V30 5188 C 497.867 -1.28729 1.62615 0
M  V30 5189 C 498.292 -1.85752 0.296309 0
M  V30 5190 O 497.65 -1.65704 -0.735649 0
M  V30 5191 C 497.698 -2.39561 2.69524 0
M  V30 5192 O 496.802 -3.43324 2.28478 0
M  V30 5193 H 496.143 -0.380172 0.544395 0
M  V30 5194 H 498.673 -0.603872 1.95485 0
M  V30 5195 H 498.683 -2.8537 2.91595 0
M  V30 5196 H 497.358 -1.97423 3.66056 0
M  V30 5197 H 495.935 -3.03455 2.16725 0
M  V30 5198 N 498.12 -1.38341 -0.754957 0
M  V30 5199 C 499.531 -1.30803 -1.3322 0
M  V30 5200 C 499.882 0.0368 -1.96165 0
M  V30 5201 O 499.007 0.938844 -1.94974 0
M  V30 5202 C 499.602 -2.3688 -2.42225 0
M  V30 5203 C 498.161 -2.32925 -2.95674 0
M  V30 5204 C 497.308 -2.19819 -1.69042 0
M  V30 5205 H 500.259 -1.48719 -0.553937 0
M  V30 5206 H 500.28 -2.02517 -3.22129 0
M  V30 5207 H 499.792 -3.34747 -1.96383 0
M  V30 5208 H 497.893 -1.38635 -3.45848 0
M  V30 5209 H 498.006 -3.27008 -3.50146 0
M  V30 5210 H 496.37 -1.66648 -1.92615 0
M  V30 5211 H 497.153 -3.19625 -1.25279 0
M  V30 5212 N 499.598 0.982988 -1.23187 0
M  V30 5213 C 500.826 1.75921 -1.08901 0
M  V30 5214 C 501.241 1.85341 0.359719 0
M  V30 5215 O 500.598 1.33072 1.24892 0
M  V30 5216 C 500.649 3.18742 -1.70545 0
M  V30 5217 O 500.37 3.09814 -3.09753 0
M  V30 5218 C 501.871 4.1277 -1.61667 0
M  V30 5219 H 499.091 0.552166 -0.381252 0
M  V30 5220 H 501.635 1.23516 -1.62985 0
M  V30 5221 H 499.79 3.68182 -1.20501 0
M  V30 5222 H 500.204 3.99703 -3.39614 0
M  V30 5223 H 501.678 5.10697 -2.09506 0
M  V30 5224 H 502.155 4.3542 -0.575009 0
M  V30 5225 H 502.761 3.69232 -2.11064 0
M  V30 5226 N 501.076 1.04316 1.18135 0
M  V30 5227 C 502.325 0.74319 1.87509 0
M  V30 5228 C 502.638 -0.732136 1.81381 0
M  V30 5229 O 503.844 -1.14572 2.46141 0
M  V30 5230 C 502.3 1.27913 3.36402 0
M  V30 5231 C 501.908 2.78326 3.51053 0
M  V30 5232 C 503.652 1.0558 4.11161 0
M  V30 5233 C 501.559 3.25266 4.93919 0
M  V30 5234 H 500.489 0.274313 0.702331 0
M  V30 5235 H 503.14 1.25931 1.33467 0
M  V30 5236 H 501.522 0.690853 3.89927 0
M  V30 5237 H 502.696 3.42933 3.07788 0
M  V30 5238 H 501.011 2.991 2.89704 0
M  V30 5239 H 503.608 1.38161 5.16542 0
M  V30 5240 H 503.951 -0.00684729 4.16299 0
M  V30 5241 H 504.484 1.60882 3.63816 0
M  V30 5242 H 501.223 4.30922 4.9395 0
M  V30 5243 H 500.743 2.65396 5.3789 0
M  V30 5244 H 502.422 3.19433 5.62647 0
M  V30 5245 N 502.554 -1.34406 0.822964 0
M  V30 5246 C 503.965 -1.8069 0.469879 0
M  V30 5247 C 504.316 -1.68223 -1.00972 0
M  V30 5248 O 503.441 -1.22226 -1.78577 0
M  V30 5249 C 504.036 -3.28064 0.846118 0
M  V30 5250 C 502.595 -3.72428 0.545402 0
M  V30 5251 C 501.742 -2.56116 1.06301 0
M  V30 5252 H 504.693 -1.22153 1.01313 0
M  V30 5253 H 504.714 -3.80205 0.149922 0
M  V30 5254 H 504.226 -3.37107 1.92304 0
M  V30 5255 H 502.327 -3.68924 -0.522109 0
M  V30 5256 H 502.44 -4.66548 1.0895 0
M  V30 5257 H 500.804 -2.50048 0.484554 0
M  V30 5258 H 501.587 -2.67928 2.14638 0
M  V30 5259 N 504.032 -0.577932 -1.46621 0
M  V30 5260 C 505.262 -0.0670668 -2.06491 0
M  V30 5261 C 505.67 1.24119 -1.42798 0
M  V30 5262 O 505.013 1.76016 -0.525759 0
M  V30 5263 C 505.075 0.177995 -3.59059 0
M  V30 5264 C 504.739 -1.04394 -4.44917 0
M  V30 5265 C 505.736 -1.95479 -4.81751 0
M  V30 5266 C 503.421 -1.26444 -4.86125 0
M  V30 5267 C 505.415 -3.06965 -5.58615 0
M  V30 5268 C 503.102 -2.38237 -5.62749 0
M  V30 5269 C 504.1 -3.28327 -5.98908 0
M  V30 5270 O 503.788 -4.38179 -6.73984 0
M  V30 5271 H 503.52 -0.0523159 -0.673973 0
M  V30 5272 H 506.074 -0.796966 -1.89308 0
M  V30 5273 H 504.304 0.962451 -3.74531 0
M  V30 5274 H 505.993 0.636782 -4.00874 0
M  V30 5275 H 506.759 -1.79657 -4.50498 0
M  V30 5276 H 502.638 -0.572316 -4.57434 0
M  V30 5277 H 506.182 -3.77309 -5.86757 0
M  V30 5278 H 502.079 -2.54023 -5.93416 0
M  V30 5279 H 502.847 -4.36486 -6.92403 0
M  V30 5280 N 505.51 1.54411 -0.315457 0
M  V30 5281 C 506.787 1.92562 0.343398 0
M  V30 5282 C 507.167 1.24423 1.70535 0
M  V30 5283 O 506.515 0.385051 2.25232 0
M  V30 5284 C 506.725 3.46168 0.443687 0
M  V30 5285 C 508.073 4.18659 0.707783 0
M  V30 5286 O 509.097 3.52281 0.52693 0
M  V30 5287 O 507.956 5.36198 1.05612 0
M  V30 5288 H 505.05 0.80379 0.194552 0
M  V30 5289 H 507.596 1.65738 -0.364577 0
M  V30 5290 H 506.368 3.8792 -0.513172 0
M  V30 5291 H 505.991 3.79073 1.19956 0
M  V30 5292 N 506.988 0.0434614 1.5754 0
M  V30 5293 C 507.918 -0.931651 2.14109 0
M  V30 5294 C 508.899 -1.32971 1.06079 0
M  V30 5295 O 510.084 -1.40579 1.33982 0
M  V30 5296 C 507.214 -2.20914 2.67982 0
M  V30 5297 C 506.168 -1.95139 3.80926 0
M  V30 5298 C 505.494 -3.29276 4.21285 0
M  V30 5299 C 506.794 -1.27913 5.06395 0
M  V30 5300 H 508.488 -0.460497 2.95837 0
M  V30 5301 H 506.034 -0.220058 1.42309 0
M  V30 5302 H 507.987 -2.89522 3.06194 0
M  V30 5303 H 506.711 -2.70221 1.83434 0
M  V30 5304 H 505.37 -1.28945 3.43175 0
M  V30 5305 H 505.018 -3.76369 3.33699 0
M  V30 5306 H 504.718 -3.12831 4.97404 0
M  V30 5307 H 506.242 -3.99129 4.62091 0
M  V30 5308 H 507.656 -1.86544 5.42102 0
M  V30 5309 H 506.053 -1.2182 5.87605 0
M  V30 5310 H 507.123 -0.254066 4.84234 0
M  V30 5311 N 508.466 -1.55915 -0.229846 0
M  V30 5312 C 509.691 -1.8296 -0.976743 0
M  V30 5313 C 510.116 -0.622735 -1.77493 0
M  V30 5314 O 509.474 0.428431 -1.76165 0
M  V30 5315 C 509.522 -3.07916 -1.8767 0
M  V30 5316 O 508.626 -2.86028 -2.97088 0
M  V30 5317 H 507.967 -0.603453 -0.277021 0
M  V30 5318 H 510.497 -2.0312 -0.245669 0
M  V30 5319 H 510.507 -3.37802 -2.2881 0
M  V30 5320 H 509.182 -3.95389 -1.28996 0
M  V30 5321 H 507.759 -2.67355 -2.59954 0
M  V30 5322 N 509.944 0.496216 -1.49584 0
M  V30 5323 C 510.874 1.60576 -1.69521 0
M  V30 5324 C 511.855 1.61169 -0.543933 0
M  V30 5325 O 513.04 1.77834 -0.78031 0
M  V30 5326 C 510.17 2.99038 -1.76616 0
M  V30 5327 C 509.124 3.13312 -2.91581 0
M  V30 5328 C 508.45 4.53172 -2.83794 0
M  V30 5329 C 509.75 2.92886 -4.32452 0
M  V30 5330 H 511.444 1.44146 -2.62416 0
M  V30 5331 H 508.99 0.692024 -1.26282 0
M  V30 5332 H 510.943 3.76564 -1.8915 0
M  V30 5333 H 509.667 3.16568 -0.80324 0
M  V30 5334 H 508.326 2.38213 -2.78658 0
M  V30 5335 H 507.974 4.67585 -1.854 0
M  V30 5336 H 507.674 4.63662 -3.60958 0
M  V30 5337 H 509.198 5.32752 -2.98342 0
M  V30 5338 H 510.612 3.60178 -4.46032 0
M  V30 5339 H 509.009 3.14844 -5.10875 0
M  V30 5340 H 510.079 1.88966 -4.46565 0
M  V30 5341 N 511.423 1.38739 0.74761 0
M  V30 5342 C 512.353 1.39173 1.87492 0
M  V30 5343 C 513.334 0.256794 1.6815 0
M  V30 5344 O 514.519 0.460762 1.88655 0
M  V30 5345 C 511.649 1.22197 3.25093 0
M  V30 5346 C 510.603 2.32957 3.59047 0
M  V30 5347 C 509.929 2.01082 4.95449 0
M  V30 5348 C 511.229 3.75237 3.6331 0
M  V30 5349 H 512.923 2.3351 1.87386 0
M  V30 5350 H 510.469 1.12399 0.900134 0
M  V30 5351 H 512.422 1.21124 4.03617 0
M  V30 5352 H 511.146 0.243241 3.25693 0
M  V30 5353 H 509.805 2.33226 2.82845 0
M  V30 5354 H 509.453 1.01678 4.92616 0
M  V30 5355 H 509.153 2.75267 5.19136 0
M  V30 5356 H 510.677 2.01638 5.76346 0
M  V30 5357 H 512.091 3.76966 4.31937 0
M  V30 5358 H 510.488 4.48677 3.98509 0
M  V30 5359 H 511.558 4.07122 2.634 0
M  V30 5360 N 512.901 -0.976442 1.23707 0
M  V30 5361 C 514.147 -1.72081 1.07312 0
M  V30 5362 C 514.48 -1.90275 -0.388476 0
M  V30 5363 O 513.755 -1.4579 -1.28746 0
M  V30 5364 C 514.038 -3.11675 1.80363 0
M  V30 5365 C 513.891 -3.01027 3.3422 0
M  V30 5366 C 515.21 -4.1117 1.5693 0
M  V30 5367 H 512.329 -0.624583 0.391236 0
M  V30 5368 H 514.971 -1.13649 1.52263 0
M  V30 5369 H 513.121 -3.61559 1.42153 0
M  V30 5370 H 514.793 -2.58637 3.81975 0
M  V30 5371 H 513.036 -2.3744 3.63049 0
M  V30 5372 H 513.707 -3.9988 3.80525 0
M  V30 5373 H 516.183 -3.7011 1.90151 0
M  V30 5374 H 515.059 -5.06928 2.10513 0
M  V30 5375 H 515.32 -4.392 0.505548 0
M  V30 5376 N 514.379 -1.04941 -1.1758 0
M  V30 5377 C 515.309 -0.669172 -2.23706 0
M  V30 5378 C 516.29 0.331835 -1.66832 0
M  V30 5379 O 517.475 0.209988 -1.93061 0
M  V30 5380 C 514.605 -0.0404889 -3.47276 0
M  V30 5381 C 513.559 -0.965983 -4.16957 0
M  V30 5382 C 512.885 -0.201312 -5.34321 0
M  V30 5383 C 514.185 -2.28902 -4.69469 0
M  V30 5384 H 515.879 -1.55639 -2.55767 0
M  V30 5385 H 513.425 -0.749793 -1.22939 0
M  V30 5386 H 515.378 0.237298 -4.20731 0
M  V30 5387 H 514.102 0.881658 -3.14475 0
M  V30 5388 H 512.761 -1.22829 -3.45411 0
M  V30 5389 H 512.409 0.723519 -4.97769 0
M  V30 5390 H 512.109 -0.817968 -5.81879 0
M  V30 5391 H 513.633 0.0692499 -6.10561 0
M  V30 5392 H 515.047 -2.07132 -5.34574 0
M  V30 5393 H 513.444 -2.85942 -5.27596 0
M  V30 5394 H 514.514 -2.92937 -3.86414 0
M  V30 5395 N 515.857 1.33968 -0.830081 0
M  V30 5396 C 516.82 2.27694 -0.26235 0
M  V30 5397 C 517.82 1.50589 0.563876 0
M  V30 5398 O 519.01 1.70028 0.378941 0
M  V30 5399 C 516.142 3.35002 0.63138 0
M  V30 5400 H 517.335 2.79419 -1.08928 0
M  V30 5401 H 514.888 1.44221 -0.602486 0
M  V30 5402 H 515.623 2.88504 1.48109 0
M  V30 5403 H 515.408 3.92079 0.0403276 0
M  V30 5404 H 516.898 4.04897 1.02217 0
M  V30 5405 N 517.335 0.585699 1.46312 0
M  V30 5406 C 518.746 0.159938 1.86014 0
M  V30 5407 C 519.097 -1.27775 1.48889 0
M  V30 5408 O 518.222 -1.96559 0.90519 0
M  V30 5409 C 518.817 0.283485 3.37612 0
M  V30 5410 C 517.376 -0.0874256 3.76298 0
M  V30 5411 C 516.523 0.618055 2.70325 0
M  V30 5412 H 519.474 0.793737 1.37425 0
M  V30 5413 H 519.495 -0.490348 3.77327 0
M  V30 5414 H 519.007 1.32995 3.64601 0
M  V30 5415 H 517.108 -1.13391 3.54927 0
M  V30 5416 H 517.221 0.290975 4.78216 0
M  V30 5417 H 515.585 0.057993 2.54634 0
M  V30 5418 H 516.368 1.66623 3.00153 0
M  V30 5419 N 518.813 -1.54241 0.323641 0
M  V30 5420 C 519.776 -2.22997 -0.529602 0
M  V30 5421 C 520.776 -1.22345 -1.04347 0
M  V30 5422 O 521.966 -1.46924 -0.935889 0
M  V30 5423 C 519.098 -2.93409 -1.73562 0
M  V30 5424 H 520.291 -2.99815 0.0714518 0
M  V30 5425 H 517.844 -1.56121 0.0747258 0
M  V30 5426 H 518.579 -2.20729 -2.37591 0
M  V30 5427 H 518.364 -3.67217 -1.37456 0
M  V30 5428 H 519.854 -3.45794 -2.34128 0
M  V30 5429 N 520.291 -0.0518155 -1.57515 0
M  V30 5430 C 521.254 0.907547 -2.10467 0
M  V30 5431 C 522.254 1.23947 -1.02439 0
M  V30 5432 O 523.444 1.17604 -1.2851 0
M  V30 5433 C 520.576 2.21723 -2.58944 0
M  V30 5434 H 521.769 0.44851 -2.96527 0
M  V30 5435 H 519.322 0.196598 -1.55059 0
M  V30 5436 H 520.057 2.72206 -1.76279 0
M  V30 5437 H 519.842 1.98935 -3.37886 0
M  V30 5438 H 521.332 2.90441 -3.00056 0
M  V30 5439 N 521.769 1.56035 0.221574 0
M  V30 5440 C 522.997 1.8313 0.962864 0
M  V30 5441 C 523.412 0.630934 1.77946 0
M  V30 5442 O 522.769 -0.400519 1.78051 0
M  V30 5443 C 522.82 3.08742 1.88045 0
M  V30 5444 O 522.541 4.24147 1.09686 0
M  V30 5445 C 524.042 3.48824 2.73563 0
M  V30 5446 H 521.262 0.608775 0.282194 0
M  V30 5447 H 523.806 2.03124 0.23681 0
M  V30 5448 H 521.961 2.90723 2.56045 0
M  V30 5449 H 522.375 4.95505 1.71974 0
M  V30 5450 H 523.849 4.39752 3.3365 0
M  V30 5451 H 524.326 2.70575 3.45956 0
M  V30 5452 H 524.932 3.69282 2.10976 0
M  V30 5453 N 523.247 -0.488276 1.49845 0
M  V30 5454 C 524.495 -1.23911 1.59657 0
M  V30 5455 C 524.816 -1.92816 0.291005 0
M  V30 5456 O 524.086 -1.83328 -0.690485 0
M  V30 5457 H 522.666 -0.460357 0.588286 0
M  V30 5458 H 525.328 -0.564794 1.86537 0
M  V30 5459 H 524.424 -1.99625 2.39909 0
M  V30 5460 N 524.725 -1.39134 -0.740242 0
M  V30 5461 C 525.688 -1.37217 -1.83587 0
M  V30 5462 C 526.688 -0.270221 -1.58513 0
M  V30 5463 O 527.878 -0.527843 -1.6601 0
M  V30 5464 C 525.01 -1.13959 -3.21288 0
M  V30 5465 H 526.203 -2.34705 -1.86691 0
M  V30 5466 H 523.756 -1.24622 -0.94335 0
M  V30 5467 H 524.491 -0.17131 -3.23847 0
M  V30 5468 H 524.276 -1.93754 -3.40884 0
M  V30 5469 H 525.766 -1.15346 -4.01354 0
M  V30 5470 O 526.242 0.881206 -1.3534 0
M  V30 5471 H 526.933 1.51869 -1.20231 0
M  V30 END ATOM
M  V30 BEGIN BOND
M  V30 END BOND
M  V30 END CTAB
M  END
$$$$
