drugbank_target|Q07021 Complement component 1 Q subcomponent-binding protein, mitochondrial (DB08818; DB09130)
 OpenBabel12092121013D

  0  0  0     0  0            999 V3000
M  V30 BEGIN CTAB
M  V30 COUNTS 4355 4399 0 0 0
M  V30 BEGIN ATOM
M  V30 1 H -0.908 1.98254 -0.117106 0
M  V30 2 N 0 1.576 0 0
M  V30 3 C 0.933 2.03868 1.02534 0
M  V30 4 C 1.911 0.928543 1.3348 0
M  V30 5 O 3.095 1.19667 1.45644 0
M  V30 6 C 0.222 2.43627 2.35294 0
M  V30 7 C -0.732 3.65373 2.2001 0
M  V30 8 S 0.101 5.13292 1.52614 0
M  V30 9 C 1.257 5.56322 2.86805 0
M  V30 10 H 1.49 2.90518 0.631377 0
M  V30 11 H -0.977 1.52953 0.210867 0
M  V30 12 H 0.981 2.67203 3.11629 0
M  V30 13 H -0.358 1.57376 2.7183 0
M  V30 14 H -1.165 3.90944 3.18086 0
M  V30 15 H -1.563 3.418 1.51819 0
M  V30 16 H 0.729 5.58782 3.83104 0
M  V30 17 H 1.672 6.56266 2.65933 0
M  V30 18 H 2.08 4.83886 2.90714 0
M  V30 19 N 1.4781 -0.272755 1.55222 0
M  V30 20 C 2.4081 -1.34136 1.91127 0
M  V30 21 C 3.3891 -1.51513 0.773168 0
M  V30 22 O 4.5741 -1.64552 1.03132 0
M  V30 23 C 1.7041 -2.70083 2.1834 0
M  V30 24 C 0.6581 -2.67437 3.34158 0
M  V30 25 C -0.0159 -4.06938 3.46851 0
M  V30 26 C 1.2841 -2.26686 4.70543 0
M  V30 27 H 2.9781 -1.04333 2.80633 0
M  V30 28 H 0.5241 -0.500454 1.35024 0
M  V30 29 H 2.4771 -3.44952 2.42046 0
M  V30 30 H 1.2011 -3.01469 1.25634 0
M  V30 31 H -0.1399 -1.95026 3.1042 0
M  V30 32 H -0.4919 -4.35547 2.51611 0
M  V30 33 H -0.7919 -4.06062 4.2472 0
M  V30 34 H 0.7321 -4.83545 3.72849 0
M  V30 35 H 2.1461 -2.91277 4.93792 0
M  V30 36 H 0.5431 -2.36971 5.5133 0
M  V30 37 H 1.6131 -1.21818 4.69349 0
M  V30 38 N 2.9562 -1.48159 -0.537278 0
M  V30 39 C 4.3672 -1.49429 -1.11928 0
M  V30 40 C 4.7182 -0.26 -1.9447 0
M  V30 41 O 3.8432 0.633489 -2.0692 0
M  V30 42 C 4.4382 -2.70758 -2.03656 0
M  V30 43 C 2.9972 -2.74923 -2.57088 0
M  V30 44 C 2.1442 -2.42835 -1.3389 0
M  V30 45 H 5.0952 -1.55381 -0.322886 0
M  V30 46 H 5.1162 -2.48861 -2.87834 0
M  V30 47 H 4.6282 -3.60575 -1.43553 0
M  V30 48 H 2.7292 -1.89296 -3.20933 0
M  V30 49 H 2.8422 -3.76157 -2.9672 0
M  V30 50 H 1.2062 -1.93836 -1.65226 0
M  V30 51 H 1.9892 -3.34884 -0.755504 0
M  V30 52 N 4.4343 0.785586 -1.36625 0
M  V30 53 C 5.3643 1.91259 -1.33949 0
M  V30 54 C 6.3453 1.68795 -0.210325 0
M  V30 55 O 7.5303 1.89854 -0.408561 0
M  V30 56 C 4.6603 3.28339 -1.13186 0
M  V30 57 C 3.6143 3.65335 -2.22967 0
M  V30 58 C 2.9403 5.00806 -1.87342 0
M  V30 59 C 4.2403 3.7352 -3.65075 0
M  V30 60 H 5.9343 1.93755 -2.28253 0
M  V30 61 H 3.4803 0.930788 -1.09874 0
M  V30 62 H 5.4333 4.06804 -1.09948 0
M  V30 63 H 4.1573 3.2624 -0.153332 0
M  V30 64 H 2.8163 2.89169 -2.25337 0
M  V30 65 H 2.4643 4.95233 -0.880545 0
M  V30 66 H 2.1643 5.26529 -2.60846 0
M  V30 67 H 3.6883 5.81687 -1.85667 0
M  V30 68 H 5.1023 4.42168 -3.64911 0
M  V30 69 H 3.4993 4.10731 -4.37516 0
M  V30 70 H 4.5693 2.74527 -3.99703 0
M  V30 71 N 5.9124 1.20967 1.01018 0
M  V30 72 C 6.8424 0.988272 2.11555 0
M  V30 73 C 7.8234 -0.0849778 1.69888 0
M  V30 74 O 9.0084 0.0738202 1.9406 0
M  V30 75 C 6.1384 0.546528 3.42973 0
M  V30 76 C 5.0924 1.56375 3.9841 0
M  V30 77 C 4.4184 0.97842 5.25672 0
M  V30 78 C 5.7184 2.94922 4.31066 0
M  V30 79 H 7.4124 1.91276 2.30334 0
M  V30 80 H 4.9584 0.921073 1.1069 0
M  V30 81 H 6.9114 0.378839 4.19694 0
M  V30 82 H 5.6354 -0.413598 3.23971 0
M  V30 83 H 4.2944 1.71891 3.23804 0
M  V30 84 H 3.9424 0.0101688 5.02999 0
M  V30 85 H 3.6424 1.65784 5.63728 0
M  V30 86 H 5.1664 0.821939 6.05043 0
M  V30 87 H 6.5804 2.8288 4.9865 0
M  V30 88 H 4.9774 3.5983 4.80253 0
M  V30 89 H 6.0474 3.4616 3.39561 0
M  V30 90 N 7.3905 -1.2043 1.01659 0
M  V30 91 C 8.8065 -1.41852 0.731442 0
M  V30 92 C 9.0065 -1.89358 -0.688898 0
M  V30 93 O 8.0625 -2.06247 -1.45666 0
M  V30 94 C 9.3755 -2.44019 1.75714 0
M  V30 95 C 10.9235 -2.57785 1.77527 0
M  V30 96 C 11.3985 -3.63194 2.79023 0
M  V30 97 N 12.8895 -3.70678 2.77763 0
M  V30 98 C 13.6245 -4.51897 3.52954 0
M  V30 99 N 13.1205 -5.36921 4.37821 0
M  V30 100 N 14.9135 -4.4643 3.41551 0
M  V30 101 H 7.0645 -0.879093 1.93354 0
M  V30 102 H 9.3275 -0.448425 0.835236 0
M  V30 103 H 9.0335 -2.1611 2.77469 0
M  V30 104 H 8.9075 -3.43007 1.56927 0
M  V30 105 H 11.2945 -2.85023 0.764569 0
M  V30 106 H 11.3755 -1.58992 2.00387 0
M  V30 107 H 11.0195 -3.36699 3.80258 0
M  V30 108 H 10.9495 -4.61609 2.53425 0
M  V30 109 H 13.4405 -3.09944 2.16201 0
M  V30 110 H 13.7535 -5.95981 4.91962 0
M  V30 111 H 12.0985 -5.36424 4.41899 0
M  V30 112 H 15.2895 -3.79042 2.74672 0
M  V30 113 H 15.4625 -5.09491 4.00404 0
M  V30 114 N 8.8686 -0.792821 -1.36206 0
M  V30 115 C 10.1086 -0.372238 -2.00982 0
M  V30 116 C 10.4726 1.03749 -1.61555 0
M  V30 117 O 11.6736 1.55934 -2.18948 0
M  V30 118 C 9.9446 -0.534566 -3.5338 0
M  V30 119 S 11.5036 -0.202365 -4.38333 0
M  V30 120 H 8.3216 -0.142044 -0.696667 0
M  V30 121 H 10.9236 -1.03206 -1.66039 0
M  V30 122 H 9.6276 -1.5608 -3.79562 0
M  V30 123 H 9.1586 0.141065 -3.93147 0
M  V30 124 H 11.1736 0.994869 -4.86124 0
M  V30 125 N 10.3467 1.47872 -0.545128 0
M  V30 126 C 11.5927 2.02793 -0.0166104 0
M  V30 127 C 11.9257 1.41987 1.32489 0
M  V30 128 O 11.2007 0.571045 1.85928 0
M  V30 129 C 11.4837 3.59989 0.0893294 0
M  V30 130 C 11.3367 4.3125 -1.27841 0
M  V30 131 C 12.6557 4.32606 0.808724 0
M  V30 132 H 9.7747 0.736962 -0.00751035 0
M  V30 133 H 12.4167 1.76433 -0.705085 0
M  V30 134 H 10.5667 3.82579 0.675681 0
M  V30 135 H 12.2387 4.20035 -1.90704 0
M  V30 136 H 10.4817 3.92076 -1.85632 0
M  V30 137 H 11.1527 5.39736 -1.15713 0
M  V30 138 H 13.6287 4.14936 0.310992 0
M  V30 139 H 12.5047 5.42251 0.851782 0
M  V30 140 H 12.7657 4.00963 1.86229 0
M  V30 141 N 11.8248 0.280983 1.55075 0
M  V30 142 C 13.2358 -0.215629 1.85451 0
M  V30 143 C 13.5868 -1.54991 1.203 0
M  V30 144 O 12.7118 -2.10699 0.493435 0
M  V30 145 C 13.3068 -0.398026 3.36454 0
M  V30 146 C 11.8658 -0.838866 3.66933 0
M  V30 147 C 11.0128 0.064458 2.77225 0
M  V30 148 H 13.9638 0.502601 1.50531 0
M  V30 149 H 13.9848 -1.23569 3.59876 0
M  V30 150 H 13.4968 0.573241 3.83843 0
M  V30 151 H 11.5978 -1.8214 3.25048 0
M  V30 152 H 11.7108 -0.672123 4.74362 0
M  V30 153 H 10.0748 -0.452863 2.50642 0
M  V30 154 H 10.8578 1.03172 3.2743 0
M  V30 155 N 13.3029 -1.57598 0.00835791 0
M  V30 156 C 14.7189 -1.55764 -0.347822 0
M  V30 157 C 14.9189 -1.01186 -1.74252 0
M  V30 158 O 13.9749 -0.649371 -2.44007 0
M  V30 159 C 15.2879 -2.99927 -0.215407 0
M  V30 160 C 16.8359 -3.11656 -0.289725 0
M  V30 161 C 17.3109 -4.57621 -0.18634 0
M  V30 162 N 18.8019 -4.62557 -0.243978 0
M  V30 163 C 19.5369 -5.73094 -0.18745 0
M  V30 164 N 19.0329 -6.92753 -0.0810331 0
M  V30 165 N 20.8259 -5.61588 -0.239925 0
M  V30 166 H 12.9769 -1.91411 0.92062 0
M  V30 167 H 15.2399 -0.879562 0.353659 0
M  V30 168 H 14.9459 -3.43729 0.744512 0
M  V30 169 H 14.8199 -3.63865 -0.994097 0
M  V30 170 H 17.2069 -2.67779 -1.24009 0
M  V30 171 H 17.2879 -2.5048 0.51898 0
M  V30 172 H 16.9319 -5.02174 0.760519 0
M  V30 173 H 16.8619 -5.16752 -1.01364 0
M  V30 174 H 19.3529 -3.76481 -0.327217 0
M  V30 175 H 19.6659 -7.72787 -0.0440241 0
M  V30 176 H 18.0109 -6.94984 -0.0465419 0
M  V30 177 H 21.2019 -4.66996 -0.321317 0
M  V30 178 H 21.3749 -6.47714 -0.192407 0
M  V30 179 N 14.781 0.264519 -1.55364 0
M  V30 180 C 16.027 0.99646 -1.76631 0
M  V30 181 C 16.36 1.85632 -0.570478 0
M  V30 182 O 15.635 1.89647 0.43175 0
M  V30 183 C 15.918 1.87187 -3.07625 0
M  V30 184 C 15.771 1.04138 -4.37579 0
M  V30 185 C 17.09 2.85749 -3.34717 0
M  V30 186 H 14.209 0.360841 -0.642622 0
M  V30 187 H 16.851 0.268218 -1.88097 0
M  V30 188 H 15.001 2.49279 -2.9798 0
M  V30 189 H 16.673 0.440517 -4.59192 0
M  V30 190 H 14.916 0.345115 -4.32425 0
M  V30 191 H 15.587 1.68729 -5.2558 0
M  V30 192 H 18.063 2.33793 -3.4421 0
M  V30 193 H 16.939 3.44136 -4.27623 0
M  V30 194 H 17.2 3.61311 -2.54768 0
M  V30 195 N 16.2591 1.48442 0.529413 0
M  V30 196 C 17.1891 1.65902 1.64313 0
M  V30 197 C 18.1701 0.507897 1.6234 0
M  V30 198 O 19.3551 0.740503 1.79528 0
M  V30 199 C 16.4851 1.69911 3.02898 0
M  V30 200 C 15.4391 2.8453 3.19729 0
M  V30 201 C 14.7651 2.73629 4.59381 0
M  V30 202 C 16.0651 4.25821 3.02447 0
M  V30 203 H 17.7591 2.5914 1.49955 0
M  V30 204 H 15.3051 1.24709 0.719982 0
M  V30 205 H 17.2581 1.80715 3.80684 0
M  V30 206 H 15.9821 0.732524 3.18279 0
M  V30 207 H 14.6411 2.73283 2.44361 0
M  V30 208 H 14.2891 1.74938 4.71599 0
M  V30 209 H 13.9891 3.50541 4.71588 0
M  V30 210 H 15.5131 2.86401 5.39265 0
M  V30 211 H 16.9271 4.37898 3.70024 0
M  V30 212 H 15.3241 5.03735 3.26146 0
M  V30 213 H 16.3941 4.42244 1.98867 0
M  V30 214 N 17.7372 -0.778329 1.37039 0
M  V30 215 C 18.9852 -1.53361 1.31623 0
M  V30 216 C 19.3062 -1.94739 -0.100831 0
M  V30 217 O 18.5762 -1.65797 -1.04347 0
M  V30 218 H 17.1562 -0.568794 0.484234 0
M  V30 219 H 19.8182 -0.926742 1.71457 0
M  V30 220 H 18.9142 -2.43606 1.95096 0
M  V30 221 N 19.2153 -1.21501 -1.00376 0
M  V30 222 C 20.4403 -1.05977 -1.78279 0
M  V30 223 C 20.8653 0.385994 -1.84097 0
M  V30 224 O 20.2233 1.27849 -1.28547 0
M  V30 225 C 20.2713 -1.66302 -3.19963 0
M  V30 226 O 19.3753 -0.909333 -4.0225 0
M  V30 227 H 18.7163 -0.372906 -0.549397 0
M  V30 228 H 21.2463 -1.6107 -1.26165 0
M  V30 229 H 21.2563 -1.70574 -3.70632 0
M  V30 230 H 19.9313 -2.71515 -3.15043 0
M  V30 231 H 18.5083 -0.941795 -3.60811 0
M  V30 232 N 20.6934 1.19889 -1.02296 0
M  V30 233 C 21.9184 1.9393 -0.735237 0
M  V30 234 C 22.3434 1.74639 0.698782 0
M  V30 235 O 21.7014 1.04481 1.48167 0
M  V30 236 C 21.7494 3.43916 -1.08417 0
M  V30 237 O 20.8534 4.11917 -0.199446 0
M  V30 238 H 20.1944 0.605645 -0.272196 0
M  V30 239 H 22.7244 1.52137 -1.36804 0
M  V30 240 H 22.7344 3.9456 -1.03856 0
M  V30 241 H 21.4094 3.5728 -2.12894 0
M  V30 242 H 19.9864 3.71666 -0.303136 0
M  V30 243 N 22.1715 0.800033 1.35784 0
M  V30 244 C 23.4175 0.377901 1.99248 0
M  V30 245 C 23.7505 -1.05052 1.63333 0
M  V30 246 O 23.0255 -1.72768 0.893385 0
M  V30 247 C 23.3085 0.553922 3.55814 0
M  V30 248 C 23.1615 2.0268 4.01548 0
M  V30 249 C 24.4805 -0.0244802 4.40093 0
M  V30 250 H 21.5995 0.138782 0.723815 0
M  V30 251 H 24.2415 1.00835 1.61035 0
M  V30 252 H 22.3915 0.0172398 3.88496 0
M  V30 253 H 24.0635 2.62536 3.79305 0
M  V30 254 H 22.3065 2.5256 3.52698 0
M  V30 255 H 22.9775 2.10087 5.10458 0
M  V30 256 H 25.4535 0.433775 4.13833 0
M  V30 257 H 24.3295 0.128637 5.48749 0
M  V30 258 H 24.5905 -1.11758 4.27741 0
M  V30 259 N 23.6496 -1.47581 0.552962 0
M  V30 260 C 24.6126 -2.28439 -0.186605 0
M  V30 261 C 25.6126 -1.36706 -0.84665 0
M  V30 262 O 26.8026 -1.59378 -0.703164 0
M  V30 263 C 23.9346 -3.16264 -1.2724 0
M  V30 264 H 25.1276 -2.95294 0.523609 0
M  V30 265 H 22.6806 -1.532 0.309745 0
M  V30 266 H 23.4156 -2.54091 -2.01514 0
M  V30 267 H 23.2006 -3.83769 -0.803968 0
M  V30 268 H 24.6906 -3.77198 -1.79196 0
M  V30 269 N 25.1277 -0.289203 -1.54924 0
M  V30 270 C 26.3757 0.322879 -1.99504 0
M  V30 271 C 26.6967 1.55313 -1.1791 0
M  V30 272 O 25.9667 1.94001 -0.272097 0
M  V30 273 H 24.5467 0.122291 -0.736922 0
M  V30 274 H 27.2087 -0.397802 -1.90797 0
M  V30 275 H 26.3047 0.603061 -3.06218 0
M  V30 276 N 26.6058 1.57591 -0.0167156 0
M  V30 277 C 27.5358 2.12496 0.967858 0
M  V30 278 C 28.5168 1.03807 1.34752 0
M  V30 279 O 29.7018 1.31577 1.42833 0
M  V30 280 C 26.8318 2.64194 2.25431 0
M  V30 281 C 25.7858 3.77559 2.01576 0
M  V30 282 C 25.1118 4.15636 3.36379 0
M  V30 283 C 26.4118 5.04151 1.36489 0
M  V30 284 H 28.1058 2.95013 0.510643 0
M  V30 285 H 25.6518 1.41915 0.244181 0
M  V30 286 H 27.6048 3.01236 2.94678 0
M  V30 287 H 26.3288 1.78821 2.73296 0
M  V30 288 H 24.9878 3.40937 1.34751 0
M  V30 289 H 24.6358 3.27263 3.81979 0
M  V30 290 H 24.3358 4.92022 3.21229 0
M  V30 291 H 25.8598 4.5525 4.06915 0
M  V30 292 H 27.2738 5.38857 1.95718 0
M  V30 293 H 25.6708 5.85453 1.31776 0
M  V30 294 H 26.7408 4.83733 0.336219 0
M  V30 295 N 28.0839 -0.256276 1.55502 0
M  V30 296 C 29.4999 -0.604325 1.47716 0
M  V30 297 C 29.6999 -1.88763 0.705039 0
M  V30 298 O 28.7559 -2.51445 0.230613 0
M  V30 299 C 30.0689 -0.715756 2.92057 0
M  V30 300 C 31.6169 -0.808706 3.02372 0
M  V30 301 C 32.0919 -0.951777 4.48001 0
M  V30 302 N 33.5829 -1.01688 4.519 0
M  V30 303 C 34.3179 -1.14668 5.61817 0
M  V30 304 N 33.8139 -1.24261 6.81565 0
M  V30 305 N 35.6069 -1.1791 5.49594 0
M  V30 306 H 27.7579 0.586291 2.04148 0
M  V30 307 H 30.0209 0.201015 0.926443 0
M  V30 308 H 29.7269 0.157027 3.51349 0
M  V30 309 H 29.6009 -1.59071 3.42018 0
M  V30 310 H 31.9879 -1.67195 2.43166 0
M  V30 311 H 32.0689 0.0912063 2.55637 0
M  V30 312 H 31.7129 -0.0931291 5.07815 0
M  V30 313 H 31.6429 -1.86659 4.92408 0
M  V30 314 H 34.1339 -0.954468 3.65648 0
M  V30 315 H 34.4469 -1.34046 7.61086 0
M  V30 316 H 32.7919 -1.21236 6.84344 0
M  V30 317 H 35.9829 -1.10057 4.54978 0
M  V30 318 H 36.1559 -1.27681 6.35296 0
M  V30 319 N 29.562 -1.4872 -0.521534 0
M  V30 320 C 30.525 -1.63379 -1.60748 0
M  V30 321 C 31.525 -0.50661 -1.52611 0
M  V30 322 O 32.715 -0.772601 -1.5613 0
M  V30 323 C 29.847 -1.61192 -3.00383 0
M  V30 324 H 31.04 -2.60217 -1.49087 0
M  V30 325 H 28.593 -1.37444 -0.744235 0
M  V30 326 H 29.328 -0.65863 -3.17541 0
M  V30 327 H 29.113 -2.43032 -3.07698 0
M  V30 328 H 30.603 -1.7466 -3.7932 0
M  V30 329 N 31.0401 0.771051 -1.3745 0
M  V30 330 C 32.0031 1.86598 -1.33093 0
M  V30 331 C 33.0031 1.59076 -0.234845 0
M  V30 332 O 34.1931 1.67145 -0.490732 0
M  V30 333 C 31.3251 3.23747 -1.06773 0
M  V30 334 H 32.5181 1.91873 -2.30488 0
M  V30 335 H 30.0711 0.970876 -1.2249 0
M  V30 336 H 30.8061 3.24148 -0.099129 0
M  V30 337 H 30.5911 3.45115 -1.86112 0
M  V30 338 H 32.0811 4.03824 -1.06377 0
M  V30 339 N 32.5182 1.22032 0.997298 0
M  V30 340 C 33.4812 0.987909 2.06816 0
M  V30 341 C 34.4812 -0.0440084 1.6074 0
M  V30 342 O 35.6712 0.194053 1.73116 0
M  V30 343 C 32.8032 0.49132 3.37341 0
M  V30 344 H 33.9962 1.93803 2.28868 0
M  V30 345 H 31.5492 1.03838 1.16822 0
M  V30 346 H 32.2842 -0.463364 3.20973 0
M  V30 347 H 32.0692 1.23575 3.72118 0
M  V30 348 H 33.5592 0.348824 4.16141 0
M  V30 349 N 33.9963 -1.19345 1.0293 0
M  V30 350 C 35.4073 -1.70725 0.755633 0
M  V30 351 C 35.7583 -1.82326 -0.724676 0
M  V30 352 O 34.8833 -1.49471 -1.56484 0
M  V30 353 C 35.4783 -3.10084 1.36503 0
M  V30 354 C 34.0373 -3.58723 1.13994 0
M  V30 355 C 33.1843 -2.35577 1.46283 0
M  V30 356 H 36.1353 -1.0418 1.19718 0
M  V30 357 H 36.1563 -3.72787 0.762217 0
M  V30 358 H 35.6683 -3.01609 2.44241 0
M  V30 359 H 33.7693 -3.72512 0.0807901 0
M  V30 360 H 33.8823 -4.42816 1.82894 0
M  V30 361 H 32.2463 -2.38935 0.88217 0
M  V30 362 H 33.0293 -2.29731 2.55105 0
M  V30 363 N 35.4744 -0.807222 -1.35358 0
M  V30 364 C 36.4374 -0.223665 -2.28106 0
M  V30 365 C 37.4374 0.589354 -1.4961 0
M  V30 366 O 38.6274 0.407745 -1.69361 0
M  V30 367 C 35.7594 0.688149 -3.33882 0
M  V30 368 H 36.9524 -1.04169 -2.81227 0
M  V30 369 H 34.5054 -0.577921 -1.45223 0
M  V30 370 H 35.2404 1.52984 -2.85948 0
M  V30 371 H 35.0254 0.10687 -3.91954 0
M  V30 372 H 36.5154 1.09075 -4.03104 0
M  V30 373 N 36.9525 1.47285 -0.560781 0
M  V30 374 C 38.1775 2.07359 -0.0410566 0
M  V30 375 C 38.6025 1.41017 1.24483 0
M  V30 376 O 37.9605 0.486368 1.74654 0
M  V30 377 C 38.0085 3.6035 0.134123 0
M  V30 378 O 37.1125 3.94681 1.19587 0
M  V30 379 H 36.4535 0.661887 -0.0529291 0
M  V30 380 H 38.9835 1.89252 -0.777482 0
M  V30 381 H 38.9935 4.0652 0.347207 0
M  V30 382 H 37.6685 4.08034 -0.805047 0
M  V30 383 H 36.2455 3.60251 0.962987 0
M  V30 384 N 38.4306 0.297415 1.54768 0
M  V30 385 C 39.8416 -0.195947 1.85669 0
M  V30 386 C 40.1926 -1.53707 1.21937 0
M  V30 387 O 39.3176 -2.10164 0.515754 0
M  V30 388 C 39.9126 -0.362318 3.36857 0
M  V30 389 C 38.4716 -0.799901 3.67802 0
M  V30 390 C 37.6186 0.0938578 2.77141 0
M  V30 391 H 40.5696 0.518538 1.4999 0
M  V30 392 H 40.5906 -1.19745 3.61167 0
M  V30 393 H 40.1026 0.613921 3.83214 0
M  V30 394 H 38.2036 -1.78682 3.26961 0
M  V30 395 H 38.3166 -0.621773 4.75048 0
M  V30 396 H 36.6806 -0.426254 2.51108 0
M  V30 397 H 37.4636 1.06639 3.26318 0
M  V30 398 N 39.9087 -1.5758 0.0250728 0
M  V30 399 C 41.1557 -1.91633 -0.654444 0
M  V30 400 C 41.4837 -0.901103 -1.72367 0
M  V30 401 O 40.7387 0.0905647 -1.9549 0
M  V30 402 C 41.0377 -3.32421 -1.31268 0
M  V30 403 C 40.7037 -4.49344 -0.374223 0
M  V30 404 C 39.3657 -4.8106 -0.115911 0
M  V30 405 C 41.7177 -5.20498 0.270432 0
M  V30 406 C 39.0457 -5.8129 0.79493 0
M  V30 407 C 41.3977 -6.21699 1.1693 0
M  V30 408 C 40.0617 -6.51859 1.43655 0
M  V30 409 H 39.3317 -0.701236 -0.239478 0
M  V30 410 H 41.9787 -1.91307 0.0859734 0
M  V30 411 H 40.2837 -3.28989 -2.12775 0
M  V30 412 H 41.9807 -3.56038 -1.84494 0
M  V30 413 H 38.5707 -4.24579 -0.58573 0
M  V30 414 H 42.7547 -4.96229 0.0839194 0
M  V30 415 H 38.0107 -6.03005 1.00973 0
M  V30 416 H 42.1847 -6.75955 1.67504 0
M  V30 417 H 39.8117 -7.2934 2.144 0
M  V30 418 N 41.3868 0.248026 -1.55636 0
M  V30 419 C 42.8028 0.596483 -1.48035 0
M  V30 420 C 43.0028 1.88386 -0.715039 0
M  V30 421 O 42.0588 2.51319 -0.243944 0
M  V30 422 C 43.3718 0.700258 -2.92433 0
M  V30 423 C 44.9198 0.792659 -3.02797 0
M  V30 424 C 45.3948 0.928005 -4.485 0
M  V30 425 N 46.8858 0.992903 -4.52433 0
M  V30 426 C 47.6208 1.11687 -5.62418 0
M  V30 427 N 47.1168 1.20645 -6.82214 0
M  V30 428 N 48.9098 1.14994 -5.50212 0
M  V30 429 H 41.0608 -0.597109 -2.03834 0
M  V30 430 H 43.3238 -0.205925 -0.925364 0
M  V30 431 H 43.0298 -0.175658 -3.51261 0
M  V30 432 H 42.9038 1.57255 -3.42857 0
M  V30 433 H 45.2908 1.65903 -2.4405 0
M  V30 434 H 45.3718 -0.104762 -2.55585 0
M  V30 435 H 45.0158 0.0661971 -5.07857 0
M  V30 436 H 44.9458 1.84045 -4.93391 0
M  V30 437 H 47.4368 0.935064 -3.66149 0
M  V30 438 H 47.7498 1.30008 -7.61786 0
M  V30 439 H 46.0948 1.17605 -6.84977 0
M  V30 440 H 49.2858 1.07643 -4.55555 0
M  V30 441 H 49.4588 1.24311 -6.35965 0
M  V30 442 N 42.8649 1.48995 0.513639 0
M  V30 443 C 43.7969 1.60836 1.63293 0
M  V30 444 C 44.8099 0.491701 1.55197 0
M  V30 445 O 45.9989 0.763238 1.6136 0
M  V30 446 C 43.0989 1.53731 3.02027 0
M  V30 447 C 42.2719 2.80715 3.35437 0
M  V30 448 C 41.3309 2.66837 4.53525 0
M  V30 449 O 40.3569 3.40753 4.55934 0
M  V30 450 N 41.5589 1.77539 5.52684 0
M  V30 451 H 44.3239 2.57366 1.53566 0
M  V30 452 H 41.8849 1.45925 0.701259 0
M  V30 453 H 43.8769 1.42118 3.78926 0
M  V30 454 H 42.4469 0.651092 3.05744 0
M  V30 455 H 41.6669 3.06772 2.47557 0
M  V30 456 H 42.9549 3.64927 3.54551 0
M  V30 457 H 42.3529 1.16719 5.53528 0
M  V30 458 H 40.9099 1.71856 6.28736 0
M  V30 459 N 44.343 -0.763751 1.37857 0
M  V30 460 C 45.273 -1.89103 1.36975 0
M  V30 461 C 46.254 -1.68439 0.237152 0
M  V30 462 O 47.439 -1.8918 0.438713 0
M  V30 463 C 44.569 -3.26496 1.18395 0
M  V30 464 C 43.523 -3.61741 2.28751 0
M  V30 465 C 42.849 -4.97762 1.95286 0
M  V30 466 C 44.149 -3.67665 3.70972 0
M  V30 467 H 45.843 -1.90099 2.31307 0
M  V30 468 H 43.389 -0.91319 1.11341 0
M  V30 469 H 45.342 -4.05003 1.16406 0
M  V30 470 H 44.066 -3.25955 0.205215 0
M  V30 471 H 42.725 -2.85547 2.29909 0
M  V30 472 H 42.373 -4.93769 0.959221 0
M  V30 473 H 42.073 -5.22313 2.69189 0
M  V30 474 H 43.597 -5.7866 1.94898 0
M  V30 475 H 45.011 -4.36307 3.719 0
M  V30 476 H 43.408 -4.03718 4.43995 0
M  V30 477 H 44.478 -2.68134 4.0402 0
M  V30 478 N 45.8211 -1.22559 -0.990812 0
M  V30 479 C 46.7511 -1.0218 -2.09956 0
M  V30 480 C 47.7321 0.0579394 -1.70001 0
M  V30 481 O 48.9171 -0.104684 -1.93918 0
M  V30 482 C 46.0471 -0.601023 -3.4206 0
M  V30 483 C 45.0011 -1.62694 -3.95872 0
M  V30 484 C 44.3271 -1.06193 -5.24049 0
M  V30 485 C 45.6271 -3.01743 -4.2632 0
M  V30 486 H 47.3211 -1.94916 -2.27262 0
M  V30 487 H 44.8671 -0.938566 -1.09211 0
M  V30 488 H 46.8201 -0.445561 -4.19038 0
M  V30 489 H 45.5441 0.362005 -3.24588 0
M  V30 490 H 44.2031 -1.77021 -3.21028 0
M  V30 491 H 43.8511 -0.0901903 -5.02919 0
M  V30 492 H 43.5511 -1.74732 -5.61019 0
M  V30 493 H 45.0751 -0.918092 -6.03658 0
M  V30 494 H 46.4891 -2.90777 -4.94087 0
M  V30 495 H 44.8861 -3.67425 -4.74467 0
M  V30 496 H 45.9561 -3.51518 -3.34011 0
M  V30 497 N 47.2992 1.18797 -1.03562 0
M  V30 498 C 48.2312 2.21731 -0.580337 0
M  V30 499 C 49.2442 1.59051 0.347349 0
M  V30 500 O 50.4332 1.77929 0.142669 0
M  V30 501 C 47.5332 3.38459 0.172805 0
M  V30 502 C 46.7062 4.3072 -0.761496 0
M  V30 503 C 45.7652 5.26174 -0.0525547 0
M  V30 504 O 44.7912 5.65108 -0.681333 0
M  V30 505 N 45.9932 5.67624 1.21586 0
M  V30 506 H 48.7582 2.61417 -1.46565 0
M  V30 507 H 46.3192 1.33531 -0.915476 0
M  V30 508 H 48.3112 3.99335 0.656793 0
M  V30 509 H 46.8812 2.97507 0.959602 0
M  V30 510 H 46.1012 3.67525 -1.42544 0
M  V30 511 H 47.3892 4.89267 -1.39626 0
M  V30 512 H 46.7872 5.38038 1.74732 0
M  V30 513 H 45.3442 6.30721 1.64421 0
M  V30 514 N 48.7773 0.814389 1.34928 0
M  V30 515 C 50.1883 0.458364 1.80986 0
M  V30 516 C 50.5393 -1.02042 1.67577 0
M  V30 517 O 49.6643 -1.79352 1.21086 0
M  V30 518 C 50.2593 0.825212 3.28597 0
M  V30 519 C 48.8183 0.521677 3.72767 0
M  V30 520 C 47.9653 1.04668 2.56788 0
M  V30 521 H 50.9163 1.00533 1.22795 0
M  V30 522 H 50.9373 0.12571 3.80292 0
M  V30 523 H 50.4493 1.90154 3.38324 0
M  V30 524 H 48.5503 -0.545589 3.68584 0
M  V30 525 H 48.6633 1.05977 4.67232 0
M  V30 526 H 47.0273 0.468622 2.50352 0
M  V30 527 H 47.8103 2.12927 2.6929 0
M  V30 528 N 50.2554 -1.46986 0.568584 0
M  V30 529 C 51.2184 -2.28624 -0.162366 0
M  V30 530 C 52.2184 -1.37596 -0.832103 0
M  V30 531 O 53.4084 -1.60115 -0.68622 0
M  V30 532 C 50.5404 -3.17596 -1.23878 0
M  V30 533 H 51.7334 -2.94722 0.554899 0
M  V30 534 H 49.2864 -1.52863 0.325976 0
M  V30 535 H 50.0214 -2.56214 -1.98808 0
M  V30 536 H 49.8064 -3.846 -0.763219 0
M  V30 537 H 51.2964 -3.79078 -1.75185 0
M  V30 538 N 51.7335 -0.305618 -1.54608 0
M  V30 539 C 53.1445 0.186098 -1.8577 0
M  V30 540 C 53.4955 1.53058 -1.22751 0
M  V30 541 O 52.6205 2.09888 -0.526893 0
M  V30 542 C 53.2155 0.344449 -3.37044 0
M  V30 543 C 51.7745 0.780384 -3.68221 0
M  V30 544 C 50.9215 -0.108554 -2.77087 0
M  V30 545 H 53.8725 -0.526485 -1.49712 0
M  V30 546 H 53.8935 1.17828 -3.61796 0
M  V30 547 H 53.4055 -0.634235 -3.82883 0
M  V30 548 H 51.5065 1.76945 -3.27904 0
M  V30 549 H 51.6195 0.596572 -4.75371 0
M  V30 550 H 49.9835 0.412931 -2.5133 0
M  V30 551 H 50.7665 -1.08368 -3.25747 0
M  V30 552 N 53.2116 1.57565 -0.0334293 0
M  V30 553 C 54.6276 1.56297 0.322997 0
M  V30 554 C 54.8276 1.03945 1.7262 0
M  V30 555 O 53.8836 0.688109 2.42943 0
M  V30 556 C 55.1966 3.00232 0.167664 0
M  V30 557 C 56.7446 3.12078 0.240107 0
M  V30 558 C 57.2196 4.57859 0.113513 0
M  V30 559 N 58.7106 4.62887 0.170359 0
M  V30 560 C 59.4456 5.73319 0.0962517 0
M  V30 561 N 58.9416 6.92794 -0.0291881 0
M  V30 562 N 60.7346 5.61898 0.150551 0
M  V30 563 H 52.8856 1.89923 -0.950956 0
M  V30 564 H 55.1486 0.873824 -0.367608 0
M  V30 565 H 54.8546 3.42501 -0.799102 0
M  V30 566 H 54.7286 3.654 0.936083 0
M  V30 567 H 57.1156 2.69718 1.19733 0
M  V30 568 H 57.1966 2.49623 -0.558763 0
M  V30 569 H 56.8406 5.009 -0.840314 0
M  V30 570 H 56.7706 5.18299 0.931302 0
M  V30 571 H 59.2616 3.76954 0.26728 0
M  V30 572 H 59.5746 7.7276 -0.0789252 0
M  V30 573 H 57.9196 6.94971 -0.0640299 0
M  V30 574 H 61.1106 4.67448 0.246981 0
M  V30 575 H 61.2836 6.47938 0.0893365 0
M  V30 576 N 54.6897 -0.239769 1.55765 0
M  V30 577 C 55.6197 -1.30052 1.9393 0
M  V30 578 C 56.6007 -1.49839 0.805132 0
M  V30 579 O 57.7857 -1.62328 1.06599 0
M  V30 580 C 54.9157 -2.65391 2.2402 0
M  V30 581 C 53.8697 -2.60289 3.39755 0
M  V30 582 C 53.1957 -3.99489 3.55405 0
M  V30 583 C 54.4957 -2.16654 4.75246 0
M  V30 584 H 56.1897 -0.983573 2.82783 0
M  V30 585 H 53.7357 -0.471701 1.36055 0
M  V30 586 H 55.6887 -3.3974 2.49308 0
M  V30 587 H 54.4127 -2.98736 1.32 0
M  V30 588 H 53.0717 -1.88398 3.14487 0
M  V30 589 H 52.7197 -4.30112 2.60793 0
M  V30 590 H 52.4197 -3.96962 4.33238 0
M  V30 591 H 53.9437 -4.75528 3.83022 0
M  V30 592 H 55.3577 -2.80737 4.99859 0
M  V30 593 H 53.7547 -2.25223 5.56232 0
M  V30 594 H 54.8247 -1.11835 4.71827 0
M  V30 595 N 56.1678 -1.49265 -0.50573 0
M  V30 596 C 57.4078 -1.60128 -1.27038 0
M  V30 597 C 57.7718 -0.279557 -1.89954 0
M  V30 598 O 58.9728 -0.263329 -2.67507 0
M  V30 599 C 57.2438 -2.72507 -2.31246 0
M  V30 600 S 58.8028 -3.0329 -3.17113 0
M  V30 601 H 55.6208 -0.564863 -0.4318 0
M  V30 602 H 58.2228 -1.86902 -0.573397 0
M  V30 603 H 56.9268 -3.67068 -1.83546 0
M  V30 604 H 56.4578 -2.4771 -3.05619 0
M  V30 605 H 58.4728 -2.44448 -4.31809 0
M  V30 606 N 57.6459 0.756429 -1.3826 0
M  V30 607 C 58.8739 1.54565 -1.3754 0
M  V30 608 C 59.2889 1.88767 0.0355331 0
M  V30 609 O 58.6459 1.52572 1.0014 0
M  V30 610 C 58.6969 2.84654 -2.22833 0
M  V30 611 O 58.4179 2.51912 -3.5843 0
M  V30 612 C 59.9189 3.78807 -2.30261 0
M  V30 613 H 57.1389 0.478353 -0.470553 0
M  V30 614 H 59.6829 0.936381 -1.81803 0
M  V30 615 H 57.8379 3.41965 -1.8204 0
M  V30 616 H 58.2519 3.35325 -4.03308 0
M  V30 617 H 59.7259 4.67045 -2.94233 0
M  V30 618 H 60.2029 4.19038 -1.31545 0
M  V30 619 H 60.8089 3.2742 -2.71433 0
M  V30 620 N 59.124 1.23083 0.984299 0
M  V30 621 C 60.54 0.992637 1.24975 0
M  V30 622 C 60.74 -0.308618 1.99123 0
M  V30 623 O 59.796 -1.02905 2.30579 0
M  V30 624 C 61.109 2.19698 2.05312 0
M  V30 625 C 62.657 2.24147 2.18465 0
M  V30 626 C 63.132 3.44157 3.02192 0
M  V30 627 N 64.623 3.44372 3.09777 0
M  V30 628 C 65.358 4.33886 3.74874 0
M  V30 629 N 64.854 5.3363 4.41827 0
M  V30 630 N 66.647 4.21639 3.71721 0
M  V30 631 H 58.798 2.06731 0.487453 0
M  V30 632 H 61.061 0.906339 0.277944 0
M  V30 633 H 60.767 3.1411 1.58201 0
M  V30 634 H 60.641 2.20465 3.06064 0
M  V30 635 H 63.028 1.30277 2.64786 0
M  V30 636 H 63.109 2.27415 1.17115 0
M  V30 637 H 62.753 4.38332 2.56568 0
M  V30 638 H 62.683 3.3813 4.03702 0
M  V30 639 H 65.174 2.72201 2.62135 0
M  V30 640 H 65.487 5.98196 4.89266 0
M  V30 641 H 63.832 5.37534 4.40548 0
M  V30 642 H 67.023 3.42962 3.18582 0
M  V30 643 H 67.196 4.91604 4.22173 0
M  V30 644 N 60.6021 -1.18246 1.0419 0
M  V30 645 C 62.0131 -1.69914 0.773698 0
M  V30 646 C 62.3641 -1.83085 -0.705297 0
M  V30 647 O 61.4891 -1.51123 -1.5489 0
M  V30 648 C 62.0841 -3.08619 1.39784 0
M  V30 649 C 60.6431 -3.57494 1.17792 0
M  V30 650 C 59.7901 -2.34013 1.48773 0
M  V30 651 H 62.7411 -1.02904 1.20816 0
M  V30 652 H 62.7621 -3.71958 0.801714 0
M  V30 653 H 62.2741 -2.99001 2.47426 0
M  V30 654 H 60.3751 -3.72406 0.120295 0
M  V30 655 H 60.4881 -4.40852 1.87581 0
M  V30 656 H 58.8521 -2.37986 0.907463 0
M  V30 657 H 59.6351 -2.27013 2.57527 0
M  V30 658 N 62.0802 -0.821533 -1.34494 0
M  V30 659 C 63.3272 -0.408946 -1.98328 0
M  V30 660 C 63.6552 1.02764 -1.65136 0
M  V30 661 O 62.9102 1.73026 -0.914349 0
M  V30 662 C 63.2092 -0.556512 -3.53041 0
M  V30 663 C 62.8752 -1.95861 -4.0614 0
M  V30 664 C 61.5372 -2.34217 -4.20352 0
M  V30 665 C 63.8892 -2.87523 -4.34718 0
M  V30 666 C 61.2172 -3.63572 -4.6047 0
M  V30 667 C 63.5692 -4.1634 -4.76281 0
M  V30 668 C 62.2332 -4.54675 -4.88699 0
M  V30 669 H 61.5032 -0.149644 -0.725732 0
M  V30 670 H 64.1502 -1.04521 -1.6046 0
M  V30 671 H 62.4552 0.163148 -3.9146 0
M  V30 672 H 64.1522 -0.217826 -4.00408 0
M  V30 673 H 60.7422 -1.65066 -3.95539 0
M  V30 674 H 64.9262 -2.59133 -4.23277 0
M  V30 675 H 60.1822 -3.93101 -4.68275 0
M  V30 676 H 64.3562 -4.87455 -4.97354 0
M  V30 677 H 61.9832 -5.54959 -5.19542 0
M  V30 678 N 63.5583 1.46682 -0.576371 0
M  V30 679 C 64.8063 2.02013 -0.0594163 0
M  V30 680 C 65.1273 1.45101 1.30271 0
M  V30 681 O 64.3973 0.633317 1.8538 0
M  V30 682 H 62.9773 0.746759 -0.0189745 0
M  V30 683 H 65.6393 1.79862 -0.750717 0
M  V30 684 H 64.7353 3.12097 0.014345 0
M  V30 685 N 65.0364 0.313813 1.54444 0
M  V30 686 C 65.9664 -0.549454 2.26943 0
M  V30 687 C 66.9474 -1.12741 1.27372 0
M  V30 688 O 68.1324 -1.15436 1.56167 0
M  V30 689 C 65.2624 -1.71523 3.01989 0
M  V30 690 C 64.2164 -1.26703 4.08816 0
M  V30 691 C 63.5424 -2.51898 4.71647 0
M  V30 692 C 64.8424 -0.388962 5.2085 0
M  V30 693 H 66.5364 0.0552661 2.99349 0
M  V30 694 H 64.0824 0.0280207 1.43973 0
M  V30 695 H 66.0354 -2.32535 3.51433 0
M  V30 696 H 64.7594 -2.34639 2.27183 0
M  V30 697 H 63.4184 -0.679896 3.6024 0
M  V30 698 H 63.0664 -3.13356 3.93468 0
M  V30 699 H 62.7664 -2.22605 5.43802 0
M  V30 700 H 64.2904 -3.1369 5.23861 0
M  V30 701 H 65.7044 -0.905107 5.6611 0
M  V30 702 H 64.1014 -0.18924 5.99802 0
M  V30 703 H 65.1714 0.582699 4.81386 0
M  V30 704 N 66.5145 -1.57545 0.0417849 0
M  V30 705 C 67.4445 -2.14009 -0.933929 0
M  V30 706 C 68.4255 -1.05938 -1.33083 0
M  V30 707 O 69.6105 -1.33833 -1.40721 0
M  V30 708 C 66.7405 -2.67747 -2.21199 0
M  V30 709 C 65.6945 -3.80718 -1.95544 0
M  V30 710 C 65.0205 -4.20935 -3.29724 0
M  V30 711 C 66.3205 -5.06258 -1.28452 0
M  V30 712 H 68.0145 -2.95788 -0.463645 0
M  V30 713 H 65.5605 -1.42285 -0.221573 0
M  V30 714 H 67.5135 -3.05886 -2.89848 0
M  V30 715 H 66.2375 -1.83147 -2.70416 0
M  V30 716 H 64.8965 -3.43037 -1.2931 0
M  V30 717 H 64.5445 -3.33298 -3.76724 0
M  V30 718 H 64.2445 -4.9707 -3.13361 0
M  V30 719 H 65.7685 -4.61666 -3.9962 0
M  V30 720 H 67.1825 -5.41903 -1.8712 0
M  V30 721 H 65.5795 -5.87475 -1.22445 0
M  V30 722 H 66.6495 -4.84207 -0.259219 0
M  V30 723 N 67.9926 0.231505 -1.5589 0
M  V30 724 C 69.2176 0.978689 -1.82856 0
M  V30 725 C 69.6426 1.77559 -0.620846 0
M  V30 726 O 69.0006 1.76119 0.430305 0
M  V30 727 C 69.0486 1.87997 -3.07716 0
M  V30 728 O 68.1526 2.97393 -2.85712 0
M  V30 729 H 67.4936 0.277663 -0.603158 0
M  V30 730 H 70.0236 0.24783 -2.03093 0
M  V30 731 H 70.0336 2.2917 -3.37558 0
M  V30 732 H 68.7086 1.29417 -3.95252 0
M  V30 733 H 67.2856 2.60238 -2.67078 0
M  V30 734 N 69.4707 1.49531 0.497807 0
M  V30 735 C 70.7167 1.59415 1.25358 0
M  V30 736 C 71.0497 0.281422 1.9215 0
M  V30 737 O 70.3247 -0.715249 1.80871 0
M  V30 738 C 70.6077 2.75566 2.3181 0
M  V30 739 C 70.4607 4.16642 1.69498 0
M  V30 740 C 71.7797 2.87347 3.33346 0
M  V30 741 H 68.8987 0.580244 0.454408 0
M  V30 742 H 71.5407 1.81827 0.551262 0
M  V30 743 H 69.6907 2.56587 2.91711 0
M  V30 744 H 71.3627 4.47145 1.13399 0
M  V30 745 H 69.6057 4.22141 0.998978 0
M  V30 746 H 70.2767 4.93792 2.46725 0
M  V30 747 H 72.7527 3.04634 2.83438 0
M  V30 748 H 71.6287 3.70289 4.05188 0
M  V30 749 H 71.8897 1.96834 3.95865 0
M  V30 750 N 70.9488 -0.749086 1.3866 0
M  V30 751 C 72.3648 -1.05276 1.19955 0
M  V30 752 C 72.5648 -2.01435 0.05134 0
M  V30 753 O 71.6208 -2.45232 -0.60147 0
M  V30 754 C 72.9338 -1.62853 2.52783 0
M  V30 755 C 74.4818 -1.75002 2.59506 0
M  V30 756 C 74.9568 -2.35991 3.92521 0
M  V30 757 N 76.4478 -2.43416 3.94085 0
M  V30 758 C 77.1828 -2.91511 4.9377 0
M  V30 759 N 76.6788 -3.39608 6.03853 0
M  V30 760 N 78.4718 -2.90592 4.81157 0
M  V30 761 H 70.6228 -0.111066 2.12109 0
M  V30 762 H 72.8858 -0.111901 0.941373 0
M  V30 763 H 72.5918 -0.99664 3.37283 0
M  V30 764 H 72.4658 -2.61854 2.715 0
M  V30 765 H 74.8528 -2.37317 1.75398 0
M  V30 766 H 74.9338 -0.74693 2.44652 0
M  V30 767 H 74.5778 -1.74308 4.77053 0
M  V30 768 H 74.5078 -3.3695 4.04688 0
M  V30 769 H 76.9988 -2.09405 3.14576 0
M  V30 770 H 77.3118 -3.74775 6.75843 0
M  V30 771 H 75.6568 -3.37653 6.07466 0
M  V30 772 H 78.8478 -2.52332 3.94267 0
M  V30 773 H 79.0208 -3.27762 5.58996 0
M  V30 774 N 72.4269 -1.23603 -0.977757 0
M  V30 775 C 73.3899 -1.02069 -2.05218 0
M  V30 776 C 74.3899 0.0184305 -1.60789 0
M  V30 777 O 75.5799 -0.221569 -1.72785 0
M  V30 778 C 72.7119 -0.544926 -3.36517 0
M  V30 779 H 73.9049 -1.9742 -2.25755 0
M  V30 780 H 71.4579 -1.05684 -1.15155 0
M  V30 781 H 72.1929 0.412241 -3.21669 0
M  V30 782 H 71.9779 -1.2948 -3.70105 0
M  V30 783 H 73.4679 -0.414985 -4.15533 0
M  V30 784 N 73.905 1.17692 -1.04816 0
M  V30 785 C 75.153 1.87488 -0.754497 0
M  V30 786 C 75.474 1.81205 0.720407 0
M  V30 787 O 74.744 1.23544 1.52032 0
M  V30 788 H 73.324 0.694101 -0.276102 0
M  V30 789 H 75.986 1.42793 -1.32651 0
M  V30 790 H 75.082 2.93328 -1.06606 0
M  V30 791 N 75.3831 0.828654 1.34056 0
M  V30 792 C 76.6081 0.431637 2.02859 0
M  V30 793 C 77.0331 -0.956339 1.61975 0
M  V30 794 O 76.3911 -1.62338 0.807228 0
M  V30 795 C 76.4391 0.548323 3.56407 0
M  V30 796 O 75.5431 -0.429556 4.10157 0
M  V30 797 H 74.8841 0.176886 0.640006 0
M  V30 798 H 77.4141 1.12066 1.71179 0
M  V30 799 H 77.4241 0.426196 4.05768 0
M  V30 800 H 76.0991 1.5606 3.8551 0
M  V30 801 H 74.6761 -0.265836 3.71951 0
M  V30 802 N 76.8612 -1.46375 0.584142 0
M  V30 803 C 77.7712 -2.34115 -0.150728 0
M  V30 804 C 78.7872 -1.49838 -0.884567 0
M  V30 805 O 79.9632 -1.82704 -0.847429 0
M  V30 806 C 77.0282 -3.2705 -1.15062 0
M  V30 807 C 76.0892 -4.27228 -0.421293 0
M  V30 808 C 75.3222 -5.15722 -1.37355 0
M  V30 809 O 75.5452 -5.07176 -2.61014 0
M  V30 810 O 74.4792 -5.95383 -0.883355 0
M  V30 811 H 78.3052 -2.98309 0.569708 0
M  V30 812 H 75.8902 -1.45373 0.344535 0
M  V30 813 H 77.7722 -3.84381 -1.72712 0
M  V30 814 H 76.4472 -2.65451 -1.8525 0
M  V30 815 H 75.3542 -3.7358 0.197085 0
M  V30 816 H 76.6872 -4.91616 0.239641 0
M  V30 817 N 78.3393 -0.321999 -1.54275 0
M  V30 818 C 79.7553 0.0306999 -1.5957 0
M  V30 819 C 79.9553 1.50614 -1.33857 0
M  V30 820 O 79.0113 2.2619 -1.12223 0
M  V30 821 C 80.3243 -0.386122 -2.98211 0
M  V30 822 C 81.8723 -0.336647 -3.11184 0
M  V30 823 C 82.3473 -0.728607 -4.52167 0
M  V30 824 N 83.8383 -0.681952 -4.58152 0
M  V30 825 C 84.5733 -0.957449 -5.6535 0
M  V30 826 N 84.0693 -1.3 -6.80494 0
M  V30 827 N 85.8623 -0.883113 -5.55119 0
M  V30 828 H 78.0133 -1.28332 -1.69247 0
M  V30 829 H 80.2763 -0.521716 -0.791528 0
M  V30 830 H 79.9823 -1.41404 -3.22022 0
M  V30 831 H 79.8563 0.249662 -3.76373 0
M  V30 832 H 82.2433 0.682058 -2.8711 0
M  V30 833 H 82.3243 -1.00734 -2.3513 0
M  V30 834 H 81.9683 -1.74522 -4.76974 0
M  V30 835 H 81.8983 -0.0356152 -5.26588 0
M  V30 836 H 84.3893 -0.428985 -3.75457 0
M  V30 837 H 84.7023 -1.49563 -7.58189 0
M  V30 838 H 83.0473 -1.33824 -6.81994 0
M  V30 839 H 86.2383 -0.615001 -4.64042 0
M  V30 840 H 86.4113 -1.10118 -6.38575 0
M  V30 841 N 79.8174 1.5752 -0.0501392 0
M  V30 842 C 81.2334 1.56631 0.306402 0
M  V30 843 C 81.4334 1.0577 1.71508 0
M  V30 844 O 80.4894 0.713837 2.422 0
M  V30 845 C 81.8024 3.00393 0.135811 0
M  V30 846 C 83.3504 3.12315 0.206993 0
M  V30 847 C 83.8254 4.57954 0.064944 0
M  V30 848 N 85.3164 4.63041 0.121254 0
M  V30 849 C 86.0514 5.73389 0.0354381 0
M  V30 850 N 85.5474 6.92724 -0.102666 0
M  V30 851 N 87.3404 5.62026 0.090946 0
M  V30 852 H 79.4914 1.88903 -0.971046 0
M  V30 853 H 81.7544 0.869876 -0.376855 0
M  V30 854 H 81.4604 3.41635 -0.835384 0
M  V30 855 H 81.3344 3.66373 0.897275 0
M  V30 856 H 83.7214 2.70973 1.16866 0
M  V30 857 H 83.8024 2.49016 -0.585208 0
M  V30 858 H 83.4464 4.99981 -0.893394 0
M  V30 859 H 83.3764 5.19258 0.876277 0
M  V30 860 H 85.8674 3.77216 0.227284 0
M  V30 861 H 86.1804 7.72633 -0.160882 0
M  V30 862 H 84.5254 6.94864 -0.137737 0
M  V30 863 H 87.7164 4.67684 0.197388 0
M  V30 864 H 87.8894 6.47997 0.0206089 0
M  V30 865 N 81.2955 -0.223234 1.56011 0
M  V30 866 C 82.7065 -0.790368 1.69145 0
M  V30 867 C 83.0575 -1.85055 0.651845 0
M  V30 868 O 82.1825 -2.15498 -0.197359 0
M  V30 869 C 82.7775 -1.4404 3.06656 0
M  V30 870 C 81.3365 -1.95494 3.2165 0
M  V30 871 C 80.4835 -0.814506 2.65068 0
M  V30 872 H 83.4345 0.00139011 1.587 0
M  V30 873 H 83.4555 -2.30916 3.0242 0
M  V30 874 H 82.9675 -0.668543 3.82298 0
M  V30 875 H 81.0685 -2.75487 2.50874 0
M  V30 876 H 81.1815 -2.13607 4.28846 0
M  V30 877 H 79.5455 -1.22137 2.23505 0
M  V30 878 H 80.3285 -0.0553515 3.43255 0
M  V30 879 N 82.7736 -1.49793 -0.48987 0
M  V30 880 C 84.0216 -1.59525 -1.24081 0
M  V30 881 C 84.3426 -0.288953 -1.92847 0
M  V30 882 O 83.6126 0.692436 -1.83254 0
M  V30 883 H 82.1926 -0.587796 -0.460983 0
M  V30 884 H 84.8546 -1.86477 -0.566778 0
M  V30 885 H 83.9506 -2.39696 -1.99881 0
M  V30 886 N 84.2517 0.741722 -1.39055 0
M  V30 887 C 85.1817 1.869 -1.39966 0
M  V30 888 C 86.1627 1.6804 -0.26392 0
M  V30 889 O 87.3477 1.88458 -0.468755 0
M  V30 890 C 84.4777 3.24572 -1.23574 0
M  V30 891 C 83.4317 3.58056 -2.34477 0
M  V30 892 C 82.7577 4.94593 -2.0318 0
M  V30 893 C 84.0577 3.61716 -3.76774 0
M  V30 894 H 85.7517 1.86395 -2.34302 0
M  V30 895 H 83.2977 0.895361 -1.1278 0
M  V30 896 H 85.2507 4.031 -1.22834 0
M  V30 897 H 83.9747 3.25587 -0.257045 0
M  V30 898 H 82.6337 2.81854 -2.34423 0
M  V30 899 H 82.2817 4.92181 -1.03765 0
M  V30 900 H 81.9817 5.17964 -2.77465 0
M  V30 901 H 83.5057 5.75486 -2.04079 0
M  V30 902 H 84.9197 4.30335 -3.78794 0
M  V30 903 H 83.3167 3.96603 -4.50362 0
M  V30 904 H 84.3867 2.61672 -4.08235 0
M  V30 905 N 85.7298 1.2412 0.971189 0
M  V30 906 C 86.6598 1.05508 2.08304 0
M  V30 907 C 87.6408 -0.0308864 1.70072 0
M  V30 908 O 88.8258 0.135521 1.93727 0
M  V30 909 C 85.9558 0.655365 3.4106 0
M  V30 910 C 84.9098 1.68971 3.93234 0
M  V30 911 C 84.2358 1.14516 5.22293 0
M  V30 912 C 85.5358 3.08487 4.21465 0
M  V30 913 H 87.2298 1.98507 2.24132 0
M  V30 914 H 84.7758 0.955821 1.07704 0
M  V30 915 H 86.7288 0.51217 4.18276 0
M  V30 916 H 85.4528 -0.31032 3.25122 0
M  V30 917 H 84.1118 1.82106 3.18171 0
M  V30 918 H 83.7598 0.170189 5.02712 0
M  V30 919 H 83.4598 1.83635 5.58168 0
M  V30 920 H 84.9838 1.01401 6.02121 0
M  V30 921 H 86.3978 2.98601 4.89398 0
M  V30 922 H 84.7948 3.74926 4.68562 0
M  V30 923 H 85.8648 3.56787 3.28376 0
M  V30 924 N 87.2079 -1.17134 1.05439 0
M  V30 925 C 88.6239 -1.39454 0.776201 0
M  V30 926 C 88.8239 -1.91454 -0.628307 0
M  V30 927 O 87.8799 -2.10777 -1.39031 0
M  V30 928 C 89.1929 -2.38305 1.83388 0
M  V30 929 C 90.7409 -2.52006 1.85639 0
M  V30 930 C 91.2159 -3.54133 2.90437 0
M  V30 931 N 92.7069 -3.61653 2.89415 0
M  V30 932 C 93.4419 -4.4044 3.67152 0
M  V30 933 N 92.9379 -5.22721 4.54681 0
M  V30 934 N 94.7309 -4.35337 3.55581 0
M  V30 935 H 86.8819 -0.817134 1.96053 0
M  V30 936 H 89.1449 -0.421626 0.849079 0
M  V30 937 H 88.8509 -2.07173 2.84204 0
M  V30 938 H 88.7249 -3.37841 1.67761 0
M  V30 939 H 91.1119 -2.82447 0.85486 0
M  V30 940 H 91.1929 -1.52537 2.05344 0
M  V30 941 H 90.8369 -3.24431 3.90777 0
M  V30 942 H 90.7669 -4.53313 2.67983 0
M  V30 943 H 93.2579 -3.02909 2.25952 0
M  V30 944 H 93.5709 -5.80027 5.10674 0
M  V30 945 H 91.9159 -5.22093 4.58741 0
M  V30 946 H 95.1069 -3.70112 2.86592 0
M  V30 947 H 95.2799 -4.96494 4.1641 0
M  V30 948 N 88.686 -0.835752 -1.33615 0
M  V30 949 C 90.097 -0.487099 -1.80234 0
M  V30 950 C 90.448 0.993627 -1.69179 0
M  V30 951 O 89.573 1.77403 -1.23924 0
M  V30 952 C 90.168 -0.877385 -3.27242 0
M  V30 953 C 88.727 -0.580915 -3.7189 0
M  V30 954 C 87.874 -1.0874 -2.5509 0
M  V30 955 H 90.825 -1.02474 -1.2118 0
M  V30 956 H 90.846 -0.186195 -3.80044 0
M  V30 957 H 90.358 -1.95512 -3.35256 0
M  V30 958 H 88.459 0.486881 -3.69405 0
M  V30 959 H 88.572 -1.13396 -4.65487 0
M  V30 960 H 86.936 -0.508392 -2.49575 0
M  V30 961 H 87.719 -2.17184 -2.65868 0
M  V30 962 N 90.1641 1.46063 -0.591896 0
M  V30 963 C 91.5801 1.57561 -0.254288 0
M  V30 964 C 91.7801 1.58565 1.24336 0
M  V30 965 O 90.8361 1.50753 2.02558 0
M  V30 966 C 92.1491 2.86549 -0.911611 0
M  V30 967 C 93.6971 3.00197 -0.886059 0
M  V30 968 C 94.1721 4.31933 -1.5231 0
M  V30 969 N 95.6631 4.38654 -1.48786 0
M  V30 970 C 96.3981 5.39222 -1.95006 0
M  V30 971 N 95.8941 6.46414 -2.49241 0
M  V30 972 N 97.6871 5.3048 -1.85868 0
M  V30 973 H 89.8381 1.43655 -1.56451 0
M  V30 974 H 92.1011 0.68583 -0.654478 0
M  V30 975 H 91.8071 2.91651 -1.96551 0
M  V30 976 H 91.6811 3.74794 -0.425368 0
M  V30 977 H 94.0681 2.9467 0.159246 0
M  V30 978 H 94.1491 2.13403 -1.41041 0
M  V30 979 H 93.7931 4.38217 -2.56765 0
M  V30 980 H 93.7231 5.17516 -0.973891 0
M  V30 981 H 96.2141 3.61793 -1.09151 0
M  V30 982 H 96.5271 7.19376 -2.82344 0
M  V30 983 H 94.8721 6.47208 -2.53272 0
M  V30 984 H 98.0631 4.45643 -1.43248 0
M  V30 985 H 98.2361 6.08711 -2.22204 0
M  V30 986 N 91.6422 0.330177 1.54103 0
M  V30 987 C 92.8902 -0.269871 2.0029 0
M  V30 988 C 93.2112 -1.52133 1.21986 0
M  V30 989 O 92.4812 -1.93212 0.323438 0
M  V30 990 H 91.0612 -0.10271 0.739905 0
M  V30 991 H 93.7232 0.448249 1.89675 0
M  V30 992 H 92.8192 -0.52166 3.07709 0
M  V30 993 N 93.1203 -1.57491 0.0584922 0
M  V30 994 C 94.5313 -1.80526 -0.476138 0
M  V30 995 C 94.8823 -0.971334 -1.70469 0
M  V30 996 O 94.0073 -0.190012 -2.15564 0
M  V30 997 C 94.6023 -3.27424 -0.870587 0
M  V30 998 C 93.1613 -3.51351 -1.35015 0
M  V30 999 C 92.3083 -2.75343 -0.32887 0
M  V30 1000 H 95.2593 -1.56133 0.284312 0
M  V30 1001 H 95.2803 -3.38745 -1.73299 0
M  V30 1002 H 94.7923 -3.88093 0.0237627 0
M  V30 1003 H 92.8933 -2.95971 -2.26345 0
M  V30 1004 H 93.0063 -4.60059 -1.33726 0
M  V30 1005 H 91.3703 -2.417 -0.803321 0
M  V30 1006 H 92.1533 -3.38743 0.557521 0
M  V30 1007 N 94.5984 0.214957 -1.56127 0
M  V30 1008 C 95.8384 0.945364 -1.81224 0
M  V30 1009 C 96.2024 1.81265 -0.633005 0
M  V30 1010 O 97.4034 2.57731 -0.763423 0
M  V30 1011 C 95.6744 1.75665 -3.1125 0
M  V30 1012 S 97.2334 2.54179 -3.57685 0
M  V30 1013 H 94.0514 0.317443 -0.6362 0
M  V30 1014 H 96.6534 0.210381 -1.94365 0
M  V30 1015 H 95.3574 1.10977 -3.9511 0
M  V30 1016 H 94.8884 2.53381 -3.00934 0
M  V30 1017 H 96.9034 3.7792 -3.21545 0
M  V30 1018 N 96.0765 1.50051 0.48192 0
M  V30 1019 C 97.0395 1.67584 1.5636 0
M  V30 1020 C 98.0395 0.546894 1.51214 0
M  V30 1021 O 99.2295 0.813725 1.54026 0
M  V30 1022 C 96.3615 1.691 2.96003 0
M  V30 1023 H 97.5545 2.64078 1.42136 0
M  V30 1024 H 95.1075 1.39369 0.707533 0
M  V30 1025 H 95.8425 0.742589 3.15684 0
M  V30 1026 H 95.6275 2.51105 3.01146 0
M  V30 1027 H 97.1175 1.84656 3.74556 0
M  V30 1028 N 97.5546 -0.734337 1.39446 0
M  V30 1029 C 98.7946 -1.50655 1.38139 0
M  V30 1030 C 99.1586 -1.91986 -0.0228701 0
M  V30 1031 O 100.36 -2.68318 -0.160947 0
M  V30 1032 C 98.6306 -2.71251 2.32718 0
M  V30 1033 S 100.19 -3.60892 2.49605 0
M  V30 1034 H 97.0076 -0.515315 0.489869 0
M  V30 1035 H 99.6096 -0.860392 1.75549 0
M  V30 1036 H 98.3136 -2.39027 3.33608 0
M  V30 1037 H 97.8446 -3.40795 1.96526 0
M  V30 1038 H 99.8596 -4.64899 1.73446 0
M  V30 1039 N 99.0327 -1.24633 -0.964593 0
M  V30 1040 C 100.281 -1.08573 -1.70459 0
M  V30 1041 C 100.602 0.375655 -1.91347 0
M  V30 1042 O 99.8717 1.26779 -1.49345 0
M  V30 1043 H 98.4517 -0.398784 -0.631649 0
M  V30 1044 H 101.114 -1.56601 -1.16026 0
M  V30 1045 H 100.21 -1.58623 -2.68785 0
M  V30 1046 N 100.511 1.16574 -1.06058 0
M  V30 1047 C 101.751 1.88723 -0.78504 0
M  V30 1048 C 102.115 1.79706 0.676006 0
M  V30 1049 O 103.316 2.46757 1.06603 0
M  V30 1050 C 101.587 3.34338 -1.26304 0
M  V30 1051 S 103.146 4.24366 -1.1162 0
M  V30 1052 H 99.9638 0.651448 -0.284846 0
M  V30 1053 H 102.566 1.40732 -1.35701 0
M  V30 1054 H 101.27 3.38439 -2.32136 0
M  V30 1055 H 100.801 3.87378 -0.685719 0
M  V30 1056 H 102.816 4.96179 -0.0456539 0
M  V30 1057 N 101.989 0.842826 1.3317 0
M  V30 1058 C 103.237 0.439577 1.97262 0
M  V30 1059 C 103.558 -1.00548 1.67078 0
M  V30 1060 O 102.828 -1.70098 0.971779 0
M  V30 1061 H 101.408 0.159558 0.72976 0
M  V30 1062 H 104.07 1.07665 1.62463 0
M  V30 1063 H 103.166 0.574886 3.0676 0
M  V30 1064 N 103.467 -1.45747 0.599634 0
M  V30 1065 C 104.707 -2.04181 0.0946309 0
M  V30 1066 C 105.071 -1.45895 -1.24815 0
M  V30 1067 O 106.272 -1.95633 -1.8434 0
M  V30 1068 C 104.543 -3.57368 0.047581 0
M  V30 1069 S 106.102 -4.36997 -0.397387 0
M  V30 1070 H 102.92 -0.70953 0.0456954 0
M  V30 1071 H 105.522 -1.78564 0.795946 0
M  V30 1072 H 104.226 -3.97303 1.02852 0
M  V30 1073 H 103.757 -3.87549 -0.675977 0
M  V30 1074 H 105.772 -4.68012 -1.64862 0
M  V30 1075 N 104.945 -0.338344 -1.53925 0
M  V30 1076 C 106.193 0.259245 -2.0043 0
M  V30 1077 C 106.514 1.51484 -1.22791 0
M  V30 1078 O 105.784 1.93037 -0.33368 0
M  V30 1079 H 104.364 0.0987845 -0.740439 0
M  V30 1080 H 107.026 -0.458302 -1.89435 0
M  V30 1081 H 106.122 0.505334 -3.07982 0
M  V30 1082 N 106.423 1.57458 -0.0668435 0
M  V30 1083 C 107.648 1.9804 0.616027 0
M  V30 1084 C 108.073 0.944771 1.62652 0
M  V30 1085 O 107.431 -0.0902094 1.81075 0
M  V30 1086 C 107.479 3.37665 1.26549 0
M  V30 1087 O 106.583 3.36701 2.38131 0
M  V30 1088 H 105.924 0.644719 0.158849 0
M  V30 1089 H 108.454 2.04121 -0.139891 0
M  V30 1090 H 108.464 3.7474 1.6135 0
M  V30 1091 H 107.139 4.12573 0.525016 0
M  V30 1092 H 105.716 3.1139 2.0516 0
M  V30 1093 N 107.901 -0.206675 1.56239 0
M  V30 1094 C 108.831 -1.25909 1.96645 0
M  V30 1095 C 109.812 -1.48097 0.836734 0
M  V30 1096 O 110.997 -1.6003 1.10019 0
M  V30 1097 C 108.127 -2.6058 2.29599 0
M  V30 1098 C 107.081 -2.53024 3.452 0
M  V30 1099 C 106.407 -3.91861 3.63798 0
M  V30 1100 C 107.707 -2.06524 4.79734 0
M  V30 1101 H 109.401 -0.923369 2.84806 0
M  V30 1102 H 106.947 -0.442735 1.37025 0
M  V30 1103 H 108.9 -3.34375 2.56459 0
M  V30 1104 H 107.624 -2.95869 1.38307 0
M  V30 1105 H 106.283 -1.81684 3.18412 0
M  V30 1106 H 105.931 -4.24483 2.69857 0
M  V30 1107 H 105.631 -3.87683 4.4156 0
M  V30 1108 H 107.155 -4.67296 3.93022 0
M  V30 1109 H 108.569 -2.70072 5.05702 0
M  V30 1110 H 106.966 -2.13374 5.60885 0
M  V30 1111 H 108.036 -1.01802 4.74093 0
M  V30 1112 N 109.379 -1.50304 -0.473955 0
M  V30 1113 C 110.329 -1.65347 -1.56985 0
M  V30 1114 C 111.313 -0.508176 -1.52664 0
M  V30 1115 O 112.505 -0.762446 -1.59737 0
M  V30 1116 C 109.634 -1.74832 -2.95447 0
M  V30 1117 C 108.72 -2.95028 -3.04662 0
M  V30 1118 N 109.111 -4.18747 -2.83698 0
M  V30 1119 C 107.409 -2.93527 -3.35795 0
M  V30 1120 C 108.11 -4.99687 -2.97805 0
M  V30 1121 N 107.086 -4.33585 -3.2788 0
M  V30 1122 H 110.888 -2.58698 -1.39472 0
M  V30 1123 H 108.402 -1.47449 -0.680629 0
M  V30 1124 H 110.399 -1.83712 -3.7424 0
M  V30 1125 H 109.059 -0.826376 -3.14008 0
M  V30 1126 H 110.07 -4.48291 -2.59337 0
M  V30 1127 H 106.747 -2.10821 -3.60362 0
M  V30 1128 H 108.137 -6.08057 -2.85861 0
M  V30 1129 N 110.857 0.726932 -1.39834 0
M  V30 1130 C 112.085 1.51613 -1.40787 0
M  V30 1131 C 112.5 1.88799 -0.00451505 0
M  V30 1132 O 111.857 1.54662 0.968809 0
M  V30 1133 C 111.908 2.79863 -2.28821 0
M  V30 1134 O 111.629 2.44253 -3.63692 0
M  V30 1135 C 113.13 3.73837 -2.38245 0
M  V30 1136 H 110.35 0.468264 -0.480593 0
M  V30 1137 H 112.894 0.897607 -1.83748 0
M  V30 1138 H 111.049 3.38027 -1.89252 0
M  V30 1139 H 111.463 3.26695 -4.1033 0
M  V30 1140 H 112.937 4.60699 -3.04073 0
M  V30 1141 H 113.414 4.16153 -1.40403 0
M  V30 1142 H 114.02 3.21589 -2.78317 0
M  V30 1143 N 112.336 1.25143 0.95797 0
M  V30 1144 C 113.613 1.00472 1.67823 0
M  V30 1145 C 113.993 -0.470056 2.058 0
M  V30 1146 O 113.341 -1.44663 1.76875 0
M  V30 1147 C 113.551 1.9372 2.90299 0
M  V30 1148 C 114.899 2.21371 3.62326 0
M  V30 1149 O 115.923 1.91451 3.00375 0
M  V30 1150 O 114.782 2.72231 4.7387 0
M  V30 1151 H 111.876 0.380752 0.734137 0
M  V30 1152 H 114.422 1.36283 1.01119 0
M  V30 1153 H 113.194 2.93316 2.59001 0
M  V30 1154 H 112.817 1.58286 3.64735 0
M  V30 1155 N 113.814 -1.1601 1.06675 0
M  V30 1156 C 115.062 -1.86264 0.784229 0
M  V30 1157 C 115.383 -1.82328 -0.691488 0
M  V30 1158 O 114.653 -1.25947 -1.50047 0
M  V30 1159 H 113.233 -0.689621 0.28711 0
M  V30 1160 H 115.895 -1.40664 1.34906 0
M  V30 1161 H 114.991 -2.91595 1.11259 0
M  V30 1162 N 115.292 -0.849877 -1.32721 0
M  V30 1163 C 116.569 -0.372405 -1.92022 0
M  V30 1164 C 116.949 1.1435 -1.77447 0
M  V30 1165 O 116.297 1.96296 -1.16962 0
M  V30 1166 C 116.507 -0.831482 -3.3895 0
M  V30 1167 C 117.855 -0.845882 -4.16089 0
M  V30 1168 O 118.879 -0.775806 -3.47649 0
M  V30 1169 O 117.738 -0.943753 -5.38289 0
M  V30 1170 H 114.832 -0.107667 -0.819961 0
M  V30 1171 H 117.378 -0.93646 -1.41522 0
M  V30 1172 H 116.15 -1.87448 -3.4348 0
M  V30 1173 H 115.773 -0.24461 -3.96847 0
M  V30 1174 N 116.77 1.45427 -0.607355 0
M  V30 1175 C 117.717 2.3053 0.111625 0
M  V30 1176 C 118.687 1.4209 0.860216 0
M  V30 1177 O 119.872 1.71019 0.845998 0
M  V30 1178 C 117.012 3.26992 1.10319 0
M  V30 1179 C 116.125 4.30535 0.355493 0
M  V30 1180 C 115.26 5.14105 1.33676 0
M  V30 1181 C 114.299 6.09376 0.576862 0
M  V30 1182 N 113.436 6.85727 1.5074 0
M  V30 1183 H 118.276 2.91477 -0.620093 0
M  V30 1184 H 115.813 1.43631 -0.317594 0
M  V30 1185 H 117.771 3.81385 1.6912 0
M  V30 1186 H 116.401 2.67799 1.80232 0
M  V30 1187 H 115.453 3.78805 -0.348023 0
M  V30 1188 H 116.765 4.98235 -0.237423 0
M  V30 1189 H 115.919 5.72897 1.99684 0
M  V30 1190 H 114.658 4.46423 1.9636 0
M  V30 1191 H 113.663 5.49715 -0.0968519 0
M  V30 1192 H 114.888 6.79085 -0.0449341 0
M  V30 1193 H 112.834 6.20735 2.12189 0
M  V30 1194 H 112.751 7.49778 0.967913 0
M  V30 1195 H 114.019 7.4906 2.15706 0
M  V30 1196 N 118.248 0.346503 1.53744 0
M  V30 1197 C 119.211 -0.496439 2.23759 0
M  V30 1198 C 120.211 -1.0252 1.2388 0
M  V30 1199 O 121.401 -0.913974 1.48297 0
M  V30 1200 C 118.533 -1.69187 2.95954 0
M  V30 1201 H 119.726 0.115952 2.99676 0
M  V30 1202 H 117.279 0.0978939 1.55993 0
M  V30 1203 H 118.014 -2.34288 2.24231 0
M  V30 1204 H 117.799 -1.31989 3.69217 0
M  V30 1205 H 119.289 -2.28969 3.49232 0
M  V30 1206 N 119.726 -1.57421 0.075193 0
M  V30 1207 C 120.973 -1.93618 -0.593146 0
M  V30 1208 C 121.301 -0.955484 -1.69413 0
M  V30 1209 O 120.556 0.0283251 -1.9568 0
M  V30 1210 C 120.855 -3.36428 -1.20626 0
M  V30 1211 C 120.521 -4.50307 -0.231078 0
M  V30 1212 C 119.183 -4.81186 0.0371936 0
M  V30 1213 C 121.535 -5.19374 0.435888 0
M  V30 1214 C 118.863 -5.78466 0.979461 0
M  V30 1215 C 121.215 -6.17665 1.3665 0
M  V30 1216 C 119.879 -6.46958 1.6432 0
M  V30 1217 H 119.149 -0.708499 -0.217047 0
M  V30 1218 H 121.796 -1.90937 0.146793 0
M  V30 1219 H 120.101 -3.35592 -2.02201 0
M  V30 1220 H 121.798 -3.61727 -1.73073 0
M  V30 1221 H 118.388 -4.26227 -0.450357 0
M  V30 1222 H 122.572 -4.95711 0.241748 0
M  V30 1223 H 117.828 -5.99487 1.20106 0
M  V30 1224 H 122.002 -6.70284 1.88924 0
M  V30 1225 H 119.629 -7.2215 2.37494 0
M  V30 1226 N 121.204 0.198386 -1.56346 0
M  V30 1227 C 122.45 0.920648 -1.80698 0
M  V30 1228 C 122.783 1.83045 -0.648697 0
M  V30 1229 O 122.058 1.91308 0.350925 0
M  V30 1230 C 122.341 1.73971 -3.15287 0
M  V30 1231 C 122.194 0.85485 -4.41602 0
M  V30 1232 C 123.513 2.71296 -3.46535 0
M  V30 1233 H 120.632 0.333261 -0.657348 0
M  V30 1234 H 123.274 0.188198 -1.89066 0
M  V30 1235 H 121.424 2.36416 -3.08285 0
M  V30 1236 H 123.096 0.245362 -4.60647 0
M  V30 1237 H 121.339 0.161398 -4.335 0
M  V30 1238 H 122.01 1.46286 -5.32264 0
M  V30 1239 H 124.486 2.18983 -3.53816 0
M  V30 1240 H 123.362 3.2569 -4.41834 0
M  V30 1241 H 123.623 3.5018 -2.69864 0
M  V30 1242 N 122.682 1.50554 0.465978 0
M  V30 1243 C 123.959 1.5232 1.22712 0
M  V30 1244 C 124.339 0.270807 2.09356 0
M  V30 1245 O 123.687 -0.745541 2.15995 0
M  V30 1246 C 123.897 2.82175 2.05374 0
M  V30 1247 C 125.245 3.33033 2.6339 0
M  V30 1248 O 126.269 2.83531 2.15612 0
M  V30 1249 O 125.128 4.19336 3.50456 0
M  V30 1250 H 122.222 0.611183 0.557122 0
M  V30 1251 H 124.768 1.62847 0.477381 0
M  V30 1252 H 123.54 3.64797 1.41558 0
M  V30 1253 H 123.163 2.74675 2.87471 0
M  V30 1254 N 124.16 -0.719506 1.40217 0
M  V30 1255 C 125.407 -1.47933 1.38283 0
M  V30 1256 C 125.735 -1.94493 -0.0161536 0
M  V30 1257 O 124.99 -1.68224 -0.999956 0
M  V30 1258 C 125.289 -2.72271 2.31524 0
M  V30 1259 C 124.955 -2.44496 3.78857 0
M  V30 1260 C 123.617 -2.36631 4.18998 0
M  V30 1261 C 125.969 -2.21104 4.71977 0
M  V30 1262 C 123.297 -2.03437 5.503 0
M  V30 1263 C 125.649 -1.89423 6.03574 0
M  V30 1264 C 124.313 -1.80038 6.42762 0
M  V30 1265 H 123.583 -0.541325 0.506012 0
M  V30 1266 H 126.23 -0.824502 1.72842 0
M  V30 1267 H 124.535 -3.42572 1.90137 0
M  V30 1268 H 126.232 -3.30348 2.27313 0
M  V30 1269 H 122.822 -2.51503 3.47051 0
M  V30 1270 H 127.006 -2.26139 4.41786 0
M  V30 1271 H 122.262 -1.94705 5.79569 0
M  V30 1272 H 126.436 -1.70336 6.75247 0
M  V30 1273 H 124.063 -1.54083 7.44421 0
M  V30 1274 N 125.638 -1.25649 -0.95132 0
M  V30 1275 C 126.568 -1.08808 -2.06599 0
M  V30 1276 C 127.549 0.00382547 -1.701 0
M  V30 1277 O 128.734 -0.166325 -1.93486 0
M  V30 1278 C 125.864 -0.709542 -3.39975 0
M  V30 1279 C 124.818 -1.75206 -3.90496 0
M  V30 1280 C 124.144 -1.22811 -5.20405 0
M  V30 1281 C 125.444 -3.15153 -4.16504 0
M  V30 1282 H 127.138 -2.02048 -2.20946 0
M  V30 1283 H 124.684 -0.972835 -1.06169 0
M  V30 1284 H 126.637 -0.578649 -4.17408 0
M  V30 1285 H 125.361 0.258556 -3.25575 0
M  V30 1286 H 124.02 -1.87145 -3.15234 0
M  V30 1287 H 123.668 -0.250145 -5.02378 0
M  V30 1288 H 123.368 -1.92492 -5.55176 0
M  V30 1289 H 124.892 -1.10968 -6.00432 0
M  V30 1290 H 126.306 -3.06349 -4.84586 0
M  V30 1291 H 124.703 -3.82333 -4.62538 0
M  V30 1292 H 125.773 -3.61966 -3.22658 0
M  V30 1293 N 127.117 1.15442 -1.07289 0
M  V30 1294 C 128.342 1.90638 -0.816828 0
M  V30 1295 C 128.767 1.77445 0.624083 0
M  V30 1296 O 128.125 1.10671 1.43602 0
M  V30 1297 C 128.173 3.39008 -1.22906 0
M  V30 1298 O 127.277 4.10701 -0.373975 0
M  V30 1299 H 126.618 0.593555 -0.297638 0
M  V30 1300 H 129.148 1.46198 -1.43134 0
M  V30 1301 H 129.158 3.89801 -1.20497 0
M  V30 1302 H 127.833 3.47929 -2.27856 0
M  V30 1303 H 126.41 3.70046 -0.460499 0
M  V30 1304 N 128.595 0.856903 1.32268 0
M  V30 1305 C 129.872 0.382583 1.91822 0
M  V30 1306 C 130.252 -1.13407 1.78051 0
M  V30 1307 O 129.6 -1.95673 1.18001 0
M  V30 1308 C 129.81 0.849446 3.38505 0
M  V30 1309 C 131.158 0.867936 4.15634 0
M  V30 1310 O 132.182 0.794232 3.47232 0
M  V30 1311 O 131.041 0.972286 5.37781 0
M  V30 1312 H 128.135 0.112014 0.819379 0
M  V30 1313 H 130.681 0.943952 1.41024 0
M  V30 1314 H 129.453 1.89267 3.42482 0
M  V30 1315 H 129.076 0.265652 3.96712 0
M  V30 1316 N 130.073 -1.45103 0.615059 0
M  V30 1317 C 130.983 -2.34382 -0.101034 0
M  V30 1318 C 131.999 -1.51681 -0.852585 0
M  V30 1319 O 133.175 -1.8446 -0.808484 0
M  V30 1320 C 130.24 -3.29417 -1.08099 0
M  V30 1321 C 129.301 -4.28025 -0.330577 0
M  V30 1322 C 128.534 -5.1852 -1.26385 0
M  V30 1323 O 128.757 -5.12598 -2.50198 0
M  V30 1324 O 127.691 -5.97122 -0.756866 0
M  V30 1325 H 131.517 -2.97033 0.632855 0
M  V30 1326 H 129.102 -1.4461 0.375293 0
M  V30 1327 H 130.984 -3.87958 -1.6452 0
M  V30 1328 H 129.659 -2.69321 -1.79577 0
M  V30 1329 H 128.566 -3.73078 0.276283 0
M  V30 1330 H 129.899 -4.90997 0.343866 0
M  V30 1331 N 131.551 -0.354651 -1.53558 0
M  V30 1332 C 132.8 0.239504 -2.00273 0
M  V30 1333 C 133.113 1.50759 -1.24623 0
M  V30 1334 O 134.319 2.17968 -1.61871 0
M  V30 1335 C 132.775 0.477341 -3.5672 0
M  V30 1336 C 132.383 -0.775488 -4.41237 0
M  V30 1337 C 134.127 1.02975 -4.11821 0
M  V30 1338 C 132.034 -0.507838 -5.89216 0
M  V30 1339 H 130.964 0.0932743 -0.748208 0
M  V30 1340 H 133.615 -0.471701 -1.77334 0
M  V30 1341 H 131.997 1.24953 -3.7577 0
M  V30 1342 H 133.171 -1.54963 -4.33962 0
M  V30 1343 H 131.486 -1.25033 -3.97185 0
M  V30 1344 H 134.083 1.24513 -5.2 0
M  V30 1345 H 134.426 1.98862 -3.65731 0
M  V30 1346 H 134.959 0.317994 -3.96527 0
M  V30 1347 H 131.698 -1.43674 -6.39561 0
M  V30 1348 H 131.218 0.228011 -5.99366 0
M  V30 1349 H 132.897 -0.129238 -6.46871 0
M  V30 1350 N 133.029 1.57378 -0.0835403 0
M  V30 1351 C 133.976 2.13384 0.879539 0
M  V30 1352 C 134.946 1.04936 1.28754 0
M  V30 1353 O 136.131 1.32662 1.37133 0
M  V30 1354 C 133.271 2.70932 2.13752 0
M  V30 1355 C 132.384 3.93575 1.7811 0
M  V30 1356 C 131.519 4.39326 2.98607 0
M  V30 1357 C 130.558 5.54587 2.59037 0
M  V30 1358 N 129.695 5.95243 3.72331 0
M  V30 1359 H 134.535 2.9537 0.395076 0
M  V30 1360 H 132.072 1.45953 0.183349 0
M  V30 1361 H 134.03 3.02411 2.87408 0
M  V30 1362 H 132.66 1.91693 2.59718 0
M  V30 1363 H 131.712 3.68483 0.94469 0
M  V30 1364 H 133.024 4.77258 1.45005 0
M  V30 1365 H 132.178 4.72528 3.80529 0
M  V30 1366 H 130.917 3.5452 3.34913 0
M  V30 1367 H 129.922 5.21024 1.75539 0
M  V30 1368 H 131.147 6.41133 2.23887 0
M  V30 1369 H 129.093 5.13385 4.08378 0
M  V30 1370 H 129.01 6.73694 3.43034 0
M  V30 1371 H 130.278 6.33072 4.54797 0
M  V30 1372 N 134.507 -0.190092 1.56449 0
M  V30 1373 C 135.417 -1.25591 1.98152 0
M  V30 1374 C 136.433 -1.49519 0.889944 0
M  V30 1375 O 137.609 -1.62036 1.19609 0
M  V30 1376 C 134.674 -2.57916 2.3169 0
M  V30 1377 C 133.735 -2.42015 3.5458 0
M  V30 1378 C 132.968 -3.6803 3.8651 0
M  V30 1379 O 133.191 -4.72413 3.1966 0
M  V30 1380 O 132.125 -3.6326 4.79923 0
M  V30 1381 H 135.951 -0.931988 2.89046 0
M  V30 1382 H 133.536 -0.395488 1.4407 0
M  V30 1383 H 135.418 -3.36008 2.54316 0
M  V30 1384 H 134.093 -2.89925 1.43963 0
M  V30 1385 H 133 -1.62017 3.37196 0
M  V30 1386 H 134.333 -2.14937 4.4279 0
M  V30 1387 N 135.985 -1.50799 -0.457987 0
M  V30 1388 C 136.895 -1.73426 -1.57989 0
M  V30 1389 C 137.911 -0.617745 -1.62665 0
M  V30 1390 O 139.087 -0.897614 -1.80291 0
M  V30 1391 C 136.152 -1.83557 -2.94122 0
M  V30 1392 C 135.213 -3.07345 -2.99729 0
M  V30 1393 C 134.446 -3.16983 -4.29368 0
M  V30 1394 O 134.669 -2.33077 -5.20607 0
M  V30 1395 O 133.603 -4.09812 -4.40837 0
M  V30 1396 H 137.429 -2.68555 -1.41817 0
M  V30 1397 H 135.014 -1.35052 -0.638859 0
M  V30 1398 H 136.896 -1.92326 -3.74952 0
M  V30 1399 H 135.571 -0.916137 -3.10465 0
M  V30 1400 H 134.478 -3.04068 -2.1793 0
M  V30 1401 H 135.811 -3.9891 -2.88326 0
M  V30 1402 N 137.463 0.71206 -1.40597 0
M  V30 1403 C 138.879 1.02058 -1.22704 0
M  V30 1404 C 139.079 2.01228 -0.104729 0
M  V30 1405 O 138.135 2.4674 0.53624 0
M  V30 1406 C 139.448 1.56094 -2.57012 0
M  V30 1407 C 140.996 1.6806 -2.64054 0
M  V30 1408 C 141.471 2.25501 -3.9864 0
M  V30 1409 N 142.962 2.32882 -4.004 0
M  V30 1410 C 143.697 2.78317 -5.01325 0
M  V30 1411 N 143.193 3.23478 -6.12645 0
M  V30 1412 N 144.986 2.77733 -4.88693 0
M  V30 1413 H 137.137 0.0547896 -2.12329 0
M  V30 1414 H 139.4 0.0869027 -0.944008 0
M  V30 1415 H 139.106 0.906865 -3.39807 0
M  V30 1416 H 138.98 2.54564 -2.78347 0
M  V30 1417 H 141.367 2.32583 -1.81629 0
M  V30 1418 H 141.448 0.681802 -2.46546 0
M  V30 1419 H 141.092 1.61598 -4.81506 0
M  V30 1420 H 141.022 3.26102 -4.13479 0
M  V30 1421 H 143.513 2.00991 -3.20017 0
M  V30 1422 H 143.826 3.56725 -6.85542 0
M  V30 1423 H 142.171 3.21429 -6.16205 0
M  V30 1424 H 145.362 2.4179 -4.00818 0
M  V30 1425 H 145.535 3.12826 -5.67489 0
M  V30 1426 N 138.941 1.26152 0.944643 0
M  V30 1427 C 139.888 1.07408 2.04285 0
M  V30 1428 C 140.858 -0.0198413 1.66088 0
M  V30 1429 O 142.043 0.139264 1.90291 0
M  V30 1430 C 139.183 0.70945 3.37729 0
M  V30 1431 C 138.296 1.87926 3.88983 0
M  V30 1432 C 137.431 1.45807 5.10797 0
M  V30 1433 C 136.47 2.5964 5.54305 0
M  V30 1434 N 135.607 2.18226 6.67324 0
M  V30 1435 H 140.447 2.01389 2.1965 0
M  V30 1436 H 137.984 1.00275 1.07626 0
M  V30 1437 H 139.942 0.478948 4.14442 0
M  V30 1438 H 138.572 -0.193389 3.2222 0
M  V30 1439 H 137.624 2.22279 3.08701 0
M  V30 1440 H 138.936 2.73377 4.17213 0
M  V30 1441 H 138.09 1.18781 5.94959 0
M  V30 1442 H 136.829 0.574414 4.84305 0
M  V30 1443 H 135.834 2.87399 4.68702 0
M  V30 1444 H 137.059 3.48599 5.828 0
M  V30 1445 H 135.005 1.3229 6.42523 0
M  V30 1446 H 134.922 2.97221 6.95123 0
M  V30 1447 H 136.19 1.94403 7.54869 0
M  V30 1448 N 140.419 -1.14872 1.07899 0
M  V30 1449 C 141.668 -1.85135 0.800499 0
M  V30 1450 C 141.981 -1.83547 -0.676014 0
M  V30 1451 O 143.187 -2.49548 -1.06948 0
M  V30 1452 C 141.643 -3.3231 1.38197 0
M  V30 1453 C 141.251 -3.42329 2.8899 0
M  V30 1454 C 142.995 -4.0772 1.18174 0
M  V30 1455 C 140.902 -4.83684 3.403 0
M  V30 1456 H 139.832 -0.693563 0.29578 0
M  V30 1457 H 142.483 -1.29532 1.29976 0
M  V30 1458 H 140.865 -3.87618 0.810431 0
M  V30 1459 H 142.039 -2.97097 3.52236 0
M  V30 1460 H 140.354 -2.80369 3.07867 0
M  V30 1461 H 142.951 -5.12049 1.5398 0
M  V30 1462 H 143.294 -4.16124 0.12117 0
M  V30 1463 H 143.827 -3.58696 1.71994 0
M  V30 1464 H 140.566 -4.80465 4.45907 0
M  V30 1465 H 140.086 -5.29474 2.81811 0
M  V30 1466 H 141.765 -5.52558 3.36584 0
M  V30 1467 N 141.898 -0.863906 -1.31812 0
M  V30 1468 C 142.83 -0.272485 -2.27575 0
M  V30 1469 C 143.843 0.56104 -1.52827 0
M  V30 1470 O 145.032 0.384021 -1.7432 0
M  V30 1471 C 142.132 0.63283 -3.32939 0
M  V30 1472 C 141.305 -0.166902 -4.37081 0
M  V30 1473 C 140.364 0.665608 -5.21973 0
M  V30 1474 O 139.39 0.0958091 -5.69119 0
M  V30 1475 N 140.592 1.9787 -5.45736 0
M  V30 1476 H 143.357 -1.0954 -2.78964 0
M  V30 1477 H 140.918 -0.724791 -1.4477 0
M  V30 1478 H 142.91 1.19532 -3.86645 0
M  V30 1479 H 141.48 1.35642 -2.81638 0
M  V30 1480 H 140.7 -0.910838 -3.83533 0
M  V30 1481 H 141.988 -0.715874 -5.03739 0
M  V30 1482 H 141.386 2.46484 -5.09178 0
M  V30 1483 H 139.943 2.48911 -6.024 0
M  V30 1484 N 143.376 1.44774 -0.622745 0
M  V30 1485 C 144.323 2.30635 0.0871679 0
M  V30 1486 C 145.293 1.42994 0.845097 0
M  V30 1487 O 146.478 1.71907 0.827812 0
M  V30 1488 C 143.618 3.28144 1.06844 0
M  V30 1489 C 142.731 4.30888 0.309809 0
M  V30 1490 C 141.866 5.15494 1.28215 0
M  V30 1491 C 140.905 6.09953 0.512198 0
M  V30 1492 N 140.042 6.87287 1.43458 0
M  V30 1493 H 144.882 2.90803 -0.650974 0
M  V30 1494 H 142.419 1.43286 -0.33281 0
M  V30 1495 H 144.377 3.83157 1.65066 0
M  V30 1496 H 143.007 2.69695 1.77382 0
M  V30 1497 H 142.059 3.78414 -0.388181 0
M  V30 1498 H 143.371 4.97955 -0.290254 0
M  V30 1499 H 142.525 5.74983 1.93596 0
M  V30 1500 H 141.264 4.48481 1.91614 0
M  V30 1501 H 140.269 5.49581 -0.155151 0
M  V30 1502 H 141.494 6.78999 -0.116958 0
M  V30 1503 H 139.44 6.2295 2.05594 0
M  V30 1504 H 139.357 7.50763 0.888335 0
M  V30 1505 H 140.625 7.51306 2.07749 0
M  V30 1506 N 144.854 0.36279 1.53368 0
M  V30 1507 C 145.804 -0.501391 2.22419 0
M  V30 1508 C 146.788 -1.0509 1.2184 0
M  V30 1509 O 147.98 -0.981404 1.47301 0
M  V30 1510 C 145.109 -1.64201 3.01484 0
M  V30 1511 C 144.195 -1.10552 4.09438 0
M  V30 1512 N 144.586 -0.291788 5.04958 0
M  V30 1513 C 142.884 -1.3806 4.24094 0
M  V30 1514 C 143.585 0.00162655 5.817 0
M  V30 1515 N 142.561 -0.595244 5.40331 0
M  V30 1516 H 146.363 0.127159 2.93625 0
M  V30 1517 H 143.877 0.170658 1.61501 0
M  V30 1518 H 145.874 -2.27326 3.49469 0
M  V30 1519 H 144.534 -2.27365 2.31809 0
M  V30 1520 H 145.545 0.0687731 5.17854 0
M  V30 1521 H 142.222 -2.01522 3.65644 0
M  V30 1522 H 143.612 0.659278 6.68658 0
M  V30 1523 N 146.332 -1.57332 0.0918853 0
M  V30 1524 C 147.279 -2.13847 -0.868211 0
M  V30 1525 C 148.249 -1.05618 -1.28196 0
M  V30 1526 O 149.434 -1.33387 -1.36427 0
M  V30 1527 C 146.574 -2.72062 -2.12312 0
M  V30 1528 C 145.687 -3.94514 -1.7602 0
M  V30 1529 C 144.822 -4.40903 -2.96273 0
M  V30 1530 C 143.861 -5.55953 -2.56092 0
M  V30 1531 N 142.998 -5.97209 -3.69169 0
M  V30 1532 H 147.838 -2.95575 -0.379406 0
M  V30 1533 H 145.375 -1.46048 -0.175606 0
M  V30 1534 H 147.333 -3.03931 -2.858 0
M  V30 1535 H 145.963 -1.93068 -2.58698 0
M  V30 1536 H 145.015 -3.68979 -0.925135 0
M  V30 1537 H 146.327 -4.7802 -1.42472 0
M  V30 1538 H 145.481 -4.74539 -3.78018 0
M  V30 1539 H 144.22 -3.56291 -3.33029 0
M  V30 1540 H 143.225 -5.21948 -1.72773 0
M  V30 1541 H 144.45 -6.42311 -2.20484 0
M  V30 1542 H 142.396 -5.15543 -4.05649 0
M  V30 1543 H 142.313 -6.75504 -3.39456 0
M  V30 1544 H 143.581 -6.35475 -4.51434 0
M  V30 1545 N 147.81 0.181792 -1.56548 0
M  V30 1546 C 149.038 0.915947 -1.85521 0
M  V30 1547 C 149.453 1.76282 -0.676016 0
M  V30 1548 O 148.81 1.79012 0.355077 0
M  V30 1549 C 148.861 1.80126 -3.13427 0
M  V30 1550 O 148.582 0.988562 -4.26801 0
M  V30 1551 C 150.083 2.64597 -3.55673 0
M  V30 1552 H 147.303 0.26661 -0.61576 0
M  V30 1553 H 149.847 0.185039 -2.03661 0
M  V30 1554 H 148.002 2.48563 -2.97145 0
M  V30 1555 H 148.416 1.59308 -4.99721 0
M  V30 1556 H 149.89 3.2235 -4.48101 0
M  V30 1557 H 150.367 3.38958 -2.79292 0
M  V30 1558 H 150.973 2.0151 -3.74532 0
M  V30 1559 N 149.288 1.51039 0.449983 0
M  V30 1560 C 150.218 1.74379 1.55288 0
M  V30 1561 C 151.199 0.593236 1.5942 0
M  V30 1562 O 152.384 0.834625 1.7535 0
M  V30 1563 C 149.514 1.85728 2.93466 0
M  V30 1564 C 148.468 3.01078 3.04197 0
M  V30 1565 C 147.794 2.97595 4.44231 0
M  V30 1566 C 149.094 4.41254 2.7945 0
M  V30 1567 H 150.788 2.66725 1.36008 0
M  V30 1568 H 148.334 1.2835 0.652864 0
M  V30 1569 H 150.287 2.0064 3.70569 0
M  V30 1570 H 149.011 0.900207 3.13949 0
M  V30 1571 H 147.67 2.85851 2.29531 0
M  V30 1572 H 147.318 1.99691 4.61663 0
M  V30 1573 H 147.018 3.75046 4.52343 0
M  V30 1574 H 148.542 3.14583 5.23326 0
M  V30 1575 H 149.956 4.56897 3.46292 0
M  V30 1576 H 148.353 5.20315 2.98985 0
M  V30 1577 H 149.423 4.52164 1.75144 0
M  V30 1578 N 150.766 -0.704594 1.40972 0
M  V30 1579 C 152.177 -1.28418 1.3552 0
M  V30 1580 C 152.528 -1.96171 0.0339434 0
M  V30 1581 O 151.653 -1.98231 -0.867944 0
M  V30 1582 C 152.248 -2.33528 2.45459 0
M  V30 1583 C 150.807 -2.87085 2.43433 0
M  V30 1584 C 149.954 -1.61007 2.2577 0
M  V30 1585 H 152.905 -0.499963 1.50619 0
M  V30 1586 H 152.926 -3.14619 2.13998 0
M  V30 1587 H 152.438 -1.84187 3.41609 0
M  V30 1588 H 150.539 -3.40626 1.51013 0
M  V30 1589 H 150.652 -3.3813 3.39419 0
M  V30 1590 H 149.016 -1.86482 1.73483 0
M  V30 1591 H 149.799 -1.13675 3.23933 0
M  V30 1592 N 152.244 -1.26651 -0.937939 0
M  V30 1593 C 153.191 -1.0849 -2.03712 0
M  V30 1594 C 154.161 0.011033 -1.66096 0
M  V30 1595 O 155.346 -0.149353 -1.90215 0
M  V30 1596 C 152.486 -0.72735 -3.37348 0
M  V30 1597 C 151.599 -1.89986 -3.87981 0
M  V30 1598 C 150.734 -1.48513 -5.10017 0
M  V30 1599 C 149.773 -2.62575 -5.5292 0
M  V30 1600 N 148.91 -2.21762 -6.66158 0
M  V30 1601 H 153.75 -2.02551 -2.18579 0
M  V30 1602 H 151.287 -1.00844 -1.07093 0
M  V30 1603 H 153.245 -0.50092 -4.14182 0
M  V30 1604 H 151.875 0.176298 -3.22318 0
M  V30 1605 H 150.927 -2.23913 -3.07518 0
M  V30 1606 H 152.239 -2.75586 -4.15757 0
M  V30 1607 H 151.393 -1.21934 -5.94321 0
M  V30 1608 H 150.132 -0.60009 -4.83994 0
M  V30 1609 H 149.137 -2.8988 -4.67172 0
M  V30 1610 H 150.362 -3.51685 -5.80943 0
M  V30 1611 H 148.308 -1.35696 -6.41812 0
M  V30 1612 H 148.225 -3.00903 -6.93537 0
M  V30 1613 H 149.493 -1.98403 -7.53828 0
M  V30 1614 N 153.722 1.14298 -1.08507 0
M  V30 1615 C 154.655 2.18447 -0.660004 0
M  V30 1616 C 155.633 1.59242 0.328749 0
M  V30 1617 O 156.817 1.87062 0.232367 0
M  V30 1618 C 153.944 3.38688 0.0290807 0
M  V30 1619 C 152.99 4.1646 -0.919982 0
M  V30 1620 S 153.823 4.77334 -2.42718 0
M  V30 1621 C 154.979 6.00931 -1.75024 0
M  V30 1622 H 155.212 2.54166 -1.54231 0
M  V30 1623 H 152.745 1.25446 -0.900149 0
M  V30 1624 H 154.703 4.08342 0.420378 0
M  V30 1625 H 153.364 3.01289 0.887895 0
M  V30 1626 H 152.557 5.02529 -0.384751 0
M  V30 1627 H 152.159 3.52414 -1.25223 0
M  V30 1628 H 154.451 6.69017 -1.06877 0
M  V30 1629 H 155.394 6.59044 -2.58971 0
M  V30 1630 H 155.802 5.51089 -1.22317 0
M  V30 1631 N 155.201 0.870884 1.31352 0
M  V30 1632 C 156.426 0.495957 2.01383 0
M  V30 1633 C 156.851 -0.904324 1.64935 0
M  V30 1634 O 156.209 -1.59687 0.858466 0
M  V30 1635 C 156.257 0.661433 3.54482 0
M  V30 1636 O 155.361 -0.298851 4.11316 0
M  V30 1637 H 154.702 0.197158 0.634054 0
M  V30 1638 H 157.232 1.17455 1.67527 0
M  V30 1639 H 157.242 0.555072 4.04207 0
M  V30 1640 H 155.917 1.68246 3.8035 0
M  V30 1641 H 154.494 -0.147368 3.72609 0
M  V30 1642 N 156.679 -1.44442 0.630414 0
M  V30 1643 C 157.927 -2.01653 0.134351 0
M  V30 1644 C 158.248 -1.49836 -1.24796 0
M  V30 1645 O 157.518 -0.701684 -1.82902 0
M  V30 1646 H 156.098 -0.74554 0.0466769 0
M  V30 1647 H 158.76 -1.76952 0.816955 0
M  V30 1648 H 157.856 -3.11935 0.101498 0
M  V30 1649 N 158.157 -0.370918 -1.53173 0
M  V30 1650 C 159.405 0.216673 -2.00935 0
M  V30 1651 C 159.726 1.48845 -1.25977 0
M  V30 1652 O 158.996 1.92286 -0.374551 0
M  V30 1653 H 157.576 0.0830565 -0.742368 0
M  V30 1654 H 160.238 -0.49838 -1.8842 0
M  V30 1655 H 159.334 0.439893 -3.08984 0
M  V30 1656 N 159.635 1.57281 -0.100228 0
M  V30 1657 C 160.881 1.95626 0.556946 0
M  V30 1658 C 161.236 0.981655 1.65473 0
M  V30 1659 O 160.529 0.00849847 1.91598 0
M  V30 1660 C 160.723 3.38305 1.15259 0
M  V30 1661 C 160.552 4.49555 0.114035 0
M  V30 1662 C 159.322 5.0434 -0.311266 0
M  V30 1663 C 161.52 5.10051 -0.659768 0
M  V30 1664 N 159.502 5.99152 -1.33755 0
M  V30 1665 C 160.873 6.00628 -1.53774 0
M  V30 1666 C 162.928 4.92772 -0.712723 0
M  V30 1667 C 161.631 6.7578 -2.46403 0
M  V30 1668 C 163.657 5.6859 -1.62663 0
M  V30 1669 C 163.019 6.58838 -2.49222 0
M  V30 1670 H 159.118 0.7624 0.173982 0
M  V30 1671 H 161.702 1.93829 -0.183988 0
M  V30 1672 H 159.873 3.40786 1.86332 0
M  V30 1673 H 161.605 3.63817 1.77254 0
M  V30 1674 H 158.36 4.73537 0.0774812 0
M  V30 1675 H 158.784 6.5126 -1.84905 0
M  V30 1676 H 163.426 4.22761 -0.0576648 0
M  V30 1677 H 161.144 7.4505 -3.12931 0
M  V30 1678 H 164.73 5.57233 -1.67281 0
M  V30 1679 H 163.61 7.16479 -3.18791 0
M  V30 1680 N 161.113 -0.173488 1.56642 0
M  V30 1681 C 162.023 -1.23482 1.99473 0
M  V30 1682 C 163.039 -1.48567 0.905752 0
M  V30 1683 O 164.215 -1.60758 1.21321 0
M  V30 1684 C 161.28 -2.55444 2.34413 0
M  V30 1685 C 160.341 -2.38241 3.57127 0
M  V30 1686 C 159.574 -3.63909 3.90392 0
M  V30 1687 O 159.797 -4.68996 3.24653 0
M  V30 1688 O 158.731 -3.58149 4.83749 0
M  V30 1689 H 162.557 -0.901279 2.90018 0
M  V30 1690 H 160.142 -0.380185 1.44482 0
M  V30 1691 H 162.024 -3.33292 2.57865 0
M  V30 1692 H 160.699 -2.88382 1.4703 0
M  V30 1693 H 159.606 -1.58431 3.38896 0
M  V30 1694 H 160.939 -2.10228 4.45045 0
M  V30 1695 N 162.591 -1.51276 -0.441967 0
M  V30 1696 C 163.521 -1.752 -1.54361 0
M  V30 1697 C 164.502 -0.601682 -1.59103 0
M  V30 1698 O 165.687 -0.843913 -1.74905 0
M  V30 1699 C 162.817 -1.87282 -2.92477 0
M  V30 1700 C 161.771 -3.02687 -3.02596 0
M  V30 1701 C 161.097 -2.99947 -4.42647 0
M  V30 1702 C 162.397 -4.4273 -2.77106 0
M  V30 1703 H 164.091 -2.67442 -1.34592 0
M  V30 1704 H 161.637 -1.28694 -0.646048 0
M  V30 1705 H 163.59 -2.02602 -3.695 0
M  V30 1706 H 162.314 -0.916844 -3.13467 0
M  V30 1707 H 160.973 -2.87065 -2.28012 0
M  V30 1708 H 160.621 -2.02136 -4.60597 0
M  V30 1709 H 160.321 -3.77439 -4.50348 0
M  V30 1710 H 161.845 -3.17354 -5.2165 0
M  V30 1711 H 163.259 -4.58727 -3.43864 0
M  V30 1712 H 161.656 -5.21893 -2.96222 0
M  V30 1713 H 162.726 -4.53087 -1.72744 0
M  V30 1714 N 164.069 0.697108 -1.41344 0
M  V30 1715 C 164.979 1.84088 -1.45427 0
M  V30 1716 C 165.995 1.70545 -0.34501 0
M  V30 1717 O 167.171 1.92488 -0.592492 0
M  V30 1718 C 164.236 3.20056 -1.33286 0
M  V30 1719 C 163.297 3.45718 -2.54514 0
M  V30 1720 C 162.53 4.75199 -2.42944 0
M  V30 1721 O 162.753 5.51579 -1.45318 0
M  V30 1722 O 161.687 5.0161 -3.32672 0
M  V30 1723 H 165.513 1.836 -2.41919 0
M  V30 1724 H 163.098 0.849966 -1.22866 0
M  V30 1725 H 164.98 4.01236 -1.28794 0
M  V30 1726 H 163.655 3.2123 -0.39909 0
M  V30 1727 H 162.562 2.64474 -2.64583 0
M  V30 1728 H 163.895 3.49356 -3.46715 0
M  V30 1729 N 165.547 1.27147 0.931209 0
M  V30 1730 C 166.477 1.12081 2.04842 0
M  V30 1731 C 167.458 0.0232364 1.70084 0
M  V30 1732 O 168.643 0.197085 1.93197 0
M  V30 1733 C 165.773 0.76354 3.38803 0
M  V30 1734 C 164.727 1.81396 3.87659 0
M  V30 1735 C 164.053 1.31075 5.18385 0
M  V30 1736 C 165.353 3.21739 4.11438 0
M  V30 1737 H 167.047 2.05537 2.17703 0
M  V30 1738 H 164.593 0.989603 1.04608 0
M  V30 1739 H 166.546 0.644982 4.16435 0
M  V30 1740 H 165.27 -0.206727 3.25945 0
M  V30 1741 H 163.929 1.92136 3.12217 0
M  V30 1742 H 163.577 0.330037 5.01916 0
M  V30 1743 H 163.277 2.013 5.52044 0
M  V30 1744 H 164.801 1.20506 5.98591 0
M  V30 1745 H 166.215 3.14019 4.79651 0
M  V30 1746 H 164.612 3.89644 4.56397 0
M  V30 1747 H 165.682 3.67054 3.16859 0
M  V30 1748 N 167.025 -1.13721 1.09112 0
M  V30 1749 C 167.973 -2.21103 0.722219 0
M  V30 1750 C 168.967 -1.67147 -0.275374 0
M  V30 1751 O 170.173 -1.79477 -0.137176 0
M  V30 1752 H 166.548 -0.720445 0.215553 0
M  V30 1753 H 168.519 -2.49483 1.63709 0
M  V30 1754 C 167.268 -3.47352 0.15543 0
M  V30 1755 H 166.591 -3.89206 0.914246 0
M  V30 1756 H 168.031 -4.2395 -0.0647967 0
M  V30 1757 C 166.49 -3.1814 -1.10852 0
M  V30 1758 O 167.02 -3.36604 -2.19227 0
M  V30 1759 N 165.226 -2.72045 -1.02176 0
M  V30 1760 H 164.773 -2.57221 -0.139764 0
M  V30 1761 H 164.731 -2.52875 -1.8682 0
M  V30 1762 N 168.503 -0.877838 -1.30888 0
M  V30 1763 C 169.751 -0.491723 -1.96027 0
M  V30 1764 C 170.072 0.960827 -1.69685 0
M  V30 1765 O 169.342 1.67462 -1.01654 0
M  V30 1766 H 167.922 -0.17885 -0.725273 0
M  V30 1767 H 170.584 -1.11935 -1.59551 0
M  V30 1768 H 169.68 -0.656016 -3.05128 0
M  V30 1769 N 169.982 1.44106 -0.638065 0
M  V30 1770 C 171.21 2.06336 -0.152615 0
M  V30 1771 C 171.625 1.47731 1.17563 0
M  V30 1772 O 170.982 0.602806 1.72257 0
M  V30 1773 C 171.033 3.61479 -0.0391491 0
M  V30 1774 O 170.754 4.17903 -1.31487 0
M  V30 1775 C 172.255 4.40757 0.474176 0
M  V30 1776 H 169.475 0.665862 -0.0828776 0
M  V30 1777 H 172.019 1.84862 -0.87443 0
M  V30 1778 H 170.174 3.82191 0.633142 0
M  V30 1779 H 170.588 5.11416 -1.16421 0
M  V30 1780 H 172.062 5.49707 0.502562 0
M  V30 1781 H 172.539 4.12697 1.50258 0
M  V30 1782 H 173.145 4.24979 -0.165102 0
M  V30 1783 N 171.46 0.379036 1.52974 0
M  V30 1784 C 172.37 -0.468639 2.29872 0
M  V30 1785 C 173.386 -1.08067 1.36373 0
M  V30 1786 O 174.562 -1.08871 1.69438 0
M  V30 1787 C 171.627 -1.58594 3.083 0
M  V30 1788 C 170.688 -1.00007 4.17489 0
M  V30 1789 C 169.921 -2.06413 4.92168 0
M  V30 1790 O 170.144 -3.27751 4.66835 0
M  V30 1791 O 169.078 -1.68717 5.7777 0
M  V30 1792 H 172.904 0.157508 3.03291 0
M  V30 1793 H 170.489 0.143035 1.48714 0
M  V30 1794 H 172.371 -2.23525 3.57232 0
M  V30 1795 H 171.046 -2.19724 2.37703 0
M  V30 1796 H 169.953 -0.314299 3.72777 0
M  V30 1797 H 171.286 -0.433135 4.90291 0
M  V30 1798 N 172.938 -1.57226 0.108567 0
M  V30 1799 C 173.901 -2.13602 -0.831082 0
M  V30 1800 C 174.901 -1.06841 -1.20173 0
M  V30 1801 O 176.091 -1.32666 -1.12895 0
M  V30 1802 C 173.223 -2.66769 -2.12243 0
M  V30 1803 H 174.416 -2.97951 -0.341317 0
M  V30 1804 H 171.969 -1.55667 -0.14057 0
M  V30 1805 H 172.704 -1.85977 -2.65675 0
M  V30 1806 H 172.489 -3.44839 -1.86625 0
M  V30 1807 H 173.979 -3.10332 -2.79435 0
M  V30 1808 N 174.416 0.165178 -1.56732 0
M  V30 1809 C 175.363 1.2044 -1.96883 0
M  V30 1810 C 176.333 1.43664 -0.833657 0
M  V30 1811 O 177.518 1.56302 -1.09427 0
M  V30 1812 C 174.658 2.53727 -2.33916 0
M  V30 1813 C 173.771 2.3783 -3.6064 0
M  V30 1814 C 172.906 3.64026 -3.86857 0
M  V30 1815 C 171.945 3.43088 -5.06909 0
M  V30 1816 N 171.082 4.61369 -5.29229 0
M  V30 1817 H 175.922 0.854996 -2.85471 0
M  V30 1818 H 173.459 0.41076 -1.41249 0
M  V30 1819 H 175.417 3.31419 -2.53411 0
M  V30 1820 H 174.047 2.8665 -1.48431 0
M  V30 1821 H 173.099 1.51282 -3.49024 0
M  V30 1822 H 174.411 2.18308 -4.4849 0
M  V30 1823 H 173.565 4.50152 -4.06753 0
M  V30 1824 H 172.304 3.86533 -2.97394 0
M  V30 1825 H 171.309 2.55349 -4.86906 0
M  V30 1826 H 172.534 3.21997 -5.97909 0
M  V30 1827 H 170.48 4.84084 -4.42718 0
M  V30 1828 H 170.397 4.44783 -6.11313 0
M  V30 1829 H 171.665 5.48761 -5.53608 0
M  V30 1830 N 175.894 1.51508 0.433938 0
M  V30 1831 C 176.824 1.76016 1.53429 0
M  V30 1832 C 177.805 0.610112 1.58782 0
M  V30 1833 O 178.99 0.853177 1.74455 0
M  V30 1834 C 176.12 1.88831 2.9148 0
M  V30 1835 C 175.074 3.04288 3.00987 0
M  V30 1836 C 174.4 3.0229 4.4105 0
M  V30 1837 C 175.7 4.44193 2.74754 0
M  V30 1838 H 177.394 2.68152 1.33171 0
M  V30 1839 H 174.94 1.29035 0.639214 0
M  V30 1840 H 176.893 2.04559 3.6842 0
M  V30 1841 H 175.617 0.933455 3.12976 0
M  V30 1842 H 174.276 2.8827 2.26486 0
M  V30 1843 H 173.924 2.04576 4.59519 0
M  V30 1844 H 173.624 3.79822 4.4834 0
M  V30 1845 H 175.148 3.20116 5.1996 0
M  V30 1846 H 176.562 4.60544 3.41426 0
M  V30 1847 H 174.959 5.23457 2.9345 0
M  V30 1848 H 176.029 4.53996 1.70339 0
M  V30 1849 N 177.372 -0.689602 1.41712 0
M  V30 1850 C 178.618 -1.45181 1.41599 0
M  V30 1851 C 178.951 -1.94181 0.0270081 0
M  V30 1852 O 178.226 -1.6993 -0.946265 0
M  V30 1853 C 178.509 -2.65945 2.42787 0
M  V30 1854 C 178.362 -2.22672 3.90816 0
M  V30 1855 C 179.681 -3.68149 2.41151 0
M  V30 1856 H 176.8 -0.526576 0.515642 0
M  V30 1857 H 179.442 -0.784947 1.73028 0
M  V30 1858 H 177.592 -3.2284 2.16116 0
M  V30 1859 H 179.264 -1.71058 4.28412 0
M  V30 1860 H 177.507 -1.54394 4.05395 0
M  V30 1861 H 178.178 -3.0935 4.57172 0
M  V30 1862 H 180.654 -3.2094 2.64834 0
M  V30 1863 H 179.53 -4.50248 3.13955 0
M  V30 1864 H 179.791 -4.18259 1.43221 0
M  V30 1865 N 178.85 -1.27639 -0.924453 0
M  V30 1866 C 180.266 -1.05113 -1.20097 0
M  V30 1867 C 180.466 0.213262 -2.00368 0
M  V30 1868 O 179.522 0.91787 -2.35226 0
M  V30 1869 C 180.835 -2.29244 -1.94596 0
M  V30 1870 C 182.383 -2.34315 -2.07522 0
M  V30 1871 C 182.858 -3.58183 -2.85427 0
M  V30 1872 N 184.349 -3.5876 -2.92994 0
M  V30 1873 C 185.084 -4.51277 -3.53746 0
M  V30 1874 N 184.58 -5.54102 -4.15863 0
M  V30 1875 N 186.373 -4.38894 -3.51181 0
M  V30 1876 H 178.524 -2.08821 -0.388264 0
M  V30 1877 H 180.787 -0.918568 -0.234385 0
M  V30 1878 H 180.493 -3.21301 -1.43034 0
M  V30 1879 H 180.367 -2.34816 -2.95197 0
M  V30 1880 H 182.754 -1.42762 -2.58269 0
M  V30 1881 H 182.835 -2.32744 -1.06131 0
M  V30 1882 H 182.479 -4.50074 -2.35363 0
M  V30 1883 H 182.409 -3.57006 -3.8711 0
M  V30 1884 H 184.9 -2.84398 -2.4885 0
M  V30 1885 H 185.213 -6.20859 -4.60168 0
M  V30 1886 H 183.558 -5.57941 -4.144 0
M  V30 1887 H 186.749 -3.57772 -3.01856 0
M  V30 1888 H 186.922 -5.11186 -3.98237 0
M  V30 1889 N 180.328 1.1314 -1.09713 0
M  V30 1890 C 181.275 2.18642 -0.739196 0
M  V30 1891 C 182.245 1.63706 0.280978 0
M  V30 1892 O 183.43 1.90111 0.161946 0
M  V30 1893 C 180.57 3.44685 -0.169102 0
M  V30 1894 C 179.683 4.13711 -1.24367 0
M  V30 1895 C 178.818 5.27379 -0.636019 0
M  V30 1896 C 177.857 5.88259 -1.69169 0
M  V30 1897 N 176.994 6.93352 -1.10485 0
M  V30 1898 H 181.834 2.48607 -1.64312 0
M  V30 1899 H 179.371 1.22066 -0.820875 0
M  V30 1900 H 181.329 4.16815 0.179256 0
M  V30 1901 H 179.959 3.15161 0.698079 0
M  V30 1902 H 179.011 3.39835 -1.70927 0
M  V30 1903 H 180.323 4.55037 -2.04311 0
M  V30 1904 H 179.477 6.06238 -0.236677 0
M  V30 1905 H 178.216 4.8731 0.194928 0
M  V30 1906 H 177.221 5.08092 -2.10055 0
M  V30 1907 H 178.446 6.30399 -2.52536 0
M  V30 1908 H 176.392 6.55335 -0.295234 0
M  V30 1909 H 176.309 7.33236 -1.84121 0
M  V30 1910 H 177.577 7.76057 -0.73181 0
M  V30 1911 N 181.806 0.884767 1.30421 0
M  V30 1912 C 183.052 0.503851 1.96441 0
M  V30 1913 C 183.385 -0.944518 1.69684 0
M  V30 1914 O 182.66 -1.66737 1.00145 0
M  V30 1915 C 182.943 0.779085 3.51571 0
M  V30 1916 C 182.796 2.27807 3.87846 0
M  V30 1917 C 184.115 0.255452 4.39358 0
M  V30 1918 H 181.234 0.184533 0.713524 0
M  V30 1919 H 183.876 1.10872 1.54297 0
M  V30 1920 H 182.026 0.264274 3.876 0
M  V30 1921 H 183.698 2.86127 3.61841 0
M  V30 1922 H 181.941 2.74479 3.35922 0
M  V30 1923 H 182.612 2.42125 4.96064 0
M  V30 1924 H 185.088 0.696079 4.10236 0
M  V30 1925 H 183.964 0.477361 5.4682 0
M  V30 1926 H 184.225 -0.843293 4.33983 0
M  V30 1927 N 183.284 -1.43765 0.645699 0
M  V30 1928 C 184.247 -2.29163 -0.0409488 0
M  V30 1929 C 185.247 -1.41813 -0.757996 0
M  V30 1930 O 186.437 -1.63527 -0.600382 0
M  V30 1931 C 183.569 -3.23716 -1.06869 0
M  V30 1932 H 184.762 -2.91366 0.710345 0
M  V30 1933 H 182.315 -1.5092 0.406547 0
M  V30 1934 H 183.05 -2.66393 -1.84947 0
M  V30 1935 H 182.835 -3.88105 -0.558277 0
M  V30 1936 H 184.325 -3.87831 -1.54845 0
M  V30 1937 N 184.763 -0.387143 -1.52771 0
M  V30 1938 C 186.011 0.195349 -2.01154 0
M  V30 1939 C 186.332 1.475 -1.27549 0
M  V30 1940 O 185.602 1.91878 -0.394924 0
M  V30 1941 H 184.182 0.075178 -0.743207 0
M  V30 1942 H 186.844 -0.518337 -1.87881 0
M  V30 1943 H 185.94 0.407096 -3.09434 0
M  V30 1944 N 186.241 1.57166 -0.116904 0
M  V30 1945 C 187.151 2.18745 0.847812 0
M  V30 1946 C 188.167 1.163 1.29423 0
M  V30 1947 O 189.343 1.48761 1.35765 0
M  V30 1948 C 186.408 2.77307 2.0809 0
M  V30 1949 C 185.469 3.94781 1.68661 0
M  V30 1950 C 184.702 4.50541 2.86091 0
M  V30 1951 O 184.925 4.05202 4.01456 0
M  V30 1952 O 183.859 5.41256 2.63298 0
M  V30 1953 H 187.685 3.01632 0.353778 0
M  V30 1954 H 185.27 1.49005 0.108599 0
M  V30 1955 H 187.152 3.14647 2.80313 0
M  V30 1956 H 185.827 1.97452 2.56504 0
M  V30 1957 H 184.734 3.62214 0.935518 0
M  V30 1958 H 186.067 4.76065 1.24991 0
M  V30 1959 N 187.719 -0.156864 1.56817 0
M  V30 1960 C 188.666 -1.19394 1.97519 0
M  V30 1961 C 189.636 -1.4322 0.841265 0
M  V30 1962 O 190.821 -1.55719 1.10255 0
M  V30 1963 C 187.961 -2.52483 2.35258 0
M  V30 1964 C 187.074 -2.35914 3.61896 0
M  V30 1965 C 186.209 -3.61969 3.88782 0
M  V30 1966 C 185.248 -3.40395 5.08722 0
M  V30 1967 N 184.385 -4.58556 5.31668 0
M  V30 1968 H 189.225 -0.839845 2.85921 0
M  V30 1969 H 186.762 -0.403264 1.41464 0
M  V30 1970 H 188.72 -3.30071 2.55165 0
M  V30 1971 H 187.35 -2.85859 1.49949 0
M  V30 1972 H 186.402 -1.49429 3.49821 0
M  V30 1973 H 187.714 -2.15926 4.49641 0
M  V30 1974 H 186.868 -4.47989 4.09135 0
M  V30 1975 H 185.607 -3.84951 2.9944 0
M  V30 1976 H 184.612 -2.52763 4.88253 0
M  V30 1977 H 185.837 -3.18822 5.99608 0
M  V30 1978 H 183.783 -4.81729 4.45279 0
M  V30 1979 H 183.7 -4.41535 6.13664 0
M  V30 1980 H 184.968 -5.45817 5.5651 0
M  V30 1981 N 189.197 -1.51736 -0.425897 0
M  V30 1982 C 190.446 -1.64201 -1.17136 0
M  V30 1983 C 190.759 -0.369705 -1.92074 0
M  V30 1984 O 191.965 -0.373898 -2.68913 0
M  V30 1985 C 190.421 -2.90035 -2.13091 0
M  V30 1986 C 190.029 -4.24312 -1.43747 0
M  V30 1987 C 191.773 -3.1186 -2.87999 0
M  V30 1988 C 189.68 -5.41285 -2.38253 0
M  V30 1989 H 188.61 -0.611624 -0.440944 0
M  V30 1990 H 191.261 -1.78212 -0.437328 0
M  V30 1991 H 189.643 -2.69684 -2.89977 0
M  V30 1992 H 190.817 -4.55086 -0.723408 0
M  V30 1993 H 189.132 -4.08456 -0.809465 0
M  V30 1994 H 191.729 -3.96427 -3.58817 0
M  V30 1995 H 192.072 -2.25403 -3.49999 0
M  V30 1996 H 192.605 -3.32605 -2.18217 0
M  V30 1997 H 189.344 -6.30037 -1.80925 0
M  V30 1998 H 188.864 -5.14872 -3.0768 0
M  V30 1999 H 190.543 -5.73694 -2.99139 0
M  V30 2000 N 190.675 0.682077 -1.42076 0
M  V30 2001 C 191.903 1.47057 -1.4554 0
M  V30 2002 C 192.318 1.8869 -0.0645779 0
M  V30 2003 O 191.675 1.57666 0.919115 0
M  V30 2004 C 191.726 2.72442 -2.37609 0
M  V30 2005 O 191.447 2.32559 -3.71279 0
M  V30 2006 C 192.948 3.66069 -2.50017 0
M  V30 2007 H 190.168 0.452737 -0.495248 0
M  V30 2008 H 192.712 0.838695 -1.8651 0
M  V30 2009 H 190.867 3.31835 -1.9991 0
M  V30 2010 H 191.281 3.13475 -4.20516 0
M  V30 2011 H 192.755 4.50792 -3.18576 0
M  V30 2012 H 193.232 4.11476 -1.53572 0
M  V30 2013 H 193.838 3.12572 -2.88407 0
M  V30 2014 N 192.153 1.28127 0.917671 0
M  V30 2015 C 193.399 1.15223 1.66888 0
M  V30 2016 C 193.732 -0.299293 1.9188 0
M  V30 2017 O 193.007 -1.21805 1.51637 0
M  V30 2018 C 193.29 1.94706 3.02922 0
M  V30 2019 C 193.143 3.47898 2.85109 0
M  V30 2020 C 194.462 1.75939 4.03402 0
M  V30 2021 H 191.581 0.419946 0.605652 0
M  V30 2022 H 194.223 1.57398 1.06423 0
M  V30 2023 H 192.373 1.58864 3.54534 0
M  V30 2024 H 194.045 3.93624 2.40537 0
M  V30 2025 H 192.288 3.7373 2.20246 0
M  V30 2026 H 192.959 3.98765 3.81694 0
M  V30 2027 H 195.435 2.07209 3.60837 0
M  V30 2028 H 194.311 2.33931 4.96556 0
M  V30 2029 H 194.572 0.709877 4.36364 0
M  V30 2030 N 193.631 -1.12557 1.10312 0
M  V30 2031 C 194.859 -1.87864 0.866873 0
M  V30 2032 C 195.274 -1.79588 -0.582557 0
M  V30 2033 O 194.631 -1.16887 -1.40156 0
M  V30 2034 C 194.682 -3.37125 1.30496 0
M  V30 2035 O 194.403 -3.45201 2.69755 0
M  V30 2036 C 195.904 -4.29373 1.10243 0
M  V30 2037 H 193.124 -0.594452 0.311236 0
M  V30 2038 H 195.668 -1.42429 1.46745 0
M  V30 2039 H 193.823 -3.80109 0.748081 0
M  V30 2040 H 194.237 -4.38056 2.88457 0
M  V30 2041 H 195.711 -5.32394 1.45811 0
M  V30 2042 H 196.188 -4.39181 0.0409492 0
M  V30 2043 H 196.794 -3.92169 1.64571 0
M  V30 2044 N 195.109 -0.891671 -1.2995 0
M  V30 2045 C 196.356 -0.513501 -1.95881 0
M  V30 2046 C 196.684 0.938655 -1.70351 0
M  V30 2047 O 195.939 1.67936 -1.00478 0
M  V30 2048 C 196.238 -0.742868 -3.49594 0
M  V30 2049 C 195.904 -2.17114 -3.95186 0
M  V30 2050 C 194.566 -2.56169 -4.07346 0
M  V30 2051 C 196.918 -3.10162 -4.18866 0
M  V30 2052 C 194.246 -3.87469 -4.4055 0
M  V30 2053 C 196.598 -4.41001 -4.53542 0
M  V30 2054 C 195.262 -4.79941 -4.63911 0
M  V30 2055 H 194.532 -0.187903 -0.71678 0
M  V30 2056 H 197.179 -1.1288 -1.54694 0
M  V30 2057 H 195.484 -0.044586 -3.91775 0
M  V30 2058 H 197.181 -0.429767 -3.9869 0
M  V30 2059 H 193.771 -1.85801 -3.86233 0
M  V30 2060 H 197.955 -2.81206 -4.08946 0
M  V30 2061 H 193.211 -4.17371 -4.46779 0
M  V30 2062 H 197.385 -5.13133 -4.70815 0
M  V30 2063 H 195.012 -5.81719 -4.89395 0
M  V30 2064 N 196.587 1.43421 -0.653314 0
M  V30 2065 C 197.535 2.32546 0.0501531 0
M  V30 2066 C 198.529 1.48617 0.812985 0
M  V30 2067 O 199.735 1.64825 0.723375 0
M  V30 2068 H 196.11 0.751185 0.0350032 0
M  V30 2069 H 198.081 2.89602 -0.719261 0
M  V30 2070 C 196.83 3.32925 1.00279 0
M  V30 2071 H 196.153 3.97532 0.425236 0
M  V30 2072 H 197.593 3.9792 1.46409 0
M  V30 2073 C 196.052 2.63532 2.09886 0
M  V30 2074 O 196.582 2.45092 3.18265 0
M  V30 2075 N 194.788 2.22905 1.86445 0
M  V30 2076 H 194.335 2.38103 0.98309 0
M  V30 2077 H 194.293 1.76805 2.59976 0
M  V30 2078 N 198.065 0.39524 1.52563 0
M  V30 2079 C 199.314 -0.186321 2.00838 0
M  V30 2080 C 199.627 -1.47402 1.28577 0
M  V30 2081 O 200.833 -2.13599 1.67593 0
M  V30 2082 C 199.289 -0.382595 3.57861 0
M  V30 2083 C 198.897 0.892202 4.39026 0
M  V30 2084 C 200.641 -0.9202 4.14406 0
M  V30 2085 C 198.548 0.66388 5.87662 0
M  V30 2086 H 197.478 -0.0734041 0.750418 0
M  V30 2087 H 200.129 0.518552 1.76021 0
M  V30 2088 H 198.511 -1.14946 3.7895 0
M  V30 2089 H 199.685 1.66414 4.29701 0
M  V30 2090 H 198 1.35519 3.9373 0
M  V30 2091 H 200.597 -1.10683 5.23119 0
M  V30 2092 H 200.94 -1.89096 3.70875 0
M  V30 2093 H 201.473 -0.212751 3.97231 0
M  V30 2094 H 198.212 1.6058 6.35527 0
M  V30 2095 H 197.732 -0.0690193 5.9976 0
M  V30 2096 H 199.411 0.300699 6.46301 0
M  V30 2097 N 199.544 -1.57102 0.125237 0
M  V30 2098 C 200.492 -2.16905 -0.839927 0
M  V30 2099 C 201.486 -1.11998 -1.27094 0
M  V30 2100 O 202.692 -1.3029 -1.24195 0
M  V30 2101 H 199.067 -0.694252 -0.288995 0
M  V30 2102 H 201.038 -2.96774 -0.311115 0
M  V30 2103 C 199.787 -2.78795 -2.07771 0
M  V30 2104 H 199.11 -3.59221 -1.755 0
M  V30 2105 H 200.55 -3.2417 -2.73295 0
M  V30 2106 C 199.009 -1.76193 -2.87155 0
M  V30 2107 O 199.539 -1.21909 -3.82755 0
M  V30 2108 N 197.745 -1.45991 -2.51267 0
M  V30 2109 H 197.292 -1.90325 -1.73592 0
M  V30 2110 H 197.25 -0.775844 -3.04677 0
M  V30 2111 N 201.022 0.148545 -1.56898 0
M  V30 2112 C 201.97 1.20265 -1.99096 0
M  V30 2113 C 202.964 1.44559 -0.883123 0
M  V30 2114 O 204.17 1.4487 -1.0683 0
M  V30 2115 H 200.545 0.404786 -0.63376 0
M  V30 2116 H 202.516 0.82004 -2.86911 0
M  V30 2117 C 201.265 2.52886 -2.3863 0
M  V30 2118 H 200.588 2.35021 -3.23427 0
M  V30 2119 H 202.028 3.25274 -2.7198 0
M  V30 2120 C 200.487 3.13315 -1.23837 0
M  V30 2121 O 201.017 3.98077 -0.538268 0
M  V30 2122 N 199.223 2.72742 -1.00301 0
M  V30 2123 H 198.77 2.03912 -1.5741 0
M  V30 2124 H 198.728 3.13507 -0.236838 0
M  V30 2125 N 202.5 1.5196 0.417844 0
M  V30 2126 C 203.725 1.69717 1.1921 0
M  V30 2127 C 204.15 0.402148 1.83751 0
M  V30 2128 O 203.508 -0.639593 1.69643 0
M  V30 2129 C 203.556 2.82794 2.2374 0
M  V30 2130 O 202.66 2.47756 3.29683 0
M  V30 2131 H 202.001 0.565263 0.348387 0
M  V30 2132 H 204.531 1.98621 0.490985 0
M  V30 2133 H 204.541 3.07452 2.68212 0
M  V30 2134 H 203.216 3.76756 1.76146 0
M  V30 2135 H 201.793 2.33739 2.90552 0
M  V30 2136 N 203.978 -0.674533 1.42435 0
M  V30 2137 C 205.227 -1.43034 1.42212 0
M  V30 2138 C 205.54 -1.95555 0.0420788 0
M  V30 2139 O 206.746 -2.71374 -0.0827558 0
M  V30 2140 C 205.202 -2.58748 2.50155 0
M  V30 2141 C 204.81 -2.12925 3.94166 0
M  V30 2142 C 206.554 -3.36257 2.59098 0
M  V30 2143 C 204.461 -3.25723 4.93618 0
M  V30 2144 H 203.391 -0.537345 0.528939 0
M  V30 2145 H 206.042 -0.73024 1.68344 0
M  V30 2146 H 204.424 -3.31128 2.17188 0
M  V30 2147 H 205.598 -1.47697 4.36488 0
M  V30 2148 H 203.913 -1.48354 3.89076 0
M  V30 2149 H 206.51 -4.20264 3.30578 0
M  V30 2150 H 206.853 -3.82866 1.63461 0
M  V30 2151 H 207.386 -2.70947 2.9126 0
M  V30 2152 H 204.125 -2.84105 5.90732 0
M  V30 2153 H 203.645 -3.89732 4.55926 0
M  V30 2154 H 205.324 -3.91186 5.15347 0
M  V30 2155 N 205.456 -1.28612 -0.910864 0
M  V30 2156 C 206.867 -1.14406 -1.47541 0
M  V30 2157 C 207.218 0.264901 -1.94403 0
M  V30 2158 O 206.343 1.15942 -1.82719 0
M  V30 2159 C 206.938 -2.07073 -2.68153 0
M  V30 2160 C 205.497 -1.96923 -3.20778 0
M  V30 2161 C 204.644 -1.98646 -1.93481 0
M  V30 2162 H 207.595 -1.41259 -0.723291 0
M  V30 2163 H 207.616 -1.63642 -3.43514 0
M  V30 2164 H 207.128 -3.09611 -2.34015 0
M  V30 2165 H 205.229 -0.97433 -3.59635 0
M  V30 2166 H 205.342 -2.84026 -3.85832 0
M  V30 2167 H 203.706 -1.43093 -2.10705 0
M  V30 2168 H 204.489 -3.02868 -1.61634 0
M  V30 2169 N 206.934 1.1197 -1.10907 0
M  V30 2170 C 208.345 1.65114 -0.871446 0
M  V30 2171 C 208.696 1.86885 0.597353 0
M  V30 2172 O 207.821 1.59896 1.45816 0
M  V30 2173 C 208.416 2.99944 -1.5754 0
M  V30 2174 C 206.975 3.50018 -1.38435 0
M  V30 2175 C 206.122 2.24941 -1.62164 0
M  V30 2176 H 209.073 0.956851 -1.2661 0
M  V30 2177 H 209.094 3.66651 -1.01721 0
M  V30 2178 H 208.606 2.84067 -2.64438 0
M  V30 2179 H 206.707 3.71071 -0.337214 0
M  V30 2180 H 206.82 4.29165 -2.12965 0
M  V30 2181 H 205.184 2.3229 -1.04467 0
M  V30 2182 H 205.967 2.11612 -2.70324 0
M  V30 2183 N 208.412 0.89855 1.29475 0
M  V30 2184 C 209.64 0.539261 1.99749 0
M  V30 2185 C 210.055 -0.875716 1.67262 0
M  V30 2186 O 209.412 -1.57786 0.917049 0
M  V30 2187 C 209.463 0.72061 3.54245 0
M  V30 2188 O 209.184 2.07989 3.8558 0
M  V30 2189 C 210.685 0.366118 4.41786 0
M  V30 2190 H 207.905 0.207047 0.638258 0
M  V30 2191 H 210.449 1.20758 1.65039 0
M  V30 2192 H 208.604 0.0994862 3.87272 0
M  V30 2193 H 209.018 2.10841 4.80257 0
M  V30 2194 H 210.492 0.543848 5.49314 0
M  V30 2195 H 210.969 -0.696763 4.33638 0
M  V30 2196 H 211.575 0.964135 4.14228 0
M  V30 2197 N 209.89 -1.43072 0.660911 0
M  V30 2198 C 211.137 -2.01721 0.177445 0
M  V30 2199 C 211.465 -1.5218 -1.21126 0
M  V30 2200 O 210.72 -0.708659 -1.82419 0
M  V30 2201 C 211.019 -3.57103 0.145563 0
M  V30 2202 C 210.685 -4.26021 1.47705 0
M  V30 2203 C 209.347 -4.44563 1.84165 0
M  V30 2204 C 211.699 -4.64983 2.35458 0
M  V30 2205 C 209.027 -4.99334 3.0803 0
M  V30 2206 C 211.379 -5.21127 3.58622 0
M  V30 2207 C 210.043 -5.37884 3.95268 0
M  V30 2208 H 209.313 -0.73815 0.0649317 0
M  V30 2209 H 211.96 -1.71446 0.853144 0
M  V30 2210 H 210.265 -3.86965 -0.61361 0
M  V30 2211 H 211.962 -4.00248 -0.2455 0
M  V30 2212 H 208.552 -4.11939 1.18339 0
M  V30 2213 H 212.736 -4.50343 2.08579 0
M  V30 2214 H 207.992 -5.10493 3.36462 0
M  V30 2215 H 212.166 -5.50262 4.26831 0
M  V30 2216 H 209.793 -5.80089 4.91325 0
M  V30 2217 N 211.368 -0.403325 -1.52352 0
M  V30 2218 C 212.645 0.232611 -1.94212 0
M  V30 2219 C 213.025 1.63133 -1.33981 0
M  V30 2220 O 212.373 2.22659 -0.513344 0
M  V30 2221 C 212.583 0.244811 -3.4814 0
M  V30 2222 C 213.931 0.46698 -4.22024 0
M  V30 2223 O 214.955 0.324419 -3.5472 0
M  V30 2224 O 213.814 0.74747 -5.41364 0
M  V30 2225 H 210.908 0.148223 -0.813609 0
M  V30 2226 H 213.454 -0.458848 -1.63379 0
M  V30 2227 H 212.226 -0.734378 -3.84347 0
M  V30 2228 H 211.849 0.980611 -3.85318 0
M  V30 2229 N 212.846 1.57033 -0.133567 0
M  V30 2230 C 214.094 1.953 0.519848 0
M  V30 2231 C 214.415 1.01866 1.66278 0
M  V30 2232 O 213.685 0.0776513 1.95746 0
M  V30 2233 H 212.265 0.721091 0.195032 0
M  V30 2234 H 214.927 1.93809 -0.205921 0
M  V30 2235 H 214.023 2.98695 0.904854 0
M  V30 2236 N 214.325 -0.140222 1.56975 0
M  V30 2237 C 215.235 -1.19223 2.02047 0
M  V30 2238 C 216.251 -1.46612 0.937062 0
M  V30 2239 O 217.427 -1.58148 1.24704 0
M  V30 2240 C 214.492 -2.50414 2.39778 0
M  V30 2241 C 213.553 -2.30612 3.621 0
M  V30 2242 C 212.786 -3.55547 3.98023 0
M  V30 2243 O 213.009 -4.62004 3.34528 0
M  V30 2244 O 211.943 -3.47808 4.91237 0
M  V30 2245 H 215.769 -0.839559 2.91865 0
M  V30 2246 H 213.354 -0.349453 1.45256 0
M  V30 2247 H 215.236 -3.27747 2.64877 0
M  V30 2248 H 213.911 -2.85198 1.53114 0
M  V30 2249 H 212.818 -1.51207 3.4218 0
M  V30 2250 H 214.151 -2.00741 4.49404 0
M  V30 2251 N 215.803 -1.52179 -0.40978 0
M  V30 2252 C 216.713 -1.78364 -1.52392 0
M  V30 2253 C 217.729 -0.669183 -1.60617 0
M  V30 2254 O 218.905 -0.954518 -1.77344 0
M  V30 2255 C 215.97 -1.92822 -2.88133 0
M  V30 2256 C 215.031 -3.16725 -2.898 0
M  V30 2257 C 214.264 -3.30483 -4.19067 0
M  V30 2258 O 214.487 -2.49522 -5.12928 0
M  V30 2259 O 213.421 -4.2363 -4.27576 0
M  V30 2260 H 217.247 -2.72931 -1.33201 0
M  V30 2261 H 214.832 -1.37016 -0.59557 0
M  V30 2262 H 216.714 -2.04157 -3.68643 0
M  V30 2263 H 215.389 -1.01444 -3.07393 0
M  V30 2264 H 214.296 -3.10848 -2.08146 0
M  V30 2265 H 215.629 -4.07881 -2.75489 0
M  V30 2266 N 217.281 0.66697 -1.42791 0
M  V30 2267 C 218.191 1.80962 -1.49299 0
M  V30 2268 C 219.207 1.69775 -0.381108 0
M  V30 2269 O 220.383 1.91188 -0.633188 0
M  V30 2270 C 217.448 3.17156 -1.40045 0
M  V30 2271 C 216.509 3.40242 -2.6179 0
M  V30 2272 C 215.742 4.69939 -2.52969 0
M  V30 2273 O 215.965 5.48372 -1.56985 0
M  V30 2274 O 214.899 4.94441 -3.43237 0
M  V30 2275 H 218.725 1.78427 -2.45759 0
M  V30 2276 H 216.31 0.823713 -1.24641 0
M  V30 2277 H 218.192 3.98413 -1.37276 0
M  V30 2278 H 216.867 3.20312 -0.467138 0
M  V30 2279 H 215.774 2.58802 -2.70134 0
M  V30 2280 H 217.107 3.41923 -3.54047 0
M  V30 2281 N 218.759 1.29093 0.90403 0
M  V30 2282 C 220.17 1.15186 1.46932 0
M  V30 2283 C 220.521 -0.254587 1.94541 0
M  V30 2284 O 219.646 -1.14972 1.83332 0
M  V30 2285 C 220.241 2.08492 2.67051 0
M  V30 2286 C 218.8 1.98621 3.19729 0
M  V30 2287 C 217.947 1.9967 1.92425 0
M  V30 2288 H 220.898 1.41641 0.715789 0
M  V30 2289 H 220.919 1.65461 3.42641 0
M  V30 2290 H 220.431 3.10847 2.3237 0
M  V30 2291 H 218.532 0.993389 3.59114 0
M  V30 2292 H 218.645 2.86068 3.8432 0
M  V30 2293 H 217.009 1.44208 2.09943 0
M  V30 2294 H 217.792 3.03721 1.60026 0
M  V30 2295 N 220.237 -1.11381 1.11499 0
M  V30 2296 C 221.462 -1.87475 0.887019 0
M  V30 2297 C 221.887 -1.79639 -0.557796 0
M  V30 2298 O 221.245 -1.15924 -1.39396 0
M  V30 2299 C 221.293 -3.34213 1.35403 0
M  V30 2300 O 220.397 -4.0903 0.526146 0
M  V30 2301 H 219.738 -0.582099 0.319463 0
M  V30 2302 H 222.268 -1.40785 1.48461 0
M  V30 2303 H 222.278 -3.8506 1.34881 0
M  V30 2304 H 220.953 -3.39232 2.40612 0
M  V30 2305 H 219.53 -3.68082 0.597522 0
M  V30 2306 N 221.715 -0.905404 -1.28997 0
M  V30 2307 C 222.647 -0.344748 -2.26592 0
M  V30 2308 C 223.66 0.512135 -1.54535 0
M  V30 2309 O 224.849 0.328368 -1.75454 0
M  V30 2310 C 221.949 0.526587 -3.34784 0
M  V30 2311 C 221.122 -0.305871 -4.36329 0
M  V30 2312 C 220.181 0.499209 -5.23827 0
M  V30 2313 O 219.207 -0.0853004 -5.69136 0
M  V30 2314 N 220.409 1.80408 -5.51755 0
M  V30 2315 H 223.174 -1.18359 -2.75338 0
M  V30 2316 H 220.735 -0.770481 -1.42391 0
M  V30 2317 H 222.727 1.07171 -3.90252 0
M  V30 2318 H 221.297 1.26613 -2.85811 0
M  V30 2319 H 220.517 -1.0324 -3.80441 0
M  V30 2320 H 221.805 -0.875773 -5.01206 0
M  V30 2321 H 221.203 2.3016 -5.16762 0
M  V30 2322 H 219.76 2.29621 -6.10014 0
M  V30 2323 N 223.193 1.4272 -0.668489 0
M  V30 2324 C 224.441 2.01226 -0.187769 0
M  V30 2325 C 224.762 1.53092 1.2078 0
M  V30 2326 O 224.032 0.74993 1.80977 0
M  V30 2327 H 222.612 0.744041 -0.0664272 0
M  V30 2328 H 225.274 1.74723 -0.863583 0
M  V30 2329 H 224.37 3.11556 -0.184166 0
M  V30 2330 N 224.671 0.411399 1.52136 0
M  V30 2331 C 225.603 -0.448386 2.24771 0
M  V30 2332 C 226.616 -1.00828 1.27818 0
M  V30 2333 O 227.805 -0.906841 1.53749 0
M  V30 2334 C 224.905 -1.63636 2.96777 0
M  V30 2335 C 224.078 -1.19995 4.20618 0
M  V30 2336 C 223.137 -2.25509 4.75428 0
M  V30 2337 O 222.163 -1.86007 5.3795 0
M  V30 2338 N 223.365 -3.577 4.57199 0
M  V30 2339 H 226.13 0.174025 2.99194 0
M  V30 2340 H 223.691 0.238897 1.60128 0
M  V30 2341 H 225.683 -2.33793 3.30338 0
M  V30 2342 H 224.253 -2.16465 2.25526 0
M  V30 2343 H 223.473 -0.326421 3.92846 0
M  V30 2344 H 224.761 -0.885365 5.01038 0
M  V30 2345 H 224.159 -3.92543 4.07341 0
M  V30 2346 H 222.716 -4.23827 4.95191 0
M  V30 2347 N 226.149 -1.5696 0.141893 0
M  V30 2348 C 227.096 -2.16501 -0.799737 0
M  V30 2349 C 228.066 -1.09643 -1.24771 0
M  V30 2350 O 229.251 -1.3766 -1.32115 0
M  V30 2351 C 226.391 -2.78679 -2.03549 0
M  V30 2352 C 225.504 -3.99914 -1.6338 0
M  V30 2353 C 224.639 -4.50106 -2.82096 0
M  V30 2354 C 223.678 -5.63819 -2.38275 0
M  V30 2355 N 222.815 -6.08651 -3.49983 0
M  V30 2356 H 227.655 -2.96632 -0.285179 0
M  V30 2357 H 225.192 -1.46533 -0.129053 0
M  V30 2358 H 227.15 -3.1287 -2.75986 0
M  V30 2359 H 225.78 -2.012 -2.52425 0
M  V30 2360 H 224.832 -3.71735 -0.807279 0
M  V30 2361 H 226.144 -4.82311 -1.27192 0
M  V30 2362 H 225.298 -4.86325 -3.62729 0
M  V30 2363 H 224.037 -3.66706 -3.21525 0
M  V30 2364 H 223.042 -5.2718 -1.56081 0
M  V30 2365 H 224.267 -6.49 -1.99938 0
M  V30 2366 H 222.213 -5.28188 -3.89042 0
M  V30 2367 H 222.13 -6.85961 -3.17794 0
M  V30 2368 H 223.398 -6.49515 -4.30988 0
M  V30 2369 N 227.627 0.131896 -1.57047 0
M  V30 2370 C 228.873 0.843179 -1.84441 0
M  V30 2371 C 229.206 1.80129 -0.725749 0
M  V30 2372 O 228.481 1.92624 0.269469 0
M  V30 2373 C 228.764 1.60442 -3.22382 0
M  V30 2374 C 228.617 0.666782 -4.4483 0
M  V30 2375 C 229.936 2.56354 -3.5773 0
M  V30 2376 H 227.055 0.305081 -0.670891 0
M  V30 2377 H 229.697 0.107839 -1.89694 0
M  V30 2378 H 227.847 2.23128 -3.18035 0
M  V30 2379 H 229.519 0.0497646 -4.61273 0
M  V30 2380 H 227.762 -0.022609 -4.33794 0
M  V30 2381 H 228.433 1.23579 -5.37989 0
M  V30 2382 H 230.909 2.0378 -3.62785 0
M  V30 2383 H 229.785 3.06657 -4.5525 0
M  V30 2384 H 230.046 3.38419 -2.84473 0
M  V30 2385 N 229.106 1.52395 0.401703 0
M  V30 2386 C 230.016 1.7917 1.51444 0
M  V30 2387 C 231.032 0.677691 1.6026 0
M  V30 2388 O 232.208 0.963909 1.76835 0
M  V30 2389 C 229.273 1.94347 2.87107 0
M  V30 2390 C 228.334 3.18257 2.88116 0
M  V30 2391 C 227.567 3.32701 4.17308 0
M  V30 2392 O 227.79 2.52238 5.11598 0
M  V30 2393 O 226.724 4.25891 4.25324 0
M  V30 2394 H 230.55 2.73633 1.31752 0
M  V30 2395 H 228.135 1.3733 0.588296 0
M  V30 2396 H 230.017 2.06109 3.67555 0
M  V30 2397 H 228.692 1.03073 3.06851 0
M  V30 2398 H 227.599 3.11947 2.06494 0
M  V30 2399 H 228.932 4.09336 2.73322 0
M  V30 2400 N 230.584 -0.659388 1.43143 0
M  V30 2401 C 231.494 -1.80167 1.50256 0
M  V30 2402 C 232.51 -1.69571 0.390106 0
M  V30 2403 O 233.686 -1.90849 0.643319 0
M  V30 2404 C 230.751 -3.16409 1.41725 0
M  V30 2405 C 229.812 -3.38848 2.63591 0
M  V30 2406 C 229.045 -4.68591 2.55458 0
M  V30 2407 O 229.268 -5.47532 1.59891 0
M  V30 2408 O 228.202 -4.92614 3.45854 0
M  V30 2409 H 232.028 -1.77121 2.46702 0
M  V30 2410 H 229.613 -0.817092 1.25076 0
M  V30 2411 H 231.495 -3.9768 1.39387 0
M  V30 2412 H 230.17 -3.20059 0.484118 0
M  V30 2413 H 229.077 -2.57366 2.71502 0
M  V30 2414 H 230.41 -3.4004 3.55856 0
M  V30 2415 N 232.062 -1.29571 -0.897171 0
M  V30 2416 C 232.994 -1.10724 -2.00681 0
M  V30 2417 C 234.007 -0.0540026 -1.6271 0
M  V30 2418 O 235.196 -0.298783 -1.75982 0
M  V30 2419 C 232.296 -0.663912 -3.32333 0
M  V30 2420 C 231.469 -1.79622 -3.98816 0
M  V30 2421 C 230.528 -1.34349 -5.0876 0
M  V30 2422 O 229.554 -2.04864 -5.31055 0
M  V30 2423 N 230.756 -0.215764 -5.80099 0
M  V30 2424 H 233.521 -2.06291 -2.17403 0
M  V30 2425 H 231.082 -1.21544 -1.06951 0
M  V30 2426 H 233.074 -0.344295 -4.03233 0
M  V30 2427 H 231.644 0.199375 -3.11964 0
M  V30 2428 H 230.864 -2.28459 -3.21248 0
M  V30 2429 H 232.152 -2.55535 -4.39976 0
M  V30 2430 H 231.55 0.372091 -5.64475 0
M  V30 2431 H 230.107 0.0444707 -6.51785 0
M  V30 2432 N 233.54 1.10788 -1.12088 0
M  V30 2433 C 234.45 2.20599 -0.798338 0
M  V30 2434 C 235.466 1.72712 0.21135 0
M  V30 2435 O 236.642 2.01348 0.0458477 0
M  V30 2436 C 233.707 3.45771 -0.253674 0
M  V30 2437 C 232.768 4.08411 -1.32283 0
M  V30 2438 C 232.001 5.27608 -0.80406 0
M  V30 2439 O 232.224 5.69241 0.363478 0
M  V30 2440 O 231.158 5.8101 -1.57198 0
M  V30 2441 H 234.984 2.50614 -1.7154 0
M  V30 2442 H 232.569 1.19454 -0.897275 0
M  V30 2443 H 234.451 4.21376 0.0453691 0
M  V30 2444 H 233.126 3.1739 0.636005 0
M  V30 2445 H 232.033 3.34507 -1.67499 0
M  V30 2446 H 233.366 4.40986 -2.18614 0
M  V30 2447 N 235.018 0.912232 1.28515 0
M  V30 2448 C 236.429 0.591352 1.77087 0
M  V30 2449 C 236.78 -0.8933 1.74684 0
M  V30 2450 O 235.905 -1.69876 1.34056 0
M  V30 2451 C 236.5 1.06668 3.2157 0
M  V30 2452 C 235.059 0.79675 3.67871 0
M  V30 2453 C 234.206 1.23427 2.48316 0
M  V30 2454 H 237.157 1.09365 1.15 0
M  V30 2455 H 237.178 0.407455 3.78312 0
M  V30 2456 H 236.69 2.14726 3.23287 0
M  V30 2457 H 234.791 -0.270679 3.71616 0
M  V30 2458 H 234.904 1.40343 4.58084 0
M  V30 2459 H 233.268 0.653036 2.46186 0
M  V30 2460 H 234.051 2.32316 2.52753 0
M  V30 2461 N 236.496 -1.42363 0.676048 0
M  V30 2462 C 237.406 -2.346 -0.00153389 0
M  V30 2463 C 238.422 -1.5516 -0.787485 0
M  V30 2464 O 239.598 -1.87723 -0.729521 0
M  V30 2465 C 236.663 -3.33705 -0.940298 0
M  V30 2466 C 235.724 -4.29042 -0.148739 0
M  V30 2467 C 234.957 -5.23413 -1.04279 0
M  V30 2468 O 235.18 -5.22749 -2.28232 0
M  V30 2469 O 234.114 -5.99795 -0.502925 0
M  V30 2470 H 237.94 -2.94082 0.758268 0
M  V30 2471 H 235.525 -1.42888 0.436289 0
M  V30 2472 H 237.407 -3.94586 -1.47917 0
M  V30 2473 H 236.082 -2.76695 -1.67993 0
M  V30 2474 H 234.989 -3.71571 0.43427 0
M  V30 2475 H 236.322 -4.89097 0.551805 0
M  V30 2476 N 237.974 -0.419461 -1.51915 0
M  V30 2477 C 238.904 0.391813 -2.30189 0
M  V30 2478 C 239.885 1.03699 -1.34836 0
M  V30 2479 O 241.07 1.04403 -1.63748 0
M  V30 2480 C 238.2 1.50312 -3.13087 0
M  V30 2481 C 237.154 0.9824 -4.16573 0
M  V30 2482 C 236.48 2.18809 -4.8788 0
M  V30 2483 C 237.78 0.0292356 -5.22292 0
M  V30 2484 H 239.474 -0.26135 -2.98257 0
M  V30 2485 H 237.02 -0.127134 -1.43438 0
M  V30 2486 H 238.973 2.07773 -3.66617 0
M  V30 2487 H 237.697 2.18431 -2.42807 0
M  V30 2488 H 236.356 0.430119 -3.64068 0
M  V30 2489 H 236.004 2.85507 -4.14119 0
M  V30 2490 H 235.704 1.84615 -5.57845 0
M  V30 2491 H 237.228 2.76858 -5.44226 0
M  V30 2492 H 238.642 0.512976 -5.71 0
M  V30 2493 H 237.039 -0.2244 -5.9968 0
M  V30 2494 H 238.109 -0.912931 -4.76228 0
M  V30 2495 N 239.452 1.56882 -0.150215 0
M  V30 2496 C 240.68 2.00593 0.506948 0
M  V30 2497 C 241.095 1.03033 1.58208 0
M  V30 2498 O 240.452 0.0278396 1.82479 0
M  V30 2499 C 240.503 3.44209 1.10465 0
M  V30 2500 O 240.224 4.3804 0.0724636 0
M  V30 2501 C 241.725 4.03214 1.84211 0
M  V30 2502 H 238.945 0.65795 0.13169 0
M  V30 2503 H 241.489 2.03018 -0.245743 0
M  V30 2504 H 239.644 3.42625 1.80795 0
M  V30 2505 H 240.058 5.22007 0.510793 0
M  V30 2506 H 241.532 5.0569 2.21318 0
M  V30 2507 H 242.009 3.44107 2.72923 0
M  V30 2508 H 242.615 4.08437 1.18572 0
M  V30 2509 N 240.93 -0.123565 1.57115 0
M  V30 2510 C 242.155 -0.850398 1.89164 0
M  V30 2511 C 242.58 -1.7286 0.741688 0
M  V30 2512 O 241.938 -1.78665 -0.307958 0
M  V30 2513 C 241.986 -1.66353 3.19936 0
M  V30 2514 O 241.09 -2.77004 3.0552 0
M  V30 2515 H 240.431 -0.235454 0.620852 0
M  V30 2516 H 242.961 -0.107335 2.04318 0
M  V30 2517 H 242.971 -2.05372 3.52543 0
M  V30 2518 H 241.646 -1.01881 4.03228 0
M  V30 2519 H 240.223 -2.41221 2.84371 0
M  V30 2520 N 242.408 -1.52605 -0.393616 0
M  V30 2521 C 243.636 -1.71294 -1.16043 0
M  V30 2522 C 244.051 -0.429259 -1.83855 0
M  V30 2523 O 243.408 0.595921 -1.72496 0
M  V30 2524 C 243.459 -2.8593 -2.21193 0
M  V30 2525 O 243.18 -4.09329 -1.56146 0
M  V30 2526 C 244.681 -3.16259 -3.10636 0
M  V30 2527 H 241.901 -0.573641 -0.348104 0
M  V30 2528 H 244.445 -1.99234 -0.461092 0
M  V30 2529 H 242.6 -2.60465 -2.86769 0
M  V30 2530 H 243.014 -4.73323 -2.25978 0
M  V30 2531 H 244.488 -3.99946 -3.80456 0
M  V30 2532 H 244.965 -2.3045 -3.73884 0
M  V30 2533 H 245.571 -3.43547 -2.50711 0
M  V30 2534 N 243.887 0.651787 -1.4349 0
M  V30 2535 C 245.298 1.233 -1.40193 0
M  V30 2536 C 245.649 1.9591 -0.106727 0
M  V30 2537 O 244.774 2.01316 0.793773 0
M  V30 2538 C 245.369 2.24257 -2.53957 0
M  V30 2539 C 243.928 2.77852 -2.5392 0
M  V30 2540 C 243.075 1.52517 -2.3159 0
M  V30 2541 H 246.026 0.443717 -1.52371 0
M  V30 2542 H 246.047 3.0646 -2.25528 0
M  V30 2543 H 245.559 1.71382 -3.4821 0
M  V30 2544 H 243.66 3.34786 -1.63551 0
M  V30 2545 H 243.773 3.25299 -3.51735 0
M  V30 2546 H 242.137 1.79915 -1.80285 0
M  V30 2547 H 242.92 1.01574 -3.27929 0
M  V30 2548 N 245.365 1.30045 0.890287 0
M  V30 2549 C 246.313 1.15873 2.01683 0
M  V30 2550 C 247.307 0.0719403 1.69247 0
M  V30 2551 O 248.513 0.232414 1.78493 0
M  V30 2552 H 244.888 0.358203 0.661207 0
M  V30 2553 H 246.859 2.11229 2.10772 0
M  V30 2554 C 245.608 0.861842 3.36849 0
M  V30 2555 H 244.931 1.69016 3.62317 0
M  V30 2556 H 246.371 0.802762 4.16331 0
M  V30 2557 C 244.83 -0.435132 3.34078 0
M  V30 2558 O 245.36 -1.4583 3.74295 0
M  V30 2559 N 243.566 -0.444377 2.87182 0
M  V30 2560 H 243.113 0.388723 2.5465 0
M  V30 2561 H 243.071 -1.31213 2.85711 0
M  V30 2562 N 246.843 -1.10192 1.12674 0
M  V30 2563 C 248.09 -1.82205 0.883606 0
M  V30 2564 C 248.418 -1.8532 -0.590492 0
M  V30 2565 O 247.673 -1.31137 -1.45264 0
M  V30 2566 C 247.972 -3.28552 1.4067 0
M  V30 2567 C 247.638 -3.45582 2.89627 0
M  V30 2568 C 246.3 -3.49937 3.30299 0
M  V30 2569 C 248.652 -3.50768 3.85501 0
M  V30 2570 C 245.98 -3.57049 4.65546 0
M  V30 2571 C 248.332 -3.59414 5.20581 0
M  V30 2572 C 246.996 -3.62034 5.60792 0
M  V30 2573 H 246.266 -0.666735 0.323334 0
M  V30 2574 H 248.913 -1.29868 1.40736 0
M  V30 2575 H 247.218 -3.83473 0.80347 0
M  V30 2576 H 248.915 -3.82788 1.19475 0
M  V30 2577 H 245.505 -3.42871 2.57172 0
M  V30 2578 H 249.689 -3.46651 3.55171 0
M  V30 2579 H 244.945 -3.57361 4.96088 0
M  V30 2580 H 249.119 -3.62371 5.94693 0
M  V30 2581 H 246.746 -3.67298 6.6558 0
M  V30 2582 N 248.321 -0.919034 -1.28029 0
M  V30 2583 C 249.567 -0.555757 -1.95036 0
M  V30 2584 C 249.9 0.899198 -1.72128 0
M  V30 2585 O 249.175 1.64023 -1.04531 0
M  V30 2586 C 249.458 -0.872024 -3.49382 0
M  V30 2587 C 249.311 -2.3801 -3.81669 0
M  V30 2588 C 250.63 -0.37185 -4.38526 0
M  V30 2589 H 247.749 -0.203386 -0.708381 0
M  V30 2590 H 250.391 -1.14924 -1.51303 0
M  V30 2591 H 248.541 -0.366946 -3.86763 0
M  V30 2592 H 250.213 -2.9562 -3.54128 0
M  V30 2593 H 248.456 -2.83289 -3.28526 0
M  V30 2594 H 249.127 -2.55192 -4.8947 0
M  V30 2595 H 251.603 -0.804602 -4.08247 0
M  V30 2596 H 250.479 -0.622173 -5.45362 0
M  V30 2597 H 250.74 0.727934 -4.36066 0
M  V30 2598 N 249.799 1.42003 -0.683588 0
M  V30 2599 C 251.045 2.01712 -0.209825 0
M  V30 2600 C 251.378 1.53968 1.18353 0
M  V30 2601 O 250.653 0.745661 1.79639 0
M  V30 2602 C 250.936 3.59202 -0.254197 0
M  V30 2603 C 250.789 4.17102 -1.68363 0
M  V30 2604 C 252.108 4.38344 0.392709 0
M  V30 2605 H 249.227 0.732891 -0.0777189 0
M  V30 2606 H 251.869 1.68909 -0.87004 0
M  V30 2607 H 250.019 3.87278 0.307954 0
M  V30 2608 H 251.691 3.99946 -2.29871 0
M  V30 2609 H 249.934 3.72597 -2.22157 0
M  V30 2610 H 250.605 5.26249 -1.6663 0
M  V30 2611 H 253.081 4.16011 -0.0859162 0
M  V30 2612 H 251.957 5.47901 0.331063 0
M  V30 2613 H 252.218 4.16887 1.47164 0
M  V30 2614 N 251.277 0.427512 1.51691 0
M  V30 2615 C 252.187 -0.39527 2.31246 0
M  V30 2616 C 253.203 -1.03674 1.39742 0
M  V30 2617 O 254.379 -1.03425 1.72816 0
M  V30 2618 C 251.444 -1.48706 3.13189 0
M  V30 2619 C 250.505 -0.866743 4.20459 0
M  V30 2620 C 249.738 -1.90651 4.98486 0
M  V30 2621 O 249.961 -3.12733 4.77026 0
M  V30 2622 O 248.895 -1.5025 5.82845 0
M  V30 2623 H 252.721 0.253918 3.02637 0
M  V30 2624 H 250.306 0.190274 1.48183 0
M  V30 2625 H 252.188 -2.12047 3.64162 0
M  V30 2626 H 250.863 -2.12051 2.44573 0
M  V30 2627 H 249.77 -0.195544 3.73589 0
M  V30 2628 H 251.103 -0.276934 4.9142 0
M  V30 2629 N 252.755 -1.56801 0.158532 0
M  V30 2630 C 254.001 -1.96781 -0.490405 0
M  V30 2631 C 254.334 -1.04397 -1.63753 0
M  V30 2632 O 253.609 -0.0885805 -1.94298 0
M  V30 2633 C 253.892 -3.4635 -0.985594 0
M  V30 2634 C 253.745 -4.49512 0.160824 0
M  V30 2635 C 255.064 -3.98697 -1.86355 0
M  V30 2636 H 252.183 -0.715482 -0.176788 0
M  V30 2637 H 254.825 -1.88451 0.242088 0
M  V30 2638 H 252.975 -3.53579 -1.60978 0
M  V30 2639 H 254.647 -4.54353 0.797537 0
M  V30 2640 H 252.89 -4.26013 0.818256 0
M  V30 2641 H 253.561 -5.51531 -0.227569 0
M  V30 2642 H 256.037 -3.94019 -1.33746 0
M  V30 2643 H 254.913 -5.03792 -2.17909 0
M  V30 2644 H 255.174 -3.41744 -2.8047 0
M  V30 2645 N 254.233 0.115231 -1.57178 0
M  V30 2646 C 255.482 0.820945 -1.84237 0
M  V30 2647 C 255.795 1.80866 -0.744761 0
M  V30 2648 O 257.001 2.56083 -0.901871 0
M  V30 2649 C 255.457 1.51072 -3.26658 0
M  V30 2650 C 255.065 0.563795 -4.44438 0
M  V30 2651 C 256.809 2.20134 -3.62962 0
M  V30 2652 C 254.716 1.25701 -5.77887 0
M  V30 2653 H 253.646 0.310328 -0.687177 0
M  V30 2654 H 256.297 0.0737134 -1.83352 0
M  V30 2655 H 254.679 2.30471 -3.22024 0
M  V30 2656 H 255.853 -0.197247 -4.60378 0
M  V30 2657 H 254.168 -0.0200638 -4.16395 0
M  V30 2658 H 256.765 2.72696 -4.59936 0
M  V30 2659 H 257.108 2.98107 -2.90582 0
M  V30 2660 H 257.641 1.47619 -3.69396 0
M  V30 2661 H 254.38 0.518493 -6.53446 0
M  V30 2662 H 253.9 1.98997 -5.65827 0
M  V30 2663 H 255.579 1.78915 -6.2177 0
M  V30 2664 N 255.711 1.52812 0.385517 0
M  V30 2665 C 256.658 1.77838 1.47113 0
M  V30 2666 C 257.628 0.621757 1.54024 0
M  V30 2667 O 258.813 0.861846 1.70226 0
M  V30 2668 C 255.953 1.95618 2.84302 0
M  V30 2669 C 255.066 3.23316 2.86515 0
M  V30 2670 C 254.201 3.31394 4.15152 0
M  V30 2671 C 253.24 4.53201 4.1143 0
M  V30 2672 N 252.377 4.58542 5.3168 0
M  V30 2673 H 257.217 2.70482 1.25073 0
M  V30 2674 H 254.754 1.34006 0.606692 0
M  V30 2675 H 256.712 2.03912 3.63972 0
M  V30 2676 H 255.342 1.06331 3.04784 0
M  V30 2677 H 254.394 3.24076 1.99195 0
M  V30 2678 H 255.706 4.13045 2.79634 0
M  V30 2679 H 254.86 3.3889 5.03228 0
M  V30 2680 H 253.599 2.39645 4.24761 0
M  V30 2681 H 252.604 4.45827 3.21742 0
M  V30 2682 H 253.829 5.46271 4.03442 0
M  V30 2683 H 251.775 3.69686 5.41912 0
M  V30 2684 H 251.692 5.42148 5.26889 0
M  V30 2685 H 252.96 4.70296 6.21644 0
M  V30 2686 N 257.189 -0.644168 1.43834 0
M  V30 2687 C 258.137 -1.77793 1.49974 0
M  V30 2688 C 259.131 -1.65253 0.372536 0
M  V30 2689 O 260.337 -1.7149 0.546924 0
M  V30 2690 H 256.712 -0.58675 0.47035 0
M  V30 2691 H 258.683 -1.69736 2.45423 0
M  V30 2692 C 257.432 -3.16087 1.4486 0
M  V30 2693 H 256.755 -3.26378 2.30905 0
M  V30 2694 H 258.195 -3.95349 1.53217 0
M  V30 2695 C 256.654 -3.36484 0.167463 0
M  V30 2696 O 257.184 -3.94298 -0.767609 0
M  V30 2697 N 255.39 -2.90504 0.0747556 0
M  V30 2698 H 254.937 -2.4364 0.836507 0
M  V30 2699 H 254.895 -3.04527 -0.781714 0
M  V30 2700 N 258.668 -1.30515 -0.883378 0
M  V30 2701 C 259.945 -1.10086 -1.6168 0
M  V30 2702 C 260.325 0.349269 -2.08191 0
M  V30 2703 O 259.673 1.34105 -1.85008 0
M  V30 2704 C 259.883 -2.10315 -2.78511 0
M  V30 2705 C 261.231 -2.42119 -3.48803 0
M  V30 2706 O 262.255 -2.08638 -2.88702 0
M  V30 2707 O 261.114 -2.99396 -4.57192 0
M  V30 2708 H 258.208 -0.422907 -0.710689 0
M  V30 2709 H 260.754 -1.41947 -0.930015 0
M  V30 2710 H 259.526 -3.07917 -2.41459 0
M  V30 2711 H 259.149 -1.79282 -3.54886 0
M  V30 2712 N 260.146 1.09593 -1.13257 0
M  V30 2713 C 261.423 1.78293 -0.804432 0
M  V30 2714 C 261.803 1.99004 0.70431 0
M  V30 2715 O 261.151 1.59007 1.641 0
M  V30 2716 C 261.361 3.10707 -1.5894 0
M  V30 2717 C 262.709 3.85443 -1.78099 0
M  V30 2718 O 263.733 3.20454 -1.55525 0
M  V30 2719 O 262.592 5.02108 -2.15753 0
M  V30 2720 H 259.686 0.773156 -0.293528 0
M  V30 2721 H 262.232 1.16164 -1.23709 0
M  V30 2722 H 261.004 2.91106 -2.61482 0
M  V30 2723 H 260.627 3.80558 -1.15157 0
M  V30 2724 N 261.624 0.925811 1.2754 0
M  V30 2725 C 262.872 0.564138 1.94067 0
M  V30 2726 C 263.193 -0.897188 1.73134 0
M  V30 2727 O 262.463 -1.63573 1.07799 0
M  V30 2728 H 261.043 0.205645 0.718136 0
M  V30 2729 H 263.705 1.1778 1.55287 0
M  V30 2730 H 262.801 0.76881 3.02483 0
M  V30 2731 N 263.102 -1.41638 0.69111 0
M  V30 2732 C 264.049 -2.30789 0.0229705 0
M  V30 2733 C 265.019 -1.46863 -0.775911 0
M  V30 2734 O 266.204 -1.75661 -0.74485 0
M  V30 2735 C 263.344 -3.32868 -0.910666 0
M  V30 2736 C 262.457 -4.31875 -0.103874 0
M  V30 2737 C 261.592 -5.21024 -1.03475 0
M  V30 2738 C 260.631 -6.11702 -0.220598 0
M  V30 2739 N 259.768 -6.93349 -1.10504 0
M  V30 2740 H 264.608 -2.87366 0.788978 0
M  V30 2741 H 262.145 -1.41535 0.400794 0
M  V30 2742 H 264.103 -3.90596 -1.46597 0
M  V30 2743 H 262.733 -2.77851 -1.64312 0
M  V30 2744 H 261.785 -3.76131 0.568285 0
M  V30 2745 H 263.097 -4.96003 0.527504 0
M  V30 2746 H 262.251 -5.83565 -1.65943 0
M  V30 2747 H 260.99 -4.57112 -1.69999 0
M  V30 2748 H 259.995 -5.48215 0.417187 0
M  V30 2749 H 261.22 -6.77668 0.440784 0
M  V30 2750 H 259.166 -6.3205 -1.75638 0
M  V30 2751 H 259.083 -7.54146 -0.529125 0
M  V30 2752 H 260.351 -7.60362 -1.71667 0
M  V30 2753 N 264.58 -0.43555 -1.51462 0
M  V30 2754 C 265.527 0.376797 -2.27703 0
M  V30 2755 C 266.497 1.01838 -1.31219 0
M  V30 2756 O 267.682 1.03762 -1.60119 0
M  V30 2757 C 264.822 1.47301 -3.12084 0
M  V30 2758 C 263.935 0.849744 -4.2356 0
M  V30 2759 C 263.07 1.92086 -4.95254 0
M  V30 2760 C 262.109 1.27593 -5.98654 0
M  V30 2761 N 261.246 2.28833 -6.63762 0
M  V30 2762 H 266.086 -0.279734 -2.96684 0
M  V30 2763 H 263.623 -0.149795 -1.46335 0
M  V30 2764 H 265.581 2.11984 -3.59331 0
M  V30 2765 H 264.211 2.0992 -2.45221 0
M  V30 2766 H 263.263 0.0912529 -3.80291 0
M  V30 2767 H 264.575 0.338878 -4.97648 0
M  V30 2768 H 263.729 2.64435 -5.46039 0
M  V30 2769 H 262.468 2.46545 -4.20793 0
M  V30 2770 H 261.473 0.537893 -5.47162 0
M  V30 2771 H 262.698 0.738693 -6.7507 0
M  V30 2772 H 260.644 2.82375 -5.92115 0
M  V30 2773 H 260.561 1.82632 -7.33608 0
M  V30 2774 H 261.829 3.00671 -7.19178 0
M  V30 2775 N 266.058 1.56714 -0.166846 0
M  V30 2776 C 267.021 2.16539 0.751232 0
M  V30 2777 C 268.021 1.11228 1.16125 0
M  V30 2778 O 269.211 1.36765 1.07894 0
M  V30 2779 C 266.343 2.74462 2.02196 0
M  V30 2780 H 267.536 2.99013 0.230499 0
M  V30 2781 H 265.089 1.56081 0.0826982 0
M  V30 2782 H 265.824 1.95709 2.58589 0
M  V30 2783 H 265.609 3.51527 1.73698 0
M  V30 2784 H 267.099 3.20489 2.67725 0
M  V30 2785 N 267.536 -0.106894 1.57237 0
M  V30 2786 C 268.466 -1.13148 2.04254 0
M  V30 2787 C 269.447 -1.42476 0.929224 0
M  V30 2788 O 270.632 -1.52709 1.19973 0
M  V30 2789 C 267.762 -2.4545 2.45706 0
M  V30 2790 C 266.716 -2.30558 3.60592 0
M  V30 2791 C 266.042 -3.67931 3.87983 0
M  V30 2792 C 267.342 -1.75597 4.91897 0
M  V30 2793 H 269.036 -0.740374 2.90101 0
M  V30 2794 H 266.582 -0.354696 1.39563 0
M  V30 2795 H 268.535 -3.17389 2.77205 0
M  V30 2796 H 267.259 -2.86475 1.56843 0
M  V30 2797 H 265.918 -1.61067 3.29322 0
M  V30 2798 H 265.566 -4.06462 2.96306 0
M  V30 2799 H 265.266 -3.58817 4.65322 0
M  V30 2800 H 266.79 -4.41356 4.21945 0
M  V30 2801 H 268.204 -2.37364 5.21854 0
M  V30 2802 H 266.601 -1.77272 5.73319 0
M  V30 2803 H 267.671 -0.714451 4.79608 0
M  V30 2804 N 269.014 -1.53014 -0.377408 0
M  V30 2805 C 270.26 -1.68872 -1.12294 0
M  V30 2806 C 270.593 -0.433224 -1.89306 0
M  V30 2807 O 269.868 0.569258 -1.85983 0
M  V30 2808 C 270.151 -2.93115 -2.09179 0
M  V30 2809 C 270.004 -4.28794 -1.35853 0
M  V30 2810 C 271.323 -3.12928 -3.09458 0
M  V30 2811 H 268.442 -0.614518 -0.406862 0
M  V30 2812 H 271.084 -1.85633 -0.40503 0
M  V30 2813 H 269.234 -2.78956 -2.70399 0
M  V30 2814 H 270.906 -4.54742 -0.775082 0
M  V30 2815 H 269.149 -4.28744 -0.660364 0
M  V30 2816 H 269.82 -5.11837 -2.06706 0
M  V30 2817 H 272.296 -3.26194 -2.58334 0
M  V30 2818 H 271.172 -4.01316 -3.74482 0
M  V30 2819 H 271.433 -2.27669 -3.78971 0
M  V30 2820 N 270.492 0.636531 -1.44174 0
M  V30 2821 C 271.422 1.76003 -1.53444 0
M  V30 2822 C 272.403 1.65619 -0.387841 0
M  V30 2823 O 273.588 1.84461 -0.607257 0
M  V30 2824 C 270.718 3.14511 -1.4731 0
M  V30 2825 C 269.672 3.39677 -2.60391 0
M  V30 2826 C 268.998 4.78159 -2.39308 0
M  V30 2827 C 270.298 3.32772 -4.02567 0
M  V30 2828 H 271.992 1.68501 -2.47483 0
M  V30 2829 H 269.538 0.809237 -1.19111 0
M  V30 2830 H 271.491 3.92878 -1.52397 0
M  V30 2831 H 270.215 3.22783 -0.49785 0
M  V30 2832 H 268.874 2.63688 -2.54684 0
M  V30 2833 H 268.522 4.83128 -1.39988 0
M  V30 2834 H 268.222 4.95956 -3.15122 0
M  V30 2835 H 269.746 5.58762 -2.46205 0
M  V30 2836 H 271.16 4.01051 -4.09672 0
M  V30 2837 H 269.557 3.62104 -4.7854 0
M  V30 2838 H 270.627 2.30669 -4.2652 0
M  V30 2839 N 271.97 1.30982 0.876444 0
M  V30 2840 C 273.247 1.10942 1.61094 0
M  V30 2841 C 273.627 -0.338223 2.08373 0
M  V30 2842 O 272.975 -1.33122 1.85717 0
M  V30 2843 C 273.185 2.11789 2.77392 0
M  V30 2844 C 274.533 2.43965 3.47514 0
M  V30 2845 O 275.557 2.10166 2.87591 0
M  V30 2846 O 274.416 3.01817 4.55597 0
M  V30 2847 H 271.51 0.42667 0.708436 0
M  V30 2848 H 274.056 1.42438 0.922474 0
M  V30 2849 H 272.828 3.09194 2.39823 0
M  V30 2850 H 272.451 1.81161 3.5393 0
M  V30 2851 N 273.449 -1.08991 1.13837 0
M  V30 2852 C 274.689 -1.82867 0.913183 0
M  V30 2853 C 275.053 -1.83936 -0.550604 0
M  V30 2854 O 276.254 -2.53515 -0.893515 0
M  V30 2855 C 274.525 -3.24843 1.49036 0
M  V30 2856 S 276.084 -4.15669 1.40588 0
M  V30 2857 H 272.902 -0.630278 0.329046 0
M  V30 2858 H 275.504 -1.31049 1.45073 0
M  V30 2859 H 274.208 -3.21644 2.54899 0
M  V30 2860 H 273.739 -3.81734 0.950947 0
M  V30 2861 H 275.754 -4.94686 0.387353 0
M  V30 2862 N 274.927 -0.932562 -1.27047 0
M  V30 2863 C 275.877 -0.406392 -2.24349 0
M  V30 2864 C 276.861 0.492066 -1.53191 0
M  V30 2865 O 278.053 0.328717 -1.73921 0
M  V30 2866 C 275.182 0.335214 -3.41659 0
M  V30 2867 C 274.268 -0.58004 -4.20115 0
M  V30 2868 N 274.659 -1.70203 -4.76303 0
M  V30 2869 C 272.957 -0.383974 -4.44344 0
M  V30 2870 C 273.658 -2.27167 -5.35509 0
M  V30 2871 N 272.634 -1.56068 -5.20715 0
M  V30 2872 H 276.436 -1.26299 -2.65378 0
M  V30 2873 H 273.95 -0.787408 -1.42034 0
M  V30 2874 H 275.947 0.729142 -4.10474 0
M  V30 2875 H 274.607 1.18868 -3.0216 0
M  V30 2876 H 275.618 -2.08433 -4.74106 0
M  V30 2877 H 272.295 0.428436 -4.15296 0
M  V30 2878 H 273.685 -3.21654 -5.89905 0
M  V30 2879 N 276.405 1.4127 -0.698611 0
M  V30 2880 C 277.635 2.05205 -0.239644 0
M  V30 2881 C 278.043 1.52684 1.11733 0
M  V30 2882 O 277.386 0.671222 1.70998 0
M  V30 2883 C 277.448 3.59289 -0.123126 0
M  V30 2884 C 277.112 4.34619 -1.41263 0
M  V30 2885 C 278.109 4.63701 -2.35111 0
M  V30 2886 C 275.794 4.73837 -1.66684 0
M  V30 2887 C 277.788 5.30966 -3.52639 0
M  V30 2888 C 275.475 5.40837 -2.84498 0
M  V30 2889 C 276.473 5.69329 -3.77298 0
M  V30 2890 O 276.161 6.34949 -4.93047 0
M  V30 2891 H 275.893 0.66723 -0.108537 0
M  V30 2892 H 278.447 1.81974 -0.952602 0
M  V30 2893 H 276.677 3.81272 0.645628 0
M  V30 2894 H 278.366 4.04797 0.299056 0
M  V30 2895 H 279.132 4.33882 -2.16729 0
M  V30 2896 H 275.011 4.51039 -0.953135 0
M  V30 2897 H 278.555 5.53121 -4.25091 0
M  V30 2898 H 274.452 5.70075 -3.02795 0
M  V30 2899 H 275.22 6.53445 -4.92902 0
M  V30 2900 N 277.883 0.443576 1.51229 0
M  V30 2901 C 279.294 -0.0180867 1.86691 0
M  V30 2902 C 279.645 -1.41384 1.36033 0
M  V30 2903 O 278.77 -2.04291 0.713722 0
M  V30 2904 C 279.365 -0.039597 3.38777 0
M  V30 2905 C 277.924 -0.445692 3.73752 0
M  V30 2906 C 277.071 0.357584 2.74985 0
M  V30 2907 H 280.022 0.659138 1.44364 0
M  V30 2908 H 280.043 -0.847761 3.70936 0
M  V30 2909 H 279.555 0.976382 3.75617 0
M  V30 2910 H 277.656 -1.46704 3.42503 0
M  V30 2911 H 277.769 -0.166155 4.78812 0
M  V30 2912 H 276.133 -0.184973 2.54027 0
M  V30 2913 H 276.916 1.37256 3.14668 0
M  V30 2914 N 279.361 -1.56624 0.175154 0
M  V30 2915 C 280.271 -2.21741 -0.766042 0
M  V30 2916 C 281.287 -1.21023 -1.25018 0
M  V30 2917 O 282.463 -1.53697 -1.3015 0
M  V30 2918 C 279.528 -2.84839 -1.97655 0
M  V30 2919 C 278.589 -4.00769 -1.53892 0
M  V30 2920 C 277.822 -4.60849 -2.69173 0
M  V30 2921 O 278.045 -4.19823 -3.86141 0
M  V30 2922 O 276.979 -5.50655 -2.43028 0
M  V30 2923 H 280.805 -3.02738 -0.241585 0
M  V30 2924 H 278.39 -1.49305 -0.053222 0
M  V30 2925 H 280.272 -3.24834 -2.68442 0
M  V30 2926 H 278.947 -2.06836 -2.48999 0
M  V30 2927 H 277.854 -3.65436 -0.80044 0
M  V30 2928 H 279.187 -4.80376 -1.07236 0
M  V30 2929 N 280.839 0.0985539 -1.57292 0
M  V30 2930 C 282.116 0.834155 -1.76921 0
M  V30 2931 C 282.496 1.97101 -0.755928 0
M  V30 2932 O 281.844 2.27474 0.216245 0
M  V30 2933 C 282.054 1.33194 -3.22584 0
M  V30 2934 C 283.402 1.77611 -3.85668 0
M  V30 2935 O 284.426 1.42825 -3.26312 0
M  V30 2936 O 283.285 2.4192 -4.90038 0
M  V30 2937 H 280.379 0.397628 -0.725135 0
M  V30 2938 H 282.925 0.0807044 -1.69508 0
M  V30 2939 H 281.697 0.517248 -3.87866 0
M  V30 2940 H 281.32 2.1475 -3.34616 0
M  V30 2941 N 282.317 1.53212 0.369288 0
M  V30 2942 C 283.227 1.82342 1.47609 0
M  V30 2943 C 284.243 0.711532 1.58787 0
M  V30 2944 O 285.419 1.0012 1.74751 0
M  V30 2945 C 282.484 2.00393 2.8292 0
M  V30 2946 C 281.545 3.24297 2.81301 0
M  V30 2947 C 280.778 3.41478 4.10157 0
M  V30 2948 O 281.001 2.63033 5.06132 0
M  V30 2949 O 279.935 4.34817 4.16194 0
M  V30 2950 H 283.761 2.76366 1.25918 0
M  V30 2951 H 281.346 1.38547 0.559034 0
M  V30 2952 H 283.228 2.13859 3.63101 0
M  V30 2953 H 281.903 1.09559 3.04596 0
M  V30 2954 H 280.81 3.16257 1.99831 0
M  V30 2955 H 282.143 4.15041 2.64578 0
M  V30 2956 N 283.795 -0.628877 1.44509 0
M  V30 2957 C 285.041 -1.39045 1.47629 0
M  V30 2958 C 285.374 -1.93892 0.109343 0
M  V30 2959 O 284.649 -1.7379 -0.87334 0
M  V30 2960 C 284.932 -2.55408 2.53848 0
M  V30 2961 C 284.785 -2.05896 3.99909 0
M  V30 2962 C 286.104 -3.5759 2.56549 0
M  V30 2963 H 283.223 -0.504232 0.537512 0
M  V30 2964 H 285.865 -0.710854 1.76201 0
M  V30 2965 H 284.015 -3.13384 2.29615 0
M  V30 2966 H 285.687 -1.52734 4.35282 0
M  V30 2967 H 283.93 -1.37061 4.11578 0
M  V30 2968 H 284.601 -2.89681 4.69882 0
M  V30 2969 H 287.077 -3.09419 2.78207 0
M  V30 2970 H 285.953 -4.36527 3.32769 0
M  V30 2971 H 286.214 -4.11808 1.60832 0
M  V30 2972 N 285.273 -1.31445 -0.869486 0
M  V30 2973 C 286.521 -1.20918 -1.61936 0
M  V30 2974 C 286.842 0.232683 -1.93607 0
M  V30 2975 O 286.112 1.15352 -1.58338 0
M  V30 2976 H 284.692 -0.44454 -0.600328 0
M  V30 2977 H 287.354 -1.64776 -1.0409 0
M  V30 2978 H 286.45 -1.78124 -2.56278 0
M  V30 2979 N 286.751 1.08385 -1.14413 0
M  V30 2980 C 287.683 2.1519 -0.789036 0
M  V30 2981 C 288.696 1.61638 0.19417 0
M  V30 2982 O 289.885 1.78479 -0.0275711 0
M  V30 2983 C 286.985 3.38565 -0.15058 0
M  V30 2984 C 286.158 4.21501 -1.16857 0
M  V30 2985 C 285.217 5.23277 -0.553832 0
M  V30 2986 O 284.243 5.56041 -1.21686 0
M  V30 2987 N 285.445 5.76629 0.669296 0
M  V30 2988 H 288.21 2.46257 -1.70814 0
M  V30 2989 H 285.771 1.24198 -1.03858 0
M  V30 2990 H 287.763 4.03777 0.273181 0
M  V30 2991 H 286.333 3.05299 0.671667 0
M  V30 2992 H 285.553 3.52265 -1.76926 0
M  V30 2993 H 286.841 4.73731 -1.85624 0
M  V30 2994 H 286.239 5.52243 1.22654 0
M  V30 2995 H 284.796 6.43521 1.03556 0
M  V30 2996 N 288.23 0.939286 1.26551 0
M  V30 2997 C 289.14 0.453432 2.30176 0
M  V30 2998 C 290.156 -0.471649 1.67486 0
M  V30 2999 O 291.332 -0.35164 1.98306 0
M  V30 3000 C 288.397 -0.275326 3.45605 0
M  V30 3001 C 287.458 0.686084 4.23782 0
M  V30 3002 C 286.691 -0.00798994 5.33699 0
M  V30 3003 O 286.914 -1.22528 5.57085 0
M  V30 3004 O 285.848 0.669746 5.98162 0
M  V30 3005 H 289.674 1.31416 2.73795 0
M  V30 3006 H 287.259 0.705095 1.31715 0
M  V30 3007 H 289.141 -0.685911 4.1578 0
M  V30 3008 H 287.816 -1.11147 3.0402 0
M  V30 3009 H 286.723 1.14658 3.56096 0
M  V30 3010 H 288.056 1.48979 4.69112 0
M  V30 3011 N 289.708 -1.40897 0.706093 0
M  V30 3012 C 290.985 -1.94868 0.169099 0
M  V30 3013 C 291.365 -1.64485 -1.32318 0
M  V30 3014 O 290.713 -0.95744 -2.07474 0
M  V30 3015 C 290.923 -3.45798 0.471654 0
M  V30 3016 C 292.271 -4.22663 0.405127 0
M  V30 3017 O 293.295 -3.53865 0.407168 0
M  V30 3018 O 292.154 -5.45216 0.374383 0
M  V30 3019 H 289.248 -0.82673 0.0211352 0
M  V30 3020 H 291.794 -1.50558 0.782976 0
M  V30 3021 H 290.566 -3.61235 1.50416 0
M  V30 3022 H 290.189 -3.97225 -0.172666 0
M  V30 3023 N 291.186 -0.45159 -1.50991 0
M  V30 3024 C 292.096 0.358431 -2.31846 0
M  V30 3025 C 293.112 1.01438 -1.41373 0
M  V30 3026 O 294.288 1.00663 -1.74439 0
M  V30 3027 C 291.353 1.43704 -3.15515 0
M  V30 3028 C 290.414 0.799742 -4.21785 0
M  V30 3029 C 289.647 1.82696 -5.01456 0
M  V30 3030 O 289.87 3.05105 -4.81941 0
M  V30 3031 O 288.804 1.40958 -5.85162 0
M  V30 3032 H 292.63 -0.302032 -3.02194 0
M  V30 3033 H 290.215 -0.213825 -1.47862 0
M  V30 3034 H 292.097 2.06227 -3.67489 0
M  V30 3035 H 290.772 2.08133 -2.47916 0
M  V30 3036 H 289.679 0.136084 -3.73852 0
M  V30 3037 H 291.012 0.198718 -4.91799 0
M  V30 3038 N 292.664 1.56529 -0.183458 0
M  V30 3039 C 293.627 2.17324 0.728223 0
M  V30 3040 C 294.627 1.12453 1.14939 0
M  V30 3041 O 295.817 1.37902 1.06437 0
M  V30 3042 C 292.949 2.76591 1.99274 0
M  V30 3043 H 294.142 2.99241 0.198772 0
M  V30 3044 H 291.695 1.5616 0.0661391 0
M  V30 3045 H 292.43 1.98441 2.56499 0
M  V30 3046 H 292.215 3.5335 1.69959 0
M  V30 3047 H 293.705 3.23311 2.6431 0
M  V30 3048 N 294.142 -0.090211 1.57342 0
M  V30 3049 C 295.052 -1.12735 2.05738 0
M  V30 3050 C 296.068 -1.43557 0.983231 0
M  V30 3051 O 297.244 -1.54101 1.29672 0
M  V30 3052 C 294.309 -2.42659 2.47624 0
M  V30 3053 C 293.37 -2.18975 3.69254 0
M  V30 3054 C 292.603 -3.42704 4.09133 0
M  V30 3055 O 292.826 -4.51127 3.49057 0
M  V30 3056 O 291.76 -3.32003 5.02053 0
M  V30 3057 H 295.586 -0.746279 2.94388 0
M  V30 3058 H 293.171 -0.303064 1.46294 0
M  V30 3059 H 295.053 -3.19155 2.7517 0
M  V30 3060 H 293.728 -2.80182 1.62109 0
M  V30 3061 H 292.635 -1.40244 3.46818 0
M  V30 3062 H 293.968 -1.86342 4.55563 0
M  V30 3063 N 295.62 -1.53406 -0.361157 0
M  V30 3064 C 296.845 -1.74024 -1.12829 0
M  V30 3065 C 297.27 -0.470069 -1.82132 0
M  V30 3066 O 296.628 0.57619 -1.719 0
M  V30 3067 C 296.676 -2.90903 -2.13091 0
M  V30 3068 O 295.78 -2.59821 -3.20261 0
M  V30 3069 H 295.121 -0.577804 -0.327168 0
M  V30 3070 H 297.651 -2.00307 -0.41693 0
M  V30 3071 H 297.661 -3.17194 -2.56616 0
M  V30 3072 H 296.336 -3.83034 -1.62042 0
M  V30 3073 H 294.913 -2.44362 -2.81677 0
M  V30 3074 N 297.098 0.621204 -1.44841 0
M  V30 3075 C 298.375 1.38 -1.38619 0
M  V30 3076 C 298.755 2.11041 -0.0498935 0
M  V30 3077 O 298.103 2.06992 0.967816 0
M  V30 3078 C 298.313 2.33817 -2.59096 0
M  V30 3079 C 299.661 2.96844 -3.03593 0
M  V30 3080 O 300.685 2.44141 -2.59371 0
M  V30 3081 O 299.544 3.92476 -3.80296 0
M  V30 3082 H 296.638 0.61811 -0.549426 0
M  V30 3083 H 299.184 0.645429 -1.56947 0
M  V30 3084 H 297.956 1.79012 -3.47952 0
M  V30 3085 H 297.579 3.14676 -2.43032 0
M  V30 3086 N 298.576 1.31904 0.862503 0
M  V30 3087 C 299.825 1.21373 1.61094 0
M  V30 3088 C 300.138 -0.22504 1.94301 0
M  V30 3089 O 301.344 -0.452121 2.67709 0
M  V30 3090 C 299.8 2.12525 2.9045 0
M  V30 3091 C 299.408 3.61441 2.64697 0
M  V30 3092 C 301.152 2.10813 3.68454 0
M  V30 3093 C 299.059 4.44578 3.90006 0
M  V30 3094 H 297.989 0.450705 0.604468 0
M  V30 3095 H 300.64 1.56811 0.953027 0
M  V30 3096 H 299.022 1.69994 3.57656 0
M  V30 3097 H 300.196 4.12264 2.05851 0
M  V30 3098 H 298.511 3.65205 2.00036 0
M  V30 3099 H 301.108 2.70167 4.61426 0
M  V30 3100 H 301.451 1.09713 4.01583 0
M  V30 3101 H 301.984 2.51583 3.08141 0
M  V30 3102 H 298.723 5.46461 3.62023 0
M  V30 3103 H 298.243 3.98508 4.48276 0
M  V30 3104 H 299.922 4.57176 4.5782 0
M  V30 3105 N 300.054 -1.07777 1.14986 0
M  V30 3106 C 301.301 -1.8029 0.922056 0
M  V30 3107 C 301.629 -1.86531 -0.55105 0
M  V30 3108 O 300.884 -1.34189 -1.42449 0
M  V30 3109 C 301.183 -3.25495 1.47608 0
M  V30 3110 C 300.849 -3.39361 2.96893 0
M  V30 3111 C 299.511 -3.42852 3.37647 0
M  V30 3112 C 301.863 -3.42512 3.92854 0
M  V30 3113 C 299.191 -3.47094 4.73015 0
M  V30 3114 C 301.543 -3.4829 5.28088 0
M  V30 3115 C 300.207 -3.50058 5.68345 0
M  V30 3116 H 299.477 -0.659727 0.337404 0
M  V30 3117 H 302.124 -1.26854 1.43459 0
M  V30 3118 H 300.429 -3.81683 0.88463 0
M  V30 3119 H 302.126 -3.80168 1.27568 0
M  V30 3120 H 298.716 -3.37339 2.64387 0
M  V30 3121 H 302.9 -3.3904 3.62444 0
M  V30 3122 H 298.156 -3.46758 5.03556 0
M  V30 3123 H 302.33 -3.49675 6.02246 0
M  V30 3124 H 299.957 -3.53097 6.73221 0
M  V30 3125 N 301.532 -0.945985 -1.26051 0
M  V30 3126 C 302.757 -0.612525 -1.98149 0
M  V30 3127 C 303.182 0.806623 -1.69927 0
M  V30 3128 O 302.54 1.54411 -0.950108 0
M  V30 3129 C 302.588 -0.866981 -3.50023 0
M  V30 3130 O 301.692 0.0585333 -4.12358 0
M  V30 3131 H 301.033 -0.23379 -0.621481 0
M  V30 3132 H 303.563 -1.27023 -1.60395 0
M  V30 3133 H 303.573 -0.789792 -4.00283 0
M  V30 3134 H 302.248 -1.90135 -3.69894 0
M  V30 3135 H 300.825 -0.0701241 -3.72834 0
M  V30 3136 N 303.011 1.40521 -0.713556 0
M  V30 3137 C 304.26 2.00155 -0.249192 0
M  V30 3138 C 304.573 1.57224 1.16362 0
M  V30 3139 O 305.779 2.09542 1.72639 0
M  V30 3140 C 304.235 3.5773 -0.3946 0
M  V30 3141 C 303.843 4.09635 -1.81392 0
M  V30 3142 C 305.587 4.24499 0.00907364 0
M  V30 3143 C 303.494 5.59707 -1.91003 0
M  V30 3144 H 302.424 0.74868 -0.0894114 0
M  V30 3145 H 305.075 1.60784 -0.884352 0
M  V30 3146 H 303.457 3.94792 0.30911 0
M  V30 3147 H 304.631 3.83955 -2.54785 0
M  V30 3148 H 302.946 3.55456 -2.16888 0
M  V30 3149 H 305.543 5.34683 -0.0420404 0
M  V30 3150 H 305.886 4.02824 1.05065 0
M  V30 3151 H 306.419 3.92536 -0.645007 0
M  V30 3152 H 303.158 5.86234 -2.93275 0
M  V30 3153 H 302.678 5.87258 -1.22019 0
M  V30 3154 H 304.357 6.24776 -1.6812 0
M  V30 3155 N 304.489 0.459591 1.5075 0
M  V30 3156 C 305.905 0.113092 1.59199 0
M  V30 3157 C 306.105 -1.37951 1.46874 0
M  V30 3158 O 305.161 -2.15168 1.32132 0
M  V30 3159 C 306.474 0.653043 2.93523 0
M  V30 3160 C 308.022 0.615449 3.0689 0
M  V30 3161 C 308.497 1.13275 4.43771 0
M  V30 3162 N 309.988 1.09167 4.50152 0
M  V30 3163 C 310.723 1.46256 5.54434 0
M  V30 3164 N 310.219 1.90739 6.66026 0
M  V30 3165 N 312.012 1.37932 5.44914 0
M  V30 3166 H 304.163 1.43049 1.57005 0
M  V30 3167 H 306.426 0.590861 0.741341 0
M  V30 3168 H 306.132 1.69822 3.07983 0
M  V30 3169 H 306.006 0.0902132 3.77092 0
M  V30 3170 H 308.393 -0.420793 2.92084 0
M  V30 3171 H 308.474 1.21495 2.25106 0
M  V30 3172 H 308.118 2.16757 4.59324 0
M  V30 3173 H 308.048 0.509576 5.24129 0
M  V30 3174 H 310.539 0.76528 3.7007 0
M  V30 3175 H 310.852 2.17218 7.41644 0
M  V30 3176 H 309.197 1.94683 6.67176 0
M  V30 3177 H 312.388 1.0303 4.56621 0
M  V30 3178 H 312.561 1.67164 6.26067 0
M  V30 3179 N 305.967 -1.56429 0.191757 0
M  V30 3180 C 306.877 -2.22541 -0.742481 0
M  V30 3181 C 307.893 -1.22342 -1.23727 0
M  V30 3182 O 309.069 -1.55069 -1.28513 0
M  V30 3183 C 306.134 -2.8692 -1.94623 0
M  V30 3184 C 305.195 -4.02378 -1.49633 0
M  V30 3185 C 304.428 -4.63678 -2.6427 0
M  V30 3186 O 304.651 -4.23895 -3.81666 0
M  V30 3187 O 303.585 -5.53202 -2.37174 0
M  V30 3188 H 307.411 -3.02977 -0.209462 0
M  V30 3189 H 304.996 -1.49353 -0.0373832 0
M  V30 3190 H 306.878 -3.27663 -2.64982 0
M  V30 3191 H 305.553 -2.09466 -2.46791 0
M  V30 3192 H 304.46 -3.66265 -0.761636 0
M  V30 3193 H 305.793 -4.81487 -1.02134 0
M  V30 3194 N 307.445 0.0818655 -1.57387 0
M  V30 3195 C 308.691 0.784074 -1.8703 0
M  V30 3196 C 309.024 1.77729 -0.782689 0
M  V30 3197 O 308.299 1.93384 0.208051 0
M  V30 3198 C 308.582 1.50105 -3.27323 0
M  V30 3199 C 308.435 0.524925 -4.46727 0
M  V30 3200 C 309.754 2.44843 -3.65705 0
M  V30 3201 H 306.873 0.283582 -0.680257 0
M  V30 3202 H 309.515 0.0474352 -1.89941 0
M  V30 3203 H 307.665 2.12897 -3.24972 0
M  V30 3204 H 309.337 -0.0970111 -4.61198 0
M  V30 3205 H 307.58 -0.160606 -4.33503 0
M  V30 3206 H 308.251 1.064 -5.41648 0
M  V30 3207 H 310.727 1.92135 -3.69085 0
M  V30 3208 H 309.603 2.92018 -4.64776 0
M  V30 3209 H 309.864 3.29197 -2.95096 0
M  V30 3210 N 308.923 1.53595 0.353017 0
M  V30 3211 C 310.148 1.7462 1.11904 0
M  V30 3212 C 310.573 0.479721 1.8188 0
M  V30 3213 O 309.931 -0.567066 1.72204 0
M  V30 3214 C 309.979 2.92029 2.11545 0
M  V30 3215 O 309.083 2.61516 3.18878 0
M  V30 3216 H 308.424 0.579531 0.324099 0
M  V30 3217 H 310.954 2.00525 0.406301 0
M  V30 3218 H 310.964 3.18551 2.5493 0
M  V30 3219 H 309.639 3.83888 1.60008 0
M  V30 3220 H 308.216 2.45852 2.80377 0
M  V30 3221 N 310.401 -0.613514 1.45168 0
M  V30 3222 C 311.648 -1.37268 1.48875 0
M  V30 3223 C 311.976 -1.94077 0.128161 0
M  V30 3224 O 311.231 -1.75178 -0.872416 0
M  V30 3225 C 311.53 -2.54347 2.51083 0
M  V30 3226 C 311.196 -2.1572 3.95949 0
M  V30 3227 C 309.858 -2.04899 4.35396 0
M  V30 3228 C 312.21 -1.85485 4.87078 0
M  V30 3229 C 309.538 -1.62057 5.63875 0
M  V30 3230 C 311.89 -1.4413 6.15962 0
M  V30 3231 C 310.554 -1.31863 6.54346 0
M  V30 3232 H 309.824 -0.502299 0.544773 0
M  V30 3233 H 312.471 -0.694021 1.78481 0
M  V30 3234 H 310.776 -3.27524 2.15024 0
M  V30 3235 H 312.473 -3.12577 2.51191 0
M  V30 3236 H 309.063 -2.25066 3.64751 0
M  V30 3237 H 313.247 -1.92745 4.57343 0
M  V30 3238 H 308.503 -1.51177 5.92415 0
M  V30 3239 H 312.677 -1.19778 6.86022 0
M  V30 3240 H 310.304 -0.984392 7.538 0
M  V30 3241 N 311.879 -1.3236 -0.855495 0
M  V30 3242 C 312.811 -1.17052 -1.97057 0
M  V30 3243 C 313.824 -0.10574 -1.62456 0
M  V30 3244 O 315.013 -0.354619 -1.74942 0
M  V30 3245 C 312.113 -0.769305 -3.30053 0
M  V30 3246 C 311.286 -1.9222 -3.929 0
M  V30 3247 C 310.345 -1.50466 -5.04228 0
M  V30 3248 O 309.371 -2.21655 -5.24269 0
M  V30 3249 N 310.573 -0.400209 -5.79119 0
M  V30 3250 H 313.338 -2.13103 -2.1073 0
M  V30 3251 H 310.899 -1.24885 -1.0303 0
M  V30 3252 H 312.891 -0.472407 -4.01933 0
M  V30 3253 H 311.461 0.100025 -3.1244 0
M  V30 3254 H 310.681 -2.38563 -3.13817 0
M  V30 3255 H 311.969 -2.69403 -4.31624 0
M  V30 3256 H 311.367 0.192319 -5.65373 0
M  V30 3257 H 309.924 -0.162912 -6.51596 0
M  V30 3258 N 313.357 1.07166 -1.15556 0
M  V30 3259 C 314.582 1.84053 -0.955988 0
M  V30 3260 C 315.007 1.81586 0.490739 0
M  V30 3261 O 314.365 1.21018 1.34997 0
M  V30 3262 C 314.413 3.28957 -1.47714 0
M  V30 3263 O 313.517 4.06795 -0.677593 0
M  V30 3264 H 312.858 0.569842 -0.340847 0
M  V30 3265 H 315.388 1.35178 -1.53584 0
M  V30 3266 H 315.398 3.79788 -1.4908 0
M  V30 3267 H 314.073 3.30068 -2.53037 0
M  V30 3268 H 312.65 3.6561 -0.733721 0
M  V30 3269 N 314.835 0.952656 1.25548 0
M  V30 3270 C 316.063 0.623496 1.97282 0
M  V30 3271 C 316.478 -0.803987 1.70826 0
M  V30 3272 O 315.835 -1.53755 0.983147 0
M  V30 3273 C 315.886 0.870209 3.5087 0
M  V30 3274 O 315.607 2.24156 3.76412 0
M  V30 3275 C 317.108 0.553164 4.39835 0
M  V30 3276 H 314.328 0.233931 0.628902 0
M  V30 3277 H 316.872 1.27649 1.59768 0
M  V30 3278 H 315.027 0.263652 3.86502 0
M  V30 3279 H 315.441 2.31021 4.70882 0
M  V30 3280 H 316.915 0.776342 5.46513 0
M  V30 3281 H 317.392 -0.512215 4.36203 0
M  V30 3282 H 317.998 1.13896 4.09766 0
M  V30 3283 N 316.313 -1.40141 0.720998 0
M  V30 3284 C 317.561 -2.0039 0.262323 0
M  V30 3285 C 317.882 -1.57469 -1.15015 0
M  V30 3286 O 317.152 -0.816582 -1.78069 0
M  V30 3287 H 315.732 -0.741063 0.093996 0
M  V30 3288 H 318.394 -1.71398 0.927835 0
M  V30 3289 H 317.49 -3.10658 0.299671 0
M  V30 3290 N 317.792 -0.46758 -1.50504 0
M  V30 3291 C 318.702 0.33382 -2.32213 0
M  V30 3292 C 319.718 0.999323 -1.42441 0
M  V30 3293 O 320.894 0.988068 -1.75497 0
M  V30 3294 C 317.959 1.4035 -3.17022 0
M  V30 3295 C 317.02 0.754961 -4.2261 0
M  V30 3296 C 316.253 1.77367 -5.03365 0
M  V30 3297 O 316.476 2.99976 -4.8515 0
M  V30 3298 O 315.41 1.34744 -5.86624 0
M  V30 3299 H 319.236 -0.334067 -3.01857 0
M  V30 3300 H 316.821 -0.229496 -1.47627 0
M  V30 3301 H 318.703 2.02318 -3.69656 0
M  V30 3302 H 317.378 2.05492 -2.5011 0
M  V30 3303 H 316.285 0.0964244 -3.73976 0
M  V30 3304 H 317.618 0.146545 -4.91982 0
M  V30 3305 N 319.27 1.56325 -0.20005 0
M  V30 3306 C 320.495 2.02548 0.44597 0
M  V30 3307 C 320.92 1.07922 1.5406 0
M  V30 3308 O 320.278 0.0635775 1.81188 0
M  V30 3309 C 320.326 3.47175 0.974761 0
M  V30 3310 O 319.43 3.55671 2.08739 0
M  V30 3311 H 318.771 0.655862 0.103638 0
M  V30 3312 H 321.301 2.02201 -0.312381 0
M  V30 3313 H 321.311 3.87067 1.2901 0
M  V30 3314 H 319.986 4.15538 0.17347 0
M  V30 3315 H 318.563 3.27657 1.78032 0
M  V30 3316 N 320.748 -0.0735177 1.57428 0
M  V30 3317 C 321.658 -1.10547 2.06922 0
M  V30 3318 C 322.674 -1.42506 0.998402 0
M  V30 3319 O 323.85 -1.52717 1.31299 0
M  V30 3320 C 320.915 -2.40019 2.50184 0
M  V30 3321 C 319.976 -2.15046 3.71556 0
M  V30 3322 C 319.209 -3.38345 4.12745 0
M  V30 3323 O 319.432 -4.47399 3.53822 0
M  V30 3324 O 318.366 -3.2666 5.05546 0
M  V30 3325 H 322.192 -0.715013 2.95163 0
M  V30 3326 H 319.777 -0.287531 1.46607 0
M  V30 3327 H 321.659 -3.16218 2.78539 0
M  V30 3328 H 320.334 -2.78447 1.65072 0
M  V30 3329 H 319.241 -1.36558 3.48285 0
M  V30 3330 H 320.574 -1.81499 4.57514 0
M  V30 3331 N 322.226 -1.5378 -0.344866 0
M  V30 3332 C 323.472 -1.72158 -1.0832 0
M  V30 3333 C 323.827 -0.478218 -1.86362 0
M  V30 3334 O 323.12 0.529152 -1.84148 0
M  V30 3335 C 323.314 -2.92407 -2.05506 0
M  V30 3336 C 323.143 -4.28318 -1.37017 0
M  V30 3337 C 321.913 -4.92832 -1.11558 0
M  V30 3338 C 324.111 -5.08086 -0.797071 0
M  V30 3339 N 322.093 -6.12619 -0.396358 0
M  V30 3340 C 323.464 -6.1965 -0.208336 0
M  V30 3341 C 325.519 -4.92986 -0.697787 0
M  V30 3342 C 324.222 -7.17763 0.470023 0
M  V30 3343 C 326.248 -5.91391 -0.033171 0
M  V30 3344 C 325.61 -7.02292 0.544599 0
M  V30 3345 H 321.709 -0.683017 -0.380805 0
M  V30 3346 H 324.293 -1.91211 -0.366961 0
M  V30 3347 H 322.464 -2.74857 -2.74423 0
M  V30 3348 H 324.196 -2.9951 -2.72169 0
M  V30 3349 H 320.951 -4.52362 -1.40234 0
M  V30 3350 H 321.375 -6.7698 -0.0515119 0
M  V30 3351 H 326.017 -4.07414 -1.13022 0
M  V30 3352 H 323.735 -8.0291 0.914351 0
M  V30 3353 H 327.321 -5.81784 0.0430009 0
M  V30 3354 H 326.201 -7.77129 1.05073 0
M  V30 3355 N 323.704 0.605807 -1.45491 0
M  V30 3356 C 324.651 1.7164 -1.54299 0
M  V30 3357 C 325.621 1.61486 -0.388761 0
M  V30 3358 O 326.806 1.81039 -0.602445 0
M  V30 3359 C 323.946 3.09953 -1.51734 0
M  V30 3360 C 323.059 3.309 -2.77721 0
M  V30 3361 C 322.194 4.59329 -2.66816 0
M  V30 3362 C 321.233 4.7354 -3.87848 0
M  V30 3363 N 320.37 5.9327 -3.75467 0
M  V30 3364 H 325.21 1.63449 -2.49176 0
M  V30 3365 H 322.747 0.796957 -1.23641 0
M  V30 3366 H 324.705 3.89977 -1.48235 0
M  V30 3367 H 323.335 3.17098 -0.604068 0
M  V30 3368 H 322.387 2.44639 -2.913 0
M  V30 3369 H 323.699 3.37274 -3.67488 0
M  V30 3370 H 322.853 5.4755 -2.61292 0
M  V30 3371 H 321.592 4.55355 -1.74651 0
M  V30 3372 H 320.597 3.83741 -3.93729 0
M  V30 3373 H 321.822 4.79309 -4.81082 0
M  V30 3374 H 319.768 5.90338 -2.86072 0
M  V30 3375 H 319.685 6.00811 -4.5887 0
M  V30 3376 H 320.953 6.83984 -3.73879 0
M  V30 3377 N 325.182 1.32811 0.848464 0
M  V30 3378 C 326.459 1.14334 1.58704 0
M  V30 3379 C 326.839 -0.293948 2.09043 0
M  V30 3380 O 326.187 -1.29153 1.88499 0
M  V30 3381 C 326.397 2.17626 2.72837 0
M  V30 3382 C 327.745 2.51282 3.42261 0
M  V30 3383 O 328.769 2.16219 2.83068 0
M  V30 3384 O 327.628 3.11413 4.49093 0
M  V30 3385 H 324.722 0.441601 0.699226 0
M  V30 3386 H 327.268 1.44362 0.892053 0
M  V30 3387 H 326.04 3.14211 2.3321 0
M  V30 3388 H 325.663 1.88628 3.50008 0
M  V30 3389 N 326.66 -1.06551 1.16123 0
M  V30 3390 C 327.888 -1.83005 0.965237 0
M  V30 3391 C 328.303 -1.82423 -0.486542 0
M  V30 3392 O 327.66 -1.24152 -1.33763 0
M  V30 3393 C 327.711 -3.29733 1.48183 0
M  V30 3394 O 327.432 -3.30416 2.87674 0
M  V30 3395 C 328.933 -4.22926 1.32848 0
M  V30 3396 H 326.153 -0.577118 0.342309 0
M  V30 3397 H 328.697 -1.3445 1.54089 0
M  V30 3398 H 326.852 -3.75609 0.948517 0
M  V30 3399 H 327.266 -4.22149 3.11272 0
M  V30 3400 H 328.74 -5.23916 1.73827 0
M  V30 3401 H 329.217 -4.38346 0.273692 0
M  V30 3402 H 329.823 -3.82894 1.85127 0
M  V30 3403 N 328.138 -0.959301 -1.25041 0
M  V30 3404 C 329.086 -0.474437 -2.2771 0
M  V30 3405 C 330.08 0.457697 -1.631 0
M  V30 3406 O 331.286 0.333912 -1.76876 0
M  V30 3407 H 327.661 -0.134936 -0.739795 0
M  V30 3408 H 329.632 -1.35251 -2.65988 0
M  V30 3409 C 328.381 0.227884 -3.46952 0
M  V30 3410 H 327.704 -0.480248 -3.96905 0
M  V30 3411 H 329.144 0.531091 -4.20661 0
M  V30 3412 C 327.603 1.452 -3.04004 0
M  V30 3413 O 328.133 2.54949 -3.10426 0
M  V30 3414 N 326.339 1.31502 -2.59144 0
M  V30 3415 H 325.886 0.422065 -2.54119 0
M  V30 3416 H 325.844 2.13521 -2.30773 0
M  V30 3417 N 329.616 1.39756 -0.72842 0
M  V30 3418 C 330.846 2.04651 -0.283117 0
M  V30 3419 C 331.254 1.5502 1.08469 0
M  V30 3420 O 330.597 0.707343 1.69536 0
M  V30 3421 C 330.659 3.58947 -0.199309 0
M  V30 3422 C 330.323 4.31525 -1.5045 0
M  V30 3423 C 331.32 4.5861 -2.44894 0
M  V30 3424 C 329.005 4.70195 -1.76698 0
M  V30 3425 C 330.999 5.23366 -3.63822 0
M  V30 3426 C 328.686 5.3468 -2.95906 0
M  V30 3427 C 329.684 5.61198 -3.89289 0
M  V30 3428 O 329.372 6.24347 -5.06404 0
M  V30 3429 H 329.104 0.664777 -0.122666 0
M  V30 3430 H 331.658 1.79913 -0.990987 0
M  V30 3431 H 329.888 3.82556 0.56461 0
M  V30 3432 H 331.577 4.0534 0.213125 0
M  V30 3433 H 332.343 4.29187 -2.25883 0
M  V30 3434 H 328.222 4.48916 -1.04859 0
M  V30 3435 H 331.766 5.4398 -4.36728 0
M  V30 3436 H 327.663 5.63524 -3.14819 0
M  V30 3437 H 328.431 6.42842 -5.06652 0
M  V30 3438 N 331.094 0.475555 1.50254 0
M  V30 3439 C 332.322 -0.0754493 2.06762 0
M  V30 3440 C 332.737 -1.33111 1.33891 0
M  V30 3441 O 332.094 -1.77846 0.40952 0
M  V30 3442 C 332.145 -0.359008 3.59713 0
M  V30 3443 O 331.866 0.846851 4.29837 0
M  V30 3444 C 333.367 -0.956484 4.32858 0
M  V30 3445 H 330.587 0.00907525 0.670939 0
M  V30 3446 H 333.131 0.665618 1.93364 0
M  V30 3447 H 331.286 -1.05001 3.72899 0
M  V30 3448 H 331.7 0.594162 5.21124 0
M  V30 3449 H 333.174 -1.10463 5.40834 0
M  V30 3450 H 333.651 -1.94775 3.93649 0
M  V30 3451 H 334.257 -0.303723 4.24214 0
M  V30 3452 N 332.573 -1.56217 0.208337 0
M  V30 3453 C 333.503 -2.22694 -0.702116 0
M  V30 3454 C 334.484 -1.19432 -1.2112 0
M  V30 3455 O 335.669 -1.47978 -1.25762 0
M  V30 3456 C 332.799 -2.8966 -1.9161 0
M  V30 3457 C 331.753 -3.9928 -1.5414 0
M  V30 3458 C 331.079 -4.53476 -2.83308 0
M  V30 3459 C 332.379 -5.17012 -0.741339 0
M  V30 3460 H 334.073 -2.99034 -0.147898 0
M  V30 3461 H 331.619 -1.43831 -0.0696951 0
M  V30 3462 H 333.572 -3.34852 -2.55836 0
M  V30 3463 H 332.296 -2.10746 -2.49507 0
M  V30 3464 H 330.955 -3.54799 -0.922668 0
M  V30 3465 H 330.603 -3.71308 -3.39322 0
M  V30 3466 H 330.303 -5.27451 -2.58976 0
M  V30 3467 H 331.827 -5.01378 -3.485 0
M  V30 3468 H 333.241 -5.58667 -1.28699 0
M  V30 3469 H 331.638 -5.97137 -0.595627 0
M  V30 3470 H 332.708 -4.8423 0.254851 0
M  V30 3471 N 334.051 0.0651679 -1.57465 0
M  V30 3472 C 334.999 1.09542 -2.05191 0
M  V30 3473 C 335.993 1.39675 -0.958509 0
M  V30 3474 O 337.199 1.39003 -1.14359 0
M  V30 3475 H 333.574 0.370623 -0.654326 0
M  V30 3476 H 335.545 0.666802 -2.90854 0
M  V30 3477 C 334.294 2.39881 -2.51699 0
M  V30 3478 H 333.617 2.17547 -3.3543 0
M  V30 3479 H 335.057 3.104 -2.88839 0
M  V30 3480 C 333.516 3.0631 -1.40271 0
M  V30 3481 O 334.046 3.94664 -0.748523 0
M  V30 3482 N 332.252 2.67041 -1.14618 0
M  V30 3483 H 331.799 1.95281 -1.67997 0
M  V30 3484 H 331.757 3.1181 -0.402688 0
M  V30 3485 N 335.529 1.53961 0.336706 0
M  V30 3486 C 336.757 1.75483 1.09605 0
M  V30 3487 C 337.172 0.4972 1.82136 0
M  V30 3488 O 336.529 -0.53149 1.74589 0
M  V30 3489 C 336.58 2.93943 2.10428 0
M  V30 3490 O 336.301 4.14842 1.40846 0
M  V30 3491 C 337.802 3.27571 2.98684 0
M  V30 3492 H 335.022 0.586166 0.326574 0
M  V30 3493 H 337.566 2.00808 0.38683 0
M  V30 3494 H 335.721 2.70929 2.76905 0
M  V30 3495 H 336.135 4.81383 2.08255 0
M  V30 3496 H 337.609 4.13791 3.6535 0
M  V30 3497 H 338.086 2.44168 3.65074 0
M  V30 3498 H 338.692 3.52615 2.37787 0
M  V30 3499 N 337.007 -0.598083 1.45811 0
M  V30 3500 C 338.284 -1.35777 1.40797 0
M  V30 3501 C 338.664 -2.10935 0.083462 0
M  V30 3502 O 338.012 -2.08505 -0.934763 0
M  V30 3503 C 338.222 -2.29666 2.62783 0
M  V30 3504 C 339.57 -2.91977 3.08277 0
M  V30 3505 O 340.594 -2.39984 2.63223 0
M  V30 3506 O 339.453 -3.86376 3.86491 0
M  V30 3507 H 336.547 -0.609291 0.55919 0
M  V30 3508 H 339.093 -0.620379 1.57954 0
M  V30 3509 H 337.865 -1.73454 3.50756 0
M  V30 3510 H 337.488 -3.1077 2.48008 0
M  V30 3511 N 338.485 -1.33259 -0.841409 0
M  V30 3512 C 339.71 -1.2775 -1.63385 0
M  V30 3513 C 340.135 0.149188 -1.87507 0
M  V30 3514 O 339.493 1.10498 -1.43736 0
M  V30 3515 C 339.541 -2.05571 -2.96265 0
M  V30 3516 O 338.645 -1.41257 -3.87453 0
M  V30 3517 H 337.986 -0.439627 -0.497618 0
M  V30 3518 H 340.516 -1.75782 -1.04699 0
M  V30 3519 H 340.526 -2.16241 -3.45982 0
M  V30 3520 H 339.201 -3.09309 -2.7803 0
M  V30 3521 H 337.778 -1.39217 -3.45938 0
M  V30 3522 N 339.963 1.05934 -1.16686 0
M  V30 3523 C 340.893 2.1546 -0.899949 0
M  V30 3524 C 341.874 1.69391 0.155154 0
M  V30 3525 O 343.059 1.94199 0.00648693 0
M  V30 3526 C 340.189 3.44939 -0.404241 0
M  V30 3527 C 339.143 4.04536 -1.39767 0
M  V30 3528 C 338.469 5.29268 -0.760216 0
M  V30 3529 C 339.769 4.42893 -2.76845 0
M  V30 3530 H 341.463 2.38046 -1.81588 0
M  V30 3531 H 339.009 1.14404 -0.874514 0
M  V30 3532 H 340.962 4.20901 -0.204971 0
M  V30 3533 H 339.686 3.21983 0.547206 0
M  V30 3534 H 338.345 3.30635 -1.58355 0
M  V30 3535 H 337.993 5.02611 0.197831 0
M  V30 3536 H 337.693 5.70101 -1.42332 0
M  V30 3537 H 339.217 6.07924 -0.57105 0
M  V30 3538 H 340.631 5.09921 -2.62019 0
M  V30 3539 H 339.028 4.94721 -3.39663 0
M  V30 3540 H 340.098 3.53584 -3.31823 0
M  V30 3541 N 341.441 0.965919 1.2453 0
M  V30 3542 C 342.718 0.543777 1.87889 0
M  V30 3543 C 343.098 -0.97909 1.87021 0
M  V30 3544 O 342.446 -1.84969 1.3416 0
M  V30 3545 C 342.656 1.13327 3.30088 0
M  V30 3546 C 344.004 1.21707 4.06783 0
M  V30 3547 O 345.028 1.08566 3.39252 0
M  V30 3548 O 343.887 1.42456 5.27606 0
M  V30 3549 H 340.981 0.181054 0.806938 0
M  V30 3550 H 343.527 1.06007 1.32516 0
M  V30 3551 H 342.299 2.17612 3.25209 0
M  V30 3552 H 341.922 0.600911 3.93033 0
M  V30 3553 N 342.919 -1.39368 0.735821 0
M  V30 3554 C 344.165 -2.01272 0.293439 0
M  V30 3555 C 344.52 -1.57344 -1.10728 0
M  V30 3556 O 343.813 -0.792744 -1.74431 0
M  V30 3557 C 344.007 -3.5583 0.334651 0
M  V30 3558 C 343.836 -4.14764 1.73784 0
M  V30 3559 C 342.606 -4.47315 2.35026 0
M  V30 3560 C 344.804 -4.38246 2.69157 0
M  V30 3561 N 342.786 -4.91756 3.6749 0
M  V30 3562 C 344.157 -4.849 3.86357 0
M  V30 3563 C 346.212 -4.20315 2.66908 0
M  V30 3564 C 344.915 -5.15505 5.01645 0
M  V30 3565 C 346.941 -4.52033 3.8134 0
M  V30 3566 C 346.303 -4.98895 4.97276 0
M  V30 3567 H 342.402 -0.766756 0.153652 0
M  V30 3568 H 344.986 -1.69276 0.961967 0
M  V30 3569 H 343.157 -3.87212 -0.303527 0
M  V30 3570 H 344.889 -4.04503 -0.126358 0
M  V30 3571 H 341.644 -4.35143 1.86943 0
M  V30 3572 H 342.068 -5.18333 4.35499 0
M  V30 3573 H 346.71 -3.83287 1.78468 0
M  V30 3574 H 344.428 -5.51437 5.90713 0
M  V30 3575 H 348.014 -4.39781 3.80899 0
M  V30 3576 H 346.894 -5.22973 5.84353 0
M  V30 3577 N 344.397 -0.483516 -1.5 0
M  V30 3578 C 345.36 0.292965 -2.2732 0
M  V30 3579 C 346.36 0.909499 -1.32608 0
M  V30 3580 O 347.55 0.776745 -1.55924 0
M  V30 3581 C 344.682 1.41854 -3.09984 0
M  V30 3582 H 345.875 -0.385289 -2.97415 0
M  V30 3583 H 343.428 -0.237942 -1.54478 0
M  V30 3584 H 344.163 2.13148 -2.44414 0
M  V30 3585 H 343.948 0.982114 -3.79601 0
M  V30 3586 H 345.438 1.96597 -3.68429 0
M  V30 3587 N 345.875 1.56104 -0.216619 0
M  V30 3588 C 346.805 2.23063 0.690296 0
M  V30 3589 C 347.786 1.20072 1.20485 0
M  V30 3590 O 348.971 1.48643 1.24976 0
M  V30 3591 C 346.101 2.90672 1.90072 0
M  V30 3592 C 345.055 4.00092 1.5202 0
M  V30 3593 C 344.381 4.54972 2.80899 0
M  V30 3594 C 345.681 5.17398 0.71391 0
M  V30 3595 H 347.375 2.99109 0.132038 0
M  V30 3596 H 344.921 1.43866 0.0620664 0
M  V30 3597 H 346.874 3.36204 2.54057 0
M  V30 3598 H 345.598 2.12066 2.48386 0
M  V30 3599 H 344.257 3.55283 0.903839 0
M  V30 3600 H 343.905 3.73102 3.37348 0
M  V30 3601 H 343.605 5.28817 2.56176 0
M  V30 3602 H 345.129 5.0322 3.45836 0
M  V30 3603 H 346.543 5.59342 1.25735 0
M  V30 3604 H 344.94 5.97444 0.563951 0
M  V30 3605 H 346.01 4.84088 -0.280527 0
M  V30 3606 N 347.353 -0.0568162 1.57498 0
M  V30 3607 C 348.583 -0.764515 1.91934 0
M  V30 3608 C 348.991 -1.70877 0.81227 0
M  V30 3609 O 348.334 -1.82351 -0.222213 0
M  V30 3610 C 348.396 -1.5994 3.21962 0
M  V30 3611 C 348.06 -0.822925 4.4953 0
M  V30 3612 C 349.057 -0.135464 5.19723 0
M  V30 3613 C 346.742 -0.785666 4.96117 0
M  V30 3614 C 348.736 0.578861 6.34766 0
M  V30 3615 C 346.423 -0.0675784 6.11063 0
M  V30 3616 C 347.421 0.613471 6.80239 0
M  V30 3617 O 347.109 1.31996 7.92989 0
M  V30 3618 H 346.841 -0.221647 0.63863 0
M  V30 3619 H 349.395 -0.0268218 2.05382 0
M  V30 3620 H 347.625 -2.38026 3.04763 0
M  V30 3621 H 349.314 -2.18715 3.41934 0
M  V30 3622 H 350.08 -0.155458 4.84751 0
M  V30 3623 H 345.959 -1.30524 4.42136 0
M  V30 3624 H 349.503 1.111 6.88696 0
M  V30 3625 H 345.4 -0.0455636 6.45484 0
M  V30 3626 H 346.168 1.23077 8.09194 0
M  V30 3627 N 348.832 -1.54138 -0.328536 0
M  V30 3628 C 350.109 -1.62749 -1.08499 0
M  V30 3629 C 350.489 -0.458198 -2.06067 0
M  V30 3630 O 349.837 0.548046 -2.2183 0
M  V30 3631 C 350.047 -2.99519 -1.79135 0
M  V30 3632 C 351.395 -3.55394 -2.32337 0
M  V30 3633 O 352.419 -3.01792 -1.89209 0
M  V30 3634 O 351.278 -4.49186 -3.11279 0
M  V30 3635 H 348.372 -0.65886 -0.499832 0
M  V30 3636 H 350.918 -1.66484 -0.328826 0
M  V30 3637 H 349.69 -3.76061 -1.08139 0
M  V30 3638 H 349.313 -2.99441 -2.61574 0
M  V30 3639 N 350.31 0.590341 -1.46126 0
M  V30 3640 C 351.26 1.69466 -1.5253 0
M  V30 3641 C 352.244 1.56179 -0.386917 0
M  V30 3642 O 353.436 1.65223 -0.634858 0
M  V30 3643 C 350.565 3.08245 -1.5113 0
M  V30 3644 C 349.651 3.26856 -2.70233 0
M  V30 3645 N 350.042 3.15657 -3.95214 0
M  V30 3646 C 348.34 3.57775 -2.66296 0
M  V30 3647 C 349.041 3.36066 -4.74799 0
M  V30 3648 N 348.017 3.60865 -4.06543 0
M  V30 3649 H 351.819 1.59326 -2.46966 0
M  V30 3650 H 349.333 0.79414 -1.41659 0
M  V30 3651 H 351.33 3.87492 -1.53804 0
M  V30 3652 H 349.99 3.19521 -0.577636 0
M  V30 3653 H 351.001 2.93686 -4.26578 0
M  V30 3654 H 347.678 3.75782 -1.81918 0
M  V30 3655 H 349.068 3.32655 -5.83772 0
M  V30 3656 N 351.788 1.33704 0.83433 0
M  V30 3657 C 352.718 1.26967 1.95963 0
M  V30 3658 C 353.699 0.149337 1.69443 0
M  V30 3659 O 354.884 0.339852 1.91203 0
M  V30 3660 C 352.014 1.01275 3.32206 0
M  V30 3661 C 350.968 2.09652 3.73136 0
M  V30 3662 C 350.294 1.69166 5.07235 0
M  V30 3663 C 351.594 3.51372 3.86439 0
M  V30 3664 H 353.288 2.2112 2.01857 0
M  V30 3665 H 350.834 1.06447 0.969793 0
M  V30 3666 H 352.787 0.952106 4.10503 0
M  V30 3667 H 351.511 0.0356203 3.26581 0
M  V30 3668 H 350.17 2.14766 2.97104 0
M  V30 3669 H 349.818 0.701437 4.98085 0
M  V30 3670 H 349.518 2.41694 5.35591 0
M  V30 3671 H 351.042 1.64576 5.88003 0
M  V30 3672 H 352.456 3.48734 4.55036 0
M  V30 3673 H 350.853 4.22425 4.26236 0
M  V30 3674 H 351.923 3.89546 2.88759 0
M  V30 3675 N 353.266 -1.05314 1.17247 0
M  V30 3676 C 354.199 -2.12512 0.831507 0
M  V30 3677 C 355.177 -1.61351 -0.201168 0
M  V30 3678 O 356.361 -1.88317 -0.0829831 0
M  V30 3679 C 353.488 -3.37848 0.24015 0
M  V30 3680 C 352.534 -4.07832 1.24801 0
M  V30 3681 S 353.367 -4.56537 2.79882 0
M  V30 3682 C 354.523 -5.85122 2.22223 0
M  V30 3683 H 354.756 -2.41106 1.7394 0
M  V30 3684 H 352.289 -1.17896 0.996988 0
M  V30 3685 H 354.247 -4.10391 -0.0945588 0
M  V30 3686 H 352.908 -3.07392 -0.645668 0
M  V30 3687 H 352.101 -4.97883 0.78287 0
M  V30 3688 H 351.703 -3.41348 1.52831 0
M  V30 3689 H 353.995 -6.58408 1.59703 0
M  V30 3690 H 354.938 -6.36381 3.10523 0
M  V30 3691 H 355.346 -5.39626 1.65722 0
M  V30 3692 N 354.744 -0.972509 -1.24016 0
M  V30 3693 C 356.021 -0.553733 -1.87598 0
M  V30 3694 C 356.401 0.969158 -1.87538 0
M  V30 3695 O 355.749 1.84255 -1.35139 0
M  V30 3696 C 355.959 -1.15076 -3.29482 0
M  V30 3697 C 357.307 -1.23862 -4.06132 0
M  V30 3698 O 358.331 -1.10363 -3.38672 0
M  V30 3699 O 357.19 -1.45252 -5.26844 0
M  V30 3700 H 354.284 -0.185331 -0.805966 0
M  V30 3701 H 356.83 -1.06709 -1.31952 0
M  V30 3702 H 355.602 -2.19333 -3.2405 0
M  V30 3703 H 355.225 -0.621746 -3.92709 0
M  V30 3704 N 356.222 1.38976 -0.743202 0
M  V30 3705 C 357.469 2.00343 -0.294752 0
M  V30 3706 C 357.797 1.58983 1.12047 0
M  V30 3707 O 357.052 0.813809 1.77977 0
M  V30 3708 C 357.351 3.55647 -0.353517 0
M  V30 3709 C 357.017 4.16685 -1.72292 0
M  V30 3710 C 355.679 4.3307 -2.09771 0
M  V30 3711 C 358.031 4.50464 -2.62168 0
M  V30 3712 C 355.359 4.80526 -3.36618 0
M  V30 3713 C 357.711 4.99332 -3.88395 0
M  V30 3714 C 356.375 5.13924 -4.25956 0
M  V30 3715 H 355.645 0.733108 -0.107857 0
M  V30 3716 H 358.292 1.6618 -0.951651 0
M  V30 3717 H 356.597 3.89884 0.386954 0
M  V30 3718 H 358.294 4.00998 0.0117269 0
M  V30 3719 H 354.884 4.04339 -1.42155 0
M  V30 3720 H 359.068 4.37416 -2.3448 0
M  V30 3721 H 354.324 4.90008 -3.65653 0
M  V30 3722 H 358.498 5.2444 -4.58187 0
M  V30 3723 H 356.125 5.50457 -5.2431 0
M  V30 3724 N 357.7 0.491464 1.49741 0
M  V30 3725 C 358.63 -0.28154 2.31796 0
M  V30 3726 C 359.611 -0.971473 1.3963 0
M  V30 3727 O 360.796 -0.964719 1.68543 0
M  V30 3728 C 357.926 -1.35203 3.19902 0
M  V30 3729 C 356.88 -0.782529 4.20786 0
M  V30 3730 C 356.206 -1.95283 4.97764 0
M  V30 3731 C 357.506 0.21999 5.21837 0
M  V30 3732 H 359.2 0.403355 2.96671 0
M  V30 3733 H 356.746 0.195425 1.42668 0
M  V30 3734 H 358.699 -1.90045 3.76113 0
M  V30 3735 H 357.423 -2.06598 2.52953 0
M  V30 3736 H 356.082 -0.255928 3.65706 0
M  V30 3737 H 355.73 -2.65423 4.2727 0
M  V30 3738 H 355.43 -1.57789 5.66018 0
M  V30 3739 H 356.954 -2.50577 5.56816 0
M  V30 3740 H 358.368 -0.23996 5.72798 0
M  V30 3741 H 356.765 0.51026 5.97927 0
M  V30 3742 H 357.835 1.13911 4.7133 0
M  V30 3743 N 359.178 -1.55987 0.224894 0
M  V30 3744 C 360.141 -2.19178 -0.670348 0
M  V30 3745 C 361.141 -1.15461 -1.11917 0
M  V30 3746 O 362.331 -1.40675 -1.02743 0
M  V30 3747 C 359.463 -2.81777 -1.9187 0
M  V30 3748 H 360.656 -2.99662 -0.119364 0
M  V30 3749 H 358.209 -1.5628 -0.0247128 0
M  V30 3750 H 358.944 -2.05172 -2.51147 0
M  V30 3751 H 358.729 -3.57732 -1.60531 0
M  V30 3752 H 360.219 -3.30205 -2.55645 0
M  V30 3753 N 360.656 0.0484629 -1.57525 0
M  V30 3754 C 361.933 0.777447 -1.79486 0
M  V30 3755 C 362.313 1.94597 -0.818251 0
M  V30 3756 O 361.661 2.28047 0.143767 0
M  V30 3757 C 361.871 1.22864 -3.26658 0
M  V30 3758 C 363.219 1.65251 -3.91123 0
M  V30 3759 O 364.243 1.32372 -3.3069 0
M  V30 3760 O 363.102 2.26207 -4.97486 0
M  V30 3761 H 360.196 0.374357 -0.737419 0
M  V30 3762 H 362.742 0.0267359 -1.69679 0
M  V30 3763 H 361.514 0.393589 -3.89316 0
M  V30 3764 H 361.137 2.03996 -3.41279 0
M  V30 3765 N 362.134 1.5431 0.320358 0
M  V30 3766 C 363.55 1.45091 0.664889 0
M  V30 3767 C 363.75 0.626382 1.91517 0
M  V30 3768 O 362.806 0.126443 2.52183 0
M  V30 3769 C 364.119 2.88848 0.83591 0
M  V30 3770 C 365.667 2.9877 0.933046 0
M  V30 3771 C 366.142 4.43683 1.13621 0
M  V30 3772 N 367.633 4.47309 1.20287 0
M  V30 3773 C 368.368 5.56595 1.37801 0
M  V30 3774 N 367.864 6.75844 1.52338 0
M  V30 3775 N 369.657 5.44248 1.40535 0
M  V30 3776 H 361.808 2.06398 -0.501374 0
M  V30 3777 H 364.071 0.933963 -0.162534 0
M  V30 3778 H 363.777 3.51698 -0.0116092 0
M  V30 3779 H 363.651 3.35148 1.73078 0
M  V30 3780 H 366.038 2.36045 1.77107 0
M  V30 3781 H 366.119 2.55796 0.0145782 0
M  V30 3782 H 365.763 5.06995 0.303032 0
M  V30 3783 H 365.693 4.84269 2.0686 0
M  V30 3784 H 368.184 3.61388 1.10485 0
M  V30 3785 H 368.497 7.54892 1.65403 0
M  V30 3786 H 366.842 6.78746 1.4943 0
M  V30 3787 H 370.033 4.50038 1.28777 0
M  V30 3788 H 370.206 6.29473 1.53842 0
M  V30 3789 N 363.613 -0.582584 1.46437 0
M  V30 3790 C 364.861 -1.33814 1.51453 0
M  V30 3791 C 365.182 -1.94277 0.167792 0
M  V30 3792 O 364.452 -1.78566 -0.805677 0
M  V30 3793 H 363.032 -0.496838 0.557818 0
M  V30 3794 H 365.694 -0.682281 1.82568 0
M  V30 3795 H 364.79 -2.14479 2.26728 0
M  V30 3796 N 365.091 -1.34144 -0.827227 0
M  V30 3797 C 366.337 -1.26446 -1.58554 0
M  V30 3798 C 366.67 0.1664 -1.93486 0
M  V30 3799 O 365.945 1.1107 -1.59667 0
M  V30 3800 C 366.228 -2.15111 -2.8879 0
M  V30 3801 C 366.081 -3.66712 -2.60465 0
M  V30 3802 C 367.4 -2.03311 -3.90324 0
M  V30 3803 H 364.519 -0.46067 -0.575284 0
M  V30 3804 H 367.161 -1.64356 -0.953269 0
M  V30 3805 H 365.311 -1.8291 -3.42748 0
M  V30 3806 H 366.983 -4.09259 -2.1285 0
M  V30 3807 H 365.226 -3.88014 -1.93978 0
M  V30 3808 H 365.897 -4.24112 -3.53317 0
M  V30 3809 H 368.373 -2.31574 -3.45706 0
M  V30 3810 H 367.249 -2.67582 -4.79261 0
M  V30 3811 H 367.51 -1.00879 -4.30437 0
M  V30 3812 N 366.569 1.04691 -1.17803 0
M  V30 3813 C 367.846 1.7472 -0.879328 0
M  V30 3814 C 368.226 2.01812 0.619271 0
M  V30 3815 O 367.574 1.65824 1.57209 0
M  V30 3816 C 367.784 3.03686 -1.71976 0
M  V30 3817 C 369.132 3.77542 -1.94286 0
M  V30 3818 O 370.156 3.13569 -1.68976 0
M  V30 3819 O 369.015 4.92506 -2.36855 0
M  V30 3820 H 366.109 0.760011 -0.326056 0
M  V30 3821 H 368.655 1.10813 -1.28525 0
M  V30 3822 H 367.427 2.79754 -2.73594 0
M  V30 3823 H 367.05 3.75332 -1.31194 0
M  V30 3824 N 368.047 0.979072 1.23499 0
M  V30 3825 C 368.995 0.510604 2.26926 0
M  V30 3826 C 369.989 -0.431691 1.63807 0
M  V30 3827 O 371.195 -0.30573 1.77385 0
M  V30 3828 H 367.57 0.146688 0.737554 0
M  V30 3829 H 369.541 1.39466 2.63803 0
M  V30 3830 C 368.29 -0.172658 3.47271 0
M  V30 3831 H 367.613 0.543331 3.96091 0
M  V30 3832 H 369.053 -0.464101 4.21452 0
M  V30 3833 C 367.512 -1.40345 3.06276 0
M  V30 3834 O 368.042 -2.49978 3.14442 0
M  V30 3835 N 366.248 -1.27362 2.61203 0
M  V30 3836 H 365.795 -0.381584 2.54758 0
M  V30 3837 H 365.753 -2.09822 2.34141 0
M  V30 3838 N 369.525 -1.3858 0.750561 0
M  V30 3839 C 370.753 -2.04471 0.316098 0
M  V30 3840 C 371.168 -1.56606 -1.05452 0
M  V30 3841 O 370.525 -0.737784 -1.66922 0
M  V30 3842 C 370.576 -3.60025 0.326275 0
M  V30 3843 O 370.297 -4.06133 1.6428 0
M  V30 3844 C 371.798 -4.43131 -0.122429 0
M  V30 3845 H 369.018 -0.65717 0.135528 0
M  V30 3846 H 371.562 -1.77329 1.01857 0
M  V30 3847 H 369.717 -3.86014 -0.327431 0
M  V30 3848 H 370.131 -5.00547 1.56693 0
M  V30 3849 H 371.605 -5.51963 -0.0641473 0
M  V30 3850 H 372.082 -4.23333 -1.16988 0
M  V30 3851 H 372.688 -4.22323 0.50229 0
M  V30 3852 N 371.003 -0.499398 -1.49478 0
M  V30 3853 C 372.25 0.0456899 -2.02448 0
M  V30 3854 C 372.578 1.37142 -1.37921 0
M  V30 3855 O 371.833 1.89111 -0.503544 0
M  V30 3856 C 372.132 0.248424 -3.56536 0
M  V30 3857 C 371.798 -0.999107 -4.39692 0
M  V30 3858 C 370.46 -1.34108 -4.62135 0
M  V30 3859 C 372.812 -1.82842 -4.88076 0
M  V30 3860 C 370.14 -2.51191 -5.30208 0
M  V30 3861 C 372.492 -2.99076 -5.57437 0
M  V30 3862 C 371.156 -3.33655 -5.78127 0
M  V30 3863 H 370.426 0.0167191 -0.740811 0
M  V30 3864 H 373.073 -0.65923 -1.79795 0
M  V30 3865 H 371.378 1.03586 -3.77859 0
M  V30 3866 H 373.075 0.684605 -3.95113 0
M  V30 3867 H 369.665 -0.722729 -4.22463 0
M  V30 3868 H 373.849 -1.57737 -4.70566 0
M  V30 3869 H 369.105 -2.78221 -5.44429 0
M  V30 3870 H 373.279 -3.63664 -5.93904 0
M  V30 3871 H 370.906 -4.24483 -6.30649 0
M  V30 3872 N 372.481 1.55866 -0.233164 0
M  V30 3873 C 373.444 2.1953 0.658715 0
M  V30 3874 C 374.444 1.16053 1.11303 0
M  V30 3875 O 375.634 1.41218 1.01996 0
M  V30 3876 C 372.766 2.82791 1.90373 0
M  V30 3877 H 373.959 2.99721 0.10347 0
M  V30 3878 H 371.512 1.56291 0.0164245 0
M  V30 3879 H 372.247 2.06501 2.50056 0
M  V30 3880 H 372.032 3.58578 1.58632 0
M  V30 3881 H 373.522 3.31556 2.53891 0
M  V30 3882 N 373.959 -0.0401083 1.57549 0
M  V30 3883 C 375.236 -0.767917 1.79896 0
M  V30 3884 C 375.616 -1.9416 0.82856 0
M  V30 3885 O 374.964 -2.2812 -0.131671 0
M  V30 3886 C 375.174 -1.2113 3.27305 0
M  V30 3887 C 376.522 -1.63175 3.91994 0
M  V30 3888 O 377.546 -1.30616 3.31388 0
M  V30 3889 O 376.405 -2.23565 4.98679 0
M  V30 3890 H 373.499 -0.370441 0.739393 0
M  V30 3891 H 376.045 -0.017737 1.69691 0
M  V30 3892 H 374.817 -0.372937 3.89519 0
M  V30 3893 H 374.44 -2.02183 3.42356 0
M  V30 3894 N 375.437 -1.54477 -0.31217 0
M  V30 3895 C 376.347 -1.87695 -1.4074 0
M  V30 3896 C 377.363 -0.769975 -1.56036 0
M  V30 3897 O 378.539 -1.06537 -1.70915 0
M  V30 3898 C 375.604 -2.10755 -2.75287 0
M  V30 3899 C 374.665 -3.34514 -2.69071 0
M  V30 3900 C 373.898 -3.56465 -3.97201 0
M  V30 3901 O 374.121 -2.81637 -4.96021 0
M  V30 3902 O 373.055 -4.49964 -3.9977 0
M  V30 3903 H 376.881 -2.80849 -1.15574 0
M  V30 3904 H 374.466 -1.40526 -0.507228 0
M  V30 3905 H 376.348 -2.27188 -3.54913 0
M  V30 3906 H 375.023 -1.20788 -3.0032 0
M  V30 3907 H 373.93 -3.23456 -1.87955 0
M  V30 3908 H 375.263 -4.24575 -2.48992 0
M  V30 3909 N 376.915 0.57481 -1.46744 0
M  V30 3910 C 377.845 1.69337 -1.60771 0
M  V30 3911 C 378.826 1.63825 -0.457736 0
M  V30 3912 O 380.011 1.8172 -0.684947 0
M  V30 3913 C 377.141 3.0798 -1.60517 0
M  V30 3914 C 376.095 3.28327 -2.74564 0
M  V30 3915 C 375.421 4.67578 -2.59373 0
M  V30 3916 C 376.721 3.15398 -4.16319 0
M  V30 3917 H 378.415 1.57853 -2.54407 0
M  V30 3918 H 375.961 0.75799 -1.22436 0
M  V30 3919 H 377.914 3.86061 -1.68923 0
M  V30 3920 H 376.638 3.20381 -0.634305 0
M  V30 3921 H 375.297 2.52649 -2.65639 0
M  V30 3922 H 374.945 4.76755 -1.60353 0
M  V30 3923 H 374.645 4.82144 -3.35873 0
M  V30 3924 H 376.169 5.47817 -2.69682 0
M  V30 3925 H 377.583 3.83315 -4.26313 0
M  V30 3926 H 375.98 3.41482 -4.93468 0
M  V30 3927 H 377.05 2.12372 -4.3592 0
M  V30 3928 N 378.394 1.34581 0.820102 0
M  V30 3929 C 379.64 1.27285 1.57881 0
M  V30 3930 C 379.973 -0.156137 1.93571 0
M  V30 3931 O 379.248 -1.10222 1.60254 0
M  V30 3932 C 379.531 2.16639 2.87645 0
M  V30 3933 C 379.384 3.68088 2.58517 0
M  V30 3934 C 380.703 2.05378 3.8924 0
M  V30 3935 H 377.822 0.463714 0.572833 0
M  V30 3936 H 380.464 1.64859 0.944539 0
M  V30 3937 H 378.614 1.84725 3.41773 0
M  V30 3938 H 380.286 4.10382 2.10676 0
M  V30 3939 H 378.529 3.89038 1.91917 0
M  V30 3940 H 379.2 4.2598 3.51063 0
M  V30 3941 H 381.676 2.33404 3.44473 0
M  V30 3942 H 380.552 2.7012 4.77835 0
M  V30 3943 H 380.813 1.0316 4.29896 0
M  V30 3944 N 379.872 -1.04064 1.18357 0
M  V30 3945 C 380.782 -2.15569 0.925596 0
M  V30 3946 C 381.798 -1.7365 -0.110295 0
M  V30 3947 O 382.974 -2.01273 0.0716218 0
M  V30 3948 C 380.039 -3.43704 0.454836 0
M  V30 3949 C 379.1 -4.00004 1.55869 0
M  V30 3950 C 378.333 -5.22023 1.1103 0
M  V30 3951 O 378.556 -5.70392 -0.0309756 0
M  V30 3952 O 377.49 -5.70856 1.90805 0
M  V30 3953 H 381.316 -2.40187 1.8586 0
M  V30 3954 H 378.901 -1.1402 0.965394 0
M  V30 3955 H 380.783 -4.20923 0.200382 0
M  V30 3956 H 379.458 -3.20559 -0.449876 0
M  V30 3957 H 378.365 -3.24172 1.86716 0
M  V30 3958 H 379.698 -4.2749 2.43953 0
M  V30 3959 N 381.35 -0.985608 -1.22978 0
M  V30 3960 C 382.28 -0.549649 -2.26939 0
M  V30 3961 C 383.261 0.419803 -1.64838 0
M  V30 3962 O 384.446 0.31203 -1.91677 0
M  V30 3963 C 381.576 0.143652 -3.47003 0
M  V30 3964 C 380.53 -0.743606 -4.21491 0
M  V30 3965 C 379.856 0.0822027 -5.34637 0
M  V30 3966 C 381.156 -2.03694 -4.80943 0
M  V30 3967 H 382.85 -1.41862 -2.63658 0
M  V30 3968 H 380.396 -0.683571 -1.26741 0
M  V30 3969 H 382.349 0.459985 -4.18882 0
M  V30 3970 H 381.073 1.04711 -3.09359 0
M  V30 3971 H 379.732 -1.04347 -3.51436 0
M  V30 3972 H 379.38 0.986359 -4.93234 0
M  V30 3973 H 379.08 -0.508377 -5.85397 0
M  V30 3974 H 380.604 0.392797 -6.09335 0
M  V30 3975 H 382.018 -1.78504 -5.44802 0
M  V30 3976 H 380.415 -2.57573 -5.42011 0
M  V30 3977 H 381.485 -2.72042 -4.01399 0
M  V30 3978 N 382.828 1.3818 -0.7579 0
M  V30 3979 C 384.053 2.04827 -0.325679 0
M  V30 3980 C 384.478 1.56788 1.03919 0
M  V30 3981 O 383.836 0.721811 1.66312 0
M  V30 3982 C 383.884 3.58774 -0.362447 0
M  V30 3983 O 382.988 4.07372 0.642033 0
M  V30 3984 H 382.329 0.64833 -0.143402 0
M  V30 3985 H 384.859 1.7677 -1.03023 0
M  V30 3986 H 384.869 4.07434 -0.214844 0
M  V30 3987 H 383.544 3.93096 -1.35824 0
M  V30 3988 H 382.121 3.70068 0.458688 0
M  V30 3989 N 384.306 0.507319 1.49211 0
M  V30 3990 C 385.534 -0.0315749 2.06876 0
M  V30 3991 C 385.949 -1.30241 1.36685 0
M  V30 3992 O 385.306 -1.76937 0.447152 0
M  V30 3993 C 385.357 -0.282627 3.60393 0
M  V30 3994 O 385.078 0.937835 4.27944 0
M  V30 3995 C 386.579 -0.864453 4.3479 0
M  V30 3996 H 383.799 0.0233048 0.670595 0
M  V30 3997 H 386.343 0.706484 1.91909 0
M  V30 3998 H 384.498 -0.97068 3.75042 0
M  V30 3999 H 384.912 0.704567 5.19746 0
M  V30 4000 H 386.386 -0.989664 5.43056 0
M  V30 4001 H 386.863 -1.86382 3.97692 0
M  V30 4002 H 387.469 -0.213672 4.24763 0
M  V30 4003 N 385.784 -1.5574 0.241426 0
M  V30 4004 C 386.747 -2.19877 -0.647063 0
M  V30 4005 C 387.747 -1.16642 -1.10686 0
M  V30 4006 O 388.937 -1.41757 -1.01245 0
M  V30 4007 C 386.069 -2.83797 -1.88871 0
M  V30 4008 H 387.262 -2.99772 -0.087574 0
M  V30 4009 H 384.815 -1.56298 -0.00813574 0
M  V30 4010 H 385.55 -2.07824 -2.48957 0
M  V30 4011 H 385.335 -3.59414 -1.56728 0
M  V30 4012 H 386.825 -3.32898 -2.52129 0
M  V30 4013 N 387.262 0.0317525 -1.57568 0
M  V30 4014 C 388.192 1.03274 -2.0942 0
M  V30 4015 C 389.173 1.3788 -0.996143 0
M  V30 4016 O 390.358 1.46811 -1.27122 0
M  V30 4017 C 387.488 2.33448 -2.57137 0
M  V30 4018 C 386.442 2.13091 -3.71182 0
M  V30 4019 C 385.768 3.49001 -4.05095 0
M  V30 4020 C 387.068 1.51928 -4.99715 0
M  V30 4021 H 388.762 0.60112 -2.93303 0
M  V30 4022 H 386.308 0.287705 -1.41097 0
M  V30 4023 H 388.261 3.03802 -2.92032 0
M  V30 4024 H 386.985 2.78665 -1.70333 0
M  V30 4025 H 385.644 1.45171 -3.36632 0
M  V30 4026 H 385.292 3.91862 -3.15362 0
M  V30 4027 H 384.992 3.36207 -4.81911 0
M  V30 4028 H 386.516 4.20721 -4.42522 0
M  V30 4029 H 387.93 2.12196 -5.32584 0
M  V30 4030 H 386.327 1.49716 -5.81124 0
M  V30 4031 H 387.397 0.484811 -4.8247 0
M  V30 4032 N 388.74 1.54641 0.303973 0
M  V30 4033 C 389.65 1.88439 1.39743 0
M  V30 4034 C 390.666 0.778239 1.55626 0
M  V30 4035 O 391.842 1.07442 1.70347 0
M  V30 4036 C 388.907 2.12212 2.74166 0
M  V30 4037 C 387.968 3.35936 2.67293 0
M  V30 4038 C 387.201 3.58566 3.95305 0
M  V30 4039 O 387.424 2.84263 4.9452 0
M  V30 4040 O 386.358 4.52078 3.97378 0
M  V30 4041 H 390.184 2.81458 1.14083 0
M  V30 4042 H 387.769 1.40793 0.499768 0
M  V30 4043 H 389.651 2.29067 3.53704 0
M  V30 4044 H 388.326 1.22379 2.99675 0
M  V30 4045 H 387.233 3.24448 1.86237 0
M  V30 4046 H 388.566 4.2589 2.46736 0
M  V30 4047 N 390.218 -0.567019 1.47046 0
M  V30 4048 C 391.168 -1.67018 1.55207 0
M  V30 4049 C 392.152 -1.55543 0.411714 0
M  V30 4050 O 393.344 -1.64192 0.661064 0
M  V30 4051 C 390.473 -3.05801 1.56014 0
M  V30 4052 C 389.559 -3.22515 2.75399 0
M  V30 4053 N 389.95 -3.09329 4.00186 0
M  V30 4054 C 388.248 -3.53493 2.71954 0
M  V30 4055 C 388.949 -3.2847 4.80086 0
M  V30 4056 N 387.925 -3.54352 4.12233 0
M  V30 4057 H 391.727 -1.55377 2.4947 0
M  V30 4058 H 389.241 -0.771503 1.42904 0
M  V30 4059 H 391.238 -3.84996 1.59949 0
M  V30 4060 H 389.898 -3.18561 0.628396 0
M  V30 4061 H 390.909 -2.86863 4.31196 0
M  V30 4062 H 387.586 -3.7284 1.87873 0
M  V30 4063 H 388.976 -3.23326 5.88991 0
M  V30 4064 N 391.696 -1.35014 -0.812953 0
M  V30 4065 C 392.628 -1.23262 -1.93233 0
M  V30 4066 C 393.641 -0.157371 -1.62038 0
M  V30 4067 O 394.83 -0.410096 -1.73725 0
M  V30 4068 C 391.93 -0.87392 -3.27438 0
M  V30 4069 C 391.103 -2.04622 -3.86586 0
M  V30 4070 C 390.162 -1.66432 -4.99186 0
M  V30 4071 O 389.188 -2.38222 -5.16951 0
M  V30 4072 N 390.39 -0.584248 -5.77552 0
M  V30 4073 H 393.155 -2.19699 -2.03844 0
M  V30 4074 H 390.716 -1.281 -0.99005 0
M  V30 4075 H 392.708 -0.600039 -4.00227 0
M  V30 4076 H 391.278 0.00057392 -3.126 0
M  V30 4077 H 390.498 -2.48427 -3.06068 0
M  V30 4078 H 391.786 -2.82999 -4.22835 0
M  V30 4079 H 391.184 0.0123526 -5.65699 0
M  V30 4080 H 389.741 -0.37013 -6.50748 0
M  V30 4081 N 393.175 1.03435 -1.18907 0
M  V30 4082 C 394.085 2.15075 -0.937015 0
M  V30 4083 C 395.101 1.73706 0.101085 0
M  V30 4084 O 396.277 2.01232 -0.0822948 0
M  V30 4085 C 393.342 3.43458 -0.473057 0
M  V30 4086 C 392.403 3.99172 -1.57989 0
M  V30 4087 C 391.636 5.21427 -1.13797 0
M  V30 4088 O 391.859 5.704 0.000725941 0
M  V30 4089 O 390.793 5.69837 -1.9383 0
M  V30 4090 H 394.619 2.39198 -1.87131 0
M  V30 4091 H 392.204 1.13506 -0.971427 0
M  V30 4092 H 394.086 4.20811 -0.222702 0
M  V30 4093 H 392.761 3.20793 0.432869 0
M  V30 4094 H 391.668 3.23178 -1.88433 0
M  V30 4095 H 393.001 4.2619 -2.46217 0
M  V30 4096 N 394.653 0.992116 1.22453 0
M  V30 4097 C 395.883 0.684949 1.94915 0
M  V30 4098 C 396.291 -0.754292 1.73514 0
M  V30 4099 O 395.634 -1.52056 1.03076 0
M  V30 4100 C 395.696 0.910054 3.47791 0
M  V30 4101 C 395.36 2.33363 3.92926 0
M  V30 4102 C 396.357 3.31308 4.00663 0
M  V30 4103 C 394.042 2.66785 4.25595 0
M  V30 4104 C 396.036 4.6075 4.40441 0
M  V30 4105 C 393.723 3.96446 4.65053 0
M  V30 4106 C 394.721 4.9324 4.72444 0
M  V30 4107 O 394.409 6.20584 5.1101 0
M  V30 4108 H 394.141 0.25258 0.62704 0
M  V30 4109 H 396.695 1.32939 1.56577 0
M  V30 4110 H 394.925 0.208443 3.86138 0
M  V30 4111 H 396.614 0.598257 4.01467 0
M  V30 4112 H 397.38 3.0682 3.75615 0
M  V30 4113 H 393.259 1.92148 4.19047 0
M  V30 4114 H 396.803 5.363 4.46126 0
M  V30 4115 H 392.7 4.20724 4.89552 0
M  V30 4116 H 393.468 6.24509 5.29085 0
M  V30 4117 N 396.131 -1.37776 0.765217 0
M  V30 4118 C 397.38 -1.99092 0.323307 0
M  V30 4119 C 397.693 -1.61434 -1.10446 0
M  V30 4120 O 398.899 -2.15805 -1.64743 0
M  V30 4121 C 397.355 -3.56019 0.527098 0
M  V30 4122 C 396.963 -4.0262 1.96471 0
M  V30 4123 C 398.707 -4.2424 0.148483 0
M  V30 4124 C 396.614 -5.52233 2.11644 0
M  V30 4125 H 395.544 -0.744846 0.117137 0
M  V30 4126 H 398.195 -1.57391 0.943417 0
M  V30 4127 H 396.577 -3.95667 -0.162372 0
M  V30 4128 H 397.751 -3.74234 2.68859 0
M  V30 4129 H 396.066 -3.47161 2.29931 0
M  V30 4130 H 398.663 -5.34159 0.240456 0
M  V30 4131 H 399.006 -4.06446 -0.900422 0
M  V30 4132 H 399.539 -3.89872 0.79025 0
M  V30 4133 H 396.278 -5.74945 3.1483 0
M  V30 4134 H 395.798 -5.82324 1.4373 0
M  V30 4135 H 397.477 -6.18106 1.91193 0
M  V30 4136 N 397.609 -0.515225 -1.4894 0
M  V30 4137 C 398.837 0.0206034 -2.0689 0
M  V30 4138 C 399.252 1.29514 -1.37374 0
M  V30 4139 O 398.609 1.76698 -0.456529 0
M  V30 4140 C 398.66 0.26351 -3.60538 0
M  V30 4141 O 398.381 -0.960517 -4.27441 0
M  V30 4142 C 399.882 0.841383 -4.35242 0
M  V30 4143 H 397.102 -0.0268608 -0.670462 0
M  V30 4144 H 399.646 -0.716651 -1.91532 0
M  V30 4145 H 397.801 0.950777 -3.75552 0
M  V30 4146 H 398.215 -0.73212 -5.19365 0
M  V30 4147 H 399.689 0.96085 -5.43573 0
M  V30 4148 H 400.166 1.8427 -3.98674 0
M  V30 4149 H 400.772 0.191143 -4.2487 0
M  V30 4150 N 399.087 1.5561 -0.249682 0
M  V30 4151 C 400.334 1.99011 0.374287 0
M  V30 4152 C 400.662 1.13785 1.57744 0
M  V30 4153 O 399.917 0.189326 1.94782 0
M  V30 4154 C 400.216 3.4775 0.824887 0
M  V30 4155 C 399.882 4.50086 -0.270819 0
M  V30 4156 C 398.544 4.77791 -0.571746 0
M  V30 4157 C 400.896 5.11312 -1.01041 0
M  V30 4158 C 398.224 5.63997 -1.61629 0
M  V30 4159 C 400.576 5.98651 -2.0445 0
M  V30 4160 C 399.24 6.24688 -2.35204 0
M  V30 4161 H 398.51 0.728233 0.136961 0
M  V30 4162 H 401.157 1.88122 -0.358087 0
M  V30 4163 H 399.462 3.55985 1.63651 0
M  V30 4164 H 401.159 3.78721 1.31799 0
M  V30 4165 H 397.749 4.28592 -0.026136 0
M  V30 4166 H 401.933 4.89953 -0.791177 0
M  V30 4167 H 397.189 5.82425 -1.85988 0
M  V30 4168 H 401.363 6.45135 -2.62248 0
M  V30 4169 H 398.99 6.91281 -3.16282 0
M  V30 4170 N 400.565 -0.0233959 1.57583 0
M  V30 4171 C 401.495 -1.02162 2.09965 0
M  V30 4172 C 402.476 -1.3735 1.00344 0
M  V30 4173 O 403.661 -1.46135 1.27899 0
M  V30 4174 C 400.791 -2.32081 2.58371 0
M  V30 4175 C 399.745 -2.1112 3.72307 0
M  V30 4176 C 399.071 -3.46848 4.06941 0
M  V30 4177 C 400.371 -1.49276 5.00514 0
M  V30 4178 H 402.065 -0.585557 2.93618 0
M  V30 4179 H 399.611 -0.280218 1.41247 0
M  V30 4180 H 401.564 -3.02249 2.93639 0
M  V30 4181 H 400.288 -2.77758 1.71808 0
M  V30 4182 H 398.947 -1.43384 3.37397 0
M  V30 4183 H 398.595 -3.90184 3.17436 0
M  V30 4184 H 398.295 -3.33646 4.83688 0
M  V30 4185 H 399.819 -4.18369 4.44747 0
M  V30 4186 H 401.233 -2.09368 5.33702 0
M  V30 4187 H 399.63 -1.46632 5.8191 0
M  V30 4188 H 400.7 -0.459217 4.82721 0
M  V30 4189 N 402.043 -1.548 -0.295768 0
M  V30 4190 C 402.953 -1.89177 -1.38742 0
M  V30 4191 C 403.969 -0.786481 -1.55211 0
M  V30 4192 O 405.145 -1.08344 -1.69775 0
M  V30 4193 C 402.21 -2.13663 -2.73036 0
M  V30 4194 C 401.271 -3.37349 -2.65508 0
M  V30 4195 C 400.504 -3.60658 -3.93398 0
M  V30 4196 O 400.727 -2.86882 -4.93006 0
M  V30 4197 O 399.661 -4.54179 -3.94975 0
M  V30 4198 H 403.487 -2.82059 -1.12589 0
M  V30 4199 H 401.072 -1.41056 -0.492295 0
M  V30 4200 H 402.954 -2.3094 -3.52484 0
M  V30 4201 H 401.629 -1.23967 -2.99022 0
M  V30 4202 H 400.536 -3.25431 -1.84514 0
M  V30 4203 H 401.869 -4.27192 -2.44474 0
M  V30 4204 N 403.521 0.559213 -1.47345 0
M  V30 4205 C 404.798 1.31997 -1.44348 0
M  V30 4206 C 405.178 2.1064 -0.139358 0
M  V30 4207 O 404.526 2.1091 0.879153 0
M  V30 4208 C 404.736 2.22618 -2.68779 0
M  V30 4209 C 406.084 2.83701 -3.1591 0
M  V30 4210 O 407.108 2.32921 -2.69493 0
M  V30 4211 O 405.967 3.75993 -3.966 0
M  V30 4212 H 403.061 0.594251 -0.575147 0
M  V30 4213 H 405.607 0.578282 -1.59543 0
M  V30 4214 H 404.379 1.64093 -3.55231 0
M  V30 4215 H 404.002 3.04085 -2.5616 0
M  V30 4216 N 404.999 1.35443 0.805782 0
M  V30 4217 C 405.929 1.31095 1.93226 0
M  V30 4218 C 406.91 0.185244 1.69088 0
M  V30 4219 O 408.095 0.380332 1.90439 0
M  V30 4220 C 405.225 1.08299 3.29983 0
M  V30 4221 C 404.179 2.17519 3.68605 0
M  V30 4222 C 403.505 1.79887 5.03532 0
M  V30 4223 C 404.805 3.5949 3.78898 0
M  V30 4224 H 406.499 2.25352 1.97122 0
M  V30 4225 H 404.045 1.0848 0.946996 0
M  V30 4226 H 405.998 1.03897 4.08391 0
M  V30 4227 H 404.722 0.104885 3.26432 0
M  V30 4228 H 403.381 2.2102 2.92482 0
M  V30 4229 H 403.029 0.80693 4.96485 0
M  V30 4230 H 402.729 2.53001 5.30344 0
M  V30 4231 H 404.253 1.77011 5.84379 0
M  V30 4232 H 405.667 3.58307 4.47536 0
M  V30 4233 H 404.064 4.31371 4.1718 0
M  V30 4234 H 405.134 3.95584 2.80431 0
M  V30 4235 N 406.477 -1.02803 1.19454 0
M  V30 4236 C 407.424 -2.11099 0.933046 0
M  V30 4237 C 408.394 -1.65571 -0.132447 0
M  V30 4238 O 409.579 -1.90797 0.00987576 0
M  V30 4239 C 406.719 -3.41763 0.478747 0
M  V30 4240 C 405.832 -4.00833 1.6111 0
M  V30 4241 C 404.967 -5.19511 1.10825 0
M  V30 4242 C 404.006 -5.70639 2.21445 0
M  V30 4243 N 403.143 -6.80589 1.72461 0
M  V30 4244 H 407.983 -2.32804 1.86028 0
M  V30 4245 H 405.52 -1.14179 0.927441 0
M  V30 4246 H 407.478 -4.16736 0.196745 0
M  V30 4247 H 406.108 -3.20166 -0.411493 0
M  V30 4248 H 405.16 -3.23066 2.00829 0
M  V30 4249 H 406.472 -4.34794 2.4445 0
M  V30 4250 H 405.626 -6.01645 0.781533 0
M  V30 4251 H 404.365 -4.87086 0.244606 0
M  V30 4252 H 403.37 -4.87116 2.54947 0
M  V30 4253 H 404.595 -6.05102 3.08267 0
M  V30 4254 H 402.541 -6.50016 0.884056 0
M  V30 4255 H 402.458 -7.13681 2.49389 0
M  V30 4256 H 403.726 -7.66317 1.42755 0
M  V30 4257 N 407.956 -0.998596 -1.21925 0
M  V30 4258 C 409.181 -0.696015 -1.95372 0
M  V30 4259 C 409.606 0.733826 -1.73195 0
M  V30 4260 O 408.964 1.50242 -1.01474 0
M  V30 4261 C 409.012 -1.01466 -3.4603 0
M  V30 4262 O 408.116 -0.116415 -4.12236 0
M  V30 4263 H 407.457 -0.259938 -0.611006 0
M  V30 4264 H 409.987 -1.33711 -1.54863 0
M  V30 4265 H 409.997 -0.958855 -3.96573 0
M  V30 4266 H 408.672 -2.05653 -3.61497 0
M  V30 4267 H 407.249 -0.228193 -3.72201 0
M  V30 4268 N 409.434 1.37368 -0.772513 0
M  V30 4269 C 410.681 1.99673 -0.337182 0
M  V30 4270 C 411.009 1.61324 1.0865 0
M  V30 4271 O 410.264 0.851377 1.7621 0
M  V30 4272 C 410.563 3.54817 -0.428876 0
M  V30 4273 C 410.229 4.12936 -1.81092 0
M  V30 4274 C 408.891 4.28523 -2.1891 0
M  V30 4275 C 411.243 4.44801 -2.71664 0
M  V30 4276 C 408.571 4.73277 -3.46735 0
M  V30 4277 C 410.923 4.90981 -3.98899 0
M  V30 4278 C 409.587 5.04773 -4.36761 0
M  V30 4279 H 408.857 0.730656 -0.123384 0
M  V30 4280 H 411.504 1.64124 -0.986686 0
M  V30 4281 H 409.809 3.90618 0.304167 0
M  V30 4282 H 411.506 4.00933 -0.0733334 0
M  V30 4283 H 408.096 4.01233 -1.50699 0
M  V30 4284 H 412.28 4.32344 -2.43706 0
M  V30 4285 H 407.536 4.82142 -3.75964 0
M  V30 4286 H 411.71 5.14603 -4.69208 0
M  V30 4287 H 409.337 5.39211 -5.35868 0
M  V30 4288 N 410.912 0.523116 1.48665 0
M  V30 4289 C 412.158 -0.0134963 2.02796 0
M  V30 4290 C 412.491 -1.34582 1.40004 0
M  V30 4291 O 411.766 -1.86756 0.543381 0
M  V30 4292 C 412.049 -0.14276 3.59817 0
M  V30 4293 C 411.902 1.21425 4.331 0
M  V30 4294 C 413.221 -0.872856 4.31357 0
M  V30 4295 H 410.34 -0.00343074 0.736992 0
M  V30 4296 H 412.982 0.678816 1.7746 0
M  V30 4297 H 411.132 -0.732401 3.81534 0
M  V30 4298 H 412.804 1.84447 4.2282 0
M  V30 4299 H 411.047 1.79791 3.94788 0
M  V30 4300 H 411.718 1.07687 5.41394 0
M  V30 4301 H 414.194 -0.372555 4.14429 0
M  V30 4302 H 413.07 -0.932185 5.40927 0
M  V30 4303 H 413.331 -1.92161 3.98154 0
M  V30 4304 N 412.39 -1.55475 0.257931 0
M  V30 4305 C 413.337 -2.21837 -0.636939 0
M  V30 4306 C 414.307 -1.18596 -1.16294 0
M  V30 4307 O 415.492 -1.47081 -1.21539 0
M  V30 4308 C 412.632 -2.9301 -1.82317 0
M  V30 4309 C 411.745 -4.10931 -1.33265 0
M  V30 4310 C 410.88 -4.69791 -2.47931 0
M  V30 4311 C 409.919 -5.7994 -1.95796 0
M  V30 4312 N 409.056 -6.32935 -3.0387 0
M  V30 4313 H 413.896 -2.9793 -0.0643591 0
M  V30 4314 H 411.433 -1.47086 -0.0200031 0
M  V30 4315 H 413.391 -3.3248 -2.52018 0
M  V30 4316 H 412.021 -2.1937 -2.36805 0
M  V30 4317 H 411.073 -3.76699 -0.52931 0
M  V30 4318 H 412.385 -4.90417 -0.910654 0
M  V30 4319 H 411.539 -5.11892 -3.25656 0
M  V30 4320 H 410.278 -3.89545 -2.93438 0
M  V30 4321 H 409.283 -5.37305 -1.16546 0
M  V30 4322 H 410.508 -6.62043 -1.51246 0
M  V30 4323 H 408.454 -5.55591 -3.48791 0
M  V30 4324 H 408.371 -7.07645 -2.66035 0
M  V30 4325 H 409.639 -6.79695 -3.81621 0
M  V30 4326 N 413.868 0.0150385 -1.57593 0
M  V30 4327 C 415.093 0.718067 -1.94573 0
M  V30 4328 C 415.518 1.6734 -0.859005 0
M  V30 4329 O 414.876 1.80362 0.184147 0
M  V30 4330 C 414.924 1.43918 -3.30636 0
M  V30 4331 O 414.028 2.55299 -3.23876 0
M  V30 4332 H 413.369 0.192125 -0.635597 0
M  V30 4333 H 415.899 -0.0336708 -2.04572 0
M  V30 4334 H 415.909 1.80598 -3.65853 0
M  V30 4335 H 414.584 0.738619 -4.09289 0
M  V30 4336 H 413.161 2.21058 -3.00312 0
M  V30 4337 N 415.346 1.54954 0.287554 0
M  V30 4338 C 416.278 1.83224 1.37701 0
M  V30 4339 C 417.291 0.715898 1.46215 0
M  V30 4340 O 418.48 0.993565 1.48292 0
M  V30 4341 C 415.58 1.96723 2.75959 0
M  V30 4342 C 414.753 3.27253 2.90215 0
M  V30 4343 C 413.812 3.30998 4.09056 0
M  V30 4344 O 412.838 4.04457 4.00503 0
M  V30 4345 N 414.04 2.57353 5.20336 0
M  V30 4346 H 416.805 2.77254 1.138 0
M  V30 4347 H 414.366 1.54694 0.477652 0
M  V30 4348 H 416.358 1.96615 3.5373 0
M  V30 4349 H 414.928 1.09626 2.92747 0
M  V30 4350 H 414.148 3.40022 1.99447 0
M  V30 4351 H 415.436 4.13365 2.96659 0
M  V30 4352 H 414.834 1.97327 5.30169 0
M  V30 4353 H 413.391 2.62984 5.96391 0
M  V30 4354 O 416.863 -0.433401 1.55576 0
M  V30 4355 H 417.554 -1.08681 1.60337 0
M  V30 END ATOM
M  V30 BEGIN BOND
M  V30 END BOND
M  V30 END CTAB
M  END
$$$$
