drugbank_target|Q07011 Tumor necrosis factor receptor superfamily member 9 (DB12077)
 OpenBabel12092120323D

  0  0  0     0  0            999 V3000
M  V30 BEGIN CTAB
M  V30 COUNTS 3830 3869 0 0 0
M  V30 BEGIN ATOM
M  V30 1 H -0.908 1.98254 -0.117106 0
M  V30 2 N 0 1.576 0 0
M  V30 3 C 0.933 2.03868 1.02534 0
M  V30 4 C 1.911 0.928543 1.3348 0
M  V30 5 O 3.095 1.19667 1.45644 0
M  V30 6 C 0.222 2.43627 2.35294 0
M  V30 7 C -0.732 3.65373 2.2001 0
M  V30 8 S 0.101 5.13292 1.52614 0
M  V30 9 C 1.257 5.56322 2.86805 0
M  V30 10 H 1.49 2.90518 0.631377 0
M  V30 11 H -0.977 1.52953 0.210867 0
M  V30 12 H 0.981 2.67203 3.11629 0
M  V30 13 H -0.358 1.57376 2.7183 0
M  V30 14 H -1.165 3.90944 3.18086 0
M  V30 15 H -1.563 3.418 1.51819 0
M  V30 16 H 0.729 5.58782 3.83104 0
M  V30 17 H 1.672 6.56266 2.65933 0
M  V30 18 H 2.08 4.83886 2.90714 0
M  V30 19 N 1.4781 -0.272755 1.55222 0
M  V30 20 C 2.7261 -1.00234 1.75492 0
M  V30 21 C 3.0471 -1.8681 0.5592 0
M  V30 22 O 2.3171 -1.91215 -0.425882 0
M  V30 23 H 0.8971 -0.373076 0.647166 0
M  V30 24 H 3.5591 -0.296926 1.92625 0
M  V30 25 H 2.6551 -1.63913 2.65592 0
M  V30 26 N 2.9562 -1.48159 -0.537278 0
M  V30 27 C 3.9042 -1.62573 -1.66352 0
M  V30 28 C 4.8982 -0.492366 -1.62087 0
M  V30 29 O 6.1042 -0.670847 -1.67032 0
M  V30 30 H 2.4792 -0.511992 -0.550789 0
M  V30 31 H 4.4502 -2.57176 -1.51337 0
M  V30 32 C 3.1992 -1.67583 -3.04649 0
M  V30 33 H 2.5222 -2.54151 -3.08622 0
M  V30 34 H 3.9622 -1.81713 -3.83088 0
M  V30 35 C 2.4212 -0.413039 -3.34358 0
M  V30 36 O 2.9512 0.477259 -3.98855 0
M  V30 37 N 1.1572 -0.286961 -2.8918 0
M  V30 38 H 0.7042 -1.01241 -2.36871 0
M  V30 39 H 0.6622 0.556963 -3.09427 0
M  V30 40 N 4.4343 0.785586 -1.36625 0
M  V30 41 C 5.6593 1.57963 -1.34397 0
M  V30 42 C 6.0843 1.87964 0.071526 0
M  V30 43 O 5.4423 1.48182 1.0446 0
M  V30 44 C 5.4903 2.87511 -2.17646 0
M  V30 45 O 4.5943 3.81281 -1.57158 0
M  V30 46 H 3.9353 0.479014 -0.459828 0
M  V30 47 H 6.4653 0.973411 -1.79961 0
M  V30 48 H 6.4753 3.36745 -2.30362 0
M  V30 49 H 5.1503 2.65002 -3.20541 0
M  V30 50 H 3.7273 3.39885 -1.53403 0
M  V30 51 N 5.9124 1.20967 1.01018 0
M  V30 52 C 7.1524 1.03511 1.76252 0
M  V30 53 C 7.5164 -0.42458 1.87247 0
M  V30 54 O 8.7174 -0.719508 2.58991 0
M  V30 55 C 6.9884 1.70726 3.13986 0
M  V30 56 S 8.5474 1.68458 4.05176 0
M  V30 57 H 5.3654 0.371037 0.606508 0
M  V30 58 H 7.9674 1.53628 1.20908 0
M  V30 59 H 6.6714 2.76128 3.03614 0
M  V30 60 H 6.2024 1.20767 3.74405 0
M  V30 61 H 8.2174 0.721987 4.90919 0
M  V30 62 N 7.3905 -1.2043 1.01659 0
M  V30 63 C 8.6205 -1.93496 0.724081 0
M  V30 64 C 9.0285 -1.74998 -0.71918 0
M  V30 65 O 8.3715 -1.06118 -1.49949 0
M  V30 66 C 8.4335 -3.45886 0.97994 0
M  V30 67 C 8.0975 -3.88145 2.41232 0
M  V30 68 C 9.0945 -3.93907 3.39313 0
M  V30 69 C 6.7795 -4.20134 2.75305 0
M  V30 70 C 8.7735 -4.31069 4.6953 0
M  V30 71 C 6.4605 -4.56971 4.05735 0
M  V30 72 C 7.4585 -4.62411 5.02658 0
M  V30 73 O 7.1465 -4.98403 6.30754 0
M  V30 74 H 6.8785 -0.621824 0.265162 0
M  V30 75 H 9.4325 -1.53867 1.36066 0
M  V30 76 H 7.6625 -3.85639 0.286198 0
M  V30 77 H 9.3515 -4.0018 0.679021 0
M  V30 78 H 10.1175 -3.69357 3.14325 0
M  V30 79 H 5.9965 -4.1509 2.00551 0
M  V30 80 H 9.5405 -4.3523 5.45179 0
M  V30 81 H 5.4375 -4.80977 4.30502 0
M  V30 82 H 6.2055 -5.16395 6.35042 0
M  V30 83 N 8.8686 -0.792821 -1.36206 0
M  V30 84 C 9.8166 -0.181555 -2.3189 0
M  V30 85 C 10.8106 0.661025 -1.55971 0
M  V30 86 O 12.0166 0.555728 -1.71206 0
M  V30 87 H 8.3916 -0.0399382 -0.750939 0
M  V30 88 H 10.3626 -1.00394 -2.81005 0
M  V30 89 C 9.1116 0.666444 -3.41253 0
M  V30 90 H 8.4346 0.0274489 -3.99791 0
M  V30 91 H 9.8746 1.06076 -4.10517 0
M  V30 92 C 8.3336 1.82614 -2.83114 0
M  V30 93 O 8.8636 2.9229 -2.75553 0
M  V30 94 N 7.0696 1.63333 -2.40356 0
M  V30 95 H 6.6166 0.741217 -2.46706 0
M  V30 96 H 6.5746 2.41087 -2.01803 0
M  V30 97 N 10.3467 1.47872 -0.545128 0
M  V30 98 C 11.5957 2.01695 -0.0145033 0
M  V30 99 C 11.9087 1.42609 1.33873 0
M  V30 100 O 13.1147 1.88021 1.95858 0
M  V30 101 C 11.5707 3.59892 0.0245068 0
M  V30 102 C 11.1787 4.27966 -1.32475 0
M  V30 103 C 12.9227 4.21507 0.50316 0
M  V30 104 C 10.8297 5.78136 -1.2455 0
M  V30 105 H 9.7597 0.753998 -0.00165172 0
M  V30 106 H 12.4107 1.69985 -0.691175 0
M  V30 107 H 10.7927 3.88509 0.766575 0
M  V30 108 H 11.9667 4.11003 -2.08357 0
M  V30 109 H 10.2817 3.78286 -1.74036 0
M  V30 110 H 12.8787 5.31538 0.580656 0
M  V30 111 H 13.2217 3.87855 1.51243 0
M  V30 112 H 13.7547 3.97376 -0.183681 0
M  V30 113 H 10.4937 6.16388 -2.23039 0
M  V30 114 H 10.0137 5.97469 -0.528282 0
M  V30 115 H 11.6927 6.40099 -0.942488 0
M  V30 116 N 11.8248 0.280983 1.55075 0
M  V30 117 C 13.0708 -0.33461 2.00021 0
M  V30 118 C 13.4038 -1.55063 1.16915 0
M  V30 119 O 12.6788 -1.93006 0.240646 0
M  V30 120 C 12.9618 -0.711007 3.53011 0
M  V30 121 C 12.8148 0.512766 4.46868 0
M  V30 122 C 14.1338 -1.54522 4.12081 0
M  V30 123 H 11.2528 -0.120147 0.727141 0
M  V30 124 H 13.8948 0.389097 1.85973 0
M  V30 125 H 12.0448 -1.32761 3.65112 0
M  V30 126 H 13.7168 1.15131 4.46702 0
M  V30 127 H 11.9598 1.14975 4.18286 0
M  V30 128 H 12.6308 0.205556 5.51617 0
M  V30 129 H 15.1068 -1.02442 4.03293 0
M  V30 130 H 13.9828 -1.77739 5.19327 0
M  V30 131 H 14.2438 -2.52813 3.62682 0
M  V30 132 N 13.3029 -1.57598 0.00835791 0
M  V30 133 C 14.2659 -2.07884 -0.965242 0
M  V30 134 C 15.2659 -0.989825 -1.26725 0
M  V30 135 O 16.4559 -1.25218 -1.21104 0
M  V30 136 C 13.5879 -2.52731 -2.28779 0
M  V30 137 H 14.7809 -2.95178 -0.530112 0
M  V30 138 H 12.3339 -1.54458 -0.239283 0
M  V30 139 H 13.0689 -1.68705 -2.76964 0
M  V30 140 H 12.8539 -3.32272 -2.08177 0
M  V30 141 H 14.3439 -2.91933 -2.98605 0
M  V30 142 N 14.781 0.264519 -1.55364 0
M  V30 143 C 16.009 1.013 -1.80405 0
M  V30 144 C 16.424 1.79618 -0.581622 0
M  V30 145 O 15.781 1.76879 0.449468 0
M  V30 146 C 15.832 1.96487 -3.03439 0
M  V30 147 O 15.553 1.21341 -4.20961 0
M  V30 148 C 17.054 2.83079 -3.41147 0
M  V30 149 H 14.274 0.298875 -0.600762 0
M  V30 150 H 16.818 0.292736 -2.02394 0
M  V30 151 H 14.973 2.63965 -2.83551 0
M  V30 152 H 15.387 1.85573 -4.90574 0
M  V30 153 H 16.861 3.4565 -4.30384 0
M  V30 154 H 17.338 3.53286 -2.60932 0
M  V30 155 H 17.944 2.2108 -3.63323 0
M  V30 156 N 16.2591 1.48442 0.529413 0
M  V30 157 C 17.1891 1.65902 1.64313 0
M  V30 158 C 18.1701 0.507897 1.6234 0
M  V30 159 O 19.3551 0.740503 1.79528 0
M  V30 160 C 16.4851 1.69911 3.02898 0
M  V30 161 C 15.4391 2.8453 3.19729 0
M  V30 162 C 14.7651 2.73629 4.59381 0
M  V30 163 C 16.0651 4.25821 3.02447 0
M  V30 164 H 17.7591 2.5914 1.49955 0
M  V30 165 H 15.3051 1.24709 0.719982 0
M  V30 166 H 17.2581 1.80715 3.80684 0
M  V30 167 H 15.9821 0.732524 3.18279 0
M  V30 168 H 14.6411 2.73283 2.44361 0
M  V30 169 H 14.2891 1.74938 4.71599 0
M  V30 170 H 13.9891 3.50541 4.71588 0
M  V30 171 H 15.5131 2.86401 5.39265 0
M  V30 172 H 16.9271 4.37898 3.70024 0
M  V30 173 H 15.3241 5.03735 3.26146 0
M  V30 174 H 16.3941 4.42244 1.98867 0
M  V30 175 N 17.7372 -0.778329 1.37039 0
M  V30 176 C 18.6672 -1.90546 1.34962 0
M  V30 177 C 19.6482 -1.68681 0.219274 0
M  V30 178 O 20.8332 -1.89634 0.418624 0
M  V30 179 C 17.9632 -3.27734 1.14925 0
M  V30 180 C 16.9172 -3.64147 2.24902 0
M  V30 181 C 16.2432 -4.99806 1.89996 0
M  V30 182 C 17.5432 -3.71579 3.67051 0
M  V30 183 H 19.2372 -1.92541 2.29277 0
M  V30 184 H 16.7832 -0.924948 1.10366 0
M  V30 185 H 18.7362 -4.06215 1.12104 0
M  V30 186 H 17.4602 -3.26154 0.170631 0
M  V30 187 H 16.1192 -2.8797 2.26868 0
M  V30 188 H 15.7672 -4.94759 0.906796 0
M  V30 189 H 15.4672 -5.25139 2.63634 0
M  V30 190 H 16.9912 -5.80694 1.88749 0
M  V30 191 H 18.4052 -4.40227 3.67251 0
M  V30 192 H 16.8022 -4.08405 4.39688 0
M  V30 193 H 17.8722 -2.72404 4.01154 0
M  V30 194 N 19.2153 -1.21501 -1.00376 0
M  V30 195 C 20.1453 -0.999478 -2.11028 0
M  V30 196 C 21.1263 0.0759671 -1.6993 0
M  V30 197 O 22.3113 -0.0841106 -1.94018 0
M  V30 198 C 19.4413 -0.564709 -3.42678 0
M  V30 199 C 18.3953 -1.58486 -3.97576 0
M  V30 200 C 17.7213 -1.00628 -5.25146 0
M  V30 201 C 19.0213 -2.97204 -4.29496 0
M  V30 202 H 20.7153 -1.92495 -2.29317 0
M  V30 203 H 18.2613 -0.92693 -1.102 0
M  V30 204 H 20.2143 -0.401091 -4.19487 0
M  V30 205 H 18.9383 0.396411 -3.24185 0
M  V30 206 H 17.5973 -1.73606 -3.22888 0
M  V30 207 H 17.2453 -0.0368439 -5.02987 0
M  V30 208 H 16.9453 -1.68771 -5.62841 0
M  V30 209 H 18.4693 -0.854015 -6.04598 0
M  V30 210 H 19.8833 -2.8552 -4.97143 0
M  V30 211 H 18.2803 -3.62372 -4.78338 0
M  V30 212 H 19.3503 -3.47956 -3.3772 0
M  V30 213 N 20.6934 1.19889 -1.02296 0
M  V30 214 C 21.9394 1.89701 -0.717033 0
M  V30 215 C 22.2724 1.7905 0.751989 0
M  V30 216 O 21.5474 1.17891 1.547 0
M  V30 217 C 21.8304 3.40858 -1.16136 0
M  V30 218 C 21.6834 3.60411 -2.69117 0
M  V30 219 C 23.0024 4.33876 -0.737549 0
M  V30 220 H 20.1214 0.688874 -0.261957 0
M  V30 221 H 22.7634 1.41154 -1.27183 0
M  V30 222 H 20.9134 3.82335 -0.689342 0
M  V30 223 H 22.5854 3.28145 -3.2422 0
M  V30 224 H 20.8284 3.03665 -3.0979 0
M  V30 225 H 21.4994 4.66396 -2.95261 0
M  V30 226 H 23.9754 4.00081 -1.14344 0
M  V30 227 H 22.8514 5.38242 -1.0764 0
M  V30 228 H 23.1124 4.40628 0.360436 0
M  V30 229 N 22.1715 0.800033 1.35784 0
M  V30 230 C 23.1015 0.220184 2.3246 0
M  V30 231 C 24.0825 -0.65073 1.57161 0
M  V30 232 O 25.2675 -0.582359 1.85263 0
M  V30 233 C 22.3975 -0.637353 3.41402 0
M  V30 234 C 21.3515 0.134531 4.27789 0
M  V30 235 C 20.6775 -0.844285 5.27992 0
M  V30 236 C 21.9775 1.32979 5.05088 0
M  V30 237 H 23.6715 1.02787 2.81203 0
M  V30 238 H 21.2175 0.495717 1.35199 0
M  V30 239 H 23.1705 -1.05302 4.08031 0
M  V30 240 H 21.8945 -1.47785 2.91251 0
M  V30 241 H 20.5535 0.531296 3.6273 0
M  V30 242 H 20.2015 -1.68011 4.74111 0
M  V30 243 H 19.9015 -0.332184 5.8666 0
M  V30 244 H 21.4255 -1.2583 5.97494 0
M  V30 245 H 22.8395 0.98934 5.64699 0
M  V30 246 H 21.2365 1.77593 5.7322 0
M  V30 247 H 22.3065 2.11978 4.36111 0
M  V30 248 N 23.6496 -1.47581 0.552962 0
M  V30 249 C 24.5976 -2.31648 -0.21023 0
M  V30 250 C 25.5916 -1.42663 -0.913432 0
M  V30 251 O 26.7976 -1.5945 -0.835201 0
M  V30 252 H 23.1726 -0.746989 -0.0866676 0
M  V30 253 H 25.1436 -2.93869 0.518051 0
M  V30 254 C 23.8926 -3.25226 -1.22976 0
M  V30 255 H 23.2156 -3.93658 -0.698077 0
M  V30 256 H 24.6556 -3.86889 -1.73473 0
M  V30 257 C 23.1146 -2.48448 -2.27542 0
M  V30 258 O 23.6446 -2.22585 -3.34393 0
M  V30 259 N 21.8506 -2.09532 -2.01357 0
M  V30 260 H 21.3976 -2.30765 -1.14478 0
M  V30 261 H 21.3556 -1.58476 -2.71538 0
M  V30 262 N 25.1277 -0.289203 -1.54924 0
M  V30 263 C 26.3747 0.323519 -1.99899 0
M  V30 264 C 26.7027 1.54797 -1.17762 0
M  V30 265 O 25.9577 1.94237 -0.238835 0
M  V30 266 C 26.2567 0.736119 -3.49737 0
M  V30 267 C 25.9227 -0.385276 -4.49251 0
M  V30 268 C 24.5847 -0.693156 -4.76181 0
M  V30 269 C 26.9367 -1.14021 -5.08575 0
M  V30 270 C 24.2647 -1.7593 -5.59701 0
M  V30 271 C 26.6167 -2.19619 -5.93254 0
M  V30 272 C 25.2807 -2.51026 -6.185 0
M  V30 273 H 24.5507 0.118384 -0.731482 0
M  V30 274 H 27.1977 -0.405847 -1.8715 0
M  V30 275 H 25.5027 1.54539 -3.60035 0
M  V30 276 H 27.1997 1.22118 -3.81953 0
M  V30 277 H 23.7897 -0.135202 -4.28387 0
M  V30 278 H 27.9737 -0.915611 -4.87781 0
M  V30 279 H 23.2297 -2.0075 -5.77503 0
M  V30 280 H 27.4037 -2.78581 -6.38252 0
M  V30 281 H 25.0307 -3.33772 -6.83008 0
M  V30 282 N 26.6058 1.57591 -0.0167156 0
M  V30 283 C 27.5158 2.1291 0.98521 0
M  V30 284 C 28.5318 1.07834 1.36557 0
M  V30 285 O 29.7078 1.39826 1.44951 0
M  V30 286 C 26.7728 2.63512 2.25305 0
M  V30 287 C 25.8338 3.83256 1.93426 0
M  V30 288 C 25.0668 4.31435 3.14165 0
M  V30 289 O 25.2898 3.78851 4.26413 0
M  V30 290 O 24.2238 5.23416 2.97186 0
M  V30 291 H 28.0498 2.98772 0.544888 0
M  V30 292 H 25.6348 1.48012 0.203141 0
M  V30 293 H 27.5168 2.96183 2.99756 0
M  V30 294 H 26.1918 1.8074 2.68542 0
M  V30 295 H 25.0988 3.55531 1.16398 0
M  V30 296 H 26.4318 4.67153 1.55013 0
M  V30 297 N 28.0839 -0.256276 1.55502 0
M  V30 298 C 29.4999 -0.604325 1.47716 0
M  V30 299 C 29.6999 -1.88763 0.705039 0
M  V30 300 O 28.7559 -2.51445 0.230613 0
M  V30 301 C 30.0689 -0.715756 2.92057 0
M  V30 302 C 31.6169 -0.808706 3.02372 0
M  V30 303 C 32.0919 -0.951777 4.48001 0
M  V30 304 N 33.5829 -1.01688 4.519 0
M  V30 305 C 34.3179 -1.14668 5.61817 0
M  V30 306 N 33.8139 -1.24261 6.81565 0
M  V30 307 N 35.6069 -1.1791 5.49594 0
M  V30 308 H 27.7579 0.586291 2.04148 0
M  V30 309 H 30.0209 0.201015 0.926443 0
M  V30 310 H 29.7269 0.157027 3.51349 0
M  V30 311 H 29.6009 -1.59071 3.42018 0
M  V30 312 H 31.9879 -1.67195 2.43166 0
M  V30 313 H 32.0689 0.0912063 2.55637 0
M  V30 314 H 31.7129 -0.0931291 5.07815 0
M  V30 315 H 31.6429 -1.86659 4.92408 0
M  V30 316 H 34.1339 -0.954468 3.65648 0
M  V30 317 H 34.4469 -1.34046 7.61086 0
M  V30 318 H 32.7919 -1.21236 6.84344 0
M  V30 319 H 35.9829 -1.10057 4.54978 0
M  V30 320 H 36.1559 -1.27681 6.35296 0
M  V30 321 N 29.562 -1.4872 -0.521534 0
M  V30 322 C 30.79 -1.60843 -1.30142 0
M  V30 323 C 31.205 -0.271897 -1.86832 0
M  V30 324 O 30.562 0.739969 -1.66825 0
M  V30 325 C 30.613 -2.66155 -2.4463 0
M  V30 326 O 30.334 -3.94623 -1.90275 0
M  V30 327 C 31.835 -2.88795 -3.36322 0
M  V30 328 H 29.055 -0.542075 -0.395468 0
M  V30 329 H 31.599 -1.94609 -0.628285 0
M  V30 330 H 29.754 -2.35224 -3.07812 0
M  V30 331 H 30.168 -4.52468 -2.65279 0
M  V30 332 H 31.642 -3.66264 -4.12983 0
M  V30 333 H 32.119 -1.97934 -3.9207 0
M  V30 334 H 32.725 -3.21063 -2.78924 0
M  V30 335 N 31.0401 0.771051 -1.3745 0
M  V30 336 C 32.4561 1.07171 -1.18265 0
M  V30 337 C 32.6561 2.01491 -0.019287 0
M  V30 338 O 31.7121 2.44244 0.640408 0
M  V30 339 C 33.0251 1.66854 -2.50161 0
M  V30 340 C 34.5731 1.79109 -2.56689 0
M  V30 341 C 35.0481 2.42205 -3.88717 0
M  V30 342 N 36.5391 2.49655 -3.90162 0
M  V30 343 C 37.2741 2.9933 -4.8907 0
M  V30 344 N 36.7701 3.49172 -5.98374 0
M  V30 345 N 38.5631 2.9821 -4.76474 0
M  V30 346 H 30.7141 0.144796 -2.11906 0
M  V30 347 H 32.9771 0.126863 -0.939473 0
M  V30 348 H 32.6831 1.05017 -3.35655 0
M  V30 349 H 32.5571 2.6614 -2.673 0
M  V30 350 H 34.9441 2.40077 -1.71601 0
M  V30 351 H 35.0251 0.785757 -2.43433 0
M  V30 352 H 34.6691 1.81875 -4.74219 0
M  V30 353 H 34.5991 3.43345 -3.99276 0
M  V30 354 H 37.0901 2.14383 -3.11205 0
M  V30 355 H 37.4031 3.8548 -6.69795 0
M  V30 356 H 35.7481 3.47275 -6.02018 0
M  V30 357 H 38.9391 2.58572 -3.90203 0
M  V30 358 H 39.1121 3.36613 -5.53711 0
M  V30 359 N 32.5182 1.22032 0.997298 0
M  V30 360 C 33.7432 1.06921 1.77715 0
M  V30 361 C 34.1682 -0.376226 1.84299 0
M  V30 362 O 33.5262 -1.27165 1.29223 0
M  V30 363 C 33.5742 1.67996 3.19076 0
M  V30 364 O 32.6782 0.930653 4.01762 0
M  V30 365 H 32.0192 0.375814 0.547412 0
M  V30 366 H 34.5492 1.61737 1.25309 0
M  V30 367 H 34.5592 1.72538 3.69723 0
M  V30 368 H 33.2342 2.73182 3.13599 0
M  V30 369 H 31.8112 0.960917 3.60307 0
M  V30 370 N 33.9963 -1.19345 1.0293 0
M  V30 371 C 34.9263 -2.2481 0.631105 0
M  V30 372 C 35.9073 -1.66245 -0.360104 0
M  V30 373 O 37.0923 -1.92677 -0.242726 0
M  V30 374 C 34.2223 -3.47295 -0.0184607 0
M  V30 375 C 33.1763 -4.18536 0.895073 0
M  V30 376 C 32.5023 -5.34586 0.110592 0
M  V30 377 C 33.8023 -4.73287 2.209 0
M  V30 378 H 35.4963 -2.58372 1.51275 0
M  V30 379 H 33.0423 -1.24194 0.728818 0
M  V30 380 H 34.9953 -4.20268 -0.308675 0
M  V30 381 H 33.7193 -3.12933 -0.934907 0
M  V30 382 H 32.3783 -3.47446 1.16949 0
M  V30 383 H 32.0263 -4.96469 -0.807902 0
M  V30 384 H 31.7263 -5.83183 0.719087 0
M  V30 385 H 33.2503 -6.10355 -0.172871 0
M  V30 386 H 34.6643 -5.38013 1.98028 0
M  V30 387 H 33.0613 -5.32373 2.76946 0
M  V30 388 H 34.1313 -3.91331 2.86336 0
M  V30 389 N 35.4744 -0.807222 -1.35358 0
M  V30 390 C 36.4064 -0.175717 -2.28525 0
M  V30 391 C 37.4194 0.625354 -1.5031 0
M  V30 392 O 38.6084 0.457611 -1.72535 0
M  V30 393 C 35.7084 0.773471 -3.29956 0
M  V30 394 C 34.8814 0.0186296 -4.37396 0
M  V30 395 C 33.9404 0.886395 -5.18681 0
M  V30 396 O 32.9664 0.337106 -5.68201 0
M  V30 397 N 34.1684 2.20839 -5.36852 0
M  V30 398 H 36.9334 -0.976091 -2.83359 0
M  V30 399 H 34.4944 -0.662737 -1.47714 0
M  V30 400 H 36.4864 1.35824 -3.81227 0
M  V30 401 H 35.0564 1.47465 -2.75632 0
M  V30 402 H 34.2764 -0.747349 -3.87051 0
M  V30 403 H 35.5644 -0.501577 -5.06322 0
M  V30 404 H 34.9624 2.67858 -4.98265 0
M  V30 405 H 33.5194 2.74237 -5.91301 0
M  V30 406 N 36.9525 1.47285 -0.560781 0
M  V30 407 C 38.2295 1.9558 0.0277798 0
M  V30 408 C 38.6095 1.5034 1.48192 0
M  V30 409 O 37.9575 0.743882 2.16052 0
M  V30 410 C 38.1675 3.48789 -0.121418 0
M  V30 411 C 39.5155 4.24594 0.0220912 0
M  V30 412 O 40.5395 3.56166 -0.0491439 0
M  V30 413 O 39.3985 5.46217 0.175958 0
M  V30 414 H 36.4925 0.824663 0.0621342 0
M  V30 415 H 39.0385 1.5767 -0.627556 0
M  V30 416 H 37.8105 3.74533 -1.13316 0
M  V30 417 H 37.4335 3.93473 0.571366 0
M  V30 418 N 38.4306 0.297415 1.54768 0
M  V30 419 C 39.8416 -0.195947 1.85669 0
M  V30 420 C 40.1926 -1.53707 1.21937 0
M  V30 421 O 39.3176 -2.10164 0.515754 0
M  V30 422 C 39.9126 -0.362318 3.36857 0
M  V30 423 C 38.4716 -0.799901 3.67802 0
M  V30 424 C 37.6186 0.0938578 2.77141 0
M  V30 425 H 40.5696 0.518538 1.4999 0
M  V30 426 H 40.5906 -1.19745 3.61167 0
M  V30 427 H 40.1026 0.613921 3.83214 0
M  V30 428 H 38.2036 -1.78682 3.26961 0
M  V30 429 H 38.3166 -0.621773 4.75048 0
M  V30 430 H 36.6806 -0.426254 2.51108 0
M  V30 431 H 37.4636 1.06639 3.26318 0
M  V30 432 N 39.9087 -1.5758 0.0250728 0
M  V30 433 C 41.1487 -1.93497 -0.65865 0
M  V30 434 C 41.5127 -0.901409 -1.69525 0
M  V30 435 O 42.7137 -1.14664 -2.43116 0
M  V30 436 C 40.9847 -3.34352 -1.26267 0
M  V30 437 S 42.5437 -3.92191 -1.96803 0
M  V30 438 H 39.3617 -0.67709 -0.216958 0
M  V30 439 H 41.9637 -1.95303 0.0877692 0
M  V30 440 H 40.6677 -4.07395 -0.495741 0
M  V30 441 H 40.1987 -3.3598 -2.04648 0
M  V30 442 H 42.2137 -3.75298 -3.24601 0
M  V30 443 N 41.3868 0.248026 -1.55636 0
M  V30 444 C 42.6118 0.998028 -1.81808 0
M  V30 445 C 43.0368 1.78207 -0.601979 0
M  V30 446 O 42.3948 1.75653 0.448961 0
M  V30 447 C 42.4428 1.9125 -3.05705 0
M  V30 448 O 41.5468 3.00406 -2.82542 0
M  V30 449 H 40.8878 0.284045 -0.600179 0
M  V30 450 H 43.4178 0.269357 -2.02819 0
M  V30 451 H 43.4278 2.32737 -3.35108 0
M  V30 452 H 42.1028 1.33602 -3.93857 0
M  V30 453 H 40.6798 2.63056 -2.64303 0
M  V30 454 N 42.8649 1.48995 0.513639 0
M  V30 455 C 43.8129 1.65199 1.63744 0
M  V30 456 C 44.8069 0.51809 1.61283 0
M  V30 457 O 46.0129 0.697335 1.65943 0
M  V30 458 H 42.3879 0.52069 0.542574 0
M  V30 459 H 44.3589 2.59552 1.47226 0
M  V30 460 C 43.1079 1.72409 3.01945 0
M  V30 461 H 42.4309 2.59029 3.04539 0
M  V30 462 H 43.8709 1.87785 3.80148 0
M  V30 463 C 42.3299 0.46618 3.33659 0
M  V30 464 O 42.8599 -0.413744 3.99564 0
M  V30 465 N 41.0659 0.332931 2.88687 0
M  V30 466 H 40.6129 1.04996 2.35231 0
M  V30 467 H 40.5709 -0.507665 3.10274 0
M  V30 468 N 44.343 -0.763751 1.37857 0
M  V30 469 C 45.583 -1.53551 1.34913 0
M  V30 470 C 45.947 -1.91895 -0.0635882 0
M  V30 471 O 47.148 -2.67916 -0.217825 0
M  V30 472 C 45.419 -2.76126 2.26912 0
M  V30 473 S 46.978 -3.66105 2.41893 0
M  V30 474 H 43.796 -0.52559 0.478828 0
M  V30 475 H 46.398 -0.897435 1.73685 0
M  V30 476 H 45.102 -2.4605 3.28463 0
M  V30 477 H 44.633 -3.44887 1.89253 0
M  V30 478 H 46.648 -4.68473 1.63545 0
M  V30 479 N 45.8211 -1.22559 -0.990812 0
M  V30 480 C 47.2321 -1.04791 -1.54518 0
M  V30 481 C 47.5831 0.387998 -1.92325 0
M  V30 482 O 46.7081 1.27328 -1.74976 0
M  V30 483 C 47.3031 -1.896 -2.80779 0
M  V30 484 C 45.8621 -1.76124 -3.32652 0
M  V30 485 C 45.0091 -1.8594 -2.05722 0
M  V30 486 H 47.9601 -1.36374 -0.811662 0
M  V30 487 H 47.9811 -1.41464 -3.53225 0
M  V30 488 H 47.4931 -2.94101 -2.53231 0
M  V30 489 H 45.5941 -0.743643 -3.65104 0
M  V30 490 H 45.7071 -2.58913 -4.03114 0
M  V30 491 H 44.0711 -1.29403 -2.19379 0
M  V30 492 H 44.8541 -2.91976 -1.80568 0
M  V30 493 N 47.2992 1.18797 -1.03562 0
M  V30 494 C 48.2622 2.20464 -0.626769 0
M  V30 495 C 49.2622 1.57721 0.313173 0
M  V30 496 O 50.4522 1.73917 0.0992615 0
M  V30 497 C 47.5842 3.40802 0.0818498 0
M  V30 498 H 48.7772 2.58149 -1.5264 0
M  V30 499 H 46.3302 1.32593 -0.827578 0
M  V30 500 H 47.0652 3.08642 0.995518 0
M  V30 501 H 46.8502 3.8758 -0.593652 0
M  V30 502 H 48.3402 4.16092 0.354584 0
M  V30 503 N 48.7773 0.814389 1.34928 0
M  V30 504 C 50.0253 0.397636 1.9815 0
M  V30 505 C 50.3463 -1.04069 1.64908 0
M  V30 506 O 49.6163 -1.72121 0.93548 0
M  V30 507 H 48.1963 0.144043 0.732981 0
M  V30 508 H 50.8583 1.04195 1.6471 0
M  V30 509 H 49.9543 0.509688 3.0791 0
M  V30 510 N 50.2554 -1.46986 0.568584 0
M  V30 511 C 51.4834 -2.0683 0.0539956 0
M  V30 512 C 51.8984 -1.41953 -1.24478 0
M  V30 513 O 51.2554 -0.519933 -1.74937 0
M  V30 514 C 51.3064 -3.61254 -0.133362 0
M  V30 515 O 51.0274 -4.237 1.11399 0
M  V30 516 C 52.5284 -4.37992 -0.683927 0
M  V30 517 H 49.7484 -0.669058 0.0510141 0
M  V30 518 H 52.2924 -1.88824 0.785234 0
M  V30 519 H 50.4474 -3.78735 -0.81477 0
M  V30 520 H 50.8614 -5.16388 0.91888 0
M  V30 521 H 52.3354 -5.46684 -0.764263 0
M  V30 522 H 52.8124 -4.05058 -1.69778 0
M  V30 523 H 53.4184 -4.25283 -0.0378494 0
M  V30 524 N 51.7335 -0.305618 -1.54608 0
M  V30 525 C 52.9805 0.302298 -2.00231 0
M  V30 526 C 53.3085 1.5354 -1.19398 0
M  V30 527 O 52.5635 1.93973 -0.259423 0
M  V30 528 C 52.8625 0.698983 -3.50498 0
M  V30 529 C 52.5285 -0.432903 -4.48817 0
M  V30 530 C 51.1905 -0.743622 -4.75419 0
M  V30 531 C 53.5425 -1.19409 -5.07337 0
M  V30 532 C 50.8705 -1.81857 -5.57804 0
M  V30 533 C 53.2225 -2.25899 -5.90891 0
M  V30 534 C 51.8865 -2.57572 -6.15803 0
M  V30 535 H 51.1565 0.110619 -0.732697 0
M  V30 536 H 53.8035 -0.425674 -1.86709 0
M  V30 537 H 52.1085 1.50711 -3.61654 0
M  V30 538 H 53.8055 1.1806 -3.83227 0
M  V30 539 H 50.3955 -0.18063 -4.28219 0
M  V30 540 H 54.5795 -0.967295 -4.86782 0
M  V30 541 H 49.8355 -2.06864 -5.75341 0
M  V30 542 H 54.0095 -2.85335 -6.35261 0
M  V30 543 H 51.6365 -3.40998 -6.7943 0
M  V30 544 N 53.2116 1.57565 -0.0334293 0
M  V30 545 C 54.4516 1.93844 0.648379 0
M  V30 546 C 54.8156 0.910387 1.69044 0
M  V30 547 O 56.0166 1.15952 2.42505 0
M  V30 548 C 54.2876 3.35017 1.24492 0
M  V30 549 S 55.8466 3.93229 1.94721 0
M  V30 550 H 52.6646 0.678231 0.213364 0
M  V30 551 H 55.2666 1.95254 -0.0981253 0
M  V30 552 H 53.9706 4.07652 0.474128 0
M  V30 553 H 53.5016 3.37061 2.02864 0
M  V30 554 H 55.5166 3.77014 3.22606 0
M  V30 555 N 54.6897 -0.239769 1.55765 0
M  V30 556 C 55.9667 -0.990056 1.68693 0
M  V30 557 C 56.3467 -2.03107 0.5754 0
M  V30 558 O 55.6947 -2.24604 -0.42017 0
M  V30 559 C 55.9047 -1.61696 3.09282 0
M  V30 560 C 57.2527 -2.11613 3.6811 0
M  V30 561 O 58.2767 -1.71624 3.12127 0
M  V30 562 O 57.1357 -2.85057 4.66267 0
M  V30 563 H 54.2297 -0.461299 0.686391 0
M  V30 564 H 56.7757 -0.232991 1.68093 0
M  V30 565 H 55.5477 -0.864357 3.81634 0
M  V30 566 H 55.1707 -2.44005 3.13923 0
M  V30 567 N 56.1678 -1.49265 -0.50573 0
M  V30 568 C 57.1158 -1.66065 -1.62866 0
M  V30 569 C 58.1098 -0.526636 -1.61006 0
M  V30 570 O 59.3158 -0.706126 -1.65571 0
M  V30 571 H 55.6908 -0.52356 -0.539805 0
M  V30 572 H 57.6618 -2.60329 -1.45848 0
M  V30 573 C 56.4108 -1.74008 -3.01026 0
M  V30 574 H 55.7338 -2.6064 -3.03161 0
M  V30 575 H 57.1738 -1.89798 -3.79147 0
M  V30 576 C 55.6328 -0.483868 -3.33407 0
M  V30 577 O 56.1628 0.392548 -3.99777 0
M  V30 578 N 54.3688 -0.348236 -2.88506 0
M  V30 579 H 53.9158 -1.06242 -2.34671 0
M  V30 580 H 53.8738 0.491204 -3.10539 0
M  V30 581 N 57.6459 0.756429 -1.3826 0
M  V30 582 C 58.5939 1.89149 -1.35372 0
M  V30 583 C 59.5879 1.67691 -0.24004 0
M  V30 584 O 60.7939 1.75294 -0.408919 0
M  V30 585 H 57.1689 0.622271 -0.422236 0
M  V30 586 H 59.1399 1.88701 -2.31159 0
M  V30 587 C 57.8889 3.26599 -1.19284 0
M  V30 588 H 57.2119 3.43695 -2.0424 0
M  V30 589 H 58.6519 4.06274 -1.21316 0
M  V30 590 C 57.1109 3.3675 0.100454 0
M  V30 591 O 57.6409 3.86951 1.07851 0
M  V30 592 N 55.8469 2.90179 0.15633 0
M  V30 593 H 55.3939 2.49517 -0.640253 0
M  V30 594 H 55.3519 2.97352 1.02123 0
M  V30 595 N 59.124 1.23083 0.984299 0
M  V30 596 C 60.54 0.992637 1.24975 0
M  V30 597 C 60.74 -0.308618 1.99123 0
M  V30 598 O 59.796 -1.02905 2.30579 0
M  V30 599 C 61.109 2.19698 2.05312 0
M  V30 600 C 62.657 2.24147 2.18465 0
M  V30 601 C 63.132 3.44157 3.02192 0
M  V30 602 N 64.623 3.44372 3.09777 0
M  V30 603 C 65.358 4.33886 3.74874 0
M  V30 604 N 64.854 5.3363 4.41827 0
M  V30 605 N 66.647 4.21639 3.71721 0
M  V30 606 H 58.798 2.06731 0.487453 0
M  V30 607 H 61.061 0.906339 0.277944 0
M  V30 608 H 60.767 3.1411 1.58201 0
M  V30 609 H 60.641 2.20465 3.06064 0
M  V30 610 H 63.028 1.30277 2.64786 0
M  V30 611 H 63.109 2.27415 1.17115 0
M  V30 612 H 62.753 4.38332 2.56568 0
M  V30 613 H 62.683 3.3813 4.03702 0
M  V30 614 H 65.174 2.72201 2.62135 0
M  V30 615 H 65.487 5.98196 4.89266 0
M  V30 616 H 63.832 5.37534 4.40548 0
M  V30 617 H 67.023 3.42962 3.18582 0
M  V30 618 H 67.196 4.91604 4.22173 0
M  V30 619 N 60.6021 -1.18246 1.0419 0
M  V30 620 C 61.5501 -2.23968 0.627792 0
M  V30 621 C 62.5441 -1.65828 -0.346019 0
M  V30 622 O 63.7501 -1.78733 -0.213175 0
M  V30 623 H 60.1251 -0.728939 0.184802 0
M  V30 624 H 62.0961 -2.56202 1.52981 0
M  V30 625 C 60.8451 -3.47699 0.00796591 0
M  V30 626 H 60.1681 -3.92734 0.748347 0
M  V30 627 H 61.6081 -4.23294 -0.24455 0
M  V30 628 C 60.0671 -3.13153 -1.24246 0
M  V30 629 O 60.5971 -3.27003 -2.33307 0
M  V30 630 N 58.8031 -2.67467 -1.13622 0
M  V30 631 H 58.3501 -2.56396 -0.248734 0
M  V30 632 H 58.3081 -2.44724 -1.97377 0
M  V30 633 N 62.0802 -0.821533 -1.34494 0
M  V30 634 C 63.0122 -0.199946 -2.28326 0
M  V30 635 C 64.0252 0.609377 -1.50965 0
M  V30 636 O 65.2142 0.439285 -1.7301 0
M  V30 637 C 62.3142 0.738431 -3.30757 0
M  V30 638 C 61.4872 -0.0277632 -4.37391 0
M  V30 639 C 60.5462 0.831332 -5.19591 0
M  V30 640 O 59.5722 0.276822 -5.68526 0
M  V30 641 N 60.7742 2.15132 -5.39165 0
M  V30 642 H 63.5392 -1.00609 -2.82308 0
M  V30 643 H 61.1002 -0.678366 -1.47003 0
M  V30 644 H 63.0922 1.31773 -3.82646 0
M  V30 645 H 61.6622 1.44533 -2.7718 0
M  V30 646 H 60.8822 -0.788359 -3.86236 0
M  V30 647 H 62.1702 -0.555251 -5.05761 0
M  V30 648 H 61.5682 2.62559 -5.01078 0
M  V30 649 H 60.1252 2.6795 -5.94177 0
M  V30 650 N 63.5583 1.46682 -0.576371 0
M  V30 651 C 64.8073 2.01619 -0.0572825 0
M  V30 652 C 65.1203 1.45417 1.30818 0
M  V30 653 O 66.3263 1.92133 1.91825 0
M  V30 654 C 64.7823 3.59863 -0.0518371 0
M  V30 655 C 64.3903 4.25059 -1.41523 0
M  V30 656 C 66.1343 4.2248 0.413639 0
M  V30 657 C 64.0413 5.75364 -1.36785 0
M  V30 658 H 62.9713 0.753794 -0.0176448 0
M  V30 659 H 65.6223 1.68481 -0.727076 0
M  V30 660 H 64.0043 3.90048 0.683994 0
M  V30 661 H 65.1783 4.06491 -2.17029 0
M  V30 662 H 63.4933 3.7451 -1.8202 0
M  V30 663 H 66.0903 5.3265 0.467779 0
M  V30 664 H 66.4333 3.90976 1.42982 0
M  V30 665 H 66.9663 3.96897 -0.267929 0
M  V30 666 H 63.7053 6.11518 -2.36063 0
M  V30 667 H 63.2253 5.96214 -0.654895 0
M  V30 668 H 64.9043 6.37955 -1.07805 0
M  V30 669 N 65.0364 0.313813 1.54444 0
M  V30 670 C 66.2764 -0.292389 2.02298 0
M  V30 671 C 66.6404 -1.50105 1.19719 0
M  V30 672 O 67.8414 -2.17947 1.5733 0
M  V30 673 C 66.1124 -0.627682 3.51845 0
M  V30 674 S 67.6714 -1.21493 4.21646 0
M  V30 675 H 64.4894 -0.0890247 0.705405 0
M  V30 676 H 67.0914 0.444668 1.90376 0
M  V30 677 H 65.7954 0.260265 4.09574 0
M  V30 678 H 65.3264 -1.39519 3.67829 0
M  V30 679 H 67.3414 -2.5022 4.28491 0
M  V30 680 N 66.5145 -1.57545 0.0417849 0
M  V30 681 C 67.7395 -1.97035 -0.647455 0
M  V30 682 C 68.1645 -0.918775 -1.64135 0
M  V30 683 O 67.5225 0.119006 -1.80909 0
M  V30 684 C 67.5705 -3.35609 -1.31905 0
M  V30 685 O 66.6745 -3.3287 -2.43457 0
M  V30 686 H 66.0155 -0.64211 -0.169086 0
M  V30 687 H 68.5455 -2.04318 0.107399 0
M  V30 688 H 68.5555 -3.72126 -1.67291 0
M  V30 689 H 67.2305 -4.11685 -0.590586 0
M  V30 690 H 65.8075 -3.08087 -2.10088 0
M  V30 691 N 67.9926 0.231505 -1.5589 0
M  V30 692 C 69.4036 0.799327 -1.68724 0
M  V30 693 C 69.7546 1.85398 -0.642022 0
M  V30 694 O 68.8796 2.1539 0.208784 0
M  V30 695 C 69.4746 1.45664 -3.05888 0
M  V30 696 C 68.0336 1.97197 -3.20609 0
M  V30 697 C 67.1806 0.828552 -2.64632 0
M  V30 698 H 70.1316 0.00702616 -1.58698 0
M  V30 699 H 70.1526 2.32517 -3.01191 0
M  V30 700 H 69.6646 0.688808 -3.81939 0
M  V30 701 H 67.7656 2.76813 -2.4941 0
M  V30 702 H 67.8786 2.15878 -4.27707 0
M  V30 703 H 66.2426 1.23321 -2.22854 0
M  V30 704 H 67.0256 0.0735544 -3.43221 0
M  V30 705 N 69.4707 1.49531 0.497807 0
M  V30 706 C 70.7107 1.60799 1.26187 0
M  V30 707 C 71.0747 0.289627 1.89803 0
M  V30 708 O 72.2757 0.277512 2.67364 0
M  V30 709 C 70.5467 2.73729 2.29798 0
M  V30 710 S 72.1057 3.04968 3.155 0
M  V30 711 H 68.9237 0.567145 0.428798 0
M  V30 712 H 71.5257 1.87204 0.563477 0
M  V30 713 H 70.2297 3.68036 1.81597 0
M  V30 714 H 69.7607 2.49328 3.04301 0
M  V30 715 H 71.7757 2.46735 4.30507 0
M  V30 716 N 70.9488 -0.749086 1.3866 0
M  V30 717 C 72.3598 -1.32664 1.31366 0
M  V30 718 C 72.7108 -1.96179 -0.028484 0
M  V30 719 O 71.8358 -1.9537 -0.93057 0
M  V30 720 C 72.4308 -2.41219 2.37905 0
M  V30 721 C 70.9898 -2.94684 2.34176 0
M  V30 722 C 70.1368 -1.68108 2.20533 0
M  V30 723 H 73.0878 -0.547628 1.48952 0
M  V30 724 H 73.1088 -3.21268 2.0388 0
M  V30 725 H 72.6208 -1.94962 3.35576 0
M  V30 726 H 70.7218 -3.45258 1.401 0
M  V30 727 H 70.8348 -3.48757 3.2849 0
M  V30 728 H 69.1988 -1.91907 1.67463 0
M  V30 729 H 69.9818 -1.23923 3.20153 0
M  V30 730 N 72.4269 -1.23603 -0.977757 0
M  V30 731 C 73.8379 -1.06424 -1.53398 0
M  V30 732 C 74.1889 0.367578 -1.92726 0
M  V30 733 O 73.3139 1.25465 -1.76316 0
M  V30 734 C 73.9089 -1.92568 -2.78753 0
M  V30 735 C 72.4679 -1.79642 -3.30765 0
M  V30 736 C 71.6149 -1.88111 -2.03739 0
M  V30 737 H 74.5659 -1.37227 -0.797152 0
M  V30 738 H 74.5869 -1.45203 -3.51705 0
M  V30 739 H 74.0989 -2.96771 -2.50098 0
M  V30 740 H 72.1999 -0.782325 -3.64294 0
M  V30 741 H 72.3129 -2.63174 -4.00345 0
M  V30 742 H 70.6769 -1.31723 -2.17994 0
M  V30 743 H 71.4599 -2.93875 -1.77461 0
M  V30 744 N 73.905 1.17692 -1.04816 0
M  V30 745 C 74.853 2.23632 -0.63966 0
M  V30 746 C 75.847 1.6601 0.337219 0
M  V30 747 O 77.053 1.78844 0.203693 0
M  V30 748 H 73.428 0.727949 -0.188665 0
M  V30 749 H 75.399 2.55387 -1.54337 0
M  V30 750 C 74.148 3.4769 -0.0264051 0
M  V30 751 H 73.471 3.92331 -0.769164 0
M  V30 752 H 74.911 4.23418 0.222098 0
M  V30 753 C 73.37 3.13807 1.22584 0
M  V30 754 O 73.9 3.28236 2.31569 0
M  V30 755 N 72.106 2.68065 1.12202 0
M  V30 756 H 71.653 2.56525 0.235133 0
M  V30 757 H 71.611 2.45767 1.96076 0
M  V30 758 N 75.3831 0.828654 1.34056 0
M  V30 759 C 76.6081 0.431637 2.02859 0
M  V30 760 C 77.0331 -0.956339 1.61975 0
M  V30 761 O 76.3911 -1.62338 0.807228 0
M  V30 762 C 76.4391 0.548323 3.56407 0
M  V30 763 O 75.5431 -0.429556 4.10157 0
M  V30 764 H 74.8841 0.176886 0.640006 0
M  V30 765 H 77.4141 1.12066 1.71179 0
M  V30 766 H 77.4241 0.426196 4.05768 0
M  V30 767 H 76.0991 1.5606 3.8551 0
M  V30 768 H 74.6761 -0.265836 3.71951 0
M  V30 769 N 76.8612 -1.46375 0.584142 0
M  V30 770 C 78.1082 -2.02378 0.0702675 0
M  V30 771 C 78.4362 -1.45545 -1.29023 0
M  V30 772 O 77.6912 -0.610967 -1.85918 0
M  V30 773 C 77.9902 -3.57373 -0.0439342 0
M  V30 774 C 77.6562 -4.33252 1.24915 0
M  V30 775 C 76.3182 -4.53701 1.60341 0
M  V30 776 C 78.6702 -4.7681 2.1048 0
M  V30 777 C 75.9982 -5.1496 2.81128 0
M  V30 778 C 78.3502 -5.39404 3.30494 0
M  V30 779 C 77.0142 -5.5808 3.66201 0
M  V30 780 H 76.2842 -0.740554 0.0257127 0
M  V30 781 H 78.9312 -1.75727 0.761065 0
M  V30 782 H 77.2362 -3.83169 -0.817869 0
M  V30 783 H 78.9332 -3.98384 -0.457318 0
M  V30 784 H 75.5232 -4.17633 0.963364 0
M  V30 785 H 79.7072 -4.60766 1.84414 0
M  V30 786 H 74.9632 -5.27611 3.08928 0
M  V30 787 H 79.1372 -5.72114 3.97063 0
M  V30 788 H 76.7642 -6.05318 4.59885 0
M  V30 789 N 78.3393 -0.321999 -1.54275 0
M  V30 790 C 79.5643 0.285791 -2.05422 0
M  V30 791 C 79.9893 1.45124 -1.19669 0
M  V30 792 O 79.3473 1.80132 -0.205441 0
M  V30 793 C 79.3953 0.69956 -3.53749 0
M  V30 794 O 78.4993 1.8021 -3.70942 0
M  V30 795 H 77.8403 0.0518962 -0.661969 0
M  V30 796 H 80.3703 -0.469954 -1.9913 0
M  V30 797 H 80.3803 0.982649 -3.9599 0
M  V30 798 H 79.0553 -0.152864 -4.15619 0
M  V30 799 H 77.6323 1.51794 -3.40607 0
M  V30 800 N 79.8174 1.5752 -0.0501392 0
M  V30 801 C 81.0424 1.97376 0.636997 0
M  V30 802 C 81.4674 0.927466 1.63645 0
M  V30 803 O 80.8254 -0.10941 1.8097 0
M  V30 804 C 80.8734 3.36304 1.30123 0
M  V30 805 O 79.9774 3.34156 2.41689 0
M  V30 806 H 79.3184 0.642998 0.165679 0
M  V30 807 H 81.8484 2.04258 -0.118233 0
M  V30 808 H 81.8584 3.73008 1.65315 0
M  V30 809 H 80.5334 4.11993 0.568746 0
M  V30 810 H 79.1104 3.09196 2.08451 0
M  V30 811 N 81.2955 -0.223234 1.56011 0
M  V30 812 C 82.2585 -1.26014 1.9145 0
M  V30 813 C 83.2585 -1.3989 0.792937 0
M  V30 814 O 84.4485 -1.38184 1.0607 0
M  V30 815 C 81.5805 -2.63422 2.16383 0
M  V30 816 H 82.7735 -0.95796 2.84189 0
M  V30 817 H 80.3265 -0.463576 1.49267 0
M  V30 818 H 81.0615 -2.98741 1.2619 0
M  V30 819 H 80.8465 -2.54728 2.98088 0
M  V30 820 H 82.3365 -3.38249 2.44903 0
M  V30 821 N 82.7736 -1.49793 -0.48987 0
M  V30 822 C 84.0216 -1.59525 -1.24081 0
M  V30 823 C 84.3426 -0.288953 -1.92847 0
M  V30 824 O 83.6126 0.692436 -1.83254 0
M  V30 825 H 82.1926 -0.587796 -0.460983 0
M  V30 826 H 84.8546 -1.86477 -0.566778 0
M  V30 827 H 83.9506 -2.39696 -1.99881 0
M  V30 828 N 84.2517 0.741722 -1.39055 0
M  V30 829 C 85.4997 1.49818 -1.35643 0
M  V30 830 C 85.8207 1.94938 0.0491642 0
M  V30 831 O 85.0907 1.68505 0.999141 0
M  V30 832 H 83.6707 0.555755 -0.499144 0
M  V30 833 H 86.3327 0.880957 -1.73854 0
M  V30 834 H 85.4287 2.38348 -2.01486 0
M  V30 835 N 85.7298 1.2412 0.971189 0
M  V30 836 C 86.6618 0.988349 2.06795 0
M  V30 837 C 87.6748 -0.0409541 1.62748 0
M  V30 838 O 88.8638 0.195673 1.77424 0
M  V30 839 C 85.9638 0.469023 3.35639 0
M  V30 840 C 85.1368 1.56065 4.08611 0
M  V30 841 C 84.1958 1.04458 5.15728 0
M  V30 842 O 83.2218 1.73553 5.42096 0
M  V30 843 N 84.4238 -0.122817 5.8037 0
M  V30 844 H 87.1888 1.93265 2.29061 0
M  V30 845 H 84.7498 1.15102 1.13856 0
M  V30 846 H 86.7418 0.108613 4.04554 0
M  V30 847 H 85.3118 -0.380919 3.1027 0
M  V30 848 H 84.5318 2.09341 3.34021 0
M  V30 849 H 85.8198 2.29449 4.54126 0
M  V30 850 H 85.2178 -0.700563 5.61345 0
M  V30 851 H 83.7748 -0.424404 6.50417 0
M  V30 852 N 87.2079 -1.17134 1.05439 0
M  V30 853 C 88.6239 -1.39454 0.776201 0
M  V30 854 C 88.8239 -1.91454 -0.628307 0
M  V30 855 O 87.8799 -2.10777 -1.39031 0
M  V30 856 C 89.1929 -2.38305 1.83388 0
M  V30 857 C 90.7409 -2.52006 1.85639 0
M  V30 858 C 91.2159 -3.54133 2.90437 0
M  V30 859 N 92.7069 -3.61653 2.89415 0
M  V30 860 C 93.4419 -4.4044 3.67152 0
M  V30 861 N 92.9379 -5.22721 4.54681 0
M  V30 862 N 94.7309 -4.35337 3.55581 0
M  V30 863 H 86.8819 -0.817134 1.96053 0
M  V30 864 H 89.1449 -0.421626 0.849079 0
M  V30 865 H 88.8509 -2.07173 2.84204 0
M  V30 866 H 88.7249 -3.37841 1.67761 0
M  V30 867 H 91.1119 -2.82447 0.85486 0
M  V30 868 H 91.1929 -1.52537 2.05344 0
M  V30 869 H 90.8369 -3.24431 3.90777 0
M  V30 870 H 90.7669 -4.53313 2.67983 0
M  V30 871 H 93.2579 -3.02909 2.25952 0
M  V30 872 H 93.5709 -5.80027 5.10674 0
M  V30 873 H 91.9159 -5.22093 4.58741 0
M  V30 874 H 95.1069 -3.70112 2.86592 0
M  V30 875 H 95.2799 -4.96494 4.1641 0
M  V30 876 N 88.686 -0.835752 -1.33615 0
M  V30 877 C 89.914 -0.443344 -2.02094 0
M  V30 878 C 90.329 0.954522 -1.62894 0
M  V30 879 O 89.686 1.61982 -0.840723 0
M  V30 880 C 89.737 -0.550775 -3.5728 0
M  V30 881 O 89.458 -1.89356 -3.95065 0
M  V30 882 C 90.959 -0.154919 -4.43029 0
M  V30 883 H 88.179 -0.176359 -0.647409 0
M  V30 884 H 90.723 -1.12746 -1.70612 0
M  V30 885 H 88.878 0.0853997 -3.87306 0
M  V30 886 H 89.292 -1.87687 -4.89769 0
M  V30 887 H 90.766 -0.281144 -5.51284 0
M  V30 888 H 91.243 0.902863 -4.2982 0
M  V30 889 H 91.849 -0.765404 -4.18356 0
M  V30 890 N 90.1641 1.46063 -0.591896 0
M  V30 891 C 91.4041 2.04228 -0.0838014 0
M  V30 892 C 91.7681 1.45231 1.25587 0
M  V30 893 O 92.9691 1.94653 1.85375 0
M  V30 894 C 91.2401 3.57389 -0.0286282 0
M  V30 895 S 92.7991 4.3678 0.420557 0
M  V30 896 H 89.6171 0.709762 -0.0419319 0
M  V30 897 H 92.2191 1.78983 -0.786465 0
M  V30 898 H 90.9231 3.97843 -1.00743 0
M  V30 899 H 90.4541 3.87185 0.69652 0
M  V30 900 H 92.4691 4.67131 1.67341 0
M  V30 901 N 91.6422 0.330177 1.54103 0
M  V30 902 C 92.9192 -0.325007 1.92881 0
M  V30 903 C 93.2992 -1.6934 1.26045 0
M  V30 904 O 92.6472 -2.24855 0.406526 0
M  V30 905 C 92.8572 -0.410634 3.46576 0
M  V30 906 C 94.2052 -0.667801 4.19316 0
M  V30 907 O 95.2292 -0.49329 3.52768 0
M  V30 908 O 94.0882 -1.00491 5.37181 0
M  V30 909 H 91.1822 -0.186873 0.80561 0
M  V30 910 H 93.7282 0.380376 1.65382 0
M  V30 911 H 92.5002 0.550164 3.87413 0
M  V30 912 H 92.1232 -1.16333 3.802 0
M  V30 913 N 93.1203 -1.57491 0.0584922 0
M  V30 914 C 94.3693 -1.92155 -0.613146 0
M  V30 915 C 94.6823 -0.939334 -1.71569 0
M  V30 916 O 95.8883 -1.17829 -2.44599 0
M  V30 917 C 94.3443 -3.41303 -1.14195 0
M  V30 918 C 93.9523 -4.47944 -0.0711265 0
M  V30 919 C 95.6963 -3.84988 -1.78841 0
M  V30 920 C 93.6033 -5.88212 -0.613225 0
M  V30 921 H 92.5333 -0.717162 -0.232796 0
M  V30 922 H 95.1843 -1.83049 0.12857 0
M  V30 923 H 93.5663 -3.45437 -1.93621 0
M  V30 924 H 94.7403 -4.55408 0.702836 0
M  V30 925 H 93.0553 -4.13644 0.478313 0
M  V30 926 H 95.6523 -4.87159 -2.20408 0
M  V30 927 H 95.9953 -3.21632 -2.64308 0
M  V30 928 H 96.5283 -3.83401 -1.06059 0
M  V30 929 H 93.2673 -6.55183 0.203978 0
M  V30 930 H 92.7873 -5.84294 -1.35501 0
M  V30 931 H 94.4663 -6.37687 -1.09383 0
M  V30 932 N 94.5984 0.214957 -1.56127 0
M  V30 933 C 95.8384 0.945364 -1.81224 0
M  V30 934 C 96.2024 1.81265 -0.633005 0
M  V30 935 O 97.4034 2.57731 -0.763423 0
M  V30 936 C 95.6744 1.75665 -3.1125 0
M  V30 937 S 97.2334 2.54179 -3.57685 0
M  V30 938 H 94.0514 0.317443 -0.6362 0
M  V30 939 H 96.6534 0.210381 -1.94365 0
M  V30 940 H 95.3574 1.10977 -3.9511 0
M  V30 941 H 94.8884 2.53381 -3.00934 0
M  V30 942 H 96.9034 3.7792 -3.21545 0
M  V30 943 N 96.0765 1.50051 0.48192 0
M  V30 944 C 97.4925 1.37237 0.814756 0
M  V30 945 C 97.6925 0.420109 1.97072 0
M  V30 946 O 96.7485 -0.141246 2.52105 0
M  V30 947 C 98.0615 2.78375 1.13701 0
M  V30 948 C 99.6095 2.87213 1.2441 0
M  V30 949 C 100.084 4.29161 1.59954 0
M  V30 950 N 101.575 4.32061 1.66967 0
M  V30 951 C 102.31 5.38879 1.95952 0
M  V30 952 N 101.806 6.55918 2.23031 0
M  V30 953 N 103.599 5.26312 1.97363 0
M  V30 954 H 95.7505 2.10546 -0.28005 0
M  V30 955 H 98.0135 0.945921 -0.0627454 0
M  V30 956 H 97.7195 3.49845 0.360787 0
M  V30 957 H 97.5935 3.14941 2.07586 0
M  V30 958 H 99.9805 2.15969 2.01101 0
M  V30 959 H 100.061 2.54204 0.285299 0
M  V30 960 H 99.7055 5.00938 0.838067 0
M  V30 961 H 99.6355 4.59648 2.56966 0
M  V30 962 H 102.126 3.47661 1.48123 0
M  V30 963 H 102.439 7.33139 2.44391 0
M  V30 964 H 100.784 6.59112 2.20447 0
M  V30 965 H 103.975 4.33876 1.75697 0
M  V30 966 H 104.148 6.09649 2.19618 0
M  V30 967 N 97.5546 -0.734337 1.39446 0
M  V30 968 C 98.4866 -1.85861 1.34121 0
M  V30 969 C 99.4996 -1.60871 0.249864 0
M  V30 970 O 100.689 -1.71093 0.508865 0
M  V30 971 C 97.7886 -3.21899 1.05991 0
M  V30 972 C 96.9616 -3.74239 2.26415 0
M  V30 973 C 96.0206 -4.88841 1.94733 0
M  V30 974 O 95.0466 -5.02468 2.67422 0
M  V30 975 N 96.2486 -5.73261 0.913884 0
M  V30 976 H 99.0136 -1.90934 2.31007 0
M  V30 977 H 96.5746 -0.915102 1.33557 0
M  V30 978 H 98.5666 -3.96136 0.828147 0
M  V30 979 H 97.1366 -3.12091 0.178361 0
M  V30 980 H 96.3566 -2.91347 2.65539 0
M  V30 981 H 97.6446 -4.05942 3.06738 0
M  V30 982 H 97.0426 -5.64842 0.311476 0
M  V30 983 H 95.5996 -6.47563 0.742015 0
M  V30 984 N 99.0327 -1.24633 -0.964593 0
M  V30 985 C 100.273 -1.09981 -1.72289 0
M  V30 986 C 100.637 0.354792 -1.88693 0
M  V30 987 O 101.838 0.62289 -2.61483 0
M  V30 988 C 100.109 -1.82262 -3.07434 0
M  V30 989 S 101.668 -1.83379 -3.98645 0
M  V30 990 H 98.4857 -0.393292 -0.59232 0
M  V30 991 H 101.088 -1.58009 -1.15123 0
M  V30 992 H 99.7917 -2.87206 -2.93157 0
M  V30 993 H 99.3227 -1.3458 -3.69664 0
M  V30 994 H 101.338 -0.903691 -4.87901 0
M  V30 995 N 100.511 1.16574 -1.06058 0
M  V30 996 C 101.458 2.20883 -0.669263 0
M  V30 997 C 102.428 1.62729 0.332918 0
M  V30 998 O 103.613 1.895 0.222346 0
M  V30 999 C 100.753 3.45049 -0.0593572 0
M  V30 1000 C 99.8658 4.17458 -1.11143 0
M  V30 1001 C 99.0008 5.29135 -0.467916 0
M  V30 1002 C 98.0398 5.93343 -1.50369 0
M  V30 1003 N 97.1768 6.96516 -0.883706 0
M  V30 1004 H 102.017 2.53709 -1.5632 0
M  V30 1005 H 99.5538 1.24616 -0.781625 0
M  V30 1006 H 101.512 4.16033 0.311771 0
M  V30 1007 H 100.142 3.12781 0.797992 0
M  V30 1008 H 99.1938 3.45101 -1.60029 0
M  V30 1009 H 100.506 4.61307 -1.89731 0
M  V30 1010 H 99.6598 6.06684 -0.0436871 0
M  V30 1011 H 98.3988 4.86443 0.349864 0
M  V30 1012 H 97.4038 5.14517 -1.93784 0
M  V30 1013 H 98.6288 6.38114 -2.32352 0
M  V30 1014 H 96.5748 6.55943 -0.086595 0
M  V30 1015 H 96.4918 7.38723 -1.607 0
M  V30 1016 H 97.7598 7.77993 -0.484543 0
M  V30 1017 N 101.989 0.842826 1.3317 0
M  V30 1018 C 103.237 0.439577 1.97262 0
M  V30 1019 C 103.558 -1.00548 1.67078 0
M  V30 1020 O 102.828 -1.70098 0.971779 0
M  V30 1021 H 101.408 0.159558 0.72976 0
M  V30 1022 H 104.07 1.07665 1.62463 0
M  V30 1023 H 103.166 0.574886 3.0676 0
M  V30 1024 N 103.467 -1.45747 0.599634 0
M  V30 1025 C 104.713 -2.02592 0.0918643 0
M  V30 1026 C 105.046 -1.46806 -1.27128 0
M  V30 1027 O 104.321 -0.639658 -1.83681 0
M  V30 1028 C 104.604 -3.60073 0.0443398 0
M  V30 1029 C 104.457 -4.26208 1.43759 0
M  V30 1030 C 105.776 -4.35309 -0.647608 0
M  V30 1031 H 102.895 -0.736175 0.034857 0
M  V30 1032 H 105.537 -1.73694 0.770081 0
M  V30 1033 H 103.687 -3.84823 -0.533224 0
M  V30 1034 H 105.359 -4.12668 2.06162 0
M  V30 1035 H 103.602 -3.84916 2.00056 0
M  V30 1036 H 104.273 -5.35069 1.35665 0
M  V30 1037 H 106.749 -4.15805 -0.156776 0
M  V30 1038 H 105.625 -5.45038 -0.649942 0
M  V30 1039 H 105.886 -4.07598 -1.71219 0
M  V30 1040 N 104.945 -0.338344 -1.53925 0
M  V30 1041 C 106.192 0.259758 -2.00827 0
M  V30 1042 C 106.52 1.50973 -1.22628 0
M  V30 1043 O 105.775 1.93379 -0.300509 0
M  V30 1044 C 106.074 0.62448 -3.51902 0
M  V30 1045 C 105.74 -0.528006 -4.47798 0
M  V30 1046 C 104.402 -0.844298 -4.73735 0
M  V30 1047 C 106.754 -1.30143 -5.0469 0
M  V30 1048 C 104.082 -1.93648 -5.53821 0
M  V30 1049 C 106.434 -2.38382 -5.85967 0
M  V30 1050 C 105.098 -2.70576 -6.10201 0
M  V30 1051 H 104.368 0.0950523 -0.734878 0
M  V30 1052 H 107.015 -0.465182 -1.85764 0
M  V30 1053 H 105.32 1.43006 -3.64769 0
M  V30 1054 H 107.017 1.09905 -3.85645 0
M  V30 1055 H 103.607 -0.271421 -4.2774 0
M  V30 1056 H 107.791 -1.07033 -4.84621 0
M  V30 1057 H 103.047 -2.19021 -5.70824 0
M  V30 1058 H 107.221 -2.98746 -6.29066 0
M  V30 1059 H 104.848 -3.55333 -6.72044 0
M  V30 1060 N 106.423 1.57458 -0.0668435 0
M  V30 1061 C 107.839 1.56947 0.289772 0
M  V30 1062 C 108.039 1.07584 1.70376 0
M  V30 1063 O 107.095 0.739486 2.41429 0
M  V30 1064 C 108.408 3.0052 0.103943 0
M  V30 1065 C 109.956 3.12517 0.173857 0
M  V30 1066 C 110.431 4.57997 0.0163682 0
M  V30 1067 N 111.922 4.63144 0.0721352 0
M  V30 1068 C 112.657 5.73394 -0.0253794 0
M  V30 1069 N 112.153 6.92576 -0.176133 0
M  V30 1070 N 113.946 5.62091 0.0313305 0
M  V30 1071 H 106.097 1.87863 -0.991027 0
M  V30 1072 H 108.36 0.86583 -0.38606 0
M  V30 1073 H 108.066 3.40729 -0.871572 0
M  V30 1074 H 107.94 3.67304 0.858366 0
M  V30 1075 H 110.327 2.72197 1.13985 0
M  V30 1076 H 110.408 2.48381 -0.611586 0
M  V30 1077 H 110.052 4.99005 -0.946374 0
M  V30 1078 H 109.982 5.20158 0.821153 0
M  V30 1079 H 112.473 3.77436 0.187263 0
M  V30 1080 H 112.786 7.72418 -0.242821 0
M  V30 1081 H 111.131 6.94678 -0.211429 0
M  V30 1082 H 114.322 4.67867 0.147773 0
M  V30 1083 H 114.495 6.47982 -0.048121 0
M  V30 1084 N 107.901 -0.206675 1.56239 0
M  V30 1085 C 109.129 -0.945345 1.8404 0
M  V30 1086 C 109.544 -1.77336 0.647885 0
M  V30 1087 O 108.901 -1.78425 -0.383511 0
M  V30 1088 C 108.952 -1.8509 3.10522 0
M  V30 1089 O 108.673 -1.05634 4.25174 0
M  V30 1090 C 110.174 -2.70222 3.51418 0
M  V30 1091 H 107.394 -0.276372 0.61144 0
M  V30 1092 H 109.938 -0.217417 2.03341 0
M  V30 1093 H 108.093 -2.53259 2.93153 0
M  V30 1094 H 108.507 -1.67238 4.97124 0
M  V30 1095 H 109.981 -3.29438 4.42916 0
M  V30 1096 H 110.458 -3.43358 2.73864 0
M  V30 1097 H 111.064 -2.07443 3.71278 0
M  V30 1098 N 109.379 -1.50304 -0.473955 0
M  V30 1099 C 110.795 -1.37667 -0.807466 0
M  V30 1100 C 110.995 -0.430555 -1.96846 0
M  V30 1101 O 110.051 0.127874 -2.52176 0
M  V30 1102 C 111.364 -2.78974 -1.12223 0
M  V30 1103 C 112.912 -2.87868 -1.22885 0
M  V30 1104 C 113.387 -4.30003 -1.57676 0
M  V30 1105 N 114.878 -4.3294 -1.64673 0
M  V30 1106 C 115.613 -5.3991 -1.93091 0
M  V30 1107 N 115.109 -6.57092 -2.1955 0
M  V30 1108 N 116.902 -5.27351 -1.94569 0
M  V30 1109 H 109.053 -2.10394 0.291212 0
M  V30 1110 H 111.316 -0.945575 0.0677609 0
M  V30 1111 H 111.022 -3.50031 -0.342229 0
M  V30 1112 H 110.896 -3.16038 -2.05913 0
M  V30 1113 H 113.283 -2.17032 -1.99953 0
M  V30 1114 H 113.364 -2.54352 -0.271814 0
M  V30 1115 H 113.008 -5.01375 -0.81149 0
M  V30 1116 H 112.938 -4.61004 -2.54525 0
M  V30 1117 H 115.429 -3.48441 -1.46277 0
M  V30 1118 H 115.742 -7.34425 -2.405 0
M  V30 1119 H 114.087 -6.60272 -2.16948 0
M  V30 1120 H 117.278 -4.34801 -1.73394 0
M  V30 1121 H 117.451 -6.10805 -2.16381 0
M  V30 1122 N 110.857 0.726932 -1.39834 0
M  V30 1123 C 111.804 1.841 -1.39197 0
M  V30 1124 C 112.774 1.642 -0.250502 0
M  V30 1125 O 113.959 1.85494 -0.446846 0
M  V30 1126 C 111.099 3.21697 -1.24919 0
M  V30 1127 C 110.212 3.53247 -2.48678 0
M  V30 1128 C 109.347 4.80289 -2.26928 0
M  V30 1129 C 108.386 5.04707 -3.4632 0
M  V30 1130 N 107.523 6.22956 -3.23836 0
M  V30 1131 H 112.363 1.83979 -2.34427 0
M  V30 1132 H 109.9 0.898876 -1.16442 0
M  V30 1133 H 111.858 4.01137 -1.1465 0
M  V30 1134 H 110.488 3.21076 -0.333153 0
M  V30 1135 H 109.54 2.68447 -2.69519 0
M  V30 1136 H 110.852 3.67205 -3.37582 0
M  V30 1137 H 110.006 5.67725 -2.13947 0
M  V30 1138 H 108.745 4.68519 -1.35431 0
M  V30 1139 H 107.75 4.1573 -3.5979 0
M  V30 1140 H 108.975 5.18357 -4.38729 0
M  V30 1141 H 106.921 6.12459 -2.35011 0
M  V30 1142 H 106.838 6.37539 -4.063 0
M  V30 1143 H 108.106 7.1321 -3.14566 0
M  V30 1144 N 112.336 1.25143 0.95797 0
M  V30 1145 C 113.246 1.06968 2.08794 0
M  V30 1146 C 114.262 0.00773911 1.73998 0
M  V30 1147 O 115.438 0.207972 2.00323 0
M  V30 1148 C 112.503 0.68691 3.39827 0
M  V30 1149 C 111.564 1.82641 3.88511 0
M  V30 1150 C 110.797 1.46181 5.1329 0
M  V30 1151 O 111.02 0.355971 5.69288 0
M  V30 1152 O 109.954 2.29085 5.566 0
M  V30 1153 H 113.78 2.01723 2.27027 0
M  V30 1154 H 111.365 1.04051 1.07209 0
M  V30 1155 H 113.247 0.485417 4.18595 0
M  V30 1156 H 111.922 -0.231417 3.22872 0
M  V30 1157 H 110.829 2.08274 3.10762 0
M  V30 1158 H 112.162 2.72386 4.09959 0
M  V30 1159 N 113.814 -1.1601 1.06675 0
M  V30 1160 C 115.054 -1.88304 0.795037 0
M  V30 1161 C 115.418 -1.80062 -0.666466 0
M  V30 1162 O 116.619 -2.47319 -1.05293 0
M  V30 1163 C 114.89 -3.33664 1.28076 0
M  V30 1164 S 116.449 -4.23768 1.13868 0
M  V30 1165 H 113.267 -0.649928 0.288296 0
M  V30 1166 H 115.869 -1.4001 1.36445 0
M  V30 1167 H 114.573 -3.37203 2.33927 0
M  V30 1168 H 114.104 -3.87009 0.706253 0
M  V30 1169 H 116.119 -4.96148 0.0719668 0
M  V30 1170 N 115.292 -0.849877 -1.32721 0
M  V30 1171 C 116.517 -0.463856 -2.02146 0
M  V30 1172 C 116.942 0.930449 -1.63476 0
M  V30 1173 O 116.3 1.61033 -0.832952 0
M  V30 1174 C 116.348 -0.604955 -3.55489 0
M  V30 1175 O 115.452 0.36425 -4.10788 0
M  V30 1176 H 114.793 -0.187046 -0.637111 0
M  V30 1177 H 117.323 -1.14775 -1.69375 0
M  V30 1178 H 117.333 -0.490696 -4.05038 0
M  V30 1179 H 116.008 -1.62174 -3.82978 0
M  V30 1180 H 114.585 0.206628 -3.72327 0
M  V30 1181 N 116.77 1.45427 -0.607355 0
M  V30 1182 C 117.995 2.07124 -0.107006 0
M  V30 1183 C 118.42 1.44906 1.19933 0
M  V30 1184 O 117.778 0.541687 1.73019 0
M  V30 1185 C 117.826 3.60595 0.0194119 0
M  V30 1186 O 116.93 3.98285 1.0697 0
M  V30 1187 H 116.271 0.659868 -0.0739597 0
M  V30 1188 H 118.801 1.86683 -0.837297 0
M  V30 1189 H 118.811 4.07419 0.2177 0
M  V30 1190 H 117.486 4.05266 -0.934453 0
M  V30 1191 H 116.063 3.63133 0.847889 0
M  V30 1192 N 118.248 0.346503 1.53744 0
M  V30 1193 C 119.476 -0.25041 2.05379 0
M  V30 1194 C 119.891 -1.43979 1.22129 0
M  V30 1195 O 119.248 -1.80677 0.257321 0
M  V30 1196 C 119.299 -0.662575 3.55376 0
M  V30 1197 O 119.02 0.479515 4.35468 0
M  V30 1198 C 120.521 -1.31989 4.23195 0
M  V30 1199 H 117.741 -0.0478198 0.669294 0
M  V30 1200 H 120.285 0.499346 1.9831 0
M  V30 1201 H 118.44 -1.36227 3.62658 0
M  V30 1202 H 118.854 0.15037 5.24284 0
M  V30 1203 H 120.328 -1.55902 5.29527 0
M  V30 1204 H 120.805 -2.27436 3.75725 0
M  V30 1205 H 121.411 -0.662154 4.20114 0
M  V30 1206 N 119.726 -1.57421 0.075193 0
M  V30 1207 C 120.951 -1.98364 -0.605515 0
M  V30 1208 C 121.376 -0.953383 -1.62149 0
M  V30 1209 O 120.734 0.0806053 -1.81121 0
M  V30 1210 C 120.782 -3.38332 -1.24756 0
M  V30 1211 O 119.886 -3.37959 -2.36342 0
M  V30 1212 H 119.227 -0.645553 -0.155428 0
M  V30 1213 H 121.757 -2.04044 0.150714 0
M  V30 1214 H 121.767 -3.75591 -1.5936 0
M  V30 1215 H 120.442 -4.12846 -0.503129 0
M  V30 1216 H 119.019 -3.12474 -2.03506 0
M  V30 1217 N 121.204 0.198386 -1.56346 0
M  V30 1218 C 122.152 1.26538 -1.95169 0
M  V30 1219 C 123.146 1.47295 -0.836685 0
M  V30 1220 O 124.352 1.48195 -1.02167 0
M  V30 1221 H 120.727 0.424744 -0.620561 0
M  V30 1222 H 122.698 0.910904 -2.84157 0
M  V30 1223 C 121.447 2.6035 -2.30463 0
M  V30 1224 H 120.77 2.45192 -3.15786 0
M  V30 1225 H 122.21 3.33762 -2.61494 0
M  V30 1226 C 120.669 3.17096 -1.13806 0
M  V30 1227 O 121.199 3.99588 -0.41135 0
M  V30 1228 N 119.405 2.75795 -0.915736 0
M  V30 1229 H 118.952 2.08816 -1.50843 0
M  V30 1230 H 118.91 3.14101 -0.136979 0
M  V30 1231 N 122.682 1.50554 0.465978 0
M  V30 1232 C 123.645 1.69233 1.54574 0
M  V30 1233 C 124.645 0.562901 1.50626 0
M  V30 1234 O 125.835 0.830016 1.53155 0
M  V30 1235 C 122.967 1.7223 2.94193 0
M  V30 1236 H 124.16 2.65571 1.39327 0
M  V30 1237 H 121.713 1.40111 0.692711 0
M  V30 1238 H 122.448 0.77603 3.14878 0
M  V30 1239 H 122.233 2.54285 2.98466 0
M  V30 1240 H 123.723 1.88618 3.72576 0
M  V30 1241 N 124.16 -0.719506 1.40217 0
M  V30 1242 C 125.07 -1.86378 1.42479 0
M  V30 1243 C 126.086 -1.71073 0.317834 0
M  V30 1244 O 127.262 -1.93406 0.561794 0
M  V30 1245 C 124.327 -3.22136 1.28178 0
M  V30 1246 C 123.388 -3.49723 2.48982 0
M  V30 1247 C 122.621 -4.79004 2.35353 0
M  V30 1248 O 122.844 -5.53821 1.36524 0
M  V30 1249 O 121.778 -5.06839 3.2465 0
M  V30 1250 H 125.604 -1.87425 2.38968 0
M  V30 1251 H 123.189 -0.869405 1.21498 0
M  V30 1252 H 125.071 -4.03234 1.22395 0
M  V30 1253 H 123.746 -3.21825 0.347934 0
M  V30 1254 H 122.653 -2.6865 2.60342 0
M  V30 1255 H 123.986 -3.54828 3.41113 0
M  V30 1256 N 125.638 -1.25649 -0.95132 0
M  V30 1257 C 126.878 -1.11802 -1.71113 0
M  V30 1258 C 127.242 0.334758 -1.89059 0
M  V30 1259 O 128.443 0.595121 -2.62129 0
M  V30 1260 C 126.714 -1.85512 -3.05483 0
M  V30 1261 S 128.273 -1.87597 -3.96677 0
M  V30 1262 H 125.091 -0.399552 -0.588115 0
M  V30 1263 H 127.693 -1.59222 -1.1344 0
M  V30 1264 H 126.397 -2.90299 -2.90094 0
M  V30 1265 H 125.928 -1.38493 -3.68216 0
M  V30 1266 H 127.943 -0.955389 -4.86916 0
M  V30 1267 N 127.117 1.15442 -1.07289 0
M  V30 1268 C 128.394 1.82306 -0.708792 0
M  V30 1269 C 128.774 1.94991 0.808807 0
M  V30 1270 O 128.122 1.50085 1.72298 0
M  V30 1271 C 128.332 3.18695 -1.42247 0
M  V30 1272 C 129.68 3.94341 -1.57417 0
M  V30 1273 O 130.704 3.28247 -1.38319 0
M  V30 1274 O 129.563 5.12839 -1.88834 0
M  V30 1275 H 126.657 0.787628 -0.252132 0
M  V30 1276 H 129.203 1.22559 -1.17377 0
M  V30 1277 H 127.975 3.04557 -2.45684 0
M  V30 1278 H 127.598 3.86128 -0.948223 0
M  V30 1279 N 128.595 0.856903 1.32268 0
M  V30 1280 C 129.835 0.467705 1.98977 0
M  V30 1281 C 130.199 -0.959231 1.66321 0
M  V30 1282 O 131.4 -1.4531 2.26138 0
M  V30 1283 C 129.671 0.70256 3.50427 0
M  V30 1284 S 131.23 0.411269 4.36868 0
M  V30 1285 H 128.048 0.175121 0.689096 0
M  V30 1286 H 130.65 1.1101 1.60925 0
M  V30 1287 H 129.354 1.74012 3.71683 0
M  V30 1288 H 128.885 0.0466707 3.93372 0
M  V30 1289 H 130.9 -0.761799 4.90317 0
M  V30 1290 N 130.073 -1.45103 0.615059 0
M  V30 1291 C 131.301 -2.06553 0.11977 0
M  V30 1292 C 131.716 -1.45842 -1.19898 0
M  V30 1293 O 131.073 -0.575325 -1.73194 0
M  V30 1294 C 131.124 -3.61495 -0.018364 0
M  V30 1295 O 130.845 -4.19942 1.24822 0
M  V30 1296 C 132.346 -4.39947 -0.544237 0
M  V30 1297 H 129.566 -0.667096 0.0722739 0
M  V30 1298 H 132.11 -1.8623 0.84491 0
M  V30 1299 H 130.265 -3.81135 -0.693865 0
M  V30 1300 H 130.679 -5.13204 1.0827 0
M  V30 1301 H 132.153 -5.48838 -0.589953 0
M  V30 1302 H 132.63 -4.10255 -1.56805 0
M  V30 1303 H 133.236 -4.25188 0.0974703 0
M  V30 1304 N 131.551 -0.354651 -1.53558 0
M  V30 1305 C 132.962 0.126902 -1.86268 0
M  V30 1306 C 133.313 1.49075 -1.27558 0
M  V30 1307 O 132.438 2.08105 -0.5934 0
M  V30 1308 C 133.033 0.237046 -3.3797 0
M  V30 1309 C 131.592 0.662842 -3.70518 0
M  V30 1310 C 130.739 -0.196652 -2.76602 0
M  V30 1311 H 133.69 -0.573849 -1.47962 0
M  V30 1312 H 133.711 1.06259 -3.65362 0
M  V30 1313 H 133.223 -0.755725 -3.80671 0
M  V30 1314 H 131.324 1.66424 -3.33367 0
M  V30 1315 H 131.437 0.445034 -4.77029 0
M  V30 1316 H 129.801 0.332763 -2.52517 0
M  V30 1317 H 130.584 -1.18676 -3.22135 0
M  V30 1318 N 133.029 1.57378 -0.0835403 0
M  V30 1319 C 134.277 1.93547 0.581718 0
M  V30 1320 C 134.598 0.96524 1.69435 0
M  V30 1321 O 133.868 0.0153369 1.95894 0
M  V30 1322 H 132.448 0.714521 0.217874 0
M  V30 1323 H 135.11 1.94366 -0.144158 0
M  V30 1324 H 134.206 2.95665 0.999423 0
M  V30 1325 N 134.507 -0.190092 1.56449 0
M  V30 1326 C 135.754 -0.909705 1.80916 0
M  V30 1327 C 136.082 -1.83047 0.657583 0
M  V30 1328 O 135.337 -1.92428 -0.356356 0
M  V30 1329 C 135.636 -1.75382 3.1141 0
M  V30 1330 C 135.302 -0.983606 4.40041 0
M  V30 1331 C 133.964 -0.770967 4.74984 0
M  V30 1332 C 136.316 -0.442024 5.19322 0
M  V30 1333 C 133.644 -0.0053448 5.867 0
M  V30 1334 C 135.996 0.310412 6.31838 0
M  V30 1335 C 134.66 0.534023 6.6536 0
M  V30 1336 H 133.93 -0.332885 0.662019 0
M  V30 1337 H 136.577 -0.175762 1.90692 0
M  V30 1338 H 134.882 -2.55659 2.96893 0
M  V30 1339 H 136.579 -2.31331 3.27547 0
M  V30 1340 H 133.169 -1.15936 4.12622 0
M  V30 1341 H 137.353 -0.593693 4.92736 0
M  V30 1342 H 132.609 0.177825 6.11141 0
M  V30 1343 H 136.783 0.737419 6.92485 0
M  V30 1344 H 134.41 1.12918 7.51767 0
M  V30 1345 N 135.985 -1.50799 -0.457987 0
M  V30 1346 C 136.935 -1.67003 -1.55222 0
M  V30 1347 C 137.919 -0.52434 -1.52117 0
M  V30 1348 O 139.111 -0.779345 -1.58919 0
M  V30 1349 C 136.24 -1.77956 -2.93576 0
M  V30 1350 C 135.326 -2.98243 -3.01516 0
M  V30 1351 N 135.717 -4.21732 -2.79241 0
M  V30 1352 C 134.015 -2.97072 -3.32662 0
M  V30 1353 C 134.716 -5.02817 -2.92489 0
M  V30 1354 N 133.692 -4.37038 -3.23262 0
M  V30 1355 H 137.494 -2.60163 -1.36721 0
M  V30 1356 H 135.008 -1.48163 -0.664952 0
M  V30 1357 H 137.005 -1.87671 -3.72271 0
M  V30 1358 H 135.665 -0.859634 -3.13114 0
M  V30 1359 H 136.676 -4.51016 -2.54567 0
M  V30 1360 H 133.353 -2.14631 -3.58106 0
M  V30 1361 H 134.743 -6.11054 -2.79396 0
M  V30 1362 N 137.463 0.71206 -1.40597 0
M  V30 1363 C 138.703 1.48438 -1.40519 0
M  V30 1364 C 139.067 1.91998 -0.00767611 0
M  V30 1365 O 140.268 2.6854 0.118239 0
M  V30 1366 C 138.539 2.67514 -2.37004 0
M  V30 1367 S 140.098 3.56875 -2.55315 0
M  V30 1368 H 136.916 0.507457 -0.498005 0
M  V30 1369 H 139.518 0.832355 -1.76896 0
M  V30 1370 H 138.222 2.33689 -3.37368 0
M  V30 1371 H 137.753 3.37625 -2.01923 0
M  V30 1372 H 139.768 4.62081 -1.8082 0
M  V30 1373 N 138.941 1.26152 0.944643 0
M  V30 1374 C 139.871 1.09902 2.06019 0
M  V30 1375 C 140.852 0.00519538 1.70099 0
M  V30 1376 O 142.037 0.176583 1.93396 0
M  V30 1377 C 139.167 0.727562 3.39594 0
M  V30 1378 C 138.121 1.77274 3.89561 0
M  V30 1379 C 137.447 1.25569 5.19747 0
M  V30 1380 C 138.747 3.17357 4.14827 0
M  V30 1381 H 140.441 2.03217 2.19871 0
M  V30 1382 H 137.987 0.978452 1.05652 0
M  V30 1383 H 139.94 0.600777 4.17095 0
M  V30 1384 H 138.664 -0.241287 3.25707 0
M  V30 1385 H 137.323 1.88814 3.14237 0
M  V30 1386 H 136.971 0.276783 5.02238 0
M  V30 1387 H 136.671 1.95433 5.54148 0
M  V30 1388 H 138.195 1.1415 5.99835 0
M  V30 1389 H 139.609 3.08914 4.82954 0
M  V30 1390 H 138.006 3.84781 4.60504 0
M  V30 1391 H 139.076 3.63673 3.20734 0
M  V30 1392 N 140.419 -1.14872 1.07899 0
M  V30 1393 C 141.667 -1.85422 0.803941 0
M  V30 1394 C 141.988 -1.83051 -0.67211 0
M  V30 1395 O 141.258 -1.27532 -1.48703 0
M  V30 1396 H 139.838 -0.686537 0.294408 0
M  V30 1397 H 142.5 -1.39226 1.3639 0
M  V30 1398 H 141.596 -2.90399 1.14346 0
M  V30 1399 N 141.898 -0.863906 -1.31812 0
M  V30 1400 C 142.861 -0.320212 -2.26952 0
M  V30 1401 C 143.861 0.525369 -1.51975 0
M  V30 1402 O 145.051 0.335547 -1.70938 0
M  V30 1403 C 142.183 0.545919 -3.365 0
M  V30 1404 H 143.376 -1.16004 -2.76556 0
M  V30 1405 H 140.929 -0.638995 -1.42641 0
M  V30 1406 H 141.664 1.40718 -2.92179 0
M  V30 1407 H 141.449 -0.0594674 -3.92055 0
M  V30 1408 H 142.939 0.918796 -4.07367 0
M  V30 1409 N 143.376 1.44774 -0.622745 0
M  V30 1410 C 144.624 2.01721 -0.123655 0
M  V30 1411 C 144.945 1.49172 1.25589 0
M  V30 1412 O 144.215 0.691974 1.83272 0
M  V30 1413 H 142.795 0.745777 -0.0427225 0
M  V30 1414 H 145.457 1.77382 -0.807559 0
M  V30 1415 H 144.553 3.11984 -0.0849534 0
M  V30 1416 N 144.854 0.36279 1.53368 0
M  V30 1417 C 146.094 -0.227882 2.03126 0
M  V30 1418 C 146.458 -1.4622 1.24434 0
M  V30 1419 O 147.659 -2.12831 1.64184 0
M  V30 1420 C 145.93 -0.515427 3.53664 0
M  V30 1421 S 147.489 -1.08017 4.25297 0
M  V30 1422 H 144.307 -0.0665377 0.70788 0
M  V30 1423 H 146.909 0.50501 1.88865 0
M  V30 1424 H 145.613 0.390436 4.08539 0
M  V30 1425 H 145.144 -1.27747 3.72081 0
M  V30 1426 H 147.159 -2.36462 4.36234 0
M  V30 1427 N 146.332 -1.57332 0.0918853 0
M  V30 1428 C 147.557 -1.98995 -0.584442 0
M  V30 1429 C 147.982 -0.970528 -1.61128 0
M  V30 1430 O 147.34 0.0613904 -1.81196 0
M  V30 1431 C 147.388 -3.39636 -1.21161 0
M  V30 1432 O 146.492 -3.40447 -2.32744 0
M  V30 1433 H 145.833 -0.647165 -0.148572 0
M  V30 1434 H 148.363 -2.03873 0.172347 0
M  V30 1435 H 148.373 -3.7726 -1.55367 0
M  V30 1436 H 147.048 -4.13356 -0.459313 0
M  V30 1437 H 145.625 -3.14614 -2.0018 0
M  V30 1438 N 147.81 0.181792 -1.56548 0
M  V30 1439 C 148.743 1.25366 -1.90679 0
M  V30 1440 C 149.721 1.43299 -0.768376 0
M  V30 1441 O 150.905 1.58475 -1.02068 0
M  V30 1442 C 148.032 2.61826 -2.1486 0
M  V30 1443 C 147.078 2.60688 -3.37556 0
M  V30 1444 S 147.911 2.10804 -4.92262 0
M  V30 1445 C 149.067 3.49062 -5.19525 0
M  V30 1446 H 149.3 0.962277 -2.81296 0
M  V30 1447 H 146.833 0.385892 -1.495 0
M  V30 1448 H 148.791 3.40371 -2.29473 0
M  V30 1449 H 147.452 2.88169 -1.24969 0
M  V30 1450 H 146.645 3.61058 -3.51643 0
M  V30 1451 H 146.247 1.90232 -3.22006 0
M  V30 1452 H 148.539 4.45003 -5.10861 0
M  V30 1453 H 149.482 3.39859 -6.2121 0
M  V30 1454 H 149.89 3.4459 -4.47122 0
M  V30 1455 N 149.288 1.51039 0.449983 0
M  V30 1456 C 150.528 1.64732 1.21007 0
M  V30 1457 C 150.892 0.349865 1.88785 0
M  V30 1458 O 152.093 0.362431 2.66345 0
M  V30 1459 C 150.364 2.80902 2.20973 0
M  V30 1460 S 151.923 3.14851 3.05638 0
M  V30 1461 H 148.741 0.5805 0.410538 0
M  V30 1462 H 151.343 1.88901 0.503634 0
M  V30 1463 H 150.047 3.73627 1.69796 0
M  V30 1464 H 149.578 2.58882 2.96215 0
M  V30 1465 H 151.593 2.60306 4.22439 0
M  V30 1466 N 150.766 -0.704594 1.40972 0
M  V30 1467 C 151.676 -1.84856 1.44448 0
M  V30 1468 C 152.692 -1.70726 0.335961 0
M  V30 1469 O 153.868 -1.92799 0.582276 0
M  V30 1470 C 150.933 -3.20758 1.31587 0
M  V30 1471 C 149.994 -3.47063 2.52677 0
M  V30 1472 C 149.227 -4.76481 2.4042 0
M  V30 1473 O 149.45 -5.52341 1.42391 0
M  V30 1474 O 148.384 -5.03367 3.30007 0
M  V30 1475 H 152.21 -1.8488 2.40942 0
M  V30 1476 H 149.795 -0.85647 1.22413 0
M  V30 1477 H 151.677 -4.01913 1.26665 0
M  V30 1478 H 150.352 -3.21438 0.382049 0
M  V30 1479 H 149.259 -2.65873 2.63177 0
M  V30 1480 H 150.592 -3.5119 3.44858 0
M  V30 1481 N 152.244 -1.26651 -0.937939 0
M  V30 1482 C 153.176 -1.04283 -2.04102 0
M  V30 1483 C 154.189 -0.00221014 -1.628 0
M  V30 1484 O 155.378 -0.242645 -1.76843 0
M  V30 1485 C 152.478 -0.557846 -3.34277 0
M  V30 1486 C 151.651 -1.66843 -4.04329 0
M  V30 1487 C 150.71 -1.18095 -5.12777 0
M  V30 1488 O 149.736 -1.87865 -5.37304 0
M  V30 1489 N 150.938 -0.0311006 -5.80492 0
M  V30 1490 H 153.703 -1.9927 -2.23856 0
M  V30 1491 H 151.264 -1.1808 -1.10764 0
M  V30 1492 H 153.256 -0.215836 -4.04124 0
M  V30 1493 H 151.826 0.298523 -3.11171 0
M  V30 1494 H 151.046 -2.18123 -3.28353 0
M  V30 1495 H 152.334 -2.41408 -4.47883 0
M  V30 1496 H 151.732 0.551486 -5.63005 0
M  V30 1497 H 150.289 0.251809 -6.51313 0
M  V30 1498 N 153.722 1.14298 -1.08507 0
M  V30 1499 C 154.999 1.81544 -0.728088 0
M  V30 1500 C 155.379 1.95838 0.78808 0
M  V30 1501 O 154.727 1.51904 1.70697 0
M  V30 1502 C 154.937 3.17169 -1.45619 0
M  V30 1503 C 156.285 3.9265 -1.61591 0
M  V30 1504 O 157.309 3.26762 -1.41793 0
M  V30 1505 O 156.168 5.10807 -1.94263 0
M  V30 1506 H 153.262 0.78491 -0.260471 0
M  V30 1507 H 155.808 1.21307 -1.18671 0
M  V30 1508 H 154.58 3.01934 -2.489 0
M  V30 1509 H 154.203 3.851 -0.989124 0
M  V30 1510 N 155.201 0.870884 1.31352 0
M  V30 1511 C 156.441 0.488783 1.9847 0
M  V30 1512 C 156.805 -0.941536 1.67329 0
M  V30 1513 O 158.006 -1.42903 2.27667 0
M  V30 1514 C 156.277 0.739688 3.49662 0
M  V30 1515 S 157.836 0.457582 4.36408 0
M  V30 1516 H 154.654 0.18242 0.6872 0
M  V30 1517 H 157.256 1.12711 1.59739 0
M  V30 1518 H 155.96 1.77944 3.69816 0
M  V30 1519 H 155.491 0.0883905 3.93301 0
M  V30 1520 H 157.506 -0.709752 4.91098 0
M  V30 1521 N 156.679 -1.44442 0.630414 0
M  V30 1522 C 157.626 -2.30678 -0.0749355 0
M  V30 1523 C 158.596 -1.4344 -0.837502 0
M  V30 1524 O 159.781 -1.72343 -0.818684 0
M  V30 1525 C 156.921 -3.28706 -1.05103 0
M  V30 1526 C 156.034 -4.31046 -0.286954 0
M  V30 1527 C 155.169 -5.16167 -1.2548 0
M  V30 1528 C 154.208 -6.10216 -0.479843 0
M  V30 1529 N 153.345 -6.88039 -1.39811 0
M  V30 1530 H 158.185 -2.90454 0.666386 0
M  V30 1531 H 155.722 -1.43107 0.340404 0
M  V30 1532 H 157.68 -3.84027 -1.63031 0
M  V30 1533 H 156.31 -2.70632 -1.75949 0
M  V30 1534 H 155.362 -3.78203 0.408243 0
M  V30 1535 H 156.674 -4.97794 0.316657 0
M  V30 1536 H 155.828 -5.76002 -1.90544 0
M  V30 1537 H 154.567 -4.49491 -1.89233 0
M  V30 1538 H 153.572 -5.49491 0.184295 0
M  V30 1539 H 154.797 -6.78928 0.152965 0
M  V30 1540 H 152.743 -6.24032 -2.02287 0
M  V30 1541 H 152.66 -7.51223 -0.848508 0
M  V30 1542 H 153.928 -7.52397 -2.03762 0
M  V30 1543 N 158.157 -0.370918 -1.53173 0
M  V30 1544 C 159.089 0.507823 -2.23503 0
M  V30 1545 C 160.102 1.04182 -1.251 0
M  V30 1546 O 161.291 0.947286 -1.5129 0
M  V30 1547 C 158.391 1.71447 -2.92334 0
M  V30 1548 C 157.564 1.31105 -4.17289 0
M  V30 1549 C 156.623 2.38035 -4.69282 0
M  V30 1550 O 155.649 2.00204 -5.32829 0
M  V30 1551 N 156.851 3.69697 -4.47554 0
M  V30 1552 H 159.616 -0.0946382 -2.99551 0
M  V30 1553 H 157.177 -0.196358 -1.60705 0
M  V30 1554 H 159.169 2.42469 -3.24023 0
M  V30 1555 H 157.739 2.22368 -2.19707 0
M  V30 1556 H 156.959 0.430462 -3.91843 0
M  V30 1557 H 158.247 1.0179 -4.98514 0
M  V30 1558 H 157.645 4.03205 -3.9679 0
M  V30 1559 H 156.202 4.36807 -4.8378 0
M  V30 1560 N 159.635 1.57281 -0.100228 0
M  V30 1561 C 160.883 1.94153 0.561157 0
M  V30 1562 C 161.204 0.983157 1.68401 0
M  V30 1563 O 160.474 0.0361132 1.95867 0
M  V30 1564 H 159.054 0.716791 0.210283 0
M  V30 1565 H 161.716 1.94202 -0.164765 0
M  V30 1566 H 160.812 2.96709 0.968008 0
M  V30 1567 N 161.113 -0.173488 1.56642 0
M  V30 1568 C 162.045 -1.23935 1.92802 0
M  V30 1569 C 163.058 -1.40589 0.820889 0
M  V30 1570 O 164.247 -1.40631 1.09933 0
M  V30 1571 C 161.347 -2.60837 2.16373 0
M  V30 1572 C 160.52 -2.6551 3.47596 0
M  V30 1573 C 159.579 -3.8376 3.60021 0
M  V30 1574 O 158.605 -3.69859 4.32658 0
M  V30 1575 N 159.807 -5.00127 2.94709 0
M  V30 1576 H 162.572 -0.932236 2.84832 0
M  V30 1577 H 160.133 -0.363268 1.57772 0
M  V30 1578 H 162.125 -3.38407 2.21952 0
M  V30 1579 H 160.695 -2.83948 1.30738 0
M  V30 1580 H 159.915 -1.74052 3.53694 0
M  V30 1581 H 161.203 -2.65641 4.33949 0
M  V30 1582 H 160.601 -5.14322 2.35563 0
M  V30 1583 H 159.158 -5.75567 3.05886 0
M  V30 1584 N 162.591 -1.51276 -0.441967 0
M  V30 1585 C 163.501 -1.75092 -1.56141 0
M  V30 1586 C 164.517 -0.634963 -1.62001 0
M  V30 1587 O 165.693 -0.916686 -1.79329 0
M  V30 1588 C 162.758 -1.86666 -2.92158 0
M  V30 1589 C 161.819 -3.10506 -2.96453 0
M  V30 1590 C 161.052 -3.21519 -4.25982 0
M  V30 1591 O 161.275 -2.38586 -5.18105 0
M  V30 1592 O 160.209 -4.14465 -4.36466 0
M  V30 1593 H 164.035 -2.70044 -1.38961 0
M  V30 1594 H 161.62 -1.35722 -0.624499 0
M  V30 1595 H 163.502 -1.96292 -3.72891 0
M  V30 1596 H 162.177 -0.949014 -3.09476 0
M  V30 1597 H 161.084 -3.06363 -2.14692 0
M  V30 1598 H 162.417 -4.01945 -2.84079 0
M  V30 1599 N 164.069 0.697108 -1.41344 0
M  V30 1600 C 164.999 1.82353 -1.45841 0
M  V30 1601 C 165.98 1.67115 -0.317247 0
M  V30 1602 O 167.165 1.86871 -0.528474 0
M  V30 1603 C 164.295 3.20476 -1.33838 0
M  V30 1604 C 163.249 3.50415 -2.4575 0
M  V30 1605 C 162.575 4.87878 -2.18813 0
M  V30 1606 C 163.875 3.49546 -3.88091 0
M  V30 1607 H 165.569 1.78846 -2.40113 0
M  V30 1608 H 163.115 0.859028 -1.15571 0
M  V30 1609 H 165.068 3.98988 -1.35596 0
M  V30 1610 H 163.792 3.24604 -0.360498 0
M  V30 1611 H 162.451 2.74253 -2.43271 0
M  V30 1612 H 162.099 4.8863 -1.19371 0
M  V30 1613 H 161.799 5.08875 -2.93803 0
M  V30 1614 H 163.323 5.68702 -2.22284 0
M  V30 1615 H 164.737 4.18066 -3.92293 0
M  V30 1616 H 163.134 3.82075 -4.62751 0
M  V30 1617 H 164.204 2.48552 -4.16353 0
M  V30 1618 N 165.547 1.27147 0.931209 0
M  V30 1619 C 166.775 1.16082 1.71267 0
M  V30 1620 C 167.19 -0.282772 1.8667 0
M  V30 1621 O 166.547 -1.19283 1.38122 0
M  V30 1622 C 166.598 1.8358 3.11417 0
M  V30 1623 O 166.319 3.22299 2.96741 0
M  V30 1624 C 167.82 1.78597 4.05732 0
M  V30 1625 H 165.04 0.403758 0.535929 0
M  V30 1626 H 167.584 1.67953 1.16671 0
M  V30 1627 H 165.739 1.35623 3.62885 0
M  V30 1628 H 166.153 3.55851 3.85319 0
M  V30 1629 H 167.627 2.30444 5.01597 0
M  V30 1630 H 168.104 0.754564 4.3267 0
M  V30 1631 H 168.71 2.26152 3.60188 0
M  V30 1632 N 167.025 -1.13721 1.09112 0
M  V30 1633 C 167.972 -2.19031 0.727591 0
M  V30 1634 C 168.942 -1.63555 -0.289656 0
M  V30 1635 O 170.127 -1.90023 -0.172026 0
M  V30 1636 C 167.267 -3.4477 0.15082 0
M  V30 1637 C 166.38 -4.14365 1.22172 0
M  V30 1638 C 165.515 -5.27709 0.608042 0
M  V30 1639 C 164.554 -5.89147 1.66047 0
M  V30 1640 N 163.691 -6.93929 1.06806 0
M  V30 1641 H 168.531 -2.49475 1.62991 0
M  V30 1642 H 166.068 -1.22499 0.81439 0
M  V30 1643 H 168.026 -4.16714 -0.201358 0
M  V30 1644 H 166.656 -3.14787 -0.714783 0
M  V30 1645 H 165.708 -3.40737 1.69122 0
M  V30 1646 H 167.02 -4.56114 2.01895 0
M  V30 1647 H 166.174 -6.06355 0.204523 0
M  V30 1648 H 164.913 -4.872 -0.220769 0
M  V30 1649 H 163.918 -5.09198 2.07357 0
M  V30 1650 H 165.143 -6.31729 2.49189 0
M  V30 1651 H 163.089 -6.55483 0.260476 0
M  V30 1652 H 163.006 -7.34202 1.8023 0
M  V30 1653 H 164.274 -7.76434 0.690644 0
M  V30 1654 N 168.503 -0.877838 -1.30888 0
M  V30 1655 C 169.45 -0.337538 -2.28318 0
M  V30 1656 C 170.42 0.568346 -1.56074 0
M  V30 1657 O 171.605 0.498298 -1.84178 0
M  V30 1658 C 168.745 0.448142 -3.42178 0
M  V30 1659 C 167.858 -0.48615 -4.29256 0
M  V30 1660 C 166.993 0.314427 -5.30269 0
M  V30 1661 C 166.032 -0.615791 -6.08995 0
M  V30 1662 N 165.169 0.14902 -7.01942 0
M  V30 1663 H 170.009 -1.17356 -2.73919 0
M  V30 1664 H 167.546 -0.590094 -1.34745 0
M  V30 1665 H 169.504 0.919517 -4.06941 0
M  V30 1666 H 168.134 1.24879 -2.97666 0
M  V30 1667 H 167.186 -1.076 -3.64865 0
M  V30 1668 H 168.498 -1.19909 -4.84173 0
M  V30 1669 H 167.652 0.847969 -6.00745 0
M  V30 1670 H 166.391 1.06062 -4.76027 0
M  V30 1671 H 165.396 -1.16102 -5.37401 0
M  V30 1672 H 166.621 -1.36097 -6.65323 0
M  V30 1673 H 164.567 0.877884 -6.50099 0
M  V30 1674 H 164.484 -0.504433 -7.54315 0
M  V30 1675 H 165.752 0.663537 -7.76671 0
M  V30 1676 N 169.982 1.44106 -0.638065 0
M  V30 1677 C 171.23 2.01579 -0.145043 0
M  V30 1678 C 171.551 1.50496 1.24 0
M  V30 1679 O 170.821 0.711374 1.82527 0
M  V30 1680 H 169.401 0.745282 -0.05063 0
M  V30 1681 H 172.063 1.76516 -0.826327 0
M  V30 1682 H 171.159 3.11877 -0.118039 0
M  V30 1683 N 171.46 0.379036 1.52974 0
M  V30 1684 C 172.7 -0.206325 2.03356 0
M  V30 1685 C 173.064 -1.44892 1.25977 0
M  V30 1686 O 174.265 -2.11078 1.66432 0
M  V30 1687 C 172.536 -0.477887 3.54191 0
M  V30 1688 S 174.095 -1.035 4.26419 0
M  V30 1689 H 170.913 -0.0590259 0.708546 0
M  V30 1690 H 173.515 0.525013 1.88319 0
M  V30 1691 H 172.219 0.433745 4.08101 0
M  V30 1692 H 171.75 -1.23793 3.73415 0
M  V30 1693 H 173.765 -2.31821 4.38718 0
M  V30 1694 N 172.938 -1.57226 0.108567 0
M  V30 1695 C 173.885 -2.14756 -0.845481 0
M  V30 1696 C 174.855 -1.06971 -1.27068 0
M  V30 1697 O 176.04 -1.34827 -1.35005 0
M  V30 1698 C 173.18 -2.74298 -2.09415 0
M  V30 1699 C 172.293 -3.96358 -1.71826 0
M  V30 1700 C 171.428 -4.44021 -2.9158 0
M  V30 1701 C 170.467 -5.58637 -2.50181 0
M  V30 1702 N 169.604 -6.01091 -3.62814 0
M  V30 1703 H 174.444 -2.95961 -0.348035 0
M  V30 1704 H 171.981 -1.46226 -0.160106 0
M  V30 1705 H 173.939 -3.06945 -2.82561 0
M  V30 1706 H 172.569 -1.95801 -2.56636 0
M  V30 1707 H 171.621 -3.69939 -0.885947 0
M  V30 1708 H 172.933 -4.79504 -1.37394 0
M  V30 1709 H 172.087 -4.78522 -3.72963 0
M  V30 1710 H 170.826 -3.59803 -3.29231 0
M  V30 1711 H 169.831 -5.23751 -1.67228 0
M  V30 1712 H 171.056 -6.44613 -2.13659 0
M  V30 1713 H 169.002 -5.19817 -4.00158 0
M  V30 1714 H 168.919 -6.79066 -3.32273 0
M  V30 1715 H 170.187 -6.40227 -4.44668 0
M  V30 1716 N 174.416 0.165178 -1.56732 0
M  V30 1717 C 175.693 0.908443 -1.73224 0
M  V30 1718 C 176.073 2.0013 -0.67165 0
M  V30 1719 O 175.421 2.26353 0.31253 0
M  V30 1720 C 175.631 1.46756 -3.16644 0
M  V30 1721 C 176.979 1.93809 -3.77787 0
M  V30 1722 O 178.003 1.56537 -3.1996 0
M  V30 1723 O 176.862 2.62486 -4.79336 0
M  V30 1724 H 173.956 0.428025 -0.707618 0
M  V30 1725 H 176.502 0.152526 -1.69013 0
M  V30 1726 H 175.274 0.68129 -3.85323 0
M  V30 1727 H 174.897 2.28749 -3.25207 0
M  V30 1728 N 175.894 1.51508 0.433938 0
M  V30 1729 C 177.134 1.66006 1.19253 0
M  V30 1730 C 177.498 0.369868 1.88404 0
M  V30 1731 O 178.699 0.39066 2.65946 0
M  V30 1732 C 176.97 2.83229 2.17981 0
M  V30 1733 S 178.529 3.18075 3.02281 0
M  V30 1734 H 175.347 0.584821 0.404358 0
M  V30 1735 H 177.949 1.89425 0.48357 0
M  V30 1736 H 176.653 3.75407 1.65824 0
M  V30 1737 H 176.184 2.6201 2.93453 0
M  V30 1738 H 178.199 2.64772 4.19655 0
M  V30 1739 N 177.372 -0.689602 1.41712 0
M  V30 1740 C 178.612 -1.46184 1.42862 0
M  V30 1741 C 178.976 -1.91962 0.0382204 0
M  V30 1742 O 180.177 -2.68694 -0.0755019 0
M  V30 1743 C 178.448 -2.6371 2.4123 0
M  V30 1744 S 180.007 -3.52768 2.6096 0
M  V30 1745 H 176.825 -0.49947 0.506015 0
M  V30 1746 H 179.427 -0.804107 1.78198 0
M  V30 1747 H 178.131 -2.28293 3.41044 0
M  V30 1748 H 177.662 -3.3437 2.07269 0
M  V30 1749 H 179.677 -4.59146 1.88148 0
M  V30 1750 N 178.85 -1.27639 -0.924453 0
M  V30 1751 C 180.097 -1.14167 -1.67249 0
M  V30 1752 C 180.425 0.311863 -1.91984 0
M  V30 1753 O 179.68 1.24425 -1.51053 0
M  V30 1754 C 179.979 -1.87407 -3.04325 0
M  V30 1755 C 179.645 -3.37249 -2.99289 0
M  V30 1756 C 178.307 -3.7812 -2.97622 0
M  V30 1757 C 180.659 -4.32845 -2.90336 0
M  V30 1758 C 177.987 -5.12944 -2.8479 0
M  V30 1759 C 180.339 -5.6773 -2.79045 0
M  V30 1760 C 179.003 -6.07889 -2.7573 0
M  V30 1761 H 178.273 -0.417766 -0.612007 0
M  V30 1762 H 180.92 -1.58286 -1.07786 0
M  V30 1763 H 179.225 -1.35805 -3.67511 0
M  V30 1764 H 180.922 -1.74408 -3.61086 0
M  V30 1765 H 177.512 -3.04748 -3.01374 0
M  V30 1766 H 181.696 -4.02239 -2.90719 0
M  V30 1767 H 176.952 -5.432 -2.80612 0
M  V30 1768 H 181.126 -6.41472 -2.71083 0
M  V30 1769 H 178.753 -7.12314 -2.65544 0
M  V30 1770 N 180.328 1.1314 -1.09713 0
M  V30 1771 C 181.576 1.84119 -0.833338 0
M  V30 1772 C 181.897 1.84097 0.642904 0
M  V30 1773 O 181.167 1.29881 1.46655 0
M  V30 1774 H 179.747 0.681766 -0.305293 0
M  V30 1775 H 182.409 1.37038 -1.38588 0
M  V30 1776 H 181.505 2.88543 -1.18951 0
M  V30 1777 N 181.806 0.884767 1.30421 0
M  V30 1778 C 183.034 0.518044 2.0031 0
M  V30 1779 C 183.449 -0.893408 1.66324 0
M  V30 1780 O 182.806 -1.5875 0.900262 0
M  V30 1781 C 182.857 0.682997 3.54989 0
M  V30 1782 O 182.578 2.03888 3.87764 0
M  V30 1783 C 184.079 0.31924 4.42149 0
M  V30 1784 H 181.299 0.200265 0.640418 0
M  V30 1785 H 183.843 1.19001 1.6631 0
M  V30 1786 H 181.998 0.0584052 3.87356 0
M  V30 1787 H 182.412 2.05735 4.82466 0
M  V30 1788 H 183.886 0.485555 5.4986 0
M  V30 1789 H 184.363 -0.742717 4.32875 0
M  V30 1790 H 184.969 0.920147 4.15227 0
M  V30 1791 N 183.284 -1.43765 0.645699 0
M  V30 1792 C 184.531 -2.01898 0.15604 0
M  V30 1793 C 184.859 -1.50887 -1.22733 0
M  V30 1794 O 184.114 -0.689271 -1.8316 0
M  V30 1795 C 184.413 -3.57238 0.107679 0
M  V30 1796 C 184.079 -4.27564 1.43178 0
M  V30 1797 C 182.741 -4.46492 1.7944 0
M  V30 1798 C 185.093 -4.67454 2.30513 0
M  V30 1799 C 182.421 -5.02573 3.02716 0
M  V30 1800 C 184.773 -5.24901 3.53074 0
M  V30 1801 C 183.437 -5.42046 3.89541 0
M  V30 1802 H 182.707 -0.738797 0.057099 0
M  V30 1803 H 185.354 -1.72341 0.834912 0
M  V30 1804 H 183.659 -3.86293 -0.654618 0
M  V30 1805 H 185.356 -3.99965 -0.287938 0
M  V30 1806 H 181.946 -4.13171 1.13963 0
M  V30 1807 H 186.13 -4.5253 2.0379 0
M  V30 1808 H 181.386 -5.14033 3.31028 0
M  V30 1809 H 185.56 -5.54758 4.20971 0
M  V30 1810 H 183.187 -5.85268 4.85145 0
M  V30 1811 N 184.763 -0.387143 -1.52771 0
M  V30 1812 C 185.711 0.463953 -2.27926 0
M  V30 1813 C 186.705 1.06493 -1.31741 0
M  V30 1814 O 187.911 1.00565 -1.49287 0
M  V30 1815 H 184.286 0.16837 -0.732909 0
M  V30 1816 H 186.257 -0.19141 -2.97785 0
M  V30 1817 C 185.006 1.5803 -3.09713 0
M  V30 1818 H 184.329 1.12718 -3.83581 0
M  V30 1819 H 185.769 2.15008 -3.65442 0
M  V30 1820 C 184.228 2.53509 -2.2189 0
M  V30 1821 O 184.758 3.56863 -1.84422 0
M  V30 1822 N 182.964 2.23199 -1.86093 0
M  V30 1823 H 182.511 1.39185 -2.16761 0
M  V30 1824 H 182.469 2.87333 -1.27621 0
M  V30 1825 N 186.241 1.57166 -0.116904 0
M  V30 1826 C 187.518 1.86645 0.585049 0
M  V30 1827 C 187.898 1.0177 1.84949 0
M  V30 1828 O 187.246 0.0960379 2.28298 0
M  V30 1829 C 187.456 3.37736 0.879507 0
M  V30 1830 C 188.804 4.06289 1.23348 0
M  V30 1831 O 189.828 3.42743 0.969836 0
M  V30 1832 O 188.687 5.18455 1.7282 0
M  V30 1833 H 185.781 0.772593 0.295007 0
M  V30 1834 H 188.327 1.69025 -0.151249 0
M  V30 1835 H 187.099 3.91296 -0.0166136 0
M  V30 1836 H 186.722 3.6078 1.67103 0
M  V30 1837 N 187.719 -0.156864 1.56817 0
M  V30 1838 C 188.651 -1.21883 1.94106 0
M  V30 1839 C 189.664 -1.3971 0.835754 0
M  V30 1840 O 190.853 -1.39457 1.11418 0
M  V30 1841 C 187.953 -2.58527 2.19127 0
M  V30 1842 C 187.126 -2.61809 3.50393 0
M  V30 1843 C 186.185 -3.7992 3.64071 0
M  V30 1844 O 185.211 -3.65249 4.36557 0
M  V30 1845 N 186.413 -4.96973 2.99997 0
M  V30 1846 H 189.178 -0.901974 2.85805 0
M  V30 1847 H 186.739 -0.346513 1.58148 0
M  V30 1848 H 188.731 -3.36034 2.25529 0
M  V30 1849 H 187.301 -2.82545 1.33742 0
M  V30 1850 H 186.521 -1.7029 3.5552 0
M  V30 1851 H 187.809 -2.61024 4.36742 0
M  V30 1852 H 187.207 -5.11794 2.41004 0
M  V30 1853 H 185.764 -5.7229 3.11974 0
M  V30 1854 N 189.197 -1.51736 -0.425897 0
M  V30 1855 C 190.144 -1.73875 -1.51776 0
M  V30 1856 C 191.114 -0.580702 -1.55618 0
M  V30 1857 O 192.299 -0.81641 -1.72451 0
M  V30 1858 C 189.439 -1.88012 -2.89388 0
M  V30 1859 C 188.552 -3.15606 -2.94986 0
M  V30 1860 C 187.687 -3.20271 -4.23793 0
M  V30 1861 C 186.726 -4.42134 -4.23302 0
M  V30 1862 N 185.863 -4.44284 -5.43651 0
M  V30 1863 H 190.703 -2.67071 -1.32201 0
M  V30 1864 H 188.24 -1.32351 -0.642008 0
M  V30 1865 H 190.198 -1.9419 -3.69251 0
M  V30 1866 H 188.828 -0.98213 -3.07496 0
M  V30 1867 H 187.88 -3.18681 -2.07717 0
M  V30 1868 H 189.192 -4.05486 -2.90486 0
M  V30 1869 H 188.346 -3.25428 -5.12036 0
M  V30 1870 H 187.085 -2.28299 -4.30965 0
M  V30 1871 H 186.09 -4.3714 -3.3345 0
M  V30 1872 H 187.315 -5.35382 -4.17783 0
M  V30 1873 H 185.261 -3.55188 -5.51523 0
M  V30 1874 H 185.178 -5.27988 -5.41078 0
M  V30 1875 H 186.446 -4.53649 -6.33895 0
M  V30 1876 N 190.675 0.682077 -1.42076 0
M  V30 1877 C 192.091 0.994324 -1.24841 0
M  V30 1878 C 192.291 2.0096 -0.147389 0
M  V30 1879 O 191.347 2.47822 0.483782 0
M  V30 1880 C 192.66 1.50607 -2.60265 0
M  V30 1881 C 194.208 1.62421 -2.6756 0
M  V30 1882 C 194.683 2.16994 -4.03333 0
M  V30 1883 N 196.174 2.24337 -4.0525 0
M  V30 1884 C 196.909 2.67621 -5.07116 0
M  V30 1885 N 196.405 3.1041 -6.19368 0
M  V30 1886 N 198.198 2.67305 -4.94474 0
M  V30 1887 H 190.349 0.00973908 -2.12398 0
M  V30 1888 H 192.612 0.0668593 -0.945639 0
M  V30 1889 H 192.318 0.834583 -3.41654 0
M  V30 1890 H 192.192 2.48602 -2.83684 0
M  V30 1891 H 194.579 2.28678 -1.86521 0
M  V30 1892 H 194.66 0.629352 -2.47937 0
M  V30 1893 H 194.304 1.51349 -4.84826 0
M  V30 1894 H 194.234 3.17258 -4.20304 0
M  V30 1895 H 196.725 1.94158 -3.24209 0
M  V30 1896 H 197.038 3.42103 -6.92954 0
M  V30 1897 H 195.383 3.08286 -6.22884 0
M  V30 1898 H 198.574 2.33233 -4.05857 0
M  V30 1899 H 198.747 3.00718 -5.73997 0
M  V30 1900 N 192.153 1.28127 0.917671 0
M  V30 1901 C 193.401 1.14825 1.66312 0
M  V30 1902 C 193.722 -0.304379 1.9261 0
M  V30 1903 O 192.992 -1.21149 1.53947 0
M  V30 1904 H 191.572 0.421953 0.616413 0
M  V30 1905 H 194.234 1.608 1.10134 0
M  V30 1906 H 193.33 1.68489 2.62712 0
M  V30 1907 N 193.631 -1.12557 1.10312 0
M  V30 1908 C 194.88 -1.83395 0.839588 0
M  V30 1909 C 195.193 -1.84939 -0.636929 0
M  V30 1910 O 196.399 -2.51761 -1.01631 0
M  V30 1911 C 194.855 -3.29303 1.45215 0
M  V30 1912 C 194.463 -3.36122 2.96186 0
M  V30 1913 C 196.207 -4.05121 1.26796 0
M  V30 1914 C 194.114 -4.76357 3.50483 0
M  V30 1915 H 193.044 -0.687133 0.310425 0
M  V30 1916 H 195.695 -1.26746 1.32694 0
M  V30 1917 H 194.077 -3.85812 0.892469 0
M  V30 1918 H 195.251 -2.89559 3.58458 0
M  V30 1919 H 193.566 -2.73776 3.13745 0
M  V30 1920 H 196.163 -5.08668 1.64806 0
M  V30 1921 H 196.506 -4.15773 0.209409 0
M  V30 1922 H 197.039 -3.54967 1.79563 0
M  V30 1923 H 193.778 -4.70899 4.55998 0
M  V30 1924 H 193.298 -5.23377 2.92978 0
M  V30 1925 H 194.977 -5.45294 3.48228 0
M  V30 1926 N 195.109 -0.891671 -1.2995 0
M  V30 1927 C 196.349 -0.520296 -1.97667 0
M  V30 1928 C 196.713 0.914797 -1.68806 0
M  V30 1929 O 197.914 1.39263 -2.29911 0
M  V30 1930 C 196.185 -0.795222 -3.48441 0
M  V30 1931 S 197.744 -0.526953 -4.35624 0
M  V30 1932 H 194.562 -0.19333 -0.684211 0
M  V30 1933 H 197.164 -1.15238 -1.57926 0
M  V30 1934 H 195.868 -1.83805 -3.66938 0
M  V30 1935 H 195.399 -0.15095 -3.9311 0
M  V30 1936 H 197.414 0.631533 -4.92165 0
M  V30 1937 N 196.587 1.43421 -0.653314 0
M  V30 1938 C 198.003 1.56341 -0.320886 0
M  V30 1939 C 198.203 1.63696 1.17499 0
M  V30 1940 O 197.259 1.59208 1.95982 0
M  V30 1941 C 198.572 2.82424 -1.03233 0
M  V30 1942 C 200.12 2.96168 -1.01259 0
M  V30 1943 C 200.595 4.25084 -1.70492 0
M  V30 1944 N 202.086 4.31948 -1.67257 0
M  V30 1945 C 202.821 5.30466 -2.17701 0
M  V30 1946 N 202.317 6.35261 -2.76434 0
M  V30 1947 N 204.11 5.2212 -2.082 0
M  V30 1948 H 196.261 1.3689 -1.62403 0
M  V30 1949 H 198.524 0.657455 -0.682977 0
M  V30 1950 H 198.23 2.83053 -2.08744 0
M  V30 1951 H 198.104 3.72653 -0.583948 0
M  V30 1952 H 200.491 2.9508 0.0341235 0
M  V30 1953 H 200.572 2.07229 -1.49966 0
M  V30 1954 H 200.216 4.26932 -2.7512 0
M  V30 1955 H 200.146 5.1292 -1.19251 0
M  V30 1956 H 202.637 3.56838 -1.24398 0
M  V30 1957 H 202.95 7.06754 -3.12601 0
M  V30 1958 H 201.295 6.35884 -2.80495 0
M  V30 1959 H 204.486 4.39166 -1.62021 0
M  V30 1960 H 204.659 5.98739 -2.47822 0
M  V30 1961 N 198.065 0.39524 1.52563 0
M  V30 1962 C 199.476 -0.0774719 1.86539 0
M  V30 1963 C 199.827 -1.45641 1.31466 0
M  V30 1964 O 198.952 -2.06459 0.648367 0
M  V30 1965 C 199.547 -0.147356 3.38479 0
M  V30 1966 C 198.106 -0.564373 3.72145 0
M  V30 1967 C 197.253 0.269919 2.75983 0
M  V30 1968 H 200.204 0.612876 1.46388 0
M  V30 1969 H 200.225 -0.965343 3.68051 0
M  V30 1970 H 199.737 0.856387 3.78534 0
M  V30 1971 H 197.838 -1.57527 3.37663 0
M  V30 1972 H 197.951 -0.318402 4.78041 0
M  V30 1973 H 196.315 -0.265696 2.5331 0
M  V30 1974 H 197.098 1.27175 3.18875 0
M  V30 1975 N 199.544 -1.57102 0.125237 0
M  V30 1976 C 200.79 -1.96488 -0.525753 0
M  V30 1977 C 201.145 -1.00786 -1.6389 0
M  V30 1978 O 200.438 -0.038979 -1.9156 0
M  V30 1979 C 200.632 -3.40096 -1.09862 0
M  V30 1980 C 200.461 -4.4968 -0.0425004 0
M  V30 1981 C 199.231 -5.03781 0.391463 0
M  V30 1982 C 201.429 -5.08936 0.740829 0
M  V30 1983 N 199.411 -5.96948 1.4327 0
M  V30 1984 C 200.782 -5.98105 1.6331 0
M  V30 1985 C 202.837 -4.91576 0.791029 0
M  V30 1986 C 201.54 -6.71774 2.57122 0
M  V30 1987 C 203.566 -5.6593 1.71688 0
M  V30 1988 C 202.928 -6.5479 2.59672 0
M  V30 1989 H 199.027 -0.765072 -0.161831 0
M  V30 1990 H 201.611 -1.93511 0.214801 0
M  V30 1991 H 199.782 -3.43707 -1.80887 0
M  V30 1992 H 201.514 -3.66591 -1.71444 0
M  V30 1993 H 198.269 -4.736 -0.00213584 0
M  V30 1994 H 198.693 -6.48236 1.95243 0
M  V30 1995 H 203.335 -4.22615 0.124915 0
M  V30 1996 H 201.053 -7.39977 3.24744 0
M  V30 1997 H 204.639 -5.54501 1.76125 0
M  V30 1998 H 203.519 -7.11316 3.30149 0
M  V30 1999 N 201.022 0.148545 -1.56898 0
M  V30 2000 C 202.25 0.876389 -1.87422 0
M  V30 2001 C 202.665 1.74809 -0.713256 0
M  V30 2002 O 202.022 1.79725 0.317025 0
M  V30 2003 C 202.073 1.73438 -3.17178 0
M  V30 2004 O 201.794 0.897809 -4.28802 0
M  V30 2005 C 203.295 2.56993 -3.61205 0
M  V30 2006 H 200.515 0.253489 -0.621277 0
M  V30 2007 H 203.059 0.141798 -2.04008 0
M  V30 2008 H 201.214 2.42205 -3.0235 0
M  V30 2009 H 201.628 1.48672 -5.02988 0
M  V30 2010 H 203.102 3.12773 -4.54838 0
M  V30 2011 H 203.579 3.32958 -2.86419 0
M  V30 2012 H 204.185 1.9352 -3.78722 0
M  V30 2013 N 202.5 1.5196 0.417844 0
M  V30 2014 C 203.448 1.75278 1.52907 0
M  V30 2015 C 204.442 0.619611 1.57662 0
M  V30 2016 O 205.648 0.801457 1.61173 0
M  V30 2017 H 202.023 0.554141 0.508362 0
M  V30 2018 H 203.994 2.68389 1.30422 0
M  V30 2019 C 202.743 1.91262 2.90369 0
M  V30 2020 H 202.066 2.77872 2.8745 0
M  V30 2021 H 203.506 2.11581 3.67436 0
M  V30 2022 C 201.965 0.677431 3.30019 0
M  V30 2023 O 202.495 -0.158799 4.01386 0
M  V30 2024 N 200.701 0.515851 2.85985 0
M  V30 2025 H 200.248 1.19744 2.28077 0
M  V30 2026 H 200.206 -0.309315 3.12875 0
M  V30 2027 N 203.978 -0.674533 1.42435 0
M  V30 2028 C 205.218 -1.4466 1.44405 0
M  V30 2029 C 205.582 -1.91911 0.0585784 0
M  V30 2030 O 206.783 -2.68759 -0.0469991 0
M  V30 2031 C 205.054 -2.61136 2.44013 0
M  V30 2032 S 206.613 -3.49981 2.64687 0
M  V30 2033 H 203.431 -0.494074 0.511284 0
M  V30 2034 H 206.033 -0.785162 1.7904 0
M  V30 2035 H 204.737 -2.24662 3.43446 0
M  V30 2036 H 204.268 -3.32153 2.10803 0
M  V30 2037 H 206.283 -4.57124 1.93007 0
M  V30 2038 N 205.456 -1.28612 -0.910864 0
M  V30 2039 C 206.681 -1.1891 -1.69927 0
M  V30 2040 C 207.106 0.248372 -1.86453 0
M  V30 2041 O 206.464 1.17961 -1.37676 0
M  V30 2042 C 206.512 -1.89578 -3.06745 0
M  V30 2043 O 205.616 -1.20521 -3.94396 0
M  V30 2044 H 204.957 -0.412632 -0.520222 0
M  V30 2045 H 207.487 -1.69985 -1.1387 0
M  V30 2046 H 207.497 -1.97597 -3.56958 0
M  V30 2047 H 206.172 -2.94136 -2.94035 0
M  V30 2048 H 204.749 -1.20684 -3.52831 0
M  V30 2049 N 206.934 1.1197 -1.10907 0
M  V30 2050 C 207.864 2.19928 -0.784473 0
M  V30 2051 C 208.845 1.6833 0.244726 0
M  V30 2052 O 210.03 1.93892 0.109418 0
M  V30 2053 C 207.16 3.46597 -0.220827 0
M  V30 2054 C 206.114 4.11376 -1.18127 0
M  V30 2055 C 205.44 5.32554 -0.478594 0
M  V30 2056 C 206.74 4.56945 -2.52979 0
M  V30 2057 H 208.434 2.47337 -1.68715 0
M  V30 2058 H 205.98 1.18879 -0.812642 0
M  V30 2059 H 207.933 4.21396 0.0184278 0
M  V30 2060 H 206.657 3.1863 0.717113 0
M  V30 2061 H 205.316 3.38564 -1.40606 0
M  V30 2062 H 204.964 5.00856 0.463976 0
M  V30 2063 H 204.664 5.76844 -1.11912 0
M  V30 2064 H 206.188 6.10096 -0.248 0
M  V30 2065 H 207.602 5.23093 -2.3462 0
M  V30 2066 H 205.999 5.1203 -3.12962 0
M  V30 2067 H 207.069 3.70676 -3.12614 0
M  V30 2068 N 208.412 0.89855 1.29475 0
M  V30 2069 C 209.689 0.443416 1.90508 0
M  V30 2070 C 210.069 -1.07685 1.81569 0
M  V30 2071 O 209.417 -1.9182 1.24166 0
M  V30 2072 C 209.627 0.956708 3.35631 0
M  V30 2073 C 210.975 0.999728 4.12663 0
M  V30 2074 O 211.999 0.904299 3.4453 0
M  V30 2075 O 210.858 1.14289 5.34416 0
M  V30 2076 H 207.952 0.138025 0.815401 0
M  V30 2077 H 210.498 0.98834 1.37949 0
M  V30 2078 H 209.27 2.00067 3.36287 0
M  V30 2079 H 208.893 0.391728 3.95666 0
M  V30 2080 N 209.89 -1.43072 0.660911 0
M  V30 2081 C 211.138 -2.01323 0.177094 0
M  V30 2082 C 211.459 -1.5245 -1.2159 0
M  V30 2083 O 210.729 -0.740322 -1.81373 0
M  V30 2084 H 209.309 -0.744382 0.0624804 0
M  V30 2085 H 211.971 -1.75179 0.854305 0
M  V30 2086 H 211.067 -3.11649 0.167641 0
M  V30 2087 N 211.368 -0.403325 -1.52352 0
M  V30 2088 C 212.315 0.425011 -2.26853 0
M  V30 2089 C 213.285 1.04598 -1.29029 0
M  V30 2090 O 214.47 1.07135 -1.57882 0
M  V30 2091 C 211.61 1.53888 -3.08889 0
M  V30 2092 C 210.723 0.939396 -4.21663 0
M  V30 2093 C 209.858 2.02547 -4.91068 0
M  V30 2094 C 208.897 1.40263 -5.95813 0
M  V30 2095 N 208.034 2.4286 -6.58759 0
M  V30 2096 H 212.874 -0.21674 -2.97211 0
M  V30 2097 H 210.411 -0.118722 -1.4662 0
M  V30 2098 H 212.369 2.19558 -3.54753 0
M  V30 2099 H 210.999 2.15074 -2.40714 0
M  V30 2100 H 210.051 0.171898 -3.80011 0
M  V30 2101 H 211.363 0.44436 -4.96817 0
M  V30 2102 H 210.517 2.75958 -5.40308 0
M  V30 2103 H 209.256 2.55415 -4.15469 0
M  V30 2104 H 208.261 0.653833 -5.45898 0
M  V30 2105 H 209.486 0.881719 -6.73352 0
M  V30 2106 H 207.432 2.94871 -5.85992 0
M  V30 2107 H 207.349 1.98152 -7.2957 0
M  V30 2108 H 208.617 3.15858 -7.12639 0
M  V30 2109 N 212.846 1.57033 -0.133567 0
M  V30 2110 C 214.071 2.00475 0.531477 0
M  V30 2111 C 214.496 1.01291 1.58499 0
M  V30 2112 O 213.854 -0.0133279 1.81295 0
M  V30 2113 C 213.902 3.42729 1.12113 0
M  V30 2114 O 213.006 3.46498 2.23636 0
M  V30 2115 H 212.347 0.650876 0.131362 0
M  V30 2116 H 214.877 2.03344 -0.22634 0
M  V30 2117 H 214.887 3.81246 1.4531 0
M  V30 2118 H 213.562 4.14428 0.349557 0
M  V30 2119 H 212.139 3.19811 1.91769 0
M  V30 2120 N 214.325 -0.140222 1.56975 0
M  V30 2121 C 215.571 -0.852949 1.83991 0
M  V30 2122 C 215.904 -1.80512 0.716187 0
M  V30 2123 O 215.179 -1.92479 -0.279681 0
M  V30 2124 C 215.462 -1.6215 3.21527 0
M  V30 2125 C 215.315 -0.690363 4.4447 0
M  V30 2126 C 216.634 -2.58247 3.56366 0
M  V30 2127 H 213.753 -0.308634 0.669264 0
M  V30 2128 H 216.395 -0.117898 1.89634 0
M  V30 2129 H 214.545 -2.24812 3.16847 0
M  V30 2130 H 216.217 -0.0742264 4.6124 0
M  V30 2131 H 214.46 -0.000396433 4.338 0
M  V30 2132 H 215.131 -1.2643 5.37326 0
M  V30 2133 H 217.607 -2.05701 3.61699 0
M  V30 2134 H 216.483 -3.09067 4.53617 0
M  V30 2135 H 216.744 -3.39923 2.82674 0
M  V30 2136 N 215.803 -1.52179 -0.40978 0
M  V30 2137 C 216.733 -1.78435 -1.5061 0
M  V30 2138 C 217.714 -0.635295 -1.57791 0
M  V30 2139 O 218.899 -0.880823 -1.73076 0
M  V30 2140 C 216.029 -1.93444 -2.88439 0
M  V30 2141 C 214.983 -3.09038 -2.96108 0
M  V30 2142 C 214.309 -3.09268 -4.36185 0
M  V30 2143 C 215.609 -4.48508 -2.67652 0
M  V30 2144 H 217.303 -2.70237 -1.28889 0
M  V30 2145 H 214.849 -1.30036 -0.618605 0
M  V30 2146 H 216.802 -2.10394 -3.65119 0
M  V30 2147 H 215.526 -0.983129 -3.11452 0
M  V30 2148 H 214.185 -2.91837 -2.21872 0
M  V30 2149 H 213.833 -2.11861 -4.56206 0
M  V30 2150 H 213.533 -3.86907 -4.42241 0
M  V30 2151 H 215.057 -3.28348 -5.14801 0
M  V30 2152 H 216.471 -4.65918 -3.34056 0
M  V30 2153 H 214.868 -5.28059 -2.85085 0
M  V30 2154 H 215.938 -4.56649 -1.63095 0
M  V30 2155 N 217.281 0.66697 -1.42791 0
M  V30 2156 C 218.527 1.4291 -1.43891 0
M  V30 2157 C 218.86 1.94114 -0.0578972 0
M  V30 2158 O 218.135 1.71414 0.91911 0
M  V30 2159 C 218.418 2.62049 -2.46987 0
M  V30 2160 C 218.271 2.16426 -3.94309 0
M  V30 2161 C 219.59 3.64266 -2.46978 0
M  V30 2162 H 216.709 0.518306 -0.523954 0
M  V30 2163 H 219.351 0.757321 -1.74255 0
M  V30 2164 H 217.501 3.19361 -2.21225 0
M  V30 2165 H 219.173 1.64221 -4.31079 0
M  V30 2166 H 217.416 1.47925 -4.078 0
M  V30 2167 H 218.087 3.02038 -4.62036 0
M  V30 2168 H 220.563 3.16686 -2.69906 0
M  V30 2169 H 219.439 4.45196 -3.21079 0
M  V30 2170 H 219.7 4.15927 -1.49857 0
M  V30 2171 N 218.759 1.29093 0.90403 0
M  V30 2172 C 219.707 1.13727 2.02901 0
M  V30 2173 C 220.701 0.0539853 1.69314 0
M  V30 2174 O 221.907 0.213469 1.7873 0
M  V30 2175 H 218.282 0.35117 0.664969 0
M  V30 2176 H 220.253 2.08982 2.13001 0
M  V30 2177 C 219.002 0.826066 3.37745 0
M  V30 2178 H 218.325 1.65164 3.64089 0
M  V30 2179 H 219.765 0.758559 4.17159 0
M  V30 2180 C 218.224 -0.470541 3.33598 0
M  V30 2181 O 218.754 -1.49792 3.72727 0
M  V30 2182 N 216.96 -0.474812 2.86695 0
M  V30 2183 H 216.507 0.361692 2.55048 0
M  V30 2184 H 216.465 -1.34236 2.84303 0
M  V30 2185 N 220.237 -1.11381 1.11499 0
M  V30 2186 C 221.485 -1.8277 0.862524 0
M  V30 2187 C 221.806 -1.85097 -0.613534 0
M  V30 2188 O 221.076 -1.32198 -1.4457 0
M  V30 2189 H 219.656 -0.676823 0.316101 0
M  V30 2190 H 222.318 -1.34816 1.4075 0
M  V30 2191 H 221.414 -2.86614 1.23527 0
M  V30 2192 N 221.715 -0.905404 -1.28997 0
M  V30 2193 C 222.943 -0.549846 -1.9946 0
M  V30 2194 C 223.358 0.866834 -1.67724 0
M  V30 2195 O 222.715 1.57298 -0.925404 0
M  V30 2196 C 222.766 -0.739387 -3.53858 0
M  V30 2197 O 222.487 -2.10031 -3.84472 0
M  V30 2198 C 223.988 -0.389541 -4.41585 0
M  V30 2199 H 221.208 -0.210429 -0.637151 0
M  V30 2200 H 223.752 -1.21632 -1.64396 0
M  V30 2201 H 221.907 -0.120023 -3.87214 0
M  V30 2202 H 222.321 -2.13385 -4.79132 0
M  V30 2203 H 223.795 -0.572972 -5.49018 0
M  V30 2204 H 224.272 0.673756 -4.34001 0
M  V30 2205 H 224.878 -0.986089 -4.1371 0
M  V30 2206 N 223.193 1.4272 -0.668489 0
M  V30 2207 C 224.14 2.30796 0.0137489 0
M  V30 2208 C 225.11 1.4561 0.799177 0
M  V30 2209 O 226.295 1.74453 0.772702 0
M  V30 2210 C 223.435 3.31377 0.963507 0
M  V30 2211 C 222.548 4.31655 0.172569 0
M  V30 2212 C 221.683 5.19312 1.1175 0
M  V30 2213 C 220.722 6.11274 0.317886 0
M  V30 2214 N 219.859 6.91504 1.2152 0
M  V30 2215 H 224.699 2.88585 -0.743161 0
M  V30 2216 H 222.236 1.42154 -0.378226 0
M  V30 2217 H 224.194 3.88214 1.52792 0
M  V30 2218 H 222.824 2.75202 1.68712 0
M  V30 2219 H 221.876 3.76988 -0.508374 0
M  V30 2220 H 223.188 4.96779 -0.448527 0
M  V30 2221 H 222.342 5.80851 1.75206 0
M  V30 2222 H 221.081 4.5435 1.77249 0
M  V30 2223 H 220.086 5.48809 -0.329918 0
M  V30 2224 H 221.311 6.78283 -0.332917 0
M  V30 2225 H 219.257 6.29176 1.85671 0
M  V30 2226 H 219.174 7.53209 0.649036 0
M  V30 2227 H 220.442 7.57535 1.83742 0
M  V30 2228 N 224.671 0.411399 1.52136 0
M  V30 2229 C 225.581 -0.419774 2.30814 0
M  V30 2230 C 226.597 -1.0515 1.38634 0
M  V30 2231 O 227.773 -1.05252 1.71709 0
M  V30 2232 C 224.838 -1.52019 3.11594 0
M  V30 2233 C 223.899 -0.91129 4.19516 0
M  V30 2234 C 223.132 -1.95927 4.96436 0
M  V30 2235 O 223.355 -3.17775 4.73683 0
M  V30 2236 O 222.289 -1.56423 5.81219 0
M  V30 2237 H 226.115 0.221805 3.02889 0
M  V30 2238 H 223.7 0.174547 1.48377 0
M  V30 2239 H 225.582 -2.15898 3.61892 0
M  V30 2240 H 224.257 -2.14633 2.42311 0
M  V30 2241 H 223.164 -0.235157 3.7336 0
M  V30 2242 H 224.497 -0.32904 4.91099 0
M  V30 2243 N 226.149 -1.5696 0.141893 0
M  V30 2244 C 227.565 -1.58151 -0.21456 0
M  V30 2245 C 227.765 -1.1559 -1.65049 0
M  V30 2246 O 226.821 -0.853832 -2.37626 0
M  V30 2247 C 228.134 -3.00674 0.0395576 0
M  V30 2248 C 229.682 -3.1299 -0.0245529 0
M  V30 2249 C 230.157 -4.57554 0.202167 0
M  V30 2250 N 231.648 -4.62961 0.148919 0
M  V30 2251 C 232.383 -5.7262 0.298924 0
M  V30 2252 N 231.879 -6.90947 0.50637 0
M  V30 2253 N 233.672 -5.61601 0.236886 0
M  V30 2254 H 225.823 -1.8292 1.07953 0
M  V30 2255 H 228.086 -0.846425 0.42693 0
M  V30 2256 H 227.792 -3.36183 1.03315 0
M  V30 2257 H 227.666 -3.70981 -0.682143 0
M  V30 2258 H 230.053 -2.77326 -1.00869 0
M  V30 2259 H 230.134 -2.4518 0.729396 0
M  V30 2260 H 229.778 -4.93922 1.18338 0
M  V30 2261 H 229.708 -5.23484 -0.572044 0
M  V30 2262 H 232.199 -3.77899 -0.00697015 0
M  V30 2263 H 232.512 -7.7038 0.611076 0
M  V30 2264 H 230.857 -6.92878 0.542628 0
M  V30 2265 H 234.048 -4.68039 0.0756209 0
M  V30 2266 H 234.221 -6.47015 0.357227 0
M  V30 2267 N 227.627 0.131896 -1.57047 0
M  V30 2268 C 228.904 0.871495 -1.75112 0
M  V30 2269 C 229.284 1.9866 -0.713949 0
M  V30 2270 O 228.632 2.26965 0.264447 0
M  V30 2271 C 228.842 1.40007 -3.19686 0
M  V30 2272 C 230.19 1.85752 -3.81813 0
M  V30 2273 O 231.214 1.49715 -3.23209 0
M  V30 2274 O 230.073 2.5226 -4.84796 0
M  V30 2275 H 227.167 0.412919 -0.716538 0
M  V30 2276 H 229.713 0.116641 -1.69299 0
M  V30 2277 H 228.485 0.599404 -3.86682 0
M  V30 2278 H 228.108 2.218 -3.29986 0
M  V30 2279 N 229.106 1.52395 0.401703 0
M  V30 2280 C 230.352 1.67065 1.14966 0
M  V30 2281 C 230.685 0.403052 1.89971 0
M  V30 2282 O 229.96 -0.598774 1.85054 0
M  V30 2283 C 230.243 2.8975 2.13815 0
M  V30 2284 C 230.096 4.26578 1.42658 0
M  V30 2285 C 231.415 3.07965 3.14397 0
M  V30 2286 H 228.534 0.607968 0.416587 0
M  V30 2287 H 231.176 1.84965 0.434511 0
M  V30 2288 H 229.326 2.74619 2.74803 0
M  V30 2289 H 230.998 4.53451 0.847329 0
M  V30 2290 H 229.241 4.27639 0.72849 0
M  V30 2291 H 229.912 5.08483 2.14823 0
M  V30 2292 H 232.388 3.22043 2.63491 0
M  V30 2293 H 231.264 3.95308 3.80819 0
M  V30 2294 H 231.525 2.21611 3.82545 0
M  V30 2295 N 230.584 -0.659388 1.43143 0
M  V30 2296 C 231.83 -1.42145 1.44647 0
M  V30 2297 C 232.163 -1.9408 0.0681907 0
M  V30 2298 O 231.438 -1.71899 -0.910007 0
M  V30 2299 C 231.721 -2.60735 2.48373 0
M  V30 2300 C 231.574 -2.14332 3.95451 0
M  V30 2301 C 232.893 -3.62951 2.48906 0
M  V30 2302 H 230.012 -0.51552 0.526696 0
M  V30 2303 H 232.654 -0.748069 1.74654 0
M  V30 2304 H 230.804 -3.18184 2.22916 0
M  V30 2305 H 232.476 -1.61932 4.31944 0
M  V30 2306 H 230.719 -1.4576 4.08578 0
M  V30 2307 H 231.39 -2.99583 4.63631 0
M  V30 2308 H 233.866 -3.1525 2.71582 0
M  V30 2309 H 232.742 -4.43487 3.23435 0
M  V30 2310 H 233.003 -4.15126 1.52061 0
M  V30 2311 N 232.062 -1.29571 -0.897171 0
M  V30 2312 C 233.302 -1.18959 -1.66217 0
M  V30 2313 C 233.666 0.254271 -1.90309 0
M  V30 2314 O 234.867 0.483407 -2.64417 0
M  V30 2315 C 233.138 -1.98302 -2.9734 0
M  V30 2316 S 234.697 -2.04253 -3.88364 0
M  V30 2317 H 231.515 -0.424137 -0.570639 0
M  V30 2318 H 234.117 -1.6389 -1.06585 0
M  V30 2319 H 232.821 -3.02342 -2.77521 0
M  V30 2320 H 232.352 -1.53986 -3.62011 0
M  V30 2321 H 234.367 -1.16105 -4.82425 0
M  V30 2322 N 233.54 1.10788 -1.12088 0
M  V30 2323 C 234.788 1.8231 -0.872205 0
M  V30 2324 C 235.109 1.85419 0.603709 0
M  V30 2325 O 234.379 1.32963 1.43867 0
M  V30 2326 H 232.959 0.675137 -0.319686 0
M  V30 2327 H 235.621 1.34068 -1.41463 0
M  V30 2328 H 234.717 2.85955 -1.25045 0
M  V30 2329 N 235.018 0.912232 1.28515 0
M  V30 2330 C 236.429 0.591352 1.77087 0
M  V30 2331 C 236.78 -0.8933 1.74684 0
M  V30 2332 O 235.905 -1.69876 1.34056 0
M  V30 2333 C 236.5 1.06668 3.2157 0
M  V30 2334 C 235.059 0.79675 3.67871 0
M  V30 2335 C 234.206 1.23427 2.48316 0
M  V30 2336 H 237.157 1.09365 1.15 0
M  V30 2337 H 237.178 0.407455 3.78312 0
M  V30 2338 H 236.69 2.14726 3.23287 0
M  V30 2339 H 234.791 -0.270679 3.71616 0
M  V30 2340 H 234.904 1.40343 4.58084 0
M  V30 2341 H 233.268 0.653036 2.46186 0
M  V30 2342 H 234.051 2.32316 2.52753 0
M  V30 2343 N 236.496 -1.42363 0.676048 0
M  V30 2344 C 237.721 -2.06377 0.205705 0
M  V30 2345 C 238.146 -1.50463 -1.12883 0
M  V30 2346 O 237.504 -0.623619 -1.70237 0
M  V30 2347 C 237.552 -3.60277 0.152655 0
M  V30 2348 O 236.656 -4.02935 -0.87845 0
M  V30 2349 H 235.997 -0.655588 0.105359 0
M  V30 2350 H 238.527 -1.82475 0.925412 0
M  V30 2351 H 238.537 -4.07993 -0.0230675 0
M  V30 2352 H 237.212 -4.00346 1.12675 0
M  V30 2353 H 235.789 -3.66764 -0.673668 0
M  V30 2354 N 237.974 -0.419461 -1.51915 0
M  V30 2355 C 239.385 0.0477853 -1.86639 0
M  V30 2356 C 239.736 1.43531 -1.33766 0
M  V30 2357 O 238.861 2.05401 -0.68113 0
M  V30 2358 C 239.456 0.0934885 -3.38671 0
M  V30 2359 C 238.015 0.505097 -3.72996 0
M  V30 2360 C 237.162 -0.313792 -2.75519 0
M  V30 2361 H 240.113 -0.636088 -1.45395 0
M  V30 2362 H 240.134 0.906667 -3.6954 0
M  V30 2363 H 239.646 -0.916501 -3.77123 0
M  V30 2364 H 237.747 1.52135 -3.40126 0
M  V30 2365 H 237.86 0.242309 -4.78487 0
M  V30 2366 H 236.224 0.225363 -2.53701 0
M  V30 2367 H 237.007 -1.32232 -3.16812 0
M  V30 2368 N 239.452 1.56882 -0.150215 0
M  V30 2369 C 240.415 2.1573 0.774157 0
M  V30 2370 C 241.415 1.0999 1.17298 0
M  V30 2371 O 242.605 1.35613 1.09338 0
M  V30 2372 C 239.737 2.72302 2.05096 0
M  V30 2373 H 240.93 2.98752 0.262201 0
M  V30 2374 H 238.483 1.55985 0.099248 0
M  V30 2375 H 239.218 1.92956 2.6065 0
M  V30 2376 H 239.003 3.49665 1.77416 0
M  V30 2377 H 240.493 3.17632 2.71109 0
M  V30 2378 N 240.93 -0.123565 1.57115 0
M  V30 2379 C 242.207 -0.862196 1.75572 0
M  V30 2380 C 242.587 -1.98279 0.724475 0
M  V30 2381 O 241.935 -2.27102 -0.252407 0
M  V30 2382 C 242.145 -1.38309 3.20424 0
M  V30 2383 C 243.493 -1.83724 3.82793 0
M  V30 2384 O 244.517 -1.47999 3.23998 0
M  V30 2385 O 243.376 -2.49685 4.86127 0
M  V30 2386 H 240.47 -0.409113 0.718718 0
M  V30 2387 H 243.016 -0.107661 1.69358 0
M  V30 2388 H 241.788 -0.578889 3.86994 0
M  V30 2389 H 241.411 -2.20046 3.31158 0
M  V30 2390 N 242.408 -1.52605 -0.393616 0
M  V30 2391 C 243.338 -1.80022 -1.48709 0
M  V30 2392 C 244.319 -0.651995 -1.57108 0
M  V30 2393 O 245.504 -0.89913 -1.72132 0
M  V30 2394 C 242.634 -1.96492 -2.86371 0
M  V30 2395 C 241.588 -3.12161 -2.92813 0
M  V30 2396 C 240.914 -3.13877 -4.3288 0
M  V30 2397 C 242.214 -4.51322 -2.6288 0
M  V30 2398 H 243.908 -2.71589 -1.26015 0
M  V30 2399 H 241.454 -1.30684 -0.604778 0
M  V30 2400 H 243.407 -2.14255 -3.62867 0
M  V30 2401 H 242.131 -1.01611 -3.10391 0
M  V30 2402 H 240.79 -2.94173 -2.18764 0
M  V30 2403 H 240.438 -2.16687 -4.53933 0
M  V30 2404 H 240.138 -3.91576 -4.38112 0
M  V30 2405 H 241.662 -3.33789 -5.1129 0
M  V30 2406 H 243.076 -4.69435 -3.29096 0
M  V30 2407 H 241.473 -5.31053 -2.79468 0
M  V30 2408 H 242.543 -4.58353 -1.58242 0
M  V30 2409 N 243.887 0.651787 -1.4349 0
M  V30 2410 C 245.112 1.44434 -1.48841 0
M  V30 2411 C 245.537 1.8779 -0.107955 0
M  V30 2412 O 244.895 1.57464 0.898602 0
M  V30 2413 C 244.943 2.65458 -2.44059 0
M  V30 2414 O 244.047 3.64566 -1.92784 0
M  V30 2415 H 243.388 0.433005 -0.503391 0
M  V30 2416 H 245.918 0.797451 -1.88419 0
M  V30 2417 H 245.928 3.13255 -2.6141 0
M  V30 2418 H 244.603 2.33244 -3.4434 0
M  V30 2419 H 243.18 3.23716 -1.851 0
M  V30 2420 N 245.365 1.30045 0.890287 0
M  V30 2421 C 246.776 1.16738 1.45702 0
M  V30 2422 C 247.127 -0.233939 1.948 0
M  V30 2423 O 246.252 -1.13021 1.84541 0
M  V30 2424 C 246.847 2.11313 2.64825 0
M  V30 2425 C 245.406 2.02001 3.17604 0
M  V30 2426 C 244.553 2.01699 1.90296 0
M  V30 2427 H 247.504 1.42392 0.700726 0
M  V30 2428 H 247.525 1.69086 3.40867 0
M  V30 2429 H 247.037 3.13294 2.2906 0
M  V30 2430 H 245.138 1.03142 3.5804 0
M  V30 2431 H 245.251 2.90128 3.81264 0
M  V30 2432 H 243.615 1.46427 2.08402 0
M  V30 2433 H 244.398 3.05402 1.56795 0
M  V30 2434 N 246.843 -1.10192 1.12674 0
M  V30 2435 C 248.091 -1.81845 0.881861 0
M  V30 2436 C 248.412 -1.85737 -0.593867 0
M  V30 2437 O 247.682 -1.33724 -1.4316 0
M  V30 2438 H 246.262 -0.673432 0.323261 0
M  V30 2439 H 248.924 -1.33316 1.42172 0
M  V30 2440 H 248.02 -2.85288 1.2656 0
M  V30 2441 N 248.321 -0.919034 -1.28029 0
M  V30 2442 C 249.284 -0.416182 -2.2539 0
M  V30 2443 C 250.284 0.460438 -1.54067 0
M  V30 2444 O 251.474 0.262744 -1.72207 0
M  V30 2445 C 248.606 0.402707 -3.38513 0
M  V30 2446 H 249.799 -1.27629 -2.71387 0
M  V30 2447 H 247.352 -0.698919 -1.39803 0
M  V30 2448 H 248.087 1.282 -2.97885 0
M  V30 2449 H 247.872 -0.225698 -3.9145 0
M  V30 2450 H 249.362 0.745191 -4.10897 0
M  V30 2451 N 249.799 1.42003 -0.683588 0
M  V30 2452 C 251.024 2.06265 -0.216647 0
M  V30 2453 C 251.449 1.51059 1.12083 0
M  V30 2454 O 250.807 0.632638 1.69904 0
M  V30 2455 C 250.855 3.60191 -0.171759 0
M  V30 2456 O 249.959 4.03396 0.857069 0
M  V30 2457 H 249.3 0.65502 -0.108834 0
M  V30 2458 H 251.83 1.81982 -0.935077 0
M  V30 2459 H 251.84 4.08 0.0014303 0
M  V30 2460 H 250.515 3.99743 -1.14796 0
M  V30 2461 H 249.092 3.67117 0.654208 0
M  V30 2462 N 251.277 0.427512 1.51691 0
M  V30 2463 C 252.502 -0.143601 2.06902 0
M  V30 2464 C 252.927 -1.36536 1.29382 0
M  V30 2465 O 252.285 -1.78289 0.329043 0
M  V30 2466 C 252.333 -0.454207 3.57728 0
M  V30 2467 O 251.437 -1.54228 3.82475 0
M  V30 2468 H 250.778 -0.00617128 0.663971 0
M  V30 2469 H 253.308 0.606014 1.95419 0
M  V30 2470 H 253.318 -0.707525 4.01818 0
M  V30 2471 H 251.993 0.438812 4.13579 0
M  V30 2472 H 250.57 -1.2797 3.50254 0
M  V30 2473 N 252.755 -1.56801 0.158532 0
M  V30 2474 C 254.001 -1.96781 -0.490405 0
M  V30 2475 C 254.334 -1.04397 -1.63753 0
M  V30 2476 O 253.609 -0.0885805 -1.94298 0
M  V30 2477 C 253.892 -3.4635 -0.985594 0
M  V30 2478 C 253.745 -4.49512 0.160824 0
M  V30 2479 C 255.064 -3.98697 -1.86355 0
M  V30 2480 H 252.183 -0.715482 -0.176788 0
M  V30 2481 H 254.825 -1.88451 0.242088 0
M  V30 2482 H 252.975 -3.53579 -1.60978 0
M  V30 2483 H 254.647 -4.54353 0.797537 0
M  V30 2484 H 252.89 -4.26013 0.818256 0
M  V30 2485 H 253.561 -5.51531 -0.227569 0
M  V30 2486 H 256.037 -3.94019 -1.33746 0
M  V30 2487 H 254.913 -5.03792 -2.17909 0
M  V30 2488 H 255.174 -3.41744 -2.8047 0
M  V30 2489 N 254.233 0.115231 -1.57178 0
M  V30 2490 C 255.461 0.836437 -1.89239 0
M  V30 2491 C 255.876 1.73256 -0.750175 0
M  V30 2492 O 255.233 1.80357 0.278832 0
M  V30 2493 C 255.284 1.66671 -3.20785 0
M  V30 2494 O 255.005 0.806652 -4.3061 0
M  V30 2495 C 256.506 2.49274 -3.66575 0
M  V30 2496 H 253.726 0.240253 -0.626514 0
M  V30 2497 H 256.27 0.0984932 -2.04263 0
M  V30 2498 H 254.425 2.35737 -3.0742 0
M  V30 2499 H 254.839 1.37969 -5.06028 0
M  V30 2500 H 256.313 3.03055 -4.6137 0
M  V30 2501 H 256.79 3.26807 -2.93417 0
M  V30 2502 H 257.396 1.85443 -3.82741 0
M  V30 2503 N 255.711 1.52812 0.385517 0
M  V30 2504 C 257.122 1.5993 0.963293 0
M  V30 2505 C 257.473 0.454302 1.90868 0
M  V30 2506 O 256.598 -0.422132 2.12243 0
M  V30 2507 C 257.193 2.89871 1.75387 0
M  V30 2508 C 255.752 2.99389 2.28129 0
M  V30 2509 C 254.899 2.55071 1.08783 0
M  V30 2510 H 257.85 1.5784 0.164948 0
M  V30 2511 H 257.871 2.76553 2.61341 0
M  V30 2512 H 257.383 3.73186 1.06554 0
M  V30 2513 H 255.484 2.20619 3.00263 0
M  V30 2514 H 255.597 4.04096 2.57377 0
M  V30 2515 H 253.961 2.09473 1.4489 0
M  V30 2516 H 254.744 3.40785 0.414807 0
M  V30 2517 N 257.189 -0.644168 1.43834 0
M  V30 2518 C 258.6 -1.22554 1.40845 0
M  V30 2519 C 258.951 -1.9585 0.117115 0
M  V30 2520 O 258.076 -2.01734 -0.783086 0
M  V30 2521 C 258.671 -2.22907 2.55143 0
M  V30 2522 C 257.23 -2.76501 2.5539 0
M  V30 2523 C 256.377 -1.51287 2.32396 0
M  V30 2524 H 259.328 -0.43563 1.52604 0
M  V30 2525 H 259.349 -3.05259 2.2715 0
M  V30 2526 H 258.861 -1.69533 3.49114 0
M  V30 2527 H 256.962 -3.33914 1.65324 0
M  V30 2528 H 257.075 -3.23429 3.53455 0
M  V30 2529 H 255.439 -1.78957 1.81236 0
M  V30 2530 H 256.222 -0.998336 3.28463 0
M  V30 2531 N 258.668 -1.30515 -0.883378 0
M  V30 2532 C 259.631 -1.1701 -1.97082 0
M  V30 2533 C 260.631 -0.10089 -1.60483 0
M  V30 2534 O 261.821 -0.349127 -1.70666 0
M  V30 2535 C 258.953 -0.793045 -3.31547 0
M  V30 2536 H 260.146 -2.13622 -2.10489 0
M  V30 2537 H 257.699 -1.13935 -1.06998 0
M  V30 2538 H 258.434 0.172499 -3.23841 0
M  V30 2539 H 258.219 -1.56576 -3.5948 0
M  V30 2540 H 259.709 -0.722073 -4.1131 0
M  V30 2541 N 260.146 1.09593 -1.13257 0
M  V30 2542 C 261.557 1.63229 -0.906274 0
M  V30 2543 C 261.908 1.8811 0.557578 0
M  V30 2544 O 261.033 1.62953 1.42391 0
M  V30 2545 C 261.628 2.96535 -1.63867 0
M  V30 2546 C 260.187 3.47003 -1.45828 0
M  V30 2547 C 259.334 2.2145 -1.66898 0
M  V30 2548 H 262.285 0.92978 -1.28611 0
M  V30 2549 H 262.306 3.64411 -1.09476 0
M  V30 2550 H 261.818 2.78394 -2.70404 0
M  V30 2551 H 259.919 3.70272 -0.415848 0
M  V30 2552 H 260.032 4.24551 -2.2202 0
M  V30 2553 H 258.396 2.30022 -1.09371 0
M  V30 2554 H 259.179 2.0583 -2.74752 0
M  V30 2555 N 261.624 0.925811 1.2754 0
M  V30 2556 C 262.587 0.428129 2.25166 0
M  V30 2557 C 263.587 -0.452261 1.54309 0
M  V30 2558 O 264.777 -0.253608 1.72344 0
M  V30 2559 C 261.909 -0.384749 3.38722 0
M  V30 2560 H 263.102 1.29066 2.70706 0
M  V30 2561 H 260.655 0.706323 1.3943 0
M  V30 2562 H 261.39 -1.26618 2.98561 0
M  V30 2563 H 261.175 0.246454 3.91325 0
M  V30 2564 H 262.665 -0.723389 4.11287 0
M  V30 2565 N 263.102 -1.41638 0.69111 0
M  V30 2566 C 264.518 -1.55435 0.362224 0
M  V30 2567 C 264.718 -1.66754 -1.13117 0
M  V30 2568 O 263.774 -1.64348 -1.91692 0
M  V30 2569 C 265.087 -2.79588 1.10684 0
M  V30 2570 C 266.635 -2.9338 1.09075 0
M  V30 2571 C 267.11 -4.20414 1.81703 0
M  V30 2572 N 268.601 -4.27362 1.7865 0
M  V30 2573 C 269.336 -5.24507 2.31689 0
M  V30 2574 N 268.832 -6.27708 2.93179 0
M  V30 2575 N 270.625 -5.16416 2.2197 0
M  V30 2576 H 262.776 -1.32536 1.65976 0
M  V30 2577 H 265.039 -0.639115 0.700168 0
M  V30 2578 H 264.745 -2.77419 2.16175 0
M  V30 2579 H 264.619 -3.70973 0.682545 0
M  V30 2580 H 267.006 -2.95067 0.0441238 0
M  V30 2581 H 267.087 -2.0318 1.55407 0
M  V30 2582 H 266.731 -4.19488 2.86343 0
M  V30 2583 H 266.661 -5.09578 1.32808 0
M  V30 2584 H 269.152 -3.53415 1.33815 0
M  V30 2585 H 269.465 -6.98217 3.31229 0
M  V30 2586 H 267.81 -6.28223 2.97255 0
M  V30 2587 H 271.001 -4.34716 1.73607 0
M  V30 2588 H 271.174 -5.91958 2.63609 0
M  V30 2589 N 264.58 -0.43555 -1.51462 0
M  V30 2590 C 265.49 0.383001 -2.31453 0
M  V30 2591 C 266.506 1.02931 -1.4029 0
M  V30 2592 O 267.682 1.02507 -1.73362 0
M  V30 2593 C 264.747 1.47043 -3.13973 0
M  V30 2594 C 263.808 0.844433 -4.20913 0
M  V30 2595 C 263.041 1.88004 -4.9949 0
M  V30 2596 O 263.264 3.10199 -4.78678 0
M  V30 2597 O 262.198 1.47157 -5.83634 0
M  V30 2598 H 266.024 -0.269964 -3.02498 0
M  V30 2599 H 263.609 -0.19813 -1.4808 0
M  V30 2600 H 265.491 2.10113 -3.65281 0
M  V30 2601 H 264.166 2.10751 -2.45695 0
M  V30 2602 H 263.073 0.175729 -3.73687 0
M  V30 2603 H 264.406 0.250869 -4.9156 0
M  V30 2604 N 266.058 1.56714 -0.166846 0
M  V30 2605 C 267.469 1.83378 0.350646 0
M  V30 2606 C 267.82 1.08646 1.63372 0
M  V30 2607 O 266.945 0.338058 2.13743 0
M  V30 2608 C 267.54 3.32643 0.642963 0
M  V30 2609 C 266.099 3.59818 1.10491 0
M  V30 2610 C 265.246 2.76954 0.138411 0
M  V30 2611 H 268.197 1.53803 -0.391193 0
M  V30 2612 H 268.218 3.49878 1.49551 0
M  V30 2613 H 267.73 3.87007 -0.291055 0
M  V30 2614 H 265.831 3.1086 2.05418 0
M  V30 2615 H 265.944 4.68178 1.01716 0
M  V30 2616 H 264.308 2.4666 0.634911 0
M  V30 2617 H 265.091 3.34097 -0.789549 0
M  V30 2618 N 267.536 -0.106894 1.57237 0
M  V30 2619 C 268.784 -0.810921 1.85117 0
M  V30 2620 C 269.105 -1.7984 0.753827 0
M  V30 2621 O 268.375 -1.94649 -0.221056 0
M  V30 2622 H 266.955 -0.302466 0.683025 0
M  V30 2623 H 269.617 -0.0913324 1.94686 0
M  V30 2624 H 268.713 -1.34875 2.81452 0
M  V30 2625 N 269.014 -1.53014 -0.377408 0
M  V30 2626 C 269.964 -1.74996 -1.46152 0
M  V30 2627 C 270.948 -0.604236 -1.49123 0
M  V30 2628 O 272.14 -0.862489 -1.54564 0
M  V30 2629 C 269.269 -1.93267 -2.8373 0
M  V30 2630 C 268.355 -3.13807 -2.85283 0
M  V30 2631 N 268.746 -4.35941 -2.56493 0
M  V30 2632 C 267.044 -3.14288 -3.16448 0
M  V30 2633 C 267.745 -5.17615 -2.65424 0
M  V30 2634 N 266.721 -4.53559 -2.99641 0
M  V30 2635 H 270.523 -2.67044 -1.22738 0
M  V30 2636 H 268.037 -1.51479 -0.585479 0
M  V30 2637 H 270.034 -2.0714 -3.61799 0
M  V30 2638 H 268.694 -1.0244 -3.08117 0
M  V30 2639 H 269.705 -4.63876 -2.30302 0
M  V30 2640 H 266.382 -2.33312 -3.46225 0
M  V30 2641 H 267.772 -6.25006 -2.46612 0
M  V30 2642 N 270.492 0.636531 -1.44174 0
M  V30 2643 C 271.717 1.42847 -1.50364 0
M  V30 2644 C 272.142 1.87665 -0.127867 0
M  V30 2645 O 271.5 1.58408 0.88185 0
M  V30 2646 C 271.548 2.62854 -2.4686 0
M  V30 2647 O 270.652 3.62501 -1.9664 0
M  V30 2648 H 269.993 0.427642 -0.507955 0
M  V30 2649 H 272.523 0.777422 -1.89255 0
M  V30 2650 H 272.533 3.10465 -2.64718 0
M  V30 2651 H 271.208 2.29578 -3.46795 0
M  V30 2652 H 269.785 3.21735 -1.88523 0
M  V30 2653 N 271.97 1.30982 0.876444 0
M  V30 2654 C 273.381 1.18277 1.44456 0
M  V30 2655 C 273.732 -0.213265 1.95037 0
M  V30 2656 O 272.857 -1.11057 1.85729 0
M  V30 2657 C 273.452 2.1411 2.62569 0
M  V30 2658 C 272.011 2.05358 3.15444 0
M  V30 2659 C 271.158 2.03706 1.88146 0
M  V30 2660 H 274.109 1.43127 0.685584 0
M  V30 2661 H 274.13 1.72692 3.39054 0
M  V30 2662 H 273.642 3.15706 2.25724 0
M  V30 2663 H 271.743 1.06934 3.56926 0
M  V30 2664 H 271.856 2.94156 3.78166 0
M  V30 2665 H 270.22 1.48629 2.06837 0
M  V30 2666 H 271.003 3.07047 1.53547 0
M  V30 2667 N 273.449 -1.08991 1.13837 0
M  V30 2668 C 274.381 -2.15606 0.777612 0
M  V30 2669 C 275.394 -1.61533 -0.202739 0
M  V30 2670 O 276.583 -1.78491 0.0181055 0
M  V30 2671 C 273.683 -3.3864 0.132623 0
M  V30 2672 C 272.856 -4.22115 1.1462 0
M  V30 2673 C 271.915 -5.23564 0.526074 0
M  V30 2674 O 270.941 -5.56678 1.18735 0
M  V30 2675 N 272.143 -5.76266 -0.699866 0
M  V30 2676 H 274.908 -2.47159 1.69506 0
M  V30 2677 H 272.469 -1.24747 1.03198 0
M  V30 2678 H 274.461 -4.03626 -0.29459 0
M  V30 2679 H 273.031 -3.04938 -0.687849 0
M  V30 2680 H 272.251 -3.53199 1.75055 0
M  V30 2681 H 273.539 -4.74709 1.83109 0
M  V30 2682 H 272.937 -5.51585 -1.25581 0
M  V30 2683 H 271.494 -6.42963 -1.06968 0
M  V30 2684 N 274.927 -0.932562 -1.27047 0
M  V30 2685 C 276.176 -0.571351 -1.93439 0
M  V30 2686 C 276.489 0.892467 -1.74053 0
M  V30 2687 O 277.695 1.36267 -2.34826 0
M  V30 2688 C 276.151 -0.97106 -3.46552 0
M  V30 2689 C 275.759 -2.4559 -3.74686 0
M  V30 2690 C 277.503 -0.681333 -4.18997 0
M  V30 2691 C 275.41 -2.79475 -5.21198 0
M  V30 2692 H 274.34 -0.209966 -0.724176 0
M  V30 2693 H 276.991 -1.13403 -1.44263 0
M  V30 2694 H 275.373 -0.336983 -3.94564 0
M  V30 2695 H 276.547 -3.13829 -3.37414 0
M  V30 2696 H 274.862 -2.71802 -3.15456 0
M  V30 2697 H 277.459 -0.910939 -5.26883 0
M  V30 2698 H 277.802 0.381628 -4.14547 0
M  V30 2699 H 278.335 -1.27473 -3.76823 0
M  V30 2700 H 275.074 -3.847 -5.30741 0
M  V30 2701 H 274.594 -2.1589 -5.596 0
M  V30 2702 H 276.273 -2.67478 -5.89122 0
M  V30 2703 N 276.405 1.4127 -0.698611 0
M  V30 2704 C 277.654 2.00408 -0.227949 0
M  V30 2705 C 277.967 1.55981 1.18023 0
M  V30 2706 O 279.173 2.07699 1.74852 0
M  V30 2707 C 277.629 3.58129 -0.356636 0
M  V30 2708 C 277.237 4.11536 -1.77037 0
M  V30 2709 C 278.981 4.24466 0.0540969 0
M  V30 2710 C 276.888 5.61701 -1.85055 0
M  V30 2711 H 275.818 0.749586 -0.0814657 0
M  V30 2712 H 278.469 1.61713 -0.867249 0
M  V30 2713 H 276.851 3.94442 0.350965 0
M  V30 2714 H 278.025 3.86636 -2.50698 0
M  V30 2715 H 276.34 3.57736 -2.13105 0
M  V30 2716 H 278.937 5.34698 0.0146723 0
M  V30 2717 H 279.28 4.01687 1.09332 0
M  V30 2718 H 279.813 3.93198 -0.603337 0
M  V30 2719 H 276.552 5.89312 -2.8704 0
M  V30 2720 H 276.072 5.88519 -1.15783 0
M  V30 2721 H 277.751 6.26524 -1.61484 0
M  V30 2722 N 277.883 0.443576 1.51229 0
M  V30 2723 C 279.108 -0.121648 2.07043 0
M  V30 2724 C 279.533 -1.35156 1.30823 0
M  V30 2725 O 278.891 -1.7793 0.347934 0
M  V30 2726 C 278.939 -0.41624 3.5819 0
M  V30 2727 O 278.043 -1.50163 3.8409 0
M  V30 2728 H 277.384 0.000871367 0.663999 0
M  V30 2729 H 279.914 0.626706 1.94765 0
M  V30 2730 H 279.924 -0.664867 4.02546 0
M  V30 2731 H 278.599 0.482653 4.1309 0
M  V30 2732 H 277.176 -1.24248 3.51592 0
M  V30 2733 N 279.361 -1.56624 0.175154 0
M  V30 2734 C 280.608 -1.96999 -0.468811 0
M  V30 2735 C 280.936 -1.06129 -1.62994 0
M  V30 2736 O 280.191 -0.0961771 -1.95464 0
M  V30 2737 C 280.49 -3.43419 -0.989864 0
M  V30 2738 C 280.156 -4.50866 0.0557687 0
M  V30 2739 C 278.818 -4.79975 0.343134 0
M  V30 2740 C 281.17 -5.15551 0.765308 0
M  V30 2741 C 278.498 -5.71066 1.34536 0
M  V30 2742 C 280.85 -6.07724 1.75654 0
M  V30 2743 C 279.514 -6.35199 2.05132 0
M  V30 2744 H 278.784 -0.720869 -0.17155 0
M  V30 2745 H 281.431 -1.89616 0.267924 0
M  V30 2746 H 279.736 -3.47772 -1.80449 0
M  V30 2747 H 281.433 -3.72002 -1.49719 0
M  V30 2748 H 278.023 -4.28229 -0.178381 0
M  V30 2749 H 282.207 -4.9317 0.556513 0
M  V30 2750 H 277.463 -5.90635 1.57988 0
M  V30 2751 H 281.637 -6.56912 2.31169 0
M  V30 2752 H 279.264 -7.05584 2.8294 0
M  V30 2753 N 280.839 0.0985539 -1.57292 0
M  V30 2754 C 282.086 0.802678 -1.85912 0
M  V30 2755 C 282.414 1.78901 -0.763186 0
M  V30 2756 O 281.669 1.94178 0.243559 0
M  V30 2757 C 281.968 1.56927 -3.21105 0
M  V30 2758 C 281.634 0.725376 -4.45027 0
M  V30 2759 C 280.296 0.492726 -4.78671 0
M  V30 2760 C 282.648 0.138493 -5.21016 0
M  V30 2761 C 279.976 -0.336727 -5.85733 0
M  V30 2762 C 282.328 -0.678264 -6.28953 0
M  V30 2763 C 280.992 -0.921039 -6.61115 0
M  V30 2764 H 280.262 0.293721 -0.680301 0
M  V30 2765 H 282.909 0.0642841 -1.91392 0
M  V30 2766 H 281.214 2.37914 -3.11294 0
M  V30 2767 H 282.911 2.11841 -3.40477 0
M  V30 2768 H 279.501 0.916815 -4.18679 0
M  V30 2769 H 283.685 0.305404 -4.95359 0
M  V30 2770 H 278.941 -0.533836 -6.09065 0
M  V30 2771 H 283.115 -1.1399 -6.87007 0
M  V30 2772 H 280.742 -1.56556 -7.43905 0
M  V30 2773 N 282.317 1.53212 0.369288 0
M  V30 2774 C 283.247 1.82365 1.45826 0
M  V30 2775 C 284.228 0.676907 1.56051 0
M  V30 2776 O 285.413 0.926401 1.70679 0
M  V30 2777 C 282.543 2.01023 2.83208 0
M  V30 2778 C 281.497 3.1678 2.8781 0
M  V30 2779 C 280.823 3.20724 4.27832 0
M  V30 2780 C 282.123 4.55447 2.55667 0
M  V30 2781 H 283.817 2.73559 1.21678 0
M  V30 2782 H 281.363 1.3163 0.583911 0
M  V30 2783 H 283.316 2.20001 3.59413 0
M  V30 2784 H 282.04 1.06536 3.08736 0
M  V30 2785 H 280.699 2.97616 2.14056 0
M  V30 2786 H 280.347 2.23882 4.50429 0
M  V30 2787 H 280.047 3.98496 4.31827 0
M  V30 2788 H 281.571 3.41881 5.05915 0
M  V30 2789 H 282.985 4.74611 3.21586 0
M  V30 2790 H 281.382 5.35432 2.70984 0
M  V30 2791 H 282.452 4.60812 1.5093 0
M  V30 2792 N 283.795 -0.628877 1.44509 0
M  V30 2793 C 284.758 -1.72263 1.51188 0
M  V30 2794 C 285.758 -1.55907 0.39367 0
M  V30 2795 O 286.948 -1.61361 0.656377 0
M  V30 2796 C 284.08 -3.11365 1.38798 0
M  V30 2797 H 285.273 -1.67714 2.4862 0
M  V30 2798 H 282.826 -0.842737 1.31634 0
M  V30 2799 H 283.561 -3.21507 0.424693 0
M  V30 2800 H 283.346 -3.24644 2.19884 0
M  V30 2801 H 284.836 -3.91075 1.46458 0
M  V30 2802 N 285.273 -1.31445 -0.869486 0
M  V30 2803 C 286.203 -1.21727 -1.99261 0
M  V30 2804 C 287.184 -0.104359 -1.6978 0
M  V30 2805 O 288.369 -0.289038 -1.92037 0
M  V30 2806 C 285.499 -0.924317 -3.34774 0
M  V30 2807 C 284.453 -1.99685 -3.78563 0
M  V30 2808 C 283.779 -1.55658 -5.11541 0
M  V30 2809 C 285.079 -3.41003 -3.95619 0
M  V30 2810 H 286.773 -2.1569 -2.07649 0
M  V30 2811 H 284.319 -1.03839 -0.997675 0
M  V30 2812 H 286.272 -0.842934 -4.12883 0
M  V30 2813 H 284.996 0.0509793 -3.2656 0
M  V30 2814 H 283.655 -2.06813 -3.02694 0
M  V30 2815 H 283.303 -0.569132 -4.9977 0
M  V30 2816 H 283.003 -2.27409 -5.41811 0
M  V30 2817 H 284.527 -1.48928 -5.92159 0
M  V30 2818 H 285.941 -3.36547 -4.64122 0
M  V30 2819 H 284.338 -4.10975 -4.37286 0
M  V30 2820 H 285.408 -3.81754 -2.98985 0
M  V30 2821 N 286.751 1.08385 -1.14413 0
M  V30 2822 C 287.979 1.84517 -0.936001 0
M  V30 2823 C 288.394 1.81626 0.515503 0
M  V30 2824 O 287.751 1.22008 1.35721 0
M  V30 2825 C 287.802 3.32049 -1.42918 0
M  V30 2826 O 287.523 3.34951 -2.82381 0
M  V30 2827 C 289.024 4.24986 -1.26103 0
M  V30 2828 H 286.244 0.582491 -0.333084 0
M  V30 2829 H 288.788 1.36885 -1.5193 0
M  V30 2830 H 286.943 3.7707 -0.888641 0
M  V30 2831 H 287.357 4.27048 -3.04517 0
M  V30 2832 H 288.831 5.26615 -1.6547 0
M  V30 2833 H 289.308 4.38726 -0.20392 0
M  V30 2834 H 289.914 3.85791 -1.79012 0
M  V30 2835 N 288.23 0.939286 1.26551 0
M  V30 2836 C 289.455 0.602008 1.98471 0
M  V30 2837 C 289.88 -0.815624 1.69497 0
M  V30 2838 O 289.238 -1.54912 0.941905 0
M  V30 2839 C 289.286 0.848407 3.50477 0
M  V30 2840 O 288.39 -0.0804009 4.12322 0
M  V30 2841 H 287.731 0.23049 0.622712 0
M  V30 2842 H 290.261 1.2617 1.61066 0
M  V30 2843 H 290.271 0.768553 4.00696 0
M  V30 2844 H 288.946 1.88171 3.70897 0
M  V30 2845 H 287.523 0.0503508 3.72866 0
M  V30 2846 N 289.708 -1.40897 0.706093 0
M  V30 2847 C 290.936 -2.05373 0.250887 0
M  V30 2848 C 291.351 -1.53172 -1.10381 0
M  V30 2849 O 290.708 -0.684305 -1.69185 0
M  V30 2850 C 290.759 -3.6088 0.211571 0
M  V30 2851 O 290.48 -4.11153 1.51276 0
M  V30 2852 C 291.981 -4.42517 -0.263346 0
M  V30 2853 H 289.201 -0.66115 0.114552 0
M  V30 2854 H 291.745 -1.80479 0.961635 0
M  V30 2855 H 289.9 -3.84777 -0.450073 0
M  V30 2856 H 290.314 -5.05279 1.40689 0
M  V30 2857 H 291.788 -5.51479 -0.239718 0
M  V30 2858 H 292.265 -4.19396 -1.30397 0
M  V30 2859 H 292.871 -4.23708 0.367677 0
M  V30 2860 N 291.186 -0.45159 -1.50991 0
M  V30 2861 C 292.149 0.341117 -2.26647 0
M  V30 2862 C 293.149 0.937422 -1.30649 0
M  V30 2863 O 294.339 0.809644 -1.54241 0
M  V30 2864 C 291.471 1.48398 -3.06905 0
M  V30 2865 H 292.664 -0.322117 -2.98165 0
M  V30 2866 H 290.217 -0.205122 -1.54948 0
M  V30 2867 H 290.952 2.18284 -2.39838 0
M  V30 2868 H 290.737 1.06241 -3.77432 0
M  V30 2869 H 292.227 2.04367 -3.64176 0
M  V30 2870 N 292.664 1.56529 -0.183458 0
M  V30 2871 C 293.594 2.21549 0.737456 0
M  V30 2872 C 294.575 1.17489 1.23005 0
M  V30 2873 O 295.76 1.45959 1.281 0
M  V30 2874 C 292.89 2.86575 1.96194 0
M  V30 2875 C 291.844 3.96778 1.60473 0
M  V30 2876 C 291.17 4.48911 2.90487 0
M  V30 2877 C 292.47 5.15767 0.823497 0
M  V30 2878 H 294.164 2.98761 0.195453 0
M  V30 2879 H 291.71 1.43702 0.0925686 0
M  V30 2880 H 293.663 3.30739 2.61131 0
M  V30 2881 H 292.387 2.06749 2.52828 0
M  V30 2882 H 291.046 3.53286 0.978997 0
M  V30 2883 H 290.694 3.65862 3.45186 0
M  V30 2884 H 290.394 5.23265 2.67335 0
M  V30 2885 H 291.918 4.95771 3.56432 0
M  V30 2886 H 293.332 5.56549 1.37571 0
M  V30 2887 H 291.729 5.96114 0.690551 0
M  V30 2888 H 292.799 4.84574 -0.177782 0
M  V30 2889 N 294.142 -0.090211 1.57342 0
M  V30 2890 C 295.072 -1.10976 2.05443 0
M  V30 2891 C 296.053 -1.41482 0.944284 0
M  V30 2892 O 297.238 -1.51428 1.21586 0
M  V30 2893 C 294.368 -2.42831 2.48295 0
M  V30 2894 C 293.322 -2.26721 3.63018 0
M  V30 2895 C 292.648 -3.63796 3.91863 0
M  V30 2896 C 293.948 -1.7037 4.93732 0
M  V30 2897 H 295.642 -0.709564 2.9087 0
M  V30 2898 H 293.188 -0.339874 1.39932 0
M  V30 2899 H 295.141 -3.14431 2.80555 0
M  V30 2900 H 293.865 -2.84795 1.59873 0
M  V30 2901 H 292.524 -1.57565 3.31012 0
M  V30 2902 H 292.172 -4.03297 3.00601 0
M  V30 2903 H 291.872 -3.53861 4.69101 0
M  V30 2904 H 293.396 -4.36855 4.26603 0
M  V30 2905 H 294.81 -2.31816 5.24342 0
M  V30 2906 H 293.207 -1.71181 5.75167 0
M  V30 2907 H 294.277 -0.663542 4.80339 0
M  V30 2908 N 295.62 -1.53406 -0.361157 0
M  V30 2909 C 296.867 -1.69802 -1.10333 0
M  V30 2910 C 297.195 -0.452087 -1.89173 0
M  V30 2911 O 296.45 0.566017 -1.87336 0
M  V30 2912 C 296.749 -2.90211 -2.08596 0
M  V30 2913 C 296.415 -4.26539 -1.46203 0
M  V30 2914 C 295.077 -4.6361 -1.28915 0
M  V30 2915 C 297.429 -5.113 -1.01101 0
M  V30 2916 C 294.757 -5.83075 -0.651157 0
M  V30 2917 C 297.109 -6.31415 -0.387007 0
M  V30 2918 C 295.773 -6.67195 -0.201657 0
M  V30 2919 H 295.043 -0.621351 -0.403737 0
M  V30 2920 H 297.69 -1.87598 -0.384609 0
M  V30 2921 H 295.995 -2.66946 -2.86788 0
M  V30 2922 H 297.692 -3.00091 -2.65982 0
M  V30 2923 H 294.282 -3.97352 -1.60653 0
M  V30 2924 H 298.466 -4.83206 -1.13249 0
M  V30 2925 H 293.722 -6.09385 -0.496006 0
M  V30 2926 H 297.896 -6.96394 -0.0293563 0
M  V30 2927 H 295.523 -7.59628 0.294766 0
M  V30 2928 N 297.098 0.621204 -1.44841 0
M  V30 2929 C 298.028 1.74366 -1.55303 0
M  V30 2930 C 299.009 1.65199 -0.405385 0
M  V30 2931 O 300.194 1.83807 -0.626787 0
M  V30 2932 C 297.324 3.12931 -1.50637 0
M  V30 2933 C 296.278 3.36896 -2.63979 0
M  V30 2934 C 295.604 4.75594 -2.44366 0
M  V30 2935 C 296.904 3.28483 -4.06074 0
M  V30 2936 H 298.598 1.65867 -2.49256 0
M  V30 2937 H 296.144 0.796558 -1.19962 0
M  V30 2938 H 298.097 3.9124 -1.56555 0
M  V30 2939 H 296.821 3.22237 -0.532057 0
M  V30 2940 H 295.48 2.60972 -2.57467 0
M  V30 2941 H 295.128 4.81616 -1.45105 0
M  V30 2942 H 294.828 4.92586 -3.20364 0
M  V30 2943 H 296.352 5.5612 -2.52117 0
M  V30 2944 H 297.766 3.96684 -4.13902 0
M  V30 2945 H 296.163 3.57008 -4.82354 0
M  V30 2946 H 297.233 2.26133 -4.28943 0
M  V30 2947 N 298.576 1.31904 0.862503 0
M  V30 2948 C 299.506 1.22782 1.98612 0
M  V30 2949 C 300.487 0.113362 1.69722 0
M  V30 2950 O 301.672 0.299218 1.91881 0
M  V30 2951 C 298.802 0.942058 3.34279 0
M  V30 2952 C 297.756 2.0169 3.77499 0
M  V30 2953 C 297.082 1.58369 5.10709 0
M  V30 2954 C 298.382 3.43096 3.93805 0
M  V30 2955 H 300.076 2.16788 2.06502 0
M  V30 2956 H 297.622 1.04366 0.992154 0
M  V30 2957 H 299.575 0.864818 4.1243 0
M  V30 2958 H 298.299 -0.0336603 3.26583 0
M  V30 2959 H 296.958 2.08416 3.01593 0
M  V30 2960 H 296.606 0.595628 4.99461 0
M  V30 2961 H 296.306 2.30279 5.40597 0
M  V30 2962 H 297.83 1.52067 5.91361 0
M  V30 2963 H 299.244 3.39003 4.62331 0
M  V30 2964 H 297.641 4.13288 4.35101 0
M  V30 2965 H 298.711 3.83334 2.96957 0
M  V30 2966 N 300.054 -1.07777 1.14986 0
M  V30 2967 C 301.301 -1.8029 0.922056 0
M  V30 2968 C 301.629 -1.86531 -0.55105 0
M  V30 2969 O 300.884 -1.34189 -1.42449 0
M  V30 2970 C 301.183 -3.25495 1.47608 0
M  V30 2971 C 300.849 -3.39361 2.96893 0
M  V30 2972 C 299.511 -3.42852 3.37647 0
M  V30 2973 C 301.863 -3.42512 3.92854 0
M  V30 2974 C 299.191 -3.47094 4.73015 0
M  V30 2975 C 301.543 -3.4829 5.28088 0
M  V30 2976 C 300.207 -3.50058 5.68345 0
M  V30 2977 H 299.477 -0.659727 0.337404 0
M  V30 2978 H 302.124 -1.26854 1.43459 0
M  V30 2979 H 300.429 -3.81683 0.88463 0
M  V30 2980 H 302.126 -3.80168 1.27568 0
M  V30 2981 H 298.716 -3.37339 2.64387 0
M  V30 2982 H 302.9 -3.3904 3.62444 0
M  V30 2983 H 298.156 -3.46758 5.03556 0
M  V30 2984 H 302.33 -3.49675 6.02246 0
M  V30 2985 H 299.957 -3.53097 6.73221 0
M  V30 2986 N 301.532 -0.945985 -1.26051 0
M  V30 2987 C 302.779 -0.596118 -1.93527 0
M  V30 2988 C 303.107 0.865559 -1.74179 0
M  V30 2989 O 302.362 1.63524 -1.0751 0
M  V30 2990 C 302.661 -0.890475 -3.46129 0
M  V30 2991 C 302.327 -2.3368 -3.85622 0
M  V30 2992 C 300.989 -2.73216 -3.96114 0
M  V30 2993 C 303.341 -3.27648 -4.05334 0
M  V30 2994 C 300.669 -4.05806 -4.2372 0
M  V30 2995 C 303.021 -4.59841 -4.3443 0
M  V30 2996 C 301.685 -4.99185 -4.43137 0
M  V30 2997 H 300.955 -0.218135 -0.708165 0
M  V30 2998 H 303.602 -1.1934 -1.49768 0
M  V30 2999 H 301.907 -0.210711 -3.91233 0
M  V30 3000 H 303.604 -0.598478 -3.96509 0
M  V30 3001 H 300.194 -2.02015 -3.78005 0
M  V30 3002 H 304.378 -2.98298 -3.96651 0
M  V30 3003 H 299.634 -4.35945 -4.28675 0
M  V30 3004 H 303.808 -5.32641 -4.48628 0
M  V30 3005 H 301.435 -6.01952 -4.64282 0
M  V30 3006 N 303.011 1.40521 -0.713556 0
M  V30 3007 C 303.941 2.33381 -0.0743864 0
M  V30 3008 C 304.922 1.52784 0.747735 0
M  V30 3009 O 306.107 1.81258 0.697071 0
M  V30 3010 C 303.237 3.36748 0.849598 0
M  V30 3011 C 302.191 4.27793 0.133247 0
M  V30 3012 C 301.517 5.21679 1.17281 0
M  V30 3013 C 302.817 5.12415 -1.01134 0
M  V30 3014 H 304.511 2.87081 -0.850007 0
M  V30 3015 H 302.057 1.38034 -0.410201 0
M  V30 3016 H 304.01 4.00648 1.30612 0
M  V30 3017 H 302.734 2.81439 1.65709 0
M  V30 3018 H 301.393 3.65342 -0.303426 0
M  V30 3019 H 301.041 4.62677 1.9733 0
M  V30 3020 H 300.741 5.83435 0.698397 0
M  V30 3021 H 302.265 5.88456 1.62947 0
M  V30 3022 H 303.679 5.69781 -0.634274 0
M  V30 3023 H 302.076 5.83203 -1.41399 0
M  V30 3024 H 303.146 4.48514 -1.84292 0
M  V30 3025 N 304.489 0.459591 1.5075 0
M  V30 3026 C 305.717 -0.0973749 2.06671 0
M  V30 3027 C 306.132 -1.34524 1.32472 0
M  V30 3028 O 305.489 -1.7827 0.390634 0
M  V30 3029 C 305.54 -0.39714 3.59312 0
M  V30 3030 O 305.261 0.801214 4.30711 0
M  V30 3031 C 306.762 -1.00234 4.31819 0
M  V30 3032 H 303.982 0.00195854 0.670997 0
M  V30 3033 H 306.526 0.645072 1.94059 0
M  V30 3034 H 304.681 -1.08951 3.71764 0
M  V30 3035 H 305.095 0.538857 5.21725 0
M  V30 3036 H 306.569 -1.16193 5.39632 0
M  V30 3037 H 307.046 -1.98939 3.91561 0
M  V30 3038 H 307.652 -0.348699 4.23868 0
M  V30 3039 N 305.967 -1.56429 0.191757 0
M  V30 3040 C 306.897 -2.21937 -0.725696 0
M  V30 3041 C 307.878 -1.1814 -1.2238 0
M  V30 3042 O 309.063 -1.46636 -1.27325 0
M  V30 3043 C 306.193 -2.87611 -1.94672 0
M  V30 3044 C 305.147 -3.97623 -1.58366 0
M  V30 3045 C 304.473 -4.50446 -2.88102 0
M  V30 3046 C 305.773 -5.16197 -0.796133 0
M  V30 3047 H 307.467 -2.98861 -0.179606 0
M  V30 3048 H 305.013 -1.43749 -0.0849464 0
M  V30 3049 H 306.966 -3.3212 -2.59373 0
M  V30 3050 H 305.69 -2.08087 -2.51728 0
M  V30 3051 H 304.349 -3.53801 -0.960247 0
M  V30 3052 H 303.997 -3.67688 -3.43241 0
M  V30 3053 H 303.697 -5.24675 -2.64556 0
M  V30 3054 H 305.221 -4.97654 -3.53798 0
M  V30 3055 H 306.635 -5.57271 -1.34618 0
M  V30 3056 H 305.032 -5.96471 -0.658928 0
M  V30 3057 H 306.102 -4.84473 0.203478 0
M  V30 3058 N 307.445 0.0818655 -1.57387 0
M  V30 3059 C 308.861 0.436412 -1.53517 0
M  V30 3060 C 309.061 1.79758 -0.910459 0
M  V30 3061 O 308.117 2.47324 -0.508636 0
M  V30 3062 C 309.43 0.386734 -2.98203 0
M  V30 3063 C 310.978 0.467644 -3.09487 0
M  V30 3064 C 311.453 0.447978 -4.55804 0
M  V30 3065 N 312.944 0.508348 -4.60402 0
M  V30 3066 C 313.679 0.515184 -5.71081 0
M  V30 3067 N 313.175 0.477435 -6.91153 0
M  V30 3068 N 314.968 0.560988 -5.59294 0
M  V30 3069 H 307.119 -0.809546 -1.96367 0
M  V30 3070 H 309.382 -0.302733 -0.898363 0
M  V30 3071 H 309.088 -0.546539 -3.47427 0
M  V30 3072 H 308.962 1.20075 -3.57578 0
M  V30 3073 H 311.349 1.39134 -2.60242 0
M  V30 3074 H 311.43 -0.374753 -2.5304 0
M  V30 3075 H 311.074 -0.471826 -5.05704 0
M  V30 3076 H 311.004 1.30777 -5.10103 0
M  V30 3077 H 313.495 0.54218 -3.7399 0
M  V30 3078 H 313.808 0.486299 -7.71268 0
M  V30 3079 H 312.153 0.444278 -6.93579 0
M  V30 3080 H 315.344 0.5881 -4.64391 0
M  V30 3081 H 315.517 0.562846 -6.45551 0
M  V30 3082 N 308.923 1.53595 0.353017 0
M  V30 3083 C 310.17 1.70385 1.09431 0
M  V30 3084 C 310.498 0.462113 1.88931 0
M  V30 3085 O 309.753 -0.556074 1.87633 0
M  V30 3086 C 310.052 2.91313 2.07054 0
M  V30 3087 C 309.718 4.27308 1.43939 0
M  V30 3088 C 308.38 4.64287 1.26454 0
M  V30 3089 C 310.732 5.11829 0.983883 0
M  V30 3090 C 308.06 5.83412 0.620226 0
M  V30 3091 C 310.412 6.31611 0.353516 0
M  V30 3092 C 309.076 6.67293 0.166272 0
M  V30 3093 H 308.346 0.623484 0.400436 0
M  V30 3094 H 310.993 1.87799 0.374655 0
M  V30 3095 H 309.298 2.68463 2.85368 0
M  V30 3096 H 310.995 3.01497 2.64387 0
M  V30 3097 H 307.585 3.98198 1.58543 0
M  V30 3098 H 311.769 4.838 1.10685 0
M  V30 3099 H 307.025 6.09639 0.463681 0
M  V30 3100 H 311.199 6.964 -0.00757555 0
M  V30 3101 H 308.826 7.59461 -0.335047 0
M  V30 3102 N 310.401 -0.613514 1.45168 0
M  V30 3103 C 311.626 -1.40437 1.52618 0
M  V30 3104 C 312.051 -1.87438 0.157707 0
M  V30 3105 O 311.409 -1.59791 -0.856537 0
M  V30 3106 C 311.457 -2.58894 2.51011 0
M  V30 3107 O 310.561 -3.59326 2.02382 0
M  V30 3108 H 309.902 -0.419506 0.514695 0
M  V30 3109 H 312.432 -0.747215 1.90467 0
M  V30 3110 H 312.442 -3.06214 2.69624 0
M  V30 3111 H 311.117 -2.24032 3.50403 0
M  V30 3112 H 309.694 -3.18695 1.93618 0
M  V30 3113 N 311.879 -1.3236 -0.855495 0
M  V30 3114 C 313.125 -1.23054 -1.612 0
M  V30 3115 C 313.458 0.207404 -1.93089 0
M  V30 3116 O 312.733 1.14432 -1.57275 0
M  V30 3117 C 313.016 -2.08937 -2.93287 0
M  V30 3118 C 312.869 -3.61105 -2.68185 0
M  V30 3119 C 314.188 -1.94986 -3.94549 0
M  V30 3120 H 311.307 -0.448364 -0.584926 0
M  V30 3121 H 313.949 -1.62297 -0.987917 0
M  V30 3122 H 312.099 -1.75599 -3.46551 0
M  V30 3123 H 313.771 -4.04652 -2.21483 0
M  V30 3124 H 312.014 -3.83813 -2.02164 0
M  V30 3125 H 312.685 -4.16522 -3.62234 0
M  V30 3126 H 315.161 -2.24189 -3.5054 0
M  V30 3127 H 314.037 -2.57356 -4.84829 0
M  V30 3128 H 314.298 -0.917263 -4.3248 0
M  V30 3129 N 313.357 1.07166 -1.15556 0
M  V30 3130 C 314.603 1.80065 -0.932984 0
M  V30 3131 C 314.936 1.86586 0.53845 0
M  V30 3132 O 314.211 1.35098 1.39924 0
M  V30 3133 C 314.494 3.25022 -1.55025 0
M  V30 3134 C 314.347 3.26634 -3.09242 0
M  V30 3135 C 315.666 4.22341 -1.2376 0
M  V30 3136 H 312.785 0.653697 -0.340366 0
M  V30 3137 H 315.427 1.25389 -1.4275 0
M  V30 3138 H 313.577 3.71712 -1.12972 0
M  V30 3139 H 315.249 2.88173 -3.60214 0
M  V30 3140 H 313.492 2.65539 -3.43033 0
M  V30 3141 H 314.163 4.28854 -3.47546 0
M  V30 3142 H 316.639 3.8405 -1.60139 0
M  V30 3143 H 315.515 5.22053 -1.69564 0
M  V30 3144 H 315.776 4.41828 -0.154938 0
M  V30 3145 N 314.835 0.952656 1.25548 0
M  V30 3146 C 315.782 0.47008 2.25962 0
M  V30 3147 C 316.752 -0.476384 1.59122 0
M  V30 3148 O 317.937 -0.39007 1.8677 0
M  V30 3149 C 315.077 -0.247881 3.44209 0
M  V30 3150 C 314.19 0.735591 4.25691 0
M  V30 3151 C 313.325 -0.0047306 5.312 0
M  V30 3152 C 312.364 0.969805 6.04368 0
M  V30 3153 N 311.501 0.260486 7.01617 0
M  V30 3154 H 316.341 1.33126 2.66611 0
M  V30 3155 H 313.878 0.66765 1.31076 0
M  V30 3156 H 315.836 -0.680695 4.1161 0
M  V30 3157 H 314.466 -1.07312 3.0444 0
M  V30 3158 H 313.518 1.28689 3.57971 0
M  V30 3159 H 314.83 1.47934 4.76358 0
M  V30 3160 H 313.984 -0.496275 6.04667 0
M  V30 3161 H 312.723 -0.781282 4.81401 0
M  V30 3162 H 311.728 1.47237 5.29718 0
M  V30 3163 H 312.953 1.74655 6.56256 0
M  V30 3164 H 310.899 -0.497364 6.54112 0
M  V30 3165 H 310.816 0.943362 7.50091 0
M  V30 3166 H 312.084 -0.209587 7.79218 0
M  V30 3167 N 316.313 -1.40141 0.720998 0
M  V30 3168 C 317.729 -1.54632 0.395113 0
M  V30 3169 C 317.929 -1.69115 -1.09555 0
M  V30 3170 O 316.985 -1.68377 -1.88163 0
M  V30 3171 C 318.298 -2.77177 1.1659 0
M  V30 3172 C 319.846 -2.91 1.15274 0
M  V30 3173 C 320.321 -4.16465 1.90579 0
M  V30 3174 N 321.812 -4.23476 1.87675 0
M  V30 3175 C 322.547 -5.19475 2.42762 0
M  V30 3176 N 322.043 -6.21348 3.06428 0
M  V30 3177 N 323.836 -5.11592 2.32874 0
M  V30 3178 H 315.987 -1.28986 1.68749 0
M  V30 3179 H 318.25 -0.62412 0.713567 0
M  V30 3180 H 317.956 -2.72771 2.22011 0
M  V30 3181 H 317.83 -3.69442 0.76108 0
M  V30 3182 H 320.217 -2.94907 0.106702 0
M  V30 3183 H 320.298 -1.99838 1.59682 0
M  V30 3184 H 319.942 -4.1332 2.95176 0
M  V30 3185 H 319.872 -5.06646 1.43587 0
M  V30 3186 H 322.363 -3.50497 1.41281 0
M  V30 3187 H 322.676 -6.91034 3.45965 0
M  V30 3188 H 321.021 -6.21777 3.10514 0
M  V30 3189 H 324.212 -4.30936 1.82789 0
M  V30 3190 H 324.385 -5.86233 2.76106 0
M  V30 3191 N 317.792 -0.46758 -1.50504 0
M  V30 3192 C 319.04 0.0884469 -2.01906 0
M  V30 3193 C 319.361 1.40532 -1.35188 0
M  V30 3194 O 318.631 1.89515 -0.496079 0
M  V30 3195 H 317.211 0.0356765 -0.746148 0
M  V30 3196 H 319.873 -0.6172 -1.84869 0
M  V30 3197 H 318.969 0.2425 -3.11156 0
M  V30 3198 N 319.27 1.56325 -0.20005 0
M  V30 3199 C 320.686 1.58839 0.155716 0
M  V30 3200 C 320.886 1.21636 1.60645 0
M  V30 3201 O 319.942 0.941437 2.34293 0
M  V30 3202 C 321.255 3.0032 -0.151124 0
M  V30 3203 C 322.803 3.12866 -0.0916284 0
M  V30 3204 C 323.278 4.56488 -0.371845 0
M  V30 3205 N 324.769 4.62089 -0.320641 0
M  V30 3206 C 325.504 5.71116 -0.511243 0
M  V30 3207 N 325 6.88592 -0.762461 0
M  V30 3208 N 326.793 5.60335 -0.445157 0
M  V30 3209 H 318.944 1.78788 -1.14668 0
M  V30 3210 H 321.207 0.829996 -0.458051 0
M  V30 3211 H 320.913 3.32117 -1.15721 0
M  V30 3212 H 320.787 3.73257 0.543986 0
M  V30 3213 H 323.174 2.80878 0.905065 0
M  V30 3214 H 323.255 2.42304 -0.81989 0
M  V30 3215 H 322.899 4.89189 -1.36588 0
M  V30 3216 H 322.829 5.25246 0.377362 0
M  V30 3217 H 325.32 3.77665 -0.13329 0
M  V30 3218 H 325.633 7.67581 -0.896576 0
M  V30 3219 H 323.978 6.90387 -0.799412 0
M  V30 3220 H 327.169 4.67436 -0.249278 0
M  V30 3221 H 327.342 6.45243 -0.597116 0
M  V30 3222 N 320.748 -0.0735177 1.57428 0
M  V30 3223 C 321.695 -1.08756 2.0357 0
M  V30 3224 C 322.665 -1.38559 0.916 0
M  V30 3225 O 323.85 -1.49656 1.18354 0
M  V30 3226 C 320.99 -2.39657 2.48311 0
M  V30 3227 C 320.103 -2.16399 3.73892 0
M  V30 3228 C 319.238 -3.40852 4.07423 0
M  V30 3229 C 318.277 -3.1295 5.2605 0
M  V30 3230 N 317.414 -4.29729 5.55228 0
M  V30 3231 H 322.254 -0.687104 2.8997 0
M  V30 3232 H 319.791 -0.327709 1.43403 0
M  V30 3233 H 321.749 -3.16081 2.72303 0
M  V30 3234 H 320.379 -2.77508 1.64891 0
M  V30 3235 H 319.431 -1.30676 3.57251 0
M  V30 3236 H 320.743 -1.91788 4.60455 0
M  V30 3237 H 319.897 -4.25671 4.32306 0
M  V30 3238 H 318.636 -3.68537 3.19425 0
M  V30 3239 H 317.641 -2.26526 5.00965 0
M  V30 3240 H 318.866 -2.86589 6.15665 0
M  V30 3241 H 316.812 -4.57448 4.70188 0
M  V30 3242 H 316.729 -4.08385 6.36206 0
M  V30 3243 H 317.997 -5.1555 5.84661 0
M  V30 3244 N 322.226 -1.5378 -0.344866 0
M  V30 3245 C 323.173 -1.81676 -1.42346 0
M  V30 3246 C 324.143 -0.662376 -1.52321 0
M  V30 3247 O 325.328 -0.906675 -1.67881 0
M  V30 3248 C 322.468 -2.03087 -2.79015 0
M  V30 3249 C 321.581 -3.30799 -2.77842 0
M  V30 3250 C 320.716 -3.42285 -4.0622 0
M  V30 3251 C 319.755 -4.6395 -3.9927 0
M  V30 3252 N 318.892 -4.72477 -5.19336 0
M  V30 3253 H 323.732 -2.73703 -1.17858 0
M  V30 3254 H 321.269 -1.35568 -0.570949 0
M  V30 3255 H 323.227 -2.1349 -3.58438 0
M  V30 3256 H 321.857 -1.14375 -3.01858 0
M  V30 3257 H 320.909 -3.29244 -1.90533 0
M  V30 3258 H 322.221 -4.20314 -2.68584 0
M  V30 3259 H 321.375 -3.52113 -4.94066 0
M  V30 3260 H 320.114 -2.50823 -4.18258 0
M  V30 3261 H 319.119 -4.54201 -3.09809 0
M  V30 3262 H 320.344 -5.56775 -3.88817 0
M  V30 3263 H 318.29 -3.83924 -5.3192 0
M  V30 3264 H 318.207 -5.55927 -5.12329 0
M  V30 3265 H 319.475 -4.86613 -6.08957 0
M  V30 3266 N 323.704 0.605807 -1.45491 0
M  V30 3267 C 324.634 1.72709 -1.57143 0
M  V30 3268 C 325.615 1.6476 -0.422884 0
M  V30 3269 O 326.8 1.83132 -0.646247 0
M  V30 3270 C 323.93 3.11316 -1.53948 0
M  V30 3271 C 322.884 3.34077 -2.67537 0
M  V30 3272 C 322.21 4.72975 -2.49397 0
M  V30 3273 C 323.51 3.24158 -4.09535 0
M  V30 3274 H 325.204 1.63214 -2.51001 0
M  V30 3275 H 322.75 0.78379 -1.208 0
M  V30 3276 H 324.703 3.89557 -1.60696 0
M  V30 3277 H 323.427 3.21655 -0.566205 0
M  V30 3278 H 322.086 2.58227 -2.6022 0
M  V30 3279 H 321.734 4.8005 -1.50205 0
M  V30 3280 H 321.434 4.8916 -3.25571 0
M  V30 3281 H 322.958 5.53414 -2.58002 0
M  V30 3282 H 324.372 3.92271 -4.18086 0
M  V30 3283 H 322.769 3.51872 -4.86113 0
M  V30 3284 H 323.839 2.2157 -4.31317 0
M  V30 3285 N 325.182 1.32811 0.848464 0
M  V30 3286 C 326.112 1.24882 1.97299 0
M  V30 3287 C 327.093 0.131357 1.69592 0
M  V30 3288 O 328.278 0.319553 1.91553 0
M  V30 3289 C 325.408 0.97746 3.33261 0
M  V30 3290 C 324.362 2.05682 3.75338 0
M  V30 3291 C 323.688 1.63777 5.09 0
M  V30 3292 C 324.988 3.47254 3.90144 0
M  V30 3293 H 326.682 2.18966 2.04191 0
M  V30 3294 H 324.228 1.05413 0.981029 0
M  V30 3295 H 326.181 0.908513 4.1149 0
M  V30 3296 H 324.905 0.000980011 3.266 0
M  V30 3297 H 323.564 2.11603 2.99366 0
M  V30 3298 H 323.212 0.648569 4.98801 0
M  V30 3299 H 322.912 2.36 5.38124 0
M  V30 3300 H 324.436 1.5833 5.89715 0
M  V30 3301 H 325.85 3.43888 4.58709 0
M  V30 3302 H 324.247 4.1788 4.30693 0
M  V30 3303 H 325.317 3.86462 2.92874 0
M  V30 3304 N 326.66 -1.06551 1.16123 0
M  V30 3305 C 327.89 -1.8274 0.963838 0
M  V30 3306 C 328.298 -1.82712 -0.491228 0
M  V30 3307 O 327.641 -1.24294 -1.35265 0
M  V30 3308 C 327.703 -3.3065 1.41106 0
M  V30 3309 C 327.367 -3.54384 2.88549 0
M  V30 3310 C 328.364 -3.4765 3.86569 0
M  V30 3311 C 326.049 -3.81789 3.26408 0
M  V30 3312 C 328.043 -3.67982 5.2045 0
M  V30 3313 C 325.73 -4.01772 4.60459 0
M  V30 3314 C 326.728 -3.94866 5.57288 0
M  V30 3315 O 326.416 -4.14306 6.88916 0
M  V30 3316 H 326.148 -0.583136 0.341948 0
M  V30 3317 H 328.702 -1.35351 1.54497 0
M  V30 3318 H 326.932 -3.78887 0.773394 0
M  V30 3319 H 328.621 -3.88324 1.1815 0
M  V30 3320 H 329.387 -3.2647 3.58667 0
M  V30 3321 H 325.266 -3.86276 2.51619 0
M  V30 3322 H 328.81 -3.62507 5.96015 0
M  V30 3323 H 324.707 -4.2244 4.88072 0
M  V30 3324 H 325.475 -4.31609 6.95454 0
M  V30 3325 N 328.138 -0.959301 -1.25041 0
M  V30 3326 C 329.387 -0.612254 -1.92183 0
M  V30 3327 C 329.7 0.855347 -1.75907 0
M  V30 3328 O 330.906 1.31256 -2.37664 0
M  V30 3329 C 329.362 -1.04435 -3.44414 0
M  V30 3330 C 328.97 -2.53482 -3.69393 0
M  V30 3331 C 330.714 -0.770055 -4.17457 0
M  V30 3332 C 328.621 -2.90468 -5.15153 0
M  V30 3333 H 327.551 -0.225279 -0.719559 0
M  V30 3334 H 330.202 -1.16438 -1.41825 0
M  V30 3335 H 328.584 -0.4206 -3.9376 0
M  V30 3336 H 329.758 -3.20916 -3.30681 0
M  V30 3337 H 328.073 -2.78432 -3.0962 0
M  V30 3338 H 330.67 -1.02249 -5.24832 0
M  V30 3339 H 331.013 0.293611 -4.15263 0
M  V30 3340 H 331.546 -1.35437 -3.74034 0
M  V30 3341 H 328.285 -3.95871 -5.22462 0
M  V30 3342 H 327.805 -2.27711 -5.54894 0
M  V30 3343 H 329.484 -2.79914 -5.83315 0
M  V30 3344 N 329.616 1.39756 -0.72842 0
M  V30 3345 C 330.863 2.00645 -0.273487 0
M  V30 3346 C 331.191 1.57786 1.13727 0
M  V30 3347 O 330.446 0.794886 1.7883 0
M  V30 3348 C 330.745 3.56002 -0.315776 0
M  V30 3349 C 330.411 4.18489 -1.67863 0
M  V30 3350 C 329.073 4.3527 -2.05166 0
M  V30 3351 C 331.425 4.53219 -2.57375 0
M  V30 3352 C 328.753 4.84069 -3.31503 0
M  V30 3353 C 331.105 5.03423 -3.83077 0
M  V30 3354 C 329.769 5.18413 -4.20481 0
M  V30 3355 H 329.039 0.734211 -0.100076 0
M  V30 3356 H 331.686 1.6718 -0.933972 0
M  V30 3357 H 329.991 3.89452 0.428285 0
M  V30 3358 H 331.688 4.00963 0.0542575 0
M  V30 3359 H 328.278 4.05824 -1.37858 0
M  V30 3360 H 332.462 4.39878 -2.29827 0
M  V30 3361 H 327.718 4.93859 -3.60435 0
M  V30 3362 H 331.892 5.2927 -4.52599 0
M  V30 3363 H 329.519 5.55987 -5.18443 0
M  V30 3364 N 331.094 0.475555 1.50254 0
M  V30 3365 C 332.041 -0.316293 2.28622 0
M  V30 3366 C 333.011 -0.983227 1.33873 0
M  V30 3367 O 334.196 -0.994805 1.62814 0
M  V30 3368 C 331.336 -1.38975 3.1588 0
M  V30 3369 C 330.449 -0.737146 4.25664 0
M  V30 3370 C 329.584 -1.78887 5.00173 0
M  V30 3371 C 328.623 -1.11676 6.01826 0
M  V30 3372 N 327.76 -2.11154 6.69596 0
M  V30 3373 H 332.6 0.358297 2.95838 0
M  V30 3374 H 330.137 0.188541 1.45887 0
M  V30 3375 H 332.095 -2.02383 3.64825 0
M  V30 3376 H 330.725 -2.03344 2.50701 0
M  V30 3377 H 329.777 0.0096065 3.80399 0
M  V30 3378 H 331.089 -0.206816 4.98371 0
M  V30 3379 H 330.243 -2.49865 5.52859 0
M  V30 3380 H 328.982 -2.35302 4.27182 0
M  V30 3381 H 327.987 -0.392633 5.48396 0
M  V30 3382 H 329.212 -0.55945 6.76792 0
M  V30 3383 H 327.158 -2.66577 5.99394 0
M  V30 3384 H 327.075 -1.63118 7.38193 0
M  V30 3385 H 328.343 -2.81497 7.26897 0
M  V30 3386 N 332.573 -1.56217 0.208337 0
M  V30 3387 C 333.505 -2.1695 -0.739276 0
M  V30 3388 C 334.518 -1.13492 -1.1672 0
M  V30 3389 O 335.707 -1.40529 -1.10063 0
M  V30 3390 C 332.807 -2.72755 -2.01142 0
M  V30 3391 C 331.98 -4.0125 -1.74118 0
M  V30 3392 C 331.039 -4.41749 -2.85909 0
M  V30 3393 O 330.065 -5.08912 -2.54946 0
M  V30 3394 N 331.267 -4.06342 -4.14568 0
M  V30 3395 H 334.032 -2.98893 -0.219837 0
M  V30 3396 H 331.593 -1.61878 0.0268445 0
M  V30 3397 H 333.585 -2.96826 -2.75094 0
M  V30 3398 H 332.155 -1.95191 -2.4417 0
M  V30 3399 H 331.375 -3.85173 -0.838775 0
M  V30 3400 H 332.663 -4.851 -1.53477 0
M  V30 3401 H 332.061 -3.52345 -4.42571 0
M  V30 3402 H 330.618 -4.35335 -4.85105 0
M  V30 3403 N 334.051 0.0651679 -1.57465 0
M  V30 3404 C 335.462 0.616213 -1.76238 0
M  V30 3405 C 335.813 1.7756 -0.834689 0
M  V30 3406 O 334.938 2.1639 -0.0204156 0
M  V30 3407 C 335.533 1.12462 -3.1959 0
M  V30 3408 C 334.092 1.62147 -3.39684 0
M  V30 3409 C 333.239 0.543739 -2.71917 0
M  V30 3410 H 336.19 -0.161022 -1.57881 0
M  V30 3411 H 336.211 1.99324 -3.24114 0
M  V30 3412 H 335.723 0.280592 -3.87084 0
M  V30 3413 H 333.824 2.48854 -2.77313 0
M  V30 3414 H 333.937 1.69385 -4.48158 0
M  V30 3415 H 332.301 0.990352 -2.34657 0
M  V30 3416 H 333.084 -0.290216 -3.42071 0
M  V30 3417 N 335.529 1.53961 0.336706 0
M  V30 3418 C 336.776 1.71536 1.07618 0
M  V30 3419 C 337.104 0.482125 1.8843 0
M  V30 3420 O 336.359 -0.536142 1.88213 0
M  V30 3421 C 336.658 2.93493 2.03953 0
M  V30 3422 C 336.324 4.28811 1.39399 0
M  V30 3423 C 334.986 4.65602 1.21523 0
M  V30 3424 C 337.338 5.12844 0.929541 0
M  V30 3425 C 334.666 5.84037 0.558312 0
M  V30 3426 C 337.018 6.31951 0.286505 0
M  V30 3427 C 335.682 6.67432 0.0954869 0
M  V30 3428 H 334.952 0.627696 0.393801 0
M  V30 3429 H 337.599 1.88186 0.354715 0
M  V30 3430 H 335.904 2.71475 2.82504 0
M  V30 3431 H 337.601 3.04285 2.61174 0
M  V30 3432 H 334.191 3.99858 1.54311 0
M  V30 3433 H 338.375 4.84947 1.05548 0
M  V30 3434 H 333.631 6.10097 0.398995 0
M  V30 3435 H 337.805 6.96352 -0.0814376 0
M  V30 3436 H 335.432 7.59063 -0.415579 0
M  V30 3437 N 337.007 -0.598083 1.45811 0
M  V30 3438 C 337.94 -1.7223 1.49706 0
M  V30 3439 C 338.918 -1.58732 0.352535 0
M  V30 3440 O 340.102 -1.80162 0.554438 0
M  V30 3441 C 337.229 -3.10148 1.3611 0
M  V30 3442 C 336.275 -3.42209 2.54549 0
M  V30 3443 S 337.108 -3.35989 4.16979 0
M  V30 3444 C 338.264 -4.76471 4.05865 0
M  V30 3445 H 338.497 -1.68665 2.44826 0
M  V30 3446 H 336.03 -0.775541 1.33509 0
M  V30 3447 H 337.988 -3.8972 1.28953 0
M  V30 3448 H 336.649 -3.11219 0.424451 0
M  V30 3449 H 335.842 -4.42652 2.40988 0
M  V30 3450 H 335.444 -2.70173 2.58617 0
M  V30 3451 H 337.736 -5.665 3.71596 0
M  V30 3452 H 338.679 -4.95089 5.06253 0
M  V30 3453 H 339.087 -4.52599 3.37364 0
M  V30 3454 N 338.485 -1.33259 -0.841409 0
M  V30 3455 C 339.901 -1.12538 -1.13169 0
M  V30 3456 C 340.101 0.0854037 -2.01319 0
M  V30 3457 O 339.157 0.766417 -2.40587 0
M  V30 3458 C 340.47 -2.41156 -1.79623 0
M  V30 3459 C 342.018 -2.47038 -1.922 0
M  V30 3460 C 342.493 -3.7561 -2.6207 0
M  V30 3461 N 343.984 -3.76667 -2.69585 0
M  V30 3462 C 344.719 -4.72861 -3.2433 0
M  V30 3463 N 344.215 -5.79428 -3.79783 0
M  V30 3464 N 346.008 -4.6034 -3.22558 0
M  V30 3465 H 338.159 -2.10868 -0.254676 0
M  V30 3466 H 340.422 -0.931615 -0.175493 0
M  V30 3467 H 340.128 -3.29747 -1.22311 0
M  V30 3468 H 340.002 -2.53114 -2.79666 0
M  V30 3469 H 342.389 -1.58898 -2.48667 0
M  V30 3470 H 342.47 -2.39022 -0.911148 0
M  V30 3471 H 342.114 -4.64131 -2.06263 0
M  V30 3472 H 342.044 -3.80902 -3.63622 0
M  V30 3473 H 344.535 -2.99648 -2.30259 0
M  V30 3474 H 344.848 -6.48867 -4.19752 0
M  V30 3475 H 343.193 -5.83166 -3.78078 0
M  V30 3476 H 346.384 -3.76244 -2.78492 0
M  V30 3477 H 346.557 -5.35478 -3.64921 0
M  V30 3478 N 339.963 1.05934 -1.16686 0
M  V30 3479 C 341.374 1.60263 -0.957745 0
M  V30 3480 C 341.725 1.89789 0.49745 0
M  V30 3481 O 340.85 1.67401 1.37135 0
M  V30 3482 C 341.445 2.91172 -1.73218 0
M  V30 3483 C 340.004 3.42188 -1.56794 0
M  V30 3484 C 339.151 2.16028 -1.73859 0
M  V30 3485 H 342.102 0.888392 -1.31504 0
M  V30 3486 H 342.123 3.60744 -1.21014 0
M  V30 3487 H 341.635 2.6965 -2.79124 0
M  V30 3488 H 339.736 3.68762 -0.533437 0
M  V30 3489 H 339.849 4.17273 -2.35414 0
M  V30 3490 H 338.213 2.26426 -1.16633 0
M  V30 3491 H 338.996 1.96985 -2.81161 0
M  V30 3492 N 341.441 0.965919 1.2453 0
M  V30 3493 C 342.687 0.62776 1.92839 0
M  V30 3494 C 343.02 -0.834694 1.75347 0
M  V30 3495 O 342.295 -1.60031 1.10546 0
M  V30 3496 C 342.578 1.00109 3.45905 0
M  V30 3497 C 342.431 2.52011 3.72573 0
M  V30 3498 C 343.75 0.53435 4.36844 0
M  V30 3499 H 340.869 0.229537 0.700344 0
M  V30 3500 H 343.511 1.2046 1.46933 0
M  V30 3501 H 341.661 0.510238 3.85135 0
M  V30 3502 H 343.333 3.08559 3.42912 0
M  V30 3503 H 341.576 2.95287 3.17786 0
M  V30 3504 H 342.247 2.73183 4.79661 0
M  V30 3505 H 344.723 0.955565 4.04979 0
M  V30 3506 H 343.599 0.824152 5.42678 0
M  V30 3507 H 343.86 -0.565589 4.38467 0
M  V30 3508 N 342.919 -1.39368 0.735821 0
M  V30 3509 C 343.851 -2.2913 0.0567723 0
M  V30 3510 C 344.864 -1.46859 -0.702589 0
M  V30 3511 O 346.053 -1.69925 -0.546616 0
M  V30 3512 C 343.153 -3.25492 -0.943823 0
M  V30 3513 C 342.326 -4.36709 -0.24581 0
M  V30 3514 C 341.385 -5.13376 -1.15463 0
M  V30 3515 O 340.411 -5.65683 -0.631803 0
M  V30 3516 N 341.613 -5.24656 -2.48427 0
M  V30 3517 H 344.378 -2.88047 0.827582 0
M  V30 3518 H 341.939 -1.50957 0.585112 0
M  V30 3519 H 343.931 -3.73657 -1.55443 0
M  V30 3520 H 342.501 -2.676 -1.61583 0
M  V30 3521 H 341.721 -3.9041 0.545286 0
M  V30 3522 H 343.009 -5.08244 0.237891 0
M  V30 3523 H 342.407 -4.83679 -2.93379 0
M  V30 3524 H 340.964 -5.76258 -3.04582 0
M  V30 3525 N 344.397 -0.483516 -1.5 0
M  V30 3526 C 345.625 0.0644831 -2.06799 0
M  V30 3527 C 346.04 1.32399 -1.34596 0
M  V30 3528 O 345.397 1.77626 -0.418946 0
M  V30 3529 C 345.448 0.339927 -3.59898 0
M  V30 3530 O 345.169 -0.869635 -4.29382 0
M  V30 3531 C 346.67 0.933515 -4.33359 0
M  V30 3532 H 343.89 -0.0126333 -0.670881 0
M  V30 3533 H 346.434 -0.675864 -1.93009 0
M  V30 3534 H 344.589 1.03022 -3.7345 0
M  V30 3535 H 345.003 -0.62179 -5.20801 0
M  V30 3536 H 346.477 1.07593 -5.41413 0
M  V30 3537 H 346.954 1.92685 -3.94676 0
M  V30 3538 H 347.56 0.281221 -4.24369 0
M  V30 3539 N 345.875 1.56104 -0.216619 0
M  V30 3540 C 347.103 2.02563 0.421413 0
M  V30 3541 C 347.518 1.0965 1.53695 0
M  V30 3542 O 346.875 0.10521 1.82196 0
M  V30 3543 C 346.926 3.48584 0.957665 0
M  V30 3544 O 346.647 4.37953 -0.113389 0
M  V30 3545 C 348.148 4.10664 1.66943 0
M  V30 3546 H 345.368 0.662944 0.103665 0
M  V30 3547 H 347.912 2.01793 -0.331629 0
M  V30 3548 H 346.067 3.49985 1.661 0
M  V30 3549 H 346.481 5.23704 0.288932 0
M  V30 3550 H 347.955 5.14622 1.99671 0
M  V30 3551 H 348.432 3.55373 2.58083 0
M  V30 3552 H 349.038 4.13098 1.01142 0
M  V30 3553 N 347.353 -0.0568162 1.57498 0
M  V30 3554 C 348.285 -1.09292 2.01464 0
M  V30 3555 C 349.298 -1.34112 0.922913 0
M  V30 3556 O 350.487 -1.32089 1.20062 0
M  V30 3557 C 347.587 -2.44068 2.35125 0
M  V30 3558 C 346.76 -2.38995 3.66333 0
M  V30 3559 C 345.819 -3.55997 3.87495 0
M  V30 3560 O 344.845 -3.36746 4.58901 0
M  V30 3561 N 346.047 -4.76888 3.30996 0
M  V30 3562 H 348.812 -0.718386 2.90963 0
M  V30 3563 H 346.373 -0.245235 1.60032 0
M  V30 3564 H 348.365 -3.21011 2.46443 0
M  V30 3565 H 346.935 -2.73468 1.5144 0
M  V30 3566 H 346.155 -1.47336 3.65631 0
M  V30 3567 H 347.443 -2.3272 4.52458 0
M  V30 3568 H 346.841 -4.95431 2.73065 0
M  V30 3569 H 345.398 -5.51291 3.47738 0
M  V30 3570 N 348.832 -1.54138 -0.328536 0
M  V30 3571 C 349.742 -1.86192 -1.42723 0
M  V30 3572 C 350.758 -0.753382 -1.56844 0
M  V30 3573 O 351.934 -1.04718 -1.72035 0
M  V30 3574 C 348.999 -2.07824 -2.77507 0
M  V30 3575 C 348.06 -3.31641 -2.72603 0
M  V30 3576 C 347.293 -3.52232 -4.00959 0
M  V30 3577 O 347.516 -2.7636 -4.9898 0
M  V30 3578 O 346.45 -4.45699 -4.0452 0
M  V30 3579 H 350.276 -2.79608 -1.18547 0
M  V30 3580 H 347.861 -1.3998 -0.522104 0
M  V30 3581 H 349.743 -2.23411 -3.57303 0
M  V30 3582 H 348.418 -1.17596 -3.01584 0
M  V30 3583 H 347.325 -3.21444 -1.91376 0
M  V30 3584 H 348.658 -4.2191 -2.53481 0
M  V30 3585 N 350.31 0.590341 -1.46126 0
M  V30 3586 C 351.22 1.72793 -1.58681 0
M  V30 3587 C 352.236 1.67516 -0.470566 0
M  V30 3588 O 353.412 1.87562 -0.733642 0
M  V30 3589 C 350.477 3.09287 -1.5666 0
M  V30 3590 C 349.538 3.25886 -2.79458 0
M  V30 3591 C 348.771 4.55869 -2.77524 0
M  V30 3592 O 348.994 5.3928 -1.85832 0
M  V30 3593 O 347.928 4.75552 -3.68964 0
M  V30 3594 H 351.754 1.65149 -2.54872 0
M  V30 3595 H 349.339 0.756486 -1.28832 0
M  V30 3596 H 351.221 3.90577 -1.58202 0
M  V30 3597 H 349.896 3.17385 -0.636271 0
M  V30 3598 H 348.803 2.44119 -2.83472 0
M  V30 3599 H 350.136 3.22675 -3.71674 0
M  V30 3600 N 351.788 1.33704 0.83433 0
M  V30 3601 C 353.065 1.16011 1.57483 0
M  V30 3602 C 353.445 -0.27176 2.09343 0
M  V30 3603 O 352.793 -1.27146 1.89858 0
M  V30 3604 C 353.003 2.20507 2.70514 0
M  V30 3605 C 354.351 2.54898 3.39577 0
M  V30 3606 O 355.375 2.19209 2.80759 0
M  V30 3607 O 354.234 3.16158 4.45765 0
M  V30 3608 H 351.328 0.448992 0.694503 0
M  V30 3609 H 353.874 1.453 0.876691 0
M  V30 3610 H 352.646 3.16667 2.29865 0
M  V30 3611 H 352.269 1.92329 3.47987 0
M  V30 3612 N 353.266 -1.05314 1.17247 0
M  V30 3613 C 354.514 -1.77941 0.958194 0
M  V30 3614 C 354.835 -1.88089 -0.514556 0
M  V30 3615 O 354.105 -1.39676 -1.37359 0
M  V30 3616 H 352.685 -0.659116 0.351533 0
M  V30 3617 H 355.347 -1.27166 1.47699 0
M  V30 3618 H 354.443 -2.79663 1.38546 0
M  V30 3619 N 354.744 -0.972509 -1.24016 0
M  V30 3620 C 355.984 -0.644951 -1.93958 0
M  V30 3621 C 356.348 0.80559 -1.74282 0
M  V30 3622 O 357.549 1.2436 -2.38302 0
M  V30 3623 C 355.82 -1.01521 -3.42678 0
M  V30 3624 S 357.379 -0.802927 -4.31391 0
M  V30 3625 H 354.197 -0.236452 -0.670531 0
M  V30 3626 H 356.799 -1.25048 -1.50277 0
M  V30 3627 H 355.503 -2.06769 -3.54506 0
M  V30 3628 H 355.034 -0.400648 -3.91355 0
M  V30 3629 H 357.049 0.317256 -4.95185 0
M  V30 3630 N 356.222 1.38976 -0.743202 0
M  V30 3631 C 357.447 2.05161 -0.303936 0
M  V30 3632 C 357.872 1.55677 1.05576 0
M  V30 3633 O 357.23 0.704131 1.67068 0
M  V30 3634 C 357.278 3.59138 -0.324373 0
M  V30 3635 O 356.382 4.06668 0.685204 0
M  V30 3636 H 355.723 0.649815 -0.136518 0
M  V30 3637 H 358.253 1.77852 -1.01142 0
M  V30 3638 H 358.263 4.07639 -0.171618 0
M  V30 3639 H 356.938 3.94515 -1.31647 0
M  V30 3640 H 355.515 3.69561 0.497913 0
M  V30 3641 N 357.7 0.491464 1.49741 0
M  V30 3642 C 358.94 -0.0549118 2.04326 0
M  V30 3643 C 359.304 -1.35148 1.36378 0
M  V30 3644 O 360.505 -1.9815 1.81631 0
M  V30 3645 C 358.776 -0.213841 3.5676 0
M  V30 3646 S 360.335 -0.715839 4.32922 0
M  V30 3647 H 357.153 -0.00630513 0.710972 0
M  V30 3648 H 359.755 0.663257 1.83905 0
M  V30 3649 H 358.459 0.73527 4.0376 0
M  V30 3650 H 357.99 -0.957529 3.81569 0
M  V30 3651 H 360.005 -1.9864 4.54705 0
M  V30 3652 N 359.178 -1.55987 0.224894 0
M  V30 3653 C 360.594 -1.59066 -0.130426 0
M  V30 3654 C 360.794 -1.24176 -1.5869 0
M  V30 3655 O 359.85 -0.978592 -2.32766 0
M  V30 3656 C 361.163 -3.00042 0.198883 0
M  V30 3657 C 362.711 -3.1268 0.141391 0
M  V30 3658 C 363.186 -4.55839 0.444422 0
M  V30 3659 N 364.677 -4.6152 0.394115 0
M  V30 3660 C 365.412 -5.70231 0.602038 0
M  V30 3661 N 364.908 -6.87291 0.871914 0
M  V30 3662 N 366.701 -5.59555 0.534245 0
M  V30 3663 H 358.852 -1.76941 1.17497 0
M  V30 3664 H 361.115 -0.822604 0.471197 0
M  V30 3665 H 360.821 -3.30234 1.2099 0
M  V30 3666 H 360.695 -3.74075 -0.484535 0
M  V30 3667 H 363.082 -2.82283 -0.860265 0
M  V30 3668 H 363.163 -2.40969 0.858335 0
M  V30 3669 H 362.807 -4.86954 1.44353 0
M  V30 3670 H 362.737 -5.2578 -0.293752 0
M  V30 3671 H 365.228 -3.77405 0.193356 0
M  V30 3672 H 365.541 -7.66058 1.01858 0
M  V30 3673 H 363.886 -6.89028 0.909145 0
M  V30 3674 H 367.077 -4.6698 0.323612 0
M  V30 3675 H 367.25 -6.44211 0.699693 0
M  V30 3676 N 360.656 0.0484629 -1.57525 0
M  V30 3677 C 361.903 0.743125 -1.88372 0
M  V30 3678 C 362.231 1.76383 -0.819715 0
M  V30 3679 O 361.486 1.94855 0.181659 0
M  V30 3680 C 361.785 1.46632 -3.25935 0
M  V30 3681 C 361.451 0.583427 -4.4711 0
M  V30 3682 C 360.113 0.340191 -4.79996 0
M  V30 3683 C 362.465 -0.0273345 -5.21193 0
M  V30 3684 C 359.793 -0.522903 -5.84365 0
M  V30 3685 C 362.145 -0.878017 -6.26477 0
M  V30 3686 C 360.809 -1.1309 -6.5785 0
M  V30 3687 H 360.079 0.271929 -0.689301 0
M  V30 3688 H 362.726 0.00336166 -1.915 0
M  V30 3689 H 361.031 2.2789 -3.18706 0
M  V30 3690 H 362.728 2.00902 -3.47044 0
M  V30 3691 H 359.318 0.783151 -4.21384 0
M  V30 3692 H 363.502 0.147654 -4.9608 0
M  V30 3693 H 358.758 -0.727335 -6.07058 0
M  V30 3694 H 362.932 -1.35789 -6.83033 0
M  V30 3695 H 360.559 -1.80144 -7.38547 0
M  V30 3696 N 362.134 1.5431 0.320358 0
M  V30 3697 C 363.545 1.63872 0.894594 0
M  V30 3698 C 363.896 0.534847 1.88769 0
M  V30 3699 O 363.021 -0.331732 2.13842 0
M  V30 3700 C 363.616 2.97049 1.62934 0
M  V30 3701 C 362.175 3.08796 2.15226 0
M  V30 3702 C 361.322 2.59456 0.978671 0
M  V30 3703 H 364.273 1.58398 0.0978544 0
M  V30 3704 H 364.294 2.87388 2.49376 0
M  V30 3705 H 363.806 3.7737 0.906302 0
M  V30 3706 H 361.907 2.33156 2.90636 0
M  V30 3707 H 362.02 4.14649 2.40006 0
M  V30 3708 H 360.384 2.1543 1.35875 0
M  V30 3709 H 361.167 3.42237 0.269895 0
M  V30 3710 N 363.613 -0.582584 1.46437 0
M  V30 3711 C 364.523 -1.71949 1.59595 0
M  V30 3712 C 365.539 -1.67264 0.479443 0
M  V30 3713 O 366.715 -1.87171 0.743579 0
M  V30 3714 C 363.78 -3.08452 1.58298 0
M  V30 3715 C 362.841 -3.244 2.81182 0
M  V30 3716 C 362.074 -4.54391 2.79937 0
M  V30 3717 O 362.297 -5.38287 1.8869 0
M  V30 3718 O 361.231 -4.73588 3.71481 0
M  V30 3719 H 365.057 -1.63795 2.55744 0
M  V30 3720 H 362.642 -0.749643 1.29231 0
M  V30 3721 H 364.524 -3.89732 1.60271 0
M  V30 3722 H 363.199 -3.17043 0.653094 0
M  V30 3723 H 362.106 -2.42613 2.84763 0
M  V30 3724 H 363.439 -3.20699 3.7338 0
M  V30 3725 N 365.091 -1.34144 -0.827227 0
M  V30 3726 C 366.001 -1.27428 -1.96975 0
M  V30 3727 C 367.017 -0.182728 -1.73038 0
M  V30 3728 O 368.193 -0.408426 -1.97215 0
M  V30 3729 C 365.258 -1.02526 -3.31194 0
M  V30 3730 C 364.319 -2.20796 -3.68168 0
M  V30 3731 C 363.552 -1.97073 -4.95982 0
M  V30 3732 O 363.775 -0.926822 -5.6282 0
M  V30 3733 O 362.709 -2.83912 -5.30733 0
M  V30 3734 H 366.535 -2.23537 -2.05584 0
M  V30 3735 H 364.12 -1.14307 -0.961989 0
M  V30 3736 H 366.002 -0.904026 -4.11589 0
M  V30 3737 H 364.677 -0.0945389 -3.23562 0
M  V30 3738 H 363.584 -2.38477 -2.88235 0
M  V30 3739 H 364.917 -3.12243 -3.8048 0
M  V30 3740 N 366.569 1.04691 -1.17803 0
M  V30 3741 C 367.479 2.16057 -0.914151 0
M  V30 3742 C 368.495 1.73589 0.119503 0
M  V30 3743 O 369.671 2.01308 -0.0609468 0
M  V30 3744 C 366.736 3.4394 -0.436603 0
M  V30 3745 C 365.797 4.00825 -1.53746 0
M  V30 3746 C 365.03 5.22604 -1.0826 0
M  V30 3747 O 365.253 5.70367 0.0612244 0
M  V30 3748 O 364.187 5.7186 -1.87775 0
M  V30 3749 H 368.013 2.41169 -1.84584 0
M  V30 3750 H 365.598 1.1453 -0.959334 0
M  V30 3751 H 367.48 4.21024 -0.178057 0
M  V30 3752 H 366.155 3.20316 0.466869 0
M  V30 3753 H 365.062 3.25158 -1.84995 0
M  V30 3754 H 366.395 4.28778 -2.41683 0
M  V30 3755 N 368.047 0.979072 1.23499 0
M  V30 3756 C 368.957 0.526431 2.28617 0
M  V30 3757 C 369.973 -0.418126 1.68901 0
M  V30 3758 O 371.149 -0.288372 1.99325 0
M  V30 3759 C 368.214 -0.165235 3.46306 0
M  V30 3760 C 367.275 0.82056 4.21385 0
M  V30 3761 C 366.508 0.161807 5.33455 0
M  V30 3762 O 366.731 -1.04742 5.60701 0
M  V30 3763 O 365.665 0.859708 5.95729 0
M  V30 3764 H 369.491 1.4006 2.69475 0
M  V30 3765 H 367.076 0.746643 1.29405 0
M  V30 3766 H 368.958 -0.553287 4.17752 0
M  V30 3767 H 367.633 -1.01419 3.07402 0
M  V30 3768 H 366.54 1.25929 3.52268 0
M  V30 3769 H 367.873 1.63828 4.64135 0
M  V30 3770 N 369.525 -1.3858 0.750561 0
M  V30 3771 C 370.773 -1.99789 0.30477 0
M  V30 3772 C 371.094 -1.59874 -1.11649 0
M  V30 3773 O 370.364 -0.85417 -1.76297 0
M  V30 3774 H 368.944 -0.738902 0.109694 0
M  V30 3775 H 371.606 -1.69391 0.963983 0
M  V30 3776 H 370.702 -3.09952 0.365499 0
M  V30 3777 N 371.003 -0.499398 -1.49478 0
M  V30 3778 C 372.251 0.0455996 -2.02049 0
M  V30 3779 C 372.572 1.37633 -1.38138 0
M  V30 3780 O 371.842 1.8842 -0.536166 0
M  V30 3781 H 370.422 0.0198416 -0.746736 0
M  V30 3782 H 373.084 -0.656274 -1.83519 0
M  V30 3783 H 372.18 0.176445 -3.11601 0
M  V30 3784 N 372.481 1.55866 -0.233164 0
M  V30 3785 C 373.721 2.00506 0.397078 0
M  V30 3786 C 374.085 1.1176 1.56121 0
M  V30 3787 O 375.286 1.45796 2.25825 0
M  V30 3788 C 373.557 3.4811 0.809601 0
M  V30 3789 S 375.116 4.14765 1.43231 0
M  V30 3790 H 371.934 0.699828 0.125547 0
M  V30 3791 H 374.536 1.92429 -0.345177 0
M  V30 3792 H 373.24 4.10373 -0.0471601 0
M  V30 3793 H 372.771 3.60085 1.58438 0
M  V30 3794 H 374.786 4.14914 2.7214 0
M  V30 3795 N 373.959 -0.0401083 1.57549 0
M  V30 3796 C 374.869 -1.06133 2.0922 0
M  V30 3797 C 375.885 -1.40356 1.0284 0
M  V30 3798 O 377.061 -1.49897 1.34509 0
M  V30 3799 C 374.126 -2.34658 2.55218 0
M  V30 3800 C 373.187 -2.07117 3.76033 0
M  V30 3801 C 372.42 -3.29514 4.19829 0
M  V30 3802 O 372.643 -4.39794 3.63232 0
M  V30 3803 O 371.577 -3.15863 5.12362 0
M  V30 3804 H 375.403 -0.652244 2.96613 0
M  V30 3805 H 372.988 -0.256368 1.47184 0
M  V30 3806 H 374.87 -3.10239 2.85184 0
M  V30 3807 H 373.545 -2.74883 1.70941 0
M  V30 3808 H 372.452 -1.29139 3.51104 0
M  V30 3809 H 373.785 -1.71754 4.61261 0
M  V30 3810 N 375.437 -1.54477 -0.31217 0
M  V30 3811 C 376.367 -1.87652 -1.38957 0
M  V30 3812 C 377.348 -0.734358 -1.53431 0
M  V30 3813 O 378.533 -0.98911 -1.67123 0
M  V30 3814 C 375.663 -2.11396 -2.75552 0
M  V30 3815 C 374.617 -3.27243 -2.75855 0
M  V30 3816 C 373.943 -3.36382 -4.15633 0
M  V30 3817 C 375.243 -4.64622 -2.38587 0
M  V30 3818 H 376.937 -2.77887 -1.11442 0
M  V30 3819 H 374.483 -1.33707 -0.534655 0
M  V30 3820 H 376.436 -2.33189 -3.51 0
M  V30 3821 H 375.16 -1.17921 -3.04569 0
M  V30 3822 H 373.819 -3.05356 -2.02863 0
M  V30 3823 H 373.467 -2.40445 -4.41809 0
M  V30 3824 H 373.167 -4.14249 -4.1674 0
M  V30 3825 H 374.691 -3.60422 -4.92877 0
M  V30 3826 H 376.105 -4.86219 -3.03749 0
M  V30 3827 H 374.502 -5.45121 -2.50925 0
M  V30 3828 H 375.572 -4.66097 -1.33723 0
M  V30 3829 O 376.954 0.458097 -1.54867 0
M  V30 3830 H 377.645 1.11218 -1.58588 0
M  V30 END ATOM
M  V30 BEGIN BOND
M  V30 END BOND
M  V30 END CTAB
M  END
$$$$
