drugbank_target|Q07020 60S ribosomal protein L18 (DB11638)
 OpenBabel12092121093D

  0  0  0     0  0            999 V3000
M  V30 BEGIN CTAB
M  V30 COUNTS 3161 3185 0 0 0
M  V30 BEGIN ATOM
M  V30 1 H -0.908 1.98254 -0.117106 0
M  V30 2 N 0 1.576 0 0
M  V30 3 C 0.933 2.03868 1.02534 0
M  V30 4 C 1.911 0.928543 1.3348 0
M  V30 5 O 3.095 1.19667 1.45644 0
M  V30 6 C 0.222 2.43627 2.35294 0
M  V30 7 C -0.732 3.65373 2.2001 0
M  V30 8 S 0.101 5.13292 1.52614 0
M  V30 9 C 1.257 5.56322 2.86805 0
M  V30 10 H 1.49 2.90518 0.631377 0
M  V30 11 H -0.977 1.52953 0.210867 0
M  V30 12 H 0.981 2.67203 3.11629 0
M  V30 13 H -0.358 1.57376 2.7183 0
M  V30 14 H -1.165 3.90944 3.18086 0
M  V30 15 H -1.563 3.418 1.51819 0
M  V30 16 H 0.729 5.58782 3.83104 0
M  V30 17 H 1.672 6.56266 2.65933 0
M  V30 18 H 2.08 4.83886 2.90714 0
M  V30 19 N 1.4781 -0.272755 1.55222 0
M  V30 20 C 2.7261 -1.00234 1.75492 0
M  V30 21 C 3.0471 -1.8681 0.5592 0
M  V30 22 O 2.3171 -1.91215 -0.425882 0
M  V30 23 H 0.8971 -0.373076 0.647166 0
M  V30 24 H 3.5591 -0.296926 1.92625 0
M  V30 25 H 2.6551 -1.63913 2.65592 0
M  V30 26 N 2.9562 -1.48159 -0.537278 0
M  V30 27 C 4.2022 -1.56035 -1.29541 0
M  V30 28 C 4.5352 -0.230377 -1.92829 0
M  V30 29 O 3.8102 0.762952 -1.78911 0
M  V30 30 C 4.0932 -2.69323 -2.39034 0
M  V30 31 C 3.9462 -4.12002 -1.80485 0
M  V30 32 C 5.2652 -2.78408 -3.40847 0
M  V30 33 H 2.3842 -0.567992 -0.469632 0
M  V30 34 H 5.0262 -1.80302 -0.599277 0
M  V30 35 H 3.1762 -2.48763 -2.98412 0
M  V30 36 H 4.8482 -4.43981 -1.25215 0
M  V30 37 H 3.0912 -4.19344 -1.11055 0
M  V30 38 H 3.7622 -4.87077 -2.59731 0
M  V30 39 H 6.2382 -2.97012 -2.91416 0
M  V30 40 H 5.1142 -3.59416 -4.14863 0
M  V30 41 H 5.3752 -1.86269 -4.00944 0
M  V30 42 N 4.4343 0.785586 -1.36625 0
M  V30 43 C 5.7113 1.53198 -1.21613 0
M  V30 44 C 6.0913 2.10187 0.196113 0
M  V30 45 O 5.4393 1.94318 1.20219 0
M  V30 46 C 5.6493 2.62388 -2.30116 0
M  V30 47 C 6.9973 3.30167 -2.66974 0
M  V30 48 O 8.0213 2.72674 -2.29188 0
M  V30 49 O 6.8803 4.34077 -3.32023 0
M  V30 50 H 3.9743 0.677865 -0.473738 0
M  V30 51 H 6.5203 0.823739 -1.48367 0
M  V30 52 H 5.2923 2.18299 -3.24748 0
M  V30 53 H 4.9153 3.40827 -2.0475 0
M  V30 54 N 5.9124 1.20967 1.01018 0
M  V30 55 C 7.1614 1.01796 1.74128 0
M  V30 56 C 7.4744 -0.449691 1.90361 0
M  V30 57 O 8.6804 -0.76068 2.60626 0
M  V30 58 C 7.1364 1.7727 3.13215 0
M  V30 59 C 6.7444 3.28171 3.04972 0
M  V30 60 C 8.4884 1.66489 3.90489 0
M  V30 61 C 6.3954 3.96156 4.39107 0
M  V30 62 H 5.3254 0.377276 0.652824 0
M  V30 63 H 7.9764 1.44651 1.12909 0
M  V30 64 H 6.3584 1.27205 3.75013 0
M  V30 65 H 7.5324 3.85499 2.52443 0
M  V30 66 H 5.8474 3.39437 2.41188 0
M  V30 67 H 8.4444 2.14617 4.89738 0
M  V30 68 H 8.7874 0.6222 4.11624 0
M  V30 69 H 9.3204 2.14003 3.35332 0
M  V30 70 H 6.0594 5.00604 4.23174 0
M  V30 71 H 5.5794 3.43617 4.91617 0
M  V30 72 H 7.2584 4.00774 5.07926 0
M  V30 73 N 7.3905 -1.2043 1.01659 0
M  V30 74 C 8.8065 -1.41852 0.731442 0
M  V30 75 C 9.0065 -1.89358 -0.688898 0
M  V30 76 O 8.0625 -2.06247 -1.45666 0
M  V30 77 C 9.3755 -2.44019 1.75714 0
M  V30 78 C 10.9235 -2.57785 1.77527 0
M  V30 79 C 11.3985 -3.63194 2.79023 0
M  V30 80 N 12.8895 -3.70678 2.77763 0
M  V30 81 C 13.6245 -4.51897 3.52954 0
M  V30 82 N 13.1205 -5.36921 4.37821 0
M  V30 83 N 14.9135 -4.4643 3.41551 0
M  V30 84 H 7.0645 -0.879093 1.93354 0
M  V30 85 H 9.3275 -0.448425 0.835236 0
M  V30 86 H 9.0335 -2.1611 2.77469 0
M  V30 87 H 8.9075 -3.43007 1.56927 0
M  V30 88 H 11.2945 -2.85023 0.764569 0
M  V30 89 H 11.3755 -1.58992 2.00387 0
M  V30 90 H 11.0195 -3.36699 3.80258 0
M  V30 91 H 10.9495 -4.61609 2.53425 0
M  V30 92 H 13.4405 -3.09944 2.16201 0
M  V30 93 H 13.7535 -5.95981 4.91962 0
M  V30 94 H 12.0985 -5.36424 4.41899 0
M  V30 95 H 15.2895 -3.79042 2.74672 0
M  V30 96 H 15.4625 -5.09491 4.00404 0
M  V30 97 N 8.8686 -0.792821 -1.36206 0
M  V30 98 C 9.8186 -0.166598 -2.27391 0
M  V30 99 C 10.8026 0.651479 -1.47121 0
M  V30 100 O 11.9946 0.510994 -1.69463 0
M  V30 101 C 9.1236 0.695033 -3.36191 0
M  V30 102 C 8.2096 -0.132019 -4.23894 0
M  V30 103 N 8.6006 -1.18822 -4.91645 0
M  V30 104 C 6.8986 0.0885952 -4.45912 0
M  V30 105 C 7.5996 -1.69198 -5.56549 0
M  V30 106 N 6.5756 -1.00065 -5.34311 0
M  V30 107 H 10.3776 -0.974947 -2.77258 0
M  V30 108 H 7.8916 -0.632616 -1.49572 0
M  V30 109 H 9.8886 1.1596 -4.00448 0
M  V30 110 H 8.5486 1.50189 -2.87877 0
M  V30 111 H 9.5596 -1.57069 -4.93507 0
M  V30 112 H 6.2366 0.865688 -4.08426 0
M  V30 113 H 7.6266 -2.57395 -6.20643 0
M  V30 114 N 10.3467 1.47872 -0.545128 0
M  V30 115 C 11.2947 2.31533 0.222512 0
M  V30 116 C 12.2887 1.42177 0.920985 0
M  V30 117 O 13.4947 1.59005 0.843645 0
M  V30 118 H 9.8697 0.746519 0.0906278 0
M  V30 119 H 11.8407 2.94139 -0.50246 0
M  V30 120 C 10.5897 3.2457 1.24699 0
M  V30 121 H 9.9127 3.93283 0.718944 0
M  V30 122 H 11.3527 3.85963 1.75523 0
M  V30 123 C 9.8117 2.47237 2.28856 0
M  V30 124 O 10.3417 2.20808 3.35569 0
M  V30 125 N 8.5477 2.08461 2.02466 0
M  V30 126 H 8.0947 2.30155 1.157 0
M  V30 127 H 8.0527 1.57033 2.72375 0
M  V30 128 N 11.8248 0.280983 1.55075 0
M  V30 129 C 12.7718 -0.603937 2.22758 0
M  V30 130 C 13.7418 -1.1452 1.20309 0
M  V30 131 O 14.9268 -1.19343 1.48869 0
M  V30 132 C 12.0668 -1.77947 2.95684 0
M  V30 133 C 11.1798 -1.2715 4.12864 0
M  V30 134 C 10.3148 -2.4093 4.7342 0
M  V30 135 C 9.3538 -1.87165 5.82783 0
M  V30 136 N 8.4908 -2.94441 6.37377 0
M  V30 137 H 13.3308 -0.020124 2.97993 0
M  V30 138 H 10.8678 0.00183425 1.471 0
M  V30 139 H 12.8258 -2.47055 3.36184 0
M  V30 140 H 11.4558 -2.33522 2.22861 0
M  V30 141 H 10.5078 -0.473331 3.77444 0
M  V30 142 H 11.8198 -0.837751 4.91715 0
M  V30 143 H 10.9738 -3.18021 5.1667 0
M  V30 144 H 9.7128 -2.87623 3.93859 0
M  V30 145 H 8.7178 -1.08556 5.38976 0
M  V30 146 H 9.9428 -1.41401 6.64216 0
M  V30 147 H 7.8888 -3.40505 5.60707 0
M  V30 148 H 7.8058 -2.55501 7.11516 0
M  V30 149 H 9.0738 -3.71489 6.85285 0
M  V30 150 N 13.3029 -1.57598 0.00835791 0
M  V30 151 C 14.5799 -1.82172 -0.712235 0
M  V30 152 C 14.9599 -0.887873 -1.9152 0
M  V30 153 O 14.3079 0.06146 -2.28417 0
M  V30 154 C 14.5179 -3.30875 -1.11008 0
M  V30 155 C 15.8659 -3.96826 -1.51044 0
M  V30 156 O 16.8899 -3.35248 -1.20364 0
M  V30 157 O 15.7489 -5.05318 -2.08125 0
M  V30 158 H 12.8429 -0.750435 -0.347529 0
M  V30 159 H 15.3889 -1.69665 0.0344523 0
M  V30 160 H 14.1609 -3.90481 -0.252982 0
M  V30 161 H 13.7839 -3.48412 -1.9156 0
M  V30 162 N 14.781 0.264519 -1.55364 0
M  V30 163 C 16.197 0.61215 -1.47394 0
M  V30 164 C 16.397 1.89134 -0.695018 0
M  V30 165 O 15.453 2.51563 -0.217275 0
M  V30 166 C 16.766 0.731235 -2.91674 0
M  V30 167 C 18.314 0.82473 -3.01939 0
M  V30 168 C 18.789 0.975522 -4.4749 0
M  V30 169 N 20.28 1.04083 -4.51354 0
M  V30 170 C 21.015 1.17646 -5.61201 0
M  V30 171 N 20.511 1.27874 -6.80896 0
M  V30 172 N 22.304 1.20823 -5.48961 0
M  V30 173 H 14.455 -0.575456 -2.04456 0
M  V30 174 H 16.718 -0.196099 -0.927496 0
M  V30 175 H 16.424 -0.138392 -3.51428 0
M  V30 176 H 16.298 1.60883 -3.41169 0
M  V30 177 H 18.685 1.68482 -2.42276 0
M  V30 178 H 18.766 -0.0776479 -2.55682 0
M  V30 179 H 18.41 0.120058 -5.07758 0
M  V30 180 H 18.34 1.89268 -4.91412 0
M  V30 181 H 20.831 0.973846 -3.65136 0
M  V30 182 H 21.144 1.38081 -7.60364 0
M  V30 183 H 19.489 1.24863 -6.83692 0
M  V30 184 H 22.68 1.12469 -4.54388 0
M  V30 185 H 22.853 1.31049 -6.3461 0
M  V30 186 N 16.2591 1.48442 0.529413 0
M  V30 187 C 17.2061 1.63007 1.63394 0
M  V30 188 C 18.1761 0.47212 1.59249 0
M  V30 189 O 19.3611 0.695673 1.77666 0
M  V30 190 C 16.5011 1.6763 3.01653 0
M  V30 191 C 15.6141 2.94535 3.16027 0
M  V30 192 C 14.7491 2.90316 4.44849 0
M  V30 193 C 13.7881 4.11923 4.52754 0
M  V30 194 N 12.9251 4.05777 5.72965 0
M  V30 195 H 17.7651 2.5733 1.50285 0
M  V30 196 H 15.3021 1.27613 0.731656 0
M  V30 197 H 17.2601 1.68292 3.81751 0
M  V30 198 H 15.8901 0.76797 3.13532 0
M  V30 199 H 14.9421 3.03615 2.29177 0
M  V30 200 H 16.2541 3.84512 3.17729 0
M  V30 201 H 15.4081 2.89382 5.33238 0
M  V30 202 H 14.1471 1.98068 4.45668 0
M  V30 203 H 13.1521 4.13131 3.62771 0
M  V30 204 H 14.3771 5.0533 4.53672 0
M  V30 205 H 12.3231 3.16351 5.74681 0
M  V30 206 H 12.2401 4.8946 5.76164 0
M  V30 207 H 13.5081 4.08904 6.6364 0
M  V30 208 N 17.7372 -0.778329 1.37039 0
M  V30 209 C 18.9832 -1.53892 1.32079 0
M  V30 210 C 19.3162 -1.9396 -0.0965386 0
M  V30 211 O 18.5912 -1.63568 -1.05242 0
M  V30 212 C 18.8742 -2.80847 2.25382 0
M  V30 213 C 18.7272 -2.47076 3.75864 0
M  V30 214 C 20.0462 -3.82741 2.1725 0
M  V30 215 H 17.1652 -0.558303 0.48111 0
M  V30 216 H 19.8072 -0.893397 1.67685 0
M  V30 217 H 17.9572 -3.35931 1.95148 0
M  V30 218 H 19.6292 -1.97957 4.16666 0
M  V30 219 H 17.8722 -1.79863 3.94755 0
M  V30 220 H 18.5432 -3.37798 4.36574 0
M  V30 221 H 21.0192 -3.37133 2.43887 0
M  V30 222 H 19.8952 -4.69303 2.84686 0
M  V30 223 H 20.1562 -4.2652 1.16331 0
M  V30 224 N 19.2153 -1.21501 -1.00376 0
M  V30 225 C 20.6313 -0.972629 -1.26539 0
M  V30 226 C 20.8313 0.340257 -1.98606 0
M  V30 227 O 19.8873 1.06561 -2.28913 0
M  V30 228 C 21.2003 -2.16404 -2.08781 0
M  V30 229 C 22.7483 -2.20643 -2.22004 0
M  V30 230 C 23.2233 -3.39306 -3.07629 0
M  V30 231 N 24.7143 -3.39401 -3.15217 0
M  V30 232 C 25.4493 -4.27867 -3.81729 0
M  V30 233 N 24.9453 -5.26533 -4.5026 0
M  V30 234 N 26.7383 -4.15672 -3.78382 0
M  V30 235 H 18.8893 -2.05929 -0.520281 0
M  V30 236 H 21.1523 -0.901803 -0.292328 0
M  V30 237 H 20.8583 -3.11554 -1.63178 0
M  V30 238 H 20.7323 -2.15567 -3.09533 0
M  V30 239 H 23.1193 -1.26048 -2.66825 0
M  V30 240 H 23.2003 -2.25523 -1.20718 0
M  V30 241 H 22.8443 -4.34195 -2.63509 0
M  V30 242 H 22.7743 -3.31665 -4.09031 0
M  V30 243 H 25.2653 -2.67997 -2.66432 0
M  V30 244 H 25.5783 -5.90337 -4.98721 0
M  V30 245 H 23.9233 -5.30457 -4.49044 0
M  V30 246 H 27.1143 -3.3785 -3.23998 0
M  V30 247 H 27.2873 -4.84825 -4.2994 0
M  V30 248 N 20.6934 1.19889 -1.02296 0
M  V30 249 C 22.1094 1.41462 -0.738954 0
M  V30 250 C 22.3094 1.89721 0.678846 0
M  V30 251 O 21.3654 2.07016 1.4457 0
M  V30 252 C 22.6784 2.43083 -1.77005 0
M  V30 253 C 24.2264 2.5684 -1.78892 0
M  V30 254 C 24.7014 3.61709 -2.80945 0
M  V30 255 N 26.1924 3.69199 -2.79725 0
M  V30 256 C 26.9274 4.50019 -3.55345 0
M  V30 257 N 26.4234 5.34592 -4.40662 0
M  V30 258 N 28.2164 4.44612 -3.43914 0
M  V30 259 H 20.3674 0.868827 -1.93817 0
M  V30 260 H 22.6304 0.44399 -0.837602 0
M  V30 261 H 22.3364 2.14636 -2.78612 0
M  V30 262 H 22.2104 3.4217 -1.58744 0
M  V30 263 H 24.5974 2.84614 -0.779674 0
M  V30 264 H 24.6784 1.57927 -2.01228 0
M  V30 265 H 24.3224 3.34678 -3.82038 0
M  V30 266 H 24.2524 4.60259 -2.5587 0
M  V30 267 H 26.7434 3.08794 -2.17842 0
M  V30 268 H 27.0564 5.93363 -4.95116 0
M  V30 269 H 25.4014 5.34073 -4.44737 0
M  V30 270 H 28.5924 3.7758 -2.76679 0
M  V30 271 H 28.7654 5.0736 -4.031 0
M  V30 272 N 22.1715 0.800033 1.35784 0
M  V30 273 C 23.1185 0.203848 2.29898 0
M  V30 274 C 24.0885 -0.658375 1.52495 0
M  V30 275 O 25.2735 -0.604832 1.8096 0
M  V30 276 C 22.4135 -0.64688 3.38983 0
M  V30 277 C 21.5265 0.235054 4.3136 0
M  V30 278 C 20.6615 -0.623054 5.27533 0
M  V30 279 C 19.7005 0.259682 6.11549 0
M  V30 280 N 18.8375 -0.558019 6.99879 0
M  V30 281 H 23.6775 1.01186 2.80295 0
M  V30 282 H 21.2145 0.51053 1.37957 0
M  V30 283 H 23.1725 -1.15521 4.00887 0
M  V30 284 H 21.8025 -1.42021 2.89879 0
M  V30 285 H 20.8545 0.861438 3.70518 0
M  V30 286 H 22.1665 0.914768 4.9034 0
M  V30 287 H 21.3205 -1.19678 5.94779 0
M  V30 288 H 20.0595 -1.33636 4.69034 0
M  V30 289 H 19.0645 0.845726 5.43256 0
M  V30 290 H 20.2895 0.970748 6.72126 0
M  V30 291 H 18.2355 -1.25542 6.43875 0
M  V30 292 H 18.1525 0.0637872 7.55973 0
M  V30 293 H 19.4205 -1.11523 7.71481 0
M  V30 294 N 23.6496 -1.47581 0.552962 0
M  V30 295 C 24.5596 -2.33743 -0.200353 0
M  V30 296 C 25.5756 -1.47928 -0.916151 0
M  V30 297 O 26.7516 -1.80865 -0.885993 0
M  V30 298 C 23.8166 -3.24536 -1.21973 0
M  V30 299 C 22.8776 -4.26238 -0.511819 0
M  V30 300 C 22.1106 -5.12693 -1.48263 0
M  V30 301 O 22.3336 -5.01525 -2.71714 0
M  V30 302 O 21.2676 -5.93375 -1.00945 0
M  V30 303 H 25.0936 -2.9945 0.506304 0
M  V30 304 H 22.6786 -1.46071 0.313622 0
M  V30 305 H 24.5606 -3.80631 -1.80827 0
M  V30 306 H 23.2356 -2.61462 -1.90839 0
M  V30 307 H 22.1426 -3.73914 0.117799 0
M  V30 308 H 23.4756 -4.92014 0.135308 0
M  V30 309 N 25.1277 -0.289203 -1.54924 0
M  V30 310 C 26.5387 0.205791 -1.85562 0
M  V30 311 C 26.8897 1.54351 -1.2112 0
M  V30 312 O 26.0147 2.10435 -0.504601 0
M  V30 313 C 26.6097 0.380177 -3.3666 0
M  V30 314 C 25.1687 0.819395 -3.67373 0
M  V30 315 C 24.3157 -0.079159 -2.77187 0
M  V30 316 H 27.2667 -0.510577 -1.50262 0
M  V30 317 H 27.2877 1.21659 -3.60526 0
M  V30 318 H 26.7997 -0.593589 -3.83534 0
M  V30 319 H 24.9007 1.80413 -3.26009 0
M  V30 320 H 25.0137 0.646957 -4.74712 0
M  V30 321 H 23.3777 0.439565 -2.50878 0
M  V30 322 H 24.1607 -1.04906 -3.26878 0
M  V30 323 N 26.6058 1.57591 -0.0167156 0
M  V30 324 C 27.5528 2.09462 0.969251 0
M  V30 325 C 28.5228 0.99381 1.33089 0
M  V30 326 O 29.7078 1.26726 1.42636 0
M  V30 327 C 26.8478 2.61622 2.25051 0
M  V30 328 C 25.9608 3.85666 1.94642 0
M  V30 329 C 25.0958 4.26266 3.16972 0
M  V30 330 C 24.1348 5.43101 2.82326 0
M  V30 331 N 23.2718 5.78915 3.97243 0
M  V30 332 H 28.1118 2.93428 0.519997 0
M  V30 333 H 25.6488 1.45044 0.245087 0
M  V30 334 H 27.6068 2.89949 2.99976 0
M  V30 335 H 26.2368 1.80505 2.67615 0
M  V30 336 H 25.2888 3.64145 1.10013 0
M  V30 337 H 26.6008 4.70678 1.65117 0
M  V30 338 H 25.7548 4.55963 4.00228 0
M  V30 339 H 24.4938 3.39996 3.49648 0
M  V30 340 H 23.4988 5.1311 1.97479 0
M  V30 341 H 24.7238 6.3106 2.50879 0
M  V30 342 H 22.6698 4.95602 4.29785 0
M  V30 343 H 22.5868 6.58539 3.71299 0
M  V30 344 H 23.8548 6.13212 4.81239 0
M  V30 345 N 28.0839 -0.256276 1.55502 0
M  V30 346 C 29.3089 -1.00766 1.81276 0
M  V30 347 C 29.7339 -1.78524 0.59252 0
M  V30 348 O 29.0919 -1.75413 -0.45827 0
M  V30 349 C 29.1399 -1.92869 3.04687 0
M  V30 350 O 28.2439 -3.019 2.80945 0
M  V30 351 H 27.5849 -0.287224 0.598664 0
M  V30 352 H 30.1149 -0.280109 2.02674 0
M  V30 353 H 30.1249 -2.34511 3.33869 0
M  V30 354 H 28.7999 -1.35689 3.93143 0
M  V30 355 H 27.3769 -2.64454 2.62904 0
M  V30 356 N 29.562 -1.4872 -0.521534 0
M  V30 357 C 30.494 -1.59968 -1.64143 0
M  V30 358 C 31.507 -0.483463 -1.55456 0
M  V30 359 O 32.696 -0.75467 -1.61762 0
M  V30 360 C 29.796 -1.52127 -3.02838 0
M  V30 361 C 28.969 -2.78932 -3.36921 0
M  V30 362 C 28.028 -2.64428 -4.54933 0
M  V30 363 O 27.054 -3.38331 -4.57735 0
M  V30 364 N 28.256 -1.74606 -5.53618 0
M  V30 365 H 31.021 -2.56548 -1.54929 0
M  V30 366 H 28.582 -1.45551 -0.708988 0
M  V30 367 H 30.574 -1.40106 -3.79674 0
M  V30 368 H 29.144 -0.634868 -3.06085 0
M  V30 369 H 28.364 -3.05455 -2.4918 0
M  V30 370 H 29.652 -3.63041 -3.56481 0
M  V30 371 H 29.05 -1.13782 -5.54139 0
M  V30 372 H 27.607 -1.6852 -6.29638 0
M  V30 373 N 31.0401 0.771051 -1.3745 0
M  V30 374 C 32.3171 1.519 -1.23231 0
M  V30 375 C 32.6971 2.10383 0.173809 0
M  V30 376 O 32.0451 1.95583 1.18151 0
M  V30 377 C 32.2551 2.59933 -2.32886 0
M  V30 378 C 33.6031 3.27316 -2.70461 0
M  V30 379 O 34.6271 2.70228 -2.32068 0
M  V30 380 O 33.4861 4.30531 -3.36608 0
M  V30 381 H 30.5801 0.672803 -0.480901 0
M  V30 382 H 33.1261 0.807957 -1.49232 0
M  V30 383 H 31.8981 2.14842 -3.27045 0
M  V30 384 H 31.5211 3.38637 -2.08353 0
M  V30 385 N 32.5182 1.22032 0.997298 0
M  V30 386 C 33.7672 1.03637 1.73038 0
M  V30 387 C 34.0802 -0.429475 1.90827 0
M  V30 388 O 35.2862 -0.732995 2.61418 0
M  V30 389 C 33.7422 1.80582 3.11317 0
M  V30 390 C 33.3502 3.31387 3.01474 0
M  V30 391 C 35.0942 1.70621 3.88701 0
M  V30 392 C 33.0012 4.00791 4.3488 0
M  V30 393 H 31.9312 0.384179 0.648785 0
M  V30 394 H 34.5822 1.4584 1.11368 0
M  V30 395 H 32.9642 1.31175 3.73643 0
M  V30 396 H 34.1382 3.88155 2.4834 0
M  V30 397 H 32.4532 3.41976 2.37575 0
M  V30 398 H 35.0502 2.19799 4.87434 0
M  V30 399 H 35.3932 0.665823 4.10941 0
M  V30 400 H 35.9262 2.17547 3.33044 0
M  V30 401 H 32.6652 5.05064 4.1784 0
M  V30 402 H 32.1852 3.48811 4.87945 0
M  V30 403 H 33.8642 4.06139 5.03647 0
M  V30 404 N 33.9963 -1.19345 1.0293 0
M  V30 405 C 35.2263 -1.92717 0.744563 0
M  V30 406 C 35.6343 -1.75751 -0.700579 0
M  V30 407 O 34.9773 -1.07703 -1.48815 0
M  V30 408 C 35.0393 -3.44828 1.01657 0
M  V30 409 C 34.7033 -3.85564 2.45335 0
M  V30 410 C 35.7003 -3.90286 3.43472 0
M  V30 411 C 33.3853 -4.1719 2.79746 0
M  V30 412 C 35.3793 -4.26065 4.74075 0
M  V30 413 C 33.0663 -4.52642 4.10559 0
M  V30 414 C 34.0643 -4.57054 5.07534 0
M  V30 415 O 33.7523 -4.91685 6.36004 0
M  V30 416 H 33.4843 -0.618977 0.271742 0
M  V30 417 H 36.0383 -1.52415 1.37691 0
M  V30 418 H 34.2683 -3.85314 0.327084 0
M  V30 419 H 35.9573 -3.99437 0.721427 0
M  V30 420 H 36.7233 -3.66002 3.18225 0
M  V30 421 H 32.6023 -4.1294 2.04943 0
M  V30 422 H 36.1463 -4.29423 5.49765 0
M  V30 423 H 32.0433 -4.76383 4.35579 0
M  V30 424 H 32.8113 -5.09631 6.40483 0
M  V30 425 N 35.4744 -0.807222 -1.35358 0
M  V30 426 C 36.4044 -0.232509 -2.3234 0
M  V30 427 C 37.3854 0.642386 -1.57504 0
M  V30 428 O 38.5704 0.572526 -1.85569 0
M  V30 429 C 35.7004 0.619238 -3.41735 0
M  V30 430 C 34.6544 -0.157215 -4.27711 0
M  V30 431 C 33.9804 0.816273 -5.28433 0
M  V30 432 C 35.2804 -1.35656 -5.04376 0
M  V30 433 H 36.9744 -1.04276 -2.80654 0
M  V30 434 H 34.5204 -0.50288 -1.34934 0
M  V30 435 H 36.4734 1.03137 -4.08584 0
M  V30 436 H 35.1974 1.46239 -2.92031 0
M  V30 437 H 33.8564 -0.550525 -3.62443 0
M  V30 438 H 33.5044 1.65494 -4.74996 0
M  V30 439 H 33.2044 0.301067 -5.86828 0
M  V30 440 H 34.7284 1.22659 -5.98153 0
M  V30 441 H 36.1424 -1.01927 -5.64166 0
M  V30 442 H 34.5394 -1.8063 -5.7227 0
M  V30 443 H 35.6094 -2.14288 -4.34981 0
M  V30 444 N 36.9525 1.47285 -0.560781 0
M  V30 445 C 38.3685 1.58065 -0.22081 0
M  V30 446 C 38.5685 1.55892 1.27671 0
M  V30 447 O 37.6245 1.46422 2.0571 0
M  V30 448 C 38.9375 2.88418 -0.850625 0
M  V30 449 C 40.4855 3.02009 -0.822184 0
M  V30 450 C 40.9605 4.35066 -1.43113 0
M  V30 451 N 42.4515 4.41711 -1.39448 0
M  V30 452 C 43.1865 5.43237 -1.83525 0
M  V30 453 N 42.6825 6.51555 -2.35474 0
M  V30 454 N 44.4755 5.34304 -1.74574 0
M  V30 455 H 36.6265 1.46941 -1.53369 0
M  V30 456 H 38.8895 0.699558 -0.639783 0
M  V30 457 H 38.5955 2.95755 -1.9032 0
M  V30 458 H 38.4695 3.75612 -0.345773 0
M  V30 459 H 40.8565 2.94266 0.221714 0
M  V30 460 H 40.9375 2.16347 -1.36483 0
M  V30 461 H 40.5815 4.43565 -2.47412 0
M  V30 462 H 40.5115 5.19465 -0.863899 0
M  V30 463 H 43.0025 3.64027 -1.01452 0
M  V30 464 H 43.3155 7.25203 -2.67021 0
M  V30 465 H 41.6605 6.52435 -2.39487 0
M  V30 466 H 44.8515 4.48581 -1.33763 0
M  V30 467 H 45.0245 6.13288 -2.09242 0
M  V30 468 N 38.4306 0.297415 1.54768 0
M  V30 469 C 39.3606 -0.573494 2.26348 0
M  V30 470 C 40.3416 -1.14085 1.26169 0
M  V30 471 O 41.5266 -1.17086 1.54934 0
M  V30 472 C 38.6566 -1.74716 3.00153 0
M  V30 473 C 37.6106 -1.31032 4.07449 0
M  V30 474 C 36.9366 -2.56887 4.68949 0
M  V30 475 C 38.2366 -0.444183 5.20408 0
M  V30 476 H 39.9306 0.0235131 2.99391 0
M  V30 477 H 37.4766 0.0127488 1.43994 0
M  V30 478 H 39.4296 -2.3625 3.48947 0
M  V30 479 H 38.1536 -2.37035 2.24682 0
M  V30 480 H 36.8126 -0.718066 3.59499 0
M  V30 481 H 36.4606 -3.17512 3.90122 0
M  V30 482 H 36.1606 -2.2836 5.41411 0
M  V30 483 H 37.6846 -3.19229 5.20505 0
M  V30 484 H 39.0986 -0.9651 5.65118 0
M  V30 485 H 37.4956 -0.252846 5.99567 0
M  V30 486 H 38.5656 0.531609 4.81977 0
M  V30 487 N 39.9087 -1.5758 0.0250728 0
M  V30 488 C 40.8387 -2.13007 -0.956575 0
M  V30 489 C 41.8197 -1.0452 -1.342 0
M  V30 490 O 43.0047 -1.32332 -1.42133 0
M  V30 491 C 40.1347 -2.65386 -2.24026 0
M  V30 492 C 39.0887 -3.78623 -1.99571 0
M  V30 493 C 38.4147 -4.17414 -3.3417 0
M  V30 494 C 39.7147 -5.04867 -1.33814 0
M  V30 495 H 41.4087 -2.9528 -0.494991 0
M  V30 496 H 38.9547 -1.42042 -0.236651 0
M  V30 497 H 40.9077 -3.02794 -2.93076 0
M  V30 498 H 39.6317 -1.80268 -2.72343 0
M  V30 499 H 38.2907 -3.41646 -1.32941 0
M  V30 500 H 37.9387 -3.29284 -3.80238 0
M  V30 501 H 37.6387 -4.93719 -3.18615 0
M  V30 502 H 39.1627 -4.57402 -4.04495 0
M  V30 503 H 40.5767 -5.39888 -1.92857 0
M  V30 504 H 38.9737 -5.86144 -1.28669 0
M  V30 505 H 40.0437 -4.83904 -0.310561 0
M  V30 506 N 41.3868 0.248026 -1.55636 0
M  V30 507 C 42.6328 0.97767 -1.77678 0
M  V30 508 C 42.9658 1.85016 -0.590135 0
M  V30 509 O 42.2408 1.90095 0.411611 0
M  V30 510 C 42.5238 1.83914 -3.09593 0
M  V30 511 C 42.3768 0.99491 -4.38659 0
M  V30 512 C 43.6958 2.82183 -3.37729 0
M  V30 513 H 40.8148 0.354005 -0.646413 0
M  V30 514 H 43.4568 0.248253 -1.88371 0
M  V30 515 H 41.6068 2.46104 -3.00608 0
M  V30 516 H 43.2788 0.391789 -4.59633 0
M  V30 517 H 41.5218 0.299231 -4.32767 0
M  V30 518 H 42.1928 1.63145 -5.2734 0
M  V30 519 H 44.6688 2.30129 -3.4667 0
M  V30 520 H 43.5448 3.39582 -4.31249 0
M  V30 521 H 43.8058 3.58588 -2.58586 0
M  V30 522 N 42.8649 1.48995 0.513639 0
M  V30 523 C 43.8119 1.6473 1.61656 0
M  V30 524 C 44.7819 0.488984 1.58739 0
M  V30 525 O 45.9669 0.714478 1.76918 0
M  V30 526 C 43.1069 1.7082 2.99858 0
M  V30 527 C 42.2199 2.9787 3.12885 0
M  V30 528 C 41.3549 2.95017 4.41744 0
M  V30 529 C 40.3939 4.16702 4.48359 0
M  V30 530 N 39.5309 4.11832 5.68629 0
M  V30 531 H 44.3709 2.58909 1.47547 0
M  V30 532 H 41.9079 1.28382 0.71808 0
M  V30 533 H 43.8659 1.72331 3.79944 0
M  V30 534 H 42.4959 0.801181 3.12699 0
M  V30 535 H 41.5479 3.06029 2.25944 0
M  V30 536 H 42.8599 3.8786 3.13633 0
M  V30 537 H 42.0139 2.95021 5.30139 0
M  V30 538 H 40.7529 2.02784 4.43542 0
M  V30 539 H 39.7579 4.16955 3.58369 0
M  V30 540 H 40.9829 5.10113 4.48287 0
M  V30 541 H 38.9289 3.22428 5.71293 0
M  V30 542 H 38.8459 4.95543 5.7094 0
M  V30 543 H 40.1139 4.1592 6.59266 0
M  V30 544 N 44.343 -0.763751 1.37857 0
M  V30 545 C 45.273 -1.89103 1.36975 0
M  V30 546 C 46.254 -1.68439 0.237152 0
M  V30 547 O 47.439 -1.8918 0.438713 0
M  V30 548 C 44.569 -3.26496 1.18395 0
M  V30 549 C 43.523 -3.61741 2.28751 0
M  V30 550 C 42.849 -4.97762 1.95286 0
M  V30 551 C 44.149 -3.67665 3.70972 0
M  V30 552 H 45.843 -1.90099 2.31307 0
M  V30 553 H 43.389 -0.91319 1.11341 0
M  V30 554 H 45.342 -4.05003 1.16406 0
M  V30 555 H 44.066 -3.25955 0.205215 0
M  V30 556 H 42.725 -2.85547 2.29909 0
M  V30 557 H 42.373 -4.93769 0.959221 0
M  V30 558 H 42.073 -5.22313 2.69189 0
M  V30 559 H 43.597 -5.7866 1.94898 0
M  V30 560 H 45.011 -4.36307 3.719 0
M  V30 561 H 43.408 -4.03718 4.43995 0
M  V30 562 H 44.478 -2.68134 4.0402 0
M  V30 563 N 45.8211 -1.22559 -0.990812 0
M  V30 564 C 47.0511 -1.07623 -1.76355 0
M  V30 565 C 47.4591 0.37601 -1.85426 0
M  V30 566 O 46.8021 1.27228 -1.32509 0
M  V30 567 C 46.8641 -1.61507 -3.21179 0
M  V30 568 C 46.5281 -3.10146 -3.35646 0
M  V30 569 C 47.5251 -4.07553 -3.22796 0
M  V30 570 C 45.2101 -3.49644 -3.60631 0
M  V30 571 C 47.2041 -5.42442 -3.34716 0
M  V30 572 C 44.8911 -4.84682 -3.72192 0
M  V30 573 C 45.8891 -5.8089 -3.59243 0
M  V30 574 O 45.5771 -7.13476 -3.70415 0
M  V30 575 H 45.3091 -0.377745 -0.560611 0
M  V30 576 H 47.8631 -1.62658 -1.25425 0
M  V30 577 H 46.0931 -1.00881 -3.73309 0
M  V30 578 H 47.7821 -1.42202 -3.80175 0
M  V30 579 H 48.5481 -3.78381 -3.03403 0
M  V30 580 H 44.4271 -2.75282 -3.69785 0
M  V30 581 H 47.9711 -6.17518 -3.24526 0
M  V30 582 H 43.8681 -5.13534 -3.91092 0
M  V30 583 H 44.6361 -7.21083 -3.87275 0
M  V30 584 N 47.2992 1.18797 -1.03562 0
M  V30 585 C 48.7152 1.40671 -0.753917 0
M  V30 586 C 48.9152 1.9043 0.658686 0
M  V30 587 O 47.9712 2.08538 1.42366 0
M  V30 588 C 49.2842 2.41192 -1.79574 0
M  V30 589 C 50.8322 2.54928 -1.81606 0
M  V30 590 C 51.3072 3.58709 -2.84766 0
M  V30 591 N 52.7982 3.66212 -2.83625 0
M  V30 592 C 53.5332 4.46225 -3.60098 0
M  V30 593 N 53.0292 5.29888 -4.46308 0
M  V30 594 N 54.8222 4.40939 -3.4861 0
M  V30 595 H 46.9732 0.848221 -1.94728 0
M  V30 596 H 49.2362 0.435081 -0.842264 0
M  V30 597 H 48.9422 2.11669 -2.80872 0
M  V30 598 H 48.8162 3.40467 -1.62365 0
M  V30 599 H 51.2032 2.83771 -0.809817 0
M  V30 600 H 51.2842 1.55784 -2.02891 0
M  V30 601 H 50.9282 3.30607 -3.85566 0
M  V30 602 H 50.8582 4.57519 -2.60737 0
M  V30 603 H 53.3492 3.06466 -2.21105 0
M  V30 604 H 53.6622 5.88078 -5.01382 0
M  V30 605 H 52.0072 5.29326 -4.50377 0
M  V30 606 H 55.1982 3.74624 -2.80668 0
M  V30 607 H 55.3712 5.03056 -4.08459 0
M  V30 608 N 48.7773 0.814389 1.34928 0
M  V30 609 C 50.0243 0.398423 1.98542 0
M  V30 610 C 50.3523 -1.03638 1.64589 0
M  V30 611 O 49.6073 -1.73509 0.90516 0
M  V30 612 C 49.9063 0.537781 3.53331 0
M  V30 613 C 49.5723 1.93704 4.07172 0
M  V30 614 C 48.2343 2.31984 4.21589 0
M  V30 615 C 50.5863 2.85213 4.36237 0
M  V30 616 C 47.9143 3.61125 4.62391 0
M  V30 617 C 50.2663 4.13809 4.78482 0
M  V30 618 C 48.9303 4.52077 4.91104 0
M  V30 619 H 48.2003 0.145793 0.726516 0
M  V30 620 H 50.8473 1.03669 1.61012 0
M  V30 621 H 49.1523 -0.183906 3.91368 0
M  V30 622 H 50.8493 0.196588 4.00518 0
M  V30 623 H 47.4393 1.62966 3.96409 0
M  V30 624 H 51.6233 2.56885 4.24645 0
M  V30 625 H 46.8793 3.90612 4.70353 0
M  V30 626 H 51.0533 4.84811 4.99932 0
M  V30 627 H 48.6803 5.52196 5.22478 0
M  V30 628 N 50.2554 -1.46986 0.568584 0
M  V30 629 C 51.1854 -2.32946 -0.160753 0
M  V30 630 C 52.1664 -1.44487 -0.897631 0
M  V30 631 O 53.3514 -1.73327 -0.875867 0
M  V30 632 C 50.4814 -3.26494 -1.18403 0
M  V30 633 C 49.4354 -4.24282 -0.562895 0
M  V30 634 C 48.7614 -5.07236 -1.69163 0
M  V30 635 C 50.0614 -5.19989 0.490761 0
M  V30 636 H 51.7554 -2.94175 0.556916 0
M  V30 637 H 49.3014 -1.4146 0.26927 0
M  V30 638 H 51.2544 -3.85477 -1.70251 0
M  V30 639 H 49.9784 -2.63343 -1.93179 0
M  V30 640 H 48.6374 -3.66541 -0.0656164 0
M  V30 641 H 48.2854 -4.4048 -2.42871 0
M  V30 642 H 47.9854 -5.7345 -1.28174 0
M  V30 643 H 49.5094 -5.6908 -2.21314 0
M  V30 644 H 50.9234 -5.73271 0.0579047 0
M  V30 645 H 49.3204 -5.94469 0.820165 0
M  V30 646 H 50.3904 -4.64777 1.3824 0
M  V30 647 N 51.7335 -0.305618 -1.54608 0
M  V30 648 C 52.6965 0.555591 -2.22364 0
M  V30 649 C 53.6965 1.05768 -1.21119 0
M  V30 650 O 54.8865 0.952972 -1.45822 0
M  V30 651 C 52.0185 1.76974 -2.91364 0
M  V30 652 H 53.2115 -0.0364572 -2.99878 0
M  V30 653 H 50.7645 -0.0565007 -1.56198 0
M  V30 654 H 51.4995 2.40151 -2.17941 0
M  V30 655 H 51.2845 1.41732 -3.65588 0
M  V30 656 H 52.7745 2.38148 -3.43038 0
M  V30 657 N 53.2116 1.57565 -0.0334293 0
M  V30 658 C 54.6276 1.56297 0.322997 0
M  V30 659 C 54.8276 1.03945 1.7262 0
M  V30 660 O 53.8836 0.688109 2.42943 0
M  V30 661 C 55.1966 3.00232 0.167664 0
M  V30 662 C 56.7446 3.12078 0.240107 0
M  V30 663 C 57.2196 4.57859 0.113513 0
M  V30 664 N 58.7106 4.62887 0.170359 0
M  V30 665 C 59.4456 5.73319 0.0962517 0
M  V30 666 N 58.9416 6.92794 -0.0291881 0
M  V30 667 N 60.7346 5.61898 0.150551 0
M  V30 668 H 52.8856 1.89923 -0.950956 0
M  V30 669 H 55.1486 0.873824 -0.367608 0
M  V30 670 H 54.8546 3.42501 -0.799102 0
M  V30 671 H 54.7286 3.654 0.936083 0
M  V30 672 H 57.1156 2.69718 1.19733 0
M  V30 673 H 57.1966 2.49623 -0.558763 0
M  V30 674 H 56.8406 5.009 -0.840314 0
M  V30 675 H 56.7706 5.18299 0.931302 0
M  V30 676 H 59.2616 3.76954 0.26728 0
M  V30 677 H 59.5746 7.7276 -0.0789252 0
M  V30 678 H 57.9196 6.94971 -0.0640299 0
M  V30 679 H 61.1106 4.67448 0.246981 0
M  V30 680 H 61.2836 6.47938 0.0893365 0
M  V30 681 N 54.6897 -0.239769 1.55765 0
M  V30 682 C 56.1057 -0.588624 1.48349 0
M  V30 683 C 56.3057 -1.88005 0.72502 0
M  V30 684 O 55.3617 -2.51186 0.257269 0
M  V30 685 C 56.6747 -0.68474 2.928 0
M  V30 686 C 58.2227 -0.77659 3.03213 0
M  V30 687 C 58.6977 -0.904207 4.48986 0
M  V30 688 N 60.1887 -0.968896 4.52953 0
M  V30 689 C 60.9237 -1.08703 5.63002 0
M  V30 690 N 60.4197 -1.17026 6.82845 0
M  V30 691 N 62.2127 -1.12074 5.50814 0
M  V30 692 H 54.3637 0.607911 2.03515 0
M  V30 693 H 56.6267 0.21083 0.924259 0
M  V30 694 H 56.3327 0.194284 3.51163 0
M  V30 695 H 56.2067 -1.55435 3.43686 0
M  V30 696 H 58.5937 -1.64606 2.44926 0
M  V30 697 H 58.6747 0.118315 2.55526 0
M  V30 698 H 58.3187 -0.0392633 5.07885 0
M  V30 699 H 58.2487 -1.81426 4.9436 0
M  V30 700 H 60.7397 -0.915633 3.6664 0
M  V30 701 H 61.0527 -1.25966 7.62465 0
M  V30 702 H 59.3977 -1.13971 6.85591 0
M  V30 703 H 62.5887 -1.05226 4.5612 0
M  V30 704 H 62.7617 -1.20936 6.36615 0
M  V30 705 N 56.1678 -1.49265 -0.50573 0
M  V30 706 C 57.3958 -1.62215 -1.28429 0
M  V30 707 C 57.8108 -0.291697 -1.86533 0
M  V30 708 O 57.1678 0.722233 -1.67601 0
M  V30 709 C 57.2188 -2.68735 -2.41793 0
M  V30 710 O 56.9398 -3.96619 -1.86078 0
M  V30 711 C 58.4408 -2.92346 -3.3324 0
M  V30 712 H 55.6608 -0.546239 -0.389697 0
M  V30 713 H 58.2048 -1.95265 -0.607609 0
M  V30 714 H 56.3598 -2.38476 -3.053 0
M  V30 715 H 56.7738 -4.55256 -2.60465 0
M  V30 716 H 58.2478 -3.70623 -4.09075 0
M  V30 717 H 58.7248 -2.02081 -3.89948 0
M  V30 718 H 59.3308 -3.24003 -2.75503 0
M  V30 719 N 57.6459 0.756429 -1.3826 0
M  V30 720 C 58.5939 1.89149 -1.35372 0
M  V30 721 C 59.5879 1.67691 -0.24004 0
M  V30 722 O 60.7939 1.75294 -0.408919 0
M  V30 723 H 57.1689 0.622271 -0.422236 0
M  V30 724 H 59.1399 1.88701 -2.31159 0
M  V30 725 C 57.8889 3.26599 -1.19284 0
M  V30 726 H 57.2119 3.43695 -2.0424 0
M  V30 727 H 58.6519 4.06274 -1.21316 0
M  V30 728 C 57.1109 3.3675 0.100454 0
M  V30 729 O 57.6409 3.86951 1.07851 0
M  V30 730 N 55.8469 2.90179 0.15633 0
M  V30 731 H 55.3939 2.49517 -0.640253 0
M  V30 732 H 55.3519 2.97352 1.02123 0
M  V30 733 N 59.124 1.23083 0.984299 0
M  V30 734 C 60.349 1.088 1.76571 0
M  V30 735 C 60.774 -0.356657 1.84688 0
M  V30 736 O 60.132 -1.25788 1.30565 0
M  V30 737 C 60.18 1.71371 3.17277 0
M  V30 738 O 59.284 0.973213 4.00752 0
M  V30 739 H 58.625 0.381599 0.543395 0
M  V30 740 H 61.155 1.63057 1.23587 0
M  V30 741 H 61.165 1.76449 3.67872 0
M  V30 742 H 59.84 2.76493 3.10684 0
M  V30 743 H 58.417 0.999078 3.59267 0
M  V30 744 N 60.6021 -1.18246 1.0419 0
M  V30 745 C 61.8301 -1.92195 0.766072 0
M  V30 746 C 62.2451 -1.76247 -0.676933 0
M  V30 747 O 61.6021 -1.09293 -1.46155 0
M  V30 748 C 61.6531 -3.43568 1.12442 0
M  V30 749 O 61.3741 -3.59015 2.51078 0
M  V30 750 C 62.8751 -4.34613 0.873275 0
M  V30 751 H 60.0951 -0.610114 0.279288 0
M  V30 752 H 62.6391 -1.50007 1.38989 0
M  V30 753 H 60.7941 -3.8354 0.545542 0
M  V30 754 H 61.2081 -4.5273 2.64831 0
M  V30 755 H 62.6821 -5.39374 1.17385 0
M  V30 756 H 63.1591 -4.38781 -0.191909 0
M  V30 757 H 63.7651 -4.00341 1.43551 0
M  V30 758 N 62.0802 -0.821533 -1.34494 0
M  V30 759 C 63.3272 -0.408946 -1.98328 0
M  V30 760 C 63.6552 1.02764 -1.65136 0
M  V30 761 O 62.9102 1.73026 -0.914349 0
M  V30 762 C 63.2092 -0.556512 -3.53041 0
M  V30 763 C 62.8752 -1.95861 -4.0614 0
M  V30 764 C 61.5372 -2.34217 -4.20352 0
M  V30 765 C 63.8892 -2.87523 -4.34718 0
M  V30 766 C 61.2172 -3.63572 -4.6047 0
M  V30 767 C 63.5692 -4.1634 -4.76281 0
M  V30 768 C 62.2332 -4.54675 -4.88699 0
M  V30 769 H 61.5032 -0.149644 -0.725732 0
M  V30 770 H 64.1502 -1.04521 -1.6046 0
M  V30 771 H 62.4552 0.163148 -3.9146 0
M  V30 772 H 64.1522 -0.217826 -4.00408 0
M  V30 773 H 60.7422 -1.65066 -3.95539 0
M  V30 774 H 64.9262 -2.59133 -4.23277 0
M  V30 775 H 60.1822 -3.93101 -4.68275 0
M  V30 776 H 64.3562 -4.87455 -4.97354 0
M  V30 777 H 61.9832 -5.54959 -5.19542 0
M  V30 778 N 63.5583 1.46682 -0.576371 0
M  V30 779 C 64.5063 2.31953 0.17335 0
M  V30 780 C 65.5003 1.44098 0.89062 0
M  V30 781 O 66.7063 1.60759 0.809728 0
M  V30 782 H 63.0813 0.748273 0.0747727 0
M  V30 783 H 65.0523 2.93007 -0.564738 0
M  V30 784 C 63.8013 3.27142 1.17786 0
M  V30 785 H 63.1243 3.94719 0.635361 0
M  V30 786 H 64.5643 3.896 1.67296 0
M  V30 787 C 63.0233 2.52036 2.23561 0
M  V30 788 O 63.5533 2.27877 3.3081 0
M  V30 789 N 61.7593 2.12709 1.97998 0
M  V30 790 H 61.3063 2.32557 1.10792 0
M  V30 791 H 61.2643 1.62776 2.68982 0
M  V30 792 N 65.0364 0.313813 1.54444 0
M  V30 793 C 65.9684 -0.590425 2.21465 0
M  V30 794 C 66.9814 -1.08753 1.21147 0
M  V30 795 O 68.1704 -1.00278 1.4767 0
M  V30 796 C 65.2704 -1.82179 2.85769 0
M  V30 797 C 64.4434 -1.46502 4.12136 0
M  V30 798 C 63.5024 -2.55288 4.60124 0
M  V30 799 O 62.5284 -2.19842 5.25032 0
M  V30 800 N 63.7304 -3.86053 4.33525 0
M  V30 801 H 66.4954 -0.0166033 2.99695 0
M  V30 802 H 64.0564 0.136578 1.61323 0
M  V30 803 H 66.0484 -2.54328 3.14801 0
M  V30 804 H 64.6184 -2.30369 2.11303 0
M  V30 805 H 63.8384 -0.575595 3.89975 0
M  V30 806 H 65.1264 -1.20221 4.94393 0
M  V30 807 H 64.5244 -4.17654 3.81552 0
M  V30 808 H 63.0814 -4.54461 4.67235 0
M  V30 809 N 66.5145 -1.57545 0.0417849 0
M  V30 810 C 67.7605 -1.92601 -0.635021 0
M  V30 811 C 68.0935 -0.919627 -1.71045 0
M  V30 812 O 67.3685 0.0557892 -1.9442 0
M  V30 813 C 67.6515 -3.38085 -1.23979 0
M  V30 814 C 67.5045 -4.49467 -0.173057 0
M  V30 815 C 68.8235 -3.83776 -2.15416 0
M  V30 816 H 65.9425 -0.700397 -0.229374 0
M  V30 817 H 68.5845 -1.89728 0.101633 0
M  V30 818 H 66.7345 -3.40664 -1.86762 0
M  V30 819 H 68.4065 -4.59018 0.458312 0
M  V30 820 H 66.6495 -4.30909 0.499996 0
M  V30 821 H 67.3205 -5.48323 -0.636054 0
M  V30 822 H 69.7965 -3.83013 -1.62605 0
M  V30 823 H 68.6725 -4.8624 -2.54679 0
M  V30 824 H 68.9335 -3.19998 -3.05047 0
M  V30 825 N 67.9926 0.231505 -1.5589 0
M  V30 826 C 69.2386 0.95877 -1.78705 0
M  V30 827 C 69.5716 1.8438 -0.609725 0
M  V30 828 O 68.8466 1.90521 0.391426 0
M  V30 829 C 69.1296 1.8062 -3.11526 0
M  V30 830 C 68.9826 0.948328 -4.39689 0
M  V30 831 C 70.3016 2.78585 -3.40703 0
M  V30 832 H 67.4206 0.347129 -0.650131 0
M  V30 833 H 70.0626 0.228259 -1.88624 0
M  V30 834 H 68.2126 2.42902 -3.03201 0
M  V30 835 H 69.8846 0.343016 -4.60023 0
M  V30 836 H 68.1276 0.253314 -4.3306 0
M  V30 837 H 68.7986 1.57543 -5.29041 0
M  V30 838 H 71.2746 2.26439 -3.49091 0
M  V30 839 H 70.1506 3.34988 -4.34826 0
M  V30 840 H 70.4116 3.55825 -2.62375 0
M  V30 841 N 69.4707 1.49531 0.497807 0
M  V30 842 C 70.4007 1.6935 1.60757 0
M  V30 843 C 71.3817 0.542218 1.61227 0
M  V30 844 O 72.5667 0.778417 1.77917 0
M  V30 845 C 69.6967 1.76298 2.99226 0
M  V30 846 C 68.6507 2.91248 3.13622 0
M  V30 847 C 67.9767 2.83312 4.53474 0
M  V30 848 C 69.2767 4.3214 2.93346 0
M  V30 849 H 70.9707 2.62263 1.44425 0
M  V30 850 H 68.5167 1.26208 0.693367 0
M  V30 851 H 70.4697 1.88749 3.76765 0
M  V30 852 H 69.1937 0.799871 3.16654 0
M  V30 853 H 67.8527 2.78404 2.38509 0
M  V30 854 H 67.5007 1.84902 4.67782 0
M  V30 855 H 67.2007 3.60465 4.64046 0
M  V30 856 H 68.7247 2.97775 5.33069 0
M  V30 857 H 70.1387 4.45649 3.60652 0
M  V30 858 H 68.5357 5.1054 3.15387 0
M  V30 859 H 69.6057 4.46363 1.89441 0
M  V30 860 N 70.9488 -0.749086 1.3866 0
M  V30 861 C 71.8958 -1.86291 1.36251 0
M  V30 862 C 72.8658 -1.64578 0.224347 0
M  V30 863 O 74.0508 -1.86181 0.417279 0
M  V30 864 C 71.1908 -3.23644 1.19786 0
M  V30 865 C 70.3038 -3.57158 2.43027 0
M  V30 866 C 69.4388 -4.83838 2.19258 0
M  V30 867 C 68.4778 -5.10152 3.38247 0
M  V30 868 N 67.6148 -6.28029 3.13884 0
M  V30 869 H 72.4548 -1.87685 2.3147 0
M  V30 870 H 69.9918 -0.917287 1.14997 0
M  V30 871 H 71.9498 -4.0291 1.08254 0
M  V30 872 H 70.5798 -3.21566 0.282031 0
M  V30 873 H 69.6318 -2.72701 2.65214 0
M  V30 874 H 70.9438 -3.7253 3.31697 0
M  V30 875 H 70.0978 -5.71057 2.04888 0
M  V30 876 H 68.8368 -4.70614 1.2796 0
M  V30 877 H 67.8418 -4.21401 3.53131 0
M  V30 878 H 69.0668 -5.25271 4.30427 0
M  V30 879 H 67.0128 -6.1612 2.25238 0
M  V30 880 H 66.9298 -6.43922 3.96106 0
M  V30 881 H 68.1978 -7.18124 3.03179 0
M  V30 882 N 72.4269 -1.23603 -0.977757 0
M  V30 883 C 73.8429 -0.999251 -1.24447 0
M  V30 884 C 74.0429 0.298053 -1.99283 0
M  V30 885 O 73.0989 1.01681 -2.31122 0
M  V30 886 C 74.4119 -2.20784 -2.04144 0
M  V30 887 C 75.9599 -2.25303 -2.17273 0
M  V30 888 C 76.4349 -3.45755 -3.00362 0
M  V30 889 N 77.9259 -3.4601 -3.07947 0
M  V30 890 C 78.6609 -4.35868 -3.72568 0
M  V30 891 N 78.1569 -5.35966 -4.38991 0
M  V30 892 N 79.9499 -4.23605 -3.6948 0
M  V30 893 H 72.1009 -2.06986 -0.476483 0
M  V30 894 H 74.3639 -0.907801 -0.273134 0
M  V30 895 H 74.0699 -3.14945 -1.56533 0
M  V30 896 H 73.9439 -2.22085 -3.04891 0
M  V30 897 H 76.3309 -1.3168 -2.64092 0
M  V30 898 H 76.4119 -2.28033 -1.15907 0
M  V30 899 H 76.0559 -4.39687 -2.5424 0
M  V30 900 H 75.9859 -3.40266 -4.01904 0
M  V30 901 H 78.4769 -2.73588 -2.60688 0
M  V30 902 H 78.7899 -6.00783 -4.86086 0
M  V30 903 H 77.1349 -5.39863 -4.37691 0
M  V30 904 H 80.3259 -3.44647 -3.16759 0
M  V30 905 H 80.4989 -4.93836 -4.1956 0
M  V30 906 N 73.905 1.17692 -1.04816 0
M  V30 907 C 74.835 2.23777 -0.666791 0
M  V30 908 C 75.816 1.66796 0.33361 0
M  V30 909 O 77.001 1.93039 0.212042 0
M  V30 910 C 74.131 3.47281 -0.0367933 0
M  V30 911 C 73.085 4.17059 -0.961546 0
M  V30 912 C 72.411 5.34342 -0.195626 0
M  V30 913 C 73.711 4.69713 -2.28402 0
M  V30 914 H 75.405 2.55933 -1.55367 0
M  V30 915 H 72.951 1.23019 -0.748484 0
M  V30 916 H 74.904 4.20706 0.241775 0
M  V30 917 H 73.628 3.14381 0.885004 0
M  V30 918 H 72.287 3.45541 -1.22462 0
M  V30 919 H 71.935 4.97692 0.728816 0
M  V30 920 H 71.635 5.81966 -0.811775 0
M  V30 921 H 73.159 6.10553 0.0757473 0
M  V30 922 H 74.573 5.34794 -2.06563 0
M  V30 923 H 72.97 5.279 -2.8538 0
M  V30 924 H 74.04 3.86726 -2.92525 0
M  V30 925 N 75.3831 0.828654 1.34056 0
M  V30 926 C 76.6301 0.419458 1.98108 0
M  V30 927 C 76.9581 -1.01886 1.65679 0
M  V30 928 O 76.2131 -1.72539 0.923512 0
M  V30 929 C 76.5121 0.575226 3.52741 0
M  V30 930 C 76.1781 1.98012 4.05095 0
M  V30 931 C 74.8401 2.36442 4.19104 0
M  V30 932 C 77.1921 2.89824 4.33188 0
M  V30 933 C 74.5201 3.66009 4.58535 0
M  V30 934 C 76.8721 4.1886 4.74066 0
M  V30 935 C 75.5361 4.5726 4.86281 0
M  V30 936 H 74.8061 0.153491 0.724929 0
M  V30 937 H 77.4531 1.05371 1.59904 0
M  V30 938 H 75.7581 -0.142385 3.91541 0
M  V30 939 H 77.4551 0.239057 4.00287 0
M  V30 940 H 74.0451 1.67162 3.94658 0
M  V30 941 H 78.2291 2.61375 4.21897 0
M  V30 942 H 73.4851 3.95579 4.66184 0
M  V30 943 H 77.6591 4.90086 4.94761 0
M  V30 944 H 75.2861 5.57707 5.16592 0
M  V30 945 N 76.8612 -1.46375 0.584142 0
M  V30 946 C 77.7942 -2.27351 -0.196676 0
M  V30 947 C 78.7722 -1.35715 -0.895561 0
M  V30 948 O 79.9562 -1.65126 -0.90916 0
M  V30 949 C 77.0832 -3.13486 -1.28235 0
M  V30 950 C 76.1292 -4.20896 -0.689145 0
M  V30 951 S 76.9622 -5.33299 0.48507 0
M  V30 952 C 78.1182 -6.23 -0.601767 0
M  V30 953 H 78.3512 -2.93228 0.490395 0
M  V30 954 H 75.8842 -1.49875 0.371071 0
M  V30 955 H 77.8422 -3.63676 -1.90395 0
M  V30 956 H 76.5032 -2.4692 -1.94138 0
M  V30 957 H 75.6962 -4.80997 -1.50527 0
M  V30 958 H 75.2982 -3.73726 -0.143181 0
M  V30 959 H 77.5902 -6.60979 -1.48705 0
M  V30 960 H 78.5332 -7.0809 -0.0374799 0
M  V30 961 H 78.9412 -5.57173 -0.906557 0
M  V30 962 N 78.3393 -0.321999 -1.54275 0
M  V30 963 C 79.5643 0.285791 -2.05422 0
M  V30 964 C 79.9893 1.45124 -1.19669 0
M  V30 965 O 79.3473 1.80132 -0.205441 0
M  V30 966 C 79.3953 0.69956 -3.53749 0
M  V30 967 O 78.4993 1.8021 -3.70942 0
M  V30 968 H 77.8403 0.0518962 -0.661969 0
M  V30 969 H 80.3703 -0.469954 -1.9913 0
M  V30 970 H 80.3803 0.982649 -3.9599 0
M  V30 971 H 79.0553 -0.152864 -4.15619 0
M  V30 972 H 77.6323 1.51794 -3.40607 0
M  V30 973 N 79.8174 1.5752 -0.0501392 0
M  V30 974 C 81.2334 1.56631 0.306402 0
M  V30 975 C 81.4334 1.0577 1.71508 0
M  V30 976 O 80.4894 0.713837 2.422 0
M  V30 977 C 81.8024 3.00393 0.135811 0
M  V30 978 C 83.3504 3.12315 0.206993 0
M  V30 979 C 83.8254 4.57954 0.064944 0
M  V30 980 N 85.3164 4.63041 0.121254 0
M  V30 981 C 86.0514 5.73389 0.0354381 0
M  V30 982 N 85.5474 6.92724 -0.102666 0
M  V30 983 N 87.3404 5.62026 0.090946 0
M  V30 984 H 79.4914 1.88903 -0.971046 0
M  V30 985 H 81.7544 0.869876 -0.376855 0
M  V30 986 H 81.4604 3.41635 -0.835384 0
M  V30 987 H 81.3344 3.66373 0.897275 0
M  V30 988 H 83.7214 2.70973 1.16866 0
M  V30 989 H 83.8024 2.49016 -0.585208 0
M  V30 990 H 83.4464 4.99981 -0.893394 0
M  V30 991 H 83.3764 5.19258 0.876277 0
M  V30 992 H 85.8674 3.77216 0.227284 0
M  V30 993 H 86.1804 7.72633 -0.160882 0
M  V30 994 H 84.5254 6.94864 -0.137737 0
M  V30 995 H 87.7164 4.67684 0.197388 0
M  V30 996 H 87.8894 6.47997 0.0206089 0
M  V30 997 N 81.2955 -0.223234 1.56011 0
M  V30 998 C 82.5235 -0.964812 1.83027 0
M  V30 999 C 82.9385 -1.78013 0.62904 0
M  V30 1000 O 82.2955 -1.78008 -0.402414 0
M  V30 1001 C 82.3465 -1.88373 3.08542 0
M  V30 1002 O 82.0675 -1.10137 4.2403 0
M  V30 1003 C 83.5685 -2.73934 3.48533 0
M  V30 1004 H 80.7885 -0.282842 0.608475 0
M  V30 1005 H 83.3325 -0.238971 2.03099 0
M  V30 1006 H 81.4875 -2.56354 2.9045 0
M  V30 1007 H 81.9015 -1.72501 4.95322 0
M  V30 1008 H 83.3755 -3.34117 4.39397 0
M  V30 1009 H 83.8525 -3.46244 2.70207 0
M  V30 1010 H 84.4585 -2.11369 3.69057 0
M  V30 1011 N 82.7736 -1.49793 -0.48987 0
M  V30 1012 C 83.7216 -1.67783 -1.61095 0
M  V30 1013 C 84.7156 -0.543683 -1.60438 0
M  V30 1014 O 85.9216 -0.723647 -1.64813 0
M  V30 1015 H 82.2966 -0.529255 -0.534222 0
M  V30 1016 H 84.2676 -2.61861 -1.43078 0
M  V30 1017 C 83.0166 -1.77191 -2.99164 0
M  V30 1018 H 82.3396 -2.63841 -3.0038 0
M  V30 1019 H 83.7796 -1.93809 -3.77113 0
M  V30 1020 C 82.2386 -0.519203 -3.32875 0
M  V30 1021 O 82.7686 0.350124 -4.00171 0
M  V30 1022 N 80.9746 -0.378816 -2.8812 0
M  V30 1023 H 80.5216 -1.08725 -2.33531 0
M  V30 1024 H 80.4796 0.458239 -3.11043 0
M  V30 1025 N 84.2517 0.741722 -1.39055 0
M  V30 1026 C 85.6677 1.04638 -1.20512 0
M  V30 1027 C 85.8677 2.01405 -0.0620218 0
M  V30 1028 O 84.9237 2.45547 0.588457 0
M  V30 1029 C 86.2367 1.6151 -2.53643 0
M  V30 1030 C 87.7847 1.73623 -2.6043 0
M  V30 1031 C 88.2597 2.33906 -3.93767 0
M  V30 1032 N 89.7507 2.41323 -3.9537 0
M  V30 1033 C 90.4857 2.88888 -4.95309 0
M  V30 1034 N 89.9817 3.36401 -6.05645 0
M  V30 1035 N 91.7747 2.88037 -4.82692 0
M  V30 1036 H 83.9257 0.0998155 -2.12165 0
M  V30 1037 H 86.1887 0.106907 -0.941953 0
M  V30 1038 H 85.8947 0.978739 -3.37807 0
M  V30 1039 H 85.7687 2.60411 -2.72885 0
M  V30 1040 H 88.1557 2.36384 -1.76655 0
M  V30 1041 H 88.2367 0.733945 -2.45045 0
M  V30 1042 H 87.8807 1.71776 -4.7797 0
M  V30 1043 H 87.8107 3.34799 -4.06469 0
M  V30 1044 H 90.3017 2.07734 -3.15682 0
M  V30 1045 H 90.6147 3.71186 -6.77821 0
M  V30 1046 H 88.9597 3.34427 -6.09248 0
M  V30 1047 H 92.1507 2.50237 -3.95599 0
M  V30 1048 H 92.3237 3.24792 -5.60726 0
M  V30 1049 N 85.7298 1.2412 0.971189 0
M  V30 1050 C 87.1408 1.07236 1.52831 0
M  V30 1051 C 87.4918 -0.357352 1.92918 0
M  V30 1052 O 86.6168 -1.24528 1.76979 0
M  V30 1053 C 87.2118 1.94043 2.77728 0
M  V30 1054 C 85.7708 1.81394 3.29808 0
M  V30 1055 C 84.9178 1.89189 2.02738 0
M  V30 1056 H 87.8688 1.37648 0.789864 0
M  V30 1057 H 87.8898 1.47066 3.5093 0
M  V30 1058 H 87.4018 2.98093 2.4852 0
M  V30 1059 H 85.5028 0.801634 3.63874 0
M  V30 1060 H 85.6158 2.65294 3.98944 0
M  V30 1061 H 83.9798 1.32877 2.17292 0
M  V30 1062 H 84.7628 2.94812 1.759 0
M  V30 1063 N 87.2079 -1.17134 1.05439 0
M  V30 1064 C 88.6189 -1.69084 0.791676 0
M  V30 1065 C 88.9699 -1.83822 -0.685839 0
M  V30 1066 O 88.0949 -1.52757 -1.53278 0
M  V30 1067 C 88.6899 -3.07119 1.4305 0
M  V30 1068 C 87.2489 -3.56225 1.21577 0
M  V30 1069 C 86.3959 -2.32421 1.51247 0
M  V30 1070 H 89.3469 -1.01617 1.219 0
M  V30 1071 H 89.3679 -3.71087 0.84112 0
M  V30 1072 H 88.8799 -2.9636 2.50584 0
M  V30 1073 H 86.9809 -3.72257 0.159787 0
M  V30 1074 H 87.0939 -4.38837 1.92246 0
M  V30 1075 H 85.4579 -2.3701 0.932653 0
M  V30 1076 H 86.2409 -2.24268 2.5992 0
M  V30 1077 N 88.686 -0.835752 -1.33615 0
M  V30 1078 C 89.616 -0.281739 -2.31794 0
M  V30 1079 C 90.597 0.608833 -1.58831 0
M  V30 1080 O 91.782 0.533035 -1.86741 0
M  V30 1081 C 88.912 0.546612 -3.42971 0
M  V30 1082 C 87.866 -0.247904 -4.27281 0
M  V30 1083 C 87.192 0.704001 -5.30045 0
M  V30 1084 C 88.492 -1.46324 -5.01385 0
M  V30 1085 H 90.186 -1.10206 -2.78379 0
M  V30 1086 H 87.732 -0.531388 -1.33837 0
M  V30 1087 H 89.685 0.944467 -4.1068 0
M  V30 1088 H 88.409 1.40011 -2.95067 0
M  V30 1089 H 87.068 -0.627281 -3.61194 0
M  V30 1090 H 86.716 1.55381 -4.78399 0
M  V30 1091 H 86.416 0.176524 -5.87335 0
M  V30 1092 H 87.94 1.09944 -6.0062 0
M  V30 1093 H 89.354 -1.13871 -5.61877 0
M  V30 1094 H 87.751 -1.92728 -5.6831 0
M  V30 1095 H 88.821 -2.23467 -4.30338 0
M  V30 1096 N 90.1641 1.46063 -0.591896 0
M  V30 1097 C 91.3891 2.07226 -0.0850314 0
M  V30 1098 C 91.8141 1.43625 1.21463 0
M  V30 1099 O 91.1721 0.523305 1.73583 0
M  V30 1100 C 91.2201 3.60554 0.0576567 0
M  V30 1101 O 90.3241 3.97128 1.11188 0
M  V30 1102 H 89.6651 0.660615 -0.0669568 0
M  V30 1103 H 92.1951 1.8756 -0.81745 0
M  V30 1104 H 92.2051 4.07165 0.2609 0
M  V30 1105 H 90.8801 4.06235 -0.891416 0
M  V30 1106 H 89.4571 3.62213 0.886356 0
M  V30 1107 N 91.6422 0.330177 1.54103 0
M  V30 1108 C 92.5722 -0.525353 2.27513 0
M  V30 1109 C 93.5532 -1.11383 1.2856 0
M  V30 1110 O 94.7382 -1.13773 1.57383 0
M  V30 1111 C 91.8682 -1.6831 3.03791 0
M  V30 1112 C 90.8222 -1.2236 4.10137 0
M  V30 1113 C 90.1482 -2.46882 4.74293 0
M  V30 1114 C 91.4482 -0.333697 5.21233 0
M  V30 1115 H 93.1422 0.087013 2.99274 0
M  V30 1116 H 90.6882 0.0432893 1.43935 0
M  V30 1117 H 92.6412 -2.28795 3.5388 0
M  V30 1118 H 91.3652 -2.32216 2.29659 0
M  V30 1119 H 90.0242 -0.64165 3.60941 0
M  V30 1120 H 89.6722 -3.09165 3.96769 0
M  V30 1121 H 89.3722 -2.16825 5.46133 0
M  V30 1122 H 90.8962 -3.08117 5.27159 0
M  V30 1123 H 92.3102 -0.845013 5.67038 0
M  V30 1124 H 90.7072 -0.125612 5.99969 0
M  V30 1125 H 91.7772 0.633724 4.80741 0
M  V30 1126 N 93.1203 -1.57491 0.0584922 0
M  V30 1127 C 94.3453 -1.97711 -0.62652 0
M  V30 1128 C 94.7703 -0.936132 -1.63151 0
M  V30 1129 O 94.1283 0.099811 -1.81025 0
M  V30 1130 C 94.1763 -3.36989 -1.28338 0
M  V30 1131 O 93.2803 -3.35433 -2.39913 0
M  V30 1132 H 92.6213 -0.643868 -0.162266 0
M  V30 1133 H 95.1513 -2.04193 0.129064 0
M  V30 1134 H 95.1613 -3.73879 -1.63335 0
M  V30 1135 H 93.8363 -4.12289 -0.546889 0
M  V30 1136 H 92.4133 -3.10298 -2.06809 0
M  V30 1137 N 94.5984 0.214957 -1.56127 0
M  V30 1138 C 96.0144 0.564948 -1.49267 0
M  V30 1139 C 96.2144 1.86827 -0.754838 0
M  V30 1140 O 95.2704 2.50745 -0.297198 0
M  V30 1141 C 96.5834 0.638071 -2.93852 0
M  V30 1142 C 98.1314 0.728253 -3.0441 0
M  V30 1143 C 98.6064 0.832663 -4.50367 0
M  V30 1144 N 100.097 0.896712 -4.54437 0
M  V30 1145 C 100.832 0.997324 -5.6466 0
M  V30 1146 N 100.328 1.06147 -6.8462 0
M  V30 1147 N 102.121 1.03297 -5.52527 0
M  V30 1148 H 94.2724 -0.640211 -2.02522 0
M  V30 1149 H 96.5354 -0.225507 -0.920788 0
M  V30 1150 H 96.2414 -0.250126 -3.50809 0
M  V30 1151 H 96.1154 1.49947 -3.46115 0
M  V30 1152 H 98.5024 1.60689 -2.47514 0
M  V30 1153 H 98.5834 -0.158952 -2.55306 0
M  V30 1154 H 98.2274 -0.0415417 -5.07883 0
M  V30 1155 H 98.1574 1.73538 -4.97184 0
M  V30 1156 H 100.648 0.857188 -3.6805 0
M  V30 1157 H 100.961 1.1382 -7.64372 0
M  V30 1158 H 99.3064 1.03049 -6.87318 0
M  V30 1159 H 102.497 0.979558 -4.57736 0
M  V30 1160 H 102.67 1.10793 -6.38458 0
M  V30 1161 N 96.0765 1.50051 0.48192 0
M  V30 1162 C 97.0095 1.62749 1.59963 0
M  V30 1163 C 97.9875 0.475903 1.5548 0
M  V30 1164 O 99.1715 0.693986 1.7526 0
M  V30 1165 C 96.2985 1.60008 2.98522 0
M  V30 1166 C 95.3445 2.80596 3.21198 0
M  V30 1167 S 96.1775 4.42038 3.02262 0
M  V30 1168 C 97.3335 4.41973 4.43182 0
M  V30 1169 H 97.5665 2.57296 1.4895 0
M  V30 1170 H 95.0995 1.39179 0.668477 0
M  V30 1171 H 97.0575 1.59112 3.78409 0
M  V30 1172 H 95.7185 0.667153 3.06933 0
M  V30 1173 H 94.9115 2.74952 4.22395 0
M  V30 1174 H 94.5135 2.79003 2.49065 0
M  V30 1175 H 96.8055 4.14868 5.35622 0
M  V30 1176 H 97.7485 5.43512 4.53873 0
M  V30 1177 H 98.1565 3.71812 4.24755 0
M  V30 1178 N 97.5546 -0.734337 1.39446 0
M  V30 1179 C 98.8036 -1.48937 1.36017 0
M  V30 1180 C 99.1166 -1.95557 -0.0409005 0
M  V30 1181 O 100.323 -2.70779 -0.19778 0
M  V30 1182 C 98.7786 -2.69125 2.38955 0
M  V30 1183 C 98.3866 -2.29452 3.8478 0
M  V30 1184 C 100.131 -3.46944 2.44603 0
M  V30 1185 C 98.0376 -3.46366 4.79358 0
M  V30 1186 H 96.9676 -0.559296 0.505672 0
M  V30 1187 H 99.6186 -0.800983 1.65095 0
M  V30 1188 H 98.0006 -3.40041 2.02948 0
M  V30 1189 H 99.1746 -1.66077 4.29831 0
M  V30 1190 H 97.4896 -1.64723 3.82433 0
M  V30 1191 H 100.087 -4.33907 3.12456 0
M  V30 1192 H 100.43 -3.89454 1.47076 0
M  V30 1193 H 100.963 -2.83056 2.79507 0
M  V30 1194 H 97.7016 -3.08905 5.78151 0
M  V30 1195 H 97.2216 -4.08719 4.38986 0
M  V30 1196 H 98.9006 -4.12691 4.98292 0
M  V30 1197 N 99.0327 -1.24633 -0.964593 0
M  V30 1198 C 100.449 -1.01239 -1.2338 0
M  V30 1199 C 100.649 0.2769 -1.99588 0
M  V30 1200 O 99.7047 0.992241 -2.32187 0
M  V30 1201 C 101.018 -2.22937 -2.01791 0
M  V30 1202 C 102.566 -2.27594 -2.14872 0
M  V30 1203 C 103.041 -3.48921 -2.96678 0
M  V30 1204 N 104.532 -3.49257 -3.04259 0
M  V30 1205 C 105.267 -4.39795 -3.67924 0
M  V30 1206 N 104.763 -5.40591 -4.33281 0
M  V30 1207 N 106.556 -4.275 -3.64966 0
M  V30 1208 H 98.7067 -2.0748 -0.454502 0
M  V30 1209 H 100.97 -0.910647 -0.26349 0
M  V30 1210 H 100.676 -3.16587 -1.53184 0
M  V30 1211 H 100.55 -2.25306 -3.02518 0
M  V30 1212 H 102.937 -1.34473 -2.6268 0
M  V30 1213 H 103.018 -2.2925 -1.13482 0
M  V30 1214 H 102.662 -4.42359 -2.49562 0
M  V30 1215 H 102.592 -3.4451 -3.98272 0
M  V30 1216 H 105.083 -2.76337 -2.57771 0
M  V30 1217 H 105.396 -6.05904 -4.79687 0
M  V30 1218 H 103.741 -5.44475 -4.3194 0
M  V30 1219 H 106.932 -3.47987 -3.13086 0
M  V30 1220 H 107.105 -4.98258 -4.14298 0
M  V30 1221 N 100.511 1.16574 -1.06058 0
M  V30 1222 C 101.458 2.20883 -0.669263 0
M  V30 1223 C 102.428 1.62729 0.332918 0
M  V30 1224 O 103.613 1.895 0.222346 0
M  V30 1225 C 100.753 3.45049 -0.0593572 0
M  V30 1226 C 99.8658 4.17458 -1.11143 0
M  V30 1227 C 99.0008 5.29135 -0.467916 0
M  V30 1228 C 98.0398 5.93343 -1.50369 0
M  V30 1229 N 97.1768 6.96516 -0.883706 0
M  V30 1230 H 102.017 2.53709 -1.5632 0
M  V30 1231 H 99.5538 1.24616 -0.781625 0
M  V30 1232 H 101.512 4.16033 0.311771 0
M  V30 1233 H 100.142 3.12781 0.797992 0
M  V30 1234 H 99.1938 3.45101 -1.60029 0
M  V30 1235 H 100.506 4.61307 -1.89731 0
M  V30 1236 H 99.6598 6.06684 -0.0436871 0
M  V30 1237 H 98.3988 4.86443 0.349864 0
M  V30 1238 H 97.4038 5.14517 -1.93784 0
M  V30 1239 H 98.6288 6.38114 -2.32352 0
M  V30 1240 H 96.5748 6.55943 -0.086595 0
M  V30 1241 H 96.4918 7.38723 -1.607 0
M  V30 1242 H 97.7598 7.77993 -0.484543 0
M  V30 1243 N 101.989 0.842826 1.3317 0
M  V30 1244 C 102.922 0.223862 2.27099 0
M  V30 1245 C 103.9 -0.631311 1.49844 0
M  V30 1246 O 105.084 -0.590708 1.79005 0
M  V30 1247 C 102.211 -0.685313 3.31694 0
M  V30 1248 C 101.257 0.094919 4.26394 0
M  V30 1249 S 102.09 1.45546 5.15341 0
M  V30 1250 C 103.246 0.551685 6.23464 0
M  V30 1251 H 103.479 1.02015 2.79249 0
M  V30 1252 H 101.012 0.639797 1.4052 0
M  V30 1253 H 102.97 -1.20426 3.92438 0
M  V30 1254 H 101.631 -1.4553 2.78352 0
M  V30 1255 H 100.824 -0.597059 5.00451 0
M  V30 1256 H 100.426 0.545054 3.70007 0
M  V30 1257 H 102.718 -0.248877 6.77043 0
M  V30 1258 H 103.661 1.26253 6.96754 0
M  V30 1259 H 104.069 0.131275 5.64347 0
M  V30 1260 N 103.467 -1.45747 0.599634 0
M  V30 1261 C 104.414 -2.30467 -0.123849 0
M  V30 1262 C 105.384 -1.41632 -0.86774 0
M  V30 1263 O 106.569 -1.70568 -0.855056 0
M  V30 1264 C 103.709 -3.26402 -1.12051 0
M  V30 1265 C 102.822 -4.3034 -0.37832 0
M  V30 1266 C 101.957 -5.13389 -1.364 0
M  V30 1267 C 100.996 -6.09061 -0.609171 0
M  V30 1268 N 100.133 -6.84918 -1.54374 0
M  V30 1269 H 104.973 -2.91802 0.604627 0
M  V30 1270 H 102.51 -1.43797 0.309972 0
M  V30 1271 H 104.468 -3.80482 -1.7114 0
M  V30 1272 H 103.098 -2.66839 -1.8165 0
M  V30 1273 H 102.15 -3.78984 0.327929 0
M  V30 1274 H 103.462 -4.98354 0.210997 0
M  V30 1275 H 102.616 -5.7183 -2.02719 0
M  V30 1276 H 101.355 -4.45376 -1.98725 0
M  V30 1277 H 100.36 -5.49758 0.0676979 0
M  V30 1278 H 101.585 -6.79099 0.00891991 0
M  V30 1279 H 99.531 -6.19601 -2.15478 0
M  V30 1280 H 99.448 -7.49254 -1.00766 0
M  V30 1281 H 100.716 -7.47906 -2.19676 0
M  V30 1282 N 104.945 -0.338344 -1.53925 0
M  V30 1283 C 105.875 0.51328 -2.27789 0
M  V30 1284 C 106.856 1.107 -1.29149 0
M  V30 1285 O 108.041 1.12937 -1.57984 0
M  V30 1286 C 105.171 1.66697 -3.04679 0
M  V30 1287 C 104.125 1.20183 -4.1078 0
M  V30 1288 C 103.451 2.44363 -4.75595 0
M  V30 1289 C 104.751 0.30605 -5.21403 0
M  V30 1290 H 106.445 -0.102883 -2.99223 0
M  V30 1291 H 103.991 -0.0509219 -1.4391 0
M  V30 1292 H 105.944 2.26915 -3.55088 0
M  V30 1293 H 104.668 2.30995 -2.30887 0
M  V30 1294 H 103.327 0.622499 -3.61276 0
M  V30 1295 H 102.975 3.07057 -3.98403 0
M  V30 1296 H 102.675 2.13925 -5.47275 0
M  V30 1297 H 104.199 3.05317 -5.28786 0
M  V30 1298 H 105.613 0.814929 -5.67478 0
M  V30 1299 H 104.01 0.0937929 -6.00027 0
M  V30 1300 H 105.08 -0.65921 -4.80398 0
M  V30 1301 N 106.423 1.57458 -0.0668435 0
M  V30 1302 C 107.834 1.80776 0.466558 0
M  V30 1303 C 108.185 0.980361 1.69951 0
M  V30 1304 O 107.31 0.201441 2.1546 0
M  V30 1305 C 107.905 3.27881 0.85321 0
M  V30 1306 C 106.464 3.52062 1.3315 0
M  V30 1307 C 105.611 2.75513 0.314264 0
M  V30 1308 H 108.562 1.5598 -0.292588 0
M  V30 1309 H 108.583 3.39659 1.715 0
M  V30 1310 H 108.095 3.88075 -0.0443439 0
M  V30 1311 H 106.196 2.97167 2.24772 0
M  V30 1312 H 106.309 4.60762 1.31285 0
M  V30 1313 H 104.673 2.42123 0.790492 0
M  V30 1314 H 105.456 3.38442 -0.575477 0
M  V30 1315 N 107.901 -0.206675 1.56239 0
M  V30 1316 C 109.149 -0.927007 1.79586 0
M  V30 1317 C 109.47 -1.8427 0.637929 0
M  V30 1318 O 108.74 -1.92849 -0.344398 0
M  V30 1319 H 107.32 -0.345292 0.662407 0
M  V30 1320 H 109.982 -0.21496 1.93711 0
M  V30 1321 H 109.078 -1.52501 2.72305 0
M  V30 1322 N 109.379 -1.50304 -0.473955 0
M  V30 1323 C 110.795 -1.37667 -0.807466 0
M  V30 1324 C 110.995 -0.430555 -1.96846 0
M  V30 1325 O 110.051 0.127874 -2.52176 0
M  V30 1326 C 111.364 -2.78974 -1.12223 0
M  V30 1327 C 112.912 -2.87868 -1.22885 0
M  V30 1328 C 113.387 -4.30003 -1.57676 0
M  V30 1329 N 114.878 -4.3294 -1.64673 0
M  V30 1330 C 115.613 -5.3991 -1.93091 0
M  V30 1331 N 115.109 -6.57092 -2.1955 0
M  V30 1332 N 116.902 -5.27351 -1.94569 0
M  V30 1333 H 109.053 -2.10394 0.291212 0
M  V30 1334 H 111.316 -0.945575 0.0677609 0
M  V30 1335 H 111.022 -3.50031 -0.342229 0
M  V30 1336 H 110.896 -3.16038 -2.05913 0
M  V30 1337 H 113.283 -2.17032 -1.99953 0
M  V30 1338 H 113.364 -2.54352 -0.271814 0
M  V30 1339 H 113.008 -5.01375 -0.81149 0
M  V30 1340 H 112.938 -4.61004 -2.54525 0
M  V30 1341 H 115.429 -3.48441 -1.46277 0
M  V30 1342 H 115.742 -7.34425 -2.405 0
M  V30 1343 H 114.087 -6.60272 -2.16948 0
M  V30 1344 H 117.278 -4.34801 -1.73394 0
M  V30 1345 H 117.451 -6.10805 -2.16381 0
M  V30 1346 N 110.857 0.726932 -1.39834 0
M  V30 1347 C 111.767 1.87131 -1.41489 0
M  V30 1348 C 112.783 1.71239 -0.308757 0
M  V30 1349 O 113.959 1.93701 -0.551529 0
M  V30 1350 C 111.024 3.22811 -1.26468 0
M  V30 1351 C 110.085 3.51039 -2.47124 0
M  V30 1352 C 109.318 4.80245 -2.3281 0
M  V30 1353 O 109.541 5.54537 -1.33585 0
M  V30 1354 O 108.475 5.08554 -3.21957 0
M  V30 1355 H 112.301 1.8869 -2.3797 0
M  V30 1356 H 109.886 0.875837 -1.21035 0
M  V30 1357 H 111.768 4.03877 -1.20255 0
M  V30 1358 H 110.443 3.22005 -0.330862 0
M  V30 1359 H 109.35 2.70027 -2.58914 0
M  V30 1360 H 110.683 3.56632 -3.39227 0
M  V30 1361 N 112.336 1.25143 0.95797 0
M  V30 1362 C 113.284 1.05019 2.07542 0
M  V30 1363 C 114.278 -0.0178751 1.69391 0
M  V30 1364 O 115.484 0.137472 1.79474 0
M  V30 1365 H 111.859 0.32265 0.679265 0
M  V30 1366 H 113.83 1.99759 2.21673 0
M  V30 1367 C 112.579 0.682074 3.40944 0
M  V30 1368 H 111.902 1.49573 3.70767 0
M  V30 1369 H 113.342 0.580945 4.20001 0
M  V30 1370 C 111.801 -0.611608 3.31302 0
M  V30 1371 O 112.331 -1.65465 3.66038 0
M  V30 1372 N 110.537 -0.595982 2.84423 0
M  V30 1373 H 110.084 0.253192 2.56353 0
M  V30 1374 H 110.042 -1.46173 2.78354 0
M  V30 1375 N 113.814 -1.1601 1.06675 0
M  V30 1376 C 114.761 -2.20525 0.680967 0
M  V30 1377 C 115.731 -1.62904 -0.324283 0
M  V30 1378 O 116.916 -1.89615 -0.212294 0
M  V30 1379 C 114.056 -3.45013 0.0776551 0
M  V30 1380 C 113.169 -4.16863 1.13355 0
M  V30 1381 C 112.304 -5.2888 0.49597 0
M  V30 1382 C 111.343 -5.92537 1.53513 0
M  V30 1383 N 110.48 -6.96038 0.920631 0
M  V30 1384 H 115.32 -2.52876 1.57663 0
M  V30 1385 H 112.857 -1.24199 0.788223 0
M  V30 1386 H 114.815 -4.16193 -0.289704 0
M  V30 1387 H 113.445 -3.132 -0.781393 0
M  V30 1388 H 112.497 -3.44248 1.61857 0
M  V30 1389 H 113.809 -4.60294 1.92174 0
M  V30 1390 H 112.963 -6.06653 0.0758604 0
M  V30 1391 H 111.702 -4.86622 -0.324062 0
M  V30 1392 H 110.707 -5.13482 1.9651 0
M  V30 1393 H 111.932 -6.36873 2.35733 0
M  V30 1394 H 109.878 -6.55888 0.12138 0
M  V30 1395 H 109.795 -7.3786 1.64616 0
M  V30 1396 H 111.063 -7.77725 0.525795 0
M  V30 1397 N 115.292 -0.849877 -1.32721 0
M  V30 1398 C 116.52 -0.464754 -2.01613 0
M  V30 1399 C 116.935 0.937191 -1.63897 0
M  V30 1400 O 116.292 1.61081 -0.857856 0
M  V30 1401 C 116.343 -0.588638 -3.56675 0
M  V30 1402 O 116.064 -1.93535 -3.93034 0
M  V30 1403 C 117.565 -0.2019 -4.4284 0
M  V30 1404 H 114.785 -0.183215 -0.645502 0
M  V30 1405 H 117.329 -1.1455 -1.69407 0
M  V30 1406 H 115.484 0.0443159 -3.87375 0
M  V30 1407 H 115.898 -1.92871 -4.87751 0
M  V30 1408 H 117.372 -0.339599 -5.50954 0
M  V30 1409 H 117.849 0.857224 -4.30753 0
M  V30 1410 H 118.455 -0.809733 -4.17521 0
M  V30 1411 N 116.77 1.45427 -0.607355 0
M  V30 1412 C 117.733 2.28974 0.101693 0
M  V30 1413 C 118.733 1.39754 0.795329 0
M  V30 1414 O 119.923 1.61878 0.643527 0
M  V30 1415 C 117.055 3.20768 1.15414 0
M  V30 1416 H 118.248 2.93147 -0.632844 0
M  V30 1417 H 115.801 1.51945 -0.366391 0
M  V30 1418 H 116.536 2.61395 1.91945 0
M  V30 1419 H 116.321 3.86489 0.66098 0
M  V30 1420 H 117.811 3.83589 1.65073 0
M  V30 1421 N 118.248 0.346503 1.53744 0
M  V30 1422 C 119.494 -0.249473 2.0126 0
M  V30 1423 C 119.827 -1.49965 1.23386 0
M  V30 1424 O 119.102 -1.91811 0.32229 0
M  V30 1425 C 119.385 -0.560643 3.55709 0
M  V30 1426 C 119.238 0.701836 4.44291 0
M  V30 1427 C 120.557 -1.36905 4.18264 0
M  V30 1428 H 117.676 -0.0891987 0.731582 0
M  V30 1429 H 120.318 0.467624 1.84156 0
M  V30 1430 H 118.468 -1.17156 3.70414 0
M  V30 1431 H 120.14 1.33974 4.41417 0
M  V30 1432 H 118.383 1.32612 4.13033 0
M  V30 1433 H 119.054 0.43933 5.50249 0
M  V30 1434 H 121.53 -0.852448 4.07275 0
M  V30 1435 H 120.406 -1.55553 5.26398 0
M  V30 1436 H 120.667 -2.37203 3.73078 0
M  V30 1437 N 119.726 -1.57421 0.075193 0
M  V30 1438 C 120.972 -1.93905 -0.594025 0
M  V30 1439 C 121.305 -0.955701 -1.69056 0
M  V30 1440 O 120.58 0.0145373 -1.94495 0
M  V30 1441 C 120.863 -3.40638 -1.1678 0
M  V30 1442 C 120.716 -4.49733 -0.0776792 0
M  V30 1443 C 122.035 -3.88259 -2.07228 0
M  V30 1444 H 119.154 -0.705105 -0.214466 0
M  V30 1445 H 121.796 -1.8947 0.141854 0
M  V30 1446 H 119.946 -3.44549 -1.79494 0
M  V30 1447 H 121.618 -4.57942 0.555573 0
M  V30 1448 H 119.861 -4.29751 0.591286 0
M  V30 1449 H 120.532 -5.49549 -0.519603 0
M  V30 1450 H 123.008 -3.86376 -1.54445 0
M  V30 1451 H 121.884 -4.91533 -2.44308 0
M  V30 1452 H 122.145 -3.26396 -2.98191 0
M  V30 1453 N 121.204 0.198386 -1.56346 0
M  V30 1454 C 122.45 0.920648 -1.80698 0
M  V30 1455 C 122.783 1.83045 -0.648697 0
M  V30 1456 O 122.058 1.91308 0.350925 0
M  V30 1457 C 122.341 1.73971 -3.15287 0
M  V30 1458 C 122.194 0.85485 -4.41602 0
M  V30 1459 C 123.513 2.71296 -3.46535 0
M  V30 1460 H 120.632 0.333261 -0.657348 0
M  V30 1461 H 123.274 0.188198 -1.89066 0
M  V30 1462 H 121.424 2.36416 -3.08285 0
M  V30 1463 H 123.096 0.245362 -4.60647 0
M  V30 1464 H 121.339 0.161398 -4.335 0
M  V30 1465 H 122.01 1.46286 -5.32264 0
M  V30 1466 H 124.486 2.18983 -3.53816 0
M  V30 1467 H 123.362 3.2569 -4.41834 0
M  V30 1468 H 123.623 3.5018 -2.69864 0
M  V30 1469 N 122.682 1.50554 0.465978 0
M  V30 1470 C 123.93 1.61479 1.21528 0
M  V30 1471 C 124.251 0.319596 1.92363 0
M  V30 1472 O 123.521 -0.663194 1.84333 0
M  V30 1473 H 122.101 0.595055 0.451573 0
M  V30 1474 H 124.763 1.87355 0.53704 0
M  V30 1475 H 123.859 2.42846 1.96042 0
M  V30 1476 N 124.16 -0.719506 1.40217 0
M  V30 1477 C 125.388 -1.50864 1.41589 0
M  V30 1478 C 125.803 -1.88794 0.0145275 0
M  V30 1479 O 125.16 -1.55174 -0.960594 0
M  V30 1480 C 125.211 -2.78646 2.30302 0
M  V30 1481 O 124.932 -2.42321 3.64983 0
M  V30 1482 C 126.433 -3.72569 2.40224 0
M  V30 1483 H 123.653 -0.465709 0.48307 0
M  V30 1484 H 126.197 -0.88785 1.84221 0
M  V30 1485 H 124.352 -3.37019 1.91042 0
M  V30 1486 H 124.766 -3.24514 4.12057 0
M  V30 1487 H 126.24 -4.5908 3.06512 0
M  V30 1488 H 126.717 -4.15403 1.42608 0
M  V30 1489 H 127.323 -3.20109 2.80019 0
M  V30 1490 N 125.638 -1.25649 -0.95132 0
M  V30 1491 C 126.887 -1.09988 -1.69073 0
M  V30 1492 C 127.2 0.358355 -1.92289 0
M  V30 1493 O 128.406 0.635466 -2.63958 0
M  V30 1494 C 126.862 -1.92012 -3.044 0
M  V30 1495 C 126.47 -3.42347 -2.88968 0
M  V30 1496 C 128.214 -1.8493 -3.82101 0
M  V30 1497 C 126.121 -4.16655 -4.19705 0
M  V30 1498 H 125.051 -0.407993 -0.63408 0
M  V30 1499 H 127.702 -1.49873 -1.05879 0
M  V30 1500 H 126.084 -1.44952 -3.68517 0
M  V30 1501 H 127.258 -3.97104 -2.33762 0
M  V30 1502 H 125.573 -3.50557 -2.24719 0
M  V30 1503 H 128.17 -2.37739 -4.78941 0
M  V30 1504 H 128.513 -0.817883 -4.08187 0
M  V30 1505 H 129.046 -2.29758 -3.2474 0
M  V30 1506 H 125.785 -5.20224 -3.98807 0
M  V30 1507 H 125.305 -3.66681 -4.74663 0
M  V30 1508 H 126.984 -4.24551 -4.88227 0
M  V30 1509 N 127.117 1.15442 -1.07289 0
M  V30 1510 C 128.345 1.90096 -0.81676 0
M  V30 1511 C 128.76 1.7798 0.629966 0
M  V30 1512 O 128.117 1.1313 1.43206 0
M  V30 1513 C 128.168 3.40466 -1.21512 0
M  V30 1514 O 127.889 3.52232 -2.60508 0
M  V30 1515 C 129.39 4.32145 -0.988198 0
M  V30 1516 H 126.61 0.602495 -0.295366 0
M  V30 1517 H 129.154 1.4627 -1.42918 0
M  V30 1518 H 127.309 3.81958 -0.647039 0
M  V30 1519 H 127.723 4.45549 -2.76742 0
M  V30 1520 H 129.197 5.36072 -1.31645 0
M  V30 1521 H 129.674 4.39135 0.0755063 0
M  V30 1522 H 130.28 3.96395 -1.54115 0
M  V30 1523 N 128.595 0.856903 1.32268 0
M  V30 1524 C 129.872 0.382583 1.91822 0
M  V30 1525 C 130.252 -1.13407 1.78051 0
M  V30 1526 O 129.6 -1.95673 1.18001 0
M  V30 1527 C 129.81 0.849446 3.38505 0
M  V30 1528 C 131.158 0.867936 4.15634 0
M  V30 1529 O 132.182 0.794232 3.47232 0
M  V30 1530 O 131.041 0.972286 5.37781 0
M  V30 1531 H 128.135 0.112014 0.819379 0
M  V30 1532 H 130.681 0.943952 1.41024 0
M  V30 1533 H 129.453 1.89267 3.42482 0
M  V30 1534 H 129.076 0.265652 3.96712 0
M  V30 1535 N 130.073 -1.45103 0.615059 0
M  V30 1536 C 131.35 -1.95549 0.0448276 0
M  V30 1537 C 131.73 -1.55737 -1.4251 0
M  V30 1538 O 131.078 -0.823556 -2.13143 0
M  V30 1539 C 131.288 -3.48098 0.250785 0
M  V30 1540 C 132.636 -4.24384 0.135509 0
M  V30 1541 O 133.66 -3.55738 0.181299 0
M  V30 1542 O 132.519 -5.46493 0.0268878 0
M  V30 1543 H 129.613 -0.8264 -0.0314845 0
M  V30 1544 H 132.159 -1.55232 0.685642 0
M  V30 1545 H 130.931 -3.7007 1.27139 0
M  V30 1546 H 130.554 -3.95323 -0.424937 0
M  V30 1547 N 131.551 -0.354651 -1.53558 0
M  V30 1548 C 132.797 0.238797 -2.01389 0
M  V30 1549 C 133.13 1.49309 -1.2418 0
M  V30 1550 O 132.405 1.91638 -0.332457 0
M  V30 1551 C 132.688 0.541771 -3.56001 0
M  V30 1552 C 132.541 -0.725388 -4.43912 0
M  V30 1553 C 133.86 1.34685 -4.18984 0
M  V30 1554 H 130.979 0.0853177 -0.732045 0
M  V30 1555 H 133.621 -0.477384 -1.83905 0
M  V30 1556 H 131.771 1.15189 -3.71031 0
M  V30 1557 H 133.443 -1.36313 -4.407 0
M  V30 1558 H 131.686 -1.34801 -4.12324 0
M  V30 1559 H 132.357 -0.468505 -5.50008 0
M  V30 1560 H 134.833 0.830837 -4.07721 0
M  V30 1561 H 133.709 1.52759 -5.27215 0
M  V30 1562 H 133.97 2.35221 -3.74331 0
M  V30 1563 N 133.029 1.57378 -0.0835403 0
M  V30 1564 C 134.445 1.57246 0.273109 0
M  V30 1565 C 134.645 1.09385 1.69225 0
M  V30 1566 O 133.701 0.765051 2.40631 0
M  V30 1567 C 135.014 3.00614 0.0720628 0
M  V30 1568 C 136.562 3.12684 0.1407 0
M  V30 1569 C 137.037 4.57989 -0.0322094 0
M  V30 1570 N 138.528 4.63194 0.0230085 0
M  V30 1571 C 139.263 5.73335 -0.0861941 0
M  V30 1572 N 138.759 6.9235 -0.24958 0
M  V30 1573 N 140.552 5.62093 -0.0282886 0
M  V30 1574 H 132.703 1.86801 -1.0109 0
M  V30 1575 H 134.966 0.861687 -0.395222 0
M  V30 1576 H 134.672 3.39786 -0.907662 0
M  V30 1577 H 134.546 3.68193 0.81936 0
M  V30 1578 H 136.933 2.73391 1.11092 0
M  V30 1579 H 137.014 2.47719 -0.637896 0
M  V30 1580 H 136.658 4.97973 -0.999247 0
M  V30 1581 H 136.588 5.21 0.765937 0
M  V30 1582 H 139.079 3.77613 0.14722 0
M  V30 1583 H 139.392 7.72117 -0.324733 0
M  V30 1584 H 137.737 6.94415 -0.285097 0
M  V30 1585 H 140.928 4.67997 0.0981408 0
M  V30 1586 H 141.101 6.47895 -0.116845 0
M  V30 1587 N 134.507 -0.190092 1.56449 0
M  V30 1588 C 135.753 -0.911052 1.81184 0
M  V30 1589 C 136.086 -1.82699 0.658396 0
M  V30 1590 O 135.361 -1.91491 -0.340775 0
M  V30 1591 C 135.644 -1.72297 3.16205 0
M  V30 1592 C 135.497 -0.831419 4.42049 0
M  V30 1593 C 136.816 -2.69454 3.47969 0
M  V30 1594 H 133.935 -0.32977 0.659106 0
M  V30 1595 H 136.577 -0.178169 1.89163 0
M  V30 1596 H 134.727 -2.34778 3.09534 0
M  V30 1597 H 136.399 -0.220929 4.60771 0
M  V30 1598 H 134.642 -0.138406 4.33579 0
M  V30 1599 H 135.313 -1.43461 5.33032 0
M  V30 1600 H 137.789 -2.17104 3.54972 0
M  V30 1601 H 136.665 -3.23342 4.43555 0
M  V30 1602 H 136.926 -3.48744 2.71717 0
M  V30 1603 N 135.985 -1.50799 -0.457987 0
M  V30 1604 C 136.917 -1.66786 -1.57211 0
M  V30 1605 C 137.93 -0.548962 -1.53265 0
M  V30 1606 O 139.119 -0.8226 -1.58416 0
M  V30 1607 C 136.219 -1.64834 -2.96113 0
M  V30 1608 C 135.392 -2.92971 -3.24787 0
M  V30 1609 C 134.451 -2.83485 -4.43309 0
M  V30 1610 O 133.477 -3.5744 -4.42973 0
M  V30 1611 N 134.679 -1.97929 -5.45714 0
M  V30 1612 H 137.444 -2.62889 -1.43909 0
M  V30 1613 H 135.005 -1.48427 -0.646617 0
M  V30 1614 H 136.997 -1.56084 -3.7339 0
M  V30 1615 H 135.567 -0.764118 -3.03117 0
M  V30 1616 H 134.787 -3.15749 -2.36 0
M  V30 1617 H 136.075 -3.77834 -3.40762 0
M  V30 1618 H 135.473 -1.37182 -5.48815 0
M  V30 1619 H 134.03 -1.95073 -6.21924 0
M  V30 1620 N 137.463 0.71206 -1.40597 0
M  V30 1621 C 138.373 1.8562 -1.43466 0
M  V30 1622 C 139.389 1.70902 -0.326902 0
M  V30 1623 O 140.565 1.93105 -0.572043 0
M  V30 1624 C 137.63 3.21451 -1.29884 0
M  V30 1625 C 136.691 3.48398 -2.50833 0
M  V30 1626 C 135.924 4.77749 -2.3789 0
M  V30 1627 O 136.147 5.53089 -1.39459 0
M  V30 1628 O 135.081 5.05111 -3.27333 0
M  V30 1629 H 138.907 1.86155 -2.39958 0
M  V30 1630 H 136.492 0.86295 -1.21957 0
M  V30 1631 H 138.374 4.02579 -1.24531 0
M  V30 1632 H 137.049 3.21636 -0.364997 0
M  V30 1633 H 135.956 2.67265 -2.61763 0
M  V30 1634 H 137.289 3.53014 -3.4299 0
M  V30 1635 N 138.941 1.26152 0.944643 0
M  V30 1636 C 140.187 1.11657 1.69294 0
M  V30 1637 C 140.52 -0.339926 1.91202 0
M  V30 1638 O 139.795 -1.24994 1.49019 0
M  V30 1639 C 140.078 1.88236 3.06984 0
M  V30 1640 C 139.931 3.41772 2.92424 0
M  V30 1641 C 141.25 1.67343 4.07043 0
M  V30 1642 H 138.369 0.407004 0.614424 0
M  V30 1643 H 141.011 1.55106 1.09737 0
M  V30 1644 H 139.161 1.51308 3.57824 0
M  V30 1645 H 140.833 3.88433 2.48832 0
M  V30 1646 H 139.076 3.68974 2.28124 0
M  V30 1647 H 139.747 3.90579 3.90067 0
M  V30 1648 H 142.223 1.99509 3.65151 0
M  V30 1649 H 141.099 2.23346 5.01406 0
M  V30 1650 H 141.36 0.617158 4.37771 0
M  V30 1651 N 140.419 -1.14872 1.07899 0
M  V30 1652 C 141.83 -1.67367 0.827363 0
M  V30 1653 C 142.181 -1.85236 -0.646693 0
M  V30 1654 O 141.306 -1.55974 -1.50004 0
M  V30 1655 C 141.901 -3.04016 1.49532 0
M  V30 1656 C 140.46 -3.53566 1.29106 0
M  V30 1657 C 139.607 -2.29161 1.56143 0
M  V30 1658 H 142.558 -0.990083 1.24028 0
M  V30 1659 H 142.579 -3.69219 0.919643 0
M  V30 1660 H 142.091 -2.90978 2.56814 0
M  V30 1661 H 140.192 -3.71835 0.238713 0
M  V30 1662 H 140.305 -4.34661 2.01511 0
M  V30 1663 H 138.669 -2.34978 0.982717 0
M  V30 1664 H 139.452 -2.18705 2.64619 0
M  V30 1665 N 141.898 -0.863906 -1.31812 0
M  V30 1666 C 142.845 -0.313303 -2.28664 0
M  V30 1667 C 143.815 0.584868 -1.55462 0
M  V30 1668 O 145 0.517805 -1.83639 0
M  V30 1669 C 142.14 0.48441 -3.41683 0
M  V30 1670 C 141.253 -0.440594 -4.29747 0
M  V30 1671 C 140.388 0.370652 -5.29905 0
M  V30 1672 C 139.427 -0.551164 -6.09613 0
M  V30 1673 N 138.564 0.223462 -7.01744 0
M  V30 1674 H 143.404 -1.14444 -2.75148 0
M  V30 1675 H 140.941 -0.575769 -1.35364 0
M  V30 1676 H 142.899 0.962627 -4.05943 0
M  V30 1677 H 141.529 1.28029 -2.96325 0
M  V30 1678 H 140.581 -1.03724 -3.65986 0
M  V30 1679 H 141.893 -1.14767 -4.85417 0
M  V30 1680 H 141.047 0.911638 -5.99812 0
M  V30 1681 H 139.786 1.11105 -4.74876 0
M  V30 1682 H 138.791 -1.10396 -5.38603 0
M  V30 1683 H 140.016 -1.29032 -6.66729 0
M  V30 1684 H 137.962 0.946787 -6.49132 0
M  V30 1685 H 137.879 -0.424399 -7.54808 0
M  V30 1686 H 139.147 0.745876 -7.75923 0
M  V30 1687 N 143.376 1.44774 -0.622745 0
M  V30 1688 C 144.306 2.33382 0.0741861 0
M  V30 1689 C 145.287 1.47719 0.843387 0
M  V30 1690 O 146.472 1.76458 0.810934 0
M  V30 1691 C 143.602 3.30663 1.06204 0
M  V30 1692 C 142.556 4.26079 0.405037 0
M  V30 1693 C 141.882 5.13165 1.5022 0
M  V30 1694 C 143.182 5.1781 -0.683414 0
M  V30 1695 H 144.876 2.91905 -0.665713 0
M  V30 1696 H 142.422 1.40363 -0.321587 0
M  V30 1697 H 144.375 3.9153 1.55827 0
M  V30 1698 H 143.099 2.70331 1.83272 0
M  V30 1699 H 141.758 3.66532 -0.0704683 0
M  V30 1700 H 141.406 4.49191 2.26355 0
M  V30 1701 H 141.106 5.77812 1.06803 0
M  V30 1702 H 142.63 5.76902 2.00041 0
M  V30 1703 H 144.044 5.72661 -0.270631 0
M  V30 1704 H 142.441 5.91015 -1.04023 0
M  V30 1705 H 143.511 4.59326 -1.55395 0
M  V30 1706 N 144.854 0.36279 1.53368 0
M  V30 1707 C 145.801 -0.485008 2.25646 0
M  V30 1708 C 146.771 -1.07982 1.2621 0
M  V30 1709 O 147.956 -1.11284 1.54986 0
M  V30 1710 C 145.096 -1.62023 3.04701 0
M  V30 1711 C 144.209 -1.05086 4.19024 0
M  V30 1712 C 143.344 -2.15496 4.85525 0
M  V30 1713 C 142.383 -1.5601 5.91884 0
M  V30 1714 N 141.52 -2.60241 6.52088 0
M  V30 1715 H 146.36 0.137864 2.97681 0
M  V30 1716 H 143.897 0.0798061 1.46883 0
M  V30 1717 H 145.855 -2.28887 3.48807 0
M  V30 1718 H 144.485 -2.2138 2.34927 0
M  V30 1719 H 143.537 -0.27259 3.79422 0
M  V30 1720 H 144.849 -0.575926 4.95464 0
M  V30 1721 H 144.003 -2.90186 5.32801 0
M  V30 1722 H 142.742 -2.66341 4.08551 0
M  V30 1723 H 141.747 -0.798338 5.43973 0
M  V30 1724 H 142.972 -1.05994 6.70777 0
M  V30 1725 H 140.918 -3.10304 5.77968 0
M  V30 1726 H 140.835 -2.17426 7.24059 0
M  V30 1727 H 142.103 -3.34641 7.04014 0
M  V30 1728 N 146.332 -1.57332 0.0918853 0
M  V30 1729 C 147.578 -1.94524 -0.573425 0
M  V30 1730 C 147.911 -0.973578 -1.68033 0
M  V30 1731 O 147.186 -0.00609226 -1.94499 0
M  V30 1732 C 147.469 -3.41858 -1.13161 0
M  V30 1733 C 147.322 -4.4979 -0.0299747 0
M  V30 1734 C 148.641 -3.90435 -2.03098 0
M  V30 1735 H 145.76 -0.70734 -0.206975 0
M  V30 1736 H 148.402 -1.89309 0.161942 0
M  V30 1737 H 146.552 -3.46433 -1.7583 0
M  V30 1738 H 148.224 -4.57327 0.604112 0
M  V30 1739 H 146.467 -4.291 0.636833 0
M  V30 1740 H 147.138 -5.50069 -0.461287 0
M  V30 1741 H 149.614 -3.87992 -1.50338 0
M  V30 1742 H 148.49 -4.94097 -2.39081 0
M  V30 1743 H 148.751 -3.29541 -2.94712 0
M  V30 1744 N 147.81 0.181792 -1.56548 0
M  V30 1745 C 149.05 0.906711 -1.83189 0
M  V30 1746 C 149.414 1.79882 -0.671312 0
M  V30 1747 O 150.615 2.56054 -0.81792 0
M  V30 1748 C 148.886 1.69023 -3.14906 0
M  V30 1749 S 150.445 2.46535 -3.62996 0
M  V30 1750 H 147.263 0.303877 -0.642791 0
M  V30 1751 H 149.865 0.169107 -1.94767 0
M  V30 1752 H 148.569 1.02571 -3.97376 0
M  V30 1753 H 148.1 2.46941 -3.06241 0
M  V30 1754 H 150.115 3.71014 -3.29489 0
M  V30 1755 N 149.288 1.51039 0.449983 0
M  V30 1756 C 150.251 1.70863 1.5277 0
M  V30 1757 C 151.251 0.578846 1.5002 0
M  V30 1758 O 152.441 0.846213 1.52266 0
M  V30 1759 C 149.573 1.75341 2.9235 0
M  V30 1760 H 150.766 2.67034 1.36502 0
M  V30 1761 H 148.319 1.40838 0.677812 0
M  V30 1762 H 149.054 0.809383 3.14037 0
M  V30 1763 H 148.839 2.57436 2.95752 0
M  V30 1764 H 150.329 1.92559 3.70555 0
M  V30 1765 N 150.766 -0.704594 1.40972 0
M  V30 1766 C 151.696 -1.83124 1.44872 0
M  V30 1767 C 152.677 -1.67281 0.30838 0
M  V30 1768 O 153.862 -1.87149 0.518556 0
M  V30 1769 C 150.992 -3.21181 1.32136 0
M  V30 1770 C 149.946 -3.51714 2.43888 0
M  V30 1771 C 149.272 -4.89032 2.16222 0
M  V30 1772 C 150.572 -3.516 3.86232 0
M  V30 1773 H 152.266 -1.80117 2.39161 0
M  V30 1774 H 149.812 -0.865145 1.15114 0
M  V30 1775 H 151.765 -3.99702 1.33479 0
M  V30 1776 H 150.489 -3.24791 0.343279 0
M  V30 1777 H 149.148 -2.75539 2.41813 0
M  V30 1778 H 148.796 -4.89256 1.16778 0
M  V30 1779 H 148.496 -5.10426 2.911 0
M  V30 1780 H 150.02 -5.69873 2.19265 0
M  V30 1781 H 151.434 -4.2014 3.9007 0
M  V30 1782 H 149.831 -3.84523 4.60719 0
M  V30 1783 H 150.901 -2.50757 4.15029 0
M  V30 1784 N 152.244 -1.26651 -0.937939 0
M  V30 1785 C 153.66 -1.03834 -1.21205 0
M  V30 1786 C 153.86 0.234502 -2.00131 0
M  V30 1787 O 152.916 0.942767 -2.3424 0
M  V30 1788 C 154.229 -2.27167 -1.97017 0
M  V30 1789 C 155.777 -2.32101 -2.09996 0
M  V30 1790 C 156.252 -3.55136 -2.8921 0
M  V30 1791 N 157.743 -3.55632 -2.96783 0
M  V30 1792 C 158.478 -4.475 -3.58512 0
M  V30 1793 N 157.974 -5.4966 -4.21717 0
M  V30 1794 N 159.767 -4.35145 -3.55816 0
M  V30 1795 H 151.918 -2.08398 -0.410391 0
M  V30 1796 H 154.181 -0.916031 -0.244114 0
M  V30 1797 H 153.887 -3.19765 -1.46434 0
M  V30 1798 H 153.761 -2.31672 -2.97671 0
M  V30 1799 H 156.148 -1.40015 -2.59769 0
M  V30 1800 H 156.229 -2.31605 -1.08594 0
M  V30 1801 H 155.873 -4.47553 -2.40123 0
M  V30 1802 H 155.803 -3.5288 -3.90875 0
M  V30 1803 H 158.294 -2.81743 -2.51852 0
M  V30 1804 H 158.607 -6.15943 -4.66727 0
M  V30 1805 H 156.952 -5.53514 -4.20294 0
M  V30 1806 H 160.143 -3.5455 -3.05634 0
M  V30 1807 H 160.316 -5.06934 -4.03636 0
M  V30 1808 N 153.722 1.14298 -1.08507 0
M  V30 1809 C 154.968 1.85633 -0.816581 0
M  V30 1810 C 155.301 1.82784 0.656021 0
M  V30 1811 O 154.576 1.25926 1.48233 0
M  V30 1812 C 154.859 3.34223 -1.34041 0
M  V30 1813 C 154.712 3.45639 -2.87843 0
M  V30 1814 C 156.031 4.29356 -0.9665 0
M  V30 1815 H 153.15 0.67402 -0.298104 0
M  V30 1816 H 155.792 1.34214 -1.34487 0
M  V30 1817 H 153.942 3.78144 -0.89104 0
M  V30 1818 H 155.614 3.10498 -3.41158 0
M  V30 1819 H 153.857 2.86817 -3.25451 0
M  V30 1820 H 154.528 4.50089 -3.19569 0
M  V30 1821 H 157.004 3.93457 -1.35391 0
M  V30 1822 H 155.88 5.3178 -1.3602 0
M  V30 1823 H 156.141 4.41919 0.126362 0
M  V30 1824 N 155.201 0.870884 1.31352 0
M  V30 1825 C 156.429 0.49677 2.00848 0
M  V30 1826 C 156.844 -0.910998 1.65367 0
M  V30 1827 O 156.201 -1.59696 0.883374 0
M  V30 1828 C 156.252 0.645308 3.55694 0
M  V30 1829 O 155.973 1.99764 3.89905 0
M  V30 1830 C 157.474 0.272326 4.42463 0
M  V30 1831 H 154.694 0.193462 0.642506 0
M  V30 1832 H 157.238 1.1723 1.67563 0
M  V30 1833 H 155.393 0.0173176 3.87396 0
M  V30 1834 H 155.807 2.00607 4.84621 0
M  V30 1835 H 157.281 0.427208 5.50344 0
M  V30 1836 H 157.758 -0.788587 4.32062 0
M  V30 1837 H 158.364 0.876054 4.1618 0
M  V30 1838 N 156.679 -1.44442 0.630414 0
M  V30 1839 C 157.904 -2.06927 0.139944 0
M  V30 1840 C 158.329 -1.46795 -1.17613 0
M  V30 1841 O 157.687 -0.569144 -1.72135 0
M  V30 1842 C 157.735 -3.6058 0.0379581 0
M  V30 1843 O 156.839 -3.99937 -1.0062 0
M  V30 1844 H 156.18 -0.658608 0.0844483 0
M  V30 1845 H 158.71 -1.85327 0.866891 0
M  V30 1846 H 158.72 -4.07714 -0.152856 0
M  V30 1847 H 157.395 -4.03728 0.998809 0
M  V30 1848 H 155.972 -3.64436 -0.79001 0
M  V30 1849 N 158.157 -0.370918 -1.53173 0
M  V30 1850 C 159.573 -0.0200818 -1.59587 0
M  V30 1851 C 159.773 1.46279 -1.38581 0
M  V30 1852 O 158.829 2.22506 -1.19363 0
M  V30 1853 C 160.142 -0.4808 -2.96831 0
M  V30 1854 C 161.69 -0.435477 -3.09956 0
M  V30 1855 C 162.165 -0.872092 -4.4962 0
M  V30 1856 N 163.656 -0.827364 -4.55751 0
M  V30 1857 C 164.391 -1.13683 -5.62018 0
M  V30 1858 N 163.887 -1.51584 -6.76014 0
M  V30 1859 N 165.68 -1.05927 -5.52029 0
M  V30 1860 H 157.831 -1.33652 -1.65079 0
M  V30 1861 H 160.094 -0.546634 -0.774529 0
M  V30 1862 H 159.8 -1.51577 -3.1736 0
M  V30 1863 H 159.674 0.129796 -3.76977 0
M  V30 1864 H 162.061 0.590371 -2.89134 0
M  V30 1865 H 162.142 -1.08164 -2.31806 0
M  V30 1866 H 161.786 -1.89608 -4.71181 0
M  V30 1867 H 161.716 -0.203127 -5.26208 0
M  V30 1868 H 164.207 -0.548216 -3.73902 0
M  V30 1869 H 164.52 -1.73609 -7.53047 0
M  V30 1870 H 162.865 -1.55454 -6.77391 0
M  V30 1871 H 166.056 -0.762321 -4.61851 0
M  V30 1872 H 166.229 -1.30378 -6.34749 0
M  V30 1873 N 159.635 1.57281 -0.100228 0
M  V30 1874 C 160.598 2.13158 0.842398 0
M  V30 1875 C 161.598 1.06202 1.20738 0
M  V30 1876 O 162.788 1.32066 1.13597 0
M  V30 1877 C 159.92 2.65639 2.13655 0
M  V30 1878 H 161.113 2.97766 0.357114 0
M  V30 1879 H 158.666 1.5559 0.148823 0
M  V30 1880 H 159.401 1.84566 2.66657 0
M  V30 1881 H 159.186 3.43844 1.88451 0
M  V30 1882 H 160.676 3.08846 2.81077 0
M  V30 1883 N 161.113 -0.173488 1.56642 0
M  V30 1884 C 162.529 -0.525174 1.50712 0
M  V30 1885 C 162.729 -1.8476 0.804107 0
M  V30 1886 O 161.785 -2.49869 0.363574 0
M  V30 1887 C 163.098 -0.559937 2.95441 0
M  V30 1888 C 164.646 -0.647288 3.06234 0
M  V30 1889 C 165.121 -0.712963 4.52417 0
M  V30 1890 N 166.612 -0.775911 4.56655 0
M  V30 1891 C 167.347 -0.847264 5.67106 0
M  V30 1892 N 166.843 -0.879585 6.87194 0
M  V30 1893 N 168.636 -0.886117 5.55071 0
M  V30 1894 H 160.787 0.693681 2.00753 0
M  V30 1895 H 163.05 0.249841 0.914485 0
M  V30 1896 H 162.756 0.343049 3.50023 0
M  V30 1897 H 162.63 -1.40718 3.49969 0
M  V30 1898 H 165.017 -1.5407 2.51687 0
M  V30 1899 H 165.098 0.226586 2.54794 0
M  V30 1900 H 164.742 0.176183 5.07594 0
M  V30 1901 H 164.672 -1.60295 5.0161 0
M  V30 1902 H 167.163 -0.759304 3.70193 0
M  V30 1903 H 167.476 -0.935144 7.67121 0
M  V30 1904 H 165.821 -0.847898 6.89808 0
M  V30 1905 H 169.012 -0.857853 4.60172 0
M  V30 1906 H 169.185 -0.938263 6.41171 0
M  V30 1907 N 162.591 -1.51276 -0.441967 0
M  V30 1908 C 163.816 -1.67799 -1.21895 0
M  V30 1909 C 164.241 -0.372864 -1.84367 0
M  V30 1910 O 163.599 0.666501 -1.68604 0
M  V30 1911 C 163.647 -2.79199 -2.28211 0
M  V30 1912 O 162.751 -2.42479 -3.33583 0
M  V30 1913 H 162.092 -0.559649 -0.357336 0
M  V30 1914 H 164.622 -1.97815 -0.522522 0
M  V30 1915 H 164.632 -3.03146 -2.73069 0
M  V30 1916 H 163.307 -3.73906 -1.82118 0
M  V30 1917 H 161.884 -2.29087 -2.94234 0
M  V30 1918 N 164.069 0.697108 -1.41344 0
M  V30 1919 C 165.485 1.00751 -1.2378 0
M  V30 1920 C 165.685 2.01105 -0.126066 0
M  V30 1921 O 164.741 2.47295 0.51004 0
M  V30 1922 C 166.054 1.53359 -2.58653 0
M  V30 1923 C 167.602 1.6525 -2.65822 0
M  V30 1924 C 168.077 2.2126 -4.01009 0
M  V30 1925 N 169.568 2.28622 -4.02847 0
M  V30 1926 C 170.303 2.72984 -5.04249 0
M  V30 1927 N 169.799 3.16962 -6.16041 0
M  V30 1928 N 171.592 2.72534 -4.91611 0
M  V30 1929 H 163.743 0.0322662 -2.12375 0
M  V30 1930 H 166.006 0.0768853 -0.944877 0
M  V30 1931 H 165.712 0.870773 -3.4075 0
M  V30 1932 H 165.586 2.51597 -2.81032 0
M  V30 1933 H 167.973 2.30644 -1.84086 0
M  V30 1934 H 168.054 0.655614 -2.47256 0
M  V30 1935 H 167.698 1.56482 -4.83193 0
M  V30 1936 H 167.628 3.21698 -4.16915 0
M  V30 1937 H 170.119 1.97585 -3.22131 0
M  V30 1938 H 170.432 3.49434 -6.89287 0
M  V30 1939 H 168.777 3.14875 -6.1958 0
M  V30 1940 H 171.968 2.37525 -4.0336 0
M  V30 1941 H 172.141 3.06789 -5.70775 0
M  V30 1942 N 165.547 1.27147 0.931209 0
M  V30 1943 C 166.796 1.12664 1.67302 0
M  V30 1944 C 167.109 -0.327718 1.92835 0
M  V30 1945 O 168.315 -0.593392 2.64936 0
M  V30 1946 C 166.771 1.9683 3.01307 0
M  V30 1947 C 166.379 3.46901 2.83485 0
M  V30 1948 C 168.123 1.90985 3.79111 0
M  V30 1949 C 166.03 4.23279 4.13024 0
M  V30 1950 H 164.96 0.41803 0.627509 0
M  V30 1951 H 167.611 1.51539 1.03481 0
M  V30 1952 H 165.993 1.50797 3.66164 0
M  V30 1953 H 167.167 4.00773 2.27415 0
M  V30 1954 H 165.482 3.54088 2.19113 0
M  V30 1955 H 168.079 2.45328 4.75098 0
M  V30 1956 H 168.422 0.882718 4.06834 0
M  V30 1957 H 168.955 2.34895 3.21044 0
M  V30 1958 H 165.694 5.26503 3.90481 0
M  V30 1959 H 165.214 3.74186 4.6877 0
M  V30 1960 H 166.893 4.32265 4.81411 0
M  V30 1961 N 167.025 -1.13721 1.09112 0
M  V30 1962 C 167.955 -2.21148 0.749385 0
M  V30 1963 C 168.936 -1.6792 -0.271475 0
M  V30 1964 O 170.121 -1.93693 -0.140251 0
M  V30 1965 C 167.251 -3.46905 0.165659 0
M  V30 1966 C 166.205 -4.13203 1.11567 0
M  V30 1967 C 165.531 -5.33248 0.393809 0
M  V30 1968 C 166.831 -4.60912 2.45678 0
M  V30 1969 H 168.525 -2.4999 1.64758 0
M  V30 1970 H 166.071 -1.20156 0.793626 0
M  V30 1971 H 168.024 -4.21313 -0.085466 0
M  V30 1972 H 166.748 -3.17449 -0.767714 0
M  V30 1973 H 165.407 -3.40758 1.35202 0
M  V30 1974 H 165.055 -5.00054 -0.543599 0
M  V30 1975 H 164.755 -5.78552 1.02721 0
M  V30 1976 H 166.279 -6.10413 0.150908 0
M  V30 1977 H 167.693 -5.26759 2.26269 0
M  V30 1978 H 166.09 -5.16944 3.04776 0
M  V30 1979 H 167.16 -3.75603 3.06677 0
M  V30 1980 N 168.503 -0.877838 -1.30888 0
M  V30 1981 C 169.919 -0.570844 -1.49042 0
M  V30 1982 C 170.119 0.893159 -1.80624 0
M  V30 1983 O 169.175 1.67485 -1.88958 0
M  V30 1984 C 170.488 -1.47784 -2.61878 0
M  V30 1985 C 172.036 -1.48071 -2.75761 0
M  V30 1986 C 172.511 -2.37347 -3.91702 0
M  V30 1987 N 174.002 -2.35271 -3.99001 0
M  V30 1988 C 174.737 -3.01063 -4.88004 0
M  V30 1989 N 174.233 -3.76055 -5.81854 0
M  V30 1990 N 176.026 -2.90332 -4.81315 0
M  V30 1991 H 168.177 -1.82502 -1.0866 0
M  V30 1992 H 170.44 -0.780797 -0.537644 0
M  V30 1993 H 170.146 -2.51993 -2.45341 0
M  V30 1994 H 170.02 -1.18215 -3.58197 0
M  V30 1995 H 172.407 -0.446166 -2.91708 0
M  V30 1996 H 172.488 -1.81668 -1.80085 0
M  V30 1997 H 172.132 -3.40883 -3.76512 0
M  V30 1998 H 172.062 -2.01071 -4.86701 0
M  V30 1999 H 174.553 -1.80768 -3.3186 0
M  V30 2000 H 174.866 -4.23366 -6.46514 0
M  V30 2001 H 173.211 -3.80163 -5.81808 0
M  V30 2002 H 176.402 -2.31278 -4.06974 0
M  V30 2003 H 176.575 -3.41885 -5.50471 0
M  V30 2004 N 169.982 1.44106 -0.638065 0
M  V30 2005 C 170.945 2.29138 0.0531013 0
M  V30 2006 C 171.945 1.41409 0.765506 0
M  V30 2007 O 173.135 1.63206 0.609046 0
M  V30 2008 C 170.267 3.23144 1.08584 0
M  V30 2009 H 171.46 2.91739 -0.694883 0
M  V30 2010 H 169.013 1.51134 -0.398538 0
M  V30 2011 H 169.748 2.65408 1.86357 0
M  V30 2012 H 169.533 3.87804 0.578852 0
M  V30 2013 H 171.023 3.87004 1.56899 0
M  V30 2014 N 171.46 0.379036 1.52974 0
M  V30 2015 C 172.708 -0.206014 2.01047 0
M  V30 2016 C 173.029 -1.48175 1.26765 0
M  V30 2017 O 172.299 -1.92085 0.384743 0
M  V30 2018 H 170.879 -0.0791184 0.742798 0
M  V30 2019 H 173.541 0.508366 1.88153 0
M  V30 2020 H 172.637 -0.423501 3.09213 0
M  V30 2021 N 172.938 -1.57226 0.108567 0
M  V30 2022 C 174.186 -1.94448 -0.550853 0
M  V30 2023 C 174.507 -0.992074 -1.67878 0
M  V30 2024 O 173.777 -0.0465 -1.95845 0
M  V30 2025 H 172.357 -0.717897 -0.206479 0
M  V30 2026 H 175.019 -1.94112 0.175062 0
M  V30 2027 H 174.115 -2.97218 -0.952259 0
M  V30 2028 N 174.416 0.165178 -1.56732 0
M  V30 2029 C 175.363 1.2044 -1.96883 0
M  V30 2030 C 176.333 1.43664 -0.833657 0
M  V30 2031 O 177.518 1.56302 -1.09427 0
M  V30 2032 C 174.658 2.53727 -2.33916 0
M  V30 2033 C 173.771 2.3783 -3.6064 0
M  V30 2034 C 172.906 3.64026 -3.86857 0
M  V30 2035 C 171.945 3.43088 -5.06909 0
M  V30 2036 N 171.082 4.61369 -5.29229 0
M  V30 2037 H 175.922 0.854996 -2.85471 0
M  V30 2038 H 173.459 0.41076 -1.41249 0
M  V30 2039 H 175.417 3.31419 -2.53411 0
M  V30 2040 H 174.047 2.8665 -1.48431 0
M  V30 2041 H 173.099 1.51282 -3.49024 0
M  V30 2042 H 174.411 2.18308 -4.4849 0
M  V30 2043 H 173.565 4.50152 -4.06753 0
M  V30 2044 H 172.304 3.86533 -2.97394 0
M  V30 2045 H 171.309 2.55349 -4.86906 0
M  V30 2046 H 172.534 3.21997 -5.97909 0
M  V30 2047 H 170.48 4.84084 -4.42718 0
M  V30 2048 H 170.397 4.44783 -6.11313 0
M  V30 2049 H 171.665 5.48761 -5.53608 0
M  V30 2050 N 175.894 1.51508 0.433938 0
M  V30 2051 C 177.143 1.63578 1.18005 0
M  V30 2052 C 177.456 0.359514 1.92268 0
M  V30 2053 O 178.662 0.359632 2.69108 0
M  V30 2054 C 177.118 2.88901 2.14626 0
M  V30 2055 C 176.726 4.23544 1.45995 0
M  V30 2056 C 178.47 3.10328 2.89649 0
M  V30 2057 C 176.377 5.40014 2.4112 0
M  V30 2058 H 175.307 0.609277 0.444182 0
M  V30 2059 H 177.958 1.77978 0.446773 0
M  V30 2060 H 176.34 2.68142 2.91403 0
M  V30 2061 H 177.514 4.54696 0.747532 0
M  V30 2062 H 175.829 4.08021 0.831115 0
M  V30 2063 H 178.426 3.94518 3.60915 0
M  V30 2064 H 178.769 2.23544 3.51189 0
M  V30 2065 H 179.302 3.31443 2.19978 0
M  V30 2066 H 176.041 6.29068 1.84264 0
M  V30 2067 H 175.561 5.13233 3.10406 0
M  V30 2068 H 177.24 5.72099 3.02177 0
M  V30 2069 N 177.372 -0.689602 1.41712 0
M  V30 2070 C 178.302 -1.81577 1.46806 0
M  V30 2071 C 179.283 -1.66945 0.326105 0
M  V30 2072 O 180.468 -1.86588 0.538377 0
M  V30 2073 C 177.598 -3.19762 1.35535 0
M  V30 2074 C 176.552 -3.49107 2.47605 0
M  V30 2075 C 175.878 -4.86711 2.21397 0
M  V30 2076 C 177.178 -3.47483 3.89939 0
M  V30 2077 H 178.872 -1.7757 2.41058 0
M  V30 2078 H 176.418 -0.852887 1.16025 0
M  V30 2079 H 178.371 -3.98263 1.3771 0
M  V30 2080 H 177.095 -3.24409 0.377708 0
M  V30 2081 H 175.754 -2.72959 2.44722 0
M  V30 2082 H 175.402 -4.8799 1.21961 0
M  V30 2083 H 175.102 -5.0731 2.96497 0
M  V30 2084 H 176.626 -5.67515 2.25297 0
M  V30 2085 H 178.04 -4.1598 3.94505 0
M  V30 2086 H 176.437 -3.79615 4.64771 0
M  V30 2087 H 177.507 -2.46341 4.17665 0
M  V30 2088 N 178.85 -1.27639 -0.924453 0
M  V30 2089 C 180.078 -1.16989 -1.70649 0
M  V30 2090 C 180.493 0.272869 -1.86818 0
M  V30 2091 O 179.85 1.18549 -1.38753 0
M  V30 2092 C 179.901 -1.85229 -3.10439 0
M  V30 2093 O 179.622 -3.23868 -2.95028 0
M  V30 2094 C 181.123 -1.80746 -4.04779 0
M  V30 2095 H 178.343 -0.406595 -0.53378 0
M  V30 2096 H 180.887 -1.68569 -1.15778 0
M  V30 2097 H 179.042 -1.37545 -3.6216 0
M  V30 2098 H 179.456 -3.57889 -3.83426 0
M  V30 2099 H 180.93 -2.33101 -5.00368 0
M  V30 2100 H 181.407 -0.777499 -4.32263 0
M  V30 2101 H 182.013 -2.28059 -3.58984 0
M  V30 2102 N 180.328 1.1314 -1.09713 0
M  V30 2103 C 181.575 1.84484 -0.834987 0
M  V30 2104 C 181.903 1.83689 0.639418 0
M  V30 2105 O 181.158 1.2724 1.4869 0
M  V30 2106 C 181.457 3.32167 -1.3191 0
M  V30 2107 C 181.123 3.53139 -2.80363 0
M  V30 2108 C 179.785 3.58571 -3.20905 0
M  V30 2109 C 182.137 3.60866 -3.76065 0
M  V30 2110 C 179.465 3.69267 -4.55916 0
M  V30 2111 C 181.817 3.73089 -5.10869 0
M  V30 2112 C 180.481 3.76775 -5.50996 0
M  V30 2113 H 179.751 0.675073 -0.305544 0
M  V30 2114 H 182.398 1.33554 -1.37243 0
M  V30 2115 H 180.703 3.85469 -0.701517 0
M  V30 2116 H 182.4 3.85821 -1.09284 0
M  V30 2117 H 178.99 3.49569 -2.47991 0
M  V30 2118 H 183.174 3.55946 -3.45855 0
M  V30 2119 H 178.43 3.70388 -4.86438 0
M  V30 2120 H 182.604 3.78011 -5.84877 0
M  V30 2121 H 180.231 3.84815 -6.55608 0
M  V30 2122 N 181.806 0.884767 1.30421 0
M  V30 2123 C 183.083 0.423185 1.90967 0
M  V30 2124 C 183.463 -1.09605 1.80416 0
M  V30 2125 O 182.811 -1.93126 1.22125 0
M  V30 2126 C 183.021 0.921056 3.36627 0
M  V30 2127 C 184.369 0.955903 4.137 0
M  V30 2128 O 185.393 0.867706 3.4547 0
M  V30 2129 O 184.252 1.08614 5.35598 0
M  V30 2130 H 181.346 0.129369 0.816819 0
M  V30 2131 H 183.892 0.973653 1.3899 0
M  V30 2132 H 182.664 1.96489 3.3839 0
M  V30 2133 H 182.287 0.349741 3.96059 0
M  V30 2134 N 183.284 -1.43765 0.645699 0
M  V30 2135 C 184.216 -2.29027 -0.0890605 0
M  V30 2136 C 185.229 -1.42093 -0.794563 0
M  V30 2137 O 186.418 -1.66104 -0.653575 0
M  V30 2138 C 183.518 -3.18831 -1.14891 0
M  V30 2139 C 182.691 -4.34261 -0.523043 0
M  V30 2140 C 181.75 -5.04994 -1.47878 0
M  V30 2141 O 180.776 -5.6052 -0.990277 0
M  V30 2142 N 181.978 -5.07795 -2.81291 0
M  V30 2143 H 184.743 -2.92727 0.64272 0
M  V30 2144 H 182.304 -1.54373 0.487924 0
M  V30 2145 H 184.296 -3.63015 -1.78892 0
M  V30 2146 H 182.866 -2.56782 -1.78275 0
M  V30 2147 H 182.086 -3.93088 0.295896 0
M  V30 2148 H 183.374 -5.08728 -0.0858147 0
M  V30 2149 H 182.772 -4.64042 -3.23546 0
M  V30 2150 H 181.329 -5.55721 -3.40614 0
M  V30 2151 N 184.763 -0.387143 -1.52771 0
M  V30 2152 C 185.693 0.440551 -2.29306 0
M  V30 2153 C 186.674 1.06535 -1.32606 0
M  V30 2154 O 187.859 1.07853 -1.61497 0
M  V30 2155 C 184.989 1.56919 -3.09829 0
M  V30 2156 C 183.943 1.07054 -4.14395 0
M  V30 2157 C 183.269 2.29109 -4.83129 0
M  V30 2158 C 184.569 0.140015 -5.22112 0
M  V30 2159 H 186.263 -0.198026 -2.98744 0
M  V30 2160 H 183.809 -0.09668 -1.43675 0
M  V30 2161 H 185.762 2.15503 -3.62128 0
M  V30 2162 H 184.486 2.23532 -2.3812 0
M  V30 2163 H 183.145 0.507247 -3.63074 0
M  V30 2164 H 182.793 2.94227 -4.0797 0
M  V30 2165 H 182.493 1.96406 -5.53804 0
M  V30 2166 H 184.017 2.88339 -5.38231 0
M  V30 2167 H 185.431 0.633978 -5.69784 0
M  V30 2168 H 183.828 -0.0971485 -6.00021 0
M  V30 2169 H 184.898 -0.811711 -4.78058 0
M  V30 2170 N 186.241 1.57166 -0.116904 0
M  V30 2171 C 187.204 2.14039 0.819742 0
M  V30 2172 C 188.204 1.07477 1.19605 0
M  V30 2173 O 189.394 1.33263 1.1219 0
M  V30 2174 C 186.526 2.67891 2.10826 0
M  V30 2175 H 187.719 2.98128 0.325511 0
M  V30 2176 H 185.272 1.55739 0.132312 0
M  V30 2177 H 186.007 1.87384 2.64685 0
M  V30 2178 H 185.792 3.45823 1.84793 0
M  V30 2179 H 187.282 3.11809 2.77785 0
M  V30 2180 N 187.719 -0.156864 1.56817 0
M  V30 2181 C 188.649 -1.19589 2.00551 0
M  V30 2182 C 189.63 -1.4536 0.883426 0
M  V30 2183 O 190.815 -1.56449 1.15054 0
M  V30 2184 C 187.945 -2.53143 2.37773 0
M  V30 2185 C 186.899 -2.41913 3.53075 0
M  V30 2186 C 186.225 -3.80088 3.76081 0
M  V30 2187 C 187.525 -1.91157 4.86062 0
M  V30 2188 H 189.219 -0.832293 2.87599 0
M  V30 2189 H 186.765 -0.398918 1.38364 0
M  V30 2190 H 188.718 -3.26047 2.66967 0
M  V30 2191 H 187.442 -2.91319 1.4765 0
M  V30 2192 H 186.101 -1.71462 3.24031 0
M  V30 2193 H 185.749 -4.15683 2.83225 0
M  V30 2194 H 185.449 -3.73439 4.53671 0
M  V30 2195 H 186.973 -4.54556 4.0769 0
M  V30 2196 H 188.387 -2.53846 5.14038 0
M  V30 2197 H 186.784 -1.95422 5.67389 0
M  V30 2198 H 187.854 -0.866673 4.77092 0
M  V30 2199 N 189.197 -1.51736 -0.425897 0
M  V30 2200 C 190.474 -1.55519 -1.1863 0
M  V30 2201 C 190.854 -0.326219 -2.08564 0
M  V30 2202 O 190.202 0.688012 -2.17896 0
M  V30 2203 C 190.412 -2.87521 -1.9782 0
M  V30 2204 C 191.76 -3.39899 -2.54468 0
M  V30 2205 O 192.784 -2.89148 -2.08019 0
M  V30 2206 O 191.643 -4.2848 -3.39215 0
M  V30 2207 H 188.737 -0.625739 -0.540721 0
M  V30 2208 H 191.283 -1.64055 -0.434038 0
M  V30 2209 H 190.055 -3.68422 -1.31836 0
M  V30 2210 H 189.678 -2.822 -2.80088 0
M  V30 2211 N 190.675 0.682077 -1.42076 0
M  V30 2212 C 191.9 1.47558 -1.45744 0
M  V30 2213 C 192.325 1.87977 -0.0680981 0
M  V30 2214 O 191.683 1.55522 0.9318 0
M  V30 2215 C 191.731 2.70575 -2.38373 0
M  V30 2216 O 190.835 3.68573 -1.85007 0
M  V30 2217 H 190.176 0.443585 -0.494093 0
M  V30 2218 H 192.706 0.837238 -1.86686 0
M  V30 2219 H 192.716 3.18729 -2.54707 0
M  V30 2220 H 191.391 2.40495 -3.39315 0
M  V30 2221 H 189.968 3.2757 -1.78192 0
M  V30 2222 N 192.153 1.28127 0.917671 0
M  V30 2223 C 193.564 1.13622 1.48145 0
M  V30 2224 C 193.915 -0.275207 1.9426 0
M  V30 2225 O 193.04 -1.1691 1.82102 0
M  V30 2226 C 193.635 2.05648 2.69248 0
M  V30 2227 C 192.194 1.95219 3.21818 0
M  V30 2228 C 191.341 1.97618 1.94532 0
M  V30 2229 H 194.292 1.40874 0.730772 0
M  V30 2230 H 194.313 1.61818 3.44377 0
M  V30 2231 H 193.825 3.08365 2.35653 0
M  V30 2232 H 191.926 0.955244 3.60147 0
M  V30 2233 H 192.039 2.81976 3.87333 0
M  V30 2234 H 190.403 1.41973 2.11461 0
M  V30 2235 H 191.186 3.02007 1.63238 0
M  V30 2236 N 193.631 -1.12557 1.10312 0
M  V30 2237 C 194.578 -2.18247 0.750781 0
M  V30 2238 C 195.548 -1.63853 -0.272293 0
M  V30 2239 O 196.733 -1.90195 -0.151862 0
M  V30 2240 C 193.873 -3.44591 0.187379 0
M  V30 2241 C 192.986 -4.13046 1.2656 0
M  V30 2242 C 192.121 -5.27034 0.663978 0
M  V30 2243 C 191.16 -5.87353 1.72287 0
M  V30 2244 N 190.297 -6.92757 1.1416 0
M  V30 2245 H 195.137 -2.47732 1.65628 0
M  V30 2246 H 192.674 -1.21629 0.827337 0
M  V30 2247 H 194.632 -4.16904 -0.157148 0
M  V30 2248 H 193.262 -3.15527 -0.681355 0
M  V30 2249 H 192.314 -3.38924 1.72727 0
M  V30 2250 H 193.626 -4.53947 2.06721 0
M  V30 2251 H 192.78 -6.06104 0.268824 0
M  V30 2252 H 191.519 -4.87407 -0.169082 0
M  V30 2253 H 190.524 -5.06971 2.12746 0
M  V30 2254 H 191.749 -6.29051 2.55875 0
M  V30 2255 H 189.695 -6.5517 0.329984 0
M  V30 2256 H 189.612 -7.3225 1.88007 0
M  V30 2257 H 190.88 -7.75658 0.772956 0
M  V30 2258 N 195.109 -0.891671 -1.2995 0
M  V30 2259 C 196.357 -0.512486 -1.95494 0
M  V30 2260 C 196.678 0.942776 -1.70695 0
M  V30 2261 O 195.948 1.66374 -1.03424 0
M  V30 2262 H 194.528 -0.186533 -0.723336 0
M  V30 2263 H 197.19 -1.13621 -1.58355 0
M  V30 2264 H 196.286 -0.688342 -3.04415 0
M  V30 2265 N 196.587 1.43421 -0.653314 0
M  V30 2266 C 197.827 2.03689 -0.170346 0
M  V30 2267 C 198.191 1.50427 1.19314 0
M  V30 2268 O 199.392 2.0234 1.76952 0
M  V30 2269 C 197.663 3.56946 -0.180183 0
M  V30 2270 S 199.222 4.38171 0.234925 0
M  V30 2271 H 196.04 0.707345 -0.0719976 0
M  V30 2272 H 198.642 1.75486 -0.86167 0
M  V30 2273 H 197.346 3.93212 -1.17526 0
M  V30 2274 H 196.877 3.89791 0.531675 0
M  V30 2275 H 198.892 4.73808 1.47378 0
M  V30 2276 N 198.065 0.39524 1.52563 0
M  V30 2277 C 199.313 -0.184678 2.01254 0
M  V30 2278 C 199.634 -1.46822 1.28329 0
M  V30 2279 O 198.904 -1.91666 0.405094 0
M  V30 2280 H 197.484 -0.0712355 0.743596 0
M  V30 2281 H 200.146 0.528293 1.87603 0
M  V30 2282 H 199.242 -0.390681 3.09645 0
M  V30 2283 N 199.544 -1.57102 0.125237 0
M  V30 2284 C 200.772 -1.99761 -0.538797 0
M  V30 2285 C 201.187 -1.00503 -1.59827 0
M  V30 2286 O 200.544 0.00119474 -1.825 0
M  V30 2287 C 200.595 -3.42408 -1.15927 0
M  V30 2288 O 200.316 -4.37869 -0.142143 0
M  V30 2289 C 201.817 -4.00232 -1.90602 0
M  V30 2290 H 199.037 -0.655772 -0.14214 0
M  V30 2291 H 201.581 -2.03383 0.213413 0
M  V30 2292 H 199.736 -3.39706 -1.86223 0
M  V30 2293 H 200.15 -5.21128 -0.593775 0
M  V30 2294 H 201.624 -5.02105 -2.29335 0
M  V30 2295 H 202.101 -3.39721 -2.78363 0
M  V30 2296 H 202.707 -4.06499 -1.25055 0
M  V30 2297 N 201.022 0.148545 -1.56898 0
M  V30 2298 C 202.268 0.862694 -1.83536 0
M  V30 2299 C 202.601 1.80889 -0.706604 0
M  V30 2300 O 201.876 1.92328 0.289885 0
M  V30 2301 C 202.159 1.63853 -3.20662 0
M  V30 2302 C 202.012 0.713925 -4.44098 0
M  V30 2303 C 203.331 2.60133 -3.54991 0
M  V30 2304 H 200.45 0.312179 -0.667618 0
M  V30 2305 H 203.092 0.127953 -1.89569 0
M  V30 2306 H 201.242 2.26489 -3.1565 0
M  V30 2307 H 202.914 0.098686 -4.61194 0
M  V30 2308 H 201.157 0.0234019 -4.33794 0
M  V30 2309 H 201.828 1.29278 -5.36648 0
M  V30 2310 H 204.304 2.07616 -3.60603 0
M  V30 2311 H 203.18 3.11468 -4.51972 0
M  V30 2312 H 203.441 3.41417 -2.80868 0
M  V30 2313 N 202.5 1.5196 0.417844 0
M  V30 2314 C 203.43 1.77634 1.51554 0
M  V30 2315 C 204.411 0.626918 1.58126 0
M  V30 2316 O 205.596 0.871632 1.7354 0
M  V30 2317 C 202.726 1.91911 2.8946 0
M  V30 2318 C 201.68 3.07463 2.97743 0
M  V30 2319 C 201.006 3.06951 4.37819 0
M  V30 2320 C 202.306 4.47082 2.70027 0
M  V30 2321 H 204 2.6955 1.3032 0
M  V30 2322 H 201.546 1.29706 0.625492 0
M  V30 2323 H 203.499 2.08455 3.6623 0
M  V30 2324 H 202.223 0.966598 3.11969 0
M  V30 2325 H 200.882 2.90656 2.23416 0
M  V30 2326 H 200.53 2.09438 4.57323 0
M  V30 2327 H 200.23 3.84556 4.44286 0
M  V30 2328 H 201.754 3.25613 5.16535 0
M  V30 2329 H 203.168 4.6414 3.36522 0
M  V30 2330 H 201.565 5.2654 2.87881 0
M  V30 2331 H 202.635 4.55777 1.65514 0
M  V30 2332 N 203.978 -0.674533 1.42435 0
M  V30 2333 C 204.908 -1.80009 1.48724 0
M  V30 2334 C 205.889 -1.6659 0.343793 0
M  V30 2335 O 207.074 -1.86007 0.558137 0
M  V30 2336 C 204.204 -3.18306 1.38919 0
M  V30 2337 C 203.158 -3.46461 2.51294 0
M  V30 2338 C 202.484 -4.84335 2.26547 0
M  V30 2339 C 203.784 -3.43328 3.93603 0
M  V30 2340 H 205.478 -1.75004 2.42928 0
M  V30 2341 H 203.024 -0.840533 1.16923 0
M  V30 2342 H 204.977 -3.9678 1.41927 0
M  V30 2343 H 203.701 -3.2399 0.412094 0
M  V30 2344 H 202.36 -2.70348 2.47604 0
M  V30 2345 H 202.008 -4.86669 1.2713 0
M  V30 2346 H 201.708 -5.04136 3.01861 0
M  V30 2347 H 203.232 -5.65094 2.31304 0
M  V30 2348 H 204.646 -4.11772 3.98894 0
M  V30 2349 H 203.043 -3.74664 4.68771 0
M  V30 2350 H 204.113 -2.41897 4.20255 0
M  V30 2351 N 205.456 -1.28612 -0.910864 0
M  V30 2352 C 206.681 -1.1891 -1.69927 0
M  V30 2353 C 207.106 0.248372 -1.86453 0
M  V30 2354 O 206.464 1.17961 -1.37676 0
M  V30 2355 C 206.512 -1.89578 -3.06745 0
M  V30 2356 O 205.616 -1.20521 -3.94396 0
M  V30 2357 H 204.957 -0.412632 -0.520222 0
M  V30 2358 H 207.487 -1.69985 -1.1387 0
M  V30 2359 H 207.497 -1.97597 -3.56958 0
M  V30 2360 H 206.172 -2.94136 -2.94035 0
M  V30 2361 H 204.749 -1.20684 -3.52831 0
M  V30 2362 N 206.934 1.1197 -1.10907 0
M  V30 2363 C 208.182 1.83225 -0.852819 0
M  V30 2364 C 208.503 1.84769 0.623341 0
M  V30 2365 O 207.773 1.3143 1.45269 0
M  V30 2366 H 206.353 0.67849 -0.312507 0
M  V30 2367 H 209.015 1.3556 -1.40033 0
M  V30 2368 H 208.111 2.87265 -1.22005 0
M  V30 2369 N 208.412 0.89855 1.29475 0
M  V30 2370 C 209.823 0.572537 1.77705 0
M  V30 2371 C 210.174 -0.911778 1.73727 0
M  V30 2372 O 209.299 -1.71288 1.32247 0
M  V30 2373 C 209.894 1.03252 3.22683 0
M  V30 2374 C 208.453 0.757687 3.68695 0
M  V30 2375 C 207.6 1.20787 2.49612 0
M  V30 2376 H 210.551 1.08139 1.16153 0
M  V30 2377 H 210.572 0.367307 3.78723 0
M  V30 2378 H 210.084 2.11285 3.25546 0
M  V30 2379 H 208.185 -0.310079 3.71308 0
M  V30 2380 H 208.298 1.35476 4.59547 0
M  V30 2381 H 206.662 0.626888 2.46865 0
M  V30 2382 H 207.445 2.29622 2.55203 0
M  V30 2383 N 209.89 -1.43072 0.660911 0
M  V30 2384 C 211.306 -1.56169 0.329173 0
M  V30 2385 C 211.506 -1.64317 -1.16629 0
M  V30 2386 O 210.562 -1.60245 -1.95135 0
M  V30 2387 C 211.875 -2.81873 1.04729 0
M  V30 2388 C 213.423 -2.95627 1.02828 0
M  V30 2389 C 213.898 -4.24174 1.72744 0
M  V30 2390 N 215.389 -4.31055 1.69545 0
M  V30 2391 C 216.124 -5.29304 2.20511 0
M  V30 2392 N 215.62 -6.33786 2.79799 0
M  V30 2393 N 217.413 -5.21008 2.10966 0
M  V30 2394 H 209.564 -1.36027 1.63127 0
M  V30 2395 H 211.827 -0.653823 0.686454 0
M  V30 2396 H 211.533 -2.81942 2.10242 0
M  V30 2397 H 211.407 -3.72338 0.603702 0
M  V30 2398 H 213.794 -2.95094 -0.0184742 0
M  V30 2399 H 213.875 -2.06431 1.51063 0
M  V30 2400 H 213.519 -4.25467 2.7738 0
M  V30 2401 H 213.449 -5.1228 1.2197 0
M  V30 2402 H 215.94 -3.56174 1.26288 0
M  V30 2403 H 216.253 -7.05086 3.16344 0
M  V30 2404 H 214.598 -6.34387 2.83863 0
M  V30 2405 H 217.789 -4.38301 1.64347 0
M  V30 2406 H 217.962 -5.97416 2.50993 0
M  V30 2407 N 211.368 -0.403325 -1.52352 0
M  V30 2408 C 212.315 0.425011 -2.26853 0
M  V30 2409 C 213.285 1.04598 -1.29029 0
M  V30 2410 O 214.47 1.07135 -1.57882 0
M  V30 2411 C 211.61 1.53888 -3.08889 0
M  V30 2412 C 210.723 0.939396 -4.21663 0
M  V30 2413 C 209.858 2.02547 -4.91068 0
M  V30 2414 C 208.897 1.40263 -5.95813 0
M  V30 2415 N 208.034 2.4286 -6.58759 0
M  V30 2416 H 212.874 -0.21674 -2.97211 0
M  V30 2417 H 210.411 -0.118722 -1.4662 0
M  V30 2418 H 212.369 2.19558 -3.54753 0
M  V30 2419 H 210.999 2.15074 -2.40714 0
M  V30 2420 H 210.051 0.171898 -3.80011 0
M  V30 2421 H 211.363 0.44436 -4.96817 0
M  V30 2422 H 210.517 2.75958 -5.40308 0
M  V30 2423 H 209.256 2.55415 -4.15469 0
M  V30 2424 H 208.261 0.653833 -5.45898 0
M  V30 2425 H 209.486 0.881719 -6.73352 0
M  V30 2426 H 207.432 2.94871 -5.85992 0
M  V30 2427 H 207.349 1.98152 -7.2957 0
M  V30 2428 H 208.617 3.15858 -7.12639 0
M  V30 2429 N 212.846 1.57033 -0.133567 0
M  V30 2430 C 214.094 1.953 0.519848 0
M  V30 2431 C 214.415 1.01866 1.66278 0
M  V30 2432 O 213.685 0.0776513 1.95746 0
M  V30 2433 H 212.265 0.721091 0.195032 0
M  V30 2434 H 214.927 1.93809 -0.205921 0
M  V30 2435 H 214.023 2.98695 0.904854 0
M  V30 2436 N 214.325 -0.140222 1.56975 0
M  V30 2437 C 215.741 -0.493088 1.51792 0
M  V30 2438 C 215.941 -1.83013 0.843116 0
M  V30 2439 O 214.997 -2.49041 0.416493 0
M  V30 2440 C 216.31 -0.497144 2.96562 0
M  V30 2441 C 217.858 -0.582186 3.07538 0
M  V30 2442 C 218.333 -0.616838 4.53827 0
M  V30 2443 N 219.824 -0.678873 4.58198 0
M  V30 2444 C 220.559 -0.726782 5.68775 0
M  V30 2445 N 220.055 -0.733623 6.88905 0
M  V30 2446 N 221.848 -0.768179 5.56826 0
M  V30 2447 H 213.999 0.736108 1.99237 0
M  V30 2448 H 216.262 0.269182 0.90898 0
M  V30 2449 H 215.968 0.417217 3.49217 0
M  V30 2450 H 215.842 -1.33263 3.52875 0
M  V30 2451 H 218.229 -1.48697 2.54899 0
M  V30 2452 H 218.31 0.280581 2.54257 0
M  V30 2453 H 217.954 0.283812 5.07106 0
M  V30 2454 H 217.884 -1.49619 5.04898 0
M  V30 2455 H 220.375 -0.68061 3.7172 0
M  V30 2456 H 220.688 -0.772215 7.68932 0
M  V30 2457 H 219.033 -0.701389 6.91452 0
M  V30 2458 H 222.224 -0.760051 4.61888 0
M  V30 2459 H 222.397 -0.80205 6.43017 0
M  V30 2460 N 215.803 -1.52179 -0.40978 0
M  V30 2461 C 216.713 -1.78364 -1.52392 0
M  V30 2462 C 217.729 -0.669183 -1.60617 0
M  V30 2463 O 218.905 -0.954518 -1.77344 0
M  V30 2464 C 215.97 -1.92822 -2.88133 0
M  V30 2465 C 215.031 -3.16725 -2.898 0
M  V30 2466 C 214.264 -3.30483 -4.19067 0
M  V30 2467 O 214.487 -2.49522 -5.12928 0
M  V30 2468 O 213.421 -4.2363 -4.27576 0
M  V30 2469 H 217.247 -2.72931 -1.33201 0
M  V30 2470 H 214.832 -1.37016 -0.59557 0
M  V30 2471 H 216.714 -2.04157 -3.68643 0
M  V30 2472 H 215.389 -1.01444 -3.07393 0
M  V30 2473 H 214.296 -3.10848 -2.08146 0
M  V30 2474 H 215.629 -4.07881 -2.75489 0
M  V30 2475 N 217.281 0.66697 -1.42791 0
M  V30 2476 C 218.527 1.4291 -1.43891 0
M  V30 2477 C 218.86 1.94114 -0.0578972 0
M  V30 2478 O 218.135 1.71414 0.91911 0
M  V30 2479 C 218.418 2.62049 -2.46987 0
M  V30 2480 C 218.271 2.16426 -3.94309 0
M  V30 2481 C 219.59 3.64266 -2.46978 0
M  V30 2482 H 216.709 0.518306 -0.523954 0
M  V30 2483 H 219.351 0.757321 -1.74255 0
M  V30 2484 H 217.501 3.19361 -2.21225 0
M  V30 2485 H 219.173 1.64221 -4.31079 0
M  V30 2486 H 217.416 1.47925 -4.078 0
M  V30 2487 H 218.087 3.02038 -4.62036 0
M  V30 2488 H 220.563 3.16686 -2.69906 0
M  V30 2489 H 219.439 4.45196 -3.21079 0
M  V30 2490 H 219.7 4.15927 -1.49857 0
M  V30 2491 N 218.759 1.29093 0.90403 0
M  V30 2492 C 219.989 1.19516 1.68522 0
M  V30 2493 C 220.397 -0.24738 1.87576 0
M  V30 2494 O 219.74 -1.17798 1.40959 0
M  V30 2495 C 219.802 1.83249 3.0929 0
M  V30 2496 C 219.466 3.32531 3.13484 0
M  V30 2497 C 220.463 4.28821 2.93953 0
M  V30 2498 C 218.148 3.73656 3.35688 0
M  V30 2499 C 220.142 5.64212 2.96553 0
M  V30 2500 C 217.829 5.0917 3.37919 0
M  V30 2501 C 218.827 6.04258 3.18373 0
M  V30 2502 O 218.515 7.37298 3.20385 0
M  V30 2503 H 218.247 0.415467 0.533257 0
M  V30 2504 H 220.801 1.70912 1.13922 0
M  V30 2505 H 219.031 1.26358 3.65473 0
M  V30 2506 H 220.72 1.68054 3.69476 0
M  V30 2507 H 221.486 3.98382 2.76616 0
M  V30 2508 H 217.365 3.00101 3.49943 0
M  V30 2509 H 220.909 6.38407 2.81216 0
M  V30 2510 H 216.806 5.39256 3.54787 0
M  V30 2511 H 217.574 7.46048 3.36681 0
M  V30 2512 N 220.237 -1.11381 1.11499 0
M  V30 2513 C 221.653 -1.35143 0.849031 0
M  V30 2514 C 221.853 -1.94515 -0.525938 0
M  V30 2515 O 220.909 -2.1785 -1.27662 0
M  V30 2516 C 222.222 -2.28249 1.95762 0
M  V30 2517 C 223.77 -2.41812 1.98736 0
M  V30 2518 C 224.245 -3.3824 3.088 0
M  V30 2519 N 225.736 -3.45803 3.08179 0
M  V30 2520 C 226.471 -4.20358 3.89982 0
M  V30 2521 N 225.967 -4.97884 4.8175 0
M  V30 2522 N 227.76 -4.15877 3.78157 0
M  V30 2523 H 219.911 -0.712062 2.00109 0
M  V30 2524 H 222.174 -0.376025 0.870235 0
M  V30 2525 H 221.88 -1.91817 2.94787 0
M  V30 2526 H 221.754 -3.28473 1.85433 0
M  V30 2527 H 224.141 -2.77518 1.00338 0
M  V30 2528 H 224.222 -1.41437 2.13141 0
M  V30 2529 H 223.866 -3.03261 4.07425 0
M  V30 2530 H 223.796 -4.38471 2.91635 0
M  V30 2531 H 226.287 -2.90506 2.41691 0
M  V30 2532 H 226.6 -5.52142 5.40702 0
M  V30 2533 H 224.945 -4.97043 4.85771 0
M  V30 2534 H 228.136 -3.544 3.05808 0
M  V30 2535 H 228.309 -4.73723 4.42143 0
M  V30 2536 N 221.715 -0.905404 -1.28997 0
M  V30 2537 C 222.665 -0.358713 -2.25161 0
M  V30 2538 C 223.649 0.524449 -1.52113 0
M  V30 2539 O 224.841 0.365534 -1.73184 0
M  V30 2540 C 221.97 0.407609 -3.40872 0
M  V30 2541 C 221.056 -0.490797 -4.21251 0
M  V30 2542 N 221.447 -1.60061 -4.79806 0
M  V30 2543 C 219.745 -0.289636 -4.45059 0
M  V30 2544 C 220.446 -2.15757 -5.40207 0
M  V30 2545 N 219.422 -1.44988 -5.23908 0
M  V30 2546 H 223.224 -1.20642 -2.67998 0
M  V30 2547 H 220.738 -0.757103 -1.43672 0
M  V30 2548 H 222.735 0.816046 -4.08835 0
M  V30 2549 H 221.395 1.25251 -2.9957 0
M  V30 2550 H 222.406 -1.98329 -4.7842 0
M  V30 2551 H 219.083 0.51643 -4.14294 0
M  V30 2552 H 220.473 -3.09069 -5.96595 0
M  V30 2553 N 223.193 1.4272 -0.668489 0
M  V30 2554 C 224.44 2.01624 -0.18814 0
M  V30 2555 C 224.768 1.5282 1.20317 0
M  V30 2556 O 224.023 0.718323 1.8204 0
M  V30 2557 C 224.322 3.57021 -0.164499 0
M  V30 2558 C 223.988 4.25232 -1.49962 0
M  V30 2559 C 222.65 4.4358 -1.8652 0
M  V30 2560 C 225.002 4.63727 -2.37921 0
M  V30 2561 C 222.33 4.97694 -3.10674 0
M  V30 2562 C 224.682 5.19218 -3.6138 0
M  V30 2563 C 223.346 5.3578 -3.98115 0
M  V30 2564 H 222.616 0.737795 -0.0688454 0
M  V30 2565 H 225.263 1.70991 -0.862225 0
M  V30 2566 H 223.568 3.87285 0.593079 0
M  V30 2567 H 225.265 4.00372 0.224271 0
M  V30 2568 H 221.855 4.11306 -1.20522 0
M  V30 2569 H 226.039 4.4923 -2.10964 0
M  V30 2570 H 221.295 5.08702 -3.39164 0
M  V30 2571 H 225.469 5.4799 -4.29743 0
M  V30 2572 H 223.096 5.77475 -4.94395 0
M  V30 2573 N 224.671 0.411399 1.52136 0
M  V30 2574 C 225.919 -0.163322 2.01439 0
M  V30 2575 C 226.24 -1.45453 1.29879 0
M  V30 2576 O 225.51 -1.91225 0.4254 0
M  V30 2577 H 224.09 -0.0633447 0.744309 0
M  V30 2578 H 226.752 0.548161 1.87033 0
M  V30 2579 H 225.848 -0.357817 3.10042 0
M  V30 2580 N 226.149 -1.5696 0.141893 0
M  V30 2581 C 227.096 -2.16501 -0.799737 0
M  V30 2582 C 228.066 -1.09643 -1.24771 0
M  V30 2583 O 229.251 -1.3766 -1.32115 0
M  V30 2584 C 226.391 -2.78679 -2.03549 0
M  V30 2585 C 225.504 -3.99914 -1.6338 0
M  V30 2586 C 224.639 -4.50106 -2.82096 0
M  V30 2587 C 223.678 -5.63819 -2.38275 0
M  V30 2588 N 222.815 -6.08651 -3.49983 0
M  V30 2589 H 227.655 -2.96632 -0.285179 0
M  V30 2590 H 225.192 -1.46533 -0.129053 0
M  V30 2591 H 227.15 -3.1287 -2.75986 0
M  V30 2592 H 225.78 -2.012 -2.52425 0
M  V30 2593 H 224.832 -3.71735 -0.807279 0
M  V30 2594 H 226.144 -4.82311 -1.27192 0
M  V30 2595 H 225.298 -4.86325 -3.62729 0
M  V30 2596 H 224.037 -3.66706 -3.21525 0
M  V30 2597 H 223.042 -5.2718 -1.56081 0
M  V30 2598 H 224.267 -6.49 -1.99938 0
M  V30 2599 H 222.213 -5.28188 -3.89042 0
M  V30 2600 H 222.13 -6.85961 -3.17794 0
M  V30 2601 H 223.398 -6.49515 -4.30988 0
M  V30 2602 N 227.627 0.131896 -1.57047 0
M  V30 2603 C 228.59 1.14638 -1.98471 0
M  V30 2604 C 229.59 1.35029 -0.873148 0
M  V30 2605 O 230.78 1.31764 -1.13946 0
M  V30 2606 C 227.912 2.50358 -2.31373 0
M  V30 2607 H 229.105 0.79064 -2.8929 0
M  V30 2608 H 226.658 0.375761 -1.51716 0
M  V30 2609 H 227.393 2.90876 -1.43393 0
M  V30 2610 H 227.178 2.36915 -3.12432 0
M  V30 2611 H 228.668 3.23395 -2.64207 0
M  V30 2612 N 229.106 1.52395 0.401703 0
M  V30 2613 C 230.517 1.58899 0.980202 0
M  V30 2614 C 230.868 0.434032 1.91339 0
M  V30 2615 O 229.993 -0.444619 2.11783 0
M  V30 2616 C 230.588 2.87994 1.78451 0
M  V30 2617 C 229.147 2.96953 2.31292 0
M  V30 2618 C 228.294 2.53903 1.11483 0
M  V30 2619 H 231.245 1.57657 0.18168 0
M  V30 2620 H 231.266 2.73765 2.64259 0
M  V30 2621 H 230.778 3.72035 1.10506 0
M  V30 2622 H 228.879 2.17422 3.02586 0
M  V30 2623 H 228.992 4.01344 2.61649 0
M  V30 2624 H 227.356 2.07925 1.47104 0
M  V30 2625 H 228.139 3.40326 0.450928 0
M  V30 2626 N 230.584 -0.659388 1.43143 0
M  V30 2627 C 231.832 -1.41654 1.44147 0
M  V30 2628 C 232.153 -1.94893 0.0645739 0
M  V30 2629 O 231.423 -1.74044 -0.899198 0
M  V30 2630 H 230.003 -0.525708 0.530697 0
M  V30 2631 H 232.665 -0.778097 1.78694 0
M  V30 2632 H 231.761 -2.26195 2.1504 0
M  V30 2633 N 232.062 -1.29571 -0.897171 0
M  V30 2634 C 233.29 -1.20583 -1.68129 0
M  V30 2635 C 233.705 0.233181 -1.87354 0
M  V30 2636 O 233.062 1.15579 -1.41236 0
M  V30 2637 C 233.113 -1.91772 -3.06441 0
M  V30 2638 O 232.834 -3.30053 -2.88091 0
M  V30 2639 C 234.335 -1.89291 -4.00854 0
M  V30 2640 H 231.555 -0.417826 -0.525036 0
M  V30 2641 H 234.099 -1.70987 -1.12177 0
M  V30 2642 H 232.254 -1.45196 -3.59161 0
M  V30 2643 H 232.668 -3.65942 -3.75748 0
M  V30 2644 H 234.142 -2.43662 -4.95311 0
M  V30 2645 H 234.619 -0.869014 -4.30517 0
M  V30 2646 H 235.225 -2.35622 -3.54066 0
M  V30 2647 N 233.54 1.10788 -1.12088 0
M  V30 2648 C 234.951 1.64181 -0.88891 0
M  V30 2649 C 235.302 1.87508 0.577498 0
M  V30 2650 O 234.427 1.61434 1.44112 0
M  V30 2651 C 235.022 2.98257 -1.60712 0
M  V30 2652 C 233.581 3.4853 -1.42139 0
M  V30 2653 C 232.728 2.23208 -1.6454 0
M  V30 2654 H 235.679 0.943368 -1.27618 0
M  V30 2655 H 235.7 3.65552 -1.05604 0
M  V30 2656 H 235.212 2.81246 -2.67436 0
M  V30 2657 H 233.313 3.70692 -0.376552 0
M  V30 2658 H 233.426 4.26882 -2.17505 0
M  V30 2659 H 231.79 2.31169 -1.06925 0
M  V30 2660 H 232.573 2.08733 -2.72554 0
M  V30 2661 N 235.018 0.912232 1.28515 0
M  V30 2662 C 235.968 0.370649 2.24967 0
M  V30 2663 C 236.952 -0.516375 1.52389 0
M  V30 2664 O 238.144 -0.356345 1.73376 0
M  V30 2665 C 235.273 -0.389526 3.41083 0
M  V30 2666 C 234.359 0.51313 4.20984 0
M  V30 2667 N 234.75 1.62604 4.78951 0
M  V30 2668 C 233.048 0.313235 4.44899 0
M  V30 2669 C 233.749 2.18619 5.39055 0
M  V30 2670 N 232.725 1.47765 5.23132 0
M  V30 2671 H 236.527 1.22061 2.67354 0
M  V30 2672 H 234.041 0.764712 1.43269 0
M  V30 2673 H 236.038 -0.794353 4.09262 0
M  V30 2674 H 234.698 -1.2366 3.0023 0
M  V30 2675 H 235.709 2.00864 4.77362 0
M  V30 2676 H 232.386 -0.494452 4.14562 0
M  V30 2677 H 233.776 3.12228 5.94948 0
M  V30 2678 N 236.496 -1.42363 0.676048 0
M  V30 2679 C 237.721 -2.06377 0.205705 0
M  V30 2680 C 238.146 -1.50463 -1.12883 0
M  V30 2681 O 237.504 -0.623619 -1.70237 0
M  V30 2682 C 237.552 -3.60277 0.152655 0
M  V30 2683 O 236.656 -4.02935 -0.87845 0
M  V30 2684 H 235.997 -0.655588 0.105359 0
M  V30 2685 H 238.527 -1.82475 0.925412 0
M  V30 2686 H 238.537 -4.07993 -0.0230675 0
M  V30 2687 H 237.212 -4.00346 1.12675 0
M  V30 2688 H 235.789 -3.66764 -0.673668 0
M  V30 2689 N 237.974 -0.419461 -1.51915 0
M  V30 2690 C 238.924 0.418496 -2.24126 0
M  V30 2691 C 239.908 1.00495 -1.25656 0
M  V30 2692 O 241.1 0.926058 -1.50842 0
M  V30 2693 C 238.229 1.52899 -3.07371 0
M  V30 2694 C 237.315 0.952797 -4.13258 0
M  V30 2695 N 237.706 0.104175 -5.05693 0
M  V30 2696 C 236.004 1.22224 -4.28926 0
M  V30 2697 C 236.705 -0.21752 -5.81293 0
M  V30 2698 N 235.681 0.394293 -5.42168 0
M  V30 2699 H 239.483 -0.236048 -2.92951 0
M  V30 2700 H 236.997 -0.230481 -1.60756 0
M  V30 2701 H 238.994 2.14199 -3.57665 0
M  V30 2702 H 237.654 2.18605 -2.40088 0
M  V30 2703 H 238.665 -0.260924 -5.17242 0
M  V30 2704 H 235.342 1.87812 -3.72871 0
M  V30 2705 H 236.732 -0.906992 -6.6575 0
M  V30 2706 N 239.452 1.56882 -0.150215 0
M  V30 2707 C 240.68 2.00593 0.506948 0
M  V30 2708 C 241.095 1.03033 1.58208 0
M  V30 2709 O 240.452 0.0278396 1.82479 0
M  V30 2710 C 240.503 3.44209 1.10465 0
M  V30 2711 O 240.224 4.3804 0.0724636 0
M  V30 2712 C 241.725 4.03214 1.84211 0
M  V30 2713 H 238.945 0.65795 0.13169 0
M  V30 2714 H 241.489 2.03018 -0.245743 0
M  V30 2715 H 239.644 3.42625 1.80795 0
M  V30 2716 H 240.058 5.22007 0.510793 0
M  V30 2717 H 241.532 5.0569 2.21318 0
M  V30 2718 H 242.009 3.44107 2.72923 0
M  V30 2719 H 242.615 4.08437 1.18572 0
M  V30 2720 N 240.93 -0.123565 1.57115 0
M  V30 2721 C 241.877 -1.15177 2.00007 0
M  V30 2722 C 242.847 -1.41403 0.871454 0
M  V30 2723 O 244.032 -1.53346 1.13533 0
M  V30 2724 C 241.172 -2.47436 2.40561 0
M  V30 2725 C 240.285 -2.28184 3.66819 0
M  V30 2726 C 239.42 -3.53641 3.96373 0
M  V30 2727 C 238.459 -3.29528 5.15827 0
M  V30 2728 N 237.596 -4.47175 5.41275 0
M  V30 2729 H 242.436 -0.779008 2.87638 0
M  V30 2730 H 239.973 -0.373166 1.42288 0
M  V30 2731 H 241.931 -3.24584 2.62109 0
M  V30 2732 H 240.561 -2.82614 1.55978 0
M  V30 2733 H 239.613 -1.41976 3.52912 0
M  V30 2734 H 240.925 -2.0634 4.5412 0
M  V30 2735 H 240.079 -4.39209 4.18545 0
M  V30 2736 H 238.818 -3.78512 3.07538 0
M  V30 2737 H 237.823 -2.42349 4.93505 0
M  V30 2738 H 239.048 -3.06031 6.06236 0
M  V30 2739 H 236.994 -4.72175 4.55397 0
M  V30 2740 H 236.911 -4.28419 6.22891 0
M  V30 2741 H 238.179 -5.3389 5.67963 0
M  V30 2742 N 242.408 -1.52605 -0.393616 0
M  V30 2743 C 243.819 -1.59417 -0.971761 0
M  V30 2744 C 244.17 -0.444173 -1.91106 0
M  V30 2745 O 243.295 0.433382 -2.12016 0
M  V30 2746 C 243.89 -2.88936 -1.76921 0
M  V30 2747 C 242.449 -2.98175 -2.29714 0
M  V30 2748 C 241.596 -2.54491 -1.10135 0
M  V30 2749 H 244.547 -1.57751 -0.173317 0
M  V30 2750 H 244.568 -2.75163 -2.62804 0
M  V30 2751 H 244.08 -3.72616 -1.08532 0
M  V30 2752 H 242.181 -2.19024 -3.01429 0
M  V30 2753 H 242.294 -4.02726 -2.59517 0
M  V30 2754 H 240.658 -2.08702 -1.45999 0
M  V30 2755 H 241.441 -3.4056 -0.432874 0
M  V30 2756 N 243.887 0.651787 -1.4349 0
M  V30 2757 C 245.117 1.43728 -1.48411 0
M  V30 2758 C 245.525 1.8893 -0.10103 0
M  V30 2759 O 244.868 1.60182 0.899307 0
M  V30 2760 C 244.93 2.70411 -2.36893 0
M  V30 2761 C 244.594 2.4714 -3.8441 0
M  V30 2762 C 245.591 2.10271 -4.75481 0
M  V30 2763 C 243.276 2.6142 -4.28912 0
M  V30 2764 C 245.27 1.87982 -6.0905 0
M  V30 2765 C 242.957 2.38746 -5.62533 0
M  V30 2766 C 243.955 2.02083 -6.5242 0
M  V30 2767 O 243.643 1.79647 -7.8357 0
M  V30 2768 H 243.375 0.447962 -0.506267 0
M  V30 2769 H 245.929 0.80624 -1.88915 0
M  V30 2770 H 244.159 3.36079 -1.91278 0
M  V30 2771 H 245.848 3.32364 -2.33 0
M  V30 2772 H 246.614 1.98814 -4.42378 0
M  V30 2773 H 242.493 2.88931 -3.59222 0
M  V30 2774 H 246.037 1.5929 -6.7917 0
M  V30 2775 H 241.934 2.49806 -5.95203 0
M  V30 2776 H 242.702 1.9406 -7.95162 0
M  V30 2777 N 245.365 1.30045 0.890287 0
M  V30 2778 C 246.611 1.18737 1.64406 0
M  V30 2779 C 246.944 -0.258525 1.92472 0
M  V30 2780 O 246.219 -1.18562 1.54186 0
M  V30 2781 C 246.502 2.01087 2.98724 0
M  V30 2782 C 246.355 3.53867 2.77665 0
M  V30 2783 C 247.674 1.84457 3.9958 0
M  V30 2784 H 244.793 0.432698 0.596608 0
M  V30 2785 H 247.435 1.5962 1.0306 0
M  V30 2786 H 245.585 1.66349 3.51084 0
M  V30 2787 H 247.257 3.98637 2.32133 0
M  V30 2788 H 245.5 3.78318 2.12269 0
M  V30 2789 H 246.171 4.06772 3.7315 0
M  V30 2790 H 248.647 2.14817 3.56361 0
M  V30 2791 H 247.523 2.44411 4.91482 0
M  V30 2792 H 247.784 0.802276 4.3476 0
M  V30 2793 N 246.843 -1.10192 1.12674 0
M  V30 2794 C 248.259 -1.34235 0.863317 0
M  V30 2795 C 248.459 -1.95062 -0.505277 0
M  V30 2796 O 247.515 -2.19192 -1.25345 0
M  V30 2797 C 248.828 -2.2616 1.98172 0
M  V30 2798 C 250.376 -2.3969 2.0129 0
M  V30 2799 C 250.851 -3.34946 3.1237 0
M  V30 2800 N 252.342 -3.42515 3.11829 0
M  V30 2801 C 253.077 -4.16199 3.94419 0
M  V30 2802 N 252.573 -4.92747 4.87004 0
M  V30 2803 N 254.366 -4.11843 3.82547 0
M  V30 2804 H 246.517 -0.690798 2.00853 0
M  V30 2805 H 248.78 -0.366774 0.874174 0
M  V30 2806 H 248.486 -1.8868 2.96804 0
M  V30 2807 H 248.36 -3.26488 1.88906 0
M  V30 2808 H 250.747 -2.76438 1.03276 0
M  V30 2809 H 250.828 -1.39169 2.14629 0
M  V30 2810 H 250.472 -2.98923 4.10619 0
M  V30 2811 H 250.402 -4.35353 2.96269 0
M  V30 2812 H 252.893 -2.87926 2.44759 0
M  V30 2813 H 253.206 -5.46376 5.46528 0
M  V30 2814 H 251.551 -4.91862 4.91016 0
M  V30 2815 H 254.742 -3.51136 3.0955 0
M  V30 2816 H 254.915 -4.69007 4.47142 0
M  V30 2817 N 248.321 -0.919034 -1.28029 0
M  V30 2818 C 249.546 -0.570357 -1.99403 0
M  V30 2819 C 249.971 0.842486 -1.68178 0
M  V30 2820 O 249.329 1.56391 -0.917141 0
M  V30 2821 C 249.377 -0.792541 -3.51783 0
M  V30 2822 O 248.481 0.145988 -4.12142 0
M  V30 2823 H 247.822 -0.220555 -0.6263 0
M  V30 2824 H 250.352 -1.23592 -1.63053 0
M  V30 2825 H 250.362 -0.704708 -4.01868 0
M  V30 2826 H 249.037 -1.82247 -3.73844 0
M  V30 2827 H 247.614 0.00897528 -3.72899 0
M  V30 2828 N 249.799 1.42003 -0.683588 0
M  V30 2829 C 250.746 2.30798 -0.0107309 0
M  V30 2830 C 251.716 1.4645 0.783688 0
M  V30 2831 O 252.901 1.75263 0.754156 0
M  V30 2832 C 250.041 3.3238 0.928306 0
M  V30 2833 C 249.154 4.31814 0.126776 0
M  V30 2834 C 248.289 5.20468 1.06236 0
M  V30 2835 C 247.328 6.11577 0.253035 0
M  V30 2836 N 246.465 6.92754 1.14179 0
M  V30 2837 H 251.305 2.8778 -0.773727 0
M  V30 2838 H 248.842 1.41745 -0.393283 0
M  V30 2839 H 250.8 3.89813 1.48666 0
M  V30 2840 H 249.43 2.76976 1.65783 0
M  V30 2841 H 248.482 3.76427 -0.54833 0
M  V30 2842 H 249.794 4.96276 -0.501192 0
M  V30 2843 H 248.948 5.82677 1.69035 0
M  V30 2844 H 247.687 4.56204 1.7242 0
M  V30 2845 H 246.692 5.48428 -0.388108 0
M  V30 2846 H 247.917 6.77892 -0.404839 0
M  V30 2847 H 245.863 6.3111 1.78987 0
M  V30 2848 H 245.78 7.53855 0.569111 0
M  V30 2849 H 247.048 7.59441 1.75697 0
M  V30 2850 N 251.277 0.427512 1.51691 0
M  V30 2851 C 252.525 -0.141948 2.01601 0
M  V30 2852 C 252.846 -1.44067 1.31414 0
M  V30 2853 O 252.116 -1.90763 0.445658 0
M  V30 2854 H 250.696 -0.0554468 0.744939 0
M  V30 2855 H 253.358 0.567968 1.86441 0
M  V30 2856 H 252.454 -0.324913 3.10404 0
M  V30 2857 N 252.755 -1.56801 0.158532 0
M  V30 2858 C 254.171 -1.5837 -0.197774 0
M  V30 2859 C 254.371 -1.17334 -1.63814 0
M  V30 2860 O 253.427 -0.878988 -2.36707 0
M  V30 2861 C 254.74 -3.00615 0.0714459 0
M  V30 2862 C 256.288 -3.12999 0.00864533 0
M  V30 2863 C 256.763 -4.57313 0.250685 0
M  V30 2864 N 258.254 -4.62777 0.198014 0
M  V30 2865 C 258.989 -5.72271 0.359642 0
M  V30 2866 N 258.485 -6.90371 0.579625 0
M  V30 2867 N 260.278 -5.61318 0.296438 0
M  V30 2868 H 252.429 -1.81765 1.09887 0
M  V30 2869 H 254.692 -0.841849 0.435884 0
M  V30 2870 H 254.398 -3.35068 1.06874 0
M  V30 2871 H 254.272 -3.71683 -0.642757 0
M  V30 2872 H 256.659 -2.7838 -0.979217 0
M  V30 2873 H 256.74 -2.44393 0.755359 0
M  V30 2874 H 256.384 -4.92639 1.2357 0
M  V30 2875 H 256.314 -5.24061 -0.516489 0
M  V30 2876 H 258.805 -3.77885 0.0331115 0
M  V30 2877 H 259.118 -7.69689 0.69275 0
M  V30 2878 H 257.463 -6.92264 0.616087 0
M  V30 2879 H 260.654 -4.67932 0.125258 0
M  V30 2880 H 260.827 -6.46599 0.425831 0
M  V30 2881 N 254.233 0.115231 -1.57178 0
M  V30 2882 C 255.18 1.14115 -2.00615 0
M  V30 2883 C 256.15 1.40939 -0.878941 0
M  V30 2884 O 257.335 1.52741 -1.14345 0
M  V30 2885 C 254.475 2.46156 -2.4187 0
M  V30 2886 C 253.588 2.26236 -3.68024 0
M  V30 2887 C 252.723 3.51534 -3.98243 0
M  V30 2888 C 251.762 3.26787 -5.17568 0
M  V30 2889 N 250.899 4.44298 -5.43639 0
M  V30 2890 H 255.739 0.763743 -2.88047 0
M  V30 2891 H 253.276 0.365615 -1.42484 0
M  V30 2892 H 255.234 3.23189 -2.63827 0
M  V30 2893 H 253.864 2.81783 -1.57475 0
M  V30 2894 H 252.916 1.40102 -3.5366 0
M  V30 2895 H 254.228 2.03929 -4.55208 0
M  V30 2896 H 253.382 4.36984 -4.20868 0
M  V30 2897 H 252.121 3.76876 -3.09541 0
M  V30 2898 H 251.126 2.39729 -4.94783 0
M  V30 2899 H 252.351 3.02812 -6.0785 0
M  V30 2900 H 250.297 4.69754 -4.57895 0
M  V30 2901 H 250.214 4.25109 -6.25154 0
M  V30 2902 H 251.482 5.3087 -5.70786 0
M  V30 2903 N 255.711 1.52812 0.385517 0
M  V30 2904 C 256.958 1.68026 1.1302 0
M  V30 2905 C 257.286 0.421934 1.89868 0
M  V30 2906 O 256.541 -0.595749 1.86412 0
M  V30 2907 C 256.84 2.86856 2.13187 0
M  V30 2908 C 256.506 4.24159 1.5297 0
M  V30 2909 C 255.168 4.61501 1.36274 0
M  V30 2910 C 257.52 5.09627 1.09223 0
M  V30 2911 C 254.848 5.81966 0.743837 0
M  V30 2912 C 257.2 6.30719 0.487411 0
M  V30 2913 C 255.864 6.6679 0.307777 0
M  V30 2914 H 255.134 0.614849 0.413571 0
M  V30 2915 H 257.781 1.86962 0.414405 0
M  V30 2916 H 256.086 2.6235 2.90998 0
M  V30 2917 H 257.783 2.95821 2.70722 0
M  V30 2918 H 254.373 3.94746 1.66954 0
M  V30 2919 H 258.557 4.81343 1.20922 0
M  V30 2920 H 253.813 6.08519 0.592891 0
M  V30 2921 H 257.987 6.96259 0.140143 0
M  V30 2922 H 255.614 7.60001 -0.173879 0
M  V30 2923 N 257.189 -0.644168 1.43834 0
M  V30 2924 C 258.099 -1.78563 1.52159 0
M  V30 2925 C 259.115 -1.69147 0.408069 0
M  V30 2926 O 260.291 -1.90156 0.663524 0
M  V30 2927 C 257.356 -3.14888 1.45073 0
M  V30 2928 C 256.417 -3.36034 2.6717 0
M  V30 2929 C 255.65 -4.65855 2.60413 0
M  V30 2930 O 255.873 -5.45805 1.65689 0
M  V30 2931 O 254.807 -4.88918 3.5106 0
M  V30 2932 H 258.633 -1.74494 2.48567 0
M  V30 2933 H 256.218 -0.80378 1.25935 0
M  V30 2934 H 258.1 -3.96179 1.43597 0
M  V30 2935 H 256.775 -3.19528 0.518037 0
M  V30 2936 H 255.682 -2.54472 2.74217 0
M  V30 2937 H 257.015 -3.36247 3.59442 0
M  V30 2938 N 258.668 -1.30515 -0.883378 0
M  V30 2939 C 260.084 -1.08881 -1.16692 0
M  V30 2940 C 260.284 0.149409 -2.00945 0
M  V30 2941 O 259.34 0.84257 -2.38027 0
M  V30 2942 C 260.653 -2.35319 -1.87204 0
M  V30 2943 C 262.201 -2.40799 -1.99962 0
M  V30 2944 C 262.676 -3.67083 -2.73887 0
M  V30 2945 N 264.167 -3.679 -2.81432 0
M  V30 2946 C 264.902 -4.62303 -3.3921 0
M  V30 2947 N 264.398 -5.67052 -3.98025 0
M  V30 2948 N 266.191 -4.49845 -3.3704 0
M  V30 2949 H 258.342 -2.09951 -0.321633 0
M  V30 2950 H 260.605 -0.92556 -0.205043 0
M  V30 2951 H 260.311 -3.25689 -1.3274 0
M  V30 2952 H 260.185 -2.44089 -2.87577 0
M  V30 2953 H 262.572 -1.50907 -2.53597 0
M  V30 2954 H 262.653 -2.36003 -0.98673 0
M  V30 2955 H 262.297 -4.57334 -2.20925 0
M  V30 2956 H 262.227 -3.69141 -3.75556 0
M  V30 2957 H 264.718 -2.92171 -2.39676 0
M  V30 2958 H 265.031 -6.35184 -4.40183 0
M  V30 2959 H 263.376 -5.70842 -3.96439 0
M  V30 2960 H 266.567 -3.67194 -2.90321 0
M  V30 2961 H 266.74 -5.23597 -3.81772 0
M  V30 2962 N 260.146 1.09593 -1.13257 0
M  V30 2963 C 261.109 2.14359 -0.811358 0
M  V30 2964 C 262.109 1.59808 0.178377 0
M  V30 2965 O 263.299 1.74132 -0.0484911 0
M  V30 2966 C 260.431 3.40269 -0.207276 0
M  V30 2967 H 261.624 2.44284 -1.73969 0
M  V30 2968 H 259.177 1.25102 -0.936973 0
M  V30 2969 H 259.912 3.15969 0.73036 0
M  V30 2970 H 259.697 3.81154 -0.919992 0
M  V30 2971 H 261.187 4.176 0.000667944 0
M  V30 2972 N 261.624 0.925811 1.2754 0
M  V30 2973 C 263.04 0.625767 1.46821 0
M  V30 2974 C 263.24 -0.825506 1.83814 0
M  V30 2975 O 262.296 -1.60356 1.95044 0
M  V30 2976 C 263.609 1.57402 2.56213 0
M  V30 2977 C 265.157 1.58204 2.70075 0
M  V30 2978 C 265.632 2.51721 3.82623 0
M  V30 2979 N 267.123 2.49917 3.89994 0
M  V30 2980 C 267.858 3.18968 4.76494 0
M  V30 2981 N 267.354 3.97391 5.67496 0
M  V30 2982 N 269.147 3.07996 4.70208 0
M  V30 2983 H 261.298 1.86409 1.01811 0
M  V30 2984 H 263.561 0.800213 0.508295 0
M  V30 2985 H 263.267 2.60925 2.35819 0
M  V30 2986 H 263.141 1.31428 3.53563 0
M  V30 2987 H 265.528 0.554124 2.89851 0
M  V30 2988 H 265.609 1.88226 1.73218 0
M  V30 2989 H 265.253 3.54622 3.63601 0
M  V30 2990 H 265.183 2.18996 4.78903 0
M  V30 2991 H 267.674 1.9296 3.24923 0
M  V30 2992 H 267.987 4.4707 6.30356 0
M  V30 2993 H 266.332 4.01495 5.67298 0
M  V30 2994 H 269.523 2.46223 3.9811 0
M  V30 2995 H 269.696 3.6208 5.37403 0
M  V30 2996 N 263.102 -1.41638 0.69111 0
M  V30 2997 C 264.35 -2.00902 0.219758 0
M  V30 2998 C 264.671 -1.54994 -1.18329 0
M  V30 2999 O 263.941 -0.778628 -1.79762 0
M  V30 3000 H 262.521 -0.74289 0.0782558 0
M  V30 3001 H 265.183 -1.73327 0.891271 0
M  V30 3002 H 264.279 -3.11224 0.233708 0
M  V30 3003 N 264.58 -0.43555 -1.51462 0
M  V30 3004 C 265.996 -0.0877501 -1.59359 0
M  V30 3005 C 266.196 1.4027 -1.4466 0
M  V30 3006 O 265.252 2.17243 -1.28693 0
M  V30 3007 C 266.565 -0.606264 -2.94525 0
M  V30 3008 C 268.113 -0.566548 -3.0783 0
M  V30 3009 C 268.588 -1.06201 -4.45517 0
M  V30 3010 N 270.079 -1.01992 -4.51832 0
M  V30 3011 C 270.814 -1.37417 -5.5669 0
M  V30 3012 N 270.31 -1.80119 -6.68976 0
M  V30 3013 N 272.103 -1.29245 -5.47039 0
M  V30 3014 H 264.254 -1.40533 -1.59261 0
M  V30 3015 H 266.517 -0.578992 -0.750648 0
M  V30 3016 H 266.223 -1.64901 -3.10645 0
M  V30 3017 H 266.097 -0.0302097 -3.77188 0
M  V30 3018 H 268.484 0.467208 -2.91378 0
M  V30 3019 H 268.565 -1.17898 -2.2701 0
M  V30 3020 H 268.209 -2.09422 -4.62715 0
M  V30 3021 H 268.139 -0.426127 -5.24873 0
M  V30 3022 H 270.63 -0.706308 -3.71241 0
M  V30 3023 H 270.943 -2.05392 -7.45006 0
M  V30 3024 H 269.288 -1.84044 -6.70189 0
M  V30 3025 H 272.479 -0.957522 -4.58202 0
M  V30 3026 H 272.652 -1.57182 -6.28648 0
M  V30 3027 N 266.058 1.56714 -0.166846 0
M  V30 3028 C 267.474 1.58473 0.189372 0
M  V30 3029 C 267.674 1.18201 1.63189 0
M  V30 3030 O 266.73 0.891528 2.36237 0
M  V30 3031 C 268.043 3.00573 -0.0873872 0
M  V30 3032 C 269.591 3.1299 -0.0252443 0
M  V30 3033 C 270.066 4.57174 -0.274934 0
M  V30 3034 N 271.557 4.62665 -0.222553 0
M  V30 3035 C 272.292 5.72072 -0.389985 0
M  V30 3036 N 271.788 6.90054 -0.616229 0
M  V30 3037 N 273.581 5.61153 -0.326202 0
M  V30 3038 H 265.732 1.8118 -1.10849 0
M  V30 3039 H 267.995 0.839525 -0.440342 0
M  V30 3040 H 267.701 3.34497 -1.0865 0
M  V30 3041 H 267.575 3.72019 0.623037 0
M  V30 3042 H 269.962 2.78895 0.96444 0
M  V30 3043 H 270.043 2.43989 -0.768309 0
M  V30 3044 H 269.687 4.91976 -1.26181 0
M  V30 3045 H 269.617 5.24328 0.48869 0
M  V30 3046 H 272.108 3.77863 -0.0531512 0
M  V30 3047 H 272.421 7.69311 -0.733559 0
M  V30 3048 H 270.766 6.91927 -0.652791 0
M  V30 3049 H 273.957 4.67859 -0.150072 0
M  V30 3050 H 274.13 6.46364 -0.460116 0
M  V30 3051 N 267.536 -0.106894 1.57237 0
M  V30 3052 C 268.499 -1.11466 2.0027 0
M  V30 3053 C 269.499 -1.33623 0.894519 0
M  V30 3054 O 270.689 -1.29935 1.16028 0
M  V30 3055 C 267.821 -2.46646 2.35327 0
M  V30 3056 H 269.014 -0.744516 2.90512 0
M  V30 3057 H 266.567 -0.351576 1.52295 0
M  V30 3058 H 267.302 -2.88558 1.48003 0
M  V30 3059 H 267.087 -2.31915 3.16161 0
M  V30 3060 H 268.577 -3.19151 2.69318 0
M  V30 3061 N 269.014 -1.53014 -0.377408 0
M  V30 3062 C 270.239 -1.72818 -1.14668 0
M  V30 3063 C 270.664 -0.450725 -1.8262 0
M  V30 3064 O 270.022 0.59439 -1.7128 0
M  V30 3065 C 270.07 -2.88627 -2.16164 0
M  V30 3066 O 269.174 -2.56409 -3.22998 0
M  V30 3067 H 268.515 -0.574301 -0.333278 0
M  V30 3068 H 271.045 -1.99853 -0.438152 0
M  V30 3069 H 271.055 -3.14455 -2.59966 0
M  V30 3070 H 269.73 -3.81294 -1.66095 0
M  V30 3071 H 268.307 -2.4136 -2.84253 0
M  V30 3072 N 270.492 0.636531 -1.44174 0
M  V30 3073 C 271.908 0.954104 -1.27941 0
M  V30 3074 C 272.108 2.0039 -0.211248 0
M  V30 3075 O 271.164 2.49236 0.404695 0
M  V30 3076 C 272.477 1.4225 -2.64925 0
M  V30 3077 C 274.025 1.53827 -2.72592 0
M  V30 3078 C 274.5 2.04053 -4.10032 0
M  V30 3079 N 275.991 2.11331 -4.12182 0
M  V30 3080 C 276.726 2.51352 -5.15374 0
M  V30 3081 N 276.222 2.90549 -6.2893 0
M  V30 3082 N 278.015 2.51438 -5.02728 0
M  V30 3083 H 270.166 -0.0578386 -2.12321 0
M  V30 3084 H 272.429 0.0367406 -0.947288 0
M  V30 3085 H 272.135 0.725466 -3.44136 0
M  V30 3086 H 272.009 2.39451 -2.9145 0
M  V30 3087 H 274.396 2.22628 -1.93702 0
M  V30 3088 H 274.477 0.550154 -2.49814 0
M  V30 3089 H 274.121 1.35848 -4.89395 0
M  V30 3090 H 274.051 3.03726 -4.30184 0
M  V30 3091 H 276.542 1.83745 -3.30222 0
M  V30 3092 H 276.855 3.19884 -7.03487 0
M  V30 3093 H 275.2 2.88313 -6.32377 0
M  V30 3094 H 278.391 2.20203 -4.13072 0
M  V30 3095 H 278.564 2.82304 -5.83274 0
M  V30 3096 N 271.97 1.30982 0.876444 0
M  V30 3097 C 273.218 1.20058 1.62575 0
M  V30 3098 C 273.539 -0.242947 1.93481 0
M  V30 3099 O 272.809 -1.1619 1.57724 0
M  V30 3100 H 271.389 0.44135 0.602677 0
M  V30 3101 H 274.051 1.64222 1.04962 0
M  V30 3102 H 273.147 1.76762 2.57219 0
M  V30 3103 N 273.449 -1.08991 1.13837 0
M  V30 3104 C 274.679 -1.84743 0.924859 0
M  V30 3105 C 275.087 -1.81629 -0.529874 0
M  V30 3106 O 274.43 -1.21397 -1.37872 0
M  V30 3107 C 274.492 -3.33568 1.34061 0
M  V30 3108 C 274.156 -3.60425 2.80968 0
M  V30 3109 C 275.153 -3.55771 3.79108 0
M  V30 3110 C 272.838 -3.88627 3.18236 0
M  V30 3111 C 274.832 -3.78939 5.12527 0
M  V30 3112 C 272.519 -4.11449 4.51833 0
M  V30 3113 C 273.517 -4.06598 5.48787 0
M  V30 3114 O 273.205 -4.28826 6.79973 0
M  V30 3115 H 272.937 -0.590258 0.329502 0
M  V30 3116 H 275.491 -1.38598 1.51591 0
M  V30 3117 H 273.721 -3.80442 0.692853 0
M  V30 3118 H 275.41 -3.90743 1.09886 0
M  V30 3119 H 276.176 -3.34005 3.51661 0
M  V30 3120 H 272.055 -3.91526 2.43369 0
M  V30 3121 H 275.599 -3.75068 5.88192 0
M  V30 3122 H 271.496 -4.32698 4.79002 0
M  V30 3123 H 272.264 -4.46264 6.86142 0
M  V30 3124 N 274.927 -0.932562 -1.27047 0
M  V30 3125 C 275.874 -0.434072 -2.26681 0
M  V30 3126 C 276.844 0.501639 -1.58344 0
M  V30 3127 O 278.029 0.419734 -1.86126 0
M  V30 3128 C 275.169 0.30261 -3.43771 0
M  V30 3129 C 274.282 -0.667774 -4.26808 0
M  V30 3130 C 273.417 0.0892393 -5.31125 0
M  V30 3131 C 272.456 -0.873532 -6.05835 0
M  V30 3132 N 271.593 -0.148832 -7.01942 0
M  V30 3133 H 276.433 -1.28868 -2.68695 0
M  V30 3134 H 273.97 -0.646713 -1.32121 0
M  V30 3135 H 275.928 0.746092 -4.10474 0
M  V30 3136 H 274.558 1.12142 -3.02695 0
M  V30 3137 H 273.61 -1.22978 -3.59973 0
M  V30 3138 H 274.922 -1.40337 -4.78651 0
M  V30 3139 H 274.076 0.592409 -6.03801 0
M  V30 3140 H 272.815 0.85777 -4.80097 0
M  V30 3141 H 271.82 -1.38791 -5.31994 0
M  V30 3142 H 273.045 -1.64193 -6.58952 0
M  V30 3143 H 270.991 0.601365 -6.53238 0
M  V30 3144 H 270.908 -0.82391 -7.51497 0
M  V30 3145 H 272.176 0.333527 -7.78786 0
M  V30 3146 N 276.405 1.4127 -0.698611 0
M  V30 3147 C 277.353 2.32588 -0.023855 0
M  V30 3148 C 278.347 1.51128 0.765292 0
M  V30 3149 O 279.553 1.67043 0.670571 0
M  V30 3150 H 275.928 0.751918 0.0110871 0
M  V30 3151 H 277.899 2.87167 -0.811031 0
M  V30 3152 C 276.648 3.35947 0.896369 0
M  V30 3153 H 275.971 3.98684 0.298548 0
M  V30 3154 H 277.411 4.02376 1.33676 0
M  V30 3155 C 275.87 2.70076 2.01396 0
M  V30 3156 O 276.4 2.55093 3.10307 0
M  V30 3157 N 274.606 2.28724 1.79259 0
M  V30 3158 H 274.153 2.4111 0.906841 0
M  V30 3159 H 274.111 1.84986 2.54219 0
M  V30 3160 O 277.922 0.585593 1.50509 0
M  V30 3161 H 278.613 0.0911067 1.93486 0
M  V30 END ATOM
M  V30 BEGIN BOND
M  V30 END BOND
M  V30 END CTAB
M  END
$$$$
