drugbank_target|Q07412 Triosephosphate isomerase (DB01709; DB01779; DB02515; DB02726; DB02951; DB04510)
 OpenBabel12092119503D

  0  0  0     0  0            999 V3000
M  V30 BEGIN CTAB
M  V30 COUNTS 3934 3966 0 0 0
M  V30 BEGIN ATOM
M  V30 1 H -0.908 1.98254 -0.117106 0
M  V30 2 N 0 1.576 0 0
M  V30 3 C 0.933 2.03868 1.02534 0
M  V30 4 C 1.911 0.928543 1.3348 0
M  V30 5 O 3.095 1.19667 1.45644 0
M  V30 6 C 0.222 2.43627 2.35294 0
M  V30 7 C -0.732 3.65373 2.2001 0
M  V30 8 S 0.101 5.13292 1.52614 0
M  V30 9 C 1.257 5.56322 2.86805 0
M  V30 10 H 1.49 2.90518 0.631377 0
M  V30 11 H -0.977 1.52953 0.210867 0
M  V30 12 H 0.981 2.67203 3.11629 0
M  V30 13 H -0.358 1.57376 2.7183 0
M  V30 14 H -1.165 3.90944 3.18086 0
M  V30 15 H -1.563 3.418 1.51819 0
M  V30 16 H 0.729 5.58782 3.83104 0
M  V30 17 H 1.672 6.56266 2.65933 0
M  V30 18 H 2.08 4.83886 2.90714 0
M  V30 19 N 1.4781 -0.272755 1.55222 0
M  V30 20 C 2.4411 -1.32041 1.87344 0
M  V30 21 C 3.4411 -1.42342 0.74803 0
M  V30 22 O 4.6311 -1.41488 1.0162 0
M  V30 23 C 1.7631 -2.70173 2.07893 0
M  V30 24 H 2.9561 -1.04789 2.80997 0
M  V30 25 H 0.5091 -0.51083 1.47717 0
M  V30 26 H 1.2441 -3.02605 1.16622 0
M  V30 27 H 1.0291 -2.64082 2.89833 0
M  V30 28 H 2.5191 -3.45869 2.34017 0
M  V30 29 N 2.9562 -1.48159 -0.537278 0
M  V30 30 C 4.3722 -1.34118 -0.865129 0
M  V30 31 C 4.5722 -0.346678 -1.98495 0
M  V30 32 O 3.6282 0.234715 -2.51407 0
M  V30 33 C 4.9412 -2.73963 -1.23954 0
M  V30 34 C 6.4892 -2.82397 -1.34984 0
M  V30 35 C 6.9642 -4.22928 -1.75772 0
M  V30 36 N 8.4552 -4.25566 -1.82887 0
M  V30 37 C 9.1902 -5.31235 -2.15817 0
M  V30 38 N 8.6862 -6.47189 -2.47222 0
M  V30 39 N 10.4792 -5.18624 -2.16761 0
M  V30 40 H 2.6302 -2.1144 0.201715 0
M  V30 41 H 4.8932 -0.947598 0.0275949 0
M  V30 42 H 4.5992 -3.48264 -0.490381 0
M  V30 43 H 4.4732 -3.0702 -2.19132 0
M  V30 44 H 6.8602 -2.08356 -2.08978 0
M  V30 45 H 6.9412 -2.5297 -0.379448 0
M  V30 46 H 6.5852 -4.97482 -1.02341 0
M  V30 47 H 6.5152 -4.49794 -2.73848 0
M  V30 48 H 9.0062 -3.41924 -1.60924 0
M  V30 49 H 9.3192 -7.23564 -2.71433 0
M  V30 50 H 7.6642 -6.50476 -2.44757 0
M  V30 51 H 10.8552 -4.27056 -1.91679 0
M  V30 52 H 11.0282 -6.01078 -2.42093 0
M  V30 53 N 4.4343 0.785586 -1.36625 0
M  V30 54 C 5.3813 1.89838 -1.31264 0
M  V30 55 C 6.3513 1.65115 -0.180633 0
M  V30 56 O 7.5363 1.87222 -0.36777 0
M  V30 57 C 4.6763 3.26706 -1.11163 0
M  V30 58 C 3.7893 3.63476 -2.33472 0
M  V30 59 C 2.9243 4.89481 -2.06353 0
M  V30 60 C 1.9633 5.18941 -3.24602 0
M  V30 61 N 1.1003 6.36131 -2.97123 0
M  V30 62 H 5.9403 1.93756 -2.26413 0
M  V30 63 H 3.4773 0.947454 -1.12524 0
M  V30 64 H 5.4353 4.05639 -0.975337 0
M  V30 65 H 4.0653 3.222 -0.196674 0
M  V30 66 H 3.1173 2.79636 -2.57891 0
M  V30 67 H 4.4293 3.81193 -3.21704 0
M  V30 68 H 3.5833 5.76288 -1.89675 0
M  V30 69 H 2.3223 4.73841 -1.15437 0
M  V30 70 H 1.3273 4.30615 -3.41834 0
M  V30 71 H 2.5523 5.36498 -4.16349 0
M  V30 72 H 0.4983 6.21875 -2.08823 0
M  V30 73 H 0.4153 6.54198 -3.78894 0
M  V30 74 H 1.6833 7.2591 -2.84033 0
M  V30 75 N 5.9124 1.20967 1.01018 0
M  V30 76 C 7.1424 1.04803 1.78044 0
M  V30 77 C 7.5504 -0.405462 1.84804 0
M  V30 78 O 6.8934 -1.2932 1.30468 0
M  V30 79 C 6.9554 1.56377 3.23707 0
M  V30 80 C 6.6194 3.04767 3.40538 0
M  V30 81 C 7.6164 4.02366 3.29239 0
M  V30 82 C 5.3014 3.43862 3.66147 0
M  V30 83 C 7.2954 5.37049 3.43304 0
M  V30 84 C 4.9824 4.78699 3.79855 0
M  V30 85 C 5.9804 5.75101 3.68439 0
M  V30 86 O 5.6684 7.07493 3.81719 0
M  V30 87 H 5.4004 0.368778 0.56655 0
M  V30 88 H 7.9544 1.60642 1.27997 0
M  V30 89 H 6.1844 0.949297 3.74867 0
M  V30 90 H 7.8734 1.36136 3.8239 0
M  V30 91 H 8.6394 3.73506 3.09384 0
M  V30 92 H 4.5184 2.69364 3.74118 0
M  V30 93 H 8.0624 6.12277 3.34309 0
M  V30 94 H 3.9594 5.07247 3.99213 0
M  V30 95 H 4.7274 7.1483 3.98697 0
M  V30 96 N 7.3905 -1.2043 1.01659 0
M  V30 97 C 8.6375 -1.89797 0.705917 0
M  V30 98 C 8.9655 -1.78848 -0.764439 0
M  V30 99 O 8.2205 -1.16694 -1.57102 0
M  V30 100 C 8.5195 -3.40464 1.08714 0
M  V30 101 C 8.1855 -3.71614 2.5537 0
M  V30 102 C 6.8475 -3.79826 2.95441 0
M  V30 103 C 9.1995 -3.85915 3.50313 0
M  V30 104 C 6.5275 -3.99797 4.29394 0
M  V30 105 C 8.8795 -4.07396 4.83954 0
M  V30 106 C 7.5435 -4.13837 5.23732 0
M  V30 107 H 6.8135 -0.694518 0.258313 0
M  V30 108 H 9.4605 -1.42691 1.27717 0
M  V30 109 H 7.7655 -3.89385 0.434309 0
M  V30 110 H 9.4625 -3.92433 0.824461 0
M  V30 111 H 6.0525 -3.65822 2.23321 0
M  V30 112 H 10.2365 -3.78926 3.20513 0
M  V30 113 H 5.4925 -4.03018 4.59768 0
M  V30 114 H 9.6665 -4.17404 5.57447 0
M  V30 115 H 7.2935 -4.29064 6.27541 0
M  V30 116 N 8.8686 -0.792821 -1.36206 0
M  V30 117 C 10.1146 -0.36733 -1.99446 0
M  V30 118 C 10.4476 1.05917 -1.62774 0
M  V30 119 O 9.7226 1.7324 -0.88421 0
M  V30 120 C 10.0056 -0.535044 -3.56103 0
M  V30 121 C 9.8586 -2.00548 -4.02617 0
M  V30 122 C 11.1776 0.0478191 -4.40074 0
M  V30 123 H 8.2966 -0.134941 -0.724541 0
M  V30 124 H 10.9386 -0.999794 -1.61568 0
M  V30 125 H 9.0886 0.00336329 -3.885 0
M  V30 126 H 10.7606 -2.60521 -3.80692 0
M  V30 127 H 9.0036 -2.50686 -3.54032 0
M  V30 128 H 9.6746 -2.07377 -5.11565 0
M  V30 129 H 12.1506 -0.411822 -4.14057 0
M  V30 130 H 11.0266 -0.0995336 -5.4881 0
M  V30 131 H 11.2876 1.14025 -4.27142 0
M  V30 132 N 10.3467 1.47872 -0.545128 0
M  V30 133 C 11.3097 2.28337 0.198717 0
M  V30 134 C 12.3097 1.36255 0.853888 0
M  V30 135 O 13.4997 1.59003 0.711606 0
M  V30 136 C 10.6317 3.15585 1.28915 0
M  V30 137 H 11.8247 2.95567 -0.507941 0
M  V30 138 H 9.3777 1.53362 -0.301616 0
M  V30 139 H 10.1127 2.53019 2.02859 0
M  V30 140 H 9.8977 3.83337 0.824309 0
M  V30 141 H 11.3877 3.76243 1.81194 0
M  V30 142 N 11.8248 0.280983 1.55075 0
M  V30 143 C 12.7878 -0.590896 2.21452 0
M  V30 144 C 13.7878 -1.07682 1.19421 0
M  V30 145 O 14.9778 -0.97605 1.44288 0
M  V30 146 C 12.1098 -1.81587 2.88511 0
M  V30 147 H 13.3028 -0.0112554 2.99898 0
M  V30 148 H 10.8558 0.0316438 1.56268 0
M  V30 149 H 11.5908 -2.43587 2.14093 0
M  V30 150 H 11.3758 -1.4753 3.63287 0
M  V30 151 H 12.8658 -2.43575 3.39206 0
M  V30 152 N 13.3029 -1.57598 0.00835791 0
M  V30 153 C 14.2509 -2.10078 -0.998508 0
M  V30 154 C 15.2449 -1.02262 -1.35051 0
M  V30 155 O 16.4509 -1.20719 -1.33518 0
M  V30 156 H 12.8259 -0.670903 -0.339696 0
M  V30 157 H 14.7969 -2.93648 -0.530398 0
M  V30 158 C 13.5459 -2.62615 -2.27879 0
M  V30 159 H 12.8689 -3.45213 -2.01662 0
M  V30 160 H 14.3089 -3.03004 -2.96588 0
M  V30 161 C 12.7679 -1.54407 -2.99433 0
M  V30 162 O 13.2979 -0.931812 -3.90743 0
M  V30 163 N 11.5039 -1.2695 -2.61404 0
M  V30 164 H 11.0509 -1.76924 -1.87232 0
M  V30 165 H 11.0089 -0.547704 -3.09593 0
M  V30 166 N 14.781 0.264519 -1.55364 0
M  V30 167 C 16.027 0.992314 -1.77552 0
M  V30 168 C 16.382 1.83626 -0.574379 0
M  V30 169 O 15.675 1.86648 0.432782 0
M  V30 170 C 15.869 1.9004 -3.02687 0
M  V30 171 C 15.698 1.14583 -4.34857 0
M  V30 172 C 14.468 0.858068 -4.97961 0
M  V30 173 C 16.666 0.532069 -5.1154 0
M  V30 174 N 14.648 0.0775974 -6.13851 0
M  V30 175 C 16.019 -0.113823 -6.19896 0
M  V30 176 C 18.074 0.440763 -4.95945 0
M  V30 177 C 16.777 -0.842231 -7.14352 0
M  V30 178 C 18.803 -0.274072 -5.90765 0
M  V30 179 C 18.165 -0.90867 -6.98515 0
M  V30 180 H 14.264 0.344811 -0.701875 0
M  V30 181 H 16.848 0.267141 -1.92859 0
M  V30 182 H 15.019 2.59775 -2.88741 0
M  V30 183 H 16.751 2.56243 -3.13243 0
M  V30 184 H 13.506 1.16547 -4.59036 0
M  V30 185 H 13.93 -0.300216 -6.76334 0
M  V30 186 H 18.572 0.917064 -4.12735 0
M  V30 187 H 16.29 -1.33019 -7.97077 0
M  V30 188 H 19.876 -0.345151 -5.80775 0
M  V30 189 H 18.756 -1.45299 -7.70622 0
M  V30 190 N 16.2591 1.48442 0.529413 0
M  V30 191 C 17.2061 1.63007 1.63394 0
M  V30 192 C 18.1761 0.47212 1.59249 0
M  V30 193 O 19.3611 0.695673 1.77666 0
M  V30 194 C 16.5011 1.6763 3.01653 0
M  V30 195 C 15.6141 2.94535 3.16027 0
M  V30 196 C 14.7491 2.90316 4.44849 0
M  V30 197 C 13.7881 4.11923 4.52754 0
M  V30 198 N 12.9251 4.05777 5.72965 0
M  V30 199 H 17.7651 2.5733 1.50285 0
M  V30 200 H 15.3021 1.27613 0.731656 0
M  V30 201 H 17.2601 1.68292 3.81751 0
M  V30 202 H 15.8901 0.76797 3.13532 0
M  V30 203 H 14.9421 3.03615 2.29177 0
M  V30 204 H 16.2541 3.84512 3.17729 0
M  V30 205 H 15.4081 2.89382 5.33238 0
M  V30 206 H 14.1471 1.98068 4.45668 0
M  V30 207 H 13.1521 4.13131 3.62771 0
M  V30 208 H 14.3771 5.0533 4.53672 0
M  V30 209 H 12.3231 3.16351 5.74681 0
M  V30 210 H 12.2401 4.8946 5.76164 0
M  V30 211 H 13.5081 4.08904 6.6364 0
M  V30 212 N 17.7372 -0.778329 1.37039 0
M  V30 213 C 18.9772 -1.54973 1.33276 0
M  V30 214 C 19.3412 -1.91816 -0.0839376 0
M  V30 215 O 20.5422 -2.6767 -0.246228 0
M  V30 216 C 18.8132 -2.78517 2.23971 0
M  V30 217 S 20.3722 -3.6865 2.37997 0
M  V30 218 H 17.1902 -0.530639 0.473226 0
M  V30 219 H 19.7922 -0.915806 1.72723 0
M  V30 220 H 18.4962 -2.4952 3.25835 0
M  V30 221 H 18.0272 -3.46875 1.85584 0
M  V30 222 H 20.0422 -4.70182 1.58567 0
M  V30 223 N 19.2153 -1.21501 -1.00376 0
M  V30 224 C 20.1633 -0.972442 -2.11297 0
M  V30 225 C 21.1573 0.080731 -1.69208 0
M  V30 226 O 22.3633 -0.0707666 -1.79861 0
M  V30 227 H 18.7383 -0.297218 -0.690772 0
M  V30 228 H 20.7093 -1.91394 -2.28934 0
M  V30 229 C 19.4583 -0.555065 -3.43241 0
M  V30 230 H 18.7813 -1.35709 -3.76062 0
M  V30 231 H 20.2213 -0.424664 -4.21868 0
M  V30 232 C 18.6803 0.734147 -3.28804 0
M  V30 233 O 19.2103 1.78937 -3.59645 0
M  V30 234 N 17.4163 0.701133 -2.82015 0
M  V30 235 H 16.9633 -0.157874 -2.57116 0
M  V30 236 H 16.9213 1.56403 -2.72737 0
M  V30 237 N 20.6934 1.19889 -1.02296 0
M  V30 238 C 21.9414 1.89046 -0.714558 0
M  V30 239 C 22.2624 1.79636 0.758681 0
M  V30 240 O 21.5324 1.20292 1.54618 0
M  V30 241 H 20.1124 0.699802 -0.261317 0
M  V30 242 H 22.7744 1.45574 -1.29592 0
M  V30 243 H 21.8704 2.95524 -1.0036 0
M  V30 244 N 22.1715 0.800033 1.35784 0
M  V30 245 C 23.3995 0.389606 2.03199 0
M  V30 246 C 23.8145 -0.997375 1.60306 0
M  V30 247 O 23.1715 -1.64154 0.797481 0
M  V30 248 C 23.2225 0.455855 3.58614 0
M  V30 249 O 22.9435 1.78815 3.99946 0
M  V30 250 C 24.4445 0.0374032 4.43284 0
M  V30 251 H 21.6645 0.159132 0.651857 0
M  V30 252 H 24.2085 1.08183 1.73541 0
M  V30 253 H 22.3635 -0.188057 3.86943 0
M  V30 254 H 22.7775 1.74636 4.94573 0
M  V30 255 H 24.2515 0.134882 5.51835 0
M  V30 256 H 24.7285 -1.01651 4.27275 0
M  V30 257 H 25.3345 0.654215 4.20238 0
M  V30 258 N 23.6496 -1.47581 0.552962 0
M  V30 259 C 24.5796 -2.32762 -0.185451 0
M  V30 260 C 25.5606 -1.43527 -0.912905 0
M  V30 261 O 26.7456 -1.72388 -0.894201 0
M  V30 262 C 23.8756 -3.25219 -1.21859 0
M  V30 263 C 22.8296 -4.23661 -0.607864 0
M  V30 264 C 22.1556 -5.05413 -1.74533 0
M  V30 265 C 23.4556 -5.20481 0.435582 0
M  V30 266 H 25.1496 -2.94749 0.525684 0
M  V30 267 H 22.6956 -1.41738 0.254251 0
M  V30 268 H 24.6486 -3.8365 -1.7433 0
M  V30 269 H 23.3726 -2.61279 -1.95961 0
M  V30 270 H 22.0316 -3.66451 -0.104489 0
M  V30 271 H 21.6796 -4.3788 -2.47529 0
M  V30 272 H 21.3796 -5.72059 -1.34249 0
M  V30 273 H 22.9036 -5.66701 -2.27338 0
M  V30 274 H 24.3176 -5.733 -0.00290157 0
M  V30 275 H 22.7146 -5.95305 0.757067 0
M  V30 276 H 23.7846 -4.66217 1.33303 0
M  V30 277 N 25.1277 -0.289203 -1.54924 0
M  V30 278 C 26.0377 0.601863 -2.26748 0
M  V30 279 C 27.0537 1.15834 -1.2984 0
M  V30 280 O 28.2297 1.18564 -1.62802 0
M  V30 281 C 25.2947 1.76299 -2.98529 0
M  V30 282 C 24.3557 1.24178 -4.10948 0
M  V30 283 C 23.5887 2.34757 -4.79296 0
M  V30 284 O 23.8117 3.54411 -4.46933 0
M  V30 285 O 22.7457 2.02115 -5.66951 0
M  V30 286 H 26.5717 0.0195879 -3.03694 0
M  V30 287 H 24.1567 -0.0560868 -1.49295 0
M  V30 288 H 26.0387 2.43973 -3.43592 0
M  V30 289 H 24.7137 2.33209 -2.24488 0
M  V30 290 H 23.6207 0.531104 -3.70311 0
M  V30 291 H 24.9537 0.718252 -4.86931 0
M  V30 292 N 26.6058 1.57591 -0.0167156 0
M  V30 293 C 27.8308 1.9598 0.67872 0
M  V30 294 C 28.2558 0.892546 1.65575 0
M  V30 295 O 27.6138 -0.147772 1.80697 0
M  V30 296 C 27.6618 3.33468 1.37227 0
M  V30 297 O 26.7658 3.28954 2.48722 0
M  V30 298 H 26.1068 0.639339 0.17928 0
M  V30 299 H 28.6368 2.04463 -0.0748802 0
M  V30 300 H 28.6468 3.69417 1.7319 0
M  V30 301 H 27.3218 4.10694 0.656007 0
M  V30 302 H 25.8988 3.04705 2.14963 0
M  V30 303 N 28.0839 -0.256276 1.55502 0
M  V30 304 C 29.3329 -0.983486 1.76098 0
M  V30 305 C 29.6459 -1.86837 0.578896 0
M  V30 306 O 30.8519 -2.63163 0.667648 0
M  V30 307 C 29.3079 -1.79868 3.1173 0
M  V30 308 C 28.9159 -0.961648 4.37557 0
M  V30 309 C 30.6599 -2.51919 3.41668 0
M  V30 310 C 28.5669 -1.77219 5.64223 0
M  V30 311 H 27.4969 -0.370936 0.656447 0
M  V30 312 H 30.1479 -0.238492 1.81944 0
M  V30 313 H 28.5299 -2.58527 2.99966 0
M  V30 314 H 29.7039 -0.218048 4.60284 0
M  V30 315 H 28.0189 -0.354913 4.14885 0
M  V30 316 H 30.6159 -3.12998 4.33516 0
M  V30 317 H 30.9589 -3.23059 2.62562 0
M  V30 318 H 31.4919 -1.80278 3.54605 0
M  V30 319 H 28.2309 -1.10471 6.46124 0
M  V30 320 H 27.7509 -2.49132 5.45613 0
M  V30 321 H 29.4299 -2.34169 6.03137 0
M  V30 322 N 29.562 -1.4872 -0.521534 0
M  V30 323 C 30.509 -1.63871 -1.62527 0
M  V30 324 C 31.479 -0.480559 -1.58996 0
M  V30 325 O 32.664 -0.705085 -1.77294 0
M  V30 326 C 29.804 -1.69227 -3.00759 0
M  V30 327 C 28.917 -2.96207 -3.14461 0
M  V30 328 C 28.052 -2.92671 -4.43303 0
M  V30 329 C 27.091 -4.14318 -4.50563 0
M  V30 330 N 26.228 -4.0881 -5.70805 0
M  V30 331 H 31.068 -2.58123 -1.48918 0
M  V30 332 H 28.605 -1.28 -0.724878 0
M  V30 333 H 30.563 -1.70314 -3.80853 0
M  V30 334 H 29.193 -0.784586 -3.1312 0
M  V30 335 H 28.245 -3.04826 -2.27564 0
M  V30 336 H 29.557 -3.86192 -3.15686 0
M  V30 337 H 28.711 -2.92206 -5.31696 0
M  V30 338 H 27.45 -2.00429 -4.44612 0
M  V30 339 H 26.455 -4.15049 -3.60575 0
M  V30 340 H 27.68 -5.07729 -4.50986 0
M  V30 341 H 25.626 -3.19394 -5.72995 0
M  V30 342 H 25.543 -4.92509 -5.7356 0
M  V30 343 H 26.811 -4.12418 -6.61462 0
M  V30 344 N 31.0401 0.771051 -1.3745 0
M  V30 345 C 32.2651 1.56529 -1.36065 0
M  V30 346 C 32.6901 1.88029 0.0515859 0
M  V30 347 O 32.0481 1.49282 1.02882 0
M  V30 348 C 32.0961 2.85187 -2.20683 0
M  V30 349 O 31.2001 3.79593 -1.61193 0
M  V30 350 H 30.5411 0.47411 -0.464883 0
M  V30 351 H 33.0711 0.954269 -1.80983 0
M  V30 352 H 33.0811 3.34283 -2.33921 0
M  V30 353 H 31.7561 2.61588 -3.23334 0
M  V30 354 H 30.3331 3.38239 -1.56999 0
M  V30 355 N 32.5182 1.22032 0.997298 0
M  V30 356 C 33.4482 1.01065 2.10495 0
M  V30 357 C 34.4292 -0.0669542 1.69968 0
M  V30 358 O 35.6142 0.0943987 1.9397 0
M  V30 359 C 32.7442 0.582874 3.42374 0
M  V30 360 C 31.6982 1.60592 3.96729 0
M  V30 361 C 31.0242 1.03412 5.24605 0
M  V30 362 C 32.3242 2.99478 4.27914 0
M  V30 363 H 34.0182 1.93708 2.28292 0
M  V30 364 H 31.5642 0.932761 1.09707 0
M  V30 365 H 33.5172 0.423332 4.19268 0
M  V30 366 H 32.2412 -0.379213 3.24391 0
M  V30 367 H 30.9002 1.75316 3.21963 0
M  V30 368 H 30.5482 0.063518 5.0296 0
M  V30 369 H 30.2482 1.71754 5.61938 0
M  V30 370 H 31.7722 0.886066 6.04137 0
M  V30 371 H 33.1862 2.88153 4.95622 0
M  V30 372 H 31.5832 3.64903 4.76409 0
M  V30 373 H 32.6532 3.49742 3.3587 0
M  V30 374 N 33.9963 -1.19345 1.0293 0
M  V30 375 C 35.2243 -1.92997 0.745644 0
M  V30 376 C 35.6393 -1.75519 -0.695589 0
M  V30 377 O 34.9963 -1.07737 -1.47306 0
M  V30 378 C 35.0473 -3.44741 1.08792 0
M  V30 379 O 34.7683 -3.61658 2.47256 0
M  V30 380 C 36.2693 -4.35515 0.827129 0
M  V30 381 H 33.4893 -0.613042 0.272801 0
M  V30 382 H 36.0333 -1.51473 1.3739 0
M  V30 383 H 34.1883 -3.84097 0.504832 0
M  V30 384 H 34.6023 -4.55514 2.60015 0
M  V30 385 H 36.0763 -5.40589 1.11658 0
M  V30 386 H 36.5533 -4.38552 -0.238436 0
M  V30 387 H 37.1593 -4.01841 1.39297 0
M  V30 388 N 35.4744 -0.807222 -1.35358 0
M  V30 389 C 36.4224 -0.20614 -2.31685 0
M  V30 390 C 37.4164 0.644445 -1.56663 0
M  V30 391 O 38.6224 0.537538 -1.71786 0
M  V30 392 H 34.9974 -0.0479006 -0.750473 0
M  V30 393 H 36.9684 -1.03369 -2.79924 0
M  V30 394 C 35.7174 0.630212 -3.41941 0
M  V30 395 H 35.0404 -0.0149558 -3.99797 0
M  V30 396 H 36.4804 1.01716 -4.11619 0
M  V30 397 C 34.9394 1.79601 -2.85035 0
M  V30 398 O 35.4694 2.89351 -2.78637 0
M  V30 399 N 33.6754 1.60774 -2.42074 0
M  V30 400 H 33.2224 0.715009 -2.47478 0
M  V30 401 H 33.1804 2.38933 -2.04349 0
M  V30 402 N 36.9525 1.47285 -0.560781 0
M  V30 403 C 38.1775 2.07359 -0.0410566 0
M  V30 404 C 38.6025 1.41017 1.24483 0
M  V30 405 O 37.9605 0.486368 1.74654 0
M  V30 406 C 38.0085 3.6035 0.134123 0
M  V30 407 O 37.1125 3.94681 1.19587 0
M  V30 408 H 36.4535 0.661887 -0.0529291 0
M  V30 409 H 38.9835 1.89252 -0.777482 0
M  V30 410 H 38.9935 4.0652 0.347207 0
M  V30 411 H 37.6685 4.08034 -0.805047 0
M  V30 412 H 36.2455 3.60251 0.962987 0
M  V30 413 N 38.4306 0.297415 1.54768 0
M  V30 414 C 39.6776 -0.312913 2.00068 0
M  V30 415 C 40.0056 -1.54171 1.18582 0
M  V30 416 O 39.2606 -1.94108 0.249133 0
M  V30 417 C 39.5596 -0.717561 3.50123 0
M  V30 418 C 39.2256 0.409095 4.4904 0
M  V30 419 C 37.8876 0.718399 4.75807 0
M  V30 420 C 40.2396 1.16717 5.07963 0
M  V30 421 C 37.5676 1.78896 5.5876 0
M  V30 422 C 39.9196 2.22762 5.92081 0
M  V30 423 C 38.5836 2.54303 6.1716 0
M  V30 424 H 37.8536 -0.114503 0.7321 0
M  V30 425 H 40.5006 0.415767 1.86932 0
M  V30 426 H 38.8056 -1.52627 3.60849 0
M  V30 427 H 40.5026 -1.20091 3.82595 0
M  V30 428 H 37.0926 0.157918 4.28309 0
M  V30 429 H 41.2766 0.941466 4.87289 0
M  V30 430 H 36.5326 2.0381 5.7643 0
M  V30 431 H 40.7066 2.81962 6.36765 0
M  V30 432 H 38.3336 3.3739 6.81229 0
M  V30 433 N 39.9087 -1.5758 0.0250728 0
M  V30 434 C 40.8567 -2.11125 -0.97617 0
M  V30 435 C 41.8507 -1.03689 -1.33959 0
M  V30 436 O 43.0567 -1.22128 -1.3223 0
M  V30 437 H 39.4317 -0.674468 -0.332561 0
M  V30 438 H 41.4027 -2.94194 -0.499223 0
M  V30 439 C 40.1517 -2.65017 -2.2508 0
M  V30 440 H 39.4747 -3.47333 -1.9799 0
M  V30 441 H 40.9147 -3.06133 -2.93357 0
M  V30 442 C 39.3737 -1.57574 -2.97779 0
M  V30 443 O 39.9037 -0.973203 -3.89733 0
M  V30 444 N 38.1097 -1.29716 -2.60043 0
M  V30 445 H 37.6567 -1.789 -1.85345 0
M  V30 446 H 37.6147 -0.58051 -3.08994 0
M  V30 447 N 41.3868 0.248026 -1.55636 0
M  V30 448 C 42.3348 1.32683 -1.91045 0
M  V30 449 C 43.3288 1.49883 -0.789401 0
M  V30 450 O 44.5348 1.51371 -0.974007 0
M  V30 451 H 40.9098 0.444272 -0.606734 0
M  V30 452 H 42.8808 1.00085 -2.81115 0
M  V30 453 C 41.6298 2.6755 -2.22064 0
M  V30 454 H 40.9528 2.55114 -3.07826 0
M  V30 455 H 42.3928 3.41912 -2.50743 0
M  V30 456 C 40.8518 3.20556 -1.0366 0
M  V30 457 O 41.3818 4.00695 -0.284016 0
M  V30 458 N 39.5878 2.78568 -0.82753 0
M  V30 459 H 39.1348 2.1351 -1.44123 0
M  V30 460 H 39.0928 3.14378 -0.0369803 0
M  V30 461 N 42.8649 1.48995 0.513639 0
M  V30 462 C 43.7949 1.67636 1.62544 0
M  V30 463 C 44.7759 0.525087 1.61793 0
M  V30 464 O 45.9609 0.759502 1.78732 0
M  V30 465 C 43.0909 1.73114 3.01079 0
M  V30 466 C 42.0449 2.87905 3.16693 0
M  V30 467 C 41.3709 2.78486 4.56453 0
M  V30 468 C 42.6709 4.29005 2.97913 0
M  V30 469 H 44.3649 2.60716 1.47198 0
M  V30 470 H 41.9109 1.25465 0.706714 0
M  V30 471 H 43.8639 1.84742 3.78746 0
M  V30 472 H 42.5879 0.766241 3.17484 0
M  V30 473 H 41.2469 2.75859 2.41448 0
M  V30 474 H 40.8949 1.7993 4.69717 0
M  V30 475 H 40.5949 3.55523 4.67843 0
M  V30 476 H 42.1189 2.92104 5.36197 0
M  V30 477 H 43.5329 4.41798 3.65359 0
M  V30 478 H 41.9299 5.07166 3.20785 0
M  V30 479 H 42.9999 4.44329 1.94165 0
M  V30 480 N 44.343 -0.763751 1.37857 0
M  V30 481 C 45.62 -1.51244 1.24035 0
M  V30 482 C 46 -2.10472 -0.162649 0
M  V30 483 O 45.348 -1.96206 -1.17112 0
M  V30 484 C 45.558 -2.58694 2.34261 0
M  V30 485 C 46.906 -3.25878 2.72193 0
M  V30 486 O 47.93 -2.68993 2.33497 0
M  V30 487 O 46.789 -4.2874 3.38887 0
M  V30 488 H 43.883 -0.670243 0.484462 0
M  V30 489 H 46.429 -0.800031 1.49658 0
M  V30 490 H 45.201 -2.13105 3.2818 0
M  V30 491 H 44.824 -3.37527 2.10146 0
M  V30 492 N 45.8211 -1.22559 -0.990812 0
M  V30 493 C 47.0681 -1.05141 -1.73065 0
M  V30 494 C 47.3961 0.413191 -1.9006 0
M  V30 495 O 46.6511 1.32257 -1.44245 0
M  V30 496 C 46.9501 -1.71011 -3.13831 0
M  V30 497 C 46.6161 -3.20911 -3.16745 0
M  V30 498 C 45.2781 -3.61812 -3.17247 0
M  V30 499 C 47.6301 -4.16846 -3.12872 0
M  V30 500 C 44.9581 -4.97127 -3.1158 0
M  V30 501 C 47.3101 -5.5214 -3.08746 0
M  V30 502 C 45.9741 -5.92419 -3.07565 0
M  V30 503 H 45.2441 -0.384738 -0.633291 0
M  V30 504 H 47.8911 -1.5235 -1.16025 0
M  V30 505 H 46.1961 -1.16133 -3.74193 0
M  V30 506 H 47.8931 -1.55023 -3.69823 0
M  V30 507 H 44.4831 -2.88344 -3.17105 0
M  V30 508 H 48.6671 -3.86263 -3.11632 0
M  V30 509 H 43.9231 -5.27562 -3.09012 0
M  V30 510 H 48.0971 -6.26201 -3.04705 0
M  V30 511 H 45.7241 -6.97236 -3.02929 0
M  V30 512 N 47.2992 1.18797 -1.03562 0
M  V30 513 C 48.5762 1.84469 -0.650434 0
M  V30 514 C 48.9562 1.92319 0.870433 0
M  V30 515 O 48.3042 1.44528 1.76986 0
M  V30 516 C 48.5142 3.2306 -1.32036 0
M  V30 517 C 49.8622 3.9915 -1.44792 0
M  V30 518 O 50.8862 3.32481 -1.27806 0
M  V30 519 O 49.7452 5.18587 -1.72423 0
M  V30 520 H 46.8392 0.795251 -0.226946 0
M  V30 521 H 49.3852 1.26231 -1.13419 0
M  V30 522 H 48.1572 3.1222 -2.3587 0
M  V30 523 H 47.7802 3.88949 -0.8249 0
M  V30 524 N 48.7773 0.814389 1.34928 0
M  V30 525 C 50.1883 0.458364 1.80986 0
M  V30 526 C 50.5393 -1.02042 1.67577 0
M  V30 527 O 49.6643 -1.79352 1.21086 0
M  V30 528 C 50.2593 0.825212 3.28597 0
M  V30 529 C 48.8183 0.521677 3.72767 0
M  V30 530 C 47.9653 1.04668 2.56788 0
M  V30 531 H 50.9163 1.00533 1.22795 0
M  V30 532 H 50.9373 0.12571 3.80292 0
M  V30 533 H 50.4493 1.90154 3.38324 0
M  V30 534 H 48.5503 -0.545589 3.68584 0
M  V30 535 H 48.6633 1.05977 4.67232 0
M  V30 536 H 47.0273 0.468622 2.50352 0
M  V30 537 H 47.8103 2.12927 2.6929 0
M  V30 538 N 50.2554 -1.46986 0.568584 0
M  V30 539 C 51.4804 -2.07335 0.0520528 0
M  V30 540 C 51.9054 -1.41675 -1.23733 0
M  V30 541 O 51.2634 -0.495623 -1.74394 0
M  V30 542 C 51.3114 -3.60417 -0.11501 0
M  V30 543 O 50.4154 -3.95309 -1.17492 0
M  V30 544 H 49.7564 -0.661597 0.0564385 0
M  V30 545 H 52.2864 -1.88837 0.787507 0
M  V30 546 H 52.2964 -4.06698 -0.325644 0
M  V30 547 H 50.9714 -4.07601 0.826675 0
M  V30 548 H 49.5484 -3.60757 -0.943869 0
M  V30 549 N 51.7335 -0.305618 -1.54608 0
M  V30 550 C 52.6805 0.568421 -2.23691 0
M  V30 551 C 53.6505 1.12592 -1.22116 0
M  V30 552 O 54.8355 1.16959 -1.50749 0
M  V30 553 C 51.9755 1.7322 -2.98477 0
M  V30 554 C 51.0885 1.20566 -4.14835 0
M  V30 555 C 50.2235 2.33368 -4.77193 0
M  V30 556 C 49.2625 1.7787 -5.85686 0
M  V30 557 N 48.3995 2.84263 -6.4198 0
M  V30 558 H 53.2395 -0.0272867 -2.97988 0
M  V30 559 H 50.7765 -0.0252363 -1.47078 0
M  V30 560 H 52.7345 2.41675 -3.40072 0
M  V30 561 H 51.3645 2.29947 -2.26548 0
M  V30 562 H 50.4165 0.413223 -3.78149 0
M  V30 563 H 51.7285 0.759417 -4.92985 0
M  V30 564 H 50.8825 3.09761 -5.21664 0
M  V30 565 H 49.6215 2.8132 -3.98385 0
M  V30 566 H 48.6265 0.99968 -5.40635 0
M  V30 567 H 49.8515 1.30816 -6.66381 0
M  V30 568 H 47.7975 3.31541 -5.66053 0
M  V30 569 H 47.7145 2.44149 -7.15491 0
M  V30 570 H 48.9825 3.6054 -6.91109 0
M  V30 571 N 53.2116 1.57565 -0.0334293 0
M  V30 572 C 54.1416 2.13511 0.945265 0
M  V30 573 C 55.1226 1.05231 1.33643 0
M  V30 574 O 56.3076 1.33084 1.41429 0
M  V30 575 C 53.4376 2.6657 2.22616 0
M  V30 576 C 52.3916 3.79676 1.97561 0
M  V30 577 C 51.7176 4.1918 3.31952 0
M  V30 578 C 53.0176 5.0557 1.31135 0
M  V30 579 H 54.7116 2.95538 0.479325 0
M  V30 580 H 52.2576 1.42166 0.229115 0
M  V30 581 H 54.2106 3.04344 2.91466 0
M  V30 582 H 52.9346 1.8171 2.71384 0
M  V30 583 H 51.5936 3.42347 1.31127 0
M  V30 584 H 51.2416 3.31296 3.78487 0
M  V30 585 H 50.9416 4.95402 3.15992 0
M  V30 586 H 52.4656 4.59541 4.02063 0
M  V30 587 H 53.8796 5.40903 1.89992 0
M  V30 588 H 52.2766 5.86818 1.25559 0
M  V30 589 H 53.3466 4.84062 0.284894 0
M  V30 590 N 54.6897 -0.239769 1.55765 0
M  V30 591 C 55.9667 -0.990056 1.68693 0
M  V30 592 C 56.3467 -2.03107 0.5754 0
M  V30 593 O 55.6947 -2.24604 -0.42017 0
M  V30 594 C 55.9047 -1.61696 3.09282 0
M  V30 595 C 57.2527 -2.11613 3.6811 0
M  V30 596 O 58.2767 -1.71624 3.12127 0
M  V30 597 O 57.1357 -2.85057 4.66267 0
M  V30 598 H 54.2297 -0.461299 0.686391 0
M  V30 599 H 56.7757 -0.232991 1.68093 0
M  V30 600 H 55.5477 -0.864357 3.81634 0
M  V30 601 H 55.1707 -2.44005 3.13923 0
M  V30 602 N 56.1678 -1.49265 -0.50573 0
M  V30 603 C 57.4138 -1.58748 -1.26202 0
M  V30 604 C 57.7468 -0.271227 -1.92297 0
M  V30 605 O 57.0218 0.724831 -1.80489 0
M  V30 606 C 57.3048 -2.74332 -2.33268 0
M  V30 607 C 57.1578 -4.15737 -1.71705 0
M  V30 608 C 58.4768 -2.85576 -3.34865 0
M  V30 609 H 55.5958 -0.577826 -0.457478 0
M  V30 610 H 58.2378 -1.81532 -0.560897 0
M  V30 611 H 56.3878 -2.55036 -2.93068 0
M  V30 612 H 58.0598 -4.46537 -1.15769 0
M  V30 613 H 56.3028 -4.21605 -1.02135 0
M  V30 614 H 56.9738 -4.92477 -2.49341 0
M  V30 615 H 59.4498 -3.03127 -2.8505 0
M  V30 616 H 58.3258 -3.68135 -4.07146 0
M  V30 617 H 58.5868 -1.94732 -3.96903 0
M  V30 618 N 57.6459 0.756429 -1.3826 0
M  V30 619 C 58.8919 1.51772 -1.34511 0
M  V30 620 C 59.2249 1.94089 0.0656691 0
M  V30 621 O 58.4999 1.65221 1.02626 0
M  V30 622 C 58.7829 2.77226 -2.29821 0
M  V30 623 C 58.6359 2.41065 -3.79747 0
M  V30 624 C 59.9549 3.79236 -2.23312 0
M  V30 625 H 57.0739 0.550578 -0.489931 0
M  V30 626 H 59.7159 0.866607 -1.69086 0
M  V30 627 H 57.8659 3.32784 -2.00467 0
M  V30 628 H 59.5379 1.91303 -4.19763 0
M  V30 629 H 57.7809 1.7356 -3.97567 0
M  V30 630 H 58.4519 3.3081 -4.41892 0
M  V30 631 H 60.9279 3.3321 -2.49219 0
M  V30 632 H 59.8039 4.64714 -2.92116 0
M  V30 633 H 60.0649 4.24615 -1.23102 0
M  V30 634 N 59.124 1.23083 0.984299 0
M  V30 635 C 60.37 1.06214 1.72761 0
M  V30 636 C 60.703 -0.400584 1.90024 0
M  V30 637 O 59.978 -1.29672 1.44967 0
M  V30 638 C 60.261 1.78375 3.12817 0
M  V30 639 C 60.114 3.32296 3.03149 0
M  V30 640 C 61.433 1.54309 4.12161 0
M  V30 641 H 58.552 0.387251 0.627061 0
M  V30 642 H 61.194 1.51536 1.14616 0
M  V30 643 H 59.344 1.39848 3.62457 0
M  V30 644 H 61.016 3.8032 2.61064 0
M  V30 645 H 59.259 3.6153 2.39747 0
M  V30 646 H 59.93 3.77972 4.02295 0
M  V30 647 H 62.406 1.87791 3.71314 0
M  V30 648 H 61.282 2.07281 5.08258 0
M  V30 649 H 61.543 0.477572 4.39513 0
M  V30 650 N 60.6021 -1.18246 1.0419 0
M  V30 651 C 61.8491 -1.88257 0.746017 0
M  V30 652 C 62.1771 -1.80429 -0.726331 0
M  V30 653 O 61.4321 -1.2 -1.54591 0
M  V30 654 C 61.7311 -3.38082 1.15911 0
M  V30 655 C 61.3971 -3.66114 2.63195 0
M  V30 656 C 60.0591 -3.73474 3.03432 0
M  V30 657 C 62.4111 -3.78398 3.5842 0
M  V30 658 C 59.7391 -3.90599 4.37778 0
M  V30 659 C 62.0911 -3.97039 4.92487 0
M  V30 660 C 60.7551 -4.02635 5.32392 0
M  V30 661 H 60.0251 -0.688883 0.272987 0
M  V30 662 H 62.6721 -1.3995 1.30715 0
M  V30 663 H 60.9771 -3.88377 0.516806 0
M  V30 664 H 62.6741 -3.90596 0.907516 0
M  V30 665 H 59.2641 -3.61003 2.3103 0
M  V30 666 H 63.4481 -3.72042 3.28479 0
M  V30 667 H 58.7041 -3.93175 4.68213 0
M  V30 668 H 62.8781 -4.05486 5.66175 0
M  V30 669 H 60.5051 -4.15657 6.36501 0
M  V30 670 N 62.0802 -0.821533 -1.34494 0
M  V30 671 C 63.4912 -0.467956 -1.8074 0
M  V30 672 C 63.8422 1.01151 -1.68116 0
M  V30 673 O 62.9672 1.78707 -1.22036 0
M  V30 674 C 63.5622 -0.842627 -3.28154 0
M  V30 675 C 62.1212 -0.541439 -3.72485 0
M  V30 676 C 61.2682 -1.06028 -2.56229 0
M  V30 677 H 64.2192 -1.01183 -1.22261 0
M  V30 678 H 64.2402 -0.145876 -3.8022 0
M  V30 679 H 63.7522 -1.91945 -3.37311 0
M  V30 680 H 61.8532 0.526034 -3.68868 0
M  V30 681 H 61.9662 -1.08453 -4.66663 0
M  V30 682 H 60.3302 -0.481892 -2.501 0
M  V30 683 H 61.1132 -2.14352 -2.68157 0
M  V30 684 N 63.5583 1.46682 -0.576371 0
M  V30 685 C 64.8043 2.02712 -0.0596221 0
M  V30 686 C 65.1373 1.44765 1.29448 0
M  V30 687 O 64.4123 0.610355 1.84675 0
M  V30 688 C 64.6953 3.60098 0.0129503 0
M  V30 689 C 64.5483 4.28441 -1.3696 0
M  V30 690 C 65.8673 4.34224 0.71678 0
M  V30 691 H 62.9863 0.736637 -0.0231407 0
M  V30 692 H 65.6283 1.74898 -0.742351 0
M  V30 693 H 63.7783 3.83926 0.594378 0
M  V30 694 H 65.4503 4.15896 -1.9957 0
M  V30 695 H 63.6933 3.8805 -1.93907 0
M  V30 696 H 64.3643 5.3716 -1.27135 0
M  V30 697 H 66.8403 4.15503 0.222908 0
M  V30 698 H 65.7163 5.43936 0.73657 0
M  V30 699 H 65.9773 4.04823 1.77682 0
M  V30 700 N 65.0364 0.313813 1.54444 0
M  V30 701 C 66.2614 -0.296681 2.05267 0
M  V30 702 C 66.6864 -1.45757 1.18897 0
M  V30 703 O 66.0444 -1.80239 0.195886 0
M  V30 704 C 66.0924 -0.71831 3.53373 0
M  V30 705 O 65.1964 -1.82175 3.69981 0
M  V30 706 H 64.5374 -0.0554061 0.661684 0
M  V30 707 H 67.0674 0.459387 1.99376 0
M  V30 708 H 67.0774 -1.00364 3.95463 0
M  V30 709 H 65.7524 0.130821 4.15694 0
M  V30 710 H 64.3294 -1.53598 3.39797 0
M  V30 711 N 66.5145 -1.57545 0.0417849 0
M  V30 712 C 67.7605 -1.92601 -0.635021 0
M  V30 713 C 68.0935 -0.919627 -1.71045 0
M  V30 714 O 67.3685 0.0557892 -1.9442 0
M  V30 715 C 67.6515 -3.38085 -1.23979 0
M  V30 716 C 67.5045 -4.49467 -0.173057 0
M  V30 717 C 68.8235 -3.83776 -2.15416 0
M  V30 718 H 65.9425 -0.700397 -0.229374 0
M  V30 719 H 68.5845 -1.89728 0.101633 0
M  V30 720 H 66.7345 -3.40664 -1.86762 0
M  V30 721 H 68.4065 -4.59018 0.458312 0
M  V30 722 H 66.6495 -4.30909 0.499996 0
M  V30 723 H 67.3205 -5.48323 -0.636054 0
M  V30 724 H 69.7965 -3.83013 -1.62605 0
M  V30 725 H 68.6725 -4.8624 -2.54679 0
M  V30 726 H 68.9335 -3.19998 -3.05047 0
M  V30 727 N 67.9926 0.231505 -1.5589 0
M  V30 728 C 68.9426 1.29007 -1.87993 0
M  V30 729 C 69.9266 1.42764 -0.742102 0
M  V30 730 O 71.1186 1.45747 -1.00433 0
M  V30 731 C 68.2476 2.6425 -2.1915 0
M  V30 732 C 67.3336 2.54435 -3.39299 0
M  V30 733 N 67.7246 2.14262 -4.58176 0
M  V30 734 C 66.0226 2.85416 -3.42715 0
M  V30 735 C 66.7236 2.15455 -5.40328 0
M  V30 736 N 65.6996 2.55558 -4.79783 0
M  V30 737 H 69.5016 0.970213 -2.77424 0
M  V30 738 H 67.0156 0.440097 -1.56323 0
M  V30 739 H 69.0126 3.40665 -2.40319 0
M  V30 740 H 67.6726 2.9709 -1.31025 0
M  V30 741 H 68.6836 1.85554 -4.83518 0
M  V30 742 H 65.3606 3.22693 -2.64906 0
M  V30 743 H 66.7506 1.86605 -6.45467 0
M  V30 744 N 69.4707 1.49531 0.497807 0
M  V30 745 C 70.7007 1.62657 1.27382 0
M  V30 746 C 71.1087 0.298488 1.86831 0
M  V30 747 O 70.4517 -0.72647 1.68725 0
M  V30 748 C 70.5137 2.6393 2.44093 0
M  V30 749 C 70.1777 4.08195 2.05489 0
M  V30 750 C 71.1747 4.949 1.59279 0
M  V30 751 C 68.8597 4.53948 2.15026 0
M  V30 752 C 70.8537 6.25397 1.23113 0
M  V30 753 C 68.5407 5.84458 1.78473 0
M  V30 754 C 69.5387 6.70006 1.32591 0
M  V30 755 O 69.2267 7.98083 0.965327 0
M  V30 756 H 68.9587 0.550429 0.392434 0
M  V30 757 H 71.5127 1.96325 0.603801 0
M  V30 758 H 69.7427 2.25449 3.14181 0
M  V30 759 H 71.4317 2.66552 3.06113 0
M  V30 760 H 72.1977 4.60779 1.51354 0
M  V30 761 H 68.0767 3.87525 2.4969 0
M  V30 762 H 71.6207 6.92125 0.872299 0
M  V30 763 H 67.5177 6.18107 1.86048 0
M  V30 764 H 68.2857 8.11122 1.09652 0
M  V30 765 N 70.9488 -0.749086 1.3866 0
M  V30 766 C 72.2258 -1.4992 1.25632 0
M  V30 767 C 72.6058 -2.10633 -0.140317 0
M  V30 768 O 71.9538 -1.97437 -1.15025 0
M  V30 769 C 72.1638 -2.56195 2.36992 0
M  V30 770 C 73.5118 -3.22972 2.75634 0
M  V30 771 O 74.5358 -2.66502 2.36337 0
M  V30 772 O 73.3948 -4.25122 3.43415 0
M  V30 773 H 70.4888 -0.665067 0.491544 0
M  V30 774 H 73.0348 -0.784113 1.50498 0
M  V30 775 H 71.8068 -2.09612 3.30422 0
M  V30 776 H 71.4298 -3.35279 2.13714 0
M  V30 777 N 72.4269 -1.23603 -0.977757 0
M  V30 778 C 73.3769 -0.986664 -2.05545 0
M  V30 779 C 74.3609 0.0683009 -1.60755 0
M  V30 780 O 75.5529 -0.144162 -1.76412 0
M  V30 781 C 72.6819 -0.582623 -3.3832 0
M  V30 782 C 71.7679 -1.67313 -3.89701 0
M  V30 783 N 72.1589 -2.90394 -4.14132 0
M  V30 784 C 70.4569 -1.54832 -4.18262 0
M  V30 785 C 71.1579 -3.61017 -4.56116 0
M  V30 786 N 70.1339 -2.8854 -4.60701 0
M  V30 787 H 73.9359 -1.92139 -2.22396 0
M  V30 788 H 71.4499 -1.1358 -1.16074 0
M  V30 789 H 73.4469 -0.38524 -4.15116 0
M  V30 790 H 72.1069 0.34503 -3.22862 0
M  V30 791 H 73.1179 -3.26673 -4.01877 0
M  V30 792 H 69.7949 -0.687969 -4.11793 0
M  V30 793 H 71.1849 -4.66544 -4.83514 0
M  V30 794 N 73.905 1.17692 -1.04816 0
M  V30 795 C 75.133 1.91786 -0.776254 0
M  V30 796 C 75.548 1.76604 0.667577 0
M  V30 797 O 74.905 1.10067 1.45573 0
M  V30 798 C 74.956 3.42967 -1.14263 0
M  V30 799 O 74.677 3.57678 -2.52978 0
M  V30 800 C 76.178 4.34144 -0.896311 0
M  V30 801 H 73.398 0.608624 -0.282519 0
M  V30 802 H 75.942 1.49268 -1.39783 0
M  V30 803 H 74.097 3.83245 -0.565874 0
M  V30 804 H 74.511 4.51319 -2.67229 0
M  V30 805 H 75.985 5.38744 -1.20244 0
M  V30 806 H 76.462 4.38876 0.168636 0
M  V30 807 H 77.068 3.99574 -1.45672 0
M  V30 808 N 75.3831 0.828654 1.34056 0
M  V30 809 C 76.7991 0.515135 1.51058 0
M  V30 810 C 76.9991 -0.959581 1.77184 0
M  V30 811 O 76.0551 -1.74382 1.82612 0
M  V30 812 C 77.3681 1.37963 2.67183 0
M  V30 813 C 78.9161 1.37735 2.81066 0
M  V30 814 C 79.3911 2.22645 4.00241 0
M  V30 815 N 80.8821 2.203 4.07458 0
M  V30 816 C 81.6171 2.82744 4.98842 0
M  V30 817 N 81.1131 3.54201 5.9541 0
M  V30 818 N 82.9061 2.72268 4.91759 0
M  V30 819 H 75.0571 1.78343 1.15358 0
M  V30 820 H 77.3201 0.760304 0.566252 0
M  V30 821 H 77.0261 2.42714 2.54525 0
M  V30 822 H 76.9001 1.0484 3.62338 0
M  V30 823 H 79.2871 0.337593 2.93163 0
M  V30 824 H 79.3681 1.74859 1.86703 0
M  V30 825 H 79.0121 3.26674 3.88905 0
M  V30 826 H 78.9421 1.82869 4.93829 0
M  V30 827 H 81.4331 1.68327 3.38341 0
M  V30 828 H 81.7461 3.9908 6.61782 0
M  V30 829 H 80.0911 3.58308 5.95517 0
M  V30 830 H 83.2821 2.16014 4.15278 0
M  V30 831 H 83.4551 3.21219 5.62781 0
M  V30 832 N 76.8612 -1.46375 0.584142 0
M  V30 833 C 77.8082 -2.30323 -0.148286 0
M  V30 834 C 78.7782 -1.40703 -0.882713 0
M  V30 835 O 79.9632 -1.69651 -0.873099 0
M  V30 836 C 77.1032 -3.25196 -1.15507 0
M  V30 837 C 76.2162 -4.29915 -0.423943 0
M  V30 838 C 75.3512 -5.11914 -1.41838 0
M  V30 839 C 74.3902 -6.08381 -0.673736 0
M  V30 840 N 73.5272 -6.83242 -1.6163 0
M  V30 841 H 78.3672 -2.92427 0.573644 0
M  V30 842 H 75.9042 -1.44118 0.294703 0
M  V30 843 H 77.8622 -3.78646 -1.75166 0
M  V30 844 H 76.4922 -2.64898 -1.8447 0
M  V30 845 H 75.5442 -3.7931 0.287714 0
M  V30 846 H 76.8562 -4.98549 0.158128 0
M  V30 847 H 76.0102 -5.69648 -2.08773 0
M  V30 848 H 74.7492 -4.43243 -2.03438 0
M  V30 849 H 73.7542 -5.49799 0.00938483 0
M  V30 850 H 74.9792 -6.79071 -0.0631082 0
M  V30 851 H 72.9252 -6.1728 -2.22038 0
M  V30 852 H 72.8422 -7.48144 -1.08707 0
M  V30 853 H 74.1102 -7.45534 -2.27596 0
M  V30 854 N 78.3393 -0.321999 -1.54275 0
M  V30 855 C 79.2693 0.537411 -2.27231 0
M  V30 856 C 80.2503 1.12064 -1.27968 0
M  V30 857 O 81.4353 1.14606 -1.56777 0
M  V30 858 C 78.5653 1.69919 -3.02894 0
M  V30 859 C 77.5193 1.24534 -4.09482 0
M  V30 860 C 76.8453 2.49394 -4.72977 0
M  V30 861 C 78.1453 0.361335 -5.21049 0
M  V30 862 H 79.8393 -0.0711406 -2.99315 0
M  V30 863 H 77.3853 -0.0356555 -1.43956 0
M  V30 864 H 79.3383 2.30668 -3.52662 0
M  V30 865 H 78.0623 2.33431 -2.28424 0
M  V30 866 H 76.7213 0.660782 -3.60596 0
M  V30 867 H 76.3693 3.11265 -3.95124 0
M  V30 868 H 76.0693 2.19718 -5.44975 0
M  V30 869 H 77.5933 3.10908 -5.25517 0
M  V30 870 H 79.0073 0.875072 -5.66582 0
M  V30 871 H 77.4043 0.157428 -5.99893 0
M  V30 872 H 78.4743 -0.60822 -4.8107 0
M  V30 873 N 79.8174 1.5752 -0.0501392 0
M  V30 874 C 80.7474 2.14502 0.922566 0
M  V30 875 C 81.7284 1.06642 1.3252 0
M  V30 876 O 82.9134 1.34577 1.4001 0
M  V30 877 C 80.0434 2.68916 2.19776 0
M  V30 878 C 78.9974 3.8175 1.93523 0
M  V30 879 C 78.3234 4.22677 3.27487 0
M  V30 880 C 79.6234 5.06932 1.25765 0
M  V30 881 H 81.3174 2.9603 0.447952 0
M  V30 882 H 78.8634 1.42401 0.214024 0
M  V30 883 H 80.8164 3.07419 2.88222 0
M  V30 884 H 79.5404 1.84578 2.69441 0
M  V30 885 H 78.1994 3.43718 1.27489 0
M  V30 886 H 77.8474 3.35291 3.74952 0
M  V30 887 H 77.5474 4.98725 3.1072 0
M  V30 888 H 79.0714 4.63779 3.97166 0
M  V30 889 H 80.4854 5.42888 1.84244 0
M  V30 890 H 78.8824 5.88116 1.19328 0
M  V30 891 H 79.9524 4.84337 0.233536 0
M  V30 892 N 81.2955 -0.223234 1.56011 0
M  V30 893 C 82.2275 -1.30006 1.88762 0
M  V30 894 C 83.2405 -1.43129 0.775746 0
M  V30 895 O 84.4295 -1.44057 1.05403 0
M  V30 896 C 81.5295 -2.67589 2.07965 0
M  V30 897 C 80.7025 -2.76434 3.38973 0
M  V30 898 C 79.7615 -3.95019 3.47629 0
M  V30 899 O 78.7875 -3.83436 4.20672 0
M  V30 900 N 79.9895 -5.09249 2.78649 0
M  V30 901 H 82.7545 -1.02238 2.81722 0
M  V30 902 H 80.3155 -0.413278 1.56536 0
M  V30 903 H 82.3075 -3.45297 2.11073 0
M  V30 904 H 80.8775 -2.87964 1.21638 0
M  V30 905 H 80.0975 -1.85216 3.47978 0
M  V30 906 H 81.3855 -2.79313 4.25278 0
M  V30 907 H 80.7835 -5.21556 2.19081 0
M  V30 908 H 79.3405 -5.85007 2.8742 0
M  V30 909 N 82.7736 -1.49793 -0.48987 0
M  V30 910 C 83.9986 -1.63836 -1.27172 0
M  V30 911 C 84.4236 -0.31402 -1.8546 0
M  V30 912 O 83.7816 0.719803 -1.66399 0
M  V30 913 C 83.8296 -2.71797 -2.36978 0
M  V30 914 O 82.9336 -2.31744 -3.41128 0
M  V30 915 H 82.2746 -0.547997 -0.37496 0
M  V30 916 H 84.8046 -1.96053 -0.585191 0
M  V30 917 H 84.8146 -2.94305 -2.82575 0
M  V30 918 H 83.4896 -3.67923 -1.93921 0
M  V30 919 H 82.0666 -2.1961 -3.01373 0
M  V30 920 N 84.2517 0.741722 -1.39055 0
M  V30 921 C 85.1987 1.85566 -1.37237 0
M  V30 922 C 86.1687 1.64457 -0.233072 0
M  V30 923 O 87.3537 1.85957 -0.427147 0
M  V30 924 C 84.4937 3.23004 -1.215 0
M  V30 925 C 83.6067 3.55864 -2.44918 0
M  V30 926 C 82.7417 4.82669 -2.21821 0
M  V30 927 C 81.7807 5.08351 -3.40948 0
M  V30 928 N 80.9177 6.26356 -3.17211 0
M  V30 929 H 85.7577 1.86455 -2.32462 0
M  V30 930 H 83.2947 0.911176 -1.15482 0
M  V30 931 H 85.2527 4.02331 -1.10389 0
M  V30 932 H 83.8827 3.21411 -0.29908 0
M  V30 933 H 82.9347 2.7129 -2.66657 0
M  V30 934 H 84.2467 3.70765 -3.33668 0
M  V30 935 H 83.4007 5.69962 -2.07914 0
M  V30 936 H 82.1397 4.69929 -1.30454 0
M  V30 937 H 81.1447 4.19522 -3.55361 0
M  V30 938 H 82.3697 5.22981 -4.33207 0
M  V30 939 H 80.3157 6.14917 -2.28502 0
M  V30 940 H 80.2327 6.41813 -3.99515 0
M  V30 941 H 81.5007 7.16506 -3.06984 0
M  V30 942 N 85.7298 1.2412 0.971189 0
M  V30 943 C 86.9768 1.07881 1.71371 0
M  V30 944 C 87.3048 -0.382901 1.90694 0
M  V30 945 O 86.5598 -1.29945 1.46331 0
M  V30 946 C 86.8588 1.75983 3.11071 0
M  V30 947 C 86.5248 3.25909 3.11599 0
M  V30 948 C 85.1868 3.66813 3.11451 0
M  V30 949 C 87.5388 4.21771 3.062 0
M  V30 950 C 84.8668 5.02021 3.03631 0
M  V30 951 C 87.2188 5.56982 2.99923 0
M  V30 952 C 85.8828 5.97237 2.98102 0
M  V30 953 H 85.1528 0.394764 0.62709 0
M  V30 954 H 87.7998 1.54176 1.13587 0
M  V30 955 H 86.1048 1.22072 3.72298 0
M  V30 956 H 87.8018 1.60887 3.6731 0
M  V30 957 H 84.3918 2.93353 3.12477 0
M  V30 958 H 88.5758 3.91172 3.05447 0
M  V30 959 H 83.8318 5.32411 3.0058 0
M  V30 960 H 88.0058 6.30969 2.94704 0
M  V30 961 H 85.6328 7.01967 2.91798 0
M  V30 962 N 87.2079 -1.17134 1.05439 0
M  V30 963 C 88.4329 -1.91913 0.786396 0
M  V30 964 C 88.8579 -1.7643 -0.652234 0
M  V30 965 O 88.2159 -1.08372 -1.45345 0
M  V30 966 C 88.2639 -3.40921 1.17497 0
M  V30 967 O 87.3679 -4.11244 0.308589 0
M  V30 968 H 86.7089 -0.598215 0.288158 0
M  V30 969 H 89.2389 -1.48457 1.4079 0
M  V30 970 H 89.2489 -3.91668 1.14281 0
M  V30 971 H 87.9239 -3.5151 2.22292 0
M  V30 972 H 86.5009 -3.70731 0.40157 0
M  V30 973 N 88.686 -0.835752 -1.33615 0
M  V30 974 C 89.914 -0.443344 -2.02094 0
M  V30 975 C 90.329 0.954522 -1.62894 0
M  V30 976 O 89.686 1.61982 -0.840723 0
M  V30 977 C 89.737 -0.550775 -3.5728 0
M  V30 978 O 89.458 -1.89356 -3.95065 0
M  V30 979 C 90.959 -0.154919 -4.43029 0
M  V30 980 H 88.179 -0.176359 -0.647409 0
M  V30 981 H 90.723 -1.12746 -1.70612 0
M  V30 982 H 88.878 0.0853997 -3.87306 0
M  V30 983 H 89.292 -1.87687 -4.89769 0
M  V30 984 H 90.766 -0.281144 -5.51284 0
M  V30 985 H 91.243 0.902863 -4.2982 0
M  V30 986 H 91.849 -0.765404 -4.18356 0
M  V30 987 N 90.1641 1.46063 -0.591896 0
M  V30 988 C 91.4121 2.01938 -0.0808391 0
M  V30 989 C 91.7331 1.46475 1.28725 0
M  V30 990 O 91.0031 0.652944 1.84698 0
M  V30 991 H 89.5831 0.746516 -0.0268938 0
M  V30 992 H 92.2451 1.79055 -0.769752 0
M  V30 993 H 91.3411 3.12094 -0.0187578 0
M  V30 994 N 91.6422 0.330177 1.54103 0
M  V30 995 C 92.8912 -0.271336 1.99867 0
M  V30 996 C 93.2042 -1.52723 1.22209 0
M  V30 997 O 94.4102 -2.20515 1.58383 0
M  V30 998 C 92.8662 -0.534032 3.55916 0
M  V30 999 C 92.4742 0.705193 4.42415 0
M  V30 1000 C 94.2182 -1.09514 4.1013 0
M  V30 1001 C 92.1252 0.414035 5.89949 0
M  V30 1002 H 91.0552 -0.105166 0.74663 0
M  V30 1003 H 93.7062 0.443429 1.78062 0
M  V30 1004 H 92.0882 -1.30915 3.73734 0
M  V30 1005 H 93.2622 1.4804 4.36372 0
M  V30 1006 H 91.5772 1.18698 3.99124 0
M  V30 1007 H 94.1742 -1.3277 5.17954 0
M  V30 1008 H 94.5172 -2.04656 3.62521 0
M  V30 1009 H 95.0502 -0.381038 3.95971 0
M  V30 1010 H 91.7892 1.33481 6.41766 0
M  V30 1011 H 91.3092 -0.323336 5.98928 0
M  V30 1012 H 92.9882 0.0263105 6.46995 0
M  V30 1013 N 93.1203 -1.57491 0.0584922 0
M  V30 1014 C 94.0523 -2.08916 -0.942694 0
M  V30 1015 C 95.0653 -1.0185 -1.27006 0
M  V30 1016 O 96.2543 -1.29398 -1.22957 0
M  V30 1017 C 93.3543 -2.52341 -2.26224 0
M  V30 1018 C 92.5273 -3.82827 -2.1157 0
M  V30 1019 C 91.5863 -4.12487 -3.26712 0
M  V30 1020 O 90.6123 -4.82295 -3.02292 0
M  V30 1021 N 91.8143 -3.64978 -4.5141 0
M  V30 1022 H 94.5793 -2.95437 -0.503722 0
M  V30 1023 H 92.1403 -1.61397 -0.12757 0
M  V30 1024 H 94.1323 -2.69254 -3.02133 0
M  V30 1025 H 92.7023 -1.7103 -2.61663 0
M  V30 1026 H 91.9223 -3.75425 -1.20208 0
M  V30 1027 H 93.2103 -4.68263 -1.99015 0
M  V30 1028 H 92.6083 -3.08558 -4.7414 0
M  V30 1029 H 91.1653 -3.87115 -5.2439 0
M  V30 1030 N 94.5984 0.214957 -1.56127 0
M  V30 1031 C 95.5464 1.28601 -1.93816 0
M  V30 1032 C 96.5404 1.48175 -0.821016 0
M  V30 1033 O 97.7464 1.49271 -1.0059 0
M  V30 1034 H 94.1214 0.431302 -0.616022 0
M  V30 1035 H 96.0924 0.940991 -2.83175 0
M  V30 1036 C 94.8414 2.62779 -2.27689 0
M  V30 1037 H 94.1644 2.48527 -3.13168 0
M  V30 1038 H 95.6044 3.36517 -2.57939 0
M  V30 1039 C 94.0634 3.18285 -1.10436 0
M  V30 1040 O 94.5934 4.00002 -0.368945 0
M  V30 1041 N 92.7994 2.7675 -0.886433 0
M  V30 1042 H 92.3464 2.10404 -1.48619 0
M  V30 1043 H 92.3044 3.14229 -0.103656 0
M  V30 1044 N 96.0765 1.50051 0.48192 0
M  V30 1045 C 97.3225 1.60736 1.2366 0
M  V30 1046 C 97.6555 0.301786 1.91841 0
M  V30 1047 O 96.9305 -0.696025 1.8162 0
M  V30 1048 C 97.2135 2.78009 2.28874 0
M  V30 1049 C 97.0665 4.18416 1.65069 0
M  V30 1050 C 98.3855 2.90867 3.30279 0
M  V30 1051 H 95.5045 0.585031 0.448228 0
M  V30 1052 H 98.1465 1.82402 0.531946 0
M  V30 1053 H 96.2965 2.59667 2.88973 0
M  V30 1054 H 97.9685 4.48322 1.0865 0
M  V30 1055 H 96.2115 4.23177 0.954148 0
M  V30 1056 H 96.8825 4.96381 2.41474 0
M  V30 1057 H 99.3585 3.07623 2.80191 0
M  V30 1058 H 98.2345 3.74566 4.01238 0
M  V30 1059 H 98.4955 2.01021 3.93755 0
M  V30 1060 N 97.5546 -0.734337 1.39446 0
M  V30 1061 C 98.7796 -1.52866 1.40167 0
M  V30 1062 C 99.2046 -1.881 -0.00171513 0
M  V30 1063 O 98.5626 -1.51957 -0.988879 0
M  V30 1064 C 98.6106 -2.79235 2.28167 0
M  V30 1065 O 97.7146 -3.75185 1.71201 0
M  V30 1066 H 97.0556 -0.461618 0.477289 0
M  V30 1067 H 99.5856 -0.905949 1.8345 0
M  V30 1068 H 99.5956 -3.27963 2.42702 0
M  V30 1069 H 98.2706 -2.52923 3.30156 0
M  V30 1070 H 96.8476 -3.33958 1.65912 0
M  V30 1071 N 99.0327 -1.24633 -0.964593 0
M  V30 1072 C 99.9797 -1.04144 -2.05968 0
M  V30 1073 C 100.95 0.046262 -1.66036 0
M  V30 1074 O 102.135 -0.108972 -1.90489 0
M  V30 1075 C 99.2747 -0.65563 -3.38815 0
M  V30 1076 C 98.3877 -1.81714 -3.91923 0
M  V30 1077 C 97.5227 -1.37662 -5.13052 0
M  V30 1078 C 96.5617 -2.50788 -5.58365 0
M  V30 1079 N 95.6987 -2.07582 -6.70712 0
M  V30 1080 H 100.539 -1.9787 -2.22827 0
M  V30 1081 H 98.0757 -0.9855 -1.09208 0
M  V30 1082 H 100.034 -0.412954 -4.15151 0
M  V30 1083 H 98.6637 0.244627 -3.21872 0
M  V30 1084 H 97.7157 -2.1734 -3.12198 0
M  V30 1085 H 99.0277 -2.66705 -4.21509 0
M  V30 1086 H 98.1817 -1.093 -5.96773 0
M  V30 1087 H 96.9207 -0.497293 -4.85158 0
M  V30 1088 H 95.9257 -2.79906 -4.73215 0
M  V30 1089 H 97.1507 -3.39283 -5.88272 0
M  V30 1090 H 95.0967 -1.22051 -6.44546 0
M  V30 1091 H 95.0137 -2.86125 -6.99763 0
M  V30 1092 H 96.2817 -1.82369 -7.57867 0
M  V30 1093 N 100.511 1.16574 -1.06058 0
M  V30 1094 C 101.758 1.87047 -0.775873 0
M  V30 1095 C 102.086 1.81562 0.697534 0
M  V30 1096 O 101.341 1.22445 1.52662 0
M  V30 1097 C 101.64 3.36195 -1.21275 0
M  V30 1098 C 101.306 3.6188 -2.68986 0
M  V30 1099 C 99.9678 3.68599 -3.09335 0
M  V30 1100 C 102.32 3.72648 -3.64394 0
M  V30 1101 C 99.6478 3.83584 -4.43937 0
M  V30 1102 C 102 3.89154 -4.98741 0
M  V30 1103 C 100.664 3.94114 -5.3873 0
M  V30 1104 H 99.9338 0.684452 -0.283912 0
M  V30 1105 H 102.581 1.37853 -1.32925 0
M  V30 1106 H 100.886 3.87505 -0.578528 0
M  V30 1107 H 102.583 3.89103 -0.969542 0
M  V30 1108 H 99.1728 3.57281 -2.36744 0
M  V30 1109 H 103.357 3.66769 -3.34356 0
M  V30 1110 H 98.6128 3.85677 -4.74409 0
M  V30 1111 H 102.787 3.96427 -5.72554 0
M  V30 1112 H 100.414 4.05478 -6.43033 0
M  V30 1113 N 101.989 0.842826 1.3317 0
M  V30 1114 C 103.237 0.439577 1.97262 0
M  V30 1115 C 103.558 -1.00548 1.67078 0
M  V30 1116 O 102.828 -1.70098 0.971779 0
M  V30 1117 H 101.408 0.159558 0.72976 0
M  V30 1118 H 104.07 1.07665 1.62463 0
M  V30 1119 H 103.166 0.574886 3.0676 0
M  V30 1120 N 103.467 -1.45747 0.599634 0
M  V30 1121 C 104.415 -2.322 -0.136426 0
M  V30 1122 C 105.409 -1.45497 -0.867583 0
M  V30 1123 O 106.615 -1.62027 -0.78405 0
M  V30 1124 H 102.99 -0.749368 -0.0628588 0
M  V30 1125 H 104.961 -2.92072 0.611281 0
M  V30 1126 C 103.71 -3.28974 -1.12567 0
M  V30 1127 H 103.033 -3.9568 -0.572484 0
M  V30 1128 H 104.473 -3.92212 -1.61077 0
M  V30 1129 C 102.932 -2.55561 -2.19523 0
M  V30 1130 O 103.462 -2.33111 -3.27143 0
M  V30 1131 N 101.668 -2.15832 -1.94589 0
M  V30 1132 H 101.215 -2.3429 -1.07078 0
M  V30 1133 H 101.173 -1.67034 -2.66359 0
M  V30 1134 N 104.945 -0.338344 -1.53925 0
M  V30 1135 C 106.193 0.259245 -2.0043 0
M  V30 1136 C 106.514 1.51484 -1.22791 0
M  V30 1137 O 105.784 1.93037 -0.33368 0
M  V30 1138 H 104.364 0.0987845 -0.740439 0
M  V30 1139 H 107.026 -0.458302 -1.89435 0
M  V30 1140 H 106.122 0.505334 -3.07982 0
M  V30 1141 N 106.423 1.57458 -0.0668435 0
M  V30 1142 C 107.648 1.9804 0.616027 0
M  V30 1143 C 108.073 0.944771 1.62652 0
M  V30 1144 O 107.431 -0.0902094 1.81075 0
M  V30 1145 C 107.479 3.37665 1.26549 0
M  V30 1146 O 106.583 3.36701 2.38131 0
M  V30 1147 H 105.924 0.644719 0.158849 0
M  V30 1148 H 108.454 2.04121 -0.139891 0
M  V30 1149 H 108.464 3.7474 1.6135 0
M  V30 1150 H 107.139 4.12573 0.525016 0
M  V30 1151 H 105.716 3.1139 2.0516 0
M  V30 1152 N 107.901 -0.206675 1.56239 0
M  V30 1153 C 109.131 -0.943975 1.83773 0
M  V30 1154 C 109.539 -1.77841 0.645703 0
M  V30 1155 O 108.882 -1.79403 -0.395008 0
M  V30 1156 C 108.944 -1.899 3.05251 0
M  V30 1157 C 108.608 -1.24764 4.39639 0
M  V30 1158 C 109.605 -0.630216 5.16066 0
M  V30 1159 C 107.29 -1.25496 4.8637 0
M  V30 1160 C 109.284 -0.0287946 6.37393 0
M  V30 1161 C 106.971 -0.649698 6.07637 0
M  V30 1162 C 107.969 -0.0376845 6.8299 0
M  V30 1163 O 107.657 0.55812 8.0196 0
M  V30 1164 H 107.389 -0.281508 0.614597 0
M  V30 1165 H 109.943 -0.222458 2.04192 0
M  V30 1166 H 108.173 -2.6599 2.80689 0
M  V30 1167 H 109.862 -2.5031 3.1953 0
M  V30 1168 H 110.628 -0.616785 4.81062 0
M  V30 1169 H 106.507 -1.72072 4.27683 0
M  V30 1170 H 110.051 0.449518 6.9615 0
M  V30 1171 H 105.948 -0.660592 6.42111 0
M  V30 1172 H 106.716 0.453891 8.17241 0
M  V30 1173 N 109.379 -1.50304 -0.473955 0
M  V30 1174 C 110.607 -1.64902 -1.24959 0
M  V30 1175 C 111.022 -0.331198 -1.85872 0
M  V30 1176 O 110.379 0.68652 -1.69095 0
M  V30 1177 C 110.43 -2.73803 -2.36038 0
M  V30 1178 O 110.151 -4.00477 -1.77624 0
M  V30 1179 C 111.652 -2.99349 -3.26964 0
M  V30 1180 H 108.872 -0.554383 -0.378022 0
M  V30 1181 H 111.416 -1.9651 -0.566054 0
M  V30 1182 H 109.571 -2.44898 -3.00173 0
M  V30 1183 H 109.985 -4.60678 -2.5075 0
M  V30 1184 H 111.459 -3.79217 -4.01121 0
M  V30 1185 H 111.936 -2.10307 -3.85574 0
M  V30 1186 H 112.542 -3.29774 -2.68569 0
M  V30 1187 N 110.857 0.726932 -1.39834 0
M  V30 1188 C 112.105 1.4837 -1.37225 0
M  V30 1189 C 112.426 1.94979 0.0284857 0
M  V30 1190 O 111.696 1.69555 0.981213 0
M  V30 1191 H 110.276 0.55043 -0.505011 0
M  V30 1192 H 112.938 0.862468 -1.74778 0
M  V30 1193 H 112.034 2.36198 -2.04003 0
M  V30 1194 N 112.336 1.25143 0.95797 0
M  V30 1195 C 113.246 1.06968 2.08794 0
M  V30 1196 C 114.262 0.00773911 1.73998 0
M  V30 1197 O 115.438 0.207972 2.00323 0
M  V30 1198 C 112.503 0.68691 3.39827 0
M  V30 1199 C 111.564 1.82641 3.88511 0
M  V30 1200 C 110.797 1.46181 5.1329 0
M  V30 1201 O 111.02 0.355971 5.69288 0
M  V30 1202 O 109.954 2.29085 5.566 0
M  V30 1203 H 113.78 2.01723 2.27027 0
M  V30 1204 H 111.365 1.04051 1.07209 0
M  V30 1205 H 113.247 0.485417 4.18595 0
M  V30 1206 H 111.922 -0.231417 3.22872 0
M  V30 1207 H 110.829 2.08274 3.10762 0
M  V30 1208 H 112.162 2.72386 4.09959 0
M  V30 1209 N 113.814 -1.1601 1.06675 0
M  V30 1210 C 115.06 -1.86909 0.786945 0
M  V30 1211 C 115.393 -1.81717 -0.685018 0
M  V30 1212 O 114.668 -1.23551 -1.50218 0
M  V30 1213 C 114.951 -3.36313 1.28707 0
M  V30 1214 C 114.804 -3.50175 2.82308 0
M  V30 1215 C 116.123 -4.3084 0.898071 0
M  V30 1216 H 113.242 -0.678677 0.287343 0
M  V30 1217 H 115.884 -1.36336 1.32334 0
M  V30 1218 H 114.034 -3.79513 0.830768 0
M  V30 1219 H 115.706 -3.15886 3.36175 0
M  V30 1220 H 113.949 -2.91959 3.20847 0
M  V30 1221 H 114.62 -4.55116 3.12368 0
M  V30 1222 H 117.096 -3.95561 1.29114 0
M  V30 1223 H 115.972 -5.33876 1.27543 0
M  V30 1224 H 116.233 -4.41662 -0.196651 0
M  V30 1225 N 115.292 -0.849877 -1.32721 0
M  V30 1226 C 116.517 -0.463856 -2.02146 0
M  V30 1227 C 116.942 0.930449 -1.63476 0
M  V30 1228 O 116.3 1.61033 -0.832952 0
M  V30 1229 C 116.348 -0.604955 -3.55489 0
M  V30 1230 O 115.452 0.36425 -4.10788 0
M  V30 1231 H 114.793 -0.187046 -0.637111 0
M  V30 1232 H 117.323 -1.14775 -1.69375 0
M  V30 1233 H 117.333 -0.490696 -4.05038 0
M  V30 1234 H 116.008 -1.62174 -3.82978 0
M  V30 1235 H 114.585 0.206628 -3.72327 0
M  V30 1236 N 116.77 1.45427 -0.607355 0
M  V30 1237 C 117.733 2.28974 0.101693 0
M  V30 1238 C 118.733 1.39754 0.795329 0
M  V30 1239 O 119.923 1.61878 0.643527 0
M  V30 1240 C 117.055 3.20768 1.15414 0
M  V30 1241 H 118.248 2.93147 -0.632844 0
M  V30 1242 H 115.801 1.51945 -0.366391 0
M  V30 1243 H 116.536 2.61395 1.91945 0
M  V30 1244 H 116.321 3.86489 0.66098 0
M  V30 1245 H 117.811 3.83589 1.65073 0
M  V30 1246 N 118.248 0.346503 1.53744 0
M  V30 1247 C 119.158 -0.517293 2.28826 0
M  V30 1248 C 120.174 -1.10935 1.3405 0
M  V30 1249 O 121.35 -1.1244 1.6709 0
M  V30 1250 C 118.415 -1.65098 3.04866 0
M  V30 1251 C 117.476 -1.0884 4.15274 0
M  V30 1252 C 116.709 -2.16806 4.87679 0
M  V30 1253 O 116.932 -3.3758 4.59778 0
M  V30 1254 O 115.866 -1.80934 5.74061 0
M  V30 1255 H 119.692 0.0931396 3.03557 0
M  V30 1256 H 117.277 0.111458 1.48984 0
M  V30 1257 H 119.159 -2.31053 3.5241 0
M  V30 1258 H 117.834 -2.24717 2.32989 0
M  V30 1259 H 116.741 -0.3933 3.72027 0
M  V30 1260 H 118.074 -0.537036 4.89261 0
M  V30 1261 N 119.726 -1.57421 0.075193 0
M  V30 1262 C 120.975 -1.92794 -0.592731 0
M  V30 1263 C 121.288 -0.957478 -1.70563 0
M  V30 1264 O 122.494 -1.20417 -2.43335 0
M  V30 1265 C 120.95 -3.42495 -1.10569 0
M  V30 1266 C 120.558 -4.47994 -0.0236121 0
M  V30 1267 C 122.302 -3.86864 -1.74748 0
M  V30 1268 C 120.209 -5.88829 -0.550803 0
M  V30 1269 H 119.139 -0.719591 -0.225177 0
M  V30 1270 H 121.79 -1.82902 0.147978 0
M  V30 1271 H 120.172 -3.47471 -1.89947 0
M  V30 1272 H 121.346 -4.54637 0.751099 0
M  V30 1273 H 119.661 -4.13113 0.522159 0
M  V30 1274 H 122.258 -4.8947 -2.15229 0
M  V30 1275 H 122.601 -3.24417 -2.60882 0
M  V30 1276 H 123.134 -3.84504 -1.01986 0
M  V30 1277 H 119.873 -6.54929 0.273457 0
M  V30 1278 H 119.393 -5.85698 -1.29296 0
M  V30 1279 H 121.072 -6.38811 -1.02613 0
M  V30 1280 N 121.204 0.198386 -1.56346 0
M  V30 1281 C 122.167 1.22952 -1.93431 0
M  V30 1282 C 123.167 1.38611 -0.815092 0
M  V30 1283 O 124.357 1.36479 -1.08255 0
M  V30 1284 C 121.489 2.59946 -2.20546 0
M  V30 1285 H 122.682 0.912626 -2.85677 0
M  V30 1286 H 120.235 0.43977 -1.49986 0
M  V30 1287 H 120.97 2.96696 -1.30927 0
M  V30 1288 H 120.755 2.49953 -3.02102 0
M  V30 1289 H 122.245 3.3431 -2.50253 0
M  V30 1290 N 122.682 1.50554 0.465978 0
M  V30 1291 C 123.629 1.6979 1.56333 0
M  V30 1292 C 124.599 0.539239 1.57103 0
M  V30 1293 O 125.784 0.770401 1.74555 0
M  V30 1294 C 122.924 1.80273 2.94271 0
M  V30 1295 C 122.037 3.07674 3.0325 0
M  V30 1296 C 121.172 3.08922 4.32135 0
M  V30 1297 C 120.211 4.30755 4.34875 0
M  V30 1298 N 119.348 4.29714 5.55239 0
M  V30 1299 H 124.188 2.63472 1.39235 0
M  V30 1300 H 121.725 1.30602 0.676873 0
M  V30 1301 H 123.683 1.84332 3.74269 0
M  V30 1302 H 122.313 0.900258 3.09992 0
M  V30 1303 H 121.365 3.13062 2.16094 0
M  V30 1304 H 122.677 3.97642 3.01135 0
M  V30 1305 H 121.831 3.11738 5.20485 0
M  V30 1306 H 120.57 2.16792 4.36866 0
M  V30 1307 H 119.575 4.28146 3.44922 0
M  V30 1308 H 120.8 5.24117 4.31831 0
M  V30 1309 H 118.746 3.4044 5.60746 0
M  V30 1310 H 118.663 5.13456 5.54886 0
M  V30 1311 H 119.931 4.36683 6.457 0
M  V30 1312 N 124.16 -0.719506 1.40217 0
M  V30 1313 C 125.437 -1.47221 1.28784 0
M  V30 1314 C 125.817 -2.10883 -0.0956067 0
M  V30 1315 O 125.165 -1.99833 -1.10811 0
M  V30 1316 C 125.375 -2.5111 2.42373 0
M  V30 1317 C 126.723 -3.17053 2.82423 0
M  V30 1318 O 127.747 -2.61429 2.41937 0
M  V30 1319 O 126.606 -4.17742 3.52355 0
M  V30 1320 H 123.7 -0.654491 0.50554 0
M  V30 1321 H 126.246 -0.752014 1.52128 0
M  V30 1322 H 125.018 -2.02556 3.34793 0
M  V30 1323 H 124.641 -3.3067 2.20778 0
M  V30 1324 N 125.638 -1.25649 -0.95132 0
M  V30 1325 C 126.568 -1.08808 -2.06599 0
M  V30 1326 C 127.549 0.00382547 -1.701 0
M  V30 1327 O 128.734 -0.166325 -1.93486 0
M  V30 1328 C 125.864 -0.709542 -3.39975 0
M  V30 1329 C 124.818 -1.75206 -3.90496 0
M  V30 1330 C 124.144 -1.22811 -5.20405 0
M  V30 1331 C 125.444 -3.15153 -4.16504 0
M  V30 1332 H 127.138 -2.02048 -2.20946 0
M  V30 1333 H 124.684 -0.972835 -1.06169 0
M  V30 1334 H 126.637 -0.578649 -4.17408 0
M  V30 1335 H 125.361 0.258556 -3.25575 0
M  V30 1336 H 124.02 -1.87145 -3.15234 0
M  V30 1337 H 123.668 -0.250145 -5.02378 0
M  V30 1338 H 123.368 -1.92492 -5.55176 0
M  V30 1339 H 124.892 -1.10968 -6.00432 0
M  V30 1340 H 126.306 -3.06349 -4.84586 0
M  V30 1341 H 124.703 -3.82333 -4.62538 0
M  V30 1342 H 125.773 -3.61966 -3.22658 0
M  V30 1343 N 127.117 1.15442 -1.07289 0
M  V30 1344 C 128.065 2.22225 -0.686952 0
M  V30 1345 C 129.059 1.66688 0.30193 0
M  V30 1346 O 130.265 1.79236 0.165712 0
M  V30 1347 H 126.64 0.723783 -0.204064 0
M  V30 1348 H 128.611 2.52056 -1.5972 0
M  V30 1349 C 127.36 3.47556 -0.100149 0
M  V30 1350 H 126.683 3.90612 -0.852211 0
M  V30 1351 H 128.123 4.23794 0.132235 0
M  V30 1352 C 126.582 3.16337 1.159 0
M  V30 1353 O 127.112 3.33074 2.24555 0
M  V30 1354 N 125.318 2.70385 1.06491 0
M  V30 1355 H 124.865 2.56966 0.180668 0
M  V30 1356 H 124.823 2.49871 1.90819 0
M  V30 1357 N 128.595 0.856903 1.32268 0
M  V30 1358 C 129.844 0.457599 1.96441 0
M  V30 1359 C 130.157 -0.992426 1.68553 0
M  V30 1360 O 131.363 -1.49727 2.26482 0
M  V30 1361 C 129.819 0.767358 3.51624 0
M  V30 1362 C 129.427 2.23326 3.88367 0
M  V30 1363 C 131.171 0.435887 4.22256 0
M  V30 1364 C 129.078 2.48613 5.36606 0
M  V30 1365 H 128.008 0.167387 0.735185 0
M  V30 1366 H 130.659 1.048 1.5063 0
M  V30 1367 H 129.041 0.106367 3.95857 0
M  V30 1368 H 130.215 2.93623 3.55137 0
M  V30 1369 H 128.53 2.52948 3.30766 0
M  V30 1370 H 131.127 0.602202 5.31298 0
M  V30 1371 H 131.47 -0.622672 4.11617 0
M  V30 1372 H 132.003 1.05286 3.83614 0
M  V30 1373 H 128.742 3.53101 5.52268 0
M  V30 1374 H 128.262 1.82896 5.71235 0
M  V30 1375 H 129.941 2.32676 6.03714 0
M  V30 1376 N 130.073 -1.45103 0.615059 0
M  V30 1377 C 130.983 -2.34382 -0.101034 0
M  V30 1378 C 131.999 -1.51681 -0.852585 0
M  V30 1379 O 133.175 -1.8446 -0.808484 0
M  V30 1380 C 130.24 -3.29417 -1.08099 0
M  V30 1381 C 129.301 -4.28025 -0.330577 0
M  V30 1382 C 128.534 -5.1852 -1.26385 0
M  V30 1383 O 128.757 -5.12598 -2.50198 0
M  V30 1384 O 127.691 -5.97122 -0.756866 0
M  V30 1385 H 131.517 -2.97033 0.632855 0
M  V30 1386 H 129.102 -1.4461 0.375293 0
M  V30 1387 H 130.984 -3.87958 -1.6452 0
M  V30 1388 H 129.659 -2.69321 -1.79577 0
M  V30 1389 H 128.566 -3.73078 0.276283 0
M  V30 1390 H 129.899 -4.90997 0.343866 0
M  V30 1391 N 131.551 -0.354651 -1.53558 0
M  V30 1392 C 132.781 0.239167 -2.05211 0
M  V30 1393 C 133.189 1.43879 -1.22863 0
M  V30 1394 O 132.532 1.81857 -0.259565 0
M  V30 1395 C 132.594 0.707251 -3.52474 0
M  V30 1396 C 132.258 -0.374212 -4.55465 0
M  V30 1397 C 133.255 -1.22054 -5.0537 0
M  V30 1398 C 130.94 -0.531323 -4.99482 0
M  V30 1399 C 132.934 -2.20942 -5.97882 0
M  V30 1400 C 130.621 -1.52358 -5.91802 0
M  V30 1401 C 131.619 -2.36108 -6.40892 0
M  V30 1402 O 131.307 -3.33643 -7.31394 0
M  V30 1403 H 131.039 0.0479716 -0.674296 0
M  V30 1404 H 133.593 -0.508121 -1.99016 0
M  V30 1405 H 131.823 1.50596 -3.56171 0
M  V30 1406 H 133.512 1.22285 -3.87042 0
M  V30 1407 H 134.278 -1.1103 -4.7212 0
M  V30 1408 H 130.157 0.110738 -4.60867 0
M  V30 1409 H 133.701 -2.86348 -6.36121 0
M  V30 1410 H 129.598 -1.63434 -6.24467 0
M  V30 1411 H 130.366 -3.29244 -7.4936 0
M  V30 1412 N 133.029 1.57378 -0.0835403 0
M  V30 1413 C 134.275 1.94217 0.583733 0
M  V30 1414 C 134.608 0.964653 1.68547 0
M  V30 1415 O 133.883 -0.00422258 1.945 0
M  V30 1416 C 134.166 3.41253 1.14972 0
M  V30 1417 C 134.019 4.49768 0.0538277 0
M  V30 1418 C 135.338 3.89352 2.05166 0
M  V30 1419 H 132.457 0.706233 0.210724 0
M  V30 1420 H 135.099 1.89392 -0.1519 0
M  V30 1421 H 133.249 3.45496 1.77665 0
M  V30 1422 H 134.921 4.57641 -0.579851 0
M  V30 1423 H 133.164 4.29432 -0.614068 0
M  V30 1424 H 133.835 5.49817 0.490452 0
M  V30 1425 H 136.311 3.87189 1.52393 0
M  V30 1426 H 135.187 4.92822 2.41698 0
M  V30 1427 H 135.448 3.27973 2.96456 0
M  V30 1428 N 134.507 -0.190092 1.56449 0
M  V30 1429 C 135.756 -0.907912 1.80111 0
M  V30 1430 C 136.069 -1.84214 0.657619 0
M  V30 1431 O 137.275 -2.60094 0.778663 0
M  V30 1432 C 135.731 -1.66485 3.19078 0
M  V30 1433 C 135.339 -0.7752 4.41242 0
M  V30 1434 C 137.083 -2.37201 3.52045 0
M  V30 1435 C 134.99 -1.53129 5.71231 0
M  V30 1436 H 133.92 -0.34276 0.671589 0
M  V30 1437 H 136.571 -0.161109 1.82791 0
M  V30 1438 H 134.953 -2.45572 3.10661 0
M  V30 1439 H 136.127 -0.0226298 4.60794 0
M  V30 1440 H 134.442 -0.178627 4.16017 0
M  V30 1441 H 137.039 -2.94329 4.46402 0
M  V30 1442 H 137.382 -3.11632 2.76028 0
M  V30 1443 H 137.915 -1.65075 3.61932 0
M  V30 1444 H 134.654 -0.82967 6.50228 0
M  V30 1445 H 134.174 -2.25767 5.55688 0
M  V30 1446 H 135.853 -2.08377 6.12526 0
M  V30 1447 N 135.985 -1.50799 -0.457987 0
M  V30 1448 C 137.234 -1.6168 -1.20593 0
M  V30 1449 C 137.547 -0.32888 -1.92815 0
M  V30 1450 O 138.753 -0.316773 -2.69646 0
M  V30 1451 C 137.209 -2.8545 -2.19195 0
M  V30 1452 C 136.817 -4.21168 -1.52715 0
M  V30 1453 C 138.561 -3.05681 -2.94549 0
M  V30 1454 C 136.468 -5.3611 -2.4968 0
M  V30 1455 H 135.398 -0.602134 -0.453818 0
M  V30 1456 H 138.049 -1.77245 -0.475031 0
M  V30 1457 H 136.431 -2.63472 -2.95632 0
M  V30 1458 H 137.605 -4.53449 -0.819775 0
M  V30 1459 H 135.92 -4.06648 -0.895922 0
M  V30 1460 H 138.517 -3.88727 -3.67145 0
M  V30 1461 H 138.86 -2.17929 -3.54701 0
M  V30 1462 H 139.393 -3.27901 -2.25223 0
M  V30 1463 H 136.132 -6.26057 -1.94249 0
M  V30 1464 H 135.652 -5.0823 -3.18532 0
M  V30 1465 H 137.331 -5.6722 -3.11241 0
M  V30 1466 N 137.463 0.71206 -1.40597 0
M  V30 1467 C 138.711 1.46907 -1.38791 0
M  V30 1468 C 139.032 1.94998 0.00780391 0
M  V30 1469 O 138.302 1.70587 0.963174 0
M  V30 1470 H 136.882 0.545043 -0.51082 0
M  V30 1471 H 139.544 0.843882 -1.75683 0
M  V30 1472 H 138.64 2.34021 -2.06496 0
M  V30 1473 N 138.941 1.26152 0.944643 0
M  V30 1474 C 139.891 1.04081 2.02857 0
M  V30 1475 C 140.875 -0.0256555 1.6088 0
M  V30 1476 O 142.067 0.190884 1.75968 0
M  V30 1477 C 139.196 0.672118 3.36656 0
M  V30 1478 C 138.282 1.77586 3.85128 0
M  V30 1479 N 138.673 3.01272 4.06287 0
M  V30 1480 C 136.971 1.65867 4.1401 0
M  V30 1481 C 137.672 3.72983 4.46384 0
M  V30 1482 N 136.648 3.00653 4.52889 0
M  V30 1483 H 140.45 1.97968 2.17223 0
M  V30 1484 H 137.964 1.16618 1.13022 0
M  V30 1485 H 139.961 0.495166 4.13949 0
M  V30 1486 H 138.621 -0.259307 3.23663 0
M  V30 1487 H 139.632 3.37213 3.93075 0
M  V30 1488 H 136.309 0.796907 4.09824 0
M  V30 1489 H 137.699 4.792 4.70975 0
M  V30 1490 N 140.419 -1.14872 1.07899 0
M  V30 1491 C 141.666 -1.85789 0.805532 0
M  V30 1492 C 141.994 -1.82649 -0.668561 0
M  V30 1493 O 141.249 -1.24858 -1.50695 0
M  V30 1494 C 141.548 -3.34223 1.26609 0
M  V30 1495 C 141.214 -3.57555 2.74709 0
M  V30 1496 C 139.876 -3.63631 3.1516 0
M  V30 1497 C 142.228 -3.66803 3.70277 0
M  V30 1498 C 139.556 -3.76473 4.49983 0
M  V30 1499 C 141.908 -3.8117 5.04869 0
M  V30 1500 C 140.572 -3.85494 5.44932 0
M  V30 1501 H 139.842 -0.679849 0.294765 0
M  V30 1502 H 142.489 -1.3572 1.35101 0
M  V30 1503 H 140.794 -3.86536 0.640103 0
M  V30 1504 H 142.491 -3.87511 1.03132 0
M  V30 1505 H 139.081 -3.5347 2.42398 0
M  V30 1506 H 143.265 -3.61404 3.40149 0
M  V30 1507 H 138.521 -3.7808 4.80484 0
M  V30 1508 H 142.695 -3.87268 5.78789 0
M  V30 1509 H 140.322 -3.95197 6.49403 0
M  V30 1510 N 141.898 -0.863906 -1.31812 0
M  V30 1511 C 142.808 -0.318461 -2.32428 0
M  V30 1512 C 143.824 0.568496 -1.64451 0
M  V30 1513 O 145 0.46666 -1.95919 0
M  V30 1514 C 142.065 0.476355 -3.43412 0
M  V30 1515 C 141.126 -0.43784 -4.27061 0
M  V30 1516 C 140.359 0.319138 -5.32745 0
M  V30 1517 O 140.582 1.54799 -5.48993 0
M  V30 1518 O 139.516 -0.319861 -6.01049 0
M  V30 1519 H 143.342 -1.15229 -2.80991 0
M  V30 1520 H 140.927 -0.627103 -1.35602 0
M  V30 1521 H 142.809 0.927156 -4.11074 0
M  V30 1522 H 141.484 1.28683 -2.97022 0
M  V30 1523 H 140.391 -0.937013 -3.62175 0
M  V30 1524 H 141.724 -1.21375 -4.77 0
M  V30 1525 N 143.376 1.44774 -0.622745 0
M  V30 1526 C 144.792 1.56986 -0.287652 0
M  V30 1527 C 144.992 1.61167 1.20944 0
M  V30 1528 O 144.048 1.55015 1.99315 0
M  V30 1529 C 145.361 2.84551 -0.972188 0
M  V30 1530 C 146.909 2.9825 -0.949536 0
M  V30 1531 C 147.384 4.28605 -1.61437 0
M  V30 1532 N 148.875 4.35399 -1.58057 0
M  V30 1533 C 149.61 5.34964 -2.064 0
M  V30 1534 N 149.106 6.40981 -2.62897 0
M  V30 1535 N 150.899 5.26419 -1.97078 0
M  V30 1536 H 143.05 1.40304 -1.59463 0
M  V30 1537 H 145.313 0.671794 -0.668878 0
M  V30 1538 H 145.019 2.87417 -2.02693 0
M  V30 1539 H 144.893 3.73807 -0.504771 0
M  V30 1540 H 147.28 2.94941 0.0967067 0
M  V30 1541 H 147.361 2.10364 -1.45536 0
M  V30 1542 H 147.005 4.32672 -2.66002 0
M  V30 1543 H 146.935 5.15334 -1.08344 0
M  V30 1544 H 149.426 3.59397 -1.16801 0
M  V30 1545 H 149.739 7.13225 -2.97539 0
M  V30 1546 H 148.084 6.4169 -2.66943 0
M  V30 1547 H 151.275 4.42504 -1.52669 0
M  V30 1548 H 151.448 6.03861 -2.35066 0
M  V30 1549 N 144.854 0.36279 1.53368 0
M  V30 1550 C 146.27 0.0116182 1.59596 0
M  V30 1551 C 146.47 -1.47012 1.37803 0
M  V30 1552 O 145.526 -2.23136 1.18181 0
M  V30 1553 C 146.839 0.465052 2.97082 0
M  V30 1554 C 148.387 0.419033 3.10182 0
M  V30 1555 C 148.862 0.848235 4.50077 0
M  V30 1556 N 150.353 0.803183 4.56183 0
M  V30 1557 C 151.088 1.107 5.62613 0
M  V30 1558 N 150.584 1.47996 6.76808 0
M  V30 1559 N 152.377 1.02998 5.52583 0
M  V30 1560 H 144.528 1.32775 1.65785 0
M  V30 1561 H 146.791 0.542518 0.777417 0
M  V30 1562 H 146.497 1.49892 3.18159 0
M  V30 1563 H 146.371 -0.149786 3.76902 0
M  V30 1564 H 148.758 -0.605696 2.88817 0
M  V30 1565 H 148.839 1.06933 2.32377 0
M  V30 1566 H 148.483 1.87107 4.7218 0
M  V30 1567 H 148.413 0.175218 5.26308 0
M  V30 1568 H 150.904 0.52838 3.74188 0
M  V30 1569 H 151.217 1.69613 7.53957 0
M  V30 1570 H 149.562 1.51859 6.78206 0
M  V30 1571 H 152.753 0.737817 4.62249 0
M  V30 1572 H 152.926 1.2701 6.35431 0
M  V30 1573 N 146.332 -1.57332 0.0918853 0
M  V30 1574 C 147.279 -2.13847 -0.868211 0
M  V30 1575 C 148.249 -1.05618 -1.28196 0
M  V30 1576 O 149.434 -1.33387 -1.36427 0
M  V30 1577 C 146.574 -2.72062 -2.12312 0
M  V30 1578 C 145.687 -3.94514 -1.7602 0
M  V30 1579 C 144.822 -4.40903 -2.96273 0
M  V30 1580 C 143.861 -5.55953 -2.56092 0
M  V30 1581 N 142.998 -5.97209 -3.69169 0
M  V30 1582 H 147.838 -2.95575 -0.379406 0
M  V30 1583 H 145.375 -1.46048 -0.175606 0
M  V30 1584 H 147.333 -3.03931 -2.858 0
M  V30 1585 H 145.963 -1.93068 -2.58698 0
M  V30 1586 H 145.015 -3.68979 -0.925135 0
M  V30 1587 H 146.327 -4.7802 -1.42472 0
M  V30 1588 H 145.481 -4.74539 -3.78018 0
M  V30 1589 H 144.22 -3.56291 -3.33029 0
M  V30 1590 H 143.225 -5.21948 -1.72773 0
M  V30 1591 H 144.45 -6.42311 -2.20484 0
M  V30 1592 H 142.396 -5.15543 -4.05649 0
M  V30 1593 H 142.313 -6.75504 -3.39456 0
M  V30 1594 H 143.581 -6.35475 -4.51434 0
M  V30 1595 N 147.81 0.181792 -1.56548 0
M  V30 1596 C 149.04 0.914618 -1.85252 0
M  V30 1597 C 149.448 1.76791 -0.673914 0
M  V30 1598 O 148.791 1.80009 0.366416 0
M  V30 1599 C 148.853 1.85019 -3.08234 0
M  V30 1600 C 148.517 1.17754 -4.41569 0
M  V30 1601 C 149.514 0.548035 -5.17003 0
M  V30 1602 C 147.199 1.17742 -4.88305 0
M  V30 1603 C 149.193 -0.0726128 -6.37359 0
M  V30 1604 C 146.88 0.552946 -6.08593 0
M  V30 1605 C 147.878 -0.070978 -6.82963 0
M  V30 1606 O 147.566 -0.685635 -8.00971 0
M  V30 1607 H 147.298 0.271695 -0.618998 0
M  V30 1608 H 149.852 0.189944 -2.0452 0
M  V30 1609 H 148.082 2.61491 -2.84885 0
M  V30 1610 H 149.771 2.45195 -3.23472 0
M  V30 1611 H 150.537 0.540174 -4.81982 0
M  V30 1612 H 146.416 1.65246 -4.30366 0
M  V30 1613 H 149.96 -0.560213 -6.95347 0
M  V30 1614 H 145.857 0.558354 -6.43081 0
M  V30 1615 H 146.625 -0.58385 -8.16415 0
M  V30 1616 N 149.288 1.51039 0.449983 0
M  V30 1617 C 150.535 1.63081 1.20045 0
M  V30 1618 C 150.863 0.341024 1.91487 0
M  V30 1619 O 150.118 -0.674276 1.83717 0
M  V30 1620 C 150.417 2.77556 2.25161 0
M  V30 1621 C 150.083 4.17289 1.70823 0
M  V30 1622 C 148.745 4.55305 1.55725 0
M  V30 1623 C 151.097 5.04536 1.3074 0
M  V30 1624 C 148.425 5.78287 0.989999 0
M  V30 1625 C 150.777 6.28085 0.754482 0
M  V30 1626 C 149.441 6.64885 0.590308 0
M  V30 1627 H 148.711 0.596755 0.439277 0
M  V30 1628 H 151.358 1.85037 0.49333 0
M  V30 1629 H 149.663 2.49771 3.01863 0
M  V30 1630 H 151.36 2.84073 2.83026 0
M  V30 1631 H 147.95 3.8731 1.83546 0
M  V30 1632 H 152.134 4.75782 1.41229 0
M  V30 1633 H 147.39 6.05456 0.850451 0
M  V30 1634 H 151.564 6.95038 0.435324 0
M  V30 1635 H 149.191 7.60055 0.14862 0
M  V30 1636 N 150.766 -0.704594 1.40972 0
M  V30 1637 C 151.716 -1.81051 1.38581 0
M  V30 1638 C 152.7 -1.58759 0.261585 0
M  V30 1639 O 153.892 -1.69745 0.501556 0
M  V30 1640 C 151.021 -3.19279 1.26157 0
M  V30 1641 C 150.107 -3.47296 2.43405 0
M  V30 1642 N 150.498 -3.46064 3.68881 0
M  V30 1643 C 148.796 -3.77804 2.37023 0
M  V30 1644 C 149.497 -3.72733 4.46592 0
M  V30 1645 N 148.473 -3.9203 3.76581 0
M  V30 1646 H 152.275 -1.78448 2.33525 0
M  V30 1647 H 149.789 -0.904198 1.349 0
M  V30 1648 H 151.786 -3.98488 1.22526 0
M  V30 1649 H 150.446 -3.231 0.321902 0
M  V30 1650 H 151.457 -3.26656 4.01891 0
M  V30 1651 H 148.134 -3.8905 1.51481 0
M  V30 1652 H 149.524 -3.77993 5.55492 0
M  V30 1653 N 152.244 -1.26651 -0.937939 0
M  V30 1654 C 153.154 -1.10276 -2.07066 0
M  V30 1655 C 154.17 -0.0354197 -1.73964 0
M  V30 1656 O 155.346 -0.239816 -1.99967 0
M  V30 1657 C 152.411 -0.740887 -3.38691 0
M  V30 1658 C 151.472 -1.88799 -3.85556 0
M  V30 1659 C 150.705 -1.54329 -5.10899 0
M  V30 1660 O 150.928 -0.446494 -5.6865 0
M  V30 1661 O 149.862 -2.37911 -5.52885 0
M  V30 1662 H 153.688 -2.05309 -2.23789 0
M  V30 1663 H 151.273 -1.05743 -1.0554 0
M  V30 1664 H 153.155 -0.55195 -4.1777 0
M  V30 1665 H 151.83 0.180022 -3.23199 0
M  V30 1666 H 150.737 -2.13191 -3.07409 0
M  V30 1667 H 152.07 -2.78874 -4.05574 0
M  V30 1668 N 153.722 1.14298 -1.08507 0
M  V30 1669 C 154.95 1.89219 -0.836876 0
M  V30 1670 C 155.365 1.78638 0.611054 0
M  V30 1671 O 154.722 1.14643 1.41998 0
M  V30 1672 C 154.773 3.39158 -1.25116 0
M  V30 1673 O 154.494 3.49449 -2.64229 0
M  V30 1674 C 155.995 4.31073 -1.03398 0
M  V30 1675 H 153.215 0.599328 -0.301739 0
M  V30 1676 H 155.759 1.44746 -1.44461 0
M  V30 1677 H 153.914 3.81251 -0.687514 0
M  V30 1678 H 154.328 4.42589 -2.81452 0
M  V30 1679 H 155.802 5.34646 -1.37323 0
M  V30 1680 H 156.279 4.3919 0.0289259 0
M  V30 1681 H 156.885 3.94738 -1.58311 0
M  V30 1682 N 155.201 0.870884 1.31352 0
M  V30 1683 C 156.478 0.402907 1.91405 0
M  V30 1684 C 156.858 -1.11512 1.79244 0
M  V30 1685 O 156.206 -1.94411 1.2007 0
M  V30 1686 C 156.416 0.885301 3.37585 0
M  V30 1687 C 157.764 0.911971 4.14691 0
M  V30 1688 O 158.788 0.831016 3.46371 0
M  V30 1689 O 157.647 1.02927 5.3672 0
M  V30 1690 H 154.741 0.120698 0.818145 0
M  V30 1691 H 157.287 0.958857 1.40014 0
M  V30 1692 H 156.059 1.92889 3.40455 0
M  V30 1693 H 155.682 0.307714 3.96407 0
M  V30 1694 N 156.679 -1.44442 0.630414 0
M  V30 1695 C 157.589 -2.34476 -0.0761693 0
M  V30 1696 C 158.605 -1.52576 -0.836449 0
M  V30 1697 O 159.781 -1.85307 -0.788874 0
M  V30 1698 C 156.846 -3.30545 -1.04599 0
M  V30 1699 C 155.907 -4.28352 -0.28516 0
M  V30 1700 C 155.14 -5.19831 -1.20878 0
M  V30 1701 O 155.363 -5.15223 -2.44747 0
M  V30 1702 O 154.297 -5.97892 -0.693491 0
M  V30 1703 H 158.123 -2.96345 0.664324 0
M  V30 1704 H 155.708 -1.44203 0.39061 0
M  V30 1705 H 157.59 -3.89681 -1.60396 0
M  V30 1706 H 156.265 -2.7121 -1.76711 0
M  V30 1707 H 155.172 -3.72764 0.315837 0
M  V30 1708 H 156.505 -4.90605 0.395924 0
M  V30 1709 N 158.157 -0.370918 -1.53173 0
M  V30 1710 C 159.434 0.273754 -1.93675 0
M  V30 1711 C 159.814 1.65938 -1.3049 0
M  V30 1712 O 159.162 2.23698 -0.465999 0
M  V30 1713 C 159.372 0.318602 -3.47543 0
M  V30 1714 C 160.72 0.556392 -4.20939 0
M  V30 1715 O 161.744 0.399587 -3.53952 0
M  V30 1716 O 160.603 0.862133 -5.39657 0
M  V30 1717 H 157.697 0.165448 -0.810281 0
M  V30 1718 H 160.243 -0.42409 -1.64315 0
M  V30 1719 H 159.015 -0.652687 -3.85818 0
M  V30 1720 H 158.638 1.06212 -3.83151 0
M  V30 1721 N 159.635 1.57281 -0.100228 0
M  V30 1722 C 160.881 1.94826 0.563101 0
M  V30 1723 C 161.214 0.982475 1.67514 0
M  V30 1724 O 160.489 0.0164069 1.94493 0
M  V30 1725 C 160.772 3.42453 1.11346 0
M  V30 1726 C 160.625 4.498 0.00612081 0
M  V30 1727 C 161.944 3.91506 2.01024 0
M  V30 1728 H 159.063 0.708428 0.203221 0
M  V30 1729 H 161.705 1.8922 -0.171979 0
M  V30 1730 H 159.855 3.47361 1.7399 0
M  V30 1731 H 161.527 4.57 -0.628357 0
M  V30 1732 H 159.77 4.28756 -0.659581 0
M  V30 1733 H 160.441 5.50306 0.432109 0
M  V30 1734 H 162.917 3.88784 1.48278 0
M  V30 1735 H 161.793 4.95358 2.36457 0
M  V30 1736 H 162.054 3.31099 2.92961 0
M  V30 1737 N 161.113 -0.173488 1.56642 0
M  V30 1738 C 162.529 -0.525174 1.50712 0
M  V30 1739 C 162.729 -1.8476 0.804107 0
M  V30 1740 O 161.785 -2.49869 0.363574 0
M  V30 1741 C 163.098 -0.559937 2.95441 0
M  V30 1742 C 164.646 -0.647288 3.06234 0
M  V30 1743 C 165.121 -0.712963 4.52417 0
M  V30 1744 N 166.612 -0.775911 4.56655 0
M  V30 1745 C 167.347 -0.847264 5.67106 0
M  V30 1746 N 166.843 -0.879585 6.87194 0
M  V30 1747 N 168.636 -0.886117 5.55071 0
M  V30 1748 H 160.787 0.693681 2.00753 0
M  V30 1749 H 163.05 0.249841 0.914485 0
M  V30 1750 H 162.756 0.343049 3.50023 0
M  V30 1751 H 162.63 -1.40718 3.49969 0
M  V30 1752 H 165.017 -1.5407 2.51687 0
M  V30 1753 H 165.098 0.226586 2.54794 0
M  V30 1754 H 164.742 0.176183 5.07594 0
M  V30 1755 H 164.672 -1.60295 5.0161 0
M  V30 1756 H 167.163 -0.759304 3.70193 0
M  V30 1757 H 167.476 -0.935144 7.67121 0
M  V30 1758 H 165.821 -0.847898 6.89808 0
M  V30 1759 H 169.012 -0.857853 4.60172 0
M  V30 1760 H 169.185 -0.938263 6.41171 0
M  V30 1761 N 162.591 -1.51276 -0.441967 0
M  V30 1762 C 163.501 -1.75092 -1.56141 0
M  V30 1763 C 164.517 -0.634963 -1.62001 0
M  V30 1764 O 165.693 -0.916686 -1.79329 0
M  V30 1765 C 162.758 -1.86666 -2.92158 0
M  V30 1766 C 161.819 -3.10506 -2.96453 0
M  V30 1767 C 161.052 -3.21519 -4.25982 0
M  V30 1768 O 161.275 -2.38586 -5.18105 0
M  V30 1769 O 160.209 -4.14465 -4.36466 0
M  V30 1770 H 164.035 -2.70044 -1.38961 0
M  V30 1771 H 161.62 -1.35722 -0.624499 0
M  V30 1772 H 163.502 -1.96292 -3.72891 0
M  V30 1773 H 162.177 -0.949014 -3.09476 0
M  V30 1774 H 161.084 -3.06363 -2.14692 0
M  V30 1775 H 162.417 -4.01945 -2.84079 0
M  V30 1776 N 164.069 0.697108 -1.41344 0
M  V30 1777 C 165.016 1.81106 -1.43071 0
M  V30 1778 C 165.986 1.63632 -0.285275 0
M  V30 1779 O 167.171 1.84504 -0.486091 0
M  V30 1780 C 164.311 3.18975 -1.31715 0
M  V30 1781 C 163.424 3.47892 -2.56115 0
M  V30 1782 C 162.559 4.75367 -2.37064 0
M  V30 1783 C 161.598 4.97247 -3.56948 0
M  V30 1784 N 160.735 6.15947 -3.36977 0
M  V30 1785 H 165.575 1.78965 -2.38276 0
M  V30 1786 H 163.112 0.873975 -1.18322 0
M  V30 1787 H 165.07 3.98615 -1.23133 0
M  V30 1788 H 163.7 3.20297 -0.401183 0
M  V30 1789 H 162.752 2.62669 -2.75153 0
M  V30 1790 H 164.064 3.59962 -3.45295 0
M  V30 1791 H 163.218 5.63059 -2.25941 0
M  V30 1792 H 161.957 4.65541 -1.45338 0
M  V30 1793 H 160.962 4.08004 -3.68527 0
M  V30 1794 H 162.187 5.08934 -4.49626 0
M  V30 1795 H 160.133 6.07336 -2.47949 0
M  V30 1796 H 160.05 6.28777 -4.19732 0
M  V30 1797 H 161.318 7.06377 -3.29623 0
M  V30 1798 N 165.547 1.27147 0.931209 0
M  V30 1799 C 166.477 1.12081 2.04842 0
M  V30 1800 C 167.458 0.0232364 1.70084 0
M  V30 1801 O 168.643 0.197085 1.93197 0
M  V30 1802 C 165.773 0.76354 3.38803 0
M  V30 1803 C 164.727 1.81396 3.87659 0
M  V30 1804 C 164.053 1.31075 5.18385 0
M  V30 1805 C 165.353 3.21739 4.11438 0
M  V30 1806 H 167.047 2.05537 2.17703 0
M  V30 1807 H 164.593 0.989603 1.04608 0
M  V30 1808 H 166.546 0.644982 4.16435 0
M  V30 1809 H 165.27 -0.206727 3.25945 0
M  V30 1810 H 163.929 1.92136 3.12217 0
M  V30 1811 H 163.577 0.330037 5.01916 0
M  V30 1812 H 163.277 2.013 5.52044 0
M  V30 1813 H 164.801 1.20506 5.98591 0
M  V30 1814 H 166.215 3.14019 4.79651 0
M  V30 1815 H 164.612 3.89644 4.56397 0
M  V30 1816 H 165.682 3.67054 3.16859 0
M  V30 1817 N 167.025 -1.13721 1.09112 0
M  V30 1818 C 167.957 -2.1871 0.685467 0
M  V30 1819 C 168.97 -1.60527 -0.271068 0
M  V30 1820 O 170.159 -1.78407 -0.0576148 0
M  V30 1821 C 167.259 -3.38898 -0.0111255 0
M  V30 1822 C 166.432 -4.26597 0.966131 0
M  V30 1823 C 165.491 -5.25324 0.303539 0
M  V30 1824 O 164.517 -5.61213 0.950177 0
M  V30 1825 N 165.719 -5.72779 -0.943651 0
M  V30 1826 H 168.484 -2.54126 1.58871 0
M  V30 1827 H 166.045 -1.29012 0.978143 0
M  V30 1828 H 168.037 -4.02014 -0.465517 0
M  V30 1829 H 166.607 -3.01747 -0.816565 0
M  V30 1830 H 165.827 -3.60306 1.59917 0
M  V30 1831 H 167.115 -4.82048 1.6281 0
M  V30 1832 H 166.513 -5.45762 -1.48862 0
M  V30 1833 H 165.07 -6.37847 -1.34142 0
M  V30 1834 N 168.503 -0.877838 -1.30888 0
M  V30 1835 C 169.466 -0.344265 -2.266 0
M  V30 1836 C 170.466 0.50922 -1.52524 0
M  V30 1837 O 171.656 0.317398 -1.71284 0
M  V30 1838 C 168.788 0.510198 -3.37061 0
M  V30 1839 H 169.981 -1.1893 -2.7531 0
M  V30 1840 H 167.534 -0.654088 -1.41956 0
M  V30 1841 H 168.269 1.37612 -2.93655 0
M  V30 1842 H 168.054 -0.101047 -3.9197 0
M  V30 1843 H 169.544 0.875537 -4.08319 0
M  V30 1844 N 169.982 1.44106 -0.638065 0
M  V30 1845 C 171.207 2.0685 -0.150916 0
M  V30 1846 C 171.632 1.47417 1.16833 0
M  V30 1847 O 170.99 0.578264 1.71831 0
M  V30 1848 C 171.038 3.60555 -0.05708 0
M  V30 1849 O 170.142 4.00465 0.984972 0
M  V30 1850 H 169.483 0.658151 -0.0879399 0
M  V30 1851 H 172.013 1.84865 -0.876707 0
M  V30 1852 H 172.023 4.07789 0.131232 0
M  V30 1853 H 170.698 4.03193 -1.02021 0
M  V30 1854 H 169.275 3.64849 0.770672 0
M  V30 1855 N 171.46 0.379036 1.52974 0
M  V30 1856 C 172.39 -0.452706 2.29069 0
M  V30 1857 C 173.371 -1.07237 1.32039 0
M  V30 1858 O 174.556 -1.08708 1.60923 0
M  V30 1859 C 171.686 -1.5856 3.08992 0
M  V30 1860 C 170.64 -1.0925 4.13822 0
M  V30 1861 C 169.966 -2.31668 4.81907 0
M  V30 1862 C 171.266 -0.167702 5.22031 0
M  V30 1863 H 172.96 0.182181 2.98845 0
M  V30 1864 H 170.506 0.0890592 1.43724 0
M  V30 1865 H 172.459 -2.1742 3.6098 0
M  V30 1866 H 171.183 -2.24792 2.36931 0
M  V30 1867 H 169.842 -0.526494 3.628 0
M  V30 1868 H 169.49 -2.96386 4.06404 0
M  V30 1869 H 169.19 -1.9934 5.52754 0
M  V30 1870 H 170.714 -2.91189 5.36695 0
M  V30 1871 H 172.128 -0.664186 5.6944 0
M  V30 1872 H 170.525 0.0653265 6.00064 0
M  V30 1873 H 171.595 0.786347 4.78482 0
M  V30 1874 N 172.938 -1.57226 0.108567 0
M  V30 1875 C 173.885 -2.14756 -0.845481 0
M  V30 1876 C 174.855 -1.06971 -1.27068 0
M  V30 1877 O 176.04 -1.34827 -1.35005 0
M  V30 1878 C 173.18 -2.74298 -2.09415 0
M  V30 1879 C 172.293 -3.96358 -1.71826 0
M  V30 1880 C 171.428 -4.44021 -2.9158 0
M  V30 1881 C 170.467 -5.58637 -2.50181 0
M  V30 1882 N 169.604 -6.01091 -3.62814 0
M  V30 1883 H 174.444 -2.95961 -0.348035 0
M  V30 1884 H 171.981 -1.46226 -0.160106 0
M  V30 1885 H 173.939 -3.06945 -2.82561 0
M  V30 1886 H 172.569 -1.95801 -2.56636 0
M  V30 1887 H 171.621 -3.69939 -0.885947 0
M  V30 1888 H 172.933 -4.79504 -1.37394 0
M  V30 1889 H 172.087 -4.78522 -3.72963 0
M  V30 1890 H 170.826 -3.59803 -3.29231 0
M  V30 1891 H 169.831 -5.23751 -1.67228 0
M  V30 1892 H 171.056 -6.44613 -2.13659 0
M  V30 1893 H 169.002 -5.19817 -4.00158 0
M  V30 1894 H 168.919 -6.79066 -3.32273 0
M  V30 1895 H 170.187 -6.40227 -4.44668 0
M  V30 1896 N 174.416 0.165178 -1.56732 0
M  V30 1897 C 175.364 1.22369 -1.97809 0
M  V30 1898 C 176.358 1.45488 -0.867741 0
M  V30 1899 O 177.564 1.45995 -1.05288 0
M  V30 1900 H 173.939 0.411486 -0.629431 0
M  V30 1901 H 175.91 0.850425 -2.86025 0
M  V30 1902 C 174.659 2.55403 -2.35934 0
M  V30 1903 H 173.982 2.38438 -3.20916 0
M  V30 1904 H 175.422 3.2814 -2.68514 0
M  V30 1905 C 173.881 3.14611 -1.20506 0
M  V30 1906 O 174.411 3.98626 -0.496016 0
M  V30 1907 N 172.617 2.7379 -0.97403 0
M  V30 1908 H 172.164 2.0557 -1.55238 0
M  V30 1909 H 172.122 3.1374 -0.203573 0
M  V30 1910 N 175.894 1.51508 0.433938 0
M  V30 1911 C 176.842 1.73646 1.54757 0
M  V30 1912 C 177.836 0.602854 1.5831 0
M  V30 1913 O 179.042 0.784318 1.62014 0
M  V30 1914 H 175.417 0.548718 0.51421 0
M  V30 1915 H 177.388 2.66991 1.33261 0
M  V30 1916 C 176.137 1.88172 2.92381 0
M  V30 1917 H 175.46 2.74808 2.90381 0
M  V30 1918 H 176.9 2.07672 3.6966 0
M  V30 1919 C 175.359 0.64239 3.30719 0
M  V30 1920 O 175.889 -0.201362 4.01195 0
M  V30 1921 N 174.095 0.485489 2.86516 0
M  V30 1922 H 173.642 1.17318 2.29334 0
M  V30 1923 H 173.6 -0.342482 3.12529 0
M  V30 1924 N 177.372 -0.689602 1.41712 0
M  V30 1925 C 178.302 -1.81577 1.46806 0
M  V30 1926 C 179.283 -1.66945 0.326105 0
M  V30 1927 O 180.468 -1.86588 0.538377 0
M  V30 1928 C 177.598 -3.19762 1.35535 0
M  V30 1929 C 176.552 -3.49107 2.47605 0
M  V30 1930 C 175.878 -4.86711 2.21397 0
M  V30 1931 C 177.178 -3.47483 3.89939 0
M  V30 1932 H 178.872 -1.7757 2.41058 0
M  V30 1933 H 176.418 -0.852887 1.16025 0
M  V30 1934 H 178.371 -3.98263 1.3771 0
M  V30 1935 H 177.095 -3.24409 0.377708 0
M  V30 1936 H 175.754 -2.72959 2.44722 0
M  V30 1937 H 175.402 -4.8799 1.21961 0
M  V30 1938 H 175.102 -5.0731 2.96497 0
M  V30 1939 H 176.626 -5.67515 2.25297 0
M  V30 1940 H 178.04 -4.1598 3.94505 0
M  V30 1941 H 176.437 -3.79615 4.64771 0
M  V30 1942 H 177.507 -2.46341 4.17665 0
M  V30 1943 N 178.85 -1.27639 -0.924453 0
M  V30 1944 C 179.797 -1.10644 -2.0255 0
M  V30 1945 C 180.767 -0.00658438 -1.66099 0
M  V30 1946 O 181.952 -0.16952 -1.90045 0
M  V30 1947 C 179.092 -0.76309 -3.36557 0
M  V30 1948 C 178.205 -1.94091 -3.85944 0
M  V30 1949 C 177.34 -1.53914 -5.08413 0
M  V30 1950 C 176.379 -2.68425 -5.50104 0
M  V30 1951 N 175.516 -2.28815 -6.63768 0
M  V30 1952 H 180.356 -2.04858 -2.16419 0
M  V30 1953 H 177.893 -1.01974 -1.06017 0
M  V30 1954 H 179.851 -0.544822 -4.13627 0
M  V30 1955 H 178.481 0.142102 -3.22487 0
M  V30 1956 H 177.533 -2.27162 -3.05125 0
M  V30 1957 H 178.845 -2.7998 -4.12811 0
M  V30 1958 H 177.999 -1.28231 -5.92994 0
M  V30 1959 H 176.738 -0.651391 -4.8333 0
M  V30 1960 H 175.743 -2.94819 -4.64071 0
M  V30 1961 H 176.968 -3.57826 -5.7718 0
M  V30 1962 H 174.914 -1.42495 -6.40337 0
M  V30 1963 H 174.831 -3.08242 -6.90306 0
M  V30 1964 H 176.099 -2.06387 -7.51681 0
M  V30 1965 N 180.328 1.1314 -1.09713 0
M  V30 1966 C 181.291 2.16831 -0.742751 0
M  V30 1967 C 182.291 1.59159 0.229129 0
M  V30 1968 O 183.481 1.74199 0.00693237 0
M  V30 1969 C 180.613 3.40756 -0.0989168 0
M  V30 1970 H 181.806 2.49695 -1.66109 0
M  V30 1971 H 179.359 1.2802 -0.896699 0
M  V30 1972 H 180.094 3.13485 0.830514 0
M  V30 1973 H 179.879 3.83888 -0.798265 0
M  V30 1974 H 181.369 4.17386 0.133524 0
M  V30 1975 N 181.806 0.884767 1.30421 0
M  V30 1976 C 183.052 0.503851 1.96441 0
M  V30 1977 C 183.385 -0.944518 1.69684 0
M  V30 1978 O 182.66 -1.66737 1.00145 0
M  V30 1979 C 182.943 0.779085 3.51571 0
M  V30 1980 C 182.796 2.27807 3.87846 0
M  V30 1981 C 184.115 0.255452 4.39358 0
M  V30 1982 H 181.234 0.184533 0.713524 0
M  V30 1983 H 183.876 1.10872 1.54297 0
M  V30 1984 H 182.026 0.264274 3.876 0
M  V30 1985 H 183.698 2.86127 3.61841 0
M  V30 1986 H 181.941 2.74479 3.35922 0
M  V30 1987 H 182.612 2.42125 4.96064 0
M  V30 1988 H 185.088 0.696079 4.10236 0
M  V30 1989 H 183.964 0.477361 5.4682 0
M  V30 1990 H 184.225 -0.843293 4.33983 0
M  V30 1991 N 183.284 -1.43765 0.645699 0
M  V30 1992 C 184.53 -2.02197 0.156271 0
M  V30 1993 C 184.863 -1.50776 -1.22393 0
M  V30 1994 O 184.138 -0.697771 -1.81553 0
M  V30 1995 C 184.421 -3.59749 0.158872 0
M  V30 1996 C 184.274 -4.21419 1.57245 0
M  V30 1997 C 185.593 -4.37149 -0.50879 0
M  V30 1998 H 182.712 -0.734694 0.0582602 0
M  V30 1999 H 185.354 -1.71157 0.824951 0
M  V30 2000 H 183.504 -3.86325 -0.410525 0
M  V30 2001 H 185.176 -4.059 2.19186 0
M  V30 2002 H 183.419 -3.78356 2.122 0
M  V30 2003 H 184.09 -5.30482 1.52619 0
M  V30 2004 H 186.566 -4.16093 -0.024412 0
M  V30 2005 H 185.442 -5.4683 -0.476213 0
M  V30 2006 H 185.703 -4.12839 -1.58165 0
M  V30 2007 N 184.763 -0.387143 -1.52771 0
M  V30 2008 C 186.003 0.195537 -2.03463 0
M  V30 2009 C 186.367 1.44222 -1.26744 0
M  V30 2010 O 187.568 2.10192 -1.67549 0
M  V30 2011 C 185.839 0.459097 -3.54439 0
M  V30 2012 S 187.398 1.01237 -4.26962 0
M  V30 2013 H 184.216 0.0552675 -0.708849 0
M  V30 2014 H 186.818 -0.534992 -1.88037 0
M  V30 2015 H 185.522 -0.455382 -4.07866 0
M  V30 2016 H 185.053 1.21811 -3.74066 0
M  V30 2017 H 187.068 2.29492 -4.39941 0
M  V30 2018 N 186.241 1.57166 -0.116904 0
M  V30 2019 C 187.488 1.95123 0.541603 0
M  V30 2020 C 187.816 1.00006 1.6682 0
M  V30 2021 O 187.071 0.0235658 1.95686 0
M  V30 2022 C 187.37 3.39508 1.11664 0
M  V30 2023 C 187.036 4.50762 0.111606 0
M  V30 2024 C 185.698 4.80918 -0.164758 0
M  V30 2025 C 188.05 5.18036 -0.573438 0
M  V30 2026 C 185.378 5.75666 -1.13249 0
M  V30 2027 C 187.73 6.13824 -1.52978 0
M  V30 2028 C 186.394 6.42374 -1.81415 0
M  V30 2029 H 185.664 0.714005 0.198187 0
M  V30 2030 H 188.311 1.9048 -0.197365 0
M  V30 2031 H 186.616 3.40835 1.93232 0
M  V30 2032 H 188.313 3.66189 1.63422 0
M  V30 2033 H 184.903 4.27272 0.337192 0
M  V30 2034 H 189.087 4.94896 -0.373092 0
M  V30 2035 H 184.343 5.96092 -1.35958 0
M  V30 2036 H 188.517 6.65039 -2.06629 0
M  V30 2037 H 186.144 7.15599 -2.56557 0
M  V30 2038 N 187.719 -0.156864 1.56817 0
M  V30 2039 C 188.967 -0.869404 1.82444 0
M  V30 2040 C 189.288 -1.82147 0.69623 0
M  V30 2041 O 188.558 -1.93847 -0.28287 0
M  V30 2042 H 187.138 -0.324043 0.673056 0
M  V30 2043 H 189.8 -0.153224 1.94297 0
M  V30 2044 H 188.896 -1.43761 2.77019 0
M  V30 2045 N 189.197 -1.51736 -0.425897 0
M  V30 2046 C 190.107 -1.76738 -1.54275 0
M  V30 2047 C 191.123 -0.65211 -1.61318 0
M  V30 2048 O 192.299 -0.935654 -1.78346 0
M  V30 2049 C 189.364 -1.89755 -2.90162 0
M  V30 2050 C 188.425 -3.13633 -2.93143 0
M  V30 2051 C 187.658 -3.2602 -4.22548 0
M  V30 2052 O 187.881 -2.44067 -5.15546 0
M  V30 2053 O 186.815 -4.19071 -4.32046 0
M  V30 2054 H 190.641 -2.71502 -1.36089 0
M  V30 2055 H 188.226 -1.36376 -0.610069 0
M  V30 2056 H 190.108 -2.00236 -3.70788 0
M  V30 2057 H 188.783 -0.981785 -3.08452 0
M  V30 2058 H 187.69 -3.08622 -2.11431 0
M  V30 2059 H 189.023 -4.04936 -2.798 0
M  V30 2060 N 190.675 0.682077 -1.42076 0
M  V30 2061 C 191.9 1.47558 -1.45744 0
M  V30 2062 C 192.325 1.87977 -0.0680981 0
M  V30 2063 O 191.683 1.55522 0.9318 0
M  V30 2064 C 191.731 2.70575 -2.38373 0
M  V30 2065 O 190.835 3.68573 -1.85007 0
M  V30 2066 H 190.176 0.443585 -0.494093 0
M  V30 2067 H 192.706 0.837238 -1.86686 0
M  V30 2068 H 192.716 3.18729 -2.54707 0
M  V30 2069 H 191.391 2.40495 -3.39315 0
M  V30 2070 H 189.968 3.2757 -1.78192 0
M  V30 2071 N 192.153 1.28127 0.917671 0
M  V30 2072 C 193.083 1.14248 2.03641 0
M  V30 2073 C 194.064 0.0412748 1.7005 0
M  V30 2074 O 195.249 0.217566 1.92977 0
M  V30 2075 C 192.379 0.799431 3.37974 0
M  V30 2076 C 191.333 1.85497 3.85713 0
M  V30 2077 C 190.659 1.36565 5.16966 0
M  V30 2078 C 191.959 3.26085 4.08002 0
M  V30 2079 H 193.653 2.07835 2.15511 0
M  V30 2080 H 191.199 1.00064 1.03553 0
M  V30 2081 H 193.152 0.689114 4.15727 0
M  V30 2082 H 191.876 -0.172145 3.26146 0
M  V30 2083 H 190.535 1.95437 3.10161 0
M  V30 2084 H 190.183 0.383253 5.01538 0
M  V30 2085 H 189.883 2.07143 5.49878 0
M  V30 2086 H 191.407 1.26848 5.97279 0
M  V30 2087 H 192.821 3.19089 4.76293 0
M  V30 2088 H 191.218 3.94462 4.52238 0
M  V30 2089 H 192.288 3.70394 3.12948 0
M  V30 2090 N 193.631 -1.12557 1.10312 0
M  V30 2091 C 194.541 -2.21841 0.763142 0
M  V30 2092 C 195.557 -1.72354 -0.238801 0
M  V30 2093 O 196.733 -2.01249 -0.0778746 0
M  V30 2094 C 193.798 -3.46131 0.198632 0
M  V30 2095 C 192.859 -4.10464 1.25769 0
M  V30 2096 C 192.092 -5.28821 0.72002 0
M  V30 2097 O 192.315 -5.6859 -0.453993 0
M  V30 2098 O 191.249 -5.83437 1.47935 0
M  V30 2099 H 195.075 -2.53312 1.67532 0
M  V30 2100 H 192.66 -1.20867 0.878157 0
M  V30 2101 H 194.542 -4.2125 -0.112401 0
M  V30 2102 H 193.217 -3.16338 -0.686419 0
M  V30 2103 H 192.124 -3.3713 1.62156 0
M  V30 2104 H 193.457 -4.44408 2.11571 0
M  V30 2105 N 195.109 -0.891671 -1.2995 0
M  V30 2106 C 196.041 -0.320695 -2.26945 0
M  V30 2107 C 197.054 0.528497 -1.53983 0
M  V30 2108 O 198.243 0.346959 -1.75096 0
M  V30 2109 C 195.343 0.562066 -3.34207 0
M  V30 2110 C 194.516 -0.259576 -4.36629 0
M  V30 2111 C 193.575 0.554739 -5.23268 0
M  V30 2112 O 192.601 -0.0249311 -5.69195 0
M  V30 2113 N 193.803 1.8625 -5.4981 0
M  V30 2114 H 196.568 -1.15432 -2.76578 0
M  V30 2115 H 194.129 -0.755336 -1.432 0
M  V30 2116 H 196.121 1.11304 -3.89093 0
M  V30 2117 H 194.691 1.29637 -2.84452 0
M  V30 2118 H 193.911 -0.991986 -3.81514 0
M  V30 2119 H 195.199 -0.822564 -5.02107 0
M  V30 2120 H 194.597 2.35628 -5.14292 0
M  V30 2121 H 193.154 2.36078 -6.07545 0
M  V30 2122 N 196.587 1.43421 -0.653314 0
M  V30 2123 C 198.003 1.56341 -0.320886 0
M  V30 2124 C 198.203 1.63696 1.17499 0
M  V30 2125 O 197.259 1.59208 1.95982 0
M  V30 2126 C 198.572 2.82424 -1.03233 0
M  V30 2127 C 200.12 2.96168 -1.01259 0
M  V30 2128 C 200.595 4.25084 -1.70492 0
M  V30 2129 N 202.086 4.31948 -1.67257 0
M  V30 2130 C 202.821 5.30466 -2.17701 0
M  V30 2131 N 202.317 6.35261 -2.76434 0
M  V30 2132 N 204.11 5.2212 -2.082 0
M  V30 2133 H 196.261 1.3689 -1.62403 0
M  V30 2134 H 198.524 0.657455 -0.682977 0
M  V30 2135 H 198.23 2.83053 -2.08744 0
M  V30 2136 H 198.104 3.72653 -0.583948 0
M  V30 2137 H 200.491 2.9508 0.0341235 0
M  V30 2138 H 200.572 2.07229 -1.49966 0
M  V30 2139 H 200.216 4.26932 -2.7512 0
M  V30 2140 H 200.146 5.1292 -1.19251 0
M  V30 2141 H 202.637 3.56838 -1.24398 0
M  V30 2142 H 202.95 7.06754 -3.12601 0
M  V30 2143 H 201.295 6.35884 -2.80495 0
M  V30 2144 H 204.486 4.39166 -1.62021 0
M  V30 2145 H 204.659 5.98739 -2.47822 0
M  V30 2146 N 198.065 0.39524 1.52563 0
M  V30 2147 C 198.975 -0.444232 2.30356 0
M  V30 2148 C 199.991 -1.06615 1.37511 0
M  V30 2149 O 201.167 -1.07067 1.70583 0
M  V30 2150 C 198.232 -1.55315 3.09964 0
M  V30 2151 C 197.293 -0.955734 4.18526 0
M  V30 2152 C 196.526 -2.01181 4.9433 0
M  V30 2153 O 196.749 -3.22781 4.70285 0
M  V30 2154 O 195.683 -1.62579 5.79527 0
M  V30 2155 H 199.509 0.189667 3.03107 0
M  V30 2156 H 197.094 0.1588 1.48554 0
M  V30 2157 H 198.976 -2.19724 3.59582 0
M  V30 2158 H 197.651 -2.17191 2.4002 0
M  V30 2159 H 196.558 -0.274743 3.7309 0
M  V30 2160 H 197.891 -0.381109 4.90722 0
M  V30 2161 N 199.544 -1.57102 0.125237 0
M  V30 2162 C 200.476 -2.12726 -0.853237 0
M  V30 2163 C 201.489 -1.07145 -1.22571 0
M  V30 2164 O 202.678 -1.34497 -1.17358 0
M  V30 2165 C 199.778 -2.61709 -2.15317 0
M  V30 2166 C 198.951 -3.91456 -1.95143 0
M  V30 2167 C 198.01 -4.25973 -3.08923 0
M  V30 2168 O 197.036 -4.94682 -2.81564 0
M  V30 2169 N 198.238 -3.83795 -4.35524 0
M  V30 2170 H 201.003 -2.97307 -0.377964 0
M  V30 2171 H 198.564 -1.61792 -0.0590011 0
M  V30 2172 H 200.556 -2.81826 -2.90441 0
M  V30 2173 H 199.126 -1.81974 -2.54174 0
M  V30 2174 H 198.346 -3.80185 -1.04177 0
M  V30 2175 H 199.634 -4.76283 -1.78976 0
M  V30 2176 H 199.032 -3.2839 -4.60626 0
M  V30 2177 H 197.589 -4.09008 -5.07499 0
M  V30 2178 N 201.022 0.148545 -1.56898 0
M  V30 2179 C 201.97 1.20265 -1.99096 0
M  V30 2180 C 202.964 1.44559 -0.883123 0
M  V30 2181 O 204.17 1.4487 -1.0683 0
M  V30 2182 H 200.545 0.404786 -0.63376 0
M  V30 2183 H 202.516 0.82004 -2.86911 0
M  V30 2184 C 201.265 2.52886 -2.3863 0
M  V30 2185 H 200.588 2.35021 -3.23427 0
M  V30 2186 H 202.028 3.25274 -2.7198 0
M  V30 2187 C 200.487 3.13315 -1.23837 0
M  V30 2188 O 201.017 3.98077 -0.538268 0
M  V30 2189 N 199.223 2.72742 -1.00301 0
M  V30 2190 H 198.77 2.03912 -1.5741 0
M  V30 2191 H 198.728 3.13507 -0.236838 0
M  V30 2192 N 202.5 1.5196 0.417844 0
M  V30 2193 C 203.447 1.74678 1.50852 0
M  V30 2194 C 204.417 0.588947 1.55308 0
M  V30 2195 O 205.602 0.825544 1.72016 0
M  V30 2196 C 202.742 1.89544 2.88387 0
M  V30 2197 C 201.855 3.17166 2.93309 0
M  V30 2198 C 200.99 3.22513 4.22088 0
M  V30 2199 C 200.029 4.44372 4.20951 0
M  V30 2200 N 199.166 4.47161 5.41287 0
M  V30 2201 H 204.006 2.67768 1.30783 0
M  V30 2202 H 201.543 1.32689 0.63498 0
M  V30 2203 H 203.501 1.96146 3.68216 0
M  V30 2204 H 202.131 0.998424 3.06971 0
M  V30 2205 H 201.183 3.19778 2.06024 0
M  V30 2206 H 202.495 4.07021 2.88332 0
M  V30 2207 H 201.649 3.28139 5.10303 0
M  V30 2208 H 200.388 2.30581 4.29748 0
M  V30 2209 H 199.393 4.38902 3.31127 0
M  V30 2210 H 200.618 5.3759 4.14938 0
M  V30 2211 H 198.564 3.58108 5.49632 0
M  V30 2212 H 198.481 5.3085 5.3827 0
M  V30 2213 H 199.749 4.57005 6.3148 0
M  V30 2214 N 203.978 -0.674533 1.42435 0
M  V30 2215 C 205.206 -1.46283 1.46317 0
M  V30 2216 C 205.621 -1.88653 0.0745836 0
M  V30 2217 O 204.978 -1.58151 -0.91074 0
M  V30 2218 C 205.029 -2.71178 2.3905 0
M  V30 2219 O 204.75 -2.30586 3.72507 0
M  V30 2220 C 206.251 -3.64738 2.51955 0
M  V30 2221 H 203.471 -0.450104 0.497642 0
M  V30 2222 H 206.015 -0.828792 1.86953 0
M  V30 2223 H 204.17 -3.3077 2.01667 0
M  V30 2224 H 204.584 -3.11241 4.22172 0
M  V30 2225 H 206.058 -4.49096 3.20962 0
M  V30 2226 H 206.535 -4.10656 1.55752 0
M  V30 2227 H 207.141 -3.11038 2.90061 0
M  V30 2228 N 205.456 -1.28612 -0.910864 0
M  V30 2229 C 206.705 -1.15311 -1.65488 0
M  V30 2230 C 207.018 0.296999 -1.93332 0
M  V30 2231 O 208.224 0.551168 -2.65847 0
M  V30 2232 C 206.68 -2.01599 -2.98137 0
M  V30 2233 C 206.288 -3.51367 -2.7793 0
M  V30 2234 C 208.032 -1.96993 -3.76024 0
M  V30 2235 C 205.939 -4.29797 -4.06237 0
M  V30 2236 H 204.869 -0.42796 -0.620779 0
M  V30 2237 H 207.52 -1.53166 -1.01057 0
M  V30 2238 H 205.902 -1.56603 -3.63719 0
M  V30 2239 H 207.076 -4.0434 -2.21011 0
M  V30 2240 H 205.391 -3.57529 -2.13452 0
M  V30 2241 H 207.988 -2.52856 -4.71135 0
M  V30 2242 H 208.331 -0.94733 -4.05378 0
M  V30 2243 H 208.864 -2.39973 -3.17266 0
M  V30 2244 H 205.603 -5.32648 -3.82055 0
M  V30 2245 H 205.123 -3.81596 -4.62757 0
M  V30 2246 H 206.802 -4.39869 -4.74473 0
M  V30 2247 N 206.934 1.1197 -1.10907 0
M  V30 2248 C 207.844 2.21433 -0.774896 0
M  V30 2249 C 208.86 1.72478 0.229657 0
M  V30 2250 O 210.036 2.01288 0.0672008 0
M  V30 2251 C 207.101 3.4602 -0.216986 0
M  V30 2252 C 206.162 4.09791 -1.27944 0
M  V30 2253 C 205.395 5.28431 -0.748055 0
M  V30 2254 O 205.618 5.68823 0.423833 0
M  V30 2255 O 204.552 5.82644 -1.51027 0
M  V30 2256 H 208.378 2.5242 -1.68873 0
M  V30 2257 H 205.963 1.20399 -0.884555 0
M  V30 2258 H 207.845 4.21304 0.090059 0
M  V30 2259 H 206.52 3.16698 0.669633 0
M  V30 2260 H 205.427 3.36265 -1.63941 0
M  V30 2261 H 206.76 4.4328 -2.13925 0
M  V30 2262 N 208.412 0.89855 1.29475 0
M  V30 2263 C 209.658 0.524658 1.95896 0
M  V30 2264 C 209.991 -0.926468 1.70676 0
M  V30 2265 O 209.266 -1.65665 1.01908 0
M  V30 2266 C 209.549 0.81633 3.50725 0
M  V30 2267 C 209.402 2.31907 3.85408 0
M  V30 2268 C 210.721 0.302038 4.39062 0
M  V30 2269 H 207.84 0.19209 0.711527 0
M  V30 2270 H 210.482 1.12502 1.53112 0
M  V30 2271 H 208.632 0.305369 3.87298 0
M  V30 2272 H 210.304 2.89949 3.58786 0
M  V30 2273 H 208.547 2.78027 3.32992 0
M  V30 2274 H 209.218 2.47373 4.93468 0
M  V30 2275 H 211.694 0.739551 4.09475 0
M  V30 2276 H 210.57 0.535331 5.46283 0
M  V30 2277 H 210.831 -0.797216 4.34853 0
M  V30 2278 N 209.89 -1.43072 0.660911 0
M  V30 2279 C 211.139 -2.00942 0.174735 0
M  V30 2280 C 211.452 -1.52797 -1.22117 0
M  V30 2281 O 212.658 -2.02991 -1.80297 0
M  V30 2282 C 211.114 -3.58948 0.261559 0
M  V30 2283 C 210.722 -4.16085 1.66064 0
M  V30 2284 C 212.466 -4.24173 -0.166617 0
M  V30 2285 C 210.373 -5.6641 1.70098 0
M  V30 2286 H 209.303 -0.751483 0.0615631 0
M  V30 2287 H 211.954 -1.63955 0.824069 0
M  V30 2288 H 210.336 -3.93372 -0.455421 0
M  V30 2289 H 211.51 -3.93147 2.40359 0
M  V30 2290 H 209.825 -3.6326 2.03546 0
M  V30 2291 H 212.422 -5.34471 -0.156433 0
M  V30 2292 H 212.765 -3.98647 -1.19943 0
M  V30 2293 H 213.298 -3.94659 0.498875 0
M  V30 2294 H 210.037 -5.96715 2.71315 0
M  V30 2295 H 209.557 -5.91382 1.00139 0
M  V30 2296 H 211.236 -6.30585 1.44816 0
M  V30 2297 N 211.368 -0.403325 -1.52352 0
M  V30 2298 C 212.596 0.174012 -2.06167 0
M  V30 2299 C 213.011 1.39347 -1.27388 0
M  V30 2300 O 212.368 1.79597 -0.324201 0
M  V30 2301 C 212.419 0.530223 -3.5759 0
M  V30 2302 O 212.14 -0.640806 -4.33388 0
M  V30 2303 C 213.641 1.16192 -4.27802 0
M  V30 2304 H 210.861 0.0229464 -0.670608 0
M  V30 2305 H 213.405 -0.572604 -1.9632 0
M  V30 2306 H 211.56 1.22673 -3.67464 0
M  V30 2307 H 211.974 -0.344851 -5.23365 0
M  V30 2308 H 213.448 1.36141 -5.34948 0
M  V30 2309 H 213.925 2.13335 -3.83907 0
M  V30 2310 H 214.531 0.505775 -4.22282 0
M  V30 2311 N 212.846 1.57033 -0.133567 0
M  V30 2312 C 213.793 2.16074 0.811208 0
M  V30 2313 C 214.763 1.08979 1.2535 0
M  V30 2314 O 215.948 1.36958 1.32843 0
M  V30 2315 C 213.088 2.77595 2.05024 0
M  V30 2316 C 212.201 3.99042 1.65498 0
M  V30 2317 C 211.336 4.48603 2.84479 0
M  V30 2318 C 210.375 5.62547 2.41262 0
M  V30 2319 N 209.512 6.06787 3.53206 0
M  V30 2320 H 214.352 2.96477 0.300906 0
M  V30 2321 H 211.889 1.46462 0.136822 0
M  V30 2322 H 213.847 3.11402 2.77642 0
M  V30 2323 H 212.477 1.99859 2.53488 0
M  V30 2324 H 211.529 3.71302 0.826981 0
M  V30 2325 H 212.841 4.81629 1.29748 0
M  V30 2326 H 211.995 4.84395 3.65303 0
M  V30 2327 H 210.734 3.64995 3.23465 0
M  V30 2328 H 209.739 5.26345 1.58874 0
M  V30 2329 H 210.964 6.47931 2.03377 0
M  V30 2330 H 208.91 5.26117 3.91838 0
M  V30 2331 H 208.827 6.84266 3.21427 0
M  V30 2332 H 210.095 6.4722 4.34427 0
M  V30 2333 N 214.325 -0.140222 1.56975 0
M  V30 2334 C 215.257 -1.19818 1.95388 0
M  V30 2335 C 216.27 -1.38816 0.850525 0
M  V30 2336 O 217.459 -1.38267 1.12891 0
M  V30 2337 C 214.559 -2.56189 2.21857 0
M  V30 2338 C 213.732 -2.58077 3.5315 0
M  V30 2339 C 212.791 -3.76037 3.6808 0
M  V30 2340 O 211.817 -3.60598 4.40406 0
M  V30 2341 N 213.019 -4.93763 3.05251 0
M  V30 2342 H 215.784 -0.871609 2.86746 0
M  V30 2343 H 213.345 -0.32972 1.58507 0
M  V30 2344 H 215.337 -3.33623 2.2908 0
M  V30 2345 H 213.907 -2.81111 1.36731 0
M  V30 2346 H 213.127 -1.6651 3.57307 0
M  V30 2347 H 214.415 -2.56377 4.39486 0
M  V30 2348 H 213.813 -5.09209 2.46419 0
M  V30 2349 H 212.37 -5.68949 3.18026 0
M  V30 2350 N 215.803 -1.52179 -0.40978 0
M  V30 2351 C 217.049 -1.66453 -1.15851 0
M  V30 2352 C 217.382 -0.392972 -1.90182 0
M  V30 2353 O 216.657 0.608579 -1.84734 0
M  V30 2354 C 216.94 -2.88612 -2.15349 0
M  V30 2355 C 216.793 -4.25815 -1.44918 0
M  V30 2356 C 218.112 -3.06294 -3.16026 0
M  V30 2357 H 215.231 -0.60575 -0.419805 0
M  V30 2358 H 217.873 -1.84732 -0.444314 0
M  V30 2359 H 216.023 -2.73158 -2.76255 0
M  V30 2360 H 217.695 -4.52995 -0.871365 0
M  V30 2361 H 215.938 -4.27247 -0.751159 0
M  V30 2362 H 216.609 -5.07337 -2.17516 0
M  V30 2363 H 219.085 -3.20641 -2.65195 0
M  V30 2364 H 217.961 -3.93283 -3.8291 0
M  V30 2365 H 218.222 -2.19579 -3.83715 0
M  V30 2366 N 217.281 0.66697 -1.42791 0
M  V30 2367 C 218.228 1.7803 -1.4688 0
M  V30 2368 C 219.198 1.6299 -0.319919 0
M  V30 2369 O 220.383 1.83432 -0.525118 0
M  V30 2370 C 217.523 3.1611 -1.38451 0
M  V30 2371 C 216.636 3.42381 -2.63437 0
M  V30 2372 C 215.771 4.70232 -2.47094 0
M  V30 2373 C 214.81 4.89564 -3.67415 0
M  V30 2374 N 213.947 6.08661 -3.49966 0
M  V30 2375 H 218.787 1.7387 -2.42019 0
M  V30 2376 H 216.324 0.84868 -1.20149 0
M  V30 2377 H 218.282 3.95914 -1.31561 0
M  V30 2378 H 216.912 3.19374 -0.469033 0
M  V30 2379 H 215.964 2.56774 -2.80662 0
M  V30 2380 H 217.276 3.52557 -3.52853 0
M  V30 2381 H 216.43 5.5814 -2.37834 0
M  V30 2382 H 215.169 4.62353 -1.5518 0
M  V30 2383 H 214.174 4.00096 -3.77099 0
M  V30 2384 H 215.399 4.99282 -4.6032 0
M  V30 2385 H 213.345 6.0194 -2.60776 0
M  V30 2386 H 213.262 6.19733 -4.32975 0
M  V30 2387 H 214.53 6.99226 -3.44532 0
M  V30 2388 N 218.759 1.29093 0.90403 0
M  V30 2389 C 219.722 1.1386 1.98919 0
M  V30 2390 C 220.722 0.0753457 1.60623 0
M  V30 2391 O 221.912 0.321931 1.71199 0
M  V30 2392 C 219.044 0.740198 3.32767 0
M  V30 2393 H 220.237 2.10246 2.13861 0
M  V30 2394 H 217.79 1.12218 1.08797 0
M  V30 2395 H 218.525 -0.223997 3.23525 0
M  V30 2396 H 218.31 1.50838 3.61926 0
M  V30 2397 H 219.8 0.656546 4.12407 0
M  V30 2398 N 220.237 -1.11381 1.11499 0
M  V30 2399 C 221.484 -1.83132 0.864231 0
M  V30 2400 C 221.812 -1.84683 -0.610114 0
M  V30 2401 O 221.067 -1.29589 -1.46646 0
M  V30 2402 C 221.366 -3.30026 1.37177 0
M  V30 2403 C 221.032 -3.48634 2.85946 0
M  V30 2404 C 219.694 -3.53421 3.26569 0
M  V30 2405 C 222.046 -3.54837 3.81759 0
M  V30 2406 C 219.374 -3.61967 4.61733 0
M  V30 2407 C 221.726 -3.64915 5.1674 0
M  V30 2408 C 220.39 -3.67962 5.5692 0
M  V30 2409 H 219.66 -0.670127 0.316245 0
M  V30 2410 H 222.307 -1.31354 1.3935 0
M  V30 2411 H 220.612 -3.84304 0.762753 0
M  V30 2412 H 222.309 -3.84034 1.15408 0
M  V30 2413 H 218.899 -3.45579 2.53521 0
M  V30 2414 H 223.083 -3.50399 3.51474 0
M  V30 2415 H 218.339 -3.62603 4.92269 0
M  V30 2416 H 222.513 -3.68658 5.90816 0
M  V30 2417 H 220.14 -3.74336 6.61647 0
M  V30 2418 N 221.715 -0.905404 -1.28997 0
M  V30 2419 C 222.961 -0.535039 -1.95615 0
M  V30 2420 C 223.294 0.917404 -1.71165 0
M  V30 2421 O 222.569 1.65123 -1.02785 0
M  V30 2422 C 222.852 -0.834918 -3.50287 0
M  V30 2423 C 222.705 -2.33948 -3.84172 0
M  V30 2424 C 224.024 -0.325318 -4.38896 0
M  V30 2425 H 221.143 -0.195861 -0.710498 0
M  V30 2426 H 223.785 -1.13313 -1.52513 0
M  V30 2427 H 221.935 -0.325904 -3.87131 0
M  V30 2428 H 223.607 -2.91847 -3.57243 0
M  V30 2429 H 221.85 -2.79789 -3.31513 0
M  V30 2430 H 222.521 -2.49987 -4.92149 0
M  V30 2431 H 224.997 -0.761256 -4.09077 0
M  V30 2432 H 223.873 -0.564295 -5.45992 0
M  V30 2433 H 224.134 0.774144 -4.35269 0
M  V30 2434 N 223.193 1.4272 -0.668489 0
M  V30 2435 C 224.47 1.95248 -0.117373 0
M  V30 2436 C 224.85 1.60919 1.36632 0
M  V30 2437 O 224.198 0.902095 2.09939 0
M  V30 2438 C 224.408 3.46927 -0.379806 0
M  V30 2439 C 225.756 4.23588 -0.292923 0
M  V30 2440 O 226.78 3.5482 -0.313204 0
M  V30 2441 O 225.639 5.46017 -0.229697 0
M  V30 2442 H 222.733 0.827 0.00079152 0
M  V30 2443 H 225.279 1.52581 -0.742783 0
M  V30 2444 H 224.051 3.65096 -1.40786 0
M  V30 2445 H 223.674 3.96627 0.277923 0
M  V30 2446 N 224.671 0.411399 1.52136 0
M  V30 2447 C 225.601 -0.404015 2.29978 0
M  V30 2448 C 226.582 -1.04412 1.34284 0
M  V30 2449 O 227.767 -1.0527 1.63192 0
M  V30 2450 C 224.897 -1.5197 3.12286 0
M  V30 2451 C 223.851 -1.00448 4.16046 0
M  V30 2452 C 223.177 -2.21393 4.86712 0
M  V30 2453 C 224.477 -0.0569336 5.22269 0
M  V30 2454 H 226.171 0.245529 2.98392 0
M  V30 2455 H 223.717 0.119525 1.43503 0
M  V30 2456 H 225.67 -2.09715 3.6551 0
M  V30 2457 H 224.394 -2.19716 2.41646 0
M  V30 2458 H 223.053 -0.449421 3.63835 0
M  V30 2459 H 222.701 -2.87699 4.12599 0
M  V30 2460 H 222.401 -1.87571 5.56858 0
M  V30 2461 H 223.925 -2.7974 5.4275 0
M  V30 2462 H 225.339 -0.54325 5.7072 0
M  V30 2463 H 223.736 0.192594 5.99791 0
M  V30 2464 H 224.806 0.887663 4.76706 0
M  V30 2465 N 226.149 -1.5696 0.141893 0
M  V30 2466 C 227.398 -1.95135 -0.510427 0
M  V30 2467 C 227.711 -1.02896 -1.66348 0
M  V30 2468 O 228.917 -1.30629 -2.38009 0
M  V30 2469 C 227.373 -3.46876 -0.959427 0
M  V30 2470 C 226.981 -4.47691 0.166419 0
M  V30 2471 C 228.725 -3.93927 -1.58183 0
M  V30 2472 C 226.632 -5.90636 -0.300565 0
M  V30 2473 H 225.562 -0.728494 -0.194454 0
M  V30 2474 H 228.213 -1.8211 0.22542 0
M  V30 2475 H 226.595 -3.55215 -1.75038 0
M  V30 2476 H 227.769 -4.51043 0.94325 0
M  V30 2477 H 226.084 -4.10527 0.696905 0
M  V30 2478 H 228.681 -4.98158 -1.94275 0
M  V30 2479 H 229.024 -3.3519 -2.46888 0
M  V30 2480 H 229.557 -3.88484 -0.855863 0
M  V30 2481 H 226.296 -6.5318 0.550989 0
M  V30 2482 H 225.816 -5.90655 -1.04338 0
M  V30 2483 H 227.495 -6.42588 -0.754265 0
M  V30 2484 N 227.627 0.131896 -1.57047 0
M  V30 2485 C 228.904 0.871495 -1.75112 0
M  V30 2486 C 229.284 1.9866 -0.713949 0
M  V30 2487 O 228.632 2.26965 0.264447 0
M  V30 2488 C 228.842 1.40007 -3.19686 0
M  V30 2489 C 230.19 1.85752 -3.81813 0
M  V30 2490 O 231.214 1.49715 -3.23209 0
M  V30 2491 O 230.073 2.5226 -4.84796 0
M  V30 2492 H 227.167 0.412919 -0.716538 0
M  V30 2493 H 229.713 0.116641 -1.69299 0
M  V30 2494 H 228.485 0.599404 -3.86682 0
M  V30 2495 H 228.108 2.218 -3.29986 0
M  V30 2496 N 229.106 1.52395 0.401703 0
M  V30 2497 C 230.054 1.7689 1.51039 0
M  V30 2498 C 231.048 0.636298 1.56996 0
M  V30 2499 O 232.254 0.818507 1.60314 0
M  V30 2500 H 228.629 0.559502 0.502456 0
M  V30 2501 H 230.6 2.69757 1.27568 0
M  V30 2502 C 229.349 1.94331 2.88324 0
M  V30 2503 H 228.672 2.80905 2.84486 0
M  V30 2504 H 230.112 2.15466 3.65172 0
M  V30 2505 C 228.571 0.712396 3.29282 0
M  V30 2506 O 229.101 -0.116218 4.01532 0
M  V30 2507 N 227.307 0.546154 2.85422 0
M  V30 2508 H 226.854 1.22156 2.26794 0
M  V30 2509 H 226.812 -0.276113 3.13185 0
M  V30 2510 N 230.584 -0.659388 1.43143 0
M  V30 2511 C 231.831 -1.41935 1.44433 0
M  V30 2512 C 232.159 -1.94387 0.0663522 0
M  V30 2513 O 231.414 -1.72314 -0.927706 0
M  V30 2514 C 231.713 -2.62206 2.42864 0
M  V30 2515 C 231.379 -2.28208 3.88886 0
M  V30 2516 C 230.041 -2.18647 4.28657 0
M  V30 2517 C 232.393 -2.00887 4.8093 0
M  V30 2518 C 229.721 -1.79914 5.58433 0
M  V30 2519 C 232.073 -1.63653 6.11065 0
M  V30 2520 C 230.737 -1.52614 6.49819 0
M  V30 2521 H 230.007 -0.519376 0.528517 0
M  V30 2522 H 232.654 -0.750453 1.76183 0
M  V30 2523 H 230.959 -3.34199 2.04495 0
M  V30 2524 H 232.656 -3.2041 2.41119 0
M  V30 2525 H 229.246 -2.36557 3.57406 0
M  V30 2526 H 233.43 -2.07198 4.5098 0
M  V30 2527 H 228.686 -1.69948 5.87305 0
M  V30 2528 H 232.86 -1.41543 6.81864 0
M  V30 2529 H 230.487 -1.22371 7.50286 0
M  V30 2530 N 232.062 -1.29571 -0.897171 0
M  V30 2531 C 233.339 -1.08365 -1.62839 0
M  V30 2532 C 233.719 0.371331 -2.07808 0
M  V30 2533 O 233.067 1.3606 -1.83576 0
M  V30 2534 C 233.277 -2.0735 -2.80726 0
M  V30 2535 C 234.625 -2.38406 -3.51351 0
M  V30 2536 O 235.649 -2.05564 -2.90898 0
M  V30 2537 O 234.508 -2.9453 -4.60341 0
M  V30 2538 H 231.602 -0.415345 -0.715134 0
M  V30 2539 H 234.148 -1.40952 -0.945018 0
M  V30 2540 H 232.92 -3.05339 -2.44711 0
M  V30 2541 H 232.543 -1.75507 -3.56767 0
M  V30 2542 N 233.54 1.10788 -1.12088 0
M  V30 2543 C 234.488 2.19111 -0.780587 0
M  V30 2544 C 235.482 1.67818 0.230961 0
M  V30 2545 O 236.688 1.79777 0.0895427 0
M  V30 2546 H 233.063 0.714477 -0.234578 0
M  V30 2547 H 235.034 2.45055 -1.70266 0
M  V30 2548 C 233.783 3.46818 -0.24747 0
M  V30 2549 H 233.106 3.86646 -1.01712 0
M  V30 2550 H 234.546 4.23973 -0.0476291 0
M  V30 2551 C 233.005 3.20968 1.02378 0
M  V30 2552 O 233.535 3.42298 2.10226 0
M  V30 2553 N 231.741 2.74658 0.949271 0
M  V30 2554 H 231.288 2.57501 0.0715173 0
M  V30 2555 H 231.246 2.57739 1.80049 0
M  V30 2556 N 235.018 0.912232 1.28515 0
M  V30 2557 C 236.264 0.545405 1.95328 0
M  V30 2558 C 236.597 -0.908313 1.71649 0
M  V30 2559 O 235.872 -1.64575 1.03659 0
M  V30 2560 C 236.155 0.853483 3.4984 0
M  V30 2561 C 236.008 2.35982 3.82926 0
M  V30 2562 C 237.327 0.348589 4.38717 0
M  V30 2563 H 234.446 0.199626 0.709449 0
M  V30 2564 H 237.088 1.1412 1.5191 0
M  V30 2565 H 235.238 0.34643 3.86952 0
M  V30 2566 H 236.91 2.93738 3.55691 0
M  V30 2567 H 235.153 2.81543 3.30024 0
M  V30 2568 H 235.824 2.52593 4.90816 0
M  V30 2569 H 238.3 0.78294 4.08668 0
M  V30 2570 H 237.176 0.593242 5.45685 0
M  V30 2571 H 237.437 -0.751049 4.35674 0
M  V30 2572 N 236.496 -1.42363 0.676048 0
M  V30 2573 C 237.745 -2.00745 0.196037 0
M  V30 2574 C 238.058 -1.54083 -1.20489 0
M  V30 2575 O 239.264 -2.04891 -1.78134 0
M  V30 2576 C 237.72 -3.58651 0.299616 0
M  V30 2577 C 237.328 -4.143 1.70468 0
M  V30 2578 C 239.072 -4.24326 -0.121619 0
M  V30 2579 C 236.979 -5.64574 1.76096 0
M  V30 2580 H 235.909 -0.750787 0.0695301 0
M  V30 2581 H 238.56 -1.63072 0.841412 0
M  V30 2582 H 236.942 -3.93833 -0.413673 0
M  V30 2583 H 238.116 -3.90575 2.44515 0
M  V30 2584 H 236.431 -3.61081 2.07387 0
M  V30 2585 H 239.028 -5.34607 -0.0997362 0
M  V30 2586 H 239.371 -3.99897 -1.15708 0
M  V30 2587 H 239.904 -3.94108 0.540706 0
M  V30 2588 H 236.643 -5.93804 2.77628 0
M  V30 2589 H 236.163 -5.90286 1.06406 0
M  V30 2590 H 237.842 -6.29013 1.51496 0
M  V30 2591 N 237.974 -0.419461 -1.51915 0
M  V30 2592 C 238.904 0.391813 -2.30189 0
M  V30 2593 C 239.885 1.03699 -1.34836 0
M  V30 2594 O 241.07 1.04403 -1.63748 0
M  V30 2595 C 238.2 1.50312 -3.13087 0
M  V30 2596 C 237.154 0.9824 -4.16573 0
M  V30 2597 C 236.48 2.18809 -4.8788 0
M  V30 2598 C 237.78 0.0292356 -5.22292 0
M  V30 2599 H 239.474 -0.26135 -2.98257 0
M  V30 2600 H 237.02 -0.127134 -1.43438 0
M  V30 2601 H 238.973 2.07773 -3.66617 0
M  V30 2602 H 237.697 2.18431 -2.42807 0
M  V30 2603 H 236.356 0.430119 -3.64068 0
M  V30 2604 H 236.004 2.85507 -4.14119 0
M  V30 2605 H 235.704 1.84615 -5.57845 0
M  V30 2606 H 237.228 2.76858 -5.44226 0
M  V30 2607 H 238.642 0.512976 -5.71 0
M  V30 2608 H 237.039 -0.2244 -5.9968 0
M  V30 2609 H 238.109 -0.912931 -4.76228 0
M  V30 2610 N 239.452 1.56882 -0.150215 0
M  V30 2611 C 240.415 2.1573 0.774157 0
M  V30 2612 C 241.415 1.0999 1.17298 0
M  V30 2613 O 242.605 1.35613 1.09338 0
M  V30 2614 C 239.737 2.72302 2.05096 0
M  V30 2615 H 240.93 2.98752 0.262201 0
M  V30 2616 H 238.483 1.55985 0.099248 0
M  V30 2617 H 239.218 1.92956 2.6065 0
M  V30 2618 H 239.003 3.49665 1.77416 0
M  V30 2619 H 240.493 3.17632 2.71109 0
M  V30 2620 N 240.93 -0.123565 1.57115 0
M  V30 2621 C 242.16 -0.845233 1.88519 0
M  V30 2622 C 242.568 -1.74168 0.739064 0
M  V30 2623 O 241.911 -1.81244 -0.299355 0
M  V30 2624 C 241.973 -1.73452 3.14888 0
M  V30 2625 C 241.637 -1.01285 4.45635 0
M  V30 2626 C 242.634 -0.355774 5.18681 0
M  V30 2627 C 240.319 -0.99538 4.92339 0
M  V30 2628 C 242.313 0.309114 6.3665 0
M  V30 2629 C 240 -0.32669 6.10226 0
M  V30 2630 C 240.998 0.324406 6.82229 0
M  V30 2631 O 240.686 0.982437 7.97874 0
M  V30 2632 H 240.418 -0.248534 0.628655 0
M  V30 2633 H 242.972 -0.113907 2.05084 0
M  V30 2634 H 241.202 -2.50737 2.94394 0
M  V30 2635 H 242.891 -2.33021 3.32349 0
M  V30 2636 H 243.657 -0.360918 4.83655 0
M  V30 2637 H 239.536 -1.49159 4.36202 0
M  V30 2638 H 243.08 0.8179 6.92789 0
M  V30 2639 H 238.977 -0.319294 6.4471 0
M  V30 2640 H 239.745 0.886454 8.13686 0
M  V30 2641 N 242.408 -1.52605 -0.393616 0
M  V30 2642 C 243.318 -1.79971 -1.50492 0
M  V30 2643 C 244.334 -0.686181 -1.59899 0
M  V30 2644 O 245.51 -0.973274 -1.76322 0
M  V30 2645 C 242.575 -1.95867 -2.86072 0
M  V30 2646 C 241.636 -3.19781 -2.86424 0
M  V30 2647 C 240.869 -3.34909 -4.15538 0
M  V30 2648 O 241.092 -2.54948 -5.10253 0
M  V30 2649 O 240.026 -4.28141 -4.23059 0
M  V30 2650 H 243.852 -2.74328 -1.30299 0
M  V30 2651 H 241.437 -1.3764 -0.581005 0
M  V30 2652 H 243.319 -2.08056 -3.66457 0
M  V30 2653 H 241.994 -1.04699 -3.063 0
M  V30 2654 H 240.901 -3.13038 -2.04837 0
M  V30 2655 H 242.234 -4.1078 -2.71147 0
M  V30 2656 N 243.887 0.651787 -1.4349 0
M  V30 2657 C 245.298 1.233 -1.40193 0
M  V30 2658 C 245.649 1.9591 -0.106727 0
M  V30 2659 O 244.774 2.01316 0.793773 0
M  V30 2660 C 245.369 2.24257 -2.53957 0
M  V30 2661 C 243.928 2.77852 -2.5392 0
M  V30 2662 C 243.075 1.52517 -2.3159 0
M  V30 2663 H 246.026 0.443717 -1.52371 0
M  V30 2664 H 246.047 3.0646 -2.25528 0
M  V30 2665 H 245.559 1.71382 -3.4821 0
M  V30 2666 H 243.66 3.34786 -1.63551 0
M  V30 2667 H 243.773 3.25299 -3.51735 0
M  V30 2668 H 242.137 1.79915 -1.80285 0
M  V30 2669 H 242.92 1.01574 -3.27929 0
M  V30 2670 N 245.365 1.30045 0.890287 0
M  V30 2671 C 246.295 1.18541 2.01172 0
M  V30 2672 C 247.276 0.0773356 1.69924 0
M  V30 2673 O 248.461 0.25845 1.92473 0
M  V30 2674 C 245.591 0.870941 3.36202 0
M  V30 2675 C 244.545 1.93637 3.81692 0
M  V30 2676 C 243.871 1.475 5.13953 0
M  V30 2677 C 245.171 3.34666 4.00994 0
M  V30 2678 H 246.865 2.12359 2.11054 0
M  V30 2679 H 244.411 1.02238 1.01407 0
M  V30 2680 H 246.364 0.777141 4.14172 0
M  V30 2681 H 245.088 -0.102926 3.26438 0
M  V30 2682 H 243.747 2.01972 3.05946 0
M  V30 2683 H 243.395 0.489551 5.00612 0
M  V30 2684 H 243.095 2.1876 5.4536 0
M  V30 2685 H 244.619 1.39489 5.94454 0
M  V30 2686 H 246.033 3.2912 4.69417 0
M  V30 2687 H 244.43 4.03966 4.43769 0
M  V30 2688 H 245.5 3.76949 3.05021 0
M  V30 2689 N 246.843 -1.10192 1.12674 0
M  V30 2690 C 248.089 -1.82658 0.894847 0
M  V30 2691 C 248.444 -1.83666 -0.573107 0
M  V30 2692 O 247.737 -1.28816 -1.41835 0
M  V30 2693 C 247.931 -3.28552 1.4067 0
M  V30 2694 C 247.76 -3.41756 2.92289 0
M  V30 2695 C 246.53 -3.54021 3.60551 0
M  V30 2696 C 248.728 -3.34949 3.90274 0
M  V30 2697 N 246.71 -3.55827 5.0026 0
M  V30 2698 C 248.081 -3.43531 5.16127 0
M  V30 2699 C 250.136 -3.18565 3.8265 0
M  V30 2700 C 248.839 -3.37416 6.3525 0
M  V30 2701 C 250.865 -3.13772 5.01299 0
M  V30 2702 C 250.227 -3.22938 6.26012 0
M  V30 2703 H 246.326 -0.683044 0.380756 0
M  V30 2704 H 248.91 -1.31752 1.43351 0
M  V30 2705 H 247.081 -3.77946 0.895055 0
M  V30 2706 H 248.813 -3.88991 1.11661 0
M  V30 2707 H 245.568 -3.57135 3.1105 0
M  V30 2708 H 245.992 -3.60335 5.73138 0
M  V30 2709 H 250.634 -3.10354 2.87124 0
M  V30 2710 H 248.352 -3.44391 7.3104 0
M  V30 2711 H 251.938 -3.02242 4.97133 0
M  V30 2712 H 250.818 -3.19235 7.16281 0
M  V30 2713 N 248.321 -0.919034 -1.28029 0
M  V30 2714 C 249.284 -0.416182 -2.2539 0
M  V30 2715 C 250.284 0.460438 -1.54067 0
M  V30 2716 O 251.474 0.262744 -1.72207 0
M  V30 2717 C 248.606 0.402707 -3.38513 0
M  V30 2718 H 249.799 -1.27629 -2.71387 0
M  V30 2719 H 247.352 -0.698919 -1.39803 0
M  V30 2720 H 248.087 1.282 -2.97885 0
M  V30 2721 H 247.872 -0.225698 -3.9145 0
M  V30 2722 H 249.362 0.745191 -4.10897 0
M  V30 2723 N 249.799 1.42003 -0.683588 0
M  V30 2724 C 251.048 2.00638 -0.206681 0
M  V30 2725 C 251.361 1.5472 1.19671 0
M  V30 2726 O 252.567 2.05833 1.77045 0
M  V30 2727 C 251.023 3.58487 -0.318632 0
M  V30 2728 C 250.631 4.1339 -1.72663 0
M  V30 2729 C 252.375 4.24384 0.0991141 0
M  V30 2730 C 250.282 5.63633 -1.79087 0
M  V30 2731 H 249.212 0.750408 -0.0735107 0
M  V30 2732 H 251.863 1.62624 -0.850048 0
M  V30 2733 H 250.245 3.94047 0.392781 0
M  V30 2734 H 251.419 3.89273 -2.46583 0
M  V30 2735 H 249.734 3.59976 -2.09299 0
M  V30 2736 H 252.331 5.34652 0.0713833 0
M  V30 2737 H 252.674 4.00505 1.13586 0
M  V30 2738 H 253.207 3.93816 -0.561599 0
M  V30 2739 H 249.946 5.92323 -2.80774 0
M  V30 2740 H 249.466 5.89714 -1.09535 0
M  V30 2741 H 251.145 6.28201 -1.5483 0
M  V30 2742 N 251.277 0.427512 1.51691 0
M  V30 2743 C 252.525 -0.141948 2.01601 0
M  V30 2744 C 252.846 -1.44067 1.31414 0
M  V30 2745 O 252.116 -1.90763 0.445658 0
M  V30 2746 H 250.696 -0.0554468 0.744939 0
M  V30 2747 H 253.358 0.567968 1.86441 0
M  V30 2748 H 252.454 -0.324913 3.10404 0
M  V30 2749 N 252.755 -1.56801 0.158532 0
M  V30 2750 C 253.983 -2.00859 -0.496303 0
M  V30 2751 C 254.398 -1.03871 -1.57659 0
M  V30 2752 O 253.755 -0.0375165 -1.82461 0
M  V30 2753 C 253.806 -3.4479 -1.08638 0
M  V30 2754 O 253.527 -4.38072 -0.0492322 0
M  V30 2755 C 255.028 -4.04185 -1.8207 0
M  V30 2756 H 252.248 -0.65864 -0.128199 0
M  V30 2757 H 254.792 -2.02885 0.256506 0
M  V30 2758 H 252.947 -3.43579 -1.78975 0
M  V30 2759 H 253.361 -5.2227 -0.483102 0
M  V30 2760 H 254.835 -5.06857 -2.18633 0
M  V30 2761 H 255.312 -3.45549 -2.71095 0
M  V30 2762 H 255.918 -4.0906 -1.16405 0
M  V30 2763 N 254.233 0.115231 -1.57178 0
M  V30 2764 C 255.481 0.820727 -1.84685 0
M  V30 2765 C 255.802 1.80237 -0.744279 0
M  V30 2766 O 255.072 1.94529 0.231375 0
M  V30 2767 H 253.652 0.306084 -0.681411 0
M  V30 2768 H 256.314 0.101656 -1.94635 0
M  V30 2769 H 255.41 1.36366 -2.80733 0
M  V30 2770 N 255.711 1.52812 0.385517 0
M  V30 2771 C 256.658 1.77838 1.47113 0
M  V30 2772 C 257.628 0.621757 1.54024 0
M  V30 2773 O 258.813 0.861846 1.70226 0
M  V30 2774 C 255.953 1.95618 2.84302 0
M  V30 2775 C 255.066 3.23316 2.86515 0
M  V30 2776 C 254.201 3.31394 4.15152 0
M  V30 2777 C 253.24 4.53201 4.1143 0
M  V30 2778 N 252.377 4.58542 5.3168 0
M  V30 2779 H 257.217 2.70482 1.25073 0
M  V30 2780 H 254.754 1.34006 0.606692 0
M  V30 2781 H 256.712 2.03912 3.63972 0
M  V30 2782 H 255.342 1.06331 3.04784 0
M  V30 2783 H 254.394 3.24076 1.99195 0
M  V30 2784 H 255.706 4.13045 2.79634 0
M  V30 2785 H 254.86 3.3889 5.03228 0
M  V30 2786 H 253.599 2.39645 4.24761 0
M  V30 2787 H 252.604 4.45827 3.21742 0
M  V30 2788 H 253.829 5.46271 4.03442 0
M  V30 2789 H 251.775 3.69686 5.41912 0
M  V30 2790 H 251.692 5.42148 5.26889 0
M  V30 2791 H 252.96 4.70296 6.21644 0
M  V30 2792 N 257.189 -0.644168 1.43834 0
M  V30 2793 C 258.417 -1.43147 1.49387 0
M  V30 2794 C 258.832 -1.88452 0.114583 0
M  V30 2795 O 258.189 -1.60047 -0.876989 0
M  V30 2796 C 258.24 -2.66046 2.44748 0
M  V30 2797 O 257.961 -2.22633 3.77314 0
M  V30 2798 C 259.462 -3.59311 2.59635 0
M  V30 2799 H 256.682 -0.439447 0.507077 0
M  V30 2800 H 259.226 -0.78895 1.88669 0
M  V30 2801 H 257.381 -3.26418 2.08638 0
M  V30 2802 H 257.795 -3.02216 4.28679 0
M  V30 2803 H 259.269 -4.42187 3.30416 0
M  V30 2804 H 259.746 -4.07259 1.64427 0
M  V30 2805 H 260.352 -3.04816 2.96593 0
M  V30 2806 N 258.668 -1.30515 -0.883378 0
M  V30 2807 C 259.631 -1.1701 -1.97082 0
M  V30 2808 C 260.631 -0.10089 -1.60483 0
M  V30 2809 O 261.821 -0.349127 -1.70666 0
M  V30 2810 C 258.953 -0.793045 -3.31547 0
M  V30 2811 H 260.146 -2.13622 -2.10489 0
M  V30 2812 H 257.699 -1.13935 -1.06998 0
M  V30 2813 H 258.434 0.172499 -3.23841 0
M  V30 2814 H 258.219 -1.56576 -3.5948 0
M  V30 2815 H 259.709 -0.722073 -4.1131 0
M  V30 2816 N 260.146 1.09593 -1.13257 0
M  V30 2817 C 261.374 1.855 -0.916378 0
M  V30 2818 C 261.789 1.81069 0.534738 0
M  V30 2819 O 261.146 1.20562 1.37007 0
M  V30 2820 C 261.197 3.33546 -1.39388 0
M  V30 2821 O 260.918 3.37927 -2.78813 0
M  V30 2822 C 262.419 4.26299 -1.21588 0
M  V30 2823 H 259.639 0.585991 -0.326887 0
M  V30 2824 H 262.183 1.38488 -1.5047 0
M  V30 2825 H 260.338 3.77992 -0.848597 0
M  V30 2826 H 260.752 4.30254 -2.9997 0
M  V30 2827 H 262.226 5.28341 -1.59876 0
M  V30 2828 H 262.703 4.38918 -0.157376 0
M  V30 2829 H 263.309 3.87668 -1.7491 0
M  V30 2830 N 261.624 0.925811 1.2754 0
M  V30 2831 C 263.035 0.610102 1.7645 0
M  V30 2832 C 263.386 -0.874723 1.75622 0
M  V30 2833 O 262.511 -1.68444 1.35851 0
M  V30 2834 C 263.106 1.10073 3.20421 0
M  V30 2835 C 261.665 0.835723 3.67005 0
M  V30 2836 C 260.812 1.26054 2.46993 0
M  V30 2837 H 263.763 1.10579 1.13833 0
M  V30 2838 H 263.784 0.447557 3.77859 0
M  V30 2839 H 263.296 2.18143 3.20991 0
M  V30 2840 H 261.397 -0.231249 3.71882 0
M  V30 2841 H 261.51 1.45193 4.56569 0
M  V30 2842 H 259.874 0.679111 2.45479 0
M  V30 2843 H 260.657 2.34984 2.50275 0
M  V30 2844 N 263.102 -1.41638 0.69111 0
M  V30 2845 C 264.012 -2.34588 0.0233487 0
M  V30 2846 C 265.028 -1.55987 -0.770984 0
M  V30 2847 O 266.204 -1.88486 -0.709569 0
M  V30 2848 C 263.269 -3.34684 -0.904851 0
M  V30 2849 C 262.33 -4.29176 -0.103225 0
M  V30 2850 C 261.563 -5.2449 -0.987216 0
M  V30 2851 O 261.786 -5.2514 -2.22674 0
M  V30 2852 O 260.72 -6.00295 -0.439281 0
M  V30 2853 H 264.546 -2.93261 0.789416 0
M  V30 2854 H 262.131 -1.42417 0.45142 0
M  V30 2855 H 264.013 -3.96133 -1.43724 0
M  V30 2856 H 262.688 -2.78461 -1.65049 0
M  V30 2857 H 261.595 -3.71089 0.473655 0
M  V30 2858 H 262.928 -4.88484 0.60365 0
M  V30 2859 N 264.58 -0.43555 -1.51462 0
M  V30 2860 C 265.512 0.41257 -2.25456 0
M  V30 2861 C 266.525 0.987822 -1.29406 0
M  V30 2862 O 267.714 0.882266 -1.55172 0
M  V30 2863 C 264.814 1.58894 -2.99342 0
M  V30 2864 C 263.987 1.13288 -4.22474 0
M  V30 2865 C 263.046 2.17917 -4.78956 0
M  V30 2866 O 262.072 1.77425 -5.40841 0
M  V30 2867 N 263.274 3.50382 -4.62832 0
M  V30 2868 H 266.039 -0.221603 -2.9888 0
M  V30 2869 H 263.6 -0.264342 -1.59727 0
M  V30 2870 H 265.592 2.28508 -3.34015 0
M  V30 2871 H 264.162 2.12849 -2.28941 0
M  V30 2872 H 263.382 0.263881 -3.93316 0
M  V30 2873 H 264.67 0.805542 -5.02383 0
M  V30 2874 H 264.068 3.86013 -4.13534 0
M  V30 2875 H 262.625 4.15895 -5.01871 0
M  V30 2876 N 266.058 1.56714 -0.166846 0
M  V30 2877 C 267.021 2.16539 0.751232 0
M  V30 2878 C 268.021 1.11228 1.16125 0
M  V30 2879 O 269.211 1.36765 1.07894 0
M  V30 2880 C 266.343 2.74462 2.02196 0
M  V30 2881 H 267.536 2.99013 0.230499 0
M  V30 2882 H 265.089 1.56081 0.0826982 0
M  V30 2883 H 265.824 1.95709 2.58589 0
M  V30 2884 H 265.609 3.51527 1.73698 0
M  V30 2885 H 267.099 3.20489 2.67725 0
M  V30 2886 N 267.536 -0.106894 1.57237 0
M  V30 2887 C 268.468 -1.15646 1.97885 0
M  V30 2888 C 269.481 -1.36981 0.879779 0
M  V30 2889 O 270.67 -1.35841 1.15799 0
M  V30 2890 C 267.77 -2.51425 2.27241 0
M  V30 2891 C 266.943 -2.50529 3.58545 0
M  V30 2892 C 266.002 -3.68145 3.75973 0
M  V30 2893 O 265.028 -3.51176 4.47956 0
M  V30 2894 N 266.23 -4.87177 3.15656 0
M  V30 2895 H 268.995 -0.81059 2.8853 0
M  V30 2896 H 266.556 -0.296024 1.59171 0
M  V30 2897 H 268.548 -3.28689 2.36105 0
M  V30 2898 H 267.118 -2.78147 1.42663 0
M  V30 2899 H 266.338 -1.58894 3.60758 0
M  V30 2900 H 267.626 -2.46997 4.44826 0
M  V30 2901 H 267.024 -5.03868 2.57165 0
M  V30 2902 H 265.581 -5.62075 3.30023 0
M  V30 2903 N 269.014 -1.53014 -0.377408 0
M  V30 2904 C 269.944 -1.81589 -1.46791 0
M  V30 2905 C 270.925 -0.668622 -1.56408 0
M  V30 2906 O 272.11 -0.917337 -1.71168 0
M  V30 2907 C 269.24 -1.99519 -2.8427 0
M  V30 2908 C 268.194 -3.15249 -2.89486 0
M  V30 2909 C 267.52 -3.18451 -4.29527 0
M  V30 2910 C 268.82 -4.54084 -2.58079 0
M  V30 2911 H 270.514 -2.7291 -1.23127 0
M  V30 2912 H 268.06 -1.31319 -0.590883 0
M  V30 2913 H 270.013 -2.18092 -3.60575 0
M  V30 2914 H 268.737 -1.04897 -3.09296 0
M  V30 2915 H 267.396 -2.96477 -2.15631 0
M  V30 2916 H 267.044 -2.2149 -4.5161 0
M  V30 2917 H 266.744 -3.962 -4.33934 0
M  V30 2918 H 268.268 -3.39193 -5.07721 0
M  V30 2919 H 269.682 -4.72899 -3.24098 0
M  V30 2920 H 268.079 -5.33987 -2.7382 0
M  V30 2921 H 269.149 -4.60006 -1.53372 0
M  V30 2922 N 270.492 0.636531 -1.44174 0
M  V30 2923 C 271.738 1.39826 -1.4689 0
M  V30 2924 C 272.071 1.93947 -0.0990585 0
M  V30 2925 O 271.346 1.73325 0.882544 0
M  V30 2926 C 271.629 2.56751 -2.5249 0
M  V30 2927 C 271.482 2.08014 -3.98811 0
M  V30 2928 C 272.801 3.58946 -2.54649 0
M  V30 2929 H 269.92 0.507075 -0.53483 0
M  V30 2930 H 272.562 0.720188 -1.75822 0
M  V30 2931 H 270.712 3.14597 -2.2795 0
M  V30 2932 H 272.384 1.5504 -4.34466 0
M  V30 2933 H 270.627 1.39242 -4.10846 0
M  V30 2934 H 271.298 2.92169 -4.68339 0
M  V30 2935 H 273.774 3.1089 -2.76563 0
M  V30 2936 H 272.65 4.38286 -3.3045 0
M  V30 2937 H 272.911 4.12655 -1.58646 0
M  V30 2938 N 271.97 1.30982 0.876444 0
M  V30 2939 C 272.92 1.14688 1.97055 0
M  V30 2940 C 273.904 0.0596593 1.60789 0
M  V30 2941 O 275.096 0.283892 1.74708 0
M  V30 2942 C 272.225 0.849627 3.3262 0
M  V30 2943 C 271.311 1.97752 3.75173 0
M  V30 2944 N 271.702 3.22384 3.89746 0
M  V30 2945 C 270 1.8758 4.04635 0
M  V30 2946 C 270.701 3.96121 4.25985 0
M  V30 2947 N 269.677 3.24237 4.36315 0
M  V30 2948 H 273.479 2.09204 2.06424 0
M  V30 2949 H 270.993 1.22445 1.06682 0
M  V30 2950 H 272.99 0.713895 4.10742 0
M  V30 2951 H 271.65 -0.087376 3.24582 0
M  V30 2952 H 272.661 3.57575 3.74647 0
M  V30 2953 H 269.338 1.01303 4.05024 0
M  V30 2954 H 270.728 5.03491 4.44911 0
M  V30 2955 N 273.449 -1.08991 1.13837 0
M  V30 2956 C 274.396 -2.15748 0.819835 0
M  V30 2957 C 275.366 -1.64636 -0.220026 0
M  V30 2958 O 276.551 -1.90582 -0.0912757 0
M  V30 2959 C 273.691 -3.4382 0.296913 0
M  V30 2960 C 272.804 -4.0881 1.39636 0
M  V30 2961 C 271.939 -5.24655 0.831314 0
M  V30 2962 C 270.978 -5.81575 1.90886 0
M  V30 2963 N 270.115 -6.88774 1.36142 0
M  V30 2964 H 274.955 -2.42338 1.73426 0
M  V30 2965 H 272.492 -1.18935 0.865613 0
M  V30 2966 H 274.45 -4.17193 -0.0244339 0
M  V30 2967 H 273.08 -3.17535 -0.580628 0
M  V30 2968 H 272.132 -3.33258 1.83422 0
M  V30 2969 H 273.444 -4.47141 2.21058 0
M  V30 2970 H 272.598 -6.04942 0.461515 0
M  V30 2971 H 271.337 -4.87698 -0.013932 0
M  V30 2972 H 270.342 -4.99946 2.28767 0
M  V30 2973 H 271.567 -6.20592 2.75758 0
M  V30 2974 H 269.513 -6.53788 0.538254 0
M  V30 2975 H 269.43 -7.25898 2.11208 0
M  V30 2976 H 270.698 -7.72806 1.01933 0
M  V30 2977 N 274.927 -0.932562 -1.27047 0
M  V30 2978 C 275.837 -0.441219 -2.30414 0
M  V30 2979 C 276.853 0.480525 -1.67233 0
M  V30 2980 O 278.029 0.362151 -1.98117 0
M  V30 2981 C 275.094 0.293651 -3.45454 0
M  V30 2982 C 274.155 -0.663601 -4.2414 0
M  V30 2983 C 273.388 0.0362932 -5.33688 0
M  V30 2984 O 273.611 1.2548 -5.56427 0
M  V30 2985 O 272.545 -0.638015 -5.98509 0
M  V30 2986 H 276.371 -1.29962 -2.74488 0
M  V30 2987 H 273.956 -0.6981 -1.32087 0
M  V30 2988 H 275.838 0.707951 -4.15411 0
M  V30 2989 H 274.513 1.12758 -3.03426 0
M  V30 2990 H 273.42 -1.12768 -3.56699 0
M  V30 2991 H 274.753 -1.46489 -4.69896 0
M  V30 2992 N 276.405 1.4127 -0.698611 0
M  V30 2993 C 277.654 2.00408 -0.227949 0
M  V30 2994 C 277.967 1.55981 1.18023 0
M  V30 2995 O 279.173 2.07699 1.74852 0
M  V30 2996 C 277.629 3.58129 -0.356636 0
M  V30 2997 C 277.237 4.11536 -1.77037 0
M  V30 2998 C 278.981 4.24466 0.0540969 0
M  V30 2999 C 276.888 5.61701 -1.85055 0
M  V30 3000 H 275.818 0.749586 -0.0814657 0
M  V30 3001 H 278.469 1.61713 -0.867249 0
M  V30 3002 H 276.851 3.94442 0.350965 0
M  V30 3003 H 278.025 3.86636 -2.50698 0
M  V30 3004 H 276.34 3.57736 -2.13105 0
M  V30 3005 H 278.937 5.34698 0.0146723 0
M  V30 3006 H 279.28 4.01687 1.09332 0
M  V30 3007 H 279.813 3.93198 -0.603337 0
M  V30 3008 H 276.552 5.89312 -2.8704 0
M  V30 3009 H 276.072 5.88519 -1.15783 0
M  V30 3010 H 277.751 6.26524 -1.61484 0
M  V30 3011 N 277.883 0.443576 1.51229 0
M  V30 3012 C 279.299 0.0962001 1.5931 0
M  V30 3013 C 279.499 -1.39501 1.45402 0
M  V30 3014 O 278.555 -2.16557 1.29843 0
M  V30 3015 C 279.868 0.621875 2.94199 0
M  V30 3016 C 281.416 0.582865 3.07525 0
M  V30 3017 C 281.891 1.08562 4.44948 0
M  V30 3018 N 283.382 1.04387 4.51284 0
M  V30 3019 C 284.117 1.40368 5.55954 0
M  V30 3020 N 283.613 1.83664 6.68011 0
M  V30 3021 N 285.406 1.32145 5.46346 0
M  V30 3022 H 277.557 1.41376 1.58514 0
M  V30 3023 H 279.82 0.582965 0.747567 0
M  V30 3024 H 279.526 1.66546 3.09767 0
M  V30 3025 H 279.4 0.0502125 3.77167 0
M  V30 3026 H 281.787 -0.451749 2.91622 0
M  V30 3027 H 281.868 1.191 2.26382 0
M  V30 3028 H 281.512 2.11873 4.61598 0
M  V30 3029 H 281.442 0.453956 5.2464 0
M  V30 3030 H 283.933 0.725986 3.70861 0
M  V30 3031 H 284.246 2.0934 7.43906 0
M  V30 3032 H 282.591 1.87596 6.69203 0
M  V30 3033 H 285.782 0.981808 4.57688 0
M  V30 3034 H 285.955 1.60514 6.27805 0
M  V30 3035 N 279.361 -1.56624 0.175154 0
M  V30 3036 C 280.308 -2.18149 -0.753634 0
M  V30 3037 C 281.278 -1.12265 -1.22417 0
M  V30 3038 O 282.463 -1.40432 -1.29165 0
M  V30 3039 C 279.603 -2.82933 -1.97592 0
M  V30 3040 C 278.716 -4.03289 -1.5486 0
M  V30 3041 C 277.851 -4.55988 -2.72485 0
M  V30 3042 C 276.89 -5.68746 -2.26262 0
M  V30 3043 N 276.027 -6.15938 -3.36994 0
M  V30 3044 H 280.867 -2.9717 -0.222195 0
M  V30 3045 H 278.404 -1.46774 -0.0979422 0
M  V30 3046 H 280.362 -3.18653 -2.69288 0
M  V30 3047 H 278.992 -2.06509 -2.481 0
M  V30 3048 H 278.044 -3.73364 -0.728246 0
M  V30 3049 H 279.356 -4.849 -1.16933 0
M  V30 3050 H 278.51 -4.9391 -3.52332 0
M  V30 3051 H 277.249 -3.73443 -3.13674 0
M  V30 3052 H 276.254 -5.30372 -1.44863 0
M  V30 3053 H 277.479 -6.53095 -1.86127 0
M  V30 3054 H 275.425 -5.36321 -3.77751 0
M  V30 3055 H 275.342 -6.92548 -3.03172 0
M  V30 3056 H 276.61 -6.58511 -4.17114 0
M  V30 3057 N 280.839 0.0985539 -1.57292 0
M  V30 3058 C 282.088 0.801358 -1.85098 0
M  V30 3059 C 282.401 1.80066 -0.763902 0
M  V30 3060 O 283.607 2.55112 -0.928981 0
M  V30 3061 C 282.063 1.47599 -3.28242 0
M  V30 3062 C 281.671 0.516624 -4.45011 0
M  V30 3063 C 283.415 2.16272 -3.65276 0
M  V30 3064 C 281.322 1.19564 -5.79188 0
M  V30 3065 H 280.252 0.303022 -0.69043 0
M  V30 3066 H 282.903 0.0542623 -1.8342 0
M  V30 3067 H 281.285 2.27042 -3.2445 0
M  V30 3068 H 282.459 -0.246065 -4.60143 0
M  V30 3069 H 280.774 -0.064227 -4.1635 0
M  V30 3070 H 283.371 2.67802 -4.62803 0
M  V30 3071 H 283.714 2.95009 -2.93727 0
M  V30 3072 H 284.247 1.43693 -3.70941 0
M  V30 3073 H 280.986 0.449157 -6.53959 0
M  V30 3074 H 280.506 1.92984 -5.67906 0
M  V30 3075 H 282.185 1.7231 -6.23633 0
M  V30 3076 N 282.317 1.53212 0.369288 0
M  V30 3077 C 283.563 1.69466 1.11397 0
M  V30 3078 C 283.896 0.443257 1.89074 0
M  V30 3079 O 283.171 -0.559386 1.86282 0
M  V30 3080 C 283.454 2.9422 2.07621 0
M  V30 3081 C 283.307 4.29508 1.33577 0
M  V30 3082 C 284.626 3.14565 3.07794 0
M  V30 3083 H 281.745 0.616667 0.403597 0
M  V30 3084 H 284.387 1.85845 0.395179 0
M  V30 3085 H 282.537 2.80387 2.68916 0
M  V30 3086 H 284.209 4.55147 0.750955 0
M  V30 3087 H 282.452 4.29088 0.637618 0
M  V30 3088 H 283.123 5.12926 2.03989 0
M  V30 3089 H 285.599 3.2756 2.56601 0
M  V30 3090 H 284.475 4.03297 3.72348 0
M  V30 3091 H 284.736 2.29675 3.77759 0
M  V30 3092 N 283.795 -0.628877 1.44509 0
M  V30 3093 C 284.742 -1.74074 1.51549 0
M  V30 3094 C 285.712 -1.62084 0.363021 0
M  V30 3095 O 286.897 -1.81975 0.573567 0
M  V30 3096 C 284.037 -3.12328 1.46784 0
M  V30 3097 C 283.15 -3.35277 2.72422 0
M  V30 3098 C 282.285 -4.63515 2.59475 0
M  V30 3099 C 281.324 -4.7965 3.80266 0
M  V30 3100 N 280.461 -5.99168 3.65981 0
M  V30 3101 H 285.301 -1.67392 2.46544 0
M  V30 3102 H 282.838 -0.816527 1.22357 0
M  V30 3103 H 284.796 -3.92286 1.42012 0
M  V30 3104 H 283.426 -3.18018 0.553544 0
M  V30 3105 H 282.478 -2.49242 2.87372 0
M  V30 3106 H 283.79 -3.43078 3.62076 0
M  V30 3107 H 282.944 -5.51638 2.52548 0
M  V30 3108 H 281.683 -4.58076 1.67384 0
M  V30 3109 H 280.688 -3.89957 3.87574 0
M  V30 3110 H 281.913 -4.86902 4.73395 0
M  V30 3111 H 279.859 -5.94814 2.76644 0
M  V30 3112 H 279.776 -6.08035 4.49254 0
M  V30 3113 H 281.044 -6.89846 3.6295 0
M  V30 3114 N 285.273 -1.31445 -0.869486 0
M  V30 3115 C 286.55 -1.11795 -1.60503 0
M  V30 3116 C 286.93 0.327168 -2.08549 0
M  V30 3117 O 286.278 1.32135 -1.8642 0
M  V30 3118 C 286.488 -2.13258 -2.76265 0
M  V30 3119 C 287.836 -2.45805 -3.46215 0
M  V30 3120 O 288.86 -2.11688 -2.86473 0
M  V30 3121 O 287.719 -3.04228 -4.5399 0
M  V30 3122 H 284.813 -0.430421 -0.706163 0
M  V30 3123 H 287.359 -1.42925 -0.914907 0
M  V30 3124 H 286.131 -3.10461 -2.3818 0
M  V30 3125 H 285.754 -1.83035 -3.52964 0
M  V30 3126 N 286.751 1.08385 -1.14413 0
M  V30 3127 C 287.979 1.84517 -0.936001 0
M  V30 3128 C 288.394 1.81626 0.515503 0
M  V30 3129 O 287.751 1.22008 1.35721 0
M  V30 3130 C 287.802 3.32049 -1.42918 0
M  V30 3131 O 287.523 3.34951 -2.82381 0
M  V30 3132 C 289.024 4.24986 -1.26103 0
M  V30 3133 H 286.244 0.582491 -0.333084 0
M  V30 3134 H 288.788 1.36885 -1.5193 0
M  V30 3135 H 286.943 3.7707 -0.888641 0
M  V30 3136 H 287.357 4.27048 -3.04517 0
M  V30 3137 H 288.831 5.26615 -1.6547 0
M  V30 3138 H 289.308 4.38726 -0.20392 0
M  V30 3139 H 289.914 3.85791 -1.79012 0
M  V30 3140 N 288.23 0.939286 1.26551 0
M  V30 3141 C 289.47 0.5933 1.956 0
M  V30 3142 C 289.834 -0.851515 1.72085 0
M  V30 3143 O 291.035 -1.30634 2.34921 0
M  V30 3144 C 289.306 0.923996 3.45249 0
M  V30 3145 S 290.865 0.688269 4.33369 0
M  V30 3146 H 287.683 0.218591 0.676564 0
M  V30 3147 H 290.285 1.2102 1.5354 0
M  V30 3148 H 288.989 1.97297 3.59864 0
M  V30 3149 H 288.52 0.296746 3.92279 0
M  V30 3150 H 290.535 -0.448434 4.9417 0
M  V30 3151 N 289.708 -1.40897 0.706093 0
M  V30 3152 C 290.956 -2.00657 0.241054 0
M  V30 3153 C 291.277 -1.56241 -1.16678 0
M  V30 3154 O 290.547 -0.79765 -1.78926 0
M  V30 3155 H 289.127 -0.742018 0.0861308 0
M  V30 3156 H 291.789 -1.72372 0.909604 0
M  V30 3157 H 290.885 -3.10958 0.266705 0
M  V30 3158 N 291.186 -0.45159 -1.50991 0
M  V30 3159 C 292.096 0.358431 -2.31846 0
M  V30 3160 C 293.112 1.01438 -1.41373 0
M  V30 3161 O 294.288 1.00663 -1.74439 0
M  V30 3162 C 291.353 1.43704 -3.15515 0
M  V30 3163 C 290.414 0.799742 -4.21785 0
M  V30 3164 C 289.647 1.82696 -5.01456 0
M  V30 3165 O 289.87 3.05105 -4.81941 0
M  V30 3166 O 288.804 1.40958 -5.85162 0
M  V30 3167 H 292.63 -0.302032 -3.02194 0
M  V30 3168 H 290.215 -0.213825 -1.47862 0
M  V30 3169 H 292.097 2.06227 -3.67489 0
M  V30 3170 H 290.772 2.08133 -2.47916 0
M  V30 3171 H 289.679 0.136084 -3.73852 0
M  V30 3172 H 291.012 0.198718 -4.91799 0
M  V30 3173 N 292.664 1.56529 -0.183458 0
M  V30 3174 C 293.611 2.18546 0.742055 0
M  V30 3175 C 294.581 1.12912 1.2182 0
M  V30 3176 O 295.766 1.41115 1.28418 0
M  V30 3177 C 292.906 2.83977 1.96089 0
M  V30 3178 C 292.019 4.04105 1.52719 0
M  V30 3179 C 291.154 4.57427 2.70063 0
M  V30 3180 C 290.193 5.69938 2.23243 0
M  V30 3181 N 289.33 6.17717 3.33722 0
M  V30 3182 H 294.17 2.97284 0.206432 0
M  V30 3183 H 291.707 1.46823 0.0901571 0
M  V30 3184 H 293.665 3.20077 2.67594 0
M  V30 3185 H 292.295 2.07822 2.47002 0
M  V30 3186 H 291.347 3.73745 0.708436 0
M  V30 3187 H 292.659 4.85513 1.1436 0
M  V30 3188 H 291.813 4.95772 3.49708 0
M  V30 3189 H 290.552 3.75101 3.11689 0
M  V30 3190 H 289.557 5.31133 1.42048 0
M  V30 3191 H 290.782 6.54073 1.82661 0
M  V30 3192 H 288.728 5.38317 3.74902 0
M  V30 3193 H 288.645 6.94146 2.99495 0
M  V30 3194 H 289.913 6.60713 4.13616 0
M  V30 3195 N 294.142 -0.090211 1.57342 0
M  V30 3196 C 295.074 -1.13541 1.99101 0
M  V30 3197 C 296.087 -1.3604 0.894258 0
M  V30 3198 O 297.276 -1.34606 1.17233 0
M  V30 3199 C 294.376 -2.49001 2.29895 0
M  V30 3200 C 293.549 -2.46712 3.61182 0
M  V30 3201 C 292.608 -3.64136 3.79857 0
M  V30 3202 O 291.634 -3.46405 4.51655 0
M  V30 3203 N 292.836 -4.83802 3.20806 0
M  V30 3204 H 295.601 -0.779942 2.89373 0
M  V30 3205 H 293.162 -0.279125 1.59476 0
M  V30 3206 H 295.154 -3.26166 2.39578 0
M  V30 3207 H 293.724 -2.76619 1.45605 0
M  V30 3208 H 292.944 -1.55058 3.62423 0
M  V30 3209 H 294.232 -2.42265 4.4742 0
M  V30 3210 H 293.63 -5.01112 2.62494 0
M  V30 3211 H 292.187 -5.58543 3.35966 0
M  V30 3212 N 295.62 -1.53406 -0.361157 0
M  V30 3213 C 296.583 -1.79479 -1.42548 0
M  V30 3214 C 297.583 -0.665327 -1.4639 0
M  V30 3215 O 298.773 -0.933549 -1.47073 0
M  V30 3216 C 295.905 -1.92087 -2.8163 0
M  V30 3217 H 297.098 -2.74538 -1.20701 0
M  V30 3218 H 294.651 -1.4455 -0.594546 0
M  V30 3219 H 295.386 -0.991099 -3.08784 0
M  V30 3220 H 295.171 -2.74241 -2.80239 0
M  V30 3221 H 296.661 -2.13836 -3.58697 0
M  V30 3222 N 297.098 0.621204 -1.44841 0
M  V30 3223 C 298.046 1.75385 -1.52784 0
M  V30 3224 C 299.04 1.64639 -0.398779 0
M  V30 3225 O 300.246 1.70598 -0.574137 0
M  V30 3226 H 296.621 0.579193 -0.479625 0
M  V30 3227 H 298.592 1.6581 -2.48092 0
M  V30 3228 C 297.341 3.13742 -1.4987 0
M  V30 3229 H 296.664 3.22663 -2.36069 0
M  V30 3230 H 298.104 3.92861 -1.59487 0
M  V30 3231 C 296.563 3.36175 -0.220973 0
M  V30 3232 O 297.093 3.95469 0.704782 0
M  V30 3233 N 295.299 2.90348 -0.120963 0
M  V30 3234 H 294.846 2.42278 -0.875162 0
M  V30 3235 H 294.804 3.05732 0.733168 0
M  V30 3236 N 298.576 1.31904 0.862503 0
M  V30 3237 C 299.508 1.16005 1.97675 0
M  V30 3238 C 300.521 0.0971234 1.6251 0
M  V30 3239 O 301.71 0.345337 1.75128 0
M  V30 3240 C 298.81 0.751791 3.30456 0
M  V30 3241 C 297.983 1.90133 3.93914 0
M  V30 3242 C 297.042 1.4779 5.05019 0
M  V30 3243 O 296.068 2.18872 5.25437 0
M  V30 3244 N 297.27 0.369491 5.79323 0
M  V30 3245 H 300.035 2.11982 2.11857 0
M  V30 3246 H 297.596 1.24337 1.03691 0
M  V30 3247 H 299.588 0.451084 4.02178 0
M  V30 3248 H 298.158 -0.116593 3.12382 0
M  V30 3249 H 297.378 2.36896 3.15078 0
M  V30 3250 H 298.666 2.67111 4.33047 0
M  V30 3251 H 298.064 -0.222299 5.65263 0
M  V30 3252 H 296.621 0.128354 6.51674 0
M  V30 3253 N 300.054 -1.07777 1.14986 0
M  V30 3254 C 301.303 -1.79669 0.916617 0
M  V30 3255 C 301.616 -1.87474 -0.557917 0
M  V30 3256 O 302.822 -2.55845 -0.908617 0
M  V30 3257 C 301.278 -3.22848 1.59051 0
M  V30 3258 C 300.886 -3.23257 3.10176 0
M  V30 3259 C 302.63 -3.99379 1.43864 0
M  V30 3260 C 300.537 -4.61063 3.70372 0
M  V30 3261 H 299.467 -0.673349 0.33929 0
M  V30 3262 H 302.118 -1.21003 1.37951 0
M  V30 3263 H 300.5 -3.8168 1.0553 0
M  V30 3264 H 301.674 -2.74095 3.70417 0
M  V30 3265 H 299.989 -2.60222 3.25074 0
M  V30 3266 H 302.586 -5.0122 1.86232 0
M  V30 3267 H 302.929 -4.14511 0.385564 0
M  V30 3268 H 303.462 -3.47032 1.94457 0
M  V30 3269 H 300.201 -4.51135 4.7556 0
M  V30 3270 H 299.721 -5.1048 3.14913 0
M  V30 3271 H 301.4 -5.30034 3.71043 0
M  V30 3272 N 301.532 -0.945985 -1.26051 0
M  V30 3273 C 302.948 -0.649045 -1.45807 0
M  V30 3274 C 303.148 0.796158 -1.85104 0
M  V30 3275 O 302.204 1.57233 -1.97571 0
M  V30 3276 C 303.517 -1.61458 -2.53677 0
M  V30 3277 C 305.065 -1.62481 -2.67524 0
M  V30 3278 C 305.54 -2.57776 -3.7857 0
M  V30 3279 N 307.031 -2.5609 -3.85969 0
M  V30 3280 C 307.766 -3.26508 -4.7136 0
M  V30 3281 N 307.262 -4.0637 -5.61102 0
M  V30 3282 N 309.055 -3.15437 -4.65248 0
M  V30 3283 H 301.206 -1.88005 -0.988328 0
M  V30 3284 H 303.469 -0.808198 -0.4955 0
M  V30 3285 H 303.175 -2.64644 -2.31638 0
M  V30 3286 H 303.049 -1.37036 -3.51427 0
M  V30 3287 H 305.436 -0.600167 -2.88933 0
M  V30 3288 H 305.517 -1.90958 -1.70202 0
M  V30 3289 H 305.161 -3.60361 -3.57913 0
M  V30 3290 H 305.091 -2.26587 -4.75359 0
M  V30 3291 H 307.582 -1.98105 -3.21812 0
M  V30 3292 H 307.895 -4.57042 -6.23164 0
M  V30 3293 H 306.24 -4.10469 -5.60839 0
M  V30 3294 H 309.431 -2.52525 -3.94143 0
M  V30 3295 H 309.604 -3.70584 -5.31575 0
M  V30 3296 N 303.011 1.40521 -0.713556 0
M  V30 3297 C 304.26 2.00155 -0.249192 0
M  V30 3298 C 304.573 1.57224 1.16362 0
M  V30 3299 O 305.779 2.09542 1.72639 0
M  V30 3300 C 304.235 3.5773 -0.3946 0
M  V30 3301 C 303.843 4.09635 -1.81392 0
M  V30 3302 C 305.587 4.24499 0.00907364 0
M  V30 3303 C 303.494 5.59707 -1.91003 0
M  V30 3304 H 302.424 0.74868 -0.0894114 0
M  V30 3305 H 305.075 1.60784 -0.884352 0
M  V30 3306 H 303.457 3.94792 0.30911 0
M  V30 3307 H 304.631 3.83955 -2.54785 0
M  V30 3308 H 302.946 3.55456 -2.16888 0
M  V30 3309 H 305.543 5.34683 -0.0420404 0
M  V30 3310 H 305.886 4.02824 1.05065 0
M  V30 3311 H 306.419 3.92536 -0.645007 0
M  V30 3312 H 303.158 5.86234 -2.93275 0
M  V30 3313 H 302.678 5.87258 -1.22019 0
M  V30 3314 H 304.357 6.24776 -1.6812 0
M  V30 3315 N 304.489 0.459591 1.5075 0
M  V30 3316 C 305.419 -0.330644 2.31147 0
M  V30 3317 C 306.4 -1.00087 1.37538 0
M  V30 3318 O 307.585 -1.00025 1.66459 0
M  V30 3319 C 304.715 -1.41958 3.16962 0
M  V30 3320 C 303.669 -0.871608 4.19031 0
M  V30 3321 C 302.995 -2.05797 4.9351 0
M  V30 3322 C 304.295 0.109251 5.22186 0
M  V30 3323 H 305.989 0.340336 2.97459 0
M  V30 3324 H 303.535 0.165119 1.4305 0
M  V30 3325 H 305.488 -1.9798 3.71997 0
M  V30 3326 H 304.212 -2.11917 2.48513 0
M  V30 3327 H 302.871 -0.333442 3.6508 0
M  V30 3328 H 302.519 -2.74427 4.21544 0
M  V30 3329 H 302.219 -1.6976 5.62544 0
M  V30 3330 H 303.743 -2.62331 5.51375 0
M  V30 3331 H 305.157 -0.361405 5.7216 0
M  V30 3332 H 303.554 0.383316 5.98875 0
M  V30 3333 H 304.624 1.03887 4.73641 0
M  V30 3334 N 305.967 -1.56429 0.191757 0
M  V30 3335 C 307.197 -2.01574 -0.452928 0
M  V30 3336 C 307.605 -1.07107 -1.55964 0
M  V30 3337 O 306.948 -0.067534 -1.83576 0
M  V30 3338 C 307.01 -3.43121 -1.07278 0
M  V30 3339 C 306.674 -4.56879 -0.105214 0
M  V30 3340 C 307.671 -5.15379 0.684149 0
M  V30 3341 C 305.356 -5.023 0.00489824 0
M  V30 3342 C 307.35 -6.17746 1.57062 0
M  V30 3343 C 305.037 -6.04511 0.894935 0
M  V30 3344 C 306.035 -6.62108 1.67637 0
M  V30 3345 O 305.723 -7.62335 2.55149 0
M  V30 3346 H 305.455 -0.665554 -0.118379 0
M  V30 3347 H 308.009 -2.03245 0.296737 0
M  V30 3348 H 306.239 -3.38425 -1.87097 0
M  V30 3349 H 307.928 -3.72093 -1.62177 0
M  V30 3350 H 308.694 -4.81157 0.609365 0
M  V30 3351 H 304.573 -4.57168 -0.593156 0
M  V30 3352 H 308.117 -6.6263 2.181 0
M  V30 3353 H 304.014 -6.38157 0.970847 0
M  V30 3354 H 304.782 -7.79741 2.48892 0
M  V30 3355 N 307.445 0.0818655 -1.57387 0
M  V30 3356 C 308.693 0.781368 -1.86384 0
M  V30 3357 C 309.014 1.78618 -0.782342 0
M  V30 3358 O 308.284 1.94976 0.190061 0
M  V30 3359 H 306.864 0.291562 -0.687751 0
M  V30 3360 H 309.526 0.060348 -1.94807 0
M  V30 3361 H 308.622 1.3038 -2.83562 0
M  V30 3362 N 308.923 1.53595 0.353017 0
M  V30 3363 C 310.171 1.70049 1.09215 0
M  V30 3364 C 310.492 0.461406 1.89463 0
M  V30 3365 O 309.762 -0.524633 1.88744 0
M  V30 3366 H 308.342 0.626912 0.40619 0
M  V30 3367 H 311.004 1.90822 0.396585 0
M  V30 3368 H 310.1 2.56718 1.77488 0
M  V30 3369 N 310.401 -0.613514 1.45168 0
M  V30 3370 C 311.626 -1.40437 1.52618 0
M  V30 3371 C 312.051 -1.87438 0.157707 0
M  V30 3372 O 311.409 -1.59791 -0.856537 0
M  V30 3373 C 311.457 -2.58894 2.51011 0
M  V30 3374 O 310.561 -3.59326 2.02382 0
M  V30 3375 H 309.902 -0.419506 0.514695 0
M  V30 3376 H 312.432 -0.747215 1.90467 0
M  V30 3377 H 312.442 -3.06214 2.69624 0
M  V30 3378 H 311.117 -2.24032 3.50403 0
M  V30 3379 H 309.694 -3.18695 1.93618 0
M  V30 3380 N 311.879 -1.3236 -0.855495 0
M  V30 3381 C 313.125 -1.23054 -1.612 0
M  V30 3382 C 313.458 0.207404 -1.93089 0
M  V30 3383 O 312.733 1.14432 -1.57275 0
M  V30 3384 C 313.016 -2.08937 -2.93287 0
M  V30 3385 C 312.869 -3.61105 -2.68185 0
M  V30 3386 C 314.188 -1.94986 -3.94549 0
M  V30 3387 H 311.307 -0.448364 -0.584926 0
M  V30 3388 H 313.949 -1.62297 -0.987917 0
M  V30 3389 H 312.099 -1.75599 -3.46551 0
M  V30 3390 H 313.771 -4.04652 -2.21483 0
M  V30 3391 H 312.014 -3.83813 -2.02164 0
M  V30 3392 H 312.685 -4.16522 -3.62234 0
M  V30 3393 H 315.161 -2.24189 -3.5054 0
M  V30 3394 H 314.037 -2.57356 -4.84829 0
M  V30 3395 H 314.298 -0.917263 -4.3248 0
M  V30 3396 N 313.357 1.07166 -1.15556 0
M  V30 3397 C 314.305 2.16517 -0.8499 0
M  V30 3398 C 315.299 1.68468 0.177454 0
M  V30 3399 O 316.505 1.79971 0.0323026 0
M  V30 3400 H 312.88 0.706652 -0.25719 0
M  V30 3401 H 314.851 2.39514 -1.77976 0
M  V30 3402 C 313.6 3.45855 -0.357682 0
M  V30 3403 H 312.923 3.83214 -1.13961 0
M  V30 3404 H 314.363 4.23607 -0.182489 0
M  V30 3405 C 312.822 3.24062 0.921152 0
M  V30 3406 O 313.352 3.48813 1.9923 0
M  V30 3407 N 311.558 2.77539 0.86141 0
M  V30 3408 H 311.105 2.57598 -0.0104408 0
M  V30 3409 H 311.063 2.63337 1.71758 0
M  V30 3410 N 314.835 0.952656 1.25548 0
M  V30 3411 C 316.063 0.623496 1.97282 0
M  V30 3412 C 316.478 -0.803987 1.70826 0
M  V30 3413 O 315.835 -1.53755 0.983147 0
M  V30 3414 C 315.886 0.870209 3.5087 0
M  V30 3415 O 315.607 2.24156 3.76412 0
M  V30 3416 C 317.108 0.553164 4.39835 0
M  V30 3417 H 314.328 0.233931 0.628902 0
M  V30 3418 H 316.872 1.27649 1.59768 0
M  V30 3419 H 315.027 0.263652 3.86502 0
M  V30 3420 H 315.441 2.31021 4.70882 0
M  V30 3421 H 316.915 0.776342 5.46513 0
M  V30 3422 H 317.392 -0.512215 4.36203 0
M  V30 3423 H 317.998 1.13896 4.09766 0
M  V30 3424 N 316.313 -1.40141 0.720998 0
M  V30 3425 C 317.223 -2.34486 0.0731031 0
M  V30 3426 C 318.239 -1.57587 -0.737723 0
M  V30 3427 O 319.415 -1.89949 -0.669429 0
M  V30 3428 C 316.48 -3.36528 -0.833656 0
M  V30 3429 C 315.541 -4.29298 -0.0121673 0
M  V30 3430 C 314.774 -5.26466 -0.875742 0
M  V30 3431 O 314.997 -5.29745 -2.11485 0
M  V30 3432 O 313.931 -6.01092 -0.31185 0
M  V30 3433 H 317.757 -2.9152 0.851444 0
M  V30 3434 H 315.342 -1.41427 0.481527 0
M  V30 3435 H 317.224 -3.99093 -1.35289 0
M  V30 3436 H 315.899 -2.81899 -1.59105 0
M  V30 3437 H 314.806 -3.70001 0.552262 0
M  V30 3438 H 316.139 -4.87094 0.707129 0
M  V30 3439 N 317.792 -0.46758 -1.50504 0
M  V30 3440 C 318.74 0.342482 -2.30065 0
M  V30 3441 C 319.734 0.993596 -1.37201 0
M  V30 3442 O 320.94 0.925102 -1.54408 0
M  V30 3443 H 317.315 0.129283 -0.740803 0
M  V30 3444 H 319.286 -0.34899 -2.96352 0
M  V30 3445 C 318.035 1.4139 -3.17654 0
M  V30 3446 H 317.358 0.922264 -3.89017 0
M  V30 3447 H 318.798 1.95335 -3.76325 0
M  V30 3448 C 317.257 2.4139 -2.35016 0
M  V30 3449 O 317.787 3.46586 -2.03079 0
M  V30 3450 N 315.993 2.13021 -1.97662 0
M  V30 3451 H 315.54 1.27499 -2.23834 0
M  V30 3452 H 315.498 2.80164 -1.42673 0
M  V30 3453 N 319.27 1.56325 -0.20005 0
M  V30 3454 C 320.51 1.99619 0.439519 0
M  V30 3455 C 320.874 1.08423 1.58456 0
M  V30 3456 O 322.075 1.40973 2.28867 0
M  V30 3457 C 320.346 3.46314 0.883258 0
M  V30 3458 S 321.905 4.11634 1.51997 0
M  V30 3459 H 318.723 0.697007 0.140363 0
M  V30 3460 H 321.325 1.93118 -0.304282 0
M  V30 3461 H 320.029 4.10381 0.0398967 0
M  V30 3462 H 319.56 3.56643 1.6604 0
M  V30 3463 H 321.575 4.09049 2.8088 0
M  V30 3464 N 320.748 -0.0735177 1.57428 0
M  V30 3465 C 321.973 -0.789787 1.91774 0
M  V30 3466 C 322.398 -1.70413 0.796306 0
M  V30 3467 O 321.756 -1.79555 -0.250961 0
M  V30 3468 C 321.804 -1.5609 3.25067 0
M  V30 3469 O 320.908 -2.67144 3.14178 0
M  V30 3470 H 320.249 -0.215582 0.628029 0
M  V30 3471 H 322.779 -0.0422781 2.04556 0
M  V30 3472 H 322.789 -1.94052 3.58898 0
M  V30 3473 H 321.464 -0.890015 4.06265 0
M  V30 3474 H 320.041 -2.32052 2.91901 0
M  V30 3475 N 322.226 -1.5378 -0.344866 0
M  V30 3476 C 323.451 -1.75211 -1.10977 0
M  V30 3477 C 323.876 -0.48936 -1.81623 0
M  V30 3478 O 323.234 0.557925 -1.72502 0
M  V30 3479 C 323.282 -2.93147 -2.09993 0
M  V30 3480 O 322.386 -2.63203 -3.17487 0
M  V30 3481 H 321.727 -0.581241 -0.321021 0
M  V30 3482 H 324.257 -2.00738 -0.395661 0
M  V30 3483 H 324.267 -3.19898 -2.53237 0
M  V30 3484 H 322.942 -3.84731 -1.5797 0
M  V30 3485 H 321.519 -2.47336 -2.79069 0
M  V30 3486 N 323.704 0.605807 -1.45491 0
M  V30 3487 C 324.634 1.72709 -1.57143 0
M  V30 3488 C 325.615 1.6476 -0.422884 0
M  V30 3489 O 326.8 1.83132 -0.646247 0
M  V30 3490 C 323.93 3.11316 -1.53948 0
M  V30 3491 C 322.884 3.34077 -2.67537 0
M  V30 3492 C 322.21 4.72975 -2.49397 0
M  V30 3493 C 323.51 3.24158 -4.09535 0
M  V30 3494 H 325.204 1.63214 -2.51001 0
M  V30 3495 H 322.75 0.78379 -1.208 0
M  V30 3496 H 324.703 3.89557 -1.60696 0
M  V30 3497 H 323.427 3.21655 -0.566205 0
M  V30 3498 H 322.086 2.58227 -2.6022 0
M  V30 3499 H 321.734 4.8005 -1.50205 0
M  V30 3500 H 321.434 4.8916 -3.25571 0
M  V30 3501 H 322.958 5.53414 -2.58002 0
M  V30 3502 H 324.372 3.92271 -4.18086 0
M  V30 3503 H 322.769 3.51872 -4.86113 0
M  V30 3504 H 323.839 2.2157 -4.31317 0
M  V30 3505 N 325.182 1.32811 0.848464 0
M  V30 3506 C 326.431 1.23075 1.59798 0
M  V30 3507 C 326.744 -0.204419 1.94529 0
M  V30 3508 O 327.95 -0.423701 2.68173 0
M  V30 3509 C 326.406 2.15594 2.88179 0
M  V30 3510 C 326.014 3.64228 2.60849 0
M  V30 3511 C 327.758 2.14709 3.66197 0
M  V30 3512 C 325.665 4.48689 3.85269 0
M  V30 3513 H 324.595 0.457091 0.599653 0
M  V30 3514 H 327.246 1.57813 0.936342 0
M  V30 3515 H 325.628 1.73778 3.55833 0
M  V30 3516 H 326.802 4.14424 2.01467 0
M  V30 3517 H 325.117 3.67306 1.96151 0
M  V30 3518 H 327.714 2.75046 4.58534 0
M  V30 3519 H 328.057 1.13966 4.00397 0
M  V30 3520 H 328.59 2.54837 3.05455 0
M  V30 3521 H 325.329 5.5027 3.56207 0
M  V30 3522 H 324.849 4.03241 4.44024 0
M  V30 3523 H 326.528 4.62006 4.52946 0
M  V30 3524 N 326.66 -1.06551 1.16123 0
M  V30 3525 C 327.592 -2.13908 0.823171 0
M  V30 3526 C 328.605 -1.61926 -0.16843 0
M  V30 3527 O 329.794 -1.78412 0.055962 0
M  V30 3528 C 326.894 -3.38283 0.204424 0
M  V30 3529 C 326.067 -4.19589 1.23548 0
M  V30 3530 C 325.126 -5.2233 0.637011 0
M  V30 3531 O 324.152 -5.54034 1.30516 0
M  V30 3532 N 325.354 -5.77621 -0.577474 0
M  V30 3533 H 328.119 -2.43508 1.74711 0
M  V30 3534 H 325.68 -1.2253 1.05821 0
M  V30 3535 H 327.672 -4.0416 -0.208909 0
M  V30 3536 H 326.242 -3.06329 -0.623012 0
M  V30 3537 H 325.462 -3.49406 1.82507 0
M  V30 3538 H 326.75 -4.70718 1.93137 0
M  V30 3539 H 326.148 -5.54125 -1.13853 0
M  V30 3540 H 324.705 -6.45087 -0.933053 0
M  V30 3541 N 328.138 -0.959301 -1.25041 0
M  V30 3542 C 329.07 -0.440543 -2.24926 0
M  V30 3543 C 330.083 0.446131 -1.56568 0
M  V30 3544 O 331.272 0.253657 -1.76689 0
M  V30 3545 C 328.372 0.38412 -3.36716 0
M  V30 3546 C 327.545 -0.490658 -4.34639 0
M  V30 3547 C 326.604 0.276587 -5.25473 0
M  V30 3548 O 325.63 -0.326614 -5.68262 0
M  V30 3549 N 326.832 1.56844 -5.5891 0
M  V30 3550 H 329.597 -1.29931 -2.70071 0
M  V30 3551 H 327.158 -0.830181 -1.38995 0
M  V30 3552 H 329.15 0.905228 -3.94446 0
M  V30 3553 H 327.72 1.14377 -2.90924 0
M  V30 3554 H 326.94 -1.19282 -3.7572 0
M  V30 3555 H 328.228 -1.08756 -4.97041 0
M  V30 3556 H 327.626 2.08036 -5.26059 0
M  V30 3557 H 326.183 2.03541 -6.19205 0
M  V30 3558 N 329.616 1.39756 -0.72842 0
M  V30 3559 C 330.526 2.34444 -0.0855374 0
M  V30 3560 C 331.542 1.57976 0.729356 0
M  V30 3561 O 332.718 1.90301 0.659346 0
M  V30 3562 C 329.783 3.36965 0.815798 0
M  V30 3563 C 328.844 4.29299 -0.0105996 0
M  V30 3564 C 328.077 5.26923 0.84781 0
M  V30 3565 O 328.3 5.30859 2.08673 0
M  V30 3566 O 327.234 6.01249 0.279969 0
M  V30 3567 H 331.06 2.91065 -0.866892 0
M  V30 3568 H 328.645 1.4117 -0.48902 0
M  V30 3569 H 330.527 3.99804 1.33171 0
M  V30 3570 H 329.202 2.82739 1.57608 0
M  V30 3571 H 328.109 3.69703 -0.571877 0
M  V30 3572 H 329.442 4.86712 -0.73295 0
M  V30 3573 N 331.094 0.475555 1.50254 0
M  V30 3574 C 332.371 -0.139685 1.95101 0
M  V30 3575 C 332.751 -1.56555 1.41611 0
M  V30 3576 O 332.099 -2.19956 0.618993 0
M  V30 3577 C 332.309 -0.0784298 3.48912 0
M  V30 3578 C 333.657 -0.265095 4.23772 0
M  V30 3579 O 334.681 -0.154808 3.55863 0
M  V30 3580 O 333.54 -0.488327 5.44314 0
M  V30 3581 H 330.634 -0.109236 0.819754 0
M  V30 3582 H 333.18 0.536276 1.61004 0
M  V30 3583 H 331.952 0.916918 3.80405 0
M  V30 3584 H 331.575 -0.795655 3.89558 0
M  V30 3585 N 332.573 -1.56217 0.208337 0
M  V30 3586 C 333.822 -1.97124 -0.427204 0
M  V30 3587 C 334.135 -1.09859 -1.61835 0
M  V30 3588 O 335.341 -1.40606 -2.32255 0
M  V30 3589 C 333.797 -3.50633 -0.811442 0
M  V30 3590 C 333.405 -4.46582 0.35615 0
M  V30 3591 C 335.149 -4.00282 -1.41332 0
M  V30 3592 C 333.056 -5.91379 -0.0497852 0
M  V30 3593 H 331.986 -0.736086 -0.163381 0
M  V30 3594 H 334.637 -1.8099 0.302456 0
M  V30 3595 H 333.019 -3.62319 -1.59815 0
M  V30 3596 H 334.193 -4.46636 1.1337 0
M  V30 3597 H 332.508 -4.07202 0.870396 0
M  V30 3598 H 335.105 -5.0595 -1.72972 0
M  V30 3599 H 335.448 -3.45359 -2.32449 0
M  V30 3600 H 335.981 -3.91764 -0.690323 0
M  V30 3601 H 332.72 -6.50255 0.827529 0
M  V30 3602 H 332.24 -5.94549 -0.791926 0
M  V30 3603 H 333.919 -6.45209 -0.481042 0
M  V30 3604 N 334.051 0.0651679 -1.57465 0
M  V30 3605 C 335.328 0.79644 -1.78651 0
M  V30 3606 C 335.708 1.95454 -0.797566 0
M  V30 3607 O 335.056 2.27882 0.167946 0
M  V30 3608 C 335.266 1.26322 -3.25337 0
M  V30 3609 C 336.614 1.6939 -3.89348 0
M  V30 3610 O 337.638 1.35872 -3.29268 0
M  V30 3611 O 336.497 2.31471 -4.95059 0
M  V30 3612 H 333.591 0.382157 -0.733407 0
M  V30 3613 H 336.137 0.0447311 -1.69641 0
M  V30 3614 H 334.909 0.434859 -3.88876 0
M  V30 3615 H 334.532 2.07604 -3.39096 0
M  V30 3616 N 335.529 1.53961 0.336706 0
M  V30 3617 C 336.777 1.71197 1.07405 0
M  V30 3618 C 337.098 0.481475 1.88962 0
M  V30 3619 O 336.368 -0.504585 1.8929 0
M  V30 3620 H 334.948 0.631185 0.399517 0
M  V30 3621 H 337.61 1.91232 0.376323 0
M  V30 3622 H 336.706 2.58587 1.74755 0
M  V30 3623 N 337.007 -0.598083 1.45811 0
M  V30 3624 C 338.254 -1.35681 1.50323 0
M  V30 3625 C 338.582 -1.9393 0.148739 0
M  V30 3626 O 337.837 -1.76094 -0.853787 0
M  V30 3627 C 338.136 -2.51669 2.53766 0
M  V30 3628 C 337.802 -2.11508 3.98215 0
M  V30 3629 C 336.464 -2.0027 4.37545 0
M  V30 3630 C 338.816 -1.80308 4.89018 0
M  V30 3631 C 336.144 -1.56067 5.65562 0
M  V30 3632 C 338.496 -1.37589 6.17456 0
M  V30 3633 C 337.16 -1.24916 6.55708 0
M  V30 3634 H 336.43 -0.496492 0.550069 0
M  V30 3635 H 339.077 -0.675052 1.79207 0
M  V30 3636 H 337.382 -3.25225 2.18486 0
M  V30 3637 H 339.079 -3.09895 2.54492 0
M  V30 3638 H 335.669 -2.21185 3.67117 0
M  V30 3639 H 339.853 -1.87884 4.59362 0
M  V30 3640 H 335.109 -1.44886 5.93985 0
M  V30 3641 H 339.283 -1.12495 6.87254 0
M  V30 3642 H 336.91 -0.904386 7.54801 0
M  V30 3643 N 338.485 -1.33259 -0.841409 0
M  V30 3644 C 339.415 -1.25926 -1.96634 0
M  V30 3645 C 340.396 -0.140349 -1.6952 0
M  V30 3646 O 341.581 -0.329707 -1.91381 0
M  V30 3647 C 338.711 -0.99512 -3.32738 0
M  V30 3648 C 337.665 -2.0767 -3.74242 0
M  V30 3649 C 336.991 -1.66474 -5.08125 0
M  V30 3650 C 338.291 -3.49318 -3.88297 0
M  V30 3651 H 339.985 -2.20046 -2.03027 0
M  V30 3652 H 337.531 -1.05931 -0.975425 0
M  V30 3653 H 339.484 -0.930323 -4.11002 0
M  V30 3654 H 338.208 -0.0183004 -3.26595 0
M  V30 3655 H 336.867 -2.13187 -2.98239 0
M  V30 3656 H 336.515 -0.675012 -4.9845 0
M  V30 3657 H 336.215 -2.3885 -5.36865 0
M  V30 3658 H 337.739 -1.61455 -5.88867 0
M  V30 3659 H 339.153 -3.46316 -4.56879 0
M  V30 3660 H 337.55 -4.20158 -4.28471 0
M  V30 3661 H 338.62 -3.8801 -2.9082 0
M  V30 3662 N 339.963 1.05934 -1.16686 0
M  V30 3663 C 341.209 1.79065 -0.95203 0
M  V30 3664 C 341.542 1.87147 0.518629 0
M  V30 3665 O 340.817 1.36574 1.38484 0
M  V30 3666 C 341.1 3.23359 -1.58464 0
M  V30 3667 C 340.953 3.23336 -3.12689 0
M  V30 3668 C 342.272 4.21004 -1.28232 0
M  V30 3669 H 339.391 0.65005 -0.34728 0
M  V30 3670 H 342.033 1.23868 -1.44072 0
M  V30 3671 H 340.183 3.70493 -1.16908 0
M  V30 3672 H 341.855 2.84336 -3.6325 0
M  V30 3673 H 340.098 2.61886 -3.4583 0
M  V30 3674 H 340.769 4.25144 -3.52075 0
M  V30 3675 H 343.245 3.8233 -1.64203 0
M  V30 3676 H 342.121 5.20225 -1.75092 0
M  V30 3677 H 342.382 4.41639 -0.201791 0
M  V30 3678 N 341.441 0.965919 1.2453 0
M  V30 3679 C 342.689 0.625593 1.92174 0
M  V30 3680 C 343.01 -0.841652 1.75901 0
M  V30 3681 O 342.28 -1.60061 1.12948 0
M  V30 3682 H 340.86 0.228388 0.71123 0
M  V30 3683 H 343.522 1.2266 1.51461 0
M  V30 3684 H 342.618 0.864653 2.99884 0
M  V30 3685 N 342.919 -1.39368 0.735821 0
M  V30 3686 C 343.867 -2.32443 0.0855131 0
M  V30 3687 C 344.861 -1.53104 -0.724954 0
M  V30 3688 O 346.067 -1.68762 -0.626047 0
M  V30 3689 H 342.442 -0.751948 0.00885257 0
M  V30 3690 H 344.413 -2.84916 0.886883 0
M  V30 3691 C 343.162 -3.38206 -0.806983 0
M  V30 3692 H 342.485 -3.99335 -0.19274 0
M  V30 3693 H 343.925 -4.05779 -1.2296 0
M  V30 3694 C 342.384 -2.75321 -1.94165 0
M  V30 3695 O 342.914 -2.63231 -3.03435 0
M  V30 3696 N 341.12 -2.33396 -1.73132 0
M  V30 3697 H 340.667 -2.4343 -0.842596 0
M  V30 3698 H 340.625 -1.91661 -2.49225 0
M  V30 3699 N 344.397 -0.483516 -1.5 0
M  V30 3700 C 345.36 0.292965 -2.2732 0
M  V30 3701 C 346.36 0.909499 -1.32608 0
M  V30 3702 O 347.55 0.776745 -1.55924 0
M  V30 3703 C 344.682 1.41854 -3.09984 0
M  V30 3704 H 345.875 -0.385289 -2.97415 0
M  V30 3705 H 343.428 -0.237942 -1.54478 0
M  V30 3706 H 344.163 2.13148 -2.44414 0
M  V30 3707 H 343.948 0.982114 -3.79601 0
M  V30 3708 H 345.438 1.96597 -3.68429 0
M  V30 3709 N 345.875 1.56104 -0.216619 0
M  V30 3710 C 347.1 2.0301 0.424462 0
M  V30 3711 C 347.525 1.0955 1.52907 0
M  V30 3712 O 346.883 0.0827914 1.81111 0
M  V30 3713 C 346.931 3.4819 0.937883 0
M  V30 3714 O 346.035 3.57865 2.04955 0
M  V30 3715 H 345.376 0.656925 0.0966755 0
M  V30 3716 H 347.906 2.01859 -0.33381 0
M  V30 3717 H 347.916 3.88413 1.24897 0
M  V30 3718 H 346.591 4.15699 0.129387 0
M  V30 3719 H 345.168 3.29527 1.74546 0
M  V30 3720 N 347.353 -0.0568162 1.57498 0
M  V30 3721 C 348.283 -1.06593 2.0775 0
M  V30 3722 C 349.264 -1.39448 0.974082 0
M  V30 3723 O 350.449 -1.48815 1.24771 0
M  V30 3724 C 347.579 -2.37509 2.5339 0
M  V30 3725 C 346.533 -2.1897 3.67745 0
M  V30 3726 C 345.859 -3.55402 3.99492 0
M  V30 3727 C 347.159 -1.59859 4.97235 0
M  V30 3728 H 348.853 -0.647706 2.9231 0
M  V30 3729 H 346.399 -0.310116 1.40621 0
M  V30 3730 H 348.352 -3.08409 2.87162 0
M  V30 3731 H 347.076 -2.8134 1.65878 0
M  V30 3732 H 345.735 -1.50508 3.3428 0
M  V30 3733 H 345.383 -3.9683 3.09088 0
M  V30 3734 H 345.083 -3.43831 4.76502 0
M  V30 3735 H 346.607 -4.27708 4.35773 0
M  V30 3736 H 348.021 -2.20642 5.29141 0
M  V30 3737 H 346.418 -1.58942 5.78669 0
M  V30 3738 H 347.488 -0.561506 4.81638 0
M  V30 3739 N 348.832 -1.54138 -0.328536 0
M  V30 3740 C 349.779 -1.83176 -1.40411 0
M  V30 3741 C 350.749 -0.678494 -1.5161 0
M  V30 3742 O 351.934 -0.92443 -1.6691 0
M  V30 3743 C 349.074 -2.06035 -2.76846 0
M  V30 3744 C 348.187 -3.33727 -2.74318 0
M  V30 3745 C 347.322 -3.46574 -4.02567 0
M  V30 3746 C 346.361 -4.68159 -3.94327 0
M  V30 3747 N 345.498 -4.77959 -5.14296 0
M  V30 3748 H 350.338 -2.74938 -1.14948 0
M  V30 3749 H 347.875 -1.36166 -0.556538 0
M  V30 3750 H 349.833 -2.1728 -3.56153 0
M  V30 3751 H 348.463 -1.1757 -3.00628 0
M  V30 3752 H 347.515 -3.31246 -1.8703 0
M  V30 3753 H 348.827 -4.23139 -2.64111 0
M  V30 3754 H 347.981 -3.57333 -4.90304 0
M  V30 3755 H 346.72 -2.55245 -4.15574 0
M  V30 3756 H 345.725 -4.57461 -3.04974 0
M  V30 3757 H 346.95 -5.60868 -3.82889 0
M  V30 3758 H 344.896 -3.89544 -5.27818 0
M  V30 3759 H 344.813 -5.6133 -5.06404 0
M  V30 3760 H 346.081 -4.93044 -6.03761 0
M  V30 3761 N 350.31 0.590341 -1.46126 0
M  V30 3762 C 351.22 1.72793 -1.58681 0
M  V30 3763 C 352.236 1.67516 -0.470566 0
M  V30 3764 O 353.412 1.87562 -0.733642 0
M  V30 3765 C 350.477 3.09287 -1.5666 0
M  V30 3766 C 349.538 3.25886 -2.79458 0
M  V30 3767 C 348.771 4.55869 -2.77524 0
M  V30 3768 O 348.994 5.3928 -1.85832 0
M  V30 3769 O 347.928 4.75552 -3.68964 0
M  V30 3770 H 351.754 1.65149 -2.54872 0
M  V30 3771 H 349.339 0.756486 -1.28832 0
M  V30 3772 H 351.221 3.90577 -1.58202 0
M  V30 3773 H 349.896 3.17385 -0.636271 0
M  V30 3774 H 348.803 2.44119 -2.83472 0
M  V30 3775 H 350.136 3.22675 -3.71674 0
M  V30 3776 N 351.788 1.33704 0.83433 0
M  V30 3777 C 353.013 1.28615 1.62705 0
M  V30 3778 C 353.438 -0.139242 1.87584 0
M  V30 3779 O 352.796 -1.09734 1.4432 0
M  V30 3780 C 352.844 2.07139 2.95171 0
M  V30 3781 O 351.948 1.4331 3.86699 0
M  V30 3782 H 351.289 0.44226 0.49528 0
M  V30 3783 H 353.819 1.76335 1.03766 0
M  V30 3784 H 353.829 2.18073 3.44831 0
M  V30 3785 H 352.504 3.10779 2.76386 0
M  V30 3786 H 351.081 1.4105 3.45195 0
M  V30 3787 N 353.266 -1.05314 1.17247 0
M  V30 3788 C 354.513 -1.78293 0.960091 0
M  V30 3789 C 354.841 -1.87658 -0.51136 0
M  V30 3790 O 354.096 -1.3718 -1.39571 0
M  V30 3791 C 354.395 -3.2229 1.54479 0
M  V30 3792 C 354.061 -3.32987 3.04024 0
M  V30 3793 C 352.723 -3.35613 3.44844 0
M  V30 3794 C 355.075 -3.34102 4.00031 0
M  V30 3795 C 352.403 -3.36982 4.8027 0
M  V30 3796 C 354.755 -3.3701 5.35357 0
M  V30 3797 C 353.419 -3.37923 5.75642 0
M  V30 3798 H 352.689 -0.652422 0.351322 0
M  V30 3799 H 355.336 -1.23782 1.46117 0
M  V30 3800 H 353.641 -3.7972 0.965391 0
M  V30 3801 H 355.338 -3.77376 1.35603 0
M  V30 3802 H 351.928 -3.31655 2.71483 0
M  V30 3803 H 356.112 -3.31276 3.69554 0
M  V30 3804 H 351.368 -3.35999 5.10798 0
M  V30 3805 H 355.542 -3.36822 6.09528 0
M  V30 3806 H 353.169 -3.38738 6.80559 0
M  V30 3807 N 354.744 -0.972509 -1.24016 0
M  V30 3808 C 355.99 -0.637978 -1.92504 0
M  V30 3809 C 356.323 0.825383 -1.75787 0
M  V30 3810 O 355.598 1.59442 -1.11393 0
M  V30 3811 C 355.881 -1.01942 -3.45369 0
M  V30 3812 C 355.734 -2.53983 -3.71231 0
M  V30 3813 C 357.053 -0.55751 -4.36555 0
M  V30 3814 H 354.172 -0.233248 -0.699117 0
M  V30 3815 H 356.814 -1.21238 -1.46292 0
M  V30 3816 H 354.964 -0.530656 -3.84859 0
M  V30 3817 H 356.636 -3.10374 -3.41271 0
M  V30 3818 H 354.879 -2.96968 -3.16216 0
M  V30 3819 H 355.55 -2.75723 -4.78206 0
M  V30 3820 H 358.026 -0.977029 -4.04467 0
M  V30 3821 H 356.902 -0.85292 -5.42233 0
M  V30 3822 H 357.163 0.542328 -4.38761 0
M  V30 3823 N 356.222 1.38976 -0.743202 0
M  V30 3824 C 357.499 1.94351 -0.220705 0
M  V30 3825 C 357.879 1.67935 1.2791 0
M  V30 3826 O 357.227 1.01211 2.04862 0
M  V30 3827 C 357.437 3.44426 -0.563171 0
M  V30 3828 C 358.785 4.2144 -0.517046 0
M  V30 3829 O 359.809 3.52661 -0.500846 0
M  V30 3830 O 358.668 5.44032 -0.518806 0
M  V30 3831 H 355.762 0.825879 -0.043047 0
M  V30 3832 H 358.308 1.48429 -0.822618 0
M  V30 3833 H 357.08 3.5712 -1.59941 0
M  V30 3834 H 356.703 3.97543 0.0672883 0
M  V30 3835 N 357.7 0.491464 1.49741 0
M  V30 3836 C 358.949 -0.0582189 2.01616 0
M  V30 3837 C 359.262 -1.38927 1.3769 0
M  V30 3838 O 360.468 -2.02509 1.80838 0
M  V30 3839 C 358.924 -0.154235 3.59569 0
M  V30 3840 C 358.532 1.1696 4.32463 0
M  V30 3841 C 360.276 -0.65479 4.1942 0
M  V30 3842 C 358.183 1.03627 5.8225 0
M  V30 3843 H 357.113 -0.0255317 0.753568 0
M  V30 3844 H 359.764 0.629445 1.72367 0
M  V30 3845 H 358.146 -0.906138 3.85493 0
M  V30 3846 H 359.32 1.93405 4.18248 0
M  V30 3847 H 357.635 1.60285 3.84315 0
M  V30 3848 H 360.232 -0.771903 5.29099 0
M  V30 3849 H 360.575 -1.65127 3.8215 0
M  V30 3850 H 361.108 0.040304 3.9778 0
M  V30 3851 H 357.847 2.00672 6.24028 0
M  V30 3852 H 357.367 0.312546 5.98985 0
M  V30 3853 H 359.046 0.711114 6.4308 0
M  V30 3854 N 359.178 -1.55987 0.224894 0
M  V30 3855 C 360.427 -1.97566 -0.406273 0
M  V30 3856 C 360.74 -1.11569 -1.6066 0
M  V30 3857 O 361.946 -1.43062 -2.3075 0
M  V30 3858 C 360.402 -3.51474 -0.774207 0
M  V30 3859 C 360.01 -4.46179 0.403496 0
M  V30 3860 C 361.754 -4.01758 -1.37079 0
M  V30 3861 C 359.661 -5.91399 0.0129412 0
M  V30 3862 H 358.591 -0.737777 -0.155565 0
M  V30 3863 H 361.242 -1.80659 0.321635 0
M  V30 3864 H 359.624 -3.63994 -1.55963 0
M  V30 3865 H 360.798 -4.45409 1.18101 0
M  V30 3866 H 359.113 -4.06255 0.913536 0
M  V30 3867 H 361.71 -5.07756 -1.67596 0
M  V30 3868 H 362.053 -3.47805 -2.28773 0
M  V30 3869 H 362.586 -3.92475 -0.648733 0
M  V30 3870 H 359.325 -6.49341 0.896451 0
M  V30 3871 H 358.845 -5.95356 -0.728821 0
M  V30 3872 H 360.524 -6.45683 -0.412582 0
M  V30 3873 N 360.656 0.0484629 -1.57525 0
M  V30 3874 C 361.603 1.05504 -2.05275 0
M  V30 3875 C 362.573 1.37084 -0.937927 0
M  V30 3876 O 363.758 1.47754 -1.2072 0
M  V30 3877 C 360.898 2.35676 -2.52093 0
M  V30 3878 C 360.011 2.10423 -3.77288 0
M  V30 3879 C 359.146 3.34327 -4.12794 0
M  V30 3880 C 358.185 3.04542 -5.30962 0
M  V30 3881 N 357.322 4.20841 -5.61994 0
M  V30 3882 H 362.162 0.640885 -2.91027 0
M  V30 3883 H 359.699 0.304854 -1.43906 0
M  V30 3884 H 361.657 3.11709 -2.77297 0
M  V30 3885 H 360.287 2.7485 -1.69285 0
M  V30 3886 H 359.339 1.24976 -3.59284 0
M  V30 3887 H 360.651 1.84438 -4.63448 0
M  V30 3888 H 359.805 4.1874 -4.39024 0
M  V30 3889 H 358.544 3.63408 -3.25247 0
M  V30 3890 H 357.549 2.18528 -5.04505 0
M  V30 3891 H 358.774 2.76758 -6.20146 0
M  V30 3892 H 356.72 4.4991 -4.77406 0
M  V30 3893 H 356.637 3.98212 -6.42622 0
M  V30 3894 H 357.905 5.06184 -5.92789 0
M  V30 3895 N 362.134 1.5431 0.320358 0
M  V30 3896 C 363.359 1.76954 1.08175 0
M  V30 3897 C 363.784 0.518193 1.80821 0
M  V30 3898 O 363.142 -0.530411 1.73368 0
M  V30 3899 C 363.19 2.96451 2.05303 0
M  V30 3900 O 362.294 2.68221 3.13259 0
M  V30 3901 H 361.635 0.586275 0.311733 0
M  V30 3902 H 364.165 2.01342 0.363676 0
M  V30 3903 H 364.175 3.23887 2.48116 0
M  V30 3904 H 362.85 3.87196 1.51829 0
M  V30 3905 H 361.427 2.51744 2.75099 0
M  V30 3906 N 363.613 -0.582584 1.46437 0
M  V30 3907 C 364.576 -1.67366 1.56592 0
M  V30 3908 C 365.576 -1.54575 0.443072 0
M  V30 3909 O 366.766 -1.59191 0.707381 0
M  V30 3910 C 363.898 -3.06791 1.48634 0
M  V30 3911 H 365.091 -1.5972 2.5383 0
M  V30 3912 H 362.644 -0.800432 1.34249 0
M  V30 3913 H 363.379 -3.19993 0.526763 0
M  V30 3914 H 363.164 -3.17484 2.30101 0
M  V30 3915 H 364.654 -3.86218 1.58826 0
M  V30 3916 N 365.091 -1.34144 -0.827227 0
M  V30 3917 C 366.024 -1.19707 -1.94282 0
M  V30 3918 C 367.002 -0.0897256 -1.62352 0
M  V30 3919 O 368.186 -0.254095 -1.8678 0
M  V30 3920 C 365.313 -0.838646 -3.28153 0
M  V30 3921 C 364.359 -1.95514 -3.79047 0
M  V30 3922 S 365.192 -3.56793 -3.99323 0
M  V30 3923 C 366.348 -3.22983 -5.36127 0
M  V30 3924 H 366.581 -2.1414 -2.06231 0
M  V30 3925 H 364.114 -1.19121 -0.982321 0
M  V30 3926 H 366.072 -0.638637 -4.05502 0
M  V30 3927 H 364.733 0.0872776 -3.13979 0
M  V30 3928 H 363.926 -1.658 -4.75948 0
M  V30 3929 H 363.528 -2.11241 -3.08631 0
M  V30 3930 H 365.82 -2.74531 -6.19386 0
M  V30 3931 H 366.763 -4.19008 -5.70822 0
M  V30 3932 H 367.171 -2.59276 -5.01434 0
M  V30 3933 O 366.608 0.965494 -1.29462 0
M  V30 3934 H 367.299 1.59208 -1.10329 0
M  V30 END ATOM
M  V30 BEGIN BOND
M  V30 END BOND
M  V30 END CTAB
M  END
$$$$
