drugbank_target|Q07955 Serine/arginine-rich splicing factor 1 (DB09130)
 OpenBabel12092121093D

  0  0  0     0  0            999 V3000
M  V30 BEGIN CTAB
M  V30 COUNTS 3842 3885 0 0 0
M  V30 BEGIN ATOM
M  V30 1 H -0.908 1.98254 -0.117106 0
M  V30 2 N 0 1.576 0 0
M  V30 3 C 0.933 2.03868 1.02534 0
M  V30 4 C 1.911 0.928543 1.3348 0
M  V30 5 O 3.095 1.19667 1.45644 0
M  V30 6 C 0.222 2.43627 2.35294 0
M  V30 7 C -0.732 3.65373 2.2001 0
M  V30 8 S 0.101 5.13292 1.52614 0
M  V30 9 C 1.257 5.56322 2.86805 0
M  V30 10 H 1.49 2.90518 0.631377 0
M  V30 11 H -0.977 1.52953 0.210867 0
M  V30 12 H 0.981 2.67203 3.11629 0
M  V30 13 H -0.358 1.57376 2.7183 0
M  V30 14 H -1.165 3.90944 3.18086 0
M  V30 15 H -1.563 3.418 1.51819 0
M  V30 16 H 0.729 5.58782 3.83104 0
M  V30 17 H 1.672 6.56266 2.65933 0
M  V30 18 H 2.08 4.83886 2.90714 0
M  V30 19 N 1.4781 -0.272755 1.55222 0
M  V30 20 C 2.7031 -1.02683 1.80197 0
M  V30 21 C 3.1281 -1.79142 0.573551 0
M  V30 22 O 2.4861 -1.74917 -0.476849 0
M  V30 23 C 2.5341 -1.9609 3.02624 0
M  V30 24 O 1.6381 -3.04863 2.77727 0
M  V30 25 H 0.9791 -0.293557 0.595584 0
M  V30 26 H 3.5091 -0.30159 2.02365 0
M  V30 27 H 3.5191 -2.38039 3.31363 0
M  V30 28 H 2.1941 -1.39851 3.91682 0
M  V30 29 H 0.7711 -2.67228 2.60084 0
M  V30 30 N 2.9562 -1.48159 -0.537278 0
M  V30 31 C 4.2042 -1.55497 -1.29094 0
M  V30 32 C 4.5252 -0.227454 -1.93669 0
M  V30 33 O 3.7952 0.750386 -1.80959 0
M  V30 34 H 2.3752 -0.572832 -0.47945 0
M  V30 35 H 5.0372 -1.84579 -0.625818 0
M  V30 36 H 4.1332 -2.33216 -2.07405 0
M  V30 37 N 4.4343 0.785586 -1.36625 0
M  V30 38 C 5.6823 1.54057 -1.30808 0
M  V30 39 C 6.0033 1.94683 0.111157 0
M  V30 40 O 5.2733 1.65241 1.05224 0
M  V30 41 H 3.8533 0.571354 -0.481211 0
M  V30 42 H 6.5153 0.935821 -1.70963 0
M  V30 43 H 5.6113 2.44637 -1.93801 0
M  V30 44 N 5.9124 1.20967 1.01018 0
M  V30 45 C 7.1604 1.02172 1.74371 0
M  V30 46 C 7.4814 -0.446414 1.89821 0
M  V30 47 O 6.7514 -1.32234 1.44537 0
M  V30 48 H 5.3314 0.375066 0.646014 0
M  V30 49 H 7.9934 1.52187 1.21758 0
M  V30 50 H 7.0894 1.48538 2.74487 0
M  V30 51 N 7.3905 -1.2043 1.01659 0
M  V30 52 C 8.6365 -1.90079 0.706963 0
M  V30 53 C 8.9695 -1.78648 -0.761474 0
M  V30 54 O 8.2445 -1.17069 -1.55323 0
M  V30 55 C 8.5275 -3.41469 1.14327 0
M  V30 56 C 8.3805 -3.61833 2.67201 0
M  V30 57 C 9.6995 -4.34261 0.714529 0
M  V30 58 H 6.8185 -0.690254 0.2583 0
M  V30 59 H 9.4605 -1.41826 1.26433 0
M  V30 60 H 7.6105 -3.82696 0.669056 0
M  V30 61 H 9.2825 -3.2986 3.22475 0
M  V30 62 H 7.5255 -3.05304 3.08175 0
M  V30 63 H 8.1965 -4.67955 2.92783 0
M  V30 64 H 10.6725 -4.00682 1.12221 0
M  V30 65 H 9.5485 -5.38806 1.04784 0
M  V30 66 H 9.8095 -4.40431 -0.383799 0
M  V30 67 N 8.8686 -0.792821 -1.36206 0
M  V30 68 C 10.1176 -0.363353 -1.984 0
M  V30 69 C 10.4306 1.07172 -1.63626 0
M  V30 70 O 11.6366 1.60362 -2.19081 0
M  V30 71 C 10.0926 -0.59872 -3.54885 0
M  V30 72 C 9.7006 -2.04543 -3.9858 0
M  V30 73 C 11.4446 -0.233926 -4.23855 0
M  V30 74 C 9.3516 -2.22727 -5.47856 0
M  V30 75 H 8.2816 -0.13212 -0.742334 0
M  V30 76 H 10.9326 -0.974935 -1.55458 0
M  V30 77 H 9.3146 0.0826222 -3.95914 0
M  V30 78 H 10.4886 -2.76345 -3.68741 0
M  V30 79 H 8.8036 -2.36879 -3.42458 0
M  V30 80 H 11.4006 -0.348027 -5.33566 0
M  V30 81 H 11.7436 0.818351 -4.08177 0
M  V30 82 H 12.2766 -0.868639 -3.882 0
M  V30 83 H 9.0156 -3.2635 -5.68486 0
M  V30 84 H 8.5356 -1.55434 -5.7931 0
M  V30 85 H 10.2146 -2.03607 -6.14128 0
M  V30 86 N 10.3467 1.47872 -0.545128 0
M  V30 87 C 11.7627 1.5829 -0.204032 0
M  V30 88 C 11.9627 1.54529 1.29317 0
M  V30 89 O 11.0187 1.44232 2.07252 0
M  V30 90 C 12.3317 2.89304 -0.819987 0
M  V30 91 C 13.8797 3.02864 -0.790105 0
M  V30 92 C 14.3547 4.3656 -1.38491 0
M  V30 93 N 15.8457 4.43165 -1.34755 0
M  V30 94 C 16.5807 5.45153 -1.77753 0
M  V30 95 N 16.0767 6.54016 -2.2855 0
M  V30 96 N 17.8697 5.36125 -1.68897 0
M  V30 97 H 10.0207 1.4856 -1.51802 0
M  V30 98 H 12.2837 0.706305 -0.632327 0
M  V30 99 H 11.9897 2.97757 -1.87173 0
M  V30 100 H 11.8637 3.75957 -0.305915 0
M  V30 101 H 14.2507 2.94014 0.252913 0
M  V30 102 H 14.3317 2.17782 -1.34181 0
M  V30 103 H 13.9757 4.46164 -2.42693 0
M  V30 104 H 13.9057 5.20353 -0.808754 0
M  V30 105 H 16.3967 3.65083 -0.975855 0
M  V30 106 H 16.7097 7.27994 -2.59314 0
M  V30 107 H 15.0547 6.54938 -2.32553 0
M  V30 108 H 18.2457 4.49975 -1.28998 0
M  V30 109 H 18.4187 6.15472 -2.02726 0
M  V30 110 N 11.8248 0.280983 1.55075 0
M  V30 111 C 13.0728 -0.333455 1.9933 0
M  V30 112 C 13.3938 -1.55937 1.17085 0
M  V30 113 O 12.6638 -1.94143 0.261805 0
M  V30 114 H 11.2438 -0.126197 0.736263 0
M  V30 115 H 13.9058 0.387678 1.91005 0
M  V30 116 H 13.0018 -0.619292 3.05894 0
M  V30 117 N 13.3029 -1.57598 0.00835791 0
M  V30 118 C 14.7139 -1.7892 -0.53333 0
M  V30 119 C 15.0649 -0.916609 -1.73473 0
M  V30 120 O 14.1899 -0.121336 -2.1606 0
M  V30 121 C 14.7849 -3.24488 -0.974313 0
M  V30 122 C 13.3439 -3.46878 -1.46125 0
M  V30 123 C 12.4909 -2.74157 -0.416302 0
M  V30 124 H 15.4419 -1.56958 0.234495 0
M  V30 125 H 15.4629 -3.3306 -1.83988 0
M  V30 126 H 14.9749 -3.87972 -0.099718 0
M  V30 127 H 13.0759 -2.8862 -2.35646 0
M  V30 128 H 13.1889 -4.55572 -1.48295 0
M  V30 129 H 11.5529 -2.39022 -0.87981 0
M  V30 130 H 12.3359 -3.40345 0.44947 0
M  V30 131 N 14.781 0.264519 -1.55364 0
M  V30 132 C 15.744 1.31046 -1.88042 0
M  V30 133 C 16.744 1.41943 -0.755569 0
M  V30 134 O 17.934 1.40947 -1.02369 0
M  V30 135 C 15.066 2.69067 -2.09323 0
M  V30 136 H 16.259 1.03297 -2.81549 0
M  V30 137 H 13.812 0.502989 -1.47986 0
M  V30 138 H 14.547 3.01982 -1.18226 0
M  V30 139 H 14.332 2.62542 -2.91229 0
M  V30 140 H 15.822 3.44623 -2.35848 0
M  V30 141 N 16.2591 1.48442 0.529413 0
M  V30 142 C 17.5071 1.56179 1.28267 0
M  V30 143 C 17.8281 0.237721 1.93546 0
M  V30 144 O 17.0981 -0.740779 1.81354 0
M  V30 145 H 15.6781 0.575367 0.476405 0
M  V30 146 H 18.3401 1.84909 0.61602 0
M  V30 147 H 17.4361 2.34312 2.06165 0
M  V30 148 N 17.7372 -0.778329 1.37039 0
M  V30 149 C 18.6852 -1.91278 1.32345 0
M  V30 150 C 19.6792 -1.68051 0.213331 0
M  V30 151 O 20.8852 -1.75922 0.38098 0
M  V30 152 H 17.2602 -0.628909 0.412283 0
M  V30 153 H 19.2312 -1.92355 2.28127 0
M  V30 154 C 17.9802 -3.28455 1.14073 0
M  V30 155 H 17.3032 -3.46901 1.98746 0
M  V30 156 H 18.7432 -4.08152 1.14837 0
M  V30 157 C 17.2022 -3.36548 -0.154015 0
M  V30 158 O 17.7322 -3.85186 -1.13993 0
M  V30 159 N 15.9382 -2.89894 -0.202475 0
M  V30 160 H 15.4852 -2.50504 0.600476 0
M  V30 161 H 15.4432 -2.9569 -1.06841 0
M  V30 162 N 19.2153 -1.21501 -1.00376 0
M  V30 163 C 20.1633 -0.972442 -2.11297 0
M  V30 164 C 21.1573 0.080731 -1.69208 0
M  V30 165 O 22.3633 -0.0707666 -1.79861 0
M  V30 166 H 18.7383 -0.297218 -0.690772 0
M  V30 167 H 20.7093 -1.91394 -2.28934 0
M  V30 168 C 19.4583 -0.555065 -3.43241 0
M  V30 169 H 18.7813 -1.35709 -3.76062 0
M  V30 170 H 20.2213 -0.424664 -4.21868 0
M  V30 171 C 18.6803 0.734147 -3.28804 0
M  V30 172 O 19.2103 1.78937 -3.59645 0
M  V30 173 N 17.4163 0.701133 -2.82015 0
M  V30 174 H 16.9633 -0.157874 -2.57116 0
M  V30 175 H 16.9213 1.56403 -2.72737 0
M  V30 176 N 20.6934 1.19889 -1.02296 0
M  V30 177 C 21.9704 1.85148 -0.630832 0
M  V30 178 C 22.3504 1.91385 0.890782 0
M  V30 179 O 21.6984 1.42642 1.78509 0
M  V30 180 C 21.9084 3.24442 -1.28602 0
M  V30 181 C 23.2564 4.00663 -1.4055 0
M  V30 182 O 24.2804 3.33818 -1.24273 0
M  V30 183 O 23.1394 5.20387 -1.66913 0
M  V30 184 H 20.2334 0.797613 -0.218499 0
M  V30 185 H 22.7794 1.27427 -1.12074 0
M  V30 186 H 21.5514 3.14704 -2.32545 0
M  V30 187 H 21.1744 3.89802 -0.7836 0
M  V30 188 N 22.1715 0.800033 1.35784 0
M  V30 189 C 23.4115 0.382891 2.00782 0
M  V30 190 C 23.7755 -1.02891 1.62103 0
M  V30 191 O 24.9765 -1.54771 2.19771 0
M  V30 192 C 23.2475 0.553299 3.53091 0
M  V30 193 S 24.8065 0.225608 4.3822 0
M  V30 194 H 21.6245 0.145737 0.695904 0
M  V30 195 H 24.2265 1.04085 1.65489 0
M  V30 196 H 22.9305 1.58091 3.78729 0
M  V30 197 H 22.4615 -0.120214 3.93216 0
M  V30 198 H 24.4765 -0.969074 4.86645 0
M  V30 199 N 23.6496 -1.47581 0.552962 0
M  V30 200 C 25.0656 -1.5818 0.212424 0
M  V30 201 C 25.2656 -1.55213 -1.28496 0
M  V30 202 O 24.3216 -1.45329 -2.06484 0
M  V30 203 C 25.6346 -2.88865 0.835318 0
M  V30 204 C 27.1826 -3.0244 0.806156 0
M  V30 205 C 27.6576 -4.35819 1.40804 0
M  V30 206 N 29.1486 -4.42444 1.37103 0
M  V30 207 C 29.8836 -5.44202 1.80641 0
M  V30 208 N 29.3796 -6.52795 2.32015 0
M  V30 209 N 31.1726 -5.35222 1.71738 0
M  V30 210 H 23.3236 -1.47753 1.52587 0
M  V30 211 H 25.5866 -0.702941 0.636064 0
M  V30 212 H 25.2926 -2.9676 1.88749 0
M  V30 213 H 25.1666 -3.7579 0.325848 0
M  V30 214 H 27.5536 -2.94144 -0.237317 0
M  V30 215 H 27.6346 -2.17068 1.35334 0
M  V30 216 H 27.2786 -4.44871 2.45056 0
M  V30 217 H 27.2086 -5.19916 0.836338 0
M  V30 218 H 29.6996 -3.6456 0.995202 0
M  V30 219 H 30.0126 -7.26609 2.63171 0
M  V30 220 H 28.3576 -6.53696 2.36023 0
M  V30 221 H 31.5486 -4.49284 1.31382 0
M  V30 222 H 31.7216 -6.14389 2.05987 0
M  V30 223 N 25.1277 -0.289203 -1.54924 0
M  V30 224 C 26.3767 0.324231 -1.99077 0
M  V30 225 C 26.6897 1.5591 -1.18117 0
M  V30 226 O 27.8957 2.24637 -1.52481 0
M  V30 227 C 26.3517 0.628209 -3.54375 0
M  V30 228 C 25.9597 -0.587647 -4.44129 0
M  V30 229 C 27.7037 1.20349 -4.07083 0
M  V30 230 C 25.6107 -0.257475 -5.90839 0
M  V30 231 H 24.5407 0.124924 -0.743579 0
M  V30 232 H 27.1917 -0.396063 -1.79175 0
M  V30 233 H 25.5737 1.40778 -3.70132 0
M  V30 234 H 26.7477 -1.36418 -4.40144 0
M  V30 235 H 25.0627 -1.08074 -4.0213 0
M  V30 236 H 27.6597 1.46456 -5.14252 0
M  V30 237 H 28.0027 2.14195 -3.56968 0
M  V30 238 H 28.5357 0.485889 -3.94821 0
M  V30 239 H 25.2747 -1.16419 -6.45079 0
M  V30 240 H 24.7947 0.482018 -5.9786 0
M  V30 241 H 26.4737 0.145238 -6.46837 0
M  V30 242 N 26.6058 1.57591 -0.0167156 0
M  V30 243 C 27.8358 1.95292 0.674149 0
M  V30 244 C 28.2438 0.891097 1.66901 0
M  V30 245 O 27.5868 -0.136908 1.83189 0
M  V30 246 C 27.6488 3.29072 1.44747 0
M  V30 247 C 27.3128 4.52879 0.612331 0
M  V30 248 C 28.3098 5.1979 -0.107126 0
M  V30 249 C 25.9948 4.99242 0.553381 0
M  V30 250 C 27.9888 6.31375 -0.874339 0
M  V30 251 C 25.6758 6.10713 -0.217546 0
M  V30 252 C 26.6738 6.76637 -0.930123 0
M  V30 253 O 26.3618 7.85969 -1.68844 0
M  V30 254 H 26.0938 0.648275 0.191615 0
M  V30 255 H 28.6478 2.05284 -0.0690148 0
M  V30 256 H 26.8778 3.15535 2.2355 0
M  V30 257 H 28.5668 3.51764 2.02526 0
M  V30 258 H 29.3328 4.84948 -0.0708392 0
M  V30 259 H 25.2118 4.47744 1.09757 0
M  V30 260 H 28.7558 6.82764 -1.43106 0
M  V30 261 H 24.6528 6.44994 -0.255593 0
M  V30 262 H 25.4208 8.02571 -1.6069 0
M  V30 263 N 28.0839 -0.256276 1.55502 0
M  V30 264 C 29.3299 -0.987079 1.77157 0
M  V30 265 C 29.6629 -1.85327 0.580315 0
M  V30 266 O 28.9379 -1.89874 -0.421686 0
M  V30 267 C 29.2209 -1.85553 3.08613 0
M  V30 268 C 29.0739 -1.01816 4.38125 0
M  V30 269 C 30.3929 -2.8397 3.36228 0
M  V30 270 H 27.5119 -0.357428 0.644526 0
M  V30 271 H 30.1539 -0.258239 1.88237 0
M  V30 272 H 28.3039 -2.47695 2.99298 0
M  V30 273 H 29.9759 -0.416159 4.59419 0
M  V30 274 H 28.2189 -0.322178 4.32602 0
M  V30 275 H 28.8899 -1.65939 5.26468 0
M  V30 276 H 31.3659 -2.31964 3.45445 0
M  V30 277 H 30.2419 -3.41864 4.29442 0
M  V30 278 H 30.5029 -3.59955 2.56681 0
M  V30 279 N 29.562 -1.4872 -0.521534 0
M  V30 280 C 30.81 -1.56857 -1.27437 0
M  V30 281 C 31.131 -0.247982 -1.93417 0
M  V30 282 O 30.401 0.731151 -1.81744 0
M  V30 283 H 28.981 -0.577885 -0.473347 0
M  V30 284 H 31.643 -1.85233 -0.606205 0
M  V30 285 H 30.739 -2.35402 -2.0492 0
M  V30 286 N 31.0401 0.771051 -1.3745 0
M  V30 287 C 31.9881 1.90574 -1.33358 0
M  V30 288 C 32.9821 1.67936 -0.22224 0
M  V30 289 O 34.1881 1.75717 -0.390304 0
M  V30 290 H 30.5631 0.626714 -0.415612 0
M  V30 291 H 32.5341 1.91142 -2.29144 0
M  V30 292 C 31.2831 3.27845 -1.15813 0
M  V30 293 H 30.6061 3.45842 -2.00583 0
M  V30 294 H 32.0461 4.07538 -1.17 0
M  V30 295 C 30.5051 3.36625 0.136165 0
M  V30 296 O 31.0351 3.85785 1.11949 0
M  V30 297 N 29.2411 2.89997 0.187099 0
M  V30 298 H 28.7881 2.50182 -0.613753 0
M  V30 299 H 28.7461 2.96252 1.05272 0
M  V30 300 N 32.5182 1.22032 0.997298 0
M  V30 301 C 33.4482 1.01065 2.10495 0
M  V30 302 C 34.4292 -0.0669542 1.69968 0
M  V30 303 O 35.6142 0.0943987 1.9397 0
M  V30 304 C 32.7442 0.582874 3.42374 0
M  V30 305 C 31.6982 1.60592 3.96729 0
M  V30 306 C 31.0242 1.03412 5.24605 0
M  V30 307 C 32.3242 2.99478 4.27914 0
M  V30 308 H 34.0182 1.93708 2.28292 0
M  V30 309 H 31.5642 0.932761 1.09707 0
M  V30 310 H 33.5172 0.423332 4.19268 0
M  V30 311 H 32.2412 -0.379213 3.24391 0
M  V30 312 H 30.9002 1.75316 3.21963 0
M  V30 313 H 30.5482 0.063518 5.0296 0
M  V30 314 H 30.2482 1.71754 5.61938 0
M  V30 315 H 31.7722 0.886066 6.04137 0
M  V30 316 H 33.1862 2.88153 4.95622 0
M  V30 317 H 31.5832 3.64903 4.76409 0
M  V30 318 H 32.6532 3.49742 3.3587 0
M  V30 319 N 33.9963 -1.19345 1.0293 0
M  V30 320 C 35.4073 -1.70725 0.755633 0
M  V30 321 C 35.7583 -1.82326 -0.724676 0
M  V30 322 O 34.8833 -1.49471 -1.56484 0
M  V30 323 C 35.4783 -3.10084 1.36503 0
M  V30 324 C 34.0373 -3.58723 1.13994 0
M  V30 325 C 33.1843 -2.35577 1.46283 0
M  V30 326 H 36.1353 -1.0418 1.19718 0
M  V30 327 H 36.1563 -3.72787 0.762217 0
M  V30 328 H 35.6683 -3.01609 2.44241 0
M  V30 329 H 33.7693 -3.72512 0.0807901 0
M  V30 330 H 33.8823 -4.42816 1.82894 0
M  V30 331 H 32.2463 -2.38935 0.88217 0
M  V30 332 H 33.0293 -2.29731 2.55105 0
M  V30 333 N 35.4744 -0.807222 -1.35358 0
M  V30 334 C 36.8854 -0.44876 -1.81226 0
M  V30 335 C 37.2364 1.02929 -1.67033 0
M  V30 336 O 36.3614 1.79991 -1.20133 0
M  V30 337 C 36.9564 -0.807774 -3.2903 0
M  V30 338 C 35.5154 -0.501901 -3.73039 0
M  V30 339 C 34.6624 -1.03304 -2.57339 0
M  V30 340 H 37.6134 -0.998808 -1.23327 0
M  V30 341 H 37.6344 -0.10554 -3.80354 0
M  V30 342 H 37.1464 -1.88357 -3.39328 0
M  V30 343 H 35.2474 0.565128 -3.68289 0
M  V30 344 H 35.3604 -1.03497 -4.67787 0
M  V30 345 H 33.7244 -0.455339 -2.50597 0
M  V30 346 H 34.5074 -2.11496 -2.70415 0
M  V30 347 N 36.9525 1.47285 -0.560781 0
M  V30 348 C 38.2295 1.9558 0.0277798 0
M  V30 349 C 38.6095 1.5034 1.48192 0
M  V30 350 O 37.9575 0.743882 2.16052 0
M  V30 351 C 38.1675 3.48789 -0.121418 0
M  V30 352 C 39.5155 4.24594 0.0220912 0
M  V30 353 O 40.5395 3.56166 -0.0491439 0
M  V30 354 O 39.3985 5.46217 0.175958 0
M  V30 355 H 36.4925 0.824663 0.0621342 0
M  V30 356 H 39.0385 1.5767 -0.627556 0
M  V30 357 H 37.8105 3.74533 -1.13316 0
M  V30 358 H 37.4335 3.93473 0.571366 0
M  V30 359 N 38.4306 0.297415 1.54768 0
M  V30 360 C 39.6796 -0.313669 1.99246 0
M  V30 361 C 39.9926 -1.55281 1.18942 0
M  V30 362 O 41.1986 -2.23825 1.5367 0
M  V30 363 C 39.6546 -0.609407 3.54703 0
M  V30 364 C 39.2626 0.611192 4.43811 0
M  V30 365 C 41.0066 -1.18188 4.07715 0
M  V30 366 C 38.9136 0.288805 5.90694 0
M  V30 367 H 37.8436 -0.120979 0.744231 0
M  V30 368 H 40.4946 0.40556 1.78962 0
M  V30 369 H 38.8766 -1.38813 3.70873 0
M  V30 370 H 40.0506 1.3875 4.39414 0
M  V30 371 H 38.3656 1.10205 4.01552 0
M  V30 372 H 40.9626 -1.43727 5.15021 0
M  V30 373 H 41.3056 -2.12299 3.58099 0
M  V30 374 H 41.8386 -0.464944 3.95074 0
M  V30 375 H 38.5776 1.19838 6.44453 0
M  V30 376 H 38.0976 -0.450305 5.98107 0
M  V30 377 H 39.7766 -0.110933 6.46905 0
M  V30 378 N 39.9087 -1.5758 0.0250728 0
M  V30 379 C 41.3247 -1.56124 -0.331282 0
M  V30 380 C 41.5247 -1.03029 -1.73169 0
M  V30 381 O 40.5807 -0.675215 -2.43305 0
M  V30 382 C 41.8937 -3.00139 -0.183584 0
M  V30 383 C 43.4417 -3.11946 -0.256654 0
M  V30 384 C 43.9167 -4.57793 -0.137792 0
M  V30 385 N 45.4077 -4.6279 -0.194904 0
M  V30 386 C 46.1427 -5.7326 -0.126655 0
M  V30 387 N 45.6387 -6.928 -0.00755288 0
M  V30 388 N 47.4317 -5.61811 -0.180348 0
M  V30 389 H 39.5827 -1.90424 0.94087 0
M  V30 390 H 41.8457 -0.875761 0.362968 0
M  V30 391 H 41.5517 -3.4292 0.780927 0
M  V30 392 H 41.4257 -3.64899 -0.955448 0
M  V30 393 H 43.8127 -2.69079 -1.21162 0
M  V30 394 H 43.8937 -2.49915 0.545517 0
M  V30 395 H 43.5377 -5.01339 0.813739 0
M  V30 396 H 43.4677 -5.17798 -0.958775 0
M  V30 397 H 45.9587 -3.76807 -0.287267 0
M  V30 398 H 46.2717 -7.72791 0.0379428 0
M  V30 399 H 44.6167 -6.94995 0.0271731 0
M  V30 400 H 47.8077 -4.6731 -0.271767 0
M  V30 401 H 47.9807 -6.47882 -0.123697 0
M  V30 402 N 41.3868 0.248026 -1.55636 0
M  V30 403 C 42.6148 0.993808 -1.81469 0
M  V30 404 C 43.0298 1.78991 -0.60064 0
M  V30 405 O 42.3868 1.77345 0.430682 0
M  V30 406 C 42.4378 1.93258 -3.05506 0
M  V30 407 O 42.1588 1.16869 -4.22224 0
M  V30 408 C 43.6598 2.79444 -3.4413 0
M  V30 409 H 40.8798 0.292486 -0.603898 0
M  V30 410 H 43.4238 0.271253 -2.02693 0
M  V30 411 H 41.5788 2.60943 -2.86335 0
M  V30 412 H 41.9928 1.80359 -4.92515 0
M  V30 413 H 43.4668 3.41066 -4.34026 0
M  V30 414 H 43.9438 3.50499 -2.64665 0
M  V30 415 H 44.5498 2.17214 -3.65648 0
M  V30 416 N 42.8649 1.48995 0.513639 0
M  V30 417 C 43.8119 1.6473 1.61656 0
M  V30 418 C 44.7819 0.488984 1.58739 0
M  V30 419 O 45.9669 0.714478 1.76918 0
M  V30 420 C 43.1069 1.7082 2.99858 0
M  V30 421 C 42.2199 2.9787 3.12885 0
M  V30 422 C 41.3549 2.95017 4.41744 0
M  V30 423 C 40.3939 4.16702 4.48359 0
M  V30 424 N 39.5309 4.11832 5.68629 0
M  V30 425 H 44.3709 2.58909 1.47547 0
M  V30 426 H 41.9079 1.28382 0.71808 0
M  V30 427 H 43.8659 1.72331 3.79944 0
M  V30 428 H 42.4959 0.801181 3.12699 0
M  V30 429 H 41.5479 3.06029 2.25944 0
M  V30 430 H 42.8599 3.8786 3.13633 0
M  V30 431 H 42.0139 2.95021 5.30139 0
M  V30 432 H 40.7529 2.02784 4.43542 0
M  V30 433 H 39.7579 4.16955 3.58369 0
M  V30 434 H 40.9829 5.10113 4.48287 0
M  V30 435 H 38.9289 3.22428 5.71293 0
M  V30 436 H 38.8459 4.95543 5.7094 0
M  V30 437 H 40.1139 4.1592 6.59266 0
M  V30 438 N 44.343 -0.763751 1.37857 0
M  V30 439 C 45.62 -1.51244 1.24035 0
M  V30 440 C 46 -2.10472 -0.162649 0
M  V30 441 O 45.348 -1.96206 -1.17112 0
M  V30 442 C 45.558 -2.58694 2.34261 0
M  V30 443 C 46.906 -3.25878 2.72193 0
M  V30 444 O 47.93 -2.68993 2.33497 0
M  V30 445 O 46.789 -4.2874 3.38887 0
M  V30 446 H 43.883 -0.670243 0.484462 0
M  V30 447 H 46.429 -0.800031 1.49658 0
M  V30 448 H 45.201 -2.13105 3.2818 0
M  V30 449 H 44.824 -3.37527 2.10146 0
M  V30 450 N 45.8211 -1.22559 -0.990812 0
M  V30 451 C 47.0701 -1.04553 -1.72486 0
M  V30 452 C 47.3831 0.419349 -1.91052 0
M  V30 453 O 48.5891 0.719121 -2.61803 0
M  V30 454 C 47.0451 -1.82231 -3.10355 0
M  V30 455 C 46.6531 -3.32981 -2.99713 0
M  V30 456 C 48.3971 -1.7268 -3.87791 0
M  V30 457 C 46.3041 -4.03091 -4.32748 0
M  V30 458 H 45.2341 -0.387614 -0.646739 0
M  V30 459 H 47.8851 -1.46429 -1.10593 0
M  V30 460 H 46.2671 -1.33155 -3.72942 0
M  V30 461 H 47.4411 -3.89466 -2.46278 0
M  V30 462 H 45.7561 -3.43231 -2.35758 0
M  V30 463 H 48.3531 -2.22381 -4.86262 0
M  V30 464 H 48.6961 -0.687607 -4.10582 0
M  V30 465 H 49.2291 -2.1931 -3.31885 0
M  V30 466 H 45.9681 -5.07273 -4.15156 0
M  V30 467 H 45.4881 -3.51394 -4.86089 0
M  V30 468 H 47.1671 -4.08804 -5.01486 0
M  V30 469 N 47.2992 1.18797 -1.03562 0
M  V30 470 C 48.2092 2.25913 -0.632505 0
M  V30 471 C 49.2252 1.70668 0.338882 0
M  V30 472 O 50.4012 2.00453 0.195076 0
M  V30 473 C 47.4662 3.467 0.00350942 0
M  V30 474 C 46.5272 4.17098 -1.01624 0
M  V30 475 C 45.7602 5.32119 -0.410478 0
M  V30 476 O 45.9832 5.64976 0.784725 0
M  V30 477 O 44.9172 5.9107 -1.13667 0
M  V30 478 H 48.7432 2.62648 -1.52478 0
M  V30 479 H 46.3282 1.25781 -0.806195 0
M  V30 480 H 48.2102 4.19878 0.35781 0
M  V30 481 H 46.8852 3.11798 0.869686 0
M  V30 482 H 45.7922 3.4601 -1.42224 0
M  V30 483 H 47.1252 4.55987 -1.85301 0
M  V30 484 N 48.7773 0.814389 1.34928 0
M  V30 485 C 50.0543 0.321363 1.92942 0
M  V30 486 C 50.4343 -1.19014 1.74353 0
M  V30 487 O 49.7823 -1.99328 1.11716 0
M  V30 488 C 49.9923 0.741323 3.41036 0
M  V30 489 C 51.3403 0.735266 4.18185 0
M  V30 490 O 52.3643 0.68336 3.49584 0
M  V30 491 O 51.2233 0.800703 5.40602 0
M  V30 492 H 48.3173 0.0858893 0.822528 0
M  V30 493 H 50.8633 0.898609 1.43955 0
M  V30 494 H 49.6353 1.78276 3.4833 0
M  V30 495 H 49.2583 0.139307 3.97356 0
M  V30 496 N 50.2554 -1.46986 0.568584 0
M  V30 497 C 51.5014 -2.02741 0.0488709 0
M  V30 498 C 51.8344 -1.44077 -1.30214 0
M  V30 499 O 51.1094 -0.600552 -1.84996 0
M  V30 500 C 51.3924 -3.60086 -0.032047 0
M  V30 501 C 51.2454 -4.29162 1.34686 0
M  V30 502 C 52.5644 -4.33838 -0.739798 0
M  V30 503 H 49.6834 -0.736749 0.0192338 0
M  V30 504 H 52.3254 -1.75289 0.733065 0
M  V30 505 H 50.4754 -3.83606 -0.61473 0
M  V30 506 H 52.1474 -4.16948 1.97362 0
M  V30 507 H 50.3904 -3.89073 1.91846 0
M  V30 508 H 51.0614 -5.37826 1.24285 0
M  V30 509 H 53.5374 -4.15378 -0.244939 0
M  V30 510 H 52.4134 -5.43537 -0.765406 0
M  V30 511 H 52.6744 -4.03875 -1.79827 0
M  V30 512 N 51.7335 -0.305618 -1.54608 0
M  V30 513 C 52.9805 0.302298 -2.00231 0
M  V30 514 C 53.3085 1.5354 -1.19398 0
M  V30 515 O 52.5635 1.93973 -0.259423 0
M  V30 516 C 52.8625 0.698983 -3.50498 0
M  V30 517 C 52.5285 -0.432903 -4.48817 0
M  V30 518 C 51.1905 -0.743622 -4.75419 0
M  V30 519 C 53.5425 -1.19409 -5.07337 0
M  V30 520 C 50.8705 -1.81857 -5.57804 0
M  V30 521 C 53.2225 -2.25899 -5.90891 0
M  V30 522 C 51.8865 -2.57572 -6.15803 0
M  V30 523 H 51.1565 0.110619 -0.732697 0
M  V30 524 H 53.8035 -0.425674 -1.86709 0
M  V30 525 H 52.1085 1.50711 -3.61654 0
M  V30 526 H 53.8055 1.1806 -3.83227 0
M  V30 527 H 50.3955 -0.18063 -4.28219 0
M  V30 528 H 54.5795 -0.967295 -4.86782 0
M  V30 529 H 49.8355 -2.06864 -5.75341 0
M  V30 530 H 54.0095 -2.85335 -6.35261 0
M  V30 531 H 51.6365 -3.40998 -6.7943 0
M  V30 532 N 53.2116 1.57565 -0.0334293 0
M  V30 533 C 54.4416 1.95996 0.653398 0
M  V30 534 C 54.8496 0.908749 1.65947 0
M  V30 535 O 54.1926 -0.117471 1.83324 0
M  V30 536 C 54.2546 3.30589 1.41249 0
M  V30 537 C 53.9186 4.53503 0.564263 0
M  V30 538 C 54.9156 5.19647 -0.16225 0
M  V30 539 C 52.6006 4.99801 0.500398 0
M  V30 540 C 54.5946 6.30412 -0.941255 0
M  V30 541 C 52.2816 6.10448 -0.282308 0
M  V30 542 C 53.2796 6.75612 -1.00184 0
M  V30 543 O 52.9676 7.84134 -1.77171 0
M  V30 544 H 52.6996 0.65027 0.184728 0
M  V30 545 H 55.2536 2.05199 -0.0907841 0
M  V30 546 H 53.4836 3.17888 2.20191 0
M  V30 547 H 55.1726 3.53892 1.98784 0
M  V30 548 H 55.9386 4.84846 -0.12227 0
M  V30 549 H 51.8176 4.48883 1.05002 0
M  V30 550 H 55.3616 6.81208 -1.50339 0
M  V30 551 H 51.2586 6.44686 -0.323989 0
M  V30 552 H 52.0266 8.00822 -1.69194 0
M  V30 553 N 54.6897 -0.239769 1.55765 0
M  V30 554 C 55.6367 -1.29696 1.90913 0
M  V30 555 C 56.6067 -1.47478 0.764164 0
M  V30 556 O 57.7917 -1.61345 1.01845 0
M  V30 557 C 54.9317 -2.64598 2.21544 0
M  V30 558 C 54.0447 -2.54765 3.48882 0
M  V30 559 C 53.1797 -3.82069 3.69049 0
M  V30 560 C 52.2187 -3.66883 4.89963 0
M  V30 561 N 51.3557 -4.86094 5.06614 0
M  V30 562 H 56.1957 -0.990224 2.81067 0
M  V30 563 H 53.7327 -0.477684 1.39128 0
M  V30 564 H 55.6907 -3.43132 2.3731 0
M  V30 565 H 54.3207 -2.93405 1.34585 0
M  V30 566 H 53.3727 -1.67763 3.41409 0
M  V30 567 H 54.6847 -2.39457 4.37563 0
M  V30 568 H 53.8387 -4.69046 3.84812 0
M  V30 569 H 52.5777 -4.00282 2.78614 0
M  V30 570 H 51.5827 -2.78289 4.74168 0
M  V30 571 H 52.8077 -3.50157 5.81865 0
M  V30 572 H 50.7537 -5.04655 4.19117 0
M  V30 573 H 50.6707 -4.73443 5.89396 0
M  V30 574 H 51.9387 -5.74549 5.26795 0
M  V30 575 N 56.1678 -1.49265 -0.50573 0
M  V30 576 C 57.3978 -1.61979 -1.28243 0
M  V30 577 C 57.8058 -0.288576 -1.86986 0
M  V30 578 O 57.1488 0.735408 -1.68337 0
M  V30 579 C 57.2108 -2.62632 -2.45489 0
M  V30 580 C 56.8748 -4.071 -2.07651 0
M  V30 581 C 57.8718 -4.94049 -1.61901 0
M  V30 582 C 55.5568 -4.52801 -2.17431 0
M  V30 583 C 57.5508 -6.24736 -1.26428 0
M  V30 584 C 55.2378 -5.83503 -1.8157 0
M  V30 585 C 56.2358 -6.69294 -1.36142 0
M  V30 586 O 55.9238 -7.9756 -1.00764 0
M  V30 587 H 55.6558 -0.54834 -0.395347 0
M  V30 588 H 58.2098 -1.96002 -0.614204 0
M  V30 589 H 56.4398 -2.2378 -3.15372 0
M  V30 590 H 58.1288 -2.64925 -3.07522 0
M  V30 591 H 58.8948 -4.5997 -1.53795 0
M  V30 592 H 54.7738 -3.86196 -2.51742 0
M  V30 593 H 58.3178 -6.91652 -0.908992 0
M  V30 594 H 54.2148 -6.17112 -1.89324 0
M  V30 595 H 54.9828 -8.10529 -1.13952 0
M  V30 596 N 57.6459 0.756429 -1.3826 0
M  V30 597 C 58.8939 1.51248 -1.34047 0
M  V30 598 C 59.2149 1.94875 0.0698372 0
M  V30 599 O 58.4849 1.67436 1.01696 0
M  V30 600 H 57.0649 0.561018 -0.493222 0
M  V30 601 H 59.7269 0.899347 -1.7291 0
M  V30 602 H 58.8229 2.40472 -1.98947 0
M  V30 603 N 59.124 1.23083 0.984299 0
M  V30 604 C 60.087 1.00979 2.05757 0
M  V30 605 C 61.087 -0.0269573 1.60777 0
M  V30 606 O 62.277 0.212403 1.729 0
M  V30 607 C 59.409 0.527072 3.36801 0
M  V30 608 H 60.602 1.9622 2.26799 0
M  V30 609 H 58.155 1.05072 1.15714 0
M  V30 610 H 58.89 -0.429294 3.21446 0
M  V30 611 H 58.675 1.27515 3.70786 0
M  V30 612 H 60.165 0.392942 4.15747 0
M  V30 613 N 60.6021 -1.18246 1.0419 0
M  V30 614 C 61.8511 -1.87588 0.741194 0
M  V30 615 C 62.1641 -1.81303 -0.734066 0
M  V30 616 O 63.3701 -2.46019 -1.14834 0
M  V30 617 C 61.8261 -3.36538 1.27555 0
M  V30 618 C 61.4341 -3.51349 2.77953 0
M  V30 619 C 63.1781 -4.11273 1.05143 0
M  V30 620 C 61.0851 -4.94265 3.2474 0
M  V30 621 H 60.0151 -0.702622 0.273565 0
M  V30 622 H 62.6661 -1.33601 1.25789 0
M  V30 623 H 61.0481 -3.9 0.686703 0
M  V30 624 H 62.2221 -3.08153 3.42605 0
M  V30 625 H 60.5371 -2.90022 2.98791 0
M  V30 626 H 63.1341 -5.16689 1.37611 0
M  V30 627 H 63.4771 -4.16298 -0.0112774 0
M  V30 628 H 64.0101 -3.63987 1.60495 0
M  V30 629 H 60.7491 -4.94408 4.30396 0
M  V30 630 H 60.2691 -5.38172 2.64823 0
M  V30 631 H 61.9481 -5.62987 3.18834 0
M  V30 632 N 62.0802 -0.821533 -1.34494 0
M  V30 633 C 63.4962 -0.507117 -1.51329 0
M  V30 634 C 63.6962 0.968964 -1.76673 0
M  V30 635 O 62.7522 1.75348 -1.81685 0
M  V30 636 C 64.0652 -1.36544 -2.67911 0
M  V30 637 C 65.6132 -1.36242 -2.81793 0
M  V30 638 C 66.0882 -2.2052 -4.01416 0
M  V30 639 N 67.5792 -2.18136 -4.08621 0
M  V30 640 C 68.3142 -2.80095 -5.00334 0
M  V30 641 N 67.8102 -3.51039 -5.9728 0
M  V30 642 N 69.6032 -2.69656 -4.93196 0
M  V30 643 H 61.7542 -1.77729 -1.16302 0
M  V30 644 H 64.0172 -0.757291 -0.570276 0
M  V30 645 H 63.7232 -2.41361 -2.55808 0
M  V30 646 H 63.5972 -1.02917 -3.62888 0
M  V30 647 H 65.9842 -0.322041 -2.93338 0
M  V30 648 H 66.0652 -1.73866 -1.87628 0
M  V30 649 H 65.7092 -3.24607 -3.90631 0
M  V30 650 H 65.6392 -1.80247 -4.94791 0
M  V30 651 H 68.1302 -1.6653 -3.39229 0
M  V30 652 H 68.4432 -3.95565 -6.63889 0
M  V30 653 H 66.7882 -3.55145 -5.97409 0
M  V30 654 H 69.9792 -2.13808 -4.16418 0
M  V30 655 H 70.1522 -3.1823 -5.64476 0
M  V30 656 N 63.5583 1.46682 -0.576371 0
M  V30 657 C 64.8353 1.95599 0.00703437 0
M  V30 658 C 65.2153 1.51904 1.46589 0
M  V30 659 O 64.5633 0.766755 2.15251 0
M  V30 660 C 64.7733 3.4864 -0.158404 0
M  V30 661 C 66.1213 4.24594 -0.0229439 0
M  V30 662 O 67.1453 3.56094 -0.0869173 0
M  V30 663 O 66.0043 5.46373 0.118015 0
M  V30 664 H 63.0983 0.825275 0.053384 0
M  V30 665 H 65.6443 1.56996 -0.644244 0
M  V30 666 H 64.4163 3.7331 -1.17282 0
M  V30 667 H 64.0393 3.94057 0.5296 0
M  V30 668 N 65.0364 0.313813 1.54444 0
M  V30 669 C 66.2854 -0.292519 1.99568 0
M  V30 670 C 66.5984 -1.54011 1.20582 0
M  V30 671 O 67.8044 -2.22183 1.56035 0
M  V30 672 C 66.2604 -0.571752 3.55329 0
M  V30 673 C 65.8684 0.658229 4.43138 0
M  V30 674 C 67.6124 -1.13857 4.08946 0
M  V30 675 C 65.5194 0.351439 5.90355 0
M  V30 676 H 64.4494 -0.113079 0.745472 0
M  V30 677 H 67.1004 0.424518 1.78522 0
M  V30 678 H 65.4824 -1.34872 3.72325 0
M  V30 679 H 66.6564 1.43403 4.37918 0
M  V30 680 H 64.9714 1.14458 4.0036 0
M  V30 681 H 67.5684 -1.38257 5.16516 0
M  V30 682 H 67.9114 -2.08489 3.6033 0
M  V30 683 H 68.4444 -0.423015 3.95544 0
M  V30 684 H 65.1834 1.26667 6.43145 0
M  V30 685 H 64.7034 -0.386842 5.98551 0
M  V30 686 H 66.3824 -0.0423134 6.46986 0
M  V30 687 N 66.5145 -1.57545 0.0417849 0
M  V30 688 C 67.7915 -1.83642 -0.673433 0
M  V30 689 C 68.1715 -0.928298 -1.89594 0
M  V30 690 O 67.5195 0.0129955 -2.28496 0
M  V30 691 C 67.7295 -3.33155 -1.03964 0
M  V30 692 C 69.0775 -3.99941 -1.42592 0
M  V30 693 O 70.1015 -3.37725 -1.13226 0
M  V30 694 O 68.9605 -5.09619 -1.9736 0
M  V30 695 H 66.0545 -0.757638 -0.331533 0
M  V30 696 H 68.6005 -1.69554 0.070433 0
M  V30 697 H 67.3725 -3.9093 -0.170098 0
M  V30 698 H 66.9955 -3.52396 -1.84126 0
M  V30 699 N 67.9926 0.231505 -1.5589 0
M  V30 700 C 68.9226 1.29022 -1.94617 0
M  V30 701 C 69.9036 1.4941 -0.813067 0
M  V30 702 O 71.0886 1.6176 -1.07459 0
M  V30 703 C 68.2186 2.64199 -2.25424 0
M  V30 704 C 67.1726 2.58484 -3.41131 0
M  V30 705 C 66.4986 3.97599 -3.57518 0
M  V30 706 C 67.7986 2.1413 -4.76388 0
M  V30 707 H 69.4926 0.968563 -2.83301 0
M  V30 708 H 67.0386 0.464479 -1.36303 0
M  V30 709 H 68.9916 3.38413 -2.51107 0
M  V30 710 H 67.7156 2.98032 -1.33583 0
M  V30 711 H 66.3746 1.86727 -3.15481 0
M  V30 712 H 66.0226 4.28723 -2.6307 0
M  V30 713 H 65.7226 3.94659 -4.35337 0
M  V30 714 H 67.2466 4.7349 -3.85538 0
M  V30 715 H 68.6606 2.78083 -5.01341 0
M  V30 716 H 67.0576 2.2227 -5.57419 0
M  V30 717 H 68.1276 1.09331 -4.72414 0
M  V30 718 N 69.4707 1.49531 0.497807 0
M  V30 719 C 70.4177 1.66436 1.59899 0
M  V30 720 C 71.3877 0.505793 1.58212 0
M  V30 721 O 72.5727 0.733202 1.7615 0
M  V30 722 C 69.7127 1.7399 2.98029 0
M  V30 723 C 68.8257 3.01172 3.09708 0
M  V30 724 C 67.9607 2.99686 4.38591 0
M  V30 725 C 66.9997 4.21434 4.43914 0
M  V30 726 N 66.1367 4.1784 5.64229 0
M  V30 727 H 70.9767 2.60459 1.44793 0
M  V30 728 H 68.5137 1.29137 0.704423 0
M  V30 729 H 70.4717 1.76352 3.78095 0
M  V30 730 H 69.1017 0.834301 3.11832 0
M  V30 731 H 68.1537 3.08408 2.22685 0
M  V30 732 H 69.4657 3.91165 3.09502 0
M  V30 733 H 68.6197 3.00628 5.2698 0
M  V30 734 H 67.3587 2.07477 4.41367 0
M  V30 735 H 66.3637 4.20733 3.53926 0
M  V30 736 H 67.5887 5.14839 4.42851 0
M  V30 737 H 65.5347 3.28469 5.67841 0
M  V30 738 H 65.4517 5.01571 5.65652 0
M  V30 739 H 66.7197 4.22889 6.54817 0
M  V30 740 N 70.9488 -0.749086 1.3866 0
M  V30 741 C 71.8968 -1.88428 1.36373 0
M  V30 742 C 72.8908 -1.67561 0.248929 0
M  V30 743 O 74.0968 -1.75074 0.41821 0
M  V30 744 H 70.4718 -0.620023 0.42553 0
M  V30 745 H 72.4428 -1.87473 2.32156 0
M  V30 746 C 71.1918 -3.25961 1.21014 0
M  V30 747 H 70.5148 -3.42607 2.06059 0
M  V30 748 H 71.9548 -4.05625 1.23469 0
M  V30 749 C 70.4138 -3.36799 -0.0825941 0
M  V30 750 O 70.9438 -3.87517 -1.05797 0
M  V30 751 N 69.1498 -2.90258 -0.140939 0
M  V30 752 H 68.6968 -2.49174 0.653477 0
M  V30 753 H 68.6548 -2.97889 -1.00545 0
M  V30 754 N 72.4269 -1.23603 -0.977757 0
M  V30 755 C 73.8429 -0.999251 -1.24447 0
M  V30 756 C 74.0429 0.298053 -1.99283 0
M  V30 757 O 73.0989 1.01681 -2.31122 0
M  V30 758 C 74.4119 -2.20784 -2.04144 0
M  V30 759 C 75.9599 -2.25303 -2.17273 0
M  V30 760 C 76.4349 -3.45755 -3.00362 0
M  V30 761 N 77.9259 -3.4601 -3.07947 0
M  V30 762 C 78.6609 -4.35868 -3.72568 0
M  V30 763 N 78.1569 -5.35966 -4.38991 0
M  V30 764 N 79.9499 -4.23605 -3.6948 0
M  V30 765 H 72.1009 -2.06986 -0.476483 0
M  V30 766 H 74.3639 -0.907801 -0.273134 0
M  V30 767 H 74.0699 -3.14945 -1.56533 0
M  V30 768 H 73.9439 -2.22085 -3.04891 0
M  V30 769 H 76.3309 -1.3168 -2.64092 0
M  V30 770 H 76.4119 -2.28033 -1.15907 0
M  V30 771 H 76.0559 -4.39687 -2.5424 0
M  V30 772 H 75.9859 -3.40266 -4.01904 0
M  V30 773 H 78.4769 -2.73588 -2.60688 0
M  V30 774 H 78.7899 -6.00783 -4.86086 0
M  V30 775 H 77.1349 -5.39863 -4.37691 0
M  V30 776 H 80.3259 -3.44647 -3.16759 0
M  V30 777 H 80.4989 -4.93836 -4.1956 0
M  V30 778 N 73.905 1.17692 -1.04816 0
M  V30 779 C 75.321 1.39863 -0.768794 0
M  V30 780 C 75.521 1.91118 0.638451 0
M  V30 781 O 74.577 2.10036 1.40146 0
M  V30 782 C 75.89 2.39274 -1.82122 0
M  V30 783 C 77.438 2.52987 -1.843 0
M  V30 784 C 77.913 3.55669 -2.88555 0
M  V30 785 N 79.404 3.63183 -2.87493 0
M  V30 786 C 80.139 4.42381 -3.64811 0
M  V30 787 N 79.635 5.25125 -4.51903 0
M  V30 788 N 81.428 4.37217 -3.53267 0
M  V30 789 H 73.579 0.82752 -1.95617 0
M  V30 790 H 75.842 0.426123 -0.846831 0
M  V30 791 H 75.548 2.08678 -2.83102 0
M  V30 792 H 75.422 3.38725 -1.65967 0
M  V30 793 H 77.809 2.82896 -0.839869 0
M  V30 794 H 77.89 1.53623 -2.04532 0
M  V30 795 H 77.534 3.26499 -3.89051 0
M  V30 796 H 77.464 4.54728 -2.65575 0
M  V30 797 H 79.955 3.04103 -2.24343 0
M  V30 798 H 80.268 5.82728 -5.07591 0
M  V30 799 H 78.613 5.24519 -4.55966 0
M  V30 800 H 81.804 3.71626 -2.84625 0
M  V30 801 H 81.977 4.98696 -4.13771 0
M  V30 802 N 75.3831 0.828654 1.34056 0
M  V30 803 C 76.6311 0.41863 1.97717 0
M  V30 804 C 76.9521 -1.02314 1.66002 0
M  V30 805 O 76.2221 -1.71119 0.953683 0
M  V30 806 H 74.8021 0.151809 0.731412 0
M  V30 807 H 77.4641 1.05936 1.63596 0
M  V30 808 H 76.5601 0.542318 3.07352 0
M  V30 809 N 76.8612 -1.46375 0.584142 0
M  V30 810 C 78.1092 -2.01978 0.0701287 0
M  V30 811 C 78.4302 -1.4579 -1.295 0
M  V30 812 O 77.7002 -0.64314 -1.85042 0
M  V30 813 H 76.2802 -0.746648 0.0229345 0
M  V30 814 H 78.9422 -1.79461 0.760245 0
M  V30 815 H 78.0382 -3.121 0.0022064 0
M  V30 816 N 78.3393 -0.321999 -1.54275 0
M  V30 817 C 79.7503 0.166384 -1.85957 0
M  V30 818 C 80.1013 1.51747 -1.24367 0
M  V30 819 O 79.2263 2.09317 -0.549124 0
M  V30 820 C 79.8213 0.308681 -3.37391 0
M  V30 821 C 78.3803 0.741286 -3.69028 0
M  V30 822 C 77.5273 -0.137937 -2.76957 0
M  V30 823 H 80.4783 -0.542335 -1.49146 0
M  V30 824 H 80.4993 1.13984 -3.63026 0
M  V30 825 H 80.0113 -0.674809 -3.82188 0
M  V30 826 H 78.1123 1.73458 -3.29762 0
M  V30 827 H 78.2253 0.546118 -4.75977 0
M  V30 828 H 76.5893 0.386251 -2.51754 0
M  V30 829 H 77.3723 -1.11816 -3.2458 0
M  V30 830 N 79.8174 1.5752 -0.0501392 0
M  V30 831 C 81.2284 1.80271 0.485705 0
M  V30 832 C 81.5794 0.96228 1.70981 0
M  V30 833 O 80.7044 0.178578 2.15662 0
M  V30 834 C 81.2994 3.26957 0.887938 0
M  V30 835 C 79.8584 3.5063 1.36877 0
M  V30 836 C 79.0054 2.75165 0.343468 0
M  V30 837 H 81.9564 1.56281 -0.276028 0
M  V30 838 H 81.9774 3.37821 1.75093 0
M  V30 839 H 81.4894 3.881 -0.0031809 0
M  V30 840 H 79.5904 2.94766 2.27911 0
M  V30 841 H 79.7034 4.59343 1.36164 0
M  V30 842 H 78.0674 2.4127 0.816128 0
M  V30 843 H 78.8504 3.39034 -0.539548 0
M  V30 844 N 81.2955 -0.223234 1.56011 0
M  V30 845 C 82.5425 -0.947875 1.78946 0
M  V30 846 C 82.8705 -1.844 0.618608 0
M  V30 847 O 82.1255 -1.91629 -0.397093 0
M  V30 848 C 82.4245 -1.81948 3.0762 0
M  V30 849 C 82.0905 -1.07672 4.37856 0
M  V30 850 C 80.7525 -0.871544 4.73242 0
M  V30 851 C 83.1045 -0.552081 5.18268 0
M  V30 852 C 80.4325 -0.129791 5.86556 0
M  V30 853 C 82.7845 0.17632 6.32354 0
M  V30 854 C 81.4485 0.39277 6.66343 0
M  V30 855 H 80.7185 -0.346852 0.654809 0
M  V30 856 H 83.3655 -0.216171 1.90276 0
M  V30 857 H 81.6705 -2.61899 2.91404 0
M  V30 858 H 83.3675 -2.38227 3.22566 0
M  V30 859 H 79.9575 -1.24662 4.1007 0
M  V30 860 H 84.1415 -0.698076 4.91366 0
M  V30 861 H 79.3975 0.048153 6.11381 0
M  V30 862 H 83.5715 0.590367 6.93893 0
M  V30 863 H 81.1985 0.969466 7.53993 0
M  V30 864 N 82.7736 -1.49793 -0.48987 0
M  V30 865 C 83.7366 -1.66752 -1.57246 0
M  V30 866 C 84.7366 -0.538867 -1.51502 0
M  V30 867 O 85.9266 -0.805545 -1.54456 0
M  V30 868 C 83.0586 -1.67528 -2.96896 0
M  V30 869 H 84.2516 -2.63321 -1.43534 0
M  V30 870 H 81.8046 -1.38992 -0.714914 0
M  V30 871 H 82.5396 -0.725837 -3.16073 0
M  V30 872 H 82.3246 -2.49504 -3.02473 0
M  V30 873 H 83.8146 -1.82667 -3.7553 0
M  V30 874 N 84.2517 0.741722 -1.39055 0
M  V30 875 C 85.4987 1.50114 -1.35912 0
M  V30 876 C 85.8267 1.94443 0.0470937 0
M  V30 877 O 85.0817 1.66612 1.02659 0
M  V30 878 C 85.3807 2.7592 -2.27163 0
M  V30 879 C 85.0467 2.50493 -3.74919 0
M  V30 880 C 83.7087 2.43267 -4.1518 0
M  V30 881 C 86.0607 2.28585 -4.684 0
M  V30 882 C 83.3887 2.12166 -5.46994 0
M  V30 883 C 85.7407 1.99002 -6.00484 0
M  V30 884 C 84.4047 1.90241 -6.39816 0
M  V30 885 H 83.6747 0.549306 -0.497336 0
M  V30 886 H 86.3217 0.851896 -1.71508 0
M  V30 887 H 84.6267 3.45553 -1.84663 0
M  V30 888 H 86.3237 3.33923 -2.22028 0
M  V30 889 H 82.9137 2.56992 -3.43006 0
M  V30 890 H 87.0977 2.33139 -4.38132 0
M  V30 891 H 82.3537 2.03901 -5.76398 0
M  V30 892 H 86.5277 1.81057 -6.72452 0
M  V30 893 H 84.1547 1.65907 -7.41875 0
M  V30 894 N 85.7298 1.2412 0.971189 0
M  V30 895 C 86.9758 1.08041 1.71625 0
M  V30 896 C 87.3088 -0.380407 1.90438 0
M  V30 897 O 86.5838 -1.28127 1.46334 0
M  V30 898 C 86.8668 1.81682 3.10908 0
M  V30 899 C 86.7198 3.35493 2.99608 0
M  V30 900 C 88.0388 1.58671 4.10501 0
M  V30 901 H 85.1578 0.39388 0.622919 0
M  V30 902 H 87.7998 1.52743 1.13003 0
M  V30 903 H 85.9498 1.43684 3.60953 0
M  V30 904 H 87.6218 3.83068 2.57015 0
M  V30 905 H 85.8648 3.64052 2.35899 0
M  V30 906 H 86.5358 3.82217 3.98264 0
M  V30 907 H 89.0118 1.91719 3.69301 0
M  V30 908 H 87.8878 2.1266 5.06031 0
M  V30 909 H 88.1488 0.524161 4.38982 0
M  V30 910 N 87.2079 -1.17134 1.05439 0
M  V30 911 C 88.1179 -2.24878 0.668365 0
M  V30 912 C 89.1339 -1.71186 -0.311687 0
M  V30 913 O 90.3099 -2.00738 -0.163161 0
M  V30 914 C 87.3749 -3.46662 0.051648 0
M  V30 915 C 86.4359 -4.15429 1.08246 0
M  V30 916 C 85.6689 -5.31399 0.495082 0
M  V30 917 O 85.8919 -5.66153 -0.694743 0
M  V30 918 O 84.8259 -5.89187 1.23056 0
M  V30 919 H 88.6519 -2.60189 1.56637 0
M  V30 920 H 86.2369 -1.24482 0.826104 0
M  V30 921 H 88.1189 -4.20394 -0.290966 0
M  V30 922 H 86.7939 -3.13142 -0.819971 0
M  V30 923 H 85.7009 -3.43704 1.47711 0
M  V30 924 H 87.0339 -4.52982 1.92532 0
M  V30 925 N 88.686 -0.835752 -1.33615 0
M  V30 926 C 89.933 -0.429959 -1.97883 0
M  V30 927 C 90.261 1.01006 -1.66217 0
M  V30 928 O 89.516 1.72047 -0.93265 0
M  V30 929 C 89.815 -0.593925 -3.52431 0
M  V30 930 C 89.481 -2.00158 -4.04039 0
M  V30 931 C 88.143 -2.38662 -4.17844 0
M  V30 932 C 90.495 -2.92117 -4.31644 0
M  V30 933 C 87.823 -3.68435 -4.56588 0
M  V30 934 C 90.175 -4.21368 -4.71838 0
M  V30 935 C 88.839 -4.59833 -4.83849 0
M  V30 936 H 88.109 -0.157333 -0.724104 0
M  V30 937 H 90.756 -1.06217 -1.59343 0
M  V30 938 H 89.061 0.121619 -3.91611 0
M  V30 939 H 90.758 -0.260282 -4.00154 0
M  V30 940 H 87.348 -1.69252 -3.93766 0
M  V30 941 H 91.532 -2.63608 -4.20505 0
M  V30 942 H 86.788 -3.98046 -4.64079 0
M  V30 943 H 90.962 -4.92703 -4.92155 0
M  V30 944 H 88.589 -5.60438 -5.13627 0
M  V30 945 N 90.1641 1.46063 -0.591896 0
M  V30 946 C 91.0741 2.34192 0.13831 0
M  V30 947 C 92.0901 1.50305 0.876608 0
M  V30 948 O 93.2661 1.8315 0.837728 0
M  V30 949 C 90.3311 3.27656 1.13326 0
M  V30 950 C 89.3921 4.27445 0.39863 0
M  V30 951 C 88.6251 5.16443 1.34618 0
M  V30 952 O 88.8481 5.08553 2.58321 0
M  V30 953 O 87.7821 5.95843 0.851768 0
M  V30 954 H 91.6081 2.98002 -0.58552 0
M  V30 955 H 89.1931 1.45188 -0.352239 0
M  V30 956 H 91.0751 3.85291 1.70671 0
M  V30 957 H 89.7501 2.6643 1.83839 0
M  V30 958 H 88.6571 3.73471 -0.216895 0
M  V30 959 H 89.9901 4.91482 -0.265709 0
M  V30 960 N 91.6422 0.330177 1.54103 0
M  V30 961 C 92.9192 -0.325007 1.92881 0
M  V30 962 C 93.2992 -1.6934 1.26045 0
M  V30 963 O 92.6472 -2.24855 0.406526 0
M  V30 964 C 92.8572 -0.410634 3.46576 0
M  V30 965 C 94.2052 -0.667801 4.19316 0
M  V30 966 O 95.2292 -0.49329 3.52768 0
M  V30 967 O 94.0882 -1.00491 5.37181 0
M  V30 968 H 91.1822 -0.186873 0.80561 0
M  V30 969 H 93.7282 0.380376 1.65382 0
M  V30 970 H 92.5002 0.550164 3.87413 0
M  V30 971 H 92.1232 -1.16333 3.802 0
M  V30 972 N 93.1203 -1.57491 0.0584922 0
M  V30 973 C 94.5313 -1.80526 -0.476138 0
M  V30 974 C 94.8823 -0.971334 -1.70469 0
M  V30 975 O 94.0073 -0.190012 -2.15564 0
M  V30 976 C 94.6023 -3.27424 -0.870587 0
M  V30 977 C 93.1613 -3.51351 -1.35015 0
M  V30 978 C 92.3083 -2.75343 -0.32887 0
M  V30 979 H 95.2593 -1.56133 0.284312 0
M  V30 980 H 95.2803 -3.38745 -1.73299 0
M  V30 981 H 94.7923 -3.88093 0.0237627 0
M  V30 982 H 92.8933 -2.95971 -2.26345 0
M  V30 983 H 93.0063 -4.60059 -1.33726 0
M  V30 984 H 91.3703 -2.417 -0.803321 0
M  V30 985 H 92.1533 -3.38743 0.557521 0
M  V30 986 N 94.5984 0.214957 -1.56127 0
M  V30 987 C 96.0144 0.564948 -1.49267 0
M  V30 988 C 96.2144 1.86827 -0.754838 0
M  V30 989 O 95.2704 2.50745 -0.297198 0
M  V30 990 C 96.5834 0.638071 -2.93852 0
M  V30 991 C 98.1314 0.728253 -3.0441 0
M  V30 992 C 98.6064 0.832663 -4.50367 0
M  V30 993 N 100.097 0.896712 -4.54437 0
M  V30 994 C 100.832 0.997324 -5.6466 0
M  V30 995 N 100.328 1.06147 -6.8462 0
M  V30 996 N 102.121 1.03297 -5.52527 0
M  V30 997 H 94.2724 -0.640211 -2.02522 0
M  V30 998 H 96.5354 -0.225507 -0.920788 0
M  V30 999 H 96.2414 -0.250126 -3.50809 0
M  V30 1000 H 96.1154 1.49947 -3.46115 0
M  V30 1001 H 98.5024 1.60689 -2.47514 0
M  V30 1002 H 98.5834 -0.158952 -2.55306 0
M  V30 1003 H 98.2274 -0.0415417 -5.07883 0
M  V30 1004 H 98.1574 1.73538 -4.97184 0
M  V30 1005 H 100.648 0.857188 -3.6805 0
M  V30 1006 H 100.961 1.1382 -7.64372 0
M  V30 1007 H 99.3064 1.03049 -6.87318 0
M  V30 1008 H 102.497 0.979558 -4.57736 0
M  V30 1009 H 102.67 1.10793 -6.38458 0
M  V30 1010 N 96.0765 1.50051 0.48192 0
M  V30 1011 C 97.3535 1.51009 1.2432 0
M  V30 1012 C 97.7335 0.248587 2.09631 0
M  V30 1013 O 97.0815 -0.768409 2.15192 0
M  V30 1014 C 97.2915 2.79981 2.08355 0
M  V30 1015 C 98.6395 3.3022 2.66908 0
M  V30 1016 O 99.6635 2.81228 2.18607 0
M  V30 1017 O 98.5225 4.15595 3.54884 0
M  V30 1018 H 95.6165 0.605239 0.563573 0
M  V30 1019 H 98.1625 1.62332 0.494627 0
M  V30 1020 H 96.9345 3.63275 1.45419 0
M  V30 1021 H 96.5575 2.7161 2.90368 0
M  V30 1022 N 97.5546 -0.734337 1.39446 0
M  V30 1023 C 98.5176 -1.83004 1.37994 0
M  V30 1024 C 99.5176 -1.58397 0.276938 0
M  V30 1025 O 100.708 -1.65785 0.534875 0
M  V30 1026 C 97.8396 -3.20802 1.1532 0
M  V30 1027 H 99.0326 -1.85694 2.35494 0
M  V30 1028 H 96.5856 -0.938059 1.25021 0
M  V30 1029 H 97.3206 -3.23772 0.185036 0
M  V30 1030 H 97.1056 -3.4006 1.95197 0
M  V30 1031 H 98.5956 -4.00862 1.17046 0
M  V30 1032 N 99.0327 -1.24633 -0.964593 0
M  V30 1033 C 99.9427 -1.05859 -2.09359 0
M  V30 1034 C 100.959 0.00148855 -1.74 0
M  V30 1035 O 102.135 -0.197346 -2.00431 0
M  V30 1036 C 99.1997 -0.668879 -3.40187 0
M  V30 1037 C 98.2607 -1.80578 -3.89474 0
M  V30 1038 C 97.4937 -1.43457 -5.14058 0
M  V30 1039 O 97.7167 -0.325775 -5.69469 0
M  V30 1040 O 96.6507 -2.2613 -5.57807 0
M  V30 1041 H 100.477 -2.00516 -2.28094 0
M  V30 1042 H 98.0617 -1.03481 -1.0776 0
M  V30 1043 H 99.9437 -0.463211 -4.18846 0
M  V30 1044 H 98.6187 0.248536 -3.22744 0
M  V30 1045 H 97.5257 -2.06623 -3.11862 0
M  V30 1046 H 98.8587 -2.70208 -4.11398 0
M  V30 1047 N 100.511 1.16574 -1.06058 0
M  V30 1048 C 101.788 1.83048 -0.689416 0
M  V30 1049 C 102.168 1.94122 0.829443 0
M  V30 1050 O 101.516 1.48249 1.7388 0
M  V30 1051 C 101.726 3.20186 -1.38859 0
M  V30 1052 C 103.074 3.95989 -1.53226 0
M  V30 1053 O 104.098 3.29696 -1.3483 0
M  V30 1054 O 102.957 5.14813 -1.83384 0
M  V30 1055 H 100.051 0.790258 -0.243764 0
M  V30 1056 H 102.597 1.23797 -1.16071 0
M  V30 1057 H 101.369 3.07146 -2.4244 0
M  V30 1058 H 100.992 3.87112 -0.907216 0
M  V30 1059 N 101.989 0.842826 1.3317 0
M  V30 1060 C 102.952 0.284065 2.27433 0
M  V30 1061 C 103.952 -0.54948 1.5112 0
M  V30 1062 O 105.142 -0.362699 1.70382 0
M  V30 1063 C 102.274 -0.599384 3.35589 0
M  V30 1064 H 103.467 1.11589 2.78366 0
M  V30 1065 H 101.02 0.616221 1.4364 0
M  V30 1066 H 101.755 -1.45349 2.89904 0
M  V30 1067 H 101.54 -0.00291266 3.921 0
M  V30 1068 H 103.03 -0.983488 4.05854 0
M  V30 1069 N 103.467 -1.45747 0.599634 0
M  V30 1070 C 104.713 -2.02592 0.0918643 0
M  V30 1071 C 105.046 -1.46806 -1.27128 0
M  V30 1072 O 104.321 -0.639658 -1.83681 0
M  V30 1073 C 104.604 -3.60073 0.0443398 0
M  V30 1074 C 104.457 -4.26208 1.43759 0
M  V30 1075 C 105.776 -4.35309 -0.647608 0
M  V30 1076 H 102.895 -0.736175 0.034857 0
M  V30 1077 H 105.537 -1.73694 0.770081 0
M  V30 1078 H 103.687 -3.84823 -0.533224 0
M  V30 1079 H 105.359 -4.12668 2.06162 0
M  V30 1080 H 103.602 -3.84916 2.00056 0
M  V30 1081 H 104.273 -5.35069 1.35665 0
M  V30 1082 H 106.749 -4.15805 -0.156776 0
M  V30 1083 H 105.625 -5.45038 -0.649942 0
M  V30 1084 H 105.886 -4.07598 -1.71219 0
M  V30 1085 N 104.945 -0.338344 -1.53925 0
M  V30 1086 C 106.175 0.260919 -2.04946 0
M  V30 1087 C 106.583 1.45174 -1.2133 0
M  V30 1088 O 105.926 1.82122 -0.240262 0
M  V30 1089 C 105.988 0.744596 -3.51704 0
M  V30 1090 C 105.652 -0.325883 -4.55837 0
M  V30 1091 C 106.649 -1.16687 -5.06636 0
M  V30 1092 C 104.334 -0.478317 -5.00017 0
M  V30 1093 C 106.328 -2.14588 -6.00192 0
M  V30 1094 C 104.015 -1.46073 -5.93385 0
M  V30 1095 C 105.013 -2.29297 -6.4336 0
M  V30 1096 O 104.701 -3.25867 -7.34892 0
M  V30 1097 H 104.433 0.0551207 -0.673749 0
M  V30 1098 H 106.987 -0.486984 -1.99544 0
M  V30 1099 H 105.217 1.54366 -3.54553 0
M  V30 1100 H 106.906 1.26383 -3.85723 0
M  V30 1101 H 107.672 -1.06016 -4.73271 0
M  V30 1102 H 103.551 0.159613 -4.60724 0
M  V30 1103 H 107.095 -2.79585 -6.39123 0
M  V30 1104 H 102.992 -1.56802 -6.26166 0
M  V30 1105 H 103.76 -3.21278 -7.5281 0
M  V30 1106 N 106.423 1.57458 -0.0668435 0
M  V30 1107 C 107.671 1.92919 0.602214 0
M  V30 1108 C 107.992 0.947215 1.70449 0
M  V30 1109 O 107.262 -0.00544117 1.95899 0
M  V30 1110 H 105.842 0.71217 0.22544 0
M  V30 1111 H 108.504 1.94508 -0.123535 0
M  V30 1112 H 107.6 2.94589 1.03073 0
M  V30 1113 N 107.901 -0.206675 1.56239 0
M  V30 1114 C 109.317 -0.557025 1.49564 0
M  V30 1115 C 109.517 -1.86424 0.764735 0
M  V30 1116 O 108.573 -2.50584 0.310491 0
M  V30 1117 C 109.886 -0.622478 2.94186 0
M  V30 1118 C 111.434 -0.712099 3.04792 0
M  V30 1119 C 111.909 -0.808767 4.50803 0
M  V30 1120 N 113.4 -0.8726 4.54907 0
M  V30 1121 C 114.135 -0.967365 5.65181 0
M  V30 1122 N 113.631 -1.02515 6.85173 0
M  V30 1123 N 115.424 -1.00366 5.53067 0
M  V30 1124 H 107.575 0.650943 2.02179 0
M  V30 1125 H 109.838 0.230387 0.919579 0
M  V30 1126 H 109.544 0.268727 3.50672 0
M  V30 1127 H 109.418 -1.4811 3.46905 0
M  V30 1128 H 111.805 -1.59374 2.48363 0
M  V30 1129 H 111.886 0.172489 2.55218 0
M  V30 1130 H 111.53 0.0684754 5.07854 0
M  V30 1131 H 111.46 -1.70899 4.98098 0
M  V30 1132 H 113.951 -0.837657 3.68499 0
M  V30 1133 H 114.264 -1.09765 7.64965 0
M  V30 1134 H 112.609 -0.994026 6.87855 0
M  V30 1135 H 115.8 -0.95527 4.58249 0
M  V30 1136 H 115.973 -1.07405 6.39037 0
M  V30 1137 N 109.379 -1.50304 -0.473955 0
M  V30 1138 C 110.656 -1.51667 -1.23518 0
M  V30 1139 C 111.036 -0.259701 -2.09496 0
M  V30 1140 O 110.384 0.756986 -2.15597 0
M  V30 1141 C 110.594 -2.81082 -2.06868 0
M  V30 1142 C 111.942 -3.31631 -2.65153 0
M  V30 1143 O 112.966 -2.82384 -2.17113 0
M  V30 1144 O 111.825 -4.17471 -3.52675 0
M  V30 1145 H 108.919 -0.60822 -0.560355 0
M  V30 1146 H 111.465 -1.62592 -0.486011 0
M  V30 1147 H 110.237 -3.64041 -1.4349 0
M  V30 1148 H 109.86 -2.73146 -2.88924 0
M  V30 1149 N 110.857 0.726932 -1.39834 0
M  V30 1150 C 112.105 1.4837 -1.37225 0
M  V30 1151 C 112.426 1.94979 0.0284857 0
M  V30 1152 O 111.696 1.69555 0.981213 0
M  V30 1153 H 110.276 0.55043 -0.505011 0
M  V30 1154 H 112.938 0.862468 -1.74778 0
M  V30 1155 H 112.034 2.36198 -2.04003 0
M  V30 1156 N 112.336 1.25143 0.95797 0
M  V30 1157 C 113.566 1.12261 1.73439 0
M  V30 1158 C 113.974 -0.326715 1.86358 0
M  V30 1159 O 113.317 -1.2367 1.35836 0
M  V30 1160 C 113.379 1.69966 3.16784 0
M  V30 1161 C 113.043 3.18936 3.27305 0
M  V30 1162 C 114.04 4.15968 3.11877 0
M  V30 1163 C 111.725 3.59083 3.51234 0
M  V30 1164 C 113.719 5.51126 3.20217 0
M  V30 1165 C 111.406 4.9438 3.5921 0
M  V30 1166 C 112.404 5.90211 3.43716 0
M  V30 1167 O 112.092 7.23046 3.51368 0
M  V30 1168 H 111.824 0.392476 0.550399 0
M  V30 1169 H 114.378 1.65927 1.21068 0
M  V30 1170 H 112.608 1.10744 3.70503 0
M  V30 1171 H 114.297 1.52232 3.76272 0
M  V30 1172 H 115.063 3.86292 2.93264 0
M  V30 1173 H 110.942 2.84989 3.62356 0
M  V30 1174 H 114.486 6.25905 3.0804 0
M  V30 1175 H 110.383 5.23723 3.77339 0
M  V30 1176 H 111.151 7.31097 3.6802 0
M  V30 1177 N 113.814 -1.1601 1.06675 0
M  V30 1178 C 115.091 -1.82679 0.699114 0
M  V30 1179 C 115.471 -1.94559 -0.819137 0
M  V30 1180 O 114.819 -1.49169 -1.73092 0
M  V30 1181 C 115.029 -3.19445 1.40555 0
M  V30 1182 C 116.377 -3.95171 1.55323 0
M  V30 1183 O 117.401 -3.28976 1.36577 0
M  V30 1184 O 116.26 -5.13833 1.86112 0
M  V30 1185 H 113.354 -0.788954 0.247951 0
M  V30 1186 H 115.9 -1.23179 1.16726 0
M  V30 1187 H 114.672 -3.05856 2.44065 0
M  V30 1188 H 114.295 -3.86625 0.927733 0
M  V30 1189 N 115.292 -0.849877 -1.32721 0
M  V30 1190 C 116.522 -0.46408 -2.0132 0
M  V30 1191 C 116.93 0.94246 -1.64056 0
M  V30 1192 O 116.273 1.6257 -0.855379 0
M  V30 1193 C 116.335 -0.517887 -3.5575 0
M  V30 1194 C 115.999 -1.88248 -4.16427 0
M  V30 1195 C 116.996 -2.84726 -4.35002 0
M  V30 1196 C 114.681 -2.17832 -4.52609 0
M  V30 1197 C 116.675 -4.08945 -4.8892 0
M  V30 1198 C 114.362 -3.42304 -5.06232 0
M  V30 1199 C 115.36 -4.37677 -5.24335 0
M  V30 1200 O 115.048 -5.59946 -5.76815 0
M  V30 1201 H 114.78 -0.181327 -0.651227 0
M  V30 1202 H 117.334 -1.14713 -1.70382 0
M  V30 1203 H 115.564 0.221997 -3.86062 0
M  V30 1204 H 117.253 -0.148366 -4.05629 0
M  V30 1205 H 118.019 -2.63174 -4.07388 0
M  V30 1206 H 113.898 -1.44385 -4.37806 0
M  V30 1207 H 117.442 -4.83396 -5.02966 0
M  V30 1208 H 113.339 -3.63709 -5.33278 0
M  V30 1209 H 114.107 -5.61838 -5.95214 0
M  V30 1210 N 116.77 1.45427 -0.607355 0
M  V30 1211 C 118.047 1.9557 -0.0344566 0
M  V30 1212 C 118.427 1.54979 1.43334 0
M  V30 1213 O 117.775 0.812241 2.13576 0
M  V30 1214 C 117.985 3.48226 -0.232321 0
M  V30 1215 C 119.333 4.2445 -0.113001 0
M  V30 1216 O 120.357 3.55829 -0.162431 0
M  V30 1217 O 119.216 5.465 0.00209442 0
M  V30 1218 H 116.31 0.826222 0.0358667 0
M  V30 1219 H 118.856 1.55594 -0.6774 0
M  V30 1220 H 117.628 3.70739 -1.25174 0
M  V30 1221 H 117.251 3.95092 0.445896 0
M  V30 1222 N 118.248 0.346503 1.53744 0
M  V30 1223 C 119.496 -0.248612 2.00565 0
M  V30 1224 C 119.817 -1.5083 1.23593 0
M  V30 1225 O 119.087 -1.92858 0.343912 0
M  V30 1226 H 117.667 -0.0948564 0.740953 0
M  V30 1227 H 120.329 0.468341 1.89189 0
M  V30 1228 H 119.425 -0.488994 3.08245 0
M  V30 1229 N 119.726 -1.57421 0.075193 0
M  V30 1230 C 120.956 -1.97659 -0.601203 0
M  V30 1231 C 121.364 -0.952427 -1.63479 0
M  V30 1232 O 120.707 0.0688241 -1.83571 0
M  V30 1233 C 120.769 -3.34218 -1.32434 0
M  V30 1234 C 120.433 -4.5484 -0.443826 0
M  V30 1235 C 121.43 -5.19034 0.299969 0
M  V30 1236 C 119.115 -5.00952 -0.367709 0
M  V30 1237 C 121.109 -6.27695 1.10807 0
M  V30 1238 C 118.796 -6.09484 0.444058 0
M  V30 1239 C 119.794 -6.72719 1.18061 0
M  V30 1240 O 119.482 -7.79161 1.97898 0
M  V30 1241 H 119.214 -0.65494 -0.167422 0
M  V30 1242 H 121.768 -2.04886 0.145157 0
M  V30 1243 H 119.998 -3.23615 -2.11685 0
M  V30 1244 H 121.687 -3.59038 -1.89331 0
M  V30 1245 H 122.453 -4.84351 0.250776 0
M  V30 1246 H 118.332 -4.51509 -0.930638 0
M  V30 1247 H 121.876 -6.76982 1.68347 0
M  V30 1248 H 117.773 -6.43601 0.494803 0
M  V30 1249 H 118.541 -7.96055 1.90367 0
M  V30 1250 N 121.204 0.198386 -1.56346 0
M  V30 1251 C 122.62 0.549085 -1.49857 0
M  V30 1252 C 122.82 1.86016 -0.774611 0
M  V30 1253 O 121.876 2.50416 -0.323776 0
M  V30 1254 C 123.189 0.606868 -2.94512 0
M  V30 1255 C 124.737 0.695925 -3.05165 0
M  V30 1256 C 125.212 0.784848 -4.51225 0
M  V30 1257 N 126.703 0.848463 -4.55363 0
M  V30 1258 C 127.438 0.937378 -5.65686 0
M  V30 1259 N 126.934 0.9888 -6.85707 0
M  V30 1260 N 128.727 0.974312 -5.53592 0
M  V30 1261 H 120.878 -0.661655 -2.01831 0
M  V30 1262 H 123.141 -0.235261 -0.918344 0
M  V30 1263 H 122.847 -0.28732 -3.50524 0
M  V30 1264 H 122.721 1.46268 -3.47686 0
M  V30 1265 H 125.108 1.58055 -2.49204 0
M  V30 1266 H 125.189 -0.186022 -2.55123 0
M  V30 1267 H 124.833 -0.0954072 -5.0781 0
M  V30 1268 H 124.763 1.68255 -4.98997 0
M  V30 1269 H 127.254 0.818103 -3.68938 0
M  V30 1270 H 127.567 1.05707 -7.65536 0
M  V30 1271 H 125.912 0.957534 -6.88372 0
M  V30 1272 H 129.103 0.930954 -4.58749 0
M  V30 1273 H 129.276 1.04015 -6.39597 0
M  V30 1274 N 122.682 1.50554 0.465978 0
M  V30 1275 C 123.612 1.72722 1.57128 0
M  V30 1276 C 124.593 0.576294 1.6004 0
M  V30 1277 O 125.778 0.81598 1.76225 0
M  V30 1278 C 122.908 1.82605 2.95419 0
M  V30 1279 C 121.862 2.97835 3.07373 0
M  V30 1280 C 121.188 2.92867 4.47363 0
M  V30 1281 C 122.488 4.38265 2.84114 0
M  V30 1282 H 124.182 2.65267 1.38829 0
M  V30 1283 H 121.728 1.2765 0.666441 0
M  V30 1284 H 123.681 1.96698 3.72677 0
M  V30 1285 H 122.405 0.866858 3.14886 0
M  V30 1286 H 121.064 2.83401 2.3255 0
M  V30 1287 H 120.712 1.94783 4.63755 0
M  V30 1288 H 120.412 3.70227 4.56296 0
M  V30 1289 H 121.936 3.09015 5.26633 0
M  V30 1290 H 123.35 4.53198 3.51118 0
M  V30 1291 H 121.747 5.17115 3.04487 0
M  V30 1292 H 122.817 4.50281 1.7993 0
M  V30 1293 N 124.16 -0.719506 1.40217 0
M  V30 1294 C 125.576 -1.02707 1.22161 0
M  V30 1295 C 125.776 -2.0128 0.0940557 0
M  V30 1296 O 124.832 -2.46452 -0.549318 0
M  V30 1297 C 126.145 -1.57454 2.56181 0
M  V30 1298 C 127.693 -1.69458 2.63159 0
M  V30 1299 C 128.168 -2.27611 3.97438 0
M  V30 1300 N 129.659 -2.35002 3.99159 0
M  V30 1301 C 130.394 -2.80972 4.99842 0
M  V30 1302 N 129.89 -3.26723 6.10921 0
M  V30 1303 N 131.683 -2.80321 4.87213 0
M  V30 1304 H 123.834 -0.0660492 2.12297 0
M  V30 1305 H 126.097 -0.0919077 0.943534 0
M  V30 1306 H 125.803 -0.924873 3.39321 0
M  V30 1307 H 125.677 -2.56036 2.76993 0
M  V30 1308 H 128.064 -2.33543 1.80393 0
M  V30 1309 H 128.145 -0.694867 2.46181 0
M  V30 1310 H 127.789 -1.6415 4.80643 0
M  V30 1311 H 127.719 -3.2829 4.11744 0
M  V30 1312 H 130.21 -2.02685 3.18947 0
M  V30 1313 H 130.523 -3.60355 6.8364 0
M  V30 1314 H 128.868 -3.24692 6.14492 0
M  V30 1315 H 132.059 -2.43912 3.9953 0
M  V30 1316 H 132.232 -3.15831 5.65822 0
M  V30 1317 N 125.638 -1.25649 -0.95132 0
M  V30 1318 C 126.884 -1.10757 -1.69884 0
M  V30 1319 C 127.217 0.350061 -1.91019 0
M  V30 1320 O 126.492 1.25783 -1.48354 0
M  V30 1321 C 126.775 -1.86606 -3.07978 0
M  V30 1322 C 126.628 -3.40217 -2.94232 0
M  V30 1323 C 127.947 -1.65182 -4.07925 0
M  V30 1324 H 125.066 -0.40374 -0.616574 0
M  V30 1325 H 127.708 -1.54521 -1.10558 0
M  V30 1326 H 125.858 -1.49409 -3.58621 0
M  V30 1327 H 127.53 -3.87108 -2.50889 0
M  V30 1328 H 125.773 -3.67759 -2.30078 0
M  V30 1329 H 126.444 -3.88505 -3.92133 0
M  V30 1330 H 128.92 -1.9757 -3.66204 0
M  V30 1331 H 127.796 -2.20683 -5.02583 0
M  V30 1332 H 128.057 -0.593933 -4.38092 0
M  V30 1333 N 127.117 1.15442 -1.07289 0
M  V30 1334 C 128.027 2.23786 -0.704057 0
M  V30 1335 C 129.043 1.7166 0.284413 0
M  V30 1336 O 130.219 2.00972 0.131205 0
M  V30 1337 C 127.284 3.46535 -0.106792 0
M  V30 1338 C 126.345 4.13654 -1.14842 0
M  V30 1339 C 125.578 5.30544 -0.57956 0
M  V30 1340 O 125.801 5.67187 0.604585 0
M  V30 1341 O 124.735 5.87154 -1.32414 0
M  V30 1342 H 128.561 2.57664 -1.60757 0
M  V30 1343 H 126.146 1.23152 -0.845803 0
M  V30 1344 H 128.028 4.20804 0.224048 0
M  V30 1345 H 126.703 3.14407 0.770049 0
M  V30 1346 H 125.61 3.4131 -1.5316 0
M  V30 1347 H 126.943 4.49861 -1.99714 0
M  V30 1348 N 128.595 0.856903 1.32268 0
M  V30 1349 C 129.842 0.461386 1.97174 0
M  V30 1350 C 130.17 -0.983491 1.67803 0
M  V30 1351 O 129.425 -1.70541 0.959903 0
M  V30 1352 C 129.724 0.649919 3.51441 0
M  V30 1353 C 129.39 2.0656 4.00804 0
M  V30 1354 C 128.052 2.45279 4.13995 0
M  V30 1355 C 130.404 2.98947 4.26943 0
M  V30 1356 C 127.732 3.75653 4.50668 0
M  V30 1357 C 130.084 4.28822 4.65075 0
M  V30 1358 C 128.748 4.67472 4.76472 0
M  V30 1359 H 128.018 0.168833 0.72151 0
M  V30 1360 H 130.665 1.08739 1.57633 0
M  V30 1361 H 128.97 -0.0593018 3.91755 0
M  V30 1362 H 130.667 0.32391 3.9969 0
M  V30 1363 H 127.257 1.75495 3.91024 0
M  V30 1364 H 131.441 2.70265 4.16258 0
M  V30 1365 H 126.697 4.05379 4.57688 0
M  V30 1366 H 130.871 5.0047 4.84255 0
M  V30 1367 H 128.498 5.68539 5.04646 0
M  V30 1368 N 130.073 -1.45103 0.615059 0
M  V30 1369 C 131.484 -1.85654 0.197383 0
M  V30 1370 C 131.835 -1.51433 -1.24749 0
M  V30 1371 O 130.96 -0.944608 -1.94695 0
M  V30 1372 C 131.555 -3.36972 0.351448 0
M  V30 1373 C 130.114 -3.76398 -0.011593 0
M  V30 1374 C 129.261 -2.69024 0.672394 0
M  V30 1375 H 132.212 -1.35797 0.821263 0
M  V30 1376 H 132.233 -3.78239 -0.414227 0
M  V30 1377 H 131.745 -3.61847 1.40314 0
M  V30 1378 H 129.846 -3.5714 -1.06217 0
M  V30 1379 H 129.959 -4.77532 0.387265 0
M  V30 1380 H 128.323 -2.54465 0.109284 0
M  V30 1381 H 129.106 -2.96735 1.72636 0
M  V30 1382 N 131.551 -0.354651 -1.53558 0
M  V30 1383 C 132.967 -0.00315426 -1.596 0
M  V30 1384 C 133.167 1.47741 -1.37021 0
M  V30 1385 O 132.223 2.23759 -1.16996 0
M  V30 1386 C 133.536 -0.44929 -2.97325 0
M  V30 1387 C 135.084 -0.402578 -3.104 0
M  V30 1388 C 135.559 -0.824355 -4.5052 0
M  V30 1389 N 137.05 -0.778979 -4.56603 0
M  V30 1390 C 137.785 -1.07715 -5.63192 0
M  V30 1391 N 137.281 -1.44405 -6.77583 0
M  V30 1392 N 139.074 -1.00066 -5.53121 0
M  V30 1393 H 131.225 -1.31893 -1.66487 0
M  V30 1394 H 133.488 -0.538388 -0.780284 0
M  V30 1395 H 133.194 -1.48202 -3.1895 0
M  V30 1396 H 133.068 0.169772 -3.76818 0
M  V30 1397 H 135.455 0.621004 -2.88492 0
M  V30 1398 H 135.536 -1.05699 -2.32941 0
M  V30 1399 H 135.18 -1.846 -4.73165 0
M  V30 1400 H 135.11 -0.147304 -5.26394 0
M  V30 1401 H 137.601 -0.508528 -3.74463 0
M  V30 1402 H 137.914 -1.65612 -7.54846 0
M  V30 1403 H 136.259 -1.4826 -6.79002 0
M  V30 1404 H 139.45 -0.713293 -4.62633 0
M  V30 1405 H 139.623 -1.23638 -6.36096 0
M  V30 1406 N 133.029 1.57378 -0.0835403 0
M  V30 1407 C 134.254 1.98682 0.594987 0
M  V30 1408 C 134.679 0.961969 1.61641 0
M  V30 1409 O 134.037 -0.0709989 1.81161 0
M  V30 1410 C 134.085 3.38988 1.2296 0
M  V30 1411 O 133.189 3.39208 2.34546 0
M  V30 1412 H 132.53 0.646368 0.152002 0
M  V30 1413 H 135.06 2.03961 -0.161533 0
M  V30 1414 H 135.07 3.76431 1.57366 0
M  V30 1415 H 133.745 4.13107 0.481228 0
M  V30 1416 H 132.322 3.13548 2.01846 0
M  V30 1417 N 134.507 -0.190092 1.56449 0
M  V30 1418 C 135.755 -0.907908 1.80559 0
M  V30 1419 C 136.076 -1.83583 0.657438 0
M  V30 1420 O 135.346 -1.93203 -0.323924 0
M  V30 1421 H 133.926 -0.338247 0.666032 0
M  V30 1422 H 136.588 -0.194403 1.93928 0
M  V30 1423 H 135.684 -1.49604 2.73907 0
M  V30 1424 N 135.985 -1.50799 -0.457987 0
M  V30 1425 C 137.401 -1.38515 -0.792819 0
M  V30 1426 C 137.601 -0.451409 -1.96379 0
M  V30 1427 O 136.657 0.10112 -2.52297 0
M  V30 1428 C 137.97 -2.80149 -1.09258 0
M  V30 1429 C 139.518 -2.89156 -1.19825 0
M  V30 1430 C 139.993 -4.31651 -1.53106 0
M  V30 1431 N 141.484 -4.34662 -1.60072 0
M  V30 1432 C 142.219 -5.41928 -1.87354 0
M  V30 1433 N 141.715 -6.59384 -2.12568 0
M  V30 1434 N 143.508 -5.29385 -1.88965 0
M  V30 1435 H 135.659 -2.10073 0.313511 0
M  V30 1436 H 137.922 -0.944803 0.0777862 0
M  V30 1437 H 137.628 -3.50374 -0.305084 0
M  V30 1438 H 137.502 -3.18204 -2.02549 0
M  V30 1439 H 139.889 -2.19141 -1.97639 0
M  V30 1440 H 139.97 -2.54626 -0.244821 0
M  V30 1441 H 139.614 -5.02208 -0.758266 0
M  V30 1442 H 139.544 -4.63678 -2.49621 0
M  V30 1443 H 142.035 -3.49973 -1.42573 0
M  V30 1444 H 142.348 -7.36934 -2.32696 0
M  V30 1445 H 140.693 -6.62535 -2.09933 0
M  V30 1446 H 143.884 -4.36616 -1.68772 0
M  V30 1447 H 144.057 -6.13066 -2.09891 0
M  V30 1448 N 137.463 0.71206 -1.40597 0
M  V30 1449 C 138.711 1.46907 -1.38791 0
M  V30 1450 C 139.032 1.94998 0.00780391 0
M  V30 1451 O 138.302 1.70587 0.963174 0
M  V30 1452 H 136.882 0.545043 -0.51082 0
M  V30 1453 H 139.544 0.843882 -1.75683 0
M  V30 1454 H 138.64 2.34021 -2.06496 0
M  V30 1455 N 138.941 1.26152 0.944643 0
M  V30 1456 C 140.169 1.14259 1.72489 0
M  V30 1457 C 140.584 -0.302555 1.8636 0
M  V30 1458 O 139.941 -1.20741 1.36849 0
M  V30 1459 C 139.992 1.80266 3.13347 0
M  V30 1460 O 139.713 3.19133 3.00143 0
M  V30 1461 C 141.214 1.74283 4.07603 0
M  V30 1462 H 138.434 0.398051 0.540181 0
M  V30 1463 H 140.978 1.66706 1.18446 0
M  V30 1464 H 139.133 1.31766 3.64303 0
M  V30 1465 H 139.547 3.51744 3.89071 0
M  V30 1466 H 141.021 2.25111 5.04013 0
M  V30 1467 H 141.498 0.708631 4.33446 0
M  V30 1468 H 142.104 2.22319 3.62567 0
M  V30 1469 N 140.419 -1.14872 1.07899 0
M  V30 1470 C 141.667 -1.85422 0.803941 0
M  V30 1471 C 141.988 -1.83051 -0.67211 0
M  V30 1472 O 141.258 -1.27532 -1.48703 0
M  V30 1473 H 139.838 -0.686537 0.294408 0
M  V30 1474 H 142.5 -1.39226 1.3639 0
M  V30 1475 H 141.596 -2.90399 1.14346 0
M  V30 1476 N 141.898 -0.863906 -1.31812 0
M  V30 1477 C 143.314 -0.555004 -1.49639 0
M  V30 1478 C 143.514 0.912266 -1.79666 0
M  V30 1479 O 142.57 1.69479 -1.87171 0
M  V30 1480 C 143.883 -1.44998 -2.63431 0
M  V30 1481 C 145.431 -1.45138 -2.77316 0
M  V30 1482 C 145.906 -2.33179 -3.94197 0
M  V30 1483 N 147.397 -2.31025 -4.01474 0
M  V30 1484 C 148.132 -2.95871 -4.9117 0
M  V30 1485 N 147.628 -3.69863 -5.8581 0
M  V30 1486 N 149.421 -2.85211 -4.84367 0
M  V30 1487 H 141.572 -1.81339 -1.10589 0
M  V30 1488 H 143.835 -0.77505 -0.545895 0
M  V30 1489 H 143.541 -2.49377 -2.48 0
M  V30 1490 H 143.415 -1.14409 -3.59431 0
M  V30 1491 H 145.802 -0.415201 -2.92164 0
M  V30 1492 H 145.883 -1.79747 -1.82001 0
M  V30 1493 H 145.527 -3.3687 -3.80107 0
M  V30 1494 H 145.457 -1.95897 -4.88807 0
M  V30 1495 H 147.948 -1.77238 -3.33759 0
M  V30 1496 H 148.261 -4.16486 -6.50968 0
M  V30 1497 H 146.606 -3.73971 -5.85808 0
M  V30 1498 H 149.797 -2.26948 -4.09405 0
M  V30 1499 H 149.97 -3.36027 -5.54066 0
M  V30 1500 N 143.376 1.44774 -0.622745 0
M  V30 1501 C 144.624 2.01721 -0.123655 0
M  V30 1502 C 144.945 1.49172 1.25589 0
M  V30 1503 O 144.215 0.691974 1.83272 0
M  V30 1504 H 142.795 0.745777 -0.0427225 0
M  V30 1505 H 145.457 1.77382 -0.807559 0
M  V30 1506 H 144.553 3.11984 -0.0849534 0
M  V30 1507 N 144.854 0.36279 1.53368 0
M  V30 1508 C 146.102 -0.227326 2.00817 0
M  V30 1509 C 146.423 -1.49511 1.25186 0
M  V30 1510 O 145.693 -1.92482 0.364348 0
M  V30 1511 H 144.273 -0.0869923 0.741917 0
M  V30 1512 H 146.935 0.488381 1.88682 0
M  V30 1513 H 146.031 -0.456273 3.08747 0
M  V30 1514 N 146.332 -1.57332 0.0918853 0
M  V30 1515 C 147.58 -1.93853 -0.571446 0
M  V30 1516 C 147.901 -0.974212 -1.6892 0
M  V30 1517 O 147.171 -0.0257254 -1.95883 0
M  V30 1518 H 145.751 -0.715666 -0.214082 0
M  V30 1519 H 148.413 -1.94287 0.154464 0
M  V30 1520 H 147.509 -2.96191 -0.983729 0
M  V30 1521 N 147.81 0.181792 -1.56548 0
M  V30 1522 C 149.058 0.89832 -1.81038 0
M  V30 1523 C 149.379 1.83232 -0.667164 0
M  V30 1524 O 148.649 1.93372 0.313673 0
M  V30 1525 H 147.229 0.33471 -0.667816 0
M  V30 1526 H 149.891 0.184116 -1.94028 0
M  V30 1527 H 148.987 1.4815 -2.74696 0
M  V30 1528 N 149.288 1.51039 0.449983 0
M  V30 1529 C 150.536 1.62759 1.19808 0
M  V30 1530 C 150.857 0.339981 1.92013 0
M  V30 1531 O 150.127 -0.643606 1.85026 0
M  V30 1532 H 148.707 0.599811 0.445237 0
M  V30 1533 H 151.369 1.87914 0.517138 0
M  V30 1534 H 150.465 2.44911 1.93455 0
M  V30 1535 N 150.766 -0.704594 1.40972 0
M  V30 1536 C 152.014 -1.46169 1.39568 0
M  V30 1537 C 152.335 -1.95 0.00253745 0
M  V30 1538 O 151.605 -1.71095 -0.954114 0
M  V30 1539 H 150.185 -0.542326 0.513704 0
M  V30 1540 H 152.847 -0.834553 1.76128 0
M  V30 1541 H 151.943 -2.32922 2.07735 0
M  V30 1542 N 152.244 -1.26651 -0.937939 0
M  V30 1543 C 153.492 -1.12165 -1.68118 0
M  V30 1544 C 153.813 0.334983 -1.92101 0
M  V30 1545 O 153.083 1.23583 -1.52 0
M  V30 1546 H 151.663 -0.412093 -0.623048 0
M  V30 1547 H 154.325 -1.59027 -1.12678 0
M  V30 1548 H 153.421 -1.64289 -2.6536 0
M  V30 1549 N 153.722 1.14298 -1.08507 0
M  V30 1550 C 154.97 1.84993 -0.813763 0
M  V30 1551 C 155.291 1.83405 0.662393 0
M  V30 1552 O 154.561 1.28319 1.48024 0
M  V30 1553 H 153.141 0.684966 -0.298045 0
M  V30 1554 H 155.803 1.385 -1.37126 0
M  V30 1555 H 154.899 2.89788 -1.15884 0
M  V30 1556 N 155.201 0.870884 1.31352 0
M  V30 1557 C 156.449 0.48132 1.96285 0
M  V30 1558 C 156.77 -0.969813 1.69173 0
M  V30 1559 O 156.04 -1.67998 1.00764 0
M  V30 1560 H 154.62 0.175002 0.726212 0
M  V30 1561 H 157.282 1.11087 1.60143 0
M  V30 1562 H 156.378 0.639825 3.05471 0
M  V30 1563 N 156.679 -1.44442 0.630414 0
M  V30 1564 C 157.642 -2.29107 -0.0652523 0
M  V30 1565 C 158.642 -1.41002 -0.772995 0
M  V30 1566 O 159.832 -1.62881 -0.617692 0
M  V30 1567 C 156.964 -3.22564 -1.10296 0
M  V30 1568 H 158.157 -2.92103 0.679401 0
M  V30 1569 H 155.71 -1.51343 0.390517 0
M  V30 1570 H 156.445 -2.64416 -1.87762 0
M  V30 1571 H 156.23 -3.87491 -0.59941 0
M  V30 1572 H 157.72 -3.86167 -1.5895 0
M  V30 1573 N 158.157 -0.370918 -1.53173 0
M  V30 1574 C 159.568 0.107139 -1.86392 0
M  V30 1575 C 159.919 1.47714 -1.29132 0
M  V30 1576 O 159.044 2.07464 -0.615439 0
M  V30 1577 C 159.639 0.201187 -3.38202 0
M  V30 1578 C 158.198 0.623507 -3.712 0
M  V30 1579 C 157.345 -0.225978 -2.76378 0
M  V30 1580 H 160.296 -0.58951 -1.47345 0
M  V30 1581 H 160.317 1.02377 -3.66468 0
M  V30 1582 H 159.829 -0.796058 -3.79848 0
M  V30 1583 H 157.93 1.62879 -3.35114 0
M  V30 1584 H 158.043 0.394414 -4.77474 0
M  V30 1585 H 156.407 0.305962 -2.52856 0
M  V30 1586 H 157.19 -1.22086 -3.20858 0
M  V30 1587 N 159.635 1.57281 -0.100228 0
M  V30 1588 C 161.051 1.57527 0.256416 0
M  V30 1589 C 161.251 1.11173 1.68056 0
M  V30 1590 O 160.307 0.79053 2.39806 0
M  V30 1591 C 161.62 3.00673 0.0401747 0
M  V30 1592 C 163.168 3.12815 0.107528 0
M  V30 1593 C 163.643 4.57929 -0.0807834 0
M  V30 1594 N 165.134 4.63193 -0.0261207 0
M  V30 1595 C 165.869 5.73212 -0.146999 0
M  V30 1596 N 165.365 6.92047 -0.322999 0
M  V30 1597 N 167.158 5.62031 -0.0879044 0
M  V30 1598 H 159.309 1.85718 -1.03065 0
M  V30 1599 H 161.572 0.857446 -0.404339 0
M  V30 1600 H 161.278 3.38804 -0.943649 0
M  V30 1601 H 161.152 3.69042 0.780262 0
M  V30 1602 H 163.539 2.74554 1.08186 0
M  V30 1603 H 163.62 2.47028 -0.664134 0
M  V30 1604 H 163.264 4.96886 -1.05201 0
M  V30 1605 H 163.194 5.21783 0.710635 0
M  V30 1606 H 165.685 3.77748 0.107161 0
M  V30 1607 H 165.998 7.7173 -0.406608 0
M  V30 1608 H 164.343 6.94074 -0.358733 0
M  V30 1609 H 167.534 4.68075 0.048498 0
M  V30 1610 H 167.707 6.47734 -0.185557 0
M  V30 1611 N 161.113 -0.173488 1.56642 0
M  V30 1612 C 162.361 -0.888706 1.81512 0
M  V30 1613 C 162.682 -1.82875 0.676872 0
M  V30 1614 O 161.952 -1.93536 -0.303414 0
M  V30 1615 H 160.532 -0.331164 0.669582 0
M  V30 1616 H 163.194 -0.173823 1.94123 0
M  V30 1617 H 162.29 -1.46691 2.75478 0
M  V30 1618 N 162.591 -1.51276 -0.441967 0
M  V30 1619 C 164.007 -1.39349 -0.778083 0
M  V30 1620 C 164.207 -0.472212 -1.95889 0
M  V30 1621 O 163.263 0.0743551 -2.5239 0
M  V30 1622 C 164.576 -2.81292 -1.0628 0
M  V30 1623 C 166.124 -2.9041 -1.16751 0
M  V30 1624 C 166.599 -4.33251 -1.48519 0
M  V30 1625 N 168.09 -4.36336 -1.55453 0
M  V30 1626 C 168.825 -5.43885 -1.81596 0
M  V30 1627 N 168.321 -6.61601 -2.05562 0
M  V30 1628 N 170.114 -5.3136 -1.8334 0
M  V30 1629 H 162.265 -2.09729 0.335774 0
M  V30 1630 H 164.528 -0.943925 0.0878028 0
M  V30 1631 H 164.234 -3.50678 -0.267905 0
M  V30 1632 H 164.108 -3.20334 -1.99163 0
M  V30 1633 H 166.495 -2.21225 -1.95304 0
M  V30 1634 H 166.576 -2.54871 -0.217801 0
M  V30 1635 H 166.22 -5.02984 -0.704958 0
M  V30 1636 H 166.15 -4.66299 -2.44689 0
M  V30 1637 H 168.641 -3.51466 -1.38853 0
M  V30 1638 H 168.954 -7.39361 -2.24867 0
M  V30 1639 H 167.299 -6.64725 -2.02894 0
M  V30 1640 H 170.49 -4.38382 -1.64132 0
M  V30 1641 H 170.663 -6.15258 -2.03377 0
M  V30 1642 N 164.069 0.697108 -1.41344 0
M  V30 1643 C 165.299 1.48377 -1.43763 0
M  V30 1644 C 165.707 1.89156 -0.0408726 0
M  V30 1645 O 165.05 1.57239 0.949812 0
M  V30 1646 C 165.112 2.7781 -2.2817 0
M  V30 1647 C 164.776 2.59244 -3.76353 0
M  V30 1648 C 165.773 2.25292 -4.68551 0
M  V30 1649 C 163.458 2.74933 -4.20378 0
M  V30 1650 C 165.452 2.07264 -6.02761 0
M  V30 1651 C 163.139 2.56521 -5.54653 0
M  V30 1652 C 164.137 2.22737 -6.4566 0
M  V30 1653 O 163.825 2.04485 -7.77458 0
M  V30 1654 H 163.557 0.463842 -0.491759 0
M  V30 1655 H 166.111 0.865934 -1.86255 0
M  V30 1656 H 164.341 3.41995 -1.8049 0
M  V30 1657 H 166.03 3.39608 -2.22309 0
M  V30 1658 H 166.796 2.12787 -4.35829 0
M  V30 1659 H 162.675 3.00213 -3.49848 0
M  V30 1660 H 166.219 1.80817 -6.73759 0
M  V30 1661 H 162.116 2.68616 -5.86955 0
M  V30 1662 H 162.884 2.1926 -7.88586 0
M  V30 1663 N 165.547 1.27147 0.931209 0
M  V30 1664 C 166.795 1.13055 1.6752 0
M  V30 1665 C 167.116 -0.324791 1.92276 0
M  V30 1666 O 166.386 -1.22775 1.52654 0
M  V30 1667 H 164.966 0.415391 0.620854 0
M  V30 1668 H 167.628 1.59623 1.11833 0
M  V30 1669 H 166.724 1.65694 2.64485 0
M  V30 1670 N 167.025 -1.13721 1.09112 0
M  V30 1671 C 168.436 -1.6648 0.845068 0
M  V30 1672 C 168.787 -1.85911 -0.62701 0
M  V30 1673 O 167.912 -1.57556 -1.48341 0
M  V30 1674 C 168.507 -3.02413 1.52748 0
M  V30 1675 C 167.066 -3.52176 1.32849 0
M  V30 1676 C 166.213 -2.27492 1.58564 0
M  V30 1677 H 169.164 -0.976872 1.25072 0
M  V30 1678 H 169.185 -3.68223 0.958752 0
M  V30 1679 H 168.697 -2.88238 2.59885 0
M  V30 1680 H 166.798 -3.7156 0.278137 0
M  V30 1681 H 166.911 -4.32499 2.0611 0
M  V30 1682 H 165.275 -2.33923 1.00758 0
M  V30 1683 H 166.058 -2.15886 2.66924 0
M  V30 1684 N 168.503 -0.877838 -1.30888 0
M  V30 1685 C 169.914 -0.544193 -1.78593 0
M  V30 1686 C 170.265 0.939301 -1.72254 0
M  V30 1687 O 169.39 1.7337 -1.29505 0
M  V30 1688 C 169.985 -0.98105 -3.24285 0
M  V30 1689 C 168.544 -0.698935 -3.69854 0
M  V30 1690 C 167.691 -1.168 -2.51502 0
M  V30 1691 H 170.642 -1.06278 -1.17859 0
M  V30 1692 H 170.663 -0.307009 -3.79259 0
M  V30 1693 H 170.175 -2.06079 -3.28866 0
M  V30 1694 H 168.276 0.369112 -3.70767 0
M  V30 1695 H 168.389 -1.28148 -4.61644 0
M  V30 1696 H 166.753 -0.587535 -2.47831 0
M  V30 1697 H 167.536 -2.25533 -2.58824 0
M  V30 1698 N 169.982 1.44106 -0.638065 0
M  V30 1699 C 171.207 2.0685 -0.150916 0
M  V30 1700 C 171.632 1.47417 1.16833 0
M  V30 1701 O 170.99 0.578264 1.71831 0
M  V30 1702 C 171.038 3.60555 -0.05708 0
M  V30 1703 O 170.142 4.00465 0.984972 0
M  V30 1704 H 169.483 0.658151 -0.0879399 0
M  V30 1705 H 172.013 1.84865 -0.876707 0
M  V30 1706 H 172.023 4.07789 0.131232 0
M  V30 1707 H 170.698 4.03193 -1.02021 0
M  V30 1708 H 169.275 3.64849 0.770672 0
M  V30 1709 N 171.46 0.379036 1.52974 0
M  V30 1710 C 172.876 0.0285448 1.59574 0
M  V30 1711 C 173.076 -1.45542 1.39355 0
M  V30 1712 O 172.132 -2.2187 1.20541 0
M  V30 1713 C 173.445 0.496535 2.96572 0
M  V30 1714 C 174.993 0.451909 3.0972 0
M  V30 1715 C 175.468 0.895924 4.49152 0
M  V30 1716 N 176.959 0.851522 4.55306 0
M  V30 1717 C 177.694 1.16661 5.61407 0
M  V30 1718 N 177.19 1.55166 6.752 0
M  V30 1719 N 178.983 1.08853 5.51459 0
M  V30 1720 H 171.134 1.34525 1.64367 0
M  V30 1721 H 173.397 0.550733 0.771619 0
M  V30 1722 H 173.103 1.53258 3.16552 0
M  V30 1723 H 172.977 -0.109802 3.7704 0
M  V30 1724 H 175.364 -0.575029 2.89443 0
M  V30 1725 H 175.445 1.09392 2.3123 0
M  V30 1726 H 175.089 1.92104 4.70168 0
M  V30 1727 H 175.019 0.23103 5.26093 0
M  V30 1728 H 177.51 0.568038 3.73606 0
M  V30 1729 H 177.823 1.776 7.52116 0
M  V30 1730 H 176.168 1.59044 6.76557 0
M  V30 1731 H 179.359 0.786803 4.6144 0
M  V30 1732 H 179.532 1.33742 6.34048 0
M  V30 1733 N 172.938 -1.57226 0.108567 0
M  V30 1734 C 174.354 -1.5766 -0.248058 0
M  V30 1735 C 174.554 -1.12063 -1.67464 0
M  V30 1736 O 173.61 -0.803236 -2.39383 0
M  V30 1737 C 174.923 -3.0069 -0.0242287 0
M  V30 1738 C 176.471 -3.12868 -0.0909372 0
M  V30 1739 C 176.946 -4.57879 0.105067 0
M  V30 1740 N 178.437 -4.63172 0.0506846 0
M  V30 1741 C 179.172 -5.73126 0.177396 0
M  V30 1742 N 178.668 -6.91866 0.359696 0
M  V30 1743 N 180.461 -5.61977 0.117709 0
M  V30 1744 H 172.612 -1.85169 1.04049 0
M  V30 1745 H 174.875 -0.85529 0.40888 0
M  V30 1746 H 174.581 -3.38299 0.961604 0
M  V30 1747 H 174.455 -3.6945 -0.76068 0
M  V30 1748 H 176.842 -2.75124 -1.06729 0
M  V30 1749 H 176.923 -2.46672 0.677225 0
M  V30 1750 H 176.567 -4.96321 1.07834 0
M  V30 1751 H 176.497 -5.22153 -0.682954 0
M  V30 1752 H 178.988 -3.778 -0.0871266 0
M  V30 1753 H 179.301 -7.71503 0.447529 0
M  V30 1754 H 177.646 -6.93874 0.395536 0
M  V30 1755 H 180.837 -4.68094 -0.0236741 0
M  V30 1756 H 181.01 -6.47627 0.219905 0
M  V30 1757 N 174.416 0.165178 -1.56732 0
M  V30 1758 C 175.641 0.900253 -1.86843 0
M  V30 1759 C 176.066 1.74766 -0.695596 0
M  V30 1760 O 175.424 1.77786 0.35522 0
M  V30 1761 C 175.472 1.74777 -3.15413 0
M  V30 1762 O 174.576 2.85007 -2.98068 0
M  V30 1763 H 173.917 0.251832 -0.614391 0
M  V30 1764 H 176.447 0.161468 -2.03962 0
M  V30 1765 H 176.457 2.14646 -3.46974 0
M  V30 1766 H 175.132 1.12537 -4.00385 0
M  V30 1767 H 173.709 2.48676 -2.77875 0
M  V30 1768 N 175.894 1.51508 0.433938 0
M  V30 1769 C 176.804 1.75917 1.5521 0
M  V30 1770 C 177.82 0.643545 1.61662 0
M  V30 1771 O 178.996 0.926183 1.7884 0
M  V30 1772 C 176.061 1.88213 2.91164 0
M  V30 1773 C 175.122 3.12074 2.94802 0
M  V30 1774 C 174.355 3.23774 4.24271 0
M  V30 1775 O 174.578 2.4133 5.16833 0
M  V30 1776 O 173.512 4.16774 4.34262 0
M  V30 1777 H 177.338 2.70777 1.37527 0
M  V30 1778 H 174.923 1.36051 0.617293 0
M  V30 1779 H 176.805 1.98267 3.71845 0
M  V30 1780 H 175.48 0.965413 3.08968 0
M  V30 1781 H 174.387 3.07497 2.13065 0
M  V30 1782 H 175.72 4.03446 2.81943 0
M  V30 1783 N 177.372 -0.689602 1.41712 0
M  V30 1784 C 178.32 -1.82475 1.44242 0
M  V30 1785 C 179.314 -1.66354 0.319774 0
M  V30 1786 O 180.52 -1.73143 0.492089 0
M  V30 1787 H 176.895 -0.601416 0.451445 0
M  V30 1788 H 178.866 -1.77458 2.39899 0
M  V30 1789 C 177.615 -3.20535 1.3473 0
M  V30 1790 H 176.938 -3.33559 2.20405 0
M  V30 1791 H 178.378 -4.00023 1.40562 0
M  V30 1792 C 176.837 -3.36846 0.0603281 0
M  V30 1793 O 177.367 -3.91656 -0.892663 0
M  V30 1794 N 175.573 -2.90595 -0.0177039 0
M  V30 1795 H 175.12 -2.46178 0.758572 0
M  V30 1796 H 175.078 -3.01886 -0.878201 0
M  V30 1797 N 178.85 -1.27639 -0.924453 0
M  V30 1798 C 180.266 -1.05113 -1.20097 0
M  V30 1799 C 180.466 0.213262 -2.00368 0
M  V30 1800 O 179.522 0.91787 -2.35226 0
M  V30 1801 C 180.835 -2.29244 -1.94596 0
M  V30 1802 C 182.383 -2.34315 -2.07522 0
M  V30 1803 C 182.858 -3.58183 -2.85427 0
M  V30 1804 N 184.349 -3.5876 -2.92994 0
M  V30 1805 C 185.084 -4.51277 -3.53746 0
M  V30 1806 N 184.58 -5.54102 -4.15863 0
M  V30 1807 N 186.373 -4.38894 -3.51181 0
M  V30 1808 H 178.524 -2.08821 -0.388264 0
M  V30 1809 H 180.787 -0.918568 -0.234385 0
M  V30 1810 H 180.493 -3.21301 -1.43034 0
M  V30 1811 H 180.367 -2.34816 -2.95197 0
M  V30 1812 H 182.754 -1.42762 -2.58269 0
M  V30 1813 H 182.835 -2.32744 -1.06131 0
M  V30 1814 H 182.479 -4.50074 -2.35363 0
M  V30 1815 H 182.409 -3.57006 -3.8711 0
M  V30 1816 H 184.9 -2.84398 -2.4885 0
M  V30 1817 H 185.213 -6.20859 -4.60168 0
M  V30 1818 H 183.558 -5.57941 -4.144 0
M  V30 1819 H 186.749 -3.57772 -3.01856 0
M  V30 1820 H 186.922 -5.11186 -3.98237 0
M  V30 1821 N 180.328 1.1314 -1.09713 0
M  V30 1822 C 181.574 1.84757 -0.836224 0
M  V30 1823 C 181.907 1.8347 0.636598 0
M  V30 1824 O 181.182 1.27491 1.46889 0
M  V30 1825 C 181.465 3.32782 -1.37578 0
M  V30 1826 C 181.318 3.42567 -2.91493 0
M  V30 1827 C 182.637 4.28307 -1.01198 0
M  V30 1828 H 179.756 0.67082 -0.305236 0
M  V30 1829 H 182.398 1.3278 -1.35903 0
M  V30 1830 H 180.548 3.77177 -0.931097 0
M  V30 1831 H 182.22 3.06862 -3.44432 0
M  V30 1832 H 180.463 2.83349 -3.28475 0
M  V30 1833 H 181.134 4.46674 -3.24324 0
M  V30 1834 H 183.61 3.91999 -1.39556 0
M  V30 1835 H 182.486 5.30307 -1.41653 0
M  V30 1836 H 182.747 4.42029 0.0794833 0
M  V30 1837 N 181.806 0.884767 1.30421 0
M  V30 1838 C 183.052 0.503851 1.96441 0
M  V30 1839 C 183.385 -0.944518 1.69684 0
M  V30 1840 O 182.66 -1.66737 1.00145 0
M  V30 1841 C 182.943 0.779085 3.51571 0
M  V30 1842 C 182.796 2.27807 3.87846 0
M  V30 1843 C 184.115 0.255452 4.39358 0
M  V30 1844 H 181.234 0.184533 0.713524 0
M  V30 1845 H 183.876 1.10872 1.54297 0
M  V30 1846 H 182.026 0.264274 3.876 0
M  V30 1847 H 183.698 2.86127 3.61841 0
M  V30 1848 H 181.941 2.74479 3.35922 0
M  V30 1849 H 182.612 2.42125 4.96064 0
M  V30 1850 H 185.088 0.696079 4.10236 0
M  V30 1851 H 183.964 0.477361 5.4682 0
M  V30 1852 H 184.225 -0.843293 4.33983 0
M  V30 1853 N 183.284 -1.43765 0.645699 0
M  V30 1854 C 184.53 -2.02197 0.156271 0
M  V30 1855 C 184.863 -1.50776 -1.22393 0
M  V30 1856 O 184.138 -0.697771 -1.81553 0
M  V30 1857 C 184.421 -3.59749 0.158872 0
M  V30 1858 C 184.274 -4.21419 1.57245 0
M  V30 1859 C 185.593 -4.37149 -0.50879 0
M  V30 1860 H 182.712 -0.734694 0.0582602 0
M  V30 1861 H 185.354 -1.71157 0.824951 0
M  V30 1862 H 183.504 -3.86325 -0.410525 0
M  V30 1863 H 185.176 -4.059 2.19186 0
M  V30 1864 H 183.419 -3.78356 2.122 0
M  V30 1865 H 184.09 -5.30482 1.52619 0
M  V30 1866 H 186.566 -4.16093 -0.024412 0
M  V30 1867 H 185.442 -5.4683 -0.476213 0
M  V30 1868 H 185.703 -4.12839 -1.58165 0
M  V30 1869 N 184.763 -0.387143 -1.52771 0
M  V30 1870 C 185.988 0.198407 -2.06449 0
M  V30 1871 C 186.413 1.39918 -1.25716 0
M  V30 1872 O 185.771 1.79099 -0.281657 0
M  V30 1873 C 185.819 0.548893 -3.56398 0
M  V30 1874 O 184.923 1.64315 -3.78252 0
M  V30 1875 H 184.264 0.0237731 -0.663574 0
M  V30 1876 H 186.794 -0.553989 -1.96957 0
M  V30 1877 H 186.804 0.813812 -3.99801 0
M  V30 1878 H 185.479 -0.329005 -4.14597 0
M  V30 1879 H 184.056 1.37211 -3.46738 0
M  V30 1880 N 186.241 1.57166 -0.116904 0
M  V30 1881 C 187.489 1.94737 0.540533 0
M  V30 1882 C 187.81 1.00096 1.67349 0
M  V30 1883 O 187.08 0.0568854 1.95817 0
M  V30 1884 H 185.66 0.718981 0.202669 0
M  V30 1885 H 188.322 1.94017 -0.185353 0
M  V30 1886 H 187.418 2.97719 0.936483 0
M  V30 1887 N 187.719 -0.156864 1.56817 0
M  V30 1888 C 188.649 -1.19589 2.00551 0
M  V30 1889 C 189.63 -1.4536 0.883426 0
M  V30 1890 O 190.815 -1.56449 1.15054 0
M  V30 1891 C 187.945 -2.53143 2.37773 0
M  V30 1892 C 186.899 -2.41913 3.53075 0
M  V30 1893 C 186.225 -3.80088 3.76081 0
M  V30 1894 C 187.525 -1.91157 4.86062 0
M  V30 1895 H 189.219 -0.832293 2.87599 0
M  V30 1896 H 186.765 -0.398918 1.38364 0
M  V30 1897 H 188.718 -3.26047 2.66967 0
M  V30 1898 H 187.442 -2.91319 1.4765 0
M  V30 1899 H 186.101 -1.71462 3.24031 0
M  V30 1900 H 185.749 -4.15683 2.83225 0
M  V30 1901 H 185.449 -3.73439 4.53671 0
M  V30 1902 H 186.973 -4.54556 4.0769 0
M  V30 1903 H 188.387 -2.53846 5.14038 0
M  V30 1904 H 186.784 -1.95422 5.67389 0
M  V30 1905 H 187.854 -0.866673 4.77092 0
M  V30 1906 N 189.197 -1.51736 -0.425897 0
M  V30 1907 C 190.608 -1.5732 -1.00536 0
M  V30 1908 C 190.959 -0.403537 -1.92005 0
M  V30 1909 O 190.084 0.478256 -2.11049 0
M  V30 1910 C 190.679 -2.85119 -1.8301 0
M  V30 1911 C 189.238 -2.93236 -2.35987 0
M  V30 1912 C 188.385 -2.52098 -1.15508 0
M  V30 1913 H 191.336 -1.57348 -0.206739 0
M  V30 1914 H 191.357 -2.69526 -2.68581 0
M  V30 1915 H 190.869 -3.7023 -1.16411 0
M  V30 1916 H 188.97 -2.12581 -3.06007 0
M  V30 1917 H 189.083 -3.9713 -2.68001 0
M  V30 1918 H 187.447 -2.05558 -1.50393 0
M  V30 1919 H 188.23 -3.39565 -0.505014 0
M  V30 1920 N 190.675 0.682077 -1.42076 0
M  V30 1921 C 192.086 1.26246 -1.37546 0
M  V30 1922 C 192.437 1.96092 -0.0651481 0
M  V30 1923 O 191.562 1.99587 0.836297 0
M  V30 1924 C 192.157 2.29594 -2.49143 0
M  V30 1925 C 190.716 2.83175 -2.47969 0
M  V30 1926 C 189.863 1.57395 -2.28303 0
M  V30 1927 H 192.814 0.475937 -1.51395 0
M  V30 1928 H 192.835 3.11175 -2.18976 0
M  V30 1929 H 192.347 1.78729 -3.44496 0
M  V30 1930 H 190.448 3.3818 -1.56413 0
M  V30 1931 H 190.561 3.32687 -3.44755 0
M  V30 1932 H 188.925 1.83699 -1.76428 0
M  V30 1933 H 189.708 1.08507 -3.25701 0
M  V30 1934 N 192.153 1.28127 0.917671 0
M  V30 1935 C 193.378 1.18007 1.70555 0
M  V30 1936 C 193.803 -0.258257 1.86319 0
M  V30 1937 O 193.161 -1.1869 1.37049 0
M  V30 1938 C 193.209 1.87948 3.07746 0
M  V30 1939 O 192.313 1.18427 3.9503 0
M  V30 1940 H 191.654 0.409867 0.522403 0
M  V30 1941 H 194.184 1.69379 1.1477 0
M  V30 1942 H 194.194 1.95701 3.58001 0
M  V30 1943 H 192.869 2.92573 2.95591 0
M  V30 1944 H 191.446 1.18811 3.53466 0
M  V30 1945 N 193.631 -1.12557 1.10312 0
M  V30 1946 C 194.879 -1.83675 0.843091 0
M  V30 1947 C 195.2 -1.84435 -0.633131 0
M  V30 1948 O 194.47 -1.30657 -1.45964 0
M  V30 1949 H 193.05 -0.680138 0.308904 0
M  V30 1950 H 195.712 -1.36301 1.39313 0
M  V30 1951 H 194.808 -2.87908 1.2048 0
M  V30 1952 N 195.109 -0.891671 -1.2995 0
M  V30 1953 C 196.334 -0.527932 -2.00568 0
M  V30 1954 C 196.759 0.877969 -1.66353 0
M  V30 1955 O 196.117 1.58301 -0.883762 0
M  V30 1956 C 196.165 -0.717745 -3.53385 0
M  V30 1957 O 195.269 0.233376 -4.11739 0
M  V30 1958 H 194.61 -0.20722 -0.630837 0
M  V30 1959 H 197.14 -1.20105 -1.65638 0
M  V30 1960 H 197.15 -0.619307 -4.03272 0
M  V30 1961 H 195.825 -1.74276 -3.77625 0
M  V30 1962 H 194.402 0.0880706 -3.72796 0
M  V30 1963 N 196.587 1.43421 -0.653314 0
M  V30 1964 C 197.833 2.02641 -0.175593 0
M  V30 1965 C 198.188 1.5062 1.19713 0
M  V30 1966 O 197.481 0.689697 1.78756 0
M  V30 1967 C 197.675 3.57176 -0.126623 0
M  V30 1968 C 197.504 4.24191 -1.49306 0
M  V30 1969 C 196.274 4.60257 -2.08547 0
M  V30 1970 C 198.472 4.53193 -2.43148 0
M  V30 1971 N 196.454 5.12345 -3.38194 0
M  V30 1972 C 197.825 5.06601 -3.57429 0
M  V30 1973 C 199.88 4.35161 -2.41949 0
M  V30 1974 C 198.583 5.43875 -4.70736 0
M  V30 1975 C 200.609 4.73498 -3.54336 0
M  V30 1976 C 199.971 5.27039 -4.67343 0
M  V30 1977 H 196.07 0.77441 -0.108686 0
M  V30 1978 H 198.654 1.74596 -0.861638 0
M  V30 1979 H 196.825 3.84784 0.528766 0
M  V30 1980 H 198.557 4.03078 0.36198 0
M  V30 1981 H 195.312 4.45302 -1.61255 0
M  V30 1982 H 195.736 5.42842 -4.04538 0
M  V30 1983 H 200.378 3.9304 -1.55818 0
M  V30 1984 H 198.096 5.8494 -5.57558 0
M  V30 1985 H 201.682 4.61241 -3.5461 0
M  V30 1986 H 200.562 5.56153 -5.52868 0
M  V30 1987 N 198.065 0.39524 1.52563 0
M  V30 1988 C 198.997 -0.472201 2.24283 0
M  V30 1989 C 200.01 -1.02178 1.26742 0
M  V30 1990 O 201.199 -0.923097 1.52778 0
M  V30 1991 C 198.299 -1.66775 2.95024 0
M  V30 1992 C 197.472 -1.2445 4.19322 0
M  V30 1993 C 196.531 -2.30539 4.7301 0
M  V30 1994 O 195.557 -1.91702 5.35947 0
M  V30 1995 N 196.759 -3.6253 4.53379 0
M  V30 1996 H 199.524 0.142282 2.99362 0
M  V30 1997 H 197.085 0.2219 1.60372 0
M  V30 1998 H 199.077 -2.37283 3.27839 0
M  V30 1999 H 197.647 -2.18845 2.23217 0
M  V30 2000 H 196.867 -0.368069 3.92478 0
M  V30 2001 H 198.155 -0.938457 5.0007 0
M  V30 2002 H 197.553 -3.96841 4.03154 0
M  V30 2003 H 196.11 -4.29055 4.90668 0
M  V30 2004 N 199.544 -1.57102 0.125237 0
M  V30 2005 C 200.821 -1.86953 -0.575142 0
M  V30 2006 C 201.201 -1.02749 -1.84407 0
M  V30 2007 O 200.549 -0.108144 -2.28244 0
M  V30 2008 C 200.759 -3.38198 -0.861583 0
M  V30 2009 C 202.107 -4.06937 -1.21192 0
M  V30 2010 O 203.131 -3.43252 -0.951645 0
M  V30 2011 O 201.99 -5.19364 -1.70068 0
M  V30 2012 H 199.084 -0.774147 -0.290906 0
M  V30 2013 H 201.63 -1.68942 0.160211 0
M  V30 2014 H 200.402 -3.91282 0.0373647 0
M  V30 2015 H 200.025 -3.61661 -1.65188 0
M  V30 2016 N 201.022 0.148545 -1.56898 0
M  V30 2017 C 201.952 1.18524 -2.01182 0
M  V30 2018 C 202.933 1.4489 -0.891123 0
M  V30 2019 O 204.118 1.55836 -1.15882 0
M  V30 2020 C 201.248 2.51879 -2.39112 0
M  V30 2021 C 200.202 2.40038 -3.54353 0
M  V30 2022 C 199.528 3.78089 -3.78091 0
M  V30 2023 C 200.828 1.88577 -4.87069 0
M  V30 2024 H 202.522 0.817029 -2.88036 0
M  V30 2025 H 200.068 0.391575 -1.38574 0
M  V30 2026 H 202.021 3.24627 -2.68692 0
M  V30 2027 H 200.745 2.90532 -1.49193 0
M  V30 2028 H 199.404 1.69742 -3.24936 0
M  V30 2029 H 199.052 4.14175 -2.85426 0
M  V30 2030 H 198.752 3.71028 -4.55645 0
M  V30 2031 H 200.276 4.52387 -4.10095 0
M  V30 2032 H 201.69 2.51117 -5.15377 0
M  V30 2033 H 200.087 1.9241 -5.68417 0
M  V30 2034 H 201.157 0.84136 -4.77545 0
M  V30 2035 N 202.5 1.5196 0.417844 0
M  V30 2036 C 203.447 1.74678 1.50852 0
M  V30 2037 C 204.417 0.588947 1.55308 0
M  V30 2038 O 205.602 0.825544 1.72016 0
M  V30 2039 C 202.742 1.89544 2.88387 0
M  V30 2040 C 201.855 3.17166 2.93309 0
M  V30 2041 C 200.99 3.22513 4.22088 0
M  V30 2042 C 200.029 4.44372 4.20951 0
M  V30 2043 N 199.166 4.47161 5.41287 0
M  V30 2044 H 204.006 2.67768 1.30783 0
M  V30 2045 H 201.543 1.32689 0.63498 0
M  V30 2046 H 203.501 1.96146 3.68216 0
M  V30 2047 H 202.131 0.998424 3.06971 0
M  V30 2048 H 201.183 3.19778 2.06024 0
M  V30 2049 H 202.495 4.07021 2.88332 0
M  V30 2050 H 201.649 3.28139 5.10303 0
M  V30 2051 H 200.388 2.30581 4.29748 0
M  V30 2052 H 199.393 4.38902 3.31127 0
M  V30 2053 H 200.618 5.3759 4.14938 0
M  V30 2054 H 198.564 3.58108 5.49632 0
M  V30 2055 H 198.481 5.3085 5.3827 0
M  V30 2056 H 199.749 4.57005 6.3148 0
M  V30 2057 N 203.978 -0.674533 1.42435 0
M  V30 2058 C 205.255 -1.4305 1.33402 0
M  V30 2059 C 205.635 -2.11081 -0.0284674 0
M  V30 2060 O 204.983 -2.03257 -1.04397 0
M  V30 2061 C 205.193 -2.43272 2.50239 0
M  V30 2062 C 206.541 -3.07907 2.92367 0
M  V30 2063 O 207.565 -2.53599 2.50132 0
M  V30 2064 O 206.424 -4.0632 3.65467 0
M  V30 2065 H 203.518 -0.638076 0.526106 0
M  V30 2066 H 206.064 -0.703235 1.54443 0
M  V30 2067 H 204.836 -1.91803 3.41068 0
M  V30 2068 H 204.459 -3.23479 2.31186 0
M  V30 2069 N 205.456 -1.28612 -0.910864 0
M  V30 2070 C 206.406 -1.09423 -2.00026 0
M  V30 2071 C 207.39 -0.0170079 -1.60891 0
M  V30 2072 O 208.582 -0.237472 -1.754 0
M  V30 2073 C 205.711 -0.76114 -3.34756 0
M  V30 2074 C 204.797 -1.87735 -3.80285 0
M  V30 2075 N 205.188 -3.11938 -3.98156 0
M  V30 2076 C 203.486 -1.76786 -4.09467 0
M  V30 2077 C 204.187 -3.84687 -4.36338 0
M  V30 2078 N 203.163 -3.12555 -4.44759 0
M  V30 2079 H 206.965 -2.03658 -2.11898 0
M  V30 2080 H 204.479 -1.19573 -1.09891 0
M  V30 2081 H 206.476 -0.604743 -4.12491 0
M  V30 2082 H 205.136 0.173403 -3.24237 0
M  V30 2083 H 206.147 -3.47516 -3.83996 0
M  V30 2084 H 202.824 -0.905284 -4.07567 0
M  V30 2085 H 204.214 -4.91518 -4.58104 0
M  V30 2086 N 206.934 1.1197 -1.10907 0
M  V30 2087 C 207.867 2.16998 -0.706192 0
M  V30 2088 C 208.845 1.59903 0.294897 0
M  V30 2089 O 210.029 1.87513 0.192636 0
M  V30 2090 C 207.156 3.38673 -0.0427664 0
M  V30 2091 C 206.202 4.14414 -1.00811 0
M  V30 2092 S 207.035 4.72079 -2.52789 0
M  V30 2093 C 208.191 5.97083 -1.87731 0
M  V30 2094 H 208.424 2.50837 -1.59587 0
M  V30 2095 H 205.957 1.23508 -0.926555 0
M  V30 2096 H 207.915 4.09142 0.333668 0
M  V30 2097 H 206.576 3.03105 0.823788 0
M  V30 2098 H 205.769 5.016 -0.491259 0
M  V30 2099 H 205.371 3.49678 -1.3267 0
M  V30 2100 H 207.663 6.66599 -1.21044 0
M  V30 2101 H 208.606 6.53403 -2.72892 0
M  V30 2102 H 209.014 5.4837 -1.33979 0
M  V30 2103 N 208.412 0.89855 1.29475 0
M  V30 2104 C 209.828 0.594483 1.48115 0
M  V30 2105 C 210.028 -0.86431 1.82022 0
M  V30 2106 O 209.084 -1.64457 1.91599 0
M  V30 2107 C 210.397 1.51932 2.59494 0
M  V30 2108 C 211.945 1.5244 2.7337 0
M  V30 2109 C 212.42 2.43548 3.87877 0
M  V30 2110 N 213.911 2.41589 3.95208 0
M  V30 2111 C 214.646 3.08789 4.83153 0
M  V30 2112 N 214.142 3.85265 5.75798 0
M  V30 2113 N 215.935 2.97952 4.76635 0
M  V30 2114 H 208.086 1.84207 1.05742 0
M  V30 2115 H 210.349 0.789251 0.525154 0
M  V30 2116 H 210.055 2.55865 2.41301 0
M  V30 2117 H 209.929 1.23899 3.56271 0
M  V30 2118 H 212.316 0.492518 2.90961 0
M  V30 2119 H 212.397 1.8451 1.77172 0
M  V30 2120 H 212.041 3.46829 3.71041 0
M  V30 2121 H 211.971 2.08788 4.83441 0
M  V30 2122 H 214.462 1.86025 3.28943 0
M  V30 2123 H 214.775 4.33598 6.39697 0
M  V30 2124 H 213.12 3.89371 5.75687 0
M  V30 2125 H 216.311 2.37723 4.03244 0
M  V30 2126 H 216.484 3.50599 5.44962 0
M  V30 2127 N 209.89 -1.43072 0.660911 0
M  V30 2128 C 210.8 -2.34585 -0.0264163 0
M  V30 2129 C 211.816 -1.54316 -0.803898 0
M  V30 2130 O 212.992 -1.86939 -0.749391 0
M  V30 2131 C 210.057 -3.32689 -0.975639 0
M  V30 2132 C 209.118 -4.2886 -0.194236 0
M  V30 2133 C 208.351 -5.22278 -1.09825 0
M  V30 2134 O 208.574 -5.20299 -2.33763 0
M  V30 2135 O 207.508 -5.99228 -0.566513 0
M  V30 2136 H 211.334 -2.94869 0.727034 0
M  V30 2137 H 208.919 -1.43342 0.42111 0
M  V30 2138 H 210.801 -3.92995 -1.52094 0
M  V30 2139 H 209.476 -2.74898 -1.70918 0
M  V30 2140 H 208.383 -3.72011 0.394835 0
M  V30 2141 H 209.716 -4.89655 0.499899 0
M  V30 2142 N 211.368 -0.403325 -1.52352 0
M  V30 2143 C 212.331 0.413051 -2.25447 0
M  V30 2144 C 213.331 0.978513 -1.276 0
M  V30 2145 O 214.521 0.858305 -1.51587 0
M  V30 2146 C 211.653 1.58087 -3.02029 0
M  V30 2147 H 212.846 -0.227094 -2.99039 0
M  V30 2148 H 210.399 -0.155722 -1.55522 0
M  V30 2149 H 211.134 2.25804 -2.32772 0
M  V30 2150 H 210.919 1.18195 -3.73861 0
M  V30 2151 H 212.409 2.1585 -3.57489 0
M  V30 2152 N 212.846 1.57033 -0.133567 0
M  V30 2153 C 214.094 1.953 0.519848 0
M  V30 2154 C 214.415 1.01866 1.66278 0
M  V30 2155 O 213.685 0.0776513 1.95746 0
M  V30 2156 H 212.265 0.721091 0.195032 0
M  V30 2157 H 214.927 1.93809 -0.205921 0
M  V30 2158 H 214.023 2.98695 0.904854 0
M  V30 2159 N 214.325 -0.140222 1.56975 0
M  V30 2160 C 215.602 -0.880769 1.74648 0
M  V30 2161 C 215.982 -1.99036 0.703404 0
M  V30 2162 O 215.33 -2.26821 -0.27648 0
M  V30 2163 C 215.54 -1.417 3.18939 0
M  V30 2164 C 216.888 -1.87774 3.80823 0
M  V30 2165 O 217.912 -1.51427 3.2241 0
M  V30 2166 O 216.771 -2.54827 4.83452 0
M  V30 2167 H 213.865 -0.416713 0.714338 0
M  V30 2168 H 216.411 -0.125618 1.69234 0
M  V30 2169 H 215.183 -0.619902 3.86359 0
M  V30 2170 H 214.806 -2.23546 3.28805 0
M  V30 2171 N 215.803 -1.52179 -0.40978 0
M  V30 2172 C 217.049 -1.66453 -1.15851 0
M  V30 2173 C 217.382 -0.392972 -1.90182 0
M  V30 2174 O 216.657 0.608579 -1.84734 0
M  V30 2175 C 216.94 -2.88612 -2.15349 0
M  V30 2176 C 216.793 -4.25815 -1.44918 0
M  V30 2177 C 218.112 -3.06294 -3.16026 0
M  V30 2178 H 215.231 -0.60575 -0.419805 0
M  V30 2179 H 217.873 -1.84732 -0.444314 0
M  V30 2180 H 216.023 -2.73158 -2.76255 0
M  V30 2181 H 217.695 -4.52995 -0.871365 0
M  V30 2182 H 215.938 -4.27247 -0.751159 0
M  V30 2183 H 216.609 -5.07337 -2.17516 0
M  V30 2184 H 219.085 -3.20641 -2.65195 0
M  V30 2185 H 217.961 -3.93283 -3.8291 0
M  V30 2186 H 218.222 -2.19579 -3.83715 0
M  V30 2187 N 217.281 0.66697 -1.42791 0
M  V30 2188 C 218.521 1.43892 -1.4517 0
M  V30 2189 C 218.885 1.91877 -0.0687551 0
M  V30 2190 O 220.086 2.6878 0.0327455 0
M  V30 2191 C 218.357 2.59839 -2.45395 0
M  V30 2192 S 219.916 3.48572 -2.66539 0
M  V30 2193 H 216.734 0.491356 -0.513897 0
M  V30 2194 H 219.336 0.775656 -1.79454 0
M  V30 2195 H 218.04 2.22838 -3.44632 0
M  V30 2196 H 217.571 3.3103 -2.12562 0
M  V30 2197 H 219.586 4.56094 -1.95429 0
M  V30 2198 N 218.759 1.29093 0.90403 0
M  V30 2199 C 219.989 1.19516 1.68522 0
M  V30 2200 C 220.397 -0.24738 1.87576 0
M  V30 2201 O 219.74 -1.17798 1.40959 0
M  V30 2202 C 219.802 1.83249 3.0929 0
M  V30 2203 C 219.466 3.32531 3.13484 0
M  V30 2204 C 220.463 4.28821 2.93953 0
M  V30 2205 C 218.148 3.73656 3.35688 0
M  V30 2206 C 220.142 5.64212 2.96553 0
M  V30 2207 C 217.829 5.0917 3.37919 0
M  V30 2208 C 218.827 6.04258 3.18373 0
M  V30 2209 O 218.515 7.37298 3.20385 0
M  V30 2210 H 218.247 0.415467 0.533257 0
M  V30 2211 H 220.801 1.70912 1.13922 0
M  V30 2212 H 219.031 1.26358 3.65473 0
M  V30 2213 H 220.72 1.68054 3.69476 0
M  V30 2214 H 221.486 3.98382 2.76616 0
M  V30 2215 H 217.365 3.00101 3.49943 0
M  V30 2216 H 220.909 6.38407 2.81216 0
M  V30 2217 H 216.806 5.39256 3.54787 0
M  V30 2218 H 217.574 7.46048 3.36681 0
M  V30 2219 N 220.237 -1.11381 1.11499 0
M  V30 2220 C 221.2 -2.15622 0.777153 0
M  V30 2221 C 222.2 -1.59504 -0.203779 0
M  V30 2222 O 223.39 -1.74188 0.020782 0
M  V30 2223 C 220.522 -3.40556 0.153116 0
M  V30 2224 H 221.715 -2.47021 1.70061 0
M  V30 2225 H 219.268 -1.26577 0.916952 0
M  V30 2226 H 220.003 -3.14767 -0.780536 0
M  V30 2227 H 219.788 -3.8257 0.859238 0
M  V30 2228 H 221.278 -4.17546 -0.0671044 0
M  V30 2229 N 221.715 -0.905404 -1.28997 0
M  V30 2230 C 222.992 -0.453513 -1.9027 0
M  V30 2231 C 223.372 1.06721 -1.82137 0
M  V30 2232 O 222.72 1.91159 -1.25182 0
M  V30 2233 C 222.93 -0.974494 -3.35119 0
M  V30 2234 C 224.278 -1.0216 -4.12127 0
M  V30 2235 O 225.302 -0.922557 -3.44046 0
M  V30 2236 O 224.161 -1.17121 -5.33802 0
M  V30 2237 H 221.255 -0.142347 -0.814657 0
M  V30 2238 H 223.801 -0.995642 -1.37423 0
M  V30 2239 H 222.573 -2.01848 -3.35221 0
M  V30 2240 H 222.196 -0.412706 -3.95452 0
M  V30 2241 N 223.193 1.4272 -0.668489 0
M  V30 2242 C 224.439 2.01923 -0.188419 0
M  V30 2243 C 224.772 1.52704 1.19979 0
M  V30 2244 O 224.047 0.726566 1.8042 0
M  V30 2245 C 224.33 3.59451 -0.216085 0
M  V30 2246 C 224.183 4.18864 -1.6393 0
M  V30 2247 C 225.502 4.37903 0.439179 0
M  V30 2248 H 222.621 0.733674 -0.0699412 0
M  V30 2249 H 225.263 1.69822 -0.852076 0
M  V30 2250 H 223.413 3.86929 0.349012 0
M  V30 2251 H 225.085 4.02362 -2.25616 0
M  V30 2252 H 223.328 3.74933 -2.18193 0
M  V30 2253 H 223.999 5.27987 -1.61039 0
M  V30 2254 H 226.475 4.16079 -0.0417878 0
M  V30 2255 H 225.351 5.47519 0.389157 0
M  V30 2256 H 225.612 4.15303 1.51577 0
M  V30 2257 N 224.671 0.411399 1.52136 0
M  V30 2258 C 225.901 -0.16284 2.05957 0
M  V30 2259 C 226.309 -1.3922 1.28119 0
M  V30 2260 O 225.652 -1.80768 0.326881 0
M  V30 2261 C 225.714 -0.575946 3.54856 0
M  V30 2262 C 225.378 0.542998 4.53763 0
M  V30 2263 C 226.375 1.40726 5.00492 0
M  V30 2264 C 224.06 0.716337 4.97166 0
M  V30 2265 C 226.054 2.4298 5.8927 0
M  V30 2266 C 223.741 1.74218 5.8574 0
M  V30 2267 C 224.739 2.59731 6.31687 0
M  V30 2268 O 224.427 3.60558 7.18507 0
M  V30 2269 H 224.159 -0.0229125 0.675612 0
M  V30 2270 H 226.713 0.581634 1.96993 0
M  V30 2271 H 224.943 -1.37274 3.61515 0
M  V30 2272 H 226.632 -1.07836 3.91313 0
M  V30 2273 H 227.398 1.28476 4.67674 0
M  V30 2274 H 223.277 0.0603857 4.6096 0
M  V30 2275 H 226.821 3.0976 6.25055 0
M  V30 2276 H 222.718 1.86498 6.17971 0
M  V30 2277 H 223.486 3.56829 7.36624 0
M  V30 2278 N 226.149 -1.5696 0.141893 0
M  V30 2279 C 227.565 -1.58151 -0.21456 0
M  V30 2280 C 227.765 -1.1559 -1.65049 0
M  V30 2281 O 226.821 -0.853832 -2.37626 0
M  V30 2282 C 228.134 -3.00674 0.0395576 0
M  V30 2283 C 229.682 -3.1299 -0.0245529 0
M  V30 2284 C 230.157 -4.57554 0.202167 0
M  V30 2285 N 231.648 -4.62961 0.148919 0
M  V30 2286 C 232.383 -5.7262 0.298924 0
M  V30 2287 N 231.879 -6.90947 0.50637 0
M  V30 2288 N 233.672 -5.61601 0.236886 0
M  V30 2289 H 225.823 -1.8292 1.07953 0
M  V30 2290 H 228.086 -0.846425 0.42693 0
M  V30 2291 H 227.792 -3.36183 1.03315 0
M  V30 2292 H 227.666 -3.70981 -0.682143 0
M  V30 2293 H 230.053 -2.77326 -1.00869 0
M  V30 2294 H 230.134 -2.4518 0.729396 0
M  V30 2295 H 229.778 -4.93922 1.18338 0
M  V30 2296 H 229.708 -5.23484 -0.572044 0
M  V30 2297 H 232.199 -3.77899 -0.00697015 0
M  V30 2298 H 232.512 -7.7038 0.611076 0
M  V30 2299 H 230.857 -6.92878 0.542628 0
M  V30 2300 H 234.048 -4.68039 0.0756209 0
M  V30 2301 H 234.221 -6.47015 0.357227 0
M  V30 2302 N 227.627 0.131896 -1.57047 0
M  V30 2303 C 228.904 0.871495 -1.75112 0
M  V30 2304 C 229.284 1.9866 -0.713949 0
M  V30 2305 O 228.632 2.26965 0.264447 0
M  V30 2306 C 228.842 1.40007 -3.19686 0
M  V30 2307 C 230.19 1.85752 -3.81813 0
M  V30 2308 O 231.214 1.49715 -3.23209 0
M  V30 2309 O 230.073 2.5226 -4.84796 0
M  V30 2310 H 227.167 0.412919 -0.716538 0
M  V30 2311 H 229.713 0.116641 -1.69299 0
M  V30 2312 H 228.485 0.599404 -3.86682 0
M  V30 2313 H 228.108 2.218 -3.29986 0
M  V30 2314 N 229.106 1.52395 0.401703 0
M  V30 2315 C 230.354 1.66488 1.14569 0
M  V30 2316 C 230.675 0.400897 1.90835 0
M  V30 2317 O 229.945 -0.584415 1.8698 0
M  V30 2318 H 228.525 0.613672 0.425929 0
M  V30 2319 H 231.187 1.89464 0.457093 0
M  V30 2320 H 230.283 2.50942 1.85566 0
M  V30 2321 N 230.584 -0.659388 1.43143 0
M  V30 2322 C 231.812 -1.44723 1.47861 0
M  V30 2323 C 232.227 -1.88563 0.0945886 0
M  V30 2324 O 231.584 -1.59108 -0.893915 0
M  V30 2325 C 231.635 -2.68627 2.41913 0
M  V30 2326 O 231.356 -2.26623 3.74932 0
M  V30 2327 C 232.857 -3.62045 2.55809 0
M  V30 2328 H 230.077 -0.444801 0.502387 0
M  V30 2329 H 232.621 -0.808916 1.87821 0
M  V30 2330 H 230.776 -3.28613 2.05164 0
M  V30 2331 H 231.19 -3.06745 4.2545 0
M  V30 2332 H 232.664 -4.45666 3.25708 0
M  V30 2333 H 233.141 -4.08981 1.60099 0
M  V30 2334 H 233.747 -3.07944 2.93344 0
M  V30 2335 N 232.062 -1.29571 -0.897171 0
M  V30 2336 C 233.31 -1.17456 -1.64464 0
M  V30 2337 C 233.631 0.273698 -1.9307 0
M  V30 2338 O 232.901 1.18684 -1.55855 0
M  V30 2339 H 231.481 -0.431706 -0.609622 0
M  V30 2340 H 234.143 -1.62531 -1.07562 0
M  V30 2341 H 233.239 -1.72648 -2.59998 0
M  V30 2342 N 233.54 1.10788 -1.12088 0
M  V30 2343 C 234.786 1.82942 -0.875226 0
M  V30 2344 C 235.119 1.84779 0.597538 0
M  V30 2345 O 234.394 1.30578 1.44152 0
M  V30 2346 C 234.677 3.29789 -1.44606 0
M  V30 2347 C 234.53 3.36307 -2.98693 0
M  V30 2348 C 235.849 4.26064 -1.10261 0
M  V30 2349 H 232.968 0.664195 -0.319397 0
M  V30 2350 H 235.61 1.29867 -1.38689 0
M  V30 2351 H 233.76 3.75118 -1.01089 0
M  V30 2352 H 235.432 2.99487 -3.50864 0
M  V30 2353 H 233.675 2.76318 -3.34411 0
M  V30 2354 H 234.346 4.39694 -3.33726 0
M  V30 2355 H 236.822 3.88951 -1.4784 0
M  V30 2356 H 235.698 5.27183 -1.52869 0
M  V30 2357 H 235.959 4.42098 -0.0142953 0
M  V30 2358 N 235.018 0.912232 1.28515 0
M  V30 2359 C 236.264 0.545405 1.95328 0
M  V30 2360 C 236.597 -0.908313 1.71649 0
M  V30 2361 O 235.872 -1.64575 1.03659 0
M  V30 2362 C 236.155 0.853483 3.4984 0
M  V30 2363 C 236.008 2.35982 3.82926 0
M  V30 2364 C 237.327 0.348589 4.38717 0
M  V30 2365 H 234.446 0.199626 0.709449 0
M  V30 2366 H 237.088 1.1412 1.5191 0
M  V30 2367 H 235.238 0.34643 3.86952 0
M  V30 2368 H 236.91 2.93738 3.55691 0
M  V30 2369 H 235.153 2.81543 3.30024 0
M  V30 2370 H 235.824 2.52593 4.90816 0
M  V30 2371 H 238.3 0.78294 4.08668 0
M  V30 2372 H 237.176 0.593242 5.45685 0
M  V30 2373 H 237.437 -0.751049 4.35674 0
M  V30 2374 N 236.496 -1.42363 0.676048 0
M  V30 2375 C 237.406 -2.346 -0.00153389 0
M  V30 2376 C 238.422 -1.5516 -0.787485 0
M  V30 2377 O 239.598 -1.87723 -0.729521 0
M  V30 2378 C 236.663 -3.33705 -0.940298 0
M  V30 2379 C 235.724 -4.29042 -0.148739 0
M  V30 2380 C 234.957 -5.23413 -1.04279 0
M  V30 2381 O 235.18 -5.22749 -2.28232 0
M  V30 2382 O 234.114 -5.99795 -0.502925 0
M  V30 2383 H 237.94 -2.94082 0.758268 0
M  V30 2384 H 235.525 -1.42888 0.436289 0
M  V30 2385 H 237.407 -3.94586 -1.47917 0
M  V30 2386 H 236.082 -2.76695 -1.67993 0
M  V30 2387 H 234.989 -3.71571 0.43427 0
M  V30 2388 H 236.322 -4.89097 0.551805 0
M  V30 2389 N 237.974 -0.419461 -1.51915 0
M  V30 2390 C 239.221 0.152939 -2.01922 0
M  V30 2391 C 239.549 1.4426 -1.30458 0
M  V30 2392 O 238.804 1.91514 -0.402593 0
M  V30 2393 C 239.103 0.437067 -3.54717 0
M  V30 2394 C 238.769 -0.764632 -4.44369 0
M  V30 2395 C 237.431 -1.09423 -4.68594 0
M  V30 2396 C 239.783 -1.56713 -4.97082 0
M  V30 2397 C 237.111 -2.22732 -5.42777 0
M  V30 2398 C 239.463 -2.69107 -5.72507 0
M  V30 2399 C 238.127 -3.02541 -5.95 0
M  V30 2400 H 237.397 0.0559644 -0.738884 0
M  V30 2401 H 240.044 -0.562998 -1.83037 0
M  V30 2402 H 238.349 1.23469 -3.71837 0
M  V30 2403 H 240.046 0.893083 -3.90928 0
M  V30 2404 H 236.636 -0.497775 -4.257 0
M  V30 2405 H 240.82 -1.32571 -4.78266 0
M  V30 2406 H 236.076 -2.48971 -5.58411 0
M  V30 2407 H 240.25 -3.31671 -6.12346 0
M  V30 2408 H 237.877 -3.90457 -6.52264 0
M  V30 2409 N 239.452 1.56882 -0.150215 0
M  V30 2410 C 240.698 1.96518 0.500834 0
M  V30 2411 C 241.031 1.03527 1.64304 0
M  V30 2412 O 240.306 0.0782751 1.94342 0
M  V30 2413 C 240.589 3.45822 1.00395 0
M  V30 2414 C 240.442 4.49591 -0.136983 0
M  V30 2415 C 241.761 3.97704 1.88467 0
M  V30 2416 H 238.88 0.714535 0.18058 0
M  V30 2417 H 241.522 1.88577 -0.232091 0
M  V30 2418 H 239.672 3.5272 1.62851 0
M  V30 2419 H 241.344 4.5477 -0.77343 0
M  V30 2420 H 239.587 4.26441 -0.795652 0
M  V30 2421 H 240.258 5.51402 0.256815 0
M  V30 2422 H 242.734 3.93304 1.35834 0
M  V30 2423 H 241.61 5.0263 2.20578 0
M  V30 2424 H 241.871 3.40252 2.82279 0
M  V30 2425 N 240.93 -0.123565 1.57115 0
M  V30 2426 C 242.346 -0.476961 1.52306 0
M  V30 2427 C 242.546 -1.82109 0.86248 0
M  V30 2428 O 241.602 -2.48586 0.442884 0
M  V30 2429 C 242.915 -0.465661 2.97073 0
M  V30 2430 C 244.463 -0.549534 3.08138 0
M  V30 2431 C 244.938 -0.568669 4.54456 0
M  V30 2432 N 246.429 -0.630237 4.58892 0
M  V30 2433 C 247.164 -0.666415 5.69514 0
M  V30 2434 N 246.66 -0.660514 6.89644 0
M  V30 2435 N 248.453 -0.709077 5.5761 0
M  V30 2436 H 240.604 0.757198 1.98445 0
M  V30 2437 H 242.867 0.278808 0.906074 0
M  V30 2438 H 242.573 0.454232 3.48754 0
M  V30 2439 H 242.447 -1.29513 3.54269 0
M  V30 2440 H 244.834 -1.45985 2.56461 0
M  V30 2441 H 244.915 0.307532 2.53945 0
M  V30 2442 H 244.559 0.337581 5.06777 0
M  V30 2443 H 244.489 -1.44256 5.06456 0
M  V30 2444 H 246.98 -0.641146 3.72421 0
M  V30 2445 H 247.293 -0.690616 7.69708 0
M  V30 2446 H 245.638 -0.628012 6.92157 0
M  V30 2447 H 248.829 -0.711019 4.62668 0
M  V30 2448 H 249.002 -0.733804 6.43832 0
M  V30 2449 N 242.408 -1.52605 -0.393616 0
M  V30 2450 C 243.355 -1.77055 -1.48054 0
M  V30 2451 C 244.325 -0.61358 -1.54352 0
M  V30 2452 O 245.51 -0.852806 -1.70681 0
M  V30 2453 C 242.65 -1.94108 -2.85335 0
M  V30 2454 C 241.763 -3.21792 -2.88226 0
M  V30 2455 C 240.898 -3.29188 -4.16904 0
M  V30 2456 C 239.937 -4.51013 -4.13828 0
M  V30 2457 N 239.074 -4.55716 -5.34105 0
M  V30 2458 H 243.914 -2.69815 -1.26506 0
M  V30 2459 H 241.451 -1.33683 -0.61379 0
M  V30 2460 H 243.409 -2.01979 -3.65049 0
M  V30 2461 H 242.039 -1.04713 -3.05344 0
M  V30 2462 H 241.091 -3.23015 -2.00911 0
M  V30 2463 H 242.403 -4.11557 -2.8182 0
M  V30 2464 H 241.557 -3.36216 -5.05018 0
M  V30 2465 H 240.296 -2.37389 -4.26026 0
M  V30 2466 H 239.301 -4.44115 -3.24102 0
M  V30 2467 H 240.526 -5.44123 -4.06333 0
M  V30 2468 H 238.472 -3.66807 -5.43865 0
M  V30 2469 H 238.389 -5.39346 -5.29756 0
M  V30 2470 H 239.657 -4.66993 -6.2413 0
M  V30 2471 N 243.887 0.651787 -1.4349 0
M  V30 2472 C 244.797 1.79368 -1.5121 0
M  V30 2473 C 245.813 1.69361 -0.399093 0
M  V30 2474 O 246.989 1.90505 -0.653431 0
M  V30 2475 C 244.054 3.15653 -1.43401 0
M  V30 2476 C 243.115 3.37446 -2.65384 0
M  V30 2477 C 242.348 4.67229 -2.57939 0
M  V30 2478 O 242.571 5.46676 -1.62792 0
M  V30 2479 O 241.505 4.90773 -3.48462 0
M  V30 2480 H 245.331 1.7581 -2.47638 0
M  V30 2481 H 242.916 0.810447 -1.25507 0
M  V30 2482 H 244.798 3.96935 -1.41494 0
M  V30 2483 H 243.473 3.19798 -0.501085 0
M  V30 2484 H 242.38 2.55923 -2.72863 0
M  V30 2485 H 243.713 3.38148 -3.57654 0
M  V30 2486 N 245.365 1.30045 0.890287 0
M  V30 2487 C 246.642 1.09227 1.62262 0
M  V30 2488 C 247.022 -0.360305 2.08002 0
M  V30 2489 O 246.37 -1.35084 1.84295 0
M  V30 2490 C 246.58 2.08835 2.79623 0
M  V30 2491 C 247.928 2.40266 3.50082 0
M  V30 2492 O 248.952 2.07104 2.89804 0
M  V30 2493 O 247.811 2.96967 4.58773 0
M  V30 2494 H 244.905 0.419132 0.712922 0
M  V30 2495 H 247.451 1.41451 0.937529 0
M  V30 2496 H 246.223 3.06633 2.43089 0
M  V30 2497 H 245.846 1.77397 3.55832 0
M  V30 2498 N 246.843 -1.10192 1.12674 0
M  V30 2499 C 247.776 -2.15847 0.740625 0
M  V30 2500 C 248.754 -1.60352 -0.269421 0
M  V30 2501 O 249.938 -1.87796 -0.16278 0
M  V30 2502 C 247.065 -3.38562 0.096641 0
M  V30 2503 C 246.111 -4.12758 1.07391 0
M  V30 2504 S 246.944 -4.67997 2.60267 0
M  V30 2505 C 248.1 -5.94021 1.97206 0
M  V30 2506 H 248.333 -2.48266 1.63558 0
M  V30 2507 H 245.866 -1.22019 0.946087 0
M  V30 2508 H 247.824 -4.09621 -0.268535 0
M  V30 2509 H 246.485 -3.04377 -0.775462 0
M  V30 2510 H 245.678 -5.00755 0.570997 0
M  V30 2511 H 245.28 -3.47523 1.38216 0
M  V30 2512 H 247.572 -6.64589 1.31634 0
M  V30 2513 H 248.515 -6.48979 2.83253 0
M  V30 2514 H 248.923 -5.46169 1.42686 0
M  V30 2515 N 248.321 -0.919034 -1.28029 0
M  V30 2516 C 249.549 -0.570971 -1.98866 0
M  V30 2517 C 249.964 0.848996 -1.68634 0
M  V30 2518 O 249.321 1.56307 -0.942036 0
M  V30 2519 C 249.372 -0.776876 -3.53054 0
M  V30 2520 O 249.093 -2.14097 -3.82222 0
M  V30 2521 C 250.594 -0.436356 -4.41147 0
M  V30 2522 H 247.814 -0.217175 -0.634883 0
M  V30 2523 H 250.358 -1.23368 -1.63097 0
M  V30 2524 H 248.513 -0.161085 -3.87065 0
M  V30 2525 H 248.927 -2.18455 -4.76841 0
M  V30 2526 H 250.401 -0.63117 -5.4838 0
M  V30 2527 H 250.878 0.627686 -4.34692 0
M  V30 2528 H 251.484 -1.02991 -4.12641 0
M  V30 2529 N 249.799 1.42003 -0.683588 0
M  V30 2530 C 251.029 2.05448 -0.217866 0
M  V30 2531 C 251.437 1.51491 1.13346 0
M  V30 2532 O 250.78 0.653048 1.717 0
M  V30 2533 C 250.842 3.59399 -0.0850118 0
M  V30 2534 C 250.506 4.36093 -1.36645 0
M  V30 2535 C 251.503 4.66169 -2.30179 0
M  V30 2536 C 249.188 4.75578 -1.61649 0
M  V30 2537 C 251.182 5.34676 -3.46988 0
M  V30 2538 C 248.869 5.43824 -2.78745 0
M  V30 2539 C 249.867 5.73299 -3.71238 0
M  V30 2540 O 249.555 6.40142 -4.86285 0
M  V30 2541 H 249.287 0.668344 -0.101454 0
M  V30 2542 H 251.841 1.82974 -0.933248 0
M  V30 2543 H 250.071 3.80566 0.686031 0
M  V30 2544 H 251.76 4.04457 0.341973 0
M  V30 2545 H 252.526 4.36156 -2.12115 0
M  V30 2546 H 248.405 4.52025 -0.905243 0
M  V30 2547 H 251.949 5.57599 -4.19201 0
M  V30 2548 H 247.846 5.73254 -2.96732 0
M  V30 2549 H 248.614 6.58636 -4.85944 0
M  V30 2550 N 251.277 0.427512 1.51691 0
M  V30 2551 C 252.24 -0.377132 2.26076 0
M  V30 2552 C 253.24 -0.958089 1.29141 0
M  V30 2553 O 254.43 -0.83408 1.52934 0
M  V30 2554 C 251.562 -1.53262 3.04506 0
M  V30 2555 H 252.755 0.27464 2.9864 0
M  V30 2556 H 250.308 0.180445 1.55255 0
M  V30 2557 H 251.043 -2.22072 2.36335 0
M  V30 2558 H 250.828 -1.12232 3.75694 0
M  V30 2559 H 252.318 -2.10135 3.60878 0
M  V30 2560 N 252.755 -1.56801 0.158532 0
M  V30 2561 C 254.001 -1.96781 -0.490405 0
M  V30 2562 C 254.334 -1.04397 -1.63753 0
M  V30 2563 O 253.609 -0.0885805 -1.94298 0
M  V30 2564 C 253.892 -3.4635 -0.985594 0
M  V30 2565 C 253.745 -4.49512 0.160824 0
M  V30 2566 C 255.064 -3.98697 -1.86355 0
M  V30 2567 H 252.183 -0.715482 -0.176788 0
M  V30 2568 H 254.825 -1.88451 0.242088 0
M  V30 2569 H 252.975 -3.53579 -1.60978 0
M  V30 2570 H 254.647 -4.54353 0.797537 0
M  V30 2571 H 252.89 -4.26013 0.818256 0
M  V30 2572 H 253.561 -5.51531 -0.227569 0
M  V30 2573 H 256.037 -3.94019 -1.33746 0
M  V30 2574 H 254.913 -5.03792 -2.17909 0
M  V30 2575 H 255.174 -3.41744 -2.8047 0
M  V30 2576 N 254.233 0.115231 -1.57178 0
M  V30 2577 C 255.649 0.468877 -1.52557 0
M  V30 2578 C 255.849 1.81649 -0.872125 0
M  V30 2579 O 254.905 2.48347 -0.45606 0
M  V30 2580 C 256.218 0.4499 -2.97315 0
M  V30 2581 C 257.766 0.533185 -3.08425 0
M  V30 2582 C 258.241 0.54456 -4.54751 0
M  V30 2583 N 259.732 0.605892 -4.5922 0
M  V30 2584 C 260.467 0.636203 -5.6986 0
M  V30 2585 N 259.963 0.623931 -6.89985 0
M  V30 2586 N 261.756 0.679496 -5.57978 0
M  V30 2587 H 253.907 -0.767712 -1.9804 0
M  V30 2588 H 256.17 -0.283609 -0.904583 0
M  V30 2589 H 255.876 -0.472721 -3.48509 0
M  V30 2590 H 255.75 1.27632 -3.5495 0
M  V30 2591 H 258.137 1.44623 -2.57232 0
M  V30 2592 H 258.218 -0.320995 -2.53778 0
M  V30 2593 H 257.862 -0.364452 -5.06591 0
M  V30 2594 H 257.792 1.41568 -5.07214 0
M  V30 2595 H 260.283 0.621386 -3.72756 0
M  V30 2596 H 260.596 0.649787 -7.70063 0
M  V30 2597 H 258.941 0.591296 -6.9248 0
M  V30 2598 H 262.132 0.686472 -4.63039 0
M  V30 2599 H 262.305 0.69965 -6.44212 0
M  V30 2600 N 255.711 1.52812 0.385517 0
M  V30 2601 C 256.658 1.77838 1.47113 0
M  V30 2602 C 257.628 0.621757 1.54024 0
M  V30 2603 O 258.813 0.861846 1.70226 0
M  V30 2604 C 255.953 1.95618 2.84302 0
M  V30 2605 C 255.066 3.23316 2.86515 0
M  V30 2606 C 254.201 3.31394 4.15152 0
M  V30 2607 C 253.24 4.53201 4.1143 0
M  V30 2608 N 252.377 4.58542 5.3168 0
M  V30 2609 H 257.217 2.70482 1.25073 0
M  V30 2610 H 254.754 1.34006 0.606692 0
M  V30 2611 H 256.712 2.03912 3.63972 0
M  V30 2612 H 255.342 1.06331 3.04784 0
M  V30 2613 H 254.394 3.24076 1.99195 0
M  V30 2614 H 255.706 4.13045 2.79634 0
M  V30 2615 H 254.86 3.3889 5.03228 0
M  V30 2616 H 253.599 2.39645 4.24761 0
M  V30 2617 H 252.604 4.45827 3.21742 0
M  V30 2618 H 253.829 5.46271 4.03442 0
M  V30 2619 H 251.775 3.69686 5.41912 0
M  V30 2620 H 251.692 5.42148 5.26889 0
M  V30 2621 H 252.96 4.70296 6.21644 0
M  V30 2622 N 257.189 -0.644168 1.43834 0
M  V30 2623 C 258.119 -1.76814 1.52509 0
M  V30 2624 C 259.1 -1.65823 0.379052 0
M  V30 2625 O 260.285 -1.84781 0.597466 0
M  V30 2626 C 257.415 -3.15288 1.4564 0
M  V30 2627 C 256.369 -3.41053 2.58586 0
M  V30 2628 C 255.695 -4.79421 2.36769 0
M  V30 2629 C 256.995 -3.34902 4.00797 0
M  V30 2630 H 258.689 -1.69812 2.46586 0
M  V30 2631 H 256.235 -0.815542 1.1868 0
M  V30 2632 H 258.188 -3.93681 1.50311 0
M  V30 2633 H 256.912 -3.23043 0.480725 0
M  V30 2634 H 255.571 -2.65035 2.53282 0
M  V30 2635 H 255.219 -4.83863 1.37424 0
M  V30 2636 H 254.919 -4.9762 3.12487 0
M  V30 2637 H 256.443 -5.6006 2.43238 0
M  V30 2638 H 257.857 -4.03218 4.07539 0
M  V30 2639 H 256.254 -3.64637 4.76613 0
M  V30 2640 H 257.324 -2.32928 4.25291 0
M  V30 2641 N 258.668 -1.30515 -0.883378 0
M  V30 2642 C 259.945 -1.10086 -1.6168 0
M  V30 2643 C 260.325 0.349269 -2.08191 0
M  V30 2644 O 259.673 1.34105 -1.85008 0
M  V30 2645 C 259.883 -2.10315 -2.78511 0
M  V30 2646 C 261.231 -2.42119 -3.48803 0
M  V30 2647 O 262.255 -2.08638 -2.88702 0
M  V30 2648 O 261.114 -2.99396 -4.57192 0
M  V30 2649 H 258.208 -0.422907 -0.710689 0
M  V30 2650 H 260.754 -1.41947 -0.930015 0
M  V30 2651 H 259.526 -3.07917 -2.41459 0
M  V30 2652 H 259.149 -1.79282 -3.54886 0
M  V30 2653 N 260.146 1.09593 -1.13257 0
M  V30 2654 C 261.094 2.18271 -0.803783 0
M  V30 2655 C 262.088 1.68054 0.213148 0
M  V30 2656 O 263.294 1.79862 0.0704699 0
M  V30 2657 H 259.669 0.711949 -0.242143 0
M  V30 2658 H 261.64 2.43235 -1.72856 0
M  V30 2659 C 260.389 3.46536 -0.28424 0
M  V30 2660 H 259.712 3.85545 -1.05807 0
M  V30 2661 H 261.152 4.23899 -0.0925945 0
M  V30 2662 C 259.611 3.22036 0.989684 0
M  V30 2663 O 260.141 3.44509 2.06584 0
M  V30 2664 N 258.347 2.7565 0.920086 0
M  V30 2665 H 257.894 2.57562 0.0442019 0
M  V30 2666 H 257.852 2.59635 1.77306 0
M  V30 2667 N 261.624 0.925811 1.2754 0
M  V30 2668 C 262.852 0.581509 1.9856 0
M  V30 2669 C 263.267 -0.840041 1.69082 0
M  V30 2670 O 262.624 -1.55805 0.950312 0
M  V30 2671 C 262.675 0.795589 3.52637 0
M  V30 2672 O 262.396 2.16121 3.81082 0
M  V30 2673 C 263.897 0.459744 4.4091 0
M  V30 2674 H 261.117 0.220538 0.633722 0
M  V30 2675 H 263.661 1.24232 1.6244 0
M  V30 2676 H 261.816 0.18161 3.86974 0
M  V30 2677 H 262.23 2.2098 4.75676 0
M  V30 2678 H 263.704 0.660244 5.48037 0
M  V30 2679 H 264.181 -0.604625 4.35018 0
M  V30 2680 H 264.787 1.05178 4.12089 0
M  V30 2681 N 263.102 -1.41638 0.69111 0
M  V30 2682 C 264.049 -2.30789 0.0229705 0
M  V30 2683 C 265.019 -1.46863 -0.775911 0
M  V30 2684 O 266.204 -1.75661 -0.74485 0
M  V30 2685 C 263.344 -3.32868 -0.910666 0
M  V30 2686 C 262.457 -4.31875 -0.103874 0
M  V30 2687 C 261.592 -5.21024 -1.03475 0
M  V30 2688 C 260.631 -6.11702 -0.220598 0
M  V30 2689 N 259.768 -6.93349 -1.10504 0
M  V30 2690 H 264.608 -2.87366 0.788978 0
M  V30 2691 H 262.145 -1.41535 0.400794 0
M  V30 2692 H 264.103 -3.90596 -1.46597 0
M  V30 2693 H 262.733 -2.77851 -1.64312 0
M  V30 2694 H 261.785 -3.76131 0.568285 0
M  V30 2695 H 263.097 -4.96003 0.527504 0
M  V30 2696 H 262.251 -5.83565 -1.65943 0
M  V30 2697 H 260.99 -4.57112 -1.69999 0
M  V30 2698 H 259.995 -5.48215 0.417187 0
M  V30 2699 H 261.22 -6.77668 0.440784 0
M  V30 2700 H 259.166 -6.3205 -1.75638 0
M  V30 2701 H 259.083 -7.54146 -0.529125 0
M  V30 2702 H 260.351 -7.60362 -1.71667 0
M  V30 2703 N 264.58 -0.43555 -1.51462 0
M  V30 2704 C 265.827 0.131514 -2.02072 0
M  V30 2705 C 266.155 1.42868 -1.31981 0
M  V30 2706 O 265.41 1.91076 -0.422883 0
M  V30 2707 C 265.709 0.39942 -3.55161 0
M  V30 2708 C 265.375 -0.81172 -4.43533 0
M  V30 2709 C 264.037 -1.14387 -4.67407 0
M  V30 2710 C 266.389 -1.61976 -4.95392 0
M  V30 2711 C 263.717 -2.28477 -5.40384 0
M  V30 2712 C 266.069 -2.75164 -5.6962 0
M  V30 2713 C 264.733 -3.08835 -5.91758 0
M  V30 2714 H 264.003 0.0481244 -0.739436 0
M  V30 2715 H 266.65 -0.58238 -1.8243 0
M  V30 2716 H 264.955 1.19519 -3.73125 0
M  V30 2717 H 266.652 0.85157 -3.91854 0
M  V30 2718 H 263.242 -0.542898 -4.25148 0
M  V30 2719 H 267.426 -1.37637 -4.76833 0
M  V30 2720 H 262.682 -2.5488 -5.55739 0
M  V30 2721 H 266.856 -3.38147 -6.08793 0
M  V30 2722 H 264.483 -3.97353 -6.48086 0
M  V30 2723 N 266.058 1.56714 -0.166846 0
M  V30 2724 C 267.474 1.58473 0.189372 0
M  V30 2725 C 267.674 1.18201 1.63189 0
M  V30 2726 O 266.73 0.891528 2.36237 0
M  V30 2727 C 268.043 3.00573 -0.0873872 0
M  V30 2728 C 269.591 3.1299 -0.0252443 0
M  V30 2729 C 270.066 4.57174 -0.274934 0
M  V30 2730 N 271.557 4.62665 -0.222553 0
M  V30 2731 C 272.292 5.72072 -0.389985 0
M  V30 2732 N 271.788 6.90054 -0.616229 0
M  V30 2733 N 273.581 5.61153 -0.326202 0
M  V30 2734 H 265.732 1.8118 -1.10849 0
M  V30 2735 H 267.995 0.839525 -0.440342 0
M  V30 2736 H 267.701 3.34497 -1.0865 0
M  V30 2737 H 267.575 3.72019 0.623037 0
M  V30 2738 H 269.962 2.78895 0.96444 0
M  V30 2739 H 270.043 2.43989 -0.768309 0
M  V30 2740 H 269.687 4.91976 -1.26181 0
M  V30 2741 H 269.617 5.24328 0.48869 0
M  V30 2742 H 272.108 3.77863 -0.0531512 0
M  V30 2743 H 272.421 7.69311 -0.733559 0
M  V30 2744 H 270.766 6.91927 -0.652791 0
M  V30 2745 H 273.957 4.67859 -0.150072 0
M  V30 2746 H 274.13 6.46364 -0.460116 0
M  V30 2747 N 267.536 -0.106894 1.57237 0
M  V30 2748 C 268.761 -0.830287 1.90055 0
M  V30 2749 C 269.186 -1.72064 0.75998 0
M  V30 2750 O 268.544 -1.78982 -0.288991 0
M  V30 2751 C 268.592 -1.6295 3.21683 0
M  V30 2752 O 267.696 -2.73748 3.08441 0
M  V30 2753 H 267.037 -0.228855 0.623315 0
M  V30 2754 H 269.567 -0.085658 2.04421 0
M  V30 2755 H 269.577 -2.01621 3.54701 0
M  V30 2756 H 268.252 -0.975989 4.04286 0
M  V30 2757 H 266.829 -2.38192 2.86913 0
M  V30 2758 N 269.014 -1.53014 -0.377408 0
M  V30 2759 C 269.964 -1.74996 -1.46152 0
M  V30 2760 C 270.948 -0.604236 -1.49123 0
M  V30 2761 O 272.14 -0.862489 -1.54564 0
M  V30 2762 C 269.269 -1.93267 -2.8373 0
M  V30 2763 C 268.355 -3.13807 -2.85283 0
M  V30 2764 N 268.746 -4.35941 -2.56493 0
M  V30 2765 C 267.044 -3.14288 -3.16448 0
M  V30 2766 C 267.745 -5.17615 -2.65424 0
M  V30 2767 N 266.721 -4.53559 -2.99641 0
M  V30 2768 H 270.523 -2.67044 -1.22738 0
M  V30 2769 H 268.037 -1.51479 -0.585479 0
M  V30 2770 H 270.034 -2.0714 -3.61799 0
M  V30 2771 H 268.694 -1.0244 -3.08117 0
M  V30 2772 H 269.705 -4.63876 -2.30302 0
M  V30 2773 H 266.382 -2.33312 -3.46225 0
M  V30 2774 H 267.772 -6.25006 -2.46612 0
M  V30 2775 N 270.492 0.636531 -1.44174 0
M  V30 2776 C 271.402 1.77754 -1.53103 0
M  V30 2777 C 272.418 1.68928 -0.417034 0
M  V30 2778 O 273.594 1.89801 -0.6736 0
M  V30 2779 C 270.659 3.14115 -1.46741 0
M  V30 2780 C 269.72 3.34612 -2.68948 0
M  V30 2781 C 268.953 4.64467 -2.6288 0
M  V30 2782 O 269.176 5.44919 -1.68581 0
M  V30 2783 O 268.11 4.87049 -3.53648 0
M  V30 2784 H 271.936 1.73174 -2.49489 0
M  V30 2785 H 269.521 0.79709 -1.2636 0
M  V30 2786 H 271.403 3.95412 -1.45696 0
M  V30 2787 H 270.078 3.19249 -0.534975 0
M  V30 2788 H 268.985 2.53014 -2.75562 0
M  V30 2789 H 270.318 3.34336 -3.61221 0
M  V30 2790 N 271.97 1.30982 0.876444 0
M  V30 2791 C 273.218 1.20058 1.62575 0
M  V30 2792 C 273.539 -0.242947 1.93481 0
M  V30 2793 O 272.809 -1.1619 1.57724 0
M  V30 2794 H 271.389 0.44135 0.602677 0
M  V30 2795 H 274.051 1.64222 1.04962 0
M  V30 2796 H 273.147 1.76762 2.57219 0
M  V30 2797 N 273.449 -1.08991 1.13837 0
M  V30 2798 C 274.359 -2.19301 0.833333 0
M  V30 2799 C 275.375 -1.73026 -0.183847 0
M  V30 2800 O 276.551 -2.01395 -0.0138092 0
M  V30 2801 C 273.616 -3.45323 0.308651 0
M  V30 2802 C 272.677 -4.06255 1.38764 0
M  V30 2803 C 271.91 -5.26262 0.887896 0
M  V30 2804 O 272.133 -5.69747 -0.27287 0
M  V30 2805 O 271.067 -5.78435 1.66421 0
M  V30 2806 H 274.893 -2.47854 1.75506 0
M  V30 2807 H 272.478 -1.18012 0.916166 0
M  V30 2808 H 274.36 -4.21394 0.0216739 0
M  V30 2809 H 273.035 -3.18362 -0.585431 0
M  V30 2810 H 271.942 -3.318 1.72799 0
M  V30 2811 H 273.275 -4.37452 2.25602 0
M  V30 2812 N 274.927 -0.932562 -1.27047 0
M  V30 2813 C 276.155 -0.592031 -1.98249 0
M  V30 2814 C 276.57 0.831062 -1.69525 0
M  V30 2815 O 275.927 1.55299 -0.958561 0
M  V30 2816 C 275.978 -0.814279 -3.5221 0
M  V30 2817 O 275.699 -2.18139 -3.7993 0
M  V30 2818 C 277.2 -0.483121 -4.4066 0
M  V30 2819 H 274.42 -0.223896 -0.632544 0
M  V30 2820 H 276.964 -1.25091 -1.61779 0
M  V30 2821 H 275.119 -0.20213 -3.86872 0
M  V30 2822 H 275.533 -2.235 -4.74498 0
M  V30 2823 H 277.007 -0.689298 -5.47679 0
M  V30 2824 H 277.484 0.581546 -4.35333 0
M  V30 2825 H 278.09 -1.07362 -4.11526 0
M  V30 2826 N 276.405 1.4127 -0.698611 0
M  V30 2827 C 277.368 2.29158 -0.044132 0
M  V30 2828 C 278.368 1.44529 0.704841 0
M  V30 2829 O 279.558 1.65643 0.539276 0
M  V30 2830 C 276.69 3.27459 0.947809 0
M  V30 2831 H 277.883 2.88529 -0.817994 0
M  V30 2832 H 275.436 1.49307 -0.46228 0
M  V30 2833 H 276.171 2.73073 1.74933 0
M  V30 2834 H 275.956 3.8991 0.41385 0
M  V30 2835 H 277.446 3.93311 1.40344 0
M  V30 2836 N 277.883 0.443576 1.51229 0
M  V30 2837 C 279.113 -0.119117 2.06256 0
M  V30 2838 C 279.521 -1.36471 1.31043 0
M  V30 2839 O 278.864 -1.80034 0.365151 0
M  V30 2840 C 278.926 -0.500546 3.55998 0
M  V30 2841 C 278.59 0.639125 4.52509 0
M  V30 2842 C 279.587 1.51311 4.97394 0
M  V30 2843 C 277.272 0.821632 4.95535 0
M  V30 2844 C 279.266 2.55425 5.83984 0
M  V30 2845 C 276.953 1.86603 5.81913 0
M  V30 2846 C 277.951 2.73072 6.26036 0
M  V30 2847 O 277.639 3.75718 7.10698 0
M  V30 2848 H 277.371 -0.00857665 0.675946 0
M  V30 2849 H 279.925 0.623288 1.95715 0
M  V30 2850 H 278.155 -1.29575 3.64345 0
M  V30 2851 H 279.844 -0.995116 3.93513 0
M  V30 2852 H 280.61 1.38367 4.64844 0
M  V30 2853 H 276.489 0.158149 4.60729 0
M  V30 2854 H 280.033 3.22949 6.18344 0
M  V30 2855 H 275.93 1.99564 6.13876 0
M  V30 2856 H 276.698 3.72374 7.2889 0
M  V30 2857 N 279.361 -1.56624 0.175154 0
M  V30 2858 C 280.61 -1.96173 -0.468921 0
M  V30 2859 C 280.923 -1.06401 -1.64128 0
M  V30 2860 O 282.129 -1.35648 -2.35185 0
M  V30 2861 C 280.585 -3.48833 -0.885633 0
M  V30 2862 C 280.193 -4.47237 0.261343 0
M  V30 2863 C 281.937 -3.97194 -1.49791 0
M  V30 2864 C 279.844 -5.9114 -0.175214 0
M  V30 2865 H 278.774 -0.732455 -0.178958 0
M  V30 2866 H 281.425 -1.81591 0.263997 0
M  V30 2867 H 279.807 -3.58848 -1.67464 0
M  V30 2868 H 280.981 -4.4894 1.03871 0
M  V30 2869 H 279.296 -4.08956 0.783827 0
M  V30 2870 H 281.893 -5.02167 -1.83665 0
M  V30 2871 H 282.236 -3.40351 -2.39722 0
M  V30 2872 H 282.769 -3.90212 -0.773267 0
M  V30 2873 H 279.508 -6.51865 0.689414 0
M  V30 2874 H 279.028 -5.92735 -0.91786 0
M  V30 2875 H 280.707 -6.44044 -0.617792 0
M  V30 2876 N 280.839 0.0985539 -1.57292 0
M  V30 2877 C 282.255 0.45267 -1.53046 0
M  V30 2878 C 282.455 1.80713 -0.891342 0
M  V30 2879 O 281.511 2.4785 -0.482375 0
M  V30 2880 C 282.824 0.418341 -2.97776 0
M  V30 2881 C 284.372 0.500443 -3.08973 0
M  V30 2882 C 284.847 0.496297 -4.55303 0
M  V30 2883 N 286.338 0.557151 -4.59837 0
M  V30 2884 C 287.073 0.575726 -5.70502 0
M  V30 2885 N 286.569 0.550714 -6.90608 0
M  V30 2886 N 288.362 0.620277 -5.58667 0
M  V30 2887 H 280.513 -0.788673 -1.97215 0
M  V30 2888 H 282.776 -0.293188 -0.901524 0
M  V30 2889 H 282.482 -0.509659 -3.47988 0
M  V30 2890 H 282.356 1.2386 -3.56284 0
M  V30 2891 H 284.743 1.41886 -2.58751 0
M  V30 2892 H 284.824 -0.347894 -2.53423 0
M  V30 2893 H 284.468 -0.418162 -5.06176 0
M  V30 2894 H 284.398 1.3618 -5.08687 0
M  V30 2895 H 286.889 0.581816 -3.73394 0
M  V30 2896 H 287.202 0.568075 -7.70709 0
M  V30 2897 H 285.547 0.517816 -6.93068 0
M  V30 2898 H 288.738 0.637322 -4.63741 0
M  V30 2899 H 288.911 0.631283 -6.44918 0
M  V30 2900 N 282.317 1.53212 0.369288 0
M  V30 2901 C 283.563 1.69466 1.11397 0
M  V30 2902 C 283.896 0.443257 1.89074 0
M  V30 2903 O 283.171 -0.559386 1.86282 0
M  V30 2904 C 283.454 2.9422 2.07621 0
M  V30 2905 C 283.307 4.29508 1.33577 0
M  V30 2906 C 284.626 3.14565 3.07794 0
M  V30 2907 H 281.745 0.616667 0.403597 0
M  V30 2908 H 284.387 1.85845 0.395179 0
M  V30 2909 H 282.537 2.80387 2.68916 0
M  V30 2910 H 284.209 4.55147 0.750955 0
M  V30 2911 H 282.452 4.29088 0.637618 0
M  V30 2912 H 283.123 5.12926 2.03989 0
M  V30 2913 H 285.599 3.2756 2.56601 0
M  V30 2914 H 284.475 4.03297 3.72348 0
M  V30 2915 H 284.736 2.29675 3.77759 0
M  V30 2916 N 283.795 -0.628877 1.44509 0
M  V30 2917 C 284.742 -1.74074 1.51549 0
M  V30 2918 C 285.712 -1.62084 0.363021 0
M  V30 2919 O 286.897 -1.81975 0.573567 0
M  V30 2920 C 284.037 -3.12328 1.46784 0
M  V30 2921 C 283.15 -3.35277 2.72422 0
M  V30 2922 C 282.285 -4.63515 2.59475 0
M  V30 2923 C 281.324 -4.7965 3.80266 0
M  V30 2924 N 280.461 -5.99168 3.65981 0
M  V30 2925 H 285.301 -1.67392 2.46544 0
M  V30 2926 H 282.838 -0.816527 1.22357 0
M  V30 2927 H 284.796 -3.92286 1.42012 0
M  V30 2928 H 283.426 -3.18018 0.553544 0
M  V30 2929 H 282.478 -2.49242 2.87372 0
M  V30 2930 H 283.79 -3.43078 3.62076 0
M  V30 2931 H 282.944 -5.51638 2.52548 0
M  V30 2932 H 281.683 -4.58076 1.67384 0
M  V30 2933 H 280.688 -3.89957 3.87574 0
M  V30 2934 H 281.913 -4.86902 4.73395 0
M  V30 2935 H 279.859 -5.94814 2.76644 0
M  V30 2936 H 279.776 -6.08035 4.49254 0
M  V30 2937 H 281.044 -6.89846 3.6295 0
M  V30 2938 N 285.273 -1.31445 -0.869486 0
M  V30 2939 C 286.519 -1.21337 -1.62496 0
M  V30 2940 C 286.852 0.227872 -1.92858 0
M  V30 2941 O 286.127 1.16094 -1.56053 0
M  V30 2942 C 286.41 -2.05814 -2.95487 0
M  V30 2943 C 286.263 -3.5824 -2.72 0
M  V30 2944 C 287.582 -1.9079 -3.96594 0
M  V30 2945 H 284.701 -0.442135 -0.589649 0
M  V30 2946 H 287.343 -1.6124 -1.00507 0
M  V30 2947 H 285.493 -1.71913 -3.48394 0
M  V30 2948 H 287.165 -4.0228 -2.25762 0
M  V30 2949 H 285.408 -3.81647 -2.06224 0
M  V30 2950 H 286.079 -4.12657 -3.66631 0
M  V30 2951 H 288.555 -2.20459 -3.52898 0
M  V30 2952 H 287.431 -2.52199 -4.87531 0
M  V30 2953 H 287.692 -0.871341 -4.33428 0
M  V30 2954 N 286.751 1.08385 -1.14413 0
M  V30 2955 C 288.028 1.77429 -0.823297 0
M  V30 2956 C 288.408 1.9974 0.683163 0
M  V30 2957 O 287.756 1.60739 1.62405 0
M  V30 2958 C 287.966 3.09004 -1.62227 0
M  V30 2959 C 289.314 3.83532 -1.82177 0
M  V30 2960 O 290.338 3.18786 -1.58915 0
M  V30 2961 O 289.197 4.99792 -2.21067 0
M  V30 2962 H 286.291 0.769999 -0.301712 0
M  V30 2963 H 288.837 1.14846 -1.24934 0
M  V30 2964 H 287.609 2.88316 -2.64555 0
M  V30 2965 H 287.232 3.79316 -1.19187 0
M  V30 2966 N 288.23 0.939286 1.26551 0
M  V30 2967 C 289.478 0.58469 1.93457 0
M  V30 2968 C 289.799 -0.878774 1.74076 0
M  V30 2969 O 289.069 -1.62421 1.09528 0
M  V30 2970 H 287.649 0.21325 0.715914 0
M  V30 2971 H 290.311 1.1942 1.54029 0
M  V30 2972 H 289.407 0.800849 3.0165 0
M  V30 2973 N 289.708 -1.40897 0.706093 0
M  V30 2974 C 291.119 -1.84023 0.315052 0
M  V30 2975 C 291.47 -1.5906 -1.14866 0
M  V30 2976 O 290.595 -1.06651 -1.88293 0
M  V30 2977 C 291.19 -3.34055 0.565038 0
M  V30 2978 C 289.749 -3.7571 0.227806 0
M  V30 2979 C 288.896 -2.64204 0.842122 0
M  V30 2980 H 291.847 -1.303 0.905963 0
M  V30 2981 H 291.868 -3.80107 -0.172843 0
M  V30 2982 H 291.38 -3.52192 1.63042 0
M  V30 2983 H 289.481 -3.63172 -0.832895 0
M  V30 2984 H 289.594 -4.74103 0.690174 0
M  V30 2985 H 287.958 -2.53255 0.270893 0
M  V30 2986 H 288.741 -2.85155 1.91158 0
M  V30 2987 N 291.186 -0.45159 -1.50991 0
M  V30 2988 C 292.602 -0.104647 -1.59257 0
M  V30 2989 C 292.802 1.38728 -1.4614 0
M  V30 2990 O 291.858 2.15866 -1.30989 0
M  V30 2991 C 293.171 -0.637468 -2.93865 0
M  V30 2992 C 294.719 -0.599166 -3.07212 0
M  V30 2993 C 295.194 -1.1092 -4.44366 0
M  V30 2994 N 296.685 -1.06778 -4.50725 0
M  V30 2995 C 297.42 -1.43314 -5.55201 0
M  V30 2996 N 296.916 -1.87204 -6.67028 0
M  V30 2997 N 298.709 -1.3504 -5.45638 0
M  V30 2998 H 290.86 -1.42214 -1.57762 0
M  V30 2999 H 293.123 -0.586921 -0.744465 0
M  V30 3000 H 292.829 -1.68187 -3.08879 0
M  V30 3001 H 292.703 -0.0702139 -3.77135 0
M  V30 3002 H 295.09 0.436277 -2.91857 0
M  V30 3003 H 295.171 -1.20299 -2.25747 0
M  V30 3004 H 294.815 -2.14318 -4.60467 0
M  V30 3005 H 294.745 -0.481773 -5.24392 0
M  V30 3006 H 297.236 -0.745643 -3.70471 0
M  V30 3007 H 297.549 -2.13282 -7.42786 0
M  V30 3008 H 295.894 -1.91142 -6.68199 0
M  V30 3009 H 299.085 -1.00607 -4.57161 0
M  V30 3010 H 299.258 -1.63841 -6.26945 0
M  V30 3011 N 292.664 1.56529 -0.183458 0
M  V30 3012 C 293.889 2.02064 0.467428 0
M  V30 3013 C 294.314 1.06282 1.55196 0
M  V30 3014 O 293.672 0.0443565 1.81246 0
M  V30 3015 C 293.72 3.46122 1.01153 0
M  V30 3016 O 292.824 3.53437 2.12499 0
M  V30 3017 H 292.165 0.654726 0.110588 0
M  V30 3018 H 294.695 2.02521 -0.290917 0
M  V30 3019 H 294.705 3.85676 1.33108 0
M  V30 3020 H 293.38 4.15331 0.217533 0
M  V30 3021 H 291.957 3.2575 1.81497 0
M  V30 3022 N 294.142 -0.090211 1.57342 0
M  V30 3023 C 295.553 -0.644173 1.75235 0
M  V30 3024 C 295.904 -1.78865 0.806335 0
M  V30 3025 O 295.029 -2.16395 -0.0140128 0
M  V30 3026 C 295.624 -1.17532 3.1776 0
M  V30 3027 C 294.183 -1.67531 3.37061 0
M  V30 3028 C 293.33 -0.58693 2.71017 0
M  V30 3029 H 296.281 0.135884 1.58117 0
M  V30 3030 H 296.302 -2.04455 3.20902 0
M  V30 3031 H 295.814 -0.342138 3.86589 0
M  V30 3032 H 293.915 -2.53234 2.73319 0
M  V30 3033 H 294.028 -1.76493 4.45406 0
M  V30 3034 H 292.392 -1.02756 2.33052 0
M  V30 3035 H 293.175 0.235758 3.4249 0
M  V30 3036 N 295.62 -1.53406 -0.361157 0
M  V30 3037 C 296.845 -1.74024 -1.12829 0
M  V30 3038 C 297.27 -0.470069 -1.82132 0
M  V30 3039 O 296.628 0.57619 -1.719 0
M  V30 3040 C 296.676 -2.90903 -2.13091 0
M  V30 3041 O 295.78 -2.59821 -3.20261 0
M  V30 3042 H 295.121 -0.577804 -0.327168 0
M  V30 3043 H 297.651 -2.00307 -0.41693 0
M  V30 3044 H 297.661 -3.17194 -2.56616 0
M  V30 3045 H 296.336 -3.83034 -1.62042 0
M  V30 3046 H 294.913 -2.44362 -2.81677 0
M  V30 3047 N 297.098 0.621204 -1.44841 0
M  V30 3048 C 298.328 1.40548 -1.51426 0
M  V30 3049 C 298.736 1.88673 -0.141083 0
M  V30 3050 O 298.079 1.62053 0.865128 0
M  V30 3051 C 298.141 2.65325 -2.42576 0
M  V30 3052 C 297.805 2.3893 -3.89566 0
M  V30 3053 C 298.802 2.00138 -4.79834 0
M  V30 3054 C 296.487 2.52263 -4.3436 0
M  V30 3055 C 298.481 1.75021 -6.129 0
M  V30 3056 C 296.168 2.2676 -5.67471 0
M  V30 3057 C 297.166 1.88199 -6.56559 0
M  V30 3058 O 296.854 1.62986 -7.87204 0
M  V30 3059 H 296.586 0.437122 -0.515655 0
M  V30 3060 H 299.14 0.765987 -1.90583 0
M  V30 3061 H 297.37 3.31947 -1.98364 0
M  V30 3062 H 299.059 3.27347 -2.39998 0
M  V30 3063 H 299.825 1.89386 -4.46495 0
M  V30 3064 H 295.704 2.81246 -3.65269 0
M  V30 3065 H 299.248 1.44848 -6.82396 0
M  V30 3066 H 295.145 2.37125 -6.00368 0
M  V30 3067 H 295.913 1.7715 -7.991 0
M  V30 3068 N 298.576 1.31904 0.862503 0
M  V30 3069 C 299.824 1.21776 1.61292 0
M  V30 3070 C 300.145 -0.222413 1.93727 0
M  V30 3071 O 299.415 -1.1451 1.58947 0
M  V30 3072 H 297.995 0.447717 0.597962 0
M  V30 3073 H 300.657 1.65326 1.03215 0
M  V30 3074 H 299.753 1.7948 2.5533 0
M  V30 3075 N 300.054 -1.07777 1.14986 0
M  V30 3076 C 301.47 -1.32373 0.891596 0
M  V30 3077 C 301.67 -1.9609 -0.463788 0
M  V30 3078 O 300.726 -2.21801 -1.20667 0
M  V30 3079 C 302.039 -2.21905 2.02925 0
M  V30 3080 C 303.587 -2.35367 2.06329 0
M  V30 3081 C 304.062 -3.28245 3.19405 0
M  V30 3082 N 305.553 -3.35824 3.19024 0
M  V30 3083 C 306.288 -4.07739 4.03158 0
M  V30 3084 N 305.784 -4.82306 4.97346 0
M  V30 3085 N 307.577 -4.03635 3.91197 0
M  V30 3086 H 299.728 -0.648039 2.02273 0
M  V30 3087 H 301.991 -0.348149 0.881757 0
M  V30 3088 H 301.697 -1.82342 3.0074 0
M  V30 3089 H 301.571 -3.22407 1.95789 0
M  V30 3090 H 303.958 -2.74186 1.09116 0
M  V30 3091 H 304.039 -1.34585 2.17533 0
M  V30 3092 H 303.683 -2.90146 4.16867 0
M  V30 3093 H 303.613 -4.28971 3.05437 0
M  V30 3094 H 306.104 -2.8267 2.50811 0
M  V30 3095 H 306.417 -5.34661 5.57994 0
M  V30 3096 H 304.762 -4.81337 5.01338 0
M  V30 3097 H 307.953 -3.44491 3.16928 0
M  V30 3098 H 308.126 -4.59417 4.5699 0
M  V30 3099 N 301.532 -0.945985 -1.26051 0
M  V30 3100 C 302.757 -0.612525 -1.98149 0
M  V30 3101 C 303.182 0.806623 -1.69927 0
M  V30 3102 O 302.54 1.54411 -0.950108 0
M  V30 3103 C 302.588 -0.866981 -3.50023 0
M  V30 3104 O 301.692 0.0585333 -4.12358 0
M  V30 3105 H 301.033 -0.23379 -0.621481 0
M  V30 3106 H 303.563 -1.27023 -1.60395 0
M  V30 3107 H 303.573 -0.789792 -4.00283 0
M  V30 3108 H 302.248 -1.90135 -3.69894 0
M  V30 3109 H 300.825 -0.0701241 -3.72834 0
M  V30 3110 N 303.011 1.40521 -0.713556 0
M  V30 3111 C 304.427 1.54839 -0.386907 0
M  V30 3112 C 304.627 1.68532 1.1045 0
M  V30 3113 O 303.683 1.67377 1.89053 0
M  V30 3114 C 304.996 2.77792 -1.15118 0
M  V30 3115 C 306.544 2.91607 -1.13729 0
M  V30 3116 C 307.019 4.1747 -1.88368 0
M  V30 3117 N 308.51 4.24466 -1.85427 0
M  V30 3118 C 309.245 5.20755 -2.40004 0
M  V30 3119 N 308.741 6.22965 -3.03129 0
M  V30 3120 N 310.534 5.1282 -2.30158 0
M  V30 3121 H 302.685 1.29879 -1.68063 0
M  V30 3122 H 304.948 0.627896 -0.710247 0
M  V30 3123 H 304.654 2.73944 -2.20561 0
M  V30 3124 H 304.528 3.6984 -0.741477 0
M  V30 3125 H 306.915 2.94959 -0.0910608 0
M  V30 3126 H 306.996 2.00682 -1.5862 0
M  V30 3127 H 306.64 4.1488 -2.9298 0
M  V30 3128 H 306.57 5.074 -1.40898 0
M  V30 3129 H 309.061 3.51241 -1.3942 0
M  V30 3130 H 309.374 6.92859 -3.42295 0
M  V30 3131 H 307.719 6.23415 -3.07212 0
M  V30 3132 H 310.91 4.31899 -1.80501 0
M  V30 3133 H 311.083 5.87689 -2.72993 0
M  V30 3134 N 304.489 0.459591 1.5075 0
M  V30 3135 C 305.714 -0.0996819 2.0716 0
M  V30 3136 C 306.139 -1.33761 1.32249 0
M  V30 3137 O 305.497 -1.77551 0.366786 0
M  V30 3138 C 305.545 -0.378226 3.58611 0
M  V30 3139 O 304.649 -1.46081 3.85661 0
M  V30 3140 H 303.99 0.00791392 0.663953 0
M  V30 3141 H 306.52 0.647329 1.9409 0
M  V30 3142 H 306.53 -0.622135 4.03229 0
M  V30 3143 H 305.205 0.526439 4.12555 0
M  V30 3144 H 303.782 -1.20511 3.5289 0
M  V30 3145 N 305.967 -1.56429 0.191757 0
M  V30 3146 C 307.383 -1.58754 -0.164137 0
M  V30 3147 C 307.583 -1.20782 -1.61288 0
M  V30 3148 O 306.639 -0.928999 -2.34789 0
M  V30 3149 C 307.952 -3.00396 0.135195 0
M  V30 3150 C 309.5 -3.1291 0.0750351 0
M  V30 3151 C 309.975 -4.56679 0.347632 0
M  V30 3152 N 311.466 -4.62252 0.296131 0
M  V30 3153 C 312.201 -5.71379 0.480948 0
M  V30 3154 N 311.697 -6.88986 0.725933 0
M  V30 3155 N 313.49 -5.60563 0.415435 0
M  V30 3156 H 305.641 -1.79393 1.13718 0
M  V30 3157 H 307.904 -0.832414 0.453643 0
M  V30 3158 H 307.61 -3.32726 1.13958 0
M  V30 3159 H 307.484 -3.72963 -0.563773 0
M  V30 3160 H 309.871 -2.80394 -0.919948 0
M  V30 3161 H 309.952 -2.42736 0.807029 0
M  V30 3162 H 309.596 -4.89907 1.33992 0
M  V30 3163 H 309.526 -5.25039 -0.405212 0
M  V30 3164 H 312.017 -3.7773 0.113259 0
M  V30 3165 H 312.33 -7.68046 0.855857 0
M  V30 3166 H 310.675 -6.90801 0.762788 0
M  V30 3167 H 313.866 -4.67561 0.224486 0
M  V30 3168 H 314.039 -6.45551 0.562889 0
M  V30 3169 N 307.445 0.0818655 -1.57387 0
M  V30 3170 C 308.67 0.799946 -1.91352 0
M  V30 3171 C 309.095 1.70833 -0.787258 0
M  V30 3172 O 308.453 1.79419 0.26048 0
M  V30 3173 C 308.501 1.57812 -3.24234 0
M  V30 3174 O 307.605 2.68806 -3.12757 0
M  V30 3175 H 306.946 0.21891 -0.626877 0
M  V30 3176 H 309.476 0.0531256 -2.04531 0
M  V30 3177 H 309.486 1.95952 -3.57864 0
M  V30 3178 H 308.161 0.911548 -4.05788 0
M  V30 3179 H 306.738 2.33597 -2.90666 0
M  V30 3180 N 308.923 1.53595 0.353017 0
M  V30 3181 C 310.339 1.43648 0.695516 0
M  V30 3182 C 310.539 0.585617 1.92802 0
M  V30 3183 O 309.595 0.0729223 2.52395 0
M  V30 3184 C 310.908 2.8701 0.896991 0
M  V30 3185 C 312.456 2.96723 0.996209 0
M  V30 3186 C 312.931 4.41173 1.23007 0
M  V30 3187 N 314.422 4.44657 1.29749 0
M  V30 3188 C 315.157 5.53547 1.49577 0
M  V30 3189 N 314.653 6.72461 1.66639 0
M  V30 3190 N 316.446 5.41145 1.52048 0
M  V30 3191 H 308.597 2.07415 -0.457481 0
M  V30 3192 H 310.86 0.9372 -0.142687 0
M  V30 3193 H 310.566 3.51644 0.0629938 0
M  V30 3194 H 310.44 3.31401 1.80148 0
M  V30 3195 H 312.827 2.32235 1.82074 0
M  V30 3196 H 312.908 2.55707 0.0688331 0
M  V30 3197 H 312.552 5.06238 0.410505 0
M  V30 3198 H 312.482 4.79772 2.17086 0
M  V30 3199 H 314.973 3.58963 1.18126 0
M  V30 3200 H 315.286 7.51214 1.81378 0
M  V30 3201 H 313.631 6.75423 1.63794 0
M  V30 3202 H 316.822 4.47205 1.38294 0
M  V30 3203 H 316.995 6.26068 1.67159 0
M  V30 3204 N 310.401 -0.613514 1.45168 0
M  V30 3205 C 311.626 -1.40437 1.52618 0
M  V30 3206 C 312.051 -1.87438 0.157707 0
M  V30 3207 O 311.409 -1.59791 -0.856537 0
M  V30 3208 C 311.457 -2.58894 2.51011 0
M  V30 3209 O 310.561 -3.59326 2.02382 0
M  V30 3210 H 309.902 -0.419506 0.514695 0
M  V30 3211 H 312.432 -0.747215 1.90467 0
M  V30 3212 H 312.442 -3.06214 2.69624 0
M  V30 3213 H 311.117 -2.24032 3.50403 0
M  V30 3214 H 309.694 -3.18695 1.93618 0
M  V30 3215 N 311.879 -1.3236 -0.855495 0
M  V30 3216 C 313.295 -1.11332 -1.14356 0
M  V30 3217 C 313.495 0.106751 -2.01217 0
M  V30 3218 O 312.551 0.791891 -2.39761 0
M  V30 3219 C 313.864 -2.39237 -1.82171 0
M  V30 3220 C 315.412 -2.44986 -1.9481 0
M  V30 3221 C 315.887 -3.7281 -2.66039 0
M  V30 3222 N 317.378 -3.73787 -2.73565 0
M  V30 3223 C 318.113 -4.69394 -3.29327 0
M  V30 3224 N 317.609 -5.75367 -3.85907 0
M  V30 3225 N 319.402 -4.56893 -3.27423 0
M  V30 3226 H 311.553 -2.10586 -0.277027 0
M  V30 3227 H 313.816 -0.929701 -0.185364 0
M  V30 3228 H 313.522 -3.28431 -1.25802 0
M  V30 3229 H 313.396 -2.50134 -2.82335 0
M  V30 3230 H 315.783 -1.56252 -2.50338 0
M  V30 3231 H 315.864 -2.38043 -0.936448 0
M  V30 3232 H 315.508 -4.61918 -2.11174 0
M  V30 3233 H 315.438 -3.77024 -3.67642 0
M  V30 3234 H 317.929 -2.97189 -2.33424 0
M  V30 3235 H 318.242 -6.44378 -4.26611 0
M  V30 3236 H 316.587 -5.79123 -3.84242 0
M  V30 3237 H 319.778 -3.73269 -2.82467 0
M  V30 3238 H 319.951 -5.31577 -3.7058 0
M  V30 3239 N 313.357 1.07166 -1.15556 0
M  V30 3240 C 314.582 1.84053 -0.955988 0
M  V30 3241 C 315.007 1.81586 0.490739 0
M  V30 3242 O 314.365 1.21018 1.34997 0
M  V30 3243 C 314.413 3.28957 -1.47714 0
M  V30 3244 O 313.517 4.06795 -0.677593 0
M  V30 3245 H 312.858 0.569842 -0.340847 0
M  V30 3246 H 315.388 1.35178 -1.53584 0
M  V30 3247 H 315.398 3.79788 -1.4908 0
M  V30 3248 H 314.073 3.30068 -2.53037 0
M  V30 3249 H 312.65 3.6561 -0.733721 0
M  V30 3250 N 314.835 0.952656 1.25548 0
M  V30 3251 C 316.251 0.656769 1.4546 0
M  V30 3252 C 316.451 -0.78633 1.85524 0
M  V30 3253 O 315.507 -1.56183 1.98402 0
M  V30 3254 C 316.82 1.62801 2.52817 0
M  V30 3255 C 318.368 1.63897 2.66659 0
M  V30 3256 C 318.843 2.5978 3.77198 0
M  V30 3257 N 320.334 2.58133 3.84606 0
M  V30 3258 C 321.069 3.29003 4.69621 0
M  V30 3259 N 320.565 4.09339 5.58939 0
M  V30 3260 N 322.358 3.179 4.63569 0
M  V30 3261 H 314.509 1.88526 0.978344 0
M  V30 3262 H 316.772 0.810815 0.491206 0
M  V30 3263 H 316.478 2.65869 2.30232 0
M  V30 3264 H 316.352 1.38898 3.50695 0
M  V30 3265 H 318.739 0.615481 2.8861 0
M  V30 3266 H 318.82 1.91858 1.69187 0
M  V30 3267 H 318.464 3.62254 3.55997 0
M  V30 3268 H 318.394 2.29105 4.7415 0
M  V30 3269 H 320.885 1.99809 3.20757 0
M  V30 3270 H 321.198 4.6034 6.20731 0
M  V30 3271 H 319.543 4.13438 5.58654 0
M  V30 3272 H 322.734 2.54612 3.92798 0
M  V30 3273 H 322.907 3.73398 5.29602 0
M  V30 3274 N 316.313 -1.40141 0.720998 0
M  V30 3275 C 317.538 -2.05618 0.271258 0
M  V30 3276 C 317.963 -1.53978 -1.08039 0
M  V30 3277 O 317.321 -0.677463 -1.68167 0
M  V30 3278 C 317.369 -3.59609 0.267197 0
M  V30 3279 O 316.473 -4.05526 -0.749814 0
M  V30 3280 H 315.814 -0.651904 0.126162 0
M  V30 3281 H 318.344 -1.79439 0.982997 0
M  V30 3282 H 318.354 -4.0786 0.106744 0
M  V30 3283 H 317.029 -3.96559 1.25354 0
M  V30 3284 H 315.606 -3.68722 -0.556644 0
M  V30 3285 N 317.792 -0.46758 -1.50504 0
M  V30 3286 C 319.208 -0.121533 -1.59137 0
M  V30 3287 C 319.408 1.3717 -1.47603 0
M  V30 3288 O 318.464 2.14464 -1.33272 0
M  V30 3289 C 319.777 -0.6686 -2.93173 0
M  V30 3290 C 321.325 -0.631716 -3.06559 0
M  V30 3291 C 321.8 -1.15627 -4.43164 0
M  V30 3292 N 323.291 -1.11553 -4.49567 0
M  V30 3293 C 324.026 -1.49195 -5.5365 0
M  V30 3294 N 323.522 -1.94269 -6.65005 0
M  V30 3295 N 325.315 -1.4082 -5.44175 0
M  V30 3296 H 317.466 -1.4388 -1.56245 0
M  V30 3297 H 319.729 -0.594784 -0.738198 0
M  V30 3298 H 319.435 -1.71453 -3.07078 0
M  V30 3299 H 319.309 -0.11021 -3.77039 0
M  V30 3300 H 321.696 0.405297 -2.92304 0
M  V30 3301 H 321.777 -1.22687 -2.24458 0
M  V30 3302 H 321.421 -2.1919 -4.58168 0
M  V30 3303 H 321.351 -0.537365 -5.23851 0
M  V30 3304 H 323.842 -0.784895 -3.69659 0
M  V30 3305 H 324.155 -2.21148 -7.40482 0
M  V30 3306 H 322.5 -1.98219 -6.66134 0
M  V30 3307 H 325.691 -1.0545 -4.56068 0
M  V30 3308 H 325.864 -1.70481 -6.25172 0
M  V30 3309 N 319.27 1.56325 -0.20005 0
M  V30 3310 C 320.495 2.02548 0.44597 0
M  V30 3311 C 320.92 1.07922 1.5406 0
M  V30 3312 O 320.278 0.0635775 1.81188 0
M  V30 3313 C 320.326 3.47175 0.974761 0
M  V30 3314 O 319.43 3.55671 2.08739 0
M  V30 3315 H 318.771 0.655862 0.103638 0
M  V30 3316 H 321.301 2.02201 -0.312381 0
M  V30 3317 H 321.311 3.87067 1.2901 0
M  V30 3318 H 319.986 4.15538 0.17347 0
M  V30 3319 H 318.563 3.27657 1.78032 0
M  V30 3320 N 320.748 -0.0735177 1.57428 0
M  V30 3321 C 322.164 -0.428264 1.53747 0
M  V30 3322 C 322.364 -1.79272 0.91998 0
M  V30 3323 O 321.42 -2.47051 0.521745 0
M  V30 3324 C 322.733 -0.370914 2.98404 0
M  V30 3325 C 324.281 -0.451224 3.0973 0
M  V30 3326 C 324.756 -0.4238 4.56035 0
M  V30 3327 N 326.247 -0.483925 4.60665 0
M  V30 3328 C 326.982 -0.484891 5.71346 0
M  V30 3329 N 326.478 -0.440775 6.91396 0
M  V30 3330 N 328.271 -0.531319 5.59583 0
M  V30 3331 H 320.422 0.819949 1.95935 0
M  V30 3332 H 322.685 0.307493 0.896745 0
M  V30 3333 H 322.391 0.564956 3.47133 0
M  V30 3334 H 322.265 -1.18176 3.5821 0
M  V30 3335 H 324.652 -1.37752 2.60976 0
M  V30 3336 H 324.733 0.388167 2.52838 0
M  V30 3337 H 324.377 0.498638 5.05446 0
M  V30 3338 H 324.307 -1.2807 5.10789 0
M  V30 3339 H 326.798 -0.522338 3.74273 0
M  V30 3340 H 327.111 -0.44539 7.71515 0
M  V30 3341 H 325.456 -0.40749 6.93804 0
M  V30 3342 H 328.647 -0.563464 4.64696 0
M  V30 3343 H 328.82 -0.528603 6.4584 0
M  V30 3344 N 322.226 -1.5378 -0.344866 0
M  V30 3345 C 323.451 -1.75211 -1.10977 0
M  V30 3346 C 323.876 -0.48936 -1.81623 0
M  V30 3347 O 323.234 0.557925 -1.72502 0
M  V30 3348 C 323.282 -2.93147 -2.09993 0
M  V30 3349 O 322.386 -2.63203 -3.17487 0
M  V30 3350 H 321.727 -0.581241 -0.321021 0
M  V30 3351 H 324.257 -2.00738 -0.395661 0
M  V30 3352 H 324.267 -3.19898 -2.53237 0
M  V30 3353 H 322.942 -3.84731 -1.5797 0
M  V30 3354 H 321.519 -2.47336 -2.79069 0
M  V30 3355 N 323.704 0.605807 -1.45491 0
M  V30 3356 C 324.652 1.73754 -1.54636 0
M  V30 3357 C 325.646 1.64207 -0.416219 0
M  V30 3358 O 326.852 1.69979 -0.592199 0
M  V30 3359 H 323.227 0.574073 -0.485741 0
M  V30 3360 H 325.198 1.63169 -2.49837 0
M  V30 3361 C 323.947 3.12135 -1.53189 0
M  V30 3362 H 323.27 3.20141 -2.39478 0
M  V30 3363 H 324.71 3.91147 -1.63645 0
M  V30 3364 C 323.169 3.35921 -0.256616 0
M  V30 3365 O 323.699 3.96194 0.662798 0
M  V30 3366 N 321.905 2.90204 -0.151751 0
M  V30 3367 H 321.452 2.41336 -0.90081 0
M  V30 3368 H 321.41 3.06492 0.700699 0
M  V30 3369 N 325.182 1.32811 0.848464 0
M  V30 3370 C 326.407 1.26882 1.6406 0
M  V30 3371 C 326.832 -0.15913 1.87426 0
M  V30 3372 O 326.19 -1.11258 1.43148 0
M  V30 3373 C 326.238 2.03997 2.97351 0
M  V30 3374 O 325.342 1.39201 3.88197 0
M  V30 3375 H 324.683 0.436982 0.499943 0
M  V30 3376 H 327.213 1.75224 1.0563 0
M  V30 3377 H 327.223 2.14403 3.47124 0
M  V30 3378 H 325.898 3.0783 2.79666 0
M  V30 3379 H 324.475 1.37381 3.46671 0
M  V30 3380 N 326.66 -1.06551 1.16123 0
M  V30 3381 C 328.076 -1.3142 0.905585 0
M  V30 3382 C 328.276 -1.96571 -0.442964 0
M  V30 3383 O 327.332 -2.23068 -1.18308 0
M  V30 3384 C 328.645 -2.19741 2.05267 0
M  V30 3385 C 330.193 -2.33165 2.08813 0
M  V30 3386 C 330.668 -3.24838 3.22868 0
M  V30 3387 N 332.159 -3.32421 3.22568 0
M  V30 3388 C 332.894 -4.0344 4.0746 0
M  V30 3389 N 332.39 -4.77003 5.02434 0
M  V30 3390 N 334.183 -3.99464 3.95456 0
M  V30 3391 H 326.334 -0.626548 2.02949 0
M  V30 3392 H 328.597 -0.338777 0.8854 0
M  V30 3393 H 328.303 -1.79142 3.02657 0
M  V30 3394 H 328.177 -3.20313 1.99198 0
M  V30 3395 H 330.564 -2.73013 1.12018 0
M  V30 3396 H 330.645 -1.3227 2.18948 0
M  V30 3397 H 330.289 -2.85708 4.19921 0
M  V30 3398 H 330.219 -4.25707 3.0997 0
M  V30 3399 H 332.71 -2.79994 2.53795 0
M  V30 3400 H 333.023 -5.28712 5.63634 0
M  V30 3401 H 331.368 -4.75992 5.06415 0
M  V30 3402 H 334.559 -3.4111 3.20564 0
M  V30 3403 H 334.732 -4.54544 4.61837 0
M  V30 3404 N 328.138 -0.959301 -1.25041 0
M  V30 3405 C 329.363 -0.633507 -1.97488 0
M  V30 3406 C 329.788 0.788555 -1.70773 0
M  V30 3407 O 329.146 1.53394 -0.966431 0
M  V30 3408 C 329.194 -0.904057 -3.49083 0
M  V30 3409 O 328.298 0.0147939 -4.12397 0
M  V30 3410 H 327.639 -0.240368 -0.618966 0
M  V30 3411 H 330.169 -1.28717 -1.59038 0
M  V30 3412 H 330.179 -0.832203 -3.99423 0
M  V30 3413 H 328.854 -1.94048 -3.67856 0
M  V30 3414 H 327.431 -0.109664 -3.72739 0
M  V30 3415 N 329.616 1.39756 -0.72842 0
M  V30 3416 C 331.032 1.5442 -0.403308 0
M  V30 3417 C 331.232 1.69694 1.08656 0
M  V30 3418 O 330.288 1.69373 1.87267 0
M  V30 3419 C 331.601 2.76555 -1.18058 0
M  V30 3420 C 333.149 2.90384 -1.16815 0
M  V30 3421 C 333.624 4.15449 -1.92785 0
M  V30 3422 N 335.115 4.22475 -1.89918 0
M  V30 3423 C 335.85 5.1818 -2.45514 0
M  V30 3424 N 335.346 6.19714 -3.09719 0
M  V30 3425 N 337.139 5.1035 -2.35584 0
M  V30 3426 H 329.29 1.28089 -1.69431 0
M  V30 3427 H 331.553 0.620327 -0.716867 0
M  V30 3428 H 331.259 2.7159 -2.23455 0
M  V30 3429 H 331.133 3.69033 -0.780662 0
M  V30 3430 H 333.52 2.94846 -0.12234 0
M  V30 3431 H 333.601 1.98988 -1.6074 0
M  V30 3432 H 333.245 4.11749 -2.97364 0
M  V30 3433 H 333.175 5.05877 -1.46272 0
M  V30 3434 H 335.666 3.49743 -1.43138 0
M  V30 3435 H 335.979 6.8919 -3.49625 0
M  V30 3436 H 334.324 6.20121 -3.13807 0
M  V30 3437 H 337.515 4.2996 -1.85072 0
M  V30 3438 H 337.688 5.84761 -2.79211 0
M  V30 3439 N 331.094 0.475555 1.50254 0
M  V30 3440 C 332.319 -0.0777042 2.07254 0
M  V30 3441 C 332.744 -1.3235 1.3366 0
M  V30 3442 O 332.102 -1.77152 0.385597 0
M  V30 3443 C 332.15 -0.340169 3.58992 0
M  V30 3444 O 331.254 -1.41982 3.87188 0
M  V30 3445 H 330.595 0.0149556 0.663832 0
M  V30 3446 H 333.125 0.667878 1.93392 0
M  V30 3447 H 333.135 -0.579332 4.03866 0
M  V30 3448 H 331.81 0.570167 4.11973 0
M  V30 3449 H 330.387 -1.16762 3.54148 0
M  V30 3450 N 332.573 -1.56217 0.208337 0
M  V30 3451 C 333.803 -2.02043 -0.431523 0
M  V30 3452 C 334.211 -1.08755 -1.54819 0
M  V30 3453 O 333.554 -0.0870009 -1.83494 0
M  V30 3454 C 333.616 -3.44239 -1.03633 0
M  V30 3455 C 333.28 -4.56965 -0.0567502 0
M  V30 3456 C 334.277 -5.14624 0.738773 0
M  V30 3457 C 331.962 -5.02266 0.0581736 0
M  V30 3458 C 333.956 -6.16045 1.63605 0
M  V30 3459 C 331.643 -6.03528 0.959001 0
M  V30 3460 C 332.641 -6.60293 1.7465 0
M  V30 3461 O 332.329 -7.59586 2.6322 0
M  V30 3462 H 332.061 -0.666772 -0.111313 0
M  V30 3463 H 334.615 -2.02919 0.318277 0
M  V30 3464 H 332.845 -3.40391 -1.83497 0
M  V30 3465 H 334.534 -3.73793 -1.58221 0
M  V30 3466 H 335.3 -4.80483 0.660364 0
M  V30 3467 H 331.179 -4.57771 -0.544633 0
M  V30 3468 H 334.723 -6.60279 2.25116 0
M  V30 3469 H 330.62 -6.37092 1.03848 0
M  V30 3470 H 331.388 -7.77057 2.57148 0
M  V30 3471 N 334.051 0.0651679 -1.57465 0
M  V30 3472 C 335.276 0.779605 -1.9219 0
M  V30 3473 C 335.701 1.69988 -0.805333 0
M  V30 3474 O 335.059 1.79685 0.241435 0
M  V30 3475 C 335.107 1.54364 -3.2589 0
M  V30 3476 O 334.211 2.65474 -3.1559 0
M  V30 3477 H 333.552 0.212249 -0.629163 0
M  V30 3478 H 336.082 0.0314294 -2.04576 0
M  V30 3479 H 336.092 1.92146 -3.59922 0
M  V30 3480 H 334.767 0.868457 -4.06732 0
M  V30 3481 H 333.344 2.30501 -2.93128 0
M  V30 3482 N 335.529 1.53961 0.336706 0
M  V30 3483 C 336.94 1.62914 0.911925 0
M  V30 3484 C 337.291 0.514795 1.89326 0
M  V30 3485 O 336.416 -0.354395 2.13478 0
M  V30 3486 C 337.011 2.95304 1.66076 0
M  V30 3487 C 335.57 3.06496 2.18489 0
M  V30 3488 C 334.717 2.58403 1.00613 0
M  V30 3489 H 337.668 1.58285 0.114649 0
M  V30 3490 H 337.689 2.84727 2.5241 0
M  V30 3491 H 337.201 3.76387 0.946276 0
M  V30 3492 H 335.302 2.3006 2.93092 0
M  V30 3493 H 335.415 4.1208 2.44391 0
M  V30 3494 H 333.779 2.13977 1.38152 0
M  V30 3495 H 334.562 3.41932 0.306179 0
M  V30 3496 N 337.007 -0.598083 1.45811 0
M  V30 3497 C 338.423 -0.919847 1.30426 0
M  V30 3498 C 338.623 -1.99759 0.264303 0
M  V30 3499 O 337.679 -2.50221 -0.338472 0
M  V30 3500 C 338.992 -1.35176 2.68603 0
M  V30 3501 C 340.54 -1.46546 2.76574 0
M  V30 3502 C 341.015 -1.9311 4.15298 0
M  V30 3503 N 342.506 -2.00328 4.1764 0
M  V30 3504 C 343.241 -2.37599 5.21856 0
M  V30 3505 N 342.737 -2.73771 6.36413 0
M  V30 3506 N 344.53 -2.38021 5.09218 0
M  V30 3507 H 336.681 0.114111 2.12093 0
M  V30 3508 H 338.944 -0.0116121 0.947929 0
M  V30 3509 H 338.65 -0.633969 3.45939 0
M  V30 3510 H 338.524 -2.3164 2.97696 0
M  V30 3511 H 340.911 -2.17415 1.99537 0
M  V30 3512 H 340.992 -0.483727 2.51185 0
M  V30 3513 H 340.636 -1.22824 4.92825 0
M  V30 3514 H 340.566 -2.92213 4.38086 0
M  V30 3515 H 343.057 -1.74925 3.34977 0
M  V30 3516 H 343.37 -3.0112 7.11721 0
M  V30 3517 H 341.715 -2.71445 6.39799 0
M  V30 3518 H 344.906 -2.09174 4.18765 0
M  V30 3519 H 345.079 -2.66741 5.90554 0
M  V30 3520 N 338.485 -1.33259 -0.841409 0
M  V30 3521 C 339.901 -1.12538 -1.13169 0
M  V30 3522 C 340.101 0.0854037 -2.01319 0
M  V30 3523 O 339.157 0.766417 -2.40587 0
M  V30 3524 C 340.47 -2.41156 -1.79623 0
M  V30 3525 C 342.018 -2.47038 -1.922 0
M  V30 3526 C 342.493 -3.7561 -2.6207 0
M  V30 3527 N 343.984 -3.76667 -2.69585 0
M  V30 3528 C 344.719 -4.72861 -3.2433 0
M  V30 3529 N 344.215 -5.79428 -3.79783 0
M  V30 3530 N 346.008 -4.6034 -3.22558 0
M  V30 3531 H 338.159 -2.10868 -0.254676 0
M  V30 3532 H 340.422 -0.931615 -0.175493 0
M  V30 3533 H 340.128 -3.29747 -1.22311 0
M  V30 3534 H 340.002 -2.53114 -2.79666 0
M  V30 3535 H 342.389 -1.58898 -2.48667 0
M  V30 3536 H 342.47 -2.39022 -0.911148 0
M  V30 3537 H 342.114 -4.64131 -2.06263 0
M  V30 3538 H 342.044 -3.80902 -3.63622 0
M  V30 3539 H 344.535 -2.99648 -2.30259 0
M  V30 3540 H 344.848 -6.48867 -4.19752 0
M  V30 3541 H 343.193 -5.83166 -3.78078 0
M  V30 3542 H 346.384 -3.76244 -2.78492 0
M  V30 3543 H 346.557 -5.35478 -3.64921 0
M  V30 3544 N 339.963 1.05934 -1.16686 0
M  V30 3545 C 341.188 1.83029 -0.975455 0
M  V30 3546 C 341.613 1.82096 0.471452 0
M  V30 3547 O 340.971 1.22443 1.33706 0
M  V30 3548 C 341.019 3.27372 -1.51195 0
M  V30 3549 O 340.123 4.06054 -0.720701 0
M  V30 3550 H 339.464 0.566194 -0.346872 0
M  V30 3551 H 341.994 1.33541 -1.55009 0
M  V30 3552 H 342.004 3.78186 -1.53099 0
M  V30 3553 H 340.679 3.27366 -2.56523 0
M  V30 3554 H 339.256 3.64812 -0.772458 0
M  V30 3555 N 341.441 0.965919 1.2453 0
M  V30 3556 C 342.857 0.67216 1.44756 0
M  V30 3557 C 343.057 -0.766609 1.86347 0
M  V30 3558 O 342.113 -1.5407 2.00047 0
M  V30 3559 C 343.426 1.65473 2.51076 0
M  V30 3560 C 344.974 1.66716 2.64905 0
M  V30 3561 C 345.449 2.63766 3.74421 0
M  V30 3562 N 346.94 2.62198 3.81846 0
M  V30 3563 C 347.675 3.33966 4.66106 0
M  V30 3564 N 347.171 4.15245 5.54566 0
M  V30 3565 N 348.964 3.22799 4.60171 0
M  V30 3566 H 341.115 1.89553 0.958293 0
M  V30 3567 H 343.378 0.815979 0.482579 0
M  V30 3568 H 343.084 2.68296 2.27399 0
M  V30 3569 H 342.958 1.4261 3.49202 0
M  V30 3570 H 345.345 0.646057 2.87941 0
M  V30 3571 H 345.426 1.93642 1.67142 0
M  V30 3572 H 345.07 3.6601 3.52135 0
M  V30 3573 H 345 2.34121 4.71694 0
M  V30 3574 H 347.491 2.032 3.18619 0
M  V30 3575 H 347.804 4.66898 6.15814 0
M  V30 3576 H 346.149 4.1934 5.54237 0
M  V30 3577 H 349.34 2.58764 3.90075 0
M  V30 3578 H 349.513 3.78994 5.25612 0
M  V30 3579 N 342.919 -1.39368 0.735821 0
M  V30 3580 C 344.167 -2.00101 0.283562 0
M  V30 3581 C 344.488 -1.5868 -1.13338 0
M  V30 3582 O 343.758 -0.835423 -1.77193 0
M  V30 3583 H 342.338 -0.740024 0.101851 0
M  V30 3584 H 345 -1.70404 0.945962 0
M  V30 3585 H 344.096 -3.10323 0.332604 0
M  V30 3586 N 344.397 -0.483516 -1.5 0
M  V30 3587 C 345.622 0.0667119 -2.07293 0
M  V30 3588 C 346.047 1.3164 -1.3436 0
M  V30 3589 O 345.405 1.76945 -0.394987 0
M  V30 3590 C 345.453 0.321126 -3.59167 0
M  V30 3591 O 344.557 1.39927 -3.87936 0
M  V30 3592 H 343.898 -0.0184758 -0.663743 0
M  V30 3593 H 346.428 -0.678125 -1.93035 0
M  V30 3594 H 346.438 0.557906 -4.04168 0
M  V30 3595 H 345.113 -0.592007 -4.11665 0
M  V30 3596 H 343.69 1.14882 -3.54763 0
M  V30 3597 N 345.875 1.56104 -0.216619 0
M  V30 3598 C 347.286 1.844 0.292128 0
M  V30 3599 C 347.637 1.13788 1.59833 0
M  V30 3600 O 346.762 0.405888 2.12559 0
M  V30 3601 C 347.357 3.3452 0.53681 0
M  V30 3602 C 345.916 3.63151 0.989876 0
M  V30 3603 C 345.063 2.77255 0.0502302 0
M  V30 3604 H 348.014 1.52481 -0.439926 0
M  V30 3605 H 348.035 3.54459 1.38345 0
M  V30 3606 H 347.547 3.85885 -0.414031 0
M  V30 3607 H 345.648 3.17238 1.95425 0
M  V30 3608 H 345.761 4.71177 0.867698 0
M  V30 3609 H 344.125 2.48555 0.556117 0
M  V30 3610 H 344.908 3.31416 -0.89544 0
M  V30 3611 N 347.353 -0.0568162 1.57498 0
M  V30 3612 C 348.769 -0.411933 1.54192 0
M  V30 3613 C 348.969 -1.78287 0.938942 0
M  V30 3614 O 348.025 -2.46483 0.547919 0
M  V30 3615 C 349.338 -0.339244 2.9878 0
M  V30 3616 C 350.886 -0.418348 3.10192 0
M  V30 3617 C 351.361 -0.375407 4.56459 0
M  V30 3618 N 352.852 -0.435038 4.61153 0
M  V30 3619 C 353.587 -0.424265 5.71828 0
M  V30 3620 N 353.083 -0.367418 6.91825 0
M  V30 3621 N 354.876 -0.471938 5.60115 0
M  V30 3622 H 347.027 0.840684 1.95055 0
M  V30 3623 H 349.29 0.316987 0.893433 0
M  V30 3624 H 348.996 0.601742 3.46514 0
M  V30 3625 H 348.87 -1.14371 3.59443 0
M  V30 3626 H 351.257 -1.34976 2.62422 0
M  V30 3627 H 351.338 0.414962 2.52412 0
M  V30 3628 H 350.982 0.552219 5.04889 0
M  V30 3629 H 350.912 -1.22645 5.12119 0
M  V30 3630 H 353.403 -0.482612 3.74806 0
M  V30 3631 H 353.716 -0.363535 7.71944 0
M  V30 3632 H 352.061 -0.333879 6.94198 0
M  V30 3633 H 355.252 -0.514145 4.65268 0
M  V30 3634 H 355.425 -0.460073 6.46365 0
M  V30 3635 N 348.832 -1.54138 -0.328536 0
M  V30 3636 C 350.062 -1.75807 -1.08516 0
M  V30 3637 C 350.47 -0.50428 -1.82356 0
M  V30 3638 O 349.813 0.534451 -1.75754 0
M  V30 3639 C 349.875 -2.89423 -2.13248 0
M  V30 3640 C 349.539 -4.28504 -1.5885 0
M  V30 3641 C 350.536 -5.09536 -1.03289 0
M  V30 3642 C 348.221 -4.75034 -1.63243 0
M  V30 3643 C 350.215 -6.35206 -0.52845 0
M  V30 3644 C 347.902 -6.00672 -1.12411 0
M  V30 3645 C 348.9 -6.80592 -0.573062 0
M  V30 3646 O 348.588 -8.03867 -0.0723692 0
M  V30 3647 H 348.32 -0.590633 -0.328829 0
M  V30 3648 H 350.874 -2.01819 -0.381868 0
M  V30 3649 H 349.104 -2.5897 -2.87178 0
M  V30 3650 H 350.793 -2.98921 -2.74592 0
M  V30 3651 H 351.559 -4.74745 -0.99206 0
M  V30 3652 H 347.438 -4.12875 -2.05074 0
M  V30 3653 H 350.982 -6.97532 -0.0976774 0
M  V30 3654 H 346.879 -6.34955 -1.162 0
M  V30 3655 H 347.647 -8.18283 -0.188258 0
M  V30 3656 N 350.31 0.590341 -1.46126 0
M  V30 3657 C 351.535 1.37991 -1.54833 0
M  V30 3658 C 351.96 1.87163 -0.187506 0
M  V30 3659 O 351.318 1.61133 0.831008 0
M  V30 3660 C 351.366 2.54867 -2.55098 0
M  V30 3661 O 350.47 3.56061 -2.08073 0
M  V30 3662 H 349.811 0.411265 -0.521303 0
M  V30 3663 H 352.341 0.716819 -1.91632 0
M  V30 3664 H 352.351 3.01886 -2.74461 0
M  V30 3665 H 351.026 2.18429 -3.53923 0
M  V30 3666 H 349.603 3.15574 -1.98664 0
M  V30 3667 N 351.788 1.33704 0.83433 0
M  V30 3668 C 353.199 1.22813 1.4062 0
M  V30 3669 C 353.55 -0.151107 1.95617 0
M  V30 3670 O 352.675 -1.05092 1.89168 0
M  V30 3671 C 353.27 2.22355 2.55624 0
M  V30 3672 C 351.829 2.1529 3.08751 0
M  V30 3673 C 350.976 2.09589 1.8157 0
M  V30 3674 H 353.927 1.45236 0.639702 0
M  V30 3675 H 353.948 1.83391 3.33389 0
M  V30 3676 H 353.46 3.22728 2.15566 0
M  V30 3677 H 351.561 1.18235 3.53343 0
M  V30 3678 H 351.674 3.06038 3.68616 0
M  V30 3679 H 350.038 1.55134 2.02004 0
M  V30 3680 H 350.821 3.11777 1.43701 0
M  V30 3681 N 353.266 -1.05314 1.17247 0
M  V30 3682 C 354.682 -1.30452 0.919473 0
M  V30 3683 C 354.882 -1.9703 -0.42209 0
M  V30 3684 O 353.938 -2.24311 -1.15935 0
M  V30 3685 C 355.251 -2.17551 2.07586 0
M  V30 3686 C 356.799 -2.30937 2.11275 0
M  V30 3687 C 357.274 -3.21396 3.26296 0
M  V30 3688 N 358.765 -3.28981 3.26076 0
M  V30 3689 C 359.5 -3.99095 4.11716 0
M  V30 3690 N 358.996 -4.71648 5.07465 0
M  V30 3691 N 360.789 -3.95247 3.9967 0
M  V30 3692 H 352.94 -0.604988 2.03602 0
M  V30 3693 H 355.203 -0.329368 0.888944 0
M  V30 3694 H 354.909 -1.75921 3.0454 0
M  V30 3695 H 354.783 -3.18182 2.02584 0
M  V30 3696 H 357.17 -2.71809 1.14907 0
M  V30 3697 H 357.251 -1.2994 2.20339 0
M  V30 3698 H 356.895 -2.81238 4.22927 0
M  V30 3699 H 356.825 -4.22395 3.14467 0
M  V30 3700 H 359.316 -2.77286 2.5675 0
M  V30 3701 H 359.629 -5.22705 5.6921 0
M  V30 3702 H 357.974 -4.70594 5.11435 0
M  V30 3703 H 361.165 -3.37691 3.24164 0
M  V30 3704 H 361.338 -4.4962 4.66632 0
M  V30 3705 N 354.744 -0.972509 -1.24016 0
M  V30 3706 C 355.694 -0.477561 -2.22942 0
M  V30 3707 C 356.678 0.44308 -1.54679 0
M  V30 3708 O 357.87 0.273219 -1.74879 0
M  V30 3709 C 354.999 0.226348 -3.42553 0
M  V30 3710 C 354.085 -0.713403 -4.18057 0
M  V30 3711 N 354.476 -1.8527 -4.70647 0
M  V30 3712 C 352.774 -0.525145 -4.42898 0
M  V30 3713 C 353.475 -2.44089 -5.28011 0
M  V30 3714 N 352.451 -1.72556 -5.15486 0
M  V30 3715 H 356.253 -1.34678 -2.61226 0
M  V30 3716 H 353.767 -0.832196 -1.39457 0
M  V30 3717 H 355.764 0.598184 -4.12586 0
M  V30 3718 H 354.424 1.09195 -3.05788 0
M  V30 3719 H 355.435 -2.2341 -4.67235 0
M  V30 3720 H 352.112 0.296096 -4.16449 0
M  V30 3721 H 353.502 -3.40259 -5.79374 0
M  V30 3722 N 356.222 1.38976 -0.743202 0
M  V30 3723 C 357.447 2.05161 -0.303936 0
M  V30 3724 C 357.872 1.55677 1.05576 0
M  V30 3725 O 357.23 0.704131 1.67068 0
M  V30 3726 C 357.278 3.59138 -0.324373 0
M  V30 3727 O 356.382 4.06668 0.685204 0
M  V30 3728 H 355.723 0.649815 -0.136518 0
M  V30 3729 H 358.253 1.77852 -1.01142 0
M  V30 3730 H 358.263 4.07639 -0.171618 0
M  V30 3731 H 356.938 3.94515 -1.31647 0
M  V30 3732 H 355.515 3.69561 0.497913 0
M  V30 3733 N 357.7 0.491464 1.49741 0
M  V30 3734 C 359.116 0.146835 1.58923 0
M  V30 3735 C 359.316 -1.34804 1.49767 0
M  V30 3736 O 358.372 -2.12317 1.36667 0
M  V30 3737 C 359.685 0.715157 2.92072 0
M  V30 3738 C 361.233 0.680407 3.05515 0
M  V30 3739 C 361.708 1.22663 4.41269 0
M  V30 3740 N 363.199 1.18691 4.47735 0
M  V30 3741 C 363.934 1.57984 5.51207 0
M  V30 3742 N 363.43 2.04824 6.6183 0
M  V30 3743 N 365.223 1.49459 5.41866 0
M  V30 3744 H 357.374 1.46347 1.53936 0
M  V30 3745 H 359.637 0.606453 0.728642 0
M  V30 3746 H 359.343 1.76317 3.04311 0
M  V30 3747 H 359.217 0.17018 3.76816 0
M  V30 3748 H 361.604 -0.358743 2.92911 0
M  V30 3749 H 361.685 1.26242 2.22478 0
M  V30 3750 H 361.329 2.26451 4.54623 0
M  V30 3751 H 361.259 0.620637 5.2293 0
M  V30 3752 H 363.75 0.843605 3.68364 0
M  V30 3753 H 364.063 2.32901 7.3687 0
M  V30 3754 H 362.408 2.08791 6.62896 0
M  V30 3755 H 365.599 1.12692 4.54333 0
M  V30 3756 H 365.772 1.80406 6.22381 0
M  V30 3757 N 359.178 -1.55987 0.224894 0
M  V30 3758 C 360.403 -2.03232 -0.41369 0
M  V30 3759 C 360.828 -1.10359 -1.52323 0
M  V30 3760 O 360.186 -0.092395 -1.81064 0
M  V30 3761 C 360.234 -3.48682 -0.919405 0
M  V30 3762 O 359.338 -3.58947 -2.03054 0
M  V30 3763 H 358.679 -0.657428 -0.0931903 0
M  V30 3764 H 361.209 -2.01679 0.34451 0
M  V30 3765 H 361.219 -3.8907 -1.22835 0
M  V30 3766 H 359.894 -4.15761 -0.107339 0
M  V30 3767 H 358.471 -3.30448 -1.72796 0
M  V30 3768 N 360.656 0.0484629 -1.57525 0
M  V30 3769 C 362.072 0.40375 -1.54409 0
M  V30 3770 C 362.272 1.77786 -0.948384 0
M  V30 3771 O 361.328 2.46189 -0.560983 0
M  V30 3772 C 362.641 0.323394 -2.98956 0
M  V30 3773 C 364.189 0.401892 -3.10409 0
M  V30 3774 C 364.664 0.351195 -4.56652 0
M  V30 3775 N 366.155 0.410576 -4.61377 0
M  V30 3776 C 366.89 0.393933 -5.72045 0
M  V30 3777 N 366.386 0.330724 -6.9201 0
M  V30 3778 N 368.179 0.442227 -5.60358 0
M  V30 3779 H 360.33 -0.851016 -1.94606 0
M  V30 3780 H 362.593 -0.321721 -0.89174 0
M  V30 3781 H 362.299 -0.62011 -3.4619 0
M  V30 3782 H 362.173 1.12463 -3.60044 0
M  V30 3783 H 364.56 1.33582 -2.63134 0
M  V30 3784 H 364.641 -0.428342 -2.52188 0
M  V30 3785 H 364.285 -0.578987 -5.04589 0
M  V30 3786 H 364.215 1.19928 -5.12762 0
M  V30 3787 H 366.706 0.462729 -3.75056 0
M  V30 3788 H 367.019 0.322592 -7.72126 0
M  V30 3789 H 365.364 0.29706 -6.94365 0
M  V30 3790 H 368.555 0.489464 -4.65534 0
M  V30 3791 H 368.728 0.425788 -6.466 0
M  V30 3792 N 362.134 1.5431 0.320358 0
M  V30 3793 C 363.359 1.76954 1.08175 0
M  V30 3794 C 363.784 0.518193 1.80821 0
M  V30 3795 O 363.142 -0.530411 1.73368 0
M  V30 3796 C 363.19 2.96451 2.05303 0
M  V30 3797 O 362.294 2.68221 3.13259 0
M  V30 3798 H 361.635 0.586275 0.311733 0
M  V30 3799 H 364.165 2.01342 0.363676 0
M  V30 3800 H 364.175 3.23887 2.48116 0
M  V30 3801 H 362.85 3.87196 1.51829 0
M  V30 3802 H 361.427 2.51744 2.75099 0
M  V30 3803 N 363.613 -0.582584 1.46437 0
M  V30 3804 C 365.029 -0.905962 1.31394 0
M  V30 3805 C 365.229 -1.99468 0.285476 0
M  V30 3806 O 364.285 -2.50566 -0.311914 0
M  V30 3807 C 365.598 -1.3232 2.70022 0
M  V30 3808 C 367.146 -1.43604 2.78113 0
M  V30 3809 C 367.621 -1.88694 4.17323 0
M  V30 3810 N 369.112 -1.95887 4.19741 0
M  V30 3811 C 369.847 -2.32051 5.24347 0
M  V30 3812 N 369.343 -2.67006 6.39281 0
M  V30 3813 N 371.136 -2.32606 5.11713 0
M  V30 3814 H 363.287 0.1366 2.1196 0
M  V30 3815 H 365.55 -0.00155736 0.947999 0
M  V30 3816 H 365.256 -0.597242 3.46592 0
M  V30 3817 H 365.13 -2.28469 3.00136 0
M  V30 3818 H 367.517 -2.15286 2.01832 0
M  V30 3819 H 367.598 -0.457059 2.51684 0
M  V30 3820 H 367.242 -1.1759 4.941 0
M  V30 3821 H 367.172 -2.8755 4.4116 0
M  V30 3822 H 369.663 -1.71362 3.36814 0
M  V30 3823 H 369.976 -2.93554 7.14875 0
M  V30 3824 H 368.321 -2.64644 6.42642 0
M  V30 3825 H 371.512 -2.04721 4.2096 0
M  V30 3826 H 371.685 -2.60462 5.93349 0
M  V30 3827 N 365.091 -1.34144 -0.827227 0
M  V30 3828 C 366.319 -1.29325 -1.61501 0
M  V30 3829 C 366.734 0.13354 -1.88327 0
M  V30 3830 O 366.091 1.0793 -1.47164 0
M  V30 3831 C 366.142 -2.07746 -2.95844 0
M  V30 3832 O 365.863 -3.4486 -2.70191 0
M  V30 3833 C 367.364 -2.10273 -3.90256 0
M  V30 3834 H 364.584 -0.445069 -0.50215 0
M  V30 3835 H 367.128 -1.76693 -1.02955 0
M  V30 3836 H 365.283 -1.6403 -3.5096 0
M  V30 3837 H 365.697 -3.85345 -3.55822 0
M  V30 3838 H 367.171 -2.69575 -4.81698 0
M  V30 3839 H 367.648 -1.096 -4.25305 0
M  V30 3840 H 368.254 -2.54059 -3.41078 0
M  V30 3841 O 366.608 0.965494 -1.29462 0
M  V30 3842 H 367.299 1.59208 -1.10329 0
M  V30 END ATOM
M  V30 BEGIN BOND
M  V30 END BOND
M  V30 END CTAB
M  END
$$$$
