drugbank_target|Q07973 1,25-dihydroxyvitamin D(3) 24-hydroxylase, mitochondrial (DB05024)
 OpenBabel12092120083D

  0  0  0     0  0            999 V3000
M  V30 BEGIN CTAB
M  V30 COUNTS 8336 8429 0 0 0
M  V30 BEGIN ATOM
M  V30 1 H -0.908 1.98254 -0.117106 0
M  V30 2 N 0 1.576 0 0
M  V30 3 C 0.933 2.03868 1.02534 0
M  V30 4 C 1.911 0.928543 1.3348 0
M  V30 5 O 3.095 1.19667 1.45644 0
M  V30 6 C 0.222 2.43627 2.35294 0
M  V30 7 C -0.732 3.65373 2.2001 0
M  V30 8 S 0.101 5.13292 1.52614 0
M  V30 9 C 1.257 5.56322 2.86805 0
M  V30 10 H 1.49 2.90518 0.631377 0
M  V30 11 H -0.977 1.52953 0.210867 0
M  V30 12 H 0.981 2.67203 3.11629 0
M  V30 13 H -0.358 1.57376 2.7183 0
M  V30 14 H -1.165 3.90944 3.18086 0
M  V30 15 H -1.563 3.418 1.51819 0
M  V30 16 H 0.729 5.58782 3.83104 0
M  V30 17 H 1.672 6.56266 2.65933 0
M  V30 18 H 2.08 4.83886 2.90714 0
M  V30 19 N 1.4781 -0.272755 1.55222 0
M  V30 20 C 2.7031 -1.02683 1.80197 0
M  V30 21 C 3.1281 -1.79142 0.573551 0
M  V30 22 O 2.4861 -1.74917 -0.476849 0
M  V30 23 C 2.5341 -1.9609 3.02624 0
M  V30 24 O 1.6381 -3.04863 2.77727 0
M  V30 25 H 0.9791 -0.293557 0.595584 0
M  V30 26 H 3.5091 -0.30159 2.02365 0
M  V30 27 H 3.5191 -2.38039 3.31363 0
M  V30 28 H 2.1941 -1.39851 3.91682 0
M  V30 29 H 0.7711 -2.67228 2.60084 0
M  V30 30 N 2.9562 -1.48159 -0.537278 0
M  V30 31 C 4.1812 -1.59707 -1.32319 0
M  V30 32 C 4.6062 -0.254859 -1.86365 0
M  V30 33 O 3.9642 0.772378 -1.64024 0
M  V30 34 C 4.0122 -2.6412 -2.45505 0
M  V30 35 O 3.1162 -2.20774 -3.48328 0
M  V30 36 H 2.4572 -0.535791 -0.392204 0
M  V30 37 H 4.9872 -1.94092 -0.647268 0
M  V30 38 H 4.9972 -2.85166 -2.91795 0
M  V30 39 H 3.6722 -3.61567 -2.05528 0
M  V30 40 H 2.2492 -2.09911 -3.08207 0
M  V30 41 N 4.4343 0.785586 -1.36625 0
M  V30 42 C 5.8453 1.36101 -1.27803 0
M  V30 43 C 6.1963 1.96035 0.0804875 0
M  V30 44 O 5.3213 1.92834 0.982042 0
M  V30 45 C 5.9163 2.47442 -2.31426 0
M  V30 46 C 4.4753 3.00789 -2.26281 0
M  V30 47 C 3.6223 1.73896 -2.15999 0
M  V30 48 H 6.5733 0.586928 -1.47448 0
M  V30 49 H 6.5943 3.2656 -1.95291 0
M  V30 50 H 6.1063 2.03791 -3.30289 0
M  V30 51 H 4.2073 3.48851 -1.30896 0
M  V30 52 H 4.3203 3.57343 -3.19128 0
M  V30 53 H 2.6843 1.9628 -1.62316 0
M  V30 54 H 3.4673 1.32368 -3.16755 0
M  V30 55 N 5.9124 1.20967 1.01018 0
M  V30 56 C 7.1614 1.01796 1.74128 0
M  V30 57 C 7.4744 -0.449691 1.90361 0
M  V30 58 O 8.6804 -0.76068 2.60626 0
M  V30 59 C 7.1364 1.7727 3.13215 0
M  V30 60 C 6.7444 3.28171 3.04972 0
M  V30 61 C 8.4884 1.66489 3.90489 0
M  V30 62 C 6.3954 3.96156 4.39107 0
M  V30 63 H 5.3254 0.377276 0.652824 0
M  V30 64 H 7.9764 1.44651 1.12909 0
M  V30 65 H 6.3584 1.27205 3.75013 0
M  V30 66 H 7.5324 3.85499 2.52443 0
M  V30 67 H 5.8474 3.39437 2.41188 0
M  V30 68 H 8.4444 2.14617 4.89738 0
M  V30 69 H 8.7874 0.6222 4.11624 0
M  V30 70 H 9.3204 2.14003 3.35332 0
M  V30 71 H 6.0594 5.00604 4.23174 0
M  V30 72 H 5.5794 3.43617 4.91617 0
M  V30 73 H 7.2584 4.00774 5.07926 0
M  V30 74 N 7.3905 -1.2043 1.01659 0
M  V30 75 C 8.6155 -1.94318 0.724942 0
M  V30 76 C 9.0405 -1.74266 -0.708034 0
M  V30 77 O 8.3985 -1.03694 -1.48719 0
M  V30 78 C 8.4465 -3.44486 1.06591 0
M  V30 79 O 7.5505 -4.12017 0.177599 0
M  V30 80 H 6.8915 -0.60708 0.26898 0
M  V30 81 H 9.4215 -1.52861 1.35995 0
M  V30 82 H 9.4315 -3.95106 1.01762 0
M  V30 83 H 8.1065 -3.58404 2.10997 0
M  V30 84 H 6.6835 -3.71821 0.283421 0
M  V30 85 N 8.8686 -0.792821 -1.36206 0
M  V30 86 C 9.8156 -0.191653 -2.30003 0
M  V30 87 C 10.7856 0.666453 -1.52143 0
M  V30 88 O 11.9706 0.61442 -1.80636 0
M  V30 89 C 9.1106 0.664848 -3.38635 0
M  V30 90 C 8.2236 -0.212175 -4.31479 0
M  V30 91 C 7.3586 0.651022 -5.27196 0
M  V30 92 C 6.3976 -0.227247 -6.11678 0
M  V30 93 N 5.5346 0.595127 -6.99573 0
M  V30 94 H 10.3746 -0.996978 -2.80828 0
M  V30 95 H 7.9116 -0.503206 -1.38225 0
M  V30 96 H 9.8696 1.17645 -4.00269 0
M  V30 97 H 8.4996 1.43557 -2.89122 0
M  V30 98 H 7.5516 -0.841777 -3.70969 0
M  V30 99 H 8.8636 -0.888751 -4.90818 0
M  V30 100 H 8.0176 1.2283 -5.94136 0
M  V30 101 H 6.7566 1.36121 -4.68319 0
M  V30 102 H 5.7616 -0.816904 -5.43697 0
M  V30 103 H 6.9866 -0.93509 -6.72631 0
M  V30 104 H 4.9326 1.28955 -6.432 0
M  V30 105 H 4.8496 -0.0236952 -7.55996 0
M  V30 106 H 6.1176 1.15613 -7.70879 0
M  V30 107 N 10.3467 1.47872 -0.545128 0
M  V30 108 C 11.5717 2.07391 -0.0190611 0
M  V30 109 C 11.9967 1.39688 1.25971 0
M  V30 110 O 11.3547 0.467816 1.7516 0
M  V30 111 C 11.4027 3.60188 0.172335 0
M  V30 112 O 10.5067 3.9339 1.23766 0
M  V30 113 H 9.8477 0.662411 -0.0459059 0
M  V30 114 H 12.3777 1.90066 -0.757365 0
M  V30 115 H 12.3877 4.06129 0.390305 0
M  V30 116 H 11.0627 4.08865 -0.761725 0
M  V30 117 H 9.6397 3.5921 1.00114 0
M  V30 118 N 11.8248 0.280983 1.55075 0
M  V30 119 C 13.2408 -0.0729964 1.59433 0
M  V30 120 C 13.4408 -1.5411 1.29817 0
M  V30 121 O 12.4968 -2.29086 1.06187 0
M  V30 122 C 13.8098 0.306921 2.9913 0
M  V30 123 C 15.3578 0.254023 3.11968 0
M  V30 124 C 15.8328 0.608467 4.5394 0
M  V30 125 N 17.3238 0.560241 4.59799 0
M  V30 126 C 18.0588 0.80722 5.6769 0
M  V30 127 N 17.5548 1.11912 6.83701 0
M  V30 128 N 19.3478 0.735623 5.57266 0
M  V30 129 H 11.4988 1.238 1.7259 0
M  V30 130 H 13.7618 0.500547 0.805082 0
M  V30 131 H 13.4678 1.32816 3.25657 0
M  V30 132 H 13.3418 -0.349363 3.75579 0
M  V30 133 H 15.7288 -0.75794 2.852 0
M  V30 134 H 15.8098 0.944649 2.37718 0
M  V30 135 H 15.4538 1.61814 4.81434 0
M  V30 136 H 15.3838 -0.104013 5.26497 0
M  V30 137 H 17.8748 0.329288 3.76463 0
M  V30 138 H 18.1878 1.29409 7.61888 0
M  V30 139 H 16.5328 1.15695 6.85303 0
M  V30 140 H 19.7238 0.491752 4.6551 0
M  V30 141 H 19.8968 0.931482 6.4127 0
M  V30 142 N 13.3029 -1.57598 0.00835791 0
M  V30 143 C 14.5279 -1.95617 -0.689103 0
M  V30 144 C 14.9529 -0.883753 -1.66046 0
M  V30 145 O 14.3109 0.157352 -1.80616 0
M  V30 146 C 14.3589 -3.32736 -1.38994 0
M  V30 147 O 13.4629 -3.27631 -2.50463 0
M  V30 148 H 12.8039 -0.638379 -0.182668 0
M  V30 149 H 15.3339 -2.045 0.064036 0
M  V30 150 H 15.3439 -3.68494 -1.75147 0
M  V30 151 H 14.0189 -4.1034 -0.677778 0
M  V30 152 H 12.5959 -3.03561 -2.16576 0
M  V30 153 N 14.781 0.264519 -1.55364 0
M  V30 154 C 15.711 1.33121 -1.91836 0
M  V30 155 C 16.692 1.51101 -0.781192 0
M  V30 156 O 17.877 1.64003 -1.04003 0
M  V30 157 C 15.007 2.68921 -2.19769 0
M  V30 158 C 13.961 2.65661 -3.35571 0
M  V30 159 C 13.287 4.05093 -3.49004 0
M  V30 160 C 14.587 2.24187 -4.71739 0
M  V30 161 H 16.281 1.02844 -2.81182 0
M  V30 162 H 13.827 0.493286 -1.35287 0
M  V30 163 H 15.78 3.43663 -2.43872 0
M  V30 164 H 14.504 3.00799 -1.27231 0
M  V30 165 H 13.163 1.93377 -3.1145 0
M  V30 166 H 12.811 4.34206 -2.53917 0
M  V30 167 H 12.511 4.03804 -4.26868 0
M  V30 168 H 14.035 4.81561 -3.75408 0
M  V30 169 H 15.449 2.88654 -4.9533 0
M  V30 170 H 13.846 2.34044 -5.52579 0
M  V30 171 H 14.916 1.19327 -4.69988 0
M  V30 172 N 16.2591 1.48442 0.529413 0
M  V30 173 C 17.2221 1.62524 1.61612 0
M  V30 174 C 18.2221 0.498509 1.52877 0
M  V30 175 O 19.4121 0.76431 1.56537 0
M  V30 176 C 16.5441 1.59597 3.01233 0
M  V30 177 H 17.7371 2.59423 1.50465 0
M  V30 178 H 15.2901 1.37047 0.751514 0
M  V30 179 H 16.0251 0.641781 3.17886 0
M  V30 180 H 15.8101 2.41397 3.08982 0
M  V30 181 H 17.3001 1.72646 3.80241 0
M  V30 182 N 17.7372 -0.778329 1.37039 0
M  V30 183 C 18.7002 -1.87301 1.32102 0
M  V30 184 C 19.7002 -1.59198 0.226405 0
M  V30 185 O 20.8902 -1.67403 0.481861 0
M  V30 186 C 18.0222 -3.24309 1.05055 0
M  V30 187 H 19.2152 -1.93093 2.29467 0
M  V30 188 H 16.7682 -0.977358 1.21973 0
M  V30 189 H 17.5032 -3.24196 0.0819373 0
M  V30 190 H 17.2882 -3.46098 1.84279 0
M  V30 191 H 18.7782 -4.04382 1.04234 0
M  V30 192 N 19.2153 -1.21501 -1.00376 0
M  V30 193 C 20.4623 -1.03299 -1.74171 0
M  V30 194 C 20.7903 0.433326 -1.89612 0
M  V30 195 O 20.0453 1.33779 -1.42834 0
M  V30 196 C 20.3443 -1.67673 -3.15627 0
M  V30 197 C 20.0103 -3.17533 -3.2013 0
M  V30 198 C 18.6723 -3.58427 -3.21067 0
M  V30 199 C 21.0243 -4.13504 -3.17275 0
M  V30 200 C 18.3523 -4.93794 -3.16835 0
M  V30 201 C 20.7043 -5.48834 -3.14585 0
M  V30 202 C 19.3683 -5.89123 -3.13831 0
M  V30 203 H 18.6383 -0.377999 -0.637336 0
M  V30 204 H 21.2853 -1.51111 -1.17634 0
M  V30 205 H 19.5903 -1.12158 -3.75404 0
M  V30 206 H 21.2873 -1.51091 -3.71446 0
M  V30 207 H 17.8773 -2.84965 -3.20145 0
M  V30 208 H 22.0613 -3.82936 -3.15711 0
M  V30 209 H 17.3173 -5.24255 -3.1459 0
M  V30 210 H 21.4913 -6.22934 -3.1133 0
M  V30 211 H 19.1183 -6.93984 -3.10307 0
M  V30 212 N 20.6934 1.19889 -1.02296 0
M  V30 213 C 21.6234 2.25141 -0.619174 0
M  V30 214 C 22.6044 1.66051 0.368915 0
M  V30 215 O 23.7894 1.92546 0.252941 0
M  V30 216 C 20.9194 3.4728 0.0368783 0
M  V30 217 C 19.8734 4.19005 -0.872865 0
M  V30 218 C 19.1994 5.34637 -0.0822402 0
M  V30 219 C 20.4994 4.74452 -2.18387 0
M  V30 220 H 22.1934 2.59171 -1.49903 0
M  V30 221 H 19.7394 1.24579 -0.722222 0
M  V30 222 H 21.6924 4.20098 0.330958 0
M  V30 223 H 20.4164 3.12433 0.95149 0
M  V30 224 H 19.0754 3.48061 -1.15105 0
M  V30 225 H 18.7234 4.96034 0.83422 0
M  V30 226 H 18.4234 5.83557 -0.688149 0
M  V30 227 H 19.9474 6.10255 0.205238 0
M  V30 228 H 21.3614 5.39055 -1.95172 0
M  V30 229 H 19.7584 5.33834 -2.74119 0
M  V30 230 H 20.8284 3.92844 -2.84257 0
M  V30 231 N 22.1715 0.800033 1.35784 0
M  V30 232 C 23.1035 0.163596 2.28615 0
M  V30 233 C 24.1165 -0.633317 1.49976 0
M  V30 234 O 25.3055 -0.466754 1.72289 0
M  V30 235 C 22.4055 -0.790958 3.29541 0
M  V30 236 C 21.5785 -0.0418255 4.3738 0
M  V30 237 C 20.6375 -0.91389 5.18203 0
M  V30 238 O 19.6635 -0.367234 5.68014 0
M  V30 239 N 20.8655 -2.23682 5.35674 0
M  V30 240 H 23.6305 0.96105 2.83873 0
M  V30 241 H 21.1915 0.654894 1.48063 0
M  V30 242 H 23.1835 -1.37844 3.80501 0
M  V30 243 H 21.7535 -1.48925 2.74846 0
M  V30 244 H 20.9735 0.726813 3.87442 0
M  V30 245 H 22.2615 0.474719 5.06581 0
M  V30 246 H 21.6595 -2.70497 4.96838 0
M  V30 247 H 20.2165 -2.77369 5.89839 0
M  V30 248 N 23.6496 -1.47581 0.552962 0
M  V30 249 C 24.5816 -2.27997 -0.234533 0
M  V30 250 C 25.5946 -1.36753 -0.883321 0
M  V30 251 O 26.7836 -1.61612 -0.757889 0
M  V30 252 C 23.8836 -3.10879 -1.34935 0
M  V30 253 C 23.0566 -4.30056 -0.798158 0
M  V30 254 C 22.1156 -4.94567 -1.79694 0
M  V30 255 O 21.1416 -5.53087 -1.34474 0
M  V30 256 N 22.3436 -4.88878 -3.13015 0
M  V30 257 H 25.1086 -2.96222 0.455255 0
M  V30 258 H 22.6696 -1.57163 0.388761 0
M  V30 259 H 24.6616 -3.50903 -2.01616 0
M  V30 260 H 23.2316 -2.44924 -1.94244 0
M  V30 261 H 22.4516 -3.94174 0.0453079 0
M  V30 262 H 23.7396 -5.07152 -0.409173 0
M  V30 263 H 23.1376 -4.42526 -3.52402 0
M  V30 264 H 21.6946 -5.32934 -3.75266 0
M  V30 265 N 25.1277 -0.289203 -1.54924 0
M  V30 266 C 26.0577 0.58549 -2.2604 0
M  V30 267 C 27.0387 1.14753 -1.25562 0
M  V30 268 O 28.2237 1.17906 -1.54311 0
M  V30 269 C 25.3537 1.76305 -2.99222 0
M  V30 270 C 24.3077 1.33191 -4.06748 0
M  V30 271 C 23.6337 2.5937 -4.6758 0
M  V30 272 C 24.9337 0.471775 -5.20165 0
M  V30 273 H 26.6277 -0.00763532 -2.99399 0
M  V30 274 H 24.1737 -0.00511229 -1.43999 0
M  V30 275 H 26.1267 2.38097 -3.47689 0
M  V30 276 H 24.8507 2.38223 -2.23422 0
M  V30 277 H 23.5097 0.737121 -3.59113 0
M  V30 278 H 23.1577 3.19576 -3.88433 0
M  V30 279 H 22.8577 2.31228 -5.40192 0
M  V30 280 H 24.3817 3.21985 -5.18804 0
M  V30 281 H 25.7957 0.995056 -5.64599 0
M  V30 282 H 24.1927 0.284639 -5.99425 0
M  V30 283 H 25.2627 -0.506041 -4.82252 0
M  V30 284 N 26.6058 1.57591 -0.0167156 0
M  V30 285 C 28.0218 1.55946 0.339557 0
M  V30 286 C 28.2218 1.02109 1.73713 0
M  V30 287 O 27.2778 0.662303 2.43659 0
M  V30 288 C 28.5908 3.00037 0.199499 0
M  V30 289 C 30.1388 3.11805 0.273193 0
M  V30 290 C 30.6138 4.57713 0.162068 0
M  V30 291 N 32.1048 4.6268 0.219444 0
M  V30 292 C 32.8398 5.73185 0.157054 0
M  V30 293 N 32.3358 6.92786 0.0442936 0
M  V30 294 N 34.1288 5.61707 0.21014 0
M  V30 295 H 26.2798 1.90921 -0.930758 0
M  V30 296 H 28.5428 0.877674 -0.358319 0
M  V30 297 H 28.2488 3.4333 -0.76273 0
M  V30 298 H 28.1228 3.64387 0.974786 0
M  V30 299 H 30.5098 2.68433 1.22587 0
M  V30 300 H 30.5908 2.50201 -0.532256 0
M  V30 301 H 30.2348 5.01763 -0.78714 0
M  V30 302 H 30.1648 5.17283 0.986222 0
M  V30 303 H 32.6558 3.76649 0.307246 0
M  V30 304 H 32.9688 7.728 0.00304069 0
M  V30 305 H 31.3138 6.94999 0.00968457 0
M  V30 306 H 34.5048 4.6716 0.296546 0
M  V30 307 H 34.6778 6.47807 0.158054 0
M  V30 308 N 28.0839 -0.256276 1.55502 0
M  V30 309 C 29.3089 -1.00766 1.81276 0
M  V30 310 C 29.7339 -1.78524 0.59252 0
M  V30 311 O 29.0919 -1.75413 -0.45827 0
M  V30 312 C 29.1399 -1.92869 3.04687 0
M  V30 313 O 28.2439 -3.019 2.80945 0
M  V30 314 H 27.5849 -0.287224 0.598664 0
M  V30 315 H 30.1149 -0.280109 2.02674 0
M  V30 316 H 30.1249 -2.34511 3.33869 0
M  V30 317 H 28.7999 -1.35689 3.93143 0
M  V30 318 H 27.3769 -2.64454 2.62904 0
M  V30 319 N 29.562 -1.4872 -0.521534 0
M  V30 320 C 30.973 -1.50607 -1.10337 0
M  V30 321 C 31.324 -0.280612 -1.94183 0
M  V30 322 O 30.449 0.611507 -2.0758 0
M  V30 323 C 31.044 -2.72903 -2.00772 0
M  V30 324 C 29.603 -2.77634 -2.54158 0
M  V30 325 C 28.75 -2.44241 -1.31307 0
M  V30 326 H 31.701 -1.55714 -0.306388 0
M  V30 327 H 31.722 -2.519 -2.85178 0
M  V30 328 H 31.234 -3.62077 -1.39721 0
M  V30 329 H 29.335 -1.92689 -3.18907 0
M  V30 330 H 29.448 -3.79283 -2.92714 0
M  V30 331 H 27.812 -1.95577 -1.63161 0
M  V30 332 H 28.595 -3.35666 -0.719943 0
M  V30 333 N 31.0401 0.771051 -1.3745 0
M  V30 334 C 32.4561 1.07171 -1.18265 0
M  V30 335 C 32.6561 2.01491 -0.019287 0
M  V30 336 O 31.7121 2.44244 0.640408 0
M  V30 337 C 33.0251 1.66854 -2.50161 0
M  V30 338 C 34.5731 1.79109 -2.56689 0
M  V30 339 C 35.0481 2.42205 -3.88717 0
M  V30 340 N 36.5391 2.49655 -3.90162 0
M  V30 341 C 37.2741 2.9933 -4.8907 0
M  V30 342 N 36.7701 3.49172 -5.98374 0
M  V30 343 N 38.5631 2.9821 -4.76474 0
M  V30 344 H 30.7141 0.144796 -2.11906 0
M  V30 345 H 32.9771 0.126863 -0.939473 0
M  V30 346 H 32.6831 1.05017 -3.35655 0
M  V30 347 H 32.5571 2.6614 -2.673 0
M  V30 348 H 34.9441 2.40077 -1.71601 0
M  V30 349 H 35.0251 0.785757 -2.43433 0
M  V30 350 H 34.6691 1.81875 -4.74219 0
M  V30 351 H 34.5991 3.43345 -3.99276 0
M  V30 352 H 37.0901 2.14383 -3.11205 0
M  V30 353 H 37.4031 3.8548 -6.69795 0
M  V30 354 H 35.7481 3.47275 -6.02018 0
M  V30 355 H 38.9391 2.58572 -3.90203 0
M  V30 356 H 39.1121 3.36613 -5.53711 0
M  V30 357 N 32.5182 1.22032 0.997298 0
M  V30 358 C 33.4502 0.944263 2.08845 0
M  V30 359 C 34.4632 -0.0754663 1.62625 0
M  V30 360 O 35.6522 0.157994 1.77799 0
M  V30 361 C 32.7522 0.397723 3.36558 0
M  V30 362 C 31.9252 1.47362 4.11829 0
M  V30 363 C 30.9842 0.934951 5.17827 0
M  V30 364 O 30.0102 1.62016 5.45655 0
M  V30 365 N 31.2122 -0.245895 5.79979 0
M  V30 366 H 33.9772 1.88363 2.33109 0
M  V30 367 H 31.5382 1.12661 1.16272 0
M  V30 368 H 33.5302 0.0227771 4.04694 0
M  V30 369 H 32.1002 -0.446646 3.09393 0
M  V30 370 H 31.3202 2.02208 3.38386 0
M  V30 371 H 32.6082 2.19764 4.58891 0
M  V30 372 H 32.0062 -0.819475 5.59733 0
M  V30 373 H 30.5632 -0.562272 6.4937 0
M  V30 374 N 33.9963 -1.19345 1.0293 0
M  V30 375 C 35.4073 -1.70725 0.755633 0
M  V30 376 C 35.7583 -1.82326 -0.724676 0
M  V30 377 O 34.8833 -1.49471 -1.56484 0
M  V30 378 C 35.4783 -3.10084 1.36503 0
M  V30 379 C 34.0373 -3.58723 1.13994 0
M  V30 380 C 33.1843 -2.35577 1.46283 0
M  V30 381 H 36.1353 -1.0418 1.19718 0
M  V30 382 H 36.1563 -3.72787 0.762217 0
M  V30 383 H 35.6683 -3.01609 2.44241 0
M  V30 384 H 33.7693 -3.72512 0.0807901 0
M  V30 385 H 33.8823 -4.42816 1.82894 0
M  V30 386 H 32.2463 -2.38935 0.88217 0
M  V30 387 H 33.0293 -2.29731 2.55105 0
M  V30 388 N 35.4744 -0.807222 -1.35358 0
M  V30 389 C 36.8854 -0.44876 -1.81226 0
M  V30 390 C 37.2364 1.02929 -1.67033 0
M  V30 391 O 36.3614 1.79991 -1.20133 0
M  V30 392 C 36.9564 -0.807774 -3.2903 0
M  V30 393 C 35.5154 -0.501901 -3.73039 0
M  V30 394 C 34.6624 -1.03304 -2.57339 0
M  V30 395 H 37.6134 -0.998808 -1.23327 0
M  V30 396 H 37.6344 -0.10554 -3.80354 0
M  V30 397 H 37.1464 -1.88357 -3.39328 0
M  V30 398 H 35.2474 0.565128 -3.68289 0
M  V30 399 H 35.3604 -1.03497 -4.67787 0
M  V30 400 H 33.7244 -0.455339 -2.50597 0
M  V30 401 H 34.5074 -2.11496 -2.70415 0
M  V30 402 N 36.9525 1.47285 -0.560781 0
M  V30 403 C 38.3685 1.58065 -0.22081 0
M  V30 404 C 38.5685 1.55892 1.27671 0
M  V30 405 O 37.6245 1.46422 2.0571 0
M  V30 406 C 38.9375 2.88418 -0.850625 0
M  V30 407 C 40.4855 3.02009 -0.822184 0
M  V30 408 C 40.9605 4.35066 -1.43113 0
M  V30 409 N 42.4515 4.41711 -1.39448 0
M  V30 410 C 43.1865 5.43237 -1.83525 0
M  V30 411 N 42.6825 6.51555 -2.35474 0
M  V30 412 N 44.4755 5.34304 -1.74574 0
M  V30 413 H 36.6265 1.46941 -1.53369 0
M  V30 414 H 38.8895 0.699558 -0.639783 0
M  V30 415 H 38.5955 2.95755 -1.9032 0
M  V30 416 H 38.4695 3.75612 -0.345773 0
M  V30 417 H 40.8565 2.94266 0.221714 0
M  V30 418 H 40.9375 2.16347 -1.36483 0
M  V30 419 H 40.5815 4.43565 -2.47412 0
M  V30 420 H 40.5115 5.19465 -0.863899 0
M  V30 421 H 43.0025 3.64027 -1.01452 0
M  V30 422 H 43.3155 7.25203 -2.67021 0
M  V30 423 H 41.6605 6.52435 -2.39487 0
M  V30 424 H 44.8515 4.48581 -1.33763 0
M  V30 425 H 45.0245 6.13288 -2.09242 0
M  V30 426 N 38.4306 0.297415 1.54768 0
M  V30 427 C 39.3606 -0.573494 2.26348 0
M  V30 428 C 40.3416 -1.14085 1.26169 0
M  V30 429 O 41.5266 -1.17086 1.54934 0
M  V30 430 C 38.6566 -1.74716 3.00153 0
M  V30 431 C 37.6106 -1.31032 4.07449 0
M  V30 432 C 36.9366 -2.56887 4.68949 0
M  V30 433 C 38.2366 -0.444183 5.20408 0
M  V30 434 H 39.9306 0.0235131 2.99391 0
M  V30 435 H 37.4766 0.0127488 1.43994 0
M  V30 436 H 39.4296 -2.3625 3.48947 0
M  V30 437 H 38.1536 -2.37035 2.24682 0
M  V30 438 H 36.8126 -0.718066 3.59499 0
M  V30 439 H 36.4606 -3.17512 3.90122 0
M  V30 440 H 36.1606 -2.2836 5.41411 0
M  V30 441 H 37.6846 -3.19229 5.20505 0
M  V30 442 H 39.0986 -0.9651 5.65118 0
M  V30 443 H 37.4956 -0.252846 5.99567 0
M  V30 444 H 38.5656 0.531609 4.81977 0
M  V30 445 N 39.9087 -1.5758 0.0250728 0
M  V30 446 C 41.1547 -1.91917 -0.655413 0
M  V30 447 C 41.4877 -0.901433 -1.72011 0
M  V30 448 O 40.7627 0.0764069 -1.9435 0
M  V30 449 C 41.0457 -3.36751 -1.27558 0
M  V30 450 C 40.8987 -4.49258 -0.220719 0
M  V30 451 C 42.2177 -3.81469 -2.19475 0
M  V30 452 H 39.3367 -0.697925 -0.23679 0
M  V30 453 H 41.9787 -1.89825 0.0815036 0
M  V30 454 H 40.1287 -3.38664 -1.90365 0
M  V30 455 H 41.8007 -4.59478 0.409601 0
M  V30 456 H 40.0437 -4.31415 0.454264 0
M  V30 457 H 40.7147 -5.47618 -0.694175 0
M  V30 458 H 43.1907 -3.81266 -1.66659 0
M  V30 459 H 42.0667 -4.83512 -2.59822 0
M  V30 460 H 42.3277 -3.16744 -3.08424 0
M  V30 461 N 41.3868 0.248026 -1.55636 0
M  V30 462 C 42.6148 0.993808 -1.81469 0
M  V30 463 C 43.0298 1.78991 -0.60064 0
M  V30 464 O 42.3868 1.77345 0.430682 0
M  V30 465 C 42.4378 1.93258 -3.05506 0
M  V30 466 O 42.1588 1.16869 -4.22224 0
M  V30 467 C 43.6598 2.79444 -3.4413 0
M  V30 468 H 40.8798 0.292486 -0.603898 0
M  V30 469 H 43.4238 0.271253 -2.02693 0
M  V30 470 H 41.5788 2.60943 -2.86335 0
M  V30 471 H 41.9928 1.80359 -4.92515 0
M  V30 472 H 43.4668 3.41066 -4.34026 0
M  V30 473 H 43.9438 3.50499 -2.64665 0
M  V30 474 H 44.5498 2.17214 -3.65648 0
M  V30 475 N 42.8649 1.48995 0.513639 0
M  V30 476 C 44.0899 1.61792 1.29762 0
M  V30 477 C 44.5149 0.284475 1.85936 0
M  V30 478 O 43.8729 -0.746185 1.65232 0
M  V30 479 C 43.9209 2.67993 2.41272 0
M  V30 480 O 43.0249 2.26287 3.44772 0
M  V30 481 H 42.3659 0.541963 0.38363 0
M  V30 482 H 44.8959 1.95097 0.616307 0
M  V30 483 H 44.9059 2.89772 2.87221 0
M  V30 484 H 43.5809 3.64791 1.9975 0
M  V30 485 H 42.1579 2.14788 3.04829 0
M  V30 486 N 44.343 -0.763751 1.37857 0
M  V30 487 C 45.571 -1.55293 1.36718 0
M  V30 488 C 45.986 -1.88745 -0.0455434 0
M  V30 489 O 45.343 -1.52039 -1.00947 0
M  V30 490 C 45.394 -2.85831 2.2132 0
M  V30 491 O 45.115 -2.5381 3.57089 0
M  V30 492 C 46.616 -3.80023 2.28249 0
M  V30 493 H 43.836 -0.480841 0.468009 0
M  V30 494 H 46.38 -0.946009 1.81303 0
M  V30 495 H 44.535 -3.42926 1.80223 0
M  V30 496 H 44.949 -3.37459 4.01524 0
M  V30 497 H 46.423 -4.68599 2.91752 0
M  V30 498 H 46.9 -4.1973 1.2932 0
M  V30 499 H 47.506 -3.28855 2.69693 0
M  V30 500 N 45.8211 -1.22559 -0.990812 0
M  V30 501 C 46.7841 -0.998863 -2.0629 0
M  V30 502 C 47.7841 0.0354834 -1.60761 0
M  V30 503 O 48.9741 -0.203231 -1.7301 0
M  V30 504 C 46.1061 -0.509203 -3.37076 0
M  V30 505 H 47.2991 -1.95014 -2.27837 0
M  V30 506 H 44.8521 -1.04456 -1.16269 0
M  V30 507 H 45.5871 0.446335 -3.21214 0
M  V30 508 H 45.3721 -1.25547 -3.71457 0
M  V30 509 H 46.8621 -0.370888 -4.1595 0
M  V30 510 N 47.2992 1.18797 -1.03562 0
M  V30 511 C 48.5292 1.92319 -0.754773 0
M  V30 512 C 48.9372 1.7612 0.691248 0
M  V30 513 O 48.2802 1.08491 1.48241 0
M  V30 514 C 48.3422 3.44284 -1.03484 0
M  V30 515 C 48.0062 3.84258 -2.47376 0
M  V30 516 C 49.0032 3.88459 -3.45537 0
M  V30 517 C 46.6882 4.15701 -2.81954 0
M  V30 518 C 48.6822 4.23545 -4.76328 0
M  V30 519 C 46.3692 4.50458 -4.12954 0
M  V30 520 C 47.3672 4.54356 -5.09951 0
M  V30 521 O 47.0552 4.88305 -6.38603 0
M  V30 522 H 46.7872 0.617527 -0.275021 0
M  V30 523 H 49.3412 1.51683 -1.38497 0
M  V30 524 H 47.5712 3.85135 -0.347513 0
M  V30 525 H 49.2602 3.99049 -0.7426 0
M  V30 526 H 50.0262 3.6431 -3.20162 0
M  V30 527 H 45.9052 4.11847 -2.0713 0
M  V30 528 H 49.4492 4.26502 -5.52035 0
M  V30 529 H 45.3462 4.74067 -4.38099 0
M  V30 530 H 46.1142 5.06227 -6.43177 0
M  V30 531 N 48.7773 0.814389 1.34928 0
M  V30 532 C 50.0053 0.411136 2.02774 0
M  V30 533 C 50.4203 -0.980316 1.61354 0
M  V30 534 O 49.7773 -1.63299 0.814847 0
M  V30 535 C 49.8283 0.493865 3.58111 0
M  V30 536 O 49.5493 1.83047 3.98027 0
M  V30 537 C 51.0503 0.0844174 4.4322 0
M  V30 538 H 48.2703 0.166037 0.650133 0
M  V30 539 H 50.8143 1.10018 1.72384 0
M  V30 540 H 48.9693 -0.147006 3.87121 0
M  V30 541 H 49.3833 1.79872 4.92693 0
M  V30 542 H 50.8573 0.193404 5.51661 0
M  V30 543 H 51.3343 -0.97113 4.28329 0
M  V30 544 H 51.9403 0.69875 4.19521 0
M  V30 545 N 50.2554 -1.46986 0.568584 0
M  V30 546 C 51.4804 -2.07335 0.0520528 0
M  V30 547 C 51.9054 -1.41675 -1.23733 0
M  V30 548 O 51.2634 -0.495623 -1.74394 0
M  V30 549 C 51.3114 -3.60417 -0.11501 0
M  V30 550 O 50.4154 -3.95309 -1.17492 0
M  V30 551 H 49.7564 -0.661597 0.0564385 0
M  V30 552 H 52.2864 -1.88837 0.787507 0
M  V30 553 H 52.2964 -4.06698 -0.325644 0
M  V30 554 H 50.9714 -4.07601 0.826675 0
M  V30 555 H 49.5484 -3.60757 -0.943869 0
M  V30 556 N 51.7335 -0.305618 -1.54608 0
M  V30 557 C 53.1445 0.186098 -1.8577 0
M  V30 558 C 53.4955 1.53058 -1.22751 0
M  V30 559 O 52.6205 2.09888 -0.526893 0
M  V30 560 C 53.2155 0.344449 -3.37044 0
M  V30 561 C 51.7745 0.780384 -3.68221 0
M  V30 562 C 50.9215 -0.108554 -2.77087 0
M  V30 563 H 53.8725 -0.526485 -1.49712 0
M  V30 564 H 53.8935 1.17828 -3.61796 0
M  V30 565 H 53.4055 -0.634235 -3.82883 0
M  V30 566 H 51.5065 1.76945 -3.27904 0
M  V30 567 H 51.6195 0.596572 -4.75371 0
M  V30 568 H 49.9835 0.412931 -2.5133 0
M  V30 569 H 50.7665 -1.08368 -3.25747 0
M  V30 570 N 53.2116 1.57565 -0.0334293 0
M  V30 571 C 54.1436 2.0739 0.975811 0
M  V30 572 C 55.1566 0.998166 1.2861 0
M  V30 573 O 56.3456 1.27426 1.25 0
M  V30 574 C 53.4456 2.4871 2.30209 0
M  V30 575 C 52.6186 3.79413 2.17634 0
M  V30 576 C 51.6776 4.07237 3.33233 0
M  V30 577 O 50.7036 4.77425 3.09927 0
M  V30 578 N 51.9056 3.5775 4.5716 0
M  V30 579 H 54.6706 2.94598 0.55066 0
M  V30 580 H 52.2316 1.61173 0.15323 0
M  V30 581 H 54.2236 2.64413 3.06378 0
M  V30 582 H 52.7936 1.66845 2.64351 0
M  V30 583 H 52.0136 3.73465 1.26165 0
M  V30 584 H 53.3016 4.65038 2.0644 0
M  V30 585 H 52.6996 3.00976 4.78989 0
M  V30 586 H 51.2566 3.78724 5.30482 0
M  V30 587 N 54.6897 -0.239769 1.55765 0
M  V30 588 C 56.1007 -0.808263 1.68297 0
M  V30 589 C 56.4517 -1.85736 0.632181 0
M  V30 590 O 55.5767 -2.15277 -0.220204 0
M  V30 591 C 56.1717 -1.47284 3.05111 0
M  V30 592 C 54.7307 -1.98895 3.19559 0
M  V30 593 C 53.8777 -0.842575 2.64189 0
M  V30 594 H 56.8287 -0.0154422 1.58692 0
M  V30 595 H 56.8497 -2.34111 2.99954 0
M  V30 596 H 56.3617 -0.709053 3.81568 0
M  V30 597 H 54.4627 -2.78132 2.47938 0
M  V30 598 H 54.5757 -2.18143 4.26556 0
M  V30 599 H 52.9397 -1.24501 2.22197 0
M  V30 600 H 53.7227 -0.0917552 3.43177 0
M  V30 601 N 56.1678 -1.49265 -0.50573 0
M  V30 602 C 57.5838 -1.35923 -0.836486 0
M  V30 603 C 57.7838 -0.388704 -1.97715 0
M  V30 604 O 56.8398 0.181336 -2.51848 0
M  V30 605 C 58.1528 -2.76531 -1.18115 0
M  V30 606 C 59.7008 -2.85197 -1.28964 0
M  V30 607 C 60.1758 -4.26561 -1.66761 0
M  V30 608 N 61.6668 -4.2935 -1.73819 0
M  V30 609 C 62.4018 -5.35693 -2.045 0
M  V30 610 N 61.8978 -6.52287 -2.33438 0
M  V30 611 N 63.6908 -5.23105 -2.05711 0
M  V30 612 H 55.8418 -2.10965 0.246519 0
M  V30 613 H 58.1048 -0.9468 0.0476887 0
M  V30 614 H 57.8108 -3.49226 -0.416398 0
M  V30 615 H 57.6848 -3.11599 -2.1257 0
M  V30 616 H 60.0718 -2.12742 -2.04511 0
M  V30 617 H 60.1528 -2.53718 -0.325704 0
M  V30 618 H 59.7968 -4.99541 -0.917656 0
M  V30 619 H 59.7268 -4.55502 -2.64246 0
M  V30 620 H 62.2178 -3.4526 -1.53635 0
M  V30 621 H 62.5308 -7.29158 -2.56024 0
M  V30 622 H 60.8758 -6.55521 -2.30905 0
M  V30 623 H 64.0668 -4.31026 -1.82577 0
M  V30 624 H 64.2398 -6.06078 -2.29289 0
M  V30 625 N 57.6459 0.756429 -1.3826 0
M  V30 626 C 58.5559 1.9009 -1.37488 0
M  V30 627 C 59.5719 1.71855 -0.272366 0
M  V30 628 O 60.7479 1.94827 -0.510318 0
M  V30 629 C 57.8129 3.25421 -1.19592 0
M  V30 630 C 56.8739 3.56202 -2.39622 0
M  V30 631 C 56.1069 4.85075 -2.2257 0
M  V30 632 O 56.3299 5.57246 -1.21793 0
M  V30 633 O 55.2639 5.15269 -3.11098 0
M  V30 634 H 59.0899 1.93695 -2.33914 0
M  V30 635 H 56.6749 0.901313 -1.1915 0
M  V30 636 H 58.5569 4.06337 -1.11661 0
M  V30 637 H 57.2319 3.22634 -0.262486 0
M  V30 638 H 56.1389 2.75458 -2.53128 0
M  V30 639 H 57.4719 3.63747 -3.31586 0
M  V30 640 N 59.124 1.23083 0.984299 0
M  V30 641 C 60.37 1.06214 1.72761 0
M  V30 642 C 60.703 -0.400584 1.90024 0
M  V30 643 O 59.978 -1.29672 1.44967 0
M  V30 644 C 60.261 1.78375 3.12817 0
M  V30 645 C 60.114 3.32296 3.03149 0
M  V30 646 C 61.433 1.54309 4.12161 0
M  V30 647 H 58.552 0.387251 0.627061 0
M  V30 648 H 61.194 1.51536 1.14616 0
M  V30 649 H 59.344 1.39848 3.62457 0
M  V30 650 H 61.016 3.8032 2.61064 0
M  V30 651 H 59.259 3.6153 2.39747 0
M  V30 652 H 59.93 3.77972 4.02295 0
M  V30 653 H 62.406 1.87791 3.71314 0
M  V30 654 H 61.282 2.07281 5.08258 0
M  V30 655 H 61.543 0.477572 4.39513 0
M  V30 656 N 60.6021 -1.18246 1.0419 0
M  V30 657 C 62.0131 -1.69914 0.773698 0
M  V30 658 C 62.3641 -1.83085 -0.705297 0
M  V30 659 O 61.4891 -1.51123 -1.5489 0
M  V30 660 C 62.0841 -3.08619 1.39784 0
M  V30 661 C 60.6431 -3.57494 1.17792 0
M  V30 662 C 59.7901 -2.34013 1.48773 0
M  V30 663 H 62.7411 -1.02904 1.20816 0
M  V30 664 H 62.7621 -3.71958 0.801714 0
M  V30 665 H 62.2741 -2.99001 2.47426 0
M  V30 666 H 60.3751 -3.72406 0.120295 0
M  V30 667 H 60.4881 -4.40852 1.87581 0
M  V30 668 H 58.8521 -2.37986 0.907463 0
M  V30 669 H 59.6351 -2.27013 2.57527 0
M  V30 670 N 62.0802 -0.821533 -1.34494 0
M  V30 671 C 63.3262 -0.409552 -1.98622 0
M  V30 672 C 63.6592 1.0244 -1.64984 0
M  V30 673 O 62.9342 1.71325 -0.920758 0
M  V30 674 C 63.2172 -0.610458 -3.54888 0
M  V30 675 C 63.0702 -2.09043 -3.98273 0
M  V30 676 C 64.3892 -0.0455379 -4.40076 0
M  V30 677 H 61.5082 -0.15028 -0.721516 0
M  V30 678 H 64.1502 -1.03384 -1.59411 0
M  V30 679 H 62.3002 -0.079044 -3.8842 0
M  V30 680 H 63.9722 -2.68537 -3.75081 0
M  V30 681 H 62.2152 -2.58139 -3.48635 0
M  V30 682 H 62.8862 -2.18182 -5.07051 0
M  V30 683 H 65.3622 -0.499557 -4.1309 0
M  V30 684 H 64.2382 -0.215922 -5.48475 0
M  V30 685 H 64.4992 1.04939 -4.29465 0
M  V30 686 N 63.5583 1.46682 -0.576371 0
M  V30 687 C 64.7983 2.04306 -0.0621356 0
M  V30 688 C 65.1623 1.4389 1.2712 0
M  V30 689 O 66.3633 1.92675 1.87429 0
M  V30 690 C 64.6343 3.57399 0.00927922 0
M  V30 691 S 66.1933 4.36309 0.466859 0
M  V30 692 H 63.0113 0.710167 -0.0344016 0
M  V30 693 H 65.6133 1.79807 -0.767437 0
M  V30 694 H 64.3173 3.98889 -0.965178 0
M  V30 695 H 63.8483 3.86424 0.737547 0
M  V30 696 H 65.8633 4.6533 1.72287 0
M  V30 697 N 65.0364 0.313813 1.54444 0
M  V30 698 C 66.4474 -0.176243 1.85866 0
M  V30 699 C 66.7984 -1.52405 1.23561 0
M  V30 700 O 65.9234 -2.09605 0.538016 0
M  V30 701 C 66.5184 -0.32657 3.37222 0
M  V30 702 C 65.0774 -0.760846 3.6863 0
M  V30 703 C 64.2244 0.123247 2.77026 0
M  V30 704 H 67.1754 0.534418 1.49431 0
M  V30 705 H 67.1964 -1.15908 3.62416 0
M  V30 706 H 66.7084 0.654531 3.82541 0
M  V30 707 H 64.8094 -1.75204 3.28838 0
M  V30 708 H 64.9224 -0.571353 4.75681 0
M  V30 709 H 63.2864 -0.399597 2.51546 0
M  V30 710 H 64.0694 1.10094 3.25168 0
M  V30 711 N 66.5145 -1.57545 0.0417849 0
M  V30 712 C 67.4445 -2.14009 -0.933929 0
M  V30 713 C 68.4255 -1.05938 -1.33083 0
M  V30 714 O 69.6105 -1.33833 -1.40721 0
M  V30 715 C 66.7405 -2.67747 -2.21199 0
M  V30 716 C 65.6945 -3.80718 -1.95544 0
M  V30 717 C 65.0205 -4.20935 -3.29724 0
M  V30 718 C 66.3205 -5.06258 -1.28452 0
M  V30 719 H 68.0145 -2.95788 -0.463645 0
M  V30 720 H 65.5605 -1.42285 -0.221573 0
M  V30 721 H 67.5135 -3.05886 -2.89848 0
M  V30 722 H 66.2375 -1.83147 -2.70416 0
M  V30 723 H 64.8965 -3.43037 -1.2931 0
M  V30 724 H 64.5445 -3.33298 -3.76724 0
M  V30 725 H 64.2445 -4.9707 -3.13361 0
M  V30 726 H 65.7685 -4.61666 -3.9962 0
M  V30 727 H 67.1825 -5.41903 -1.8712 0
M  V30 728 H 65.5795 -5.87475 -1.22445 0
M  V30 729 H 66.6495 -4.84207 -0.259219 0
M  V30 730 N 67.9926 0.231505 -1.5589 0
M  V30 731 C 69.2206 0.974505 -1.82513 0
M  V30 732 C 69.6356 1.78344 -0.619591 0
M  V30 733 O 68.9926 1.77792 0.411848 0
M  V30 734 C 69.0436 1.90007 -3.07538 0
M  V30 735 O 68.7646 1.12385 -4.2344 0
M  V30 736 C 70.2656 2.75779 -3.47075 0
M  V30 737 H 67.4856 0.286065 -0.606966 0
M  V30 738 H 70.0296 0.249739 -2.02969 0
M  V30 739 H 68.1846 2.57891 -2.89086 0
M  V30 740 H 68.5986 1.75125 -4.944 0
M  V30 741 H 70.0726 3.36443 -4.37619 0
M  V30 742 H 70.5496 3.47672 -2.68367 0
M  V30 743 H 71.1556 2.13323 -3.67931 0
M  V30 744 N 69.4707 1.49531 0.497807 0
M  V30 745 C 70.4337 1.65916 1.58128 0
M  V30 746 C 71.4337 0.530825 1.51786 0
M  V30 747 O 72.6237 0.797342 1.54881 0
M  V30 748 C 69.7557 1.65951 2.9778 0
M  V30 749 H 70.9487 2.62556 1.44929 0
M  V30 750 H 68.5017 1.38611 0.722275 0
M  V30 751 H 69.2367 0.709065 3.16453 0
M  V30 752 H 69.0217 2.47897 3.03792 0
M  V30 753 H 70.5117 1.80673 3.76493 0
M  V30 754 N 70.9488 -0.749086 1.3866 0
M  V30 755 C 72.1968 -1.50535 1.34847 0
M  V30 756 C 72.5178 -1.94909 -0.0595016 0
M  V30 757 O 71.7878 -1.67973 -1.00806 0
M  V30 758 H 70.3678 -0.558395 0.49619 0
M  V30 759 H 73.0298 -0.890165 1.73384 0
M  V30 760 H 72.1258 -2.39413 2.00219 0
M  V30 761 N 72.4269 -1.23603 -0.977757 0
M  V30 762 C 73.6749 -1.06759 -1.71601 0
M  V30 763 C 73.9959 0.395929 -1.90938 0
M  V30 764 O 73.2659 1.28356 -1.47992 0
M  V30 765 H 71.8459 -0.392062 -0.635843 0
M  V30 766 H 74.5079 -1.55362 -1.1768 0
M  V30 767 H 73.6039 -1.55763 -2.70452 0
M  V30 768 N 73.905 1.17692 -1.04816 0
M  V30 769 C 74.815 2.25229 -0.65643 0
M  V30 770 C 75.831 1.71018 0.320761 0
M  V30 771 O 77.007 2.00649 0.173805 0
M  V30 772 C 74.072 3.46684 -0.0332629 0
M  V30 773 C 73.133 4.15997 -1.06042 0
M  V30 774 C 72.366 5.31654 -0.466893 0
M  V30 775 O 72.589 5.65777 0.724758 0
M  V30 776 O 71.523 5.89831 -1.1993 0
M  V30 777 H 75.349 2.61016 -1.55255 0
M  V30 778 H 72.934 1.24919 -0.81949 0
M  V30 779 H 74.816 4.20234 0.313256 0
M  V30 780 H 73.491 3.12703 0.836566 0
M  V30 781 H 72.398 3.44482 -1.45886 0
M  V30 782 H 73.731 4.53996 -1.90127 0
M  V30 783 N 75.3831 0.828654 1.34056 0
M  V30 784 C 76.6111 0.43262 2.02326 0
M  V30 785 C 77.0261 -0.963147 1.62385 0
M  V30 786 O 76.3831 -1.62425 0.832121 0
M  V30 787 C 76.4341 0.53182 3.57567 0
M  V30 788 O 76.1551 1.87258 3.96063 0
M  V30 789 C 77.6561 0.131422 4.43105 0
M  V30 790 H 74.8761 0.172923 0.648335 0
M  V30 791 H 77.4201 1.1184 1.71208 0
M  V30 792 H 75.5751 -0.105938 3.87255 0
M  V30 793 H 75.9891 1.85087 4.90758 0
M  V30 794 H 77.4631 0.251904 5.51425 0
M  V30 795 H 77.9401 -0.925645 4.29335 0
M  V30 796 H 78.5461 0.743207 4.18756 0
M  V30 797 N 76.8612 -1.46375 0.584142 0
M  V30 798 C 77.7932 -2.28443 -0.186119 0
M  V30 799 C 78.8062 -1.38596 -0.854115 0
M  V30 800 O 79.9952 -1.63183 -0.723438 0
M  V30 801 C 77.0952 -3.13671 -1.28311 0
M  V30 802 C 76.2682 -4.31652 -0.706758 0
M  V30 803 C 75.3272 -4.98267 -1.69163 0
M  V30 804 O 74.3532 -5.55815 -1.22712 0
M  V30 805 N 75.5552 -4.95408 -3.02575 0
M  V30 806 H 78.3202 -2.9519 0.517986 0
M  V30 807 H 75.8812 -1.56303 0.42201 0
M  V30 808 H 77.8732 -3.55101 -1.94128 0
M  V30 809 H 76.4432 -2.48989 -1.89005 0
M  V30 810 H 75.6632 -3.93989 0.128908 0
M  V30 811 H 76.9512 -5.07906 -0.301506 0
M  V30 812 H 76.3492 -4.49902 -3.42936 0
M  V30 813 H 74.9062 -5.40774 -3.63877 0
M  V30 814 N 78.3393 -0.321999 -1.54275 0
M  V30 815 C 79.2873 0.560206 -2.25753 0
M  V30 816 C 80.2813 1.11984 -1.27106 0
M  V30 817 O 81.4873 1.06806 -1.44888 0
M  V30 818 H 77.8623 0.199304 -0.725108 0
M  V30 819 H 79.8333 -0.0649365 -2.98329 0
M  V30 820 C 78.5823 1.71023 -3.02731 0
M  V30 821 H 77.9053 1.28885 -3.78456 0
M  V30 822 H 79.3453 2.30314 -3.55993 0
M  V30 823 C 77.8043 2.62692 -2.10938 0
M  V30 824 O 78.3343 3.64364 -1.6912 0
M  V30 825 N 76.5403 2.30891 -1.76459 0
M  V30 826 H 76.0873 1.48253 -2.10663 0
M  V30 827 H 76.0453 2.92487 -1.1532 0
M  V30 828 N 79.8174 1.5752 -0.0501392 0
M  V30 829 C 80.7804 2.1037 0.909786 0
M  V30 830 C 81.7804 1.02308 1.24056 0
M  V30 831 O 82.9704 1.28385 1.17741 0
M  V30 832 C 80.1024 2.58708 2.21998 0
M  V30 833 H 81.2954 2.96479 0.451665 0
M  V30 834 H 78.8484 1.55038 0.198248 0
M  V30 835 H 79.5834 1.75989 2.72394 0
M  V30 836 H 79.3684 3.37675 1.99295 0
M  V30 837 H 80.8584 2.99747 2.9076 0
M  V30 838 N 81.2955 -0.223234 1.56011 0
M  V30 839 C 82.2585 -1.26014 1.9145 0
M  V30 840 C 83.2585 -1.3989 0.792937 0
M  V30 841 O 84.4485 -1.38184 1.0607 0
M  V30 842 C 81.5805 -2.63422 2.16383 0
M  V30 843 H 82.7735 -0.95796 2.84189 0
M  V30 844 H 80.3265 -0.463576 1.49267 0
M  V30 845 H 81.0615 -2.98741 1.2619 0
M  V30 846 H 80.8465 -2.54728 2.98088 0
M  V30 847 H 82.3365 -3.38249 2.44903 0
M  V30 848 N 82.7736 -1.49793 -0.48987 0
M  V30 849 C 83.7366 -1.66752 -1.57246 0
M  V30 850 C 84.7366 -0.538867 -1.51502 0
M  V30 851 O 85.9266 -0.805545 -1.54456 0
M  V30 852 C 83.0586 -1.67528 -2.96896 0
M  V30 853 H 84.2516 -2.63321 -1.43534 0
M  V30 854 H 81.8046 -1.38992 -0.714914 0
M  V30 855 H 82.5396 -0.725837 -3.16073 0
M  V30 856 H 82.3246 -2.49504 -3.02473 0
M  V30 857 H 83.8146 -1.82667 -3.7553 0
M  V30 858 N 84.2517 0.741722 -1.39055 0
M  V30 859 C 85.1817 1.869 -1.39966 0
M  V30 860 C 86.1627 1.6804 -0.26392 0
M  V30 861 O 87.3477 1.88458 -0.468755 0
M  V30 862 C 84.4777 3.24572 -1.23574 0
M  V30 863 C 83.4317 3.58056 -2.34477 0
M  V30 864 C 82.7577 4.94593 -2.0318 0
M  V30 865 C 84.0577 3.61716 -3.76774 0
M  V30 866 H 85.7517 1.86395 -2.34302 0
M  V30 867 H 83.2977 0.895361 -1.1278 0
M  V30 868 H 85.2507 4.031 -1.22834 0
M  V30 869 H 83.9747 3.25587 -0.257045 0
M  V30 870 H 82.6337 2.81854 -2.34423 0
M  V30 871 H 82.2817 4.92181 -1.03765 0
M  V30 872 H 81.9817 5.17964 -2.77465 0
M  V30 873 H 83.5057 5.75486 -2.04079 0
M  V30 874 H 84.9197 4.30335 -3.78794 0
M  V30 875 H 83.3167 3.96603 -4.50362 0
M  V30 876 H 84.3867 2.61672 -4.08235 0
M  V30 877 N 85.7298 1.2412 0.971189 0
M  V30 878 C 87.1408 1.07236 1.52831 0
M  V30 879 C 87.4918 -0.357352 1.92918 0
M  V30 880 O 86.6168 -1.24528 1.76979 0
M  V30 881 C 87.2118 1.94043 2.77728 0
M  V30 882 C 85.7708 1.81394 3.29808 0
M  V30 883 C 84.9178 1.89189 2.02738 0
M  V30 884 H 87.8688 1.37648 0.789864 0
M  V30 885 H 87.8898 1.47066 3.5093 0
M  V30 886 H 87.4018 2.98093 2.4852 0
M  V30 887 H 85.5028 0.801634 3.63874 0
M  V30 888 H 85.6158 2.65294 3.98944 0
M  V30 889 H 83.9798 1.32877 2.17292 0
M  V30 890 H 84.7628 2.94812 1.759 0
M  V30 891 N 87.2079 -1.17134 1.05439 0
M  V30 892 C 88.4559 -1.87085 0.764429 0
M  V30 893 C 88.7769 -1.81584 -0.710787 0
M  V30 894 O 88.0469 -1.24349 -1.51374 0
M  V30 895 H 86.6269 -0.692627 0.279779 0
M  V30 896 H 89.2889 -1.42087 1.33406 0
M  V30 897 H 88.3849 -2.92759 1.0816 0
M  V30 898 N 88.686 -0.835752 -1.33615 0
M  V30 899 C 90.097 -0.487099 -1.80234 0
M  V30 900 C 90.448 0.993627 -1.69179 0
M  V30 901 O 89.573 1.77403 -1.23924 0
M  V30 902 C 90.168 -0.877385 -3.27242 0
M  V30 903 C 88.727 -0.580915 -3.7189 0
M  V30 904 C 87.874 -1.0874 -2.5509 0
M  V30 905 H 90.825 -1.02474 -1.2118 0
M  V30 906 H 90.846 -0.186195 -3.80044 0
M  V30 907 H 90.358 -1.95512 -3.35256 0
M  V30 908 H 88.459 0.486881 -3.69405 0
M  V30 909 H 88.572 -1.13396 -4.65487 0
M  V30 910 H 86.936 -0.508392 -2.49575 0
M  V30 911 H 87.719 -2.17184 -2.65868 0
M  V30 912 N 90.1641 1.46063 -0.591896 0
M  V30 913 C 91.3921 2.06717 -0.0868936 0
M  V30 914 C 91.8071 1.43916 1.22203 0
M  V30 915 O 91.1641 0.547698 1.74088 0
M  V30 916 C 91.2151 3.6142 0.0758725 0
M  V30 917 O 90.9361 4.21874 -1.18126 0
M  V30 918 C 92.4371 4.39025 0.61416 0
M  V30 919 H 89.6571 0.668162 -0.0616518 0
M  V30 920 H 92.2011 1.8755 -0.815175 0
M  V30 921 H 90.3561 3.79983 0.754413 0
M  V30 922 H 90.7701 5.14861 -1.00092 0
M  V30 923 H 92.2441 5.4783 0.677193 0
M  V30 924 H 92.7211 4.07708 1.63312 0
M  V30 925 H 93.3271 4.2529 -0.0298142 0
M  V30 926 N 91.6422 0.330177 1.54103 0
M  V30 927 C 92.8672 -0.274893 2.0557 0
M  V30 928 C 93.2922 -1.44487 1.20437 0
M  V30 929 O 92.6502 -1.80021 0.214991 0
M  V30 930 C 92.6982 -0.68079 3.54115 0
M  V30 931 O 91.8022 -1.7824 3.71893 0
M  V30 932 H 91.1432 -0.0483849 0.662235 0
M  V30 933 H 93.6732 0.480508 1.98878 0
M  V30 934 H 93.6832 -0.961635 3.96505 0
M  V30 935 H 92.3582 0.174903 4.15532 0
M  V30 936 H 90.9352 -1.49985 3.41407 0
M  V30 937 N 93.1203 -1.57491 0.0584922 0
M  V30 938 C 94.3663 -1.94081 -0.608617 0
M  V30 939 C 94.7213 -0.937438 -1.68017 0
M  V30 940 O 94.0143 0.0423034 -1.91553 0
M  V30 941 C 94.2083 -3.3513 -1.24188 0
M  V30 942 C 94.0373 -4.49095 -0.233187 0
M  V30 943 C 92.8073 -5.04988 0.177439 0
M  V30 944 C 95.0053 -5.1162 0.524306 0
M  V30 945 N 92.9873 -6.02487 1.17823 0
M  V30 946 C 94.3583 -6.04493 1.37796 0
M  V30 947 C 96.4133 -4.94489 0.581822 0
M  V30 948 C 95.1163 -6.82075 2.28399 0
M  V30 949 C 97.1423 -5.72703 1.47531 0
M  V30 950 C 96.5043 -6.65214 2.31667 0
M  V30 951 H 92.6033 -0.75752 -0.194134 0
M  V30 952 H 95.1873 -1.94248 0.132533 0
M  V30 953 H 93.3583 -3.35726 -1.95302 0
M  V30 954 H 95.0903 -3.5899 -1.86838 0
M  V30 955 H 91.8453 -4.73165 -0.203004 0
M  V30 956 H 92.2693 -6.55933 1.67573 0
M  V30 957 H 96.9113 -4.22765 -0.054443 0
M  V30 958 H 94.6293 -7.53085 2.93067 0
M  V30 959 H 98.2153 -5.61472 1.52448 0
M  V30 960 H 97.0953 -7.24679 2.99683 0
M  V30 961 N 94.5984 0.214957 -1.56127 0
M  V30 962 C 96.0094 0.781386 -1.69562 0
M  V30 963 C 96.3604 1.84707 -0.66165 0
M  V30 964 O 95.4854 2.156 0.185927 0
M  V30 965 C 96.0804 1.42411 -3.07416 0
M  V30 966 C 94.6394 1.93786 -3.22683 0
M  V30 967 C 93.7864 0.800438 -2.65496 0
M  V30 968 H 96.7374 -0.00980633 -1.58697 0
M  V30 969 H 96.7584 2.29309 -3.0364 0
M  V30 970 H 96.2704 0.64826 -3.82648 0
M  V30 971 H 94.3714 2.74152 -2.52332 0
M  V30 972 H 94.4844 2.1133 -4.29973 0
M  V30 973 H 92.8484 1.2095 -2.2415 0
M  V30 974 H 93.6314 0.0371471 -3.4328 0
M  V30 975 N 96.0765 1.50051 0.48192 0
M  V30 976 C 97.0065 1.71046 1.58951 0
M  V30 977 C 97.9875 0.559288 1.60642 0
M  V30 978 O 99.1725 0.797243 1.77081 0
M  V30 979 C 96.3025 1.79462 2.97339 0
M  V30 980 C 95.2565 2.94558 3.10515 0
M  V30 981 C 94.5825 2.88105 4.50444 0
M  V30 982 C 95.8825 4.35227 2.88747 0
M  V30 983 H 97.5765 2.6378 1.41635 0
M  V30 984 H 95.1225 1.26936 0.679942 0
M  V30 985 H 97.0755 1.92734 3.74742 0
M  V30 986 H 95.7995 0.833412 3.15788 0
M  V30 987 H 94.4585 2.80918 2.35543 0
M  V30 988 H 94.1065 1.89853 4.65795 0
M  V30 989 H 93.8065 3.65366 4.60197 0
M  V30 990 H 95.3305 3.03412 5.29881 0
M  V30 991 H 96.7445 4.49449 3.55905 0
M  V30 992 H 95.1415 5.13856 3.09955 0
M  V30 993 H 96.2115 4.48347 1.84696 0
M  V30 994 N 97.5546 -0.734337 1.39446 0
M  V30 995 C 98.4846 -1.86155 1.40955 0
M  V30 996 C 99.4656 -1.67898 0.272827 0
M  V30 997 O 100.651 -1.88207 0.478743 0
M  V30 998 C 97.7806 -3.23912 1.25294 0
M  V30 999 C 96.7346 -3.56808 2.36373 0
M  V30 1000 C 96.0606 -4.93508 2.058 0
M  V30 1001 C 97.3606 -3.59713 3.78687 0
M  V30 1002 H 99.0546 -1.8515 2.35287 0
M  V30 1003 H 96.6006 -0.889367 1.13253 0
M  V30 1004 H 98.5536 -4.02443 1.2497 0
M  V30 1005 H 97.2776 -3.25446 0.274308 0
M  V30 1006 H 95.9366 -2.80606 2.35914 0
M  V30 1007 H 95.5846 -4.91623 1.06374 0
M  V30 1008 H 95.2846 -5.16486 2.80208 0
M  V30 1009 H 96.8086 -5.74396 2.07128 0
M  V30 1010 H 98.2226 -4.2832 3.81071 0
M  V30 1011 H 96.6196 -3.94209 4.52459 0
M  V30 1012 H 97.6896 -2.59504 4.09617 0
M  V30 1013 N 99.0327 -1.24633 -0.964593 0
M  V30 1014 C 100.281 -1.08573 -1.70459 0
M  V30 1015 C 100.602 0.375655 -1.91347 0
M  V30 1016 O 99.8717 1.26779 -1.49345 0
M  V30 1017 H 98.4517 -0.398784 -0.631649 0
M  V30 1018 H 101.114 -1.56601 -1.16026 0
M  V30 1019 H 100.21 -1.58623 -2.68785 0
M  V30 1020 N 100.511 1.16574 -1.06058 0
M  V30 1021 C 101.736 1.91493 -0.796562 0
M  V30 1022 C 102.161 1.76773 0.642868 0
M  V30 1023 O 101.519 1.09142 1.44768 0
M  V30 1024 C 101.567 3.40293 -1.19303 0
M  V30 1025 O 100.671 4.11074 -0.330394 0
M  V30 1026 H 100.012 0.596678 -0.291326 0
M  V30 1027 H 102.542 1.47708 -1.41575 0
M  V30 1028 H 102.552 3.91057 -1.16356 0
M  V30 1029 H 101.227 3.50326 -2.24153 0
M  V30 1030 H 99.8038 3.70513 -0.421225 0
M  V30 1031 N 101.989 0.842826 1.3317 0
M  V30 1032 C 102.919 0.294028 2.31641 0
M  V30 1033 C 103.9 -0.600401 1.59151 0
M  V30 1034 O 105.085 -0.523124 1.87022 0
M  V30 1035 C 102.215 -0.528416 3.43257 0
M  V30 1036 C 101.169 0.27056 4.27144 0
M  V30 1037 C 100.495 -0.675881 5.30411 0
M  V30 1038 C 101.795 1.48981 5.00602 0
M  V30 1039 H 103.489 1.11681 2.77791 0
M  V30 1040 H 101.035 0.538478 1.33553 0
M  V30 1041 H 102.988 -0.922674 4.11175 0
M  V30 1042 H 101.712 -1.38445 2.95805 0
M  V30 1043 H 100.371 0.646427 3.60856 0
M  V30 1044 H 100.019 -1.52842 4.79216 0
M  V30 1045 H 99.7189 -0.145374 5.8742 0
M  V30 1046 H 101.243 -1.06757 6.01195 0
M  V30 1047 H 102.657 1.16849 5.61266 0
M  V30 1048 H 101.054 1.95739 5.6728 0
M  V30 1049 H 102.124 2.25746 4.29147 0
M  V30 1050 N 103.467 -1.45747 0.599634 0
M  V30 1051 C 104.397 -2.33235 -0.111306 0
M  V30 1052 C 105.378 -1.46359 -0.866781 0
M  V30 1053 O 106.563 -1.75146 -0.838904 0
M  V30 1054 C 103.693 -3.28932 -1.11451 0
M  V30 1055 C 102.647 -4.25381 -0.472772 0
M  V30 1056 C 101.973 -5.1071 -1.58365 0
M  V30 1057 C 103.273 -5.18831 0.600948 0
M  V30 1058 H 104.967 -2.92927 0.61919 0
M  V30 1059 H 102.513 -1.40857 0.299215 0
M  V30 1060 H 104.466 -3.89002 -1.62036 0
M  V30 1061 H 103.19 -2.67381 -1.8755 0
M  V30 1062 H 101.849 -3.66598 0.0121472 0
M  V30 1063 H 101.497 -4.45533 -2.33473 0
M  V30 1064 H 101.197 -5.7604 -1.15982 0
M  V30 1065 H 102.721 -5.73647 -2.09194 0
M  V30 1066 H 104.135 -5.73019 0.179491 0
M  V30 1067 H 102.532 -5.92595 0.946076 0
M  V30 1068 H 103.602 -4.6174 1.48068 0
M  V30 1069 N 104.945 -0.338344 -1.53925 0
M  V30 1070 C 105.877 0.555117 -2.22376 0
M  V30 1071 C 106.89 1.06812 -1.22862 0
M  V30 1072 O 108.079 0.979163 -1.49247 0
M  V30 1073 C 105.179 1.77609 -2.88631 0
M  V30 1074 C 104.352 1.39927 -4.14414 0
M  V30 1075 C 103.411 2.47936 -4.64127 0
M  V30 1076 O 102.437 2.11461 -5.28463 0
M  V30 1077 N 103.639 3.79107 -4.39612 0
M  V30 1078 H 106.404 -0.0310778 -2.99684 0
M  V30 1079 H 103.965 -0.162226 -1.61085 0
M  V30 1080 H 105.957 2.49287 -3.18807 0
M  V30 1081 H 104.527 2.26978 -2.14941 0
M  V30 1082 H 103.747 0.513481 -3.90841 0
M  V30 1083 H 105.035 1.12341 -4.96243 0
M  V30 1084 H 104.433 4.11531 -3.88148 0
M  V30 1085 H 102.99 4.4697 -4.74406 0
M  V30 1086 N 106.423 1.57458 -0.0668435 0
M  V30 1087 C 107.672 1.92477 0.602947 0
M  V30 1088 C 107.985 0.948419 1.71068 0
M  V30 1089 O 109.191 1.19124 2.43971 0
M  V30 1090 C 107.647 3.41903 1.12383 0
M  V30 1091 C 107.255 4.47975 0.04737 0
M  V30 1092 C 108.999 3.85931 1.76797 0
M  V30 1093 C 106.906 5.88529 0.582022 0
M  V30 1094 H 105.836 0.718387 0.22899 0
M  V30 1095 H 108.487 1.82978 -0.138276 0
M  V30 1096 H 106.869 3.46459 1.91787 0
M  V30 1097 H 108.043 4.55029 -0.726978 0
M  V30 1098 H 106.358 4.13384 -0.500243 0
M  V30 1099 H 108.955 4.88322 2.17821 0
M  V30 1100 H 109.298 3.23029 2.62599 0
M  V30 1101 H 109.831 3.83958 1.04024 0
M  V30 1102 H 106.57 6.55065 -0.238721 0
M  V30 1103 H 106.09 5.85004 1.324 0
M  V30 1104 H 107.769 6.38258 1.05999 0
M  V30 1105 N 107.901 -0.206675 1.56239 0
M  V30 1106 C 108.831 -1.25909 1.96645 0
M  V30 1107 C 109.812 -1.48097 0.836734 0
M  V30 1108 O 110.997 -1.6003 1.10019 0
M  V30 1109 C 108.127 -2.6058 2.29599 0
M  V30 1110 C 107.081 -2.53024 3.452 0
M  V30 1111 C 106.407 -3.91861 3.63798 0
M  V30 1112 C 107.707 -2.06524 4.79734 0
M  V30 1113 H 109.401 -0.923369 2.84806 0
M  V30 1114 H 106.947 -0.442735 1.37025 0
M  V30 1115 H 108.9 -3.34375 2.56459 0
M  V30 1116 H 107.624 -2.95869 1.38307 0
M  V30 1117 H 106.283 -1.81684 3.18412 0
M  V30 1118 H 105.931 -4.24483 2.69857 0
M  V30 1119 H 105.631 -3.87683 4.4156 0
M  V30 1120 H 107.155 -4.67296 3.93022 0
M  V30 1121 H 108.569 -2.70072 5.05702 0
M  V30 1122 H 106.966 -2.13374 5.60885 0
M  V30 1123 H 108.036 -1.01802 4.74093 0
M  V30 1124 N 109.379 -1.50304 -0.473955 0
M  V30 1125 C 110.625 -1.62358 -1.22521 0
M  V30 1126 C 110.98 -0.318555 -1.89745 0
M  V30 1127 O 110.273 0.683315 -1.79001 0
M  V30 1128 C 110.467 -2.73938 -2.29549 0
M  V30 1129 C 110.296 -4.15165 -1.72825 0
M  V30 1130 C 109.066 -4.81604 -1.52924 0
M  V30 1131 C 111.264 -4.99503 -1.22481 0
M  V30 1132 N 109.246 -6.07056 -0.91413 0
M  V30 1133 C 110.617 -6.15655 -0.732743 0
M  V30 1134 C 112.672 -4.85299 -1.11308 0
M  V30 1135 C 111.375 -7.19164 -0.139976 0
M  V30 1136 C 113.401 -5.88982 -0.534258 0
M  V30 1137 C 112.763 -7.0438 -0.0525562 0
M  V30 1138 H 108.862 -0.648286 -0.437321 0
M  V30 1139 H 111.446 -1.87413 -0.527692 0
M  V30 1140 H 109.617 -2.50611 -2.9673 0
M  V30 1141 H 111.349 -2.75366 -2.96573 0
M  V30 1142 H 108.104 -4.3885 -1.78067 0
M  V30 1143 H 108.528 -6.74108 -0.625071 0
M  V30 1144 H 113.17 -3.96369 -1.47144 0
M  V30 1145 H 110.888 -8.07771 0.230591 0
M  V30 1146 H 114.474 -5.80055 -0.450219 0
M  V30 1147 H 113.354 -7.83238 0.388324 0
M  V30 1148 N 110.857 0.726932 -1.39834 0
M  V30 1149 C 111.804 1.841 -1.39197 0
M  V30 1150 C 112.774 1.642 -0.250502 0
M  V30 1151 O 113.959 1.85494 -0.446846 0
M  V30 1152 C 111.099 3.21697 -1.24919 0
M  V30 1153 C 110.212 3.53247 -2.48678 0
M  V30 1154 C 109.347 4.80289 -2.26928 0
M  V30 1155 C 108.386 5.04707 -3.4632 0
M  V30 1156 N 107.523 6.22956 -3.23836 0
M  V30 1157 H 112.363 1.83979 -2.34427 0
M  V30 1158 H 109.9 0.898876 -1.16442 0
M  V30 1159 H 111.858 4.01137 -1.1465 0
M  V30 1160 H 110.488 3.21076 -0.333153 0
M  V30 1161 H 109.54 2.68447 -2.69519 0
M  V30 1162 H 110.852 3.67205 -3.37582 0
M  V30 1163 H 110.006 5.67725 -2.13947 0
M  V30 1164 H 108.745 4.68519 -1.35431 0
M  V30 1165 H 107.75 4.1573 -3.5979 0
M  V30 1166 H 108.975 5.18357 -4.38729 0
M  V30 1167 H 106.921 6.12459 -2.35011 0
M  V30 1168 H 106.838 6.37539 -4.063 0
M  V30 1169 H 108.106 7.1321 -3.14566 0
M  V30 1170 N 112.336 1.25143 0.95797 0
M  V30 1171 C 113.584 1.09476 1.69881 0
M  V30 1172 C 113.905 -0.365502 1.91544 0
M  V30 1173 O 113.175 -1.25985 1.50015 0
M  V30 1174 H 111.755 0.402128 0.629525 0
M  V30 1175 H 114.417 1.57214 1.15194 0
M  V30 1176 H 113.513 1.60046 2.6794 0
M  V30 1177 N 113.814 -1.1601 1.06675 0
M  V30 1178 C 115.062 -1.86264 0.784229 0
M  V30 1179 C 115.383 -1.82328 -0.691488 0
M  V30 1180 O 114.653 -1.25947 -1.50047 0
M  V30 1181 H 113.233 -0.689621 0.28711 0
M  V30 1182 H 115.895 -1.40664 1.34906 0
M  V30 1183 H 114.991 -2.91595 1.11259 0
M  V30 1184 N 115.292 -0.849877 -1.32721 0
M  V30 1185 C 116.222 -0.306308 -2.31482 0
M  V30 1186 C 117.203 0.591952 -1.59468 0
M  V30 1187 O 118.388 0.513199 -1.87296 0
M  V30 1188 C 115.518 0.510204 -3.43532 0
M  V30 1189 C 114.472 -0.293209 -4.26994 0
M  V30 1190 C 113.798 0.647743 -5.30762 0
M  V30 1191 C 115.098 -1.51634 -4.99804 0
M  V30 1192 H 116.792 -1.13153 -2.77195 0
M  V30 1193 H 114.338 -0.545553 -1.33266 0
M  V30 1194 H 116.291 0.900856 -4.11658 0
M  V30 1195 H 115.015 1.36874 -2.96535 0
M  V30 1196 H 113.674 -0.665555 -3.60508 0
M  V30 1197 H 113.322 1.50299 -4.8002 0
M  V30 1198 H 113.022 0.11422 -5.87489 0
M  V30 1199 H 114.546 1.03567 -6.01753 0
M  V30 1200 H 115.96 -1.19824 -5.60638 0
M  V30 1201 H 114.357 -1.98745 -5.66234 0
M  V30 1202 H 115.427 -2.28018 -4.27943 0
M  V30 1203 N 116.77 1.45427 -0.607355 0
M  V30 1204 C 117.717 2.3053 0.111625 0
M  V30 1205 C 118.687 1.4209 0.860216 0
M  V30 1206 O 119.872 1.71019 0.845998 0
M  V30 1207 C 117.012 3.26992 1.10319 0
M  V30 1208 C 116.125 4.30535 0.355493 0
M  V30 1209 C 115.26 5.14105 1.33676 0
M  V30 1210 C 114.299 6.09376 0.576862 0
M  V30 1211 N 113.436 6.85727 1.5074 0
M  V30 1212 H 118.276 2.91477 -0.620093 0
M  V30 1213 H 115.813 1.43631 -0.317594 0
M  V30 1214 H 117.771 3.81385 1.6912 0
M  V30 1215 H 116.401 2.67799 1.80232 0
M  V30 1216 H 115.453 3.78805 -0.348023 0
M  V30 1217 H 116.765 4.98235 -0.237423 0
M  V30 1218 H 115.919 5.72897 1.99684 0
M  V30 1219 H 114.658 4.46423 1.9636 0
M  V30 1220 H 113.663 5.49715 -0.0968519 0
M  V30 1221 H 114.888 6.79085 -0.0449341 0
M  V30 1222 H 112.834 6.20735 2.12189 0
M  V30 1223 H 112.751 7.49778 0.967913 0
M  V30 1224 H 114.019 7.4906 2.15706 0
M  V30 1225 N 118.248 0.346503 1.53744 0
M  V30 1226 C 119.195 -0.508914 2.25119 0
M  V30 1227 C 120.165 -1.09315 1.25058 0
M  V30 1228 O 121.35 -1.12921 1.53797 0
M  V30 1229 C 118.49 -1.65246 3.02965 0
M  V30 1230 C 117.603 -1.09525 4.17886 0
M  V30 1231 C 116.738 -2.20634 4.83212 0
M  V30 1232 C 115.777 -1.62279 5.90196 0
M  V30 1233 N 114.914 -2.67143 6.49291 0
M  V30 1234 H 119.754 0.106283 2.9781 0
M  V30 1235 H 117.291 0.0642227 1.4696 0
M  V30 1236 H 119.249 -2.32574 3.4636 0
M  V30 1237 H 117.879 -2.2386 2.32565 0
M  V30 1238 H 116.931 -0.312818 3.79112 0
M  V30 1239 H 118.243 -0.628444 4.94825 0
M  V30 1240 H 117.397 -2.95821 5.29693 0
M  V30 1241 H 116.136 -2.70659 4.05703 0
M  V30 1242 H 115.141 -0.855989 5.43096 0
M  V30 1243 H 116.366 -1.13102 6.69615 0
M  V30 1244 H 114.312 -3.16417 5.74645 0
M  V30 1245 H 114.229 -2.25093 7.21713 0
M  V30 1246 H 115.497 -3.4209 7.00425 0
M  V30 1247 N 119.726 -1.57421 0.075193 0
M  V30 1248 C 120.658 -2.09904 -0.920483 0
M  V30 1249 C 121.671 -1.03191 -1.25918 0
M  V30 1250 O 122.86 -1.30695 -1.21577 0
M  V30 1251 C 119.96 -2.54726 -2.23534 0
M  V30 1252 C 119.133 -3.8505 -2.07498 0
M  V30 1253 C 118.192 -4.15929 -3.22319 0
M  V30 1254 O 117.218 -4.85474 -2.9716 0
M  V30 1255 N 118.42 -3.69745 -4.47514 0
M  V30 1256 H 121.185 -2.95954 -0.472359 0
M  V30 1257 H 118.746 -1.61523 -0.110444 0
M  V30 1258 H 120.738 -2.72443 -2.9926 0
M  V30 1259 H 119.308 -1.73795 -2.59835 0
M  V30 1260 H 118.528 -3.76679 -1.16219 0
M  V30 1261 H 119.816 -4.70348 -1.94038 0
M  V30 1262 H 119.214 -3.13569 -4.7084 0
M  V30 1263 H 117.771 -3.92655 -5.20255 0
M  V30 1264 N 121.204 0.198386 -1.56346 0
M  V30 1265 C 122.154 1.2499 -1.90687 0
M  V30 1266 C 123.138 1.41158 -0.772217 0
M  V30 1267 O 124.33 1.43584 -1.03502 0
M  V30 1268 C 121.459 2.59542 -2.24706 0
M  V30 1269 C 120.545 2.47181 -3.44619 0
M  V30 1270 N 120.936 2.04495 -4.62618 0
M  V30 1271 C 119.234 2.78082 -3.48692 0
M  V30 1272 C 119.935 2.03945 -5.44776 0
M  V30 1273 N 118.911 2.45323 -4.85095 0
M  V30 1274 H 122.713 0.911149 -2.7942 0
M  V30 1275 H 120.227 0.40684 -1.57221 0
M  V30 1276 H 122.224 3.3549 -2.47491 0
M  V30 1277 H 120.884 2.94244 -1.37298 0
M  V30 1278 H 121.895 1.75256 -4.87345 0
M  V30 1279 H 118.572 3.17002 -2.71691 0
M  V30 1280 H 119.962 1.72872 -6.4928 0
M  V30 1281 N 122.682 1.50554 0.465978 0
M  V30 1282 C 123.959 1.5232 1.22712 0
M  V30 1283 C 124.339 0.270807 2.09356 0
M  V30 1284 O 123.687 -0.745541 2.15995 0
M  V30 1285 C 123.897 2.82175 2.05374 0
M  V30 1286 C 125.245 3.33033 2.6339 0
M  V30 1287 O 126.269 2.83531 2.15612 0
M  V30 1288 O 125.128 4.19336 3.50456 0
M  V30 1289 H 122.222 0.611183 0.557122 0
M  V30 1290 H 124.768 1.62847 0.477381 0
M  V30 1291 H 123.54 3.64797 1.41558 0
M  V30 1292 H 123.163 2.74675 2.87471 0
M  V30 1293 N 124.16 -0.719506 1.40217 0
M  V30 1294 C 125.388 -1.50864 1.41589 0
M  V30 1295 C 125.803 -1.88794 0.0145275 0
M  V30 1296 O 125.16 -1.55174 -0.960594 0
M  V30 1297 C 125.211 -2.78646 2.30302 0
M  V30 1298 O 124.932 -2.42321 3.64983 0
M  V30 1299 C 126.433 -3.72569 2.40224 0
M  V30 1300 H 123.653 -0.465709 0.48307 0
M  V30 1301 H 126.197 -0.88785 1.84221 0
M  V30 1302 H 124.352 -3.37019 1.91042 0
M  V30 1303 H 124.766 -3.24514 4.12057 0
M  V30 1304 H 126.24 -4.5908 3.06512 0
M  V30 1305 H 126.717 -4.15403 1.42608 0
M  V30 1306 H 127.323 -3.20109 2.80019 0
M  V30 1307 N 125.638 -1.25649 -0.95132 0
M  V30 1308 C 126.568 -1.08808 -2.06599 0
M  V30 1309 C 127.549 0.00382547 -1.701 0
M  V30 1310 O 128.734 -0.166325 -1.93486 0
M  V30 1311 C 125.864 -0.709542 -3.39975 0
M  V30 1312 C 124.818 -1.75206 -3.90496 0
M  V30 1313 C 124.144 -1.22811 -5.20405 0
M  V30 1314 C 125.444 -3.15153 -4.16504 0
M  V30 1315 H 127.138 -2.02048 -2.20946 0
M  V30 1316 H 124.684 -0.972835 -1.06169 0
M  V30 1317 H 126.637 -0.578649 -4.17408 0
M  V30 1318 H 125.361 0.258556 -3.25575 0
M  V30 1319 H 124.02 -1.87145 -3.15234 0
M  V30 1320 H 123.668 -0.250145 -5.02378 0
M  V30 1321 H 123.368 -1.92492 -5.55176 0
M  V30 1322 H 124.892 -1.10968 -6.00432 0
M  V30 1323 H 126.306 -3.06349 -4.84586 0
M  V30 1324 H 124.703 -3.82333 -4.62538 0
M  V30 1325 H 125.773 -3.61966 -3.22658 0
M  V30 1326 N 127.117 1.15442 -1.07289 0
M  V30 1327 C 128.363 1.86489 -0.796846 0
M  V30 1328 C 128.696 1.82078 0.675371 0
M  V30 1329 O 127.971 1.24346 1.4956 0
M  V30 1330 C 128.254 3.35626 -1.30489 0
M  V30 1331 C 128.107 3.48673 -2.84161 0
M  V30 1332 C 129.426 4.30357 -0.920907 0
M  V30 1333 H 126.545 0.677144 -0.290939 0
M  V30 1334 H 129.187 1.35633 -1.33056 0
M  V30 1335 H 127.337 3.79068 -0.850883 0
M  V30 1336 H 129.009 3.14099 -3.37846 0
M  V30 1337 H 127.252 2.90253 -3.22391 0
M  V30 1338 H 127.923 4.53453 -3.14777 0
M  V30 1339 H 130.399 3.94871 -1.3121 0
M  V30 1340 H 129.275 5.33193 -1.30372 0
M  V30 1341 H 129.536 4.4176 0.173226 0
M  V30 1342 N 128.595 0.856903 1.32268 0
M  V30 1343 C 129.505 0.306131 2.32594 0
M  V30 1344 C 130.521 -0.577209 1.64147 0
M  V30 1345 O 131.697 -0.477043 1.95669 0
M  V30 1346 C 128.762 -0.494561 3.43154 0
M  V30 1347 C 127.823 0.415186 4.27288 0
M  V30 1348 C 127.056 -0.347387 5.32568 0
M  V30 1349 O 127.279 -1.57708 5.48165 0
M  V30 1350 O 126.213 0.287982 6.01211 0
M  V30 1351 H 130.039 1.13737 2.81598 0
M  V30 1352 H 127.624 0.619902 1.35932 0
M  V30 1353 H 129.506 -0.948944 4.10576 0
M  V30 1354 H 128.181 -1.30257 2.96336 0
M  V30 1355 H 127.088 0.917793 3.62667 0
M  V30 1356 H 128.421 1.18844 4.77637 0
M  V30 1357 N 130.073 -1.45103 0.615059 0
M  V30 1358 C 131.303 -2.06254 0.119596 0
M  V30 1359 C 131.711 -1.4591 -1.20445 0
M  V30 1360 O 131.054 -0.570384 -1.7462 0
M  V30 1361 C 131.116 -3.59396 -0.0865591 0
M  V30 1362 C 130.78 -4.42116 1.15683 0
M  V30 1363 C 131.777 -4.7662 2.07676 0
M  V30 1364 C 129.462 -4.82749 1.38775 0
M  V30 1365 C 131.456 -5.50622 3.21082 0
M  V30 1366 C 129.143 -5.56504 2.52481 0
M  V30 1367 C 130.141 -5.90358 3.43463 0
M  V30 1368 O 129.829 -6.62615 4.55189 0
M  V30 1369 H 129.561 -0.672423 0.0694512 0
M  V30 1370 H 132.115 -1.87219 0.844885 0
M  V30 1371 H 130.345 -3.76859 -0.866823 0
M  V30 1372 H 132.034 -4.02365 -0.534555 0
M  V30 1373 H 132.8 -4.4578 1.91063 0
M  V30 1374 H 128.679 -4.55829 0.688545 0
M  V30 1375 H 132.223 -5.76965 3.92119 0
M  V30 1376 H 128.12 -5.86759 2.69043 0
M  V30 1377 H 128.888 -6.81071 4.53966 0
M  V30 1378 N 131.551 -0.354651 -1.53558 0
M  V30 1379 C 132.501 0.513179 -2.2215 0
M  V30 1380 C 133.485 1.05734 -1.21281 0
M  V30 1381 O 134.677 0.989202 -1.46778 0
M  V30 1382 C 131.806 1.65798 -3.00609 0
M  V30 1383 C 130.892 1.12722 -4.08845 0
M  V30 1384 N 131.283 0.318563 -5.04796 0
M  V30 1385 C 129.581 1.40307 -4.23356 0
M  V30 1386 C 130.282 0.0292224 -5.81693 0
M  V30 1387 N 129.258 0.623891 -5.40008 0
M  V30 1388 H 133.06 -0.111586 -2.93688 0
M  V30 1389 H 130.574 -0.162091 -1.61589 0
M  V30 1390 H 132.571 2.29176 -3.48258 0
M  V30 1391 H 131.231 2.28591 -2.306 0
M  V30 1392 H 132.242 -0.0413091 -5.17884 0
M  V30 1393 H 128.919 2.03458 -3.6457 0
M  V30 1394 H 130.309 -0.623808 -6.68998 0
M  V30 1395 N 133.029 1.57378 -0.0835403 0
M  V30 1396 C 133.976 2.13384 0.879539 0
M  V30 1397 C 134.946 1.04936 1.28754 0
M  V30 1398 O 136.131 1.32662 1.37133 0
M  V30 1399 C 133.271 2.70932 2.13752 0
M  V30 1400 C 132.384 3.93575 1.7811 0
M  V30 1401 C 131.519 4.39326 2.98607 0
M  V30 1402 C 130.558 5.54587 2.59037 0
M  V30 1403 N 129.695 5.95243 3.72331 0
M  V30 1404 H 134.535 2.9537 0.395076 0
M  V30 1405 H 132.072 1.45953 0.183349 0
M  V30 1406 H 134.03 3.02411 2.87408 0
M  V30 1407 H 132.66 1.91693 2.59718 0
M  V30 1408 H 131.712 3.68483 0.94469 0
M  V30 1409 H 133.024 4.77258 1.45005 0
M  V30 1410 H 132.178 4.72528 3.80529 0
M  V30 1411 H 130.917 3.5452 3.34913 0
M  V30 1412 H 129.922 5.21024 1.75539 0
M  V30 1413 H 131.147 6.41133 2.23887 0
M  V30 1414 H 129.093 5.13385 4.08378 0
M  V30 1415 H 129.01 6.73694 3.43034 0
M  V30 1416 H 130.278 6.33072 4.54797 0
M  V30 1417 N 134.507 -0.190092 1.56449 0
M  V30 1418 C 135.454 -1.23557 1.94942 0
M  V30 1419 C 136.424 -1.44972 0.810696 0
M  V30 1420 O 137.609 -1.58023 1.06927 0
M  V30 1421 C 134.749 -2.57416 2.2985 0
M  V30 1422 C 133.862 -2.43537 3.5681 0
M  V30 1423 C 132.997 -3.70134 3.81017 0
M  V30 1424 C 132.036 -3.51109 5.01387 0
M  V30 1425 N 131.173 -4.6973 5.21822 0
M  V30 1426 H 136.013 -0.900304 2.84075 0
M  V30 1427 H 133.55 -0.43318 1.40577 0
M  V30 1428 H 135.508 -3.35409 2.48106 0
M  V30 1429 H 134.138 -2.88975 1.43852 0
M  V30 1430 H 133.19 -1.56816 3.46573 0
M  V30 1431 H 134.502 -2.25415 4.4496 0
M  V30 1432 H 133.656 -4.56566 3.9954 0
M  V30 1433 H 132.395 -3.91215 2.91207 0
M  V30 1434 H 131.4 -2.63063 4.82782 0
M  V30 1435 H 132.625 -3.31468 5.9271 0
M  V30 1436 H 130.571 -4.91065 4.34961 0
M  V30 1437 H 130.488 -4.54452 6.0416 0
M  V30 1438 H 131.756 -5.57499 5.44808 0
M  V30 1439 N 135.985 -1.50799 -0.457987 0
M  V30 1440 C 137.215 -1.65977 -1.23025 0
M  V30 1441 C 137.623 -0.347918 -1.85974 0
M  V30 1442 O 136.966 0.68148 -1.70592 0
M  V30 1443 C 137.028 -2.70309 -2.3701 0
M  V30 1444 C 136.692 -4.135 -1.94594 0
M  V30 1445 C 137.689 -4.98949 -1.46101 0
M  V30 1446 C 135.374 -4.5949 -2.02915 0
M  V30 1447 C 137.368 -6.28442 -1.06489 0
M  V30 1448 C 135.055 -5.88984 -1.62914 0
M  V30 1449 C 136.053 -6.73286 -1.1478 0
M  V30 1450 O 135.741 -8.00362 -0.75339 0
M  V30 1451 H 135.473 -0.56064 -0.377702 0
M  V30 1452 H 138.027 -1.97857 -0.551537 0
M  V30 1453 H 136.257 -2.337 -3.08093 0
M  V30 1454 H 137.946 -2.74574 -2.98938 0
M  V30 1455 H 138.712 -4.6463 -1.39084 0
M  V30 1456 H 134.591 -3.94009 -2.39328 0
M  V30 1457 H 138.135 -6.94194 -0.688488 0
M  V30 1458 H 134.032 -6.22822 -1.69595 0
M  V30 1459 H 134.8 -8.13744 -0.88108 0
M  V30 1460 N 137.463 0.71206 -1.40597 0
M  V30 1461 C 138.711 1.46907 -1.38791 0
M  V30 1462 C 139.032 1.94998 0.00780391 0
M  V30 1463 O 138.302 1.70587 0.963174 0
M  V30 1464 H 136.882 0.545043 -0.51082 0
M  V30 1465 H 139.544 0.843882 -1.75683 0
M  V30 1466 H 138.64 2.34021 -2.06496 0
M  V30 1467 N 138.941 1.26152 0.944643 0
M  V30 1468 C 139.888 1.07408 2.04285 0
M  V30 1469 C 140.858 -0.0198413 1.66088 0
M  V30 1470 O 142.043 0.139264 1.90291 0
M  V30 1471 C 139.183 0.70945 3.37729 0
M  V30 1472 C 138.296 1.87926 3.88983 0
M  V30 1473 C 137.431 1.45807 5.10797 0
M  V30 1474 C 136.47 2.5964 5.54305 0
M  V30 1475 N 135.607 2.18226 6.67324 0
M  V30 1476 H 140.447 2.01389 2.1965 0
M  V30 1477 H 137.984 1.00275 1.07626 0
M  V30 1478 H 139.942 0.478948 4.14442 0
M  V30 1479 H 138.572 -0.193389 3.2222 0
M  V30 1480 H 137.624 2.22279 3.08701 0
M  V30 1481 H 138.936 2.73377 4.17213 0
M  V30 1482 H 138.09 1.18781 5.94959 0
M  V30 1483 H 136.829 0.574414 4.84305 0
M  V30 1484 H 135.834 2.87399 4.68702 0
M  V30 1485 H 137.059 3.48599 5.828 0
M  V30 1486 H 135.005 1.3229 6.42523 0
M  V30 1487 H 134.922 2.97221 6.95123 0
M  V30 1488 H 136.19 1.94403 7.54869 0
M  V30 1489 N 140.419 -1.14872 1.07899 0
M  V30 1490 C 141.668 -1.85135 0.800499 0
M  V30 1491 C 141.981 -1.83547 -0.676014 0
M  V30 1492 O 143.187 -2.49548 -1.06948 0
M  V30 1493 C 141.643 -3.3231 1.38197 0
M  V30 1494 C 141.251 -3.42329 2.8899 0
M  V30 1495 C 142.995 -4.0772 1.18174 0
M  V30 1496 C 140.902 -4.83684 3.403 0
M  V30 1497 H 139.832 -0.693563 0.29578 0
M  V30 1498 H 142.483 -1.29532 1.29976 0
M  V30 1499 H 140.865 -3.87618 0.810431 0
M  V30 1500 H 142.039 -2.97097 3.52236 0
M  V30 1501 H 140.354 -2.80369 3.07867 0
M  V30 1502 H 142.951 -5.12049 1.5398 0
M  V30 1503 H 143.294 -4.16124 0.12117 0
M  V30 1504 H 143.827 -3.58696 1.71994 0
M  V30 1505 H 140.566 -4.80465 4.45907 0
M  V30 1506 H 140.086 -5.29474 2.81811 0
M  V30 1507 H 141.765 -5.52558 3.36584 0
M  V30 1508 N 141.898 -0.863906 -1.31812 0
M  V30 1509 C 143.145 -0.471836 -1.96926 0
M  V30 1510 C 143.473 0.974578 -1.68322 0
M  V30 1511 O 142.728 1.7003 -0.968933 0
M  V30 1512 C 143.027 -0.668547 -3.51091 0
M  V30 1513 C 142.693 -2.08683 -3.99703 0
M  V30 1514 C 141.355 -2.47471 -4.12688 0
M  V30 1515 C 143.707 -3.01207 -4.25351 0
M  V30 1516 C 141.035 -3.78037 -4.4867 0
M  V30 1517 C 143.387 -4.31282 -4.62794 0
M  V30 1518 C 142.051 -4.69992 -4.73987 0
M  V30 1519 H 141.321 -0.172657 -0.720604 0
M  V30 1520 H 143.968 -1.09573 -1.57054 0
M  V30 1521 H 142.273 0.0385252 -3.91781 0
M  V30 1522 H 143.97 -0.345102 -3.99512 0
M  V30 1523 H 140.56 -1.77566 -3.90087 0
M  V30 1524 H 144.744 -2.72469 -4.14819 0
M  V30 1525 H 140 -4.078 -4.55532 0
M  V30 1526 H 144.174 -5.03031 -4.81594 0
M  V30 1527 H 141.801 -5.71207 -5.01624 0
M  V30 1528 N 143.376 1.44774 -0.622745 0
M  V30 1529 C 144.792 1.56986 -0.287652 0
M  V30 1530 C 144.992 1.61167 1.20944 0
M  V30 1531 O 144.048 1.55015 1.99315 0
M  V30 1532 C 145.361 2.84551 -0.972188 0
M  V30 1533 C 146.909 2.9825 -0.949536 0
M  V30 1534 C 147.384 4.28605 -1.61437 0
M  V30 1535 N 148.875 4.35399 -1.58057 0
M  V30 1536 C 149.61 5.34964 -2.064 0
M  V30 1537 N 149.106 6.40981 -2.62897 0
M  V30 1538 N 150.899 5.26419 -1.97078 0
M  V30 1539 H 143.05 1.40304 -1.59463 0
M  V30 1540 H 145.313 0.671794 -0.668878 0
M  V30 1541 H 145.019 2.87417 -2.02693 0
M  V30 1542 H 144.893 3.73807 -0.504771 0
M  V30 1543 H 147.28 2.94941 0.0967067 0
M  V30 1544 H 147.361 2.10364 -1.45536 0
M  V30 1545 H 147.005 4.32672 -2.66002 0
M  V30 1546 H 146.935 5.15334 -1.08344 0
M  V30 1547 H 149.426 3.59397 -1.16801 0
M  V30 1548 H 149.739 7.13225 -2.97539 0
M  V30 1549 H 148.084 6.4169 -2.66943 0
M  V30 1550 H 151.275 4.42504 -1.52669 0
M  V30 1551 H 151.448 6.03861 -2.35066 0
M  V30 1552 N 144.854 0.36279 1.53368 0
M  V30 1553 C 145.787 -0.528507 2.21996 0
M  V30 1554 C 146.765 -1.0852 1.21087 0
M  V30 1555 O 147.949 -1.14186 1.4998 0
M  V30 1556 C 145.076 -1.72893 2.91249 0
M  V30 1557 C 144.122 -1.29994 4.06207 0
M  V30 1558 S 144.955 -0.303575 5.34639 0
M  V30 1559 C 146.111 -1.51039 6.07403 0
M  V30 1560 H 146.344 0.0543423 2.9725 0
M  V30 1561 H 143.877 0.146889 1.537 0
M  V30 1562 H 145.835 -2.41751 3.31763 0
M  V30 1563 H 144.496 -2.28303 2.15724 0
M  V30 1564 H 143.689 -2.19549 4.53667 0
M  V30 1565 H 143.291 -0.690608 3.67569 0
M  V30 1566 H 145.583 -2.44186 6.31965 0
M  V30 1567 H 146.526 -1.07721 6.99858 0
M  V30 1568 H 146.934 -1.71518 5.37812 0
M  V30 1569 N 146.332 -1.57332 0.0918853 0
M  V30 1570 C 147.279 -2.13847 -0.868211 0
M  V30 1571 C 148.249 -1.05618 -1.28196 0
M  V30 1572 O 149.434 -1.33387 -1.36427 0
M  V30 1573 C 146.574 -2.72062 -2.12312 0
M  V30 1574 C 145.687 -3.94514 -1.7602 0
M  V30 1575 C 144.822 -4.40903 -2.96273 0
M  V30 1576 C 143.861 -5.55953 -2.56092 0
M  V30 1577 N 142.998 -5.97209 -3.69169 0
M  V30 1578 H 147.838 -2.95575 -0.379406 0
M  V30 1579 H 145.375 -1.46048 -0.175606 0
M  V30 1580 H 147.333 -3.03931 -2.858 0
M  V30 1581 H 145.963 -1.93068 -2.58698 0
M  V30 1582 H 145.015 -3.68979 -0.925135 0
M  V30 1583 H 146.327 -4.7802 -1.42472 0
M  V30 1584 H 145.481 -4.74539 -3.78018 0
M  V30 1585 H 144.22 -3.56291 -3.33029 0
M  V30 1586 H 143.225 -5.21948 -1.72773 0
M  V30 1587 H 144.45 -6.42311 -2.20484 0
M  V30 1588 H 142.396 -5.15543 -4.05649 0
M  V30 1589 H 142.313 -6.75504 -3.39456 0
M  V30 1590 H 143.581 -6.35475 -4.51434 0
M  V30 1591 N 147.81 0.181792 -1.56548 0
M  V30 1592 C 148.74 1.22765 -1.98623 0
M  V30 1593 C 149.721 1.46747 -0.860189 0
M  V30 1594 O 150.906 1.58259 -1.12551 0
M  V30 1595 C 148.036 2.56894 -2.33715 0
M  V30 1596 C 146.99 2.475 -3.49182 0
M  V30 1597 C 146.316 3.86023 -3.69986 0
M  V30 1598 C 147.616 1.98866 -4.82959 0
M  V30 1599 H 149.31 0.877942 -2.86239 0
M  V30 1600 H 146.856 0.42088 -1.37712 0
M  V30 1601 H 148.809 3.30253 -2.61746 0
M  V30 1602 H 147.533 2.93632 -1.42997 0
M  V30 1603 H 146.192 1.76596 -3.21262 0
M  V30 1604 H 145.84 4.20136 -2.76576 0
M  V30 1605 H 145.54 3.80609 -4.47672 0
M  V30 1606 H 147.064 4.60984 -4.00407 0
M  V30 1607 H 148.478 2.61992 -5.09934 0
M  V30 1608 H 146.875 2.04424 -5.64208 0
M  V30 1609 H 147.945 0.942465 -4.75653 0
M  V30 1610 N 149.288 1.51039 0.449983 0
M  V30 1611 C 150.536 1.62759 1.19808 0
M  V30 1612 C 150.857 0.339981 1.92013 0
M  V30 1613 O 150.127 -0.643606 1.85026 0
M  V30 1614 H 148.707 0.599811 0.445237 0
M  V30 1615 H 151.369 1.87914 0.517138 0
M  V30 1616 H 150.465 2.44911 1.93455 0
M  V30 1617 N 150.766 -0.704594 1.40972 0
M  V30 1618 C 151.991 -1.49858 1.43378 0
M  V30 1619 C 152.416 -1.88061 0.038184 0
M  V30 1620 O 151.774 -1.5402 -0.956425 0
M  V30 1621 C 151.822 -2.74333 2.34038 0
M  V30 1622 O 150.926 -3.7147 1.7912 0
M  V30 1623 H 150.267 -0.45139 0.486974 0
M  V30 1624 H 152.797 -0.866832 1.8533 0
M  V30 1625 H 152.807 -3.22741 2.49604 0
M  V30 1626 H 151.482 -2.45863 3.35446 0
M  V30 1627 H 150.059 -3.30363 1.72958 0
M  V30 1628 N 152.244 -1.26651 -0.937939 0
M  V30 1629 C 153.491 -1.12387 -1.6845 0
M  V30 1630 C 153.819 0.332208 -1.91642 0
M  V30 1631 O 153.074 1.2602 -1.49725 0
M  V30 1632 C 153.373 -1.84168 -3.06295 0
M  V30 1633 C 153.039 -3.34056 -3.02849 0
M  V30 1634 C 151.701 -3.74942 -3.01616 0
M  V30 1635 C 154.053 -4.29741 -2.9491 0
M  V30 1636 C 151.381 -5.09894 -2.90215 0
M  V30 1637 C 153.733 -5.64738 -2.8505 0
M  V30 1638 C 152.397 -6.0493 -2.82162 0
M  V30 1639 H 151.667 -0.411252 -0.616403 0
M  V30 1640 H 154.314 -1.57134 -1.09459 0
M  V30 1641 H 152.619 -1.319 -3.6893 0
M  V30 1642 H 154.316 -1.70569 -3.62915 0
M  V30 1643 H 150.906 -3.01534 -3.0459 0
M  V30 1644 H 155.09 -3.99133 -2.94969 0
M  V30 1645 H 150.346 -5.40194 -2.86358 0
M  V30 1646 H 154.52 -6.38561 -2.77872 0
M  V30 1647 H 152.147 -7.09457 -2.73084 0
M  V30 1648 N 153.722 1.14298 -1.08507 0
M  V30 1649 C 154.632 2.23027 -0.727753 0
M  V30 1650 C 155.648 1.71952 0.26619 0
M  V30 1651 O 156.824 2.011 0.109882 0
M  V30 1652 C 153.889 3.46403 -0.143541 0
M  V30 1653 C 152.95 4.12413 -1.19223 0
M  V30 1654 C 152.183 5.29899 -0.635798 0
M  V30 1655 O 152.406 5.67796 0.544393 0
M  V30 1656 O 151.34 5.85717 -1.38634 0
M  V30 1657 H 155.166 2.55945 -1.63481 0
M  V30 1658 H 152.751 1.22248 -0.858817 0
M  V30 1659 H 154.633 4.21018 0.179404 0
M  V30 1660 H 153.308 3.15206 0.736659 0
M  V30 1661 H 152.215 3.39667 -1.56772 0
M  V30 1662 H 153.548 4.47718 -2.04474 0
M  V30 1663 N 155.201 0.870884 1.31352 0
M  V30 1664 C 156.426 0.495957 2.01383 0
M  V30 1665 C 156.851 -0.904324 1.64935 0
M  V30 1666 O 156.209 -1.59687 0.858466 0
M  V30 1667 C 156.257 0.661433 3.54482 0
M  V30 1668 O 155.361 -0.298851 4.11316 0
M  V30 1669 H 154.702 0.197158 0.634054 0
M  V30 1670 H 157.232 1.17455 1.67527 0
M  V30 1671 H 157.242 0.555072 4.04207 0
M  V30 1672 H 155.917 1.68246 3.8035 0
M  V30 1673 H 154.494 -0.147368 3.72609 0
M  V30 1674 N 156.679 -1.44442 0.630414 0
M  V30 1675 C 157.925 -2.02351 0.134816 0
M  V30 1676 C 158.258 -1.4947 -1.23986 0
M  V30 1677 O 157.533 -0.678475 -1.82283 0
M  V30 1678 C 157.816 -3.59898 0.120707 0
M  V30 1679 C 157.669 -4.23063 1.52767 0
M  V30 1680 C 158.988 -4.36585 -0.555127 0
M  V30 1681 H 156.107 -0.73527 0.0504646 0
M  V30 1682 H 158.749 -1.72022 0.806751 0
M  V30 1683 H 156.899 -3.85868 -0.451477 0
M  V30 1684 H 158.571 -4.08202 2.14869 0
M  V30 1685 H 156.814 -3.80586 2.08175 0
M  V30 1686 H 157.485 -5.32071 1.46984 0
M  V30 1687 H 159.961 -4.16044 -0.0685429 0
M  V30 1688 H 158.837 -5.46294 -0.534185 0
M  V30 1689 H 159.098 -4.11138 -1.62535 0
M  V30 1690 N 158.157 -0.370918 -1.53173 0
M  V30 1691 C 159.107 0.489588 -2.22681 0
M  V30 1692 C 160.091 1.04442 -1.22395 0
M  V30 1693 O 161.283 0.973578 -1.47819 0
M  V30 1694 C 158.412 1.626 -3.02351 0
M  V30 1695 C 157.498 1.08379 -4.10018 0
M  V30 1696 N 157.889 0.265004 -5.05105 0
M  V30 1697 C 156.187 1.35809 -4.2482 0
M  V30 1698 C 156.888 -0.0324755 -5.81691 0
M  V30 1699 N 155.864 0.566581 -5.40639 0
M  V30 1700 H 159.666 -0.142729 -2.93553 0
M  V30 1701 H 157.18 -0.179221 -1.61408 0
M  V30 1702 H 159.177 2.2547 -3.50669 0
M  V30 1703 H 157.837 2.26132 -2.33011 0
M  V30 1704 H 158.848 -0.0962352 -5.17811 0
M  V30 1705 H 155.525 1.9958 -3.66707 0
M  V30 1706 H 156.915 -0.69473 -6.68299 0
M  V30 1707 N 159.635 1.57281 -0.100228 0
M  V30 1708 C 160.565 2.17328 0.853857 0
M  V30 1709 C 161.546 1.10804 1.2906 0
M  V30 1710 O 162.731 1.38963 1.35657 0
M  V30 1711 C 159.861 2.75772 2.11109 0
M  V30 1712 C 158.815 3.87713 1.81279 0
M  V30 1713 C 158.141 4.32882 3.13874 0
M  V30 1714 C 159.441 5.10677 1.09574 0
M  V30 1715 H 161.135 2.97305 0.353545 0
M  V30 1716 H 158.681 1.43009 0.168612 0
M  V30 1717 H 160.634 3.16433 2.78296 0
M  V30 1718 H 159.358 1.93057 2.63432 0
M  V30 1719 H 158.017 3.476 1.16489 0
M  V30 1720 H 157.665 3.47051 3.64095 0
M  V30 1721 H 157.365 5.08358 2.94696 0
M  V30 1722 H 158.889 4.7618 3.82211 0
M  V30 1723 H 160.303 5.48474 1.66879 0
M  V30 1724 H 158.7 5.91615 1.00557 0
M  V30 1725 H 159.77 4.84835 0.0793299 0
M  V30 1726 N 161.113 -0.173488 1.56642 0
M  V30 1727 C 162.361 -0.888706 1.81512 0
M  V30 1728 C 162.682 -1.82875 0.676872 0
M  V30 1729 O 161.952 -1.93536 -0.303414 0
M  V30 1730 H 160.532 -0.331164 0.669582 0
M  V30 1731 H 163.194 -0.173823 1.94123 0
M  V30 1732 H 162.29 -1.46691 2.75478 0
M  V30 1733 N 162.591 -1.51276 -0.441967 0
M  V30 1734 C 163.816 -1.67799 -1.21895 0
M  V30 1735 C 164.241 -0.372864 -1.84367 0
M  V30 1736 O 163.599 0.666501 -1.68604 0
M  V30 1737 C 163.647 -2.79199 -2.28211 0
M  V30 1738 O 162.751 -2.42479 -3.33583 0
M  V30 1739 H 162.092 -0.559649 -0.357336 0
M  V30 1740 H 164.622 -1.97815 -0.522522 0
M  V30 1741 H 164.632 -3.03146 -2.73069 0
M  V30 1742 H 163.307 -3.73906 -1.82118 0
M  V30 1743 H 161.884 -2.29087 -2.94234 0
M  V30 1744 N 164.069 0.697108 -1.41344 0
M  V30 1745 C 165.48 1.27697 -1.36199 0
M  V30 1746 C 165.831 1.9615 -0.0443463 0
M  V30 1747 O 164.956 1.98689 0.857419 0
M  V30 1748 C 165.551 2.32223 -2.46694 0
M  V30 1749 C 164.11 2.8579 -2.44952 0
M  V30 1750 C 163.257 1.59807 -2.26621 0
M  V30 1751 H 166.208 0.491968 -1.50882 0
M  V30 1752 H 166.229 3.1348 -2.15664 0
M  V30 1753 H 165.741 1.82373 -3.42581 0
M  V30 1754 H 163.842 3.3982 -1.52817 0
M  V30 1755 H 163.955 3.36325 -3.41207 0
M  V30 1756 H 162.319 1.8556 -1.7447 0
M  V30 1757 H 163.102 1.11956 -3.24532 0
M  V30 1758 N 165.547 1.27147 0.931209 0
M  V30 1759 C 166.787 1.14511 1.69312 0
M  V30 1760 C 167.151 -0.304638 1.89568 0
M  V30 1761 O 168.352 -0.553343 2.63043 0
M  V30 1762 C 166.623 1.90349 3.02493 0
M  V30 1763 S 168.182 1.93884 3.93642 0
M  V30 1764 H 165 0.408858 0.581684 0
M  V30 1765 H 167.602 1.61006 1.10893 0
M  V30 1766 H 166.306 2.94877 2.85439 0
M  V30 1767 H 165.837 1.44333 3.65966 0
M  V30 1768 H 167.852 1.03273 4.85334 0
M  V30 1769 N 167.025 -1.13721 1.09112 0
M  V30 1770 C 167.955 -2.21148 0.749385 0
M  V30 1771 C 168.936 -1.6792 -0.271475 0
M  V30 1772 O 170.121 -1.93693 -0.140251 0
M  V30 1773 C 167.251 -3.46905 0.165659 0
M  V30 1774 C 166.205 -4.13203 1.11567 0
M  V30 1775 C 165.531 -5.33248 0.393809 0
M  V30 1776 C 166.831 -4.60912 2.45678 0
M  V30 1777 H 168.525 -2.4999 1.64758 0
M  V30 1778 H 166.071 -1.20156 0.793626 0
M  V30 1779 H 168.024 -4.21313 -0.085466 0
M  V30 1780 H 166.748 -3.17449 -0.767714 0
M  V30 1781 H 165.407 -3.40758 1.35202 0
M  V30 1782 H 165.055 -5.00054 -0.543599 0
M  V30 1783 H 164.755 -5.78552 1.02721 0
M  V30 1784 H 166.279 -6.10413 0.150908 0
M  V30 1785 H 167.693 -5.26759 2.26269 0
M  V30 1786 H 166.09 -5.16944 3.04776 0
M  V30 1787 H 167.16 -3.75603 3.06677 0
M  V30 1788 N 168.503 -0.877838 -1.30888 0
M  V30 1789 C 169.433 -0.35534 -2.3078 0
M  V30 1790 C 170.414 0.557994 -1.60687 0
M  V30 1791 O 171.599 0.473355 -1.88343 0
M  V30 1792 C 168.729 0.437221 -3.44537 0
M  V30 1793 C 167.683 -0.383715 -4.26276 0
M  V30 1794 C 167.009 0.535014 -5.32017 0
M  V30 1795 C 168.309 -1.62201 -4.96476 0
M  V30 1796 H 170.003 -1.19007 -2.74732 0
M  V30 1797 H 167.549 -0.573698 -1.32078 0
M  V30 1798 H 169.502 0.813334 -4.13477 0
M  V30 1799 H 168.226 1.30553 -2.99372 0
M  V30 1800 H 166.885 -0.741874 -3.59015 0
M  V30 1801 H 166.533 1.40083 -4.831 0
M  V30 1802 H 166.233 -0.0104211 -5.87599 0
M  V30 1803 H 167.757 0.907799 -6.03814 0
M  V30 1804 H 169.171 -1.31689 -5.5797 0
M  V30 1805 H 167.568 -2.10711 -5.61891 0
M  V30 1806 H 168.638 -2.37044 -4.23011 0
M  V30 1807 N 169.982 1.44106 -0.638065 0
M  V30 1808 C 170.892 2.34513 0.0637334 0
M  V30 1809 C 171.908 1.53018 0.828346 0
M  V30 1810 O 173.084 1.85723 0.779036 0
M  V30 1811 C 170.149 3.31095 1.02844 0
M  V30 1812 C 169.21 4.28497 0.26244 0
M  V30 1813 C 168.443 5.20465 1.1812 0
M  V30 1814 O 168.666 5.16514 2.42011 0
M  V30 1815 O 167.6 5.98251 0.661774 0
M  V30 1816 H 171.426 2.95989 -0.68003 0
M  V30 1817 H 169.011 1.43994 -0.398252 0
M  V30 1818 H 170.893 3.90526 1.58327 0
M  V30 1819 H 169.568 2.72144 1.7527 0
M  V30 1820 H 168.475 3.72592 -0.335602 0
M  V30 1821 H 169.808 4.90388 -0.421936 0
M  V30 1822 N 171.46 0.379036 1.52974 0
M  V30 1823 C 172.423 -0.448865 2.24762 0
M  V30 1824 C 173.423 -0.998689 1.26027 0
M  V30 1825 O 174.613 -0.882313 1.50203 0
M  V30 1826 C 171.745 -1.62872 2.99476 0
M  V30 1827 H 172.938 0.179491 2.99362 0
M  V30 1828 H 170.491 0.13096 1.5575 0
M  V30 1829 H 171.226 -2.29479 2.29151 0
M  V30 1830 H 171.011 -1.24128 3.71934 0
M  V30 1831 H 172.501 -2.2151 3.5401 0
M  V30 1832 N 172.938 -1.57226 0.108567 0
M  V30 1833 C 173.868 -2.17778 -0.84232 0
M  V30 1834 C 174.849 -1.11487 -1.2847 0
M  V30 1835 O 176.034 -1.39681 -1.34918 0
M  V30 1836 C 173.164 -2.76888 -2.09644 0
M  V30 1837 C 172.118 -3.88669 -1.79221 0
M  V30 1838 C 171.444 -4.34541 -3.11574 0
M  V30 1839 C 172.744 -5.11251 -1.06864 0
M  V30 1840 H 174.438 -2.97489 -0.337774 0
M  V30 1841 H 171.984 -1.43097 -0.161025 0
M  V30 1842 H 173.937 -3.17904 -2.76614 0
M  V30 1843 H 172.661 -1.94451 -2.62405 0
M  V30 1844 H 171.32 -3.48213 -1.14644 0
M  V30 1845 H 170.968 -3.48977 -3.62249 0
M  V30 1846 H 170.668 -5.09914 -2.91996 0
M  V30 1847 H 172.192 -4.782 -3.7968 0
M  V30 1848 H 173.606 -5.49352 -1.63968 0
M  V30 1849 H 172.003 -5.9214 -0.974178 0
M  V30 1850 H 173.073 -4.8487 -0.0536168 0
M  V30 1851 N 174.416 0.165178 -1.56732 0
M  V30 1852 C 175.646 0.894919 -1.86212 0
M  V30 1853 C 176.054 1.76066 -0.692627 0
M  V30 1854 O 175.397 1.80387 0.347303 0
M  V30 1855 C 175.459 1.8174 -3.10179 0
M  V30 1856 C 175.123 1.13064 -4.42793 0
M  V30 1857 C 176.12 0.493169 -5.17556 0
M  V30 1858 C 173.805 1.12556 -4.89527 0
M  V30 1859 C 175.799 -0.140209 -6.37246 0
M  V30 1860 C 173.486 0.488366 -6.09145 0
M  V30 1861 C 174.484 -0.143411 -6.82849 0
M  V30 1862 O 174.172 -0.77055 -8.00199 0
M  V30 1863 H 173.904 0.265114 -0.621844 0
M  V30 1864 H 176.458 0.168242 -2.0471 0
M  V30 1865 H 174.688 2.58455 -2.87642 0
M  V30 1866 H 176.377 2.4175 -3.26055 0
M  V30 1867 H 177.143 0.489023 -4.82528 0
M  V30 1868 H 173.022 1.60672 -4.32094 0
M  V30 1869 H 176.566 -0.633932 -6.94714 0
M  V30 1870 H 172.463 0.490116 -6.43637 0
M  V30 1871 H 173.231 -0.670408 -8.1575 0
M  V30 1872 N 175.894 1.51508 0.433938 0
M  V30 1873 C 177.31 1.39759 0.770682 0
M  V30 1874 C 177.51 0.482594 1.95636 0
M  V30 1875 O 176.566 -0.0609691 2.52426 0
M  V30 1876 C 177.879 2.81851 1.04787 0
M  V30 1877 C 179.427 2.91025 1.1521 0
M  V30 1878 C 179.902 4.34032 1.46219 0
M  V30 1879 N 181.393 4.37154 1.53136 0
M  V30 1880 C 182.128 5.4484 1.78709 0
M  V30 1881 N 181.624 6.62682 2.02051 0
M  V30 1882 N 183.417 5.32324 1.80519 0
M  V30 1883 H 175.568 2.09548 -0.346892 0
M  V30 1884 H 177.831 0.943446 -0.0928074 0
M  V30 1885 H 177.537 3.50815 0.249304 0
M  V30 1886 H 177.411 3.21386 1.97461 0
M  V30 1887 H 179.798 2.22257 1.94128 0
M  V30 1888 H 179.879 2.54983 0.204281 0
M  V30 1889 H 179.523 5.03351 0.678274 0
M  V30 1890 H 179.453 4.6759 2.42212 0
M  V30 1891 H 181.944 3.52197 1.36987 0
M  V30 1892 H 182.257 7.40543 2.20943 0
M  V30 1893 H 180.602 6.65791 1.99366 0
M  V30 1894 H 183.793 4.39246 1.61805 0
M  V30 1895 H 183.966 6.16328 2.00111 0
M  V30 1896 N 177.372 -0.689602 1.41712 0
M  V30 1897 C 178.6 -1.47827 1.44758 0
M  V30 1898 C 179.015 -1.88721 0.0545703 0
M  V30 1899 O 178.372 -1.57176 -0.927463 0
M  V30 1900 C 178.423 -2.73698 2.3616 0
M  V30 1901 O 178.144 -2.34524 3.7004 0
M  V30 1902 C 179.645 -3.67389 2.48072 0
M  V30 1903 H 176.865 -0.455357 0.49284 0
M  V30 1904 H 179.409 -0.848574 1.86063 0
M  V30 1905 H 177.564 -3.32891 1.98148 0
M  V30 1906 H 177.978 -3.15701 4.18847 0
M  V30 1907 H 179.452 -4.52475 3.16181 0
M  V30 1908 H 179.929 -4.12284 1.51388 0
M  V30 1909 H 180.535 -3.14097 2.86746 0
M  V30 1910 N 178.85 -1.27639 -0.924453 0
M  V30 1911 C 179.76 -1.12466 -2.05885 0
M  V30 1912 C 180.776 -0.053869 -1.73917 0
M  V30 1913 O 181.952 -0.261012 -1.99702 0
M  V30 1914 C 179.017 -0.776768 -3.37886 0
M  V30 1915 C 178.078 -1.92878 -3.83532 0
M  V30 1916 C 177.311 -1.59739 -5.09234 0
M  V30 1917 O 177.534 -0.506782 -5.68144 0
M  V30 1918 O 176.468 -2.43761 -5.50331 0
M  V30 1919 H 180.294 -2.07671 -2.21599 0
M  V30 1920 H 177.879 -1.06857 -1.04413 0
M  V30 1921 H 179.761 -0.596229 -4.17161 0
M  V30 1922 H 178.436 0.145732 -3.23372 0
M  V30 1923 H 177.343 -2.1644 -3.0513 0
M  V30 1924 H 178.676 -2.8316 -4.02593 0
M  V30 1925 N 180.328 1.1314 -1.09713 0
M  V30 1926 C 181.553 1.88862 -0.857081 0
M  V30 1927 C 181.978 1.78729 0.586304 0
M  V30 1928 O 181.336 1.13692 1.41222 0
M  V30 1929 C 181.384 3.36325 -1.30069 0
M  V30 1930 O 180.488 4.09815 -0.461007 0
M  V30 1931 H 179.829 0.587108 -0.310162 0
M  V30 1932 H 182.359 1.43129 -1.46203 0
M  V30 1933 H 182.369 3.87157 -1.28738 0
M  V30 1934 H 181.044 3.43017 -2.35185 0
M  V30 1935 H 179.621 3.68986 -0.538888 0
M  V30 1936 N 181.806 0.884767 1.30421 0
M  V30 1937 C 182.769 0.356277 2.26414 0
M  V30 1938 C 183.769 -0.501124 1.52792 0
M  V30 1939 O 184.959 -0.30831 1.7145 0
M  V30 1940 C 182.091 -0.492316 3.37326 0
M  V30 1941 H 183.284 1.20389 2.74675 0
M  V30 1942 H 180.837 0.661607 1.41607 0
M  V30 1943 H 181.572 -1.36052 2.94381 0
M  V30 1944 H 181.357 0.121832 3.91911 0
M  V30 1945 H 182.847 -0.853871 4.08777 0
M  V30 1946 N 183.284 -1.43765 0.645699 0
M  V30 1947 C 184.514 -2.05953 0.163318 0
M  V30 1948 C 184.922 -1.48432 -1.17322 0
M  V30 1949 O 184.265 -0.607295 -1.73371 0
M  V30 1950 C 184.327 -3.59499 -0.0103065 0
M  V30 1951 C 183.991 -4.39563 1.25035 0
M  V30 1952 C 184.988 -4.72108 2.17739 0
M  V30 1953 C 182.673 -4.79697 1.48983 0
M  V30 1954 C 184.667 -5.43688 3.3269 0
M  V30 1955 C 182.354 -5.51023 2.64229 0
M  V30 1956 C 183.352 -5.8294 3.55908 0
M  V30 1957 O 183.04 -6.5281 4.69142 0
M  V30 1958 H 182.772 -0.670798 0.0836986 0
M  V30 1959 H 185.326 -1.85384 0.884407 0
M  V30 1960 H 183.556 -3.78613 -0.78669 0
M  V30 1961 H 185.245 -4.03408 -0.449087 0
M  V30 1962 H 186.011 -4.41627 2.00476 0
M  V30 1963 H 181.89 -4.54266 0.785078 0
M  V30 1964 H 185.434 -5.68517 4.04269 0
M  V30 1965 H 181.331 -5.8092 2.81429 0
M  V30 1966 H 182.099 -6.71288 4.6831 0
M  V30 1967 N 184.763 -0.387143 -1.52771 0
M  V30 1968 C 186.174 0.0873634 -1.86495 0
M  V30 1969 C 186.525 1.46336 -1.30691 0
M  V30 1970 O 185.65 2.068 -0.637409 0
M  V30 1971 C 186.245 0.165305 -3.38396 0
M  V30 1972 C 184.804 0.584101 -3.7184 0
M  V30 1973 C 183.951 -0.255279 -2.76122 0
M  V30 1974 H 186.902 -0.605104 -1.46711 0
M  V30 1975 H 186.923 0.984848 -3.67534 0
M  V30 1976 H 186.435 -0.836301 -3.78982 0
M  V30 1977 H 184.536 1.59315 -3.36823 0
M  V30 1978 H 184.649 0.343749 -4.77865 0
M  V30 1979 H 183.013 0.279126 -2.53166 0
M  V30 1980 H 183.796 -1.25482 -3.19545 0
M  V30 1981 N 186.241 1.57166 -0.116904 0
M  V30 1982 C 187.173 2.12271 0.864507 0
M  V30 1983 C 188.186 1.06494 1.23138 0
M  V30 1984 O 189.375 1.33873 1.18069 0
M  V30 1985 C 186.475 2.60564 2.16702 0
M  V30 1986 C 185.648 3.90416 1.97216 0
M  V30 1987 C 184.707 4.24329 3.11178 0
M  V30 1988 O 183.733 4.93182 2.84184 0
M  V30 1989 N 184.935 3.8148 4.37554 0
M  V30 1990 H 187.7 2.97102 0.393726 0
M  V30 1991 H 185.261 1.61759 0.0675805 0
M  V30 1992 H 187.253 2.80282 2.91932 0
M  V30 1993 H 185.823 1.80623 2.55135 0
M  V30 1994 H 185.043 3.79627 1.06192 0
M  V30 1995 H 186.331 4.75327 1.81499 0
M  V30 1996 H 185.729 3.25943 4.62361 0
M  V30 1997 H 184.286 4.06311 5.09661 0
M  V30 1998 N 187.719 -0.156864 1.56817 0
M  V30 1999 C 189.135 -0.50916 1.5126 0
M  V30 2000 C 189.335 -1.83897 0.823658 0
M  V30 2001 O 188.391 -2.49469 0.390055 0
M  V30 2002 C 189.704 -0.52857 2.96018 0
M  V30 2003 C 191.252 -0.614771 3.06903 0
M  V30 2004 C 191.727 -0.664938 4.53147 0
M  V30 2005 N 193.218 -0.727433 4.57452 0
M  V30 2006 C 193.953 -0.787067 5.67973 0
M  V30 2007 N 193.449 -0.806649 6.88088 0
M  V30 2008 N 195.242 -0.827195 5.5598 0
M  V30 2009 H 187.393 0.714935 2.00006 0
M  V30 2010 H 189.656 0.259526 0.911784 0
M  V30 2011 H 189.362 0.380154 3.49639 0
M  V30 2012 H 189.236 -1.36998 3.51442 0
M  V30 2013 H 191.623 -1.51392 2.53307 0
M  V30 2014 H 191.704 0.253597 2.5454 0
M  V30 2015 H 191.348 0.230011 5.07379 0
M  V30 2016 H 191.278 -1.54966 5.03282 0
M  V30 2017 H 193.769 -0.719998 3.70978 0
M  V30 2018 H 194.082 -0.853727 7.6807 0
M  V30 2019 H 192.427 -0.774687 6.90669 0
M  V30 2020 H 195.618 -0.808998 4.61056 0
M  V30 2021 H 195.791 -0.870206 6.4213 0
M  V30 2022 N 189.197 -1.51736 -0.425897 0
M  V30 2023 C 190.127 -1.76827 -1.52494 0
M  V30 2024 C 191.108 -0.618524 -1.58456 0
M  V30 2025 O 192.293 -0.862416 -1.74 0
M  V30 2026 C 189.423 -1.90374 -2.90474 0
M  V30 2027 C 188.377 -3.0588 -2.99369 0
M  V30 2028 C 187.703 -3.04625 -4.3944 0
M  V30 2029 C 189.003 -4.45644 -2.72394 0
M  V30 2030 H 190.697 -2.68855 -1.31748 0
M  V30 2031 H 188.243 -1.29372 -0.632362 0
M  V30 2032 H 190.196 -2.0651 -3.6733 0
M  V30 2033 H 188.92 -0.95004 -3.12477 0
M  V30 2034 H 187.579 -2.89467 -2.24954 0
M  V30 2035 H 187.227 -2.0701 -4.58428 0
M  V30 2036 H 186.927 -3.82195 -4.46319 0
M  V30 2037 H 188.451 -3.22869 -5.18255 0
M  V30 2038 H 189.865 -4.62348 -3.38979 0
M  V30 2039 H 188.262 -5.25006 -2.9067 0
M  V30 2040 H 189.332 -4.54893 -1.67929 0
M  V30 2041 N 190.675 0.682077 -1.42076 0
M  V30 2042 C 191.585 1.82535 -1.47371 0
M  V30 2043 C 192.601 1.7017 -0.363079 0
M  V30 2044 O 193.777 1.91848 -0.612875 0
M  V30 2045 C 190.842 3.18624 -1.36674 0
M  V30 2046 C 189.903 3.42999 -2.58167 0
M  V30 2047 C 189.136 4.72595 -2.4797 0
M  V30 2048 O 189.359 5.50006 -1.5116 0
M  V30 2049 O 188.293 4.98054 -3.37974 0
M  V30 2050 H 192.119 1.81023 -2.43853 0
M  V30 2051 H 189.704 0.836887 -1.2376 0
M  V30 2052 H 191.586 3.99847 -1.33043 0
M  V30 2053 H 190.261 3.20789 -0.433138 0
M  V30 2054 H 189.168 2.61653 -2.67373 0
M  V30 2055 H 190.501 3.45659 -3.50401 0
M  V30 2056 N 192.153 1.28127 0.917671 0
M  V30 2057 C 193.402 1.14432 1.66097 0
M  V30 2058 C 193.715 -0.307247 1.93172 0
M  V30 2059 O 194.921 -0.565259 2.65551 0
M  V30 2060 C 193.377 2.00015 2.99202 0
M  V30 2061 C 192.985 3.49889 2.79789 0
M  V30 2062 C 194.729 1.94996 3.77064 0
M  V30 2063 C 192.636 4.27636 4.08511 0
M  V30 2064 H 191.566 0.424662 0.62304 0
M  V30 2065 H 194.217 1.52628 1.01868 0
M  V30 2066 H 192.599 1.54672 3.64544 0
M  V30 2067 H 193.773 4.03162 2.23152 0
M  V30 2068 H 192.088 3.56392 2.15345 0
M  V30 2069 H 194.685 2.50354 4.72469 0
M  V30 2070 H 195.028 0.925819 4.05875 0
M  V30 2071 H 195.561 2.38287 3.18534 0
M  V30 2072 H 192.3 5.30615 3.84874 0
M  V30 2073 H 191.82 3.79137 4.64774 0
M  V30 2074 H 193.499 4.37346 4.76799 0
M  V30 2075 N 193.631 -1.12557 1.10312 0
M  V30 2076 C 194.578 -2.18247 0.750781 0
M  V30 2077 C 195.548 -1.63853 -0.272293 0
M  V30 2078 O 196.733 -1.90195 -0.151862 0
M  V30 2079 C 193.873 -3.44591 0.187379 0
M  V30 2080 C 192.986 -4.13046 1.2656 0
M  V30 2081 C 192.121 -5.27034 0.663978 0
M  V30 2082 C 191.16 -5.87353 1.72287 0
M  V30 2083 N 190.297 -6.92757 1.1416 0
M  V30 2084 H 195.137 -2.47732 1.65628 0
M  V30 2085 H 192.674 -1.21629 0.827337 0
M  V30 2086 H 194.632 -4.16904 -0.157148 0
M  V30 2087 H 193.262 -3.15527 -0.681355 0
M  V30 2088 H 192.314 -3.38924 1.72727 0
M  V30 2089 H 193.626 -4.53947 2.06721 0
M  V30 2090 H 192.78 -6.06104 0.268824 0
M  V30 2091 H 191.519 -4.87407 -0.169082 0
M  V30 2092 H 190.524 -5.06971 2.12746 0
M  V30 2093 H 191.749 -6.29051 2.55875 0
M  V30 2094 H 189.695 -6.5517 0.329984 0
M  V30 2095 H 189.612 -7.3225 1.88007 0
M  V30 2096 H 190.88 -7.75658 0.772956 0
M  V30 2097 N 195.109 -0.891671 -1.2995 0
M  V30 2098 C 196.52 -0.563104 -1.78006 0
M  V30 2099 C 196.871 0.920978 -1.73241 0
M  V30 2100 O 195.996 1.71987 -1.31337 0
M  V30 2101 C 196.591 -1.01539 -3.23226 0
M  V30 2102 C 195.15 -0.738124 -3.69092 0
M  V30 2103 C 194.297 -1.19461 -2.50249 0
M  V30 2104 H 197.248 -1.07522 -1.16725 0
M  V30 2105 H 197.269 -0.347217 -3.78912 0
M  V30 2106 H 196.781 -2.09555 -3.26662 0
M  V30 2107 H 194.882 0.329766 -3.71138 0
M  V30 2108 H 194.995 -1.33037 -4.60259 0
M  V30 2109 H 193.359 -0.613787 -2.47194 0
M  V30 2110 H 194.142 -2.28265 -2.56417 0
M  V30 2111 N 196.587 1.43421 -0.653314 0
M  V30 2112 C 197.833 2.02641 -0.175593 0
M  V30 2113 C 198.188 1.5062 1.19713 0
M  V30 2114 O 197.481 0.689697 1.78756 0
M  V30 2115 C 197.675 3.57176 -0.126623 0
M  V30 2116 C 197.504 4.24191 -1.49306 0
M  V30 2117 C 196.274 4.60257 -2.08547 0
M  V30 2118 C 198.472 4.53193 -2.43148 0
M  V30 2119 N 196.454 5.12345 -3.38194 0
M  V30 2120 C 197.825 5.06601 -3.57429 0
M  V30 2121 C 199.88 4.35161 -2.41949 0
M  V30 2122 C 198.583 5.43875 -4.70736 0
M  V30 2123 C 200.609 4.73498 -3.54336 0
M  V30 2124 C 199.971 5.27039 -4.67343 0
M  V30 2125 H 196.07 0.77441 -0.108686 0
M  V30 2126 H 198.654 1.74596 -0.861638 0
M  V30 2127 H 196.825 3.84784 0.528766 0
M  V30 2128 H 198.557 4.03078 0.36198 0
M  V30 2129 H 195.312 4.45302 -1.61255 0
M  V30 2130 H 195.736 5.42842 -4.04538 0
M  V30 2131 H 200.378 3.9304 -1.55818 0
M  V30 2132 H 198.096 5.8494 -5.57558 0
M  V30 2133 H 201.682 4.61241 -3.5461 0
M  V30 2134 H 200.562 5.56153 -5.52868 0
M  V30 2135 N 198.065 0.39524 1.52563 0
M  V30 2136 C 199.012 -0.437036 2.26624 0
M  V30 2137 C 199.982 -1.05281 1.28472 0
M  V30 2138 O 201.167 -1.07971 1.57311 0
M  V30 2139 C 198.307 -1.55524 3.08069 0
M  V30 2140 C 197.42 -0.961745 4.21158 0
M  V30 2141 C 196.555 -2.05149 4.89987 0
M  V30 2142 C 195.594 -1.4342 5.95061 0
M  V30 2143 N 194.731 -2.46351 6.57462 0
M  V30 2144 H 199.571 0.200976 2.97322 0
M  V30 2145 H 197.108 0.110944 1.46681 0
M  V30 2146 H 199.066 -2.21437 3.53584 0
M  V30 2147 H 197.696 -2.16348 2.3957 0
M  V30 2148 H 196.748 -0.192048 3.79915 0
M  V30 2149 H 198.06 -0.470701 4.96574 0
M  V30 2150 H 197.214 -2.78819 5.38837 0
M  V30 2151 H 195.953 -2.57615 4.14109 0
M  V30 2152 H 194.958 -0.682774 5.45544 0
M  V30 2153 H 196.183 -0.917416 6.72875 0
M  V30 2154 H 194.129 -2.97975 5.8442 0
M  V30 2155 H 194.046 -2.02019 7.28508 0
M  V30 2156 H 195.314 -3.19633 7.10954 0
M  V30 2157 N 199.544 -1.57102 0.125237 0
M  V30 2158 C 200.507 -2.14471 -0.80838 0
M  V30 2159 C 201.507 -1.0811 -1.19033 0
M  V30 2160 O 202.697 -1.33856 -1.11482 0
M  V30 2161 C 199.829 -2.69005 -2.09402 0
M  V30 2162 H 201.022 -2.98297 -0.309696 0
M  V30 2163 H 198.575 -1.55807 -0.124051 0
M  V30 2164 H 199.31 -1.88785 -2.63687 0
M  V30 2165 H 199.095 -3.46799 -1.82957 0
M  V30 2166 H 200.585 -3.13278 -2.76128 0
M  V30 2167 N 201.022 0.148545 -1.56898 0
M  V30 2168 C 202.252 0.875118 -1.8715 0
M  V30 2169 C 202.66 1.75322 -0.711262 0
M  V30 2170 O 202.003 1.80745 0.328151 0
M  V30 2171 C 202.065 1.7844 -3.12089 0
M  V30 2172 C 201.729 1.08361 -4.43967 0
M  V30 2173 C 202.726 0.438247 -5.1805 0
M  V30 2174 C 200.411 1.07358 -4.90693 0
M  V30 2175 C 202.405 -0.20779 -6.37061 0
M  V30 2176 C 200.092 0.42373 -6.09629 0
M  V30 2177 C 201.09 -0.215829 -6.82659 0
M  V30 2178 O 200.778 -0.855378 -7.99336 0
M  V30 2179 H 200.51 0.258504 -0.624621 0
M  V30 2180 H 203.064 0.14652 -2.04877 0
M  V30 2181 H 201.294 2.55389 -2.90367 0
M  V30 2182 H 202.983 2.38279 -3.286 0
M  V30 2183 H 203.749 0.437817 -4.8302 0
M  V30 2184 H 199.628 1.5608 -4.33774 0
M  V30 2185 H 203.172 -0.70758 -6.94002 0
M  V30 2186 H 199.069 0.421822 -6.4412 0
M  V30 2187 H 199.837 -0.756892 -8.14993 0
M  V30 2188 N 202.5 1.5196 0.417844 0
M  V30 2189 C 203.916 1.40569 0.755816 0
M  V30 2190 C 204.116 0.503316 1.95113 0
M  V30 2191 O 203.172 -0.0341925 2.52477 0
M  V30 2192 C 204.485 2.82947 1.01791 0
M  V30 2193 C 206.033 2.92231 1.12116 0
M  V30 2194 C 206.508 4.35559 1.41608 0
M  V30 2195 N 207.999 4.38753 1.48491 0
M  V30 2196 C 208.734 5.46705 1.7292 0
M  V30 2197 N 208.23 6.64788 1.95011 0
M  V30 2198 N 210.023 5.34209 1.74863 0
M  V30 2199 H 202.174 2.09168 -0.369098 0
M  V30 2200 H 204.437 0.942409 -0.102809 0
M  V30 2201 H 204.143 3.5106 0.212081 0
M  V30 2202 H 204.017 3.23462 1.94042 0
M  V30 2203 H 206.404 2.24304 1.9176 0
M  V30 2204 H 206.485 2.55185 0.177225 0
M  V30 2205 H 206.129 5.04042 0.624848 0
M  V30 2206 H 206.059 4.70133 2.37239 0
M  V30 2207 H 208.55 3.5363 1.33244 0
M  V30 2208 H 208.863 7.42845 2.13076 0
M  V30 2209 H 207.208 6.67869 1.92293 0
M  V30 2210 H 210.399 4.40937 1.57137 0
M  V30 2211 H 210.572 6.18415 1.93563 0
M  V30 2212 N 203.978 -0.674533 1.42435 0
M  V30 2213 C 205.255 -1.4305 1.33402 0
M  V30 2214 C 205.635 -2.11081 -0.0284674 0
M  V30 2215 O 204.983 -2.03257 -1.04397 0
M  V30 2216 C 205.193 -2.43272 2.50239 0
M  V30 2217 C 206.541 -3.07907 2.92367 0
M  V30 2218 O 207.565 -2.53599 2.50132 0
M  V30 2219 O 206.424 -4.0632 3.65467 0
M  V30 2220 H 203.518 -0.638076 0.526106 0
M  V30 2221 H 206.064 -0.703235 1.54443 0
M  V30 2222 H 204.836 -1.91803 3.41068 0
M  V30 2223 H 204.459 -3.23479 2.31186 0
M  V30 2224 N 205.456 -1.28612 -0.910864 0
M  V30 2225 C 206.686 -1.1862 -1.69153 0
M  V30 2226 C 207.094 0.257324 -1.87442 0
M  V30 2227 O 206.437 1.18543 -1.40332 0
M  V30 2228 C 206.499 -1.81606 -3.10257 0
M  V30 2229 C 206.163 -3.30864 -3.15243 0
M  V30 2230 C 207.16 -4.27256 -2.96223 0
M  V30 2231 C 204.845 -3.71871 -3.37664 0
M  V30 2232 C 206.839 -5.62631 -2.99541 0
M  V30 2233 C 204.526 -5.07371 -3.40614 0
M  V30 2234 C 205.524 -6.02561 -3.21573 0
M  V30 2235 O 205.212 -7.35589 -3.2429 0
M  V30 2236 H 204.944 -0.412633 -0.535453 0
M  V30 2237 H 207.498 -1.70306 -1.14827 0
M  V30 2238 H 205.728 -1.24418 -3.66138 0
M  V30 2239 H 207.417 -1.66092 -3.70362 0
M  V30 2240 H 208.183 -3.9691 -2.78725 0
M  V30 2241 H 204.062 -2.98241 -3.5153 0
M  V30 2242 H 207.606 -6.36907 -2.84597 0
M  V30 2243 H 203.503 -5.37366 -3.57642 0
M  V30 2244 H 204.271 -7.44252 -3.40633 0
M  V30 2245 N 206.934 1.1197 -1.10907 0
M  V30 2246 C 208.35 1.35591 -0.841852 0
M  V30 2247 C 208.55 1.94233 0.536246 0
M  V30 2248 O 207.606 2.1717 1.28816 0
M  V30 2249 C 208.919 2.29284 -1.94549 0
M  V30 2250 C 210.467 2.42862 -1.97451 0
M  V30 2251 C 210.942 3.39873 -3.07002 0
M  V30 2252 N 212.433 3.47433 -3.06341 0
M  V30 2253 C 213.168 4.22421 -3.87748 0
M  V30 2254 N 212.664 5.00432 -4.79103 0
M  V30 2255 N 214.457 4.17876 -3.75946 0
M  V30 2256 H 206.608 0.722664 -1.99728 0
M  V30 2257 H 208.871 0.380635 -0.868229 0
M  V30 2258 H 208.577 1.93378 -2.93765 0
M  V30 2259 H 208.451 3.29452 -1.83688 0
M  V30 2260 H 210.838 2.78046 -0.988645 0
M  V30 2261 H 210.919 1.42566 -2.12388 0
M  V30 2262 H 210.563 3.05417 -4.05811 0
M  V30 2263 H 210.493 4.40011 -2.89306 0
M  V30 2264 H 212.984 2.91784 -2.40147 0
M  V30 2265 H 213.297 5.55002 -5.37766 0
M  V30 2266 H 211.642 4.99612 -4.83128 0
M  V30 2267 H 214.833 3.56016 -3.03924 0
M  V30 2268 H 215.006 4.76061 -4.39624 0
M  V30 2269 N 208.412 0.89855 1.29475 0
M  V30 2270 C 209.359 0.373819 2.27753 0
M  V30 2271 C 210.329 -0.543444 1.56958 0
M  V30 2272 O 211.514 -0.468934 1.84948 0
M  V30 2273 C 208.654 -0.393648 3.42848 0
M  V30 2274 C 207.767 0.554379 4.28428 0
M  V30 2275 C 206.902 -0.230026 5.30702 0
M  V30 2276 C 205.941 0.712599 6.07938 0
M  V30 2277 N 205.078 -0.0373283 7.0209 0
M  V30 2278 H 209.918 1.21699 2.72017 0
M  V30 2279 H 207.455 0.611456 1.33789 0
M  V30 2280 H 209.413 -0.85466 4.08352 0
M  V30 2281 H 208.043 -1.20128 2.99615 0
M  V30 2282 H 207.095 1.13391 3.63107 0
M  V30 2283 H 208.407 1.27597 4.82204 0
M  V30 2284 H 207.561 -0.752288 6.02018 0
M  V30 2285 H 206.3 -0.984758 4.77654 0
M  V30 2286 H 205.305 1.24637 5.35486 0
M  V30 2287 H 206.53 1.46664 6.63074 0
M  V30 2288 H 204.476 -0.774348 6.51414 0
M  V30 2289 H 204.393 0.624374 7.53417 0
M  V30 2290 H 205.661 -0.539891 7.77628 0
M  V30 2291 N 209.89 -1.43072 0.660911 0
M  V30 2292 C 210.8 -2.34585 -0.0264163 0
M  V30 2293 C 211.816 -1.54316 -0.803898 0
M  V30 2294 O 212.992 -1.86939 -0.749391 0
M  V30 2295 C 210.057 -3.32689 -0.975639 0
M  V30 2296 C 209.118 -4.2886 -0.194236 0
M  V30 2297 C 208.351 -5.22278 -1.09825 0
M  V30 2298 O 208.574 -5.20299 -2.33763 0
M  V30 2299 O 207.508 -5.99228 -0.566513 0
M  V30 2300 H 211.334 -2.94869 0.727034 0
M  V30 2301 H 208.919 -1.43342 0.42111 0
M  V30 2302 H 210.801 -3.92995 -1.52094 0
M  V30 2303 H 209.476 -2.74898 -1.70918 0
M  V30 2304 H 208.383 -3.72011 0.394835 0
M  V30 2305 H 209.716 -4.89655 0.499899 0
M  V30 2306 N 211.368 -0.403325 -1.52352 0
M  V30 2307 C 212.616 0.174003 -2.0135 0
M  V30 2308 C 212.937 1.46139 -1.29106 0
M  V30 2309 O 212.207 1.91448 -0.415253 0
M  V30 2310 H 210.787 0.0672911 -0.743963 0
M  V30 2311 H 213.449 -0.538235 -1.87321 0
M  V30 2312 H 212.545 0.374254 -3.09848 0
M  V30 2313 N 212.846 1.57033 -0.133567 0
M  V30 2314 C 214.076 1.99754 0.527429 0
M  V30 2315 C 214.484 1.01245 1.59832 0
M  V30 2316 O 213.827 -0.000645496 1.837 0
M  V30 2317 C 213.889 3.38903 1.19939 0
M  V30 2318 C 213.553 4.56174 0.274709 0
M  V30 2319 C 214.55 5.17563 -0.492398 0
M  V30 2320 C 212.235 5.01972 0.18153 0
M  V30 2321 C 214.229 6.2315 -1.34027 0
M  V30 2322 C 211.916 6.07416 -0.669958 0
M  V30 2323 C 212.914 6.67874 -1.42947 0
M  V30 2324 O 212.602 7.71279 -2.2668 0
M  V30 2325 H 212.334 0.660702 0.142999 0
M  V30 2326 H 214.888 2.04207 -0.221099 0
M  V30 2327 H 213.118 3.31248 1.99528 0
M  V30 2328 H 214.807 3.65818 1.75875 0
M  V30 2329 H 215.573 4.83087 -0.430367 0
M  V30 2330 H 211.452 4.54652 0.762422 0
M  V30 2331 H 214.996 6.70268 -1.93357 0
M  V30 2332 H 210.893 6.41321 -0.73333 0
M  V30 2333 H 211.661 7.88441 -2.1978 0
M  V30 2334 N 214.325 -0.140222 1.56975 0
M  V30 2335 C 215.573 -0.850005 1.83356 0
M  V30 2336 C 215.894 -1.81399 0.71551 0
M  V30 2337 O 215.164 -1.94136 -0.262294 0
M  V30 2338 H 213.744 -0.316886 0.676456 0
M  V30 2339 H 216.406 -0.132608 1.94448 0
M  V30 2340 H 215.502 -1.40814 2.78528 0
M  V30 2341 N 215.803 -1.52179 -0.40978 0
M  V30 2342 C 216.733 -1.78435 -1.5061 0
M  V30 2343 C 217.714 -0.635295 -1.57791 0
M  V30 2344 O 218.899 -0.880823 -1.73076 0
M  V30 2345 C 216.029 -1.93444 -2.88439 0
M  V30 2346 C 214.983 -3.09038 -2.96108 0
M  V30 2347 C 214.309 -3.09268 -4.36185 0
M  V30 2348 C 215.609 -4.48508 -2.67652 0
M  V30 2349 H 217.303 -2.70237 -1.28889 0
M  V30 2350 H 214.849 -1.30036 -0.618605 0
M  V30 2351 H 216.802 -2.10394 -3.65119 0
M  V30 2352 H 215.526 -0.983129 -3.11452 0
M  V30 2353 H 214.185 -2.91837 -2.21872 0
M  V30 2354 H 213.833 -2.11861 -4.56206 0
M  V30 2355 H 213.533 -3.86907 -4.42241 0
M  V30 2356 H 215.057 -3.28348 -5.14801 0
M  V30 2357 H 216.471 -4.65918 -3.34056 0
M  V30 2358 H 214.868 -5.28059 -2.85085 0
M  V30 2359 H 215.938 -4.56649 -1.63095 0
M  V30 2360 N 217.281 0.66697 -1.42791 0
M  V30 2361 C 218.211 1.79218 -1.49677 0
M  V30 2362 C 219.192 1.66405 -0.352623 0
M  V30 2363 O 220.377 1.85708 -0.567993 0
M  V30 2364 C 217.507 3.17565 -1.40605 0
M  V30 2365 C 216.461 3.45124 -2.53127 0
M  V30 2366 C 215.787 4.83127 -2.29112 0
M  V30 2367 C 217.087 3.41236 -3.95418 0
M  V30 2368 H 218.781 1.73713 -2.43853 0
M  V30 2369 H 216.327 0.83432 -1.17367 0
M  V30 2370 H 218.28 3.96022 -1.44029 0
M  V30 2371 H 217.004 3.23767 -0.429271 0
M  V30 2372 H 215.663 2.69031 -2.49034 0
M  V30 2373 H 215.311 4.85988 -1.29709 0
M  V30 2374 H 215.011 5.02528 -3.04531 0
M  V30 2375 H 216.535 5.63859 -2.34297 0
M  V30 2376 H 217.949 4.09651 -4.01073 0
M  V30 2377 H 216.346 3.72173 -4.70752 0
M  V30 2378 H 217.416 2.39665 -4.21532 0
M  V30 2379 N 218.759 1.29093 0.90403 0
M  V30 2380 C 220.008 1.16187 1.64874 0
M  V30 2381 C 220.321 -0.286742 1.93487 0
M  V30 2382 O 221.527 -0.537062 2.66135 0
M  V30 2383 C 219.983 2.03177 2.97064 0
M  V30 2384 C 219.591 3.52836 2.76062 0
M  V30 2385 C 221.335 1.98984 3.74974 0
M  V30 2386 C 219.242 4.31945 4.03952 0
M  V30 2387 H 218.172 0.431246 0.618501 0
M  V30 2388 H 220.823 1.53699 1.00243 0
M  V30 2389 H 219.205 1.5853 3.62883 0
M  V30 2390 H 220.379 4.05507 2.18863 0
M  V30 2391 H 218.694 3.58656 2.11553 0
M  V30 2392 H 221.291 2.55351 4.69787 0
M  V30 2393 H 221.634 0.968815 4.0487 0
M  V30 2394 H 222.167 2.41652 3.15989 0
M  V30 2395 H 218.906 5.34667 3.79225 0
M  V30 2396 H 218.426 3.84045 4.60727 0
M  V30 2397 H 220.105 4.42379 4.72133 0
M  V30 2398 N 220.237 -1.11381 1.11499 0
M  V30 2399 C 221.167 -2.19509 0.796125 0
M  V30 2400 C 222.148 -1.68458 -0.235796 0
M  V30 2401 O 223.333 -1.93947 -0.0991344 0
M  V30 2402 C 220.463 -3.46475 0.239205 0
M  V30 2403 C 219.417 -4.10744 1.20307 0
M  V30 2404 C 218.743 -5.32293 0.50683 0
M  V30 2405 C 220.043 -4.55597 2.55399 0
M  V30 2406 H 221.737 -2.46439 1.70024 0
M  V30 2407 H 219.283 -1.18446 0.818935 0
M  V30 2408 H 221.236 -4.214 0.00392006 0
M  V30 2409 H 219.96 -3.19006 -0.700206 0
M  V30 2410 H 218.619 -3.37813 1.42399 0
M  V30 2411 H 218.267 -5.01095 -0.437408 0
M  V30 2412 H 217.967 -5.76243 1.1497 0
M  V30 2413 H 219.491 -6.09956 0.280351 0
M  V30 2414 H 220.905 -5.21841 2.37391 0
M  V30 2415 H 219.302 -5.10363 3.15673 0
M  V30 2416 H 220.372 -3.69013 3.14575 0
M  V30 2417 N 221.715 -0.905404 -1.28997 0
M  V30 2418 C 222.625 -0.392246 -2.31298 0
M  V30 2419 C 223.641 0.515889 -1.66176 0
M  V30 2420 O 224.817 0.404093 -1.97304 0
M  V30 2421 C 221.882 0.36686 -3.44754 0
M  V30 2422 C 220.943 -0.573485 -4.25452 0
M  V30 2423 C 220.176 0.149488 -5.33491 0
M  V30 2424 O 220.399 1.37255 -5.5364 0
M  V30 2425 O 219.333 -0.510919 -5.99728 0
M  V30 2426 H 223.159 -1.2411 -2.77183 0
M  V30 2427 H 220.744 -0.669926 -1.33538 0
M  V30 2428 H 222.626 0.795907 -4.13816 0
M  V30 2429 H 221.301 1.19169 -3.00966 0
M  V30 2430 H 220.208 -1.05176 -3.59011 0
M  V30 2431 H 221.541 -1.36489 -4.72897 0
M  V30 2432 N 223.193 1.4272 -0.668489 0
M  V30 2433 C 224.441 2.01226 -0.187769 0
M  V30 2434 C 224.762 1.53092 1.2078 0
M  V30 2435 O 224.032 0.74993 1.80977 0
M  V30 2436 H 222.612 0.744041 -0.0664272 0
M  V30 2437 H 225.274 1.74723 -0.863583 0
M  V30 2438 H 224.37 3.11556 -0.184166 0
M  V30 2439 N 224.671 0.411399 1.52136 0
M  V30 2440 C 225.581 -0.419774 2.30814 0
M  V30 2441 C 226.597 -1.0515 1.38634 0
M  V30 2442 O 227.773 -1.05252 1.71709 0
M  V30 2443 C 224.838 -1.52019 3.11594 0
M  V30 2444 C 223.899 -0.91129 4.19516 0
M  V30 2445 C 223.132 -1.95927 4.96436 0
M  V30 2446 O 223.355 -3.17775 4.73683 0
M  V30 2447 O 222.289 -1.56423 5.81219 0
M  V30 2448 H 226.115 0.221805 3.02889 0
M  V30 2449 H 223.7 0.174547 1.48377 0
M  V30 2450 H 225.582 -2.15898 3.61892 0
M  V30 2451 H 224.257 -2.14633 2.42311 0
M  V30 2452 H 223.164 -0.235157 3.7336 0
M  V30 2453 H 224.497 -0.32904 4.91099 0
M  V30 2454 N 226.149 -1.5696 0.141893 0
M  V30 2455 C 227.426 -1.87553 -0.555281 0
M  V30 2456 C 227.806 -1.04699 -1.83306 0
M  V30 2457 O 227.154 -0.132346 -2.28116 0
M  V30 2458 C 227.364 -3.39093 -0.825664 0
M  V30 2459 C 228.712 -4.08199 -1.16869 0
M  V30 2460 O 229.736 -3.44242 -0.915185 0
M  V30 2461 O 228.595 -5.21139 -1.6455 0
M  V30 2462 H 225.689 -0.777188 -0.282679 0
M  V30 2463 H 228.235 -1.68763 0.17812 0
M  V30 2464 H 227.007 -3.91221 0.0788633 0
M  V30 2465 H 226.63 -3.63393 -1.61343 0
M  V30 2466 N 227.627 0.131896 -1.57047 0
M  V30 2467 C 228.873 0.838268 -1.85323 0
M  V30 2468 C 229.228 1.78098 -0.727937 0
M  V30 2469 O 228.521 1.89645 0.27304 0
M  V30 2470 C 228.715 1.63703 -3.17704 0
M  V30 2471 C 228.544 0.773167 -4.43004 0
M  V30 2472 C 227.314 0.432956 -5.03442 0
M  V30 2473 C 229.512 0.0966216 -5.14209 0
M  V30 2474 N 227.494 -0.442924 -6.123 0
M  V30 2475 C 228.865 -0.638778 -6.16701 0
M  V30 2476 C 230.92 0.018861 -4.97896 0
M  V30 2477 C 229.623 -1.44462 -7.04644 0
M  V30 2478 C 231.649 -0.773762 -5.86316 0
M  V30 2479 C 231.011 -1.4974 -6.883 0
M  V30 2480 H 227.11 0.284086 -0.728573 0
M  V30 2481 H 229.694 0.102731 -1.94429 0
M  V30 2482 H 227.865 2.3437 -3.09718 0
M  V30 2483 H 229.597 2.28774 -3.33833 0
M  V30 2484 H 226.352 0.772237 -4.67262 0
M  V30 2485 H 226.776 -0.872332 -6.71356 0
M  V30 2486 H 231.418 0.56397 -4.19022 0
M  V30 2487 H 229.136 -2.00093 -7.82936 0
M  V30 2488 H 232.722 -0.83612 -5.75761 0
M  V30 2489 H 231.602 -2.10087 -7.55535 0
M  V30 2490 N 229.106 1.52395 0.401703 0
M  V30 2491 C 230.038 1.72505 1.50912 0
M  V30 2492 C 231.051 0.605468 1.51122 0
M  V30 2493 O 232.24 0.880828 1.55254 0
M  V30 2494 C 229.34 1.75711 2.89791 0
M  V30 2495 C 228.513 3.04824 3.1369 0
M  V30 2496 C 227.572 2.99743 4.32482 0
M  V30 2497 O 226.598 3.73635 4.29402 0
M  V30 2498 N 227.8 2.18047 5.37992 0
M  V30 2499 H 230.565 2.68049 1.34052 0
M  V30 2500 H 228.126 1.50724 0.591084 0
M  V30 2501 H 230.118 1.69834 3.6734 0
M  V30 2502 H 228.688 0.876092 3.00072 0
M  V30 2503 H 227.908 3.2429 2.24119 0
M  V30 2504 H 229.196 3.90221 3.26504 0
M  V30 2505 H 228.594 1.57456 5.43345 0
M  V30 2506 H 227.151 2.18021 6.14256 0
M  V30 2507 N 230.584 -0.659388 1.43143 0
M  V30 2508 C 232 -0.974337 1.26407 0
M  V30 2509 C 232.2 -2.007 0.179341 0
M  V30 2510 O 231.256 -2.4856 -0.444295 0
M  V30 2511 C 232.569 -1.46447 2.62628 0
M  V30 2512 C 234.117 -1.58144 2.7011 0
M  V30 2513 C 234.592 -2.1055 4.06734 0
M  V30 2514 N 236.083 -2.17861 4.08767 0
M  V30 2515 C 236.818 -2.59519 5.1131 0
M  V30 2516 N 236.314 -3.00518 6.24228 0
M  V30 2517 N 238.107 -2.59404 4.98664 0
M  V30 2518 H 230.258 0.0240528 2.12386 0
M  V30 2519 H 232.521 -0.0518065 0.946583 0
M  V30 2520 H 232.227 -0.780123 3.42939 0
M  V30 2521 H 232.101 -2.44058 2.87603 0
M  V30 2522 H 234.488 -2.25682 1.90136 0
M  V30 2523 H 234.569 -0.589828 2.48907 0
M  V30 2524 H 234.213 -1.43616 4.87172 0
M  V30 2525 H 234.143 -3.10531 4.25298 0
M  V30 2526 H 236.634 -1.88975 3.27257 0
M  V30 2527 H 236.947 -3.31036 6.98309 0
M  V30 2528 H 235.292 -2.98337 6.2771 0
M  V30 2529 H 238.483 -2.26747 4.09516 0
M  V30 2530 H 238.656 -2.91548 5.78709 0
M  V30 2531 N 232.062 -1.29571 -0.897171 0
M  V30 2532 C 233.308 -1.17863 -1.65034 0
M  V30 2533 C 233.641 0.268729 -1.92332 0
M  V30 2534 O 232.916 1.19378 -1.53555 0
M  V30 2535 C 233.199 -1.995 -2.99786 0
M  V30 2536 C 233.052 -3.5239 -2.79538 0
M  V30 2537 C 234.371 -1.82335 -4.00552 0
M  V30 2538 H 231.49 -0.429528 -0.598895 0
M  V30 2539 H 234.132 -1.59072 -1.03905 0
M  V30 2540 H 232.282 -1.64485 -3.51962 0
M  V30 2541 H 233.954 -3.97401 -2.34244 0
M  V30 2542 H 232.197 -3.77187 -2.14273 0
M  V30 2543 H 232.868 -4.04787 -3.75302 0
M  V30 2544 H 235.344 -2.12924 -3.57495 0
M  V30 2545 H 234.22 -2.41801 -4.92771 0
M  V30 2546 H 234.481 -0.779209 -4.35179 0
M  V30 2547 N 233.54 1.10788 -1.12088 0
M  V30 2548 C 234.956 1.34691 -0.856186 0
M  V30 2549 C 235.156 1.94791 0.515615 0
M  V30 2550 O 234.212 2.18524 1.26505 0
M  V30 2551 C 235.525 2.27208 -1.9697 0
M  V30 2552 C 237.073 2.40755 -2.00016 0
M  V30 2553 C 237.548 3.36598 -3.1059 0
M  V30 2554 N 239.039 3.44164 -3.10008 0
M  V30 2555 C 239.774 4.18284 -3.92206 0
M  V30 2556 N 239.27 4.95322 -4.84384 0
M  V30 2557 N 241.063 4.13865 -3.80357 0
M  V30 2558 H 233.214 0.70144 -2.00483 0
M  V30 2559 H 235.477 0.371405 -0.872217 0
M  V30 2560 H 235.183 1.90251 -2.958 0
M  V30 2561 H 235.057 3.27485 -1.87172 0
M  V30 2562 H 237.444 2.76982 -1.01808 0
M  V30 2563 H 237.525 1.40305 -2.13888 0
M  V30 2564 H 237.169 3.01096 -4.09028 0
M  V30 2565 H 237.099 4.36918 -2.93956 0
M  V30 2566 H 239.59 2.8922 -2.43228 0
M  V30 2567 H 239.903 5.49267 -5.43623 0
M  V30 2568 H 238.248 4.94459 -4.884 0
M  V30 2569 H 241.439 3.52773 -3.07683 0
M  V30 2570 H 241.612 4.71372 -4.44649 0
M  V30 2571 N 235.018 0.912232 1.28515 0
M  V30 2572 C 236.243 0.559774 1.99703 0
M  V30 2573 C 236.668 -0.851393 1.67729 0
M  V30 2574 O 236.026 -1.56875 0.908834 0
M  V30 2575 C 236.074 0.773874 3.52198 0
M  V30 2576 O 235.178 -0.167842 4.12058 0
M  V30 2577 H 234.519 0.21723 0.627461 0
M  V30 2578 H 237.049 1.22725 1.63706 0
M  V30 2579 H 237.059 0.683386 4.02236 0
M  V30 2580 H 235.734 1.80261 3.74805 0
M  V30 2581 H 234.311 -0.0287509 3.72889 0
M  V30 2582 N 236.496 -1.42363 0.676048 0
M  V30 2583 C 237.459 -2.29199 0.00766941 0
M  V30 2584 C 238.459 -1.43389 -0.727745 0
M  V30 2585 O 239.649 -1.64764 -0.56556 0
M  V30 2586 C 236.781 -3.2591 -0.999785 0
M  V30 2587 H 237.974 -2.89794 0.771988 0
M  V30 2588 H 235.527 -1.50024 0.438468 0
M  V30 2589 H 236.262 -2.70256 -1.79255 0
M  V30 2590 H 236.047 -3.89202 -0.475829 0
M  V30 2591 H 237.537 -3.91028 -1.46583 0
M  V30 2592 N 237.974 -0.419461 -1.51915 0
M  V30 2593 C 239.221 0.152939 -2.01922 0
M  V30 2594 C 239.549 1.4426 -1.30458 0
M  V30 2595 O 238.804 1.91514 -0.402593 0
M  V30 2596 C 239.103 0.437067 -3.54717 0
M  V30 2597 C 238.769 -0.764632 -4.44369 0
M  V30 2598 C 237.431 -1.09423 -4.68594 0
M  V30 2599 C 239.783 -1.56713 -4.97082 0
M  V30 2600 C 237.111 -2.22732 -5.42777 0
M  V30 2601 C 239.463 -2.69107 -5.72507 0
M  V30 2602 C 238.127 -3.02541 -5.95 0
M  V30 2603 H 237.397 0.0559644 -0.738884 0
M  V30 2604 H 240.044 -0.562998 -1.83037 0
M  V30 2605 H 238.349 1.23469 -3.71837 0
M  V30 2606 H 240.046 0.893083 -3.90928 0
M  V30 2607 H 236.636 -0.497775 -4.257 0
M  V30 2608 H 240.82 -1.32571 -4.78266 0
M  V30 2609 H 236.076 -2.48971 -5.58411 0
M  V30 2610 H 240.25 -3.31671 -6.12346 0
M  V30 2611 H 237.877 -3.90457 -6.52264 0
M  V30 2612 N 239.452 1.56882 -0.150215 0
M  V30 2613 C 240.384 2.14057 0.819286 0
M  V30 2614 C 241.397 1.09082 1.20851 0
M  V30 2615 O 242.586 1.36347 1.15203 0
M  V30 2616 C 239.686 2.65102 2.11127 0
M  V30 2617 C 238.859 3.94511 1.88891 0
M  V30 2618 C 237.918 4.30834 3.02107 0
M  V30 2619 O 236.944 4.99099 2.73659 0
M  V30 2620 N 238.146 3.90676 4.29363 0
M  V30 2621 H 240.911 2.97871 0.330618 0
M  V30 2622 H 238.472 1.61866 0.0332538 0
M  V30 2623 H 240.464 2.86411 2.85921 0
M  V30 2624 H 239.034 1.85994 2.51247 0
M  V30 2625 H 238.254 3.81795 0.981152 0
M  V30 2626 H 239.542 4.7907 1.71376 0
M  V30 2627 H 238.94 3.35677 4.55343 0
M  V30 2628 H 237.497 4.1703 5.00928 0
M  V30 2629 N 240.93 -0.123565 1.57115 0
M  V30 2630 C 241.877 -1.15177 2.00007 0
M  V30 2631 C 242.847 -1.41403 0.871454 0
M  V30 2632 O 244.032 -1.53346 1.13533 0
M  V30 2633 C 241.172 -2.47436 2.40561 0
M  V30 2634 C 240.285 -2.28184 3.66819 0
M  V30 2635 C 239.42 -3.53641 3.96373 0
M  V30 2636 C 238.459 -3.29528 5.15827 0
M  V30 2637 N 237.596 -4.47175 5.41275 0
M  V30 2638 H 242.436 -0.779008 2.87638 0
M  V30 2639 H 239.973 -0.373166 1.42288 0
M  V30 2640 H 241.931 -3.24584 2.62109 0
M  V30 2641 H 240.561 -2.82614 1.55978 0
M  V30 2642 H 239.613 -1.41976 3.52912 0
M  V30 2643 H 240.925 -2.0634 4.5412 0
M  V30 2644 H 240.079 -4.39209 4.18545 0
M  V30 2645 H 238.818 -3.78512 3.07538 0
M  V30 2646 H 237.823 -2.42349 4.93505 0
M  V30 2647 H 239.048 -3.06031 6.06236 0
M  V30 2648 H 236.994 -4.72175 4.55397 0
M  V30 2649 H 236.911 -4.28419 6.22891 0
M  V30 2650 H 238.179 -5.3389 5.67963 0
M  V30 2651 N 242.408 -1.52605 -0.393616 0
M  V30 2652 C 243.355 -1.77055 -1.48054 0
M  V30 2653 C 244.325 -0.61358 -1.54352 0
M  V30 2654 O 245.51 -0.852806 -1.70681 0
M  V30 2655 C 242.65 -1.94108 -2.85335 0
M  V30 2656 C 241.763 -3.21792 -2.88226 0
M  V30 2657 C 240.898 -3.29188 -4.16904 0
M  V30 2658 C 239.937 -4.51013 -4.13828 0
M  V30 2659 N 239.074 -4.55716 -5.34105 0
M  V30 2660 H 243.914 -2.69815 -1.26506 0
M  V30 2661 H 241.451 -1.33683 -0.61379 0
M  V30 2662 H 243.409 -2.01979 -3.65049 0
M  V30 2663 H 242.039 -1.04713 -3.05344 0
M  V30 2664 H 241.091 -3.23015 -2.00911 0
M  V30 2665 H 242.403 -4.11557 -2.8182 0
M  V30 2666 H 241.557 -3.36216 -5.05018 0
M  V30 2667 H 240.296 -2.37389 -4.26026 0
M  V30 2668 H 239.301 -4.44115 -3.24102 0
M  V30 2669 H 240.526 -5.44123 -4.06333 0
M  V30 2670 H 238.472 -3.66807 -5.43865 0
M  V30 2671 H 238.389 -5.39346 -5.29756 0
M  V30 2672 H 239.657 -4.66993 -6.2413 0
M  V30 2673 N 243.887 0.651787 -1.4349 0
M  V30 2674 C 244.817 1.77621 -1.51569 0
M  V30 2675 C 245.798 1.66022 -0.370253 0
M  V30 2676 O 246.983 1.85095 -0.587658 0
M  V30 2677 C 244.113 3.16056 -1.43966 0
M  V30 2678 C 243.067 3.4242 -2.56774 0
M  V30 2679 C 242.393 4.8067 -2.34223 0
M  V30 2680 C 243.693 3.37023 -3.99015 0
M  V30 2681 H 245.387 1.71117 -2.45681 0
M  V30 2682 H 242.933 0.821825 -1.18246 0
M  V30 2683 H 244.886 3.94472 -1.48221 0
M  V30 2684 H 243.61 3.23293 -0.463586 0
M  V30 2685 H 242.269 2.66375 -2.51873 0
M  V30 2686 H 241.917 4.84585 -1.34856 0
M  V30 2687 H 241.617 4.9927 -3.09844 0
M  V30 2688 H 243.141 5.61342 -2.40265 0
M  V30 2689 H 244.555 4.05374 -4.05395 0
M  V30 2690 H 242.952 3.67159 -4.74673 0
M  V30 2691 H 244.022 2.3518 -4.2405 0
M  V30 2692 N 245.365 1.30045 0.890287 0
M  V30 2693 C 246.298 1.10301 1.99772 0
M  V30 2694 C 247.276 0.0121631 1.62595 0
M  V30 2695 O 248.46 0.16469 1.87779 0
M  V30 2696 C 245.587 0.681125 3.31781 0
M  V30 2697 C 244.633 1.77206 3.87944 0
M  V30 2698 S 245.466 3.37335 4.15891 0
M  V30 2699 C 246.622 2.97036 5.50927 0
M  V30 2700 H 246.855 2.04057 2.16213 0
M  V30 2701 H 244.388 1.14299 1.03804 0
M  V30 2702 H 246.346 0.444439 4.08087 0
M  V30 2703 H 245.007 -0.236981 3.13205 0
M  V30 2704 H 244.2 1.42903 4.83316 0
M  V30 2705 H 243.802 1.96275 3.18358 0
M  V30 2706 H 246.094 2.44666 6.31779 0
M  V30 2707 H 247.037 3.91296 5.90164 0
M  V30 2708 H 247.445 2.35057 5.13233 0
M  V30 2709 N 246.843 -1.10192 1.12674 0
M  V30 2710 C 247.79 -2.16606 0.796906 0
M  V30 2711 C 248.76 -1.64394 -0.237476 0
M  V30 2712 O 249.945 -1.90474 -0.111484 0
M  V30 2713 C 247.085 -3.44116 0.26043 0
M  V30 2714 C 246.198 -4.10268 1.35293 0
M  V30 2715 C 245.333 -5.25507 0.775621 0
M  V30 2716 C 244.372 -5.83567 1.84706 0
M  V30 2717 N 243.509 -6.90179 1.28829 0
M  V30 2718 H 248.349 -2.44163 1.70846 0
M  V30 2719 H 245.886 -1.19846 0.85295 0
M  V30 2720 H 247.844 -4.17143 -0.0686814 0
M  V30 2721 H 246.474 -3.16901 -0.614274 0
M  V30 2722 H 245.526 -3.35184 1.79877 0
M  V30 2723 H 246.838 -4.4946 2.16303 0
M  V30 2724 H 245.992 -6.05398 0.397327 0
M  V30 2725 H 244.731 -4.87656 -0.0656581 0
M  V30 2726 H 243.736 -5.02344 2.23452 0
M  V30 2727 H 244.961 -6.23482 2.69161 0
M  V30 2728 H 242.907 -6.54322 0.468881 0
M  V30 2729 H 242.824 -7.28097 2.03497 0
M  V30 2730 H 244.092 -7.73844 0.937311 0
M  V30 2731 N 248.321 -0.919034 -1.28029 0
M  V30 2732 C 249.732 -0.600735 -1.76771 0
M  V30 2733 C 250.083 0.884024 -1.75156 0
M  V30 2734 O 249.208 1.69163 -1.34956 0
M  V30 2735 C 249.803 -1.08372 -3.21 0
M  V30 2736 C 248.362 -0.816248 -3.67443 0
M  V30 2737 C 247.509 -1.24742 -2.47658 0
M  V30 2738 H 250.46 -1.09974 -1.14418 0
M  V30 2739 H 250.481 -0.427512 -3.78091 0
M  V30 2740 H 249.993 -2.16437 -3.22144 0
M  V30 2741 H 248.094 0.250968 -3.71754 0
M  V30 2742 H 248.207 -1.4277 -4.57333 0
M  V30 2743 H 246.571 -0.666083 -2.45836 0
M  V30 2744 H 247.354 -2.33653 -2.51518 0
M  V30 2745 N 249.799 1.42003 -0.683588 0
M  V30 2746 C 251.047 2.01015 -0.209101 0
M  V30 2747 C 251.368 1.54365 1.19149 0
M  V30 2748 O 250.638 0.769083 1.80172 0
M  V30 2749 H 249.218 0.743294 -0.074315 0
M  V30 2750 H 251.88 1.73798 -0.882066 0
M  V30 2751 H 250.976 3.11343 -0.2172 0
M  V30 2752 N 251.277 0.427512 1.51691 0
M  V30 2753 C 252.187 -0.39527 2.31246 0
M  V30 2754 C 253.203 -1.03674 1.39742 0
M  V30 2755 O 254.379 -1.03425 1.72816 0
M  V30 2756 C 251.444 -1.48706 3.13189 0
M  V30 2757 C 250.505 -0.866743 4.20459 0
M  V30 2758 C 249.738 -1.90651 4.98486 0
M  V30 2759 O 249.961 -3.12733 4.77026 0
M  V30 2760 O 248.895 -1.5025 5.82845 0
M  V30 2761 H 252.721 0.253918 3.02637 0
M  V30 2762 H 250.306 0.190274 1.48183 0
M  V30 2763 H 252.188 -2.12047 3.64162 0
M  V30 2764 H 250.863 -2.12051 2.44573 0
M  V30 2765 H 249.77 -0.195544 3.73589 0
M  V30 2766 H 251.103 -0.276934 4.9142 0
M  V30 2767 N 252.755 -1.56801 0.158532 0
M  V30 2768 C 254.001 -1.96781 -0.490405 0
M  V30 2769 C 254.334 -1.04397 -1.63753 0
M  V30 2770 O 253.609 -0.0885805 -1.94298 0
M  V30 2771 C 253.892 -3.4635 -0.985594 0
M  V30 2772 C 253.745 -4.49512 0.160824 0
M  V30 2773 C 255.064 -3.98697 -1.86355 0
M  V30 2774 H 252.183 -0.715482 -0.176788 0
M  V30 2775 H 254.825 -1.88451 0.242088 0
M  V30 2776 H 252.975 -3.53579 -1.60978 0
M  V30 2777 H 254.647 -4.54353 0.797537 0
M  V30 2778 H 252.89 -4.26013 0.818256 0
M  V30 2779 H 253.561 -5.51531 -0.227569 0
M  V30 2780 H 256.037 -3.94019 -1.33746 0
M  V30 2781 H 254.913 -5.03792 -2.17909 0
M  V30 2782 H 255.174 -3.41744 -2.8047 0
M  V30 2783 N 254.233 0.115231 -1.57178 0
M  V30 2784 C 255.166 1.17166 -1.95825 0
M  V30 2785 C 256.144 1.39912 -0.828463 0
M  V30 2786 O 257.328 1.54004 -1.08697 0
M  V30 2787 C 254.455 2.52478 -2.25771 0
M  V30 2788 C 253.501 2.46136 -3.48309 0
M  V30 2789 S 254.334 1.89736 -5.0076 0
M  V30 2790 C 255.49 3.26713 -5.33863 0
M  V30 2791 H 255.723 0.842103 -2.85124 0
M  V30 2792 H 253.256 0.322136 -1.51002 0
M  V30 2793 H 255.214 3.30332 -2.43702 0
M  V30 2794 H 253.875 2.82609 -1.37079 0
M  V30 2795 H 253.068 3.45819 -3.66641 0
M  V30 2796 H 252.67 1.76404 -3.29784 0
M  V30 2797 H 254.962 4.22935 -5.29275 0
M  V30 2798 H 255.905 3.13205 -6.35065 0
M  V30 2799 H 256.313 3.25316 -4.61335 0
M  V30 2800 N 255.711 1.52812 0.385517 0
M  V30 2801 C 256.658 1.77838 1.47113 0
M  V30 2802 C 257.628 0.621757 1.54024 0
M  V30 2803 O 258.813 0.861846 1.70226 0
M  V30 2804 C 255.953 1.95618 2.84302 0
M  V30 2805 C 255.066 3.23316 2.86515 0
M  V30 2806 C 254.201 3.31394 4.15152 0
M  V30 2807 C 253.24 4.53201 4.1143 0
M  V30 2808 N 252.377 4.58542 5.3168 0
M  V30 2809 H 257.217 2.70482 1.25073 0
M  V30 2810 H 254.754 1.34006 0.606692 0
M  V30 2811 H 256.712 2.03912 3.63972 0
M  V30 2812 H 255.342 1.06331 3.04784 0
M  V30 2813 H 254.394 3.24076 1.99195 0
M  V30 2814 H 255.706 4.13045 2.79634 0
M  V30 2815 H 254.86 3.3889 5.03228 0
M  V30 2816 H 253.599 2.39645 4.24761 0
M  V30 2817 H 252.604 4.45827 3.21742 0
M  V30 2818 H 253.829 5.46271 4.03442 0
M  V30 2819 H 251.775 3.69686 5.41912 0
M  V30 2820 H 251.692 5.42148 5.26889 0
M  V30 2821 H 252.96 4.70296 6.21644 0
M  V30 2822 N 257.189 -0.644168 1.43834 0
M  V30 2823 C 258.119 -1.76814 1.52509 0
M  V30 2824 C 259.1 -1.65823 0.379052 0
M  V30 2825 O 260.285 -1.84781 0.597466 0
M  V30 2826 C 257.415 -3.15288 1.4564 0
M  V30 2827 C 256.369 -3.41053 2.58586 0
M  V30 2828 C 255.695 -4.79421 2.36769 0
M  V30 2829 C 256.995 -3.34902 4.00797 0
M  V30 2830 H 258.689 -1.69812 2.46586 0
M  V30 2831 H 256.235 -0.815542 1.1868 0
M  V30 2832 H 258.188 -3.93681 1.50311 0
M  V30 2833 H 256.912 -3.23043 0.480725 0
M  V30 2834 H 255.571 -2.65035 2.53282 0
M  V30 2835 H 255.219 -4.83863 1.37424 0
M  V30 2836 H 254.919 -4.9762 3.12487 0
M  V30 2837 H 256.443 -5.6006 2.43238 0
M  V30 2838 H 257.857 -4.03218 4.07539 0
M  V30 2839 H 256.254 -3.64637 4.76613 0
M  V30 2840 H 257.324 -2.32928 4.25291 0
M  V30 2841 N 258.668 -1.30515 -0.883378 0
M  V30 2842 C 259.945 -1.10086 -1.6168 0
M  V30 2843 C 260.325 0.349269 -2.08191 0
M  V30 2844 O 259.673 1.34105 -1.85008 0
M  V30 2845 C 259.883 -2.10315 -2.78511 0
M  V30 2846 C 261.231 -2.42119 -3.48803 0
M  V30 2847 O 262.255 -2.08638 -2.88702 0
M  V30 2848 O 261.114 -2.99396 -4.57192 0
M  V30 2849 H 258.208 -0.422907 -0.710689 0
M  V30 2850 H 260.754 -1.41947 -0.930015 0
M  V30 2851 H 259.526 -3.07917 -2.41459 0
M  V30 2852 H 259.149 -1.79282 -3.54886 0
M  V30 2853 N 260.146 1.09593 -1.13257 0
M  V30 2854 C 261.094 2.18271 -0.803783 0
M  V30 2855 C 262.088 1.68054 0.213148 0
M  V30 2856 O 263.294 1.79862 0.0704699 0
M  V30 2857 H 259.669 0.711949 -0.242143 0
M  V30 2858 H 261.64 2.43235 -1.72856 0
M  V30 2859 C 260.389 3.46536 -0.28424 0
M  V30 2860 H 259.712 3.85545 -1.05807 0
M  V30 2861 H 261.152 4.23899 -0.0925945 0
M  V30 2862 C 259.611 3.22036 0.989684 0
M  V30 2863 O 260.141 3.44509 2.06584 0
M  V30 2864 N 258.347 2.7565 0.920086 0
M  V30 2865 H 257.894 2.57562 0.0442019 0
M  V30 2866 H 257.852 2.59635 1.77306 0
M  V30 2867 N 261.624 0.925811 1.2754 0
M  V30 2868 C 262.571 0.422045 2.26908 0
M  V30 2869 C 263.541 -0.510029 1.58076 0
M  V30 2870 O 264.726 -0.429599 1.85901 0
M  V30 2871 C 261.866 -0.320837 3.43605 0
M  V30 2872 C 260.979 0.64513 4.27156 0
M  V30 2873 C 260.114 -0.117405 5.3107 0
M  V30 2874 C 259.153 0.841391 6.0629 0
M  V30 2875 N 258.29 0.111604 7.02011 0
M  V30 2876 H 263.13 1.27441 2.69375 0
M  V30 2877 H 260.667 0.639697 1.32462 0
M  V30 2878 H 262.625 -0.76785 4.10073 0
M  V30 2879 H 261.255 -1.13745 3.02096 0
M  V30 2880 H 260.307 1.21067 3.6062 0
M  V30 2881 H 261.619 1.37797 4.79389 0
M  V30 2882 H 260.773 -0.624422 6.03478 0
M  V30 2883 H 259.512 -0.883219 4.79636 0
M  V30 2884 H 258.517 1.35967 5.32722 0
M  V30 2885 H 259.742 1.60696 6.59813 0
M  V30 2886 H 257.688 -0.635999 6.5291 0
M  V30 2887 H 257.605 0.784044 7.51923 0
M  V30 2888 H 258.873 -0.374823 7.78598 0
M  V30 2889 N 263.102 -1.41638 0.69111 0
M  V30 2890 C 264.351 -2.00526 0.217318 0
M  V30 2891 C 264.664 -1.55353 -1.18848 0
M  V30 2892 O 265.87 -2.06769 -1.75951 0
M  V30 2893 C 264.326 -3.58313 0.337639 0
M  V30 2894 C 263.934 -4.12469 1.74852 0
M  V30 2895 C 265.678 -4.24431 -0.0766066 0
M  V30 2896 C 263.585 -5.62675 1.82074 0
M  V30 2897 H 262.515 -0.750008 0.0774893 0
M  V30 2898 H 265.166 -1.6217 0.858661 0
M  V30 2899 H 263.548 -3.9425 -0.371879 0
M  V30 2900 H 264.722 -3.8796 2.48644 0
M  V30 2901 H 263.037 -3.58861 2.11205 0
M  V30 2902 H 265.634 -5.34683 -0.0430284 0
M  V30 2903 H 265.977 -4.01101 -1.1146 0
M  V30 2904 H 266.51 -3.93512 0.582476 0
M  V30 2905 H 263.249 -5.90826 2.83911 0
M  V30 2906 H 262.769 -5.89124 1.12661 0
M  V30 2907 H 264.448 -6.27371 1.58159 0
M  V30 2908 N 264.58 -0.43555 -1.51462 0
M  V30 2909 C 265.528 0.391205 -2.29287 0
M  V30 2910 C 266.522 1.02247 -1.35062 0
M  V30 2911 O 267.728 0.957646 -1.52411 0
M  V30 2912 H 264.103 0.144968 -0.737895 0
M  V30 2913 H 266.074 -0.286051 -2.97026 0
M  V30 2914 C 264.823 1.48096 -3.14583 0
M  V30 2915 H 264.146 1.00457 -3.86973 0
M  V30 2916 H 265.586 2.03273 -3.72097 0
M  V30 2917 C 264.045 2.46321 -2.29843 0
M  V30 2918 O 264.575 3.50815 -1.95682 0
M  V30 2919 N 262.781 2.17166 -1.931 0
M  V30 2920 H 262.328 1.32218 -2.21079 0
M  V30 2921 H 262.286 2.83127 -1.36698 0
M  V30 2922 N 266.058 1.56714 -0.166846 0
M  V30 2923 C 266.968 2.21331 0.777791 0
M  V30 2924 C 267.984 1.20358 1.25658 0
M  V30 2925 O 269.16 1.53005 1.30964 0
M  V30 2926 C 266.225 2.83787 1.99163 0
M  V30 2927 C 265.286 3.99947 1.56016 0
M  V30 2928 C 264.519 4.59415 2.71613 0
M  V30 2929 O 264.742 4.17769 3.88362 0
M  V30 2930 O 263.676 5.49359 2.45945 0
M  V30 2931 H 267.502 3.02605 0.257636 0
M  V30 2932 H 265.087 1.49275 0.0611393 0
M  V30 2933 H 266.969 3.23405 2.70161 0
M  V30 2934 H 265.644 2.05513 2.50092 0
M  V30 2935 H 264.551 3.65007 0.819809 0
M  V30 2936 H 265.884 4.79801 1.09782 0
M  V30 2937 N 267.536 -0.106894 1.57237 0
M  V30 2938 C 268.782 -0.81373 1.85759 0
M  V30 2939 C 269.115 -1.78952 0.754315 0
M  V30 2940 O 268.39 -1.93029 -0.23879 0
M  V30 2941 C 268.673 -1.55293 3.24894 0
M  V30 2942 C 268.526 -0.595929 4.45835 0
M  V30 2943 C 269.845 -2.5063 3.61763 0
M  V30 2944 H 266.964 -0.294369 0.67566 0
M  V30 2945 H 269.606 -0.0776472 1.89841 0
M  V30 2946 H 267.756 -2.1804 3.21544 0
M  V30 2947 H 269.428 0.0236262 4.61294 0
M  V30 2948 H 267.671 0.0916191 4.33703 0
M  V30 2949 H 268.342 -1.15004 5.39887 0
M  V30 2950 H 270.818 -1.97982 3.65981 0
M  V30 2951 H 269.694 -2.99376 4.60071 0
M  V30 2952 H 269.955 -3.3385 2.89821 0
M  V30 2953 N 269.014 -1.53014 -0.377408 0
M  V30 2954 C 269.944 -1.81589 -1.46791 0
M  V30 2955 C 270.925 -0.668622 -1.56408 0
M  V30 2956 O 272.11 -0.917337 -1.71168 0
M  V30 2957 C 269.24 -1.99519 -2.8427 0
M  V30 2958 C 268.194 -3.15249 -2.89486 0
M  V30 2959 C 267.52 -3.18451 -4.29527 0
M  V30 2960 C 268.82 -4.54084 -2.58079 0
M  V30 2961 H 270.514 -2.7291 -1.23127 0
M  V30 2962 H 268.06 -1.31319 -0.590883 0
M  V30 2963 H 270.013 -2.18092 -3.60575 0
M  V30 2964 H 268.737 -1.04897 -3.09296 0
M  V30 2965 H 267.396 -2.96477 -2.15631 0
M  V30 2966 H 267.044 -2.2149 -4.5161 0
M  V30 2967 H 266.744 -3.962 -4.33934 0
M  V30 2968 H 268.268 -3.39193 -5.07721 0
M  V30 2969 H 269.682 -4.72899 -3.24098 0
M  V30 2970 H 268.079 -5.33987 -2.7382 0
M  V30 2971 H 269.149 -4.60006 -1.53372 0
M  V30 2972 N 270.492 0.636531 -1.44174 0
M  V30 2973 C 271.455 1.73063 -1.50273 0
M  V30 2974 C 272.455 1.56113 -0.385397 0
M  V30 2975 O 273.645 1.61707 -0.64781 0
M  V30 2976 C 270.777 3.12096 -1.37145 0
M  V30 2977 H 271.97 1.69031 -2.47727 0
M  V30 2978 H 269.523 0.849706 -1.31186 0
M  V30 2979 H 270.258 3.21728 -0.407636 0
M  V30 2980 H 270.043 3.25805 -2.18159 0
M  V30 2981 H 271.533 3.91846 -1.44382 0
M  V30 2982 N 271.97 1.30982 0.876444 0
M  V30 2983 C 273.247 1.10942 1.61094 0
M  V30 2984 C 273.627 -0.338223 2.08373 0
M  V30 2985 O 272.975 -1.33122 1.85717 0
M  V30 2986 C 273.185 2.11789 2.77392 0
M  V30 2987 C 274.533 2.43965 3.47514 0
M  V30 2988 O 275.557 2.10166 2.87591 0
M  V30 2989 O 274.416 3.01817 4.55597 0
M  V30 2990 H 271.51 0.42667 0.708436 0
M  V30 2991 H 274.056 1.42438 0.922474 0
M  V30 2992 H 272.828 3.09194 2.39823 0
M  V30 2993 H 272.451 1.81161 3.5393 0
M  V30 2994 N 273.449 -1.08991 1.13837 0
M  V30 2995 C 274.696 -1.81258 0.902882 0
M  V30 2996 C 275.024 -1.85936 -0.570803 0
M  V30 2997 O 274.279 -1.3267 -1.43865 0
M  V30 2998 C 274.578 -3.27042 1.44147 0
M  V30 2999 C 274.244 -3.4249 2.93276 0
M  V30 3000 C 272.906 -3.46414 3.33992 0
M  V30 3001 C 275.258 -3.4666 3.892 0
M  V30 3002 C 272.586 -3.52091 4.69307 0
M  V30 3003 C 274.938 -3.53872 5.24364 0
M  V30 3004 C 273.602 -3.56066 5.646 0
M  V30 3005 H 272.872 -0.663268 0.330388 0
M  V30 3006 H 275.519 -1.28368 1.42105 0
M  V30 3007 H 273.824 -3.82599 0.844097 0
M  V30 3008 H 275.521 -3.81499 1.23528 0
M  V30 3009 H 272.111 -3.40124 2.60794 0
M  V30 3010 H 276.295 -3.42865 3.58828 0
M  V30 3011 H 271.551 -3.52079 4.9985 0
M  V30 3012 H 275.725 -3.56043 5.98503 0
M  V30 3013 H 273.352 -3.60218 6.69438 0
M  V30 3014 N 274.927 -0.932562 -1.27047 0
M  V30 3015 C 275.86 -0.379774 -2.25018 0
M  V30 3016 C 276.838 0.526587 -1.53837 0
M  V30 3017 O 278.022 0.465992 -1.82649 0
M  V30 3018 C 275.149 0.455187 -3.35627 0
M  V30 3019 C 274.195 -0.388428 -4.24728 0
M  V30 3020 S 275.028 -1.80701 -5.04091 0
M  V30 3021 C 276.184 -0.979865 -6.18182 0
M  V30 3022 H 276.417 -1.2101 -2.71558 0
M  V30 3023 H 273.95 -0.735078 -1.35779 0
M  V30 3024 H 275.908 0.931052 -3.99802 0
M  V30 3025 H 274.569 1.26009 -2.87716 0
M  V30 3026 H 273.762 0.25089 -5.03375 0
M  V30 3027 H 273.364 -0.798649 -3.65373 0
M  V30 3028 H 275.656 -0.218115 -6.77149 0
M  V30 3029 H 276.599 -1.73951 -6.86401 0
M  V30 3030 H 277.007 -0.51973 -5.62102 0
M  V30 3031 N 276.405 1.4127 -0.698611 0
M  V30 3032 C 277.653 2.00782 -0.230409 0
M  V30 3033 C 277.974 1.5562 1.17505 0
M  V30 3034 O 277.244 0.78815 1.79346 0
M  V30 3035 H 275.824 0.742464 -0.0821944 0
M  V30 3036 H 278.486 1.72852 -0.90045 0
M  V30 3037 H 277.582 3.11095 -0.25021 0
M  V30 3038 N 277.883 0.443576 1.51229 0
M  V30 3039 C 279.299 0.0962001 1.5931 0
M  V30 3040 C 279.499 -1.39501 1.45402 0
M  V30 3041 O 278.555 -2.16557 1.29843 0
M  V30 3042 C 279.868 0.621875 2.94199 0
M  V30 3043 C 281.416 0.582865 3.07525 0
M  V30 3044 C 281.891 1.08562 4.44948 0
M  V30 3045 N 283.382 1.04387 4.51284 0
M  V30 3046 C 284.117 1.40368 5.55954 0
M  V30 3047 N 283.613 1.83664 6.68011 0
M  V30 3048 N 285.406 1.32145 5.46346 0
M  V30 3049 H 277.557 1.41376 1.58514 0
M  V30 3050 H 279.82 0.582965 0.747567 0
M  V30 3051 H 279.526 1.66546 3.09767 0
M  V30 3052 H 279.4 0.0502125 3.77167 0
M  V30 3053 H 281.787 -0.451749 2.91622 0
M  V30 3054 H 281.868 1.191 2.26382 0
M  V30 3055 H 281.512 2.11873 4.61598 0
M  V30 3056 H 281.442 0.453956 5.2464 0
M  V30 3057 H 283.933 0.725986 3.70861 0
M  V30 3058 H 284.246 2.0934 7.43906 0
M  V30 3059 H 282.591 1.87596 6.69203 0
M  V30 3060 H 285.782 0.981808 4.57688 0
M  V30 3061 H 285.955 1.60514 6.27805 0
M  V30 3062 N 279.361 -1.56624 0.175154 0
M  V30 3063 C 280.61 -1.96173 -0.468921 0
M  V30 3064 C 280.923 -1.06401 -1.64128 0
M  V30 3065 O 282.129 -1.35648 -2.35185 0
M  V30 3066 C 280.585 -3.48833 -0.885633 0
M  V30 3067 C 280.193 -4.47237 0.261343 0
M  V30 3068 C 281.937 -3.97194 -1.49791 0
M  V30 3069 C 279.844 -5.9114 -0.175214 0
M  V30 3070 H 278.774 -0.732455 -0.178958 0
M  V30 3071 H 281.425 -1.81591 0.263997 0
M  V30 3072 H 279.807 -3.58848 -1.67464 0
M  V30 3073 H 280.981 -4.4894 1.03871 0
M  V30 3074 H 279.296 -4.08956 0.783827 0
M  V30 3075 H 281.893 -5.02167 -1.83665 0
M  V30 3076 H 282.236 -3.40351 -2.39722 0
M  V30 3077 H 282.769 -3.90212 -0.773267 0
M  V30 3078 H 279.508 -6.51865 0.689414 0
M  V30 3079 H 279.028 -5.92735 -0.91786 0
M  V30 3080 H 280.707 -6.44044 -0.617792 0
M  V30 3081 N 280.839 0.0985539 -1.57292 0
M  V30 3082 C 282.116 0.834155 -1.76921 0
M  V30 3083 C 282.496 1.97101 -0.755928 0
M  V30 3084 O 281.844 2.27474 0.216245 0
M  V30 3085 C 282.054 1.33194 -3.22584 0
M  V30 3086 C 283.402 1.77611 -3.85668 0
M  V30 3087 O 284.426 1.42825 -3.26312 0
M  V30 3088 O 283.285 2.4192 -4.90038 0
M  V30 3089 H 280.379 0.397628 -0.725135 0
M  V30 3090 H 282.925 0.0807044 -1.69508 0
M  V30 3091 H 281.697 0.517248 -3.87866 0
M  V30 3092 H 281.32 2.1475 -3.34616 0
M  V30 3093 N 282.317 1.53212 0.369288 0
M  V30 3094 C 283.227 1.82342 1.47609 0
M  V30 3095 C 284.243 0.711532 1.58787 0
M  V30 3096 O 285.419 1.0012 1.74751 0
M  V30 3097 C 282.484 2.00393 2.8292 0
M  V30 3098 C 281.545 3.24297 2.81301 0
M  V30 3099 C 280.778 3.41478 4.10157 0
M  V30 3100 O 281.001 2.63033 5.06132 0
M  V30 3101 O 279.935 4.34817 4.16194 0
M  V30 3102 H 283.761 2.76366 1.25918 0
M  V30 3103 H 281.346 1.38547 0.559034 0
M  V30 3104 H 283.228 2.13859 3.63101 0
M  V30 3105 H 281.903 1.09559 3.04596 0
M  V30 3106 H 280.81 3.16257 1.99831 0
M  V30 3107 H 282.143 4.15041 2.64578 0
M  V30 3108 N 283.795 -0.628877 1.44509 0
M  V30 3109 C 284.725 -1.75187 1.54376 0
M  V30 3110 C 285.706 -1.65411 0.396618 0
M  V30 3111 O 286.891 -1.84137 0.617031 0
M  V30 3112 C 284.021 -3.13725 1.48976 0
M  V30 3113 C 282.975 -3.38291 2.62189 0
M  V30 3114 C 282.301 -4.76883 2.41841 0
M  V30 3115 C 283.601 -3.30632 4.04326 0
M  V30 3116 H 285.295 -1.67187 2.48373 0
M  V30 3117 H 282.841 -0.802909 1.19538 0
M  V30 3118 H 284.794 -3.92064 1.54478 0
M  V30 3119 H 283.518 -3.22515 0.514961 0
M  V30 3120 H 282.177 -2.62334 2.56079 0
M  V30 3121 H 281.825 -4.82378 1.42548 0
M  V30 3122 H 281.525 -4.94278 3.17747 0
M  V30 3123 H 283.049 -5.57449 2.49165 0
M  V30 3124 H 284.463 -3.98873 4.11793 0
M  V30 3125 H 282.86 -3.59561 4.80454 0
M  V30 3126 H 283.93 -2.28404 4.27738 0
M  V30 3127 N 285.273 -1.31445 -0.869486 0
M  V30 3128 C 286.513 -1.22458 -1.63656 0
M  V30 3129 C 286.877 0.213846 -1.90805 0
M  V30 3130 O 288.078 0.427212 -2.65383 0
M  V30 3131 C 286.349 -2.04564 -2.93067 0
M  V30 3132 S 287.908 -2.12445 -3.83944 0
M  V30 3133 H 284.726 -0.436145 -0.561514 0
M  V30 3134 H 287.328 -1.66114 -1.03085 0
M  V30 3135 H 286.032 -3.0816 -2.71045 0
M  V30 3136 H 285.563 -1.6163 -3.58663 0
M  V30 3137 H 287.578 -1.26312 -4.79854 0
M  V30 3138 N 286.751 1.08385 -1.14413 0
M  V30 3139 C 288.028 1.77429 -0.823297 0
M  V30 3140 C 288.408 1.9974 0.683163 0
M  V30 3141 O 287.756 1.60739 1.62405 0
M  V30 3142 C 287.966 3.09004 -1.62227 0
M  V30 3143 C 289.314 3.83532 -1.82177 0
M  V30 3144 O 290.338 3.18786 -1.58915 0
M  V30 3145 O 289.197 4.99792 -2.21067 0
M  V30 3146 H 286.291 0.769999 -0.301712 0
M  V30 3147 H 288.837 1.14846 -1.24934 0
M  V30 3148 H 287.609 2.88316 -2.64555 0
M  V30 3149 H 287.232 3.79316 -1.19187 0
M  V30 3150 N 288.23 0.939286 1.26551 0
M  V30 3151 C 289.14 0.453432 2.30176 0
M  V30 3152 C 290.156 -0.471649 1.67486 0
M  V30 3153 O 291.332 -0.35164 1.98306 0
M  V30 3154 C 288.397 -0.275326 3.45605 0
M  V30 3155 C 287.458 0.686084 4.23782 0
M  V30 3156 C 286.691 -0.00798994 5.33699 0
M  V30 3157 O 286.914 -1.22528 5.57085 0
M  V30 3158 O 285.848 0.669746 5.98162 0
M  V30 3159 H 289.674 1.31416 2.73795 0
M  V30 3160 H 287.259 0.705095 1.31715 0
M  V30 3161 H 289.141 -0.685911 4.1578 0
M  V30 3162 H 287.816 -1.11147 3.0402 0
M  V30 3163 H 286.723 1.14658 3.56096 0
M  V30 3164 H 288.056 1.48979 4.69112 0
M  V30 3165 N 289.708 -1.40897 0.706093 0
M  V30 3166 C 291.124 -1.55042 0.37869 0
M  V30 3167 C 291.324 -1.67944 -1.11342 0
M  V30 3168 O 290.38 -1.66372 -1.89938 0
M  V30 3169 C 291.693 -2.78398 1.13643 0
M  V30 3170 C 293.241 -2.92206 1.12181 0
M  V30 3171 C 293.716 -4.18463 1.86152 0
M  V30 3172 N 295.207 -4.25443 1.83173 0
M  V30 3173 C 295.942 -5.2202 2.37239 0
M  V30 3174 N 295.438 -6.24563 2.99821 0
M  V30 3175 N 297.231 -5.14033 2.27435 0
M  V30 3176 H 289.382 -1.30769 1.67372 0
M  V30 3177 H 291.645 -0.631653 0.706907 0
M  V30 3178 H 291.351 -2.7511 2.19106 0
M  V30 3179 H 291.225 -3.70228 0.721853 0
M  V30 3180 H 293.612 -2.95004 0.0754171 0
M  V30 3181 H 293.693 -2.01521 1.57554 0
M  V30 3182 H 293.337 -4.16427 2.90776 0
M  V30 3183 H 293.267 -5.08141 1.38206 0
M  V30 3184 H 295.758 -3.51976 1.37556 0
M  V30 3185 H 296.071 -6.94665 3.38616 0
M  V30 3186 H 294.416 -6.25035 3.03902 0
M  V30 3187 H 297.607 -4.3285 1.78208 0
M  V30 3188 H 297.78 -5.89129 2.69873 0
M  V30 3189 N 291.186 -0.45159 -1.50991 0
M  V30 3190 C 292.434 0.109857 -2.01801 0
M  V30 3191 C 292.755 1.41958 -1.3369 0
M  V30 3192 O 292.025 1.9003 -0.475951 0
M  V30 3193 H 290.605 0.0435884 -0.745727 0
M  V30 3194 H 293.267 -0.597557 -1.85514 0
M  V30 3195 H 292.363 0.275489 -3.10882 0
M  V30 3196 N 292.664 1.56529 -0.183458 0
M  V30 3197 C 293.614 2.1515 0.754605 0
M  V30 3198 C 294.598 1.08904 1.18443 0
M  V30 3199 O 295.79 1.34997 1.14476 0
M  V30 3200 C 292.919 2.80531 1.97881 0
M  V30 3201 C 292.005 3.93952 1.57043 0
M  V30 3202 N 292.396 4.98221 0.87231 0
M  V30 3203 C 290.694 4.05338 1.86057 0
M  V30 3204 C 291.395 5.77836 0.669377 0
M  V30 3205 N 290.371 5.29858 1.21454 0
M  V30 3206 H 294.173 2.93132 0.212387 0
M  V30 3207 H 291.687 1.62391 0.0167725 0
M  V30 3208 H 293.684 3.20914 2.6612 0
M  V30 3209 H 292.344 2.04035 2.52586 0
M  V30 3210 H 293.355 5.15191 0.529033 0
M  V30 3211 H 290.032 3.39957 2.42354 0
M  V30 3212 H 291.422 6.71799 0.116422 0
M  V30 3213 N 294.142 -0.090211 1.57342 0
M  V30 3214 C 295.388 -0.793982 1.86611 0
M  V30 3215 C 295.721 -1.78142 0.773252 0
M  V30 3216 O 294.996 -1.93271 -0.218304 0
M  V30 3217 C 295.279 -1.51839 3.26523 0
M  V30 3218 C 295.132 -0.548609 4.46442 0
M  V30 3219 C 296.451 -2.46779 3.64401 0
M  V30 3220 H 293.57 -0.287186 0.678744 0
M  V30 3221 H 296.212 -0.0575076 1.89913 0
M  V30 3222 H 294.362 -2.14617 3.23839 0
M  V30 3223 H 296.034 0.0725513 4.61243 0
M  V30 3224 H 294.277 0.137614 4.33582 0
M  V30 3225 H 294.948 -1.09271 5.41076 0
M  V30 3226 H 297.424 -1.94089 3.68061 0
M  V30 3227 H 296.3 -2.94479 4.63221 0
M  V30 3228 H 296.561 -3.30758 2.93346 0
M  V30 3229 N 295.62 -1.53406 -0.361157 0
M  V30 3230 C 296.53 -1.83122 -1.4664 0
M  V30 3231 C 297.546 -0.719943 -1.58407 0
M  V30 3232 O 298.722 -1.01046 -1.74218 0
M  V30 3233 C 295.787 -2.01891 -2.81853 0
M  V30 3234 C 294.848 -3.25784 -2.79577 0
M  V30 3235 C 294.081 -3.43648 -4.0834 0
M  V30 3236 O 294.304 -2.65714 -5.0473 0
M  V30 3237 O 293.238 -4.37018 -4.13883 0
M  V30 3238 H 297.064 -2.7703 -1.24451 0
M  V30 3239 H 294.649 -1.38841 -0.551678 0
M  V30 3240 H 296.531 -2.15782 -3.61962 0
M  V30 3241 H 295.206 -1.11173 -3.0401 0
M  V30 3242 H 294.113 -3.17312 -1.98151 0
M  V30 3243 H 295.446 -4.16439 -2.62373 0
M  V30 3244 N 297.098 0.621204 -1.44841 0
M  V30 3245 C 298.375 1.38 -1.38619 0
M  V30 3246 C 298.755 2.11041 -0.0498935 0
M  V30 3247 O 298.103 2.06992 0.967816 0
M  V30 3248 C 298.313 2.33817 -2.59096 0
M  V30 3249 C 299.661 2.96844 -3.03593 0
M  V30 3250 O 300.685 2.44141 -2.59371 0
M  V30 3251 O 299.544 3.92476 -3.80296 0
M  V30 3252 H 296.638 0.61811 -0.549426 0
M  V30 3253 H 299.184 0.645429 -1.56947 0
M  V30 3254 H 297.956 1.79012 -3.47952 0
M  V30 3255 H 297.579 3.14676 -2.43032 0
M  V30 3256 N 298.576 1.31904 0.862503 0
M  V30 3257 C 299.506 1.22782 1.98612 0
M  V30 3258 C 300.487 0.113362 1.69722 0
M  V30 3259 O 301.672 0.299218 1.91881 0
M  V30 3260 C 298.802 0.942058 3.34279 0
M  V30 3261 C 297.756 2.0169 3.77499 0
M  V30 3262 C 297.082 1.58369 5.10709 0
M  V30 3263 C 298.382 3.43096 3.93805 0
M  V30 3264 H 300.076 2.16788 2.06502 0
M  V30 3265 H 297.622 1.04366 0.992154 0
M  V30 3266 H 299.575 0.864818 4.1243 0
M  V30 3267 H 298.299 -0.0336603 3.26583 0
M  V30 3268 H 296.958 2.08416 3.01593 0
M  V30 3269 H 296.606 0.595628 4.99461 0
M  V30 3270 H 296.306 2.30279 5.40597 0
M  V30 3271 H 297.83 1.52067 5.91361 0
M  V30 3272 H 299.244 3.39003 4.62331 0
M  V30 3273 H 297.641 4.13288 4.35101 0
M  V30 3274 H 298.711 3.83334 2.96957 0
M  V30 3275 N 300.054 -1.07777 1.14986 0
M  V30 3276 C 301.284 -1.83752 0.944402 0
M  V30 3277 C 301.692 -1.8218 -0.51058 0
M  V30 3278 O 301.035 -1.22852 -1.36576 0
M  V30 3279 C 301.097 -3.32128 1.37592 0
M  V30 3280 C 300.761 -3.57425 2.84775 0
M  V30 3281 C 301.758 -3.5173 3.8286 0
M  V30 3282 C 299.443 -3.8523 3.2234 0
M  V30 3283 C 301.437 -3.73482 5.16517 0
M  V30 3284 C 299.124 -4.06634 4.56171 0
M  V30 3285 C 300.122 -4.00754 5.53069 0
M  V30 3286 O 299.81 -4.2159 6.84483 0
M  V30 3287 H 299.542 -0.58673 0.335744 0
M  V30 3288 H 302.096 -1.36982 1.53052 0
M  V30 3289 H 300.326 -3.79686 0.733165 0
M  V30 3290 H 302.015 -3.89555 1.14024 0
M  V30 3291 H 302.781 -3.30256 3.55184 0
M  V30 3292 H 298.66 -3.88923 2.47508 0
M  V30 3293 H 302.204 -3.68808 5.92137 0
M  V30 3294 H 298.101 -4.27593 4.83564 0
M  V30 3295 H 298.869 -4.38961 6.90837 0
M  V30 3296 N 301.532 -0.945985 -1.26051 0
M  V30 3297 C 302.757 -0.612525 -1.98149 0
M  V30 3298 C 303.182 0.806623 -1.69927 0
M  V30 3299 O 302.54 1.54411 -0.950108 0
M  V30 3300 C 302.588 -0.866981 -3.50023 0
M  V30 3301 O 301.692 0.0585333 -4.12358 0
M  V30 3302 H 301.033 -0.23379 -0.621481 0
M  V30 3303 H 303.563 -1.27023 -1.60395 0
M  V30 3304 H 303.573 -0.789792 -4.00283 0
M  V30 3305 H 302.248 -1.90135 -3.69894 0
M  V30 3306 H 300.825 -0.0701241 -3.72834 0
M  V30 3307 N 303.011 1.40521 -0.713556 0
M  V30 3308 C 303.921 2.34522 -0.0606667 0
M  V30 3309 C 304.937 1.57193 0.74607 0
M  V30 3310 O 306.113 1.89591 0.679493 0
M  V30 3311 C 303.178 3.36081 0.851491 0
M  V30 3312 C 302.239 4.29286 0.0349339 0
M  V30 3313 C 301.472 5.25994 0.903649 0
M  V30 3314 O 301.695 5.28616 2.14292 0
M  V30 3315 O 300.629 6.00918 0.343723 0
M  V30 3316 H 304.455 2.91968 -0.835972 0
M  V30 3317 H 302.04 1.41681 -0.47402 0
M  V30 3318 H 303.922 3.98369 1.37404 0
M  V30 3319 H 302.597 2.81052 1.60598 0
M  V30 3320 H 301.504 3.70289 -0.532633 0
M  V30 3321 H 302.837 4.87462 -0.681287 0
M  V30 3322 N 304.489 0.459591 1.5075 0
M  V30 3323 C 305.419 -0.330644 2.31147 0
M  V30 3324 C 306.4 -1.00087 1.37538 0
M  V30 3325 O 307.585 -1.00025 1.66459 0
M  V30 3326 C 304.715 -1.41958 3.16962 0
M  V30 3327 C 303.669 -0.871608 4.19031 0
M  V30 3328 C 302.995 -2.05797 4.9351 0
M  V30 3329 C 304.295 0.109251 5.22186 0
M  V30 3330 H 305.989 0.340336 2.97459 0
M  V30 3331 H 303.535 0.165119 1.4305 0
M  V30 3332 H 305.488 -1.9798 3.71997 0
M  V30 3333 H 304.212 -2.11917 2.48513 0
M  V30 3334 H 302.871 -0.333442 3.6508 0
M  V30 3335 H 302.519 -2.74427 4.21544 0
M  V30 3336 H 302.219 -1.6976 5.62544 0
M  V30 3337 H 303.743 -2.62331 5.51375 0
M  V30 3338 H 305.157 -0.361405 5.7216 0
M  V30 3339 H 303.554 0.383316 5.98875 0
M  V30 3340 H 304.624 1.03887 4.73641 0
M  V30 3341 N 305.967 -1.56429 0.191757 0
M  V30 3342 C 306.915 -2.20273 -0.747174 0
M  V30 3343 C 307.909 -1.17288 -1.22229 0
M  V30 3344 O 309.115 -1.35441 -1.18557 0
M  V30 3345 H 305.49 -0.705885 -0.259289 0
M  V30 3346 H 307.461 -2.97826 -0.184963 0
M  V30 3347 C 306.21 -2.87356 -1.95759 0
M  V30 3348 H 305.533 -3.66341 -1.60106 0
M  V30 3349 H 306.973 -3.3547 -2.59299 0
M  V30 3350 C 305.432 -1.88213 -2.79423 0
M  V30 3351 O 305.962 -1.38033 -3.7724 0
M  V30 3352 N 304.168 -1.56516 -2.44849 0
M  V30 3353 H 303.715 -1.97516 -1.65364 0
M  V30 3354 H 303.673 -0.904369 -3.01112 0
M  V30 3355 N 307.445 0.0818655 -1.57387 0
M  V30 3356 C 308.392 1.09834 -2.0299 0
M  V30 3357 C 309.362 1.39043 -0.908639 0
M  V30 3358 O 310.547 1.50282 -1.17559 0
M  V30 3359 C 307.687 2.40971 -2.47037 0
M  V30 3360 C 306.8 2.18379 -3.7274 0
M  V30 3361 C 305.935 3.43008 -4.0561 0
M  V30 3362 C 304.974 3.15736 -5.24383 0
M  V30 3363 N 304.111 4.32667 -5.52941 0
M  V30 3364 H 308.951 0.702472 -2.89602 0
M  V30 3365 H 306.488 0.33531 -1.43227 0
M  V30 3366 H 308.446 3.1752 -2.70623 0
M  V30 3367 H 307.076 2.78379 -1.63417 0
M  V30 3368 H 306.128 1.32569 -3.56552 0
M  V30 3369 H 307.44 1.94227 -4.59431 0
M  V30 3370 H 306.594 4.27958 -4.30043 0
M  V30 3371 H 305.333 3.70225 -3.17466 0
M  V30 3372 H 304.338 2.2918 -4.99757 0
M  V30 3373 H 305.563 2.8985 -6.14136 0
M  V30 3374 H 303.509 4.59935 -4.67756 0
M  V30 3375 H 303.426 4.11753 -6.34031 0
M  V30 3376 H 304.694 5.18644 -5.81918 0
M  V30 3377 N 308.923 1.53595 0.353017 0
M  V30 3378 C 310.169 1.71581 1.09232 0
M  V30 3379 C 310.524 0.468328 1.86613 0
M  V30 3380 O 309.817 -0.538911 1.83865 0
M  V30 3381 C 310.011 2.91313 2.07054 0
M  V30 3382 C 309.84 4.27585 1.39287 0
M  V30 3383 C 308.61 4.92233 1.1417 0
M  V30 3384 C 310.808 5.07656 0.824005 0
M  V30 3385 N 308.79 6.124 0.428841 0
M  V30 3386 C 310.161 6.19531 0.241195 0
M  V30 3387 C 312.216 4.92609 0.723922 0
M  V30 3388 C 310.919 7.18002 -0.431952 0
M  V30 3389 C 312.945 5.91365 0.0645334 0
M  V30 3390 C 312.307 7.02571 -0.507347 0
M  V30 3391 H 308.406 0.680987 0.384422 0
M  V30 3392 H 310.99 1.91013 0.377096 0
M  V30 3393 H 309.161 2.73398 2.75877 0
M  V30 3394 H 310.893 2.98062 2.73753 0
M  V30 3395 H 307.648 4.51612 1.42631 0
M  V30 3396 H 308.072 6.76944 0.0874131 0
M  V30 3397 H 312.714 4.06808 1.15181 0
M  V30 3398 H 310.432 8.03384 -0.871758 0
M  V30 3399 H 314.018 5.81799 -0.0121469 0
M  V30 3400 H 312.898 7.77675 -1.0095 0
M  V30 3401 N 310.401 -0.613514 1.45168 0
M  V30 3402 C 311.626 -1.40437 1.52618 0
M  V30 3403 C 312.051 -1.87438 0.157707 0
M  V30 3404 O 311.409 -1.59791 -0.856537 0
M  V30 3405 C 311.457 -2.58894 2.51011 0
M  V30 3406 O 310.561 -3.59326 2.02382 0
M  V30 3407 H 309.902 -0.419506 0.514695 0
M  V30 3408 H 312.432 -0.747215 1.90467 0
M  V30 3409 H 312.442 -3.06214 2.69624 0
M  V30 3410 H 311.117 -2.24032 3.50403 0
M  V30 3411 H 309.694 -3.18695 1.93618 0
M  V30 3412 N 311.879 -1.3236 -0.855495 0
M  V30 3413 C 313.126 -1.22872 -1.60962 0
M  V30 3414 C 313.454 0.209658 -1.93367 0
M  V30 3415 O 312.709 1.16243 -1.57436 0
M  V30 3416 C 313.008 -2.03275 -2.93963 0
M  V30 3417 C 312.674 -3.5264 -2.80991 0
M  V30 3418 C 311.336 -3.93364 -2.7716 0
M  V30 3419 C 313.688 -4.47626 -2.66983 0
M  V30 3420 C 311.016 -5.27319 -2.572 0
M  V30 3421 C 313.368 -5.81723 -2.48558 0
M  V30 3422 C 312.032 -6.2165 -2.4312 0
M  V30 3423 H 311.302 -0.44962 -0.589001 0
M  V30 3424 H 313.949 -1.63777 -0.992442 0
M  V30 3425 H 312.254 -1.55095 -3.59795 0
M  V30 3426 H 313.951 -1.93303 -3.51333 0
M  V30 3427 H 310.541 -3.20295 -2.84797 0
M  V30 3428 H 314.725 -4.17084 -2.68988 0
M  V30 3429 H 309.981 -5.57311 -2.51424 0
M  V30 3430 H 314.155 -6.5494 -2.36699 0
M  V30 3431 H 311.782 -7.25388 -2.27412 0
M  V30 3432 N 313.357 1.07166 -1.15556 0
M  V30 3433 C 314.267 2.17947 -0.868116 0
M  V30 3434 C 315.283 1.73297 0.156297 0
M  V30 3435 O 316.459 2.01392 -0.0182327 0
M  V30 3436 C 313.524 3.44789 -0.36355 0
M  V30 3437 C 312.585 4.03996 -1.45209 0
M  V30 3438 C 311.818 5.24783 -0.971508 0
M  V30 3439 O 312.041 5.70109 0.182194 0
M  V30 3440 O 310.975 5.75715 -1.75603 0
M  V30 3441 H 314.801 2.4503 -1.79427 0
M  V30 3442 H 312.386 1.16539 -0.934824 0
M  V30 3443 H 314.268 4.21307 -0.0887113 0
M  V30 3444 H 312.943 3.19253 0.534708 0
M  V30 3445 H 311.85 3.29009 -1.78056 0
M  V30 3446 H 313.183 4.33808 -2.32533 0
M  V30 3447 N 314.835 0.952656 1.25548 0
M  V30 3448 C 316.06 0.623025 1.97821 0
M  V30 3449 C 316.485 -0.7976 1.70352 0
M  V30 3450 O 315.843 -1.53905 0.958283 0
M  V30 3451 C 315.891 0.885532 3.49558 0
M  V30 3452 O 314.995 -0.0366641 4.12384 0
M  V30 3453 H 314.336 0.237082 0.620232 0
M  V30 3454 H 316.866 1.27871 1.59719 0
M  V30 3455 H 316.876 0.811009 3.99858 0
M  V30 3456 H 315.551 1.92094 3.6888 0
M  V30 3457 H 314.128 0.0898954 3.72792 0
M  V30 3458 N 316.313 -1.40141 0.720998 0
M  V30 3459 C 317.562 -2.0002 0.259804 0
M  V30 3460 C 317.875 -1.57839 -1.15526 0
M  V30 3461 O 319.081 -2.10455 -1.71525 0
M  V30 3462 C 317.537 -3.57516 0.413566 0
M  V30 3463 C 317.145 -4.08667 1.83562 0
M  V30 3464 C 318.889 -4.24498 0.0134387 0
M  V30 3465 C 316.796 -5.58686 1.93968 0
M  V30 3466 H 315.726 -0.748195 0.0933806 0
M  V30 3467 H 318.377 -1.60313 0.892866 0
M  V30 3468 H 316.759 -3.9495 -0.288169 0
M  V30 3469 H 317.933 -3.82598 2.56817 0
M  V30 3470 H 316.248 -3.543 2.1877 0
M  V30 3471 H 318.845 -5.34654 0.0703954 0
M  V30 3472 H 319.188 -4.03375 -1.02927 0
M  V30 3473 H 319.721 -3.92188 0.665815 0
M  V30 3474 H 316.46 -5.8467 2.96379 0
M  V30 3475 H 315.98 -5.86602 1.25131 0
M  V30 3476 H 317.659 -6.23875 1.71431 0
M  V30 3477 N 317.792 -0.46758 -1.50504 0
M  V30 3478 C 319.032 0.0874114 -2.04213 0
M  V30 3479 C 319.396 1.37301 -1.34211 0
M  V30 3480 O 320.597 2.01015 -1.78456 0
M  V30 3481 C 318.868 0.270571 -3.56374 0
M  V30 3482 S 320.427 0.784623 -4.31728 0
M  V30 3483 H 317.245 0.0176153 -0.710782 0
M  V30 3484 H 319.847 -0.633915 -1.84937 0
M  V30 3485 H 318.551 -0.670942 -4.04878 0
M  V30 3486 H 318.082 1.01811 -3.79997 0
M  V30 3487 H 320.097 2.05849 -4.51487 0
M  V30 3488 N 319.27 1.56325 -0.20005 0
M  V30 3489 C 320.2 2.22318 0.713916 0
M  V30 3490 C 321.181 1.18788 1.21752 0
M  V30 3491 O 322.366 1.47309 1.26545 0
M  V30 3492 C 319.496 2.88639 1.93144 0
M  V30 3493 C 318.45 3.98457 1.56255 0
M  V30 3494 C 317.776 4.51967 2.85709 0
M  V30 3495 C 319.076 5.16612 0.768747 0
M  V30 3496 H 320.77 2.98952 0.163755 0
M  V30 3497 H 318.316 1.43792 0.0773219 0
M  V30 3498 H 320.269 3.33491 2.57608 0
M  V30 3499 H 318.993 2.09419 2.50621 0
M  V30 3500 H 317.652 3.54305 0.941471 0
M  V30 3501 H 317.3 3.69503 3.41287 0
M  V30 3502 H 317 5.26071 2.6177 0
M  V30 3503 H 318.524 4.99523 3.51154 0
M  V30 3504 H 319.938 5.57977 1.3166 0
M  V30 3505 H 318.335 5.96812 0.627286 0
M  V30 3506 H 319.405 4.84358 -0.229168 0
M  V30 3507 N 320.748 -0.0735177 1.57428 0
M  V30 3508 C 321.994 -0.774145 1.87443 0
M  V30 3509 C 322.327 -1.77311 0.792103 0
M  V30 3510 O 321.602 -1.93492 -0.197793 0
M  V30 3511 C 321.885 -1.48367 3.28115 0
M  V30 3512 C 321.738 -0.501227 4.46999 0
M  V30 3513 C 323.057 -2.429 3.66998 0
M  V30 3514 H 320.176 -0.279971 0.681752 0
M  V30 3515 H 322.818 -0.0373616 1.89963 0
M  V30 3516 H 320.968 -2.11171 3.26097 0
M  V30 3517 H 322.64 0.121468 4.6114 0
M  V30 3518 H 320.883 0.183593 4.33411 0
M  V30 3519 H 321.554 -1.03526 5.42205 0
M  V30 3520 H 324.03 -1.90175 3.70098 0
M  V30 3521 H 322.906 -2.89549 4.66318 0
M  V30 3522 H 323.167 -3.27628 2.96837 0
M  V30 3523 N 322.226 -1.5378 -0.344866 0
M  V30 3524 C 323.156 -1.84662 -1.42906 0
M  V30 3525 C 324.137 -0.701648 -1.54955 0
M  V30 3526 O 325.322 -0.953438 -1.69184 0
M  V30 3527 C 322.452 -2.05503 -2.79974 0
M  V30 3528 C 321.406 -3.21318 -2.82734 0
M  V30 3529 C 320.732 -3.2749 -4.22675 0
M  V30 3530 C 322.032 -4.59456 -2.48389 0
M  V30 3531 H 323.726 -2.75461 -1.17311 0
M  V30 3532 H 321.272 -1.32542 -0.562896 0
M  V30 3533 H 323.225 -2.25691 -3.55867 0
M  V30 3534 H 321.949 -1.11434 -3.07002 0
M  V30 3535 H 320.608 -3.00984 -2.09294 0
M  V30 3536 H 320.256 -2.31019 -4.4681 0
M  V30 3537 H 319.956 -4.05316 -4.25433 0
M  V30 3538 H 321.48 -3.49887 -5.00412 0
M  V30 3539 H 322.894 -4.79667 -3.13995 0
M  V30 3540 H 321.291 -5.39675 -2.62432 0
M  V30 3541 H 322.361 -4.63155 -1.4358 0
M  V30 3542 N 323.704 0.605807 -1.45491 0
M  V30 3543 C 324.934 1.38934 -1.52908 0
M  V30 3544 C 325.342 1.88513 -0.161086 0
M  V30 3545 O 324.685 1.62962 0.847891 0
M  V30 3546 C 324.747 2.62737 -2.45376 0
M  V30 3547 C 324.411 2.34785 -3.92078 0
M  V30 3548 C 325.408 1.95038 -4.8193 0
M  V30 3549 C 323.093 2.47642 -4.37011 0
M  V30 3550 C 325.087 1.68511 -6.14722 0
M  V30 3551 C 322.774 2.20728 -5.69844 0
M  V30 3552 C 323.772 1.81225 -6.58519 0
M  V30 3553 O 323.46 1.54627 -7.88889 0
M  V30 3554 H 323.192 0.431629 -0.520262 0
M  V30 3555 H 325.746 0.74573 -1.91384 0
M  V30 3556 H 323.976 3.29824 -2.01874 0
M  V30 3557 H 325.665 3.24783 -2.43456 0
M  V30 3558 H 326.431 1.84639 -4.48479 0
M  V30 3559 H 322.31 2.77356 -3.68232 0
M  V30 3560 H 325.854 1.37602 -6.83894 0
M  V30 3561 H 321.751 2.30744 -6.02849 0
M  V30 3562 H 322.519 1.68665 -8.00933 0
M  V30 3563 N 325.182 1.32811 0.848464 0
M  V30 3564 C 326.092 1.24278 1.98978 0
M  V30 3565 C 327.108 0.155176 1.73307 0
M  V30 3566 O 328.284 0.376999 1.9784 0
M  V30 3567 C 325.349 0.972444 3.32783 0
M  V30 3568 C 324.41 2.14911 3.71634 0
M  V30 3569 C 323.643 1.89157 4.99054 0
M  V30 3570 O 323.866 0.837165 5.64223 0
M  V30 3571 O 322.8 2.75433 5.35183 0
M  V30 3572 H 326.626 2.20238 2.09115 0
M  V30 3573 H 324.211 1.12762 0.980052 0
M  V30 3574 H 326.093 0.838432 4.12975 0
M  V30 3575 H 324.768 0.043051 3.23671 0
M  V30 3576 H 323.675 2.33862 2.91992 0
M  V30 3577 H 325.008 3.06151 3.85399 0
M  V30 3578 N 326.66 -1.06551 1.16123 0
M  V30 3579 C 327.607 -2.13961 0.865414 0
M  V30 3580 C 328.577 -1.65066 -0.185055 0
M  V30 3581 O 329.762 -1.90732 -0.05083 0
M  V30 3582 C 326.902 -3.43113 0.369776 0
M  V30 3583 C 326.015 -4.05756 1.48276 0
M  V30 3584 C 325.15 -5.22773 0.942414 0
M  V30 3585 C 324.189 -5.77395 2.03179 0
M  V30 3586 N 323.326 -6.85731 1.50721 0
M  V30 3587 H 328.166 -2.38605 1.78527 0
M  V30 3588 H 325.703 -1.17072 0.890646 0
M  V30 3589 H 327.661 -4.17151 0.0640643 0
M  V30 3590 H 326.291 -3.18695 -0.513143 0
M  V30 3591 H 325.343 -3.29292 1.9045 0
M  V30 3592 H 326.655 -4.42351 2.30493 0
M  V30 3593 H 325.809 -6.03827 0.589729 0
M  V30 3594 H 324.548 -4.87618 0.0895191 0
M  V30 3595 H 323.553 -4.94981 2.3932 0
M  V30 3596 H 324.778 -6.14603 2.8886 0
M  V30 3597 H 322.724 -6.52499 0.676811 0
M  V30 3598 H 322.641 -7.21254 2.26557 0
M  V30 3599 H 323.909 -7.7047 1.18303 0
M  V30 3600 N 328.138 -0.959301 -1.25041 0
M  V30 3601 C 329.554 -0.664474 -1.4511 0
M  V30 3602 C 329.754 0.776481 -1.85938 0
M  V30 3603 O 328.81 1.55128 -1.99227 0
M  V30 3604 C 330.123 -1.64139 -2.5195 0
M  V30 3605 C 331.671 -1.65309 -2.65786 0
M  V30 3606 C 332.146 -2.61777 -3.75815 0
M  V30 3607 N 333.637 -2.60169 -3.83231 0
M  V30 3608 C 334.372 -3.31489 -4.6787 0
M  V30 3609 N 333.868 -4.12298 -5.56761 0
M  V30 3610 N 335.661 -3.20354 -4.61876 0
M  V30 3611 H 327.812 -1.89043 -0.968332 0
M  V30 3612 H 330.075 -0.813408 -0.4869 0
M  V30 3613 H 329.781 -2.67086 -2.28819 0
M  V30 3614 H 329.655 -1.40756 -3.49954 0
M  V30 3615 H 332.042 -0.630778 -2.8828 0
M  V30 3616 H 332.123 -1.92753 -1.68167 0
M  V30 3617 H 331.767 -3.64137 -3.54071 0
M  V30 3618 H 331.697 -2.31616 -4.72929 0
M  V30 3619 H 334.188 -2.01507 -3.19692 0
M  V30 3620 H 334.501 -4.63625 -6.18281 0
M  V30 3621 H 332.846 -4.16395 -5.56454 0
M  V30 3622 H 336.037 -2.56692 -3.91442 0
M  V30 3623 H 336.21 -3.76201 -5.27614 0
M  V30 3624 N 329.616 1.39756 -0.72842 0
M  V30 3625 C 330.863 2.00645 -0.273487 0
M  V30 3626 C 331.191 1.57786 1.13727 0
M  V30 3627 O 330.446 0.794886 1.7883 0
M  V30 3628 C 330.745 3.56002 -0.315776 0
M  V30 3629 C 330.411 4.18489 -1.67863 0
M  V30 3630 C 329.073 4.3527 -2.05166 0
M  V30 3631 C 331.425 4.53219 -2.57375 0
M  V30 3632 C 328.753 4.84069 -3.31503 0
M  V30 3633 C 331.105 5.03423 -3.83077 0
M  V30 3634 C 329.769 5.18413 -4.20481 0
M  V30 3635 H 329.039 0.734211 -0.100076 0
M  V30 3636 H 331.686 1.6718 -0.933972 0
M  V30 3637 H 329.991 3.89452 0.428285 0
M  V30 3638 H 331.688 4.00963 0.0542575 0
M  V30 3639 H 328.278 4.05824 -1.37858 0
M  V30 3640 H 332.462 4.39878 -2.29827 0
M  V30 3641 H 327.718 4.93859 -3.60435 0
M  V30 3642 H 331.892 5.2927 -4.52599 0
M  V30 3643 H 329.519 5.55987 -5.18443 0
M  V30 3644 N 331.094 0.475555 1.50254 0
M  V30 3645 C 332.342 -0.077738 2.0195 0
M  V30 3646 C 332.663 -1.39813 1.35931 0
M  V30 3647 O 331.933 -1.89249 0.506123 0
M  V30 3648 H 330.513 -0.031719 0.746326 0
M  V30 3649 H 333.175 0.626995 1.84539 0
M  V30 3650 H 332.271 -0.225995 3.11281 0
M  V30 3651 N 332.573 -1.56217 0.208337 0
M  V30 3652 C 333.503 -2.22694 -0.702116 0
M  V30 3653 C 334.484 -1.19432 -1.2112 0
M  V30 3654 O 335.669 -1.47978 -1.25762 0
M  V30 3655 C 332.799 -2.8966 -1.9161 0
M  V30 3656 C 331.753 -3.9928 -1.5414 0
M  V30 3657 C 331.079 -4.53476 -2.83308 0
M  V30 3658 C 332.379 -5.17012 -0.741339 0
M  V30 3659 H 334.073 -2.99034 -0.147898 0
M  V30 3660 H 331.619 -1.43831 -0.0696951 0
M  V30 3661 H 333.572 -3.34852 -2.55836 0
M  V30 3662 H 332.296 -2.10746 -2.49507 0
M  V30 3663 H 330.955 -3.54799 -0.922668 0
M  V30 3664 H 330.603 -3.71308 -3.39322 0
M  V30 3665 H 330.303 -5.27451 -2.58976 0
M  V30 3666 H 331.827 -5.01378 -3.485 0
M  V30 3667 H 333.241 -5.58667 -1.28699 0
M  V30 3668 H 331.638 -5.97137 -0.595627 0
M  V30 3669 H 332.708 -4.8423 0.254851 0
M  V30 3670 N 334.051 0.0651679 -1.57465 0
M  V30 3671 C 334.981 1.07693 -2.07182 0
M  V30 3672 C 335.962 1.39962 -0.966673 0
M  V30 3673 O 337.147 1.49475 -1.2398 0
M  V30 3674 C 334.277 2.3885 -2.52127 0
M  V30 3675 C 333.231 2.20917 -3.66579 0
M  V30 3676 C 332.557 3.57515 -3.97601 0
M  V30 3677 C 333.857 1.62493 -4.9638 0
M  V30 3678 H 335.551 0.663199 -2.91962 0
M  V30 3679 H 333.097 0.317569 -1.40455 0
M  V30 3680 H 335.05 3.09928 -2.85522 0
M  V30 3681 H 333.774 2.82215 -1.64384 0
M  V30 3682 H 332.433 1.52279 -3.33477 0
M  V30 3683 H 332.081 3.98463 -3.06979 0
M  V30 3684 H 331.781 3.46353 -4.74672 0
M  V30 3685 H 333.305 4.30013 -4.33499 0
M  V30 3686 H 334.719 2.23445 -5.27963 0
M  V30 3687 H 333.116 1.62009 -5.77818 0
M  V30 3688 H 334.186 0.587041 -4.81333 0
M  V30 3689 N 335.529 1.53961 0.336706 0
M  V30 3690 C 336.461 1.78751 1.4346 0
M  V30 3691 C 337.474 0.669019 1.48418 0
M  V30 3692 O 338.663 0.945884 1.51378 0
M  V30 3693 C 335.763 1.87844 2.82078 0
M  V30 3694 C 334.936 3.17854 3.00479 0
M  V30 3695 C 333.995 3.17816 4.19379 0
M  V30 3696 O 333.021 3.91511 4.13168 0
M  V30 3697 N 334.223 2.40669 5.2826 0
M  V30 3698 H 336.988 2.73493 1.22563 0
M  V30 3699 H 334.549 1.53096 0.526625 0
M  V30 3700 H 336.541 1.85261 3.59806 0
M  V30 3701 H 335.111 1.00257 2.96086 0
M  V30 3702 H 334.331 3.33504 2.10163 0
M  V30 3703 H 335.619 4.03718 3.0966 0
M  V30 3704 H 335.017 1.8036 5.36178 0
M  V30 3705 H 333.574 2.43877 6.04456 0
M  V30 3706 N 337.007 -0.598083 1.45811 0
M  V30 3707 C 337.954 -1.7082 1.55207 0
M  V30 3708 C 338.924 -1.61278 0.39732 0
M  V30 3709 O 340.109 -1.80717 0.612038 0
M  V30 3710 C 337.249 -3.09144 1.53376 0
M  V30 3711 C 336.362 -3.29423 2.79472 0
M  V30 3712 C 335.497 -4.57907 2.69248 0
M  V30 3713 C 334.536 -4.71476 3.90354 0
M  V30 3714 N 333.673 -5.9127 3.78608 0
M  V30 3715 H 338.513 -1.62125 2.50039 0
M  V30 3716 H 336.05 -0.790389 1.24062 0
M  V30 3717 H 338.008 -3.89186 1.50301 0
M  V30 3718 H 336.638 -3.16773 0.620876 0
M  V30 3719 H 335.69 -2.43091 2.92594 0
M  V30 3720 H 337.002 -3.3532 3.69272 0
M  V30 3721 H 336.156 -5.46157 2.64192 0
M  V30 3722 H 334.895 -4.54423 1.77063 0
M  V30 3723 H 333.9 -3.81648 3.95759 0
M  V30 3724 H 335.125 -4.76751 4.83617 0
M  V30 3725 H 333.071 -5.88813 2.89199 0
M  V30 3726 H 332.988 -5.98369 4.6205 0
M  V30 3727 H 334.256 -6.81992 3.77501 0
M  V30 3728 N 338.485 -1.33259 -0.841409 0
M  V30 3729 C 339.433 -1.23279 -1.97244 0
M  V30 3730 C 340.427 -0.134706 -1.68864 0
M  V30 3731 O 341.633 -0.298501 -1.77508 0
M  V30 3732 H 338.008 -0.382497 -0.647457 0
M  V30 3733 H 339.979 -2.18906 -2.02787 0
M  V30 3734 C 338.728 -0.986268 -3.33419 0
M  V30 3735 H 338.051 -1.82347 -3.55794 0
M  V30 3736 H 339.491 -0.956728 -4.13065 0
M  V30 3737 C 337.95 0.310842 -3.35463 0
M  V30 3738 O 338.48 1.31838 -3.79449 0
M  V30 3739 N 336.686 0.337485 -2.88634 0
M  V30 3740 H 336.233 -0.482967 -2.53032 0
M  V30 3741 H 336.191 1.20518 -2.90384 0
M  V30 3742 N 339.963 1.05934 -1.16686 0
M  V30 3743 C 340.926 2.11669 -0.879144 0
M  V30 3744 C 341.926 1.60294 0.127445 0
M  V30 3745 O 343.116 1.7389 -0.103865 0
M  V30 3746 C 340.248 3.39438 -0.315425 0
M  V30 3747 H 341.441 2.38626 -1.81653 0
M  V30 3748 H 338.994 1.22058 -0.976299 0
M  V30 3749 H 339.729 3.18132 0.629468 0
M  V30 3750 H 339.514 3.78034 -1.04079 0
M  V30 3751 H 341.004 4.17391 -0.132189 0
M  V30 3752 N 341.441 0.965919 1.2453 0
M  V30 3753 C 342.689 0.625593 1.92174 0
M  V30 3754 C 343.01 -0.841652 1.75901 0
M  V30 3755 O 342.28 -1.60061 1.12948 0
M  V30 3756 H 340.86 0.228388 0.71123 0
M  V30 3757 H 343.522 1.2266 1.51461 0
M  V30 3758 H 342.618 0.864653 2.99884 0
M  V30 3759 N 342.919 -1.39368 0.735821 0
M  V30 3760 C 344.196 -1.94465 0.210395 0
M  V30 3761 C 344.576 -1.67254 -1.28799 0
M  V30 3762 O 343.924 -1.00123 -2.05396 0
M  V30 3763 C 344.134 -3.4472 0.544897 0
M  V30 3764 C 345.482 -4.21708 0.494689 0
M  V30 3765 O 346.506 -3.52922 0.482136 0
M  V30 3766 O 345.365 -5.44299 0.489947 0
M  V30 3767 H 342.459 -0.826096 0.0386666 0
M  V30 3768 H 345.005 -1.48863 0.814735 0
M  V30 3769 H 343.777 -3.57963 1.58045 0
M  V30 3770 H 343.4 -3.97502 -0.08837 0
M  V30 3771 N 344.397 -0.483516 -1.5 0
M  V30 3772 C 345.307 0.309172 -2.32554 0
M  V30 3773 C 346.323 0.984159 -1.43493 0
M  V30 3774 O 347.499 0.969399 -1.76535 0
M  V30 3775 C 344.564 1.36979 -3.18493 0
M  V30 3776 C 343.625 0.710095 -4.23387 0
M  V30 3777 C 342.858 1.72018 -5.05218 0
M  V30 3778 O 343.081 2.94813 -4.88305 0
M  V30 3779 O 342.015 1.28515 -5.8802 0
M  V30 3780 H 345.841 -0.366064 -3.01486 0
M  V30 3781 H 343.426 -0.24514 -1.47375 0
M  V30 3782 H 345.308 1.98385 -3.71781 0
M  V30 3783 H 343.983 2.02828 -2.52275 0
M  V30 3784 H 342.89 0.0567539 -3.74057 0
M  V30 3785 H 344.223 0.0943557 -4.9211 0
M  V30 3786 N 345.875 1.56104 -0.216619 0
M  V30 3787 C 346.838 2.18819 0.681962 0
M  V30 3788 C 347.838 1.14866 1.12528 0
M  V30 3789 O 349.028 1.40128 1.03488 0
M  V30 3790 C 346.16 2.80756 1.93362 0
M  V30 3791 H 347.353 2.99595 0.135254 0
M  V30 3792 H 344.906 1.56265 0.0330003 0
M  V30 3793 H 345.641 2.03837 2.52232 0
M  V30 3794 H 345.426 3.56876 1.62426 0
M  V30 3795 H 346.916 3.28844 2.57393 0
M  V30 3796 N 347.353 -0.0568162 1.57498 0
M  V30 3797 C 348.599 -0.75422 1.88253 0
M  V30 3798 C 348.932 -1.76461 0.810865 0
M  V30 3799 O 348.207 -1.93691 -0.177259 0
M  V30 3800 C 348.49 -1.44878 3.2967 0
M  V30 3801 C 348.343 -0.453789 4.47505 0
M  V30 3802 C 349.662 -2.38994 3.69554 0
M  V30 3803 H 346.781 -0.272724 0.684683 0
M  V30 3804 H 349.423 -0.0172113 1.89992 0
M  V30 3805 H 347.573 -2.077 3.28318 0
M  V30 3806 H 349.245 0.170371 4.60985 0
M  V30 3807 H 347.488 0.229552 4.33192 0
M  V30 3808 H 348.159 -0.977699 5.43273 0
M  V30 3809 H 350.635 -1.86239 3.72095 0
M  V30 3810 H 349.511 -2.84587 4.69363 0
M  V30 3811 H 349.772 -3.24461 3.00296 0
M  V30 3812 N 348.832 -1.54138 -0.328536 0
M  V30 3813 C 349.78 -1.83894 -1.42428 0
M  V30 3814 C 350.774 -0.710478 -1.53781 0
M  V30 3815 O 351.98 -0.894062 -1.56226 0
M  V30 3816 H 348.355 -0.582837 -0.475189 0
M  V30 3817 H 350.326 -2.75537 -1.14552 0
M  V30 3818 C 349.075 -2.07866 -2.78724 0
M  V30 3819 H 348.398 -2.94158 -2.7076 0
M  V30 3820 H 349.838 -2.32644 -3.54476 0
M  V30 3821 C 348.297 -0.868689 -3.25508 0
M  V30 3822 O 348.827 -0.0754908 -4.01629 0
M  V30 3823 N 347.033 -0.681711 -2.82491 0
M  V30 3824 H 346.58 -1.32838 -2.20708 0
M  V30 3825 H 346.538 0.126374 -3.14146 0
M  V30 3826 N 350.31 0.590341 -1.46126 0
M  V30 3827 C 351.557 1.34882 -1.5104 0
M  V30 3828 C 351.885 1.93849 -0.159021 0
M  V30 3829 O 351.14 1.76544 0.844436 0
M  V30 3830 C 351.439 2.5032 -2.55097 0
M  V30 3831 C 351.105 2.09394 -3.99331 0
M  V30 3832 C 349.767 1.97947 -4.38601 0
M  V30 3833 C 352.119 1.77712 -4.89967 0
M  V30 3834 C 349.447 1.53065 -5.66381 0
M  V30 3835 C 351.799 1.34312 -6.18177 0
M  V30 3836 C 350.463 1.21436 -6.56361 0
M  V30 3837 H 349.733 0.493568 -0.552695 0
M  V30 3838 H 352.38 0.665539 -1.79563 0
M  V30 3839 H 350.685 3.24062 -2.20207 0
M  V30 3840 H 352.382 3.08541 -2.56132 0
M  V30 3841 H 348.972 2.19235 -3.68285 0
M  V30 3842 H 353.156 1.85445 -4.60352 0
M  V30 3843 H 348.412 1.41733 -5.94745 0
M  V30 3844 H 352.586 1.08849 -6.87841 0
M  V30 3845 H 350.213 0.864345 -7.5527 0
M  V30 3846 N 351.788 1.33704 0.83433 0
M  V30 3847 C 353.037 1.24763 1.58484 0
M  V30 3848 C 353.35 -0.183775 1.94735 0
M  V30 3849 O 354.556 -0.395234 2.68608 0
M  V30 3850 C 353.012 2.18638 2.85876 0
M  V30 3851 C 352.62 3.66974 2.56971 0
M  V30 3852 C 354.364 2.18581 3.63899 0
M  V30 3853 C 352.271 4.5275 3.80488 0
M  V30 3854 H 351.201 0.463425 0.594772 0
M  V30 3855 H 353.852 1.58797 0.919551 0
M  V30 3856 H 352.234 1.77542 3.5397 0
M  V30 3857 H 353.408 4.16538 1.9706 0
M  V30 3858 H 351.723 3.69366 1.92244 0
M  V30 3859 H 354.32 2.79894 4.55591 0
M  V30 3860 H 354.663 1.18207 3.99165 0
M  V30 3861 H 355.196 2.58062 3.02735 0
M  V30 3862 H 351.935 5.54017 3.5035 0
M  V30 3863 H 351.455 4.07927 4.39722 0
M  V30 3864 H 353.134 4.66784 4.4802 0
M  V30 3865 N 353.266 -1.05314 1.17247 0
M  V30 3866 C 354.199 -2.12512 0.831507 0
M  V30 3867 C 355.177 -1.61351 -0.201168 0
M  V30 3868 O 356.361 -1.88317 -0.0829831 0
M  V30 3869 C 353.488 -3.37848 0.24015 0
M  V30 3870 C 352.534 -4.07832 1.24801 0
M  V30 3871 S 353.367 -4.56537 2.79882 0
M  V30 3872 C 354.523 -5.85122 2.22223 0
M  V30 3873 H 354.756 -2.41106 1.7394 0
M  V30 3874 H 352.289 -1.17896 0.996988 0
M  V30 3875 H 354.247 -4.10391 -0.0945588 0
M  V30 3876 H 352.908 -3.07392 -0.645668 0
M  V30 3877 H 352.101 -4.97883 0.78287 0
M  V30 3878 H 351.703 -3.41348 1.52831 0
M  V30 3879 H 353.995 -6.58408 1.59703 0
M  V30 3880 H 354.938 -6.36381 3.10523 0
M  V30 3881 H 355.346 -5.39626 1.65722 0
M  V30 3882 N 354.744 -0.972509 -1.24016 0
M  V30 3883 C 355.707 -0.511403 -2.23422 0
M  V30 3884 C 356.707 0.394679 -1.55881 0
M  V30 3885 O 357.897 0.189469 -1.73167 0
M  V30 3886 C 355.029 0.258769 -3.39916 0
M  V30 3887 H 356.222 -1.39024 -2.6573 0
M  V30 3888 H 353.775 -0.757585 -1.36713 0
M  V30 3889 H 354.51 1.1545 -3.03054 0
M  V30 3890 H 354.295 -0.391522 -3.9014 0
M  V30 3891 H 355.785 0.570244 -4.13688 0
M  V30 3892 N 356.222 1.38976 -0.743202 0
M  V30 3893 C 357.471 1.99581 -0.291592 0
M  V30 3894 C 357.784 1.59656 1.13001 0
M  V30 3895 O 358.99 2.13157 1.68156 0
M  V30 3896 C 357.446 3.56813 -0.470391 0
M  V30 3897 C 357.054 4.05695 -1.90041 0
M  V30 3898 C 358.798 4.24423 -0.0809709 0
M  V30 3899 C 356.705 5.5553 -2.02832 0
M  V30 3900 H 355.635 0.746615 -0.105272 0
M  V30 3901 H 358.286 1.58872 -0.918258 0
M  V30 3902 H 356.668 3.95359 0.225299 0
M  V30 3903 H 357.842 3.78464 -2.62872 0
M  V30 3904 H 356.157 3.50775 -2.24379 0
M  V30 3905 H 358.754 5.34474 -0.155445 0
M  V30 3906 H 359.097 4.04962 0.96497 0
M  V30 3907 H 359.63 3.9108 -0.728124 0
M  V30 3908 H 356.369 5.79881 -3.05643 0
M  V30 3909 H 355.889 5.84537 -1.34448 0
M  V30 3910 H 357.568 6.21069 -1.81335 0
M  V30 3911 N 357.7 0.491464 1.49741 0
M  V30 3912 C 358.647 -0.292027 2.28945 0
M  V30 3913 C 359.617 -0.968973 1.34908 0
M  V30 3914 O 360.802 -0.97748 1.6386 0
M  V30 3915 C 357.942 -1.35617 3.17336 0
M  V30 3916 C 357.055 -0.691957 4.26422 0
M  V30 3917 C 356.19 -1.73572 5.02042 0
M  V30 3918 C 355.229 -1.05286 6.02977 0
M  V30 3919 N 354.366 -2.0404 6.71798 0
M  V30 3920 H 359.206 0.389654 2.95442 0
M  V30 3921 H 356.743 0.204003 1.45679 0
M  V30 3922 H 358.701 -1.98502 3.66951 0
M  V30 3923 H 357.331 -2.00674 2.52844 0
M  V30 3924 H 356.383 0.0499523 3.80367 0
M  V30 3925 H 357.695 -0.153946 4.98562 0
M  V30 3926 H 356.849 -2.43987 5.55478 0
M  V30 3927 H 355.588 -2.30757 4.29654 0
M  V30 3928 H 354.593 -0.334446 5.48782 0
M  V30 3929 H 355.818 -0.487636 6.77347 0
M  V30 3930 H 353.764 -2.60205 6.02187 0
M  V30 3931 H 353.681 -1.55279 7.39881 0
M  V30 3932 H 354.949 -2.73772 7.29842 0
M  V30 3933 N 359.178 -1.55987 0.224894 0
M  V30 3934 C 360.406 -2.02784 -0.410665 0
M  V30 3935 C 360.821 -1.10464 -1.53112 0
M  V30 3936 O 360.178 -0.114871 -1.82138 0
M  V30 3937 C 360.229 -3.49087 -0.939165 0
M  V30 3938 O 359.95 -4.37887 0.136614 0
M  V30 3939 C 361.451 -4.11543 -1.64763 0
M  V30 3940 H 358.671 -0.663484 -0.100148 0
M  V30 3941 H 361.215 -2.01614 0.342326 0
M  V30 3942 H 359.37 -3.50861 -1.64242 0
M  V30 3943 H 359.784 -5.23849 -0.261155 0
M  V30 3944 H 361.258 -5.15673 -1.96939 0
M  V30 3945 H 361.735 -3.56736 -2.56195 0
M  V30 3946 H 362.341 -4.13629 -0.989503 0
M  V30 3947 N 360.656 0.0484629 -1.57525 0
M  V30 3948 C 361.589 1.08755 -2.00618 0
M  V30 3949 C 362.567 1.36272 -0.887058 0
M  V30 3950 O 363.751 1.49255 -1.15131 0
M  V30 3951 C 360.878 2.42675 -2.36277 0
M  V30 3952 C 359.924 2.31142 -3.58435 0
M  V30 3953 S 360.757 1.68326 -5.08357 0
M  V30 3954 C 361.913 3.03776 -5.47239 0
M  V30 3955 H 362.146 0.720415 -2.88439 0
M  V30 3956 H 359.679 0.257801 -1.52233 0
M  V30 3957 H 361.637 3.19699 -2.57494 0
M  V30 3958 H 360.298 2.76541 -1.48942 0
M  V30 3959 H 359.491 3.29957 -3.80978 0
M  V30 3960 H 359.093 1.62258 -3.36969 0
M  V30 3961 H 361.385 4.00106 -5.46737 0
M  V30 3962 H 362.328 2.85988 -6.47778 0
M  V30 3963 H 362.736 3.05456 -4.74718 0
M  V30 3964 N 362.134 1.5431 0.320358 0
M  V30 3965 C 363.067 1.78769 1.41834 0
M  V30 3966 C 364.045 0.63783 1.49568 0
M  V30 3967 O 365.229 0.875628 1.66928 0
M  V30 3968 C 362.356 1.90712 2.79905 0
M  V30 3969 C 361.402 3.13023 2.89687 0
M  V30 3970 S 362.235 4.71554 2.53766 0
M  V30 3971 C 363.391 4.86408 3.93902 0
M  V30 3972 H 363.624 2.71619 1.20874 0
M  V30 3973 H 361.157 1.45474 0.517377 0
M  V30 3974 H 363.115 1.98279 3.59438 0
M  V30 3975 H 361.776 0.988343 2.98145 0
M  V30 3976 H 360.969 3.18124 3.90913 0
M  V30 3977 H 360.571 3.03803 2.18128 0
M  V30 3978 H 362.863 4.69241 4.88691 0
M  V30 3979 H 363.806 5.88508 3.93782 0
M  V30 3980 H 364.214 4.14689 3.83005 0
M  V30 3981 N 363.613 -0.582584 1.46437 0
M  V30 3982 C 364.838 -1.37168 1.55563 0
M  V30 3983 C 365.263 -1.87061 0.19743 0
M  V30 3984 O 364.621 -1.61572 -0.822451 0
M  V30 3985 C 364.669 -2.53511 2.56446 0
M  V30 3986 O 363.773 -3.54953 2.09958 0
M  V30 3987 H 363.114 -0.408494 0.523477 0
M  V30 3988 H 365.644 -0.706646 1.9201 0
M  V30 3989 H 365.654 -3.00426 2.76058 0
M  V30 3990 H 364.329 -2.16549 3.55076 0
M  V30 3991 H 362.906 -3.14516 2.00334 0
M  V30 3992 N 365.091 -1.34144 -0.827227 0
M  V30 3993 C 366.319 -1.29325 -1.61501 0
M  V30 3994 C 366.734 0.13354 -1.88327 0
M  V30 3995 O 366.091 1.0793 -1.47164 0
M  V30 3996 C 366.142 -2.07746 -2.95844 0
M  V30 3997 O 365.863 -3.4486 -2.70191 0
M  V30 3998 C 367.364 -2.10273 -3.90256 0
M  V30 3999 H 364.584 -0.445069 -0.50215 0
M  V30 4000 H 367.128 -1.76693 -1.02955 0
M  V30 4001 H 365.283 -1.6403 -3.5096 0
M  V30 4002 H 365.697 -3.85345 -3.55822 0
M  V30 4003 H 367.171 -2.69575 -4.81698 0
M  V30 4004 H 367.648 -1.096 -4.25305 0
M  V30 4005 H 368.254 -2.54059 -3.41078 0
M  V30 4006 N 366.569 1.04691 -1.17803 0
M  V30 4007 C 367.816 1.77782 -0.969532 0
M  V30 4008 C 368.144 1.87926 0.501401 0
M  V30 4009 O 367.399 1.37918 1.38842 0
M  V30 4010 C 367.698 3.21467 -1.56186 0
M  V30 4011 C 367.364 3.3137 -3.05786 0
M  V30 4012 C 366.026 3.3378 -3.46619 0
M  V30 4013 C 368.378 3.31976 -4.01797 0
M  V30 4014 C 365.706 3.34431 -4.82051 0
M  V30 4015 C 368.058 3.34167 -5.37136 0
M  V30 4016 C 366.722 3.34866 -5.77426 0
M  V30 4017 H 365.992 0.650549 -0.354777 0
M  V30 4018 H 368.639 1.23006 -1.46772 0
M  V30 4019 H 366.944 3.79203 -0.985515 0
M  V30 4020 H 368.641 3.76652 -1.37602 0
M  V30 4021 H 365.231 3.3021 -2.73238 0
M  V30 4022 H 369.415 3.29311 -3.71306 0
M  V30 4023 H 364.671 3.33285 -5.12573 0
M  V30 4024 H 368.845 3.33585 -6.11305 0
M  V30 4025 H 366.472 3.35124 -6.82346 0
M  V30 4026 N 368.047 0.979072 1.23499 0
M  V30 4027 C 369.295 0.645941 1.91499 0
M  V30 4028 C 369.616 -0.822948 1.76784 0
M  V30 4029 O 368.886 -1.58854 1.14639 0
M  V30 4030 H 367.466 0.235919 0.708767 0
M  V30 4031 H 370.128 1.2426 1.50152 0
M  V30 4032 H 369.224 0.896411 2.9895 0
M  V30 4033 N 369.525 -1.3858 0.750561 0
M  V30 4034 C 370.941 -1.53759 0.427824 0
M  V30 4035 C 371.141 -1.71401 -1.05943 0
M  V30 4036 O 370.197 -1.72331 -1.84549 0
M  V30 4037 C 371.51 -2.74642 1.22443 0
M  V30 4038 C 373.058 -2.88489 1.2142 0
M  V30 4039 C 373.533 -4.12329 1.9937 0
M  V30 4040 N 375.024 -4.194 1.96616 0
M  V30 4041 C 375.759 -5.14209 2.53727 0
M  V30 4042 N 375.255 -6.14709 3.19539 0
M  V30 4043 N 377.048 -5.06537 2.43673 0
M  V30 4044 H 369.199 -1.25377 1.71447 0
M  V30 4045 H 371.462 -0.608844 0.726645 0
M  V30 4046 H 371.168 -2.68 2.27747 0
M  V30 4047 H 371.042 -3.67745 0.839273 0
M  V30 4048 H 373.429 -2.94614 0.169232 0
M  V30 4049 H 373.51 -1.96406 1.63885 0
M  V30 4050 H 373.154 -4.06966 3.03877 0
M  V30 4051 H 373.084 -5.03486 1.54302 0
M  V30 4052 H 375.575 -3.47421 1.48684 0
M  V30 4053 H 375.888 -6.8354 3.60545 0
M  V30 4054 H 374.233 -6.1505 3.23633 0
M  V30 4055 H 377.424 -4.26962 1.91889 0
M  V30 4056 H 377.597 -5.80245 2.88479 0
M  V30 4057 N 371.003 -0.499398 -1.49478 0
M  V30 4058 C 371.936 0.326491 -2.25852 0
M  V30 4059 C 372.914 0.971776 -1.30366 0
M  V30 4060 O 374.098 1.00219 -1.59651 0
M  V30 4061 C 371.225 1.45969 -3.05632 0
M  V30 4062 C 370.271 0.928938 -4.16261 0
M  V30 4063 S 371.104 -0.179012 -5.35201 0
M  V30 4064 C 372.26 0.957389 -6.18534 0
M  V30 4065 H 372.493 -0.321746 -2.95554 0
M  V30 4066 H 370.026 -0.284674 -1.51753 0
M  V30 4067 H 371.984 2.109 -3.52181 0
M  V30 4068 H 370.645 2.07953 -2.35402 0
M  V30 4069 H 369.838 1.77813 -4.71592 0
M  V30 4070 H 369.44 0.356869 -3.72293 0
M  V30 4071 H 371.732 1.86296 -6.51383 0
M  V30 4072 H 372.675 0.442733 -7.06715 0
M  V30 4073 H 373.083 1.224 -5.5107 0
M  V30 4074 N 372.481 1.55866 -0.233164 0
M  V30 4075 C 373.414 2.16794 0.712442 0
M  V30 4076 C 374.392 1.1158 1.18273 0
M  V30 4077 O 375.576 1.39897 1.26337 0
M  V30 4078 C 372.703 2.75757 1.96661 0
M  V30 4079 C 371.749 3.93902 1.63533 0
M  V30 4080 S 372.582 5.30223 0.74995 0
M  V30 4081 C 373.738 5.92631 2.01343 0
M  V30 4082 H 373.971 2.96662 0.194617 0
M  V30 4083 H 371.504 1.5439 -0.0177425 0
M  V30 4084 H 373.462 3.10367 2.68668 0
M  V30 4085 H 372.123 1.9586 2.45556 0
M  V30 4086 H 371.316 4.33702 2.56747 0
M  V30 4087 H 370.918 3.60499 0.995804 0
M  V30 4088 H 373.21 6.09312 2.96219 0
M  V30 4089 H 374.153 6.88388 1.65915 0
M  V30 4090 H 374.561 5.21571 2.15925 0
M  V30 4091 N 373.959 -0.0401083 1.57549 0
M  V30 4092 C 375.205 -0.734211 1.89043 0
M  V30 4093 C 375.538 -1.75591 0.829535 0
M  V30 4094 O 374.813 -1.93868 -0.156706 0
M  V30 4095 C 375.096 -1.41374 3.31188 0
M  V30 4096 C 374.949 -0.406299 4.47961 0
M  V30 4097 C 376.268 -2.35061 3.72068 0
M  V30 4098 H 373.387 -0.265447 0.687537 0
M  V30 4099 H 376.029 0.00294087 1.9 0
M  V30 4100 H 374.179 -2.04206 3.30503 0
M  V30 4101 H 375.851 0.219255 4.60779 0
M  V30 4102 H 374.094 0.275485 4.32924 0
M  V30 4103 H 374.765 -0.920022 5.44279 0
M  V30 4104 H 377.241 -1.82282 3.74049 0
M  V30 4105 H 376.117 -2.79593 4.72355 0
M  V30 4106 H 376.378 -3.21258 3.0372 0
M  V30 4107 N 375.437 -1.54477 -0.31217 0
M  V30 4108 C 376.665 -1.77205 -1.068 0
M  V30 4109 C 377.08 -0.526114 -1.81321 0
M  V30 4110 O 376.437 0.503647 -1.75413 0
M  V30 4111 C 376.488 -2.97253 -2.05725 0
M  V30 4112 O 376.209 -4.1703 -1.34228 0
M  V30 4113 C 377.71 -3.32281 -2.93435 0
M  V30 4114 H 374.93 -0.591287 -0.317208 0
M  V30 4115 H 377.474 -2.01398 -0.354834 0
M  V30 4116 H 375.629 -2.753 -2.72559 0
M  V30 4117 H 376.043 -4.84636 -2.00571 0
M  V30 4118 H 377.517 -4.19551 -3.58721 0
M  V30 4119 H 377.994 -2.49945 -3.61143 0
M  V30 4120 H 378.6 -3.56353 -2.32147 0
M  V30 4121 N 376.915 0.57481 -1.46744 0
M  V30 4122 C 378.326 1.15695 -1.46532 0
M  V30 4123 C 378.677 1.95068 -0.210425 0
M  V30 4124 O 377.802 2.05241 0.685944 0
M  V30 4125 C 378.397 2.1048 -2.65487 0
M  V30 4126 C 376.956 2.64002 -2.68291 0
M  V30 4127 C 376.103 1.40026 -2.39349 0
M  V30 4128 H 379.054 0.362325 -1.54509 0
M  V30 4129 H 379.075 2.94074 -2.41455 0
M  V30 4130 H 378.587 1.52683 -3.56805 0
M  V30 4131 H 376.688 3.25646 -1.81067 0
M  V30 4132 H 376.801 3.06197 -3.68483 0
M  V30 4133 H 375.165 1.70106 -1.89568 0
M  V30 4134 H 375.948 0.840485 -3.32852 0
M  V30 4135 N 378.394 1.34581 0.820102 0
M  V30 4136 C 379.64 1.27285 1.57881 0
M  V30 4137 C 379.973 -0.156137 1.93571 0
M  V30 4138 O 379.248 -1.10222 1.60254 0
M  V30 4139 C 379.531 2.16639 2.87645 0
M  V30 4140 C 379.384 3.68088 2.58517 0
M  V30 4141 C 380.703 2.05378 3.8924 0
M  V30 4142 H 377.822 0.463714 0.572833 0
M  V30 4143 H 380.464 1.64859 0.944539 0
M  V30 4144 H 378.614 1.84725 3.41773 0
M  V30 4145 H 380.286 4.10382 2.10676 0
M  V30 4146 H 378.529 3.89038 1.91917 0
M  V30 4147 H 379.2 4.2598 3.51063 0
M  V30 4148 H 381.676 2.33404 3.44473 0
M  V30 4149 H 380.552 2.7012 4.77835 0
M  V30 4150 H 380.813 1.0316 4.29896 0
M  V30 4151 N 379.872 -1.04064 1.18357 0
M  V30 4152 C 380.782 -2.15569 0.925596 0
M  V30 4153 C 381.798 -1.7365 -0.110295 0
M  V30 4154 O 382.974 -2.01273 0.0716218 0
M  V30 4155 C 380.039 -3.43704 0.454836 0
M  V30 4156 C 379.1 -4.00004 1.55869 0
M  V30 4157 C 378.333 -5.22023 1.1103 0
M  V30 4158 O 378.556 -5.70392 -0.0309756 0
M  V30 4159 O 377.49 -5.70856 1.90805 0
M  V30 4160 H 381.316 -2.40187 1.8586 0
M  V30 4161 H 378.901 -1.1402 0.965394 0
M  V30 4162 H 380.783 -4.20923 0.200382 0
M  V30 4163 H 379.458 -3.20559 -0.449876 0
M  V30 4164 H 378.365 -3.24172 1.86716 0
M  V30 4165 H 379.698 -4.2749 2.43953 0
M  V30 4166 N 381.35 -0.985608 -1.22978 0
M  V30 4167 C 382.28 -0.549649 -2.26939 0
M  V30 4168 C 383.261 0.419803 -1.64838 0
M  V30 4169 O 384.446 0.31203 -1.91677 0
M  V30 4170 C 381.576 0.143652 -3.47003 0
M  V30 4171 C 380.53 -0.743606 -4.21491 0
M  V30 4172 C 379.856 0.0822027 -5.34637 0
M  V30 4173 C 381.156 -2.03694 -4.80943 0
M  V30 4174 H 382.85 -1.41862 -2.63658 0
M  V30 4175 H 380.396 -0.683571 -1.26741 0
M  V30 4176 H 382.349 0.459985 -4.18882 0
M  V30 4177 H 381.073 1.04711 -3.09359 0
M  V30 4178 H 379.732 -1.04347 -3.51436 0
M  V30 4179 H 379.38 0.986359 -4.93234 0
M  V30 4180 H 379.08 -0.508377 -5.85397 0
M  V30 4181 H 380.604 0.392797 -6.09335 0
M  V30 4182 H 382.018 -1.78504 -5.44802 0
M  V30 4183 H 380.415 -2.57573 -5.42011 0
M  V30 4184 H 381.485 -2.72042 -4.01399 0
M  V30 4185 N 382.828 1.3818 -0.7579 0
M  V30 4186 C 383.778 2.27741 -0.108674 0
M  V30 4187 C 384.762 1.45415 0.688709 0
M  V30 4188 O 385.954 1.68108 0.553956 0
M  V30 4189 C 383.083 3.34313 0.780367 0
M  V30 4190 C 382.169 4.24093 -0.0240977 0
M  V30 4191 N 382.56 4.9451 -1.06271 0
M  V30 4192 C 380.858 4.45542 0.202049 0
M  V30 4193 C 381.559 5.60675 -1.54979 0
M  V30 4194 N 380.535 5.36684 -0.864348 0
M  V30 4195 H 384.337 2.79649 -0.904071 0
M  V30 4196 H 381.851 1.51133 -0.594346 0
M  V30 4197 H 383.848 3.97368 1.26114 0
M  V30 4198 H 382.508 2.83962 1.57467 0
M  V30 4199 H 383.519 4.97345 -1.44459 0
M  V30 4200 H 380.196 4.06091 0.96935 0
M  V30 4201 H 381.586 6.26992 -2.41517 0
M  V30 4202 N 384.306 0.507319 1.49211 0
M  V30 4203 C 385.253 -0.267728 2.29242 0
M  V30 4204 C 386.223 -0.954609 1.35928 0
M  V30 4205 O 387.408 -0.960046 1.64887 0
M  V30 4206 C 384.548 -1.32243 3.18756 0
M  V30 4207 C 383.661 -0.64669 4.27132 0
M  V30 4208 C 382.796 -1.68238 5.03855 0
M  V30 4209 C 381.835 -0.98885 6.0406 0
M  V30 4210 N 380.972 -1.96903 6.73924 0
M  V30 4211 H 385.812 0.420968 2.95012 0
M  V30 4212 H 383.349 0.219443 1.45454 0
M  V30 4213 H 385.307 -1.94599 3.69036 0
M  V30 4214 H 383.937 -1.97981 2.54958 0
M  V30 4215 H 382.989 0.0902926 3.80293 0
M  V30 4216 H 384.301 -0.101058 4.98698 0
M  V30 4217 H 383.455 -2.38081 5.58034 0
M  V30 4218 H 382.194 -2.26187 4.32077 0
M  V30 4219 H 381.199 -0.276222 5.49106 0
M  V30 4220 H 382.424 -0.415767 6.77826 0
M  V30 4221 H 380.37 -2.53803 6.04913 0
M  V30 4222 H 380.287 -1.47423 7.41487 0
M  V30 4223 H 381.555 -2.66015 7.32705 0
M  V30 4224 N 385.784 -1.5574 0.241426 0
M  V30 4225 C 387.009 -2.0366 -0.392111 0
M  V30 4226 C 387.434 -1.11969 -1.51144 0
M  V30 4227 O 386.792 -0.111594 -1.80956 0
M  V30 4228 C 386.84 -3.49638 -0.882371 0
M  V30 4229 O 385.944 -3.6108 -1.99235 0
M  V30 4230 H 385.285 -0.658379 -0.0862122 0
M  V30 4231 H 387.815 -2.01302 0.365881 0
M  V30 4232 H 387.825 -3.90351 -1.18702 0
M  V30 4233 H 386.5 -4.15852 -0.0632361 0
M  V30 4234 H 385.077 -3.32262 -1.69282 0
M  V30 4235 N 387.262 0.0317525 -1.57568 0
M  V30 4236 C 388.192 1.03274 -2.0942 0
M  V30 4237 C 389.173 1.3788 -0.996143 0
M  V30 4238 O 390.358 1.46811 -1.27122 0
M  V30 4239 C 387.488 2.33448 -2.57137 0
M  V30 4240 C 386.442 2.13091 -3.71182 0
M  V30 4241 C 385.768 3.49001 -4.05095 0
M  V30 4242 C 387.068 1.51928 -4.99715 0
M  V30 4243 H 388.762 0.60112 -2.93303 0
M  V30 4244 H 386.308 0.287705 -1.41097 0
M  V30 4245 H 388.261 3.03802 -2.92032 0
M  V30 4246 H 386.985 2.78665 -1.70333 0
M  V30 4247 H 385.644 1.45171 -3.36632 0
M  V30 4248 H 385.292 3.91862 -3.15362 0
M  V30 4249 H 384.992 3.36207 -4.81911 0
M  V30 4250 H 386.516 4.20721 -4.42522 0
M  V30 4251 H 387.93 2.12196 -5.32584 0
M  V30 4252 H 386.327 1.49716 -5.81124 0
M  V30 4253 H 387.397 0.484811 -4.8247 0
M  V30 4254 N 388.74 1.54641 0.303973 0
M  V30 4255 C 389.688 1.86137 1.39484 0
M  V30 4256 C 390.682 0.734854 1.52631 0
M  V30 4257 O 391.888 0.918803 1.54784 0
M  V30 4258 H 388.263 0.590324 0.465856 0
M  V30 4259 H 390.234 2.77324 1.10154 0
M  V30 4260 C 388.983 2.12274 2.75382 0
M  V30 4261 H 388.306 2.98429 2.66046 0
M  V30 4262 H 389.746 2.38254 3.5073 0
M  V30 4263 C 388.205 0.920365 3.24085 0
M  V30 4264 O 388.735 0.139377 4.01458 0
M  V30 4265 N 386.941 0.726566 2.81371 0
M  V30 4266 H 386.488 1.36332 2.18567 0
M  V30 4267 H 386.446 -0.0763799 3.14307 0
M  V30 4268 N 390.218 -0.567019 1.47046 0
M  V30 4269 C 391.446 -1.35027 1.56765 0
M  V30 4270 C 391.861 -1.8758 0.214316 0
M  V30 4271 O 391.218 -1.64471 -0.790919 0
M  V30 4272 C 391.269 -2.52698 2.58507 0
M  V30 4273 O 390.99 -2.0232 3.88585 0
M  V30 4274 C 392.491 -3.45043 2.78316 0
M  V30 4275 H 389.711 -0.41195 0.529658 0
M  V30 4276 H 392.255 -0.687832 1.92585 0
M  V30 4277 H 390.41 -3.149 2.25648 0
M  V30 4278 H 390.824 -2.79068 4.44096 0
M  V30 4279 H 392.298 -4.2405 3.53391 0
M  V30 4280 H 392.775 -3.97971 1.85784 0
M  V30 4281 H 393.381 -2.88665 3.12334 0
M  V30 4282 N 391.696 -1.35014 -0.812953 0
M  V30 4283 C 392.643 -1.27412 -1.92444 0
M  V30 4284 C 393.613 -0.14733 -1.65445 0
M  V30 4285 O 394.798 -0.329974 -1.87925 0
M  V30 4286 C 391.938 -1.04558 -3.28879 0
M  V30 4287 C 391.051 -2.26101 -3.68106 0
M  V30 4288 C 390.186 -1.96449 -4.9354 0
M  V30 4289 C 389.225 -3.14081 -5.25376 0
M  V30 4290 N 388.362 -2.84246 -6.41988 0
M  V30 4291 H 393.202 -2.22463 -1.98278 0
M  V30 4292 H 390.739 -1.10593 -0.969933 0
M  V30 4293 H 392.697 -0.893413 -4.07522 0
M  V30 4294 H 391.327 -0.131719 -3.22531 0
M  V30 4295 H 390.379 -2.52204 -2.84775 0
M  V30 4296 H 391.691 -3.13959 -3.87597 0
M  V30 4297 H 390.845 -1.78026 -5.79993 0
M  V30 4298 H 389.584 -1.05867 -4.76071 0
M  V30 4299 H 388.589 -3.33089 -4.37415 0
M  V30 4300 H 389.814 -4.05455 -5.44778 0
M  V30 4301 H 387.76 -1.96252 -6.25956 0
M  V30 4302 H 387.677 -3.65637 -6.61699 0
M  V30 4303 H 388.945 -2.6935 -7.31485 0
M  V30 4304 N 393.175 1.03435 -1.18907 0
M  V30 4305 C 394.421 1.77005 -0.989798 0
M  V30 4306 C 394.754 1.88205 0.478816 0
M  V30 4307 O 394.029 1.39481 1.35556 0
M  V30 4308 C 394.312 3.19925 -1.65287 0
M  V30 4309 C 394.165 3.1663 -3.19477 0
M  V30 4310 C 395.484 4.18189 -1.37134 0
M  V30 4311 H 392.603 0.642538 -0.360991 0
M  V30 4312 H 395.245 1.20784 -1.46667 0
M  V30 4313 H 393.395 3.67929 -1.24741 0
M  V30 4314 H 395.067 2.76567 -3.692 0
M  V30 4315 H 393.31 2.54491 -3.51307 0
M  V30 4316 H 393.981 4.1758 -3.61013 0
M  V30 4317 H 396.457 3.78761 -1.72276 0
M  V30 4318 H 395.333 5.16394 -1.86087 0
M  V30 4319 H 395.594 4.41112 -0.295424 0
M  V30 4320 N 394.653 0.992116 1.22453 0
M  V30 4321 C 395.899 0.678177 1.91761 0
M  V30 4322 C 396.254 -0.781141 1.75829 0
M  V30 4323 O 395.547 -1.55747 1.11595 0
M  V30 4324 C 395.741 1.01832 3.42586 0
M  V30 4325 C 395.57 2.50916 3.73191 0
M  V30 4326 C 394.34 3.17308 3.93248 0
M  V30 4327 C 396.538 3.49032 3.77732 0
M  V30 4328 N 394.52 4.55876 4.11157 0
M  V30 4329 C 395.891 4.73055 4.00773 0
M  V30 4330 C 397.946 3.43349 3.60577 0
M  V30 4331 C 396.649 5.92089 4.0844 0
M  V30 4332 C 398.675 4.61759 3.69503 0
M  V30 4333 C 398.037 5.84582 3.92993 0
M  V30 4334 H 394.136 0.299425 0.722405 0
M  V30 4335 H 396.72 1.27197 1.47408 0
M  V30 4336 H 394.891 0.453118 3.85748 0
M  V30 4337 H 396.623 0.660454 3.99274 0
M  V30 4338 H 393.378 2.67778 3.9063 0
M  V30 4339 H 393.802 5.27748 4.24042 0
M  V30 4340 H 398.444 2.49408 3.41402 0
M  V30 4341 H 396.162 6.86435 4.26418 0
M  V30 4342 H 399.748 4.58951 3.57569 0
M  V30 4343 H 398.628 6.74676 3.99728 0
M  V30 4344 N 396.131 -1.37776 0.765217 0
M  V30 4345 C 397.063 -2.28958 0.105361 0
M  V30 4346 C 398.076 -1.48316 -0.67128 0
M  V30 4347 O 399.265 -1.71046 -0.51045 0
M  V30 4348 C 396.365 -3.27421 -0.874569 0
M  V30 4349 C 395.538 -4.37132 -0.153123 0
M  V30 4350 C 394.597 -5.1571 -1.04547 0
M  V30 4351 O 393.623 -5.66896 -0.511672 0
M  V30 4352 N 394.825 -5.29808 -2.37243 0
M  V30 4353 H 397.59 -2.86227 0.888495 0
M  V30 4354 H 395.151 -1.49682 0.617 0
M  V30 4355 H 397.143 -3.7687 -1.47483 0
M  V30 4356 H 395.713 -2.70967 -1.55871 0
M  V30 4357 H 394.933 -3.89166 0.627975 0
M  V30 4358 H 396.221 -5.07625 0.345643 0
M  V30 4359 H 395.619 -4.89793 -2.83054 0
M  V30 4360 H 394.176 -5.82589 -2.9229 0
M  V30 4361 N 397.609 -0.515225 -1.4894 0
M  V30 4362 C 398.886 0.0879088 -1.95402 0
M  V30 4363 C 399.266 1.52745 -1.45712 0
M  V30 4364 O 398.614 2.18238 -0.677093 0
M  V30 4365 C 398.824 -0.0141055 -3.48997 0
M  V30 4366 C 400.172 0.152646 -4.24326 0
M  V30 4367 O 401.196 0.0604025 -3.56149 0
M  V30 4368 O 400.055 0.34384 -5.45417 0
M  V30 4369 H 397.149 0.0874636 -0.822362 0
M  V30 4370 H 399.695 -0.578775 -1.59525 0
M  V30 4371 H 398.467 -1.01745 -3.77841 0
M  V30 4372 H 398.09 0.692091 -3.9153 0
M  V30 4373 N 399.087 1.5561 -0.249682 0
M  V30 4374 C 400.037 2.18157 0.662673 0
M  V30 4375 C 401.021 1.1383 1.13717 0
M  V30 4376 O 402.213 1.39731 1.08648 0
M  V30 4377 C 399.342 2.88672 1.85805 0
M  V30 4378 C 398.428 4.00258 1.40193 0
M  V30 4379 N 398.819 5.01473 0.660213 0
M  V30 4380 C 397.117 4.12864 1.68698 0
M  V30 4381 C 397.818 5.80155 0.423695 0
M  V30 4382 N 396.794 5.34533 0.988721 0
M  V30 4383 H 400.596 2.93769 0.0878688 0
M  V30 4384 H 398.11 1.62316 -0.0521183 0
M  V30 4385 H 400.107 3.31912 2.5227 0
M  V30 4386 H 398.767 2.14564 2.43705 0
M  V30 4387 H 399.778 5.16971 0.310047 0
M  V30 4388 H 396.455 3.4993 2.27717 0
M  V30 4389 H 397.845 6.71688 -0.168616 0
M  V30 4390 N 400.565 -0.0233959 1.57583 0
M  V30 4391 C 401.793 -0.724682 1.93794 0
M  V30 4392 C 402.208 -1.68588 0.849912 0
M  V30 4393 O 401.565 -1.81676 -0.173204 0
M  V30 4394 C 401.616 -1.47684 3.29957 0
M  V30 4395 O 401.337 -0.554222 4.3458 0
M  V30 4396 C 402.838 -2.27477 3.80485 0
M  V30 4397 H 400.058 -0.203317 0.639455 0
M  V30 4398 H 402.602 0.0207653 2.04489 0
M  V30 4399 H 400.757 -2.17412 3.20641 0
M  V30 4400 H 401.171 -1.08232 5.13212 0
M  V30 4401 H 402.645 -2.7564 4.78254 0
M  V30 4402 H 403.122 -3.09144 3.11972 0
M  V30 4403 H 403.728 -1.62813 3.92902 0
M  V30 4404 N 402.043 -1.548 -0.295768 0
M  V30 4405 C 402.973 -1.89115 -1.36959 0
M  V30 4406 C 403.954 -0.75059 -1.52644 0
M  V30 4407 O 405.139 -1.00678 -1.66065 0
M  V30 4408 C 402.269 -2.14307 -2.73295 0
M  V30 4409 C 401.223 -3.30151 -2.72368 0
M  V30 4410 C 400.549 -3.40772 -4.12042 0
M  V30 4411 C 401.849 -4.67126 -2.33646 0
M  V30 4412 H 403.543 -2.79053 -1.08488 0
M  V30 4413 H 401.089 -1.34266 -0.520443 0
M  V30 4414 H 403.042 -2.36898 -3.48507 0
M  V30 4415 H 401.766 -1.21145 -3.03301 0
M  V30 4416 H 400.425 -3.0749 -1.99613 0
M  V30 4417 H 400.073 -2.45117 -4.39234 0
M  V30 4418 H 399.773 -4.18645 -4.12322 0
M  V30 4419 H 401.297 -3.6563 -4.89027 0
M  V30 4420 H 402.711 -4.89414 -2.98575 0
M  V30 4421 H 401.108 -5.47751 -2.45129 0
M  V30 4422 H 402.178 -4.67489 -1.28772 0
M  V30 4423 N 403.521 0.559213 -1.47345 0
M  V30 4424 C 404.484 1.64854 -1.59235 0
M  V30 4425 C 405.484 1.53851 -0.467607 0
M  V30 4426 O 406.674 1.58045 -0.732617 0
M  V30 4427 C 403.806 3.04388 -1.53496 0
M  V30 4428 H 404.999 1.55662 -2.56339 0
M  V30 4429 H 402.552 0.778973 -1.35505 0
M  V30 4430 H 403.287 3.19115 -0.577604 0
M  V30 4431 H 403.072 3.13783 -2.35123 0
M  V30 4432 H 404.562 3.83642 -1.6495 0
M  V30 4433 N 404.999 1.35443 0.805782 0
M  V30 4434 C 406.245 1.2996 1.56467 0
M  V30 4435 C 406.6 -0.124742 1.91995 0
M  V30 4436 O 405.893 -1.07533 1.58579 0
M  V30 4437 C 406.087 2.14045 2.86216 0
M  V30 4438 C 405.916 3.64512 2.63365 0
M  V30 4439 C 404.686 4.33744 2.59219 0
M  V30 4440 C 406.884 4.58142 2.33688 0
M  V30 4441 N 404.866 5.69953 2.28094 0
M  V30 4442 C 406.237 5.8248 2.12408 0
M  V30 4443 C 408.292 4.46877 2.19558 0
M  V30 4444 C 406.995 6.96818 1.78429 0
M  V30 4445 C 409.021 5.61065 1.86976 0
M  V30 4446 C 408.383 6.84431 1.66532 0
M  V30 4447 H 404.482 0.530817 0.574245 0
M  V30 4448 H 407.066 1.70333 0.943126 0
M  V30 4449 H 405.237 1.75942 3.46264 0
M  V30 4450 H 406.969 2.00075 3.51784 0
M  V30 4451 H 403.724 3.86365 2.73896 0
M  V30 4452 H 404.148 6.41845 2.15323 0
M  V30 4453 H 408.79 3.52102 2.34061 0
M  V30 4454 H 406.508 7.91559 1.62664 0
M  V30 4455 H 410.094 5.54302 1.7675 0
M  V30 4456 H 408.974 7.71294 1.41688 0
M  V30 4457 N 406.477 -1.02803 1.19454 0
M  V30 4458 C 407.754 -1.73299 0.907013 0
M  V30 4459 C 408.134 -2.02772 -0.587086 0
M  V30 4460 O 407.482 -1.68304 -1.54551 0
M  V30 4461 C 407.692 -3.00912 1.76785 0
M  V30 4462 C 409.04 -3.74403 2.00268 0
M  V30 4463 O 410.064 -3.10841 1.73943 0
M  V30 4464 O 408.923 -4.88675 2.4466 0
M  V30 4465 H 406.017 -0.754727 0.338106 0
M  V30 4466 H 408.563 -1.08754 1.30271 0
M  V30 4467 H 407.335 -2.75366 2.7801 0
M  V30 4468 H 406.958 -3.73197 1.37149 0
M  V30 4469 N 407.956 -0.998596 -1.21925 0
M  V30 4470 C 409.184 -0.696286 -1.94832 0
M  V30 4471 C 409.599 0.740032 -1.73692 0
M  V30 4472 O 408.956 1.5 -1.03953 0
M  V30 4473 C 409.007 -0.999833 -3.47398 0
M  V30 4474 O 408.728 -2.37972 -3.67833 0
M  V30 4475 C 410.229 -0.716025 -4.37479 0
M  V30 4476 H 407.449 -0.257111 -0.619786 0
M  V30 4477 H 409.993 -1.33491 -1.54921 0
M  V30 4478 H 408.148 -0.406918 -3.85257 0
M  V30 4479 H 408.562 -2.48338 -4.61983 0
M  V30 4480 H 410.036 -0.978642 -5.43256 0
M  V30 4481 H 410.513 0.349968 -4.37803 0
M  V30 4482 H 411.119 -1.29025 -4.05256 0
M  V30 4483 N 409.434 1.37368 -0.772513 0
M  V30 4484 C 410.683 1.98918 -0.333861 0
M  V30 4485 C 410.996 1.62017 1.09589 0
M  V30 4486 O 412.202 2.16676 1.63596 0
M  V30 4487 C 410.658 3.55735 -0.545971 0
M  V30 4488 C 410.266 4.01573 -1.98603 0
M  V30 4489 C 412.01 4.24156 -0.170979 0
M  V30 4490 C 409.917 5.51102 -2.1457 0
M  V30 4491 H 408.847 0.744214 -0.121085 0
M  V30 4492 H 411.498 1.56888 -0.95175 0
M  V30 4493 H 409.88 3.95748 0.141387 0
M  V30 4494 H 411.054 3.72803 -2.7084 0
M  V30 4495 H 409.369 3.45937 -2.31769 0
M  V30 4496 H 411.966 5.34024 -0.26878 0
M  V30 4497 H 412.309 4.06917 0.878855 0
M  V30 4498 H 412.842 3.89447 -0.810914 0
M  V30 4499 H 409.581 5.73268 -3.17875 0
M  V30 4500 H 409.101 5.81554 -1.46817 0
M  V30 4501 H 410.78 6.17083 -1.94468 0
M  V30 4502 N 410.912 0.523116 1.48665 0
M  V30 4503 C 412.159 -0.0134763 2.02496 0
M  V30 4504 C 412.487 -1.3493 1.40086 0
M  V30 4505 O 411.742 -1.88286 0.533567 0
M  V30 4506 C 412.041 -0.191671 3.56886 0
M  V30 4507 C 411.707 1.06893 4.38046 0
M  V30 4508 C 410.369 1.41443 4.59943 0
M  V30 4509 C 412.721 1.90584 4.85106 0
M  V30 4510 C 410.049 2.59594 5.26144 0
M  V30 4511 C 412.401 3.07907 5.52609 0
M  V30 4512 C 411.065 3.42811 5.72745 0
M  V30 4513 H 410.335 -0.00493133 0.740984 0
M  V30 4514 H 412.982 0.687751 1.78724 0
M  V30 4515 H 411.287 -0.97561 3.79459 0
M  V30 4516 H 412.984 -0.621659 3.96152 0
M  V30 4517 H 409.574 0.789848 4.21259 0
M  V30 4518 H 413.758 1.65203 4.67997 0
M  V30 4519 H 409.014 2.86847 5.39934 0
M  V30 4520 H 413.188 3.73066 5.88043 0
M  V30 4521 H 410.815 4.34462 6.23816 0
M  V30 4522 N 412.39 -1.55475 0.257931 0
M  V30 4523 C 413.337 -2.21837 -0.636939 0
M  V30 4524 C 414.307 -1.18596 -1.16294 0
M  V30 4525 O 415.492 -1.47081 -1.21539 0
M  V30 4526 C 412.632 -2.9301 -1.82317 0
M  V30 4527 C 411.745 -4.10931 -1.33265 0
M  V30 4528 C 410.88 -4.69791 -2.47931 0
M  V30 4529 C 409.919 -5.7994 -1.95796 0
M  V30 4530 N 409.056 -6.32935 -3.0387 0
M  V30 4531 H 413.896 -2.9793 -0.0643591 0
M  V30 4532 H 411.433 -1.47086 -0.0200031 0
M  V30 4533 H 413.391 -3.3248 -2.52018 0
M  V30 4534 H 412.021 -2.1937 -2.36805 0
M  V30 4535 H 411.073 -3.76699 -0.52931 0
M  V30 4536 H 412.385 -4.90417 -0.910654 0
M  V30 4537 H 411.539 -5.11892 -3.25656 0
M  V30 4538 H 410.278 -3.89545 -2.93438 0
M  V30 4539 H 409.283 -5.37305 -1.16546 0
M  V30 4540 H 410.508 -6.62043 -1.51246 0
M  V30 4541 H 408.454 -5.55591 -3.48791 0
M  V30 4542 H 408.371 -7.07645 -2.66035 0
M  V30 4543 H 409.639 -6.79695 -3.81621 0
M  V30 4544 N 413.868 0.0150385 -1.57593 0
M  V30 4545 C 415.093 0.718067 -1.94573 0
M  V30 4546 C 415.518 1.6734 -0.859005 0
M  V30 4547 O 414.876 1.80362 0.184147 0
M  V30 4548 C 414.924 1.43918 -3.30636 0
M  V30 4549 O 414.028 2.55299 -3.23876 0
M  V30 4550 H 413.369 0.192125 -0.635597 0
M  V30 4551 H 415.899 -0.0336708 -2.04572 0
M  V30 4552 H 415.909 1.80598 -3.65853 0
M  V30 4553 H 414.584 0.738619 -4.09289 0
M  V30 4554 H 413.161 2.21058 -3.00312 0
M  V30 4555 N 415.346 1.54954 0.287554 0
M  V30 4556 C 416.592 1.75132 1.02257 0
M  V30 4557 C 416.925 0.542858 1.86458 0
M  V30 4558 O 416.2 -0.459856 1.88986 0
M  V30 4559 C 416.483 3.04812 1.91733 0
M  V30 4560 C 416.336 4.35985 1.10622 0
M  V30 4561 C 417.655 3.30438 2.90687 0
M  V30 4562 H 414.774 0.637194 0.370341 0
M  V30 4563 H 417.416 1.87678 0.296111 0
M  V30 4564 H 415.566 2.94247 2.53675 0
M  V30 4565 H 417.238 4.58487 0.508636 0
M  V30 4566 H 415.481 4.31865 0.409271 0
M  V30 4567 H 416.152 5.23017 1.76513 0
M  V30 4568 H 418.628 3.40701 2.38877 0
M  V30 4569 H 417.504 4.22467 3.50447 0
M  V30 4570 H 417.765 2.49377 3.65053 0
M  V30 4571 N 416.824 -0.551391 1.4764 0
M  V30 4572 C 417.771 -1.65796 1.60563 0
M  V30 4573 C 418.741 -1.59932 0.448428 0
M  V30 4574 O 419.926 -1.78679 0.669222 0
M  V30 4575 C 417.066 -3.04108 1.63133 0
M  V30 4576 C 416.179 -3.20365 2.89811 0
M  V30 4577 C 415.314 -4.49109 2.8368 0
M  V30 4578 C 414.353 -4.58819 4.05156 0
M  V30 4579 N 413.49 -5.78926 3.97227 0
M  V30 4580 H 418.33 -1.54088 2.5507 0
M  V30 4581 H 415.867 -0.75052 1.26513 0
M  V30 4582 H 417.825 -3.84207 1.62606 0
M  V30 4583 H 416.455 -3.14637 0.721341 0
M  V30 4584 H 415.507 -2.33659 3.00179 0
M  V30 4585 H 416.819 -3.23402 3.79753 0
M  V30 4586 H 415.973 -5.37475 2.81434 0
M  V30 4587 H 414.712 -4.4856 1.91431 0
M  V30 4588 H 413.717 -3.68864 4.077 0
M  V30 4589 H 414.942 -4.61124 4.98539 0
M  V30 4590 H 412.888 -5.79314 3.07785 0
M  V30 4591 H 412.805 -5.83367 4.80853 0
M  V30 4592 H 414.073 -6.69637 3.99007 0
M  V30 4593 N 418.302 -1.35869 -0.798587 0
M  V30 4594 C 419.265 -1.29307 -1.89242 0
M  V30 4595 C 420.265 -0.202747 -1.59517 0
M  V30 4596 O 421.455 -0.456957 -1.681 0
M  V30 4597 C 418.587 -1.00229 -3.25833 0
M  V30 4598 H 419.78 -2.26576 -1.96478 0
M  V30 4599 H 417.333 -1.20509 -0.995358 0
M  V30 4600 H 418.068 -0.033801 -3.24282 0
M  V30 4601 H 417.853 -1.79121 -3.48795 0
M  V30 4602 H 419.343 -0.98219 -4.05885 0
M  V30 4603 N 419.78 1.02168 -1.19998 0
M  V30 4604 C 421.02 1.77232 -1.01825 0
M  V30 4605 C 421.384 1.86833 0.442428 0
M  V30 4606 O 422.585 2.58293 0.744189 0
M  V30 4607 C 420.856 3.15601 -1.67722 0
M  V30 4608 S 422.415 4.06765 -1.64584 0
M  V30 4609 H 419.233 0.610021 -0.365233 0
M  V30 4610 H 421.835 1.22368 -1.52467 0
M  V30 4611 H 420.539 3.06235 -2.73218 0
M  V30 4612 H 420.07 3.7554 -1.17189 0
M  V30 4613 H 422.085 4.91586 -0.67511 0
M  V30 4614 N 421.258 1.00505 1.21394 0
M  V30 4615 C 422.507 0.683159 1.89778 0
M  V30 4616 C 422.82 -0.789471 1.7896 0
M  V30 4617 O 424.026 -1.22344 2.42372 0
M  V30 4618 C 422.482 1.17146 3.40301 0
M  V30 4619 C 422.09 2.67017 3.5973 0
M  V30 4620 C 423.834 0.924461 4.14311 0
M  V30 4621 C 421.741 3.09387 5.04017 0
M  V30 4622 H 420.671 0.25183 0.710702 0
M  V30 4623 H 423.322 1.21622 1.37406 0
M  V30 4624 H 421.704 0.566451 3.91928 0
M  V30 4625 H 422.878 3.32968 3.18542 0
M  V30 4626 H 421.193 2.89732 2.99073 0
M  V30 4627 H 423.79 1.21658 5.20676 0
M  V30 4628 H 424.133 -0.139286 4.16067 0
M  V30 4629 H 424.666 1.49226 3.6875 0
M  V30 4630 H 421.405 4.14989 5.07409 0
M  V30 4631 H 420.925 2.48149 5.46061 0
M  V30 4632 H 422.604 3.01371 5.72525 0
M  V30 4633 N 422.737 -1.36956 0.779787 0
M  V30 4634 C 424.014 -1.93697 0.272156 0
M  V30 4635 C 424.394 -1.71267 -1.23413 0
M  V30 4636 O 423.742 -1.06607 -2.02107 0
M  V30 4637 C 423.952 -3.42812 0.654291 0
M  V30 4638 C 425.3 -4.19921 0.628602 0
M  V30 4639 O 426.324 -3.51209 0.594172 0
M  V30 4640 O 425.183 -5.42465 0.662864 0
M  V30 4641 H 422.277 -0.824447 0.0649286 0
M  V30 4642 H 424.823 -1.46196 0.861682 0
M  V30 4643 H 423.595 -3.52754 1.69353 0
M  V30 4644 H 423.218 -3.97582 0.0381369 0
M  V30 4645 N 424.215 -0.530993 -1.48385 0
M  V30 4646 C 425.163 0.244595 -2.3131 0
M  V30 4647 C 426.157 0.93451 -1.41291 0
M  V30 4648 O 427.363 0.85878 -1.58193 0
M  V30 4649 H 423.738 0.0977472 -0.74562 0
M  V30 4650 H 425.709 -0.474369 -2.94605 0
M  V30 4651 C 424.458 1.2779 -3.23365 0
M  V30 4652 H 423.781 0.756439 -3.92579 0
M  V30 4653 H 425.221 1.79198 -3.84271 0
M  V30 4654 C 423.68 2.31205 -2.45042 0
M  V30 4655 O 424.21 3.37661 -2.17596 0
M  V30 4656 N 422.416 2.04446 -2.0652 0
M  V30 4657 H 421.963 1.17891 -2.2904 0
M  V30 4658 H 421.921 2.73861 -1.54427 0
M  V30 4659 N 425.693 1.55336 -0.266172 0
M  V30 4660 C 427.109 1.59356 0.0882065 0
M  V30 4661 C 427.309 1.2834 1.55342 0
M  V30 4662 O 426.365 1.03996 2.30089 0
M  V30 4663 C 427.678 2.99409 -0.278364 0
M  V30 4664 C 429.226 3.12196 -0.224243 0
M  V30 4665 C 429.701 4.545 -0.565123 0
M  V30 4666 N 431.192 4.60313 -0.51634 0
M  V30 4667 C 431.927 5.68434 -0.753013 0
M  V30 4668 N 431.423 6.84738 -1.05383 0
M  V30 4669 N 433.216 5.57942 -0.682414 0
M  V30 4670 H 425.367 1.73764 -1.22147 0
M  V30 4671 H 427.63 0.809822 -0.492841 0
M  V30 4672 H 427.336 3.2691 -1.29703 0
M  V30 4673 H 427.21 3.75228 0.385186 0
M  V30 4674 H 429.597 2.84464 0.78512 0
M  V30 4675 H 429.678 2.38609 -0.921922 0
M  V30 4676 H 429.322 4.82956 -1.57213 0
M  V30 4677 H 429.252 5.26374 0.154248 0
M  V30 4678 H 431.743 3.7676 -0.29335 0
M  V30 4679 H 432.056 7.63088 -1.22133 0
M  V30 4680 H 430.401 6.86375 -1.09151 0
M  V30 4681 H 433.592 4.65958 -0.44731 0
M  V30 4682 H 433.765 6.4213 -0.870248 0
M  V30 4683 N 427.171 -0.0066808 1.57599 0
M  V30 4684 C 428.101 -0.999296 2.11036 0
M  V30 4685 C 429.082 -1.36278 1.01795 0
M  V30 4686 O 430.267 -1.4477 1.29442 0
M  V30 4687 C 427.397 -2.29328 2.60818 0
M  V30 4688 C 426.351 -2.07159 3.74525 0
M  V30 4689 C 425.677 -3.42512 4.10596 0
M  V30 4690 C 426.977 -1.43959 5.02069 0
M  V30 4691 H 428.671 -0.554382 2.94223 0
M  V30 4692 H 426.217 -0.265221 1.41536 0
M  V30 4693 H 428.17 -2.99117 2.96828 0
M  V30 4694 H 426.894 -2.7592 1.74745 0
M  V30 4695 H 425.553 -1.39797 3.38899 0
M  V30 4696 H 425.201 -3.86795 3.21556 0
M  V30 4697 H 424.901 -3.28498 4.87199 0
M  V30 4698 H 426.425 -4.13628 4.4916 0
M  V30 4699 H 427.839 -2.03696 5.35893 0
M  V30 4700 H 426.236 -1.40452 5.83432 0
M  V30 4701 H 427.306 -0.407992 4.83181 0
M  V30 4702 N 428.649 -1.55105 -0.279332 0
M  V30 4703 C 429.559 -1.90638 -1.36727 0
M  V30 4704 C 430.575 -0.802899 -1.54368 0
M  V30 4705 O 431.751 -1.10138 -1.68616 0
M  V30 4706 C 428.816 -2.16547 -2.70755 0
M  V30 4707 C 427.877 -3.40146 -2.61915 0
M  V30 4708 C 427.11 -3.6481 -3.8955 0
M  V30 4709 O 427.333 -2.92095 -4.89935 0
M  V30 4710 O 426.267 -4.58343 -3.90135 0
M  V30 4711 H 430.093 -2.83237 -1.09591 0
M  V30 4712 H 427.678 -1.4157 -0.477306 0
M  V30 4713 H 429.56 -2.34665 -3.50014 0
M  V30 4714 H 428.235 -1.27131 -2.9769 0
M  V30 4715 H 427.142 -3.2737 -1.81052 0
M  V30 4716 H 428.475 -4.29761 -2.3993 0
M  V30 4717 N 430.127 0.543554 -1.4793 0
M  V30 4718 C 431.074 1.64942 -1.6144 0
M  V30 4719 C 432.044 1.59692 -0.456903 0
M  V30 4720 O 433.229 1.78321 -0.678688 0
M  V30 4721 C 430.369 3.03238 -1.64744 0
M  V30 4722 C 429.482 3.18823 -2.91506 0
M  V30 4723 C 428.617 4.47599 -2.86057 0
M  V30 4724 C 427.656 4.56664 -4.07584 0
M  V30 4725 N 426.793 5.76811 -4.00292 0
M  V30 4726 H 431.633 1.52733 -2.55884 0
M  V30 4727 H 429.17 0.7438 -1.2691 0
M  V30 4728 H 431.128 3.83339 -1.64641 0
M  V30 4729 H 429.758 3.1425 -0.738017 0
M  V30 4730 H 428.81 2.32064 -3.01414 0
M  V30 4731 H 430.122 3.21384 -3.81463 0
M  V30 4732 H 429.276 5.35975 -2.84281 0
M  V30 4733 H 428.015 4.47538 -1.93807 0
M  V30 4734 H 427.02 3.66697 -4.09651 0
M  V30 4735 H 428.245 4.58474 -5.00978 0
M  V30 4736 H 426.191 5.77673 -3.10853 0
M  V30 4737 H 426.108 5.80808 -4.8394 0
M  V30 4738 H 427.376 6.67512 -4.02553 0
M  V30 4739 N 431.605 1.3629 0.791371 0
M  V30 4740 C 432.835 1.33368 1.57786 0
M  V30 4741 C 433.243 -0.0875188 1.88997 0
M  V30 4742 O 432.586 -1.05427 1.50435 0
M  V30 4743 C 432.648 2.08802 2.92646 0
M  V30 4744 C 432.312 3.57903 2.84174 0
M  V30 4745 C 433.309 4.52191 2.56553 0
M  V30 4746 C 430.994 4.00762 3.02812 0
M  V30 4747 C 432.988 5.87315 2.47669 0
M  V30 4748 C 430.675 5.35977 2.93551 0
M  V30 4749 C 431.673 6.29066 2.66017 0
M  V30 4750 O 431.361 7.61798 2.56746 0
M  V30 4751 H 431.093 0.459166 0.496128 0
M  V30 4752 H 433.647 1.79952 0.990269 0
M  V30 4753 H 431.877 1.56878 3.53449 0
M  V30 4754 H 433.566 1.98762 3.53904 0
M  V30 4755 H 434.332 4.20393 2.41858 0
M  V30 4756 H 430.211 3.2868 3.2325 0
M  V30 4757 H 433.755 6.59943 2.26099 0
M  V30 4758 H 429.652 5.67384 3.07808 0
M  V30 4759 H 430.42 7.71898 2.72242 0
M  V30 4760 N 433.083 -1.0153 1.20538 0
M  V30 4761 C 434.308 -1.79283 1.04271 0
M  V30 4762 C 434.733 -1.8372 -0.403544 0
M  V30 4763 O 434.091 -1.27321 -1.2907 0
M  V30 4764 C 434.139 -3.21535 1.63241 0
M  V30 4765 O 433.243 -4.03099 0.870908 0
M  V30 4766 H 432.584 -0.55293 0.367647 0
M  V30 4767 H 435.114 -1.27696 1.59859 0
M  V30 4768 H 435.124 -3.72243 1.6703 0
M  V30 4769 H 433.799 -3.1762 2.68497 0
M  V30 4770 H 432.376 -3.61693 0.907323 0
M  V30 4771 N 434.561 -1.01147 -1.20859 0
M  V30 4772 C 435.493 -0.535546 -2.22855 0
M  V30 4773 C 436.506 0.379323 -1.58319 0
M  V30 4774 O 437.695 0.178489 -1.77605 0
M  V30 4775 C 434.795 0.240962 -3.38042 0
M  V30 4776 C 433.968 -0.674562 -4.32167 0
M  V30 4777 C 433.027 0.053467 -5.26173 0
M  V30 4778 O 432.053 -0.567339 -5.66366 0
M  V30 4779 N 433.255 1.32997 -5.65059 0
M  V30 4780 H 436.02 -1.41268 -2.64317 0
M  V30 4781 H 433.581 -0.888386 -1.35349 0
M  V30 4782 H 435.573 0.737115 -3.97931 0
M  V30 4783 H 434.143 1.01935 -2.95513 0
M  V30 4784 H 433.363 -1.35111 -3.70322 0
M  V30 4785 H 434.651 -1.2974 -4.91981 0
M  V30 4786 H 434.049 1.85536 -5.34409 0
M  V30 4787 H 432.606 1.77095 -6.2728 0
M  V30 4788 N 436.039 1.36541 -0.78704 0
M  V30 4789 C 436.971 2.28761 -0.141773 0
M  V30 4790 C 437.984 1.49365 0.647599 0
M  V30 4791 O 439.173 1.71836 0.483173 0
M  V30 4792 C 436.273 3.28771 0.822368 0
M  V30 4793 C 435.446 4.3732 0.0835594 0
M  V30 4794 C 434.505 5.17307 0.963296 0
M  V30 4795 O 433.531 5.67638 0.421419 0
M  V30 4796 N 434.733 5.33515 2.28784 0
M  V30 4797 H 437.498 2.84777 -0.933919 0
M  V30 4798 H 435.059 1.48682 -0.640735 0
M  V30 4799 H 437.051 3.79169 1.41468 0
M  V30 4800 H 435.621 2.73412 1.5154 0
M  V30 4801 H 434.841 3.88118 -0.689809 0
M  V30 4802 H 436.129 5.0701 -0.426358 0
M  V30 4803 H 435.527 4.94234 2.75226 0
M  V30 4804 H 434.084 5.87165 2.82985 0
M  V30 4805 N 437.518 0.538854 1.48102 0
M  V30 4806 C 438.929 0.100679 1.86428 0
M  V30 4807 C 439.28 -1.32447 1.44749 0
M  V30 4808 O 438.405 -1.99339 0.842199 0
M  V30 4809 C 439 0.175933 3.38343 0
M  V30 4810 C 437.559 -0.207098 3.7583 0
M  V30 4811 C 436.706 0.531741 2.72154 0
M  V30 4812 H 439.657 0.749614 1.3988 0
M  V30 4813 H 439.678 -0.610144 3.75576 0
M  V30 4814 H 439.19 1.21328 3.68648 0
M  V30 4815 H 437.291 -1.24626 3.5114 0
M  V30 4816 H 437.404 0.138687 4.78899 0
M  V30 4817 H 435.768 -0.0230462 2.5469 0
M  V30 4818 H 436.551 1.56989 3.05302 0
M  V30 4819 N 438.996 -1.55193 0.274407 0
M  V30 4820 C 440.221 -2.04446 -0.348824 0
M  V30 4821 C 440.646 -1.15149 -1.48735 0
M  V30 4822 O 440.004 -0.149952 -1.80679 0
M  V30 4823 C 440.052 -3.51431 -0.808009 0
M  V30 4824 O 439.156 -3.65225 -1.91531 0
M  V30 4825 H 438.497 -0.66006 -0.0722276 0
M  V30 4826 H 441.027 -2.00481 0.408498 0
M  V30 4827 H 441.037 -3.92781 -1.10395 0
M  V30 4828 H 439.712 -4.15892 0.0249865 0
M  V30 4829 H 438.289 -3.35778 -1.62196 0
M  V30 4830 N 440.474 -0.00167713 -1.576 0
M  V30 4831 C 441.437 0.974046 -2.07473 0
M  V30 4832 C 442.437 1.27143 -0.984444 0
M  V30 4833 O 443.627 1.21633 -1.24703 0
M  V30 4834 C 440.759 2.29849 -2.51759 0
M  V30 4835 H 441.952 0.54262 -2.9495 0
M  V30 4836 H 439.505 0.245829 -1.54355 0
M  V30 4837 H 440.24 2.77677 -1.67529 0
M  V30 4838 H 440.025 2.09584 -3.31386 0
M  V30 4839 H 441.515 2.9984 -2.90664 0
M  V30 4840 N 441.952 1.55251 0.271103 0
M  V30 4841 C 443.229 1.66664 1.02384 0
M  V30 4842 C 443.609 0.534363 2.04225 0
M  V30 4843 O 442.957 -0.465337 2.23712 0
M  V30 4844 C 443.167 3.05961 1.67895 0
M  V30 4845 C 444.515 3.63772 2.18986 0
M  V30 4846 O 445.539 3.08606 1.77878 0
M  V30 4847 O 444.398 4.60429 2.94393 0
M  V30 4848 H 441.492 0.676957 0.475035 0
M  V30 4849 H 444.038 1.67589 0.26681 0
M  V30 4850 H 442.81 3.79815 0.941071 0
M  V30 4851 H 442.433 3.08943 2.5028 0
M  V30 4852 N 443.43 -0.535701 1.48216 0
M  V30 4853 C 444.677 -1.29183 1.55942 0
M  V30 4854 C 445.005 -1.93125 0.230857 0
M  V30 4855 O 444.26 -1.79556 -0.778331 0
M  V30 4856 C 444.559 -2.4068 2.64212 0
M  V30 4857 C 444.225 -1.94428 4.06827 0
M  V30 4858 C 442.887 -1.81532 4.45645 0
M  V30 4859 C 445.239 -1.59405 4.96225 0
M  V30 4860 C 442.567 -1.31939 5.71672 0
M  V30 4861 C 444.919 -1.11276 6.22736 0
M  V30 4862 C 443.583 -0.969924 6.60416 0
M  V30 4863 H 442.853 -0.472715 0.570632 0
M  V30 4864 H 445.5 -0.598437 1.81909 0
M  V30 4865 H 443.805 -3.15666 2.32083 0
M  V30 4866 H 445.502 -2.98822 2.67407 0
M  V30 4867 H 442.092 -2.05415 3.76168 0
M  V30 4868 H 446.276 -1.68231 4.66917 0
M  V30 4869 H 441.532 -1.19562 5.99596 0
M  V30 4870 H 445.706 -0.832453 6.91407 0
M  V30 4871 H 443.333 -0.583436 7.57958 0
M  V30 4872 N 444.908 -1.36708 -0.784132 0
M  V30 4873 C 445.838 -1.34153 -1.91116 0
M  V30 4874 C 446.819 -0.212121 -1.68772 0
M  V30 4875 O 448.004 -0.410581 -1.8981 0
M  V30 4876 C 445.134 -1.13535 -3.28218 0
M  V30 4877 C 444.088 -2.23356 -3.65097 0
M  V30 4878 C 443.414 -1.87875 -5.00607 0
M  V30 4879 C 444.714 -3.65473 -3.73131 0
M  V30 4880 H 446.408 -2.28459 -1.93512 0
M  V30 4881 H 443.954 -1.09973 -0.929618 0
M  V30 4882 H 445.907 -1.10381 -4.06687 0
M  V30 4883 H 444.631 -0.156804 -3.26223 0
M  V30 4884 H 443.29 -2.25645 -2.88929 0
M  V30 4885 H 442.938 -0.885814 -4.95139 0
M  V30 4886 H 442.638 -2.61406 -5.26252 0
M  V30 4887 H 444.162 -1.86286 -5.81489 0
M  V30 4888 H 445.576 -3.65382 -4.41779 0
M  V30 4889 H 443.973 -4.37953 -4.10265 0
M  V30 4890 H 445.043 -3.99995 -2.74102 0
M  V30 4891 N 446.386 1.0089 -1.21074 0
M  V30 4892 C 447.626 1.76142 -1.03699 0
M  V30 4893 C 447.99 1.87292 0.422587 0
M  V30 4894 O 449.191 2.59068 0.716752 0
M  V30 4895 C 447.462 3.13805 -1.7106 0
M  V30 4896 S 449.021 4.04996 -1.68889 0
M  V30 4897 H 445.839 0.606113 -0.371683 0
M  V30 4898 H 448.441 1.20744 -1.53756 0
M  V30 4899 H 447.145 3.0332 -2.76451 0
M  V30 4900 H 446.676 3.74276 -1.21166 0
M  V30 4901 H 448.691 4.90842 -0.727211 0
M  V30 4902 N 447.864 1.01787 1.20321 0
M  V30 4903 C 449.141 0.622978 1.85414 0
M  V30 4904 C 449.521 -0.898887 1.91006 0
M  V30 4905 O 448.869 -1.79112 1.41884 0
M  V30 4906 C 449.079 1.27226 3.24984 0
M  V30 4907 C 450.427 1.3885 4.01255 0
M  V30 4908 O 451.451 1.22857 3.34342 0
M  V30 4909 O 450.31 1.64705 5.2109 0
M  V30 4910 H 447.404 0.215116 0.798533 0
M  V30 4911 H 449.95 1.11533 1.27901 0
M  V30 4912 H 448.722 2.31209 3.15687 0
M  V30 4913 H 448.345 0.767069 3.90131 0
M  V30 4914 N 449.342 -1.36122 0.79427 0
M  V30 4915 C 450.591 -1.98361 0.365464 0
M  V30 4916 C 450.904 -1.6374 -1.06997 0
M  V30 4917 O 452.11 -2.19251 -1.60129 0
M  V30 4918 C 450.566 -3.54821 0.602496 0
M  V30 4919 C 450.174 -3.98362 2.04967 0
M  V30 4920 C 451.918 -4.2383 0.238437 0
M  V30 4921 C 449.825 -5.47619 2.2331 0
M  V30 4922 H 448.755 -0.742193 0.13291 0
M  V30 4923 H 451.406 -1.55354 0.976589 0
M  V30 4924 H 449.788 -3.95922 -0.078409 0
M  V30 4925 H 450.962 -3.68447 2.76737 0
M  V30 4926 H 449.277 -3.42206 2.37243 0
M  V30 4927 H 451.874 -5.33529 0.353705 0
M  V30 4928 H 452.217 -4.08264 -0.814006 0
M  V30 4929 H 452.75 -3.88108 0.872769 0
M  V30 4930 H 449.489 -5.68138 3.26955 0
M  V30 4931 H 449.009 -5.79145 1.5605 0
M  V30 4932 H 450.688 -6.13911 2.0426 0
M  V30 4933 N 450.82 -0.546701 -1.47814 0
M  V30 4934 C 452.05 -0.0232519 -2.06587 0
M  V30 4935 C 452.458 1.2712 -1.40133 0
M  V30 4936 O 451.801 1.77091 -0.488305 0
M  V30 4937 C 451.863 0.254117 -3.58601 0
M  V30 4938 C 451.527 -0.949331 -4.47031 0
M  V30 4939 C 452.524 -1.85216 -4.85789 0
M  V30 4940 C 450.209 -1.16104 -4.88697 0
M  V30 4941 C 452.203 -2.95047 -5.65001 0
M  V30 4942 C 449.89 -2.26247 -5.67676 0
M  V30 4943 C 450.888 -3.1555 -6.05737 0
M  V30 4944 O 450.576 -4.23784 -6.83127 0
M  V30 4945 H 450.308 -0.0380082 -0.674931 0
M  V30 4946 H 452.862 -0.756631 -1.90956 0
M  V30 4947 H 451.092 1.04168 -3.72406 0
M  V30 4948 H 452.781 0.72167 -3.99433 0
M  V30 4949 H 453.547 -1.70061 -4.54207 0
M  V30 4950 H 449.426 -0.475159 -4.58545 0
M  V30 4951 H 452.97 -3.64778 -5.94628 0
M  V30 4952 H 448.867 -2.41379 -5.98671 0
M  V30 4953 H 449.635 -4.21701 -7.01506 0
M  V30 4954 N 452.299 1.55045 -0.282633 0
M  V30 4955 C 453.249 2.19514 0.616249 0
M  V30 4956 C 454.233 1.16216 1.11277 0
M  V30 4957 O 455.425 1.42004 1.05659 0
M  V30 4958 C 452.554 2.92548 1.7964 0
M  V30 4959 C 451.64 4.03142 1.31671 0
M  V30 4960 N 452.031 5.0276 0.553695 0
M  V30 4961 C 450.329 4.1635 1.59903 0
M  V30 4962 C 451.03 5.80923 0.30054 0
M  V30 4963 N 450.006 5.3651 0.875116 0
M  V30 4964 H 453.808 2.93889 0.0255363 0
M  V30 4965 H 451.322 1.62169 -0.0865362 0
M  V30 4966 H 453.319 3.37188 2.45173 0
M  V30 4967 H 451.979 2.19685 2.39099 0
M  V30 4968 H 452.99 5.17512 0.20032 0
M  V30 4969 H 449.667 3.54682 2.20243 0
M  V30 4970 H 451.057 6.7118 -0.311053 0
M  V30 4971 N 453.777 0.010035 1.57597 0
M  V30 4972 C 454.709 -1.00649 2.05918 0
M  V30 4973 C 455.722 -1.30077 0.978964 0
M  V30 4974 O 456.911 -1.26878 1.25556 0
M  V30 4975 C 454.011 -2.33876 2.45265 0
M  V30 4976 C 453.184 -2.23242 3.7614 0
M  V30 4977 C 452.243 -3.39242 4.02245 0
M  V30 4978 O 451.269 -3.1698 4.72771 0
M  V30 4979 N 452.471 -4.6242 3.50924 0
M  V30 4980 H 455.236 -0.594333 2.93748 0
M  V30 4981 H 452.797 -0.17714 1.60928 0
M  V30 4982 H 454.789 -3.1027 2.59836 0
M  V30 4983 H 453.359 -2.66799 1.62902 0
M  V30 4984 H 452.579 -1.31696 3.71551 0
M  V30 4985 H 453.867 -2.13321 4.61922 0
M  V30 4986 H 453.265 -4.83404 2.93832 0
M  V30 4987 H 451.822 -5.36046 3.70807 0
M  V30 4988 N 455.255 -1.55392 -0.262866 0
M  V30 4989 C 456.203 -1.8977 -1.345 0
M  V30 4990 C 457.197 -0.775063 -1.50629 0
M  V30 4991 O 458.403 -0.959519 -1.52293 0
M  V30 4992 H 454.778 -0.602467 -0.450041 0
M  V30 4993 H 456.749 -2.80147 -1.02762 0
M  V30 4994 C 455.498 -2.19501 -2.69657 0
M  V30 4995 H 454.821 -3.05378 -2.5804 0
M  V30 4996 H 456.261 -2.47469 -3.44289 0
M  V30 4997 C 454.72 -1.00597 -3.21531 0
M  V30 4998 O 455.25 -0.245768 -4.00947 0
M  V30 4999 N 453.456 -0.800911 -2.79345 0
M  V30 5000 H 453.003 -1.42079 -2.14875 0
M  V30 5001 H 452.961 -0.00697996 -3.14399 0
M  V30 5002 N 456.733 0.527833 -1.48498 0
M  V30 5003 C 458.149 0.856571 -1.34666 0
M  V30 5004 C 458.349 1.98271 -0.35931 0
M  V30 5005 O 457.405 2.51551 0.218703 0
M  V30 5006 C 458.718 1.22207 -2.74747 0
M  V30 5007 C 460.266 1.33183 -2.83251 0
M  V30 5008 C 460.741 1.73075 -4.24039 0
M  V30 5009 N 462.232 1.80174 -4.26722 0
M  V30 5010 C 462.967 2.1243 -5.32598 0
M  V30 5011 N 462.463 2.43096 -6.4875 0
M  V30 5012 N 464.256 2.13454 -5.19994 0
M  V30 5013 H 456.407 -0.215174 -2.11307 0
M  V30 5014 H 458.67 -0.0336281 -0.947403 0
M  V30 5015 H 458.376 0.468195 -3.4857 0
M  V30 5016 H 458.25 2.17173 -3.08409 0
M  V30 5017 H 460.637 2.07647 -2.09683 0
M  V30 5018 H 460.718 0.363333 -2.53206 0
M  V30 5019 H 460.362 0.991712 -4.98124 0
M  V30 5020 H 460.292 2.70979 -4.51529 0
M  V30 5021 H 462.783 1.58744 -3.42942 0
M  V30 5022 H 463.096 2.6682 -7.25277 0
M  V30 5023 H 461.441 2.40611 -6.52021 0
M  V30 5024 H 464.632 1.88956 -4.28268 0
M  V30 5025 H 464.805 2.38261 -6.02608 0
M  V30 5026 N 458.211 1.37122 0.776871 0
M  V30 5027 C 459.141 1.35164 1.90402 0
M  V30 5028 C 460.122 0.221069 1.68657 0
M  V30 5029 O 461.307 0.420642 1.8959 0
M  V30 5030 C 458.437 1.15274 3.27611 0
M  V30 5031 C 457.391 2.25289 3.63908 0
M  V30 5032 C 456.717 1.90527 4.99603 0
M  V30 5033 C 458.017 3.67446 3.71188 0
M  V30 5034 H 459.711 2.29482 1.92297 0
M  V30 5035 H 457.257 1.10465 0.923773 0
M  V30 5036 H 459.21 1.12536 4.06096 0
M  V30 5037 H 457.934 0.174102 3.26136 0
M  V30 5038 H 456.593 2.27174 2.87728 0
M  V30 5039 H 456.241 0.91206 4.94662 0
M  V30 5040 H 455.941 2.64193 5.24858 0
M  V30 5041 H 457.465 1.89367 5.80493 0
M  V30 5042 H 458.879 3.67719 4.39836 0
M  V30 5043 H 457.276 4.40123 4.07936 0
M  V30 5044 H 458.346 4.01443 2.71977 0
M  V30 5045 N 459.689 -1.00246 1.21608 0
M  V30 5046 C 460.914 -1.78167 1.06167 0
M  V30 5047 C 461.339 -1.84138 -0.384035 0
M  V30 5048 O 460.697 -1.28683 -1.27712 0
M  V30 5049 C 460.745 -3.19786 1.66642 0
M  V30 5050 O 459.849 -4.02153 0.913613 0
M  V30 5051 H 459.19 -0.549 0.37349 0
M  V30 5052 H 461.72 -1.25994 1.61204 0
M  V30 5053 H 461.73 -3.70451 1.70969 0
M  V30 5054 H 460.405 -3.14754 2.7185 0
M  V30 5055 H 458.982 -3.60711 0.945635 0
M  V30 5056 N 461.167 -1.02423 -1.1978 0
M  V30 5057 C 462.114 -0.601023 -2.22837 0
M  V30 5058 C 463.084 0.382801 -1.61629 0
M  V30 5059 O 464.269 0.280514 -1.88727 0
M  V30 5060 C 461.409 0.0467755 -3.45068 0
M  V30 5061 C 460.522 -0.98253 -4.20678 0
M  V30 5062 C 459.657 -0.304982 -5.30324 0
M  V30 5063 C 458.696 -1.32052 -5.97686 0
M  V30 5064 N 457.833 -0.669105 -6.98904 0
M  V30 5065 H 462.673 -1.48444 -2.58396 0
M  V30 5066 H 460.21 -0.742936 -1.2696 0
M  V30 5067 H 462.168 0.439556 -4.14878 0
M  V30 5068 H 460.798 0.893796 -3.10179 0
M  V30 5069 H 459.85 -1.49341 -3.49859 0
M  V30 5070 H 461.162 -1.75455 -4.66923 0
M  V30 5071 H 460.316 0.142893 -6.06532 0
M  V30 5072 H 459.055 0.499283 -4.85138 0
M  V30 5073 H 458.06 -1.7787 -5.20233 0
M  V30 5074 H 459.285 -2.1262 -6.44957 0
M  V30 5075 H 457.231 0.115152 -6.55899 0
M  V30 5076 H 457.148 -1.37908 -7.43315 0
M  V30 5077 H 458.416 -0.245076 -7.79115 0
M  V30 5078 N 462.645 1.35699 -0.801477 0
M  V30 5079 C 463.592 2.29876 -0.206294 0
M  V30 5080 C 464.562 1.52565 0.656752 0
M  V30 5081 O 465.747 1.81024 0.602906 0
M  V30 5082 C 462.887 3.39052 0.643272 0
M  V30 5083 C 462 4.31335 -0.239644 0
M  V30 5084 C 461.135 5.27599 0.61744 0
M  V30 5085 C 460.174 6.11521 -0.26619 0
M  V30 5086 N 459.311 6.99938 0.550571 0
M  V30 5087 H 464.151 2.80187 -1.01484 0
M  V30 5088 H 461.688 1.37902 -0.511997 0
M  V30 5089 H 463.646 4.0101 1.15094 0
M  V30 5090 H 462.276 2.9003 1.41713 0
M  V30 5091 H 461.328 3.70426 -0.865381 0
M  V30 5092 H 462.64 4.90243 -0.919985 0
M  V30 5093 H 461.794 5.94906 1.19045 0
M  V30 5094 H 460.533 4.69176 1.33137 0
M  V30 5095 H 459.538 5.43166 -0.851507 0
M  V30 5096 H 460.763 6.72022 -0.9779 0
M  V30 5097 H 458.709 6.44008 1.24856 0
M  V30 5098 H 458.626 7.55966 -0.071832 0
M  V30 5099 H 459.894 7.71599 1.10702 0
M  V30 5100 N 464.123 0.554532 1.47522 0
M  V30 5101 C 465.033 -0.197865 2.33764 0
M  V30 5102 C 466.049 -0.914576 1.48025 0
M  V30 5103 O 467.225 -0.884067 1.80959 0
M  V30 5104 C 464.29 -1.21628 3.24665 0
M  V30 5105 C 463.351 -0.507283 4.26292 0
M  V30 5106 C 462.584 -1.47718 5.1285 0
M  V30 5107 O 462.807 -2.7118 5.01814 0
M  V30 5108 O 461.741 -1.00313 5.93482 0
M  V30 5109 H 465.567 0.50949 2.99396 0
M  V30 5110 H 463.152 0.315176 1.46038 0
M  V30 5111 H 465.034 -1.80421 3.80823 0
M  V30 5112 H 463.709 -1.9056 2.61665 0
M  V30 5113 H 462.616 0.121778 3.73902 0
M  V30 5114 H 463.949 0.140544 4.91999 0
M  V30 5115 N 465.601 -1.54893 0.290851 0
M  V30 5116 C 466.531 -2.26103 -0.583084 0
M  V30 5117 C 467.512 -1.25684 -1.14619 0
M  V30 5118 O 468.697 -1.54436 -1.17741 0
M  V30 5119 C 465.827 -2.99409 -1.75987 0
M  V30 5120 C 464.781 -4.0689 -1.32758 0
M  V30 5121 C 464.107 -4.67856 -2.58872 0
M  V30 5122 C 465.407 -5.20215 -0.46624 0
M  V30 5123 H 467.101 -2.99398 0.0108214 0
M  V30 5124 H 464.647 -1.43998 0.00664468 0
M  V30 5125 H 466.6 -3.47943 -2.37727 0
M  V30 5126 H 465.324 -2.23675 -2.37985 0
M  V30 5127 H 463.983 -3.59191 -0.733299 0
M  V30 5128 H 463.631 -3.88772 -3.19163 0
M  V30 5129 H 463.331 -5.40438 -2.30653 0
M  V30 5130 H 464.855 -5.19147 -3.21433 0
M  V30 5131 H 466.269 -5.64704 -0.989047 0
M  V30 5132 H 464.666 -5.99455 -0.27826 0
M  V30 5133 H 465.736 -4.82198 0.511173 0
M  V30 5134 N 467.08 -0.0183926 -1.57589 0
M  V30 5135 C 468.31 0.67207 -1.95363 0
M  V30 5136 C 468.718 1.66807 -0.892872 0
M  V30 5137 O 468.061 1.83204 0.134958 0
M  V30 5138 C 468.123 1.44397 -3.29226 0
M  V30 5139 C 467.787 0.607511 -4.52944 0
M  V30 5140 C 468.784 -0.112657 -5.19778 0
M  V30 5141 C 466.469 0.548068 -4.99301 0
M  V30 5142 C 468.463 -0.881057 -6.31281 0
M  V30 5143 C 466.15 -0.224044 -6.10689 0
M  V30 5144 C 467.148 -0.937323 -6.76538 0
M  V30 5145 O 466.836 -1.6968 -7.85789 0
M  V30 5146 H 466.568 0.190925 -0.648478 0
M  V30 5147 H 469.122 -0.0711994 -2.05277 0
M  V30 5148 H 467.352 2.23214 -3.15773 0
M  V30 5149 H 469.041 2.02152 -3.51979 0
M  V30 5150 H 469.807 -0.0759998 -4.8494 0
M  V30 5151 H 465.686 1.09281 -4.4786 0
M  V30 5152 H 469.23 -1.43832 -6.82611 0
M  V30 5153 H 465.127 -0.262457 -6.44966 0
M  V30 5154 H 465.895 -1.61544 -8.024 0
M  V30 5155 N 468.558 1.5553 0.254621 0
M  V30 5156 C 469.521 1.88872 1.29846 0
M  V30 5157 C 470.521 0.764591 1.41459 0
M  V30 5158 O 471.711 1.03265 1.40293 0
M  V30 5159 C 468.843 2.11032 2.67728 0
M  V30 5160 H 470.036 2.82201 1.01502 0
M  V30 5161 H 467.589 1.48303 0.493556 0
M  V30 5162 H 468.324 1.20146 3.01223 0
M  V30 5163 H 468.109 2.92895 2.60682 0
M  V30 5164 H 469.599 2.38038 3.43115 0
M  V30 5165 N 470.036 -0.519951 1.48776 0
M  V30 5166 C 470.999 -1.60574 1.6355 0
M  V30 5167 C 471.999 -1.52557 0.508234 0
M  V30 5168 O 473.189 -1.56047 0.774262 0
M  V30 5169 C 470.321 -3.00211 1.61512 0
M  V30 5170 H 471.514 -1.4881 2.60376 0
M  V30 5171 H 469.067 -0.742772 1.37523 0
M  V30 5172 H 469.802 -3.17471 0.662009 0
M  V30 5173 H 469.587 -3.07439 2.43359 0
M  V30 5174 H 471.077 -3.79134 1.75064 0
M  V30 5175 N 471.514 -1.37532 -0.769588 0
M  V30 5176 C 472.76 -1.33057 -1.53048 0
M  V30 5177 C 473.093 0.0841865 -1.94017 0
M  V30 5178 O 472.368 1.04198 -1.64235 0
M  V30 5179 C 472.651 -2.27166 -2.79406 0
M  V30 5180 C 472.504 -3.77429 -2.44677 0
M  V30 5181 C 473.823 -2.19683 -3.81349 0
M  V30 5182 H 470.942 -0.484655 -0.555228 0
M  V30 5183 H 473.584 -1.68251 -0.882702 0
M  V30 5184 H 471.734 -1.97283 -3.34682 0
M  V30 5185 H 473.406 -4.17918 -1.953 0
M  V30 5186 H 471.649 -3.95892 -1.77346 0
M  V30 5187 H 472.32 -4.38716 -3.35011 0
M  V30 5188 H 474.796 -2.46029 -3.35573 0
M  V30 5189 H 473.672 -2.87668 -4.67481 0
M  V30 5190 H 473.933 -1.19045 -4.25771 0
M  V30 5191 N 472.992 0.995999 -1.22138 0
M  V30 5192 C 474.22 1.77066 -1.07029 0
M  V30 5193 C 474.635 1.8495 0.379357 0
M  V30 5194 O 473.992 1.3174 1.26297 0
M  V30 5195 C 474.043 3.20533 -1.67155 0
M  V30 5196 O 473.764 3.13082 -3.06449 0
M  V30 5197 C 475.265 4.14461 -1.5728 0
M  V30 5198 H 472.485 0.556179 -0.375374 0
M  V30 5199 H 475.029 1.25238 -1.61666 0
M  V30 5200 H 473.184 3.6944 -1.16589 0
M  V30 5201 H 473.598 4.03283 -3.35355 0
M  V30 5202 H 475.072 5.1289 -2.04078 0
M  V30 5203 H 475.549 4.36005 -0.528795 0
M  V30 5204 H 476.155 3.71449 -2.07136 0
M  V30 5205 N 474.47 1.03057 1.19235 0
M  V30 5206 C 475.38 0.622922 2.26179 0
M  V30 5207 C 476.396 -0.346113 1.70523 0
M  V30 5208 O 477.572 -0.203572 2.00369 0
M  V30 5209 C 474.637 -0.0182063 3.46695 0
M  V30 5210 C 473.698 0.998546 4.17526 0
M  V30 5211 C 472.931 0.387917 5.32288 0
M  V30 5212 O 473.154 -0.808668 5.64639 0
M  V30 5213 O 472.088 1.1116 5.91546 0
M  V30 5214 H 475.914 1.51363 2.63292 0
M  V30 5215 H 473.499 0.800856 1.26122 0
M  V30 5216 H 475.381 -0.375606 4.19723 0
M  V30 5217 H 474.056 -0.882895 3.11427 0
M  V30 5218 H 472.963 1.40756 3.4661 0
M  V30 5219 H 474.296 1.83366 4.56769 0
M  V30 5220 N 475.948 -1.35272 0.808662 0
M  V30 5221 C 476.878 -2.32315 0.234981 0
M  V30 5222 C 477.859 -1.57572 -0.64071 0
M  V30 5223 O 479.044 -1.8563 -0.570551 0
M  V30 5224 C 476.174 -3.41801 -0.615601 0
M  V30 5225 C 475.128 -4.27694 0.161767 0
M  V30 5226 C 474.454 -5.28519 -0.810649 0
M  V30 5227 C 475.754 -5.04231 1.36193 0
M  V30 5228 H 477.448 -2.80543 1.04575 0
M  V30 5229 H 474.994 -1.3488 0.504315 0
M  V30 5230 H 476.947 -4.08693 -1.02702 0
M  V30 5231 H 475.671 -2.92186 -1.45928 0
M  V30 5232 H 474.33 -3.62384 0.554382 0
M  V30 5233 H 473.978 -4.75171 -1.64988 0
M  V30 5234 H 473.678 -5.8686 -0.294822 0
M  V30 5235 H 475.202 -5.98283 -1.22023 0
M  V30 5236 H 476.616 -5.64058 1.02528 0
M  V30 5237 H 475.013 -5.72077 1.81239 0
M  V30 5238 H 476.083 -4.34753 2.14751 0
M  V30 5239 N 477.426 -0.562348 -1.47226 0
M  V30 5240 C 478.358 0.220011 -2.28142 0
M  V30 5241 C 479.371 0.874596 -1.37312 0
M  V30 5242 O 480.56 0.747583 -1.62091 0
M  V30 5243 C 477.66 1.32953 -3.11732 0
M  V30 5244 C 476.833 0.770759 -4.30556 0
M  V30 5245 C 475.892 1.76541 -4.95701 0
M  V30 5246 O 474.918 1.3095 -5.53932 0
M  V30 5247 N 476.12 3.09896 -4.90861 0
M  V30 5248 H 478.885 -0.474107 -2.95926 0
M  V30 5249 H 476.446 -0.398761 -1.56912 0
M  V30 5250 H 478.438 1.99378 -3.5218 0
M  V30 5251 H 477.008 1.92681 -2.46156 0
M  V30 5252 H 476.228 -0.0704056 -3.94137 0
M  V30 5253 H 477.516 0.376872 -5.07402 0
M  V30 5254 H 476.914 3.49577 -4.44761 0
M  V30 5255 H 475.471 3.71865 -5.35313 0
M  V30 5256 N 478.904 1.54736 -0.299062 0
M  V30 5257 C 479.834 2.26409 0.571085 0
M  V30 5258 C 480.815 1.2629 1.13951 0
M  V30 5259 O 482 1.55059 1.16921 0
M  V30 5260 C 479.13 3.00338 1.74396 0
M  V30 5261 C 478.084 4.07588 1.30599 0
M  V30 5262 C 477.41 4.69222 2.56387 0
M  V30 5263 C 478.71 5.20455 0.438645 0
M  V30 5264 H 480.404 2.99388 -0.0266991 0
M  V30 5265 H 477.95 1.43993 -0.0142812 0
M  V30 5266 H 479.903 3.49198 2.35878 0
M  V30 5267 H 478.627 2.24934 2.36796 0
M  V30 5268 H 477.286 3.59575 0.71424 0
M  V30 5269 H 476.934 3.9046 3.17097 0
M  V30 5270 H 476.634 5.41653 2.27784 0
M  V30 5271 H 478.158 5.20844 3.18675 0
M  V30 5272 H 479.572 5.65221 0.959085 0
M  V30 5273 H 477.969 5.99594 0.246466 0
M  V30 5274 H 479.039 4.8192 -0.536738 0
M  V30 5275 N 480.382 0.0267497 1.57577 0
M  V30 5276 C 481.345 -0.940916 2.08996 0
M  V30 5277 C 482.345 -1.25561 1.00455 0
M  V30 5278 O 483.535 -1.19634 1.26623 0
M  V30 5279 C 480.667 -2.25814 2.55384 0
M  V30 5280 H 481.86 -0.495628 2.95776 0
M  V30 5281 H 479.413 -0.221241 1.54726 0
M  V30 5282 H 480.148 -2.74976 1.71926 0
M  V30 5283 H 479.933 -2.04285 3.34679 0
M  V30 5284 H 481.423 -2.95178 2.95398 0
M  V30 5285 N 481.861 -1.55662 -0.24637 0
M  V30 5286 C 482.824 -1.89558 -1.28842 0
M  V30 5287 C 483.824 -0.772082 -1.41052 0
M  V30 5288 O 485.014 -1.04007 -1.39743 0
M  V30 5289 C 482.146 -2.12449 -2.66605 0
M  V30 5290 H 483.339 -2.82735 -1.00004 0
M  V30 5291 H 480.892 -1.48562 -0.485684 0
M  V30 5292 H 481.627 -1.21742 -3.00582 0
M  V30 5293 H 481.412 -2.94273 -2.59125 0
M  V30 5294 H 482.902 -2.39854 -3.41847 0
M  V30 5295 N 483.339 0.512053 -1.4905 0
M  V30 5296 C 484.585 1.26874 -1.58212 0
M  V30 5297 C 484.918 1.9241 -0.263073 0
M  V30 5298 O 484.193 1.80181 0.732476 0
M  V30 5299 C 484.476 2.34428 -2.73341 0
M  V30 5300 C 484.329 1.73466 -4.15006 0
M  V30 5301 C 485.648 3.36073 -2.84154 0
M  V30 5302 H 482.767 0.459924 -0.575881 0
M  V30 5303 H 485.409 0.568587 -1.81293 0
M  V30 5304 H 483.559 2.94146 -2.53792 0
M  V30 5305 H 485.231 1.17661 -4.46042 0
M  V30 5306 H 483.474 1.03921 -4.21168 0
M  V30 5307 H 484.145 2.51426 -4.91415 0
M  V30 5308 H 486.621 2.86332 -3.01916 0
M  V30 5309 H 485.497 4.08703 -3.66406 0
M  V30 5310 H 485.758 3.97725 -1.93048 0
M  V30 5311 N 484.817 1.37938 0.762283 0
M  V30 5312 C 485.727 1.36681 1.90671 0
M  V30 5313 C 486.743 0.265078 1.71969 0
M  V30 5314 O 487.919 0.502055 1.95042 0
M  V30 5315 C 484.984 1.18211 3.25925 0
M  V30 5316 C 484.045 2.3811 3.57214 0
M  V30 5317 C 483.278 2.20512 4.86014 0
M  V30 5318 O 483.501 1.19429 5.57757 0
M  V30 5319 O 482.435 3.08911 5.16583 0
M  V30 5320 H 486.261 2.33091 1.94685 0
M  V30 5321 H 483.846 1.18767 0.906356 0
M  V30 5322 H 485.728 1.09937 4.06807 0
M  V30 5323 H 484.403 0.248807 3.22742 0
M  V30 5324 H 483.31 2.51958 2.76529 0
M  V30 5325 H 484.643 3.30041 3.65149 0
M  V30 5326 N 486.295 -0.989507 1.22664 0
M  V30 5327 C 487.523 -1.76496 1.07967 0
M  V30 5328 C 487.938 -1.85148 -0.369543 0
M  V30 5329 O 487.295 -1.32408 -1.25596 0
M  V30 5330 C 487.346 -3.19642 1.68853 0
M  V30 5331 O 487.067 -3.11453 3.08105 0
M  V30 5332 C 488.568 -4.13621 1.59475 0
M  V30 5333 H 485.788 -0.55418 0.378319 0
M  V30 5334 H 488.332 -1.24378 1.62328 0
M  V30 5335 H 486.487 -3.68816 1.18547 0
M  V30 5336 H 486.901 -4.01499 3.37489 0
M  V30 5337 H 488.375 -5.11801 2.06795 0
M  V30 5338 H 488.852 -4.35718 0.55191 0
M  V30 5339 H 489.458 -3.70346 2.09103 0
M  V30 5340 N 487.773 -1.03688 -1.18687 0
M  V30 5341 C 489.001 -0.757918 -1.92518 0
M  V30 5342 C 489.416 0.684398 -1.75959 0
M  V30 5343 O 488.773 1.46617 -1.08673 0
M  V30 5344 C 488.824 -1.10985 -3.44042 0
M  V30 5345 O 488.545 -2.49554 -3.60076 0
M  V30 5346 C 490.046 -0.854844 -4.3498 0
M  V30 5347 H 487.266 -0.276699 -0.611293 0
M  V30 5348 H 489.81 -1.38352 -1.50595 0
M  V30 5349 H 487.965 -0.529279 -3.83767 0
M  V30 5350 H 488.379 -2.6291 -4.53849 0
M  V30 5351 H 489.853 -1.15098 -5.39867 0
M  V30 5352 H 490.33 0.210507 -4.38695 0
M  V30 5353 H 490.936 -1.41853 -4.00946 0
M  V30 5354 N 489.251 1.34841 -0.815825 0
M  V30 5355 C 490.214 2.27959 -0.238185 0
M  V30 5356 C 491.214 1.49983 0.579816 0
M  V30 5357 O 492.404 1.69617 0.396953 0
M  V30 5358 C 489.536 3.34314 0.666876 0
M  V30 5359 H 490.729 2.80558 -1.05958 0
M  V30 5360 H 488.282 1.44852 -0.587156 0
M  V30 5361 H 489.017 2.86916 1.5116 0
M  V30 5362 H 488.802 3.92014 0.0819106 0
M  V30 5363 H 490.292 4.0379 1.06506 0
M  V30 5364 N 490.729 0.570148 1.46925 0
M  V30 5365 C 491.677 -0.183181 2.31878 0
M  V30 5366 C 492.671 -0.896721 1.43719 0
M  V30 5367 O 493.877 -0.816536 1.60414 0
M  V30 5368 H 490.252 -0.077944 0.74795 0
M  V30 5369 H 492.223 0.552312 2.93244 0
M  V30 5370 C 490.972 -1.19172 3.2664 0
M  V30 5371 H 490.295 -0.652088 3.94446 0
M  V30 5372 H 491.735 -1.68946 3.88887 0
M  V30 5373 C 490.194 -2.24627 2.51086 0
M  V30 5374 O 490.724 -3.31773 2.26472 0
M  V30 5375 N 488.93 -1.98898 2.11867 0
M  V30 5376 H 488.477 -1.11777 2.32086 0
M  V30 5377 H 488.435 -2.6967 1.61634 0
M  V30 5378 N 492.207 -1.54576 0.307264 0
M  V30 5379 C 493.432 -2.05139 -0.305379 0
M  V30 5380 C 493.857 -1.18278 -1.46259 0
M  V30 5381 O 493.215 -0.188243 -1.8032 0
M  V30 5382 C 493.263 -3.53066 -0.733283 0
M  V30 5383 O 492.367 -3.69206 -1.83741 0
M  V30 5384 H 491.708 -0.661444 -0.0582105 0
M  V30 5385 H 494.238 -1.99569 0.450931 0
M  V30 5386 H 494.248 -3.95034 -1.02039 0
M  V30 5387 H 492.923 -4.15746 0.113198 0
M  V30 5388 H 491.5 -3.39143 -1.55037 0
M  V30 5389 N 493.685 -0.035106 -1.57561 0
M  V30 5390 C 494.615 0.942993 -2.13612 0
M  V30 5391 C 495.596 1.33531 -1.05373 0
M  V30 5392 O 496.781 1.41287 -1.33235 0
M  V30 5393 C 493.911 2.22332 -2.66807 0
M  V30 5394 C 492.865 1.97156 -3.79886 0
M  V30 5395 C 492.191 3.31506 -4.19533 0
M  V30 5396 C 493.491 1.30596 -5.05709 0
M  V30 5397 H 495.185 0.476179 -2.95589 0
M  V30 5398 H 492.731 0.227602 -1.4219 0
M  V30 5399 H 494.684 2.91142 -3.04654 0
M  V30 5400 H 493.408 2.7119 -1.81999 0
M  V30 5401 H 492.067 1.30763 -3.42486 0
M  V30 5402 H 491.715 3.78134 -3.31698 0
M  V30 5403 H 491.415 3.15465 -4.95738 0
M  V30 5404 H 492.939 4.01574 -4.59968 0
M  V30 5405 H 494.353 1.89416 -5.41105 0
M  V30 5406 H 492.75 1.24934 -5.86951 0
M  V30 5407 H 493.82 0.279742 -4.84092 0
M  V30 5408 N 495.163 1.55791 0.238111 0
M  V30 5409 C 496.096 1.86036 1.32158 0
M  V30 5410 C 497.074 0.716216 1.45976 0
M  V30 5411 O 498.258 0.962882 1.62052 0
M  V30 5412 C 495.385 2.05281 2.69402 0
M  V30 5413 C 494.431 3.27939 2.72687 0
M  V30 5414 S 495.264 4.84342 2.28413 0
M  V30 5415 C 496.42 5.06604 3.67565 0
M  V30 5416 H 496.653 2.77644 1.06306 0
M  V30 5417 H 494.186 1.48012 0.439537 0
M  V30 5418 H 496.144 2.17053 3.48423 0
M  V30 5419 H 494.805 1.14499 2.92487 0
M  V30 5420 H 493.998 3.38398 3.73501 0
M  V30 5421 H 493.6 3.14938 2.01717 0
M  V30 5422 H 495.892 4.94486 4.6313 0
M  V30 5423 H 496.835 6.08554 3.62033 0
M  V30 5424 H 497.243 4.34409 3.60485 0
M  V30 5425 N 496.642 -0.504142 1.49319 0
M  V30 5426 C 497.888 -1.25767 1.59857 0
M  V30 5427 C 498.243 -1.90348 0.280262 0
M  V30 5428 O 497.536 -1.77588 -0.719241 0
M  V30 5429 C 497.73 -2.35021 2.69258 0
M  V30 5430 C 497.559 -1.81154 4.11598 0
M  V30 5431 C 496.329 -1.62596 4.78425 0
M  V30 5432 C 498.527 -1.3252 4.96934 0
M  V30 5433 N 496.509 -1.03625 6.05091 0
M  V30 5434 C 497.88 -0.856633 6.14054 0
M  V30 5435 C 499.935 -1.21063 4.82958 0
M  V30 5436 C 498.638 -0.284841 7.18736 0
M  V30 5437 C 500.664 -0.652815 5.87786 0
M  V30 5438 C 500.026 -0.194461 7.04132 0
M  V30 5439 H 496.125 -0.450293 0.639343 0
M  V30 5440 H 498.709 -0.565344 1.86311 0
M  V30 5441 H 496.88 -3.01719 2.44581 0
M  V30 5442 H 498.612 -3.02061 2.69335 0
M  V30 5443 H 495.367 -1.86873 4.35173 0
M  V30 5444 H 495.791 -0.76076 6.72712 0
M  V30 5445 H 500.433 -1.551 3.93324 0
M  V30 5446 H 498.151 0.0677979 8.08072 0
M  V30 5447 H 501.737 -0.566994 5.79031 0
M  V30 5448 H 500.617 0.230442 7.83861 0
M  V30 5449 N 498.12 -1.38341 -0.754957 0
M  V30 5450 C 499.369 -1.33791 -1.5094 0
M  V30 5451 C 499.682 0.0699267 -1.95475 0
M  V30 5452 O 500.888 0.237956 -2.70455 0
M  V30 5453 C 499.344 -2.34934 -2.72643 0
M  V30 5454 C 498.952 -3.81332 -2.35138 0
M  V30 5455 C 500.696 -2.39425 -3.50536 0
M  V30 5456 C 498.603 -4.74164 -3.53444 0
M  V30 5457 H 497.533 -0.497314 -0.566741 0
M  V30 5458 H 500.184 -1.63888 -0.825403 0
M  V30 5459 H 498.566 -1.97878 -3.43017 0
M  V30 5460 H 499.74 -4.27319 -1.7244 0
M  V30 5461 H 498.055 -3.79946 -1.70382 0
M  V30 5462 H 500.652 -3.0598 -4.38498 0
M  V30 5463 H 500.995 -1.41278 -3.91594 0
M  V30 5464 H 501.528 -2.75274 -2.87174 0
M  V30 5465 H 498.267 -5.73501 -3.17453 0
M  V30 5466 H 497.787 -4.3287 -4.15191 0
M  V30 5467 H 499.466 -4.92111 -4.20043 0
M  V30 5468 N 499.598 0.982988 -1.23187 0
M  V30 5469 C 500.528 2.09301 -1.03515 0
M  V30 5470 C 501.509 1.70035 0.0471136 0
M  V30 5471 O 502.694 1.93847 -0.117029 0
M  V30 5472 C 499.824 3.4167 -0.622791 0
M  V30 5473 C 498.778 3.94828 -1.65211 0
M  V30 5474 C 498.104 5.23362 -1.09527 0
M  V30 5475 C 499.404 4.2439 -3.04451 0
M  V30 5476 H 501.098 2.26016 -1.96359 0
M  V30 5477 H 498.644 1.08611 -0.945501 0
M  V30 5478 H 500.597 4.18746 -0.472233 0
M  V30 5479 H 499.321 3.24811 0.341329 0
M  V30 5480 H 497.98 3.19895 -1.79061 0
M  V30 5481 H 497.628 5.02852 -0.122211 0
M  V30 5482 H 497.328 5.59895 -1.783 0
M  V30 5483 H 498.852 6.03062 -0.956511 0
M  V30 5484 H 500.266 4.92225 -2.93917 0
M  V30 5485 H 498.663 4.72118 -3.70438 0
M  V30 5486 H 499.733 3.31765 -3.53638 0
M  V30 5487 N 501.076 1.04316 1.18135 0
M  V30 5488 C 502.306 0.767003 1.91835 0
M  V30 5489 C 502.714 -0.68002 1.76557 0
M  V30 5490 O 502.057 -1.47548 1.09432 0
M  V30 5491 C 502.119 1.05674 3.43618 0
M  V30 5492 C 501.783 2.49818 3.82675 0
M  V30 5493 C 502.78 3.48003 3.86251 0
M  V30 5494 C 500.465 2.84596 4.13897 0
M  V30 5495 C 502.459 4.79016 4.20503 0
M  V30 5496 C 500.146 4.15813 4.4782 0
M  V30 5497 C 501.144 5.12834 4.51099 0
M  V30 5498 O 500.832 6.41699 4.84229 0
M  V30 5499 H 500.564 0.278948 0.615763 0
M  V30 5500 H 503.118 1.3946 1.50798 0
M  V30 5501 H 501.348 0.372029 3.84906 0
M  V30 5502 H 503.037 0.767994 3.98568 0
M  V30 5503 H 503.803 3.22475 3.62264 0
M  V30 5504 H 499.682 2.09748 4.1052 0
M  V30 5505 H 503.226 5.54739 4.22978 0
M  V30 5506 H 499.123 4.41109 4.71268 0
M  V30 5507 H 499.891 6.46387 5.02121 0
M  V30 5508 N 502.554 -1.34406 0.822964 0
M  V30 5509 C 503.502 -2.31428 0.233165 0
M  V30 5510 C 504.496 -1.57404 -0.626118 0
M  V30 5511 O 505.702 -1.72402 -0.517453 0
M  V30 5512 H 502.077 -0.749863 0.0566557 0
M  V30 5513 H 504.048 -2.78699 1.06628 0
M  V30 5514 C 502.797 -3.42653 -0.590264 0
M  V30 5515 H 502.12 -3.99753 0.0616129 0
M  V30 5516 H 503.56 -4.12778 -0.969054 0
M  V30 5517 C 502.019 -2.87112 -1.76262 0
M  V30 5518 O 502.549 -2.81995 -2.8608 0
M  V30 5519 N 500.755 -2.43934 -1.57938 0
M  V30 5520 H 500.302 -2.48296 -0.686078 0
M  V30 5521 H 500.26 -2.07123 -2.36532 0
M  V30 5522 N 504.032 -0.577932 -1.46621 0
M  V30 5523 C 504.962 0.145917 -2.33044 0
M  V30 5524 C 505.943 0.888412 -1.45056 0
M  V30 5525 O 507.128 0.864812 -1.73881 0
M  V30 5526 C 504.258 1.16322 -3.27241 0
M  V30 5527 C 503.212 0.535868 -4.24632 0
M  V30 5528 C 502.538 1.65929 -5.08303 0
M  V30 5529 C 503.838 -0.523861 -5.19666 0
M  V30 5530 H 505.532 -0.575636 -2.93814 0
M  V30 5531 H 503.078 -0.278272 -1.41286 0
M  V30 5532 H 505.031 1.67793 -3.86553 0
M  V30 5533 H 503.755 1.91498 -2.64567 0
M  V30 5534 H 502.414 0.0422759 -3.66576 0
M  V30 5535 H 502.062 2.40061 -4.42018 0
M  V30 5536 H 501.762 1.2452 -5.74255 0
M  V30 5537 H 503.286 2.17686 -5.70478 0
M  V30 5538 H 504.7 -0.0944059 -5.73222 0
M  V30 5539 H 503.097 -0.858 -5.93935 0
M  V30 5540 H 504.167 -1.41197 -4.63887 0
M  V30 5541 N 505.51 1.54411 -0.315457 0
M  V30 5542 C 506.735 2.05299 0.294496 0
M  V30 5543 C 507.16 1.19052 1.4563 0
M  V30 5544 O 506.518 0.197804 1.80218 0
M  V30 5545 C 506.566 3.5345 0.714549 0
M  V30 5546 O 505.67 3.70175 1.81781 0
M  V30 5547 H 505.011 0.661743 0.0547019 0
M  V30 5548 H 507.541 1.99327 -0.461508 0
M  V30 5549 H 507.551 3.9557 0.999426 0
M  V30 5550 H 506.226 4.1568 -0.135244 0
M  V30 5551 H 504.803 3.3996 1.53236 0
M  V30 5552 N 506.988 0.0434614 1.5754 0
M  V30 5553 C 508.404 -0.313039 1.565 0
M  V30 5554 C 508.604 -1.71954 1.05043 0
M  V30 5555 O 507.66 -2.425 0.703564 0
M  V30 5556 C 508.973 -0.148544 3.00333 0
M  V30 5557 C 510.521 -0.220231 3.12224 0
M  V30 5558 C 510.996 -0.0843565 4.57922 0
M  V30 5559 N 512.487 -0.140881 4.62986 0
M  V30 5560 C 513.222 -0.0597443 5.73369 0
M  V30 5561 N 512.718 0.0733004 6.92761 0
M  V30 5562 N 514.511 -0.11477 5.61983 0
M  V30 5563 H 506.662 0.96303 1.89313 0
M  V30 5564 H 508.925 0.373164 0.871466 0
M  V30 5565 H 508.631 0.820894 3.41986 0
M  V30 5566 H 508.505 -0.912798 3.65989 0
M  V30 5567 H 510.892 -1.18014 2.70475 0
M  V30 5568 H 510.973 0.574646 2.49262 0
M  V30 5569 H 510.617 0.872192 5.00355 0
M  V30 5570 H 510.547 -0.898281 5.18882 0
M  V30 5571 H 513.038 -0.243273 3.77116 0
M  V30 5572 H 513.351 0.128128 7.72694 0
M  V30 5573 H 511.696 0.10828 6.94916 0
M  V30 5574 H 514.887 -0.217212 4.67596 0
M  V30 5575 H 515.06 -0.0480779 6.47982 0
M  V30 5576 N 508.466 -1.55915 -0.229846 0
M  V30 5577 C 509.414 -1.9258 -1.30444 0
M  V30 5578 C 510.408 -0.806839 -1.48951 0
M  V30 5579 O 511.614 -0.991606 -1.50224 0
M  V30 5580 H 507.989 -0.611878 -0.437161 0
M  V30 5581 H 509.96 -2.82264 -0.96797 0
M  V30 5582 C 508.709 -2.25171 -2.6494 0
M  V30 5583 H 508.032 -3.10782 -2.51504 0
M  V30 5584 H 509.472 -2.54716 -3.38963 0
M  V30 5585 C 507.931 -1.07394 -3.19324 0
M  V30 5586 O 508.461 -0.330759 -4.00336 0
M  V30 5587 N 506.667 -0.859984 -2.77584 0
M  V30 5588 H 506.214 -1.46605 -2.11813 0
M  V30 5589 H 506.172 -0.0736671 -3.14314 0
M  V30 5590 N 509.944 0.496216 -1.49584 0
M  V30 5591 C 511.355 1.07765 -1.52459 0
M  V30 5592 C 511.706 1.93679 -0.31353 0
M  V30 5593 O 510.831 2.08588 0.576186 0
M  V30 5594 C 511.426 1.96111 -2.76271 0
M  V30 5595 C 509.985 2.49409 -2.81908 0
M  V30 5596 C 509.132 1.27142 -2.46435 0
M  V30 5597 H 512.083 0.279914 -1.56212 0
M  V30 5598 H 512.104 2.80862 -2.56704 0
M  V30 5599 H 511.616 1.33555 -3.64396 0
M  V30 5600 H 509.717 3.1559 -1.98074 0
M  V30 5601 H 509.83 2.86234 -3.84196 0
M  V30 5602 H 508.194 1.59818 -1.98319 0
M  V30 5603 H 508.977 0.662866 -3.3684 0
M  V30 5604 N 511.423 1.38739 0.74761 0
M  V30 5605 C 512.355 1.32341 1.87132 0
M  V30 5606 C 513.368 0.234502 1.61102 0
M  V30 5607 O 514.557 0.492516 1.71571 0
M  V30 5608 C 511.657 1.02915 3.22896 0
M  V30 5609 C 510.83 2.22834 3.76383 0
M  V30 5610 C 509.889 1.90059 4.90677 0
M  V30 5611 O 508.915 2.62615 5.04997 0
M  V30 5612 N 510.117 0.859141 5.74107 0
M  V30 5613 H 512.882 2.29175 1.93129 0
M  V30 5614 H 510.443 1.32678 0.927805 0
M  V30 5615 H 512.435 0.79031 3.96908 0
M  V30 5616 H 511.005 0.148572 3.12247 0
M  V30 5617 H 510.225 2.62747 2.93867 0
M  V30 5618 H 511.513 3.02851 4.08851 0
M  V30 5619 H 510.911 0.257564 5.65113 0
M  V30 5620 H 509.468 0.680189 6.48241 0
M  V30 5621 N 512.901 -0.976442 1.23707 0
M  V30 5622 C 514.147 -1.72081 1.07312 0
M  V30 5623 C 514.48 -1.90275 -0.388476 0
M  V30 5624 O 513.755 -1.4579 -1.28746 0
M  V30 5625 C 514.038 -3.11675 1.80363 0
M  V30 5626 C 513.891 -3.01027 3.3422 0
M  V30 5627 C 515.21 -4.1117 1.5693 0
M  V30 5628 H 512.329 -0.624583 0.391236 0
M  V30 5629 H 514.971 -1.13649 1.52263 0
M  V30 5630 H 513.121 -3.61559 1.42153 0
M  V30 5631 H 514.793 -2.58637 3.81975 0
M  V30 5632 H 513.036 -2.3744 3.63049 0
M  V30 5633 H 513.707 -3.9988 3.80525 0
M  V30 5634 H 516.183 -3.7011 1.90151 0
M  V30 5635 H 515.059 -5.06928 2.10513 0
M  V30 5636 H 515.32 -4.392 0.505548 0
M  V30 5637 N 514.379 -1.04941 -1.1758 0
M  V30 5638 C 515.311 -0.606174 -2.21039 0
M  V30 5639 C 516.324 0.328763 -1.59446 0
M  V30 5640 O 517.513 0.121895 -1.78083 0
M  V30 5641 C 514.613 0.133294 -3.38638 0
M  V30 5642 C 513.786 -0.811711 -4.29802 0
M  V30 5643 C 512.845 -0.113958 -5.26077 0
M  V30 5644 O 511.871 -0.747237 -5.64274 0
M  V30 5645 N 513.073 1.14953 -5.69004 0
M  V30 5646 H 515.838 -1.49606 -2.59689 0
M  V30 5647 H 513.399 -0.930997 -1.32454 0
M  V30 5648 H 515.391 0.610144 -4.00074 0
M  V30 5649 H 513.961 0.924816 -2.98607 0
M  V30 5650 H 513.181 -1.46824 -3.65837 0
M  V30 5651 H 514.469 -1.45326 -4.87604 0
M  V30 5652 H 513.867 1.68441 -5.40041 0
M  V30 5653 H 512.424 1.57049 -6.32597 0
M  V30 5654 N 515.857 1.33968 -0.830081 0
M  V30 5655 C 516.789 2.28194 -0.21448 0
M  V30 5656 C 517.802 1.5135 0.599752 0
M  V30 5657 O 518.991 1.73286 0.42826 0
M  V30 5658 C 516.091 3.31221 0.717356 0
M  V30 5659 C 515.264 4.37365 -0.055613 0
M  V30 5660 C 514.323 5.2011 0.798231 0
M  V30 5661 O 513.349 5.68691 0.240616 0
M  V30 5662 N 514.551 5.40523 2.11695 0
M  V30 5663 H 517.316 2.81662 -1.02405 0
M  V30 5664 H 514.877 1.46568 -0.687713 0
M  V30 5665 H 516.869 3.83477 1.29334 0
M  V30 5666 H 515.439 2.78095 1.42765 0
M  V30 5667 H 514.659 3.85727 -0.812936 0
M  V30 5668 H 515.947 5.05397 -0.587444 0
M  V30 5669 H 515.345 5.0274 2.59363 0
M  V30 5670 H 513.902 5.95871 2.64162 0
M  V30 5671 N 517.335 0.585699 1.46312 0
M  V30 5672 C 518.282 -0.145835 2.30339 0
M  V30 5673 C 519.252 -0.881215 1.40797 0
M  V30 5674 O 520.437 -0.871293 1.69744 0
M  V30 5675 C 517.577 -1.15161 3.25318 0
M  V30 5676 C 516.69 -0.419367 4.2996 0
M  V30 5677 C 515.825 -1.41293 5.12064 0
M  V30 5678 C 514.864 -0.667261 6.08452 0
M  V30 5679 N 514.001 -1.60903 6.83414 0
M  V30 5680 H 518.841 0.576755 2.92365 0
M  V30 5681 H 516.378 0.296237 1.44086 0
M  V30 5682 H 518.336 -1.74763 3.78832 0
M  V30 5683 H 516.966 -1.84188 2.65094 0
M  V30 5684 H 516.018 0.291751 3.7928 0
M  V30 5685 H 517.33 0.163433 4.98532 0
M  V30 5686 H 516.484 -2.08167 5.6987 0
M  V30 5687 H 515.223 -2.02966 4.43459 0
M  V30 5688 H 514.228 0.0152356 5.49798 0
M  V30 5689 H 515.453 -0.0558817 6.79077 0
M  V30 5690 H 513.399 -2.21381 6.17516 0
M  V30 5691 H 513.316 -1.07911 7.48259 0
M  V30 5692 H 514.584 -2.26802 7.45775 0
M  V30 5693 N 518.813 -1.54241 0.323641 0
M  V30 5694 C 519.743 -2.27289 -0.534993 0
M  V30 5695 C 520.724 -1.28087 -1.11927 0
M  V30 5696 O 521.909 -1.56899 -1.14439 0
M  V30 5697 C 519.039 -3.03075 -1.69596 0
M  V30 5698 C 517.993 -4.09614 -1.24098 0
M  V30 5699 C 517.319 -4.73242 -2.4889 0
M  V30 5700 C 518.619 -5.21087 -0.355789 0
M  V30 5701 H 520.313 -2.99308 0.0743257 0
M  V30 5702 H 517.859 -1.43952 0.0371874 0
M  V30 5703 H 519.812 -3.52907 -2.30293 0
M  V30 5704 H 518.536 -2.28673 -2.33187 0
M  V30 5705 H 517.195 -3.60666 -0.656945 0
M  V30 5706 H 516.843 -3.95455 -3.10845 0
M  V30 5707 H 516.543 -5.45209 -2.19138 0
M  V30 5708 H 518.067 -5.25848 -3.10348 0
M  V30 5709 H 519.481 -5.66675 -0.869042 0
M  V30 5710 H 517.878 -5.9991 -0.151045 0
M  V30 5711 H 518.948 -4.81005 0.613339 0
M  V30 5712 N 520.291 -0.0518155 -1.57515 0
M  V30 5713 C 521.221 0.920283 -2.146 0
M  V30 5714 C 522.202 1.32406 -1.06783 0
M  V30 5715 O 523.387 1.39866 -1.34726 0
M  V30 5716 C 520.517 2.1949 -2.6915 0
M  V30 5717 C 519.471 1.93116 -3.81956 0
M  V30 5718 C 518.797 3.27037 -4.23026 0
M  V30 5719 C 520.097 1.25225 -5.07066 0
M  V30 5720 H 521.791 0.444801 -2.96077 0
M  V30 5721 H 519.337 0.212508 -1.42423 0
M  V30 5722 H 521.29 2.87894 -3.07725 0
M  V30 5723 H 520.014 2.69244 -1.84865 0
M  V30 5724 H 518.673 1.27123 -3.43854 0
M  V30 5725 H 518.321 3.74595 -3.3569 0
M  V30 5726 H 518.021 3.10189 -4.99056 0
M  V30 5727 H 519.545 3.96673 -4.64202 0
M  V30 5728 H 520.959 1.83666 -5.43083 0
M  V30 5729 H 519.356 1.18702 -5.88243 0
M  V30 5730 H 520.426 0.228382 -4.84362 0
M  V30 5731 N 521.769 1.56035 0.221574 0
M  V30 5732 C 522.716 1.92413 1.27459 0
M  V30 5733 C 523.686 0.781323 1.46576 0
M  V30 5734 O 524.871 1.03721 1.60145 0
M  V30 5735 C 522.011 2.24617 2.61995 0
M  V30 5736 C 521.124 3.51831 2.50677 0
M  V30 5737 C 520.259 3.73482 3.77736 0
M  V30 5738 C 519.298 4.94211 3.6114 0
M  V30 5739 N 518.435 5.12252 4.80148 0
M  V30 5740 H 523.275 2.82203 0.957355 0
M  V30 5741 H 520.812 1.39676 0.461415 0
M  V30 5742 H 522.77 2.41298 3.40339 0
M  V30 5743 H 521.4 1.38 2.91815 0
M  V30 5744 H 520.452 3.43343 1.63767 0
M  V30 5745 H 521.764 4.40328 2.34334 0
M  V30 5746 H 520.918 3.9026 4.64523 0
M  V30 5747 H 519.657 2.83266 3.97003 0
M  V30 5748 H 518.662 4.77384 2.72736 0
M  V30 5749 H 519.887 5.85912 3.43343 0
M  V30 5750 H 517.833 4.24978 4.99729 0
M  V30 5751 H 517.75 5.94881 4.66532 0
M  V30 5752 H 519.018 5.33465 5.68362 0
M  V30 5753 N 523.247 -0.488276 1.49845 0
M  V30 5754 C 524.157 -1.61451 1.70207 0
M  V30 5755 C 525.173 -1.63877 0.584846 0
M  V30 5756 O 526.349 -1.82063 0.861107 0
M  V30 5757 C 523.414 -2.9776 1.77594 0
M  V30 5758 C 522.475 -3.05861 3.01243 0
M  V30 5759 C 521.708 -4.35668 3.08268 0
M  V30 5760 O 521.931 -5.25197 2.22541 0
M  V30 5761 O 520.865 -4.49005 4.00847 0
M  V30 5762 H 524.691 -1.47199 2.65643 0
M  V30 5763 H 522.276 -0.665939 1.33737 0
M  V30 5764 H 524.158 -3.7875 1.84732 0
M  V30 5765 H 522.833 -3.12248 0.8534 0
M  V30 5766 H 521.74 -2.24012 2.99616 0
M  V30 5767 H 523.073 -2.96304 3.9302 0
M  V30 5768 N 524.725 -1.39134 -0.740242 0
M  V30 5769 C 525.974 -1.35384 -1.49512 0
M  V30 5770 C 526.287 0.04919 -1.95538 0
M  V30 5771 O 527.493 0.209257 -2.70692 0
M  V30 5772 C 525.949 -2.37812 -2.70136 0
M  V30 5773 C 525.557 -3.83804 -2.31081 0
M  V30 5774 C 527.301 -2.4313 -3.47977 0
M  V30 5775 C 525.208 -4.77886 -3.48395 0
M  V30 5776 H 524.138 -0.503297 -0.561434 0
M  V30 5777 H 526.789 -1.64754 -0.807974 0
M  V30 5778 H 525.171 -2.01505 -3.40899 0
M  V30 5779 H 526.345 -4.29123 -1.67898 0
M  V30 5780 H 524.66 -3.81732 -1.66343 0
M  V30 5781 H 527.257 -3.10614 -4.35228 0
M  V30 5782 H 527.6 -1.45423 -3.90074 0
M  V30 5783 H 528.133 -2.78304 -2.84239 0
M  V30 5784 H 524.872 -5.76836 -3.11353 0
M  V30 5785 H 524.392 -4.3725 -4.10576 0
M  V30 5786 H 526.071 -4.96538 -4.148 0
M  V30 5787 N 526.204 0.969867 -1.24223 0
M  V30 5788 C 527.136 2.0669 -0.99055 0
M  V30 5789 C 528.149 1.62753 0.0392222 0
M  V30 5790 O 529.338 1.77403 -0.197561 0
M  V30 5791 C 526.438 3.35589 -0.472594 0
M  V30 5792 C 525.611 4.08444 -1.56499 0
M  V30 5793 C 524.67 5.15616 -1.05007 0
M  V30 5794 O 523.696 5.41911 -1.7413 0
M  V30 5795 N 524.898 5.80383 0.116641 0
M  V30 5796 H 527.663 2.28855 -1.93508 0
M  V30 5797 H 525.224 1.13733 -1.15223 0
M  V30 5798 H 527.216 4.04542 -0.112919 0
M  V30 5799 H 525.786 3.10311 0.377617 0
M  V30 5800 H 525.006 3.33798 -2.09696 0
M  V30 5801 H 526.294 4.53882 -2.29932 0
M  V30 5802 H 525.692 5.6142 0.694589 0
M  V30 5803 H 524.249 6.50462 0.417483 0
M  V30 5804 N 527.682 1.05563 1.17022 0
M  V30 5805 C 528.907 0.788437 1.91829 0
M  V30 5806 C 529.332 -0.650356 1.76499 0
M  V30 5807 O 528.69 -1.45229 1.08527 0
M  V30 5808 C 528.738 1.1786 3.40795 0
M  V30 5809 O 527.842 0.312965 4.11211 0
M  V30 5810 H 527.183 0.288794 0.597908 0
M  V30 5811 H 529.713 1.40948 1.48307 0
M  V30 5812 H 529.723 1.14697 3.91546 0
M  V30 5813 H 528.398 2.22666 3.51273 0
M  V30 5814 H 526.975 0.405515 3.70689 0
M  V30 5815 N 529.16 -1.33526 0.837174 0
M  V30 5816 C 530.406 -1.9813 0.432704 0
M  V30 5817 C 530.739 -1.66168 -1.00508 0
M  V30 5818 O 530.014 -0.94069 -1.70239 0
M  V30 5819 C 530.297 -3.54151 0.651834 0
M  V30 5820 C 530.15 -3.95806 2.13676 0
M  V30 5821 C 531.469 -4.39993 0.0968937 0
M  V30 5822 H 528.588 -0.719713 0.15869 0
M  V30 5823 H 531.23 -1.58193 1.05237 0
M  V30 5824 H 529.38 -3.88301 0.124369 0
M  V30 5825 H 531.052 -3.71921 2.72896 0
M  V30 5826 H 529.295 -3.45599 2.62191 0
M  V30 5827 H 529.966 -5.0447 2.24084 0
M  V30 5828 H 532.442 -4.12479 0.547733 0
M  V30 5829 H 531.318 -5.48186 0.279917 0
M  V30 5830 H 531.579 -4.3066 -0.9992 0
M  V30 5831 N 530.638 -0.59345 -1.46 0
M  V30 5832 C 531.568 0.121192 -2.33185 0
M  V30 5833 C 532.549 0.872977 -1.4599 0
M  V30 5834 O 533.734 0.846321 -1.74789 0
M  V30 5835 C 530.864 1.12844 -3.28456 0
M  V30 5836 C 529.818 0.4908 -4.25177 0
M  V30 5837 C 529.144 1.60529 -5.10034 0
M  V30 5838 C 530.444 -0.578949 -5.19081 0
M  V30 5839 H 532.138 -0.606767 -2.93187 0
M  V30 5840 H 529.684 -0.293242 -1.40983 0
M  V30 5841 H 531.637 1.63684 -3.88311 0
M  V30 5842 H 530.361 1.88681 -2.66584 0
M  V30 5843 H 529.02 0.00339328 -3.666 0
M  V30 5844 H 528.668 2.35359 -4.44539 0
M  V30 5845 H 528.368 1.18422 -5.75543 0
M  V30 5846 H 529.892 2.11623 -5.72755 0
M  V30 5847 H 531.306 -0.155199 -5.7309 0
M  V30 5848 H 529.703 -0.920947 -5.92991 0
M  V30 5849 H 530.773 -1.46109 -4.62364 0
M  V30 5850 N 532.116 1.54067 -0.331816 0
M  V30 5851 C 533.527 1.86059 0.15454 0
M  V30 5852 C 533.878 1.25331 1.50952 0
M  V30 5853 O 533.003 0.562441 2.08963 0
M  V30 5854 C 533.598 3.37581 0.287192 0
M  V30 5855 C 532.157 3.69493 0.717773 0
M  V30 5856 C 531.304 2.76863 -0.155569 0
M  V30 5857 H 534.255 1.48797 -0.55182 0
M  V30 5858 H 534.276 3.63744 1.11671 0
M  V30 5859 H 533.788 3.81751 -0.699131 0
M  V30 5860 H 531.889 3.3086 1.71354 0
M  V30 5861 H 532.002 4.76315 0.5158 0
M  V30 5862 H 530.366 2.51995 0.370213 0
M  V30 5863 H 531.149 3.23861 -1.13881 0
M  V30 5864 N 533.594 0.0601682 1.57485 0
M  V30 5865 C 534.504 -0.926121 2.15546 0
M  V30 5866 C 535.52 -1.33532 1.11558 0
M  V30 5867 O 536.696 -1.4104 1.4377 0
M  V30 5868 C 533.761 -2.17952 2.69625 0
M  V30 5869 C 532.822 -1.82783 3.88444 0
M  V30 5870 C 532.055 -3.02148 4.39935 0
M  V30 5871 O 532.278 -4.15803 3.90466 0
M  V30 5872 O 531.212 -2.82639 5.31412 0
M  V30 5873 H 535.038 -0.462289 3.00161 0
M  V30 5874 H 532.623 -0.162246 1.48516 0
M  V30 5875 H 534.505 -2.91474 3.04337 0
M  V30 5876 H 533.18 -2.63456 1.88077 0
M  V30 5877 H 532.087 -1.06549 3.58606 0
M  V30 5878 H 533.42 -1.42072 4.7125 0
M  V30 5879 N 535.072 -1.5615 -0.213296 0
M  V30 5880 C 536.02 -1.93953 -1.28394 0
M  V30 5881 C 537.014 -0.822592 -1.48087 0
M  V30 5882 O 538.22 -1.00748 -1.49164 0
M  V30 5883 H 534.595 -0.61648 -0.430646 0
M  V30 5884 H 536.566 -2.83275 -0.937977 0
M  V30 5885 C 535.315 -2.27969 -2.62537 0
M  V30 5886 H 534.638 -3.13432 -2.48194 0
M  V30 5887 H 536.078 -2.58297 -3.36242 0
M  V30 5888 C 534.537 -1.10775 -3.18167 0
M  V30 5889 O 535.067 -0.373201 -3.99963 0
M  V30 5890 N 533.273 -0.889377 -2.76656 0
M  V30 5891 H 532.82 -1.48843 -2.10246 0
M  V30 5892 H 532.778 -0.107 -3.14218 0
M  V30 5893 N 536.55 0.480323 -1.50102 0
M  V30 5894 C 537.482 1.59669 -1.64433 0
M  V30 5895 C 538.495 1.54063 -0.52615 0
M  V30 5896 O 539.684 1.59619 -0.798992 0
M  V30 5897 C 536.784 2.98527 -1.6042 0
M  V30 5898 C 535.957 3.291 -2.88117 0
M  V30 5899 C 535.016 4.47468 -2.76873 0
M  V30 5900 O 534.042 4.4823 -3.50825 0
M  V30 5901 N 535.244 5.48593 -1.89806 0
M  V30 5902 H 538.009 1.47795 -2.60723 0
M  V30 5903 H 535.57 0.66858 -1.4745 0
M  V30 5904 H 537.562 3.75666 -1.50523 0
M  V30 5905 H 536.132 3.04218 -0.719036 0
M  V30 5906 H 535.352 2.40662 -3.12211 0
M  V30 5907 H 536.64 3.46334 -3.72734 0
M  V30 5908 H 536.038 5.50791 -1.2902 0
M  V30 5909 H 534.595 6.24752 -1.85819 0
M  V30 5910 N 538.028 1.39524 0.732853 0
M  V30 5911 C 539.274 1.37068 1.49467 0
M  V30 5912 C 539.607 -0.0327166 1.94172 0
M  V30 5913 O 538.882 -0.998071 1.66939 0
M  V30 5914 C 539.165 2.34494 2.73285 0
M  V30 5915 C 539.018 3.83784 2.34585 0
M  V30 5916 C 540.337 2.29717 3.75391 0
M  V30 5917 H 537.456 0.499206 0.542183 0
M  V30 5918 H 540.098 1.70532 0.837783 0
M  V30 5919 H 538.248 2.06087 3.29333 0
M  V30 5920 H 539.92 4.22949 1.84151 0
M  V30 5921 H 538.163 4.00455 1.66787 0
M  V30 5922 H 538.834 4.47444 3.23262 0
M  V30 5923 H 541.31 2.54839 3.28932 0
M  V30 5924 H 540.186 2.99962 4.59689 0
M  V30 5925 H 540.447 1.30291 4.22465 0
M  V30 5926 N 539.506 -0.963266 1.24736 0
M  V30 5927 C 540.917 -1.52145 1.08207 0
M  V30 5928 C 541.268 -1.93142 -0.345061 0
M  V30 5929 O 540.393 -1.77769 -1.23399 0
M  V30 5930 C 540.988 -2.76486 1.95808 0
M  V30 5931 C 539.547 -3.28646 1.8349 0
M  V30 5932 C 538.694 -2.01529 1.90476 0
M  V30 5933 H 541.645 -0.781083 1.38148 0
M  V30 5934 H 541.666 -3.49986 1.49297 0
M  V30 5935 H 541.178 -2.46617 2.99669 0
M  V30 5936 H 539.279 -3.63357 0.824787 0
M  V30 5937 H 539.392 -3.97246 2.67829 0
M  V30 5938 H 537.756 -2.16442 1.34258 0
M  V30 5939 H 538.539 -1.7402 2.95926 0
M  V30 5940 N 540.985 -1.06182 -1.16461 0
M  V30 5941 C 542.401 -0.785065 -1.38956 0
M  V30 5942 C 542.601 0.616103 -1.9185 0
M  V30 5943 O 541.657 1.37686 -2.11657 0
M  V30 5944 C 542.97 -1.84902 -2.37132 0
M  V30 5945 C 544.518 -1.8724 -2.50819 0
M  V30 5946 C 544.993 -2.92686 -3.52277 0
M  V30 5947 N 546.484 -2.91712 -3.59803 0
M  V30 5948 C 547.219 -3.69949 -4.38093 0
M  V30 5949 N 546.715 -4.58 -5.19815 0
M  V30 5950 N 548.508 -3.58346 -4.33064 0
M  V30 5951 H 540.659 -1.96569 -0.804634 0
M  V30 5952 H 542.922 -0.851747 -0.416211 0
M  V30 5953 H 542.628 -2.85518 -2.0536 0
M  V30 5954 H 542.502 -1.69908 -3.36766 0
M  V30 5955 H 544.889 -0.872827 -2.81897 0
M  V30 5956 H 544.97 -2.06311 -1.51226 0
M  V30 5957 H 544.614 -3.92835 -3.21937 0
M  V30 5958 H 544.544 -2.70864 -4.51598 0
M  V30 5959 H 547.035 -2.27876 -3.01464 0
M  V30 5960 H 547.348 -5.14357 -5.76764 0
M  V30 5961 H 545.693 -4.62056 -5.19162 0
M  V30 5962 H 548.884 -2.88943 -3.68279 0
M  V30 5963 H 549.057 -4.19563 -4.93833 0
M  V30 5964 N 542.463 1.3308 -0.844243 0
M  V30 5965 C 543.426 2.27403 -0.286485 0
M  V30 5966 C 544.426 1.51179 0.547872 0
M  V30 5967 O 545.616 1.70421 0.360886 0
M  V30 5968 C 542.748 3.35653 0.595813 0
M  V30 5969 H 543.941 2.78248 -1.11885 0
M  V30 5970 H 541.494 1.43574 -0.617749 0
M  V30 5971 H 542.229 2.90058 1.4504 0
M  V30 5972 H 542.014 3.921 -0.00125994 0
M  V30 5973 H 543.504 4.05958 0.979168 0
M  V30 5974 N 543.941 0.601185 1.45683 0
M  V30 5975 C 544.851 -0.123395 2.34275 0
M  V30 5976 C 545.867 -0.86702 1.5086 0
M  V30 5977 O 547.043 -0.826049 1.8368 0
M  V30 5978 C 544.108 -1.11237 3.2837 0
M  V30 5979 C 543.169 -0.371405 4.2769 0
M  V30 5980 C 542.402 -1.31327 5.1729 0
M  V30 5981 O 542.625 -2.55078 5.10188 0
M  V30 5982 O 541.559 -0.813811 5.96373 0
M  V30 5983 H 545.385 0.604483 2.97623 0
M  V30 5984 H 542.97 0.361477 1.44961 0
M  V30 5985 H 544.852 -1.68214 3.8637 0
M  V30 5986 H 543.527 -1.82139 2.67595 0
M  V30 5987 H 542.434 0.24067 3.73325 0
M  V30 5988 H 543.767 0.296998 4.91303 0
M  V30 5989 N 545.419 -1.53889 0.339982 0
M  V30 5990 C 546.696 -1.93084 -0.312719 0
M  V30 5991 C 547.076 -1.2712 -1.68534 0
M  V30 5992 O 546.424 -0.420835 -2.24591 0
M  V30 5993 C 546.634 -3.4683 -0.388558 0
M  V30 5994 C 547.982 -4.19732 -0.641088 0
M  V30 5995 O 549.006 -3.53075 -0.470818 0
M  V30 5996 O 547.865 -5.3781 -0.970685 0
M  V30 5997 H 544.959 -0.806784 -0.18174 0
M  V30 5998 H 547.505 -1.65137 0.390898 0
M  V30 5999 H 546.277 -3.87055 0.574821 0
M  V30 6000 H 545.9 -3.80933 -1.1391 0
M  V30 6001 N 546.897 -0.0685191 -1.57451 0
M  V30 6002 C 547.827 0.89747 -2.15564 0
M  V30 6003 C 548.808 1.31266 -1.08181 0
M  V30 6004 O 549.993 1.38429 -1.36202 0
M  V30 6005 C 547.123 2.16623 -2.71463 0
M  V30 6006 C 546.077 1.89054 -3.83982 0
M  V30 6007 C 545.403 3.22532 -4.26471 0
M  V30 6008 C 546.703 1.1984 -5.08366 0
M  V30 6009 H 548.397 0.413373 -2.96533 0
M  V30 6010 H 545.943 0.197391 -1.42641 0
M  V30 6011 H 547.896 2.84614 -3.10761 0
M  V30 6012 H 546.62 2.67269 -1.8771 0
M  V30 6013 H 545.279 1.23469 -3.45183 0
M  V30 6014 H 544.927 3.71013 -3.39644 0
M  V30 6015 H 544.627 3.04879 -5.02317 0
M  V30 6016 H 546.151 3.91727 -4.68383 0
M  V30 6017 H 547.565 1.77896 -5.45001 0
M  V30 6018 H 545.962 1.12456 -5.89469 0
M  V30 6019 H 547.032 0.176996 -4.84577 0
M  V30 6020 N 548.375 1.56261 0.205012 0
M  V30 6021 C 549.791 1.49623 0.555433 0
M  V30 6022 C 549.991 0.766719 1.86343 0
M  V30 6023 O 549.047 0.313158 2.50551 0
M  V30 6024 C 550.36 2.94253 0.619347 0
M  V30 6025 C 551.908 3.04868 0.708855 0
M  V30 6026 C 552.383 4.50888 0.803969 0
M  V30 6027 N 553.874 4.54999 0.867758 0
M  V30 6028 C 554.609 5.65284 0.96135 0
M  V30 6029 N 554.105 6.85282 1.01786 0
M  V30 6030 N 555.898 5.53174 0.997771 0
M  V30 6031 H 548.049 2.0211 -0.653094 0
M  V30 6032 H 550.312 0.919333 -0.231366 0
M  V30 6033 H 550.018 3.50643 -0.272458 0
M  V30 6034 H 549.892 3.47063 1.47741 0
M  V30 6035 H 552.279 2.48532 1.5911 0
M  V30 6036 H 552.36 2.55199 -0.175205 0
M  V30 6037 H 552.004 5.07846 -0.0738798 0
M  V30 6038 H 551.934 4.98279 1.70369 0
M  V30 6039 H 554.425 3.68588 0.833735 0
M  V30 6040 H 554.738 7.65081 1.08951 0
M  V30 6041 H 553.083 6.8796 0.986706 0
M  V30 6042 H 556.274 4.5835 0.950392 0
M  V30 6043 H 556.447 6.39151 1.06725 0
M  V30 6044 N 549.853 -0.472356 1.50355 0
M  V30 6045 C 550.801 -1.59126 1.69651 0
M  V30 6046 C 551.795 -1.59793 0.56237 0
M  V30 6047 O 553.001 -1.63957 0.742832 0
M  V30 6048 H 549.376 -0.528008 0.535454 0
M  V30 6049 H 551.347 -1.40013 2.63513 0
M  V30 6050 C 550.096 -2.97075 1.8067 0
M  V30 6051 H 549.419 -2.9728 2.67329 0
M  V30 6052 H 550.859 -3.74825 1.98197 0
M  V30 6053 C 549.318 -3.32247 0.558016 0
M  V30 6054 O 549.848 -4.00553 -0.303399 0
M  V30 6055 N 548.054 -2.87659 0.412415 0
M  V30 6056 H 547.601 -2.32246 1.11443 0
M  V30 6057 H 547.559 -3.11556 -0.421908 0
M  V30 6058 N 551.331 -1.39911 -0.725443 0
M  V30 6059 C 552.264 -1.33788 -1.84867 0
M  V30 6060 C 553.242 -0.209907 -1.61239 0
M  V30 6061 O 554.426 -0.391943 -1.8438 0
M  V30 6062 C 551.553 -1.07975 -3.21028 0
M  V30 6063 C 550.599 -2.23092 -3.635 0
M  V30 6064 S 551.432 -3.85431 -3.71757 0
M  V30 6065 C 552.588 -3.61862 -5.10692 0
M  V30 6066 H 552.821 -2.28848 -1.89779 0
M  V30 6067 H 550.354 -1.26079 -0.891254 0
M  V30 6068 H 552.312 -0.937669 -3.99647 0
M  V30 6069 H 550.973 -0.145865 -3.13761 0
M  V30 6070 H 550.166 -2.00647 -4.62338 0
M  V30 6071 H 549.768 -2.33553 -2.92112 0
M  V30 6072 H 552.06 -3.19719 -5.97316 0
M  V30 6073 H 553.003 -4.60196 -5.38169 0
M  V30 6074 H 553.411 -2.95757 -4.8082 0
M  V30 6075 N 552.809 0.956637 -1.25245 0
M  V30 6076 C 554.22 1.51569 -1.09012 0
M  V30 6077 C 554.571 1.93322 0.334813 0
M  V30 6078 O 553.696 1.78421 1.22454 0
M  V30 6079 C 554.291 2.75444 -1.97271 0
M  V30 6080 C 552.85 3.27669 -1.8523 0
M  V30 6081 C 551.997 2.00517 -1.91542 0
M  V30 6082 H 554.948 0.773746 -1.3856 0
M  V30 6083 H 554.969 3.4919 -1.51151 0
M  V30 6084 H 554.481 2.45024 -3.00973 0
M  V30 6085 H 552.582 3.62914 -0.844045 0
M  V30 6086 H 552.695 3.9582 -2.69932 0
M  V30 6087 H 551.059 2.15727 -1.35404 0
M  V30 6088 H 551.842 1.72448 -2.96844 0
M  V30 6089 N 554.287 1.06798 1.15896 0
M  V30 6090 C 555.517 0.807522 1.90165 0
M  V30 6091 C 555.925 -0.642417 1.7796 0
M  V30 6092 O 555.268 -1.45193 1.12537 0
M  V30 6093 C 555.33 1.12939 3.41299 0
M  V30 6094 C 554.994 2.57879 3.7729 0
M  V30 6095 C 555.991 3.56118 3.78782 0
M  V30 6096 C 553.676 2.93311 4.07767 0
M  V30 6097 C 555.67 4.87827 4.10248 0
M  V30 6098 C 553.357 4.25219 4.38899 0
M  V30 6099 C 554.355 5.22287 4.4012 0
M  V30 6100 O 554.043 6.51826 4.70508 0
M  V30 6101 H 553.775 0.291946 0.609708 0
M  V30 6102 H 556.329 1.42627 1.47806 0
M  V30 6103 H 554.559 0.45359 3.84031 0
M  V30 6104 H 556.248 0.852363 3.9685 0
M  V30 6105 H 557.014 3.30086 3.55342 0
M  V30 6106 H 552.893 2.18409 4.05979 0
M  V30 6107 H 556.437 5.63586 4.11116 0
M  V30 6108 H 552.334 4.51006 4.61805 0
M  V30 6109 H 553.102 6.56893 4.88298 0
M  V30 6110 N 555.766 -1.3263 0.851289 0
M  V30 6111 C 556.696 -2.31449 0.308771 0
M  V30 6112 C 557.677 -1.59531 -0.590255 0
M  V30 6113 O 558.862 -1.87351 -0.511205 0
M  V30 6114 C 555.992 -3.43586 -0.506548 0
M  V30 6115 C 554.946 -4.26963 0.297753 0
M  V30 6116 C 554.272 -5.30831 -0.642094 0
M  V30 6117 C 555.572 -4.99643 1.52166 0
M  V30 6118 H 557.266 -2.77074 1.13447 0
M  V30 6119 H 554.812 -1.33207 0.546971 0
M  V30 6120 H 556.765 -4.11754 -0.896474 0
M  V30 6121 H 555.489 -2.96681 -1.36558 0
M  V30 6122 H 554.148 -3.60437 0.669391 0
M  V30 6123 H 553.796 -4.8018 -1.49788 0
M  V30 6124 H 553.496 -5.87501 -0.107968 0
M  V30 6125 H 555.02 -6.01862 -1.02927 0
M  V30 6126 H 556.434 -5.6051 1.20421 0
M  V30 6127 H 554.831 -5.66022 1.99347 0
M  V30 6128 H 555.901 -4.27701 2.28474 0
M  V30 6129 N 557.244 -0.608902 -1.45362 0
M  V30 6130 C 558.191 0.109172 -2.30542 0
M  V30 6131 C 559.161 0.858704 -1.42181 0
M  V30 6132 O 560.346 0.844178 -1.71109 0
M  V30 6133 C 557.486 1.09971 -3.27109 0
M  V30 6134 C 556.599 0.350911 -4.30572 0
M  V30 6135 C 555.734 1.33129 -5.14247 0
M  V30 6136 C 554.773 0.570377 -6.09437 0
M  V30 6137 N 553.91 1.5001 -6.85887 0
M  V30 6138 H 558.75 -0.623195 -2.91411 0
M  V30 6139 H 556.287 -0.319122 -1.43597 0
M  V30 6140 H 558.245 1.68714 -3.81564 0
M  V30 6141 H 556.875 1.79947 -2.67991 0
M  V30 6142 H 555.927 -0.352054 -3.78767 0
M  V30 6143 H 557.239 -0.242725 -4.98209 0
M  V30 6144 H 556.393 1.99074 -5.73109 0
M  V30 6145 H 555.132 1.95885 -4.46632 0
M  V30 6146 H 554.137 -0.102702 -5.49704 0
M  V30 6147 H 555.362 -0.0521607 -6.7908 0
M  V30 6148 H 553.308 2.11529 -6.2096 0
M  V30 6149 H 553.225 0.959934 -7.49881 0
M  V30 6150 H 554.493 2.14909 -7.49289 0
M  V30 6151 N 558.722 1.53707 -0.348139 0
M  V30 6152 C 559.685 2.23812 0.494058 0
M  V30 6153 C 560.685 1.23989 1.02388 0
M  V30 6154 O 561.875 1.48395 0.912396 0
M  V30 6155 C 559.007 2.96133 1.68872 0
M  V30 6156 H 560.2 2.99663 -0.119141 0
M  V30 6157 H 557.753 1.55983 -0.0995539 0
M  V30 6158 H 558.488 2.24481 2.34049 0
M  V30 6159 H 558.273 3.69357 1.31596 0
M  V30 6160 H 559.763 3.49475 2.28597 0
M  V30 6161 N 560.2 0.0768682 1.57412 0
M  V30 6162 C 561.44 -0.594676 1.95558 0
M  V30 6163 C 561.804 -1.66469 0.956658 0
M  V30 6164 O 563.005 -2.39215 1.22595 0
M  V30 6165 C 561.276 -1.15206 3.38323 0
M  V30 6166 S 562.835 -1.83803 3.9845 0
M  V30 6167 H 559.653 -0.194579 0.683857 0
M  V30 6168 H 562.255 0.151933 1.94909 0
M  V30 6169 H 560.959 -0.36153 4.08805 0
M  V30 6170 H 560.49 -1.93491 3.42527 0
M  V30 6171 H 562.505 -3.12087 3.85767 0
M  V30 6172 N 561.678 -1.56367 -0.196722 0
M  V30 6173 C 562.608 -1.97442 -1.24655 0
M  V30 6174 C 563.589 -0.846147 -1.47561 0
M  V30 6175 O 564.774 -1.11035 -1.59326 0
M  V30 6176 C 561.904 -2.31253 -2.59112 0
M  V30 6177 C 560.858 -3.46804 -2.50821 0
M  V30 6178 C 560.184 -3.66286 -3.89536 0
M  V30 6179 C 561.484 -4.8104 -2.03465 0
M  V30 6180 H 563.178 -2.85388 -0.905216 0
M  V30 6181 H 560.724 -1.37304 -0.434002 0
M  V30 6182 H 562.677 -2.58583 -3.32736 0
M  V30 6183 H 561.401 -1.40188 -2.94983 0
M  V30 6184 H 560.06 -3.19563 -1.79653 0
M  V30 6185 H 559.708 -2.72555 -4.22756 0
M  V30 6186 H 559.408 -4.4402 -3.84864 0
M  V30 6187 H 560.932 -3.9599 -4.64784 0
M  V30 6188 H 562.346 -5.07411 -2.66846 0
M  V30 6189 H 560.743 -5.62232 -2.09798 0
M  V30 6190 H 561.813 -4.74732 -0.98781 0
M  V30 6191 N 563.156 0.464375 -1.50603 0
M  V30 6192 C 564.103 1.56152 -1.69956 0
M  V30 6193 C 565.073 1.57046 -0.54091 0
M  V30 6194 O 566.258 1.74473 -0.772258 0
M  V30 6195 C 563.398 2.94079 -1.80586 0
M  V30 6196 C 562.511 3.02923 -3.07996 0
M  V30 6197 C 561.646 4.31806 -3.09382 0
M  V30 6198 C 560.685 4.34417 -4.31218 0
M  V30 6199 N 559.822 5.54782 -4.30304 0
M  V30 6200 H 564.662 1.38955 -2.6362 0
M  V30 6201 H 562.199 0.675482 -1.30674 0
M  V30 6202 H 564.157 3.74073 -1.8473 0
M  V30 6203 H 562.787 3.09896 -0.903556 0
M  V30 6204 H 561.839 2.1576 -3.13292 0
M  V30 6205 H 563.151 3.00712 -3.97962 0
M  V30 6206 H 562.305 5.20153 -3.12292 0
M  V30 6207 H 561.044 4.36636 -2.17257 0
M  V30 6208 H 560.049 3.44467 -4.28512 0
M  V30 6209 H 561.274 4.31273 -5.24576 0
M  V30 6210 H 559.22 5.60384 -3.41037 0
M  V30 6211 H 559.137 5.54339 -5.14047 0
M  V30 6212 H 560.405 6.45235 -4.3737 0
M  V30 6213 N 564.634 1.40294 0.718013 0
M  V30 6214 C 565.544 1.42678 1.86226 0
M  V30 6215 C 566.56 0.319655 1.71039 0
M  V30 6216 O 567.736 0.563852 1.93346 0
M  V30 6217 C 564.801 1.2852 3.21999 0
M  V30 6218 C 563.862 2.49354 3.49458 0
M  V30 6219 C 563.095 2.35863 4.78753 0
M  V30 6220 O 563.318 1.37114 5.53675 0
M  V30 6221 O 562.252 3.25189 5.06494 0
M  V30 6222 H 566.078 2.39167 1.87171 0
M  V30 6223 H 563.663 1.2159 0.868112 0
M  V30 6224 H 565.545 1.22824 4.03103 0
M  V30 6225 H 564.22 0.351359 3.21787 0
M  V30 6226 H 563.127 2.60628 2.68373 0
M  V30 6227 H 564.46 3.41491 3.54464 0
M  V30 6228 N 566.112 -0.949982 1.2575 0
M  V30 6229 C 567.337 -1.73503 1.13628 0
M  V30 6230 C 567.762 -1.85601 -0.30559 0
M  V30 6231 O 567.12 -1.33984 -1.22139 0
M  V30 6232 C 567.168 -3.1243 1.80055 0
M  V30 6233 O 566.272 -3.97916 1.08336 0
M  V30 6234 H 565.613 -0.532665 0.396439 0
M  V30 6235 H 568.143 -1.19043 1.66403 0
M  V30 6236 H 568.153 -3.62866 1.86527 0
M  V30 6237 H 566.828 -3.02941 2.84956 0
M  V30 6238 H 565.405 -3.56375 1.09777 0
M  V30 6239 N 567.59 -1.07411 -1.15328 0
M  V30 6240 C 568.523 -0.63913 -2.19067 0
M  V30 6241 C 569.501 0.343929 -1.58921 0
M  V30 6242 O 570.685 0.250207 -1.86832 0
M  V30 6243 C 567.812 0.0613977 -3.38644 0
M  V30 6244 C 566.858 -0.880201 -4.17318 0
M  V30 6245 S 567.691 -2.38152 -4.79629 0
M  V30 6246 C 568.847 -1.69281 -6.02573 0
M  V30 6247 H 569.08 -1.51799 -2.55626 0
M  V30 6248 H 566.613 -0.888138 -1.26299 0
M  V30 6249 H 568.571 0.459323 -4.07922 0
M  V30 6250 H 567.232 0.916605 -3.00428 0
M  V30 6251 H 566.425 -0.336781 -5.02874 0
M  V30 6252 H 566.027 -1.21854 -3.53592 0
M  V30 6253 H 568.319 -1.00488 -6.70006 0
M  V30 6254 H 569.262 -2.52671 -6.61485 0
M  V30 6255 H 569.67 -1.17053 -5.52231 0
M  V30 6256 N 569.068 1.32177 -0.85831 0
M  V30 6257 C 570.484 1.49873 -0.548656 0
M  V30 6258 C 570.684 1.79278 0.919874 0
M  V30 6259 O 569.74 1.86451 1.70271 0
M  V30 6260 C 571.053 2.64043 -1.4388 0
M  V30 6261 C 572.601 2.77928 -1.43961 0
M  V30 6262 C 573.076 3.95182 -2.31506 0
M  V30 6263 N 574.567 4.0245 -2.29321 0
M  V30 6264 C 575.302 4.9242 -2.93786 0
M  V30 6265 N 574.798 5.87373 -3.67376 0
M  V30 6266 N 576.591 4.85572 -2.83155 0
M  V30 6267 H 568.742 1.11357 -1.80868 0
M  V30 6268 H 571.005 0.549175 -0.772729 0
M  V30 6269 H 570.711 2.49055 -2.48324 0
M  V30 6270 H 570.585 3.59912 -1.12885 0
M  V30 6271 H 572.972 2.92338 -0.402813 0
M  V30 6272 H 573.053 1.82762 -1.78974 0
M  V30 6273 H 572.697 3.81531 -3.35256 0
M  V30 6274 H 572.627 4.89633 -1.93823 0
M  V30 6275 H 575.118 3.34507 -1.75822 0
M  V30 6276 H 575.431 6.52728 -4.13722 0
M  V30 6277 H 573.776 5.87388 -3.71484 0
M  V30 6278 H 576.967 4.10363 -2.25211 0
M  V30 6279 H 577.14 5.55486 -3.33676 0
M  V30 6280 N 570.547 0.616602 1.45037 0
M  V30 6281 C 571.477 -0.0840787 2.33349 0
M  V30 6282 C 572.458 -0.849641 1.4736 0
M  V30 6283 O 573.643 -0.818407 1.76113 0
M  V30 6284 C 570.773 -1.07604 3.3021 0
M  V30 6285 C 569.727 -0.423096 4.25904 0
M  V30 6286 C 569.053 -1.52394 5.12523 0
M  V30 6287 C 570.353 0.661457 5.18095 0
M  V30 6288 H 572.047 0.653333 2.92185 0
M  V30 6289 H 569.593 0.315634 1.40498 0
M  V30 6290 H 571.546 -1.57485 3.90866 0
M  V30 6291 H 570.27 -1.84416 2.69552 0
M  V30 6292 H 568.929 0.05493 3.66559 0
M  V30 6293 H 568.577 -2.28257 4.48227 0
M  V30 6294 H 568.277 -1.09251 5.77354 0
M  V30 6295 H 569.801 -2.02485 5.76049 0
M  V30 6296 H 571.215 0.246353 5.7277 0
M  V30 6297 H 569.612 1.01517 5.91451 0
M  V30 6298 H 570.682 1.53446 4.59981 0
M  V30 6299 N 572.025 -1.5352 0.356285 0
M  V30 6300 C 573.253 -2.05534 -0.237328 0
M  V30 6301 C 573.668 -1.23043 -1.43199 0
M  V30 6302 O 573.025 -0.268821 -1.80509 0
M  V30 6303 C 573.076 -3.55791 -0.639933 0
M  V30 6304 O 572.797 -4.35154 0.507233 0
M  V30 6305 C 574.298 -4.24027 -1.29292 0
M  V30 6306 H 571.518 -0.669585 -0.0435572 0
M  V30 6307 H 574.062 -1.97988 0.511963 0
M  V30 6308 H 572.217 -3.63518 -1.33915 0
M  V30 6309 H 572.631 -5.24178 0.18375 0
M  V30 6310 H 574.105 -5.30509 -1.52527 0
M  V30 6311 H 574.582 -3.77166 -2.25039 0
M  V30 6312 H 575.188 -4.20527 -0.63539 0
M  V30 6313 N 573.503 -0.0852151 -1.57369 0
M  V30 6314 C 574.914 0.445428 -1.81309 0
M  V30 6315 C 575.265 1.68795 -1.00013 0
M  V30 6316 O 574.39 2.15211 -0.226573 0
M  V30 6317 C 574.985 0.814887 -3.28854 0
M  V30 6318 C 573.544 1.29032 -3.53592 0
M  V30 6319 C 572.691 0.282089 -2.75861 0
M  V30 6320 H 575.642 -0.310771 -1.55627 0
M  V30 6321 H 575.663 1.67524 -3.41637 0
M  V30 6322 H 575.175 -0.0896309 -3.87996 0
M  V30 6323 H 573.276 2.21289 -2.9977 0
M  V30 6324 H 573.389 1.25898 -4.62262 0
M  V30 6325 H 571.753 0.762182 -2.43029 0
M  V30 6326 H 572.536 -0.614936 -3.37748 0
M  V30 6327 N 574.981 1.5647 0.188427 0
M  V30 6328 C 576.206 1.85486 0.927891 0
M  V30 6329 C 576.631 0.669575 1.75779 0
M  V30 6330 O 575.989 -0.381573 1.77239 0
M  V30 6331 C 576.037 3.12784 1.7944 0
M  V30 6332 O 575.141 2.93805 2.894 0
M  V30 6333 H 574.482 0.610585 0.260925 0
M  V30 6334 H 577.012 2.037 0.191729 0
M  V30 6335 H 577.022 3.43749 2.19774 0
M  V30 6336 H 575.697 3.98671 1.18468 0
M  V30 6337 H 574.274 2.74153 2.52774 0
M  V30 6338 N 576.459 -0.456382 1.50847 0
M  V30 6339 C 577.705 -1.20914 1.62811 0
M  V30 6340 C 578.038 -1.91301 0.334304 0
M  V30 6341 O 577.313 -1.82775 -0.665098 0
M  V30 6342 C 577.596 -2.24122 2.81853 0
M  V30 6343 C 577.449 -1.57944 4.21158 0
M  V30 6344 C 578.768 -3.25295 2.96431 0
M  V30 6345 H 575.887 -0.438233 0.592554 0
M  V30 6346 H 578.529 -0.50091 1.83278 0
M  V30 6347 H 576.679 -2.84524 2.64534 0
M  V30 6348 H 578.351 -1.01025 4.50102 0
M  V30 6349 H 576.594 -0.882185 4.24735 0
M  V30 6350 H 577.265 -2.33014 5.00408 0
M  V30 6351 H 579.741 -2.7493 3.12335 0
M  V30 6352 H 578.617 -3.94822 3.81322 0
M  V30 6353 H 578.878 -3.90286 2.07676 0
M  V30 6354 N 577.937 -1.40673 -0.710563 0
M  V30 6355 C 579.348 -1.34975 -1.28991 0
M  V30 6356 C 579.699 -0.0256272 -1.96183 0
M  V30 6357 O 578.824 0.876339 -1.97862 0
M  V30 6358 C 579.419 -2.44467 -2.34567 0
M  V30 6359 C 577.978 -2.42213 -2.88114 0
M  V30 6360 C 577.125 -2.25085 -1.61963 0
M  V30 6361 H 580.076 -1.50406 -0.506343 0
M  V30 6362 H 580.097 -2.12663 -3.15523 0
M  V30 6363 H 579.609 -3.40825 -1.85634 0
M  V30 6364 H 577.71 -1.49568 -3.41263 0
M  V30 6365 H 577.823 -3.37983 -3.39565 0
M  V30 6366 H 576.187 -1.72691 -1.87216 0
M  V30 6367 H 576.97 -3.23449 -1.15047 0
M  V30 6368 N 579.415 0.9433 -1.26252 0
M  V30 6369 C 580.662 1.68925 -1.11672 0
M  V30 6370 C 580.99 1.91499 0.340329 0
M  V30 6371 O 580.245 1.49189 1.26653 0
M  V30 6372 C 580.544 3.07073 -1.82868 0
M  V30 6373 C 580.21 3.04262 -3.32769 0
M  V30 6374 C 578.872 3.03203 -3.7366 0
M  V30 6375 C 581.224 2.96729 -4.28487 0
M  V30 6376 C 578.552 2.92373 -5.0866 0
M  V30 6377 C 580.904 2.87442 -5.63525 0
M  V30 6378 C 579.568 2.84724 -6.03729 0
M  V30 6379 H 578.838 0.618141 -0.408635 0
M  V30 6380 H 581.485 1.10124 -1.56668 0
M  V30 6381 H 579.79 3.69486 -1.30335 0
M  V30 6382 H 581.487 3.63635 -1.69029 0
M  V30 6383 H 578.077 3.05865 -3.00241 0
M  V30 6384 H 582.261 2.96658 -3.97879 0
M  V30 6385 H 577.517 2.88645 -5.38975 0
M  V30 6386 H 581.691 2.80576 -6.37377 0
M  V30 6387 H 579.318 2.76089 -7.08293 0
M  V30 6388 N 580.893 1.08022 1.14757 0
M  V30 6389 C 582.121 0.828847 1.89572 0
M  V30 6390 C 582.536 -0.618621 1.78377 0
M  V30 6391 O 581.893 -1.42482 1.1404 0
M  V30 6392 C 581.944 1.23677 3.39685 0
M  V30 6393 O 581.665 2.62746 3.50566 0
M  V30 6394 C 583.166 1.01569 4.31507 0
M  V30 6395 H 580.386 0.299196 0.600602 0
M  V30 6396 H 582.93 1.43846 1.45357 0
M  V30 6397 H 581.085 0.671347 3.81539 0
M  V30 6398 H 581.499 2.79573 4.43778 0
M  V30 6399 H 582.973 1.35055 5.35223 0
M  V30 6400 H 583.45 -0.0475433 4.39174 0
M  V30 6401 H 584.056 1.56636 3.95405 0
M  V30 6402 N 582.371 -1.3172 0.865308 0
M  V30 6403 C 583.599 -2.01057 0.488251 0
M  V30 6404 C 584.014 -1.64979 -0.918 0
M  V30 6405 O 583.371 -0.876597 -1.60069 0
M  V30 6406 C 583.422 -3.55964 0.630224 0
M  V30 6407 O 583.143 -3.90749 1.98109 0
M  V30 6408 C 584.644 -4.42574 0.253567 0
M  V30 6409 H 581.864 -0.64332 0.190736 0
M  V30 6410 H 584.408 -1.68058 1.16519 0
M  V30 6411 H 582.563 -3.874 0.000895422 0
M  V30 6412 H 582.977 -4.85467 1.9855 0
M  V30 6413 H 584.451 -5.50521 0.403875 0
M  V30 6414 H 584.928 -4.31724 -0.806895 0
M  V30 6415 H 585.534 -4.16547 0.858404 0
M  V30 6416 N 583.85 -0.624285 -1.44708 0
M  V30 6417 C 585.266 -0.289322 -1.56956 0
M  V30 6418 C 585.466 1.20773 -1.61295 0
M  V30 6419 O 584.522 1.9915 -1.55227 0
M  V30 6420 C 585.835 -0.975215 -2.84447 0
M  V30 6421 C 587.383 -0.952709 -2.98148 0
M  V30 6422 C 587.858 -1.61893 -4.28433 0
M  V30 6423 N 589.349 -1.5852 -4.35231 0
M  V30 6424 C 590.084 -2.06969 -5.34744 0
M  V30 6425 N 589.58 -2.63579 -6.40701 0
M  V30 6426 N 591.373 -1.97638 -5.26209 0
M  V30 6427 H 583.524 -1.59612 -1.40135 0
M  V30 6428 H 585.787 -0.669592 -0.671081 0
M  V30 6429 H 585.493 -2.02999 -2.87201 0
M  V30 6430 H 585.367 -0.508749 -3.73753 0
M  V30 6431 H 587.754 0.093568 -2.94952 0
M  V30 6432 H 587.835 -1.4576 -2.10209 0
M  V30 6433 H 587.479 -2.66463 -4.32389 0
M  V30 6434 H 587.409 -1.08893 -5.15218 0
M  V30 6435 H 589.899 -1.17183 -3.59272 0
M  V30 6436 H 590.213 -2.98298 -7.12908 0
M  V30 6437 H 588.558 -2.67626 -6.41406 0
M  V30 6438 H 591.749 -1.5314 -4.42341 0
M  V30 6439 H 591.922 -2.35708 -6.03611 0
M  V30 6440 N 585.328 1.53329 -0.364422 0
M  V30 6441 C 586.556 2.05657 0.226424 0
M  V30 6442 C 586.971 1.23801 1.42544 0
M  V30 6443 O 586.328 0.27839 1.80364 0
M  V30 6444 C 586.379 3.56125 0.621056 0
M  V30 6445 O 586.1 4.34879 -0.530304 0
M  V30 6446 C 587.601 4.24706 1.27041 0
M  V30 6447 H 584.821 0.669806 0.0400056 0
M  V30 6448 H 587.365 1.97714 -0.522456 0
M  V30 6449 H 585.52 3.64223 1.31985 0
M  V30 6450 H 585.934 5.24073 -0.211546 0
M  V30 6451 H 587.408 5.3131 1.49711 0
M  V30 6452 H 587.885 3.78354 2.23036 0
M  V30 6453 H 588.491 4.20858 0.613079 0
M  V30 6454 N 586.806 0.0935595 1.57322 0
M  V30 6455 C 587.736 -0.863062 2.16964 0
M  V30 6456 C 588.717 -1.29528 1.10256 0
M  V30 6457 O 589.902 -1.36245 1.38387 0
M  V30 6458 C 587.032 -2.12276 2.74875 0
M  V30 6459 C 585.986 -1.82921 3.86942 0
M  V30 6460 C 585.312 -3.15707 4.31548 0
M  V30 6461 C 586.612 -1.11737 5.10208 0
M  V30 6462 H 588.306 -0.366145 2.97153 0
M  V30 6463 H 585.852 -0.174673 1.42937 0
M  V30 6464 H 587.805 -2.79634 3.1525 0
M  V30 6465 H 586.529 -2.64248 1.91938 0
M  V30 6466 H 585.188 -1.17961 3.47103 0
M  V30 6467 H 584.836 -3.65563 3.45504 0
M  V30 6468 H 584.536 -2.96849 5.07104 0
M  V30 6469 H 586.06 -3.84226 4.74555 0
M  V30 6470 H 587.474 -1.69203 5.47762 0
M  V30 6471 H 585.871 -1.03064 5.91183 0
M  V30 6472 H 586.941 -0.0998818 4.84797 0
M  V30 6473 N 588.284 -1.56567 -0.180126 0
M  V30 6474 C 589.561 -1.7235 -0.924931 0
M  V30 6475 C 589.941 -0.652523 -2.00762 0
M  V30 6476 O 589.289 0.334115 -2.26044 0
M  V30 6477 C 589.499 -3.1523 -1.49771 0
M  V30 6478 C 590.847 -3.75921 -1.97405 0
M  V30 6479 O 591.871 -3.18452 -1.59583 0
M  V30 6480 O 590.73 -4.7681 -2.67048 0
M  V30 6481 H 587.824 -0.703502 -0.434758 0
M  V30 6482 H 590.37 -1.6886 -0.168647 0
M  V30 6483 H 589.142 -3.84656 -0.718027 0
M  V30 6484 H 588.765 -3.23009 -2.31842 0
M  V30 6485 N 589.762 0.448376 -1.51087 0
M  V30 6486 C 590.709 1.54341 -1.71603 0
M  V30 6487 C 591.679 1.56463 -0.557536 0
M  V30 6488 O 592.864 1.73644 -0.79072 0
M  V30 6489 C 590.004 2.92148 -1.83695 0
M  V30 6490 C 589.117 2.99639 -3.11192 0
M  V30 6491 C 588.252 4.285 -3.13944 0
M  V30 6492 C 587.291 4.29819 -4.35801 0
M  V30 6493 N 586.428 5.50186 -4.36164 0
M  V30 6494 H 591.268 1.36151 -2.65079 0
M  V30 6495 H 588.805 0.661585 -1.31383 0
M  V30 6496 H 590.763 3.72093 -1.88687 0
M  V30 6497 H 589.393 3.0892 -0.936374 0
M  V30 6498 H 588.445 2.12425 -3.15562 0
M  V30 6499 H 589.757 2.96474 -4.01129 0
M  V30 6500 H 588.911 5.16811 -3.17791 0
M  V30 6501 H 587.65 4.34307 -2.21876 0
M  V30 6502 H 586.655 3.39902 -4.32142 0
M  V30 6503 H 587.88 4.25685 -5.29121 0
M  V30 6504 H 585.826 5.56735 -3.46961 0
M  V30 6505 H 585.743 5.48856 -5.19897 0
M  V30 6506 H 587.011 6.40559 -4.44189 0
M  V30 6507 N 591.24 1.41047 0.703093 0
M  V30 6508 C 592.203 1.42036 1.79884 0
M  V30 6509 C 593.203 0.312153 1.57741 0
M  V30 6510 O 594.393 0.571672 1.64553 0
M  V30 6511 C 591.525 1.22437 3.18154 0
M  V30 6512 H 592.718 2.39572 1.80403 0
M  V30 6513 H 590.271 1.27079 0.909977 0
M  V30 6514 H 591.006 0.257112 3.23279 0
M  V30 6515 H 590.791 2.02723 3.35627 0
M  V30 6516 H 592.281 1.25946 3.98155 0
M  V30 6517 N 592.718 -0.936591 1.26751 0
M  V30 6518 C 593.946 -1.71758 1.15355 0
M  V30 6519 C 594.361 -1.86549 -0.290683 0
M  V30 6520 O 593.718 -1.37616 -1.19868 0
M  V30 6521 C 593.769 -3.12193 1.82258 0
M  V30 6522 O 593.49 -2.98105 3.21038 0
M  V30 6523 C 594.991 -4.06485 1.76875 0
M  V30 6524 H 592.211 -0.537636 0.401483 0
M  V30 6525 H 594.755 -1.17382 1.67457 0
M  V30 6526 H 592.91 -3.63456 1.34083 0
M  V30 6527 H 593.324 -3.86824 3.54214 0
M  V30 6528 H 594.798 -5.02569 2.28316 0
M  V30 6529 H 595.275 -4.32986 0.736216 0
M  V30 6530 H 595.881 -3.61144 2.24623 0
M  V30 6531 N 594.196 -1.08629 -1.14182 0
M  V30 6532 C 595.442 -0.818556 -1.85546 0
M  V30 6533 C 595.775 0.654076 -1.82854 0
M  V30 6534 O 595.05 1.48099 -1.26083 0
M  V30 6535 C 595.333 -1.34397 -3.3408 0
M  V30 6536 C 595.186 -2.8821 -3.45333 0
M  V30 6537 C 596.505 -0.971069 -4.29253 0
M  V30 6538 H 593.624 -0.298821 -0.673702 0
M  V30 6539 H 596.266 -1.34629 -1.34071 0
M  V30 6540 H 594.416 -0.895064 -3.78049 0
M  V30 6541 H 596.088 -3.41488 -3.10134 0
M  V30 6542 H 594.331 -3.25756 -2.86471 0
M  V30 6543 H 595.002 -3.20047 -4.49749 0
M  V30 6544 H 597.478 -1.35809 -3.93313 0
M  V30 6545 H 596.354 -1.36586 -5.31635 0
M  V30 6546 H 596.615 0.121659 -4.41933 0
M  V30 6547 N 595.674 1.31259 -0.872281 0
M  V30 6548 C 596.604 2.30929 -0.345554 0
M  V30 6549 C 597.585 1.60449 0.5648 0
M  V30 6550 O 598.77 1.8814 0.481335 0
M  V30 6551 C 595.9 3.44348 0.451823 0
M  V30 6552 C 594.854 4.26435 -0.365641 0
M  V30 6553 C 594.18 5.31785 0.557562 0
M  V30 6554 C 595.48 4.97159 -1.60095 0
M  V30 6555 H 597.174 2.75234 -1.17841 0
M  V30 6556 H 594.72 1.3232 -0.568094 0
M  V30 6557 H 596.673 4.13128 0.830854 0
M  V30 6558 H 595.397 2.98816 1.31821 0
M  V30 6559 H 594.056 3.59326 -0.726649 0
M  V30 6560 H 593.704 4.82502 1.4213 0
M  V30 6561 H 593.404 5.87598 0.0144878 0
M  V30 6562 H 594.928 6.03424 0.933387 0
M  V30 6563 H 596.342 5.58523 -1.29323 0
M  V30 6564 H 594.739 5.62779 -2.08327 0
M  V30 6565 H 595.809 4.24012 -2.35249 0
M  V30 6566 N 597.152 0.631951 1.44375 0
M  V30 6567 C 598.4 0.136497 2.01639 0
M  V30 6568 C 598.721 -1.24637 1.49969 0
M  V30 6569 O 597.991 -1.82827 0.70363 0
M  V30 6570 H 596.571 0.0474703 0.74549 0
M  V30 6571 H 599.233 0.818837 1.76865 0
M  V30 6572 H 598.329 0.104817 3.11924 0
M  V30 6573 N 598.631 -1.53133 0.372548 0
M  V30 6574 C 599.541 -2.29671 -0.478379 0
M  V30 6575 C 600.557 -1.35913 -1.08644 0
M  V30 6576 O 601.733 -1.68975 -1.09588 0
M  V30 6577 C 598.798 -3.07625 -1.599 0
M  V30 6578 C 597.859 -4.17061 -1.01776 0
M  V30 6579 C 597.092 -4.91289 -2.08497 0
M  V30 6580 O 597.315 -4.65442 -3.29727 0
M  V30 6581 O 596.249 -5.7705 -1.71164 0
M  V30 6582 H 600.075 -3.03355 0.144649 0
M  V30 6583 H 597.66 -1.48773 0.136729 0
M  V30 6584 H 599.542 -3.56281 -2.25038 0
M  V30 6585 H 598.217 -2.3677 -2.2073 0
M  V30 6586 H 597.124 -3.72641 -0.330098 0
M  V30 6587 H 598.457 -4.90102 -0.453915 0
M  V30 6588 N 600.109 -0.101901 -1.5727 0
M  V30 6589 C 601.339 0.567568 -1.98651 0
M  V30 6590 C 601.747 1.61839 -0.980037 0
M  V30 6591 O 601.09 1.83661 0.0376564 0
M  V30 6592 C 601.152 1.26742 -3.36417 0
M  V30 6593 C 600.816 0.366561 -4.55528 0
M  V30 6594 C 601.813 -0.388022 -5.1845 0
M  V30 6595 C 599.498 0.282629 -5.01504 0
M  V30 6596 C 601.492 -1.21445 -6.25724 0
M  V30 6597 C 599.179 -0.547443 -6.08643 0
M  V30 6598 C 600.177 -1.29462 -6.70618 0
M  V30 6599 O 599.865 -2.11095 -7.7569 0
M  V30 6600 H 599.597 0.156282 -0.657687 0
M  V30 6601 H 602.151 -0.179912 -2.04611 0
M  V30 6602 H 600.381 2.06162 -3.27161 0
M  V30 6603 H 602.07 1.8321 -3.622 0
M  V30 6604 H 602.836 -0.332949 -4.83856 0
M  V30 6605 H 598.715 0.853868 -4.53023 0
M  V30 6606 H 602.259 -1.79814 -6.74027 0
M  V30 6607 H 598.156 -0.603971 -6.42668 0
M  V30 6608 H 598.924 -2.03851 -7.92709 0
M  V30 6609 N 601.587 1.56661 0.17182 0
M  V30 6610 C 602.55 1.9549 1.19651 0
M  V30 6611 C 603.55 0.838501 1.37207 0
M  V30 6612 O 604.74 1.10556 1.34622 0
M  V30 6613 C 601.872 2.24927 2.56166 0
M  V30 6614 H 603.065 2.87184 0.864007 0
M  V30 6615 H 600.618 1.50711 0.41425 0
M  V30 6616 H 601.353 1.35944 2.94431 0
M  V30 6617 H 601.138 3.06301 2.4479 0
M  V30 6618 H 602.628 2.55891 3.30014 0
M  V30 6619 N 603.065 -0.440357 1.51323 0
M  V30 6620 C 603.995 -1.54174 1.75364 0
M  V30 6621 C 604.976 -1.59039 0.603375 0
M  V30 6622 O 606.161 -1.74815 0.845774 0
M  V30 6623 C 603.291 -2.92277 1.87593 0
M  V30 6624 C 602.245 -3.02274 3.03009 0
M  V30 6625 C 601.571 -4.42327 3.00418 0
M  V30 6626 C 602.871 -2.76634 4.43024 0
M  V30 6627 H 604.565 -1.34307 2.67585 0
M  V30 6628 H 602.111 -0.644678 1.28763 0
M  V30 6629 H 604.064 -3.69284 2.02995 0
M  V30 6630 H 602.788 -3.13369 0.920179 0
M  V30 6631 H 601.447 -2.27706 2.87307 0
M  V30 6632 H 601.095 -4.60382 2.02626 0
M  V30 6633 H 600.795 -4.49946 3.77918 0
M  V30 6634 H 602.319 -5.21312 3.17909 0
M  V30 6635 H 603.733 -3.43376 4.59093 0
M  V30 6636 H 602.13 -2.95666 5.22208 0
M  V30 6637 H 603.2 -1.72262 4.5327 0
M  V30 6638 N 604.543 -1.41418 -0.695603 0
M  V30 6639 C 605.954 -1.36335 -1.27552 0
M  V30 6640 C 606.305 -0.0464336 -1.96145 0
M  V30 6641 O 605.43 0.855304 -1.9878 0
M  V30 6642 C 606.025 -2.46941 -2.3196 0
M  V30 6643 C 604.584 -2.45256 -2.85529 0
M  V30 6644 C 603.731 -2.2679 -1.59566 0
M  V30 6645 H 606.682 -1.50934 -0.490362 0
M  V30 6646 H 606.703 -2.15997 -3.1325 0
M  V30 6647 H 606.215 -3.42775 -1.82008 0
M  V30 6648 H 604.316 -1.53179 -3.39657 0
M  V30 6649 H 604.429 -3.41565 -3.35961 0
M  V30 6650 H 602.793 -1.74667 -1.85374 0
M  V30 6651 H 603.576 -3.24651 -1.1161 0
M  V30 6652 N 606.021 0.929856 -1.27246 0
M  V30 6653 C 606.968 2.03017 -1.09785 0
M  V30 6654 C 607.938 1.661 0.000456744 0
M  V30 6655 O 609.123 1.90116 -0.161462 0
M  V30 6656 C 606.263 3.36878 -0.748816 0
M  V30 6657 C 605.376 3.86763 -1.92453 0
M  V30 6658 C 604.511 5.09061 -1.51758 0
M  V30 6659 C 603.55 5.51237 -2.66091 0
M  V30 6660 N 602.687 6.64732 -2.25999 0
M  V30 6661 H 607.527 2.17285 -2.03939 0
M  V30 6662 H 605.064 1.06448 -1.01524 0
M  V30 6663 H 607.022 4.13855 -0.527283 0
M  V30 6664 H 605.652 3.22424 0.155771 0
M  V30 6665 H 604.704 3.06086 -2.25867 0
M  V30 6666 H 606.016 4.13994 -2.78227 0
M  V30 6667 H 605.17 5.93532 -1.25716 0
M  V30 6668 H 603.909 4.83602 -0.630896 0
M  V30 6669 H 602.914 4.65316 -2.92849 0
M  V30 6670 H 604.139 5.78692 -3.55377 0
M  V30 6671 H 602.085 6.40935 -1.3978 0
M  V30 6672 H 602.002 6.91607 -3.05313 0
M  V30 6673 H 603.27 7.52549 -2.03199 0
M  V30 6674 N 607.499 1.09233 1.13605 0
M  V30 6675 C 608.747 0.825525 1.84471 0
M  V30 6676 C 609.068 -0.650702 1.83823 0
M  V30 6677 O 608.338 -1.47204 1.29259 0
M  V30 6678 H 606.918 0.3024 0.683054 0
M  V30 6679 H 609.58 1.38006 1.37624 0
M  V30 6680 H 608.676 1.17727 2.89045 0
M  V30 6681 N 608.977 -1.30795 0.87923 0
M  V30 6682 C 610.205 -2.00527 0.509548 0
M  V30 6683 C 610.62 -1.65944 -0.90045 0
M  V30 6684 O 609.977 -0.893525 -1.5913 0
M  V30 6685 C 610.028 -3.55276 0.667943 0
M  V30 6686 O 609.749 -3.88625 2.02242 0
M  V30 6687 C 611.25 -4.4228 0.300494 0
M  V30 6688 H 608.47 -0.641261 0.197549 0
M  V30 6689 H 611.014 -1.66813 1.18295 0
M  V30 6690 H 609.169 -3.87377 0.0419843 0
M  V30 6691 H 609.583 -4.83334 2.03688 0
M  V30 6692 H 611.057 -5.50061 0.462242 0
M  V30 6693 H 611.534 -4.32556 -0.76106 0
M  V30 6694 H 612.14 -4.15613 0.902536 0
M  V30 6695 N 610.455 -0.639598 -1.44038 0
M  V30 6696 C 611.701 -0.147698 -2.02261 0
M  V30 6697 C 612.034 1.23031 -1.50256 0
M  V30 6698 O 611.309 1.81847 -0.690068 0
M  V30 6699 C 611.592 -0.14362 -3.59813 0
M  V30 6700 C 611.445 -1.55458 -4.22082 0
M  V30 6701 C 612.764 0.527317 -4.36929 0
M  V30 6702 H 609.883 -0.0551453 -0.734934 0
M  V30 6703 H 612.525 -0.817688 -1.71505 0
M  V30 6704 H 610.675 0.426898 -3.86147 0
M  V30 6705 H 612.347 -2.17464 -4.06826 0
M  V30 6706 H 610.59 -2.10594 -3.79253 0
M  V30 6707 H 611.261 -1.50369 -5.31124 0
M  V30 6708 H 613.737 0.0420504 -4.16079 0
M  V30 6709 H 612.613 0.499389 -5.46624 0
M  V30 6710 H 612.874 1.59914 -4.12165 0
M  V30 6711 N 611.933 1.52934 -0.380664 0
M  V30 6712 C 612.863 2.29118 0.450268 0
M  V30 6713 C 613.844 1.32153 1.07096 0
M  V30 6714 O 615.029 1.61038 1.08537 0
M  V30 6715 C 612.159 3.09161 1.58231 0
M  V30 6716 C 611.113 4.13938 1.0881 0
M  V30 6717 C 610.439 4.82153 2.31155 0
M  V30 6718 C 611.739 5.22048 0.162146 0
M  V30 6719 H 613.433 2.98826 -0.185361 0
M  V30 6720 H 610.979 1.43715 -0.0905886 0
M  V30 6721 H 612.932 3.61211 2.17036 0
M  V30 6722 H 611.656 2.3717 2.2454 0
M  V30 6723 H 610.315 3.62855 0.522633 0
M  V30 6724 H 609.963 4.06719 2.95953 0
M  V30 6725 H 609.663 5.52966 1.98752 0
M  V30 6726 H 611.187 5.37004 2.90618 0
M  V30 6727 H 612.601 5.6951 0.658126 0
M  V30 6728 H 610.998 6.00057 -0.0717122 0
M  V30 6729 H 612.068 4.78398 -0.791438 0
M  V30 6730 N 613.412 0.11024 1.57214 0
M  V30 6731 C 614.345 -0.880224 2.1054 0
M  V30 6732 C 615.323 -1.26658 1.01964 0
M  V30 6733 O 616.507 -1.36917 1.29561 0
M  V30 6734 C 613.634 -2.17676 2.59489 0
M  V30 6735 C 612.68 -1.93914 3.79868 0
M  V30 6736 S 613.513 -1.16336 5.2271 0
M  V30 6737 C 614.669 -2.47188 5.75021 0
M  V30 6738 H 614.902 -0.426614 2.94223 0
M  V30 6739 H 612.435 -0.10336 1.54054 0
M  V30 6740 H 614.393 -2.92175 2.88347 0
M  V30 6741 H 613.054 -2.60156 1.76005 0
M  V30 6742 H 612.247 -2.8996 4.12236 0
M  V30 6743 H 611.849 -1.27539 3.51582 0
M  V30 6744 H 614.141 -3.43079 5.84211 0
M  V30 6745 H 615.084 -2.19377 6.7326 0
M  V30 6746 H 615.492 -2.56154 5.03036 0
M  V30 6747 N 614.89 -1.56749 -0.16351 0
M  V30 6748 C 615.82 -2.00042 -1.20438 0
M  V30 6749 C 616.801 -0.877256 -1.45733 0
M  V30 6750 O 617.986 -1.1439 -1.56935 0
M  V30 6751 C 615.116 -2.36697 -2.54149 0
M  V30 6752 C 614.07 -3.52046 -2.43408 0
M  V30 6753 C 613.396 -3.74466 -3.81679 0
M  V30 6754 C 614.696 -4.85247 -1.93216 0
M  V30 6755 H 616.39 -2.87244 -0.844477 0
M  V30 6756 H 613.936 -1.38194 -0.40478 0
M  V30 6757 H 615.889 -2.65582 -3.27176 0
M  V30 6758 H 614.613 -1.46414 -2.91943 0
M  V30 6759 H 613.272 -3.23301 -1.72834 0
M  V30 6760 H 612.92 -2.81461 -4.1688 0
M  V30 6761 H 612.62 -4.52084 -3.75359 0
M  V30 6762 H 614.144 -4.0576 -4.5628 0
M  V30 6763 H 615.558 -5.12957 -2.56023 0
M  V30 6764 H 613.955 -5.66556 -1.97825 0
M  V30 6765 H 615.025 -4.7672 -0.88689 0
M  V30 6766 N 616.368 0.432326 -1.51554 0
M  V30 6767 C 617.316 1.54572 -1.73811 0
M  V30 6768 C 618.31 1.58246 -0.604539 0
M  V30 6769 O 619.516 1.6193 -0.786041 0
M  V30 6770 H 615.891 0.513626 -0.549265 0
M  V30 6771 H 617.862 1.32977 -2.67132 0
M  V30 6772 C 616.611 2.92181 -1.88483 0
M  V30 6773 H 615.934 2.90088 -2.75116 0
M  V30 6774 H 617.374 3.69439 -2.08065 0
M  V30 6775 C 615.833 3.3065 -0.645909 0
M  V30 6776 O 616.363 4.01216 0.197093 0
M  V30 6777 N 614.569 2.86464 -0.488538 0
M  V30 6778 H 614.116 2.29209 -1.17562 0
M  V30 6779 H 614.074 3.12565 0.339156 0
M  V30 6780 N 617.846 1.41785 0.688094 0
M  V30 6781 C 619.074 1.44915 1.47673 0
M  V30 6782 C 619.489 0.0565786 1.88715 0
M  V30 6783 O 618.846 -0.92579 1.57275 0
M  V30 6784 C 618.897 2.36452 2.73446 0
M  V30 6785 O 618.618 3.7029 2.34131 0
M  V30 6786 C 620.119 2.48463 3.67125 0
M  V30 6787 H 617.339 0.493324 0.454832 0
M  V30 6788 H 619.883 1.86153 0.846594 0
M  V30 6789 H 618.038 1.98502 3.3268 0
M  V30 6790 H 618.452 4.19183 3.15255 0
M  V30 6791 H 619.926 3.16662 4.52138 0
M  V30 6792 H 620.403 1.51826 4.12123 0
M  V30 6793 H 621.009 2.8708 3.13792 0
M  V30 6794 N 619.324 -0.923095 1.27737 0
M  V30 6795 C 620.256 -2.02871 1.06658 0
M  V30 6796 C 621.269 -1.62786 0.0212095 0
M  V30 6797 O 622.458 -1.76548 0.263267 0
M  V30 6798 C 619.558 -3.33603 0.59682 0
M  V30 6799 C 618.731 -4.02354 1.71551 0
M  V30 6800 C 617.79 -5.11364 1.24071 0
M  V30 6801 O 616.816 -5.35075 1.94123 0
M  V30 6802 N 618.018 -5.80416 0.0988444 0
M  V30 6803 H 620.783 -2.21515 2.01869 0
M  V30 6804 H 618.344 -1.09378 1.19365 0
M  V30 6805 H 620.336 -4.03845 0.262984 0
M  V30 6806 H 618.906 -3.11499 -0.262187 0
M  V30 6807 H 618.126 -3.25786 2.2194 0
M  V30 6808 H 619.414 -4.45035 2.46619 0
M  V30 6809 H 618.812 -5.63611 -0.485743 0
M  V30 6810 H 617.369 -6.51563 -0.17578 0
M  V30 6811 N 620.802 -1.09834 -1.13024 0
M  V30 6812 C 622.048 -0.83819 -1.84668 0
M  V30 6813 C 622.381 0.634645 -1.83537 0
M  V30 6814 O 621.656 1.46753 -1.27647 0
M  V30 6815 C 621.939 -1.37933 -3.32636 0
M  V30 6816 C 621.792 -2.91857 -3.42257 0
M  V30 6817 C 623.111 -1.01654 -4.28199 0
M  V30 6818 H 620.23 -0.30595 -0.670495 0
M  V30 6819 H 622.872 -1.36044 -1.32635 0
M  V30 6820 H 621.022 -0.935111 -3.77078 0
M  V30 6821 H 622.694 -3.44759 -3.06495 0
M  V30 6822 H 620.937 -3.28776 -2.83 0
M  V30 6823 H 621.608 -3.24799 -4.46329 0
M  V30 6824 H 624.084 -1.39973 -3.9185 0
M  V30 6825 H 622.96 -1.42217 -5.30156 0
M  V30 6826 H 623.221 0.0747794 -4.42037 0
M  V30 6827 N 622.28 1.30327 -0.886154 0
M  V30 6828 C 623.21 2.30549 -0.370028 0
M  V30 6829 C 624.191 1.61039 0.547751 0
M  V30 6830 O 625.376 1.8864 0.461353 0
M  V30 6831 C 622.506 3.44808 0.415275 0
M  V30 6832 C 621.46 4.26024 -0.41085 0
M  V30 6833 C 620.786 5.32347 0.501128 0
M  V30 6834 C 622.086 4.95433 -1.65359 0
M  V30 6835 H 623.78 2.73969 -1.20754 0
M  V30 6836 H 621.326 1.3171 -0.582097 0
M  V30 6837 H 623.279 4.13986 0.78699 0
M  V30 6838 H 622.003 3.00197 1.28644 0
M  V30 6839 H 620.662 3.58535 -0.764719 0
M  V30 6840 H 620.31 4.83982 1.37004 0
M  V30 6841 H 620.01 5.87581 -0.0478356 0
M  V30 6842 H 621.534 6.0438 0.869333 0
M  V30 6843 H 622.948 5.5712 -1.35239 0
M  V30 6844 H 621.345 5.60537 -2.14284 0
M  V30 6845 H 622.415 4.21493 -2.39733 0
M  V30 6846 N 623.758 0.647228 1.43697 0
M  V30 6847 C 625.006 0.157876 2.01482 0
M  V30 6848 C 625.327 -1.23039 1.51282 0
M  V30 6849 O 624.597 -1.82071 0.722982 0
M  V30 6850 H 623.177 0.0553745 0.744945 0
M  V30 6851 H 625.839 0.83755 1.75986 0
M  V30 6852 H 624.935 0.137895 3.11795 0
M  V30 6853 N 625.236 -1.5273 0.388769 0
M  V30 6854 C 626.461 -2.0647 -0.19621 0
M  V30 6855 C 626.886 -1.25865 -1.39784 0
M  V30 6856 O 626.244 -0.283562 -1.79069 0
M  V30 6857 C 626.292 -3.56456 -0.5451 0
M  V30 6858 O 625.396 -3.78426 -1.63912 0
M  V30 6859 H 624.737 -0.663599 -0.023067 0
M  V30 6860 H 627.267 -1.96898 0.556084 0
M  V30 6861 H 627.277 -3.99888 -0.809557 0
M  V30 6862 H 625.952 -4.14561 0.333417 0
M  V30 6863 H 624.529 -3.46884 -1.36842 0
M  V30 6864 N 626.714 -0.118576 -1.57153 0
M  V30 6865 C 627.939 0.550582 -1.99958 0
M  V30 6866 C 628.364 1.59458 -0.997736 0
M  V30 6867 O 627.722 1.81274 0.0306269 0
M  V30 6868 C 627.77 1.15379 -3.41643 0
M  V30 6869 O 626.874 2.26932 -3.44348 0
M  V30 6870 H 626.215 0.137567 -0.649593 0
M  V30 6871 H 628.745 -0.206926 -2.03551 0
M  V30 6872 H 628.755 1.48942 -3.79843 0
M  V30 6873 H 627.43 0.389087 -4.14076 0
M  V30 6874 H 626.007 1.94812 -3.17967 0
M  V30 6875 N 628.193 1.56834 0.155195 0
M  V30 6876 C 629.103 2.009 1.21146 0
M  V30 6877 C 630.119 0.923029 1.475 0
M  V30 6878 O 631.295 1.23189 1.59331 0
M  V30 6879 C 628.36 2.37378 2.52691 0
M  V30 6880 C 627.421 3.59883 2.34057 0
M  V30 6881 C 626.654 3.94612 3.59329 0
M  V30 6882 O 626.877 3.30104 4.65175 0
M  V30 6883 O 625.811 4.87895 3.52479 0
M  V30 6884 H 629.637 2.9105 0.867371 0
M  V30 6885 H 627.222 1.44916 0.363298 0
M  V30 6886 H 629.104 2.61737 3.3026 0
M  V30 6887 H 627.779 1.50385 2.86646 0
M  V30 6888 H 626.686 3.40722 1.54465 0
M  V30 6889 H 628.019 4.47468 2.0502 0
M  V30 6890 N 629.671 -0.424282 1.51781 0
M  V30 6891 C 630.948 -1.18464 1.55646 0
M  V30 6892 C 631.328 -2.08529 0.328438 0
M  V30 6893 O 630.676 -2.17969 -0.685693 0
M  V30 6894 C 630.886 -1.97514 2.87731 0
M  V30 6895 C 632.234 -2.54106 3.40169 0
M  V30 6896 O 633.258 -2.07711 2.89369 0
M  V30 6897 O 632.117 -3.38759 4.28841 0
M  V30 6898 H 629.211 -0.540055 0.626314 0
M  V30 6899 H 631.757 -0.432291 1.64102 0
M  V30 6900 H 630.529 -1.31444 3.68562 0
M  V30 6901 H 630.152 -2.79787 2.82498 0
M  V30 6902 N 631.149 -1.42148 -0.680565 0
M  V30 6903 C 632.097 -1.45401 -1.81552 0
M  V30 6904 C 633.091 -0.33036 -1.66147 0
M  V30 6905 O 634.297 -0.503103 -1.72826 0
M  V30 6906 H 630.672 -0.455265 -0.59853 0
M  V30 6907 H 632.643 -2.41024 -1.75926 0
M  V30 6908 C 631.392 -1.36769 -3.19671 0
M  V30 6909 H 630.715 -2.22525 -3.32149 0
M  V30 6910 H 632.155 -1.43106 -3.9912 0
M  V30 6911 C 630.614 -0.0817752 -3.36801 0
M  V30 6912 O 631.144 0.867707 -3.92216 0
M  V30 6913 N 629.35 -0.000799811 -2.906 0
M  V30 6914 H 628.897 -0.774231 -2.4569 0
M  V30 6915 H 628.855 0.858961 -3.02439 0
M  V30 6916 N 632.627 0.916307 -1.28225 0
M  V30 6917 C 633.874 1.66518 -1.1523 0
M  V30 6918 C 634.202 1.92178 0.299632 0
M  V30 6919 O 633.457 1.51842 1.2346 0
M  V30 6920 C 633.756 3.03125 -1.8934 0
M  V30 6921 C 633.422 2.97135 -3.39148 0
M  V30 6922 C 632.084 2.95208 -3.80007 0
M  V30 6923 C 634.436 2.87574 -4.34685 0
M  V30 6924 C 631.764 2.81518 -5.14747 0
M  V30 6925 C 634.116 2.75424 -5.69495 0
M  V30 6926 C 632.78 2.71854 -6.09632 0
M  V30 6927 H 632.05 0.609334 -0.421655 0
M  V30 6928 H 634.697 1.06776 -1.58969 0
M  V30 6929 H 633.002 3.66639 -1.38143 0
M  V30 6930 H 634.699 3.59968 -1.76704 0
M  V30 6931 H 631.289 2.99428 -3.06661 0
M  V30 6932 H 635.473 2.88152 -4.04082 0
M  V30 6933 H 630.729 2.77148 -5.44976 0
M  V30 6934 H 634.903 2.66993 -6.43185 0
M  V30 6935 H 632.53 2.61003 -7.1399 0
M  V30 6936 N 634.105 1.10431 1.1244 0
M  V30 6937 C 635.015 0.765502 2.21759 0
M  V30 6938 C 636.031 -0.236966 1.72379 0
M  V30 6939 O 637.207 -0.0757329 2.01258 0
M  V30 6940 C 634.272 0.202316 3.46109 0
M  V30 6941 C 633.333 1.26205 4.1033 0
M  V30 6942 C 632.566 0.725648 5.28744 0
M  V30 6943 O 632.789 -0.447942 5.68638 0
M  V30 6944 O 631.723 1.48555 5.83279 0
M  V30 6945 H 635.549 1.67801 2.53133 0
M  V30 6946 H 633.134 0.879443 1.20773 0
M  V30 6947 H 635.016 -0.107918 4.21262 0
M  V30 6948 H 633.691 -0.683052 3.16411 0
M  V30 6949 H 632.598 1.62514 3.36957 0
M  V30 6950 H 633.931 2.12044 4.44183 0
M  V30 6951 N 635.583 -1.29855 0.893053 0
M  V30 6952 C 636.86 -1.90694 0.435336 0
M  V30 6953 C 637.24 -1.8111 -1.08454 0
M  V30 6954 O 636.588 -1.23352 -1.92345 0
M  V30 6955 C 636.798 -3.36033 0.942472 0
M  V30 6956 C 638.146 -4.13083 0.982226 0
M  V30 6957 O 639.17 -3.4491 0.889686 0
M  V30 6958 O 638.029 -5.34896 1.12022 0
M  V30 6959 H 635.123 -0.815978 0.134567 0
M  V30 6960 H 637.669 -1.38367 0.982484 0
M  V30 6961 H 636.441 -3.37132 1.9864 0
M  V30 6962 H 636.064 -3.95828 0.374952 0
M  V30 6963 N 637.061 -0.65484 -1.43351 0
M  V30 6964 C 638.286 -0.175046 -2.0666 0
M  V30 6965 C 638.711 1.15104 -1.4877 0
M  V30 6966 O 638.069 1.71144 -0.598279 0
M  V30 6967 C 638.117 -0.0991544 -3.60464 0
M  V30 6968 O 637.221 0.938169 -4.01587 0
M  V30 6969 H 636.562 -0.0956148 -0.65708 0
M  V30 6970 H 639.092 -0.898222 -1.83829 0
M  V30 6971 H 639.102 0.083632 -4.07914 0
M  V30 6972 H 637.777 -1.06719 -4.01975 0
M  V30 6973 H 636.354 0.72804 -3.65724 0
M  V30 6974 N 638.539 1.52521 -0.396863 0
M  V30 6975 C 639.764 2.06571 0.185258 0
M  V30 6976 C 640.189 1.26605 1.39115 0
M  V30 6977 O 639.547 0.293055 1.78916 0
M  V30 6978 C 639.595 3.5674 0.526189 0
M  V30 6979 O 638.699 3.7929 1.61903 0
M  V30 6980 H 638.04 0.663712 0.0195474 0
M  V30 6981 H 640.57 1.966 -0.566519 0
M  V30 6982 H 640.58 4.00311 0.788338 0
M  V30 6983 H 639.255 4.14379 -0.355397 0
M  V30 6984 H 637.832 3.47605 1.35 0
M  V30 6985 N 640.017 0.126909 1.57088 0
M  V30 6986 C 640.949 -0.850973 2.12817 0
M  V30 6987 C 641.962 -1.22457 1.07276 0
M  V30 6988 O 643.151 -1.17215 1.34622 0
M  V30 6989 C 640.251 -2.15039 2.61938 0
M  V30 6990 C 639.424 -1.94726 3.91664 0
M  V30 6991 C 638.483 -3.0847 4.26301 0
M  V30 6992 O 637.509 -2.81038 4.94981 0
M  V30 6993 N 638.711 -4.35116 3.84259 0
M  V30 6994 H 641.476 -0.3748 2.97347 0
M  V30 6995 H 639.037 -0.0572793 1.61799 0
M  V30 6996 H 641.029 -2.90141 2.82135 0
M  V30 6997 H 639.599 -2.5398 1.82244 0
M  V30 6998 H 638.819 -1.03772 3.80296 0
M  V30 6999 H 640.107 -1.78469 4.76473 0
M  V30 7000 H 639.505 -4.60276 3.2888 0
M  V30 7001 H 638.062 -5.07064 4.09548 0
M  V30 7002 N 641.495 -1.56914 -0.146875 0
M  V30 7003 C 642.742 -1.83356 -0.859467 0
M  V30 7004 C 643.07 -0.707811 -1.81164 0
M  V30 7005 O 642.325 0.303155 -1.93338 0
M  V30 7006 C 642.624 -3.16128 -1.66727 0
M  V30 7007 C 642.29 -4.42586 -0.861881 0
M  V30 7008 C 640.952 -4.76929 -0.639687 0
M  V30 7009 C 643.304 -5.20344 -0.298643 0
M  V30 7010 C 640.632 -5.86491 0.156451 0
M  V30 7011 C 642.984 -6.30742 0.484536 0
M  V30 7012 C 641.648 -6.63635 0.717306 0
M  V30 7013 H 640.918 -0.670947 -0.314501 0
M  V30 7014 H 643.565 -1.91104 -0.123108 0
M  V30 7015 H 641.87 -3.03831 -2.47374 0
M  V30 7016 H 643.567 -3.33802 -2.2221 0
M  V30 7017 H 640.157 -4.15662 -1.04513 0
M  V30 7018 H 644.341 -4.94186 -0.457585 0
M  V30 7019 H 639.597 -6.10419 0.346292 0
M  V30 7020 H 643.771 -6.90188 0.928105 0
M  V30 7021 H 641.398 -7.48367 1.33607 0
M  V30 7022 N 642.974 0.416227 -1.52004 0
M  V30 7023 C 644.39 0.754319 -1.40649 0
M  V30 7024 C 644.59 1.95059 -0.505392 0
M  V30 7025 O 643.646 2.5248 0.0315057 0
M  V30 7026 C 644.959 1.0149 -2.83055 0
M  V30 7027 C 646.507 1.11805 -2.9235 0
M  V30 7028 C 646.982 1.41144 -4.35709 0
M  V30 7029 N 648.473 1.48024 -4.38911 0
M  V30 7030 C 649.208 1.72338 -5.46889 0
M  V30 7031 N 648.704 1.94303 -6.64995 0
M  V30 7032 N 650.497 1.74294 -5.34395 0
M  V30 7033 H 642.648 -0.371324 -2.09129 0
M  V30 7034 H 644.911 -0.103811 -0.942299 0
M  V30 7035 H 644.617 0.208345 -3.51082 0
M  V30 7036 H 644.491 1.93697 -3.23668 0
M  V30 7037 H 646.878 1.91521 -2.24508 0
M  V30 7038 H 646.959 0.17451 -2.55204 0
M  V30 7039 H 646.603 0.619484 -5.04108 0
M  V30 7040 H 646.533 2.36739 -4.70385 0
M  V30 7041 H 649.024 1.32868 -3.53772 0
M  V30 7042 H 649.337 2.12286 -7.43071 0
M  V30 7043 H 647.682 1.91582 -6.68073 0
M  V30 7044 H 650.873 1.56667 -4.41104 0
M  V30 7045 H 651.046 1.92904 -6.18621 0
M  V30 7046 N 644.452 1.42507 0.673017 0
M  V30 7047 C 645.863 1.38347 1.25367 0
M  V30 7048 C 646.214 0.0776327 1.96046 0
M  V30 7049 O 645.339 -0.823571 2.00116 0
M  V30 7050 C 645.934 2.506 2.28002 0
M  V30 7051 C 644.493 2.49767 2.81591 0
M  V30 7052 C 643.64 2.293 1.55938 0
M  V30 7053 H 646.591 1.51695 0.466288 0
M  V30 7054 H 646.612 2.20953 3.09774 0
M  V30 7055 H 646.124 3.45627 1.76532 0
M  V30 7056 H 644.225 1.58563 3.37177 0
M  V30 7057 H 644.338 3.46867 3.30485 0
M  V30 7058 H 642.702 1.77594 1.82572 0
M  V30 7059 H 643.485 3.26385 1.06431 0
M  V30 7060 N 645.93 -0.909495 1.28709 0
M  V30 7061 C 646.84 -2.04558 1.14861 0
M  V30 7062 C 647.856 -1.73842 0.0741621 0
M  V30 7063 O 649.032 -1.99383 0.2843 0
M  V30 7064 C 646.097 -3.36957 0.816148 0
M  V30 7065 C 645.158 -3.81255 1.97341 0
M  V30 7066 C 644.391 -5.07335 1.65671 0
M  V30 7067 O 644.614 -5.67514 0.573053 0
M  V30 7068 O 643.548 -5.47449 2.50167 0
M  V30 7069 H 647.374 -2.19161 2.10243 0
M  V30 7070 H 644.959 -1.03159 1.08068 0
M  V30 7071 H 646.841 -4.16436 0.644873 0
M  V30 7072 H 645.516 -3.2352 -0.107983 0
M  V30 7073 H 644.423 -3.02584 2.19986 0
M  V30 7074 H 645.756 -3.99261 2.87839 0
M  V30 7075 N 647.408 -1.11026 -1.11852 0
M  V30 7076 C 648.824 -0.843294 -1.35502 0
M  V30 7077 C 649.024 0.534179 -1.9429 0
M  V30 7078 O 648.08 1.28585 -2.17307 0
M  V30 7079 C 649.393 -1.94793 -2.29077 0
M  V30 7080 C 650.941 -1.97709 -2.42652 0
M  V30 7081 C 651.416 -3.07364 -3.39546 0
M  V30 7082 N 652.907 -3.0671 -3.47107 0
M  V30 7083 C 653.642 -3.88197 -4.22008 0
M  V30 7084 N 653.138 -4.79635 -4.99922 0
M  V30 7085 N 654.931 -3.76391 -4.17476 0
M  V30 7086 H 647.082 -1.99805 -0.720538 0
M  V30 7087 H 649.345 -0.868633 -0.379711 0
M  V30 7088 H 649.051 -2.93971 -1.93065 0
M  V30 7089 H 648.925 -1.84039 -3.29256 0
M  V30 7090 H 651.312 -0.991604 -2.77941 0
M  V30 7091 H 651.393 -2.1254 -1.4234 0
M  V30 7092 H 651.037 -4.06136 -3.04985 0
M  V30 7093 H 650.967 -2.89774 -4.39703 0
M  V30 7094 H 653.458 -2.40457 -2.91528 0
M  V30 7095 H 653.771 -5.38357 -5.54429 0
M  V30 7096 H 652.116 -4.8366 -4.99097 0
M  V30 7097 H 655.307 -3.04303 -3.55693 0
M  V30 7098 H 655.48 -4.40131 -4.75593 0
M  V30 7099 N 648.886 1.2938 -0.899927 0
M  V30 7100 C 650.132 1.96206 -0.536153 0
M  V30 7101 C 650.487 1.69647 0.90761 0
M  V30 7102 O 649.78 0.999089 1.63489 0
M  V30 7103 C 649.974 3.49114 -0.765113 0
M  V30 7104 C 649.803 3.90538 -2.22958 0
M  V30 7105 C 648.573 4.15395 -2.87706 0
M  V30 7106 C 650.771 4.0224 -3.20479 0
M  V30 7107 N 648.753 4.43389 -4.24593 0
M  V30 7108 C 650.124 4.34288 -4.42486 0
M  V30 7109 C 652.179 3.84716 -3.16066 0
M  V30 7110 C 650.882 4.50638 -5.6064 0
M  V30 7111 C 652.908 4.02276 -4.33507 0
M  V30 7112 C 652.27 4.34684 -5.54283 0
M  V30 7113 H 648.369 0.742364 -0.245804 0
M  V30 7114 H 650.953 1.56314 -1.16078 0
M  V30 7115 H 649.124 3.88028 -0.169861 0
M  V30 7116 H 650.856 4.03035 -0.366751 0
M  V30 7117 H 647.611 4.09164 -2.385 0
M  V30 7118 H 648.035 4.61494 -4.95331 0
M  V30 7119 H 652.677 3.58724 -2.23778 0
M  V30 7120 H 650.395 4.75467 -6.5342 0
M  V30 7121 H 653.981 3.90169 -4.31578 0
M  V30 7122 H 652.861 4.47988 -6.43643 0
M  V30 7123 N 650.364 0.662433 1.43002 0
M  V30 7124 C 651.294 -0.00979809 2.33498 0
M  V30 7125 C 652.275 -0.802329 1.49989 0
M  V30 7126 O 653.46 -0.761964 1.78627 0
M  V30 7127 C 650.59 -0.970446 3.33466 0
M  V30 7128 C 649.544 -0.287383 4.27034 0
M  V30 7129 C 648.87 -1.36012 5.17112 0
M  V30 7130 C 650.17 0.82595 5.15728 0
M  V30 7131 H 651.864 0.745959 2.89958 0
M  V30 7132 H 649.41 0.360172 1.39423 0
M  V30 7133 H 651.363 -1.44971 3.95679 0
M  V30 7134 H 650.087 -1.75748 2.75282 0
M  V30 7135 H 648.746 0.17152 3.66199 0
M  V30 7136 H 648.394 -2.13882 4.55262 0
M  V30 7137 H 648.094 -0.908276 5.80538 0
M  V30 7138 H 649.618 -1.84056 5.82199 0
M  V30 7139 H 651.032 0.42845 5.71697 0
M  V30 7140 H 649.429 1.20282 5.87922 0
M  V30 7141 H 650.499 1.68003 4.54866 0
M  V30 7142 N 651.842 -1.52309 0.404946 0
M  V30 7143 C 652.774 -2.24579 -0.45791 0
M  V30 7144 C 653.787 -1.2739 -1.01369 0
M  V30 7145 O 654.976 -1.53363 -0.91335 0
M  V30 7146 C 652.076 -2.9608 -1.64893 0
M  V30 7147 C 651.249 -4.20106 -1.21777 0
M  V30 7148 C 650.308 -4.74468 -2.27523 0
M  V30 7149 O 649.334 -5.37157 -1.88285 0
M  V30 7150 N 650.536 -4.55678 -3.59635 0
M  V30 7151 H 653.301 -2.99265 0.161341 0
M  V30 7152 H 650.862 -1.60228 0.232107 0
M  V30 7153 H 652.854 -3.29344 -2.35191 0
M  V30 7154 H 651.424 -2.24606 -2.17419 0
M  V30 7155 H 650.644 -3.92704 -0.343071 0
M  V30 7156 H 651.932 -5.00658 -0.906596 0
M  V30 7157 H 651.33 -4.05673 -3.94266 0
M  V30 7158 H 649.887 -4.9339 -4.25922 0
M  V30 7159 N 653.32 -0.135238 -1.57019 0
M  V30 7160 C 654.23 0.822226 -2.19719 0
M  V30 7161 C 655.246 1.28057 -1.17802 0
M  V30 7162 O 656.422 1.3402 -1.50335 0
M  V30 7163 C 653.487 2.0484 -2.79717 0
M  V30 7164 C 652.548 1.64042 -3.96723 0
M  V30 7165 C 651.781 2.80814 -4.53849 0
M  V30 7166 O 652.004 3.967 -4.0986 0
M  V30 7167 O 650.938 2.56963 -5.44292 0
M  V30 7168 H 654.764 0.318552 -3.02025 0
M  V30 7169 H 652.349 0.0912021 -1.49121 0
M  V30 7170 H 654.231 2.76622 -3.17897 0
M  V30 7171 H 652.906 2.54182 -2.00432 0
M  V30 7172 H 651.813 0.893182 -3.63281 0
M  V30 7173 H 653.146 1.19426 -4.77492 0
M  V30 7174 N 654.798 1.5699 0.138552 0
M  V30 7175 C 655.745 1.98899 1.17081 0
M  V30 7176 C 656.715 0.857922 1.42228 0
M  V30 7177 O 657.9 1.12065 1.54422 0
M  V30 7178 C 655.04 2.38189 2.4972 0
M  V30 7179 C 654.153 3.64624 2.31674 0
M  V30 7180 C 653.288 3.9298 3.57407 0
M  V30 7181 C 652.327 5.1266 3.34435 0
M  V30 7182 N 651.464 5.36983 4.5232 0
M  V30 7183 H 656.304 2.86881 0.80642 0
M  V30 7184 H 653.841 1.41925 0.386727 0
M  V30 7185 H 655.799 2.59 3.2707 0
M  V30 7186 H 654.429 1.53275 2.84089 0
M  V30 7187 H 653.481 3.51542 1.45337 0
M  V30 7188 H 654.793 4.52131 2.10664 0
M  V30 7189 H 653.947 4.14335 4.43183 0
M  V30 7190 H 652.686 3.03912 3.8143 0
M  V30 7191 H 651.691 4.9117 2.47048 0
M  V30 7192 H 652.916 6.03288 3.11802 0
M  V30 7193 H 650.862 4.50871 4.76499 0
M  V30 7194 H 650.779 6.18775 4.34343 0
M  V30 7195 H 652.047 5.62842 5.39285 0
M  V30 7196 N 656.276 -0.40816 1.52223 0
M  V30 7197 C 657.186 -1.52202 1.78526 0
M  V30 7198 C 658.202 -1.60546 0.670892 0
M  V30 7199 O 659.378 -1.77242 0.956404 0
M  V30 7200 C 656.443 -2.87928 1.93128 0
M  V30 7201 C 655.504 -2.89463 3.17033 0
M  V30 7202 C 654.737 -4.18715 3.30929 0
M  V30 7203 O 654.96 -5.12662 2.50067 0
M  V30 7204 O 653.894 -4.27125 4.24084 0
M  V30 7205 H 657.72 -1.32911 2.73072 0
M  V30 7206 H 655.305 -0.594112 1.37079 0
M  V30 7207 H 657.187 -3.68426 2.04549 0
M  V30 7208 H 655.862 -3.07285 1.01772 0
M  V30 7209 H 654.769 -2.07815 3.11069 0
M  V30 7210 H 656.102 -2.75055 4.08174 0
M  V30 7211 N 657.755 -1.42862 -0.66545 0
M  V30 7212 C 658.702 -1.4707 -1.77874 0
M  V30 7213 C 659.672 -0.321654 -1.62956 0
M  V30 7214 O 660.857 -0.52707 -1.83376 0
M  V30 7215 C 657.997 -1.38788 -3.15962 0
M  V30 7216 C 657.11 -2.63801 -3.42101 0
M  V30 7217 C 656.245 -2.47594 -4.69969 0
M  V30 7218 C 655.284 -3.67936 -4.89172 0
M  V30 7219 N 654.421 -3.50614 -6.08288 0
M  V30 7220 H 659.261 -2.42204 -1.73613 0
M  V30 7221 H 656.798 -1.20239 -0.847401 0
M  V30 7222 H 658.756 -1.31982 -3.95773 0
M  V30 7223 H 657.386 -0.472431 -3.19324 0
M  V30 7224 H 656.438 -2.80935 -2.56475 0
M  V30 7225 H 657.75 -3.53228 -3.52181 0
M  V30 7226 H 656.904 -2.38427 -5.57886 0
M  V30 7227 H 655.643 -1.55672 -4.62188 0
M  V30 7228 H 654.648 -3.77525 -3.99694 0
M  V30 7229 H 655.873 -4.60851 -4.98792 0
M  V30 7230 H 653.819 -2.61417 -6.01662 0
M  V30 7231 H 653.736 -4.33634 -6.19272 0
M  V30 7232 H 655.004 -3.45276 -6.98859 0
M  V30 7233 N 659.233 0.902656 -1.29189 0
M  V30 7234 C 660.482 1.6475 -1.16362 0
M  V30 7235 C 660.795 1.93517 0.284682 0
M  V30 7236 O 662.001 2.66192 0.534229 0
M  V30 7237 C 660.457 2.96848 -2.03493 0
M  V30 7238 C 660.065 2.75687 -3.5313 0
M  V30 7239 C 661.809 3.74762 -1.99383 0
M  V30 7240 C 659.716 4.03492 -4.32375 0
M  V30 7241 H 658.646 0.618041 -0.431904 0
M  V30 7242 H 661.297 1.0008 -1.53806 0
M  V30 7243 H 659.679 3.62715 -1.58916 0
M  V30 7244 H 660.853 2.18431 -4.05739 0
M  V30 7245 H 659.168 2.11171 -3.58881 0
M  V30 7246 H 661.765 4.69515 -2.5585 0
M  V30 7247 H 662.108 4.04767 -0.973123 0
M  V30 7248 H 662.641 3.15732 -2.41988 0
M  V30 7249 H 659.38 3.78656 -5.3507 0
M  V30 7250 H 658.9 4.60318 -3.84535 0
M  V30 7251 H 660.579 4.71662 -4.42881 0
M  V30 7252 N 660.711 1.11618 1.11262 0
M  V30 7253 C 661.659 0.771291 2.1944 0
M  V30 7254 C 662.653 -0.238073 1.67719 0
M  V30 7255 O 663.859 -0.0971628 1.79738 0
M  V30 7256 H 660.234 0.231548 0.715465 0
M  V30 7257 H 662.205 1.69226 2.45775 0
M  V30 7258 C 660.954 0.232765 3.4692 0
M  V30 7259 H 660.277 1.00072 3.87073 0
M  V30 7260 H 661.717 0.0296561 4.2399 0
M  V30 7261 C 660.176 -1.03738 3.20531 0
M  V30 7262 O 660.706 -2.11675 3.41404 0
M  V30 7263 N 658.912 -0.960906 2.74253 0
M  V30 7264 H 658.459 -0.0824323 2.57468 0
M  V30 7265 H 658.417 -1.8114 2.56974 0
M  V30 7266 N 662.189 -1.289 0.906776 0
M  V30 7267 C 663.6 -1.77336 0.58384 0
M  V30 7268 C 663.951 -1.74304 -0.900697 0
M  V30 7269 O 663.076 -1.33335 -1.70443 0
M  V30 7270 C 663.671 -3.22019 1.05304 0
M  V30 7271 C 662.23 -3.68205 0.781148 0
M  V30 7272 C 661.377 -2.48837 1.22373 0
M  V30 7273 H 664.328 -1.15462 1.08877 0
M  V30 7274 H 664.349 -3.78481 0.391414 0
M  V30 7275 H 663.861 -3.24194 2.13353 0
M  V30 7276 H 661.962 -3.71497 -0.28643 0
M  V30 7277 H 662.075 -4.58675 1.384 0
M  V30 7278 H 660.439 -2.46461 0.642594 0
M  V30 7279 H 661.222 -2.53736 2.31242 0
M  V30 7280 N 663.667 -0.670007 -1.42649 0
M  V30 7281 C 664.914 -0.190286 -2.01604 0
M  V30 7282 C 665.242 1.20155 -1.52948 0
M  V30 7283 O 664.497 1.81964 -0.72026 0
M  V30 7284 C 664.796 -0.168298 -3.57004 0
M  V30 7285 C 664.462 -1.50415 -4.25072 0
M  V30 7286 C 663.124 -1.86992 -4.43382 0
M  V30 7287 C 665.476 -2.38414 -4.63474 0
M  V30 7288 C 662.804 -3.11203 -4.97363 0
M  V30 7289 C 665.156 -3.61933 -5.18833 0
M  V30 7290 C 663.82 -3.98685 -5.35356 0
M  V30 7291 H 663.09 -0.0696305 -0.737721 0
M  V30 7292 H 665.737 -0.864044 -1.70899 0
M  V30 7293 H 664.042 0.588958 -3.87348 0
M  V30 7294 H 665.739 0.22001 -4.00396 0
M  V30 7295 H 662.329 -1.20959 -4.11177 0
M  V30 7296 H 666.513 -2.11442 -4.49006 0
M  V30 7297 H 661.769 -3.39705 -5.08341 0
M  V30 7298 H 665.943 -4.30326 -5.47533 0
M  V30 7299 H 663.57 -4.95009 -5.76949 0
M  V30 7300 N 665.145 1.52092 -0.413018 0
M  V30 7301 C 666.108 2.25706 0.398687 0
M  V30 7302 C 667.108 1.28221 0.970368 0
M  V30 7303 O 668.298 1.52131 0.848635 0
M  V30 7304 C 665.43 3.03029 1.5616 0
M  V30 7305 H 666.623 2.98888 -0.246131 0
M  V30 7306 H 664.176 1.5542 -0.165622 0
M  V30 7307 H 664.911 2.34205 2.24317 0
M  V30 7308 H 664.696 3.74606 1.15812 0
M  V30 7309 H 666.186 3.58857 2.13569 0
M  V30 7310 N 666.623 0.143563 1.56945 0
M  V30 7311 C 667.573 -0.809115 2.1316 0
M  V30 7312 C 668.557 -1.21176 1.05855 0
M  V30 7313 O 669.749 -1.17875 1.3204 0
M  V30 7314 C 666.878 -2.04957 2.75405 0
M  V30 7315 C 665.964 -1.67018 3.89828 0
M  V30 7316 N 666.355 -0.998822 4.9584 0
M  V30 7317 C 664.653 -1.96313 4.00471 0
M  V30 7318 C 665.354 -0.816217 5.75945 0
M  V30 7319 N 664.33 -1.349 5.26596 0
M  V30 7320 H 668.132 -0.286919 2.92496 0
M  V30 7321 H 665.646 -0.0580948 1.62296 0
M  V30 7322 H 667.643 -2.74201 3.14037 0
M  V30 7323 H 666.303 -2.57697 1.97541 0
M  V30 7324 H 667.314 -0.659975 5.13678 0
M  V30 7325 H 663.991 -2.50927 3.33679 0
M  V30 7326 H 665.381 -0.287353 6.71285 0
M  V30 7327 N 668.101 -1.57061 -0.130224 0
M  V30 7328 C 669.031 -2.02552 -1.16168 0
M  V30 7329 C 670.012 -0.907971 -1.4384 0
M  V30 7330 O 671.197 -1.17693 -1.54473 0
M  V30 7331 C 668.327 -2.42035 -2.49071 0
M  V30 7332 C 667.281 -3.5713 -2.35886 0
M  V30 7333 C 666.607 -3.82478 -3.7365 0
M  V30 7334 C 667.907 -4.89236 -1.8288 0
M  V30 7335 H 669.601 -2.8897 -0.783359 0
M  V30 7336 H 667.147 -1.39021 -0.375376 0
M  V30 7337 H 669.1 -2.72462 -3.21469 0
M  V30 7338 H 667.824 -1.52573 -2.88771 0
M  V30 7339 H 666.483 -3.26895 -1.65938 0
M  V30 7340 H 666.131 -2.9024 -4.10816 0
M  V30 7341 H 665.831 -4.59944 -3.65685 0
M  V30 7342 H 667.355 -4.15347 -4.47571 0
M  V30 7343 H 668.769 -5.18272 -2.45085 0
M  V30 7344 H 667.166 -5.70624 -1.85763 0
M  V30 7345 H 668.236 -4.78494 -0.785571 0
M  V30 7346 N 669.579 0.400081 -1.52437 0
M  V30 7347 C 670.99 0.97851 -1.59003 0
M  V30 7348 C 671.341 1.91293 -0.436068 0
M  V30 7349 O 670.466 2.1183 0.442365 0
M  V30 7350 C 671.061 1.78145 -2.88184 0
M  V30 7351 C 669.62 2.30976 -2.97199 0
M  V30 7352 C 668.767 1.11212 -2.54022 0
M  V30 7353 H 671.718 0.180002 -1.57676 0
M  V30 7354 H 671.739 2.63968 -2.74046 0
M  V30 7355 H 671.251 1.1011 -3.72152 0
M  V30 7356 H 669.352 3.02355 -2.17744 0
M  V30 7357 H 669.465 2.61221 -4.01622 0
M  V30 7358 H 667.829 1.46882 -2.08081 0
M  V30 7359 H 668.612 0.447307 -3.40373 0
M  V30 7360 N 671.057 1.43213 0.657864 0
M  V30 7361 C 672.304 1.44584 1.41781 0
M  V30 7362 C 672.632 0.0684208 1.9438 0
M  V30 7363 O 671.887 -0.925872 1.72413 0
M  V30 7364 C 672.186 2.43143 2.61947 0
M  V30 7365 C 671.852 3.89128 2.27794 0
M  V30 7366 C 670.514 4.28889 2.18191 0
M  V30 7367 C 672.866 4.81144 2.00375 0
M  V30 7368 C 670.194 5.58625 1.79319 0
M  V30 7369 C 672.546 6.11239 1.63003 0
M  V30 7370 C 671.21 6.49981 1.51922 0
M  V30 7371 H 670.48 0.529069 0.518813 0
M  V30 7372 H 673.127 1.76263 0.748577 0
M  V30 7373 H 671.432 2.04851 3.33981 0
M  V30 7374 H 673.129 2.4146 3.20153 0
M  V30 7375 H 669.719 3.57657 2.36176 0
M  V30 7376 H 673.903 4.512 2.06718 0
M  V30 7377 H 669.159 5.87486 1.69323 0
M  V30 7378 H 673.333 6.82014 1.40817 0
M  V30 7379 H 670.96 7.50416 1.21572 0
M  V30 7380 N 672.536 -0.895792 1.29666 0
M  V30 7381 C 673.784 -1.64339 1.17631 0
M  V30 7382 C 674.105 -1.93099 -0.271643 0
M  V30 7383 O 673.375 -1.55981 -1.18518 0
M  V30 7384 H 671.955 -0.609162 0.432354 0
M  V30 7385 H 674.617 -1.07389 1.62646 0
M  V30 7386 H 673.713 -2.59815 1.72924 0
M  V30 7387 N 674.014 -1.12206 -1.10668 0
M  V30 7388 C 675.26 -0.877172 -1.82848 0
M  V30 7389 C 675.593 0.595571 -1.84842 0
M  V30 7390 O 674.868 1.44013 -1.30731 0
M  V30 7391 C 675.151 -1.44957 -3.29635 0
M  V30 7392 C 675.004 -2.99051 -3.35989 0
M  V30 7393 C 676.323 -1.10714 -4.25946 0
M  V30 7394 H 673.442 -0.320103 -0.663854 0
M  V30 7395 H 676.084 -1.38827 -1.2972 0
M  V30 7396 H 674.234 -1.01488 -3.7501 0
M  V30 7397 H 675.906 -3.51182 -2.99113 0
M  V30 7398 H 674.149 -3.34705 -2.75962 0
M  V30 7399 H 674.82 -3.34194 -4.39339 0
M  V30 7400 H 677.296 -1.48254 -3.88793 0
M  V30 7401 H 676.172 -1.5343 -5.2702 0
M  V30 7402 H 676.433 -0.019 -4.42096 0
M  V30 7403 N 675.492 1.28418 -0.913599 0
M  V30 7404 C 676.74 1.94596 -0.545594 0
M  V30 7405 C 677.061 1.7227 0.913668 0
M  V30 7406 O 676.331 1.06233 1.64595 0
M  V30 7407 H 674.911 0.720065 -0.198783 0
M  V30 7408 H 677.573 1.56404 -1.16292 0
M  V30 7409 H 676.669 3.03202 -0.739911 0
M  V30 7410 N 676.97 0.677563 1.42291 0
M  V30 7411 C 677.917 0.000947061 2.308 0
M  V30 7412 C 678.887 -0.789889 1.46116 0
M  V30 7413 O 680.072 -0.761578 1.74942 0
M  V30 7414 C 677.212 -0.942387 3.31984 0
M  V30 7415 C 676.325 -0.14508 4.31756 0
M  V30 7416 C 675.46 -1.08442 5.20013 0
M  V30 7417 C 674.499 -0.278958 6.11464 0
M  V30 7418 N 673.636 -1.17115 6.92263 0
M  V30 7419 H 678.476 0.761521 2.88106 0
M  V30 7420 H 676.013 0.38727 1.41911 0
M  V30 7421 H 677.971 -1.50317 3.89179 0
M  V30 7422 H 676.601 -1.66956 2.76271 0
M  V30 7423 H 675.653 0.532368 3.76656 0
M  V30 7424 H 676.965 0.48015 4.96484 0
M  V30 7425 H 676.119 -1.71504 5.81955 0
M  V30 7426 H 674.858 -1.74353 4.55469 0
M  V30 7427 H 673.863 0.364856 5.48588 0
M  V30 7428 H 675.088 0.376099 6.78058 0
M  V30 7429 H 673.034 -1.81661 6.30345 0
M  V30 7430 H 672.951 -0.601063 7.53607 0
M  V30 7431 H 674.219 -1.78915 7.58689 0
M  V30 7432 N 678.448 -1.51871 0.421078 0
M  V30 7433 C 679.864 -1.59435 0.0725398 0
M  V30 7434 C 680.064 -1.43315 -1.41644 0
M  V30 7435 O 679.12 -1.26614 -2.18461 0
M  V30 7436 C 680.433 -2.9509 0.578132 0
M  V30 7437 C 681.981 -3.08356 0.537149 0
M  V30 7438 C 682.456 -4.4651 1.01945 0
M  V30 7439 N 683.947 -4.52784 0.976758 0
M  V30 7440 C 684.682 -5.57976 1.32099 0
M  V30 7441 N 684.178 -6.70664 1.73727 0
M  V30 7442 N 685.971 -5.48248 1.2402 0
M  V30 7443 H 678.122 -1.60595 1.39007 0
M  V30 7444 H 680.385 -0.756138 0.571803 0
M  V30 7445 H 680.091 -3.12205 1.61929 0
M  V30 7446 H 679.965 -3.772 -0.00578374 0
M  V30 7447 H 682.352 -2.90919 -0.494991 0
M  V30 7448 H 682.433 -2.28125 1.15727 0
M  V30 7449 H 682.077 -4.64692 2.04997 0
M  V30 7450 H 682.007 -5.25256 0.376023 0
M  V30 7451 H 684.498 -3.71898 0.670851 0
M  V30 7452 H 684.811 -7.46932 1.98274 0
M  V30 7453 H 683.156 -6.71914 1.77641 0
M  V30 7454 H 686.347 -4.59095 0.913756 0
M  V30 7455 H 686.52 -6.30119 1.51176 0
M  V30 7456 N 679.926 -0.151884 -1.56866 0
M  V30 7457 C 680.859 0.824094 -2.128 0
M  V30 7458 C 681.837 1.2391 -1.05286 0
M  V30 7459 O 683.021 1.33433 -1.33146 0
M  V30 7460 C 680.148 2.1072 -2.65169 0
M  V30 7461 C 679.194 1.83774 -3.84876 0
M  V30 7462 S 680.027 1.02436 -5.25611 0
M  V30 7463 C 681.183 2.31855 -5.81373 0
M  V30 7464 H 681.416 0.348456 -2.95251 0
M  V30 7465 H 678.949 0.0624794 -1.54274 0
M  V30 7466 H 680.907 2.84428 -2.95992 0
M  V30 7467 H 679.568 2.55398 -1.8284 0
M  V30 7468 H 678.761 2.78929 -4.19779 0
M  V30 7469 H 678.363 1.18172 -3.5484 0
M  V30 7470 H 680.655 3.27469 -5.93102 0
M  V30 7471 H 681.598 2.01449 -6.7884 0
M  V30 7472 H 682.006 2.42727 -5.09651 0
M  V30 7473 N 681.404 1.57128 0.121893 0
M  V30 7474 C 682.644 1.86517 0.836113 0
M  V30 7475 C 683.008 0.739497 1.77188 0
M  V30 7476 O 684.209 0.91508 2.52744 0
M  V30 7477 C 682.48 3.21129 1.56878 0
M  V30 7478 S 684.039 3.72143 2.32497 0
M  V30 7479 H 680.857 0.653923 0.279115 0
M  V30 7480 H 683.459 1.95271 0.0946254 0
M  V30 7481 H 682.163 4.01002 0.873255 0
M  V30 7482 H 681.694 3.15446 2.35069 0
M  V30 7483 H 683.709 3.43413 3.58164 0
M  V30 7484 N 682.882 -0.391992 1.52647 0
M  V30 7485 C 684.131 -1.13449 1.6677 0
M  V30 7486 C 684.444 -1.91203 0.412399 0
M  V30 7487 O 685.65 -2.68013 0.433707 0
M  V30 7488 C 684.106 -2.06577 2.9471 0
M  V30 7489 C 683.714 -1.3426 4.27409 0
M  V30 7490 C 685.458 -2.80981 3.18198 0
M  V30 7491 C 683.365 -2.26136 5.46458 0
M  V30 7492 H 682.295 -0.427211 0.621295 0
M  V30 7493 H 684.946 -0.397522 1.79142 0
M  V30 7494 H 683.328 -2.83898 2.76076 0
M  V30 7495 H 684.502 -0.621856 4.56585 0
M  V30 7496 H 682.817 -0.718279 4.10158 0
M  V30 7497 H 685.414 -3.49898 4.04321 0
M  V30 7498 H 685.757 -3.44891 2.33144 0
M  V30 7499 H 686.29 -2.10754 3.37383 0
M  V30 7500 H 683.029 -1.66846 6.33911 0
M  V30 7501 H 682.549 -2.96134 5.21598 0
M  V30 7502 H 684.228 -2.86286 5.80215 0
M  V30 7503 N 684.36 -1.4356 -0.65026 0
M  V30 7504 C 685.608 -1.45046 -1.40734 0
M  V30 7505 C 685.929 -0.0769822 -1.94848 0
M  V30 7506 O 685.199 0.888098 -1.74613 0
M  V30 7507 H 683.779 -0.534034 -0.522318 0
M  V30 7508 H 686.441 -1.79186 -0.766703 0
M  V30 7509 H 685.537 -2.16476 -2.24822 0
M  V30 7510 N 685.838 0.888903 -1.30139 0
M  V30 7511 C 687.254 1.17153 -1.08385 0
M  V30 7512 C 687.454 2.0088 0.157925 0
M  V30 7513 O 686.51 2.37668 0.852652 0
M  V30 7514 C 687.823 1.882 -2.34523 0
M  V30 7515 C 689.371 2.00981 -2.39949 0
M  V30 7516 C 689.846 2.75441 -3.65918 0
M  V30 7517 N 691.337 2.82989 -3.66704 0
M  V30 7518 C 692.072 3.41167 -4.60861 0
M  V30 7519 N 691.568 4.00425 -5.6536 0
M  V30 7520 N 693.361 3.38944 -4.48412 0
M  V30 7521 H 685.512 0.33053 -2.09812 0
M  V30 7522 H 687.775 0.208964 -0.924683 0
M  V30 7523 H 687.481 1.34119 -3.25123 0
M  V30 7524 H 687.355 2.88609 -2.42868 0
M  V30 7525 H 689.742 2.54234 -1.4983 0
M  V30 7526 H 689.823 0.996725 -2.35582 0
M  V30 7527 H 689.467 2.22861 -4.56394 0
M  V30 7528 H 689.397 3.77118 -3.67546 0
M  V30 7529 H 691.888 2.40912 -2.91153 0
M  V30 7530 H 692.201 4.42871 -6.33313 0
M  V30 7531 H 690.546 3.98856 -5.69157 0
M  V30 7532 H 693.737 2.91875 -3.6596 0
M  V30 7533 H 693.91 3.83989 -5.21974 0
M  V30 7534 N 687.317 1.12792 1.10072 0
M  V30 7535 C 688.733 0.864745 1.34143 0
M  V30 7536 C 688.933 -0.503201 1.95116 0
M  V30 7537 O 687.989 -1.25111 2.19325 0
M  V30 7538 C 689.302 1.98413 2.25949 0
M  V30 7539 C 690.85 2.01545 2.39476 0
M  V30 7540 C 691.325 3.12727 3.34613 0
M  V30 7541 N 692.816 3.12194 3.42183 0
M  V30 7542 C 693.551 3.94862 4.15779 0
M  V30 7543 N 693.047 4.87528 4.92228 0
M  V30 7544 N 694.84 3.82985 4.11435 0
M  V30 7545 H 686.991 2.00926 0.68866 0
M  V30 7546 H 689.254 0.874564 0.365844 0
M  V30 7547 H 688.96 2.97005 1.88364 0
M  V30 7548 H 688.834 1.89254 3.26287 0
M  V30 7549 H 691.221 1.0357 2.76328 0
M  V30 7550 H 691.302 2.14777 1.3894 0
M  V30 7551 H 690.946 4.10936 2.98486 0
M  V30 7552 H 690.876 2.96732 4.35037 0
M  V30 7553 H 693.367 2.45065 2.87666 0
M  V30 7554 H 693.68 5.47109 5.45794 0
M  V30 7555 H 692.025 4.91539 4.9134 0
M  V30 7556 H 695.216 3.09923 3.50807 0
M  V30 7557 H 695.389 4.47641 4.68531 0
M  V30 7558 N 688.795 -1.27931 0.920396 0
M  V30 7559 C 689.725 -2.29487 0.431024 0
M  V30 7560 C 690.706 -1.62435 -0.504861 0
M  V30 7561 O 691.891 -1.89797 -0.411176 0
M  V30 7562 C 689.021 -3.45788 -0.323709 0
M  V30 7563 C 687.975 -4.24784 0.523658 0
M  V30 7564 C 687.301 -5.33488 -0.359809 0
M  V30 7565 C 688.601 -4.90874 1.78437 0
M  V30 7566 H 690.295 -2.70671 1.27975 0
M  V30 7567 H 687.841 -1.30121 0.616813 0
M  V30 7568 H 689.794 -4.15927 -0.676952 0
M  V30 7569 H 688.518 -3.03502 -1.2064 0
M  V30 7570 H 687.177 -3.56382 0.85951 0
M  V30 7571 H 686.825 -4.87445 -1.24124 0
M  V30 7572 H 686.525 -5.87247 0.203605 0
M  V30 7573 H 688.049 -6.06472 -0.708787 0
M  V30 7574 H 689.463 -5.53339 1.49963 0
M  V30 7575 H 687.86 -5.54659 2.29071 0
M  V30 7576 H 688.93 -4.14988 2.50824 0
M  V30 7577 N 690.273 -0.685099 -1.4193 0
M  V30 7578 C 691.236 -0.0222632 -2.29189 0
M  V30 7579 C 692.236 0.7186 -1.4385 0
M  V30 7580 O 693.426 0.555058 -1.6512 0
M  V30 7581 C 690.558 0.979013 -3.2654 0
M  V30 7582 H 691.751 -0.790424 -2.89296 0
M  V30 7583 H 689.304 -0.448012 -1.49742 0
M  V30 7584 H 690.039 1.77531 -2.71392 0
M  V30 7585 H 689.824 0.451037 -3.89497 0
M  V30 7586 H 691.314 1.44091 -3.91954 0
M  V30 7587 N 691.751 1.51645 -0.429126 0
M  V30 7588 C 692.661 2.31288 0.392809 0
M  V30 7589 C 693.677 1.39852 1.03525 0
M  V30 7590 O 694.853 1.72926 1.03241 0
M  V30 7591 C 691.918 3.13347 1.48372 0
M  V30 7592 C 690.979 4.20551 0.862268 0
M  V30 7593 C 690.212 4.98688 1.9012 0
M  V30 7594 O 690.435 4.77359 3.12225 0
M  V30 7595 O 689.369 5.83005 1.4963 0
M  V30 7596 H 693.195 3.02609 -0.257138 0
M  V30 7597 H 690.78 1.48163 -0.191851 0
M  V30 7598 H 692.662 3.64387 2.1166 0
M  V30 7599 H 691.337 2.44799 2.1179 0
M  V30 7600 H 690.244 3.73609 0.191568 0
M  V30 7601 H 691.577 4.91449 0.271704 0
M  V30 7602 N 693.229 0.160201 1.56784 0
M  V30 7603 C 694.159 -0.770264 2.2043 0
M  V30 7604 C 695.14 -1.24736 1.15651 0
M  V30 7605 O 696.325 -1.30253 1.44041 0
M  V30 7606 C 693.455 -2.00427 2.83631 0
M  V30 7607 C 692.409 -1.66345 3.94352 0
M  V30 7608 C 691.735 -2.97119 4.4455 0
M  V30 7609 C 693.035 -0.899972 5.14488 0
M  V30 7610 H 694.729 -0.239783 2.98438 0
M  V30 7611 H 692.275 -0.113891 1.43549 0
M  V30 7612 H 694.228 -2.66012 3.26827 0
M  V30 7613 H 692.952 -2.5587 2.02973 0
M  V30 7614 H 691.611 -1.03133 3.51794 0
M  V30 7615 H 691.259 -3.5058 3.60698 0
M  V30 7616 H 690.959 -2.75073 5.19238 0
M  V30 7617 H 692.483 -3.63753 4.90425 0
M  V30 7618 H 693.897 -1.45818 5.54446 0
M  V30 7619 H 692.294 -0.778968 5.95023 0
M  V30 7620 H 693.364 0.105827 4.84785 0
M  V30 7621 N 694.707 -1.5719 -0.113559 0
M  V30 7622 C 695.639 -1.97393 -1.16484 0
M  V30 7623 C 696.652 -0.873964 -1.37352 0
M  V30 7624 O 697.841 -1.15222 -1.36331 0
M  V30 7625 C 694.941 -2.26174 -2.52386 0
M  V30 7626 C 694.114 -3.57479 -2.52046 0
M  V30 7627 C 693.173 -3.74409 -3.69735 0
M  V30 7628 O 692.199 -4.46463 -3.53071 0
M  V30 7629 N 693.401 -3.13588 -4.88511 0
M  V30 7630 H 696.166 -2.88184 -0.822814 0
M  V30 7631 H 693.727 -1.59044 -0.302769 0
M  V30 7632 H 695.719 -2.3471 -3.29687 0
M  V30 7633 H 694.289 -1.41483 -2.7875 0
M  V30 7634 H 693.509 -3.60081 -1.60421 0
M  V30 7635 H 694.797 -4.43775 -2.48881 0
M  V30 7636 H 694.195 -2.55026 -5.04953 0
M  V30 7637 H 692.752 -3.27637 -5.63469 0
M  V30 7638 N 696.185 0.383891 -1.52853 0
M  V30 7639 C 697.115 1.47559 -1.80965 0
M  V30 7640 C 698.096 1.5669 -0.661986 0
M  V30 7641 O 699.281 1.71556 -0.910072 0
M  V30 7642 C 696.411 2.85114 -1.98312 0
M  V30 7643 C 695.365 2.9082 -3.14019 0
M  V30 7644 C 694.691 4.30873 -3.16627 0
M  V30 7645 C 695.991 2.60001 -4.52986 0
M  V30 7646 H 697.685 1.24283 -2.72386 0
M  V30 7647 H 695.231 0.596445 -1.31067 0
M  V30 7648 H 697.184 3.61496 -2.16561 0
M  V30 7649 H 695.908 3.09738 -1.03585 0
M  V30 7650 H 694.567 2.16886 -2.9556 0
M  V30 7651 H 694.215 4.52545 -2.19573 0
M  V30 7652 H 693.915 4.3561 -3.94357 0
M  V30 7653 H 695.439 5.09154 -3.37038 0
M  V30 7654 H 696.853 3.261 -4.71521 0
M  V30 7655 H 695.25 2.76081 -5.32822 0
M  V30 7656 H 696.32 1.5532 -4.59351 0
M  V30 7657 N 697.663 1.43903 0.642637 0
M  V30 7658 C 698.613 1.46321 1.74854 0
M  V30 7659 C 699.597 0.330361 1.57472 0
M  V30 7660 O 700.789 0.574881 1.67404 0
M  V30 7661 C 697.918 1.39919 3.13493 0
M  V30 7662 C 697.004 2.58274 3.36385 0
M  V30 7663 N 697.395 3.83578 3.29699 0
M  V30 7664 C 695.693 2.53224 3.67142 0
M  V30 7665 C 696.394 4.62375 3.52965 0
M  V30 7666 N 695.37 3.93269 3.75287 0
M  V30 7667 H 699.172 2.41062 1.68126 0
M  V30 7668 H 696.686 1.38704 0.844693 0
M  V30 7669 H 698.683 1.39735 3.92785 0
M  V30 7670 H 697.343 0.46207 3.21395 0
M  V30 7671 H 698.354 4.15713 3.08874 0
M  V30 7672 H 695.031 1.68252 3.82096 0
M  V30 7673 H 696.421 5.714 3.53485 0
M  V30 7674 N 699.141 -0.881989 1.30609 0
M  V30 7675 C 700.071 -2.00413 1.1982 0
M  V30 7676 C 701.052 -1.69871 0.0881538 0
M  V30 7677 O 702.237 -1.92304 0.2707 0
M  V30 7678 C 699.367 -3.35641 0.89233 0
M  V30 7679 C 698.321 -3.80451 1.96064 0
M  V30 7680 C 697.647 -5.13003 1.5077 0
M  V30 7681 C 698.947 -3.98855 3.37213 0
M  V30 7682 H 700.641 -2.09698 2.13699 0
M  V30 7683 H 698.187 -1.00754 1.02882 0
M  V30 7684 H 700.14 -4.13669 0.803497 0
M  V30 7685 H 698.864 -3.26497 -0.0821381 0
M  V30 7686 H 697.523 -3.04654 2.03916 0
M  V30 7687 H 697.171 -5.0029 0.521417 0
M  V30 7688 H 696.871 -5.43956 2.22229 0
M  V30 7689 H 698.395 -5.93554 1.43271 0
M  V30 7690 H 699.809 -4.67312 3.32103 0
M  V30 7691 H 698.206 -4.41188 4.06784 0
M  V30 7692 H 699.276 -3.02614 3.78883 0
M  V30 7693 N 700.619 -1.13374 -1.09472 0
M  V30 7694 C 701.582 -0.813639 -2.14272 0
M  V30 7695 C 702.582 0.176677 -1.59826 0
M  V30 7696 O 703.772 -0.0503441 -1.74127 0
M  V30 7697 C 700.904 -0.210897 -3.40247 0
M  V30 7698 H 702.097 -1.74229 -2.44099 0
M  V30 7699 H 699.65 -0.938304 -1.25002 0
M  V30 7700 H 700.385 0.726998 -3.16046 0
M  V30 7701 H 700.17 -0.924048 -3.81056 0
M  V30 7702 H 701.66 -0.00377603 -4.176 0
M  V30 7703 N 702.098 1.27442 -0.927168 0
M  V30 7704 C 703.028 2.29256 -0.443188 0
M  V30 7705 C 704.009 1.62701 0.49624 0
M  V30 7706 O 705.194 1.90013 0.401105 0
M  V30 7707 C 702.324 3.45955 0.305366 0
M  V30 7708 C 701.278 4.24501 -0.546178 0
M  V30 7709 C 700.604 5.33671 0.331512 0
M  V30 7710 C 701.904 4.89921 -1.81037 0
M  V30 7711 H 703.598 2.69988 -1.29409 0
M  V30 7712 H 701.144 1.29792 -0.623705 0
M  V30 7713 H 703.097 4.1628 0.654885 0
M  V30 7714 H 701.821 3.04138 1.19029 0
M  V30 7715 H 700.48 3.55921 -0.878398 0
M  V30 7716 H 700.128 4.88096 1.21537 0
M  V30 7717 H 699.828 5.87131 -0.234746 0
M  V30 7718 H 701.352 6.0684 0.676614 0
M  V30 7719 H 702.766 5.52536 -1.52895 0
M  V30 7720 H 701.163 5.53436 -2.32009 0
M  V30 7721 H 702.233 4.13652 -2.53021 0
M  V30 7722 N 703.576 0.692616 1.41565 0
M  V30 7723 C 704.816 0.226453 2.03142 0
M  V30 7724 C 705.18 -1.1512 1.5366 0
M  V30 7725 O 706.381 -1.71305 2.07143 0
M  V30 7726 C 704.652 0.27855 3.56313 0
M  V30 7727 S 706.211 -0.114001 4.38652 0
M  V30 7728 H 703.029 0.0914767 0.705091 0
M  V30 7729 H 705.631 0.909737 1.73043 0
M  V30 7730 H 704.335 1.28325 3.89821 0
M  V30 7731 H 703.866 -0.423981 3.91109 0
M  V30 7732 H 705.881 -1.34256 4.77692 0
M  V30 7733 N 705.054 -1.51416 0.437162 0
M  V30 7734 C 706.3 -2.03035 -0.121818 0
M  V30 7735 C 706.655 -1.31551 -1.404 0
M  V30 7736 O 705.948 -0.421623 -1.86903 0
M  V30 7737 C 706.142 -3.55203 -0.39564 0
M  V30 7738 C 705.971 -4.4143 0.858452 0
M  V30 7739 C 704.741 -4.85751 1.39192 0
M  V30 7740 C 706.939 -4.83808 1.74454 0
M  V30 7741 N 704.921 -5.5619 2.59857 0
M  V30 7742 C 706.292 -5.53312 2.79724 0
M  V30 7743 C 708.347 -4.65795 1.75897 0
M  V30 7744 C 707.05 -6.06713 3.86383 0
M  V30 7745 C 709.076 -5.20112 2.81492 0
M  V30 7746 C 708.438 -5.89562 3.85482 0
M  V30 7747 H 704.537 -0.781981 -0.00541671 0
M  V30 7748 H 707.121 -1.85296 0.597792 0
M  V30 7749 H 705.292 -3.72958 -1.08429 0
M  V30 7750 H 707.024 -3.93489 -0.945963 0
M  V30 7751 H 703.779 -4.64058 0.945879 0
M  V30 7752 H 704.203 -5.96037 3.21044 0
M  V30 7753 H 708.845 -4.11562 0.968306 0
M  V30 7754 H 706.563 -6.6 4.66288 0
M  V30 7755 H 710.149 -5.08026 2.83551 0
M  V30 7756 H 709.029 -6.30838 4.65847 0
M  V30 7757 N 706.532 -0.168513 -1.56696 0
M  V30 7758 C 707.781 0.477233 -1.95973 0
M  V30 7759 C 708.094 1.64578 -1.05704 0
M  V30 7760 O 709.3 2.35758 -1.3465 0
M  V30 7761 C 707.756 0.900413 -3.48455 0
M  V30 7762 C 707.364 -0.242382 -4.47344 0
M  V30 7763 C 709.108 1.51474 -3.96555 0
M  V30 7764 C 707.015 0.200272 -5.91061 0
M  V30 7765 H 705.945 0.182061 -0.73169 0
M  V30 7766 H 708.596 -0.256297 -1.81701 0
M  V30 7767 H 706.978 1.68984 -3.58135 0
M  V30 7768 H 708.152 -1.01967 -4.49377 0
M  V30 7769 H 706.467 -0.766484 -4.09285 0
M  V30 7770 H 709.064 1.85792 -5.01384 0
M  V30 7771 H 709.407 2.41163 -3.39332 0
M  V30 7772 H 709.94 0.789802 -3.89881 0
M  V30 7773 H 706.679 -0.661775 -6.52151 0
M  V30 7774 H 706.199 0.942979 -5.92341 0
M  V30 7775 H 707.878 0.645088 -6.43776 0
M  V30 7776 N 708.01 1.57248 0.105221 0
M  V30 7777 C 709.256 1.85845 0.811753 0
M  V30 7778 C 709.589 0.756219 1.78871 0
M  V30 7779 O 708.864 -0.236736 1.93054 0
M  V30 7780 C 709.147 3.25059 1.54947 0
M  V30 7781 C 709 4.45898 0.591185 0
M  V30 7782 C 710.319 3.6203 2.50245 0
M  V30 7783 H 707.438 0.675973 0.293649 0
M  V30 7784 H 710.08 1.89849 0.0756269 0
M  V30 7785 H 708.23 3.21776 2.17698 0
M  V30 7786 H 709.902 4.61291 -0.0285352 0
M  V30 7787 H 708.145 4.33693 -0.0962343 0
M  V30 7788 H 708.816 5.40009 1.1443 0
M  V30 7789 H 711.292 3.66192 1.97593 0
M  V30 7790 H 710.168 4.60389 2.98886 0
M  V30 7791 H 710.429 2.90176 3.33542 0
M  V30 7792 N 709.488 -0.375779 1.53054 0
M  V30 7793 C 710.904 -0.716764 1.426 0
M  V30 7794 C 711.104 -1.93651 0.556931 0
M  V30 7795 O 710.16 -2.52475 0.0354461 0
M  V30 7796 C 711.473 -0.939499 2.85646 0
M  V30 7797 C 713.021 -1.04015 2.95212 0
M  V30 7798 C 713.496 -1.29543 4.39298 0
M  V30 7799 N 714.987 -1.36335 4.42682 0
M  V30 7800 C 715.722 -1.57778 5.51266 0
M  V30 7801 N 715.218 -1.76604 6.69913 0
M  V30 7802 N 717.011 -1.60065 5.38828 0
M  V30 7803 H 709.162 0.42664 2.08071 0
M  V30 7804 H 711.425 0.128758 0.939215 0
M  V30 7805 H 711.131 -0.115189 3.51511 0
M  V30 7806 H 711.005 -1.85048 3.2869 0
M  V30 7807 H 713.392 -1.85501 2.29507 0
M  V30 7808 H 713.473 -0.106785 2.55577 0
M  V30 7809 H 713.117 -0.485611 5.05573 0
M  V30 7810 H 713.047 -2.24184 4.76497 0
M  V30 7811 H 715.538 -1.23441 3.5717 0
M  V30 7812 H 715.851 -1.9251 7.48438 0
M  V30 7813 H 714.196 -1.73802 6.72917 0
M  V30 7814 H 717.387 -1.44917 4.45103 0
M  V30 7815 H 717.56 -1.76435 6.23518 0
M  V30 7816 N 710.966 -1.44241 -0.634997 0
M  V30 7817 C 711.913 -1.5081 -1.74714 0
M  V30 7818 C 712.883 -0.356147 -1.62237 0
M  V30 7819 O 714.068 -0.565848 -1.82216 0
M  V30 7820 C 711.208 -1.45458 -3.12947 0
M  V30 7821 C 710.321 -2.70998 -3.36428 0
M  V30 7822 C 709.456 -2.57507 -4.64611 0
M  V30 7823 C 708.495 -3.78229 -4.81258 0
M  V30 7824 N 707.632 -3.63438 -6.00714 0
M  V30 7825 H 712.472 -2.45832 -1.68436 0
M  V30 7826 H 710.009 -1.2201 -0.821706 0
M  V30 7827 H 711.967 -1.40347 -3.92885 0
M  V30 7828 H 710.597 -0.540058 -3.1825 0
M  V30 7829 H 709.649 -2.86312 -2.50458 0
M  V30 7830 H 710.961 -3.60619 -3.44609 0
M  V30 7831 H 710.115 -2.50207 -5.52703 0
M  V30 7832 H 708.854 -1.65441 -4.58782 0
M  V30 7833 H 707.859 -3.85918 -3.91596 0
M  V30 7834 H 709.084 -4.71327 -4.88904 0
M  V30 7835 H 707.03 -2.7412 -5.95982 0
M  V30 7836 H 706.947 -4.46672 -6.09934 0
M  V30 7837 H 708.215 -3.60022 -6.91378 0
M  V30 7838 N 712.444 0.87505 -1.31075 0
M  V30 7839 C 713.674 1.65818 -1.2324 0
M  V30 7840 C 714.082 1.8808 0.205536 0
M  V30 7841 O 713.425 1.43548 1.14628 0
M  V30 7842 C 713.487 3.05131 -1.90093 0
M  V30 7843 C 713.151 3.05999 -3.39432 0
M  V30 7844 C 714.148 2.84328 -4.35263 0
M  V30 7845 C 711.833 3.27281 -3.81041 0
M  V30 7846 C 713.827 2.83912 -5.70678 0
M  V30 7847 C 711.514 3.26493 -5.16571 0
M  V30 7848 C 712.512 3.04834 -6.112 0
M  V30 7849 O 712.2 3.03882 -7.44252 0
M  V30 7850 H 711.932 0.52387 -0.427242 0
M  V30 7851 H 714.486 1.10086 -1.73408 0
M  V30 7852 H 712.716 3.62568 -1.34468 0
M  V30 7853 H 714.405 3.65641 -1.76242 0
M  V30 7854 H 715.171 2.67673 -4.04445 0
M  V30 7855 H 711.05 3.43171 -3.07822 0
M  V30 7856 H 714.594 2.66925 -6.44513 0
M  V30 7857 H 710.491 3.42687 -5.47025 0
M  V30 7858 H 711.259 3.19979 -7.53363 0
M  V30 7859 N 713.922 1.13953 1.08869 0
M  V30 7860 C 715.199 0.815768 1.77777 0
M  V30 7861 C 715.579 -0.691624 1.99449 0
M  V30 7862 O 714.927 -1.63085 1.60049 0
M  V30 7863 C 715.137 1.60916 3.09689 0
M  V30 7864 C 716.485 1.80549 3.84301 0
M  V30 7865 O 717.509 1.57562 3.19457 0
M  V30 7866 O 716.368 2.18946 5.00724 0
M  V30 7867 H 713.462 0.298445 0.771271 0
M  V30 7868 H 716.008 1.24446 1.15374 0
M  V30 7869 H 714.78 2.6333 2.89435 0
M  V30 7870 H 714.403 1.17578 3.79817 0
M  V30 7871 N 715.4 -1.26948 0.933913 0
M  V30 7872 C 716.649 -1.93378 0.573409 0
M  V30 7873 C 716.962 -1.74148 -0.890614 0
M  V30 7874 O 718.168 -2.34971 -1.36017 0
M  V30 7875 C 716.624 -3.46449 0.974747 0
M  V30 7876 C 716.232 -3.74425 2.45988 0
M  V30 7877 C 717.976 -4.18924 0.685791 0
M  V30 7878 C 715.883 -5.209 2.8003 0
M  V30 7879 H 714.813 -0.723952 0.210736 0
M  V30 7880 H 717.464 -1.44143 1.13557 0
M  V30 7881 H 715.846 -3.94528 0.341181 0
M  V30 7882 H 717.02 -3.37079 3.14188 0
M  V30 7883 H 715.335 -3.15167 2.72138 0
M  V30 7884 H 717.932 -5.26786 0.916546 0
M  V30 7885 H 718.275 -4.14587 -0.377217 0
M  V30 7886 H 718.808 -3.76687 1.27874 0
M  V30 7887 H 715.547 -5.30332 3.85264 0
M  V30 7888 H 715.067 -5.59369 2.16485 0
M  V30 7889 H 716.746 -5.88837 2.68105 0
M  V30 7890 N 716.879 -0.700114 -1.41195 0
M  V30 7891 C 717.811 0.00155823 -2.292 0
M  V30 7892 C 718.824 0.739736 -1.45023 0
M  V30 7893 O 720.013 0.589684 -1.68478 0
M  V30 7894 C 717.113 1.02635 -3.22985 0
M  V30 7895 C 716.286 0.356871 -4.35942 0
M  V30 7896 C 715.345 1.28491 -5.10271 0
M  V30 7897 O 714.371 0.775562 -5.63892 0
M  V30 7898 N 715.573 2.61699 -5.18164 0
M  V30 7899 H 718.338 -0.754008 -2.9006 0
M  V30 7900 H 715.899 -0.546504 -1.52397 0
M  V30 7901 H 717.891 1.64902 -3.6958 0
M  V30 7902 H 716.461 1.68341 -2.63401 0
M  V30 7903 H 715.681 -0.445753 -3.91672 0
M  V30 7904 H 716.969 -0.108469 -5.08684 0
M  V30 7905 H 716.367 3.05594 -4.76056 0
M  V30 7906 H 714.924 3.19149 -5.6832 0
M  V30 7907 N 718.357 1.51182 -0.445186 0
M  V30 7908 C 719.32 2.26501 0.350722 0
M  V30 7909 C 720.32 1.3025 0.942952 0
M  V30 7910 O 721.51 1.53897 0.816175 0
M  V30 7911 C 718.642 3.06274 1.49697 0
M  V30 7912 H 719.835 2.98299 -0.309474 0
M  V30 7913 H 717.388 1.55034 -0.198551 0
M  V30 7914 H 718.123 2.38911 2.19299 0
M  V30 7915 H 717.908 3.76979 1.0784 0
M  V30 7916 H 719.398 3.63306 2.05909 0
M  V30 7917 N 719.835 0.176821 1.56605 0
M  V30 7918 C 721.063 -0.472828 2.01425 0
M  V30 7919 C 721.478 -1.56436 1.05703 0
M  V30 7920 O 720.835 -1.82405 0.058808 0
M  V30 7921 C 720.886 -1.04607 3.46034 0
M  V30 7922 O 720.607 0.00189608 4.381 0
M  V30 7923 C 722.108 -1.7734 4.06282 0
M  V30 7924 H 719.328 -0.120503 0.660091 0
M  V30 7925 H 721.872 0.280166 2.02572 0
M  V30 7926 H 720.027 -1.74953 3.45645 0
M  V30 7927 H 720.441 -0.422118 5.22799 0
M  V30 7928 H 721.915 -2.12703 5.09374 0
M  V30 7929 H 722.392 -2.67043 3.4869 0
M  V30 7930 H 722.998 -1.11623 4.10391 0
M  V30 7931 N 721.313 -1.57302 -0.09688 0
M  V30 7932 C 722.59 -1.7701 -0.832272 0
M  V30 7933 C 722.97 -0.758025 -1.97021 0
M  V30 7934 O 722.318 0.213824 -2.27497 0
M  V30 7935 C 722.528 -3.22725 -1.32851 0
M  V30 7936 C 723.876 -3.85856 -1.772 0
M  V30 7937 O 724.9 -3.26464 -1.42478 0
M  V30 7938 O 723.759 -4.90295 -2.41398 0
M  V30 7939 H 720.853 -0.725558 -0.396856 0
M  V30 7940 H 723.399 -1.69516 -0.0789005 0
M  V30 7941 H 722.171 -3.87921 -0.51312 0
M  V30 7942 H 721.794 -3.34845 -2.14394 0
M  V30 7943 N 722.791 0.367657 -1.53252 0
M  V30 7944 C 723.739 1.47061 -1.8021 0
M  V30 7945 C 724.733 1.55539 -0.671112 0
M  V30 7946 O 725.939 1.58451 -0.854014 0
M  V30 7947 H 722.314 0.489868 -0.570555 0
M  V30 7948 H 724.285 1.21527 -2.72532 0
M  V30 7949 C 723.034 2.83924 -2.00706 0
M  V30 7950 H 722.357 2.78158 -2.87172 0
M  V30 7951 H 723.797 3.60281 -2.23547 0
M  V30 7952 C 722.256 3.27613 -0.785568 0
M  V30 7953 O 722.786 4.01691 0.0267459 0
M  V30 7954 N 720.992 2.84134 -0.609597 0
M  V30 7955 H 720.539 2.24017 -1.27178 0
M  V30 7956 H 720.497 3.13723 0.206281 0
M  V30 7957 N 724.269 1.44576 0.627338 0
M  V30 7958 C 725.179 1.54232 1.76776 0
M  V30 7959 C 726.195 0.427782 1.6866 0
M  V30 7960 O 727.371 0.685671 1.89369 0
M  V30 7961 C 724.436 1.48738 3.13174 0
M  V30 7962 C 723.497 2.71074 3.32893 0
M  V30 7963 C 722.73 2.65832 4.62784 0
M  V30 7964 O 722.953 1.72048 5.43834 0
M  V30 7965 O 721.887 3.56742 4.84787 0
M  V30 7966 H 725.713 2.50586 1.71582 0
M  V30 7967 H 723.298 1.26865 0.789028 0
M  V30 7968 H 725.18 1.48211 3.94476 0
M  V30 7969 H 723.855 0.555292 3.18902 0
M  V30 7970 H 722.762 2.77168 2.51254 0
M  V30 7971 H 724.095 3.63342 3.32029 0
M  V30 7972 N 725.747 -0.868086 1.31537 0
M  V30 7973 C 727.158 -1.437 1.19195 0
M  V30 7974 C 727.509 -1.95169 -0.200842 0
M  V30 7975 O 726.634 -1.86432 -1.09872 0
M  V30 7976 C 727.229 -2.612 2.15778 0
M  V30 7977 C 725.788 -3.1413 2.07363 0
M  V30 7978 C 724.935 -1.86845 2.049 0
M  V30 7979 H 727.886 -0.676457 1.43561 0
M  V30 7980 H 727.907 -3.37948 1.74847 0
M  V30 7981 H 727.419 -2.23709 3.17137 0
M  V30 7982 H 725.52 -3.56238 1.09204 0
M  V30 7983 H 725.633 -3.76285 2.96557 0
M  V30 7984 H 723.997 -2.05886 1.49943 0
M  V30 7985 H 724.78 -1.51589 3.08019 0
M  V30 7986 N 727.225 -1.14528 -1.08264 0
M  V30 7987 C 728.471 -0.91576 -1.80947 0
M  V30 7988 C 728.804 0.55623 -1.86064 0
M  V30 7989 O 728.079 1.41207 -1.33756 0
M  V30 7990 C 728.362 -1.51917 -3.26486 0
M  V30 7991 C 728.215 -3.06111 -3.2957 0
M  V30 7992 C 729.534 -1.19724 -4.23502 0
M  V30 7993 H 726.653 -0.334113 -0.656915 0
M  V30 7994 H 729.295 -1.41547 -1.26746 0
M  V30 7995 H 727.445 -1.0942 -3.72773 0
M  V30 7996 H 729.117 -3.57448 -2.91597 0
M  V30 7997 H 727.36 -3.40483 -2.688 0
M  V30 7998 H 728.031 -3.43438 -4.32151 0
M  V30 7999 H 730.507 -1.56467 -3.85561 0
M  V30 8000 H 729.383 -1.64575 -5.23647 0
M  V30 8001 H 729.644 -0.112771 -4.41956 0
M  V30 8002 N 728.703 1.26451 -0.940633 0
M  V30 8003 C 729.613 2.30128 -0.455881 0
M  V30 8004 C 730.629 1.67536 0.469867 0
M  V30 8005 O 731.805 1.98344 0.349529 0
M  V30 8006 C 728.87 3.45634 0.271648 0
M  V30 8007 C 727.931 4.23709 -0.690594 0
M  V30 8008 C 727.164 5.337 0.00231047 0
M  V30 8009 O 727.387 5.57215 1.21935 0
M  V30 8010 O 726.321 5.98091 -0.676111 0
M  V30 8011 H 730.147 2.73655 -1.31707 0
M  V30 8012 H 727.732 1.3164 -0.706497 0
M  V30 8013 H 729.614 4.15853 0.681486 0
M  V30 8014 H 728.289 3.04138 1.10824 0
M  V30 8015 H 727.196 3.55974 -1.15037 0
M  V30 8016 H 728.529 4.68953 -1.49478 0
M  V30 8017 N 730.181 0.707592 1.40822 0
M  V30 8018 C 731.114 -0.000859377 2.282 0
M  V30 8019 C 732.092 -0.7758 1.42899 0
M  V30 8020 O 733.276 -0.76411 1.72318 0
M  V30 8021 C 730.403 -1.00861 3.23334 0
M  V30 8022 C 729.449 -0.32543 4.25257 0
M  V30 8023 S 730.282 0.940908 5.27169 0
M  V30 8024 C 731.438 -0.0649459 6.25866 0
M  V30 8025 H 731.671 0.740207 2.87938 0
M  V30 8026 H 729.204 0.498311 1.46138 0
M  V30 8027 H 731.162 -1.58485 3.78672 0
M  V30 8028 H 729.823 -1.72233 2.62668 0
M  V30 8029 H 729.016 -1.08697 4.92139 0
M  V30 8030 H 728.618 0.178044 3.73576 0
M  V30 8031 H 730.91 -0.914377 6.71301 0
M  V30 8032 H 731.853 0.570276 7.058 0
M  V30 8033 H 732.261 -0.425098 5.62897 0
M  V30 8034 N 731.66 -1.50943 0.453197 0
M  V30 8035 C 732.59 -2.31005 -0.34044 0
M  V30 8036 C 733.571 -1.37112 -1.00669 0
M  V30 8037 O 734.756 -1.66033 -1.0073 0
M  V30 8038 C 731.886 -3.16358 -1.433 0
M  V30 8039 C 730.84 -4.18658 -0.889363 0
M  V30 8040 C 730.166 -4.92633 -2.07887 0
M  V30 8041 C 731.466 -5.22227 0.0871142 0
M  V30 8042 H 733.16 -2.97601 0.327723 0
M  V30 8043 H 730.706 -1.43119 0.159054 0
M  V30 8044 H 732.659 -3.71155 -1.99555 0
M  V30 8045 H 731.383 -2.47613 -2.12968 0
M  V30 8046 H 730.042 -3.64936 -0.348915 0
M  V30 8047 H 729.69 -4.20376 -2.76211 0
M  V30 8048 H 729.39 -5.61819 -1.72143 0
M  V30 8049 H 730.914 -5.50258 -2.64666 0
M  V30 8050 H 732.328 -5.72001 -0.385656 0
M  V30 8051 H 730.725 -5.99032 0.357926 0
M  V30 8052 H 731.795 -4.74077 1.01879 0
M  V30 8053 N 733.138 -0.185124 -1.56509 0
M  V30 8054 C 734.088 0.752315 -2.15231 0
M  V30 8055 C 735.072 1.18327 -1.0903 0
M  V30 8056 O 736.264 1.14333 -1.35119 0
M  V30 8057 C 733.393 1.97583 -2.80742 0
M  V30 8058 C 732.479 1.56623 -3.94119 0
M  V30 8059 N 732.87 0.867008 -4.98314 0
M  V30 8060 C 731.168 1.85626 -4.05535 0
M  V30 8061 C 731.869 0.663228 -5.77907 0
M  V30 8062 N 730.845 1.20891 -5.29987 0
M  V30 8063 H 734.647 0.209267 -2.93154 0
M  V30 8064 H 732.161 0.0150444 -1.62393 0
M  V30 8065 H 734.158 2.65779 -3.21197 0
M  V30 8066 H 732.818 2.52369 -2.04303 0
M  V30 8067 H 733.829 0.52355 -5.15247 0
M  V30 8068 H 730.506 2.41992 -3.40215 0
M  V30 8069 H 731.896 0.109273 -6.71811 0
M  V30 8070 N 734.616 1.57351 0.0885366 0
M  V30 8071 C 735.841 1.91011 0.80805 0
M  V30 8072 C 736.266 0.780009 1.71165 0
M  V30 8073 O 735.624 -0.268083 1.79307 0
M  V30 8074 C 735.672 3.23562 1.59185 0
M  V30 8075 O 734.776 3.11615 2.7013 0
M  V30 8076 H 734.117 0.625943 0.221565 0
M  V30 8077 H 736.647 2.04507 0.0617954 0
M  V30 8078 H 736.657 3.5703 1.97468 0
M  V30 8079 H 735.332 4.05398 0.928741 0
M  V30 8080 H 733.909 2.89673 2.34827 0
M  V30 8081 N 736.094 -0.359525 1.53444 0
M  V30 8082 C 737.342 -1.09935 1.69584 0
M  V30 8083 C 737.663 -1.89656 0.453371 0
M  V30 8084 O 736.933 -1.8852 -0.53263 0
M  V30 8085 H 735.513 -0.408843 0.625185 0
M  V30 8086 H 738.175 -0.40467 1.90653 0
M  V30 8087 H 737.271 -1.78575 2.55964 0
M  V30 8088 N 737.572 -1.44907 -0.619662 0
M  V30 8089 C 738.8 -1.51795 -1.40591 0
M  V30 8090 C 739.215 -0.146553 -1.8823 0
M  V30 8091 O 738.572 0.849698 -1.61513 0
M  V30 8092 C 738.623 -2.49229 -2.61853 0
M  V30 8093 O 738.344 -3.81039 -2.16197 0
M  V30 8094 C 739.845 -2.65696 -3.54853 0
M  V30 8095 H 737.065 -0.514463 -0.430777 0
M  V30 8096 H 739.609 -1.8998 -0.756813 0
M  V30 8097 H 737.764 -2.14149 -3.2283 0
M  V30 8098 H 738.178 -4.33747 -2.94896 0
M  V30 8099 H 739.652 -3.37874 -4.36515 0
M  V30 8100 H 740.129 -1.71316 -4.0441 0
M  V30 8101 H 740.735 -3.01724 -2.99737 0
M  V30 8102 N 739.05 0.861098 -1.31996 0
M  V30 8103 C 739.98 1.98482 -1.22993 0
M  V30 8104 C 740.961 1.6971 -0.115168 0
M  V30 8105 O 742.146 1.91849 -0.30126 0
M  V30 8106 C 739.276 3.34179 -0.945615 0
M  V30 8107 C 738.23 3.77284 -2.02091 0
M  V30 8108 C 737.556 5.1054 -1.58912 0
M  V30 8109 C 738.856 3.93439 -3.43515 0
M  V30 8110 H 740.55 2.06271 -2.17008 0
M  V30 8111 H 738.096 0.991043 -1.04472 0
M  V30 8112 H 740.049 4.12338 -0.869206 0
M  V30 8113 H 738.773 3.26586 0.0301849 0
M  V30 8114 H 737.432 3.01371 -2.08737 0
M  V30 8115 H 737.08 4.99397 -0.600942 0
M  V30 8116 H 736.78 5.40352 -2.30854 0
M  V30 8117 H 738.304 5.91199 -1.52696 0
M  V30 8118 H 739.718 4.6197 -3.39495 0
M  V30 8119 H 738.115 4.34661 -4.13751 0
M  V30 8120 H 739.185 2.96548 -3.8365 0
M  V30 8121 N 740.528 1.15101 1.07655 0
M  V30 8122 C 741.774 0.925343 1.80458 0
M  V30 8123 C 742.107 -0.546354 1.86356 0
M  V30 8124 O 741.382 -1.40496 1.34503 0
M  V30 8125 C 741.665 1.53646 3.25676 0
M  V30 8126 C 741.518 3.07854 3.27942 0
M  V30 8127 C 742.837 1.21968 4.22861 0
M  V30 8128 H 739.956 0.337592 0.655134 0
M  V30 8129 H 742.598 1.42217 1.25993 0
M  V30 8130 H 740.748 1.11395 3.72187 0
M  V30 8131 H 742.42 3.58989 2.89697 0
M  V30 8132 H 740.663 3.41904 2.66991 0
M  V30 8133 H 741.334 3.45725 4.30324 0
M  V30 8134 H 743.81 1.5851 3.84726 0
M  V30 8135 H 742.686 1.67349 5.22767 0
M  V30 8136 H 742.947 0.136207 4.4189 0
M  V30 8137 N 742.006 -1.2595 0.947325 0
M  V30 8138 C 743.417 -1.75389 0.639963 0
M  V30 8139 C 743.768 -1.77081 -0.844788 0
M  V30 8140 O 742.893 -1.3869 -1.66114 0
M  V30 8141 C 743.488 -3.18506 1.15496 0
M  V30 8142 C 742.047 -3.65534 0.897894 0
M  V30 8143 C 741.194 -2.44818 1.30228 0
M  V30 8144 H 744.145 -1.1194 1.12495 0
M  V30 8145 H 744.166 -3.77045 0.511627 0
M  V30 8146 H 743.678 -3.17243 2.23559 0
M  V30 8147 H 741.779 -3.72221 -0.168096 0
M  V30 8148 H 741.892 -4.54039 1.52922 0
M  V30 8149 H 740.256 -2.44291 0.720678 0
M  V30 8150 H 741.039 -2.46251 2.39198 0
M  V30 8151 N 743.484 -0.715051 -1.40445 0
M  V30 8152 C 744.709 -0.26254 -2.05732 0
M  V30 8153 C 745.134 1.08691 -1.53519 0
M  V30 8154 O 744.492 1.68453 -0.670328 0
M  V30 8155 C 744.54 -0.25195 -3.59719 0
M  V30 8156 O 743.644 0.766998 -4.05205 0
M  V30 8157 H 742.985 -0.123398 -0.652433 0
M  V30 8158 H 745.515 -0.975382 -1.79854 0
M  V30 8159 H 745.525 -0.0894537 -4.07902 0
M  V30 8160 H 744.2 -1.23672 -3.97087 0
M  V30 8161 H 742.777 0.572269 -3.68483 0
M  V30 8162 N 744.962 1.50701 -0.461195 0
M  V30 8163 C 746.378 1.59187 -0.114786 0
M  V30 8164 C 746.578 1.4702 1.37794 0
M  V30 8165 O 745.634 1.32361 2.15027 0
M  V30 8166 C 746.947 2.93453 -0.656167 0
M  V30 8167 C 748.495 3.06824 -0.618715 0
M  V30 8168 C 748.97 4.4365 -1.13747 0
M  V30 8169 N 750.461 4.50035 -1.09646 0
M  V30 8170 C 751.196 5.54278 -1.46846 0
M  V30 8171 N 750.692 6.65822 -1.91448 0
M  V30 8172 N 752.485 5.44767 -1.38512 0
M  V30 8173 H 744.636 1.56853 -1.43216 0
M  V30 8174 H 746.899 0.740712 -0.59165 0
M  V30 8175 H 746.605 3.07802 -1.7015 0
M  V30 8176 H 746.479 3.77082 -0.0942261 0
M  V30 8177 H 748.866 2.92129 0.417685 0
M  V30 8178 H 748.947 2.24976 -1.21734 0
M  V30 8179 H 748.591 4.59093 -2.17245 0
M  V30 8180 H 748.521 5.24074 -0.515153 0
M  V30 8181 H 751.012 3.69988 -0.769217 0
M  V30 8182 H 751.325 7.41413 -2.18007 0
M  V30 8183 H 749.67 6.66968 -1.95393 0
M  V30 8184 H 752.861 4.56511 -1.03516 0
M  V30 8185 H 753.034 6.25889 -1.6783 0
M  V30 8186 N 746.441 0.193421 1.56409 0
M  V30 8187 C 747.351 -0.740112 2.2262 0
M  V30 8188 C 748.367 -1.23597 1.22474 0
M  V30 8189 O 749.543 -1.28348 1.55206 0
M  V30 8190 C 746.608 -1.94317 2.87127 0
M  V30 8191 C 745.669 -1.49205 4.02538 0
M  V30 8192 C 744.902 -2.63776 4.63959 0
M  V30 8193 O 745.125 -3.81215 4.24301 0
M  V30 8194 O 744.059 -2.36585 5.53454 0
M  V30 8195 H 747.885 -0.206238 3.02999 0
M  V30 8196 H 745.47 -0.0357938 1.49357 0
M  V30 8197 H 747.352 -2.64633 3.27944 0
M  V30 8198 H 746.027 -2.46568 2.09728 0
M  V30 8199 H 744.934 -0.757738 3.66346 0
M  V30 8200 H 746.267 -1.01622 4.81595 0
M  V30 8201 N 747.919 -1.57396 -0.0801906 0
M  V30 8202 C 748.849 -2.06145 -1.09665 0
M  V30 8203 C 749.83 -0.953273 -1.40878 0
M  V30 8204 O 751.015 -1.22548 -1.50651 0
M  V30 8205 C 748.145 -2.49836 -2.41245 0
M  V30 8206 C 747.099 -3.64454 -2.24405 0
M  V30 8207 C 746.425 -3.94172 -3.61293 0
M  V30 8208 C 747.725 -4.94807 -1.67223 0
M  V30 8209 H 749.419 -2.91316 -0.691028 0
M  V30 8210 H 746.965 -1.40145 -0.330957 0
M  V30 8211 H 748.918 -2.82552 -3.12638 0
M  V30 8212 H 747.642 -1.61683 -2.83771 0
M  V30 8213 H 746.301 -3.32008 -1.55454 0
M  V30 8214 H 745.949 -3.03163 -4.01374 0
M  V30 8215 H 745.649 -4.71345 -3.50867 0
M  V30 8216 H 747.173 -4.29376 -4.3413 0
M  V30 8217 H 748.587 -5.25807 -2.28472 0
M  V30 8218 H 746.984 -5.76245 -1.67515 0
M  V30 8219 H 748.054 -4.80751 -0.632944 0
M  V30 8220 N 749.397 0.351382 -1.53633 0
M  V30 8221 C 750.808 0.927429 -1.62036 0
M  V30 8222 C 751.159 1.89809 -0.496706 0
M  V30 8223 O 750.284 2.1313 0.374749 0
M  V30 8224 C 750.879 1.68886 -2.93706 0
M  V30 8225 C 749.438 2.21404 -3.04397 0
M  V30 8226 C 748.585 1.03075 -2.57431 0
M  V30 8227 H 751.536 0.129748 -1.58169 0
M  V30 8228 H 751.557 2.55116 -2.82305 0
M  V30 8229 H 751.069 0.982149 -3.75467 0
M  V30 8230 H 749.17 2.95274 -2.27253 0
M  V30 8231 H 749.283 2.48312 -4.09729 0
M  V30 8232 H 747.647 1.40188 -2.12649 0
M  V30 8233 H 748.43 0.338793 -3.41624 0
M  V30 8234 N 750.875 1.45233 0.611969 0
M  V30 8235 C 752.124 1.48296 1.36716 0
M  V30 8236 C 752.437 0.12706 1.95187 0
M  V30 8237 O 753.643 0.0353066 2.71477 0
M  V30 8238 C 752.099 2.61168 2.47627 0
M  V30 8239 C 751.707 4.03051 1.95587 0
M  V30 8240 C 753.451 2.73472 3.24674 0
M  V30 8241 C 751.358 5.07312 3.03954 0
M  V30 8242 H 750.288 0.5518 0.513841 0
M  V30 8243 H 752.939 1.7136 0.656359 0
M  V30 8244 H 751.321 2.31379 3.21372 0
M  V30 8245 H 752.495 4.42497 1.2858 0
M  V30 8246 H 750.81 3.95158 1.31298 0
M  V30 8247 H 753.407 3.48537 4.05494 0
M  V30 8248 H 753.75 1.79953 3.75397 0
M  V30 8249 H 754.283 3.02765 2.58028 0
M  V30 8250 H 751.022 6.02525 2.58154 0
M  V30 8251 H 750.542 4.7244 3.69541 0
M  V30 8252 H 752.221 5.31867 3.6841 0
M  V30 8253 N 752.353 -0.854086 1.3245 0
M  V30 8254 C 753.316 -1.94427 1.21371 0
M  V30 8255 C 754.316 -1.60219 0.136613 0
M  V30 8256 O 755.506 -1.69846 0.387057 0
M  V30 8257 C 752.638 -3.29698 0.866701 0
M  V30 8258 H 753.831 -2.05679 2.18257 0
M  V30 8259 H 751.384 -1.04434 1.1629 0
M  V30 8260 H 752.119 -3.24145 -0.100319 0
M  V30 8261 H 751.904 -3.55903 1.64545 0
M  V30 8262 H 753.394 -4.09599 0.813515 0
M  V30 8263 N 753.831 -1.1567 -1.07043 0
M  V30 8264 C 755.078 -0.933517 -1.79699 0
M  V30 8265 C 755.406 0.539162 -1.86878 0
M  V30 8266 O 754.661 1.41592 -1.35093 0
M  V30 8267 C 754.96 -1.49677 -3.24548 0
M  V30 8268 C 754.626 -2.99047 -3.37463 0
M  V30 8269 C 753.288 -3.39824 -3.40695 0
M  V30 8270 C 755.64 -3.95027 -3.40004 0
M  V30 8271 C 752.968 -4.75215 -3.44075 0
M  V30 8272 C 755.32 -5.30295 -3.44921 0
M  V30 8273 C 753.984 -5.70562 -3.46432 0
M  V30 8274 H 753.254 -0.341598 -0.657565 0
M  V30 8275 H 755.901 -1.44263 -1.25938 0
M  V30 8276 H 754.206 -0.908915 -3.81111 0
M  V30 8277 H 755.903 -1.29986 -3.79348 0
M  V30 8278 H 752.493 -2.6653 -3.35648 0
M  V30 8279 H 756.677 -3.64596 -3.36725 0
M  V30 8280 H 751.933 -5.05754 -3.43545 0
M  V30 8281 H 756.107 -6.0446 -3.45833 0
M  V30 8282 H 753.734 -6.75456 -3.48803 0
M  V30 8283 N 755.309 1.25446 -0.953992 0
M  V30 8284 C 756.549 1.94894 -0.616087 0
M  V30 8285 C 756.913 1.73067 0.831374 0
M  V30 8286 O 758.114 2.3643 1.27884 0
M  V30 8287 C 756.385 3.44147 -0.964225 0
M  V30 8288 S 757.944 4.32536 -0.738798 0
M  V30 8289 H 754.762 0.673967 -0.226472 0
M  V30 8290 H 757.364 1.52117 -1.22803 0
M  V30 8291 H 756.068 3.57537 -2.01484 0
M  V30 8292 H 755.599 3.91906 -0.342507 0
M  V30 8293 H 757.614 4.94659 0.390732 0
M  V30 8294 N 756.787 0.722489 1.40064 0
M  V30 8295 C 757.719 0.0349057 2.29173 0
M  V30 8296 C 758.732 -0.716571 1.46182 0
M  V30 8297 O 759.921 -0.562806 1.69395 0
M  V30 8298 C 757.021 -0.974839 3.24577 0
M  V30 8299 C 756.194 -0.287471 4.36454 0
M  V30 8300 C 755.253 -1.20356 5.12251 0
M  V30 8301 O 754.279 -0.685753 5.65054 0
M  V30 8302 N 755.481 -2.53422 5.22262 0
M  V30 8303 H 758.246 0.800058 2.88824 0
M  V30 8304 H 755.807 0.57068 1.51509 0
M  V30 8305 H 757.799 -1.59002 3.72157 0
M  V30 8306 H 756.369 -1.6413 2.66046 0
M  V30 8307 H 755.589 0.508008 3.90913 0
M  V30 8308 H 756.877 0.189382 5.08447 0
M  V30 8309 H 756.275 -2.97981 4.80857 0
M  V30 8310 H 754.832 -3.10067 5.73325 0
M  V30 8311 N 758.265 -1.50454 0.469181 0
M  V30 8312 C 759.681 -1.59124 0.123226 0
M  V30 8313 C 759.881 -1.47749 -1.37013 0
M  V30 8314 O 758.937 -1.335 -2.14322 0
M  V30 8315 C 760.25 -2.93101 0.67172 0
M  V30 8316 C 761.798 -3.06491 0.634978 0
M  V30 8317 C 762.273 -4.43041 1.16098 0
M  V30 8318 N 763.764 -4.49448 1.12031 0
M  V30 8319 C 764.499 -5.53491 1.49784 0
M  V30 8320 N 763.995 -6.64798 1.94976 0
M  V30 8321 N 765.788 -5.44025 1.41399 0
M  V30 8322 H 757.939 -1.56091 1.44046 0
M  V30 8323 H 760.202 -0.737564 0.59557 0
M  V30 8324 H 759.908 -3.06895 1.7178 0
M  V30 8325 H 759.782 -3.77027 0.114222 0
M  V30 8326 H 762.169 -2.92346 -0.402187 0
M  V30 8327 H 762.25 -2.24328 1.22926 0
M  V30 8328 H 761.894 -4.57935 2.19677 0
M  V30 8329 H 761.824 -5.23794 0.542939 0
M  V30 8330 H 764.315 -3.69575 0.788828 0
M  V30 8331 H 764.628 -7.40246 2.21936 0
M  V30 8332 H 762.973 -6.65923 1.98927 0
M  V30 8333 H 766.164 -4.55955 1.05935 0
M  V30 8334 H 766.337 -6.2499 1.71147 0
M  V30 8335 O 759.782 -0.343108 -1.57813 0
M  V30 8336 H 760.473 0.212482 -1.92531 0
M  V30 END ATOM
M  V30 BEGIN BOND
M  V30 END BOND
M  V30 END CTAB
M  END
$$$$
