drugbank_target|Q07912 Activated CDC42 kinase 1 (DB00171; DB04367; DB11986; DB12010)
 OpenBabel12092119393D

  0  0  0     0  0            999 V3000
M  V30 BEGIN CTAB
M  V30 COUNTS 16038 16285 0 0 0
M  V30 BEGIN ATOM
M  V30 1 H -0.908 1.98254 -0.117106 0
M  V30 2 N 0 1.576 0 0
M  V30 3 C 0.933 2.03868 1.02534 0
M  V30 4 C 1.911 0.928543 1.3348 0
M  V30 5 O 3.095 1.19667 1.45644 0
M  V30 6 C 0.222 2.43627 2.35294 0
M  V30 7 C -0.732 3.65373 2.2001 0
M  V30 8 S 0.101 5.13292 1.52614 0
M  V30 9 C 1.257 5.56322 2.86805 0
M  V30 10 H 1.49 2.90518 0.631377 0
M  V30 11 H -0.977 1.52953 0.210867 0
M  V30 12 H 0.981 2.67203 3.11629 0
M  V30 13 H -0.358 1.57376 2.7183 0
M  V30 14 H -1.165 3.90944 3.18086 0
M  V30 15 H -1.563 3.418 1.51819 0
M  V30 16 H 0.729 5.58782 3.83104 0
M  V30 17 H 1.672 6.56266 2.65933 0
M  V30 18 H 2.08 4.83886 2.90714 0
M  V30 19 N 1.4781 -0.272755 1.55222 0
M  V30 20 C 2.4101 -1.35946 1.8453 0
M  V30 21 C 3.4231 -1.45525 0.729818 0
M  V30 22 O 4.6121 -1.47337 1.00767 0
M  V30 23 C 1.7121 -2.74069 1.99347 0
M  V30 24 C 0.8851 -2.87079 3.30007 0
M  V30 25 C -0.0559 -4.05879 3.34886 0
M  V30 26 O -1.0299 -3.96626 4.08261 0
M  V30 27 N 0.1721 -5.17857 2.62307 0
M  V30 28 H 2.9371 -1.11149 2.78327 0
M  V30 29 H 0.4981 -0.462869 1.55142 0
M  V30 30 H 2.4901 -3.51838 1.99981 0
M  V30 31 H 1.0601 -2.91688 1.12415 0
M  V30 32 H 0.2801 -1.96193 3.41909 0
M  V30 33 H 1.5681 -2.92701 4.16177 0
M  V30 34 H 0.9661 -5.28261 2.02377 0
M  V30 35 H -0.4769 -5.93855 2.68663 0
M  V30 36 N 2.9562 -1.48159 -0.537278 0
M  V30 37 C 4.3672 -1.49429 -1.11928 0
M  V30 38 C 4.7182 -0.26 -1.9447 0
M  V30 39 O 3.8432 0.633489 -2.0692 0
M  V30 40 C 4.4382 -2.70758 -2.03656 0
M  V30 41 C 2.9972 -2.74923 -2.57088 0
M  V30 42 C 2.1442 -2.42835 -1.3389 0
M  V30 43 H 5.0952 -1.55381 -0.322886 0
M  V30 44 H 5.1162 -2.48861 -2.87834 0
M  V30 45 H 4.6282 -3.60575 -1.43553 0
M  V30 46 H 2.7292 -1.89296 -3.20933 0
M  V30 47 H 2.8422 -3.76157 -2.9672 0
M  V30 48 H 1.2062 -1.93836 -1.65226 0
M  V30 49 H 1.9892 -3.34884 -0.755504 0
M  V30 50 N 4.4343 0.785586 -1.36625 0
M  V30 51 C 5.3443 1.92964 -1.33425 0
M  V30 52 C 6.3603 1.72394 -0.235851 0
M  V30 53 O 7.5363 1.95866 -0.468878 0
M  V30 54 C 4.6013 3.27884 -1.12662 0
M  V30 55 C 3.6623 3.61204 -2.32013 0
M  V30 56 C 2.8953 4.89687 -2.12231 0
M  V30 57 O 3.1183 5.59704 -1.09945 0
M  V30 58 O 2.0523 5.21752 -3.00098 0
M  V30 59 H 5.8783 1.98613 -2.29753 0
M  V30 60 H 3.4633 0.926384 -1.17211 0
M  V30 61 H 5.3453 4.08614 -1.03016 0
M  V30 62 H 4.0203 3.23118 -0.193991 0
M  V30 63 H 2.9273 2.80765 -2.47228 0
M  V30 64 H 4.2603 3.70698 -3.23796 0
M  V30 65 N 5.9124 1.20967 1.01018 0
M  V30 66 C 6.8224 0.980157 2.13143 0
M  V30 67 C 7.8384 -0.0660665 1.73875 0
M  V30 68 O 9.0144 0.122821 2.01025 0
M  V30 69 C 6.0794 0.54216 3.42435 0
M  V30 70 C 5.1404 1.65999 3.95908 0
M  V30 71 C 4.3734 1.2428 5.19028 0
M  V30 72 O 4.5964 0.114196 5.70286 0
M  V30 73 O 3.5304 2.05271 5.65816 0
M  V30 74 H 7.3564 1.91913 2.35379 0
M  V30 75 H 4.9414 0.994099 1.11526 0
M  V30 76 H 6.8234 0.30744 4.20277 0
M  V30 77 H 5.4984 -0.36815 3.216 0
M  V30 78 H 4.4054 1.94906 3.19316 0
M  V30 79 H 5.7384 2.54753 4.21143 0
M  V30 80 N 7.3905 -1.2043 1.01659 0
M  V30 81 C 8.6385 -1.89423 0.704522 0
M  V30 82 C 8.9595 -1.79231 -0.768197 0
M  V30 83 O 8.2295 -1.1947 -1.55254 0
M  V30 84 H 6.8095 -0.701178 0.257602 0
M  V30 85 H 9.4715 -1.4626 1.28818 0
M  V30 86 H 8.5675 -2.96052 0.987916 0
M  V30 87 N 8.8686 -0.792821 -1.36206 0
M  V30 88 C 10.0966 -0.378825 -2.03402 0
M  V30 89 C 10.5116 1.00586 -1.59774 0
M  V30 90 O 9.8686 1.64574 -0.788764 0
M  V30 91 C 9.9196 -0.43683 -3.58851 0
M  V30 92 O 9.6406 -1.76691 -4.00889 0
M  V30 93 C 11.1416 -0.0138943 -4.43298 0
M  V30 94 H 8.3616 -0.155673 -0.652692 0
M  V30 95 H 10.9056 -1.07261 -1.74113 0
M  V30 96 H 9.0606 0.208575 -3.86838 0
M  V30 97 H 9.4746 -1.72011 -4.95492 0
M  V30 98 H 10.9486 -0.105615 -5.51899 0
M  V30 99 H 11.4256 1.03915 -4.2673 0
M  V30 100 H 12.0316 -0.63192 -4.20579 0
M  V30 101 N 10.3467 1.47872 -0.545128 0
M  V30 102 C 11.5947 2.02093 -0.016553 0
M  V30 103 C 11.9157 1.42305 1.3332 0
M  V30 104 O 11.1857 0.593853 1.86682 0
M  V30 105 H 9.7657 0.746993 -0.00313038 0
M  V30 106 H 12.4277 1.81414 -0.712397 0
M  V30 107 H 11.5237 3.11996 0.0805422 0
M  V30 108 N 11.8248 0.280983 1.55075 0
M  V30 109 C 13.0708 -0.327573 2.00745 0
M  V30 110 C 13.4258 -1.53045 1.16598 0
M  V30 111 O 12.7188 -1.90221 0.229451 0
M  V30 112 C 12.9128 -0.754656 3.49342 0
M  V30 113 C 12.7418 0.40529 4.4787 0
M  V30 114 C 11.5118 0.890947 4.97383 0
M  V30 115 C 13.7098 1.24371 4.99035 0
M  V30 116 N 11.6918 2.01975 5.79724 0
M  V30 117 C 13.0628 2.22031 5.7888 0
M  V30 118 C 15.1178 1.27638 4.81262 0
M  V30 119 C 13.8208 3.22709 6.42846 0
M  V30 120 C 15.8468 2.27164 5.46031 0
M  V30 121 C 15.2088 3.23556 6.25692 0
M  V30 122 H 11.3078 -0.0848774 0.77738 0
M  V30 123 H 13.8918 0.406342 1.90413 0
M  V30 124 H 12.0628 -1.45778 3.60005 0
M  V30 125 H 13.7948 -1.34105 3.81835 0
M  V30 126 H 10.5498 0.469262 4.71269 0
M  V30 127 H 10.9738 2.58794 6.25584 0
M  V30 128 H 15.6158 0.544936 4.19274 0
M  V30 129 H 13.3338 3.96784 7.0398 0
M  V30 130 H 16.9198 2.30441 5.34217 0
M  V30 131 H 15.7998 3.99309 6.74924 0
M  V30 132 N 13.3029 -1.57598 0.00835791 0
M  V30 133 C 14.2329 -2.1198 -0.979113 0
M  V30 134 C 15.2139 -1.03091 -1.35301 0
M  V30 135 O 16.3989 -1.30818 -1.43528 0
M  V30 136 C 13.5289 -2.62995 -2.26828 0
M  V30 137 C 12.4829 -3.76485 -2.03576 0
M  V30 138 C 11.8089 -4.13846 -3.38579 0
M  V30 139 C 13.1089 -5.0342 -1.39161 0
M  V30 140 H 14.8029 -2.94738 -0.526281 0
M  V30 141 H 12.3489 -1.41783 -0.251704 0
M  V30 142 H 14.3019 -2.99669 -2.96271 0
M  V30 143 H 13.0259 -1.7737 -2.7424 0
M  V30 144 H 11.6849 -3.40217 -1.36557 0
M  V30 145 H 11.3329 -3.25232 -3.83709 0
M  V30 146 H 11.0329 -4.90312 -3.23834 0
M  V30 147 H 12.5569 -4.53086 -4.09323 0
M  V30 148 H 13.9709 -5.37812 -1.98573 0
M  V30 149 H 12.3679 -5.84746 -1.34878 0
M  V30 150 H 13.4379 -4.83548 -0.361868 0
M  V30 151 N 14.781 0.264519 -1.55364 0
M  V30 152 C 15.711 1.33121 -1.91836 0
M  V30 153 C 16.692 1.51101 -0.781192 0
M  V30 154 O 17.877 1.64003 -1.04003 0
M  V30 155 C 15.007 2.68921 -2.19769 0
M  V30 156 C 13.961 2.65661 -3.35571 0
M  V30 157 C 13.287 4.05093 -3.49004 0
M  V30 158 C 14.587 2.24187 -4.71739 0
M  V30 159 H 16.281 1.02844 -2.81182 0
M  V30 160 H 13.827 0.493286 -1.35287 0
M  V30 161 H 15.78 3.43663 -2.43872 0
M  V30 162 H 14.504 3.00799 -1.27231 0
M  V30 163 H 13.163 1.93377 -3.1145 0
M  V30 164 H 12.811 4.34206 -2.53917 0
M  V30 165 H 12.511 4.03804 -4.26868 0
M  V30 166 H 14.035 4.81561 -3.75408 0
M  V30 167 H 15.449 2.88654 -4.9533 0
M  V30 168 H 13.846 2.34044 -5.52579 0
M  V30 169 H 14.916 1.19327 -4.69988 0
M  V30 170 N 16.2591 1.48442 0.529413 0
M  V30 171 C 17.1691 1.6569 1.66084 0
M  V30 172 C 18.1851 0.539432 1.65427 0
M  V30 173 O 19.3611 0.810572 1.84368 0
M  V30 174 C 16.4261 1.69315 3.02545 0
M  V30 175 C 15.4871 2.92694 3.14052 0
M  V30 176 C 14.7201 2.96137 4.44003 0
M  V30 177 O 14.9431 2.07973 5.31134 0
M  V30 178 O 13.8771 3.88312 4.59888 0
M  V30 179 H 17.7031 2.61483 1.54469 0
M  V30 180 H 15.2881 1.3185 0.702567 0
M  V30 181 H 17.1701 1.74217 3.83701 0
M  V30 182 H 15.8451 0.766966 3.14483 0
M  V30 183 H 14.7521 2.93324 2.32189 0
M  V30 184 H 16.0851 3.84699 3.0703 0
M  V30 185 N 17.7372 -0.778329 1.37039 0
M  V30 186 C 18.6672 -1.90546 1.34962 0
M  V30 187 C 19.6482 -1.68681 0.219274 0
M  V30 188 O 20.8332 -1.89634 0.418624 0
M  V30 189 C 17.9632 -3.27734 1.14925 0
M  V30 190 C 16.9172 -3.64147 2.24902 0
M  V30 191 C 16.2432 -4.99806 1.89996 0
M  V30 192 C 17.5432 -3.71579 3.67051 0
M  V30 193 H 19.2372 -1.92541 2.29277 0
M  V30 194 H 16.7832 -0.924948 1.10366 0
M  V30 195 H 18.7362 -4.06215 1.12104 0
M  V30 196 H 17.4602 -3.26154 0.170631 0
M  V30 197 H 16.1192 -2.8797 2.26868 0
M  V30 198 H 15.7672 -4.94759 0.906796 0
M  V30 199 H 15.4672 -5.25139 2.63634 0
M  V30 200 H 16.9912 -5.80694 1.88749 0
M  V30 201 H 18.4052 -4.40227 3.67251 0
M  V30 202 H 16.8022 -4.08405 4.39688 0
M  V30 203 H 17.8722 -2.72404 4.01154 0
M  V30 204 N 19.2153 -1.21501 -1.00376 0
M  V30 205 C 20.1453 -0.999478 -2.11028 0
M  V30 206 C 21.1263 0.0759671 -1.6993 0
M  V30 207 O 22.3113 -0.0841106 -1.94018 0
M  V30 208 C 19.4413 -0.564709 -3.42678 0
M  V30 209 C 18.3953 -1.58486 -3.97576 0
M  V30 210 C 17.7213 -1.00628 -5.25146 0
M  V30 211 C 19.0213 -2.97204 -4.29496 0
M  V30 212 H 20.7153 -1.92495 -2.29317 0
M  V30 213 H 18.2613 -0.92693 -1.102 0
M  V30 214 H 20.2143 -0.401091 -4.19487 0
M  V30 215 H 18.9383 0.396411 -3.24185 0
M  V30 216 H 17.5973 -1.73606 -3.22888 0
M  V30 217 H 17.2453 -0.0368439 -5.02987 0
M  V30 218 H 16.9453 -1.68771 -5.62841 0
M  V30 219 H 18.4693 -0.854015 -6.04598 0
M  V30 220 H 19.8833 -2.8552 -4.97143 0
M  V30 221 H 18.2803 -3.62372 -4.78338 0
M  V30 222 H 19.3503 -3.47956 -3.3772 0
M  V30 223 N 20.6934 1.19889 -1.02296 0
M  V30 224 C 21.9184 1.9393 -0.735237 0
M  V30 225 C 22.3434 1.74639 0.698782 0
M  V30 226 O 21.7014 1.04481 1.48167 0
M  V30 227 C 21.7494 3.43916 -1.08417 0
M  V30 228 O 20.8534 4.11917 -0.199446 0
M  V30 229 H 20.1944 0.605645 -0.272196 0
M  V30 230 H 22.7244 1.52137 -1.36804 0
M  V30 231 H 22.7344 3.9456 -1.03856 0
M  V30 232 H 21.4094 3.5728 -2.12894 0
M  V30 233 H 19.9864 3.71666 -0.303136 0
M  V30 234 N 22.1715 0.800033 1.35784 0
M  V30 235 C 23.0815 0.207204 2.33683 0
M  V30 236 C 24.0975 -0.64631 1.61551 0
M  V30 237 O 25.2735 -0.559604 1.93469 0
M  V30 238 C 22.3385 -0.639659 3.40748 0
M  V30 239 C 21.3995 0.233585 4.28664 0
M  V30 240 C 20.6325 -0.572954 5.30616 0
M  V30 241 O 20.8555 -1.80816 5.40982 0
M  V30 242 O 19.7895 0.0327285 6.01891 0
M  V30 243 H 23.6155 1.01692 2.86169 0
M  V30 244 H 21.2005 0.561691 1.38439 0
M  V30 245 H 23.0825 -1.12223 4.06182 0
M  V30 246 H 21.7575 -1.42708 2.90544 0
M  V30 247 H 20.6645 0.763147 3.66233 0
M  V30 248 H 21.9975 0.984784 4.82248 0
M  V30 249 N 23.6496 -1.47581 0.552962 0
M  V30 250 C 24.8956 -2.02782 0.0273648 0
M  V30 251 C 25.2286 -1.42687 -1.31734 0
M  V30 252 O 24.5036 -0.580897 -1.85623 0
M  V30 253 C 24.7866 -3.60031 -0.0702371 0
M  V30 254 C 24.6396 -4.30566 1.30126 0
M  V30 255 C 25.9586 -4.33028 -0.785771 0
M  V30 256 H 23.0776 -0.736912 0.0114185 0
M  V30 257 H 25.7196 -1.76056 0.714432 0
M  V30 258 H 23.8696 -3.82932 -0.655382 0
M  V30 259 H 25.5416 -4.19018 1.92929 0
M  V30 260 H 23.7846 -3.91086 1.87709 0
M  V30 261 H 24.4556 -5.39114 1.18573 0
M  V30 262 H 26.9316 -4.15095 -0.288982 0
M  V30 263 H 25.8076 -5.42695 -0.823013 0
M  V30 264 H 26.0686 -4.01945 -1.841 0
M  V30 265 N 25.1277 -0.289203 -1.54924 0
M  V30 266 C 26.0597 0.625583 -2.20497 0
M  V30 267 C 27.0727 1.10667 -1.19402 0
M  V30 268 O 28.2617 1.02615 -1.46056 0
M  V30 269 C 25.3617 1.86702 -2.82835 0
M  V30 270 C 24.5347 1.5304 -4.09753 0
M  V30 271 C 23.5937 2.62576 -4.56005 0
M  V30 272 O 22.6197 2.28167 -5.21468 0
M  V30 273 N 23.8217 3.92901 -4.27328 0
M  V30 274 H 26.5867 0.0642801 -2.99631 0
M  V30 275 H 24.1477 -0.110896 -1.6152 0
M  V30 276 H 26.1397 2.59304 -3.10715 0
M  V30 277 H 24.7097 2.33702 -2.07611 0
M  V30 278 H 23.9297 0.637564 -3.8901 0
M  V30 279 H 25.2177 1.28072 -4.92418 0
M  V30 280 H 24.6157 4.23671 -3.74859 0
M  V30 281 H 23.1727 4.61837 -4.59946 0
M  V30 282 N 26.6058 1.57591 -0.0167156 0
M  V30 283 C 27.5358 2.12496 0.967858 0
M  V30 284 C 28.5168 1.03807 1.34752 0
M  V30 285 O 29.7018 1.31577 1.42833 0
M  V30 286 C 26.8318 2.64194 2.25431 0
M  V30 287 C 25.7858 3.77559 2.01576 0
M  V30 288 C 25.1118 4.15636 3.36379 0
M  V30 289 C 26.4118 5.04151 1.36489 0
M  V30 290 H 28.1058 2.95013 0.510643 0
M  V30 291 H 25.6518 1.41915 0.244181 0
M  V30 292 H 27.6048 3.01236 2.94678 0
M  V30 293 H 26.3288 1.78821 2.73296 0
M  V30 294 H 24.9878 3.40937 1.34751 0
M  V30 295 H 24.6358 3.27263 3.81979 0
M  V30 296 H 24.3358 4.92022 3.21229 0
M  V30 297 H 25.8598 4.5525 4.06915 0
M  V30 298 H 27.2738 5.38857 1.95718 0
M  V30 299 H 25.6708 5.85453 1.31776 0
M  V30 300 H 26.7408 4.83733 0.336219 0
M  V30 301 N 28.0839 -0.256276 1.55502 0
M  V30 302 C 29.0159 -1.33981 1.85962 0
M  V30 303 C 30.0289 -1.44743 0.745212 0
M  V30 304 O 31.2179 -1.4626 1.02324 0
M  V30 305 C 28.3179 -2.7194 2.02242 0
M  V30 306 C 27.4909 -2.83562 3.33033 0
M  V30 307 C 26.5499 -4.02304 3.39172 0
M  V30 308 O 25.5759 -3.92273 4.12444 0
M  V30 309 N 26.7779 -5.15045 2.67784 0
M  V30 310 H 29.5429 -1.08191 2.7949 0
M  V30 311 H 27.1039 -0.446388 1.55624 0
M  V30 312 H 29.0959 -3.49697 2.03701 0
M  V30 313 H 27.6659 -2.90479 1.15502 0
M  V30 314 H 26.8859 -1.92555 3.43971 0
M  V30 315 H 28.1739 -2.88271 4.19258 0
M  V30 316 H 27.5719 -5.26085 2.07968 0
M  V30 317 H 26.1289 -5.90972 2.74947 0
M  V30 318 N 29.562 -1.4872 -0.521534 0
M  V30 319 C 30.494 -1.59968 -1.64143 0
M  V30 320 C 31.507 -0.483463 -1.55456 0
M  V30 321 O 32.696 -0.75467 -1.61762 0
M  V30 322 C 29.796 -1.52127 -3.02838 0
M  V30 323 C 28.969 -2.78932 -3.36921 0
M  V30 324 C 28.028 -2.64428 -4.54933 0
M  V30 325 O 27.054 -3.38331 -4.57735 0
M  V30 326 N 28.256 -1.74606 -5.53618 0
M  V30 327 H 31.021 -2.56548 -1.54929 0
M  V30 328 H 28.582 -1.45551 -0.708988 0
M  V30 329 H 30.574 -1.40106 -3.79674 0
M  V30 330 H 29.144 -0.634868 -3.06085 0
M  V30 331 H 28.364 -3.05455 -2.4918 0
M  V30 332 H 29.652 -3.63041 -3.56481 0
M  V30 333 H 29.05 -1.13782 -5.54139 0
M  V30 334 H 27.607 -1.6852 -6.29638 0
M  V30 335 N 31.0401 0.771051 -1.3745 0
M  V30 336 C 32.2701 1.55789 -1.35696 0
M  V30 337 C 32.6781 1.89107 0.0594523 0
M  V30 338 O 32.0211 1.51984 1.03183 0
M  V30 339 C 32.0831 2.89515 -2.13123 0
M  V30 340 C 31.7471 2.78829 -3.62082 0
M  V30 341 C 32.7441 2.49812 -4.5595 0
M  V30 342 C 30.4291 2.9683 -4.05213 0
M  V30 343 C 32.4231 2.38923 -5.90927 0
M  V30 344 C 30.1101 2.85562 -5.40276 0
M  V30 345 C 31.1081 2.56649 -6.32946 0
M  V30 346 O 30.7961 2.45408 -7.65526 0
M  V30 347 H 30.5281 0.489257 -0.466481 0
M  V30 348 H 33.0821 0.963446 -1.81403 0
M  V30 349 H 31.3121 3.51081 -1.62107 0
M  V30 350 H 33.0011 3.50915 -2.03994 0
M  V30 351 H 33.7671 2.3559 -4.23937 0
M  V30 352 H 29.6461 3.18335 -3.33442 0
M  V30 353 H 33.1901 2.16277 -6.63227 0
M  V30 354 H 29.0871 2.99351 -5.71891 0
M  V30 355 H 29.8551 2.60753 -7.75855 0
M  V30 356 N 32.5182 1.22032 0.997298 0
M  V30 357 C 33.7652 1.04222 1.73621 0
M  V30 358 C 34.0932 -0.423264 1.89839 0
M  V30 359 O 33.3482 -1.3302 1.43542 0
M  V30 360 C 33.6472 1.69345 3.14733 0
M  V30 361 C 33.3132 3.19226 3.18442 0
M  V30 362 C 31.9752 3.60124 3.19161 0
M  V30 363 C 34.3272 4.15181 3.15078 0
M  V30 364 C 31.6552 4.95467 3.14212 0
M  V30 365 C 34.0072 5.50495 3.1167 0
M  V30 366 C 32.6712 5.90779 3.10703 0
M  V30 367 H 31.9412 0.381374 0.635323 0
M  V30 368 H 34.5882 1.51732 1.16831 0
M  V30 369 H 32.8932 1.14147 3.74803 0
M  V30 370 H 34.5902 1.53059 3.7064 0
M  V30 371 H 31.1802 2.86659 3.18629 0
M  V30 372 H 35.3642 3.84605 3.13676 0
M  V30 373 H 30.6202 5.25916 3.11805 0
M  V30 374 H 34.7942 6.24576 3.08022 0
M  V30 375 H 32.4212 6.9562 3.06622 0
M  V30 376 N 33.9963 -1.19345 1.0293 0
M  V30 377 C 34.9263 -2.2481 0.631105 0
M  V30 378 C 35.9073 -1.66245 -0.360104 0
M  V30 379 O 37.0923 -1.92677 -0.242726 0
M  V30 380 C 34.2223 -3.47295 -0.0184607 0
M  V30 381 C 33.1763 -4.18536 0.895073 0
M  V30 382 C 32.5023 -5.34586 0.110592 0
M  V30 383 C 33.8023 -4.73287 2.209 0
M  V30 384 H 35.4963 -2.58372 1.51275 0
M  V30 385 H 33.0423 -1.24194 0.728818 0
M  V30 386 H 34.9953 -4.20268 -0.308675 0
M  V30 387 H 33.7193 -3.12933 -0.934907 0
M  V30 388 H 32.3783 -3.47446 1.16949 0
M  V30 389 H 32.0263 -4.96469 -0.807902 0
M  V30 390 H 31.7263 -5.83183 0.719087 0
M  V30 391 H 33.2503 -6.10355 -0.172871 0
M  V30 392 H 34.6643 -5.38013 1.98028 0
M  V30 393 H 33.0613 -5.32373 2.76946 0
M  V30 394 H 34.1313 -3.91331 2.86336 0
M  V30 395 N 35.4744 -0.807222 -1.35358 0
M  V30 396 C 36.8904 -0.491038 -1.51858 0
M  V30 397 C 37.0904 0.987648 -1.75635 0
M  V30 398 O 36.1464 1.77265 -1.79815 0
M  V30 399 C 37.4594 -1.33695 -2.69344 0
M  V30 400 C 39.0074 -1.33246 -2.83222 0
M  V30 401 C 39.4824 -2.1625 -4.03733 0
M  V30 402 N 40.9734 -2.1379 -4.10911 0
M  V30 403 C 41.7084 -2.74772 -5.03277 0
M  V30 404 N 41.2044 -3.44684 -6.0097 0
M  V30 405 N 42.9974 -2.6441 -4.96028 0
M  V30 406 H 35.1484 -1.76485 -1.18181 0
M  V30 407 H 37.4114 -0.751199 -0.578276 0
M  V30 408 H 37.1174 -2.38634 -2.58354 0
M  V30 409 H 36.9914 -0.990618 -3.6396 0
M  V30 410 H 39.3784 -0.290911 -2.93663 0
M  V30 411 H 39.4594 -1.71866 -1.89461 0
M  V30 412 H 39.1034 -3.20445 -3.94052 0
M  V30 413 H 39.0334 -1.74989 -4.96675 0
M  V30 414 H 41.5244 -1.62923 -3.40976 0
M  V30 415 H 41.8374 -3.88501 -6.68047 0
M  V30 416 H 40.1824 -3.48788 -6.01142 0
M  V30 417 H 43.3734 -2.0938 -4.18662 0
M  V30 418 H 43.5464 -3.12225 -5.6782 0
M  V30 419 N 36.9525 1.47285 -0.560781 0
M  V30 420 C 37.8825 2.32857 0.173105 0
M  V30 421 C 38.8635 1.44009 0.905281 0
M  V30 422 O 40.0485 1.7286 0.885046 0
M  V30 423 C 37.1785 3.25861 1.20133 0
M  V30 424 C 36.1325 4.23978 0.585388 0
M  V30 425 C 35.4585 5.06332 1.7185 0
M  V30 426 C 36.7585 5.20242 -0.463178 0
M  V30 427 H 38.4525 2.94466 -0.541307 0
M  V30 428 H 35.9985 1.41601 -0.261764 0
M  V30 429 H 37.9515 3.84569 1.72293 0
M  V30 430 H 36.6755 2.62315 1.94573 0
M  V30 431 H 35.3345 3.66501 0.085054 0
M  V30 432 H 34.9825 4.39186 2.45203 0
M  V30 433 H 34.6825 5.72762 1.31213 0
M  V30 434 H 36.2065 5.67899 2.24329 0
M  V30 435 H 37.6205 5.73293 -0.027502 0
M  V30 436 H 36.0175 5.94896 -0.788627 0
M  V30 437 H 37.0875 4.65504 -1.35773 0
M  V30 438 N 38.4306 0.297415 1.54768 0
M  V30 439 C 39.8466 -0.0560823 1.59501 0
M  V30 440 C 40.0466 -1.52725 1.31444 0
M  V30 441 O 39.1026 -2.27947 1.08611 0
M  V30 442 C 40.4156 0.338631 2.98787 0
M  V30 443 C 41.9636 0.287097 3.11681 0
M  V30 444 C 42.4386 0.656579 4.53269 0
M  V30 445 N 43.9296 0.608977 4.59179 0
M  V30 446 C 44.6646 0.867385 5.66802 0
M  V30 447 N 44.1606 1.19157 6.82476 0
M  V30 448 N 45.9536 0.794687 5.56454 0
M  V30 449 H 38.1046 1.25624 1.71267 0
M  V30 450 H 40.3676 0.509057 0.799728 0
M  V30 451 H 40.0736 1.36263 3.2423 0
M  V30 452 H 39.9476 -0.309508 3.75928 0
M  V30 453 H 42.3346 -0.727649 2.85988 0
M  V30 454 H 42.4156 0.969809 2.36703 0
M  V30 455 H 42.0596 1.66912 4.7969 0
M  V30 456 H 41.9896 -0.0481649 5.26578 0
M  V30 457 H 44.4806 0.369198 3.76092 0
M  V30 458 H 44.7936 1.37482 7.60473 0
M  V30 459 H 43.1386 1.22958 6.84037 0
M  V30 460 H 46.3296 0.541098 4.64962 0
M  V30 461 H 46.5026 0.999445 6.40246 0
M  V30 462 N 39.9087 -1.5758 0.0250728 0
M  V30 463 C 41.1857 -1.82917 -0.692873 0
M  V30 464 C 41.5657 -0.908137 -1.90568 0
M  V30 465 O 40.9137 0.0372298 -2.2847 0
M  V30 466 C 41.1237 -3.32034 -1.07492 0
M  V30 467 C 42.4717 -3.98406 -1.46826 0
M  V30 468 O 43.4957 -3.36505 -1.16801 0
M  V30 469 O 42.3547 -5.07497 -2.02754 0
M  V30 470 H 39.4487 -0.754079 -0.33955 0
M  V30 471 H 41.9947 -1.69619 0.0524456 0
M  V30 472 H 40.7667 -3.90728 -0.211552 0
M  V30 473 H 40.3897 -3.50424 -1.87854 0
M  V30 474 N 41.3868 0.248026 -1.55636 0
M  V30 475 C 42.6638 0.998988 -1.68165 0
M  V30 476 C 43.0438 2.03409 -0.564621 0
M  V30 477 O 42.3918 2.24378 0.432076 0
M  V30 478 C 42.6018 1.63334 -3.0842 0
M  V30 479 C 43.9498 2.13562 -3.66983 0
M  V30 480 O 44.9738 1.73277 -3.11213 0
M  V30 481 O 43.8328 2.87526 -4.64749 0
M  V30 482 H 40.9268 0.464933 -0.683935 0
M  V30 483 H 43.4728 0.241902 -1.67967 0
M  V30 484 H 42.2448 0.884583 -3.8117 0
M  V30 485 H 41.8678 2.45666 -3.12624 0
M  V30 486 N 42.8649 1.48995 0.513639 0
M  V30 487 C 43.7949 1.67636 1.62544 0
M  V30 488 C 44.7759 0.525087 1.61793 0
M  V30 489 O 45.9609 0.759502 1.78732 0
M  V30 490 C 43.0909 1.73114 3.01079 0
M  V30 491 C 42.0449 2.87905 3.16693 0
M  V30 492 C 41.3709 2.78486 4.56453 0
M  V30 493 C 42.6709 4.29005 2.97913 0
M  V30 494 H 44.3649 2.60716 1.47198 0
M  V30 495 H 41.9109 1.25465 0.706714 0
M  V30 496 H 43.8639 1.84742 3.78746 0
M  V30 497 H 42.5879 0.766241 3.17484 0
M  V30 498 H 41.2469 2.75859 2.41448 0
M  V30 499 H 40.8949 1.7993 4.69717 0
M  V30 500 H 40.5949 3.55523 4.67843 0
M  V30 501 H 42.1189 2.92104 5.36197 0
M  V30 502 H 43.5329 4.41798 3.65359 0
M  V30 503 H 41.9299 5.07166 3.20785 0
M  V30 504 H 42.9999 4.44329 1.94165 0
M  V30 505 N 44.343 -0.763751 1.37857 0
M  V30 506 C 45.291 -1.89864 1.34367 0
M  V30 507 C 46.285 -1.67816 0.231143 0
M  V30 508 O 47.491 -1.75508 0.399617 0
M  V30 509 H 43.866 -0.624501 0.41893 0
M  V30 510 H 45.837 -1.89925 2.30155 0
M  V30 511 C 44.586 -3.27227 1.1755 0
M  V30 512 H 43.909 -3.44773 2.02414 0
M  V30 513 H 45.349 -4.06911 1.1916 0
M  V30 514 C 43.808 -3.36692 -0.118311 0
M  V30 515 O 44.338 -3.86374 -1.09902 0
M  V30 516 N 42.544 -2.90092 -0.171717 0
M  V30 517 H 42.091 -2.49853 0.627012 0
M  V30 518 H 42.049 -2.96806 -1.03699 0
M  V30 519 N 45.8211 -1.22559 -0.990812 0
M  V30 520 C 47.0671 -1.05297 -1.73322 0
M  V30 521 C 47.4001 0.410655 -1.89808 0
M  V30 522 O 46.6751 1.30439 -1.44277 0
M  V30 523 C 46.9581 -1.76713 -3.13759 0
M  V30 524 C 46.8111 -3.30684 -3.04907 0
M  V30 525 C 48.1301 -1.52121 -4.12974 0
M  V30 526 H 45.2491 -0.38392 -0.629106 0
M  V30 527 H 47.8911 -1.50926 -1.15418 0
M  V30 528 H 46.0411 -1.37924 -3.63193 0
M  V30 529 H 47.7131 -3.7893 -2.63077 0
M  V30 530 H 45.9561 -3.60253 -2.41661 0
M  V30 531 H 46.6271 -3.75833 -4.04294 0
M  V30 532 H 49.1031 -1.85819 -3.72304 0
M  V30 533 H 47.9791 -2.04582 -5.0935 0
M  V30 534 H 48.2401 -0.454257 -4.3976 0
M  V30 535 N 47.2992 1.18797 -1.03562 0
M  V30 536 C 48.5272 1.92599 -0.755869 0
M  V30 537 C 48.9422 1.75886 0.686271 0
M  V30 538 O 48.2992 1.08517 1.46732 0
M  V30 539 C 48.3502 3.44159 -1.10619 0
M  V30 540 O 48.0712 3.60341 -2.4917 0
M  V30 541 C 49.5722 4.3507 -0.850214 0
M  V30 542 H 46.7922 0.611587 -0.276048 0
M  V30 543 H 49.3362 1.50742 -1.38192 0
M  V30 544 H 47.4912 3.83823 -0.525194 0
M  V30 545 H 47.9052 4.54128 -2.62427 0
M  V30 546 H 49.3792 5.39989 -1.14523 0
M  V30 547 H 49.8562 4.38673 0.215176 0
M  V30 548 H 50.4622 4.01097 -1.41426 0
M  V30 549 N 48.7773 0.814389 1.34928 0
M  V30 550 C 50.1933 0.499084 1.51596 0
M  V30 551 C 50.3933 -0.978319 1.76157 0
M  V30 552 O 49.4493 -1.76309 1.80752 0
M  V30 553 C 50.7623 1.35121 2.68631 0
M  V30 554 C 52.3103 1.34746 2.82511 0
M  V30 555 C 52.7853 2.18388 4.0258 0
M  V30 556 N 54.2763 2.15966 4.09772 0
M  V30 557 C 55.0113 2.77437 5.01813 0
M  V30 558 N 54.5073 3.47866 5.99134 0
M  V30 559 N 56.3003 2.67037 4.94619 0
M  V30 560 H 48.4513 1.7711 1.17243 0
M  V30 561 H 50.7143 0.754256 0.574284 0
M  V30 562 H 50.4203 2.40001 2.57085 0
M  V30 563 H 50.2943 1.00991 3.63429 0
M  V30 564 H 52.6813 0.30648 2.93504 0
M  V30 565 H 52.7623 1.72869 1.88547 0
M  V30 566 H 52.4063 3.2253 3.92347 0
M  V30 567 H 52.3363 1.77621 4.9574 0
M  V30 568 H 54.8273 1.64729 3.40107 0
M  V30 569 H 55.1403 3.92038 6.65977 0
M  V30 570 H 53.4853 3.51972 5.99284 0
M  V30 571 H 56.6763 2.11597 4.17546 0
M  V30 572 H 56.8493 3.15232 5.66156 0
M  V30 573 N 50.2554 -1.46986 0.568584 0
M  V30 574 C 51.1854 -2.32946 -0.160753 0
M  V30 575 C 52.1664 -1.44487 -0.897631 0
M  V30 576 O 53.3514 -1.73327 -0.875867 0
M  V30 577 C 50.4814 -3.26494 -1.18403 0
M  V30 578 C 49.4354 -4.24282 -0.562895 0
M  V30 579 C 48.7614 -5.07236 -1.69163 0
M  V30 580 C 50.0614 -5.19989 0.490761 0
M  V30 581 H 51.7554 -2.94175 0.556916 0
M  V30 582 H 49.3014 -1.4146 0.26927 0
M  V30 583 H 51.2544 -3.85477 -1.70251 0
M  V30 584 H 49.9784 -2.63343 -1.93179 0
M  V30 585 H 48.6374 -3.66541 -0.0656164 0
M  V30 586 H 48.2854 -4.4048 -2.42871 0
M  V30 587 H 47.9854 -5.7345 -1.28174 0
M  V30 588 H 49.5094 -5.6908 -2.21314 0
M  V30 589 H 50.9234 -5.73271 0.0579047 0
M  V30 590 H 49.3204 -5.94469 0.820165 0
M  V30 591 H 50.3904 -4.64777 1.3824 0
M  V30 592 N 51.7335 -0.305618 -1.54608 0
M  V30 593 C 52.9585 0.307562 -2.05107 0
M  V30 594 C 53.3835 1.46385 -1.18123 0
M  V30 595 O 52.7415 1.8034 -0.186324 0
M  V30 596 C 52.7895 0.73704 -3.52987 0
M  V30 597 O 51.8935 1.84134 -3.6901 0
M  V30 598 H 51.2345 0.0589143 -0.661381 0
M  V30 599 H 53.7645 -0.448807 -1.99617 0
M  V30 600 H 53.7745 1.02459 -3.94925 0
M  V30 601 H 52.4495 -0.108773 -4.15758 0
M  V30 602 H 51.0265 1.55398 -3.38978 0
M  V30 603 N 53.2116 1.57565 -0.0334293 0
M  V30 604 C 54.1616 2.06978 0.956237 0
M  V30 605 C 55.1456 0.971193 1.28283 0
M  V30 606 O 56.3376 1.23471 1.26822 0
M  V30 607 C 53.4666 2.60393 2.23719 0
M  V30 608 C 52.5526 3.7719 1.93877 0
M  V30 609 N 52.9436 4.87639 1.34321 0
M  V30 610 C 51.2416 3.85758 2.23845 0
M  V30 611 C 51.9426 5.68825 1.21709 0
M  V30 612 N 50.9186 5.1587 1.71404 0
M  V30 613 H 54.7206 2.89773 0.490815 0
M  V30 614 H 52.2346 1.61492 0.171478 0
M  V30 615 H 54.2316 2.94088 2.95496 0
M  V30 616 H 52.8916 1.79031 2.70884 0
M  V30 617 H 53.9026 5.07803 1.01767 0
M  V30 618 H 50.5796 3.1531 2.73653 0
M  V30 619 H 51.9696 6.67631 0.75621 0
M  V30 620 N 54.6897 -0.239769 1.55765 0
M  V30 621 C 55.9367 -0.966801 1.7793 0
M  V30 622 C 56.2647 -1.85046 0.599015 0
M  V30 623 O 55.5197 -1.91197 -0.417395 0
M  V30 624 C 55.8187 -1.852 3.05672 0
M  V30 625 C 55.4847 -1.1231 4.36689 0
M  V30 626 C 54.1467 -0.921689 4.72291 0
M  V30 627 C 56.4987 -0.607019 5.17653 0
M  V30 628 C 53.8267 -0.191996 5.86386 0
M  V30 629 C 56.1787 0.109241 6.32506 0
M  V30 630 C 54.8427 0.322073 6.66723 0
M  V30 631 H 54.1127 -0.353778 0.651093 0
M  V30 632 H 56.7597 -0.23634 1.90036 0
M  V30 633 H 55.0647 -2.64975 2.8861 0
M  V30 634 H 56.7617 -2.41635 3.20021 0
M  V30 635 H 53.3517 -1.29004 4.08725 0
M  V30 636 H 57.5357 -0.750153 4.90598 0
M  V30 637 H 52.7917 -0.0166949 6.11398 0
M  V30 638 H 56.9657 0.516737 6.9448 0
M  V30 639 H 54.5927 0.88944 7.54979 0
M  V30 640 N 56.1678 -1.49265 -0.50573 0
M  V30 641 C 57.0778 -1.68312 -1.63427 0
M  V30 642 C 58.0938 -0.565682 -1.64548 0
M  V30 643 O 59.2698 -0.839801 -1.83055 0
M  V30 644 C 56.3348 -1.74107 -2.99813 0
M  V30 645 C 55.3958 -2.97653 -3.09356 0
M  V30 646 C 54.6288 -3.03163 -4.39236 0
M  V30 647 O 54.8518 -2.16396 -5.27758 0
M  V30 648 O 53.7858 -3.9558 -4.53652 0
M  V30 649 H 57.6118 -2.63907 -1.50289 0
M  V30 650 H 55.1968 -1.32951 -0.681502 0
M  V30 651 H 57.0788 -1.803 -3.80881 0
M  V30 652 H 55.7538 -0.816901 -3.13223 0
M  V30 653 H 54.6608 -2.96981 -2.27493 0
M  V30 654 H 55.9938 -3.89535 -3.00871 0
M  V30 655 N 57.6459 0.756429 -1.3826 0
M  V30 656 C 58.8759 1.54341 -1.3734 0
M  V30 657 C 59.2839 1.89159 0.0393917 0
M  V30 658 O 58.6269 1.5307 1.01565 0
M  V30 659 C 58.6889 2.87238 -2.16182 0
M  V30 660 C 58.3529 2.74973 -3.65019 0
M  V30 661 C 59.3499 2.44962 -4.58574 0
M  V30 662 C 57.0349 2.92515 -4.08338 0
M  V30 663 C 59.0289 2.32642 -5.93428 0
M  V30 664 C 56.7159 2.79815 -5.43274 0
M  V30 665 C 57.7139 2.49921 -6.35632 0
M  V30 666 O 57.4019 2.37275 -7.68086 0
M  V30 667 H 57.1339 0.484281 -0.471643 0
M  V30 668 H 59.6879 0.944152 -1.82414 0
M  V30 669 H 57.9179 3.49342 -1.65822 0
M  V30 670 H 59.6069 3.48731 -2.07705 0
M  V30 671 H 60.3729 2.31081 -4.26412 0
M  V30 672 H 56.2519 3.14781 -3.368 0
M  V30 673 H 59.7959 2.0923 -6.65484 0
M  V30 674 H 55.6929 2.93269 -5.75034 0
M  V30 675 H 56.4609 2.52509 -7.78577 0
M  V30 676 N 59.124 1.23083 0.984299 0
M  V30 677 C 60.37 1.06214 1.72761 0
M  V30 678 C 60.703 -0.400584 1.90024 0
M  V30 679 O 59.978 -1.29672 1.44967 0
M  V30 680 C 60.261 1.78375 3.12817 0
M  V30 681 C 60.114 3.32296 3.03149 0
M  V30 682 C 61.433 1.54309 4.12161 0
M  V30 683 H 58.552 0.387251 0.627061 0
M  V30 684 H 61.194 1.51536 1.14616 0
M  V30 685 H 59.344 1.39848 3.62457 0
M  V30 686 H 61.016 3.8032 2.61064 0
M  V30 687 H 59.259 3.6153 2.39747 0
M  V30 688 H 59.93 3.77972 4.02295 0
M  V30 689 H 62.406 1.87791 3.71314 0
M  V30 690 H 61.282 2.07281 5.08258 0
M  V30 691 H 61.543 0.477572 4.39513 0
M  V30 692 N 60.6021 -1.18246 1.0419 0
M  V30 693 C 61.5491 -2.2192 0.634037 0
M  V30 694 C 62.5191 -1.62179 -0.358765 0
M  V30 695 O 63.7041 -1.89122 -0.252466 0
M  V30 696 C 60.8441 -3.451 0.00445535 0
M  V30 697 C 59.9571 -4.19174 1.04487 0
M  V30 698 C 59.0921 -5.29813 0.383676 0
M  V30 699 C 58.1311 -5.9566 1.4091 0
M  V30 700 N 57.2681 -6.97834 0.772784 0
M  V30 701 H 62.1081 -2.56164 1.52263 0
M  V30 702 H 59.6451 -1.25843 0.761701 0
M  V30 703 H 61.6031 -4.15485 -0.377919 0
M  V30 704 H 60.2331 -3.11472 -0.847652 0
M  V30 705 H 59.2851 -3.47604 1.54518 0
M  V30 706 H 60.5971 -4.64267 1.82368 0
M  V30 707 H 59.7511 -6.06677 -0.0528366 0
M  V30 708 H 58.4901 -4.85825 -0.427208 0
M  V30 709 H 57.4951 -5.17535 1.85574 0
M  V30 710 H 58.7201 -6.4173 2.22171 0
M  V30 711 H 56.6661 -6.55998 -0.0177708 0
M  V30 712 H 56.5831 -7.41186 1.48928 0
M  V30 713 H 57.8511 -7.78665 0.36071 0
M  V30 714 N 62.0802 -0.821533 -1.34494 0
M  V30 715 C 63.0282 -0.230702 -2.31453 0
M  V30 716 C 64.0222 0.627793 -1.57338 0
M  V30 717 O 65.2282 0.519288 -1.72347 0
M  V30 718 H 61.6032 -0.0558577 -0.749923 0
M  V30 719 H 63.5742 -1.06332 -2.78812 0
M  V30 720 C 62.3232 0.59391 -3.4259 0
M  V30 721 H 61.6462 -0.0573588 -3.99759 0
M  V30 722 H 63.0862 0.973446 -4.12674 0
M  V30 723 C 61.5452 1.76568 -2.86924 0
M  V30 724 O 62.0752 2.8638 -2.81691 0
M  V30 725 N 60.2812 1.58198 -2.43766 0
M  V30 726 H 59.8282 0.68872 -2.48222 0
M  V30 727 H 59.7862 2.36752 -2.06871 0
M  V30 728 N 63.5583 1.46682 -0.576371 0
M  V30 729 C 64.4683 2.34032 0.163141 0
M  V30 730 C 65.4843 1.49367 0.892501 0
M  V30 731 O 66.6603 1.82252 0.857106 0
M  V30 732 C 63.7253 3.26435 1.16795 0
M  V30 733 C 62.7863 4.26998 0.443944 0
M  V30 734 C 62.0193 5.14986 1.40088 0
M  V30 735 O 62.2423 5.05785 2.637 0
M  V30 736 O 61.1763 5.94906 0.914917 0
M  V30 737 H 65.0023 2.98607 -0.55388 0
M  V30 738 H 62.5873 1.45554 -0.336821 0
M  V30 739 H 64.4693 3.83459 1.74748 0
M  V30 740 H 63.1443 2.64465 1.86655 0
M  V30 741 H 62.0513 3.7368 -0.177271 0
M  V30 742 H 63.3843 4.91736 -0.213566 0
M  V30 743 N 65.0364 0.313813 1.54444 0
M  V30 744 C 66.3134 -0.345447 1.92525 0
M  V30 745 C 66.6934 -1.70667 1.24242 0
M  V30 746 O 66.0414 -2.25273 0.382654 0
M  V30 747 C 66.2514 -0.44737 3.46121 0
M  V30 748 C 67.5994 -0.712238 4.18584 0
M  V30 749 O 68.6234 -0.530678 3.52225 0
M  V30 750 O 67.4824 -1.06183 5.36085 0
M  V30 751 H 64.5764 -0.195407 0.803583 0
M  V30 752 H 67.1224 0.362813 1.65776 0
M  V30 753 H 65.8944 0.509043 3.87975 0
M  V30 754 H 65.5174 -1.20359 3.78945 0
M  V30 755 N 66.5145 -1.57545 0.0417849 0
M  V30 756 C 67.4445 -2.14009 -0.933929 0
M  V30 757 C 68.4255 -1.05938 -1.33083 0
M  V30 758 O 69.6105 -1.33833 -1.40721 0
M  V30 759 C 66.7405 -2.67747 -2.21199 0
M  V30 760 C 65.6945 -3.80718 -1.95544 0
M  V30 761 C 65.0205 -4.20935 -3.29724 0
M  V30 762 C 66.3205 -5.06258 -1.28452 0
M  V30 763 H 68.0145 -2.95788 -0.463645 0
M  V30 764 H 65.5605 -1.42285 -0.221573 0
M  V30 765 H 67.5135 -3.05886 -2.89848 0
M  V30 766 H 66.2375 -1.83147 -2.70416 0
M  V30 767 H 64.8965 -3.43037 -1.2931 0
M  V30 768 H 64.5445 -3.33298 -3.76724 0
M  V30 769 H 64.2445 -4.9707 -3.13361 0
M  V30 770 H 65.7685 -4.61666 -3.9962 0
M  V30 771 H 67.1825 -5.41903 -1.8712 0
M  V30 772 H 65.5795 -5.87475 -1.22445 0
M  V30 773 H 66.6495 -4.84207 -0.259219 0
M  V30 774 N 67.9926 0.231505 -1.5589 0
M  V30 775 C 68.9026 1.308 -1.94752 0
M  V30 776 C 69.9186 1.51826 -0.849989 0
M  V30 777 O 71.0946 1.6515 -1.15271 0
M  V30 778 C 68.1596 2.63968 -2.24771 0
M  V30 779 C 67.2206 2.51331 -3.48039 0
M  V30 780 C 66.4536 3.78148 -3.76616 0
M  V30 781 O 66.6766 4.80722 -3.07022 0
M  V30 782 O 65.6106 3.75857 -4.70123 0
M  V30 783 H 69.4366 1.0083 -2.86474 0
M  V30 784 H 67.0216 0.433547 -1.42971 0
M  V30 785 H 68.9036 3.42633 -2.45318 0
M  V30 786 H 67.5786 2.9364 -1.36225 0
M  V30 787 H 66.4856 1.709 -3.32782 0
M  V30 788 H 67.8186 2.26601 -4.36936 0
M  V30 789 N 69.4707 1.49531 0.497807 0
M  V30 790 C 70.4177 1.66436 1.59899 0
M  V30 791 C 71.3877 0.505793 1.58212 0
M  V30 792 O 72.5727 0.733202 1.7615 0
M  V30 793 C 69.7127 1.7399 2.98029 0
M  V30 794 C 68.8257 3.01172 3.09708 0
M  V30 795 C 67.9607 2.99686 4.38591 0
M  V30 796 C 66.9997 4.21434 4.43914 0
M  V30 797 N 66.1367 4.1784 5.64229 0
M  V30 798 H 70.9767 2.60459 1.44793 0
M  V30 799 H 68.5137 1.29137 0.704423 0
M  V30 800 H 70.4717 1.76352 3.78095 0
M  V30 801 H 69.1017 0.834301 3.11832 0
M  V30 802 H 68.1537 3.08408 2.22685 0
M  V30 803 H 69.4657 3.91165 3.09502 0
M  V30 804 H 68.6197 3.00628 5.2698 0
M  V30 805 H 67.3587 2.07477 4.41367 0
M  V30 806 H 66.3637 4.20733 3.53926 0
M  V30 807 H 67.5887 5.14839 4.42851 0
M  V30 808 H 65.5347 3.28469 5.67841 0
M  V30 809 H 65.4517 5.01571 5.65652 0
M  V30 810 H 66.7197 4.22889 6.54817 0
M  V30 811 N 70.9488 -0.749086 1.3866 0
M  V30 812 C 72.1978 -1.50371 1.3443 0
M  V30 813 C 72.5108 -1.95503 -0.0616397 0
M  V30 814 O 73.7168 -2.70554 -0.226489 0
M  V30 815 C 72.1728 -2.71644 2.36088 0
M  V30 816 C 71.7808 -2.3352 3.82325 0
M  V30 817 C 73.5248 -3.49518 2.40909 0
M  V30 818 C 71.4318 -3.51431 4.75658 0
M  V30 819 H 70.3618 -0.564628 0.499712 0
M  V30 820 H 73.0128 -0.818449 1.64237 0
M  V30 821 H 71.3948 -3.42175 1.9933 0
M  V30 822 H 72.5688 -1.70627 4.28046 0
M  V30 823 H 70.8838 -1.6877 3.80665 0
M  V30 824 H 73.4808 -4.37197 3.07836 0
M  V30 825 H 73.8238 -3.90992 1.42937 0
M  V30 826 H 74.3568 -2.86005 2.76489 0
M  V30 827 H 71.0958 -3.15019 5.74842 0
M  V30 828 H 70.6158 -4.13352 4.34627 0
M  V30 829 H 72.2948 -4.17953 4.93887 0
M  V30 830 N 72.4269 -1.23603 -0.977757 0
M  V30 831 C 73.6749 -1.06759 -1.71601 0
M  V30 832 C 73.9959 0.395929 -1.90938 0
M  V30 833 O 73.2659 1.28356 -1.47992 0
M  V30 834 H 71.8459 -0.392062 -0.635843 0
M  V30 835 H 74.5079 -1.55362 -1.1768 0
M  V30 836 H 73.6039 -1.55763 -2.70452 0
M  V30 837 N 73.905 1.17692 -1.04816 0
M  V30 838 C 74.838 2.20436 -0.590173 0
M  V30 839 C 75.816 1.58115 0.379244 0
M  V30 840 O 77 1.86228 0.291762 0
M  V30 841 C 74.127 3.38424 0.136817 0
M  V30 842 C 73.173 4.19176 -0.787023 0
M  V30 843 S 74.006 4.84815 -2.27409 0
M  V30 844 C 75.162 6.06195 -1.55817 0
M  V30 845 H 75.395 2.58944 -1.46067 0
M  V30 846 H 72.928 1.28246 -0.859784 0
M  V30 847 H 74.886 4.06798 0.550076 0
M  V30 848 H 73.547 2.98312 0.983299 0
M  V30 849 H 72.74 5.03499 -0.224681 0
M  V30 850 H 72.342 3.56219 -1.13947 0
M  V30 851 H 74.634 6.72078 -0.855387 0
M  V30 852 H 75.577 6.6695 -2.37873 0
M  V30 853 H 75.985 5.54701 -1.04722 0
M  V30 854 N 75.3831 0.828654 1.34056 0
M  V30 855 C 76.6311 0.41863 1.97717 0
M  V30 856 C 76.9521 -1.02314 1.66002 0
M  V30 857 O 76.2221 -1.71119 0.953683 0
M  V30 858 H 74.8021 0.151809 0.731412 0
M  V30 859 H 77.4641 1.05936 1.63596 0
M  V30 860 H 76.5601 0.542318 3.07352 0
M  V30 861 N 76.8612 -1.46375 0.584142 0
M  V30 862 C 78.2772 -1.57694 0.245929 0
M  V30 863 C 78.4772 -1.57903 -1.25175 0
M  V30 864 O 77.5332 -1.49676 -2.03355 0
M  V30 865 C 78.8462 -2.87028 0.896402 0
M  V30 866 C 80.3942 -3.00662 0.870127 0
M  V30 867 C 80.8692 -4.32734 1.50017 0
M  V30 868 N 82.3602 -4.39436 1.46458 0
M  V30 869 C 83.0952 -5.40248 1.92144 0
M  V30 870 N 82.5912 -6.47726 2.4581 0
M  V30 871 N 84.3842 -5.31459 1.83052 0
M  V30 872 H 76.5352 -1.44483 1.55687 0
M  V30 873 H 78.7982 -0.689291 0.650831 0
M  V30 874 H 78.5042 -2.9269 1.95002 0
M  V30 875 H 78.3782 -3.75014 0.405486 0
M  V30 876 H 80.7652 -2.94581 -0.174871 0
M  V30 877 H 80.8462 -2.14148 1.39908 0
M  V30 878 H 80.4902 -4.39573 2.54437 0
M  V30 879 H 80.4202 -5.18025 0.946432 0
M  V30 880 H 82.9112 -3.62367 1.07231 0
M  V30 881 H 83.2242 -7.20863 2.78525 0
M  V30 882 H 81.5692 -6.48542 2.49836 0
M  V30 883 H 84.7602 -4.46396 1.40883 0
M  V30 884 H 84.9332 -6.09881 2.18973 0
M  V30 885 N 78.3393 -0.321999 -1.54275 0
M  V30 886 C 79.7503 0.166384 -1.85957 0
M  V30 887 C 80.1013 1.51747 -1.24367 0
M  V30 888 O 79.2263 2.09317 -0.549124 0
M  V30 889 C 79.8213 0.308681 -3.37391 0
M  V30 890 C 78.3803 0.741286 -3.69028 0
M  V30 891 C 77.5273 -0.137937 -2.76957 0
M  V30 892 H 80.4783 -0.542335 -1.49146 0
M  V30 893 H 80.4993 1.13984 -3.63026 0
M  V30 894 H 80.0113 -0.674809 -3.82188 0
M  V30 895 H 78.1123 1.73458 -3.29762 0
M  V30 896 H 78.2253 0.546118 -4.75977 0
M  V30 897 H 76.5893 0.386251 -2.51754 0
M  V30 898 H 77.3723 -1.11816 -3.2458 0
M  V30 899 N 79.8174 1.5752 -0.0501392 0
M  V30 900 C 81.0654 1.9227 0.622642 0
M  V30 901 C 81.3864 0.929083 1.71444 0
M  V30 902 O 80.6564 -0.0262186 1.95882 0
M  V30 903 H 79.2364 0.709739 0.232981 0
M  V30 904 H 81.8984 1.94628 -0.102898 0
M  V30 905 H 80.9944 2.93479 1.06191 0
M  V30 906 N 81.2955 -0.223234 1.56011 0
M  V30 907 C 82.2275 -1.30006 1.88762 0
M  V30 908 C 83.2405 -1.43129 0.775746 0
M  V30 909 O 84.4295 -1.44057 1.05403 0
M  V30 910 C 81.5295 -2.67589 2.07965 0
M  V30 911 C 80.7025 -2.76434 3.38973 0
M  V30 912 C 79.7615 -3.95019 3.47629 0
M  V30 913 O 78.7875 -3.83436 4.20672 0
M  V30 914 N 79.9895 -5.09249 2.78649 0
M  V30 915 H 82.7545 -1.02238 2.81722 0
M  V30 916 H 80.3155 -0.413278 1.56536 0
M  V30 917 H 82.3075 -3.45297 2.11073 0
M  V30 918 H 80.8775 -2.87964 1.21638 0
M  V30 919 H 80.0975 -1.85216 3.47978 0
M  V30 920 H 81.3855 -2.79313 4.25278 0
M  V30 921 H 80.7835 -5.21556 2.19081 0
M  V30 922 H 79.3405 -5.85007 2.8742 0
M  V30 923 N 82.7736 -1.49793 -0.48987 0
M  V30 924 C 84.1896 -1.36803 -0.822022 0
M  V30 925 C 84.3896 -0.409652 -1.97292 0
M  V30 926 O 83.4456 0.154614 -2.52026 0
M  V30 927 C 84.7586 -2.77768 -1.15175 0
M  V30 928 C 86.3066 -2.86549 -1.25931 0
M  V30 929 C 86.7816 -4.28306 -1.62228 0
M  V30 930 N 88.2726 -4.31169 -1.69256 0
M  V30 931 C 89.0076 -5.37832 -1.98807 0
M  V30 932 N 88.5036 -6.54726 -2.26507 0
M  V30 933 N 90.2966 -5.25258 -2.00152 0
M  V30 934 H 82.4476 -2.10691 0.268881 0
M  V30 935 H 84.7106 -0.946241 0.057728 0
M  V30 936 H 84.4166 -3.49648 -0.379335 0
M  V30 937 H 84.2906 -3.13836 -2.09253 0
M  V30 938 H 86.6776 -2.14899 -2.02243 0
M  V30 939 H 86.7586 -2.54049 -0.298776 0
M  V30 940 H 86.4026 -5.00486 -0.864622 0
M  V30 941 H 86.3326 -4.58279 -2.594 0
M  V30 942 H 88.8236 -3.4687 -1.49965 0
M  V30 943 H 89.1366 -7.31833 -2.48276 0
M  V30 944 H 87.4816 -6.57933 -2.23939 0
M  V30 945 H 90.6726 -4.32938 -1.77996 0
M  V30 946 H 90.8456 -6.08476 -2.22848 0
M  V30 947 N 84.2517 0.741722 -1.39055 0
M  V30 948 C 85.6677 1.04638 -1.20512 0
M  V30 949 C 85.8677 2.01405 -0.0620218 0
M  V30 950 O 84.9237 2.45547 0.588457 0
M  V30 951 C 86.2367 1.6151 -2.53643 0
M  V30 952 C 87.7847 1.73623 -2.6043 0
M  V30 953 C 88.2597 2.33906 -3.93767 0
M  V30 954 N 89.7507 2.41323 -3.9537 0
M  V30 955 C 90.4857 2.88888 -4.95309 0
M  V30 956 N 89.9817 3.36401 -6.05645 0
M  V30 957 N 91.7747 2.88037 -4.82692 0
M  V30 958 H 83.9257 0.0998155 -2.12165 0
M  V30 959 H 86.1887 0.106907 -0.941953 0
M  V30 960 H 85.8947 0.978739 -3.37807 0
M  V30 961 H 85.7687 2.60411 -2.72885 0
M  V30 962 H 88.1557 2.36384 -1.76655 0
M  V30 963 H 88.2367 0.733945 -2.45045 0
M  V30 964 H 87.8807 1.71776 -4.7797 0
M  V30 965 H 87.8107 3.34799 -4.06469 0
M  V30 966 H 90.3017 2.07734 -3.15682 0
M  V30 967 H 90.6147 3.71186 -6.77821 0
M  V30 968 H 88.9597 3.34427 -6.09248 0
M  V30 969 H 92.1507 2.50237 -3.95599 0
M  V30 970 H 92.3237 3.24792 -5.60726 0
M  V30 971 N 85.7298 1.2412 0.971189 0
M  V30 972 C 86.6598 1.05508 2.08304 0
M  V30 973 C 87.6408 -0.0308864 1.70072 0
M  V30 974 O 88.8258 0.135521 1.93727 0
M  V30 975 C 85.9558 0.655365 3.4106 0
M  V30 976 C 84.9098 1.68971 3.93234 0
M  V30 977 C 84.2358 1.14516 5.22293 0
M  V30 978 C 85.5358 3.08487 4.21465 0
M  V30 979 H 87.2298 1.98507 2.24132 0
M  V30 980 H 84.7758 0.955821 1.07704 0
M  V30 981 H 86.7288 0.51217 4.18276 0
M  V30 982 H 85.4528 -0.31032 3.25122 0
M  V30 983 H 84.1118 1.82106 3.18171 0
M  V30 984 H 83.7598 0.170189 5.02712 0
M  V30 985 H 83.4598 1.83635 5.58168 0
M  V30 986 H 84.9838 1.01401 6.02121 0
M  V30 987 H 86.3978 2.98601 4.89398 0
M  V30 988 H 84.7948 3.74926 4.68562 0
M  V30 989 H 85.8648 3.56787 3.28376 0
M  V30 990 N 87.2079 -1.17134 1.05439 0
M  V30 991 C 88.4539 -1.87979 0.776872 0
M  V30 992 C 88.8089 -1.7965 -0.688751 0
M  V30 993 O 88.1019 -1.19535 -1.4974 0
M  V30 994 C 88.2959 -3.36833 1.19491 0
M  V30 995 C 88.1249 -3.59653 2.69963 0
M  V30 996 C 86.8949 -3.76234 3.37307 0
M  V30 997 C 89.0929 -3.59091 3.68182 0
M  V30 998 N 87.0749 -3.86922 4.76618 0
M  V30 999 C 88.4459 -3.75659 4.93235 0
M  V30 1000 C 90.5009 -3.42255 3.61616 0
M  V30 1001 C 89.2039 -3.77133 6.12506 0
M  V30 1002 C 91.2299 -3.45018 4.8033 0
M  V30 1003 C 90.5919 -3.62096 6.04207 0
M  V30 1004 H 86.6909 -0.705876 0.336546 0
M  V30 1005 H 89.2749 -1.40602 1.34682 0
M  V30 1006 H 87.4459 -3.82873 0.652884 0
M  V30 1007 H 89.1779 -3.95305 0.866966 0
M  V30 1008 H 85.9329 -3.76193 2.87708 0
M  V30 1009 H 86.3569 -3.96055 5.49062 0
M  V30 1010 H 90.9989 -3.27986 2.66805 0
M  V30 1011 H 88.7169 -3.90186 7.07659 0
M  V30 1012 H 92.3029 -3.33246 4.76905 0
M  V30 1013 H 91.1829 -3.64142 6.94529 0
M  V30 1014 N 88.686 -0.835752 -1.33615 0
M  V30 1015 C 89.596 -0.269088 -2.33052 0
M  V30 1016 C 90.612 0.603251 -1.63208 0
M  V30 1017 O 91.788 0.508112 -1.94885 0
M  V30 1018 C 88.853 0.549091 -3.42324 0
M  V30 1019 C 87.914 -0.347156 -4.27894 0
M  V30 1020 C 87.147 0.43207 -5.31948 0
M  V30 1021 O 87.37 1.66409 -5.45586 0
M  V30 1022 O 86.304 -0.192298 -6.01593 0
M  V30 1023 H 90.13 -1.09243 -2.83372 0
M  V30 1024 H 87.715 -0.598198 -1.36901 0
M  V30 1025 H 89.597 1.01414 -4.09015 0
M  V30 1026 H 88.272 1.34955 -2.94226 0
M  V30 1027 H 87.179 -0.859979 -3.64081 0
M  V30 1028 H 88.512 -1.1123 -4.79467 0
M  V30 1029 N 90.1641 1.46063 -0.591896 0
M  V30 1030 C 91.1271 2.28854 0.125973 0
M  V30 1031 C 92.1271 1.38903 0.810107 0
M  V30 1032 O 93.3171 1.61186 0.66066 0
M  V30 1033 C 90.4491 3.19526 1.1881 0
M  V30 1034 H 91.6421 2.93802 -0.601717 0
M  V30 1035 H 89.1951 1.52325 -0.350254 0
M  V30 1036 H 89.9301 2.59345 1.94707 0
M  V30 1037 H 89.7151 3.85766 0.701936 0
M  V30 1038 H 91.2051 3.81817 1.69132 0
M  V30 1039 N 91.6422 0.330177 1.54103 0
M  V30 1040 C 92.8882 -0.270806 2.00984 0
M  V30 1041 C 93.2212 -1.51265 1.21789 0
M  V30 1042 O 92.4962 -1.92142 0.301927 0
M  V30 1043 C 92.7792 -0.598339 3.55094 0
M  V30 1044 C 92.6322 0.654674 4.4501 0
M  V30 1045 C 93.9512 -1.41334 4.16789 0
M  V30 1046 H 91.0702 -0.0969531 0.730595 0
M  V30 1047 H 93.7122 0.448066 1.84641 0
M  V30 1048 H 91.8622 -1.21078 3.69151 0
M  V30 1049 H 93.5342 1.29285 4.42813 0
M  V30 1050 H 91.7772 1.28224 4.14416 0
M  V30 1051 H 92.4482 0.380944 5.50684 0
M  V30 1052 H 94.9242 -0.895597 4.06347 0
M  V30 1053 H 93.8002 -1.61127 5.24718 0
M  V30 1054 H 94.0612 -2.41146 3.70541 0
M  V30 1055 N 93.1203 -1.57491 0.0584922 0
M  V30 1056 C 94.0673 -2.11958 -0.913376 0
M  V30 1057 C 95.0373 -1.02875 -1.30407 0
M  V30 1058 O 96.2223 -1.30464 -1.39226 0
M  V30 1059 C 93.3623 -2.67497 -2.18035 0
M  V30 1060 C 92.4753 -3.90691 -1.84349 0
M  V30 1061 C 91.6103 -4.3452 -3.05559 0
M  V30 1062 C 90.6493 -5.50395 -2.67827 0
M  V30 1063 N 89.7863 -5.89244 -3.81754 0
M  V30 1064 H 94.6263 -2.94704 -0.442017 0
M  V30 1065 H 92.1633 -1.45643 -0.206545 0
M  V30 1066 H 94.1213 -2.978 -2.92183 0
M  V30 1067 H 92.7513 -1.87537 -2.62735 0
M  V30 1068 H 91.8033 -3.66934 -1.00319 0
M  V30 1069 H 93.1153 -4.7489 -1.5258 0
M  V30 1070 H 92.2693 -4.66414 -3.87998 0
M  V30 1071 H 91.0083 -3.49147 -3.40511 0
M  V30 1072 H 90.0133 -5.18165 -1.83806 0
M  V30 1073 H 91.2383 -6.3749 -2.34059 0
M  V30 1074 H 89.1843 -5.06823 -4.16493 0
M  V30 1075 H 89.1013 -6.68151 -3.53708 0
M  V30 1076 H 90.3693 -6.25756 -4.64811 0
M  V30 1077 N 94.5984 0.214957 -1.56127 0
M  V30 1078 C 96.0144 0.564948 -1.49267 0
M  V30 1079 C 96.2144 1.86827 -0.754838 0
M  V30 1080 O 95.2704 2.50745 -0.297198 0
M  V30 1081 C 96.5834 0.638071 -2.93852 0
M  V30 1082 C 98.1314 0.728253 -3.0441 0
M  V30 1083 C 98.6064 0.832663 -4.50367 0
M  V30 1084 N 100.097 0.896712 -4.54437 0
M  V30 1085 C 100.832 0.997324 -5.6466 0
M  V30 1086 N 100.328 1.06147 -6.8462 0
M  V30 1087 N 102.121 1.03297 -5.52527 0
M  V30 1088 H 94.2724 -0.640211 -2.02522 0
M  V30 1089 H 96.5354 -0.225507 -0.920788 0
M  V30 1090 H 96.2414 -0.250126 -3.50809 0
M  V30 1091 H 96.1154 1.49947 -3.46115 0
M  V30 1092 H 98.5024 1.60689 -2.47514 0
M  V30 1093 H 98.5834 -0.158952 -2.55306 0
M  V30 1094 H 98.2274 -0.0415417 -5.07883 0
M  V30 1095 H 98.1574 1.73538 -4.97184 0
M  V30 1096 H 100.648 0.857188 -3.6805 0
M  V30 1097 H 100.961 1.1382 -7.64372 0
M  V30 1098 H 99.3064 1.03049 -6.87318 0
M  V30 1099 H 102.497 0.979558 -4.57736 0
M  V30 1100 H 102.67 1.10793 -6.38458 0
M  V30 1101 N 96.0765 1.50051 0.48192 0
M  V30 1102 C 97.4925 1.37237 0.814756 0
M  V30 1103 C 97.6925 0.420109 1.97072 0
M  V30 1104 O 96.7485 -0.141246 2.52105 0
M  V30 1105 C 98.0615 2.78375 1.13701 0
M  V30 1106 C 99.6095 2.87213 1.2441 0
M  V30 1107 C 100.084 4.29161 1.59954 0
M  V30 1108 N 101.575 4.32061 1.66967 0
M  V30 1109 C 102.31 5.38879 1.95952 0
M  V30 1110 N 101.806 6.55918 2.23031 0
M  V30 1111 N 103.599 5.26312 1.97363 0
M  V30 1112 H 95.7505 2.10546 -0.28005 0
M  V30 1113 H 98.0135 0.945921 -0.0627454 0
M  V30 1114 H 97.7195 3.49845 0.360787 0
M  V30 1115 H 97.5935 3.14941 2.07586 0
M  V30 1116 H 99.9805 2.15969 2.01101 0
M  V30 1117 H 100.061 2.54204 0.285299 0
M  V30 1118 H 99.7055 5.00938 0.838067 0
M  V30 1119 H 99.6355 4.59648 2.56966 0
M  V30 1120 H 102.126 3.47661 1.48123 0
M  V30 1121 H 102.439 7.33139 2.44391 0
M  V30 1122 H 100.784 6.59112 2.20447 0
M  V30 1123 H 103.975 4.33876 1.75697 0
M  V30 1124 H 104.148 6.09649 2.19618 0
M  V30 1125 N 97.5546 -0.734337 1.39446 0
M  V30 1126 C 98.5016 -1.84835 1.38219 0
M  V30 1127 C 99.4716 -1.64331 0.24179 0
M  V30 1128 O 100.657 -1.85728 0.437002 0
M  V30 1129 C 97.7966 -3.22355 1.23212 0
M  V30 1130 C 96.9096 -3.5456 2.46801 0
M  V30 1131 C 96.0446 -4.81485 2.24377 0
M  V30 1132 C 95.0836 -5.06536 3.43639 0
M  V30 1133 N 94.2206 -6.24665 3.20528 0
M  V30 1134 H 99.0606 -1.85219 2.33448 0
M  V30 1135 H 96.5976 -0.905039 1.15963 0
M  V30 1136 H 98.5556 -4.0174 1.12522 0
M  V30 1137 H 97.1856 -3.21248 0.316121 0
M  V30 1138 H 96.2376 -2.69872 2.68092 0
M  V30 1139 H 97.5496 -3.6899 3.3563 0
M  V30 1140 H 96.7036 -5.68852 2.10933 0
M  V30 1141 H 95.4426 -4.6923 1.32944 0
M  V30 1142 H 94.4476 -4.17632 3.5758 0
M  V30 1143 H 95.6726 -5.20676 4.35974 0
M  V30 1144 H 93.6186 -6.13696 2.3176 0
M  V30 1145 H 93.5356 -6.39685 4.02913 0
M  V30 1146 H 94.8036 -7.14868 3.10779 0
M  V30 1147 N 99.0327 -1.24633 -0.964593 0
M  V30 1148 C 99.9957 -1.0424 -2.04124 0
M  V30 1149 C 100.996 0.00137563 -1.608 0
M  V30 1150 O 102.186 -0.239883 -1.7254 0
M  V30 1151 C 99.3177 -0.580588 -3.3592 0
M  V30 1152 H 100.511 -1.99803 -2.23649 0
M  V30 1153 H 98.0637 -1.06899 -1.14027 0
M  V30 1154 H 98.7987 0.3781 -3.22088 0
M  V30 1155 H 98.5837 -1.33398 -3.6871 0
M  V30 1156 H 100.074 -0.459034 -4.15069 0
M  V30 1157 N 100.511 1.16574 -1.06058 0
M  V30 1158 C 101.441 2.23057 -0.690488 0
M  V30 1159 C 102.422 1.67141 0.315901 0
M  V30 1160 O 103.607 1.93253 0.191556 0
M  V30 1161 C 100.737 3.47222 -0.073625 0
M  V30 1162 C 99.6908 4.16016 -1.00573 0
M  V30 1163 C 99.0168 5.34104 -0.252289 0
M  V30 1164 C 100.317 4.67264 -2.33371 0
M  V30 1165 H 102.011 2.54271 -1.58072 0
M  V30 1166 H 99.5568 1.22218 -0.76149 0
M  V30 1167 H 101.51 4.20939 0.19714 0
M  V30 1168 H 100.234 3.15302 0.85161 0
M  V30 1169 H 98.8928 3.44223 -1.2612 0
M  V30 1170 H 98.5408 4.98437 0.675988 0
M  V30 1171 H 98.2408 5.81072 -0.873455 0
M  V30 1172 H 99.7648 6.10599 0.0109857 0
M  V30 1173 H 101.179 5.32573 -2.12223 0
M  V30 1174 H 99.5758 5.24843 -2.90963 0
M  V30 1175 H 100.646 3.83602 -2.96611 0
M  V30 1176 N 101.989 0.842826 1.3317 0
M  V30 1177 C 103.229 0.446574 1.99462 0
M  V30 1178 C 103.593 -0.976818 1.65295 0
M  V30 1179 O 104.794 -1.477 2.24584 0
M  V30 1180 C 103.065 0.665353 3.51152 0
M  V30 1181 S 104.624 0.364911 4.3728 0
M  V30 1182 H 101.442 0.167803 0.690915 0
M  V30 1183 H 104.044 1.09297 1.62094 0
M  V30 1184 H 102.748 1.7006 3.73507 0
M  V30 1185 H 102.279 0.00494568 3.934 0
M  V30 1186 H 104.294 -0.813761 4.89482 0
M  V30 1187 N 103.467 -1.45747 0.599634 0
M  V30 1188 C 104.414 -2.30467 -0.123849 0
M  V30 1189 C 105.384 -1.41632 -0.86774 0
M  V30 1190 O 106.569 -1.70568 -0.855056 0
M  V30 1191 C 103.709 -3.26402 -1.12051 0
M  V30 1192 C 102.822 -4.3034 -0.37832 0
M  V30 1193 C 101.957 -5.13389 -1.364 0
M  V30 1194 C 100.996 -6.09061 -0.609171 0
M  V30 1195 N 100.133 -6.84918 -1.54374 0
M  V30 1196 H 104.973 -2.91802 0.604627 0
M  V30 1197 H 102.51 -1.43797 0.309972 0
M  V30 1198 H 104.468 -3.80482 -1.7114 0
M  V30 1199 H 103.098 -2.66839 -1.8165 0
M  V30 1200 H 102.15 -3.78984 0.327929 0
M  V30 1201 H 103.462 -4.98354 0.210997 0
M  V30 1202 H 102.616 -5.7183 -2.02719 0
M  V30 1203 H 101.355 -4.45376 -1.98725 0
M  V30 1204 H 100.36 -5.49758 0.0676979 0
M  V30 1205 H 101.585 -6.79099 0.00891991 0
M  V30 1206 H 99.531 -6.19601 -2.15478 0
M  V30 1207 H 99.448 -7.49254 -1.00766 0
M  V30 1208 H 100.716 -7.47906 -2.19676 0
M  V30 1209 N 104.945 -0.338344 -1.53925 0
M  V30 1210 C 106.361 0.0137736 -1.59594 0
M  V30 1211 C 106.561 1.49186 -1.35447 0
M  V30 1212 O 105.617 2.24987 -1.14616 0
M  V30 1213 C 106.93 -0.41773 -2.97784 0
M  V30 1214 C 108.478 -0.369633 -3.1081 0
M  V30 1215 C 108.953 -0.776524 -4.51369 0
M  V30 1216 N 110.444 -0.730506 -4.57403 0
M  V30 1217 C 111.179 -1.01736 -5.64303 0
M  V30 1218 N 110.675 -1.3721 -6.79077 0
M  V30 1219 N 112.468 -0.941942 -5.54151 0
M  V30 1220 H 104.619 -1.3012 -1.67876 0
M  V30 1221 H 106.882 -0.530082 -0.78595 0
M  V30 1222 H 106.588 -1.44811 -3.20504 0
M  V30 1223 H 106.462 0.209729 -3.76616 0
M  V30 1224 H 108.849 0.651568 -2.87817 0
M  V30 1225 H 108.93 -1.03223 -2.34049 0
M  V30 1226 H 108.574 -1.79571 -4.75096 0
M  V30 1227 H 108.504 -0.0914649 -5.26521 0
M  V30 1228 H 110.995 -0.468783 -3.74981 0
M  V30 1229 H 111.308 -1.57597 -7.5656 0
M  V30 1230 H 109.653 -1.4105 -6.80536 0
M  V30 1231 H 112.844 -0.664184 -4.63364 0
M  V30 1232 H 113.017 -1.16884 -6.37371 0
M  V30 1233 N 106.423 1.57458 -0.0668435 0
M  V30 1234 C 107.37 2.12439 0.902122 0
M  V30 1235 C 108.34 1.03565 1.2986 0
M  V30 1236 O 109.525 1.312 1.38532 0
M  V30 1237 C 106.665 2.6865 2.16614 0
M  V30 1238 C 105.778 3.91663 1.82274 0
M  V30 1239 C 104.913 4.36134 3.0325 0
M  V30 1240 C 103.952 5.51808 2.64904 0
M  V30 1241 N 103.089 5.9126 3.78624 0
M  V30 1242 H 107.929 2.94934 0.426382 0
M  V30 1243 H 105.466 1.4575 0.198819 0
M  V30 1244 H 107.424 2.99346 2.90599 0
M  V30 1245 H 106.054 1.88928 2.61737 0
M  V30 1246 H 105.106 3.6746 0.983719 0
M  V30 1247 H 106.418 4.75693 1.50059 0
M  V30 1248 H 105.572 4.68465 3.85519 0
M  V30 1249 H 104.311 3.50948 3.38655 0
M  V30 1250 H 103.316 5.19133 1.81055 0
M  V30 1251 H 104.541 6.38722 2.30675 0
M  V30 1252 H 102.487 5.09024 4.138 0
M  V30 1253 H 102.404 6.70018 3.5016 0
M  V30 1254 H 103.672 6.28212 4.61486 0
M  V30 1255 N 107.901 -0.206675 1.56239 0
M  V30 1256 C 109.126 -0.949474 1.8439 0
M  V30 1257 C 109.551 -1.76549 0.649016 0
M  V30 1258 O 108.909 -1.76782 -0.402231 0
M  V30 1259 C 108.957 -1.83078 3.10668 0
M  V30 1260 O 108.061 -2.9281 2.90407 0
M  V30 1261 H 107.402 -0.268033 0.607499 0
M  V30 1262 H 109.932 -0.215488 2.03462 0
M  V30 1263 H 109.942 -2.2377 3.41161 0
M  V30 1264 H 108.617 -1.23112 3.97261 0
M  V30 1265 H 107.194 -2.55956 2.71184 0
M  V30 1266 N 109.379 -1.50304 -0.473955 0
M  V30 1267 C 110.625 -1.62358 -1.22521 0
M  V30 1268 C 110.98 -0.318555 -1.89745 0
M  V30 1269 O 110.273 0.683315 -1.79001 0
M  V30 1270 C 110.467 -2.73938 -2.29549 0
M  V30 1271 C 110.296 -4.15165 -1.72825 0
M  V30 1272 C 109.066 -4.81604 -1.52924 0
M  V30 1273 C 111.264 -4.99503 -1.22481 0
M  V30 1274 N 109.246 -6.07056 -0.91413 0
M  V30 1275 C 110.617 -6.15655 -0.732743 0
M  V30 1276 C 112.672 -4.85299 -1.11308 0
M  V30 1277 C 111.375 -7.19164 -0.139976 0
M  V30 1278 C 113.401 -5.88982 -0.534258 0
M  V30 1279 C 112.763 -7.0438 -0.0525562 0
M  V30 1280 H 108.862 -0.648286 -0.437321 0
M  V30 1281 H 111.446 -1.87413 -0.527692 0
M  V30 1282 H 109.617 -2.50611 -2.9673 0
M  V30 1283 H 111.349 -2.75366 -2.96573 0
M  V30 1284 H 108.104 -4.3885 -1.78067 0
M  V30 1285 H 108.528 -6.74108 -0.625071 0
M  V30 1286 H 113.17 -3.96369 -1.47144 0
M  V30 1287 H 110.888 -8.07771 0.230591 0
M  V30 1288 H 114.474 -5.80055 -0.450219 0
M  V30 1289 H 113.354 -7.83238 0.388324 0
M  V30 1290 N 110.857 0.726932 -1.39834 0
M  V30 1291 C 111.79 1.8501 -1.33592 0
M  V30 1292 C 112.768 1.61262 -0.208191 0
M  V30 1293 O 113.952 1.84422 -0.389981 0
M  V30 1294 C 111.079 3.21143 -1.07633 0
M  V30 1295 C 110.125 3.63737 -2.22705 0
M  V30 1296 S 110.958 3.72167 -3.85035 0
M  V30 1297 C 112.114 5.11077 -3.61318 0
M  V30 1298 H 112.347 1.90022 -2.28646 0
M  V30 1299 H 109.88 0.892595 -1.25985 0
M  V30 1300 H 111.838 3.99747 -0.933415 0
M  V30 1301 H 110.499 3.13776 -0.142526 0
M  V30 1302 H 109.692 4.62551 -2.00155 0
M  V30 1303 H 109.294 2.9236 -2.33242 0
M  V30 1304 H 111.586 5.97656 -3.19083 0
M  V30 1305 H 112.529 5.38658 -4.59623 0
M  V30 1306 H 112.937 4.81135 -2.95245 0
M  V30 1307 N 112.336 1.25143 0.95797 0
M  V30 1308 C 113.561 1.12521 1.74223 0
M  V30 1309 C 113.986 -0.317402 1.85403 0
M  V30 1310 O 113.344 -1.2299 1.33204 0
M  V30 1311 C 113.392 1.78062 3.1357 0
M  V30 1312 O 112.496 1.058 3.98598 0
M  V30 1313 H 111.837 0.39304 0.535178 0
M  V30 1314 H 114.367 1.65641 1.201 0
M  V30 1315 H 114.377 1.84213 3.64046 0
M  V30 1316 H 113.052 2.83021 3.04749 0
M  V30 1317 H 111.629 1.07506 3.57067 0
M  V30 1318 N 113.814 -1.1601 1.06675 0
M  V30 1319 C 114.761 -2.20525 0.680967 0
M  V30 1320 C 115.731 -1.62904 -0.324283 0
M  V30 1321 O 116.916 -1.89615 -0.212294 0
M  V30 1322 C 114.056 -3.45013 0.0776551 0
M  V30 1323 C 113.169 -4.16863 1.13355 0
M  V30 1324 C 112.304 -5.2888 0.49597 0
M  V30 1325 C 111.343 -5.92537 1.53513 0
M  V30 1326 N 110.48 -6.96038 0.920631 0
M  V30 1327 H 115.32 -2.52876 1.57663 0
M  V30 1328 H 112.857 -1.24199 0.788223 0
M  V30 1329 H 114.815 -4.16193 -0.289704 0
M  V30 1330 H 113.445 -3.132 -0.781393 0
M  V30 1331 H 112.497 -3.44248 1.61857 0
M  V30 1332 H 113.809 -4.60294 1.92174 0
M  V30 1333 H 112.963 -6.06653 0.0758604 0
M  V30 1334 H 111.702 -4.86622 -0.324062 0
M  V30 1335 H 110.707 -5.13482 1.9651 0
M  V30 1336 H 111.932 -6.36873 2.35733 0
M  V30 1337 H 109.878 -6.55888 0.12138 0
M  V30 1338 H 109.795 -7.3786 1.64616 0
M  V30 1339 H 111.063 -7.77725 0.525795 0
M  V30 1340 N 115.292 -0.849877 -1.32721 0
M  V30 1341 C 116.538 -0.451591 -1.97708 0
M  V30 1342 C 116.871 0.989175 -1.6712 0
M  V30 1343 O 116.146 1.69334 -0.956891 0
M  V30 1344 C 116.429 -0.685598 -3.53513 0
M  V30 1345 C 116.282 -2.17444 -3.93749 0
M  V30 1346 C 117.601 -0.138874 -4.39881 0
M  V30 1347 H 114.72 -0.16555 -0.718166 0
M  V30 1348 H 117.362 -1.06742 -1.57182 0
M  V30 1349 H 115.512 -0.161416 -3.88165 0
M  V30 1350 H 117.184 -2.76433 -3.693 0
M  V30 1351 H 115.427 -2.65476 -3.43081 0
M  V30 1352 H 116.098 -2.28888 -5.02309 0
M  V30 1353 H 118.574 -0.587068 -4.11938 0
M  V30 1354 H 117.45 -0.332213 -5.47894 0
M  V30 1355 H 117.711 0.95806 -4.31594 0
M  V30 1356 N 116.77 1.45427 -0.607355 0
M  V30 1357 C 118.017 2.02241 -0.102455 0
M  V30 1358 C 118.345 1.4758 1.26691 0
M  V30 1359 O 117.6 0.640468 1.84923 0
M  V30 1360 C 117.899 3.57398 -0.0129263 0
M  V30 1361 C 117.565 4.3121 -1.31792 0
M  V30 1362 C 116.227 4.51092 -1.67539 0
M  V30 1363 C 118.579 4.73401 -2.18039 0
M  V30 1364 C 115.907 5.10422 -2.89285 0
M  V30 1365 C 118.259 5.34078 -3.39034 0
M  V30 1366 C 116.923 5.52184 -3.75033 0
M  V30 1367 H 116.193 0.740051 -0.037491 0
M  V30 1368 H 118.84 1.74494 -0.788926 0
M  V30 1369 H 117.145 3.84421 0.756806 0
M  V30 1370 H 118.842 3.99061 0.393881 0
M  V30 1371 H 115.432 4.16047 -1.02968 0
M  V30 1372 H 119.616 4.57774 -1.91721 0
M  V30 1373 H 114.872 5.22629 -3.17283 0
M  V30 1374 H 119.046 5.65724 -4.06115 0
M  V30 1375 H 116.673 5.97925 -4.69457 0
M  V30 1376 N 118.248 0.346503 1.53744 0
M  V30 1377 C 119.473 -0.253074 2.0585 0
M  V30 1378 C 119.898 -1.43202 1.21962 0
M  V30 1379 O 119.256 -1.79783 0.234073 0
M  V30 1380 C 119.304 -0.643193 3.54817 0
M  V30 1381 O 118.408 -1.74286 3.73762 0
M  V30 1382 H 117.749 -0.0413583 0.662711 0
M  V30 1383 H 120.279 0.501574 1.98357 0
M  V30 1384 H 120.289 -0.919526 3.97503 0
M  V30 1385 H 118.964 0.218966 4.15323 0
M  V30 1386 H 117.541 -1.46356 3.42979 0
M  V30 1387 N 119.726 -1.57421 0.075193 0
M  V30 1388 C 120.974 -1.93236 -0.591974 0
M  V30 1389 C 121.295 -0.956241 -1.69944 0
M  V30 1390 O 120.565 -0.00494792 -1.95899 0
M  V30 1391 H 119.145 -0.713355 -0.22166 0
M  V30 1392 H 121.807 -1.9444 0.133848 0
M  V30 1393 H 120.903 -2.95131 -1.01509 0
M  V30 1394 N 121.204 0.198386 -1.56346 0
M  V30 1395 C 122.151 1.24589 -1.94284 0
M  V30 1396 C 123.121 1.454 -0.802997 0
M  V30 1397 O 124.306 1.58588 -1.06087 0
M  V30 1398 C 121.446 2.58631 -2.28482 0
M  V30 1399 C 120.559 2.45426 -3.55514 0
M  V30 1400 C 119.694 3.7215 -3.79049 0
M  V30 1401 C 118.733 3.53763 -4.99518 0
M  V30 1402 N 117.87 4.72491 -5.19323 0
M  V30 1403 H 122.71 0.915356 -2.83593 0
M  V30 1404 H 120.247 0.440629 -1.40346 0
M  V30 1405 H 122.205 3.3672 -2.46324 0
M  V30 1406 H 120.835 2.89734 -1.42317 0
M  V30 1407 H 119.887 1.58652 -3.45737 0
M  V30 1408 H 121.199 2.27772 -4.43758 0
M  V30 1409 H 120.353 4.58679 -3.97113 0
M  V30 1410 H 119.092 3.92754 -2.89129 0
M  V30 1411 H 118.097 2.65619 -4.8138 0
M  V30 1412 H 119.322 3.34607 -5.90944 0
M  V30 1413 H 117.268 4.93365 -4.3235 0
M  V30 1414 H 117.185 4.5765 -6.01741 0
M  V30 1415 H 118.453 5.6038 -5.41843 0
M  V30 1416 N 122.682 1.50554 0.465978 0
M  V30 1417 C 124.098 1.38093 0.800154 0
M  V30 1418 C 124.298 0.440988 1.96615 0
M  V30 1419 O 123.354 -0.114499 2.5224 0
M  V30 1420 C 124.667 2.79565 1.10742 0
M  V30 1421 C 126.215 2.88516 1.21357 0
M  V30 1422 C 126.69 4.30833 1.55393 0
M  V30 1423 N 128.181 4.33807 1.62375 0
M  V30 1424 C 128.916 5.40927 1.90225 0
M  V30 1425 N 128.412 6.58247 2.16062 0
M  V30 1426 N 130.205 5.28376 1.9177 0
M  V30 1427 H 122.356 2.10237 -0.302366 0
M  V30 1428 H 124.619 0.945203 -0.0727746 0
M  V30 1429 H 124.325 3.50208 0.323661 0
M  V30 1430 H 124.199 3.17125 2.04234 0
M  V30 1431 H 126.586 2.1809 1.98799 0
M  V30 1432 H 126.667 2.54492 0.258321 0
M  V30 1433 H 126.311 5.01799 0.784889 0
M  V30 1434 H 126.241 4.62347 2.52076 0
M  V30 1435 H 128.732 3.49212 1.44427 0
M  V30 1436 H 129.045 7.3569 2.36601 0
M  V30 1437 H 127.39 6.61413 2.13444 0
M  V30 1438 H 130.581 4.35715 1.71085 0
M  V30 1439 H 130.754 6.11944 2.13139 0
M  V30 1440 N 124.16 -0.719506 1.40217 0
M  V30 1441 C 125.09 -1.8465 1.42922 0
M  V30 1442 C 126.071 -1.67599 0.29062 0
M  V30 1443 O 127.256 -1.87688 0.498677 0
M  V30 1444 C 124.386 -3.22565 1.28722 0
M  V30 1445 C 123.34 -3.54281 2.40144 0
M  V30 1446 C 122.666 -4.91298 2.11023 0
M  V30 1447 C 123.966 -3.55676 3.82481 0
M  V30 1448 H 125.66 -1.82644 2.37237 0
M  V30 1449 H 123.206 -0.877305 1.1419 0
M  V30 1450 H 125.159 -4.01095 1.29232 0
M  V30 1451 H 123.883 -3.25137 0.308811 0
M  V30 1452 H 122.542 -2.78088 2.38877 0
M  V30 1453 H 122.19 -4.90468 1.11582 0
M  V30 1454 H 121.89 -5.13485 2.8567 0
M  V30 1455 H 123.414 -5.72166 2.13209 0
M  V30 1456 H 124.828 -4.24254 3.85592 0
M  V30 1457 H 123.225 -3.89388 4.56614 0
M  V30 1458 H 124.295 -2.55144 4.12346 0
M  V30 1459 N 125.638 -1.25649 -0.95132 0
M  V30 1460 C 126.548 -1.08073 -2.08224 0
M  V30 1461 C 127.564 -0.0169666 -1.73992 0
M  V30 1462 O 128.74 -0.218593 -2.0021 0
M  V30 1463 C 125.805 -0.704922 -3.39458 0
M  V30 1464 C 124.866 -1.84699 -3.87537 0
M  V30 1465 C 124.099 -1.48902 -5.12508 0
M  V30 1466 O 124.322 -0.386156 -5.69091 0
M  V30 1467 O 123.256 -2.32033 -5.55378 0
M  V30 1468 H 127.082 -2.02924 -2.25954 0
M  V30 1469 H 124.667 -1.04618 -1.06656 0
M  V30 1470 H 126.549 -0.507609 -4.18332 0
M  V30 1471 H 125.224 0.214291 -3.2299 0
M  V30 1472 H 124.131 -2.09919 -3.09653 0
M  V30 1473 H 125.464 -2.74557 -4.08509 0
M  V30 1474 N 127.117 1.15442 -1.07289 0
M  V30 1475 C 128.08 2.18358 -0.696591 0
M  V30 1476 C 129.08 1.58637 0.262837 0
M  V30 1477 O 130.27 1.74145 0.0438809 0
M  V30 1478 C 127.402 3.4089 -0.0266151 0
M  V30 1479 H 128.595 2.53162 -1.60776 0
M  V30 1480 H 126.148 1.29893 -0.869342 0
M  V30 1481 H 126.883 3.11653 0.896822 0
M  V30 1482 H 126.668 3.85495 -0.716657 0
M  V30 1483 H 128.158 4.17009 0.222028 0
M  V30 1484 N 128.595 0.856903 1.32268 0
M  V30 1485 C 129.505 0.306131 2.32594 0
M  V30 1486 C 130.521 -0.577209 1.64147 0
M  V30 1487 O 131.697 -0.477043 1.95669 0
M  V30 1488 C 128.762 -0.494561 3.43154 0
M  V30 1489 C 127.823 0.415186 4.27288 0
M  V30 1490 C 127.056 -0.347387 5.32568 0
M  V30 1491 O 127.279 -1.57708 5.48165 0
M  V30 1492 O 126.213 0.287982 6.01211 0
M  V30 1493 H 130.039 1.13737 2.81598 0
M  V30 1494 H 127.624 0.619902 1.35932 0
M  V30 1495 H 129.506 -0.948944 4.10576 0
M  V30 1496 H 128.181 -1.30257 2.96336 0
M  V30 1497 H 127.088 0.917793 3.62667 0
M  V30 1498 H 128.421 1.18844 4.77637 0
M  V30 1499 N 130.073 -1.45103 0.615059 0
M  V30 1500 C 131.32 -2.02183 0.113179 0
M  V30 1501 C 131.648 -1.48249 -1.25906 0
M  V30 1502 O 130.903 -0.650265 -1.84581 0
M  V30 1503 C 131.202 -3.57386 0.0318797 0
M  V30 1504 C 130.868 -4.30505 1.34077 0
M  V30 1505 C 129.53 -4.50197 1.69929 0
M  V30 1506 C 131.882 -4.72238 2.20546 0
M  V30 1507 C 129.21 -5.08881 2.91988 0
M  V30 1508 C 131.562 -5.32272 3.41861 0
M  V30 1509 C 130.226 -5.50187 3.77956 0
M  V30 1510 H 129.496 -0.739842 0.0414151 0
M  V30 1511 H 132.143 -1.74073 0.798168 0
M  V30 1512 H 130.448 -3.84817 -0.736409 0
M  V30 1513 H 132.145 -3.99264 -0.372712 0
M  V30 1514 H 128.735 -4.15496 1.05173 0
M  V30 1515 H 132.919 -4.56751 1.94146 0
M  V30 1516 H 128.175 -5.20939 3.2005 0
M  V30 1517 H 132.349 -5.63563 4.09109 0
M  V30 1518 H 129.976 -5.95427 4.72622 0
M  V30 1519 N 131.551 -0.354651 -1.53558 0
M  V30 1520 C 132.962 0.126902 -1.86268 0
M  V30 1521 C 133.313 1.49075 -1.27558 0
M  V30 1522 O 132.438 2.08105 -0.5934 0
M  V30 1523 C 133.033 0.237046 -3.3797 0
M  V30 1524 C 131.592 0.662842 -3.70518 0
M  V30 1525 C 130.739 -0.196652 -2.76602 0
M  V30 1526 H 133.69 -0.573849 -1.47962 0
M  V30 1527 H 133.711 1.06259 -3.65362 0
M  V30 1528 H 133.223 -0.755725 -3.80671 0
M  V30 1529 H 131.324 1.66424 -3.33367 0
M  V30 1530 H 131.437 0.445034 -4.77029 0
M  V30 1531 H 129.801 0.332763 -2.52517 0
M  V30 1532 H 130.584 -1.18676 -3.22135 0
M  V30 1533 N 133.029 1.57378 -0.0835403 0
M  V30 1534 C 134.44 1.81261 0.447358 0
M  V30 1535 C 134.791 0.998331 1.68902 0
M  V30 1536 O 133.916 0.224282 2.15235 0
M  V30 1537 C 134.511 3.28767 0.818386 0
M  V30 1538 C 133.07 3.53455 1.29409 0
M  V30 1539 C 132.217 2.75831 0.285024 0
M  V30 1540 H 135.168 1.5566 -0.309115 0
M  V30 1541 H 135.189 3.41459 1.67887 0
M  V30 1542 H 134.701 3.88006 -0.0855019 0
M  V30 1543 H 132.802 2.99534 2.21608 0
M  V30 1544 H 132.915 4.62128 1.2639 0
M  V30 1545 H 131.279 2.42947 0.764767 0
M  V30 1546 H 132.062 3.37813 -0.611341 0
M  V30 1547 N 134.507 -0.190092 1.56449 0
M  V30 1548 C 135.457 -1.23977 1.91347 0
M  V30 1549 C 136.441 -1.40747 0.779693 0
M  V30 1550 O 137.633 -1.43033 1.04262 0
M  V30 1551 C 134.762 -2.58347 2.26079 0
M  V30 1552 C 133.848 -2.4535 3.45925 0
M  V30 1553 N 134.239 -2.02039 4.63696 0
M  V30 1554 C 132.537 -2.76229 3.50162 0
M  V30 1555 C 133.238 -2.01053 5.4585 0
M  V30 1556 N 132.214 -2.42747 4.8639 0
M  V30 1557 H 136.016 -0.896318 2.79899 0
M  V30 1558 H 133.53 -0.398496 1.57435 0
M  V30 1559 H 135.527 -3.34173 2.49267 0
M  V30 1560 H 134.187 -2.93512 1.38856 0
M  V30 1561 H 135.198 -1.7267 4.88268 0
M  V30 1562 H 131.875 -3.15556 2.73369 0
M  V30 1563 H 133.265 -1.69426 6.50188 0
M  V30 1564 N 135.985 -1.50799 -0.457987 0
M  V30 1565 C 136.935 -1.67003 -1.55222 0
M  V30 1566 C 137.919 -0.52434 -1.52117 0
M  V30 1567 O 139.111 -0.779345 -1.58919 0
M  V30 1568 C 136.24 -1.77956 -2.93576 0
M  V30 1569 C 135.326 -2.98243 -3.01516 0
M  V30 1570 N 135.717 -4.21732 -2.79241 0
M  V30 1571 C 134.015 -2.97072 -3.32662 0
M  V30 1572 C 134.716 -5.02817 -2.92489 0
M  V30 1573 N 133.692 -4.37038 -3.23262 0
M  V30 1574 H 137.494 -2.60163 -1.36721 0
M  V30 1575 H 135.008 -1.48163 -0.664952 0
M  V30 1576 H 137.005 -1.87671 -3.72271 0
M  V30 1577 H 135.665 -0.859634 -3.13114 0
M  V30 1578 H 136.676 -4.51016 -2.54567 0
M  V30 1579 H 133.353 -2.14631 -3.58106 0
M  V30 1580 H 134.743 -6.11054 -2.79396 0
M  V30 1581 N 137.463 0.71206 -1.40597 0
M  V30 1582 C 138.688 1.50617 -1.42581 0
M  V30 1583 C 139.113 1.88079 -0.0282102 0
M  V30 1584 O 138.471 1.53511 0.964579 0
M  V30 1585 C 138.519 2.7557 -2.3258 0
M  V30 1586 O 137.623 3.72414 -1.77148 0
M  V30 1587 H 136.964 0.453966 -0.484573 0
M  V30 1588 H 139.494 0.876649 -1.84868 0
M  V30 1589 H 139.504 3.2406 -2.47889 0
M  V30 1590 H 138.179 2.47639 -3.34138 0
M  V30 1591 H 136.756 3.31276 -1.71204 0
M  V30 1592 N 138.941 1.26152 0.944643 0
M  V30 1593 C 139.873 1.03199 2.04652 0
M  V30 1594 C 140.886 -0.00642356 1.62799 0
M  V30 1595 O 142.075 0.233263 1.76969 0
M  V30 1596 C 139.175 0.540111 3.34568 0
M  V30 1597 C 138.348 1.64697 4.05208 0
M  V30 1598 C 137.407 1.15374 5.13396 0
M  V30 1599 O 136.433 1.85013 5.38293 0
M  V30 1600 N 137.635 0.00031529 5.805 0
M  V30 1601 H 140.4 1.9808 2.2491 0
M  V30 1602 H 137.961 1.17491 1.11389 0
M  V30 1603 H 139.953 0.194401 4.04233 0
M  V30 1604 H 138.523 -0.315021 3.11009 0
M  V30 1605 H 137.743 2.16379 3.29506 0
M  V30 1606 H 139.031 2.3903 4.49157 0
M  V30 1607 H 138.429 -0.581336 5.62705 0
M  V30 1608 H 136.986 -0.286346 6.51171 0
M  V30 1609 N 140.419 -1.14872 1.07899 0
M  V30 1610 C 141.644 -1.90202 0.826926 0
M  V30 1611 C 142.069 -1.77774 -0.614664 0
M  V30 1612 O 141.427 -1.11431 -1.43013 0
M  V30 1613 C 141.475 -3.38352 1.24702 0
M  V30 1614 O 140.579 -4.10497 0.39575 0
M  V30 1615 H 139.92 -0.591968 0.300782 0
M  V30 1616 H 142.45 -1.45437 1.43907 0
M  V30 1617 H 142.46 -3.89156 1.22563 0
M  V30 1618 H 141.135 -3.46715 2.29698 0
M  V30 1619 H 139.712 -3.69796 0.480117 0
M  V30 1620 N 141.898 -0.863906 -1.31812 0
M  V30 1621 C 143.126 -0.486111 -2.01108 0
M  V30 1622 C 143.541 0.919755 -1.64882 0
M  V30 1623 O 142.898 1.60162 -0.874893 0
M  V30 1624 C 142.949 -0.626435 -3.56031 0
M  V30 1625 O 142.67 -1.97693 -3.90959 0
M  V30 1626 C 144.171 -0.248857 -4.42601 0
M  V30 1627 H 141.391 -0.190052 -0.643523 0
M  V30 1628 H 143.935 -1.1634 -1.68182 0
M  V30 1629 H 142.09 0.00322717 -3.874 0
M  V30 1630 H 142.504 -1.98034 -4.85678 0
M  V30 1631 H 143.978 -0.398016 -5.50563 0
M  V30 1632 H 144.455 0.811489 -4.31638 0
M  V30 1633 H 145.061 -0.853971 -4.16638 0
M  V30 1634 N 143.376 1.44774 -0.622745 0
M  V30 1635 C 144.623 2.02121 -0.1239 0
M  V30 1636 C 144.951 1.48915 1.25118 0
M  V30 1637 O 144.206 0.660045 1.84233 0
M  V30 1638 C 144.505 3.57364 -0.0508323 0
M  V30 1639 C 144.171 4.29787 -1.36358 0
M  V30 1640 C 142.833 4.4929 -1.72314 0
M  V30 1641 C 145.185 4.71062 -2.23048 0
M  V30 1642 C 142.513 5.07325 -2.94682 0
M  V30 1643 C 144.865 5.30452 -3.44679 0
M  V30 1644 C 143.529 5.48175 -3.80868 0
M  V30 1645 H 142.799 0.739612 -0.0453381 0
M  V30 1646 H 145.446 1.73648 -0.807389 0
M  V30 1647 H 143.751 3.85202 0.715991 0
M  V30 1648 H 145.448 3.99456 0.351533 0
M  V30 1649 H 142.038 4.14932 -1.07375 0
M  V30 1650 H 146.222 4.55715 -1.96565 0
M  V30 1651 H 141.478 5.19235 -3.22809 0
M  V30 1652 H 145.652 5.61385 -4.12092 0
M  V30 1653 H 143.279 5.92912 -4.75773 0
M  V30 1654 N 144.854 0.36279 1.53368 0
M  V30 1655 C 146.27 0.0116182 1.59596 0
M  V30 1656 C 146.47 -1.47012 1.37803 0
M  V30 1657 O 145.526 -2.23136 1.18181 0
M  V30 1658 C 146.839 0.465052 2.97082 0
M  V30 1659 C 148.387 0.419033 3.10182 0
M  V30 1660 C 148.862 0.848235 4.50077 0
M  V30 1661 N 150.353 0.803183 4.56183 0
M  V30 1662 C 151.088 1.107 5.62613 0
M  V30 1663 N 150.584 1.47996 6.76808 0
M  V30 1664 N 152.377 1.02998 5.52583 0
M  V30 1665 H 144.528 1.32775 1.65785 0
M  V30 1666 H 146.791 0.542518 0.777417 0
M  V30 1667 H 146.497 1.49892 3.18159 0
M  V30 1668 H 146.371 -0.149786 3.76902 0
M  V30 1669 H 148.758 -0.605696 2.88817 0
M  V30 1670 H 148.839 1.06933 2.32377 0
M  V30 1671 H 148.483 1.87107 4.7218 0
M  V30 1672 H 148.413 0.175218 5.26308 0
M  V30 1673 H 150.904 0.52838 3.74188 0
M  V30 1674 H 151.217 1.69613 7.53957 0
M  V30 1675 H 149.562 1.51859 6.78206 0
M  V30 1676 H 152.753 0.737817 4.62249 0
M  V30 1677 H 152.926 1.2701 6.35431 0
M  V30 1678 N 146.332 -1.57332 0.0918853 0
M  V30 1679 C 147.279 -2.13847 -0.868211 0
M  V30 1680 C 148.249 -1.05618 -1.28196 0
M  V30 1681 O 149.434 -1.33387 -1.36427 0
M  V30 1682 C 146.574 -2.72062 -2.12312 0
M  V30 1683 C 145.687 -3.94514 -1.7602 0
M  V30 1684 C 144.822 -4.40903 -2.96273 0
M  V30 1685 C 143.861 -5.55953 -2.56092 0
M  V30 1686 N 142.998 -5.97209 -3.69169 0
M  V30 1687 H 147.838 -2.95575 -0.379406 0
M  V30 1688 H 145.375 -1.46048 -0.175606 0
M  V30 1689 H 147.333 -3.03931 -2.858 0
M  V30 1690 H 145.963 -1.93068 -2.58698 0
M  V30 1691 H 145.015 -3.68979 -0.925135 0
M  V30 1692 H 146.327 -4.7802 -1.42472 0
M  V30 1693 H 145.481 -4.74539 -3.78018 0
M  V30 1694 H 144.22 -3.56291 -3.33029 0
M  V30 1695 H 143.225 -5.21948 -1.72773 0
M  V30 1696 H 144.45 -6.42311 -2.20484 0
M  V30 1697 H 142.396 -5.15543 -4.05649 0
M  V30 1698 H 142.313 -6.75504 -3.39456 0
M  V30 1699 H 143.581 -6.35475 -4.51434 0
M  V30 1700 N 147.81 0.181792 -1.56548 0
M  V30 1701 C 149.038 0.915947 -1.85521 0
M  V30 1702 C 149.453 1.76282 -0.676016 0
M  V30 1703 O 148.81 1.79012 0.355077 0
M  V30 1704 C 148.861 1.80126 -3.13427 0
M  V30 1705 O 148.582 0.988562 -4.26801 0
M  V30 1706 C 150.083 2.64597 -3.55673 0
M  V30 1707 H 147.303 0.26661 -0.61576 0
M  V30 1708 H 149.847 0.185039 -2.03661 0
M  V30 1709 H 148.002 2.48563 -2.97145 0
M  V30 1710 H 148.416 1.59308 -4.99721 0
M  V30 1711 H 149.89 3.2235 -4.48101 0
M  V30 1712 H 150.367 3.38958 -2.79292 0
M  V30 1713 H 150.973 2.0151 -3.74532 0
M  V30 1714 N 149.288 1.51039 0.449983 0
M  V30 1715 C 150.513 1.6715 1.22783 0
M  V30 1716 C 150.938 0.363081 1.84563 0
M  V30 1717 O 150.296 -0.675433 1.68249 0
M  V30 1718 C 150.344 2.77985 2.29689 0
M  V30 1719 O 149.448 2.40707 3.34864 0
M  V30 1720 H 148.789 0.557746 0.360299 0
M  V30 1721 H 151.319 1.97535 0.533005 0
M  V30 1722 H 151.329 3.01693 2.74673 0
M  V30 1723 H 150.004 3.72935 1.84098 0
M  V30 1724 H 148.581 2.27523 2.95445 0
M  V30 1725 N 150.766 -0.704594 1.40972 0
M  V30 1726 C 152.177 -1.28418 1.3552 0
M  V30 1727 C 152.528 -1.96171 0.0339434 0
M  V30 1728 O 151.653 -1.98231 -0.867944 0
M  V30 1729 C 152.248 -2.33528 2.45459 0
M  V30 1730 C 150.807 -2.87085 2.43433 0
M  V30 1731 C 149.954 -1.61007 2.2577 0
M  V30 1732 H 152.905 -0.499963 1.50619 0
M  V30 1733 H 152.926 -3.14619 2.13998 0
M  V30 1734 H 152.438 -1.84187 3.41609 0
M  V30 1735 H 150.539 -3.40626 1.51013 0
M  V30 1736 H 150.652 -3.3813 3.39419 0
M  V30 1737 H 149.016 -1.86482 1.73483 0
M  V30 1738 H 149.799 -1.13675 3.23933 0
M  V30 1739 N 152.244 -1.26651 -0.937939 0
M  V30 1740 C 153.207 -1.08546 -2.01867 0
M  V30 1741 C 154.207 -0.0327327 -1.60767 0
M  V30 1742 O 155.397 -0.276427 -1.71993 0
M  V30 1743 C 152.529 -0.651711 -3.34613 0
M  V30 1744 H 153.722 -2.04502 -2.1936 0
M  V30 1745 H 151.275 -1.09294 -1.11734 0
M  V30 1746 H 152.01 0.309696 -3.22818 0
M  V30 1747 H 151.795 -1.41189 -3.65798 0
M  V30 1748 H 153.285 -0.546973 -4.14002 0
M  V30 1749 N 153.722 1.14298 -1.08507 0
M  V30 1750 C 155.133 1.66926 -0.836227 0
M  V30 1751 C 155.484 1.85576 0.63686 0
M  V30 1752 O 154.609 1.56767 1.49175 0
M  V30 1753 C 155.204 3.03219 -1.51142 0
M  V30 1754 C 153.763 3.52876 -1.30979 0
M  V30 1755 C 152.91 2.2833 -1.57356 0
M  V30 1756 H 155.861 0.983491 -1.24552 0
M  V30 1757 H 155.882 3.68726 -0.939211 0
M  V30 1758 H 155.394 2.89612 -2.58353 0
M  V30 1759 H 153.495 3.71703 -0.258429 0
M  V30 1760 H 153.608 4.33586 -2.03814 0
M  V30 1761 H 151.972 2.34454 -0.995164 0
M  V30 1762 H 152.755 2.17298 -2.65775 0
M  V30 1763 N 155.201 0.870884 1.31352 0
M  V30 1764 C 156.449 0.48132 1.96285 0
M  V30 1765 C 156.77 -0.969813 1.69173 0
M  V30 1766 O 156.04 -1.67998 1.00764 0
M  V30 1767 H 154.62 0.175002 0.726212 0
M  V30 1768 H 157.282 1.11087 1.60143 0
M  V30 1769 H 156.378 0.639825 3.05471 0
M  V30 1770 N 156.679 -1.44442 0.630414 0
M  V30 1771 C 157.927 -2.01653 0.134351 0
M  V30 1772 C 158.248 -1.49836 -1.24796 0
M  V30 1773 O 157.518 -0.701684 -1.82902 0
M  V30 1774 H 156.098 -0.74554 0.0466769 0
M  V30 1775 H 158.76 -1.76952 0.816955 0
M  V30 1776 H 157.856 -3.11935 0.101498 0
M  V30 1777 N 158.157 -0.370918 -1.53173 0
M  V30 1778 C 159.568 0.107139 -1.86392 0
M  V30 1779 C 159.919 1.47714 -1.29132 0
M  V30 1780 O 159.044 2.07464 -0.615439 0
M  V30 1781 C 159.639 0.201187 -3.38202 0
M  V30 1782 C 158.198 0.623507 -3.712 0
M  V30 1783 C 157.345 -0.225978 -2.76378 0
M  V30 1784 H 160.296 -0.58951 -1.47345 0
M  V30 1785 H 160.317 1.02377 -3.66468 0
M  V30 1786 H 159.829 -0.796058 -3.79848 0
M  V30 1787 H 157.93 1.62879 -3.35114 0
M  V30 1788 H 158.043 0.394414 -4.77474 0
M  V30 1789 H 156.407 0.305962 -2.52856 0
M  V30 1790 H 157.19 -1.22086 -3.20858 0
M  V30 1791 N 159.635 1.57281 -0.100228 0
M  V30 1792 C 160.598 2.13158 0.842398 0
M  V30 1793 C 161.598 1.06202 1.20738 0
M  V30 1794 O 162.788 1.32066 1.13597 0
M  V30 1795 C 159.92 2.65639 2.13655 0
M  V30 1796 H 161.113 2.97766 0.357114 0
M  V30 1797 H 158.666 1.5559 0.148823 0
M  V30 1798 H 159.401 1.84566 2.66657 0
M  V30 1799 H 159.186 3.43844 1.88451 0
M  V30 1800 H 160.676 3.08846 2.81077 0
M  V30 1801 N 161.113 -0.173488 1.56642 0
M  V30 1802 C 162.361 -0.888706 1.81512 0
M  V30 1803 C 162.682 -1.82875 0.676872 0
M  V30 1804 O 161.952 -1.93536 -0.303414 0
M  V30 1805 H 160.532 -0.331164 0.669582 0
M  V30 1806 H 163.194 -0.173823 1.94123 0
M  V30 1807 H 162.29 -1.46691 2.75478 0
M  V30 1808 N 162.591 -1.51276 -0.441967 0
M  V30 1809 C 163.501 -1.75092 -1.56141 0
M  V30 1810 C 164.517 -0.634963 -1.62001 0
M  V30 1811 O 165.693 -0.916686 -1.79329 0
M  V30 1812 C 162.758 -1.86666 -2.92158 0
M  V30 1813 C 161.819 -3.10506 -2.96453 0
M  V30 1814 C 161.052 -3.21519 -4.25982 0
M  V30 1815 O 161.275 -2.38586 -5.18105 0
M  V30 1816 O 160.209 -4.14465 -4.36466 0
M  V30 1817 H 164.035 -2.70044 -1.38961 0
M  V30 1818 H 161.62 -1.35722 -0.624499 0
M  V30 1819 H 163.502 -1.96292 -3.72891 0
M  V30 1820 H 162.177 -0.949014 -3.09476 0
M  V30 1821 H 161.084 -3.06363 -2.14692 0
M  V30 1822 H 162.417 -4.01945 -2.84079 0
M  V30 1823 N 164.069 0.697108 -1.41344 0
M  V30 1824 C 165.317 1.45426 -1.40341 0
M  V30 1825 C 165.638 1.94996 -0.0128787 0
M  V30 1826 O 164.908 1.71599 0.945027 0
M  V30 1827 H 163.488 0.539594 -0.516573 0
M  V30 1828 H 166.15 0.825201 -1.76569 0
M  V30 1829 H 165.246 2.31817 -2.08967 0
M  V30 1830 N 165.547 1.27147 0.931209 0
M  V30 1831 C 166.958 1.12044 1.49342 0
M  V30 1832 C 167.309 -0.295795 1.93957 0
M  V30 1833 O 166.434 -1.18835 1.80852 0
M  V30 1834 C 167.029 2.02781 2.71414 0
M  V30 1835 C 165.588 1.91794 3.2387 0
M  V30 1836 C 164.735 1.95543 1.96617 0
M  V30 1837 H 167.686 1.40091 0.745672 0
M  V30 1838 H 167.707 1.58156 3.46074 0
M  V30 1839 H 167.219 3.05848 2.38911 0
M  V30 1840 H 165.32 0.916992 3.6114 0
M  V30 1841 H 165.433 2.77852 3.90302 0
M  V30 1842 H 163.797 1.39722 2.12955 0
M  V30 1843 H 164.58 3.00259 1.66432 0
M  V30 1844 N 167.025 -1.13721 1.09112 0
M  V30 1845 C 167.955 -2.21148 0.749385 0
M  V30 1846 C 168.936 -1.6792 -0.271475 0
M  V30 1847 O 170.121 -1.93693 -0.140251 0
M  V30 1848 C 167.251 -3.46905 0.165659 0
M  V30 1849 C 166.205 -4.13203 1.11567 0
M  V30 1850 C 165.531 -5.33248 0.393809 0
M  V30 1851 C 166.831 -4.60912 2.45678 0
M  V30 1852 H 168.525 -2.4999 1.64758 0
M  V30 1853 H 166.071 -1.20156 0.793626 0
M  V30 1854 H 168.024 -4.21313 -0.085466 0
M  V30 1855 H 166.748 -3.17449 -0.767714 0
M  V30 1856 H 165.407 -3.40758 1.35202 0
M  V30 1857 H 165.055 -5.00054 -0.543599 0
M  V30 1858 H 164.755 -5.78552 1.02721 0
M  V30 1859 H 166.279 -6.10413 0.150908 0
M  V30 1860 H 167.693 -5.26759 2.26269 0
M  V30 1861 H 166.09 -5.16944 3.04776 0
M  V30 1862 H 167.16 -3.75603 3.06677 0
M  V30 1863 N 168.503 -0.877838 -1.30888 0
M  V30 1864 C 169.435 -0.296607 -2.27273 0
M  V30 1865 C 170.448 0.544799 -1.53414 0
M  V30 1866 O 171.637 0.365511 -1.74718 0
M  V30 1867 C 168.737 0.597481 -3.33592 0
M  V30 1868 C 167.91 -0.213251 -4.3688 0
M  V30 1869 C 166.969 0.610208 -5.2265 0
M  V30 1870 O 165.995 0.035441 -5.69189 0
M  V30 1871 N 167.197 1.92071 -5.47804 0
M  V30 1872 H 169.962 -1.12492 -2.77787 0
M  V30 1873 H 167.523 -0.740105 -1.43993 0
M  V30 1874 H 169.515 1.15425 -3.87891 0
M  V30 1875 H 168.085 1.32647 -2.83061 0
M  V30 1876 H 167.305 -0.951466 -3.82545 0
M  V30 1877 H 168.593 -0.769262 -5.02951 0
M  V30 1878 H 167.991 2.4107 -5.11763 0
M  V30 1879 H 166.548 2.42508 -6.05007 0
M  V30 1880 N 169.982 1.44106 -0.638065 0
M  V30 1881 C 171.207 2.0685 -0.150916 0
M  V30 1882 C 171.632 1.47417 1.16833 0
M  V30 1883 O 170.99 0.578264 1.71831 0
M  V30 1884 C 171.038 3.60555 -0.05708 0
M  V30 1885 O 170.142 4.00465 0.984972 0
M  V30 1886 H 169.483 0.658151 -0.0879399 0
M  V30 1887 H 172.013 1.84865 -0.876707 0
M  V30 1888 H 172.023 4.07789 0.131232 0
M  V30 1889 H 170.698 4.03193 -1.02021 0
M  V30 1890 H 169.275 3.64849 0.770672 0
M  V30 1891 N 171.46 0.379036 1.52974 0
M  V30 1892 C 172.39 -0.452706 2.29069 0
M  V30 1893 C 173.371 -1.07237 1.32039 0
M  V30 1894 O 174.556 -1.08708 1.60923 0
M  V30 1895 C 171.686 -1.5856 3.08992 0
M  V30 1896 C 170.64 -1.0925 4.13822 0
M  V30 1897 C 169.966 -2.31668 4.81907 0
M  V30 1898 C 171.266 -0.167702 5.22031 0
M  V30 1899 H 172.96 0.182181 2.98845 0
M  V30 1900 H 170.506 0.0890592 1.43724 0
M  V30 1901 H 172.459 -2.1742 3.6098 0
M  V30 1902 H 171.183 -2.24792 2.36931 0
M  V30 1903 H 169.842 -0.526494 3.628 0
M  V30 1904 H 169.49 -2.96386 4.06404 0
M  V30 1905 H 169.19 -1.9934 5.52754 0
M  V30 1906 H 170.714 -2.91189 5.36695 0
M  V30 1907 H 172.128 -0.664186 5.6944 0
M  V30 1908 H 170.525 0.0653265 6.00064 0
M  V30 1909 H 171.595 0.786347 4.78482 0
M  V30 1910 N 172.938 -1.57226 0.108567 0
M  V30 1911 C 174.166 -1.99179 -0.559954 0
M  V30 1912 C 174.581 -0.988022 -1.60884 0
M  V30 1913 O 173.938 0.0205512 -1.82488 0
M  V30 1914 C 173.989 -3.41159 -1.19552 0
M  V30 1915 O 173.71 -4.37694 -0.188577 0
M  V30 1916 C 175.211 -3.98188 -1.94837 0
M  V30 1917 H 172.431 -0.654228 -0.149088 0
M  V30 1918 H 174.975 -2.03598 0.19183 0
M  V30 1919 H 173.13 -3.37711 -1.89815 0
M  V30 1920 H 173.544 -5.20469 -0.649014 0
M  V30 1921 H 175.018 -4.99644 -2.34648 0
M  V30 1922 H 175.495 -3.3675 -2.81951 0
M  V30 1923 H 176.101 -4.0515 -1.2936 0
M  V30 1924 N 174.416 0.165178 -1.56732 0
M  V30 1925 C 175.656 0.887231 -1.8414 0
M  V30 1926 C 176.02 1.79159 -0.690353 0
M  V30 1927 O 177.221 2.55172 -0.845032 0
M  V30 1928 C 175.492 1.65674 -3.16681 0
M  V30 1929 S 177.051 2.42671 -3.6559 0
M  V30 1930 H 173.869 0.297042 -0.645978 0
M  V30 1931 H 176.471 0.148439 -1.94936 0
M  V30 1932 H 175.175 0.983507 -3.98441 0
M  V30 1933 H 174.706 2.43679 -3.08843 0
M  V30 1934 H 176.721 3.67499 -3.33406 0
M  V30 1935 N 175.894 1.51508 0.433938 0
M  V30 1936 C 176.824 1.76016 1.53429 0
M  V30 1937 C 177.805 0.610112 1.58782 0
M  V30 1938 O 178.99 0.853177 1.74455 0
M  V30 1939 C 176.12 1.88831 2.9148 0
M  V30 1940 C 175.074 3.04288 3.00987 0
M  V30 1941 C 174.4 3.0229 4.4105 0
M  V30 1942 C 175.7 4.44193 2.74754 0
M  V30 1943 H 177.394 2.68152 1.33171 0
M  V30 1944 H 174.94 1.29035 0.639214 0
M  V30 1945 H 176.893 2.04559 3.6842 0
M  V30 1946 H 175.617 0.933455 3.12976 0
M  V30 1947 H 174.276 2.8827 2.26486 0
M  V30 1948 H 173.924 2.04576 4.59519 0
M  V30 1949 H 173.624 3.79822 4.4834 0
M  V30 1950 H 175.148 3.20116 5.1996 0
M  V30 1951 H 176.562 4.60544 3.41426 0
M  V30 1952 H 174.959 5.23457 2.9345 0
M  V30 1953 H 176.029 4.53996 1.70339 0
M  V30 1954 N 177.372 -0.689602 1.41712 0
M  V30 1955 C 178.621 -1.44534 1.40686 0
M  V30 1956 C 178.934 -1.95588 0.0213352 0
M  V30 1957 O 180.14 -2.71271 -0.111534 0
M  V30 1958 C 178.596 -2.61387 2.47396 0
M  V30 1959 C 178.204 -2.17094 3.91885 0
M  V30 1960 C 179.948 -3.38986 2.55517 0
M  V30 1961 C 177.855 -3.3094 4.90135 0
M  V30 1962 H 176.785 -0.542925 0.52321 0
M  V30 1963 H 179.436 -0.748054 1.6756 0
M  V30 1964 H 177.818 -3.33412 2.13664 0
M  V30 1965 H 178.992 -1.52318 4.34897 0
M  V30 1966 H 177.307 -1.52473 3.8748 0
M  V30 1967 H 179.904 -4.23747 3.26102 0
M  V30 1968 H 180.247 -3.84578 1.59391 0
M  V30 1969 H 180.78 -2.74021 2.8837 0
M  V30 1970 H 177.519 -2.90355 5.87685 0
M  V30 1971 H 177.039 -3.94546 4.51767 0
M  V30 1972 H 178.718 -3.9663 5.11169 0
M  V30 1973 N 178.85 -1.27639 -0.924453 0
M  V30 1974 C 180.098 -1.13941 -1.66918 0
M  V30 1975 C 180.419 0.314589 -1.92446 0
M  V30 1976 O 179.689 1.21964 -1.53303 0
M  V30 1977 H 178.269 -0.418678 -0.618642 0
M  V30 1978 H 180.931 -1.60213 -1.10985 0
M  V30 1979 H 180.027 -1.67094 -2.63602 0
M  V30 1980 N 180.328 1.1314 -1.09713 0
M  V30 1981 C 181.238 2.22242 -0.751367 0
M  V30 1982 C 182.254 1.72224 0.247938 0
M  V30 1983 O 183.43 2.01205 0.0885463 0
M  V30 1984 C 180.495 3.46231 -0.180274 0
M  V30 1985 C 179.556 4.11125 -1.2359 0
M  V30 1986 C 178.789 5.29195 -0.691966 0
M  V30 1987 O 179.012 5.68342 0.48414 0
M  V30 1988 O 177.946 5.84214 -1.44838 0
M  V30 1989 H 181.772 2.54197 -1.66186 0
M  V30 1990 H 179.357 1.21331 -0.871735 0
M  V30 1991 H 181.239 4.21185 0.134739 0
M  V30 1992 H 179.914 3.1597 0.703185 0
M  V30 1993 H 178.821 3.37985 -1.60366 0
M  V30 1994 H 180.154 4.45524 -2.09211 0
M  V30 1995 N 181.806 0.884767 1.30421 0
M  V30 1996 C 182.753 0.349642 2.28136 0
M  V30 1997 C 183.723 -0.560061 1.56373 0
M  V30 1998 O 184.908 -0.488524 1.8444 0
M  V30 1999 C 182.048 -0.42999 3.42411 0
M  V30 2000 C 181.161 0.508907 4.28992 0
M  V30 2001 C 180.296 -0.286301 5.30428 0
M  V30 2002 C 179.335 0.648079 6.08659 0
M  V30 2003 N 178.472 -0.111792 7.02011 0
M  V30 2004 H 183.312 1.18807 2.73293 0
M  V30 2005 H 180.849 0.597231 1.3443 0
M  V30 2006 H 182.807 -0.897923 4.07423 0
M  V30 2007 H 181.437 -1.23299 2.98324 0
M  V30 2008 H 180.489 1.09533 3.64289 0
M  V30 2009 H 181.801 1.22475 4.8353 0
M  V30 2010 H 180.955 -0.816098 6.01186 0
M  V30 2011 H 179.694 -1.03536 4.76583 0
M  V30 2012 H 178.699 1.18951 5.36778 0
M  V30 2013 H 179.924 1.39623 6.64592 0
M  V30 2014 H 177.87 -0.843395 6.50556 0
M  V30 2015 H 177.787 0.544429 7.54037 0
M  V30 2016 H 179.055 -0.622339 7.77012 0
M  V30 2017 N 183.284 -1.43765 0.645699 0
M  V30 2018 C 184.561 -1.9541 0.0862963 0
M  V30 2019 C 184.941 -1.58725 -1.39175 0
M  V30 2020 O 184.289 -0.868581 -2.11348 0
M  V30 2021 C 184.499 -3.47488 0.324565 0
M  V30 2022 C 185.847 -4.24001 0.225497 0
M  V30 2023 O 186.871 -3.55274 0.256715 0
M  V30 2024 O 185.73 -5.46313 0.142801 0
M  V30 2025 H 182.824 -0.826882 -0.0139483 0
M  V30 2026 H 185.37 -1.53743 0.718415 0
M  V30 2027 H 184.142 -3.67289 1.3496 0
M  V30 2028 H 183.765 -3.96135 -0.340987 0
M  V30 2029 N 184.763 -0.387143 -1.52771 0
M  V30 2030 C 185.693 0.440551 -2.29306 0
M  V30 2031 C 186.674 1.06535 -1.32606 0
M  V30 2032 O 187.859 1.07853 -1.61497 0
M  V30 2033 C 184.989 1.56919 -3.09829 0
M  V30 2034 C 183.943 1.07054 -4.14395 0
M  V30 2035 C 183.269 2.29109 -4.83129 0
M  V30 2036 C 184.569 0.140015 -5.22112 0
M  V30 2037 H 186.263 -0.198026 -2.98744 0
M  V30 2038 H 183.809 -0.09668 -1.43675 0
M  V30 2039 H 185.762 2.15503 -3.62128 0
M  V30 2040 H 184.486 2.23532 -2.3812 0
M  V30 2041 H 183.145 0.507247 -3.63074 0
M  V30 2042 H 182.793 2.94227 -4.0797 0
M  V30 2043 H 182.493 1.96406 -5.53804 0
M  V30 2044 H 184.017 2.88339 -5.38231 0
M  V30 2045 H 185.431 0.633978 -5.69784 0
M  V30 2046 H 183.828 -0.0971485 -6.00021 0
M  V30 2047 H 184.898 -0.811711 -4.78058 0
M  V30 2048 N 186.241 1.57166 -0.116904 0
M  V30 2049 C 187.657 1.5779 0.239693 0
M  V30 2050 C 187.857 1.1295 1.66867 0
M  V30 2051 O 186.913 0.81592 2.38954 0
M  V30 2052 C 188.226 3.00699 0.00828202 0
M  V30 2053 C 189.774 3.12912 0.0743438 0
M  V30 2054 C 190.249 4.57817 -0.129348 0
M  V30 2055 N 191.74 4.63139 -0.075247 0
M  V30 2056 C 192.475 5.73023 -0.207788 0
M  V30 2057 N 191.971 6.91665 -0.396382 0
M  V30 2058 N 193.764 5.61906 -0.14751 0
M  V30 2059 H 185.915 1.84615 -1.05029 0
M  V30 2060 H 188.178 0.85311 -0.41341 0
M  V30 2061 H 187.884 3.37784 -0.979531 0
M  V30 2062 H 187.758 3.69848 0.741077 0
M  V30 2063 H 190.145 2.75686 1.05268 0
M  V30 2064 H 190.226 2.4631 -0.690297 0
M  V30 2065 H 189.87 4.95742 -1.10465 0
M  V30 2066 H 189.8 5.22507 0.655253 0
M  V30 2067 H 192.291 3.7784 0.0670898 0
M  V30 2068 H 192.604 7.71255 -0.488437 0
M  V30 2069 H 190.949 6.93654 -0.432329 0
M  V30 2070 H 194.14 4.681 -0.00115036 0
M  V30 2071 H 194.313 6.47501 -0.254247 0
M  V30 2072 N 187.719 -0.156864 1.56817 0
M  V30 2073 C 188.649 -1.19589 2.00551 0
M  V30 2074 C 189.63 -1.4536 0.883426 0
M  V30 2075 O 190.815 -1.56449 1.15054 0
M  V30 2076 C 187.945 -2.53143 2.37773 0
M  V30 2077 C 186.899 -2.41913 3.53075 0
M  V30 2078 C 186.225 -3.80088 3.76081 0
M  V30 2079 C 187.525 -1.91157 4.86062 0
M  V30 2080 H 189.219 -0.832293 2.87599 0
M  V30 2081 H 186.765 -0.398918 1.38364 0
M  V30 2082 H 188.718 -3.26047 2.66967 0
M  V30 2083 H 187.442 -2.91319 1.4765 0
M  V30 2084 H 186.101 -1.71462 3.24031 0
M  V30 2085 H 185.749 -4.15683 2.83225 0
M  V30 2086 H 185.449 -3.73439 4.53671 0
M  V30 2087 H 186.973 -4.54556 4.0769 0
M  V30 2088 H 188.387 -2.53846 5.14038 0
M  V30 2089 H 186.784 -1.95422 5.67389 0
M  V30 2090 H 187.854 -0.866673 4.77092 0
M  V30 2091 N 189.197 -1.51736 -0.425897 0
M  V30 2092 C 190.127 -1.76827 -1.52494 0
M  V30 2093 C 191.108 -0.618524 -1.58456 0
M  V30 2094 O 192.293 -0.862416 -1.74 0
M  V30 2095 C 189.423 -1.90374 -2.90474 0
M  V30 2096 C 188.377 -3.0588 -2.99369 0
M  V30 2097 C 187.703 -3.04625 -4.3944 0
M  V30 2098 C 189.003 -4.45644 -2.72394 0
M  V30 2099 H 190.697 -2.68855 -1.31748 0
M  V30 2100 H 188.243 -1.29372 -0.632362 0
M  V30 2101 H 190.196 -2.0651 -3.6733 0
M  V30 2102 H 188.92 -0.95004 -3.12477 0
M  V30 2103 H 187.579 -2.89467 -2.24954 0
M  V30 2104 H 187.227 -2.0701 -4.58428 0
M  V30 2105 H 186.927 -3.82195 -4.46319 0
M  V30 2106 H 188.451 -3.22869 -5.18255 0
M  V30 2107 H 189.865 -4.62348 -3.38979 0
M  V30 2108 H 188.262 -5.25006 -2.9067 0
M  V30 2109 H 189.332 -4.54893 -1.67929 0
M  V30 2110 N 190.675 0.682077 -1.42076 0
M  V30 2111 C 191.585 1.82535 -1.47371 0
M  V30 2112 C 192.601 1.7017 -0.363079 0
M  V30 2113 O 193.777 1.91848 -0.612875 0
M  V30 2114 C 190.842 3.18624 -1.36674 0
M  V30 2115 C 189.903 3.42999 -2.58167 0
M  V30 2116 C 189.136 4.72595 -2.4797 0
M  V30 2117 O 189.359 5.50006 -1.5116 0
M  V30 2118 O 188.293 4.98054 -3.37974 0
M  V30 2119 H 192.119 1.81023 -2.43853 0
M  V30 2120 H 189.704 0.836887 -1.2376 0
M  V30 2121 H 191.586 3.99847 -1.33043 0
M  V30 2122 H 190.261 3.20789 -0.433138 0
M  V30 2123 H 189.168 2.61653 -2.67373 0
M  V30 2124 H 190.501 3.45659 -3.50401 0
M  V30 2125 N 192.153 1.28127 0.917671 0
M  V30 2126 C 193.1 1.11717 2.0196 0
M  V30 2127 C 194.07 0.0153929 1.66093 0
M  V30 2128 O 195.255 0.179596 1.89953 0
M  V30 2129 C 192.395 0.780927 3.36148 0
M  V30 2130 C 191.508 1.96135 3.84909 0
M  V30 2131 C 190.643 1.56609 5.0759 0
M  V30 2132 C 189.682 2.71339 5.48673 0
M  V30 2133 N 188.819 2.32332 6.62545 0
M  V30 2134 H 193.659 2.06003 2.15329 0
M  V30 2135 H 191.196 1.02535 1.05475 0
M  V30 2136 H 193.154 0.56675 4.13333 0
M  V30 2137 H 191.784 -0.124998 3.22558 0
M  V30 2138 H 190.836 2.28777 3.03916 0
M  V30 2139 H 192.148 2.82165 4.1132 0
M  V30 2140 H 191.302 1.31374 5.92305 0
M  V30 2141 H 190.041 0.677014 4.82978 0
M  V30 2142 H 189.046 2.97276 4.62501 0
M  V30 2143 H 190.271 3.60882 5.75274 0
M  V30 2144 H 188.217 1.45889 6.39572 0
M  V30 2145 H 188.134 3.11899 6.88662 0
M  V30 2146 H 189.402 2.10371 7.50576 0
M  V30 2147 N 193.631 -1.12557 1.10312 0
M  V30 2148 C 194.561 -2.20341 0.772798 0
M  V30 2149 C 195.542 -1.68198 -0.25365 0
M  V30 2150 O 196.727 -1.93831 -0.119699 0
M  V30 2151 C 193.857 -3.46709 0.202443 0
M  V30 2152 C 192.811 -4.11996 1.15943 0
M  V30 2153 C 192.137 -5.328 0.450345 0
M  V30 2154 C 193.437 -4.5828 2.50552 0
M  V30 2155 H 195.131 -2.48229 1.674 0
M  V30 2156 H 192.677 -1.19308 0.806326 0
M  V30 2157 H 194.63 -4.2138 -0.0407752 0
M  V30 2158 H 193.354 -3.18245 -0.734001 0
M  V30 2159 H 192.013 -3.39305 1.38808 0
M  V30 2160 H 191.661 -5.00602 -0.490531 0
M  V30 2161 H 191.361 -5.7743 1.08851 0
M  V30 2162 H 192.885 -6.10219 0.215642 0
M  V30 2163 H 194.299 -5.2433 2.31843 0
M  V30 2164 H 192.696 -5.13683 3.10242 0
M  V30 2165 H 193.766 -3.72329 3.10643 0
M  V30 2166 N 195.109 -0.891671 -1.2995 0
M  V30 2167 C 196.357 -0.512486 -1.95494 0
M  V30 2168 C 196.678 0.942776 -1.70695 0
M  V30 2169 O 195.948 1.66374 -1.03424 0
M  V30 2170 H 194.528 -0.186533 -0.723336 0
M  V30 2171 H 197.19 -1.13621 -1.58355 0
M  V30 2172 H 196.286 -0.688342 -3.04415 0
M  V30 2173 N 196.587 1.43421 -0.653314 0
M  V30 2174 C 197.864 1.95361 -0.0966581 0
M  V30 2175 C 198.244 1.59461 1.38331 0
M  V30 2176 O 197.592 0.879777 2.10884 0
M  V30 2177 C 197.802 3.47311 -0.342988 0
M  V30 2178 C 199.15 4.23875 -0.24798 0
M  V30 2179 O 200.174 3.55133 -0.275553 0
M  V30 2180 O 199.033 5.4623 -0.171771 0
M  V30 2181 H 196.127 0.826945 0.00956291 0
M  V30 2182 H 198.673 1.5336 -0.726558 0
M  V30 2183 H 197.445 3.66569 -1.36906 0
M  V30 2184 H 197.068 3.9631 0.319975 0
M  V30 2185 N 198.065 0.39524 1.52563 0
M  V30 2186 C 199.313 -0.184678 2.01254 0
M  V30 2187 C 199.634 -1.46822 1.28329 0
M  V30 2188 O 198.904 -1.91666 0.405094 0
M  V30 2189 H 197.484 -0.0712355 0.743596 0
M  V30 2190 H 200.146 0.528293 1.87603 0
M  V30 2191 H 199.242 -0.390681 3.09645 0
M  V30 2192 N 199.544 -1.57102 0.125237 0
M  V30 2193 C 200.769 -2.0019 -0.542101 0
M  V30 2194 C 201.194 -1.00449 -1.59034 0
M  V30 2195 O 200.552 0.0229423 -1.81285 0
M  V30 2196 C 200.6 -3.42129 -1.13929 0
M  V30 2197 O 199.704 -3.45307 -2.2547 0
M  V30 2198 H 199.045 -0.650171 -0.134812 0
M  V30 2199 H 201.575 -2.03461 0.215553 0
M  V30 2200 H 201.585 -3.80471 -1.4733 0
M  V30 2201 H 200.26 -4.14237 -0.371531 0
M  V30 2202 H 198.837 -3.1879 -1.93462 0
M  V30 2203 N 201.022 0.148545 -1.56898 0
M  V30 2204 C 202.269 0.861418 -1.83264 0
M  V30 2205 C 202.597 1.81239 -0.705883 0
M  V30 2206 O 201.852 1.93305 0.305212 0
M  V30 2207 C 202.151 1.67064 -3.1595 0
M  V30 2208 C 201.817 0.866591 -4.42494 0
M  V30 2209 C 200.479 0.644762 -4.76861 0
M  V30 2210 C 202.831 0.30418 -5.20312 0
M  V30 2211 C 200.159 -0.15021 -5.86508 0
M  V30 2212 C 202.511 -0.477824 -6.30793 0
M  V30 2213 C 201.175 -0.710244 -6.63711 0
M  V30 2214 H 200.445 0.315215 -0.670612 0
M  V30 2215 H 203.092 0.125142 -1.91091 0
M  V30 2216 H 201.397 2.47698 -3.03567 0
M  V30 2217 H 203.094 2.22566 -3.33565 0
M  V30 2218 H 199.684 1.04955 -4.15551 0
M  V30 2219 H 203.868 0.462844 -4.94137 0
M  V30 2220 H 199.124 -0.339796 -6.10455 0
M  V30 2221 H 203.298 -0.92076 -6.90286 0
M  V30 2222 H 200.925 -1.3281 -7.48509 0
M  V30 2223 N 202.5 1.5196 0.417844 0
M  V30 2224 C 203.748 1.65263 1.16329 0
M  V30 2225 C 204.069 0.380634 1.91249 0
M  V30 2226 O 203.339 -0.604214 1.86349 0
M  V30 2227 H 201.919 0.60912 0.432414 0
M  V30 2228 H 204.581 1.88969 0.477162 0
M  V30 2229 H 203.677 2.4896 1.88217 0
M  V30 2230 N 203.978 -0.674533 1.42435 0
M  V30 2231 C 205.224 -1.43671 1.43131 0
M  V30 2232 C 205.557 -1.94142 0.0476021 0
M  V30 2233 O 204.832 -1.70924 -0.928188 0
M  V30 2234 C 205.115 -2.63355 2.45594 0
M  V30 2235 C 204.968 -2.18514 3.93156 0
M  V30 2236 C 206.287 -3.65571 2.45043 0
M  V30 2237 H 203.406 -0.521077 0.521198 0
M  V30 2238 H 206.048 -0.766551 1.7385 0
M  V30 2239 H 204.198 -3.2053 2.19528 0
M  V30 2240 H 205.87 -1.66504 4.30202 0
M  V30 2241 H 204.113 -1.50086 4.07009 0
M  V30 2242 H 204.784 -3.04484 4.60428 0
M  V30 2243 H 207.26 -3.18113 2.68223 0
M  V30 2244 H 206.136 -4.46893 3.18713 0
M  V30 2245 H 206.397 -4.16716 1.47649 0
M  V30 2246 N 205.456 -1.28612 -0.910864 0
M  V30 2247 C 206.702 -1.16106 -1.66274 0
M  V30 2248 C 207.035 0.289113 -1.92036 0
M  V30 2249 O 206.31 1.21 -1.52281 0
M  V30 2250 C 206.593 -1.96309 -3.01885 0
M  V30 2251 C 206.446 -3.49405 -2.8326 0
M  V30 2252 C 207.765 -1.78076 -4.02463 0
M  V30 2253 H 204.884 -0.423152 -0.603417 0
M  V30 2254 H 207.526 -1.57961 -1.05586 0
M  V30 2255 H 205.676 -1.60742 -3.53687 0
M  V30 2256 H 207.348 -3.94894 -2.38446 0
M  V30 2257 H 205.591 -3.74893 -2.18261 0
M  V30 2258 H 206.262 -4.00784 -3.79574 0
M  V30 2259 H 208.738 -2.0912 -3.59733 0
M  V30 2260 H 207.614 -2.36561 -4.95308 0
M  V30 2261 H 207.875 -0.733008 -4.35981 0
M  V30 2262 N 206.934 1.1197 -1.10907 0
M  V30 2263 C 208.35 1.35591 -0.841852 0
M  V30 2264 C 208.55 1.94233 0.536246 0
M  V30 2265 O 207.606 2.1717 1.28816 0
M  V30 2266 C 208.919 2.29284 -1.94549 0
M  V30 2267 C 210.467 2.42862 -1.97451 0
M  V30 2268 C 210.942 3.39873 -3.07002 0
M  V30 2269 N 212.433 3.47433 -3.06341 0
M  V30 2270 C 213.168 4.22421 -3.87748 0
M  V30 2271 N 212.664 5.00432 -4.79103 0
M  V30 2272 N 214.457 4.17876 -3.75946 0
M  V30 2273 H 206.608 0.722664 -1.99728 0
M  V30 2274 H 208.871 0.380635 -0.868229 0
M  V30 2275 H 208.577 1.93378 -2.93765 0
M  V30 2276 H 208.451 3.29452 -1.83688 0
M  V30 2277 H 210.838 2.78046 -0.988645 0
M  V30 2278 H 210.919 1.42566 -2.12388 0
M  V30 2279 H 210.563 3.05417 -4.05811 0
M  V30 2280 H 210.493 4.40011 -2.89306 0
M  V30 2281 H 212.984 2.91784 -2.40147 0
M  V30 2282 H 213.297 5.55002 -5.37766 0
M  V30 2283 H 211.642 4.99612 -4.83128 0
M  V30 2284 H 214.833 3.56016 -3.03924 0
M  V30 2285 H 215.006 4.76061 -4.39624 0
M  V30 2286 N 208.412 0.89855 1.29475 0
M  V30 2287 C 209.828 0.594483 1.48115 0
M  V30 2288 C 210.028 -0.86431 1.82022 0
M  V30 2289 O 209.084 -1.64457 1.91599 0
M  V30 2290 C 210.397 1.51932 2.59494 0
M  V30 2291 C 211.945 1.5244 2.7337 0
M  V30 2292 C 212.42 2.43548 3.87877 0
M  V30 2293 N 213.911 2.41589 3.95208 0
M  V30 2294 C 214.646 3.08789 4.83153 0
M  V30 2295 N 214.142 3.85265 5.75798 0
M  V30 2296 N 215.935 2.97952 4.76635 0
M  V30 2297 H 208.086 1.84207 1.05742 0
M  V30 2298 H 210.349 0.789251 0.525154 0
M  V30 2299 H 210.055 2.55865 2.41301 0
M  V30 2300 H 209.929 1.23899 3.56271 0
M  V30 2301 H 212.316 0.492518 2.90961 0
M  V30 2302 H 212.397 1.8451 1.77172 0
M  V30 2303 H 212.041 3.46829 3.71041 0
M  V30 2304 H 211.971 2.08788 4.83441 0
M  V30 2305 H 214.462 1.86025 3.28943 0
M  V30 2306 H 214.775 4.33598 6.39697 0
M  V30 2307 H 213.12 3.89371 5.75687 0
M  V30 2308 H 216.311 2.37723 4.03244 0
M  V30 2309 H 216.484 3.50599 5.44962 0
M  V30 2310 N 209.89 -1.43072 0.660911 0
M  V30 2311 C 211.138 -2.01323 0.177094 0
M  V30 2312 C 211.459 -1.5245 -1.2159 0
M  V30 2313 O 210.729 -0.740322 -1.81373 0
M  V30 2314 H 209.309 -0.744382 0.0624804 0
M  V30 2315 H 211.971 -1.75179 0.854305 0
M  V30 2316 H 211.067 -3.11649 0.167641 0
M  V30 2317 N 211.368 -0.403325 -1.52352 0
M  V30 2318 C 212.278 0.432009 -2.30588 0
M  V30 2319 C 213.294 1.05884 -1.38075 0
M  V30 2320 O 214.47 1.06161 -1.71148 0
M  V30 2321 C 211.535 1.53669 -3.10784 0
M  V30 2322 C 210.596 0.933525 -4.19027 0
M  V30 2323 C 209.829 1.98557 -4.9539 0
M  V30 2324 O 210.052 3.20283 -4.71991 0
M  V30 2325 O 208.986 1.59504 -5.80381 0
M  V30 2326 H 212.812 -0.205739 -3.03002 0
M  V30 2327 H 210.397 -0.166675 -1.48467 0
M  V30 2328 H 212.279 2.17814 -3.60742 0
M  V30 2329 H 210.954 2.15915 -2.41169 0
M  V30 2330 H 209.861 0.254954 -3.7323 0
M  V30 2331 H 211.194 0.35508 -4.90918 0
M  V30 2332 N 212.846 1.57033 -0.133567 0
M  V30 2333 C 214.092 1.96764 0.515326 0
M  V30 2334 C 214.447 1.01653 1.63353 0
M  V30 2335 O 213.74 0.0491374 1.91537 0
M  V30 2336 C 213.934 3.40674 1.08057 0
M  V30 2337 C 213.763 4.49696 0.0186522 0
M  V30 2338 C 212.533 5.03567 -0.418174 0
M  V30 2339 C 214.731 5.08536 -0.767809 0
M  V30 2340 N 212.713 5.9618 -1.46434 0
M  V30 2341 C 214.084 5.97231 -1.6648 0
M  V30 2342 C 216.139 4.9115 -0.817087 0
M  V30 2343 C 214.842 6.70401 -2.60681 0
M  V30 2344 C 216.868 5.65012 -1.74687 0
M  V30 2345 C 216.23 6.53403 -2.63141 0
M  V30 2346 H 212.329 0.765919 0.157771 0
M  V30 2347 H 214.913 1.93395 -0.22506 0
M  V30 2348 H 213.084 3.44662 1.79061 0
M  V30 2349 H 214.816 3.67495 1.69497 0
M  V30 2350 H 211.571 4.73594 -0.0229803 0
M  V30 2351 H 211.995 6.47191 -1.98678 0
M  V30 2352 H 216.637 4.22543 -0.147326 0
M  V30 2353 H 214.355 7.38245 -3.28664 0
M  V30 2354 H 217.941 5.53559 -1.79063 0
M  V30 2355 H 216.821 7.09556 -3.33917 0
M  V30 2356 N 214.325 -0.140222 1.56975 0
M  V30 2357 C 215.602 -0.880769 1.74648 0
M  V30 2358 C 215.982 -1.99036 0.703404 0
M  V30 2359 O 215.33 -2.26821 -0.27648 0
M  V30 2360 C 215.54 -1.417 3.18939 0
M  V30 2361 C 216.888 -1.87774 3.80823 0
M  V30 2362 O 217.912 -1.51427 3.2241 0
M  V30 2363 O 216.771 -2.54827 4.83452 0
M  V30 2364 H 213.865 -0.416713 0.714338 0
M  V30 2365 H 216.411 -0.125618 1.69234 0
M  V30 2366 H 215.183 -0.619902 3.86359 0
M  V30 2367 H 214.806 -2.23546 3.28805 0
M  V30 2368 N 215.803 -1.52179 -0.40978 0
M  V30 2369 C 216.766 -1.74853 -1.48186 0
M  V30 2370 C 217.766 -0.618417 -1.48433 0
M  V30 2371 O 218.956 -0.886286 -1.49969 0
M  V30 2372 C 216.088 -1.8303 -2.87598 0
M  V30 2373 H 217.281 -2.70559 -1.29374 0
M  V30 2374 H 214.834 -1.42586 -0.640233 0
M  V30 2375 H 215.569 -0.89236 -3.11781 0
M  V30 2376 H 215.354 -2.65187 -2.88822 0
M  V30 2377 H 216.844 -2.02316 -3.65319 0
M  V30 2378 N 217.281 0.66697 -1.42791 0
M  V30 2379 C 218.692 1.2478 -1.38877 0
M  V30 2380 C 219.043 1.96012 -0.0859426 0
M  V30 2381 O 218.168 2.00463 0.815081 0
M  V30 2382 C 218.763 2.26938 -2.51564 0
M  V30 2383 C 217.322 2.80529 -2.50959 0
M  V30 2384 C 216.469 1.54965 -2.29959 0
M  V30 2385 H 219.42 0.459853 -1.51892 0
M  V30 2386 H 219.441 3.08834 -2.22265 0
M  V30 2387 H 218.953 1.75065 -3.46372 0
M  V30 2388 H 217.054 3.36502 -1.59991 0
M  V30 2389 H 217.167 3.29012 -3.48265 0
M  V30 2390 H 215.531 1.81817 -1.78366 0
M  V30 2391 H 216.314 1.05047 -3.26833 0
M  V30 2392 N 218.759 1.29093 0.90403 0
M  V30 2393 C 219.984 1.19809 1.69294 0
M  V30 2394 C 220.409 -0.238481 1.86582 0
M  V30 2395 O 219.767 -1.1723 1.383 0
M  V30 2396 C 219.815 1.91202 3.05736 0
M  V30 2397 O 218.919 1.22611 3.93752 0
M  V30 2398 H 218.26 0.415385 0.518027 0
M  V30 2399 H 220.79 1.70586 1.12967 0
M  V30 2400 H 220.8 1.99487 3.55906 0
M  V30 2401 H 219.475 2.95692 2.92471 0
M  V30 2402 H 218.052 1.22554 3.52186 0
M  V30 2403 N 220.237 -1.11381 1.11499 0
M  V30 2404 C 221.485 -1.8277 0.862524 0
M  V30 2405 C 221.806 -1.85097 -0.613534 0
M  V30 2406 O 221.076 -1.32198 -1.4457 0
M  V30 2407 H 219.656 -0.676823 0.316101 0
M  V30 2408 H 222.318 -1.34816 1.4075 0
M  V30 2409 H 221.414 -2.86614 1.23527 0
M  V30 2410 N 221.715 -0.905404 -1.28997 0
M  V30 2411 C 222.662 -0.385892 -2.27551 0
M  V30 2412 C 223.632 0.535113 -1.57244 0
M  V30 2413 O 224.817 0.459119 -1.85194 0
M  V30 2414 C 221.957 0.375461 -3.43051 0
M  V30 2415 C 221.07 -0.577092 -4.28128 0
M  V30 2416 C 220.205 0.201879 -5.30816 0
M  V30 2417 C 219.244 -0.744829 -6.07551 0
M  V30 2418 N 218.381 9.42587e-05 -7.021 0
M  V30 2419 H 223.221 -1.23139 -2.71368 0
M  V30 2420 H 220.758 -0.618542 -1.33463 0
M  V30 2421 H 222.716 0.832992 -4.088 0
M  V30 2422 H 221.346 1.18537 -3.00248 0
M  V30 2423 H 220.398 -1.15315 -3.62501 0
M  V30 2424 H 221.71 -1.30152 -4.8152 0
M  V30 2425 H 220.864 0.720351 -6.02408 0
M  V30 2426 H 219.603 0.959413 -4.7817 0
M  V30 2427 H 218.608 -1.27475 -5.34818 0
M  V30 2428 H 219.833 -1.50178 -6.62286 0
M  V30 2429 H 217.779 0.739791 -6.51815 0
M  V30 2430 H 217.696 -0.664321 -7.53076 0
M  V30 2431 H 218.964 0.498644 -7.77903 0
M  V30 2432 N 223.193 1.4272 -0.668489 0
M  V30 2433 C 224.421 2.05966 -0.196348 0
M  V30 2434 C 224.836 1.50191 1.14403 0
M  V30 2435 O 224.193 0.639208 1.7094 0
M  V30 2436 C 224.244 3.61314 -0.115815 0
M  V30 2437 O 223.965 4.1502 -1.40322 0
M  V30 2438 C 225.466 4.41663 0.380579 0
M  V30 2439 H 222.686 0.663954 -0.0969829 0
M  V30 2440 H 225.23 1.82966 -0.913446 0
M  V30 2441 H 223.385 3.83448 0.551931 0
M  V30 2442 H 223.799 5.08832 -1.27243 0
M  V30 2443 H 225.273 5.5065 0.385848 0
M  V30 2444 H 225.75 4.15792 1.41471 0
M  V30 2445 H 226.356 4.24534 -0.255209 0
M  V30 2446 N 224.671 0.411399 1.52136 0
M  V30 2447 C 225.917 -0.163888 2.02137 0
M  V30 2448 C 226.25 -1.44597 1.29636 0
M  V30 2449 O 225.525 -1.90272 0.403353 0
M  V30 2450 C 225.808 -0.40927 3.57767 0
M  V30 2451 C 225.661 0.889643 4.40914 0
M  V30 2452 C 226.98 -1.19042 4.23694 0
M  V30 2453 H 224.099 -0.0580896 0.734707 0
M  V30 2454 H 226.741 0.54531 1.82007 0
M  V30 2455 H 224.891 -1.0134 3.7505 0
M  V30 2456 H 226.563 1.52575 4.35337 0
M  V30 2457 H 224.806 1.50011 4.07037 0
M  V30 2458 H 225.477 0.672314 5.4789 0
M  V30 2459 H 227.953 -0.678942 4.10524 0
M  V30 2460 H 226.829 -1.33086 5.32522 0
M  V30 2461 H 227.09 -2.21166 3.82803 0
M  V30 2462 N 226.149 -1.5696 0.141893 0
M  V30 2463 C 227.374 -2.00754 -0.520838 0
M  V30 2464 C 227.799 -1.0213 -1.57959 0
M  V30 2465 O 227.157 0.00371324 -1.813 0
M  V30 2466 C 227.205 -3.43318 -1.10294 0
M  V30 2467 O 226.309 -3.47679 -2.21795 0
M  V30 2468 H 225.65 -0.651564 -0.127908 0
M  V30 2469 H 228.18 -2.03221 0.23712 0
M  V30 2470 H 228.19 -3.82012 -1.43287 0
M  V30 2471 H 226.865 -4.14608 -0.327574 0
M  V30 2472 H 225.442 -3.20824 -1.9007 0
M  V30 2473 N 227.627 0.131896 -1.57047 0
M  V30 2474 C 228.873 0.843179 -1.84441 0
M  V30 2475 C 229.206 1.80129 -0.725749 0
M  V30 2476 O 228.481 1.92624 0.269469 0
M  V30 2477 C 228.764 1.60442 -3.22382 0
M  V30 2478 C 228.617 0.666782 -4.4483 0
M  V30 2479 C 229.936 2.56354 -3.5773 0
M  V30 2480 H 227.055 0.305081 -0.670891 0
M  V30 2481 H 229.697 0.107839 -1.89694 0
M  V30 2482 H 227.847 2.23128 -3.18035 0
M  V30 2483 H 229.519 0.0497646 -4.61273 0
M  V30 2484 H 227.762 -0.022609 -4.33794 0
M  V30 2485 H 228.433 1.23579 -5.37989 0
M  V30 2486 H 230.909 2.0378 -3.62785 0
M  V30 2487 H 229.785 3.06657 -4.5525 0
M  V30 2488 H 230.046 3.38419 -2.84473 0
M  V30 2489 N 229.106 1.52395 0.401703 0
M  V30 2490 C 230.069 1.75636 1.47257 0
M  V30 2491 C 231.069 0.62628 1.48103 0
M  V30 2492 O 232.259 0.894227 1.49497 0
M  V30 2493 C 229.391 1.84553 2.86624 0
M  V30 2494 H 230.584 2.71241 1.27938 0
M  V30 2495 H 228.137 1.42923 0.632662 0
M  V30 2496 H 228.872 0.908882 3.11303 0
M  V30 2497 H 228.657 2.66715 2.87412 0
M  V30 2498 H 230.147 2.04251 3.64241 0
M  V30 2499 N 230.584 -0.659388 1.43143 0
M  V30 2500 C 231.83 -1.42145 1.44647 0
M  V30 2501 C 232.163 -1.9408 0.0681907 0
M  V30 2502 O 231.438 -1.71899 -0.910007 0
M  V30 2503 C 231.721 -2.60735 2.48373 0
M  V30 2504 C 231.574 -2.14332 3.95451 0
M  V30 2505 C 232.893 -3.62951 2.48906 0
M  V30 2506 H 230.012 -0.51552 0.526696 0
M  V30 2507 H 232.654 -0.748069 1.74654 0
M  V30 2508 H 230.804 -3.18184 2.22916 0
M  V30 2509 H 232.476 -1.61932 4.31944 0
M  V30 2510 H 230.719 -1.4576 4.08578 0
M  V30 2511 H 231.39 -2.99583 4.63631 0
M  V30 2512 H 233.866 -3.1525 2.71582 0
M  V30 2513 H 232.742 -4.43487 3.23435 0
M  V30 2514 H 233.003 -4.15126 1.52061 0
M  V30 2515 N 232.062 -1.29571 -0.897171 0
M  V30 2516 C 233.009 -1.14916 -2.00158 0
M  V30 2517 C 233.979 -0.0418149 -1.66047 0
M  V30 2518 O 235.164 -0.209793 -1.89643 0
M  V30 2519 C 232.304 -0.834307 -3.34863 0
M  V30 2520 C 231.417 -2.02234 -3.8174 0
M  V30 2521 C 230.552 -1.64664 -5.05034 0
M  V30 2522 C 229.591 -2.80033 -5.44286 0
M  V30 2523 N 228.728 -2.42843 -6.58765 0
M  V30 2524 H 233.568 -2.09403 -2.12025 0
M  V30 2525 H 231.105 -1.042 -1.0383 0
M  V30 2526 H 233.063 -0.632436 -4.12379 0
M  V30 2527 H 231.693 0.0736656 -3.22716 0
M  V30 2528 H 230.745 -2.33583 -3.00238 0
M  V30 2529 H 232.057 -2.88673 -4.06779 0
M  V30 2530 H 231.211 -1.4078 -5.9014 0
M  V30 2531 H 229.95 -0.753766 -4.8184 0
M  V30 2532 H 228.955 -3.04596 -4.57713 0
M  V30 2533 H 230.18 -3.69989 -5.6946 0
M  V30 2534 H 228.126 -1.56046 -6.3717 0
M  V30 2535 H 228.043 -3.22815 -6.83613 0
M  V30 2536 H 229.311 -2.22285 -7.47134 0
M  V30 2537 N 233.54 1.10788 -1.12088 0
M  V30 2538 C 234.78 1.84297 -0.883974 0
M  V30 2539 C 235.144 1.83036 0.579797 0
M  V30 2540 O 236.345 2.52061 0.933734 0
M  V30 2541 C 234.616 3.27173 -1.43849 0
M  V30 2542 S 236.175 4.17853 -1.33957 0
M  V30 2543 H 232.993 0.635433 -0.318977 0
M  V30 2544 H 235.595 1.33341 -1.4297 0
M  V30 2545 H 234.299 3.25658 -2.49749 0
M  V30 2546 H 233.83 3.83198 -0.890096 0
M  V30 2547 H 235.845 4.95239 -0.308603 0
M  V30 2548 N 235.018 0.912232 1.28515 0
M  V30 2549 C 235.948 0.416403 2.29757 0
M  V30 2550 C 236.929 -0.515194 1.6211 0
M  V30 2551 O 238.114 -0.423253 1.89532 0
M  V30 2552 C 235.244 -0.34572 3.45575 0
M  V30 2553 C 234.198 0.496599 4.25109 0
M  V30 2554 C 233.524 -0.393771 5.33248 0
M  V30 2555 C 234.824 1.75307 4.92001 0
M  V30 2556 H 236.518 1.26249 2.7148 0
M  V30 2557 H 234.064 0.608515 1.30511 0
M  V30 2558 H 236.017 -0.703422 4.15488 0
M  V30 2559 H 234.741 -1.2257 3.02728 0
M  V30 2560 H 233.4 0.8368 3.56922 0
M  V30 2561 H 233.048 -1.27225 4.86644 0
M  V30 2562 H 232.748 0.166209 5.87365 0
M  V30 2563 H 234.272 -0.747389 6.06009 0
M  V30 2564 H 235.686 1.46437 5.54283 0
M  V30 2565 H 234.083 2.25534 5.56106 0
M  V30 2566 H 235.153 2.48176 4.16577 0
M  V30 2567 N 236.496 -1.42363 0.676048 0
M  V30 2568 C 237.443 -2.308 -0.00150904 0
M  V30 2569 C 238.413 -1.46032 -0.791444 0
M  V30 2570 O 239.598 -1.74861 -0.76344 0
M  V30 2571 C 236.738 -3.31883 -0.945919 0
M  V30 2572 C 235.851 -4.31741 -0.149675 0
M  V30 2573 C 234.986 -5.19898 -1.08995 0
M  V30 2574 C 234.025 -6.11434 -0.285465 0
M  V30 2575 N 233.162 -6.92138 -1.17851 0
M  V30 2576 H 238.002 -2.88187 0.758455 0
M  V30 2577 H 235.539 -1.41952 0.38576 0
M  V30 2578 H 237.497 -3.89019 -1.50731 0
M  V30 2579 H 236.127 -2.76093 -1.6725 0
M  V30 2580 H 235.179 -3.76713 0.528359 0
M  V30 2581 H 236.491 -4.96534 0.474866 0
M  V30 2582 H 235.645 -5.81772 -1.72123 0
M  V30 2583 H 234.384 -4.55284 -1.74837 0
M  V30 2584 H 233.389 -5.48627 0.359018 0
M  V30 2585 H 234.614 -6.78097 0.368883 0
M  V30 2586 H 232.56 -6.30152 -1.82332 0
M  V30 2587 H 232.477 -7.53542 -0.609082 0
M  V30 2588 H 233.745 -7.58499 -1.79722 0
M  V30 2589 N 237.974 -0.419461 -1.51915 0
M  V30 2590 C 239.385 0.0477853 -1.86639 0
M  V30 2591 C 239.736 1.43531 -1.33766 0
M  V30 2592 O 238.861 2.05401 -0.68113 0
M  V30 2593 C 239.456 0.0934885 -3.38671 0
M  V30 2594 C 238.015 0.505097 -3.72996 0
M  V30 2595 C 237.162 -0.313792 -2.75519 0
M  V30 2596 H 240.113 -0.636088 -1.45395 0
M  V30 2597 H 240.134 0.906667 -3.6954 0
M  V30 2598 H 239.646 -0.916501 -3.77123 0
M  V30 2599 H 237.747 1.52135 -3.40126 0
M  V30 2600 H 237.86 0.242309 -4.78487 0
M  V30 2601 H 236.224 0.225363 -2.53701 0
M  V30 2602 H 237.007 -1.32232 -3.16812 0
M  V30 2603 N 239.452 1.56882 -0.150215 0
M  V30 2604 C 240.729 1.87844 0.545327 0
M  V30 2605 C 241.109 1.0567 1.82749 0
M  V30 2606 O 240.457 0.144442 2.28043 0
M  V30 2607 C 240.667 3.39526 0.80767 0
M  V30 2608 C 242.015 4.08814 1.14703 0
M  V30 2609 O 243.039 3.44723 0.896917 0
M  V30 2610 O 241.898 5.22004 1.61784 0
M  V30 2611 H 238.992 0.778677 0.278553 0
M  V30 2612 H 241.538 1.68666 -0.187068 0
M  V30 2613 H 240.31 3.91173 -0.0996096 0
M  V30 2614 H 239.933 3.64243 1.59413 0
M  V30 2615 N 240.93 -0.123565 1.57115 0
M  V30 2616 C 242.176 -0.833386 1.84885 0
M  V30 2617 C 242.509 -1.79742 0.735292 0
M  V30 2618 O 241.784 -1.92764 -0.25925 0
M  V30 2619 C 242.067 -1.5873 3.23228 0
M  V30 2620 C 241.92 -0.643183 4.45178 0
M  V30 2621 C 243.239 -2.54453 3.59085 0
M  V30 2622 H 240.358 -0.301518 0.6725 0
M  V30 2623 H 243 -0.097778 1.89748 0
M  V30 2624 H 241.15 -2.21438 3.19214 0
M  V30 2625 H 242.822 -0.0253015 4.61293 0
M  V30 2626 H 241.065 0.0456139 4.33776 0
M  V30 2627 H 241.736 -1.20724 5.38637 0
M  V30 2628 H 244.212 -2.01853 3.63861 0
M  V30 2629 H 243.088 -3.04238 4.5687 0
M  V30 2630 H 243.349 -3.36906 2.86264 0
M  V30 2631 N 242.408 -1.52605 -0.393616 0
M  V30 2632 C 243.338 -1.80022 -1.48709 0
M  V30 2633 C 244.319 -0.651995 -1.57108 0
M  V30 2634 O 245.504 -0.89913 -1.72132 0
M  V30 2635 C 242.634 -1.96492 -2.86371 0
M  V30 2636 C 241.588 -3.12161 -2.92813 0
M  V30 2637 C 240.914 -3.13877 -4.3288 0
M  V30 2638 C 242.214 -4.51322 -2.6288 0
M  V30 2639 H 243.908 -2.71589 -1.26015 0
M  V30 2640 H 241.454 -1.30684 -0.604778 0
M  V30 2641 H 243.407 -2.14255 -3.62867 0
M  V30 2642 H 242.131 -1.01611 -3.10391 0
M  V30 2643 H 240.79 -2.94173 -2.18764 0
M  V30 2644 H 240.438 -2.16687 -4.53933 0
M  V30 2645 H 240.138 -3.91576 -4.38112 0
M  V30 2646 H 241.662 -3.33789 -5.1129 0
M  V30 2647 H 243.076 -4.69435 -3.29096 0
M  V30 2648 H 241.473 -5.31053 -2.79468 0
M  V30 2649 H 242.543 -4.58353 -1.58242 0
M  V30 2650 N 243.887 0.651787 -1.4349 0
M  V30 2651 C 245.112 1.44434 -1.48841 0
M  V30 2652 C 245.537 1.8779 -0.107955 0
M  V30 2653 O 244.895 1.57464 0.898602 0
M  V30 2654 C 244.943 2.65458 -2.44059 0
M  V30 2655 O 244.047 3.64566 -1.92784 0
M  V30 2656 H 243.388 0.433005 -0.503391 0
M  V30 2657 H 245.918 0.797451 -1.88419 0
M  V30 2658 H 245.928 3.13255 -2.6141 0
M  V30 2659 H 244.603 2.33244 -3.4434 0
M  V30 2660 H 243.18 3.23716 -1.851 0
M  V30 2661 N 245.365 1.30045 0.890287 0
M  V30 2662 C 246.297 1.11786 2.00091 0
M  V30 2663 C 247.31 0.0626307 1.62679 0
M  V30 2664 O 248.499 0.308112 1.75821 0
M  V30 2665 C 245.599 0.681527 3.31977 0
M  V30 2666 C 244.772 1.81735 3.97858 0
M  V30 2667 C 243.831 1.37045 5.08041 0
M  V30 2668 O 242.857 2.07677 5.29961 0
M  V30 2669 N 244.059 0.246525 5.79976 0
M  V30 2670 H 246.824 2.07441 2.16306 0
M  V30 2671 H 244.385 1.2211 1.06305 0
M  V30 2672 H 246.377 0.365675 4.03045 0
M  V30 2673 H 244.947 -0.182828 3.12065 0
M  V30 2674 H 244.167 2.30159 3.20032 0
M  V30 2675 H 245.455 2.57865 4.38615 0
M  V30 2676 H 244.853 -0.34215 5.64664 0
M  V30 2677 H 243.41 -0.00990438 6.51799 0
M  V30 2678 N 246.843 -1.10192 1.12674 0
M  V30 2679 C 248.254 -1.63707 0.897604 0
M  V30 2680 C 248.605 -1.87812 -0.567546 0
M  V30 2681 O 247.73 -1.62196 -1.43253 0
M  V30 2682 C 248.325 -2.974 1.62292 0
M  V30 2683 C 246.884 -3.47772 1.43986 0
M  V30 2684 C 246.031 -2.22332 1.65722 0
M  V30 2685 H 248.982 -0.936587 1.28116 0
M  V30 2686 H 249.003 -3.64986 1.07541 0
M  V30 2687 H 248.515 -2.79824 2.68924 0
M  V30 2688 H 246.616 -3.70487 0.396206 0
M  V30 2689 H 246.729 -4.25723 2.19765 0
M  V30 2690 H 245.093 -2.30599 1.08149 0
M  V30 2691 H 245.876 -2.07285 2.73657 0
M  V30 2692 N 248.321 -0.919034 -1.28029 0
M  V30 2693 C 249.231 -0.416756 -2.30869 0
M  V30 2694 C 250.247 0.498235 -1.66714 0
M  V30 2695 O 251.423 0.383144 -1.97722 0
M  V30 2696 C 248.488 0.330274 -3.45123 0
M  V30 2697 C 247.549 -0.618578 -4.2482 0
M  V30 2698 C 246.782 0.0928959 -5.33619 0
M  V30 2699 O 247.005 1.31375 -5.55065 0
M  V30 2700 O 245.939 -0.574499 -5.99152 0
M  V30 2701 H 249.765 -1.27043 -2.75851 0
M  V30 2702 H 247.35 -0.684052 -1.3282 0
M  V30 2703 H 249.232 0.751972 -4.14636 0
M  V30 2704 H 247.907 1.1597 -3.02213 0
M  V30 2705 H 246.814 -1.08978 -3.57875 0
M  V30 2706 H 248.147 -1.41497 -4.71423 0
M  V30 2707 N 249.799 1.42003 -0.683588 0
M  V30 2708 C 250.762 2.29191 -0.0198243 0
M  V30 2709 C 251.762 1.43773 0.72013 0
M  V30 2710 O 252.952 1.65061 0.556815 0
M  V30 2711 C 250.084 3.26435 0.982487 0
M  V30 2712 H 251.277 2.8938 -0.787345 0
M  V30 2713 H 248.83 1.49789 -0.446418 0
M  V30 2714 H 249.565 2.71203 1.77819 0
M  V30 2715 H 249.35 3.89449 0.455182 0
M  V30 2716 H 250.84 3.918 1.44508 0
M  V30 2717 N 251.277 0.427512 1.51691 0
M  V30 2718 C 252.21 -0.433876 2.24037 0
M  V30 2719 C 253.188 -1.03287 1.25581 0
M  V30 2720 O 254.372 -1.07722 1.54688 0
M  V30 2721 C 251.499 -1.60385 2.98319 0
M  V30 2722 C 250.545 -1.12648 4.11355 0
M  V30 2723 S 251.378 -0.076543 5.35445 0
M  V30 2724 C 252.534 -1.25141 6.13262 0
M  V30 2725 H 252.767 0.180367 2.96752 0
M  V30 2726 H 250.3 0.211946 1.52938 0
M  V30 2727 H 252.258 -2.27462 3.41718 0
M  V30 2728 H 250.919 -2.18948 2.25213 0
M  V30 2729 H 250.112 -2.0011 4.62571 0
M  V30 2730 H 249.714 -0.534088 3.70167 0
M  V30 2731 H 252.006 -2.17162 6.41753 0
M  V30 2732 H 252.949 -0.779411 7.03797 0
M  V30 2733 H 253.357 -1.48553 5.44603 0
M  V30 2734 N 252.755 -1.56801 0.158532 0
M  V30 2735 C 254.032 -1.88131 -0.535357 0
M  V30 2736 C 254.412 -1.06638 -1.82186 0
M  V30 2737 O 253.76 -0.156533 -2.27963 0
M  V30 2738 C 253.97 -3.39949 -0.789653 0
M  V30 2739 C 255.318 -4.09416 -1.12533 0
M  V30 2740 O 256.342 -3.45194 -0.878622 0
M  V30 2741 O 255.201 -5.22855 -1.59014 0
M  V30 2742 H 252.295 -0.780143 -0.27442 0
M  V30 2743 H 254.841 -1.68564 0.19601 0
M  V30 2744 H 253.613 -3.91115 0.120353 0
M  V30 2745 H 253.236 -3.65084 -1.57479 0
M  V30 2746 N 254.233 0.115231 -1.57178 0
M  V30 2747 C 255.51 0.852873 -1.76027 0
M  V30 2748 C 255.89 1.97892 -0.73498 0
M  V30 2749 O 255.238 2.27232 0.24036 0
M  V30 2750 C 255.448 1.36608 -3.21153 0
M  V30 2751 C 256.796 1.81692 -3.83762 0
M  V30 2752 O 257.82 1.46278 -3.24779 0
M  V30 2753 O 256.679 2.47104 -4.87444 0
M  V30 2754 H 253.773 0.405296 -0.720877 0
M  V30 2755 H 256.319 0.0986785 -1.69413 0
M  V30 2756 H 255.091 0.558357 -3.87296 0
M  V30 2757 H 254.714 2.18287 -3.3232 0
M  V30 2758 N 255.711 1.52812 0.385517 0
M  V30 2759 C 256.958 1.68026 1.1302 0
M  V30 2760 C 257.286 0.421934 1.89868 0
M  V30 2761 O 256.541 -0.595749 1.86412 0
M  V30 2762 C 256.84 2.86856 2.13187 0
M  V30 2763 C 256.506 4.24159 1.5297 0
M  V30 2764 C 255.168 4.61501 1.36274 0
M  V30 2765 C 257.52 5.09627 1.09223 0
M  V30 2766 C 254.848 5.81966 0.743837 0
M  V30 2767 C 257.2 6.30719 0.487411 0
M  V30 2768 C 255.864 6.6679 0.307777 0
M  V30 2769 H 255.134 0.614849 0.413571 0
M  V30 2770 H 257.781 1.86962 0.414405 0
M  V30 2771 H 256.086 2.6235 2.90998 0
M  V30 2772 H 257.783 2.95821 2.70722 0
M  V30 2773 H 254.373 3.94746 1.66954 0
M  V30 2774 H 258.557 4.81343 1.20922 0
M  V30 2775 H 253.813 6.08519 0.592891 0
M  V30 2776 H 257.987 6.96259 0.140143 0
M  V30 2777 H 255.614 7.60001 -0.173879 0
M  V30 2778 N 257.189 -0.644168 1.43834 0
M  V30 2779 C 258.438 -1.39985 1.45214 0
M  V30 2780 C 258.751 -1.95421 0.0835494 0
M  V30 2781 O 259.957 -2.71488 -0.0251748 0
M  V30 2782 C 258.413 -2.53384 2.55587 0
M  V30 2783 C 258.021 -2.04517 3.98594 0
M  V30 2784 C 259.765 -3.30685 2.66172 0
M  V30 2785 C 257.672 -3.1518 5.00416 0
M  V30 2786 H 256.602 -0.526005 0.540218 0
M  V30 2787 H 259.253 -0.694367 1.69855 0
M  V30 2788 H 257.635 -3.26446 2.24163 0
M  V30 2789 H 258.809 -1.38405 4.39523 0
M  V30 2790 H 257.124 -1.40068 3.92135 0
M  V30 2791 H 259.721 -4.13158 3.39418 0
M  V30 2792 H 260.064 -3.79312 1.71546 0
M  V30 2793 H 260.597 -2.64708 2.96942 0
M  V30 2794 H 257.336 -2.71511 5.96625 0
M  V30 2795 H 256.856 -3.79974 4.64091 0
M  V30 2796 H 258.535 -3.80166 5.23529 0
M  V30 2797 N 258.668 -1.30515 -0.883378 0
M  V30 2798 C 260.084 -1.08881 -1.16692 0
M  V30 2799 C 260.284 0.149409 -2.00945 0
M  V30 2800 O 259.34 0.84257 -2.38027 0
M  V30 2801 C 260.653 -2.35319 -1.87204 0
M  V30 2802 C 262.201 -2.40799 -1.99962 0
M  V30 2803 C 262.676 -3.67083 -2.73887 0
M  V30 2804 N 264.167 -3.679 -2.81432 0
M  V30 2805 C 264.902 -4.62303 -3.3921 0
M  V30 2806 N 264.398 -5.67052 -3.98025 0
M  V30 2807 N 266.191 -4.49845 -3.3704 0
M  V30 2808 H 258.342 -2.09951 -0.321633 0
M  V30 2809 H 260.605 -0.92556 -0.205043 0
M  V30 2810 H 260.311 -3.25689 -1.3274 0
M  V30 2811 H 260.185 -2.44089 -2.87577 0
M  V30 2812 H 262.572 -1.50907 -2.53597 0
M  V30 2813 H 262.653 -2.36003 -0.98673 0
M  V30 2814 H 262.297 -4.57334 -2.20925 0
M  V30 2815 H 262.227 -3.69141 -3.75556 0
M  V30 2816 H 264.718 -2.92171 -2.39676 0
M  V30 2817 H 265.031 -6.35184 -4.40183 0
M  V30 2818 H 263.376 -5.70842 -3.96439 0
M  V30 2819 H 266.567 -3.67194 -2.90321 0
M  V30 2820 H 266.74 -5.23597 -3.81772 0
M  V30 2821 N 260.146 1.09593 -1.13257 0
M  V30 2822 C 261.056 2.19739 -0.821691 0
M  V30 2823 C 262.072 1.72926 0.19302 0
M  V30 2824 O 263.248 2.01385 0.0244895 0
M  V30 2825 C 260.313 3.45482 -0.290333 0
M  V30 2826 C 259.374 4.06985 -1.36607 0
M  V30 2827 C 258.607 5.26726 -0.859975 0
M  V30 2828 O 258.83 5.69594 0.303082 0
M  V30 2829 O 257.764 5.7931 -1.63351 0
M  V30 2830 H 261.59 2.48781 -1.74189 0
M  V30 2831 H 259.175 1.18496 -0.909894 0
M  V30 2832 H 261.057 4.214 0.000674022 0
M  V30 2833 H 259.732 3.18047 0.602306 0
M  V30 2834 H 258.639 3.32712 -1.71037 0
M  V30 2835 H 259.972 4.38643 -2.23279 0
M  V30 2836 N 261.624 0.925811 1.2754 0
M  V30 2837 C 262.87 0.566092 1.94739 0
M  V30 2838 C 263.203 -0.890057 1.72603 0
M  V30 2839 O 262.478 -1.63467 1.05399 0
M  V30 2840 C 262.761 0.89054 3.48915 0
M  V30 2841 C 262.614 2.4003 3.80402 0
M  V30 2842 C 263.933 0.395101 4.38323 0
M  V30 2843 H 261.052 0.20714 0.707292 0
M  V30 2844 H 263.694 1.15725 1.50691 0
M  V30 2845 H 261.844 0.387452 3.86563 0
M  V30 2846 H 263.516 2.97494 3.52555 0
M  V30 2847 H 261.759 2.85028 3.2702 0
M  V30 2848 H 262.43 2.57785 4.8811 0
M  V30 2849 H 264.906 0.826241 4.07814 0
M  V30 2850 H 263.782 0.651086 5.45025 0
M  V30 2851 H 264.043 -0.704798 4.36446 0
M  V30 2852 N 263.102 -1.41638 0.69111 0
M  V30 2853 C 264.05 -2.32597 0.0115199 0
M  V30 2854 C 265.044 -1.5072 -0.773296 0
M  V30 2855 O 266.25 -1.66685 -0.67942 0
M  V30 2856 H 262.625 -0.751849 -0.0150746 0
M  V30 2857 H 264.596 -2.87593 0.795791 0
M  V30 2858 C 263.345 -3.35467 -0.914172 0
M  V30 2859 H 262.668 -3.9852 -0.319687 0
M  V30 2860 H 264.108 -4.01662 -1.35808 0
M  V30 2861 C 262.567 -2.69004 -2.02826 0
M  V30 2862 O 263.097 -2.53444 -3.11655 0
M  V30 2863 N 261.303 -2.2777 -1.80469 0
M  V30 2864 H 260.85 -2.40626 -0.919615 0
M  V30 2865 H 260.808 -1.83635 -2.55197 0
M  V30 2866 N 264.58 -0.43555 -1.51462 0
M  V30 2867 C 265.543 0.365137 -2.26273 0
M  V30 2868 C 266.543 0.951227 -1.29647 0
M  V30 2869 O 267.733 0.825958 -1.53374 0
M  V30 2870 C 264.865 1.51645 -3.05314 0
M  V30 2871 H 266.058 -0.290474 -2.9849 0
M  V30 2872 H 263.611 -0.188676 -1.55157 0
M  V30 2873 H 264.346 2.20816 -2.3751 0
M  V30 2874 H 264.131 1.10238 -3.76284 0
M  V30 2875 H 265.621 2.08218 -3.61987 0
M  V30 2876 N 266.058 1.56714 -0.166846 0
M  V30 2877 C 266.991 2.13577 0.80375 0
M  V30 2878 C 267.969 1.06464 1.22899 0
M  V30 2879 O 269.153 1.34413 1.32157 0
M  V30 2880 C 266.28 2.67168 2.0818 0
M  V30 2881 C 265.326 3.86612 1.80093 0
M  V30 2882 S 266.159 5.26565 0.97416 0
M  V30 2883 C 267.315 5.83558 2.26297 0
M  V30 2884 H 267.548 2.9557 0.320267 0
M  V30 2885 H 265.081 1.54326 0.0477555 0
M  V30 2886 H 267.039 2.98692 2.8159 0
M  V30 2887 H 265.7 1.85269 2.53642 0
M  V30 2888 H 264.893 4.22422 2.7491 0
M  V30 2889 H 264.495 3.55951 1.14781 0
M  V30 2890 H 266.787 5.962 3.21795 0
M  V30 2891 H 267.73 6.80731 1.94962 0
M  V30 2892 H 268.138 5.11944 2.37853 0
M  V30 2893 N 267.536 -0.106894 1.57237 0
M  V30 2894 C 268.486 -1.1366 1.9765 0
M  V30 2895 C 269.47 -1.36416 0.853203 0
M  V30 2896 O 270.662 -1.37305 1.11697 0
M  V30 2897 C 267.791 -2.46 2.39455 0
M  V30 2898 C 266.877 -2.26668 3.58445 0
M  V30 2899 N 267.268 -1.77176 4.73754 0
M  V30 2900 C 265.566 -2.57279 3.64312 0
M  V30 2901 C 266.267 -1.71836 5.5574 0
M  V30 2902 N 265.243 -2.16623 4.98573 0
M  V30 2903 H 269.045 -0.74669 2.84256 0
M  V30 2904 H 266.559 -0.314483 1.59326 0
M  V30 2905 H 268.556 -3.2049 2.6663 0
M  V30 2906 H 267.216 -2.85738 1.54219 0
M  V30 2907 H 268.227 -1.46545 4.96734 0
M  V30 2908 H 264.904 -3.00622 2.89711 0
M  V30 2909 H 266.294 -1.34723 6.58255 0
M  V30 2910 N 269.014 -1.53014 -0.377408 0
M  V30 2911 C 270.239 -1.72818 -1.14668 0
M  V30 2912 C 270.664 -0.450725 -1.8262 0
M  V30 2913 O 270.022 0.59439 -1.7128 0
M  V30 2914 C 270.07 -2.88627 -2.16164 0
M  V30 2915 O 269.174 -2.56409 -3.22998 0
M  V30 2916 H 268.515 -0.574301 -0.333278 0
M  V30 2917 H 271.045 -1.99853 -0.438152 0
M  V30 2918 H 271.055 -3.14455 -2.59966 0
M  V30 2919 H 269.73 -3.81294 -1.66095 0
M  V30 2920 H 268.307 -2.4136 -2.84253 0
M  V30 2921 N 270.492 0.636531 -1.44174 0
M  V30 2922 C 271.422 1.76003 -1.53444 0
M  V30 2923 C 272.403 1.65619 -0.387841 0
M  V30 2924 O 273.588 1.84461 -0.607257 0
M  V30 2925 C 270.718 3.14511 -1.4731 0
M  V30 2926 C 269.672 3.39677 -2.60391 0
M  V30 2927 C 268.998 4.78159 -2.39308 0
M  V30 2928 C 270.298 3.32772 -4.02567 0
M  V30 2929 H 271.992 1.68501 -2.47483 0
M  V30 2930 H 269.538 0.809237 -1.19111 0
M  V30 2931 H 271.491 3.92878 -1.52397 0
M  V30 2932 H 270.215 3.22783 -0.49785 0
M  V30 2933 H 268.874 2.63688 -2.54684 0
M  V30 2934 H 268.522 4.83128 -1.39988 0
M  V30 2935 H 268.222 4.95956 -3.15122 0
M  V30 2936 H 269.746 5.58762 -2.46205 0
M  V30 2937 H 271.16 4.01051 -4.09672 0
M  V30 2938 H 269.557 3.62104 -4.7854 0
M  V30 2939 H 270.627 2.30669 -4.2652 0
M  V30 2940 N 271.97 1.30982 0.876444 0
M  V30 2941 C 273.247 1.10942 1.61094 0
M  V30 2942 C 273.627 -0.338223 2.08373 0
M  V30 2943 O 272.975 -1.33122 1.85717 0
M  V30 2944 C 273.185 2.11789 2.77392 0
M  V30 2945 C 274.533 2.43965 3.47514 0
M  V30 2946 O 275.557 2.10166 2.87591 0
M  V30 2947 O 274.416 3.01817 4.55597 0
M  V30 2948 H 271.51 0.42667 0.708436 0
M  V30 2949 H 274.056 1.42438 0.922474 0
M  V30 2950 H 272.828 3.09194 2.39823 0
M  V30 2951 H 272.451 1.81161 3.5393 0
M  V30 2952 N 273.449 -1.08991 1.13837 0
M  V30 2953 C 274.399 -2.1393 0.788535 0
M  V30 2954 C 275.383 -1.59396 -0.219516 0
M  V30 2955 O 276.575 -1.76985 -0.0227557 0
M  V30 2956 C 273.704 -3.42305 0.261147 0
M  V30 2957 C 272.79 -4.03736 1.29837 0
M  V30 2958 N 273.181 -4.39659 2.50067 0
M  V30 2959 C 271.479 -4.30993 1.1472 0
M  V30 2960 C 272.18 -4.88113 3.16419 0
M  V30 2961 N 271.156 -4.85846 2.43832 0
M  V30 2962 H 274.958 -2.39516 1.70322 0
M  V30 2963 H 272.472 -1.26263 1.02134 0
M  V30 2964 H 274.469 -4.16899 -0.0077405 0
M  V30 2965 H 273.129 -3.18172 -0.647805 0
M  V30 2966 H 274.14 -4.30878 2.8734 0
M  V30 2967 H 270.817 -4.16444 0.296773 0
M  V30 2968 H 272.207 -5.25336 4.18894 0
M  V30 2969 N 274.927 -0.932562 -1.27047 0
M  V30 2970 C 276.343 -0.633544 -1.46487 0
M  V30 2971 C 276.543 0.815746 -1.84249 0
M  V30 2972 O 275.599 1.59319 -1.95892 0
M  V30 2973 C 276.912 -1.58758 -2.55375 0
M  V30 2974 C 278.46 -1.59634 -2.69232 0
M  V30 2975 C 278.935 -2.53747 -3.81283 0
M  V30 2976 N 280.426 -2.51982 -3.88664 0
M  V30 2977 C 281.161 -3.21491 -4.74796 0
M  V30 2978 N 280.657 -4.00395 -5.65381 0
M  V30 2979 N 282.45 -3.10485 -4.68568 0
M  V30 2980 H 274.601 -1.86946 -1.00821 0
M  V30 2981 H 276.864 -0.802897 -0.504044 0
M  V30 2982 H 276.57 -2.62172 -2.34432 0
M  V30 2983 H 276.444 -1.33301 -3.52861 0
M  V30 2984 H 278.831 -0.569488 -2.89553 0
M  V30 2985 H 278.912 -1.89142 -1.72218 0
M  V30 2986 H 278.556 -3.56545 -3.61715 0
M  V30 2987 H 278.486 -2.21532 -4.77735 0
M  V30 2988 H 280.977 -1.94681 -3.23895 0
M  V30 2989 H 281.29 -4.50406 -6.27976 0
M  V30 2990 H 279.635 -4.04498 -5.65161 0
M  V30 2991 H 282.826 -2.48331 -3.96799 0
M  V30 2992 H 282.999 -3.64925 -5.35475 0
M  V30 2993 N 276.405 1.4127 -0.698611 0
M  V30 2994 C 277.353 2.32588 -0.023855 0
M  V30 2995 C 278.347 1.51128 0.765292 0
M  V30 2996 O 279.553 1.67043 0.670571 0
M  V30 2997 H 275.928 0.751918 0.0110871 0
M  V30 2998 H 277.899 2.87167 -0.811031 0
M  V30 2999 C 276.648 3.35947 0.896369 0
M  V30 3000 H 275.971 3.98684 0.298548 0
M  V30 3001 H 277.411 4.02376 1.33676 0
M  V30 3002 C 275.87 2.70076 2.01396 0
M  V30 3003 O 276.4 2.55093 3.10307 0
M  V30 3004 N 274.606 2.28724 1.79259 0
M  V30 3005 H 274.153 2.4111 0.906841 0
M  V30 3006 H 274.111 1.84986 2.54219 0
M  V30 3007 N 277.883 0.443576 1.51229 0
M  V30 3008 C 278.813 -0.355142 2.30783 0
M  V30 3009 C 279.794 -1.0154 1.36468 0
M  V30 3010 O 280.979 -1.01785 1.65389 0
M  V30 3011 C 278.109 -1.45312 3.15439 0
M  V30 3012 C 277.063 -0.916002 4.18083 0
M  V30 3013 C 276.389 -2.1102 4.91299 0
M  V30 3014 C 277.689 0.0538602 5.22272 0
M  V30 3015 H 279.383 0.308767 2.97804 0
M  V30 3016 H 276.929 0.149937 1.43217 0
M  V30 3017 H 278.882 -2.01914 3.69876 0
M  V30 3018 H 277.606 -2.14541 2.46252 0
M  V30 3019 H 276.265 -0.372145 3.64706 0
M  V30 3020 H 275.913 -2.78882 4.18609 0
M  V30 3021 H 275.613 -1.75717 5.60712 0
M  V30 3022 H 277.137 -2.68164 5.48562 0
M  V30 3023 H 278.551 -0.422069 5.71744 0
M  V30 3024 H 276.948 0.319776 5.99247 0
M  V30 3025 H 278.018 0.98858 4.74716 0
M  V30 3026 N 279.361 -1.56624 0.175154 0
M  V30 3027 C 280.61 -1.96173 -0.468921 0
M  V30 3028 C 280.923 -1.06401 -1.64128 0
M  V30 3029 O 282.129 -1.35648 -2.35185 0
M  V30 3030 C 280.585 -3.48833 -0.885633 0
M  V30 3031 C 280.193 -4.47237 0.261343 0
M  V30 3032 C 281.937 -3.97194 -1.49791 0
M  V30 3033 C 279.844 -5.9114 -0.175214 0
M  V30 3034 H 278.774 -0.732455 -0.178958 0
M  V30 3035 H 281.425 -1.81591 0.263997 0
M  V30 3036 H 279.807 -3.58848 -1.67464 0
M  V30 3037 H 280.981 -4.4894 1.03871 0
M  V30 3038 H 279.296 -4.08956 0.783827 0
M  V30 3039 H 281.893 -5.02167 -1.83665 0
M  V30 3040 H 282.236 -3.40351 -2.39722 0
M  V30 3041 H 282.769 -3.90212 -0.773267 0
M  V30 3042 H 279.508 -6.51865 0.689414 0
M  V30 3043 H 279.028 -5.92735 -0.91786 0
M  V30 3044 H 280.707 -6.44044 -0.617792 0
M  V30 3045 N 280.839 0.0985539 -1.57292 0
M  V30 3046 C 282.255 0.45267 -1.53046 0
M  V30 3047 C 282.455 1.80713 -0.891342 0
M  V30 3048 O 281.511 2.4785 -0.482375 0
M  V30 3049 C 282.824 0.418341 -2.97776 0
M  V30 3050 C 284.372 0.500443 -3.08973 0
M  V30 3051 C 284.847 0.496297 -4.55303 0
M  V30 3052 N 286.338 0.557151 -4.59837 0
M  V30 3053 C 287.073 0.575726 -5.70502 0
M  V30 3054 N 286.569 0.550714 -6.90608 0
M  V30 3055 N 288.362 0.620277 -5.58667 0
M  V30 3056 H 280.513 -0.788673 -1.97215 0
M  V30 3057 H 282.776 -0.293188 -0.901524 0
M  V30 3058 H 282.482 -0.509659 -3.47988 0
M  V30 3059 H 282.356 1.2386 -3.56284 0
M  V30 3060 H 284.743 1.41886 -2.58751 0
M  V30 3061 H 284.824 -0.347894 -2.53423 0
M  V30 3062 H 284.468 -0.418162 -5.06176 0
M  V30 3063 H 284.398 1.3618 -5.08687 0
M  V30 3064 H 286.889 0.581816 -3.73394 0
M  V30 3065 H 287.202 0.568075 -7.70709 0
M  V30 3066 H 285.547 0.517816 -6.93068 0
M  V30 3067 H 288.738 0.637322 -4.63741 0
M  V30 3068 H 288.911 0.631283 -6.44918 0
M  V30 3069 N 282.317 1.53212 0.369288 0
M  V30 3070 C 283.247 1.82365 1.45826 0
M  V30 3071 C 284.228 0.676907 1.56051 0
M  V30 3072 O 285.413 0.926401 1.70679 0
M  V30 3073 C 282.543 2.01023 2.83208 0
M  V30 3074 C 281.497 3.1678 2.8781 0
M  V30 3075 C 280.823 3.20724 4.27832 0
M  V30 3076 C 282.123 4.55447 2.55667 0
M  V30 3077 H 283.817 2.73559 1.21678 0
M  V30 3078 H 281.363 1.3163 0.583911 0
M  V30 3079 H 283.316 2.20001 3.59413 0
M  V30 3080 H 282.04 1.06536 3.08736 0
M  V30 3081 H 280.699 2.97616 2.14056 0
M  V30 3082 H 280.347 2.23882 4.50429 0
M  V30 3083 H 280.047 3.98496 4.31827 0
M  V30 3084 H 281.571 3.41881 5.05915 0
M  V30 3085 H 282.985 4.74611 3.21586 0
M  V30 3086 H 281.382 5.35432 2.70984 0
M  V30 3087 H 282.452 4.60812 1.5093 0
M  V30 3088 N 283.795 -0.628877 1.44509 0
M  V30 3089 C 285.025 -1.41349 1.50678 0
M  V30 3090 C 285.433 -1.88745 0.131075 0
M  V30 3091 O 284.776 -1.61592 -0.87371 0
M  V30 3092 C 284.838 -2.66608 2.41165 0
M  V30 3093 C 284.502 -2.40993 3.88293 0
M  V30 3094 C 285.499 -2.0268 4.78766 0
M  V30 3095 C 283.184 -2.54563 4.33016 0
M  V30 3096 C 285.178 -1.78269 6.11963 0
M  V30 3097 C 282.865 -2.29766 5.6626 0
M  V30 3098 C 283.863 -1.91678 6.55552 0
M  V30 3099 O 283.551 -1.67158 7.86329 0
M  V30 3100 H 283.283 -0.439851 0.51333 0
M  V30 3101 H 285.837 -0.776084 1.90174 0
M  V30 3102 H 284.067 -3.32994 1.96601 0
M  V30 3103 H 285.756 -3.28615 2.38259 0
M  V30 3104 H 286.522 -1.91751 4.45485 0
M  V30 3105 H 282.401 -2.83179 3.63773 0
M  V30 3106 H 285.945 -1.48465 6.81619 0
M  V30 3107 H 281.842 -2.40306 5.99102 0
M  V30 3108 H 282.61 -1.81386 7.98149 0
M  V30 3109 N 285.273 -1.31445 -0.869486 0
M  V30 3110 C 286.521 -1.20918 -1.61936 0
M  V30 3111 C 286.842 0.232683 -1.93607 0
M  V30 3112 O 286.112 1.15352 -1.58338 0
M  V30 3113 H 284.692 -0.44454 -0.600328 0
M  V30 3114 H 287.354 -1.64776 -1.0409 0
M  V30 3115 H 286.45 -1.78124 -2.56278 0
M  V30 3116 N 286.751 1.08385 -1.14413 0
M  V30 3117 C 287.997 1.81044 -0.913834 0
M  V30 3118 C 288.33 1.86004 0.558209 0
M  V30 3119 O 287.605 1.33606 1.4135 0
M  V30 3120 C 287.888 3.26648 -1.51569 0
M  V30 3121 C 287.741 3.29895 -3.0576 0
M  V30 3122 C 289.06 4.23629 -1.19273 0
M  V30 3123 H 286.179 0.65727 -0.333414 0
M  V30 3124 H 288.821 1.26896 -1.41412 0
M  V30 3125 H 286.971 3.72889 -1.09023 0
M  V30 3126 H 288.643 2.91977 -3.57137 0
M  V30 3127 H 286.886 2.69163 -3.40197 0
M  V30 3128 H 287.557 4.32516 -3.42977 0
M  V30 3129 H 290.033 3.85727 -1.56057 0
M  V30 3130 H 288.909 5.23822 -1.64017 0
M  V30 3131 H 289.17 4.41968 -0.108068 0
M  V30 3132 N 288.23 0.939286 1.26551 0
M  V30 3133 C 289.476 0.586715 1.94128 0
M  V30 3134 C 289.809 -0.8717 1.73537 0
M  V30 3135 O 289.084 -1.62339 1.07127 0
M  V30 3136 C 289.367 0.927497 3.4795 0
M  V30 3137 C 289.22 2.44052 3.77834 0
M  V30 3138 C 290.539 0.441569 4.37879 0
M  V30 3139 H 287.658 0.21463 0.705055 0
M  V30 3140 H 290.3 1.17316 1.49455 0
M  V30 3141 H 288.45 0.428431 3.8613 0
M  V30 3142 H 290.122 3.01216 3.4938 0
M  V30 3143 H 288.365 2.8848 3.23978 0
M  V30 3144 H 289.036 2.62947 4.85348 0
M  V30 3145 H 291.512 0.869448 4.06915 0
M  V30 3146 H 290.388 0.708856 5.44304 0
M  V30 3147 H 290.649 -0.658467 4.37169 0
M  V30 3148 N 289.708 -1.40897 0.706093 0
M  V30 3149 C 290.638 -2.33418 0.0620085 0
M  V30 3150 C 291.619 -1.52385 -0.755827 0
M  V30 3151 O 292.804 -1.80886 -0.706674 0
M  V30 3152 C 289.934 -3.36293 -0.867445 0
M  V30 3153 C 288.888 -4.27716 -0.155932 0
M  V30 3154 C 288.214 -5.2105 -1.20046 0
M  V30 3155 C 289.514 -5.12944 0.984149 0
M  V30 3156 H 291.208 -2.87527 0.83477 0
M  V30 3157 H 288.754 -1.38249 0.402875 0
M  V30 3158 H 290.707 -3.99949 -1.32735 0
M  V30 3159 H 289.431 -2.80556 -1.67199 0
M  V30 3160 H 288.09 -3.65498 0.284047 0
M  V30 3161 H 287.738 -4.61624 -1.99781 0
M  V30 3162 H 287.438 -5.83056 -0.729328 0
M  V30 3163 H 288.962 -5.87584 -1.66066 0
M  V30 3164 H 290.376 -5.70109 0.604048 0
M  V30 3165 H 288.773 -5.83945 1.38304 0
M  V30 3166 H 289.843 -4.49485 1.81911 0
M  V30 3167 N 291.186 -0.45159 -1.50991 0
M  V30 3168 C 292.414 0.108334 -2.06616 0
M  V30 3169 C 292.829 1.35224 -1.31757 0
M  V30 3170 O 292.186 1.78475 -0.381174 0
M  V30 3171 C 292.237 0.41619 -3.59096 0
M  V30 3172 O 291.958 -0.778361 -4.3113 0
M  V30 3173 C 293.459 1.02523 -4.31282 0
M  V30 3174 H 290.679 0.00159995 -0.670998 0
M  V30 3175 H 293.223 -0.634771 -1.94399 0
M  V30 3176 H 291.378 1.10921 -3.71181 0
M  V30 3177 H 291.792 -0.511181 -5.22003 0
M  V30 3178 H 293.266 1.19053 -5.39009 0
M  V30 3179 H 293.743 2.01013 -3.905 0
M  V30 3180 H 294.349 0.371173 -4.23677 0
M  V30 3181 N 292.664 1.56529 -0.183458 0
M  V30 3182 C 294.075 1.83739 0.331177 0
M  V30 3183 C 294.426 1.10373 1.62211 0
M  V30 3184 O 293.551 0.36071 2.13373 0
M  V30 3185 C 294.146 3.33306 0.607646 0
M  V30 3186 C 292.705 3.60969 1.06668 0
M  V30 3187 C 291.852 2.77086 0.109029 0
M  V30 3188 H 294.803 1.53379 -0.407484 0
M  V30 3189 H 294.824 3.51444 1.45832 0
M  V30 3190 H 294.336 3.86677 -0.332086 0
M  V30 3191 H 292.437 3.13021 2.0211 0
M  V30 3192 H 292.55 4.69231 0.967447 0
M  V30 3193 H 290.914 2.47319 0.608714 0
M  V30 3194 H 291.697 3.33241 -0.82494 0
M  V30 3195 N 294.142 -0.090211 1.57342 0
M  V30 3196 C 295.553 -0.644173 1.75235 0
M  V30 3197 C 295.904 -1.78865 0.806335 0
M  V30 3198 O 295.029 -2.16395 -0.0140128 0
M  V30 3199 C 295.624 -1.17532 3.1776 0
M  V30 3200 C 294.183 -1.67531 3.37061 0
M  V30 3201 C 293.33 -0.58693 2.71017 0
M  V30 3202 H 296.281 0.135884 1.58117 0
M  V30 3203 H 296.302 -2.04455 3.20902 0
M  V30 3204 H 295.814 -0.342138 3.86589 0
M  V30 3205 H 293.915 -2.53234 2.73319 0
M  V30 3206 H 294.028 -1.76493 4.45406 0
M  V30 3207 H 292.392 -1.02756 2.33052 0
M  V30 3208 H 293.175 0.235758 3.4249 0
M  V30 3209 N 295.62 -1.53406 -0.361157 0
M  V30 3210 C 296.553 -1.74946 -1.46524 0
M  V30 3211 C 297.531 -0.59795 -1.51206 0
M  V30 3212 O 298.715 -0.831062 -1.69191 0
M  V30 3213 C 295.842 -1.83224 -2.84863 0
M  V30 3214 C 294.888 -3.05233 -2.97885 0
M  V30 3215 S 295.721 -4.6466 -2.66179 0
M  V30 3216 C 296.877 -4.75793 -4.06659 0
M  V30 3217 H 297.11 -2.68319 -1.28033 0
M  V30 3218 H 294.643 -1.44051 -0.555764 0
M  V30 3219 H 296.601 -1.88679 -3.64569 0
M  V30 3220 H 295.262 -0.908948 -3.00661 0
M  V30 3221 H 294.455 -3.07648 -3.9921 0
M  V30 3222 H 294.057 -2.97913 -2.26106 0
M  V30 3223 H 296.349 -4.5612 -5.0096 0
M  V30 3224 H 297.292 -5.7786 -4.09247 0
M  V30 3225 H 297.7 -4.04389 -3.93865 0
M  V30 3226 N 297.098 0.621204 -1.44841 0
M  V30 3227 C 298.045 1.73267 -1.5247 0
M  V30 3228 C 299.015 1.6189 -0.371611 0
M  V30 3229 O 300.2 1.81668 -0.58321 0
M  V30 3230 C 297.34 3.11545 -1.48438 0
M  V30 3231 C 296.453 3.33827 -2.74196 0
M  V30 3232 C 295.588 4.62133 -2.61929 0
M  V30 3233 C 294.627 4.77627 -3.82804 0
M  V30 3234 N 293.764 5.97219 -3.69153 0
M  V30 3235 H 298.604 1.66082 -2.47428 0
M  V30 3236 H 296.141 0.810026 -1.22788 0
M  V30 3237 H 298.099 3.91528 -1.4409 0
M  V30 3238 H 296.729 3.1772 -0.570402 0
M  V30 3239 H 295.781 2.47715 -2.88689 0
M  V30 3240 H 297.093 3.41153 -3.6389 0
M  V30 3241 H 296.247 5.50291 -2.5547 0
M  V30 3242 H 294.986 4.57182 -1.69811 0
M  V30 3243 H 293.991 3.87896 -3.89637 0
M  V30 3244 H 295.216 4.84385 -4.75971 0
M  V30 3245 H 293.162 5.93339 -2.79794 0
M  V30 3246 H 293.079 6.05644 -4.52472 0
M  V30 3247 H 294.347 6.87912 -3.66603 0
M  V30 3248 N 298.576 1.31904 0.862503 0
M  V30 3249 C 299.509 1.14514 1.97388 0
M  V30 3250 C 300.487 0.0466493 1.62533 0
M  V30 3251 O 301.671 0.204484 1.87388 0
M  V30 3252 C 298.798 0.751347 3.30261 0
M  V30 3253 C 297.844 1.85395 3.84098 0
M  V30 3254 S 298.677 3.46081 4.08642 0
M  V30 3255 C 299.833 3.08655 5.44502 0
M  V30 3256 H 300.066 2.08597 2.11836 0
M  V30 3257 H 297.599 1.16475 1.01356 0
M  V30 3258 H 299.557 0.530901 4.07052 0
M  V30 3259 H 298.218 -0.170493 3.13637 0
M  V30 3260 H 297.411 1.53122 4.80177 0
M  V30 3261 H 297.013 2.02984 3.14123 0
M  V30 3262 H 299.305 2.58012 6.26447 0
M  V30 3263 H 300.248 4.03726 5.81731 0
M  V30 3264 H 300.656 2.45891 5.08132 0
M  V30 3265 N 300.054 -1.07777 1.14986 0
M  V30 3266 C 301.3 -1.80557 0.923422 0
M  V30 3267 C 301.633 -1.86298 -0.548337 0
M  V30 3268 O 300.908 -1.34354 -1.40639 0
M  V30 3269 C 301.191 -3.25839 1.53299 0
M  V30 3270 C 301.044 -3.28269 3.07505 0
M  V30 3271 C 302.363 -4.22991 1.21518 0
M  V30 3272 H 299.482 -0.655493 0.336894 0
M  V30 3273 H 302.124 -1.26144 1.42083 0
M  V30 3274 H 300.274 -3.72306 1.10999 0
M  V30 3275 H 301.946 -2.90079 3.58681 0
M  V30 3276 H 300.189 -2.67355 3.4162 0
M  V30 3277 H 300.86 -4.30691 3.45266 0
M  V30 3278 H 303.336 -3.84894 1.581 0
M  V30 3279 H 302.212 -5.22945 1.66793 0
M  V30 3280 H 302.473 -4.41904 0.131505 0
M  V30 3281 N 301.532 -0.945985 -1.26051 0
M  V30 3282 C 302.76 -0.613025 -1.9761 0
M  V30 3283 C 303.175 0.813035 -1.70397 0
M  V30 3284 O 302.532 1.54274 -0.974979 0
M  V30 3285 C 302.583 -0.85159 -3.51326 0
M  V30 3286 O 302.304 -2.22157 -3.77595 0
M  V30 3287 C 303.805 -0.529831 -4.40122 0
M  V30 3288 H 301.025 -0.230593 -0.630133 0
M  V30 3289 H 303.569 -1.268 -1.60443 0
M  V30 3290 H 301.724 -0.243151 -3.86636 0
M  V30 3291 H 302.138 -2.2852 -4.721 0
M  V30 3292 H 303.612 -0.747348 -5.46917 0
M  V30 3293 H 304.089 0.535341 -4.35925 0
M  V30 3294 H 304.695 -1.11721 -4.10364 0
M  V30 3295 N 303.011 1.40521 -0.713556 0
M  V30 3296 C 303.921 2.34522 -0.0606667 0
M  V30 3297 C 304.937 1.57193 0.74607 0
M  V30 3298 O 306.113 1.89591 0.679493 0
M  V30 3299 C 303.178 3.36081 0.851491 0
M  V30 3300 C 302.239 4.29286 0.0349339 0
M  V30 3301 C 301.472 5.25994 0.903649 0
M  V30 3302 O 301.695 5.28616 2.14292 0
M  V30 3303 O 300.629 6.00918 0.343723 0
M  V30 3304 H 304.455 2.91968 -0.835972 0
M  V30 3305 H 302.04 1.41681 -0.47402 0
M  V30 3306 H 303.922 3.98369 1.37404 0
M  V30 3307 H 302.597 2.81052 1.60598 0
M  V30 3308 H 301.504 3.70289 -0.532633 0
M  V30 3309 H 302.837 4.87462 -0.681287 0
M  V30 3310 N 304.489 0.459591 1.5075 0
M  V30 3311 C 305.419 -0.330644 2.31147 0
M  V30 3312 C 306.4 -1.00087 1.37538 0
M  V30 3313 O 307.585 -1.00025 1.66459 0
M  V30 3314 C 304.715 -1.41958 3.16962 0
M  V30 3315 C 303.669 -0.871608 4.19031 0
M  V30 3316 C 302.995 -2.05797 4.9351 0
M  V30 3317 C 304.295 0.109251 5.22186 0
M  V30 3318 H 305.989 0.340336 2.97459 0
M  V30 3319 H 303.535 0.165119 1.4305 0
M  V30 3320 H 305.488 -1.9798 3.71997 0
M  V30 3321 H 304.212 -2.11917 2.48513 0
M  V30 3322 H 302.871 -0.333442 3.6508 0
M  V30 3323 H 302.519 -2.74427 4.21544 0
M  V30 3324 H 302.219 -1.6976 5.62544 0
M  V30 3325 H 303.743 -2.62331 5.51375 0
M  V30 3326 H 305.157 -0.361405 5.7216 0
M  V30 3327 H 303.554 0.383316 5.98875 0
M  V30 3328 H 304.624 1.03887 4.73641 0
M  V30 3329 N 305.967 -1.56429 0.191757 0
M  V30 3330 C 306.93 -2.17707 -0.716688 0
M  V30 3331 C 307.93 -1.13061 -1.14341 0
M  V30 3332 O 309.12 -1.38464 -1.05704 0
M  V30 3333 C 306.252 -2.77644 -1.97804 0
M  V30 3334 H 307.445 -2.99342 -0.1829 0
M  V30 3335 H 304.998 -1.56193 -0.0578566 0
M  V30 3336 H 305.733 -1.99799 -2.55443 0
M  V30 3337 H 305.518 -3.54246 -1.68083 0
M  V30 3338 H 307.008 -3.24708 -2.62592 0
M  V30 3339 N 307.445 0.0818655 -1.57387 0
M  V30 3340 C 308.856 0.634871 -1.75574 0
M  V30 3341 C 309.207 1.78435 -0.815809 0
M  V30 3342 O 308.332 2.164 0.0025366 0
M  V30 3343 C 308.927 1.15845 -3.18379 0
M  V30 3344 C 307.486 1.65741 -3.37945 0
M  V30 3345 C 306.633 0.572549 -2.71325 0
M  V30 3346 H 309.584 -0.144268 -1.58043 0
M  V30 3347 H 309.605 2.02751 -3.21982 0
M  V30 3348 H 309.117 0.321631 -3.86765 0
M  V30 3349 H 307.218 2.51781 -2.74658 0
M  V30 3350 H 307.331 1.74129 -4.46336 0
M  V30 3351 H 305.695 1.01518 -2.33594 0
M  V30 3352 H 306.478 -0.253918 -3.4236 0
M  V30 3353 N 308.923 1.53595 0.353017 0
M  V30 3354 C 309.853 1.83902 1.43883 0
M  V30 3355 C 310.834 0.693421 1.55324 0
M  V30 3356 O 312.019 0.944452 1.69687 0
M  V30 3357 C 309.149 2.04016 2.8106 0
M  V30 3358 C 308.103 3.19814 2.84434 0
M  V30 3359 C 307.429 3.25244 4.24406 0
M  V30 3360 C 308.729 4.58133 2.50822 0
M  V30 3361 H 310.423 2.74835 1.1877 0
M  V30 3362 H 307.969 1.32242 0.569917 0
M  V30 3363 H 309.922 2.238 3.57059 0
M  V30 3364 H 308.646 1.09804 3.07588 0
M  V30 3365 H 307.305 2.9987 2.10887 0
M  V30 3366 H 306.953 2.28646 4.48029 0
M  V30 3367 H 306.653 4.03054 4.27576 0
M  V30 3368 H 308.177 3.47228 5.0226 0
M  V30 3369 H 309.591 4.77995 3.16534 0
M  V30 3370 H 307.988 5.38276 2.6529 0
M  V30 3371 H 309.058 4.62387 1.46034 0
M  V30 3372 N 310.401 -0.613514 1.45168 0
M  V30 3373 C 311.649 -1.36997 1.48581 0
M  V30 3374 C 311.97 -1.94589 0.126545 0
M  V30 3375 O 311.24 -1.76816 -0.843372 0
M  V30 3376 H 309.82 -0.508558 0.547154 0
M  V30 3377 H 312.482 -0.720853 1.81079 0
M  V30 3378 H 311.578 -2.1924 2.22127 0
M  V30 3379 N 311.879 -1.3236 -0.855495 0
M  V30 3380 C 313.104 -1.2601 -1.64731 0
M  V30 3381 C 313.529 0.169068 -1.87339 0
M  V30 3382 O 312.887 1.12016 -1.42556 0
M  V30 3383 C 312.935 -2.02417 -2.98429 0
M  V30 3384 O 312.039 -1.3714 -3.8893 0
M  V30 3385 H 311.38 -0.434325 -0.502253 0
M  V30 3386 H 313.91 -1.74661 -1.06558 0
M  V30 3387 H 313.92 -2.12559 -3.48257 0
M  V30 3388 H 312.595 -3.06343 -2.81295 0
M  V30 3389 H 311.172 -1.3554 -3.47395 0
M  V30 3390 N 313.357 1.07166 -1.15556 0
M  V30 3391 C 314.287 2.16403 -0.877046 0
M  V30 3392 C 315.268 1.69217 0.173111 0
M  V30 3393 O 316.453 1.94181 0.027084 0
M  V30 3394 C 313.583 3.45349 -0.367632 0
M  V30 3395 C 312.537 4.05995 -1.35468 0
M  V30 3396 C 311.863 5.30045 -0.704038 0
M  V30 3397 C 313.163 4.45804 -2.72132 0
M  V30 3398 H 314.857 2.39959 -1.79053 0
M  V30 3399 H 312.403 1.15325 -0.862331 0
M  V30 3400 H 314.356 4.21095 -0.160317 0
M  V30 3401 H 313.08 3.21385 0.581326 0
M  V30 3402 H 311.739 3.32296 -1.54839 0
M  V30 3403 H 311.387 5.02373 0.251128 0
M  V30 3404 H 311.087 5.71579 -1.36277 0
M  V30 3405 H 312.611 6.08495 -0.50654 0
M  V30 3406 H 314.025 5.12671 -2.56595 0
M  V30 3407 H 312.422 4.98296 -3.34397 0
M  V30 3408 H 313.492 3.57083 -3.28054 0
M  V30 3409 N 314.835 0.952656 1.25548 0
M  V30 3410 C 315.765 0.489287 2.28316 0
M  V30 3411 C 316.746 -0.463359 1.63667 0
M  V30 3412 O 317.931 -0.36274 1.90782 0
M  V30 3413 C 315.061 -0.235603 3.465 0
M  V30 3414 C 314.015 0.631593 4.23314 0
M  V30 3415 C 313.341 -0.223923 5.34231 0
M  V30 3416 C 314.641 1.90871 4.86174 0
M  V30 3417 H 316.335 1.34822 2.67326 0
M  V30 3418 H 313.881 0.649728 1.28509 0
M  V30 3419 H 315.834 -0.570882 4.17515 0
M  V30 3420 H 314.558 -1.12877 3.06474 0
M  V30 3421 H 313.217 0.949929 3.54079 0
M  V30 3422 H 312.865 -1.11678 4.90446 0
M  V30 3423 H 312.565 0.35299 5.86539 0
M  V30 3424 H 314.089 -0.554214 6.0808 0
M  V30 3425 H 315.503 1.63997 5.49343 0
M  V30 3426 H 313.9 2.43112 5.4865 0
M  V30 3427 H 314.97 2.61304 4.08471 0
M  V30 3428 N 316.313 -1.40141 0.720998 0
M  V30 3429 C 317.59 -1.94677 0.189757 0
M  V30 3430 C 317.97 -1.65879 -1.30566 0
M  V30 3431 O 317.318 -0.979391 -2.06447 0
M  V30 3432 C 317.528 -3.45279 0.508304 0
M  V30 3433 C 318.876 -4.22209 0.449934 0
M  V30 3434 O 319.9 -3.53413 0.444677 0
M  V30 3435 O 318.759 -5.44788 0.432189 0
M  V30 3436 H 315.853 -0.826459 0.0299026 0
M  V30 3437 H 318.399 -1.49719 0.7989 0
M  V30 3438 H 317.171 -3.59619 1.54239 0
M  V30 3439 H 316.794 -3.97386 -0.130525 0
M  V30 3440 N 317.792 -0.46758 -1.50504 0
M  V30 3441 C 319.208 -0.121533 -1.59137 0
M  V30 3442 C 319.408 1.3717 -1.47603 0
M  V30 3443 O 318.464 2.14464 -1.33272 0
M  V30 3444 C 319.777 -0.6686 -2.93173 0
M  V30 3445 C 321.325 -0.631716 -3.06559 0
M  V30 3446 C 321.8 -1.15627 -4.43164 0
M  V30 3447 N 323.291 -1.11553 -4.49567 0
M  V30 3448 C 324.026 -1.49195 -5.5365 0
M  V30 3449 N 323.522 -1.94269 -6.65005 0
M  V30 3450 N 325.315 -1.4082 -5.44175 0
M  V30 3451 H 317.466 -1.4388 -1.56245 0
M  V30 3452 H 319.729 -0.594784 -0.738198 0
M  V30 3453 H 319.435 -1.71453 -3.07078 0
M  V30 3454 H 319.309 -0.11021 -3.77039 0
M  V30 3455 H 321.696 0.405297 -2.92304 0
M  V30 3456 H 321.777 -1.22687 -2.24458 0
M  V30 3457 H 321.421 -2.1919 -4.58168 0
M  V30 3458 H 321.351 -0.537365 -5.23851 0
M  V30 3459 H 323.842 -0.784895 -3.69659 0
M  V30 3460 H 324.155 -2.21148 -7.40482 0
M  V30 3461 H 322.5 -1.98219 -6.66134 0
M  V30 3462 H 325.691 -1.0545 -4.56068 0
M  V30 3463 H 325.864 -1.70481 -6.25172 0
M  V30 3464 N 319.27 1.56325 -0.20005 0
M  V30 3465 C 320.2 2.22318 0.713916 0
M  V30 3466 C 321.181 1.18788 1.21752 0
M  V30 3467 O 322.366 1.47309 1.26545 0
M  V30 3468 C 319.496 2.88639 1.93144 0
M  V30 3469 C 318.45 3.98457 1.56255 0
M  V30 3470 C 317.776 4.51967 2.85709 0
M  V30 3471 C 319.076 5.16612 0.768747 0
M  V30 3472 H 320.77 2.98952 0.163755 0
M  V30 3473 H 318.316 1.43792 0.0773219 0
M  V30 3474 H 320.269 3.33491 2.57608 0
M  V30 3475 H 318.993 2.09419 2.50621 0
M  V30 3476 H 317.652 3.54305 0.941471 0
M  V30 3477 H 317.3 3.69503 3.41287 0
M  V30 3478 H 317 5.26071 2.6177 0
M  V30 3479 H 318.524 4.99523 3.51154 0
M  V30 3480 H 319.938 5.57977 1.3166 0
M  V30 3481 H 318.335 5.96812 0.627286 0
M  V30 3482 H 319.405 4.84358 -0.229168 0
M  V30 3483 N 320.748 -0.0735177 1.57428 0
M  V30 3484 C 322.164 -0.428264 1.53747 0
M  V30 3485 C 322.364 -1.79272 0.91998 0
M  V30 3486 O 321.42 -2.47051 0.521745 0
M  V30 3487 C 322.733 -0.370914 2.98404 0
M  V30 3488 C 324.281 -0.451224 3.0973 0
M  V30 3489 C 324.756 -0.4238 4.56035 0
M  V30 3490 N 326.247 -0.483925 4.60665 0
M  V30 3491 C 326.982 -0.484891 5.71346 0
M  V30 3492 N 326.478 -0.440775 6.91396 0
M  V30 3493 N 328.271 -0.531319 5.59583 0
M  V30 3494 H 320.422 0.819949 1.95935 0
M  V30 3495 H 322.685 0.307493 0.896745 0
M  V30 3496 H 322.391 0.564956 3.47133 0
M  V30 3497 H 322.265 -1.18176 3.5821 0
M  V30 3498 H 324.652 -1.37752 2.60976 0
M  V30 3499 H 324.733 0.388167 2.52838 0
M  V30 3500 H 324.377 0.498638 5.05446 0
M  V30 3501 H 324.307 -1.2807 5.10789 0
M  V30 3502 H 326.798 -0.522338 3.74273 0
M  V30 3503 H 327.111 -0.44539 7.71515 0
M  V30 3504 H 325.456 -0.40749 6.93804 0
M  V30 3505 H 328.647 -0.563464 4.64696 0
M  V30 3506 H 328.82 -0.528603 6.4584 0
M  V30 3507 N 322.226 -1.5378 -0.344866 0
M  V30 3508 C 323.173 -1.81676 -1.42346 0
M  V30 3509 C 324.143 -0.662376 -1.52321 0
M  V30 3510 O 325.328 -0.906675 -1.67881 0
M  V30 3511 C 322.468 -2.03087 -2.79015 0
M  V30 3512 C 321.581 -3.30799 -2.77842 0
M  V30 3513 C 320.716 -3.42285 -4.0622 0
M  V30 3514 C 319.755 -4.6395 -3.9927 0
M  V30 3515 N 318.892 -4.72477 -5.19336 0
M  V30 3516 H 323.732 -2.73703 -1.17858 0
M  V30 3517 H 321.269 -1.35568 -0.570949 0
M  V30 3518 H 323.227 -2.1349 -3.58438 0
M  V30 3519 H 321.857 -1.14375 -3.01858 0
M  V30 3520 H 320.909 -3.29244 -1.90533 0
M  V30 3521 H 322.221 -4.20314 -2.68584 0
M  V30 3522 H 321.375 -3.52113 -4.94066 0
M  V30 3523 H 320.114 -2.50823 -4.18258 0
M  V30 3524 H 319.119 -4.54201 -3.09809 0
M  V30 3525 H 320.344 -5.56775 -3.88817 0
M  V30 3526 H 318.29 -3.83924 -5.3192 0
M  V30 3527 H 318.207 -5.55927 -5.12329 0
M  V30 3528 H 319.475 -4.86613 -6.08957 0
M  V30 3529 N 323.704 0.605807 -1.45491 0
M  V30 3530 C 324.654 1.71074 -1.50724 0
M  V30 3531 C 325.638 1.5658 -0.37033 0
M  V30 3532 O 326.83 1.65887 -0.617299 0
M  V30 3533 C 323.959 3.0983 -1.47852 0
M  V30 3534 C 323.045 3.29704 -2.66751 0
M  V30 3535 N 323.436 3.19831 -3.91844 0
M  V30 3536 C 321.734 3.60579 -2.62486 0
M  V30 3537 C 322.435 3.41083 -4.71208 0
M  V30 3538 N 321.411 3.65157 -4.02693 0
M  V30 3539 H 325.213 1.61937 -2.45263 0
M  V30 3540 H 322.727 0.80912 -1.40808 0
M  V30 3541 H 324.724 3.89101 -1.49686 0
M  V30 3542 H 323.384 3.20115 -0.543714 0
M  V30 3543 H 324.395 2.98194 -4.23439 0
M  V30 3544 H 321.072 3.7769 -1.77922 0
M  V30 3545 H 322.462 3.38828 -5.80211 0
M  V30 3546 N 325.182 1.32811 0.848464 0
M  V30 3547 C 326.114 1.18095 1.96433 0
M  V30 3548 C 327.127 0.114354 1.62398 0
M  V30 3549 O 328.316 0.363892 1.74751 0
M  V30 3550 C 325.416 0.786798 3.2964 0
M  V30 3551 C 324.589 1.943 3.91875 0
M  V30 3552 C 323.648 1.53138 5.03423 0
M  V30 3553 O 322.674 2.24432 5.23086 0
M  V30 3554 N 323.876 0.430915 5.78898 0
M  V30 3555 H 326.641 2.14218 2.09597 0
M  V30 3556 H 324.202 1.2543 1.02367 0
M  V30 3557 H 326.194 0.493715 4.01677 0
M  V30 3558 H 324.764 -0.0834541 3.12489 0
M  V30 3559 H 323.984 2.40224 3.12547 0
M  V30 3560 H 325.272 2.71689 4.30189 0
M  V30 3561 H 324.67 -0.162333 5.65467 0
M  V30 3562 H 323.227 0.197466 6.51501 0
M  V30 3563 N 326.66 -1.06551 1.16123 0
M  V30 3564 C 327.908 -1.78947 0.939267 0
M  V30 3565 C 328.229 -1.87532 -0.534476 0
M  V30 3566 O 327.499 -1.38211 -1.38833 0
M  V30 3567 H 326.079 -0.662807 0.344523 0
M  V30 3568 H 328.741 -1.28725 1.46342 0
M  V30 3569 H 327.837 -2.81117 1.35572 0
M  V30 3570 N 328.138 -0.959301 -1.25041 0
M  V30 3571 C 329.088 -0.453888 -2.23436 0
M  V30 3572 C 330.072 0.459461 -1.542 0
M  V30 3573 O 331.264 0.291752 -1.74579 0
M  V30 3574 C 328.393 0.262667 -3.42294 0
M  V30 3575 C 327.479 -0.669022 -4.1879 0
M  V30 3576 N 327.87 -1.80267 -4.72586 0
M  V30 3577 C 326.168 -0.47814 -4.4343 0
M  V30 3578 C 326.869 -2.38475 -5.3057 0
M  V30 3579 N 325.845 -1.67078 -5.17287 0
M  V30 3580 H 329.647 -1.319 -2.6264 0
M  V30 3581 H 327.161 -0.817358 -1.40332 0
M  V30 3582 H 329.158 0.641911 -4.11929 0
M  V30 3583 H 327.818 1.12432 -3.04613 0
M  V30 3584 H 328.829 -2.18442 -4.69578 0
M  V30 3585 H 325.506 0.340249 -4.16111 0
M  V30 3586 H 326.896 -3.34094 -5.8295 0
M  V30 3587 N 329.616 1.39756 -0.72842 0
M  V30 3588 C 330.863 2.00645 -0.273487 0
M  V30 3589 C 331.191 1.57786 1.13727 0
M  V30 3590 O 330.446 0.794886 1.7883 0
M  V30 3591 C 330.745 3.56002 -0.315776 0
M  V30 3592 C 330.411 4.18489 -1.67863 0
M  V30 3593 C 329.073 4.3527 -2.05166 0
M  V30 3594 C 331.425 4.53219 -2.57375 0
M  V30 3595 C 328.753 4.84069 -3.31503 0
M  V30 3596 C 331.105 5.03423 -3.83077 0
M  V30 3597 C 329.769 5.18413 -4.20481 0
M  V30 3598 H 329.039 0.734211 -0.100076 0
M  V30 3599 H 331.686 1.6718 -0.933972 0
M  V30 3600 H 329.991 3.89452 0.428285 0
M  V30 3601 H 331.688 4.00963 0.0542575 0
M  V30 3602 H 328.278 4.05824 -1.37858 0
M  V30 3603 H 332.462 4.39878 -2.29827 0
M  V30 3604 H 327.718 4.93859 -3.60435 0
M  V30 3605 H 331.892 5.2927 -4.52599 0
M  V30 3606 H 329.519 5.55987 -5.18443 0
M  V30 3607 N 331.094 0.475555 1.50254 0
M  V30 3608 C 332.024 -0.30611 2.31485 0
M  V30 3609 C 333.005 -0.986228 1.38591 0
M  V30 3610 O 334.19 -0.982541 1.67511 0
M  V30 3611 C 331.32 -1.38588 3.1845 0
M  V30 3612 C 330.274 -0.827115 4.19932 0
M  V30 3613 C 329.6 -2.00551 4.95665 0
M  V30 3614 C 330.9 0.16463 5.2204 0
M  V30 3615 H 332.594 0.371866 2.97082 0
M  V30 3616 H 330.14 0.180282 1.42867 0
M  V30 3617 H 332.093 -1.94023 3.74076 0
M  V30 3618 H 330.817 -2.09269 2.50747 0
M  V30 3619 H 329.476 -0.294702 3.65414 0
M  V30 3620 H 329.124 -2.6994 4.2443 0
M  V30 3621 H 328.824 -1.63784 5.64313 0
M  V30 3622 H 330.348 -2.56468 5.54127 0
M  V30 3623 H 331.762 -0.300699 5.72511 0
M  V30 3624 H 330.159 0.446813 5.98434 0
M  V30 3625 H 331.229 1.08905 4.72512 0
M  V30 3626 N 332.573 -1.56217 0.208337 0
M  V30 3627 C 333.503 -2.22694 -0.702116 0
M  V30 3628 C 334.484 -1.19432 -1.2112 0
M  V30 3629 O 335.669 -1.47978 -1.25762 0
M  V30 3630 C 332.799 -2.8966 -1.9161 0
M  V30 3631 C 331.753 -3.9928 -1.5414 0
M  V30 3632 C 331.079 -4.53476 -2.83308 0
M  V30 3633 C 332.379 -5.17012 -0.741339 0
M  V30 3634 H 334.073 -2.99034 -0.147898 0
M  V30 3635 H 331.619 -1.43831 -0.0696951 0
M  V30 3636 H 333.572 -3.34852 -2.55836 0
M  V30 3637 H 332.296 -2.10746 -2.49507 0
M  V30 3638 H 330.955 -3.54799 -0.922668 0
M  V30 3639 H 330.603 -3.71308 -3.39322 0
M  V30 3640 H 330.303 -5.27451 -2.58976 0
M  V30 3641 H 331.827 -5.01378 -3.485 0
M  V30 3642 H 333.241 -5.58667 -1.28699 0
M  V30 3643 H 331.638 -5.97137 -0.595627 0
M  V30 3644 H 332.708 -4.8423 0.254851 0
M  V30 3645 N 334.051 0.0651679 -1.57465 0
M  V30 3646 C 335.299 0.761555 -1.87202 0
M  V30 3647 C 335.62 1.77778 -0.801243 0
M  V30 3648 O 334.89 1.95166 0.16937 0
M  V30 3649 H 333.47 0.284251 -0.690804 0
M  V30 3650 H 336.132 0.0396827 -1.9486 0
M  V30 3651 H 335.228 1.27365 -2.84929 0
M  V30 3652 N 335.529 1.53961 0.336706 0
M  V30 3653 C 336.757 1.75483 1.09605 0
M  V30 3654 C 337.172 0.4972 1.82136 0
M  V30 3655 O 336.529 -0.53149 1.74589 0
M  V30 3656 C 336.58 2.93943 2.10428 0
M  V30 3657 O 336.301 4.14842 1.40846 0
M  V30 3658 C 337.802 3.27571 2.98684 0
M  V30 3659 H 335.022 0.586166 0.326574 0
M  V30 3660 H 337.566 2.00808 0.38683 0
M  V30 3661 H 335.721 2.70929 2.76905 0
M  V30 3662 H 336.135 4.81383 2.08255 0
M  V30 3663 H 337.609 4.13791 3.6535 0
M  V30 3664 H 338.086 2.44168 3.65074 0
M  V30 3665 H 338.692 3.52615 2.37787 0
M  V30 3666 N 337.007 -0.598083 1.45811 0
M  V30 3667 C 337.937 -1.71873 1.58057 0
M  V30 3668 C 338.918 -1.64533 0.431615 0
M  V30 3669 O 340.103 -1.82787 0.65595 0
M  V30 3670 C 337.233 -3.10495 1.55597 0
M  V30 3671 C 336.187 -3.32654 2.69305 0
M  V30 3672 C 335.513 -4.71646 2.51902 0
M  V30 3673 C 336.813 -3.21981 4.11248 0
M  V30 3674 H 338.507 -1.61881 2.51863 0
M  V30 3675 H 336.053 -0.777372 1.21214 0
M  V30 3676 H 338.006 -3.88699 1.6276 0
M  V30 3677 H 336.73 -3.2135 0.583255 0
M  V30 3678 H 335.389 -2.56843 2.61586 0
M  V30 3679 H 335.037 -4.79246 1.52748 0
M  V30 3680 H 334.737 -4.87426 3.2816 0
M  V30 3681 H 336.261 -5.52038 2.60933 0
M  V30 3682 H 337.675 -3.90049 4.20161 0
M  V30 3683 H 336.072 -3.49289 4.87972 0
M  V30 3684 H 337.142 -2.1928 4.32486 0
M  V30 3685 N 338.485 -1.33259 -0.841409 0
M  V30 3686 C 339.71 -1.2775 -1.63385 0
M  V30 3687 C 340.135 0.149188 -1.87507 0
M  V30 3688 O 339.493 1.10498 -1.43736 0
M  V30 3689 C 339.541 -2.05571 -2.96265 0
M  V30 3690 O 338.645 -1.41257 -3.87453 0
M  V30 3691 H 337.986 -0.439627 -0.497618 0
M  V30 3692 H 340.516 -1.75782 -1.04699 0
M  V30 3693 H 340.526 -2.16241 -3.45982 0
M  V30 3694 H 339.201 -3.09309 -2.7803 0
M  V30 3695 H 337.778 -1.39217 -3.45938 0
M  V30 3696 N 339.963 1.05934 -1.16686 0
M  V30 3697 C 341.379 1.30938 -0.912542 0
M  V30 3698 C 341.579 1.96803 0.432533 0
M  V30 3699 O 340.635 2.23693 1.17123 0
M  V30 3700 C 341.948 2.18649 -2.06429 0
M  V30 3701 C 343.496 2.32055 -2.10047 0
M  V30 3702 C 343.971 3.23122 -3.24586 0
M  V30 3703 N 345.462 3.30706 -3.24327 0
M  V30 3704 C 346.197 4.01273 -4.09594 0
M  V30 3705 N 345.693 4.74332 -5.04956 0
M  V30 3706 N 347.486 3.97361 -3.97569 0
M  V30 3707 H 339.637 0.615777 -2.03278 0
M  V30 3708 H 341.9 0.334077 -0.887185 0
M  V30 3709 H 341.606 1.77534 -3.03603 0
M  V30 3710 H 341.48 3.19252 -2.00894 0
M  V30 3711 H 343.867 2.72415 -1.13464 0
M  V30 3712 H 343.948 1.31107 -2.19647 0
M  V30 3713 H 343.592 2.83477 -4.2143 0
M  V30 3714 H 343.522 4.24057 -3.12223 0
M  V30 3715 H 346.013 2.78644 -2.55276 0
M  V30 3716 H 346.326 5.25716 -5.6643 0
M  V30 3717 H 344.671 4.733 -5.08933 0
M  V30 3718 H 347.862 3.39405 -3.22369 0
M  V30 3719 H 348.035 4.52089 -4.64241 0
M  V30 3720 N 341.441 0.965919 1.2453 0
M  V30 3721 C 342.671 0.643451 1.96324 0
M  V30 3722 C 343.079 -0.790927 1.71875 0
M  V30 3723 O 342.422 -1.54208 0.998273 0
M  V30 3724 C 342.484 0.836078 3.49643 0
M  V30 3725 C 342.148 2.24975 3.97788 0
M  V30 3726 C 343.145 3.22735 4.07601 0
M  V30 3727 C 340.83 2.57697 4.31158 0
M  V30 3728 C 342.824 4.51303 4.50116 0
M  V30 3729 C 340.511 3.86492 4.73357 0
M  V30 3730 C 341.509 4.83107 4.828 0
M  V30 3731 O 341.197 6.09605 5.24058 0
M  V30 3732 H 340.929 0.239223 0.632257 0
M  V30 3733 H 343.483 1.29587 1.59362 0
M  V30 3734 H 341.713 0.12649 3.86493 0
M  V30 3735 H 343.402 0.512965 4.02646 0
M  V30 3736 H 344.168 2.98783 3.82039 0
M  V30 3737 H 340.047 1.83216 4.23028 0
M  V30 3738 H 343.591 5.26716 4.57401 0
M  V30 3739 H 339.488 4.10245 4.98366 0
M  V30 3740 H 340.256 6.13146 5.42213 0
M  V30 3741 N 342.919 -1.39368 0.735821 0
M  V30 3742 C 343.882 -2.2896 0.104874 0
M  V30 3743 C 344.882 -1.46347 -0.666274 0
M  V30 3744 O 346.072 -1.67014 -0.49517 0
M  V30 3745 C 343.204 -3.29857 -0.860656 0
M  V30 3746 H 344.397 -2.86259 0.894205 0
M  V30 3747 H 341.95 -1.48029 0.501704 0
M  V30 3748 H 342.685 -2.77615 -1.67631 0
M  V30 3749 H 342.47 -3.9087 -0.310327 0
M  V30 3750 H 343.96 -3.96893 -1.29867 0
M  V30 3751 N 344.397 -0.483516 -1.5 0
M  V30 3752 C 345.643 0.0672592 -2.02688 0
M  V30 3753 C 345.976 1.38247 -1.36387 0
M  V30 3754 O 345.251 1.88131 -0.493675 0
M  V30 3755 C 345.534 0.238109 -3.59312 0
M  V30 3756 C 345.387 -1.099 -4.36168 0
M  V30 3757 C 346.706 0.986916 -4.28892 0
M  V30 3758 H 343.825 0.0229696 -0.736642 0
M  V30 3759 H 346.467 -0.631527 -1.79197 0
M  V30 3760 H 344.617 0.8333 -3.79458 0
M  V30 3761 H 346.289 -1.73172 -4.27562 0
M  V30 3762 H 344.532 -1.69261 -3.99416 0
M  V30 3763 H 345.203 -0.932954 -5.44059 0
M  V30 3764 H 347.679 0.482302 -4.13295 0
M  V30 3765 H 346.555 1.07527 -5.38265 0
M  V30 3766 H 346.816 2.0265 -3.92919 0
M  V30 3767 N 345.875 1.56104 -0.216619 0
M  V30 3768 C 346.807 2.17339 0.72776 0
M  V30 3769 C 347.82 1.14109 1.16116 0
M  V30 3770 O 349.009 1.4111 1.09317 0
M  V30 3771 C 346.109 2.73818 1.99693 0
M  V30 3772 C 345.282 4.02168 1.71988 0
M  V30 3773 C 344.341 4.43259 2.83562 0
M  V30 3774 O 343.367 5.10257 2.52244 0
M  V30 3775 N 344.569 4.08535 4.12407 0
M  V30 3776 H 347.334 2.99005 0.203983 0
M  V30 3777 H 344.895 1.61861 -0.0354289 0
M  V30 3778 H 346.887 2.9828 2.73516 0
M  V30 3779 H 345.457 1.96483 2.43132 0
M  V30 3780 H 344.677 3.85612 0.818337 0
M  V30 3781 H 345.965 4.85907 1.50903 0
M  V30 3782 H 345.363 3.54687 4.40696 0
M  V30 3783 H 343.92 4.37901 4.8279 0
M  V30 3784 N 347.353 -0.0568162 1.57498 0
M  V30 3785 C 348.599 -0.75422 1.88253 0
M  V30 3786 C 348.932 -1.76461 0.810865 0
M  V30 3787 O 348.207 -1.93691 -0.177259 0
M  V30 3788 C 348.49 -1.44878 3.2967 0
M  V30 3789 C 348.343 -0.453789 4.47505 0
M  V30 3790 C 349.662 -2.38994 3.69554 0
M  V30 3791 H 346.781 -0.272724 0.684683 0
M  V30 3792 H 349.423 -0.0172113 1.89992 0
M  V30 3793 H 347.573 -2.077 3.28318 0
M  V30 3794 H 349.245 0.170371 4.60985 0
M  V30 3795 H 347.488 0.229552 4.33192 0
M  V30 3796 H 348.159 -0.977699 5.43273 0
M  V30 3797 H 350.635 -1.86239 3.72095 0
M  V30 3798 H 349.511 -2.84587 4.69363 0
M  V30 3799 H 349.772 -3.24461 3.00296 0
M  V30 3800 N 348.832 -1.54138 -0.328536 0
M  V30 3801 C 349.795 -1.82462 -1.38709 0
M  V30 3802 C 350.795 -0.696229 -1.44946 0
M  V30 3803 O 351.985 -0.964535 -1.4506 0
M  V30 3804 C 349.117 -1.98018 -2.77492 0
M  V30 3805 H 350.31 -2.77037 -1.14851 0
M  V30 3806 H 347.863 -1.45779 -0.563751 0
M  V30 3807 H 348.598 -1.05637 -3.06613 0
M  V30 3808 H 348.383 -2.80124 -2.74359 0
M  V30 3809 H 349.873 -2.21396 -3.54081 0
M  V30 3810 N 350.31 0.590341 -1.46126 0
M  V30 3811 C 351.22 1.72793 -1.58681 0
M  V30 3812 C 352.236 1.67516 -0.470566 0
M  V30 3813 O 353.412 1.87562 -0.733642 0
M  V30 3814 C 350.477 3.09287 -1.5666 0
M  V30 3815 C 349.538 3.25886 -2.79458 0
M  V30 3816 C 348.771 4.55869 -2.77524 0
M  V30 3817 O 348.994 5.3928 -1.85832 0
M  V30 3818 O 347.928 4.75552 -3.68964 0
M  V30 3819 H 351.754 1.65149 -2.54872 0
M  V30 3820 H 349.339 0.756486 -1.28832 0
M  V30 3821 H 351.221 3.90577 -1.58202 0
M  V30 3822 H 349.896 3.17385 -0.636271 0
M  V30 3823 H 348.803 2.44119 -2.83472 0
M  V30 3824 H 350.136 3.22675 -3.71674 0
M  V30 3825 N 351.788 1.33704 0.83433 0
M  V30 3826 C 353.036 1.25169 1.58673 0
M  V30 3827 C 353.357 -0.18127 1.94156 0
M  V30 3828 O 352.627 -1.11113 1.6134 0
M  V30 3829 H 351.207 0.4603 0.58833 0
M  V30 3830 H 353.869 1.67478 0.996847 0
M  V30 3831 H 352.965 1.84856 2.51465 0
M  V30 3832 N 353.266 -1.05314 1.17247 0
M  V30 3833 C 354.199 -2.12512 0.831507 0
M  V30 3834 C 355.177 -1.61351 -0.201168 0
M  V30 3835 O 356.361 -1.88317 -0.0829831 0
M  V30 3836 C 353.488 -3.37848 0.24015 0
M  V30 3837 C 352.534 -4.07832 1.24801 0
M  V30 3838 S 353.367 -4.56537 2.79882 0
M  V30 3839 C 354.523 -5.85122 2.22223 0
M  V30 3840 H 354.756 -2.41106 1.7394 0
M  V30 3841 H 352.289 -1.17896 0.996988 0
M  V30 3842 H 354.247 -4.10391 -0.0945588 0
M  V30 3843 H 352.908 -3.07392 -0.645668 0
M  V30 3844 H 352.101 -4.97883 0.78287 0
M  V30 3845 H 351.703 -3.41348 1.52831 0
M  V30 3846 H 353.995 -6.58408 1.59703 0
M  V30 3847 H 354.938 -6.36381 3.10523 0
M  V30 3848 H 355.346 -5.39626 1.65722 0
M  V30 3849 N 354.744 -0.972509 -1.24016 0
M  V30 3850 C 355.992 -0.635776 -1.91839 0
M  V30 3851 C 356.313 0.832312 -1.76345 0
M  V30 3852 O 355.583 1.5946 -1.13795 0
M  V30 3853 H 354.163 -0.232157 -0.710009 0
M  V30 3854 H 356.825 -1.23462 -1.50809 0
M  V30 3855 H 355.921 -0.880545 -2.99421 0
M  V30 3856 N 356.222 1.38976 -0.743202 0
M  V30 3857 C 357.452 2.04339 -0.304807 0
M  V30 3858 C 357.86 1.56162 1.06819 0
M  V30 3859 O 357.203 0.725284 1.68776 0
M  V30 3860 C 357.265 3.58716 -0.237369 0
M  V30 3861 C 356.929 4.29905 -1.55018 0
M  V30 3862 C 357.926 4.55987 -2.49744 0
M  V30 3863 C 355.611 4.68294 -1.81675 0
M  V30 3864 C 357.605 5.19478 -3.69353 0
M  V30 3865 C 355.292 5.31512 -3.0156 0
M  V30 3866 C 356.29 5.57037 -3.9522 0
M  V30 3867 O 355.978 6.18941 -5.12998 0
M  V30 3868 H 355.71 0.663439 -0.12971 0
M  V30 3869 H 358.264 1.78852 -1.01001 0
M  V30 3870 H 356.494 3.83133 0.524003 0
M  V30 3871 H 358.183 4.05543 0.170121 0
M  V30 3872 H 358.949 4.26767 -2.30423 0
M  V30 3873 H 354.828 4.47779 -1.09615 0
M  V30 3874 H 358.372 5.39318 -4.42473 0
M  V30 3875 H 354.269 5.60153 -3.20778 0
M  V30 3876 H 355.037 6.37433 -5.13441 0
M  V30 3877 N 357.7 0.491464 1.49741 0
M  V30 3878 C 358.63 -0.28154 2.31796 0
M  V30 3879 C 359.611 -0.971473 1.3963 0
M  V30 3880 O 360.796 -0.964719 1.68543 0
M  V30 3881 C 357.926 -1.35203 3.19902 0
M  V30 3882 C 356.88 -0.782529 4.20786 0
M  V30 3883 C 356.206 -1.95283 4.97764 0
M  V30 3884 C 357.506 0.21999 5.21837 0
M  V30 3885 H 359.2 0.403355 2.96671 0
M  V30 3886 H 356.746 0.195425 1.42668 0
M  V30 3887 H 358.699 -1.90045 3.76113 0
M  V30 3888 H 357.423 -2.06598 2.52953 0
M  V30 3889 H 356.082 -0.255928 3.65706 0
M  V30 3890 H 355.73 -2.65423 4.2727 0
M  V30 3891 H 355.43 -1.57789 5.66018 0
M  V30 3892 H 356.954 -2.50577 5.56816 0
M  V30 3893 H 358.368 -0.23996 5.72798 0
M  V30 3894 H 356.765 0.51026 5.97927 0
M  V30 3895 H 357.835 1.13911 4.7133 0
M  V30 3896 N 359.178 -1.55987 0.224894 0
M  V30 3897 C 360.088 -2.24066 -0.69511 0
M  V30 3898 C 361.104 -1.24939 -1.21104 0
M  V30 3899 O 362.28 -1.5776 -1.25195 0
M  V30 3900 C 359.345 -2.90983 -1.88493 0
M  V30 3901 C 358.406 -4.05462 -1.41064 0
M  V30 3902 C 357.639 -4.69179 -2.54375 0
M  V30 3903 O 357.862 -4.31895 -3.72589 0
M  V30 3904 O 356.796 -5.58108 -2.25386 0
M  V30 3905 H 360.622 -3.03353 -0.145149 0
M  V30 3906 H 358.207 -1.49399 -0.00569476 0
M  V30 3907 H 360.089 -3.33209 -2.57972 0
M  V30 3908 H 358.764 -2.14653 -2.42293 0
M  V30 3909 H 357.671 -3.67798 -0.683774 0
M  V30 3910 H 359.004 -4.83545 -0.918985 0
M  V30 3911 N 360.656 0.0484629 -1.57525 0
M  V30 3912 C 361.881 0.759177 -1.93006 0
M  V30 3913 C 362.306 1.69125 -0.823317 0
M  V30 3914 O 361.664 1.79931 0.222364 0
M  V30 3915 C 361.712 1.50899 -3.27509 0
M  V30 3916 O 360.816 2.62112 -3.18388 0
M  V30 3917 H 360.157 0.205564 -0.631379 0
M  V30 3918 H 362.687 0.00972959 -2.04598 0
M  V30 3919 H 362.697 1.88317 -3.6194 0
M  V30 3920 H 361.372 0.825269 -4.0763 0
M  V30 3921 H 359.949 2.27379 -2.95556 0
M  V30 3922 N 362.134 1.5431 0.320358 0
M  V30 3923 C 363.081 1.83918 1.39438 0
M  V30 3924 C 364.051 0.686525 1.51248 0
M  V30 3925 O 365.236 0.933269 1.66417 0
M  V30 3926 C 362.376 2.075 2.75749 0
M  V30 3927 C 361.489 3.35177 2.72544 0
M  V30 3928 C 360.624 3.48704 4.00723 0
M  V30 3929 C 359.663 4.70244 3.91838 0
M  V30 3930 N 358.8 4.80679 5.11754 0
M  V30 3931 H 363.64 2.75544 1.13489 0
M  V30 3932 H 361.177 1.36459 0.549309 0
M  V30 3933 H 363.135 2.19166 3.54996 0
M  V30 3934 H 361.765 1.19163 3 0
M  V30 3935 H 360.817 3.32233 1.85271 0
M  V30 3936 H 362.129 4.24534 2.61863 0
M  V30 3937 H 361.283 3.59928 4.88402 0
M  V30 3938 H 360.022 2.57445 4.14214 0
M  V30 3939 H 359.027 4.59072 3.02544 0
M  V30 3940 H 360.252 5.6289 3.7991 0
M  V30 3941 H 358.198 3.92337 5.25745 0
M  V30 3942 H 358.115 5.64007 5.0342 0
M  V30 3943 H 359.383 4.96239 6.01138 0
M  V30 3944 N 363.613 -0.582584 1.46437 0
M  V30 3945 C 365.029 -0.905962 1.31394 0
M  V30 3946 C 365.229 -1.99468 0.285476 0
M  V30 3947 O 364.285 -2.50566 -0.311914 0
M  V30 3948 C 365.598 -1.3232 2.70022 0
M  V30 3949 C 367.146 -1.43604 2.78113 0
M  V30 3950 C 367.621 -1.88694 4.17323 0
M  V30 3951 N 369.112 -1.95887 4.19741 0
M  V30 3952 C 369.847 -2.32051 5.24347 0
M  V30 3953 N 369.343 -2.67006 6.39281 0
M  V30 3954 N 371.136 -2.32606 5.11713 0
M  V30 3955 H 363.287 0.1366 2.1196 0
M  V30 3956 H 365.55 -0.00155736 0.947999 0
M  V30 3957 H 365.256 -0.597242 3.46592 0
M  V30 3958 H 365.13 -2.28469 3.00136 0
M  V30 3959 H 367.517 -2.15286 2.01832 0
M  V30 3960 H 367.598 -0.457059 2.51684 0
M  V30 3961 H 367.242 -1.1759 4.941 0
M  V30 3962 H 367.172 -2.8755 4.4116 0
M  V30 3963 H 369.663 -1.71362 3.36814 0
M  V30 3964 H 369.976 -2.93554 7.14875 0
M  V30 3965 H 368.321 -2.64644 6.42642 0
M  V30 3966 H 371.512 -2.04721 4.2096 0
M  V30 3967 H 371.685 -2.60462 5.93349 0
M  V30 3968 N 365.091 -1.34144 -0.827227 0
M  V30 3969 C 366.338 -1.26258 -1.58319 0
M  V30 3970 C 366.666 0.168595 -1.93768 0
M  V30 3971 O 365.921 1.12877 -1.59866 0
M  V30 3972 C 366.22 -2.09464 -2.89585 0
M  V30 3973 C 365.886 -3.58521 -2.73448 0
M  V30 3974 C 364.548 -3.99155 -2.68754 0
M  V30 3975 C 366.9 -4.53189 -2.57428 0
M  V30 3976 C 364.228 -5.32656 -2.45957 0
M  V30 3977 C 366.58 -5.86864 -2.36163 0
M  V30 3978 C 365.244 -6.26667 -2.29879 0
M  V30 3979 H 364.514 -0.462013 -0.579332 0
M  V30 3980 H 367.161 -1.65845 -0.95748 0
M  V30 3981 H 365.466 -1.62692 -3.56425 0
M  V30 3982 H 367.163 -2.00712 -3.47154 0
M  V30 3983 H 363.753 -3.26264 -2.77939 0
M  V30 3984 H 367.937 -4.22696 -2.60081 0
M  V30 3985 H 363.193 -5.62519 -2.39546 0
M  V30 3986 H 367.367 -6.59813 -2.22754 0
M  V30 3987 H 364.994 -7.30049 -2.11975 0
M  V30 3988 N 366.569 1.04691 -1.17803 0
M  V30 3989 C 367.818 1.77176 -0.963931 0
M  V30 3990 C 368.131 1.88888 0.508015 0
M  V30 3991 O 369.337 2.58164 0.840465 0
M  V30 3992 C 367.793 3.18518 -1.67555 0
M  V30 3993 C 367.401 3.14919 -3.18637 0
M  V30 3994 C 369.145 3.95424 -1.54402 0
M  V30 3995 C 367.052 4.51081 -3.82466 0
M  V30 3996 H 365.982 0.664116 -0.357023 0
M  V30 3997 H 368.633 1.17303 -1.4111 0
M  V30 3998 H 367.015 3.78748 -1.15613 0
M  V30 3999 H 368.189 2.64178 -3.77554 0
M  V30 4000 H 366.504 2.51512 -3.31859 0
M  V30 4001 H 369.101 4.96106 -1.99456 0
M  V30 4002 H 369.444 4.13343 -0.495329 0
M  V30 4003 H 369.977 3.41754 -2.0359 0
M  V30 4004 H 366.716 4.38368 -4.87354 0
M  V30 4005 H 366.236 5.01951 -3.28337 0
M  V30 4006 H 367.915 5.2001 -3.84965 0
M  V30 4007 N 368.047 0.979072 1.23499 0
M  V30 4008 C 368.997 0.489378 2.22686 0
M  V30 4009 C 369.981 -0.434871 1.54912 0
M  V30 4010 O 371.173 -0.263941 1.75021 0
M  V30 4011 C 368.302 -0.208178 3.42668 0
M  V30 4012 C 367.388 0.735563 4.17672 0
M  V30 4013 N 367.779 1.87763 4.69658 0
M  V30 4014 C 366.077 0.548625 4.42613 0
M  V30 4015 C 366.778 2.46886 5.26709 0
M  V30 4016 N 365.754 1.75287 5.14563 0
M  V30 4017 H 369.556 1.36062 2.60508 0
M  V30 4018 H 367.07 0.83958 1.39014 0
M  V30 4019 H 369.067 -0.576295 4.12898 0
M  V30 4020 H 367.727 -1.07572 3.06363 0
M  V30 4021 H 368.738 2.25885 4.66043 0
M  V30 4022 H 365.415 -0.274006 4.166 0
M  V30 4023 H 366.805 3.43326 5.77561 0
M  V30 4024 N 369.525 -1.3858 0.750561 0
M  V30 4025 C 370.941 -1.53759 0.427824 0
M  V30 4026 C 371.141 -1.71401 -1.05943 0
M  V30 4027 O 370.197 -1.72331 -1.84549 0
M  V30 4028 C 371.51 -2.74642 1.22443 0
M  V30 4029 C 373.058 -2.88489 1.2142 0
M  V30 4030 C 373.533 -4.12329 1.9937 0
M  V30 4031 N 375.024 -4.194 1.96616 0
M  V30 4032 C 375.759 -5.14209 2.53727 0
M  V30 4033 N 375.255 -6.14709 3.19539 0
M  V30 4034 N 377.048 -5.06537 2.43673 0
M  V30 4035 H 369.199 -1.25377 1.71447 0
M  V30 4036 H 371.462 -0.608844 0.726645 0
M  V30 4037 H 371.168 -2.68 2.27747 0
M  V30 4038 H 371.042 -3.67745 0.839273 0
M  V30 4039 H 373.429 -2.94614 0.169232 0
M  V30 4040 H 373.51 -1.96406 1.63885 0
M  V30 4041 H 373.154 -4.06966 3.03877 0
M  V30 4042 H 373.084 -5.03486 1.54302 0
M  V30 4043 H 375.575 -3.47421 1.48684 0
M  V30 4044 H 375.888 -6.8354 3.60545 0
M  V30 4045 H 374.233 -6.1505 3.23633 0
M  V30 4046 H 377.424 -4.26962 1.91889 0
M  V30 4047 H 377.597 -5.80245 2.88479 0
M  V30 4048 N 371.003 -0.499398 -1.49478 0
M  V30 4049 C 372.28 0.108629 -1.95298 0
M  V30 4050 C 372.66 1.54282 -1.44084 0
M  V30 4051 O 372.008 2.18944 -0.653908 0
M  V30 4052 C 372.218 0.0229111 -3.48992 0
M  V30 4053 C 373.566 0.197643 -4.2414 0
M  V30 4054 O 374.59 0.0981735 -3.56065 0
M  V30 4055 O 373.449 0.401669 -5.45022 0
M  V30 4056 H 370.543 0.096181 -0.821388 0
M  V30 4057 H 373.089 -0.561822 -1.6013 0
M  V30 4058 H 371.861 -0.977321 -3.78899 0
M  V30 4059 H 371.484 0.733579 -3.90774 0
M  V30 4060 N 372.481 1.55866 -0.233164 0
M  V30 4061 C 373.411 2.23783 0.666599 0
M  V30 4062 C 374.392 1.21343 1.19205 0
M  V30 4063 O 375.577 1.4996 1.23392 0
M  V30 4064 C 372.707 2.92671 1.86978 0
M  V30 4065 C 371.661 4.01682 1.47768 0
M  V30 4066 C 370.987 4.57926 2.76058 0
M  V30 4067 C 372.287 5.18126 0.658993 0
M  V30 4068 H 373.981 2.99232 0.100306 0
M  V30 4069 H 371.527 1.43924 0.046804 0
M  V30 4070 H 373.48 3.3888 2.50476 0
M  V30 4071 H 372.204 2.14688 2.46123 0
M  V30 4072 H 370.863 3.56222 0.866106 0
M  V30 4073 H 370.511 3.76659 3.33372 0
M  V30 4074 H 370.211 5.31505 2.50552 0
M  V30 4075 H 371.735 5.06859 3.40479 0
M  V30 4076 H 373.149 5.60644 1.19795 0
M  V30 4077 H 371.546 5.98009 0.500552 0
M  V30 4078 H 372.616 4.83763 -0.331856 0
M  V30 4079 N 373.959 -0.0401083 1.57549 0
M  V30 4080 C 374.922 -1.02871 2.04817 0
M  V30 4081 C 375.922 -1.29708 0.950388 0
M  V30 4082 O 377.112 -1.24897 1.21435 0
M  V30 4083 C 374.244 -2.36443 2.45576 0
M  V30 4084 H 375.437 -0.620631 2.93408 0
M  V30 4085 H 372.99 -0.286667 1.53649 0
M  V30 4086 H 373.725 -2.82021 1.60108 0
M  V30 4087 H 373.51 -2.18296 3.25713 0
M  V30 4088 H 375 -3.07441 2.82612 0
M  V30 4089 N 375.437 -1.54477 -0.31217 0
M  V30 4090 C 376.4 -1.83923 -1.36766 0
M  V30 4091 C 377.4 -0.711563 -1.44199 0
M  V30 4092 O 378.59 -0.979866 -1.44029 0
M  V30 4093 C 375.722 -2.0095 -2.75376 0
M  V30 4094 H 376.915 -2.78239 -1.11906 0
M  V30 4095 H 374.468 -1.46369 -0.548257 0
M  V30 4096 H 375.203 -1.08883 -3.05475 0
M  V30 4097 H 374.988 -2.83018 -2.71373 0
M  V30 4098 H 376.478 -2.2514 -3.51713 0
M  V30 4099 N 376.915 0.57481 -1.46744 0
M  V30 4100 C 378.331 0.898981 -1.31873 0
M  V30 4101 C 378.531 1.99313 -0.29605 0
M  V30 4102 O 377.587 2.50728 0.298621 0
M  V30 4103 C 378.9 1.30886 -2.7072 0
M  V30 4104 C 380.448 1.42127 -2.78871 0
M  V30 4105 C 380.923 1.86478 -4.18318 0
M  V30 4106 N 382.414 1.93658 -4.20774 0
M  V30 4107 C 383.149 2.29267 -5.2557 0
M  V30 4108 N 382.645 2.63612 -6.40688 0
M  V30 4109 N 384.438 2.29889 -5.1294 0
M  V30 4110 H 376.589 -0.147839 -2.11885 0
M  V30 4111 H 378.852 -0.00347013 -0.947994 0
M  V30 4112 H 378.558 0.578853 -3.46904 0
M  V30 4113 H 378.432 2.26874 -3.01343 0
M  V30 4114 H 380.819 2.14213 -2.0297 0
M  V30 4115 H 380.9 0.443705 -2.51922 0
M  V30 4116 H 380.544 1.14968 -4.94717 0
M  V30 4117 H 380.474 2.85207 -4.42679 0
M  V30 4118 H 382.965 1.69574 -3.37718 0
M  V30 4119 H 383.278 2.89759 -7.16421 0
M  V30 4120 H 381.623 2.61232 -6.44036 0
M  V30 4121 H 384.814 2.02485 -4.22039 0
M  V30 4122 H 384.987 2.57312 -5.94722 0
M  V30 4123 N 378.394 1.34581 0.820102 0
M  V30 4124 C 379.342 1.26401 1.95258 0
M  V30 4125 C 380.336 0.161553 1.68628 0
M  V30 4126 O 381.542 0.326703 1.7701 0
M  V30 4127 H 377.917 0.392749 0.64129 0
M  V30 4128 H 379.888 2.22105 1.99279 0
M  V30 4129 C 378.637 1.03919 3.31807 0
M  V30 4130 H 377.96 1.87984 3.52848 0
M  V30 4131 H 379.4 1.02232 4.11491 0
M  V30 4132 C 377.859 -0.257433 3.35915 0
M  V30 4133 O 378.389 -1.25784 3.81499 0
M  V30 4134 N 376.595 -0.291524 2.89134 0
M  V30 4135 H 376.142 0.523161 2.52232 0
M  V30 4136 H 376.1 -1.15883 2.92264 0
M  V30 4137 N 379.872 -1.04064 1.18357 0
M  V30 4138 C 380.802 -2.14001 0.934113 0
M  V30 4139 C 381.783 -1.69616 -0.128186 0
M  V30 4140 O 382.968 -1.94185 0.0244093 0
M  V30 4141 C 380.098 -3.44253 0.459066 0
M  V30 4142 C 379.052 -4.02261 1.46185 0
M  V30 4143 C 378.378 -5.27992 0.844322 0
M  V30 4144 C 379.678 -4.38432 2.83856 0
M  V30 4145 H 381.372 -2.35127 1.85352 0
M  V30 4146 H 378.918 -1.12998 0.892604 0
M  V30 4147 H 380.871 -4.20522 0.271907 0
M  V30 4148 H 379.595 -3.22813 -0.495912 0
M  V30 4149 H 378.254 -3.28074 1.63595 0
M  V30 4150 H 377.902 -5.02862 -0.117845 0
M  V30 4151 H 377.602 -5.67765 1.51384 0
M  V30 4152 H 379.126 -6.06938 0.667693 0
M  V30 4153 H 380.54 -5.05688 2.70098 0
M  V30 4154 H 378.937 -4.89254 3.47491 0
M  V30 4155 H 380.007 -3.4826 3.37406 0
M  V30 4156 N 381.35 -0.985608 -1.22978 0
M  V30 4157 C 382.28 -0.549649 -2.26939 0
M  V30 4158 C 383.261 0.419803 -1.64838 0
M  V30 4159 O 384.446 0.31203 -1.91677 0
M  V30 4160 C 381.576 0.143652 -3.47003 0
M  V30 4161 C 380.53 -0.743606 -4.21491 0
M  V30 4162 C 379.856 0.0822027 -5.34637 0
M  V30 4163 C 381.156 -2.03694 -4.80943 0
M  V30 4164 H 382.85 -1.41862 -2.63658 0
M  V30 4165 H 380.396 -0.683571 -1.26741 0
M  V30 4166 H 382.349 0.459985 -4.18882 0
M  V30 4167 H 381.073 1.04711 -3.09359 0
M  V30 4168 H 379.732 -1.04347 -3.51436 0
M  V30 4169 H 379.38 0.986359 -4.93234 0
M  V30 4170 H 379.08 -0.508377 -5.85397 0
M  V30 4171 H 380.604 0.392797 -6.09335 0
M  V30 4172 H 382.018 -1.78504 -5.44802 0
M  V30 4173 H 380.415 -2.57573 -5.42011 0
M  V30 4174 H 381.485 -2.72042 -4.01399 0
M  V30 4175 N 382.828 1.3818 -0.7579 0
M  V30 4176 C 383.758 2.33027 -0.148597 0
M  V30 4177 C 384.739 1.55085 0.69875 0
M  V30 4178 O 385.924 1.83384 0.639053 0
M  V30 4179 C 383.054 3.3928 0.742034 0
M  V30 4180 C 382.008 4.28 -0.00291946 0
M  V30 4181 C 381.334 5.25146 1.00625 0
M  V30 4182 C 382.634 5.08938 -1.17385 0
M  V30 4183 H 384.328 2.84231 -0.940909 0
M  V30 4184 H 381.874 1.36659 -0.453908 0
M  V30 4185 H 383.827 4.046 1.17799 0
M  V30 4186 H 382.551 2.86569 1.56671 0
M  V30 4187 H 381.21 3.64192 -0.419504 0
M  V30 4188 H 380.858 4.68721 1.8251 0
M  V30 4189 H 380.558 5.85361 0.512428 0
M  V30 4190 H 382.082 5.93342 1.44143 0
M  V30 4191 H 383.496 5.67474 -0.815224 0
M  V30 4192 H 381.893 5.7841 -1.59882 0
M  V30 4193 H 382.963 4.42424 -1.98468 0
M  V30 4194 N 384.306 0.507319 1.49211 0
M  V30 4195 C 385.269 -0.256763 2.27757 0
M  V30 4196 C 386.269 -0.888287 1.34038 0
M  V30 4197 O 387.459 -0.751841 1.5714 0
M  V30 4198 C 384.591 -1.36905 3.12202 0
M  V30 4199 H 385.784 0.432557 2.96764 0
M  V30 4200 H 383.337 0.262488 1.5408 0
M  V30 4201 H 384.072 -2.09233 2.47775 0
M  V30 4202 H 383.857 -0.921599 3.81115 0
M  V30 4203 H 385.347 -1.9071 3.7151 0
M  V30 4204 N 385.784 -1.5574 0.241426 0
M  V30 4205 C 387.012 -2.03208 -0.389134 0
M  V30 4206 C 387.427 -1.12082 -1.51931 0
M  V30 4207 O 386.784 -0.134183 -1.82006 0
M  V30 4208 C 386.835 -3.50064 -0.902087 0
M  V30 4209 O 386.556 -4.37717 0.18305 0
M  V30 4210 C 388.057 -4.13268 -1.60389 0
M  V30 4211 H 385.277 -0.664509 -0.0931053 0
M  V30 4212 H 387.821 -2.0124 0.36369 0
M  V30 4213 H 385.976 -3.52583 -1.60511 0
M  V30 4214 H 386.39 -5.24097 -0.205579 0
M  V30 4215 H 387.864 -5.17733 -1.91458 0
M  V30 4216 H 388.341 -3.59434 -2.52397 0
M  V30 4217 H 388.947 -4.14655 -0.945576 0
M  V30 4218 N 387.262 0.0317525 -1.57568 0
M  V30 4219 C 388.678 0.38735 -1.54828 0
M  V30 4220 C 388.878 1.7677 -0.967187 0
M  V30 4221 O 387.934 2.45581 -0.587063 0
M  V30 4222 C 389.247 0.291667 -2.99282 0
M  V30 4223 C 390.795 0.368946 -3.10818 0
M  V30 4224 C 391.27 0.302741 -4.56998 0
M  V30 4225 N 392.761 0.361617 -4.61786 0
M  V30 4226 C 393.496 0.333238 -5.72431 0
M  V30 4227 N 392.992 0.257308 -6.92322 0
M  V30 4228 N 394.785 0.382769 -5.60795 0
M  V30 4229 H 386.936 -0.871609 -1.93692 0
M  V30 4230 H 389.199 -0.331161 -0.888277 0
M  V30 4231 H 388.905 -0.656794 -3.45513 0
M  V30 4232 H 388.779 1.08638 -3.61217 0
M  V30 4233 H 391.166 1.30784 -2.64536 0
M  V30 4234 H 391.247 -0.455066 -2.5172 0
M  V30 4235 H 390.891 -0.632473 -5.03947 0
M  V30 4236 H 390.821 1.14482 -5.14005 0
M  V30 4237 H 393.312 0.422923 -3.75526 0
M  V30 4238 H 393.625 0.24068 -7.72425 0
M  V30 4239 H 391.97 0.223396 -6.94641 0
M  V30 4240 H 395.161 0.44006 -4.66027 0
M  V30 4241 H 395.334 0.357184 -6.47015 0
M  V30 4242 N 388.74 1.54641 0.303973 0
M  V30 4243 C 390.017 1.64455 1.05896 0
M  V30 4244 C 390.397 0.490923 2.05312 0
M  V30 4245 O 389.745 -0.512685 2.22674 0
M  V30 4246 C 389.955 3.02331 1.74347 0
M  V30 4247 C 391.303 3.59045 2.26653 0
M  V30 4248 O 392.327 3.04764 1.84384 0
M  V30 4249 O 391.186 4.54081 3.04093 0
M  V30 4250 H 388.28 0.666729 0.489287 0
M  V30 4251 H 390.826 1.66986 0.302298 0
M  V30 4252 H 389.598 3.77734 1.02142 0
M  V30 4253 H 389.221 3.03565 2.56777 0
M  V30 4254 N 390.218 -0.567019 1.47046 0
M  V30 4255 C 391.148 -1.68482 1.61667 0
M  V30 4256 C 392.129 -1.6358 0.466418 0
M  V30 4257 O 393.314 -1.81354 0.694574 0
M  V30 4258 C 390.444 -3.07124 1.62148 0
M  V30 4259 C 389.398 -3.26867 2.76301 0
M  V30 4260 C 388.724 -4.66196 2.61849 0
M  V30 4261 C 390.024 -3.13186 4.17986 0
M  V30 4262 H 391.718 -1.56502 2.5524 0
M  V30 4263 H 389.264 -0.751486 1.22836 0
M  V30 4264 H 391.217 -3.8516 1.70968 0
M  V30 4265 H 389.941 -3.2004 0.651287 0
M  V30 4266 H 388.6 -2.51237 2.66975 0
M  V30 4267 H 388.248 -4.75898 1.62879 0
M  V30 4268 H 387.948 -4.80356 3.38425 0
M  V30 4269 H 389.472 -5.46379 2.72584 0
M  V30 4270 H 390.886 -3.81049 4.2834 0
M  V30 4271 H 389.283 -3.3886 4.95272 0
M  V30 4272 H 390.353 -2.10057 4.3704 0
M  V30 4273 N 391.696 -1.35014 -0.812953 0
M  V30 4274 C 392.942 -1.2812 -1.57204 0
M  V30 4275 C 393.275 0.145869 -1.93651 0
M  V30 4276 O 392.55 1.0937 -1.60836 0
M  V30 4277 C 392.833 -2.18162 -2.86492 0
M  V30 4278 C 392.686 -3.69454 -2.56561 0
M  V30 4279 C 394.005 -2.07439 -3.88145 0
M  V30 4280 H 391.124 -0.466746 -0.570366 0
M  V30 4281 H 393.766 -1.65357 -0.935783 0
M  V30 4282 H 391.916 -1.86535 -3.40789 0
M  V30 4283 H 393.588 -4.11493 -2.08497 0
M  V30 4284 H 391.831 -3.9005 -1.89851 0
M  V30 4285 H 392.502 -4.27835 -3.48799 0
M  V30 4286 H 394.978 -2.35228 -3.4323 0
M  V30 4287 H 393.854 -2.7265 -4.76396 0
M  V30 4288 H 394.115 -1.05439 -4.29343 0
M  V30 4289 N 393.175 1.03435 -1.18907 0
M  V30 4290 C 394.122 2.11591 -0.921837 0
M  V30 4291 C 395.092 1.65499 0.141226 0
M  V30 4292 O 396.277 1.908 0.000242829 0
M  V30 4293 C 393.417 3.42012 -0.460616 0
M  V30 4294 C 392.53 4.01682 -1.58982 0
M  V30 4295 C 391.665 5.20091 -1.08069 0
M  V30 4296 C 390.704 5.71805 -2.18416 0
M  V30 4297 N 389.841 6.81494 -1.68849 0
M  V30 4298 H 394.681 2.33787 -1.8479 0
M  V30 4299 H 392.218 1.1467 -0.921373 0
M  V30 4300 H 394.176 4.16834 -0.174642 0
M  V30 4301 H 392.806 3.19944 0.428467 0
M  V30 4302 H 391.858 3.24127 -1.99113 0
M  V30 4303 H 393.17 4.36084 -2.4214 0
M  V30 4304 H 392.324 6.02051 -0.749615 0
M  V30 4305 H 391.063 4.87209 -0.218771 0
M  V30 4306 H 390.068 4.88461 -2.5236 0
M  V30 4307 H 391.293 6.06728 -3.05054 0
M  V30 4308 H 389.239 6.50475 -0.849572 0
M  V30 4309 H 389.156 7.14994 -2.45601 0
M  V30 4310 H 390.424 7.67063 -1.38689 0
M  V30 4311 N 394.653 0.992116 1.22453 0
M  V30 4312 C 395.902 0.662992 1.90492 0
M  V30 4313 C 396.215 -0.808407 1.78113 0
M  V30 4314 O 397.421 -1.24908 2.41061 0
M  V30 4315 C 395.877 1.1353 3.41524 0
M  V30 4316 C 395.485 2.63187 3.62542 0
M  V30 4317 C 397.229 0.880465 4.15269 0
M  V30 4318 C 395.136 3.04024 5.0727 0
M  V30 4319 H 394.066 0.244278 0.713333 0
M  V30 4320 H 396.717 1.20157 1.38688 0
M  V30 4321 H 395.099 0.52485 3.92506 0
M  V30 4322 H 396.273 3.2957 3.22056 0
M  V30 4323 H 394.588 2.86543 3.02129 0
M  V30 4324 H 397.185 1.16128 5.21937 0
M  V30 4325 H 397.528 -0.183408 4.15896 0
M  V30 4326 H 398.061 1.45307 3.70312 0
M  V30 4327 H 394.8 4.09584 5.11782 0
M  V30 4328 H 394.32 2.42343 5.48662 0
M  V30 4329 H 395.999 2.95282 5.75689 0
M  V30 4330 N 396.131 -1.37776 0.765217 0
M  V30 4331 C 397.379 -1.99454 0.325943 0
M  V30 4332 C 397.7 -1.61049 -1.09947 0
M  V30 4333 O 396.97 -0.872821 -1.75381 0
M  V30 4334 H 395.55 -0.737697 0.117525 0
M  V30 4335 H 398.212 -1.68359 0.981895 0
M  V30 4336 H 397.308 -3.09547 0.398353 0
M  V30 4337 N 397.609 -0.515225 -1.4894 0
M  V30 4338 C 398.886 0.0879088 -1.95402 0
M  V30 4339 C 399.266 1.52745 -1.45712 0
M  V30 4340 O 398.614 2.18238 -0.677093 0
M  V30 4341 C 398.824 -0.0141055 -3.48997 0
M  V30 4342 C 400.172 0.152646 -4.24326 0
M  V30 4343 O 401.196 0.0604025 -3.56149 0
M  V30 4344 O 400.055 0.34384 -5.45417 0
M  V30 4345 H 397.149 0.0874636 -0.822362 0
M  V30 4346 H 399.695 -0.578775 -1.59525 0
M  V30 4347 H 398.467 -1.01745 -3.77841 0
M  V30 4348 H 398.09 0.692091 -3.9153 0
M  V30 4349 N 399.087 1.5561 -0.249682 0
M  V30 4350 C 400.334 1.99011 0.374287 0
M  V30 4351 C 400.662 1.13785 1.57744 0
M  V30 4352 O 399.917 0.189326 1.94782 0
M  V30 4353 C 400.216 3.4775 0.824887 0
M  V30 4354 C 399.882 4.50086 -0.270819 0
M  V30 4355 C 398.544 4.77791 -0.571746 0
M  V30 4356 C 400.896 5.11312 -1.01041 0
M  V30 4357 C 398.224 5.63997 -1.61629 0
M  V30 4358 C 400.576 5.98651 -2.0445 0
M  V30 4359 C 399.24 6.24688 -2.35204 0
M  V30 4360 H 398.51 0.728233 0.136961 0
M  V30 4361 H 401.157 1.88122 -0.358087 0
M  V30 4362 H 399.462 3.55985 1.63651 0
M  V30 4363 H 401.159 3.78721 1.31799 0
M  V30 4364 H 397.749 4.28592 -0.026136 0
M  V30 4365 H 401.933 4.89953 -0.791177 0
M  V30 4366 H 397.189 5.82425 -1.85988 0
M  V30 4367 H 401.363 6.45135 -2.62248 0
M  V30 4368 H 398.99 6.91281 -3.16282 0
M  V30 4369 N 400.565 -0.0233959 1.57583 0
M  V30 4370 C 401.813 -0.711654 1.89156 0
M  V30 4371 C 402.134 -1.75591 0.848096 0
M  V30 4372 O 401.404 -1.95547 -0.117566 0
M  V30 4373 H 399.984 -0.265835 0.698098 0
M  V30 4374 H 402.646 0.0119948 1.94896 0
M  V30 4375 H 401.742 -1.19766 2.88206 0
M  V30 4376 N 402.043 -1.548 -0.295768 0
M  V30 4377 C 402.973 -1.89115 -1.36959 0
M  V30 4378 C 403.954 -0.75059 -1.52644 0
M  V30 4379 O 405.139 -1.00678 -1.66065 0
M  V30 4380 C 402.269 -2.14307 -2.73295 0
M  V30 4381 C 401.223 -3.30151 -2.72368 0
M  V30 4382 C 400.549 -3.40772 -4.12042 0
M  V30 4383 C 401.849 -4.67126 -2.33646 0
M  V30 4384 H 403.543 -2.79053 -1.08488 0
M  V30 4385 H 401.089 -1.34266 -0.520443 0
M  V30 4386 H 403.042 -2.36898 -3.48507 0
M  V30 4387 H 401.766 -1.21145 -3.03301 0
M  V30 4388 H 400.425 -3.0749 -1.99613 0
M  V30 4389 H 400.073 -2.45117 -4.39234 0
M  V30 4390 H 399.773 -4.18645 -4.12322 0
M  V30 4391 H 401.297 -3.6563 -4.89027 0
M  V30 4392 H 402.711 -4.89414 -2.98575 0
M  V30 4393 H 401.108 -5.47751 -2.45129 0
M  V30 4394 H 402.178 -4.67489 -1.28772 0
M  V30 4395 N 403.521 0.559213 -1.47345 0
M  V30 4396 C 404.454 1.68201 -1.5422 0
M  V30 4397 C 405.432 1.57742 -0.394497 0
M  V30 4398 O 406.616 1.78628 -0.60201 0
M  V30 4399 C 403.743 3.0643 -1.44285 0
M  V30 4400 C 402.789 3.3534 -2.63532 0
M  V30 4401 S 403.622 3.24816 -4.25741 0
M  V30 4402 C 404.778 4.65542 -4.18355 0
M  V30 4403 H 405.011 1.62114 -2.49211 0
M  V30 4404 H 402.544 0.739871 -1.35519 0
M  V30 4405 H 404.502 3.86164 -1.3924 0
M  V30 4406 H 403.163 3.09984 -0.506816 0
M  V30 4407 H 402.356 4.36107 -2.52639 0
M  V30 4408 H 401.958 2.63221 -2.65689 0
M  V30 4409 H 404.25 5.56449 -3.86485 0
M  V30 4410 H 405.193 4.81493 -5.19202 0
M  V30 4411 H 405.601 4.43495 -3.49246 0
M  V30 4412 N 404.999 1.35443 0.805782 0
M  V30 4413 C 406.415 1.15499 1.10146 0
M  V30 4414 C 406.615 -0.0319975 2.01475 0
M  V30 4415 O 405.671 -0.70236 2.42535 0
M  V30 4416 C 406.984 2.45833 1.73166 0
M  V30 4417 C 408.532 2.52047 1.85583 0
M  V30 4418 C 409.007 3.82427 2.52019 0
M  V30 4419 N 410.498 3.83682 2.59504 0
M  V30 4420 C 411.233 4.81294 3.11679 0
M  V30 4421 N 410.729 5.89294 3.64287 0
M  V30 4422 N 412.522 4.6873 3.1024 0
M  V30 4423 H 404.673 2.11469 0.198678 0
M  V30 4424 H 406.936 0.93594 0.150731 0
M  V30 4425 H 406.642 3.32874 1.13526 0
M  V30 4426 H 406.516 2.6044 2.72857 0
M  V30 4427 H 408.903 1.65435 2.44367 0
M  V30 4428 H 408.984 2.41354 0.847455 0
M  V30 4429 H 408.628 4.69437 1.93885 0
M  V30 4430 H 408.558 3.90409 3.53395 0
M  V30 4431 H 411.049 3.05648 2.22234 0
M  V30 4432 H 411.362 6.59768 4.02401 0
M  V30 4433 H 409.707 5.92985 3.62483 0
M  V30 4434 H 412.898 3.83496 2.68419 0
M  V30 4435 H 413.071 5.44965 3.50596 0
M  V30 4436 N 406.477 -1.02803 1.19454 0
M  V30 4437 C 407.44 -2.09264 0.934955 0
M  V30 4438 C 408.44 -1.60576 -0.0849015 0
M  V30 4439 O 409.63 -1.73554 0.149933 0
M  V30 4440 C 406.762 -3.38482 0.40531 0
M  V30 4441 H 407.955 -2.33726 1.87916 0
M  V30 4442 H 405.508 -1.19426 1.00832 0
M  V30 4443 H 406.243 -3.19689 -0.544899 0
M  V30 4444 H 406.028 -3.75142 1.14065 0
M  V30 4445 H 407.518 -4.16894 0.242806 0
M  V30 4446 N 407.956 -0.998596 -1.21925 0
M  V30 4447 C 408.886 -0.573688 -2.26343 0
M  V30 4448 C 409.867 0.402296 -1.65274 0
M  V30 4449 O 411.052 0.291683 -1.91997 0
M  V30 4450 C 408.182 0.106839 -3.47136 0
M  V30 4451 C 407.136 -0.788269 -4.20678 0
M  V30 4452 C 406.462 0.0254927 -5.34694 0
M  V30 4453 C 407.762 -2.08784 -4.78755 0
M  V30 4454 H 409.456 -1.44651 -2.62138 0
M  V30 4455 H 407.002 -0.696975 -1.26009 0
M  V30 4456 H 408.955 0.415531 -4.19346 0
M  V30 4457 H 407.679 1.01424 -3.10452 0
M  V30 4458 H 406.338 -1.08069 -3.50309 0
M  V30 4459 H 405.986 0.933989 -4.94253 0
M  V30 4460 H 405.686 -0.570437 -5.84825 0
M  V30 4461 H 407.21 0.328147 -6.09718 0
M  V30 4462 H 408.624 -1.84272 -5.42878 0
M  V30 4463 H 407.021 -2.63307 -5.39249 0
M  V30 4464 H 408.091 -2.76284 -3.98491 0
M  V30 4465 N 409.434 1.37368 -0.772513 0
M  V30 4466 C 410.845 1.8231 -0.402493 0
M  V30 4467 C 411.196 1.6436 1.07146 0
M  V30 4468 O 410.321 1.15514 1.82991 0
M  V30 4469 C 410.916 3.30979 -0.723776 0
M  V30 4470 C 409.475 3.74195 -0.406802 0
M  V30 4471 C 408.622 2.59885 -0.967218 0
M  V30 4472 H 411.573 1.25829 -0.967099 0
M  V30 4473 H 411.594 3.80499 -0.00870832 0
M  V30 4474 H 411.106 3.44011 -1.7966 0
M  V30 4475 H 409.207 3.66732 0.658673 0
M  V30 4476 H 409.32 4.7027 -0.915588 0
M  V30 4477 H 407.684 2.51674 -0.391416 0
M  V30 4478 H 408.467 2.7571 -2.04546 0
M  V30 4479 N 410.912 0.523116 1.48665 0
M  V30 4480 C 411.844 -0.280421 2.27478 0
M  V30 4481 C 412.857 -0.910694 1.34945 0
M  V30 4482 O 414.046 -0.790295 1.60052 0
M  V30 4483 C 411.146 -1.41171 3.08097 0
M  V30 4484 C 410.319 -0.884642 4.28361 0
M  V30 4485 C 409.378 -1.89622 4.90846 0
M  V30 4486 O 408.404 -1.4559 5.50265 0
M  V30 4487 N 409.606 -3.22801 4.82472 0
M  V30 4488 H 412.371 0.395481 2.97079 0
M  V30 4489 H 409.932 0.357018 1.57915 0
M  V30 4490 H 411.924 -2.08645 3.4677 0
M  V30 4491 H 410.494 -1.99139 2.40961 0
M  V30 4492 H 409.714 -0.0341177 3.94185 0
M  V30 4493 H 411.002 -0.511268 5.06225 0
M  V30 4494 H 410.4 -3.61246 4.35336 0
M  V30 4495 H 408.957 -3.85927 5.25265 0
M  V30 4496 N 412.39 -1.55475 0.257931 0
M  V30 4497 C 413.338 -2.23244 -0.653076 0
M  V30 4498 C 414.332 -1.22366 -1.17144 0
M  V30 4499 O 415.538 -1.40347 -1.12706 0
M  V30 4500 H 411.913 -0.716247 -0.229117 0
M  V30 4501 H 413.884 -2.98343 -0.0584788 0
M  V30 4502 C 412.633 -2.95401 -1.83395 0
M  V30 4503 H 411.956 -3.72802 -1.44424 0
M  V30 4504 H 413.396 -3.46165 -2.44838 0
M  V30 4505 C 411.855 -1.99895 -2.71189 0
M  V30 4506 O 412.385 -1.53909 -3.71046 0
M  V30 4507 N 410.591 -1.6676 -2.3799 0
M  V30 4508 H 410.138 -2.04352 -1.56837 0
M  V30 4509 H 410.096 -1.03127 -2.97005 0
M  V30 4510 N 413.868 0.0150385 -1.57593 0
M  V30 4511 C 415.145 0.7392 -1.81094 0
M  V30 4512 C 415.525 1.92817 -0.859344 0
M  V30 4513 O 414.873 2.28301 0.095362 0
M  V30 4514 C 415.083 1.15907 -3.29191 0
M  V30 4515 C 416.431 1.56918 -3.9454 0
M  V30 4516 O 417.455 1.25328 -3.33424 0
M  V30 4517 O 416.314 2.15604 -5.02173 0
M  V30 4518 H 413.408 0.358631 -0.745193 0
M  V30 4519 H 415.954 -0.00926156 -1.69697 0
M  V30 4520 H 414.726 0.310921 -3.90063 0
M  V30 4521 H 414.349 1.96711 -3.45529 0
M  V30 4522 N 415.346 1.54954 0.287554 0
M  V30 4523 C 416.623 1.65569 1.04146 0
M  V30 4524 C 417.003 0.512672 2.0478 0
M  V30 4525 O 416.351 -0.489038 2.23205 0
M  V30 4526 C 416.561 3.04163 1.71131 0
M  V30 4527 C 417.909 3.61429 2.22832 0
M  V30 4528 O 418.933 3.06702 1.81141 0
M  V30 4529 O 417.792 4.57281 2.9926 0
M  V30 4530 H 414.886 0.671881 0.482188 0
M  V30 4531 H 417.432 1.67297 0.28457 0
M  V30 4532 H 416.204 3.78796 0.981303 0
M  V30 4533 H 415.827 3.06271 2.53543 0
M  V30 4534 N 416.824 -0.551391 1.4764 0
M  V30 4535 C 417.774 -1.65362 1.56969 0
M  V30 4536 C 418.758 -1.55098 0.428189 0
M  V30 4537 O 419.95 -1.63481 0.678441 0
M  V30 4538 C 417.079 -3.04129 1.59249 0
M  V30 4539 C 416.165 -3.19576 2.78804 0
M  V30 4540 N 416.556 -3.05067 4.03445 0
M  V30 4541 C 414.854 -3.50588 2.75688 0
M  V30 4542 C 415.555 -3.2336 4.83543 0
M  V30 4543 N 414.531 -3.4996 4.15968 0
M  V30 4544 H 418.333 -1.52722 2.51104 0
M  V30 4545 H 415.847 -0.756303 1.43714 0
M  V30 4546 H 417.844 -3.83278 1.64024 0
M  V30 4547 H 416.504 -3.17877 0.662148 0
M  V30 4548 H 417.515 -2.82273 4.34215 0
M  V30 4549 H 414.192 -3.70827 1.91817 0
M  V30 4550 H 415.582 -3.17061 5.92387 0
M  V30 4551 N 418.302 -1.35869 -0.798587 0
M  V30 4552 C 419.532 -1.32529 -1.58491 0
M  V30 4553 C 419.94 0.0975405 -1.88948 0
M  V30 4554 O 419.283 1.06224 -1.49874 0
M  V30 4555 C 419.345 -2.07247 -2.9375 0
M  V30 4556 C 419.009 -3.56391 -2.86068 0
M  V30 4557 C 420.006 -4.50824 -2.58947 0
M  V30 4558 C 417.691 -3.9915 -3.04933 0
M  V30 4559 C 419.685 -5.85993 -2.5078 0
M  V30 4560 C 417.372 -5.34413 -2.96389 0
M  V30 4561 C 418.37 -6.27646 -2.69349 0
M  V30 4562 O 418.058 -7.60426 -2.60782 0
M  V30 4563 H 417.79 -0.456529 -0.498556 0
M  V30 4564 H 420.344 -1.79425 -0.999799 0
M  V30 4565 H 418.574 -1.55001 -3.54276 0
M  V30 4566 H 420.263 -1.96883 -3.54954 0
M  V30 4567 H 421.029 -4.19104 -2.44084 0
M  V30 4568 H 416.908 -3.26961 -3.24989 0
M  V30 4569 H 420.452 -6.58735 -2.29595 0
M  V30 4570 H 416.349 -5.65743 -3.10813 0
M  V30 4571 H 417.117 -7.70444 -2.76331 0
M  V30 4572 N 419.78 1.02168 -1.19998 0
M  V30 4573 C 421.026 1.75945 -1.00852 0
M  V30 4574 C 421.359 1.88702 0.458828 0
M  V30 4575 O 420.634 1.40911 1.34069 0
M  V30 4576 C 420.917 3.18154 -1.68671 0
M  V30 4577 C 420.77 3.13224 -3.22817 0
M  V30 4578 C 422.089 4.16711 -1.41561 0
M  V30 4579 H 419.208 0.638673 -0.367785 0
M  V30 4580 H 421.85 1.19222 -1.4794 0
M  V30 4581 H 420 3.66586 -1.28636 0
M  V30 4582 H 421.672 2.72635 -3.72112 0
M  V30 4583 H 419.915 2.50751 -3.53986 0
M  V30 4584 H 420.586 4.13728 -3.65422 0
M  V30 4585 H 423.062 3.76913 -1.76284 0
M  V30 4586 H 421.938 5.14391 -1.91553 0
M  V30 4587 H 422.199 4.40774 -0.342193 0
M  V30 4588 N 421.258 1.00505 1.21394 0
M  V30 4589 C 422.191 0.51032 2.22421 0
M  V30 4590 C 423.169 -0.436 1.56645 0
M  V30 4591 O 424.353 -0.358709 1.85055 0
M  V30 4592 C 421.48 -0.258733 3.3771 0
M  V30 4593 C 420.526 0.635395 4.2174 0
M  V30 4594 S 421.359 2.09783 4.92698 0
M  V30 4595 C 422.515 1.33862 6.11418 0
M  V30 4596 H 422.748 1.36637 2.64041 0
M  V30 4597 H 420.281 0.812991 1.31262 0
M  V30 4598 H 422.239 -0.696372 4.0455 0
M  V30 4599 H 420.9 -1.0902 2.94573 0
M  V30 4600 H 420.093 0.0430189 5.03982 0
M  V30 4601 H 419.695 1.01031 3.60095 0
M  V30 4602 H 421.987 0.612541 6.74725 0
M  V30 4603 H 422.93 2.13675 6.75092 0
M  V30 4604 H 423.338 0.846568 5.58116 0
M  V30 4605 N 422.737 -1.36956 0.779787 0
M  V30 4606 C 423.669 -2.28833 0.129639 0
M  V30 4607 C 424.682 -1.4902 -0.655511 0
M  V30 4608 O 425.871 -1.71578 -0.492279 0
M  V30 4609 C 422.971 -3.2833 -0.839792 0
M  V30 4610 C 422.144 -4.3727 -0.10675 0
M  V30 4611 C 421.203 -5.16789 -0.990717 0
M  V30 4612 O 420.229 -5.67406 -0.451516 0
M  V30 4613 N 421.431 -5.32294 -2.3161 0
M  V30 4614 H 424.196 -2.85268 0.918803 0
M  V30 4615 H 421.757 -1.49019 0.632841 0
M  V30 4616 H 423.749 -3.78413 -1.43477 0
M  V30 4617 H 422.319 -2.72605 -1.52988 0
M  V30 4618 H 421.539 -3.88478 0.669216 0
M  V30 4619 H 422.827 -5.07229 0.399464 0
M  V30 4620 H 422.225 -4.92768 -2.77843 0
M  V30 4621 H 420.782 -5.85656 -2.86095 0
M  V30 4622 N 424.215 -0.530993 -1.48385 0
M  V30 4623 C 425.125 0.23503 -2.3342 0
M  V30 4624 C 426.141 0.93801 -1.46552 0
M  V30 4625 O 427.317 0.912745 -1.7953 0
M  V30 4626 C 424.382 1.26778 -3.22689 0
M  V30 4627 C 423.443 0.575038 -4.25431 0
M  V30 4628 C 422.676 1.55858 -5.10435 0
M  V30 4629 O 422.899 2.79129 -4.97437 0
M  V30 4630 O 421.833 1.09742 -5.91811 0
M  V30 4631 H 425.659 -0.461794 -3.00169 0
M  V30 4632 H 423.244 -0.291903 -1.46521 0
M  V30 4633 H 425.126 1.86457 -3.77904 0
M  V30 4634 H 423.801 1.94699 -2.586 0
M  V30 4635 H 422.708 -0.0622782 -3.74048 0
M  V30 4636 H 424.041 -0.062253 -4.92161 0
M  V30 4637 N 425.693 1.55336 -0.266172 0
M  V30 4638 C 426.643 2.18848 0.639497 0
M  V30 4639 C 427.627 1.1503 1.12503 0
M  V30 4640 O 428.819 1.40875 1.0716 0
M  V30 4641 C 425.948 2.90626 1.82733 0
M  V30 4642 C 425.034 4.01723 1.35939 0
M  V30 4643 N 425.425 5.02145 0.606988 0
M  V30 4644 C 423.723 4.1463 1.6431 0
M  V30 4645 C 424.424 5.80572 0.362138 0
M  V30 4646 N 423.4 5.35551 0.931971 0
M  V30 4647 H 427.202 2.93845 0.0567057 0
M  V30 4648 H 424.716 1.62252 -0.0693312 0
M  V30 4649 H 426.713 3.34569 2.48735 0
M  V30 4650 H 425.373 2.17137 2.41416 0
M  V30 4651 H 426.384 5.17271 0.255198 0
M  V30 4652 H 423.061 3.52326 2.23993 0
M  V30 4653 H 424.451 6.71472 -0.239848 0
M  V30 4654 N 427.171 -0.0066808 1.57599 0
M  V30 4655 C 428.587 -0.36267 1.55425 0
M  V30 4656 C 428.787 -1.75209 0.995187 0
M  V30 4657 O 427.843 -2.44616 0.626058 0
M  V30 4658 C 429.156 -0.244017 2.99708 0
M  V30 4659 C 430.704 -0.319451 3.11366 0
M  V30 4660 C 431.179 -0.229998 4.57422 0
M  V30 4661 N 432.67 -0.288105 4.62303 0
M  V30 4662 C 433.405 -0.242127 5.72889 0
M  V30 4663 N 432.901 -0.147133 6.92644 0
M  V30 4664 N 434.694 -0.293502 5.61333 0
M  V30 4665 H 426.845 0.902314 1.92281 0
M  V30 4666 H 429.108 0.34525 0.882896 0
M  V30 4667 H 428.814 0.711678 3.44424 0
M  V30 4668 H 428.688 -1.02877 3.629 0
M  V30 4669 H 431.075 -1.26559 2.66584 0
M  V30 4670 H 431.156 0.495055 2.50964 0
M  V30 4671 H 430.8 0.712566 5.02877 0
M  V30 4672 H 430.73 -1.0629 5.15761 0
M  V30 4673 H 433.221 -0.363126 3.76151 0
M  V30 4674 H 433.534 -0.117763 7.7271 0
M  V30 4675 H 431.879 -0.112857 6.94908 0
M  V30 4676 H 435.07 -0.365864 4.66668 0
M  V30 4677 H 435.243 -0.254204 6.47501 0
M  V30 4678 N 428.649 -1.55105 -0.279332 0
M  V30 4679 C 429.596 -1.8755 -1.34513 0
M  V30 4680 C 430.566 -0.726384 -1.49375 0
M  V30 4681 O 431.751 -0.977063 -1.63884 0
M  V30 4682 C 428.891 -2.14738 -2.70151 0
M  V30 4683 C 428.004 -3.42285 -2.63562 0
M  V30 4684 C 427.139 -3.59206 -3.91337 0
M  V30 4685 C 426.178 -4.80467 -3.79233 0
M  V30 4686 N 425.315 -4.94079 -4.98829 0
M  V30 4687 H 430.155 -2.78456 -1.06143 0
M  V30 4688 H 427.692 -1.37867 -0.512936 0
M  V30 4689 H 429.65 -2.28501 -3.49061 0
M  V30 4690 H 428.28 -1.27075 -2.96735 0
M  V30 4691 H 427.332 -3.37029 -1.76397 0
M  V30 4692 H 428.644 -4.31328 -2.50515 0
M  V30 4693 H 427.798 -3.72751 -4.78687 0
M  V30 4694 H 426.537 -2.68337 -4.07243 0
M  V30 4695 H 425.542 -4.66932 -2.90266 0
M  V30 4696 H 426.767 -5.72765 -3.64852 0
M  V30 4697 H 424.713 -4.06139 -5.15158 0
M  V30 4698 H 424.63 -5.77156 -4.8829 0
M  V30 4699 H 425.898 -5.12003 -5.8777 0
M  V30 4700 N 430.127 0.543554 -1.4793 0
M  V30 4701 C 431.373 1.30201 -1.55485 0
M  V30 4702 C 431.706 1.92925 -0.222201 0
M  V30 4703 O 430.981 1.78586 0.77053 0
M  V30 4704 C 431.264 2.40174 -2.68307 0
M  V30 4705 C 431.117 1.8223 -4.11233 0
M  V30 4706 C 432.436 3.42024 -2.76961 0
M  V30 4707 H 429.555 0.472036 -0.565996 0
M  V30 4708 H 432.197 0.606914 -1.80046 0
M  V30 4709 H 430.347 2.99463 -2.47495 0
M  V30 4710 H 432.019 1.27096 -4.43446 0
M  V30 4711 H 430.262 1.12832 -4.18869 0
M  V30 4712 H 430.933 2.61793 -4.85972 0
M  V30 4713 H 433.409 2.92672 -2.95774 0
M  V30 4714 H 432.285 4.16383 -3.57654 0
M  V30 4715 H 432.546 4.0173 -1.84568 0
M  V30 4716 N 431.605 1.3629 0.791371 0
M  V30 4717 C 433.016 1.27225 1.36641 0
M  V30 4718 C 433.367 -0.0887968 1.95999 0
M  V30 4719 O 432.492 -0.990207 1.92416 0
M  V30 4720 C 433.087 2.30375 2.48421 0
M  V30 4721 C 431.646 2.25004 3.01746 0
M  V30 4722 C 430.793 2.15259 1.7481 0
M  V30 4723 H 433.744 1.47198 0.593173 0
M  V30 4724 H 433.765 1.93905 3.27385 0
M  V30 4725 H 433.277 3.29422 2.05189 0
M  V30 4726 H 431.378 1.29417 3.49403 0
M  V30 4727 H 431.491 3.1761 3.58693 0
M  V30 4728 H 429.855 1.61482 1.96966 0
M  V30 4729 H 430.638 3.16191 1.33709 0
M  V30 4730 N 433.083 -1.0153 1.20538 0
M  V30 4731 C 434.33 -1.75149 1.01633 0
M  V30 4732 C 434.658 -1.89189 -0.451399 0
M  V30 4733 O 433.913 -1.41551 -1.35136 0
M  V30 4734 C 434.212 -3.17213 1.64654 0
M  V30 4735 C 433.878 -3.23146 3.14464 0
M  V30 4736 C 432.54 -3.24472 3.55347 0
M  V30 4737 C 434.892 -3.21207 4.10458 0
M  V30 4738 C 432.22 -3.21532 4.90748 0
M  V30 4739 C 434.572 -3.19808 5.45807 0
M  V30 4740 C 433.236 -3.19439 5.86102 0
M  V30 4741 H 432.506 -0.640914 0.3719 0
M  V30 4742 H 435.153 -1.19071 1.49981 0
M  V30 4743 H 433.458 -3.76457 1.08571 0
M  V30 4744 H 435.155 -3.72871 1.4754 0
M  V30 4745 H 431.745 -3.2285 2.81897 0
M  V30 4746 H 435.929 -3.19351 3.79906 0
M  V30 4747 H 431.185 -3.19578 5.21229 0
M  V30 4748 H 435.359 -3.1726 6.19935 0
M  V30 4749 H 432.986 -3.16915 6.90991 0
M  V30 4750 N 434.561 -1.01147 -1.20859 0
M  V30 4751 C 435.524 -0.582224 -2.21682 0
M  V30 4752 C 436.524 0.344887 -1.57058 0
M  V30 4753 O 437.714 0.134281 -1.73682 0
M  V30 4754 C 434.846 0.150496 -3.40568 0
M  V30 4755 H 436.039 -1.47408 -2.61172 0
M  V30 4756 H 433.592 -0.800695 -1.34233 0
M  V30 4757 H 434.327 1.0575 -3.06574 0
M  V30 4758 H 434.112 -0.515444 -3.88697 0
M  V30 4759 H 435.602 0.438344 -4.15293 0
M  V30 4760 N 436.039 1.36541 -0.78704 0
M  V30 4761 C 437.285 2.00044 -0.367938 0
M  V30 4762 C 437.64 1.61345 1.04812 0
M  V30 4763 O 436.933 0.856936 1.71368 0
M  V30 4764 C 437.127 3.54343 -0.466485 0
M  V30 4765 C 436.956 4.08029 -1.89058 0
M  V30 4766 C 435.726 4.38284 -2.51466 0
M  V30 4767 C 437.924 4.27954 -2.85236 0
M  V30 4768 N 435.906 4.77778 -3.85488 0
M  V30 4769 C 437.277 4.70227 -4.04088 0
M  V30 4770 C 439.332 4.10119 -2.82324 0
M  V30 4771 C 438.035 4.96532 -5.20432 0
M  V30 4772 C 440.061 4.37569 -3.97854 0
M  V30 4773 C 439.423 4.80095 -5.15449 0
M  V30 4774 H 435.522 0.760525 -0.182004 0
M  V30 4775 H 438.106 1.65589 -1.02413 0
M  V30 4776 H 436.277 3.88072 0.159606 0
M  V30 4777 H 438.009 4.04693 -0.0238577 0
M  V30 4778 H 434.764 4.27905 -2.02965 0
M  V30 4779 H 435.188 5.01813 -4.54437 0
M  V30 4780 H 439.83 3.76399 -1.92571 0
M  V30 4781 H 437.548 5.29134 -6.10773 0
M  V30 4782 H 441.134 4.25341 -3.96958 0
M  V30 4783 H 440.014 5.00925 -6.0336 0
M  V30 4784 N 437.518 0.538854 1.48102 0
M  V30 4785 C 438.758 0.0101209 2.04397 0
M  V30 4786 C 439.122 -1.30741 1.40609 0
M  V30 4787 O 440.323 -1.92272 1.87843 0
M  V30 4788 C 438.594 -0.100232 3.57259 0
M  V30 4789 S 440.153 -0.577746 4.3498 0
M  V30 4790 H 436.971 0.0163171 0.710813 0
M  V30 4791 H 439.573 0.721429 1.81702 0
M  V30 4792 H 438.277 0.863351 4.01216 0
M  V30 4793 H 437.808 -0.835651 3.84422 0
M  V30 4794 H 439.823 -1.84073 4.60794 0
M  V30 4795 N 438.996 -1.55193 0.274407 0
M  V30 4796 C 439.959 -2.212 -0.600279 0
M  V30 4797 C 440.959 -1.18963 -1.08187 0
M  V30 4798 O 442.149 -1.43873 -0.982158 0
M  V30 4799 C 439.281 -2.87739 -1.82809 0
M  V30 4800 H 440.474 -2.9989 -0.0239682 0
M  V30 4801 H 438.027 -1.5628 0.0250192 0
M  V30 4802 H 438.762 -2.13058 -2.44493 0
M  V30 4803 H 438.547 -3.62658 -1.49069 0
M  V30 4804 H 440.037 -3.38171 -2.45011 0
M  V30 4805 N 440.474 -0.00167713 -1.576 0
M  V30 4806 C 441.885 0.54091 -1.78693 0
M  V30 4807 C 442.236 1.7386 -0.909247 0
M  V30 4808 O 441.361 2.16109 -0.112176 0
M  V30 4809 C 441.956 0.98806 -3.24072 0
M  V30 4810 C 440.515 1.47594 -3.46256 0
M  V30 4811 C 439.662 0.42792 -2.73978 0
M  V30 4812 H 442.613 -0.22784 -1.57056 0
M  V30 4813 H 442.634 1.85398 -3.32277 0
M  V30 4814 H 442.146 0.116164 -3.87926 0
M  V30 4815 H 440.247 2.36868 -2.87618 0
M  V30 4816 H 440.36 1.50225 -4.54939 0
M  V30 4817 H 438.724 0.889934 -2.38647 0
M  V30 4818 H 439.507 -0.435038 -3.40532 0
M  V30 4819 N 441.952 1.55251 0.271103 0
M  V30 4820 C 442.862 1.9136 1.35714 0
M  V30 4821 C 443.878 0.811075 1.5394 0
M  V30 4822 O 445.054 1.11031 1.6803 0
M  V30 4823 C 442.119 2.1798 2.69603 0
M  V30 4824 C 441.18 3.4153 2.60107 0
M  V30 4825 C 440.413 3.66871 3.8761 0
M  V30 4826 O 440.636 2.94689 4.8838 0
M  V30 4827 O 439.57 4.60405 3.87699 0
M  V30 4828 H 443.396 2.83815 1.08088 0
M  V30 4829 H 440.981 1.41821 0.469792 0
M  V30 4830 H 442.863 2.36518 3.48765 0
M  V30 4831 H 441.538 1.28708 2.97012 0
M  V30 4832 H 440.445 3.28325 1.79314 0
M  V30 4833 H 441.778 4.31027 2.37647 0
M  V30 4834 N 443.43 -0.535701 1.48216 0
M  V30 4835 C 444.655 -1.32149 1.59848 0
M  V30 4836 C 445.08 -1.86338 0.256842 0
M  V30 4837 O 444.438 -1.64107 -0.770632 0
M  V30 4838 C 444.486 -2.45224 2.64381 0
M  V30 4839 O 443.59 -3.48093 2.21144 0
M  V30 4840 H 442.931 -0.391634 0.536208 0
M  V30 4841 H 445.461 -0.645202 1.94161 0
M  V30 4842 H 445.471 -2.91491 2.85476 0
M  V30 4843 H 444.146 -2.05143 3.61786 0
M  V30 4844 H 442.723 -3.07984 2.10239 0
M  V30 4845 N 444.908 -1.36708 -0.784132 0
M  V30 4846 C 445.838 -1.34153 -1.91116 0
M  V30 4847 C 446.819 -0.212121 -1.68772 0
M  V30 4848 O 448.004 -0.410581 -1.8981 0
M  V30 4849 C 445.134 -1.13535 -3.28218 0
M  V30 4850 C 444.088 -2.23356 -3.65097 0
M  V30 4851 C 443.414 -1.87875 -5.00607 0
M  V30 4852 C 444.714 -3.65473 -3.73131 0
M  V30 4853 H 446.408 -2.28459 -1.93512 0
M  V30 4854 H 443.954 -1.09973 -0.929618 0
M  V30 4855 H 445.907 -1.10381 -4.06687 0
M  V30 4856 H 444.631 -0.156804 -3.26223 0
M  V30 4857 H 443.29 -2.25645 -2.88929 0
M  V30 4858 H 442.938 -0.885814 -4.95139 0
M  V30 4859 H 442.638 -2.61406 -5.26252 0
M  V30 4860 H 444.162 -1.86286 -5.81489 0
M  V30 4861 H 445.576 -3.65382 -4.41779 0
M  V30 4862 H 443.973 -4.37953 -4.10265 0
M  V30 4863 H 445.043 -3.99995 -2.74102 0
M  V30 4864 N 446.386 1.0089 -1.21074 0
M  V30 4865 C 447.333 2.09588 -0.966512 0
M  V30 4866 C 448.303 1.65761 0.106089 0
M  V30 4867 O 449.488 1.90758 -0.0402287 0
M  V30 4868 C 446.628 3.40958 -0.533058 0
M  V30 4869 C 445.741 3.9822 -1.67467 0
M  V30 4870 C 444.876 5.17682 -1.19076 0
M  V30 4871 C 443.915 5.67043 -2.30496 0
M  V30 4872 N 443.052 6.77759 -1.83267 0
M  V30 4873 H 447.892 2.29815 -1.89708 0
M  V30 4874 H 445.429 1.12689 -0.945489 0
M  V30 4875 H 447.387 4.1637 -0.263019 0
M  V30 4876 H 446.017 3.20781 0.360505 0
M  V30 4877 H 445.069 3.1983 -2.05944 0
M  V30 4878 H 446.381 4.3085 -2.51336 0
M  V30 4879 H 445.535 6.00326 -0.877151 0
M  V30 4880 H 444.274 4.86635 -0.322066 0
M  V30 4881 H 443.279 4.82999 -2.62664 0
M  V30 4882 H 444.504 6.00121 -3.17855 0
M  V30 4883 H 442.45 6.48527 -0.987356 0
M  V30 4884 H 442.367 7.09624 -2.60711 0
M  V30 4885 H 443.635 7.63949 -1.54928 0
M  V30 4886 N 447.864 1.01787 1.20321 0
M  V30 4887 C 449.092 0.727194 1.937 0
M  V30 4888 C 449.507 -0.712305 1.74848 0
M  V30 4889 O 448.864 -1.48327 1.06327 0
M  V30 4890 C 448.915 1.05497 3.45764 0
M  V30 4891 O 448.636 2.43794 3.64 0
M  V30 4892 C 450.137 0.785534 4.36285 0
M  V30 4893 H 447.357 0.266939 0.615617 0
M  V30 4894 H 449.901 1.35939 1.52777 0
M  V30 4895 H 448.056 0.468158 3.84561 0
M  V30 4896 H 448.47 2.55656 4.57974 0
M  V30 4897 H 449.944 1.06495 5.4163 0
M  V30 4898 H 450.421 -0.280273 4.38305 0
M  V30 4899 H 451.027 1.35456 4.03152 0
M  V30 4900 N 449.342 -1.36122 0.79427 0
M  V30 4901 C 450.758 -1.5232 0.476525 0
M  V30 4902 C 450.958 -1.74685 -1.00436 0
M  V30 4903 O 450.014 -1.78115 -1.78973 0
M  V30 4904 C 451.327 -2.70607 1.31119 0
M  V30 4905 C 452.875 -2.8448 1.30537 0
M  V30 4906 C 453.35 -4.05778 2.12387 0
M  V30 4907 N 454.841 -4.12933 2.09859 0
M  V30 4908 C 455.576 -5.05876 2.69957 0
M  V30 4909 N 455.072 -6.04232 3.38934 0
M  V30 4910 N 456.865 -4.98528 2.59665 0
M  V30 4911 H 449.016 -1.1986 1.75349 0
M  V30 4912 H 451.279 -0.585418 0.745647 0
M  V30 4913 H 450.985 -2.60619 2.36158 0
M  V30 4914 H 450.859 -3.64888 0.955843 0
M  V30 4915 H 453.246 -2.93927 0.262876 0
M  V30 4916 H 453.327 -1.91093 1.70051 0
M  V30 4917 H 452.971 -3.97092 3.1667 0
M  V30 4918 H 452.901 -4.98323 1.70242 0
M  V30 4919 H 455.392 -3.42515 1.59662 0
M  V30 4920 H 455.705 -6.71724 3.82109 0
M  V30 4921 H 454.05 -6.04443 3.43036 0
M  V30 4922 H 457.241 -4.20641 2.05375 0
M  V30 4923 H 457.414 -5.70773 3.06793 0
M  V30 4924 N 450.82 -0.546701 -1.47814 0
M  V30 4925 C 452.048 -0.0232857 -2.06887 0
M  V30 4926 C 452.463 1.26571 -1.4009 0
M  V30 4927 O 451.82 1.7569 -0.493906 0
M  V30 4928 C 451.871 0.186975 -3.61016 0
M  V30 4929 O 451.592 -1.05097 -4.25307 0
M  V30 4930 C 453.093 0.748872 -4.36929 0
M  V30 4931 H 450.313 -0.0410763 -0.669742 0
M  V30 4932 H 452.857 -0.757117 -1.89968 0
M  V30 4933 H 451.012 0.870903 -3.77484 0
M  V30 4934 H 451.426 -0.842121 -5.17695 0
M  V30 4935 H 452.9 0.845334 -5.45489 0
M  V30 4936 H 453.377 1.75772 -4.02493 0
M  V30 4937 H 453.983 0.100979 -4.2518 0
M  V30 4938 N 452.299 1.55045 -0.282633 0
M  V30 4939 C 453.546 1.9976 0.33199 0
M  V30 4940 C 453.874 1.17105 1.55295 0
M  V30 4941 O 453.129 0.230599 1.94337 0
M  V30 4942 C 453.428 3.49422 0.750938 0
M  V30 4943 C 453.094 4.4941 -0.366228 0
M  V30 4944 C 451.756 4.76471 -0.672964 0
M  V30 4945 C 454.108 5.09054 -1.11864 0
M  V30 4946 C 451.436 5.60442 -1.73556 0
M  V30 4947 C 453.788 5.9418 -2.17102 0
M  V30 4948 C 452.452 6.19558 -2.48402 0
M  V30 4949 H 451.722 0.730974 0.121484 0
M  V30 4950 H 454.369 1.8732 -0.39791 0
M  V30 4951 H 452.674 3.59377 1.56063 0
M  V30 4952 H 454.371 3.81432 1.23736 0
M  V30 4953 H 450.961 4.2844 -0.117041 0
M  V30 4954 H 455.145 4.88165 -0.894925 0
M  V30 4955 H 450.401 5.78349 -1.983 0
M  V30 4956 H 454.575 6.39427 -2.75873 0
M  V30 4957 H 452.202 6.84417 -3.30874 0
M  V30 4958 N 453.777 0.010035 1.57597 0
M  V30 4959 C 455.002 -0.687021 1.95691 0
M  V30 4960 C 455.427 -1.65952 0.885519 0
M  V30 4961 O 454.785 -1.80633 -0.15543 0
M  V30 4962 C 454.833 -1.3864 3.32884 0
M  V30 4963 O 453.937 -2.50115 3.27897 0
M  V30 4964 H 453.278 -0.181989 0.638573 0
M  V30 4965 H 455.808 0.0662122 2.04493 0
M  V30 4966 H 455.818 -1.74754 3.6868 0
M  V30 4967 H 454.493 -0.673411 4.10412 0
M  V30 4968 H 453.07 -2.16253 3.03791 0
M  V30 4969 N 455.255 -1.55392 -0.262866 0
M  V30 4970 C 456.205 -1.85355 -1.32768 0
M  V30 4971 C 457.189 -0.713188 -1.44231 0
M  V30 4972 O 458.381 -0.974765 -1.47741 0
M  V30 4973 C 455.51 -2.13781 -2.68612 0
M  V30 4974 C 454.596 -3.34104 -2.61219 0
M  V30 4975 N 454.987 -4.53766 -2.2345 0
M  V30 4976 C 453.285 -3.36895 -2.92263 0
M  V30 4977 C 453.986 -5.35877 -2.26298 0
M  V30 4978 N 452.962 -4.74536 -2.65172 0
M  V30 4979 H 456.764 -2.75413 -1.02591 0
M  V30 4980 H 454.278 -1.55405 -0.471503 0
M  V30 4981 H 456.275 -2.33407 -3.45437 0
M  V30 4982 H 454.935 -1.25013 -2.99669 0
M  V30 4983 H 455.946 -4.79682 -1.95258 0
M  V30 4984 H 452.623 -2.58351 -3.27965 0
M  V30 4985 H 454.013 -6.41577 -1.99572 0
M  V30 4986 N 456.733 0.527833 -1.48498 0
M  V30 4987 C 457.696 1.61439 -1.62696 0
M  V30 4988 C 458.696 1.52824 -0.500136 0
M  V30 4989 O 459.886 1.56456 -0.765976 0
M  V30 4990 C 457.018 3.01063 -1.59918 0
M  V30 4991 H 458.211 1.50189 -2.59583 0
M  V30 4992 H 455.764 0.750055 -1.37127 0
M  V30 4993 H 456.499 3.17818 -0.645163 0
M  V30 4994 H 456.284 3.08725 -2.41726 0
M  V30 4995 H 457.774 3.80057 -1.73051 0
M  V30 4996 N 458.211 1.37122 0.776871 0
M  V30 4997 C 459.436 1.354 1.57104 0
M  V30 4998 C 459.861 -0.0595562 1.88006 0
M  V30 4999 O 459.219 -1.03514 1.48844 0
M  V30 5000 C 459.267 2.19472 2.8612 0
M  V30 5001 O 458.371 1.59582 3.80273 0
M  V30 5002 H 457.712 0.462869 0.476076 0
M  V30 5003 H 460.242 1.80577 0.961932 0
M  V30 5004 H 460.252 2.32502 3.35271 0
M  V30 5005 H 458.927 3.22222 2.62956 0
M  V30 5006 H 457.504 1.55564 3.38902 0
M  V30 5007 N 459.689 -1.00246 1.21608 0
M  V30 5008 C 460.966 -1.71336 0.943568 0
M  V30 5009 C 461.346 -2.03972 -0.543943 0
M  V30 5010 O 460.694 -1.71545 -1.50946 0
M  V30 5011 C 460.904 -2.97094 1.83128 0
M  V30 5012 C 462.252 -3.70071 2.08165 0
M  V30 5013 O 463.276 -3.07081 1.80498 0
M  V30 5014 O 462.135 -4.83376 2.54971 0
M  V30 5015 H 459.229 -0.747386 0.354039 0
M  V30 5016 H 461.775 -1.05967 1.32549 0
M  V30 5017 H 460.547 -2.69407 2.83788 0
M  V30 5018 H 460.17 -3.70204 1.45034 0
M  V30 5019 N 461.167 -1.02423 -1.1978 0
M  V30 5020 C 462.395 -0.737456 -1.93311 0
M  V30 5021 C 462.81 0.703023 -1.75223 0
M  V30 5022 O 462.167 1.47761 -1.07112 0
M  V30 5023 C 462.218 -1.0733 -3.45199 0
M  V30 5024 O 461.939 -2.4572 -3.62702 0
M  V30 5025 C 463.44 -0.80866 -4.35862 0
M  V30 5026 H 460.66 -0.2702 -0.614193 0
M  V30 5027 H 463.204 -1.36747 -1.52054 0
M  V30 5028 H 461.359 -0.488545 -3.84307 0
M  V30 5029 H 461.773 -2.58081 -4.56612 0
M  V30 5030 H 463.247 -1.09365 -5.41057 0
M  V30 5031 H 463.724 0.257025 -4.38447 0
M  V30 5032 H 464.33 -1.37592 -4.02428 0
M  V30 5033 N 462.645 1.35699 -0.801477 0
M  V30 5034 C 463.891 1.99643 -0.389135 0
M  V30 5035 C 464.246 1.62447 1.03095 0
M  V30 5036 O 463.539 0.875064 1.7045 0
M  V30 5037 C 463.733 3.53828 -0.504041 0
M  V30 5038 C 463.562 4.06 -1.93375 0
M  V30 5039 C 462.332 4.35592 -2.561 0
M  V30 5040 C 464.53 4.24905 -2.89759 0
M  V30 5041 N 462.512 4.73663 -3.90534 0
M  V30 5042 C 463.883 4.65914 -4.09052 0
M  V30 5043 C 465.938 4.07101 -2.86658 0
M  V30 5044 C 464.641 4.90984 -5.25669 0
M  V30 5045 C 466.667 4.33324 -4.02472 0
M  V30 5046 C 466.029 4.74601 -5.20512 0
M  V30 5047 H 462.128 0.758552 -0.19006 0
M  V30 5048 H 464.712 1.64493 -1.04164 0
M  V30 5049 H 462.883 3.88219 0.118437 0
M  V30 5050 H 464.615 4.04645 -0.0667794 0
M  V30 5051 H 461.37 4.25728 -2.07492 0
M  V30 5052 H 461.794 4.96965 -4.59734 0
M  V30 5053 H 466.436 3.74335 -1.96552 0
M  V30 5054 H 464.154 5.22626 -6.1635 0
M  V30 5055 H 467.74 4.21107 -4.01447 0
M  V30 5056 H 466.62 4.94497 -6.08639 0
M  V30 5057 N 464.123 0.554532 1.47522 0
M  V30 5058 C 465.056 -0.242442 2.26908 0
M  V30 5059 C 466.034 -0.922722 1.33883 0
M  V30 5060 O 467.218 -0.942244 1.63261 0
M  V30 5061 C 464.345 -1.34525 3.10839 0
M  V30 5062 C 463.391 -0.773805 4.19422 0
M  V30 5063 S 464.224 0.377525 5.34168 0
M  V30 5064 C 465.38 -0.727164 6.21662 0
M  V30 5065 H 465.613 0.431218 2.94156 0
M  V30 5066 H 463.146 0.3408 1.50592 0
M  V30 5067 H 465.104 -1.97683 3.59766 0
M  V30 5068 H 463.765 -1.99073 2.42958 0
M  V30 5069 H 462.958 -1.60187 4.77866 0
M  V30 5070 H 462.56 -0.218448 3.73361 0
M  V30 5071 H 464.852 -1.61992 6.57849 0
M  V30 5072 H 465.795 -0.180135 7.07871 0
M  V30 5073 H 466.203 -1.01863 5.55233 0
M  V30 5074 N 465.601 -1.54893 0.290851 0
M  V30 5075 C 466.848 -1.99933 -0.321391 0
M  V30 5076 C 467.176 -1.17927 -1.54672 0
M  V30 5077 O 466.431 -0.240902 -1.94212 0
M  V30 5078 C 466.73 -3.49815 -0.732397 0
M  V30 5079 C 466.396 -4.4921 0.390056 0
M  V30 5080 C 465.058 -4.76107 0.698223 0
M  V30 5081 C 467.41 -5.08453 1.14562 0
M  V30 5082 C 464.738 -5.59514 1.76526 0
M  V30 5083 C 467.09 -5.9302 2.2025 0
M  V30 5084 C 465.754 -6.18232 2.51684 0
M  V30 5085 H 465.024 -0.731608 -0.117605 0
M  V30 5086 H 467.671 -1.87107 0.407839 0
M  V30 5087 H 465.976 -3.60199 -1.54155 0
M  V30 5088 H 467.673 -3.82083 -1.21712 0
M  V30 5089 H 464.263 -4.28372 0.13976 0
M  V30 5090 H 468.447 -4.87683 0.920801 0
M  V30 5091 H 463.703 -5.77289 2.01364 0
M  V30 5092 H 467.877 -6.37955 2.7926 0
M  V30 5093 H 465.504 -6.82653 3.34499 0
M  V30 5094 N 467.08 -0.0183926 -1.57589 0
M  V30 5095 C 468.328 0.661253 -1.90976 0
M  V30 5096 C 468.649 1.73281 -0.894353 0
M  V30 5097 O 467.919 1.9579 0.0656788 0
M  V30 5098 H 466.499 0.247233 -0.704901 0
M  V30 5099 H 469.161 -0.0636639 -1.94796 0
M  V30 5100 H 468.257 1.12083 -2.9128 0
M  V30 5101 N 468.558 1.5553 0.254621 0
M  V30 5102 C 469.804 1.77262 0.985193 0
M  V30 5103 C 470.137 0.582286 1.85265 0
M  V30 5104 O 469.412 -0.419666 1.89919 0
M  V30 5105 C 469.695 3.0881 1.85225 0
M  V30 5106 C 469.548 4.38233 1.0135 0
M  V30 5107 C 470.867 3.3653 2.83612 0
M  V30 5108 H 467.986 0.644906 0.356742 0
M  V30 5109 H 470.628 1.88264 0.256236 0
M  V30 5110 H 468.778 2.99562 2.47376 0
M  V30 5111 H 470.45 4.59463 0.411269 0
M  V30 5112 H 468.693 4.32636 0.317574 0
M  V30 5113 H 469.364 5.26644 1.65379 0
M  V30 5114 H 471.84 3.45691 2.31596 0
M  V30 5115 H 470.716 4.29805 3.41407 0
M  V30 5116 H 470.977 2.57064 3.59681 0
M  V30 5117 N 470.036 -0.519951 1.48776 0
M  V30 5118 C 471.264 -1.29971 1.60982 0
M  V30 5119 C 471.679 -1.86803 0.273885 0
M  V30 5120 O 471.036 -1.66904 -0.738193 0
M  V30 5121 C 471.087 -2.44346 2.66415 0
M  V30 5122 O 470.808 -1.89855 3.94825 0
M  V30 5123 C 472.309 -3.36014 2.89153 0
M  V30 5124 H 469.529 -0.394891 0.542496 0
M  V30 5125 H 472.073 -0.626214 1.94676 0
M  V30 5126 H 470.228 -3.07562 2.35552 0
M  V30 5127 H 470.642 -2.64798 4.5275 0
M  V30 5128 H 472.116 -4.12593 3.66703 0
M  V30 5129 H 472.593 -3.91859 1.98351 0
M  V30 5130 H 473.199 -2.78582 3.21359 0
M  V30 5131 N 471.514 -1.37532 -0.769588 0
M  V30 5132 C 472.444 -1.36172 -1.89682 0
M  V30 5133 C 473.425 -0.23001 -1.68538 0
M  V30 5134 O 474.61 -0.43069 -1.89364 0
M  V30 5135 C 471.74 -1.1701 -3.26995 0
M  V30 5136 C 470.694 -2.27216 -3.62708 0
M  V30 5137 C 470.02 -1.93174 -4.98586 0
M  V30 5138 C 471.32 -3.6941 -3.69234 0
M  V30 5139 H 473.014 -2.30499 -1.91078 0
M  V30 5140 H 470.56 -1.10953 -0.917902 0
M  V30 5141 H 472.513 -1.14688 -4.05493 0
M  V30 5142 H 471.237 -0.191395 -3.26039 0
M  V30 5143 H 469.896 -2.28697 -2.86519 0
M  V30 5144 H 469.544 -0.938281 -4.94171 0
M  V30 5145 H 469.244 -2.66973 -5.23449 0
M  V30 5146 H 470.768 -1.92443 -5.79481 0
M  V30 5147 H 472.182 -3.70047 -4.37879 0
M  V30 5148 H 470.579 -4.4228 -4.05597 0
M  V30 5149 H 471.649 -4.0288 -2.69844 0
M  V30 5150 N 472.992 0.995999 -1.22138 0
M  V30 5151 C 474.238 1.7386 -1.05567 0
M  V30 5152 C 474.593 1.8808 0.405418 0
M  V30 5153 O 473.886 1.41062 1.29661 0
M  V30 5154 C 474.08 3.14553 -1.6968 0
M  V30 5155 C 473.909 3.14053 -3.21871 0
M  V30 5156 C 472.679 3.20121 -3.90961 0
M  V30 5157 C 474.877 2.98451 -4.18845 0
M  V30 5158 N 472.859 3.09342 -5.30265 0
M  V30 5159 C 474.23 2.95667 -5.4496 0
M  V30 5160 C 476.285 2.8282 -4.09777 0
M  V30 5161 C 474.988 2.78852 -6.63049 0
M  V30 5162 C 477.014 2.67364 -5.27513 0
M  V30 5163 C 476.376 2.65264 -6.52544 0
M  V30 5164 H 472.475 0.645989 -0.440706 0
M  V30 5165 H 475.059 1.1831 -1.54631 0
M  V30 5166 H 473.23 3.68353 -1.2317 0
M  V30 5167 H 474.962 3.77358 -1.4623 0
M  V30 5168 H 471.717 3.27679 -3.4194 0
M  V30 5169 H 472.141 3.0727 -6.03253 0
M  V30 5170 H 476.783 2.83243 -3.139 0
M  V30 5171 H 474.501 2.77175 -7.59078 0
M  V30 5172 H 478.087 2.56256 -5.22326 0
M  V30 5173 H 476.967 2.5345 -7.42114 0
M  V30 5174 N 474.47 1.03057 1.19235 0
M  V30 5175 C 475.38 0.622922 2.26179 0
M  V30 5176 C 476.396 -0.346113 1.70523 0
M  V30 5177 O 477.572 -0.203572 2.00369 0
M  V30 5178 C 474.637 -0.0182063 3.46695 0
M  V30 5179 C 473.698 0.998546 4.17526 0
M  V30 5180 C 472.931 0.387917 5.32288 0
M  V30 5181 O 473.154 -0.808668 5.64639 0
M  V30 5182 O 472.088 1.1116 5.91546 0
M  V30 5183 H 475.914 1.51363 2.63292 0
M  V30 5184 H 473.499 0.800856 1.26122 0
M  V30 5185 H 475.381 -0.375606 4.19723 0
M  V30 5186 H 474.056 -0.882895 3.11427 0
M  V30 5187 H 472.963 1.40756 3.4661 0
M  V30 5188 H 474.296 1.83366 4.56769 0
M  V30 5189 N 475.948 -1.35272 0.808662 0
M  V30 5190 C 476.881 -2.27595 0.165994 0
M  V30 5191 C 477.859 -1.48189 -0.669241 0
M  V30 5192 O 479.043 -1.77444 -0.636073 0
M  V30 5193 C 476.17 -3.29843 -0.769505 0
M  V30 5194 C 475.216 -4.26498 -0.0136267 0
M  V30 5195 S 476.049 -5.18878 1.32384 0
M  V30 5196 C 477.205 -6.24666 0.392838 0
M  V30 5197 H 477.438 -2.81755 0.948756 0
M  V30 5198 H 474.971 -1.42103 0.603828 0
M  V30 5199 H 476.929 -3.89247 -1.30374 0
M  V30 5200 H 475.59 -2.74558 -1.52567 0
M  V30 5201 H 474.783 -4.98769 -0.724227 0
M  V30 5202 H 474.385 -3.71274 0.450713 0
M  V30 5203 H 476.677 -6.7619 -0.4211 0
M  V30 5204 H 477.62 -6.99741 1.0848 0
M  V30 5205 H 478.028 -5.64499 -0.0123908 0
M  V30 5206 N 477.426 -0.562348 -1.47226 0
M  V30 5207 C 478.673 -0.0402165 -2.0246 0
M  V30 5208 C 479.001 1.31169 -1.43614 0
M  V30 5209 O 478.256 1.86805 -0.5833 0
M  V30 5210 C 478.555 0.0969817 -3.57268 0
M  V30 5211 C 478.221 -1.1847 -4.35058 0
M  V30 5212 C 476.883 -1.53588 -4.56031 0
M  V30 5213 C 479.235 -2.03378 -4.79882 0
M  V30 5214 C 476.563 -2.73452 -5.19077 0
M  V30 5215 C 478.915 -3.2245 -5.44251 0
M  V30 5216 C 477.579 -3.57876 -5.63455 0
M  V30 5217 H 476.849 -0.0147163 -0.740854 0
M  V30 5218 H 479.496 -0.734895 -1.76838 0
M  V30 5219 H 477.801 0.87466 -3.81912 0
M  V30 5220 H 479.498 0.516408 -3.97661 0
M  V30 5221 H 476.088 -0.90126 -4.19017 0
M  V30 5222 H 480.272 -1.77553 -4.63453 0
M  V30 5223 H 475.528 -3.01062 -5.32139 0
M  V30 5224 H 479.702 -3.88526 -5.77945 0
M  V30 5225 H 477.329 -4.50849 -6.12078 0
M  V30 5226 N 478.904 1.54736 -0.299062 0
M  V30 5227 C 480.132 2.04512 0.313447 0
M  V30 5228 C 480.547 1.17643 1.47667 0
M  V30 5229 O 479.904 0.20164 1.81383 0
M  V30 5230 C 479.955 3.53171 0.771542 0
M  V30 5231 O 479.676 4.36736 -0.345379 0
M  V30 5232 C 481.177 4.18936 1.4494 0
M  V30 5233 H 478.397 0.667507 0.0683784 0
M  V30 5234 H 480.941 1.99752 -0.438129 0
M  V30 5235 H 479.096 3.58298 1.47314 0
M  V30 5236 H 479.51 5.24499 0.0109219 0
M  V30 5237 H 480.984 5.24482 1.72111 0
M  V30 5238 H 481.461 3.68554 2.38883 0
M  V30 5239 H 482.067 4.17879 0.791028 0
M  V30 5240 N 480.382 0.0267497 1.57577 0
M  V30 5241 C 481.612 -0.6617 1.95717 0
M  V30 5242 C 482.02 -1.66331 0.901706 0
M  V30 5243 O 481.363 -1.83273 -0.125241 0
M  V30 5244 C 481.425 -1.42649 3.29987 0
M  V30 5245 C 481.089 -0.583482 4.5326 0
M  V30 5246 C 482.086 0.140221 5.19711 0
M  V30 5247 C 479.771 -0.521581 4.99585 0
M  V30 5248 C 481.765 0.914523 6.30805 0
M  V30 5249 C 479.452 0.256428 6.10562 0
M  V30 5250 C 480.45 0.973189 6.76031 0
M  V30 5251 O 480.138 1.73845 7.84878 0
M  V30 5252 H 479.87 -0.187483 0.649481 0
M  V30 5253 H 482.424 0.0820847 2.05236 0
M  V30 5254 H 480.654 -2.21536 3.16952 0
M  V30 5255 H 482.343 -2.00282 3.53047 0
M  V30 5256 H 483.109 0.101716 4.84893 0
M  V30 5257 H 478.988 -1.06904 4.48433 0
M  V30 5258 H 482.532 1.4745 6.81839 0
M  V30 5259 H 478.429 0.296657 6.44818 0
M  V30 5260 H 479.197 1.65797 8.01532 0
M  V30 5261 N 481.861 -1.55662 -0.24637 0
M  V30 5262 C 483.109 -1.77168 -0.972411 0
M  V30 5263 C 483.43 -0.590827 -1.85834 0
M  V30 5264 O 482.7 0.393365 -1.9191 0
M  V30 5265 H 481.28 -0.653405 -0.362038 0
M  V30 5266 H 483.942 -1.93101 -0.264189 0
M  V30 5267 H 483.038 -2.68335 -1.59382 0
M  V30 5268 N 483.339 0.512053 -1.4905 0
M  V30 5269 C 484.271 1.63121 -1.6101 0
M  V30 5270 C 485.284 1.55145 -0.493352 0
M  V30 5271 O 486.473 1.61278 -0.764955 0
M  V30 5272 C 483.573 3.01863 -1.54052 0
M  V30 5273 C 482.746 3.35138 -2.81072 0
M  V30 5274 C 481.805 4.5324 -2.67319 0
M  V30 5275 O 480.831 4.55571 -3.41238 0
M  V30 5276 N 482.033 5.52495 -1.78127 0
M  V30 5277 H 484.798 1.53292 -2.5753 0
M  V30 5278 H 482.359 0.699706 -1.45999 0
M  V30 5279 H 484.351 3.78774 -1.42521 0
M  V30 5280 H 482.921 3.05675 -0.654345 0
M  V30 5281 H 482.141 2.4723 -3.07036 0
M  V30 5282 H 483.429 3.54162 -3.65304 0
M  V30 5283 H 482.827 5.53403 -1.17308 0
M  V30 5284 H 481.384 6.28553 -1.72525 0
M  V30 5285 N 484.817 1.37938 0.762283 0
M  V30 5286 C 485.727 1.36681 1.90671 0
M  V30 5287 C 486.743 0.265078 1.71969 0
M  V30 5288 O 487.919 0.502055 1.95042 0
M  V30 5289 C 484.984 1.18211 3.25925 0
M  V30 5290 C 484.045 2.3811 3.57214 0
M  V30 5291 C 483.278 2.20512 4.86014 0
M  V30 5292 O 483.501 1.19429 5.57757 0
M  V30 5293 O 482.435 3.08911 5.16583 0
M  V30 5294 H 486.261 2.33091 1.94685 0
M  V30 5295 H 483.846 1.18767 0.906356 0
M  V30 5296 H 485.728 1.09937 4.06807 0
M  V30 5297 H 484.403 0.248807 3.22742 0
M  V30 5298 H 483.31 2.51958 2.76529 0
M  V30 5299 H 484.643 3.30041 3.65149 0
M  V30 5300 N 486.295 -0.989507 1.22664 0
M  V30 5301 C 487.706 -1.54406 1.04955 0
M  V30 5302 C 488.057 -1.92366 -0.385951 0
M  V30 5303 O 487.182 -1.75111 -1.27142 0
M  V30 5304 C 487.777 -2.80578 1.89899 0
M  V30 5305 C 486.336 -3.32464 1.76478 0
M  V30 5306 C 485.483 -2.05524 1.86159 0
M  V30 5307 H 488.434 -0.810211 1.3646 0
M  V30 5308 H 488.455 -3.53075 1.4184 0
M  V30 5309 H 487.967 -2.52918 2.94371 0
M  V30 5310 H 486.068 -3.65024 0.747528 0
M  V30 5311 H 486.181 -4.02838 2.59342 0
M  V30 5312 H 484.545 -2.19241 1.29636 0
M  V30 5313 H 485.328 -1.80258 2.92168 0
M  V30 5314 N 487.773 -1.03688 -1.18687 0
M  V30 5315 C 489.019 -0.74888 -1.89112 0
M  V30 5316 C 489.374 0.715345 -1.78607 0
M  V30 5317 O 488.667 1.51498 -1.17299 0
M  V30 5318 C 488.861 -1.14477 -3.3857 0
M  V30 5319 C 488.69 -2.64594 -3.63621 0
M  V30 5320 C 487.46 -3.31685 -3.812 0
M  V30 5321 C 489.658 -3.62811 -3.64517 0
M  V30 5322 N 487.64 -4.70822 -3.93955 0
M  V30 5323 C 489.011 -4.87603 -3.8294 0
M  V30 5324 C 491.066 -3.56495 -3.47585 0
M  V30 5325 C 489.769 -6.0684 -3.86184 0
M  V30 5326 C 491.795 -4.75155 -3.52111 0
M  V30 5327 C 491.157 -5.98765 -3.71026 0
M  V30 5328 H 487.256 -0.32603 -0.710794 0
M  V30 5329 H 489.84 -1.3258 -1.42586 0
M  V30 5330 H 488.011 -0.595974 -3.838 0
M  V30 5331 H 489.743 -0.808187 -3.96548 0
M  V30 5332 H 486.498 -2.82091 -3.80423 0
M  V30 5333 H 486.922 -5.43122 -4.04163 0
M  V30 5334 H 491.564 -2.61907 -3.31911 0
M  V30 5335 H 489.282 -7.01788 -4.00648 0
M  V30 5336 H 492.868 -4.71905 -3.40289 0
M  V30 5337 H 491.748 -6.89047 -3.74412 0
M  V30 5338 N 489.251 1.34841 -0.815825 0
M  V30 5339 C 490.5 1.97755 -0.396976 0
M  V30 5340 C 490.813 1.65422 1.04379 0
M  V30 5341 O 492.019 2.21771 1.5662 0
M  V30 5342 C 490.475 3.53818 -0.658869 0
M  V30 5343 C 490.083 3.95051 -2.11278 0
M  V30 5344 C 491.827 4.23397 -0.305834 0
M  V30 5345 C 489.734 5.43997 -2.31994 0
M  V30 5346 H 488.664 0.739985 -0.1447 0
M  V30 5347 H 491.315 1.53781 -1.00118 0
M  V30 5348 H 489.697 3.95997 0.0154112 0
M  V30 5349 H 490.871 3.63998 -2.82564 0
M  V30 5350 H 489.186 3.38388 -2.42657 0
M  V30 5351 H 491.783 5.32899 -0.43854 0
M  V30 5352 H 492.126 4.09508 0.748952 0
M  V30 5353 H 492.659 3.8667 -0.934403 0
M  V30 5354 H 489.398 5.62865 -3.35952 0
M  V30 5355 H 488.918 5.76589 -1.65244 0
M  V30 5356 H 490.597 6.10584 -2.14001 0
M  V30 5357 N 490.729 0.570148 1.46925 0
M  V30 5358 C 491.977 0.0508523 2.02036 0
M  V30 5359 C 492.298 -1.30885 1.44548 0
M  V30 5360 O 491.568 -1.85647 0.625453 0
M  V30 5361 H 490.148 0.0158088 0.746833 0
M  V30 5362 H 492.81 0.743086 1.80178 0
M  V30 5363 H 491.906 -0.027575 3.12088 0
M  V30 5364 N 492.207 -1.54576 0.307264 0
M  V30 5365 C 493.137 -2.26708 -0.55907 0
M  V30 5366 C 494.118 -1.26893 -1.1328 0
M  V30 5367 O 495.303 -1.55677 -1.16097 0
M  V30 5368 C 492.433 -3.01259 -1.72801 0
M  V30 5369 C 491.387 -4.08275 -1.28435 0
M  V30 5370 C 490.713 -4.70575 -2.53895 0
M  V30 5371 C 492.013 -5.2068 -0.411038 0
M  V30 5372 H 493.707 -2.9937 0.042576 0
M  V30 5373 H 491.253 -1.43983 0.0219173 0
M  V30 5374 H 493.206 -3.50444 -2.34023 0
M  V30 5375 H 491.93 -2.26187 -2.356 0
M  V30 5376 H 490.589 -3.59949 -0.695161 0
M  V30 5377 H 490.237 -3.92136 -3.15021 0
M  V30 5378 H 489.937 -5.42854 -2.24908 0
M  V30 5379 H 491.461 -5.22527 -3.15908 0
M  V30 5380 H 492.875 -5.65721 -0.929097 0
M  V30 5381 H 491.272 -5.99716 -0.214664 0
M  V30 5382 H 492.342 -4.81629 0.562287 0
M  V30 5383 N 493.685 -0.035106 -1.57561 0
M  V30 5384 C 494.633 0.962707 -2.11742 0
M  V30 5385 C 495.627 1.33296 -1.0454 0
M  V30 5386 O 496.833 1.31449 -1.22968 0
M  V30 5387 H 493.208 0.32826 -0.676572 0
M  V30 5388 H 495.179 0.48048 -2.94506 0
M  V30 5389 C 493.928 2.23388 -2.66445 0
M  V30 5390 H 493.251 1.95774 -3.48587 0
M  V30 5391 H 494.691 2.91402 -3.07995 0
M  V30 5392 C 493.15 2.96769 -1.59467 0
M  V30 5393 O 493.68 3.89105 -0.998 0
M  V30 5394 N 491.886 2.59212 -1.31369 0
M  V30 5395 H 491.433 1.84202 -1.80076 0
M  V30 5396 H 491.391 3.08618 -0.600173 0
M  V30 5397 N 495.163 1.55791 0.238111 0
M  V30 5398 C 496.411 1.77681 0.963001 0
M  V30 5399 C 496.732 0.600674 1.85518 0
M  V30 5400 O 496.002 -0.383182 1.92116 0
M  V30 5401 H 494.582 0.655315 0.358568 0
M  V30 5402 H 497.244 1.93239 0.253945 0
M  V30 5403 H 496.34 2.69177 1.57956 0
M  V30 5404 N 496.642 -0.504142 1.49319 0
M  V30 5405 C 497.867 -1.28729 1.62615 0
M  V30 5406 C 498.292 -1.85752 0.296309 0
M  V30 5407 O 497.65 -1.65704 -0.735649 0
M  V30 5408 C 497.698 -2.39561 2.69524 0
M  V30 5409 O 496.802 -3.43324 2.28478 0
M  V30 5410 H 496.143 -0.380172 0.544395 0
M  V30 5411 H 498.673 -0.603872 1.95485 0
M  V30 5412 H 498.683 -2.8537 2.91595 0
M  V30 5413 H 497.358 -1.97423 3.66056 0
M  V30 5414 H 495.935 -3.03455 2.16725 0
M  V30 5415 N 498.12 -1.38341 -0.754957 0
M  V30 5416 C 499.052 -1.31347 -1.87831 0
M  V30 5417 C 500.065 -0.225955 -1.61224 0
M  V30 5418 O 501.254 -0.48341 -1.7183 0
M  V30 5419 C 498.354 -1.01201 -3.23437 0
M  V30 5420 C 497.527 -2.20834 -3.77559 0
M  V30 5421 C 496.586 -1.87454 -4.91678 0
M  V30 5422 O 495.612 -2.59934 -5.06382 0
M  V30 5423 N 496.814 -0.828682 -5.74555 0
M  V30 5424 H 499.579 -2.28147 -1.94342 0
M  V30 5425 H 497.14 -1.32184 -0.934828 0
M  V30 5426 H 499.132 -0.769249 -3.97322 0
M  V30 5427 H 497.702 -0.132011 -3.12321 0
M  V30 5428 H 496.922 -2.61184 -2.95256 0
M  V30 5429 H 498.21 -3.00678 -4.10451 0
M  V30 5430 H 497.608 -0.227591 -5.65242 0
M  V30 5431 H 496.165 -0.645802 -6.48593 0
M  V30 5432 N 499.598 0.982988 -1.23187 0
M  V30 5433 C 500.847 1.71817 -1.05649 0
M  V30 5434 C 501.16 1.91315 0.407176 0
M  V30 5435 O 502.366 2.62256 0.702436 0
M  V30 5436 C 500.822 3.09188 -1.84203 0
M  V30 5437 C 500.43 2.97586 -3.34882 0
M  V30 5438 C 502.174 3.86684 -1.75146 0
M  V30 5439 C 500.081 4.30173 -4.05839 0
M  V30 5440 H 499.011 0.644258 -0.391724 0
M  V30 5441 H 501.662 1.09659 -1.4713 0
M  V30 5442 H 500.044 3.72087 -1.35527 0
M  V30 5443 H 501.218 2.43793 -3.91026 0
M  V30 5444 H 499.533 2.33567 -3.44725 0
M  V30 5445 H 502.13 4.84836 -2.25473 0
M  V30 5446 H 502.473 4.10136 -0.713737 0
M  V30 5447 H 503.006 3.30482 -2.21419 0
M  V30 5448 H 499.745 4.11918 -5.09906 0
M  V30 5449 H 499.265 4.83841 -3.54482 0
M  V30 5450 H 500.944 4.98873 -4.11989 0
M  V30 5451 N 501.076 1.04316 1.18135 0
M  V30 5452 C 502.006 0.657299 2.24058 0
M  V30 5453 C 502.987 -0.340678 1.66654 0
M  V30 5454 O 504.172 -0.220223 1.92947 0
M  V30 5455 C 501.302 0.0220715 3.47293 0
M  V30 5456 C 500.256 0.943857 4.17463 0
M  V30 5457 C 499.582 0.172973 5.3442 0
M  V30 5458 C 500.882 2.26409 4.70677 0
M  V30 5459 H 502.576 1.5428 2.56589 0
M  V30 5460 H 500.122 0.743263 1.23335 0
M  V30 5461 H 502.075 -0.259607 4.206 0
M  V30 5462 H 500.799 -0.898323 3.14003 0
M  V30 5463 H 499.458 1.20996 3.46057 0
M  V30 5464 H 499.106 -0.749907 4.97379 0
M  V30 5465 H 498.806 0.787098 5.82304 0
M  V30 5466 H 500.33 -0.101628 6.10515 0
M  V30 5467 H 501.744 2.04294 5.35665 0
M  V30 5468 H 500.141 2.8314 5.29105 0
M  V30 5469 H 501.211 2.90883 3.87962 0
M  V30 5470 N 502.554 -1.34406 0.822964 0
M  V30 5471 C 503.504 -2.26963 0.217208 0
M  V30 5472 C 504.488 -1.48536 -0.618545 0
M  V30 5473 O 505.68 -1.7056 -0.473118 0
M  V30 5474 C 502.809 -3.37655 -0.619973 0
M  V30 5475 C 501.895 -4.23495 0.226411 0
M  V30 5476 N 502.286 -4.88876 1.29744 0
M  V30 5477 C 500.584 -4.45999 0.0107554 0
M  V30 5478 C 501.285 -5.52642 1.81553 0
M  V30 5479 N 500.261 -5.31949 1.11942 0
M  V30 5480 H 504.063 -2.75017 1.03647 0
M  V30 5481 H 501.577 -1.48126 0.665777 0
M  V30 5482 H 503.574 -4.02932 -1.07011 0
M  V30 5483 H 502.234 -2.91151 -1.43739 0
M  V30 5484 H 503.245 -4.89886 1.68024 0
M  V30 5485 H 499.922 -4.10253 -0.774495 0
M  V30 5486 H 501.312 -6.14755 2.71156 0
M  V30 5487 N 504.032 -0.577932 -1.46621 0
M  V30 5488 C 504.979 0.158048 -2.30258 0
M  V30 5489 C 505.949 0.888669 -1.40328 0
M  V30 5490 O 507.134 0.880283 -1.6928 0
M  V30 5491 C 504.274 1.16884 -3.24703 0
M  V30 5492 C 503.387 0.442163 -4.29731 0
M  V30 5493 C 502.522 1.44007 -5.11308 0
M  V30 5494 C 501.561 0.69952 -6.0809 0
M  V30 5495 N 500.698 1.64525 -6.82551 0
M  V30 5496 H 505.538 -0.561242 -2.92667 0
M  V30 5497 H 503.075 -0.288591 -1.44241 0
M  V30 5498 H 505.033 1.7677 -3.779 0
M  V30 5499 H 503.663 1.85591 -2.64113 0
M  V30 5500 H 502.715 -0.271632 -3.79429 0
M  V30 5501 H 504.027 -0.136992 -4.98612 0
M  V30 5502 H 503.181 2.11186 -5.68758 0
M  V30 5503 H 501.92 2.05315 -4.42377 0
M  V30 5504 H 500.925 0.0139217 -5.49798 0
M  V30 5505 H 502.15 0.091894 -6.79038 0
M  V30 5506 H 500.096 2.24653 -6.16334 0
M  V30 5507 H 500.013 1.11878 -7.47676 0
M  V30 5508 H 501.281 2.30754 -7.44562 0
M  V30 5509 N 505.51 1.54411 -0.315457 0
M  V30 5510 C 506.759 1.99599 0.290395 0
M  V30 5511 C 507.072 1.20746 1.53882 0
M  V30 5512 O 508.278 1.56272 2.22017 0
M  V30 5513 C 506.734 3.5539 0.56797 0
M  V30 5514 C 506.342 4.43068 -0.662945 0
M  V30 5515 C 508.086 4.09067 1.13422 0
M  V30 5516 C 505.993 5.90317 -0.357722 0
M  V30 5517 H 504.923 0.745592 0.112286 0
M  V30 5518 H 507.574 1.78477 -0.426418 0
M  V30 5519 H 505.956 3.72468 1.34476 0
M  V30 5520 H 507.13 4.37765 -1.43869 0
M  V30 5521 H 505.445 4.00238 -1.14884 0
M  V30 5522 H 508.042 5.16663 1.37707 0
M  V30 5523 H 508.385 3.60552 2.08106 0
M  V30 5524 H 508.918 3.95589 0.418805 0
M  V30 5525 H 505.657 6.4301 -1.27351 0
M  V30 5526 H 505.177 5.98592 0.380472 0
M  V30 5527 H 506.856 6.4699 0.0354284 0
M  V30 5528 N 506.988 0.0434614 1.5754 0
M  V30 5529 C 508.265 -0.671479 1.83713 0
M  V30 5530 C 508.645 -1.89495 0.930315 0
M  V30 5531 O 507.993 -2.28498 -0.0105639 0
M  V30 5532 C 508.203 -1.0361 3.33266 0
M  V30 5533 C 509.551 -1.42167 4.00092 0
M  V30 5534 O 510.575 -1.12866 3.37846 0
M  V30 5535 O 509.434 -1.96817 5.09829 0
M  V30 5536 H 506.528 -0.330726 0.75799 0
M  V30 5537 H 509.074 0.0722373 1.69546 0
M  V30 5538 H 507.846 -0.165938 3.90948 0
M  V30 5539 H 507.469 -1.83751 3.52592 0
M  V30 5540 N 508.466 -1.55915 -0.229846 0
M  V30 5541 C 509.413 -1.91734 -1.28478 0
M  V30 5542 C 510.383 -0.773539 -1.46988 0
M  V30 5543 O 511.568 -1.02871 -1.60693 0
M  V30 5544 C 508.708 -2.23224 -2.63182 0
M  V30 5545 C 507.821 -3.50497 -2.52539 0
M  V30 5546 C 506.956 -3.71474 -3.79711 0
M  V30 5547 C 505.995 -4.92289 -3.63755 0
M  V30 5548 N 505.132 -5.09698 -4.82858 0
M  V30 5549 H 509.972 -2.81692 -0.972308 0
M  V30 5550 H 507.509 -1.39429 -0.468815 0
M  V30 5551 H 509.467 -2.3949 -3.41614 0
M  V30 5552 H 508.097 -1.36451 -2.92542 0
M  V30 5553 H 507.149 -3.4247 -1.65585 0
M  V30 5554 H 508.461 -4.39079 -2.36666 0
M  V30 5555 H 507.615 -3.87791 -4.66586 0
M  V30 5556 H 506.354 -2.81157 -3.985 0
M  V30 5557 H 505.359 -4.7593 -2.75264 0
M  V30 5558 H 506.584 -5.84083 -3.46445 0
M  V30 5559 H 504.53 -4.22322 -5.01976 0
M  V30 5560 H 504.447 -5.92399 -4.69681 0
M  V30 5561 H 505.715 -5.30443 -5.71183 0
M  V30 5562 N 509.944 0.496216 -1.49584 0
M  V30 5563 C 510.854 1.62352 -1.69349 0
M  V30 5564 C 511.87 1.64184 -0.576147 0
M  V30 5565 O 513.046 1.82517 -0.85144 0
M  V30 5566 C 510.111 2.98698 -1.76013 0
M  V30 5567 C 509.172 3.07454 -2.99617 0
M  V30 5568 C 508.405 4.37296 -3.05953 0
M  V30 5569 O 508.628 5.2637 -2.19752 0
M  V30 5570 O 507.562 4.51124 -3.9846 0
M  V30 5571 H 511.388 1.48606 -2.64859 0
M  V30 5572 H 508.973 0.673022 -1.33382 0
M  V30 5573 H 510.855 3.79725 -1.82721 0
M  V30 5574 H 509.53 3.12696 -0.836828 0
M  V30 5575 H 508.437 2.25597 -2.98424 0
M  V30 5576 H 509.77 2.98385 -3.91443 0
M  V30 5577 N 511.423 1.38739 0.74761 0
M  V30 5578 C 512.671 1.35007 1.50391 0
M  V30 5579 C 512.992 -0.0574274 1.94915 0
M  V30 5580 O 512.262 -1.00628 1.6808 0
M  V30 5581 H 510.842 0.496784 0.557866 0
M  V30 5582 H 513.504 1.73479 0.888319 0
M  V30 5583 H 512.6 2.00474 2.392 0
M  V30 5584 N 512.901 -0.976442 1.23707 0
M  V30 5585 C 513.811 -2.10359 1.03856 0
M  V30 5586 C 514.827 -1.73991 -0.0180919 0
M  V30 5587 O 516.003 -2.0061 0.178211 0
M  V30 5588 C 513.068 -3.40809 0.636387 0
M  V30 5589 C 512.129 -3.91179 1.76854 0
M  V30 5590 C 511.362 -5.15404 1.38546 0
M  V30 5591 O 511.585 -5.69754 0.27142 0
M  V30 5592 O 510.519 -5.5994 2.20797 0
M  V30 5593 H 514.345 -2.29997 1.98331 0
M  V30 5594 H 511.93 -1.08742 1.02448 0
M  V30 5595 H 513.812 -4.19269 0.423223 0
M  V30 5596 H 512.487 -3.22493 -0.279322 0
M  V30 5597 H 511.394 -3.13819 2.03638 0
M  V30 5598 H 512.727 -4.13958 2.6627 0
M  V30 5599 N 514.379 -1.04941 -1.1758 0
M  V30 5600 C 515.795 -0.770282 -1.39781 0
M  V30 5601 C 515.995 0.636417 -1.91186 0
M  V30 5602 O 515.051 1.39923 -2.10185 0
M  V30 5603 C 516.364 -1.82376 -2.3908 0
M  V30 5604 C 517.912 -1.84569 -2.52791 0
M  V30 5605 C 518.387 -2.88933 -3.55361 0
M  V30 5606 N 519.878 -2.8788 -3.62877 0
M  V30 5607 C 520.613 -3.65282 -4.41992 0
M  V30 5608 N 520.109 -4.52461 -5.24643 0
M  V30 5609 N 521.902 -3.53732 -4.36841 0
M  V30 5610 H 514.053 -1.95705 -0.825438 0
M  V30 5611 H 516.316 -0.847284 -0.425222 0
M  V30 5612 H 516.022 -2.83323 -2.08376 0
M  V30 5613 H 515.896 -1.66327 -3.38549 0
M  V30 5614 H 518.283 -0.842879 -2.82807 0
M  V30 5615 H 518.364 -2.04696 -1.53406 0
M  V30 5616 H 518.008 -3.89398 -3.26085 0
M  V30 5617 H 517.938 -2.66059 -4.54445 0
M  V30 5618 H 520.429 -2.24666 -3.03864 0
M  V30 5619 H 520.742 -5.08211 -5.82187 0
M  V30 5620 H 519.087 -4.56524 -5.24033 0
M  V30 5621 H 522.278 -2.85021 -3.71323 0
M  V30 5622 H 522.451 -4.14302 -4.98255 0
M  V30 5623 N 515.857 1.33968 -0.830081 0
M  V30 5624 C 516.787 2.31911 -0.271911 0
M  V30 5625 C 517.768 1.58571 0.61556 0
M  V30 5626 O 518.953 1.86514 0.540946 0
M  V30 5627 C 516.083 3.42737 0.561146 0
M  V30 5628 C 515.037 4.27383 -0.229789 0
M  V30 5629 C 514.363 5.29742 0.726463 0
M  V30 5630 C 515.663 5.02 -1.44197 0
M  V30 5631 H 517.357 2.78844 -1.09025 0
M  V30 5632 H 514.903 1.34061 -0.52571 0
M  V30 5633 H 516.856 4.10276 0.961867 0
M  V30 5634 H 515.58 2.94471 1.41261 0
M  V30 5635 H 514.239 3.61456 -0.611964 0
M  V30 5636 H 513.887 4.77736 1.57408 0
M  V30 5637 H 513.587 5.87255 0.20142 0
M  V30 5638 H 515.111 6.00149 1.12489 0
M  V30 5639 H 516.525 5.62355 -1.11488 0
M  V30 5640 H 514.922 5.69122 -1.90317 0
M  V30 5641 H 515.992 4.31281 -2.2164 0
M  V30 5642 N 517.335 0.585699 1.46312 0
M  V30 5643 C 518.746 0.159938 1.86014 0
M  V30 5644 C 519.097 -1.27775 1.48889 0
M  V30 5645 O 518.222 -1.96559 0.90519 0
M  V30 5646 C 518.817 0.283485 3.37612 0
M  V30 5647 C 517.376 -0.0874256 3.76298 0
M  V30 5648 C 516.523 0.618055 2.70325 0
M  V30 5649 H 519.474 0.793737 1.37425 0
M  V30 5650 H 519.495 -0.490348 3.77327 0
M  V30 5651 H 519.007 1.32995 3.64601 0
M  V30 5652 H 517.108 -1.13391 3.54927 0
M  V30 5653 H 517.221 0.290975 4.78216 0
M  V30 5654 H 515.585 0.057993 2.54634 0
M  V30 5655 H 516.368 1.66623 3.00153 0
M  V30 5656 N 518.813 -1.54241 0.323641 0
M  V30 5657 C 520.229 -1.59574 -0.0290018 0
M  V30 5658 C 520.429 -1.34017 -1.50472 0
M  V30 5659 O 519.485 -1.12464 -2.26071 0
M  V30 5660 C 520.798 -2.98169 0.389295 0
M  V30 5661 C 522.346 -3.11148 0.339958 0
M  V30 5662 C 522.821 -4.5209 0.733418 0
M  V30 5663 N 524.312 -4.5808 0.686827 0
M  V30 5664 C 525.047 -5.65248 0.963464 0
M  V30 5665 N 524.543 -6.80355 1.30724 0
M  V30 5666 N 526.336 -5.55025 0.88902 0
M  V30 5667 H 518.487 -1.6911 1.28512 0
M  V30 5668 H 520.75 -0.790972 0.522558 0
M  V30 5669 H 520.456 -3.21871 1.41746 0
M  V30 5670 H 520.33 -3.76399 -0.245657 0
M  V30 5671 H 522.717 -2.87182 -0.679002 0
M  V30 5672 H 522.798 -2.35023 1.00985 0
M  V30 5673 H 522.442 -4.76788 1.75029 0
M  V30 5674 H 522.372 -5.26584 0.0412189 0
M  V30 5675 H 524.863 -3.75411 0.43298 0
M  V30 5676 H 525.176 -7.58029 1.5037 0
M  V30 5677 H 523.521 -6.81851 1.3455 0
M  V30 5678 H 526.712 -4.63977 0.619939 0
M  V30 5679 H 526.885 -6.38458 1.10797 0
M  V30 5680 N 520.291 -0.0518155 -1.57515 0
M  V30 5681 C 521.702 0.483787 -1.80323 0
M  V30 5682 C 522.053 1.70879 -0.964099 0
M  V30 5683 O 521.178 2.15643 -0.180872 0
M  V30 5684 C 521.773 0.884459 -3.27052 0
M  V30 5685 C 520.332 1.36504 -3.50776 0
M  V30 5686 C 519.479 0.340539 -2.75201 0
M  V30 5687 H 522.43 -0.277691 -1.56252 0
M  V30 5688 H 522.451 1.74733 -3.38007 0
M  V30 5689 H 521.963 -0.00731093 -3.88099 0
M  V30 5690 H 520.064 2.27598 -2.95009 0
M  V30 5691 H 520.177 1.35675 -4.59488 0
M  V30 5692 H 518.541 0.81356 -2.41357 0
M  V30 5693 H 519.324 -0.543156 -3.38976 0
M  V30 5694 N 521.769 1.56035 0.221574 0
M  V30 5695 C 522.679 1.95581 1.29558 0
M  V30 5696 C 523.695 0.859639 1.51282 0
M  V30 5697 O 524.871 1.16321 1.64413 0
M  V30 5698 C 521.936 2.26447 2.62531 0
M  V30 5699 C 520.997 3.49632 2.4911 0
M  V30 5700 C 520.23 3.79017 3.75742 0
M  V30 5701 O 520.453 3.10077 4.78757 0
M  V30 5702 O 519.387 4.72507 3.72855 0
M  V30 5703 H 523.213 2.8711 0.990035 0
M  V30 5704 H 520.798 1.43244 0.424434 0
M  V30 5705 H 522.68 2.47494 3.41064 0
M  V30 5706 H 521.355 1.38092 2.92766 0
M  V30 5707 H 520.262 3.33864 1.68777 0
M  V30 5708 H 521.595 4.3837 2.23814 0
M  V30 5709 N 523.247 -0.488276 1.49845 0
M  V30 5710 C 524.524 -1.24959 1.50481 0
M  V30 5711 C 524.904 -2.09735 0.239698 0
M  V30 5712 O 524.252 -2.14865 -0.777524 0
M  V30 5713 C 524.462 -2.0954 2.79095 0
M  V30 5714 C 525.81 -2.68305 3.29086 0
M  V30 5715 O 526.834 -2.19797 2.80299 0
M  V30 5716 O 525.693 -3.56643 4.14087 0
M  V30 5717 H 522.787 -0.566133 0.602845 0
M  V30 5718 H 525.333 -0.501504 1.6212 0
M  V30 5719 H 524.105 -1.46958 3.62656 0
M  V30 5720 H 523.728 -2.91517 2.70377 0
M  V30 5721 N 524.725 -1.39134 -0.740242 0
M  V30 5722 C 525.965 -1.37499 -1.51239 0
M  V30 5723 C 526.329 0.0310084 -1.91975 0
M  V30 5724 O 527.53 0.172319 -2.68247 0
M  V30 5725 C 525.801 -2.31566 -2.72235 0
M  V30 5726 S 527.36 -2.48073 -3.61947 0
M  V30 5727 H 524.178 -0.48768 -0.517387 0
M  V30 5728 H 526.78 -1.75183 -0.867826 0
M  V30 5729 H 525.484 -3.32592 -2.40439 0
M  V30 5730 H 525.015 -1.9508 -3.41625 0
M  V30 5731 H 527.03 -1.71473 -4.6563 0
M  V30 5732 N 526.204 0.969867 -1.24223 0
M  V30 5733 C 527.615 1.52717 -1.07399 0
M  V30 5734 C 527.966 1.92956 0.355298 0
M  V30 5735 O 527.091 1.77112 1.2434 0
M  V30 5736 C 527.686 2.77521 -1.94339 0
M  V30 5737 C 526.245 3.29615 -1.81744 0
M  V30 5738 C 525.392 2.02537 -1.89405 0
M  V30 5739 H 528.343 0.788399 -1.37732 0
M  V30 5740 H 528.364 3.50773 -1.47439 0
M  V30 5741 H 527.876 2.48203 -2.98357 0
M  V30 5742 H 525.977 3.63789 -0.805505 0
M  V30 5743 H 526.09 3.98661 -2.65718 0
M  V30 5744 H 524.454 2.17151 -1.33108 0
M  V30 5745 H 525.237 1.75587 -2.94999 0
M  V30 5746 N 527.682 1.05563 1.17022 0
M  V30 5747 C 528.614 0.617888 2.20714 0
M  V30 5748 C 529.627 -0.320303 1.59618 0
M  V30 5749 O 530.816 -0.112449 1.78145 0
M  V30 5750 C 527.916 -0.115333 3.38704 0
M  V30 5751 C 527.089 0.834493 4.29366 0
M  V30 5752 C 526.148 0.141855 5.26009 0
M  V30 5753 O 525.174 0.777151 5.6387 0
M  V30 5754 N 526.376 -1.11934 5.69606 0
M  V30 5755 H 529.141 1.50981 2.58892 0
M  V30 5756 H 526.702 0.938008 1.31958 0
M  V30 5757 H 528.694 -0.588918 4.00392 0
M  V30 5758 H 527.264 -0.908967 2.99093 0
M  V30 5759 H 526.484 1.48762 3.65053 0
M  V30 5760 H 527.772 1.4791 4.86827 0
M  V30 5761 H 527.17 -1.65574 5.40927 0
M  V30 5762 H 525.727 -1.53692 6.33421 0
M  V30 5763 N 529.16 -1.33526 0.837174 0
M  V30 5764 C 530.437 -1.92369 0.354065 0
M  V30 5765 C 530.817 -1.76348 -1.16038 0
M  V30 5766 O 530.165 -1.15083 -1.97403 0
M  V30 5767 C 530.375 -3.39728 0.799101 0
M  V30 5768 C 531.723 -4.16877 0.806139 0
M  V30 5769 O 532.747 -3.48373 0.742597 0
M  V30 5770 O 531.606 -5.39166 0.892345 0
M  V30 5771 H 528.7 -0.820952 0.0998378 0
M  V30 5772 H 531.246 -1.42409 0.922913 0
M  V30 5773 H 530.018 -3.45254 1.84162 0
M  V30 5774 H 529.641 -3.97062 0.206731 0
M  V30 5775 N 530.638 -0.59345 -1.46 0
M  V30 5776 C 531.887 -0.0808084 -2.01538 0
M  V30 5777 C 532.2 1.29112 -1.46934 0
M  V30 5778 O 533.406 1.8957 -1.94359 0
M  V30 5779 C 531.862 -0.0938311 -3.59778 0
M  V30 5780 C 531.47 -1.46474 -4.23379 0
M  V30 5781 C 533.214 0.364306 -4.22934 0
M  V30 5782 C 531.121 -1.4349 -5.73729 0
M  V30 5783 H 530.051 -0.0264407 -0.753536 0
M  V30 5784 H 532.702 -0.746689 -1.67621 0
M  V30 5785 H 531.084 0.638427 -3.9082 0
M  V30 5786 H 532.258 -2.21758 -4.03931 0
M  V30 5787 H 530.573 -1.86379 -3.7236 0
M  V30 5788 H 533.17 0.405584 -5.3316 0
M  V30 5789 H 533.513 1.38409 -3.92618 0
M  V30 5790 H 534.046 -0.31423 -3.96557 0
M  V30 5791 H 530.785 -2.43184 -6.08722 0
M  V30 5792 H 530.305 -0.724431 -5.95409 0
M  V30 5793 H 531.984 -1.15243 -6.36654 0
M  V30 5794 N 532.116 1.54067 -0.331816 0
M  V30 5795 C 533.346 2.04833 0.269605 0
M  V30 5796 C 533.754 1.20714 1.45687 0
M  V30 5797 O 533.097 0.232539 1.82222 0
M  V30 5798 C 533.159 3.51386 0.759499 0
M  V30 5799 C 532.823 4.55971 -0.306557 0
M  V30 5800 C 533.82 5.07126 -1.14538 0
M  V30 5801 C 531.505 5.00216 -0.457116 0
M  V30 5802 C 533.499 6.01096 -2.12042 0
M  V30 5803 C 531.186 5.93999 -1.43556 0
M  V30 5804 C 532.184 6.44326 -2.26568 0
M  V30 5805 O 531.872 7.36267 -3.22749 0
M  V30 5806 H 531.604 0.673509 0.0579763 0
M  V30 5807 H 534.158 1.99748 -0.478521 0
M  V30 5808 H 532.388 3.53896 1.55867 0
M  V30 5809 H 534.077 3.85184 1.28017 0
M  V30 5810 H 534.843 4.73716 -1.04009 0
M  V30 5811 H 530.722 4.60652 0.179142 0
M  V30 5812 H 534.266 6.40302 -2.76873 0
M  V30 5813 H 530.163 6.26825 -1.54146 0
M  V30 5814 H 530.931 7.54165 -3.18083 0
M  V30 5815 N 533.594 0.0601682 1.57485 0
M  V30 5816 C 534.542 -0.928899 2.13247 0
M  V30 5817 C 535.536 -1.31616 1.06647 0
M  V30 5818 O 536.742 -1.29476 1.25043 0
M  V30 5819 H 533.117 -0.317455 0.681708 0
M  V30 5820 H 535.088 -0.433566 2.95233 0
M  V30 5821 C 533.837 -2.19121 2.69965 0
M  V30 5822 H 533.16 -1.90204 3.51657 0
M  V30 5823 H 534.6 -2.86465 3.12592 0
M  V30 5824 C 533.059 -2.94195 1.64168 0
M  V30 5825 O 533.589 -3.87468 1.05978 0
M  V30 5826 N 531.795 -2.57089 1.35476 0
M  V30 5827 H 531.342 -1.81314 1.82984 0
M  V30 5828 H 531.3 -3.07624 0.649196 0
M  V30 5829 N 535.072 -1.5615 -0.213296 0
M  V30 5830 C 536.318 -1.79812 -0.937849 0
M  V30 5831 C 536.651 -0.631201 -1.83656 0
M  V30 5832 O 535.926 0.369165 -1.90964 0
M  V30 5833 C 536.209 -3.13613 -1.76972 0
M  V30 5834 C 536.062 -4.40766 -0.89695 0
M  V30 5835 C 537.381 -3.43931 -2.7459 0
M  V30 5836 H 534.5 -0.654138 -0.339518 0
M  V30 5837 H 537.142 -1.88877 -0.20623 0
M  V30 5838 H 535.292 -3.06015 -2.39347 0
M  V30 5839 H 536.964 -4.60392 -0.289306 0
M  V30 5840 H 535.207 -4.33326 -0.202756 0
M  V30 5841 H 535.878 -5.30843 -1.51358 0
M  V30 5842 H 538.354 -3.5171 -2.22349 0
M  V30 5843 H 537.23 -4.38706 -3.29891 0
M  V30 5844 H 537.491 -2.6651 -3.52739 0
M  V30 5845 N 536.55 0.480323 -1.50102 0
M  V30 5846 C 537.483 1.59789 -1.62919 0
M  V30 5847 C 538.461 1.55429 -0.477557 0
M  V30 5848 O 539.645 1.75186 -0.695851 0
M  V30 5849 C 536.772 2.98351 -1.60325 0
M  V30 5850 C 535.818 3.20899 -2.80938 0
M  V30 5851 S 536.651 3.01791 -4.4236 0
M  V30 5852 C 537.807 4.42712 -4.42444 0
M  V30 5853 H 538.04 1.48676 -2.57454 0
M  V30 5854 H 535.573 0.666996 -1.3925 0
M  V30 5855 H 537.531 3.7824 -1.59514 0
M  V30 5856 H 536.192 3.06862 -0.670419 0
M  V30 5857 H 535.385 4.22102 -2.75401 0
M  V30 5858 H 534.987 2.48768 -2.79268 0
M  V30 5859 H 537.279 5.3518 -4.15438 0
M  V30 5860 H 538.222 4.53294 -5.43995 0
M  V30 5861 H 538.63 4.24359 -3.72263 0
M  V30 5862 N 538.028 1.39524 0.732853 0
M  V30 5863 C 539.274 1.37068 1.49467 0
M  V30 5864 C 539.607 -0.0327166 1.94172 0
M  V30 5865 O 538.882 -0.998071 1.66939 0
M  V30 5866 C 539.165 2.34494 2.73285 0
M  V30 5867 C 539.018 3.83784 2.34585 0
M  V30 5868 C 540.337 2.29717 3.75391 0
M  V30 5869 H 537.456 0.499206 0.542183 0
M  V30 5870 H 540.098 1.70532 0.837783 0
M  V30 5871 H 538.248 2.06087 3.29333 0
M  V30 5872 H 539.92 4.22949 1.84151 0
M  V30 5873 H 538.163 4.00455 1.66787 0
M  V30 5874 H 538.834 4.47444 3.23262 0
M  V30 5875 H 541.31 2.54839 3.28932 0
M  V30 5876 H 540.186 2.99962 4.59689 0
M  V30 5877 H 540.447 1.30291 4.22465 0
M  V30 5878 N 539.506 -0.963266 1.24736 0
M  V30 5879 C 540.438 -2.06162 1.0015 0
M  V30 5880 C 541.451 -1.62771 -0.0305905 0
M  V30 5881 O 542.64 -1.77296 0.206966 0
M  V30 5882 C 539.74 -3.35333 0.490385 0
M  V30 5883 C 538.913 -4.07609 1.58663 0
M  V30 5884 C 537.972 -5.15052 1.0774 0
M  V30 5885 O 536.998 -5.4098 1.77002 0
M  V30 5886 N 538.2 -5.80436 -0.0858605 0
M  V30 5887 H 540.965 -2.27825 1.94719 0
M  V30 5888 H 538.526 -1.13121 1.15825 0
M  V30 5889 H 540.518 -4.04477 0.134371 0
M  V30 5890 H 539.088 -3.10507 -0.361155 0
M  V30 5891 H 538.308 -3.32681 2.11463 0
M  V30 5892 H 539.596 -4.52656 2.32336 0
M  V30 5893 H 538.994 -5.6178 -0.664806 0
M  V30 5894 H 537.551 -6.50674 -0.382981 0
M  V30 5895 N 540.985 -1.06182 -1.16461 0
M  V30 5896 C 542.225 -0.787048 -1.8864 0
M  V30 5897 C 542.589 0.674093 -1.79778 0
M  V30 5898 O 543.79 1.06341 -2.46871 0
M  V30 5899 C 542.061 -1.2666 -3.34203 0
M  V30 5900 S 543.62 -1.12071 -4.24247 0
M  V30 5901 H 540.438 -0.285539 -0.651144 0
M  V30 5902 H 543.04 -1.35851 -1.40587 0
M  V30 5903 H 541.744 -2.32496 -3.38192 0
M  V30 5904 H 541.275 -0.689841 -3.87304 0
M  V30 5905 H 543.29 -0.0509341 -4.96174 0
M  V30 5906 N 542.463 1.3308 -0.844243 0
M  V30 5907 C 543.709 1.98304 -0.452453 0
M  V30 5908 C 544.064 1.65645 0.978746 0
M  V30 5909 O 543.357 0.928849 1.6758 0
M  V30 5910 C 543.551 3.52045 -0.616354 0
M  V30 5911 C 543.38 3.99643 -2.06193 0
M  V30 5912 C 542.15 4.27224 -2.69829 0
M  V30 5913 C 544.348 4.15471 -3.03131 0
M  V30 5914 N 542.33 4.60998 -4.05406 0
M  V30 5915 C 543.701 4.52665 -4.23668 0
M  V30 5916 C 545.756 3.97776 -2.99465 0
M  V30 5917 C 544.459 4.74011 -5.41023 0
M  V30 5918 C 546.485 4.20301 -4.16055 0
M  V30 5919 C 545.847 4.57801 -5.35348 0
M  V30 5920 H 541.946 0.752122 -0.214096 0
M  V30 5921 H 544.53 1.61096 -1.09344 0
M  V30 5922 H 542.701 3.884 -0.00513205 0
M  V30 5923 H 544.433 4.04228 -0.19548 0
M  V30 5924 H 541.188 4.18911 -2.20931 0
M  V30 5925 H 541.612 4.82087 -4.75312 0
M  V30 5926 H 546.254 3.67893 -2.08362 0
M  V30 5927 H 543.972 5.02753 -6.32665 0
M  V30 5928 H 547.558 4.08122 -4.14641 0
M  V30 5929 H 546.438 4.74884 -6.24063 0
M  V30 5930 N 543.941 0.601185 1.45683 0
M  V30 5931 C 544.904 -0.111398 2.28929 0
M  V30 5932 C 545.904 -0.801246 1.39416 0
M  V30 5933 O 547.094 -0.650383 1.61603 0
M  V30 5934 C 544.226 -1.16773 3.20276 0
M  V30 5935 H 545.419 0.620412 2.93413 0
M  V30 5936 H 542.972 0.359946 1.52099 0
M  V30 5937 H 543.707 -1.93051 2.60579 0
M  V30 5938 H 543.492 -0.677358 3.86205 0
M  V30 5939 H 544.982 -1.66698 3.82886 0
M  V30 5940 N 545.419 -1.53889 0.339982 0
M  V30 5941 C 546.369 -2.2165 -0.534354 0
M  V30 5942 C 547.353 -1.20266 -1.06887 0
M  V30 5943 O 548.545 -1.45827 -1.00316 0
M  V30 5944 C 545.674 -2.99014 -1.68659 0
M  V30 5945 C 544.76 -4.07751 -1.16618 0
M  V30 5946 N 545.151 -5.04469 -0.366717 0
M  V30 5947 C 543.449 -4.21998 -1.4434 0
M  V30 5948 C 544.15 -5.81638 -0.0847275 0
M  V30 5949 N 543.126 -5.39388 -0.675391 0
M  V30 5950 H 546.928 -2.93781 0.0835562 0
M  V30 5951 H 544.442 -1.61736 0.146665 0
M  V30 5952 H 546.439 -3.46056 -2.32489 0
M  V30 5953 H 545.099 -2.28408 -2.30781 0
M  V30 5954 H 546.11 -5.17899 -0.00811038 0
M  V30 5955 H 542.787 -3.62612 -2.06928 0
M  V30 5956 H 544.177 -6.69563 0.559943 0
M  V30 5957 N 546.897 -0.0685191 -1.57451 0
M  V30 5958 C 547.844 0.899861 -2.12535 0
M  V30 5959 C 548.814 1.29749 -1.03703 0
M  V30 5960 O 549.999 1.38392 -1.31348 0
M  V30 5961 C 547.139 2.16328 -2.6888 0
M  V30 5962 C 546.252 1.81857 -3.91857 0
M  V30 5963 C 545.387 3.02786 -4.36457 0
M  V30 5964 C 544.426 2.64317 -5.5209 0
M  V30 5965 N 543.563 3.77994 -5.91663 0
M  V30 5966 H 548.403 0.423243 -2.94979 0
M  V30 5967 H 545.94 0.197268 -1.45771 0
M  V30 5968 H 547.898 2.90281 -2.99655 0
M  V30 5969 H 546.528 2.61536 -1.89206 0
M  V30 5970 H 545.58 0.979808 -3.67565 0
M  V30 5971 H 546.892 1.49553 -4.75852 0
M  V30 5972 H 546.046 3.85021 -4.68875 0
M  V30 5973 H 544.785 3.38281 -3.51308 0
M  V30 5974 H 543.79 1.80503 -5.19325 0
M  V30 5975 H 545.015 2.29995 -6.38967 0
M  V30 5976 H 542.961 4.13258 -5.09464 0
M  V30 5977 H 542.878 3.49447 -6.7039 0
M  V30 5978 H 544.146 4.60818 -6.28703 0
M  V30 5979 N 548.375 1.56261 0.205012 0
M  V30 5980 C 549.786 1.70056 0.770574 0
M  V30 5981 C 550.137 0.673398 1.84282 0
M  V30 5982 O 549.262 -0.172196 2.15714 0
M  V30 5983 C 549.857 3.08316 1.40451 0
M  V30 5984 C 548.416 3.2391 1.91727 0
M  V30 5985 C 547.563 2.66001 0.783516 0
M  V30 5986 H 550.514 1.58688 -0.019911 0
M  V30 5987 H 550.535 3.05094 2.27371 0
M  V30 5988 H 550.047 3.83053 0.623882 0
M  V30 5989 H 548.148 2.54072 2.7254 0
M  V30 5990 H 548.261 4.3131 2.08588 0
M  V30 5991 H 546.625 2.24915 1.19521 0
M  V30 5992 H 547.408 3.43297 0.0152883 0
M  V30 5993 N 549.853 -0.472356 1.50355 0
M  V30 5994 C 550.763 -1.59637 1.7191 0
M  V30 5995 C 551.779 -1.63247 0.602195 0
M  V30 5996 O 552.955 -1.81139 0.880369 0
M  V30 5997 C 550.02 -2.9586 1.80742 0
M  V30 5998 C 549.081 -3.02649 3.04471 0
M  V30 5999 C 548.314 -4.32374 3.12872 0
M  V30 6000 O 548.537 -5.22807 2.28099 0
M  V30 6001 O 547.471 -4.44728 4.05587 0
M  V30 6002 H 551.297 -1.44373 2.67189 0
M  V30 6003 H 548.882 -0.651717 1.34436 0
M  V30 6004 H 550.764 -3.7677 1.88739 0
M  V30 6005 H 549.439 -3.11325 0.88647 0
M  V30 6006 H 548.346 -2.20821 3.01975 0
M  V30 6007 H 549.679 -2.92119 3.9614 0
M  V30 6008 N 551.331 -1.39911 -0.725443 0
M  V30 6009 C 552.608 -1.28158 -1.47766 0
M  V30 6010 C 552.988 0.104545 -2.10841 0
M  V30 6011 O 552.336 1.11657 -1.99361 0
M  V30 6012 C 552.546 -2.41306 -2.52135 0
M  V30 6013 C 553.894 -2.81076 -3.18247 0
M  V30 6014 O 554.918 -2.40827 -2.62452 0
M  V30 6015 O 553.777 -3.50581 -4.19231 0
M  V30 6016 H 550.871 -0.502761 -0.656628 0
M  V30 6017 H 553.417 -1.51808 -0.758456 0
M  V30 6018 H 552.189 -3.33932 -2.03974 0
M  V30 6019 H 551.812 -2.19374 -3.31603 0
M  V30 6020 N 552.809 0.956637 -1.25245 0
M  V30 6021 C 554.225 1.22733 -1.02023 0
M  V30 6022 C 554.425 1.99761 0.264186 0
M  V30 6023 O 553.481 2.32814 0.977436 0
M  V30 6024 C 554.794 2.00367 -2.24217 0
M  V30 6025 C 556.342 2.13418 -2.28958 0
M  V30 6026 C 556.817 2.9445 -3.50803 0
M  V30 6027 N 558.308 3.02029 -3.51187 0
M  V30 6028 C 559.043 3.65116 -4.42129 0
M  V30 6029 N 558.539 4.2983 -5.43339 0
M  V30 6030 N 560.332 3.62237 -4.29815 0
M  V30 6031 H 552.483 0.441282 -2.07765 0
M  V30 6032 H 554.746 0.257686 -0.912306 0
M  V30 6033 H 554.452 1.51165 -3.17556 0
M  V30 6034 H 554.326 3.01077 -2.27228 0
M  V30 6035 H 556.713 2.61819 -1.36143 0
M  V30 6036 H 556.794 1.1202 -2.29968 0
M  V30 6037 H 556.438 2.46741 -4.43939 0
M  V30 6038 H 556.368 3.9607 -3.47039 0
M  V30 6039 H 558.859 2.56007 -2.77973 0
M  V30 6040 H 559.172 4.75819 -6.08947 0
M  V30 6041 H 557.517 4.28465 -5.47214 0
M  V30 6042 H 560.708 3.10863 -3.49974 0
M  V30 6043 H 560.881 4.11117 -5.00886 0
M  V30 6044 N 554.287 1.06798 1.15896 0
M  V30 6045 C 555.698 0.811355 1.68149 0
M  V30 6046 C 556.049 -0.664339 1.8461 0
M  V30 6047 O 555.174 -1.51485 1.54535 0
M  V30 6048 C 555.769 1.46624 3.05429 0
M  V30 6049 C 554.328 1.25726 3.54781 0
M  V30 6050 C 553.475 1.53949 2.3064 0
M  V30 6051 H 556.426 1.23078 1.00187 0
M  V30 6052 H 556.447 0.88437 3.7008 0
M  V30 6053 H 555.959 2.54025 2.93416 0
M  V30 6054 H 554.06 0.20322 3.72045 0
M  V30 6055 H 554.173 1.97354 4.36564 0
M  V30 6056 H 552.537 0.96025 2.35905 0
M  V30 6057 H 553.32 2.6252 2.2122 0
M  V30 6058 N 555.766 -1.3263 0.851289 0
M  V30 6059 C 556.994 -2.01563 0.466899 0
M  V30 6060 C 557.409 -1.63996 -0.935447 0
M  V30 6061 O 556.766 -0.85957 -1.6099 0
M  V30 6062 C 556.817 -3.56613 0.592433 0
M  V30 6063 O 556.538 -3.92828 1.93954 0
M  V30 6064 C 558.039 -4.42818 0.206612 0
M  V30 6065 H 555.259 -0.645307 0.183902 0
M  V30 6066 H 557.803 -1.69285 1.1473 0
M  V30 6067 H 555.958 -3.87379 -0.0401936 0
M  V30 6068 H 556.372 -4.87545 1.9339 0
M  V30 6069 H 557.846 -5.50918 0.345462 0
M  V30 6070 H 558.323 -4.30844 -0.85264 0
M  V30 6071 H 558.929 -4.17434 0.814176 0
M  V30 6072 N 557.244 -0.608902 -1.45362 0
M  V30 6073 C 558.491 -0.104607 -2.0223 0
M  V30 6074 C 558.819 1.26534 -1.47714 0
M  V30 6075 O 558.074 1.84855 -0.642435 0
M  V30 6076 C 558.373 -0.0167296 -3.57396 0
M  V30 6077 C 558.039 -1.32251 -4.31069 0
M  V30 6078 C 556.701 -1.68019 -4.50914 0
M  V30 6079 C 559.053 -2.18542 -4.73169 0
M  V30 6080 C 556.381 -2.89828 -5.10114 0
M  V30 6081 C 558.733 -3.39602 -5.33717 0
M  V30 6082 C 557.397 -3.7562 -5.51784 0
M  V30 6083 H 556.667 -0.0382785 -0.740011 0
M  V30 6084 H 559.314 -0.790782 -1.7441 0
M  V30 6085 H 557.619 0.752715 -3.84502 0
M  V30 6086 H 559.316 0.389634 -3.99103 0
M  V30 6087 H 555.906 -1.03411 -4.15938 0
M  V30 6088 H 560.09 -1.92208 -4.5757 0
M  V30 6089 H 555.346 -3.17839 -5.22291 0
M  V30 6090 H 559.52 -4.06716 -5.65292 0
M  V30 6091 H 557.147 -4.70093 -5.97425 0
M  V30 6092 N 558.722 1.53707 -0.348139 0
M  V30 6093 C 559.968 2.01286 0.247332 0
M  V30 6094 C 560.301 1.23546 1.49834 0
M  V30 6095 O 559.576 0.324331 1.91777 0
M  V30 6096 C 559.859 3.55768 0.556858 0
M  V30 6097 C 559.712 4.44216 -0.706564 0
M  V30 6098 C 561.031 4.1841 1.3646 0
M  V30 6099 H 558.15 0.731677 0.0884201 0
M  V30 6100 H 560.792 1.84106 -0.469584 0
M  V30 6101 H 558.942 3.70539 1.16761 0
M  V30 6102 H 560.614 4.41274 -1.34444 0
M  V30 6103 H 558.857 4.12892 -1.33052 0
M  V30 6104 H 559.528 5.50202 -0.445186 0
M  V30 6105 H 562.004 4.07365 0.848113 0
M  V30 6106 H 560.88 5.26563 1.54992 0
M  V30 6107 H 561.141 3.7333 2.36805 0
M  V30 6108 N 560.2 0.0768682 1.57412 0
M  V30 6109 C 561.163 -0.873949 2.11884 0
M  V30 6110 C 562.163 -1.22301 1.04398 0
M  V30 6111 O 563.353 -1.15545 1.30365 0
M  V30 6112 C 560.485 -2.17575 2.62438 0
M  V30 6113 H 561.678 -0.401278 2.97203 0
M  V30 6114 H 559.231 -0.171904 1.55352 0
M  V30 6115 H 559.966 -2.69368 1.80587 0
M  V30 6116 H 559.751 -1.93534 3.41009 0
M  V30 6117 H 561.241 -2.85631 3.04639 0
M  V30 6118 N 561.678 -1.56367 -0.196722 0
M  V30 6119 C 562.608 -1.97442 -1.24655 0
M  V30 6120 C 563.589 -0.846147 -1.47561 0
M  V30 6121 O 564.774 -1.11035 -1.59326 0
M  V30 6122 C 561.904 -2.31253 -2.59112 0
M  V30 6123 C 560.858 -3.46804 -2.50821 0
M  V30 6124 C 560.184 -3.66286 -3.89536 0
M  V30 6125 C 561.484 -4.8104 -2.03465 0
M  V30 6126 H 563.178 -2.85388 -0.905216 0
M  V30 6127 H 560.724 -1.37304 -0.434002 0
M  V30 6128 H 562.677 -2.58583 -3.32736 0
M  V30 6129 H 561.401 -1.40188 -2.94983 0
M  V30 6130 H 560.06 -3.19563 -1.79653 0
M  V30 6131 H 559.708 -2.72555 -4.22756 0
M  V30 6132 H 559.408 -4.4402 -3.84864 0
M  V30 6133 H 560.932 -3.9599 -4.64784 0
M  V30 6134 H 562.346 -5.07411 -2.66846 0
M  V30 6135 H 560.743 -5.62232 -2.09798 0
M  V30 6136 H 561.813 -4.74732 -0.98781 0
M  V30 6137 N 563.156 0.464375 -1.50603 0
M  V30 6138 C 564.572 0.798684 -1.38178 0
M  V30 6139 C 564.772 1.96568 -0.44308 0
M  V30 6140 O 563.828 2.52252 0.111814 0
M  V30 6141 C 565.141 1.10444 -2.79683 0
M  V30 6142 C 566.689 1.2105 -2.88645 0
M  V30 6143 C 567.164 1.54934 -4.30998 0
M  V30 6144 N 568.655 1.61913 -4.3398 0
M  V30 6145 C 569.39 1.8965 -5.41129 0
M  V30 6146 N 568.886 2.15361 -6.58477 0
M  V30 6147 N 570.679 1.91207 -5.28579 0
M  V30 6148 H 562.83 -0.304603 -2.10204 0
M  V30 6149 H 565.093 -0.0737804 -0.945125 0
M  V30 6150 H 564.799 0.319934 -3.50242 0
M  V30 6151 H 564.673 2.03896 -3.17342 0
M  V30 6152 H 567.06 1.98567 -2.18301 0
M  V30 6153 H 567.141 0.255613 -2.5452 0
M  V30 6154 H 566.785 0.779549 -5.01882 0
M  V30 6155 H 566.715 2.51584 -4.62615 0
M  V30 6156 H 569.206 1.44055 -3.49366 0
M  V30 6157 H 569.519 2.35818 -7.35941 0
M  V30 6158 H 567.864 2.1274 -6.6164 0
M  V30 6159 H 571.055 1.70622 -4.35897 0
M  V30 6160 H 571.228 2.12488 -6.12171 0
M  V30 6161 N 564.634 1.40294 0.718013 0
M  V30 6162 C 565.911 1.2894 1.47084 0
M  V30 6163 C 566.291 -0.0933625 2.10893 0
M  V30 6164 O 565.639 -1.10598 1.99951 0
M  V30 6165 C 565.849 2.4264 2.50852 0
M  V30 6166 C 567.197 2.8276 3.16752 0
M  V30 6167 O 568.221 2.42215 2.61171 0
M  V30 6168 O 567.08 3.528 4.17366 0
M  V30 6169 H 564.174 0.506236 0.653952 0
M  V30 6170 H 566.72 1.52208 0.750394 0
M  V30 6171 H 565.492 3.35009 2.022 0
M  V30 6172 H 565.115 2.21129 3.30435 0
M  V30 6173 N 566.112 -0.949982 1.2575 0
M  V30 6174 C 567.359 -1.69515 1.10774 0
M  V30 6175 C 567.687 -1.91316 -0.350479 0
M  V30 6176 O 566.942 -1.48515 -1.27443 0
M  V30 6177 C 567.241 -3.08039 1.81237 0
M  V30 6178 C 566.907 -3.06023 3.31151 0
M  V30 6179 C 565.569 -3.0518 3.72047 0
M  V30 6180 C 567.921 -2.98998 4.26907 0
M  V30 6181 C 565.249 -2.95067 5.07102 0
M  V30 6182 C 567.601 -2.90426 5.61992 0
M  V30 6183 C 566.265 -2.87922 6.0221 0
M  V30 6184 H 565.535 -0.6203 0.405351 0
M  V30 6185 H 568.182 -1.10953 1.56082 0
M  V30 6186 H 566.487 -3.70172 1.28373 0
M  V30 6187 H 568.184 -3.64526 1.67098 0
M  V30 6188 H 564.774 -3.07453 2.98614 0
M  V30 6189 H 568.958 -2.98764 3.963 0
M  V30 6190 H 564.214 -2.915 5.37436 0
M  V30 6191 H 568.388 -2.83952 6.35881 0
M  V30 6192 H 566.015 -2.79841 7.06819 0
M  V30 6193 N 567.59 -1.07411 -1.15328 0
M  V30 6194 C 568.52 -0.716472 -2.22236 0
M  V30 6195 C 569.501 0.296373 -1.67498 0
M  V30 6196 O 570.686 0.168989 -1.93463 0
M  V30 6197 C 567.816 -0.114142 -3.47112 0
M  V30 6198 C 566.77 -1.05421 -4.14814 0
M  V30 6199 C 566.096 -0.314604 -5.33774 0
M  V30 6200 C 567.396 -2.38808 -4.64508 0
M  V30 6201 H 569.09 -1.61029 -2.52408 0
M  V30 6202 H 566.636 -0.775702 -1.21321 0
M  V30 6203 H 568.589 0.148001 -4.2114 0
M  V30 6204 H 567.313 0.814755 -3.16274 0
M  V30 6205 H 565.972 -1.30128 -3.42728 0
M  V30 6206 H 565.62 0.617772 -4.99192 0
M  V30 6207 H 565.32 -0.941209 -5.80013 0
M  V30 6208 H 566.844 -0.0602747 -6.1057 0
M  V30 6209 H 568.258 -2.18424 -5.3006 0
M  V30 6210 H 566.655 -2.97069 -5.21412 0
M  V30 6211 H 567.725 -3.01067 -3.80114 0
M  V30 6212 N 569.068 1.32177 -0.85831 0
M  V30 6213 C 569.998 2.31282 -0.321041 0
M  V30 6214 C 570.979 1.59841 0.581786 0
M  V30 6215 O 572.164 1.87619 0.501262 0
M  V30 6216 C 569.294 3.4385 0.48832 0
M  V30 6217 C 568.248 4.26799 -0.320391 0
M  V30 6218 C 567.574 5.31164 0.613934 0
M  V30 6219 C 568.874 4.98829 -1.54813 0
M  V30 6220 H 570.568 2.76469 -1.14915 0
M  V30 6221 H 568.114 1.32916 -0.554028 0
M  V30 6222 H 570.067 4.12224 0.874626 0
M  V30 6223 H 568.791 2.97401 1.34983 0
M  V30 6224 H 567.45 3.60077 -0.688497 0
M  V30 6225 H 567.098 4.80967 1.47239 0
M  V30 6226 H 566.798 5.8755 0.0768097 0
M  V30 6227 H 568.322 6.024 0.997336 0
M  V30 6228 H 569.736 5.59864 -1.23392 0
M  V30 6229 H 568.133 5.64957 -2.02346 0
M  V30 6230 H 569.203 4.26483 -2.30739 0
M  V30 6231 N 570.547 0.616602 1.45037 0
M  V30 6232 C 571.457 -0.0985401 2.34393 0
M  V30 6233 C 572.473 -0.850971 1.51771 0
M  V30 6234 O 573.649 -0.806521 1.84546 0
M  V30 6235 C 570.714 -1.07748 3.29532 0
M  V30 6236 C 569.775 -0.326022 4.2806 0
M  V30 6237 C 569.008 -1.25833 5.18654 0
M  V30 6238 O 569.231 -2.49652 5.12864 0
M  V30 6239 O 568.165 -0.750512 5.97203 0
M  V30 6240 H 571.991 0.636016 2.96966 0
M  V30 6241 H 569.576 0.376832 1.44569 0
M  V30 6242 H 571.458 -1.64107 3.88133 0
M  V30 6243 H 570.133 -1.79291 2.69512 0
M  V30 6244 H 569.04 0.280253 3.73049 0
M  V30 6245 H 570.373 0.349091 4.9096 0
M  V30 6246 N 572.025 -1.5352 0.356285 0
M  V30 6247 C 572.988 -2.24071 -0.482182 0
M  V30 6248 C 573.988 -1.24531 -1.01729 0
M  V30 6249 O 575.178 -1.48876 -0.904513 0
M  V30 6250 C 572.31 -2.97025 -1.67299 0
M  V30 6251 H 573.503 -2.99596 0.135031 0
M  V30 6252 H 571.056 -1.55928 0.107825 0
M  V30 6253 H 571.791 -2.25719 -2.32855 0
M  V30 6254 H 571.576 -3.7005 -1.29636 0
M  V30 6255 H 573.066 -3.50683 -2.26741 0
M  V30 6256 N 573.503 -0.0852151 -1.57369 0
M  V30 6257 C 574.435 0.907099 -2.10486 0
M  V30 6258 C 575.448 1.25259 -1.03991 0
M  V30 6259 O 576.637 1.20743 -1.31467 0
M  V30 6260 C 573.737 2.21908 -2.56145 0
M  V30 6261 C 572.91 2.05042 -3.86363 0
M  V30 6262 C 571.969 3.19664 -4.17973 0
M  V30 6263 O 570.995 2.94062 -4.87356 0
M  V30 6264 N 572.197 4.45151 -3.72587 0
M  V30 6265 H 574.962 0.453505 -2.96249 0
M  V30 6266 H 572.523 0.100157 -1.6159 0
M  V30 6267 H 574.515 2.97519 -2.74343 0
M  V30 6268 H 573.085 2.58723 -1.75446 0
M  V30 6269 H 572.305 1.13819 -3.77411 0
M  V30 6270 H 573.593 1.91039 -4.71574 0
M  V30 6271 H 572.991 4.68834 -3.16561 0
M  V30 6272 H 571.548 5.17744 -3.9596 0
M  V30 6273 N 574.981 1.5647 0.188427 0
M  V30 6274 C 576.392 1.70864 0.752494 0
M  V30 6275 C 576.743 0.692905 1.83557 0
M  V30 6276 O 575.868 -0.149307 2.15884 0
M  V30 6277 C 576.463 3.09789 1.37173 0
M  V30 6278 C 575.022 3.25925 1.88281 0
M  V30 6279 C 574.169 2.66817 0.755259 0
M  V30 6280 H 577.12 1.58657 -0.0367408 0
M  V30 6281 H 577.141 3.07489 2.24122 0
M  V30 6282 H 576.653 3.83693 0.583219 0
M  V30 6283 H 574.754 2.56948 2.6983 0
M  V30 6284 H 574.867 4.33498 2.04001 0
M  V30 6285 H 573.231 2.2617 1.17128 0
M  V30 6286 H 574.014 3.43294 -0.0211237 0
M  V30 6287 N 576.459 -0.456382 1.50847 0
M  V30 6288 C 577.687 -1.23026 1.66349 0
M  V30 6289 C 578.102 -1.85473 0.352868 0
M  V30 6290 O 577.459 -1.69885 -0.666739 0
M  V30 6291 C 577.51 -2.32827 2.76539 0
M  V30 6292 O 577.231 -1.72938 4.02522 0
M  V30 6293 C 578.732 -3.23448 3.03144 0
M  V30 6294 H 575.952 -0.371527 0.558756 0
M  V30 6295 H 578.496 -0.543082 1.97157 0
M  V30 6296 H 576.651 -2.97294 2.48384 0
M  V30 6297 H 577.065 -2.45357 4.63573 0
M  V30 6298 H 578.539 -3.96669 3.83872 0
M  V30 6299 H 579.016 -3.83094 2.14793 0
M  V30 6300 H 579.622 -2.64702 3.32886 0
M  V30 6301 N 577.937 -1.40673 -0.710563 0
M  V30 6302 C 579.214 -1.29718 -1.46398 0
M  V30 6303 C 579.594 0.082177 -2.1094 0
M  V30 6304 O 578.942 1.09536 -2.00534 0
M  V30 6305 C 579.152 -2.43967 -2.49562 0
M  V30 6306 C 580.5 -2.84436 -3.15248 0
M  V30 6307 O 581.524 -2.43597 -2.59883 0
M  V30 6308 O 580.383 -3.55008 -4.1549 0
M  V30 6309 H 577.477 -0.509697 -0.651258 0
M  V30 6310 H 580.023 -1.52603 -0.742312 0
M  V30 6311 H 578.795 -3.36076 -2.0042 0
M  V30 6312 H 578.418 -2.22879 -3.29258 0
M  V30 6313 N 579.415 0.9433 -1.26252 0
M  V30 6314 C 580.348 2.04162 -1.01946 0
M  V30 6315 C 581.326 1.62507 0.0550808 0
M  V30 6316 O 582.51 1.883 -0.0869025 0
M  V30 6317 C 579.637 3.34313 -0.54335 0
M  V30 6318 C 578.683 3.94939 -1.61013 0
M  V30 6319 S 579.516 4.29484 -3.19849 0
M  V30 6320 C 580.672 5.62738 -2.74001 0
M  V30 6321 H 580.905 2.24466 -1.94942 0
M  V30 6322 H 578.438 1.08441 -1.09909 0
M  V30 6323 H 580.396 4.09576 -0.275315 0
M  V30 6324 H 579.057 3.11957 0.36629 0
M  V30 6325 H 578.25 4.88812 -1.22795 0
M  V30 6326 H 577.852 3.26202 -1.82943 0
M  V30 6327 H 580.144 6.41356 -2.18333 0
M  V30 6328 H 581.087 6.05839 -3.66558 0
M  V30 6329 H 581.495 5.22514 -2.13634 0
M  V30 6330 N 580.893 1.08022 1.14757 0
M  V30 6331 C 582.309 0.807072 1.3769 0
M  V30 6332 C 582.509 -0.585504 1.92806 0
M  V30 6333 O 581.565 -1.34301 2.13821 0
M  V30 6334 C 582.878 1.88651 2.34161 0
M  V30 6335 C 584.426 1.91206 2.47809 0
M  V30 6336 C 584.901 2.98253 3.47576 0
M  V30 6337 N 586.392 2.974 3.55117 0
M  V30 6338 C 587.127 3.76872 4.32152 0
M  V30 6339 N 586.623 4.66212 5.12463 0
M  V30 6340 N 588.416 3.6519 4.27309 0
M  V30 6341 H 580.567 1.97824 0.77326 0
M  V30 6342 H 582.83 0.85826 0.402608 0
M  V30 6343 H 582.536 2.88749 2.00791 0
M  V30 6344 H 582.41 1.75244 3.3402 0
M  V30 6345 H 584.797 0.917564 2.80472 0
M  V30 6346 H 584.878 2.08691 1.47925 0
M  V30 6347 H 584.522 3.97907 3.15646 0
M  V30 6348 H 584.452 2.78014 4.47231 0
M  V30 6349 H 586.943 2.32643 2.97801 0
M  V30 6350 H 587.256 5.23468 5.68508 0
M  V30 6351 H 585.601 4.70257 5.11745 0
M  V30 6352 H 588.792 2.94765 3.63636 0
M  V30 6353 H 588.965 4.27366 4.87095 0
M  V30 6354 N 582.371 -1.3172 0.865308 0
M  V30 6355 C 583.334 -2.26918 0.322627 0
M  V30 6356 C 584.334 -1.52031 -0.523751 0
M  V30 6357 O 585.524 -1.70973 -0.333727 0
M  V30 6358 C 582.656 -3.36558 -0.542338 0
M  V30 6359 H 583.849 -2.76432 1.16298 0
M  V30 6360 H 581.402 -1.42573 0.640512 0
M  V30 6361 H 582.137 -2.92329 -1.40407 0
M  V30 6362 H 581.922 -3.92048 0.0636395 0
M  V30 6363 H 583.412 -4.07465 -0.91446 0
M  V30 6364 N 583.85 -0.624285 -1.44708 0
M  V30 6365 C 584.779 0.0717025 -2.3339 0
M  V30 6366 C 585.76 0.841814 -1.47809 0
M  V30 6367 O 586.946 0.809056 -1.76544 0
M  V30 6368 C 584.076 1.05852 -3.30776 0
M  V30 6369 C 583.029 0.400503 -4.26122 0
M  V30 6370 C 582.356 1.49674 -5.13324 0
M  V30 6371 C 583.656 -0.688924 -5.17737 0
M  V30 6372 H 585.35 -0.668819 -2.91834 0
M  V30 6373 H 582.896 -0.32308 -1.40329 0
M  V30 6374 H 584.849 1.5541 -3.91696 0
M  V30 6375 H 583.572 1.82984 -2.70526 0
M  V30 6376 H 582.231 -0.0743687 -3.66525 0
M  V30 6377 H 581.88 2.25877 -4.49431 0
M  V30 6378 H 581.58 1.06188 -5.77926 0
M  V30 6379 H 583.104 1.99427 -5.77115 0
M  V30 6380 H 584.518 -0.276724 -5.72632 0
M  V30 6381 H 582.915 -1.04652 -5.90904 0
M  V30 6382 H 583.985 -1.55884 -4.5916 0
M  V30 6383 N 585.328 1.53329 -0.364422 0
M  V30 6384 C 586.26 2.23286 0.517293 0
M  V30 6385 C 587.273 1.24657 1.04711 0
M  V30 6386 O 588.462 1.50887 0.95369 0
M  V30 6387 C 585.562 2.91604 1.72685 0
M  V30 6388 C 584.735 4.1673 1.32873 0
M  V30 6389 C 583.794 4.68269 2.40022 0
M  V30 6390 O 582.82 5.31976 2.02461 0
M  V30 6391 N 584.022 4.45983 3.7159 0
M  V30 6392 H 586.787 2.99588 -0.0819391 0
M  V30 6393 H 584.348 1.60787 -0.189544 0
M  V30 6394 H 586.34 3.22992 2.4384 0
M  V30 6395 H 584.91 2.18763 2.23297 0
M  V30 6396 H 584.13 3.91657 0.447069 0
M  V30 6397 H 585.418 4.98078 1.03902 0
M  V30 6398 H 584.816 3.95077 4.04883 0
M  V30 6399 H 583.373 4.81924 4.38854 0
M  V30 6400 N 586.806 0.0935595 1.57322 0
M  V30 6401 C 588.083 -0.612692 1.85756 0
M  V30 6402 C 588.463 -1.86439 0.99013 0
M  V30 6403 O 587.811 -2.28416 0.0621362 0
M  V30 6404 C 588.021 -0.929547 3.36393 0
M  V30 6405 C 589.369 -1.29366 4.04413 0
M  V30 6406 O 590.393 -1.02061 3.41265 0
M  V30 6407 O 589.252 -1.80498 5.15832 0
M  V30 6408 H 586.346 -0.306444 0.768128 0
M  V30 6409 H 588.892 0.126141 1.69231 0
M  V30 6410 H 587.664 -0.0414766 3.91278 0
M  V30 6411 H 587.287 -1.72441 3.5826 0
M  V30 6412 N 588.284 -1.56567 -0.180126 0
M  V30 6413 C 589.531 -1.81492 -0.898167 0
M  V30 6414 C 589.859 -0.669225 -1.82624 0
M  V30 6415 O 589.114 0.344096 -1.92651 0
M  V30 6416 C 589.413 -3.1252 -1.73395 0
M  V30 6417 C 589.079 -4.40658 -0.955567 0
M  V30 6418 C 587.741 -4.75465 -0.740707 0
M  V30 6419 C 590.093 -5.19593 -0.408948 0
M  V30 6420 C 587.421 -5.86691 0.0320128 0
M  V30 6421 C 589.773 -6.31627 0.350638 0
M  V30 6422 C 588.437 -6.65007 0.576378 0
M  V30 6423 H 587.707 -0.664125 -0.328662 0
M  V30 6424 H 590.354 -1.908 -0.163616 0
M  V30 6425 H 588.659 -2.98515 -2.53763 0
M  V30 6426 H 590.356 -3.29013 -2.29241 0
M  V30 6427 H 586.946 -4.13352 -1.13306 0
M  V30 6428 H 591.13 -4.93104 -0.562307 0
M  V30 6429 H 586.386 -6.11016 0.216735 0
M  V30 6430 H 590.56 -6.92001 0.781497 0
M  V30 6431 H 588.187 -7.51033 1.17703 0
M  V30 6432 N 589.762 0.448376 -1.51087 0
M  V30 6433 C 590.672 1.56882 -1.74428 0
M  V30 6434 C 591.688 1.62268 -0.62809 0
M  V30 6435 O 592.864 1.79716 -0.909075 0
M  V30 6436 C 589.929 2.92947 -1.85426 0
M  V30 6437 C 588.99 2.97766 -3.09247 0
M  V30 6438 C 588.223 4.27341 -3.19711 0
M  V30 6439 O 588.446 5.19112 -2.36387 0
M  V30 6440 O 587.38 4.38219 -4.12611 0
M  V30 6441 H 591.206 1.40104 -2.69452 0
M  V30 6442 H 588.791 0.630247 -1.35456 0
M  V30 6443 H 590.673 3.73719 -1.94709 0
M  V30 6444 H 589.348 3.09876 -0.935887 0
M  V30 6445 H 588.255 2.15989 -3.0545 0
M  V30 6446 H 589.588 2.8578 -4.00738 0
M  V30 6447 N 591.24 1.41047 0.703093 0
M  V30 6448 C 592.15 1.44645 1.84703 0
M  V30 6449 C 593.166 0.337778 1.7069 0
M  V30 6450 O 594.342 0.584327 1.92737 0
M  V30 6451 C 591.407 1.31928 3.20618 0
M  V30 6452 C 590.468 2.53047 3.46794 0
M  V30 6453 C 589.701 2.40927 4.76224 0
M  V30 6454 O 589.924 1.42978 5.5219 0
M  V30 6455 O 588.858 3.30543 5.03016 0
M  V30 6456 H 592.684 2.41139 1.84624 0
M  V30 6457 H 590.269 1.22504 0.855167 0
M  V30 6458 H 592.151 1.27092 4.01778 0
M  V30 6459 H 590.826 0.385469 3.21397 0
M  V30 6460 H 589.733 2.6346 2.65593 0
M  V30 6461 H 591.066 3.45231 3.50822 0
M  V30 6462 N 592.718 -0.936591 1.26751 0
M  V30 6463 C 594.129 -1.49816 1.1141 0
M  V30 6464 C 594.48 -1.9383 -0.304015 0
M  V30 6465 O 593.605 -1.80346 -1.196 0
M  V30 6466 C 594.2 -2.72271 2.01629 0
M  V30 6467 C 592.759 -3.2468 1.9042 0
M  V30 6468 C 591.906 -1.97444 1.94708 0
M  V30 6469 H 594.857 -0.751604 1.39773 0
M  V30 6470 H 594.878 -3.46741 1.56688 0
M  V30 6471 H 594.39 -2.40205 3.04833 0
M  V30 6472 H 592.491 -3.61525 0.901674 0
M  V30 6473 H 592.604 -3.91476 2.76195 0
M  V30 6474 H 590.968 -2.13545 1.38818 0
M  V30 6475 H 591.751 -1.67703 2.9955 0
M  V30 6476 N 594.196 -1.08629 -1.14182 0
M  V30 6477 C 595.473 -0.73002 -1.81466 0
M  V30 6478 C 595.853 0.785996 -1.95922 0
M  V30 6479 O 595.201 1.70535 -1.52086 0
M  V30 6480 C 595.411 -1.45957 -3.17014 0
M  V30 6481 C 596.759 -1.62008 -3.92477 0
M  V30 6482 O 597.783 -1.42141 -3.26611 0
M  V30 6483 O 596.642 -1.94806 -5.106 0
M  V30 6484 H 593.736 -0.261307 -0.784632 0
M  V30 6485 H 596.282 -1.188 -1.2118 0
M  V30 6486 H 595.054 -2.49221 -3.01669 0
M  V30 6487 H 594.677 -0.993222 -3.84995 0
M  V30 6488 N 595.674 1.31259 -0.872281 0
M  V30 6489 C 596.621 2.28459 -0.327857 0
M  V30 6490 C 597.591 1.55831 0.574957 0
M  V30 6491 O 598.776 1.83965 0.506101 0
M  V30 6492 C 595.916 3.41985 0.462644 0
M  V30 6493 C 595.029 4.29458 -0.467949 0
M  V30 6494 C 594.164 5.30131 0.336903 0
M  V30 6495 C 593.203 6.0925 -0.58997 0
M  V30 6496 N 592.34 7.01872 0.178775 0
M  V30 6497 H 597.18 2.74414 -1.16193 0
M  V30 6498 H 594.717 1.34994 -0.584376 0
M  V30 6499 H 596.675 4.06547 0.936759 0
M  V30 6500 H 595.305 2.97134 1.2614 0
M  V30 6501 H 594.357 3.65318 -1.06052 0
M  V30 6502 H 595.669 4.84677 -1.17856 0
M  V30 6503 H 594.823 6.0038 0.873427 0
M  V30 6504 H 593.562 4.75573 1.08079 0
M  V30 6505 H 592.567 5.37889 -1.13823 0
M  V30 6506 H 593.792 6.65894 -1.33275 0
M  V30 6507 H 591.738 6.49721 0.905435 0
M  V30 6508 H 591.655 7.54522 -0.472452 0
M  V30 6509 H 592.923 7.76382 0.696454 0
M  V30 6510 N 597.152 0.631951 1.44375 0
M  V30 6511 C 598.082 -0.0593243 2.33425 0
M  V30 6512 C 599.063 -0.833964 1.48253 0
M  V30 6513 O 600.248 -0.799682 1.76971 0
M  V30 6514 C 597.378 -1.04096 3.31333 0
M  V30 6515 C 596.332 -0.377899 4.26328 0
M  V30 6516 C 595.658 -1.4695 5.14111 0
M  V30 6517 C 596.958 0.716371 5.17364 0
M  V30 6518 H 598.652 0.684287 2.91475 0
M  V30 6519 H 596.198 0.330518 1.40156 0
M  V30 6520 H 598.151 -1.53331 3.92514 0
M  V30 6521 H 596.875 -1.81547 2.71493 0
M  V30 6522 H 595.534 0.0938054 3.6648 0
M  V30 6523 H 595.182 -2.2349 4.50623 0
M  V30 6524 H 594.882 -1.03121 5.78481 0
M  V30 6525 H 596.406 -1.96363 5.78164 0
M  V30 6526 H 597.82 0.307089 5.72477 0
M  V30 6527 H 596.217 1.07784 5.90341 0
M  V30 6528 H 597.287 1.58316 4.58327 0
M  V30 6529 N 598.631 -1.53133 0.372548 0
M  V30 6530 C 599.581 -2.22733 -0.487218 0
M  V30 6531 C 600.565 -1.22506 -1.04312 0
M  V30 6532 O 601.757 -1.47923 -0.972005 0
M  V30 6533 C 598.886 -3.02524 -1.62278 0
M  V30 6534 C 597.972 -4.10133 -1.07943 0
M  V30 6535 N 598.363 -5.05133 -0.259629 0
M  V30 6536 C 596.661 -4.24964 -1.35356 0
M  V30 6537 C 597.362 -5.81687 0.0386656 0
M  V30 6538 N 596.338 -5.40699 -0.560827 0
M  V30 6539 H 600.14 -2.93538 0.145853 0
M  V30 6540 H 597.654 -1.61389 0.180938 0
M  V30 6541 H 599.651 -3.50909 -2.25096 0
M  V30 6542 H 598.311 -2.33252 -2.25884 0
M  V30 6543 H 599.322 -5.178 0.101746 0
M  V30 6544 H 595.999 -3.66919 -1.9919 0
M  V30 6545 H 597.389 -6.68224 0.701841 0
M  V30 6546 N 600.109 -0.101901 -1.5727 0
M  V30 6547 C 601.358 0.559922 -1.93772 0
M  V30 6548 C 601.671 1.68913 -0.98629 0
M  V30 6549 O 602.877 2.41256 -1.24529 0
M  V30 6550 C 601.333 1.04739 -3.44322 0
M  V30 6551 C 600.941 -0.05243 -4.47969 0
M  V30 6552 C 602.685 1.68157 -3.89774 0
M  V30 6553 C 600.592 0.450781 -5.8968 0
M  V30 6554 H 599.522 0.212931 -0.723309 0
M  V30 6555 H 602.173 -0.179001 -1.82625 0
M  V30 6556 H 600.555 1.84021 -3.50645 0
M  V30 6557 H 601.729 -0.828157 -4.53297 0
M  V30 6558 H 600.044 -0.592202 -4.12167 0
M  V30 6559 H 602.641 2.0689 -4.93052 0
M  V30 6560 H 602.984 2.55338 -3.28798 0
M  V30 6561 H 603.517 0.954453 -3.8618 0
M  V30 6562 H 600.256 -0.38458 -6.54371 0
M  V30 6563 H 599.776 1.19336 -5.87809 0
M  V30 6564 H 601.455 0.917555 -6.40461 0
M  V30 6565 N 601.587 1.56661 0.17182 0
M  V30 6566 C 602.519 1.92934 1.2373 0
M  V30 6567 C 603.532 0.822385 1.40502 0
M  V30 6568 O 604.721 1.10083 1.40514 0
M  V30 6569 C 601.821 2.16651 2.60607 0
M  V30 6570 C 600.994 3.47878 2.6514 0
M  V30 6571 C 600.053 3.60429 3.83377 0
M  V30 6572 O 599.079 4.33051 3.69398 0
M  V30 6573 N 600.281 2.95241 4.99813 0
M  V30 6574 H 603.046 2.84931 0.929205 0
M  V30 6575 H 600.607 1.5781 0.361588 0
M  V30 6576 H 602.599 2.22312 3.38171 0
M  V30 6577 H 601.169 1.3104 2.83809 0
M  V30 6578 H 600.389 3.53879 1.73675 0
M  V30 6579 H 601.677 4.34232 2.6518 0
M  V30 6580 H 601.075 2.3611 5.14071 0
M  V30 6581 H 599.632 3.06499 5.75241 0
M  V30 6582 N 603.065 -0.440357 1.51323 0
M  V30 6583 C 603.998 -1.55414 1.67098 0
M  V30 6584 C 604.976 -1.54108 0.518599 0
M  V30 6585 O 606.16 -1.7328 0.742054 0
M  V30 6586 C 603.287 -2.93996 1.68179 0
M  V30 6587 C 602.333 -3.13338 2.89347 0
M  V30 6588 S 603.166 -2.89957 4.50206 0
M  V30 6589 C 604.322 -4.30826 4.54027 0
M  V30 6590 H 604.555 -1.41798 2.61306 0
M  V30 6591 H 602.088 -0.629841 1.40969 0
M  V30 6592 H 604.046 -3.73878 1.69487 0
M  V30 6593 H 602.707 -3.04976 0.751542 0
M  V30 6594 H 601.9 -4.14652 2.86495 0
M  V30 6595 H 601.502 -2.41276 2.85766 0
M  V30 6596 H 603.794 -5.23977 4.29481 0
M  V30 6597 H 604.737 -4.38712 5.55822 0
M  V30 6598 H 605.145 -4.1434 3.83384 0
M  V30 6599 N 604.543 -1.41418 -0.695603 0
M  V30 6600 C 605.491 -1.43467 -1.83084 0
M  V30 6601 C 606.485 -0.312719 -1.66489 0
M  V30 6602 O 607.691 -0.484744 -1.7335 0
M  V30 6603 H 604.066 -0.448891 -0.603325 0
M  V30 6604 H 606.037 -2.39144 -1.78473 0
M  V30 6605 C 604.786 -1.3337 -3.21104 0
M  V30 6606 H 604.109 -2.18989 -3.3449 0
M  V30 6607 H 605.549 -1.38865 -4.00615 0
M  V30 6608 C 604.008 -0.0460484 -3.36869 0
M  V30 6609 O 604.538 0.909258 -3.91274 0
M  V30 6610 N 602.744 0.0300222 -2.90584 0
M  V30 6611 H 602.291 -0.748129 -2.46497 0
M  V30 6612 H 602.249 0.890991 -3.01511 0
M  V30 6613 N 606.021 0.929856 -1.27246 0
M  V30 6614 C 607.298 1.65544 -1.04186 0
M  V30 6615 C 607.678 2.06796 0.424097 0
M  V30 6616 O 607.026 1.80053 1.40688 0
M  V30 6617 C 607.236 2.85912 -2.00138 0
M  V30 6618 C 608.584 3.57305 -2.29387 0
M  V30 6619 O 609.608 2.96036 -1.98094 0
M  V30 6620 O 608.467 4.67688 -2.82719 0
M  V30 6621 H 605.561 0.725473 -0.397011 0
M  V30 6622 H 608.107 0.980583 -1.38501 0
M  V30 6623 H 606.879 2.52403 -2.99013 0
M  V30 6624 H 606.502 3.61118 -1.66371 0
M  V30 6625 N 607.499 1.09233 1.13605 0
M  V30 6626 C 608.745 0.828385 1.8511 0
M  V30 6627 C 609.078 -0.64437 1.83198 0
M  V30 6628 O 608.353 -1.47428 1.26867 0
M  V30 6629 C 608.636 1.36167 3.33363 0
M  V30 6630 C 608.489 2.90038 3.438 0
M  V30 6631 C 609.808 0.993819 4.28732 0
M  V30 6632 H 606.927 0.30239 0.672108 0
M  V30 6633 H 609.569 1.35339 1.33355 0
M  V30 6634 H 607.719 0.9151 3.77569 0
M  V30 6635 H 609.391 3.43128 3.08319 0
M  V30 6636 H 607.634 3.27271 2.84739 0
M  V30 6637 H 608.305 3.22428 4.48045 0
M  V30 6638 H 610.781 1.37893 3.92587 0
M  V30 6639 H 609.657 1.39403 5.30903 0
M  V30 6640 H 609.918 -0.0982206 4.41991 0
M  V30 6641 N 608.977 -1.30795 0.87923 0
M  V30 6642 C 610.226 -1.95636 0.490875 0
M  V30 6643 C 610.539 -1.70214 -0.963674 0
M  V30 6644 O 611.745 -2.28991 -1.45861 0
M  V30 6645 C 610.201 -3.50271 0.826929 0
M  V30 6646 C 609.809 -3.84521 2.29886 0
M  V30 6647 C 611.553 -4.21456 0.507494 0
M  V30 6648 C 609.46 -5.32309 2.57685 0
M  V30 6649 H 608.39 -0.732238 0.179841 0
M  V30 6650 H 611.041 -1.48829 1.07341 0
M  V30 6651 H 609.423 -3.9562 0.173542 0
M  V30 6652 H 610.597 -3.50102 2.99609 0
M  V30 6653 H 608.912 -3.26425 2.58526 0
M  V30 6654 H 611.509 -5.30199 0.692293 0
M  V30 6655 H 611.852 -4.12614 -0.552718 0
M  V30 6656 H 612.385 -3.81772 1.11782 0
M  V30 6657 H 609.124 -5.46195 3.62424 0
M  V30 6658 H 608.644 -5.68048 1.92566 0
M  V30 6659 H 610.323 -5.99678 2.42889 0
M  V30 6660 N 610.455 -0.639598 -1.44038 0
M  V30 6661 C 611.683 -0.154811 -2.0632 0
M  V30 6662 C 612.098 1.17406 -1.47856 0
M  V30 6663 O 611.455 1.72193 -0.604638 0
M  V30 6664 C 611.506 -0.0429958 -3.61474 0
M  V30 6665 O 611.227 -1.31932 -4.17763 0
M  V30 6666 C 612.728 0.469486 -4.40807 0
M  V30 6667 H 609.948 -0.0835862 -0.665773 0
M  V30 6668 H 612.492 -0.876397 -1.84769 0
M  V30 6669 H 610.647 0.629075 -3.82258 0
M  V30 6670 H 611.061 -1.16965 -5.11292 0
M  V30 6671 H 612.535 0.496712 -5.49761 0
M  V30 6672 H 613.012 1.49819 -4.12857 0
M  V30 6673 H 613.618 -0.169624 -4.24962 0
M  V30 6674 N 611.933 1.52934 -0.380664 0
M  V30 6675 C 613.179 2.01765 0.20458 0
M  V30 6676 C 613.512 1.26696 1.47179 0
M  V30 6677 O 612.787 0.364936 1.91046 0
M  V30 6678 C 613.07 3.56869 0.481269 0
M  V30 6679 C 612.923 4.42617 -0.800629 0
M  V30 6680 C 614.242 4.2121 1.27554 0
M  V30 6681 H 611.361 0.733388 0.0728803 0
M  V30 6682 H 614.003 1.83068 -0.50853 0
M  V30 6683 H 612.153 3.72932 1.08875 0
M  V30 6684 H 613.825 4.38323 -1.43773 0
M  V30 6685 H 612.068 4.09977 -1.4178 0
M  V30 6686 H 612.739 5.49134 -0.561791 0
M  V30 6687 H 615.215 4.09072 0.761514 0
M  V30 6688 H 614.091 5.29732 1.43788 0
M  V30 6689 H 614.352 3.78269 2.28833 0
M  V30 6690 N 613.412 0.11024 1.57214 0
M  V30 6691 C 614.661 -0.549638 1.94067 0
M  V30 6692 C 614.974 -1.68388 0.995234 0
M  V30 6693 O 616.18 -2.40593 1.25807 0
M  V30 6694 C 614.636 -1.02912 3.44873 0
M  V30 6695 C 614.244 0.0761861 4.47935 0
M  V30 6696 C 615.988 -1.66087 3.9066 0
M  V30 6697 C 613.895 -0.419502 5.8991 0
M  V30 6698 H 612.825 -0.209092 0.724428 0
M  V30 6699 H 615.476 0.188683 1.82527 0
M  V30 6700 H 613.858 -1.82159 3.51616 0
M  V30 6701 H 615.032 0.852185 4.52851 0
M  V30 6702 H 613.347 0.614052 4.11847 0
M  V30 6703 H 615.944 -2.04272 4.94143 0
M  V30 6704 H 616.287 -2.53591 3.30148 0
M  V30 6705 H 616.82 -0.933959 3.86681 0
M  V30 6706 H 613.559 0.419277 6.54158 0
M  V30 6707 H 613.079 -1.16217 5.88433 0
M  V30 6708 H 614.758 -0.883577 6.40938 0
M  V30 6709 N 614.89 -1.56749 -0.16351 0
M  V30 6710 C 615.8 -2.00255 -1.2221 0
M  V30 6711 C 616.816 -0.915194 -1.47987 0
M  V30 6712 O 617.992 -1.22342 -1.59982 0
M  V30 6713 C 615.057 -2.36035 -2.53946 0
M  V30 6714 C 614.118 -3.58637 -2.35962 0
M  V30 6715 C 613.351 -3.92701 -3.61416 0
M  V30 6716 O 613.574 -3.27632 -4.66919 0
M  V30 6717 O 612.508 -4.86019 -3.55062 0
M  V30 6718 H 616.334 -2.90586 -0.882794 0
M  V30 6719 H 613.919 -1.44721 -0.370978 0
M  V30 6720 H 615.801 -2.59982 -3.31643 0
M  V30 6721 H 614.476 -1.48863 -2.8744 0
M  V30 6722 H 613.383 -3.39898 -1.5627 0
M  V30 6723 H 614.716 -4.46374 -2.0739 0
M  V30 6724 N 616.368 0.432326 -1.51554 0
M  V30 6725 C 617.616 1.17901 -1.64146 0
M  V30 6726 C 617.937 1.91604 -0.362367 0
M  V30 6727 O 617.207 1.85764 0.621968 0
M  V30 6728 H 615.787 0.438206 -0.604966 0
M  V30 6729 H 618.449 0.495172 -1.88505 0
M  V30 6730 H 617.545 1.90584 -2.47152 0
M  V30 6731 N 617.846 1.41785 0.688094 0
M  V30 6732 C 619.262 1.24419 0.999608 0
M  V30 6733 C 619.462 0.138868 2.01021 0
M  V30 6734 O 618.518 -0.494283 2.47615 0
M  V30 6735 C 619.831 2.59625 1.51709 0
M  V30 6736 C 621.379 2.66869 1.63554 0
M  V30 6737 C 621.854 4.0241 2.18702 0
M  V30 6738 N 623.345 4.04295 2.26053 0
M  V30 6739 C 624.08 5.05977 2.69768 0
M  V30 6740 N 623.576 6.18047 3.13033 0
M  V30 6741 N 625.369 4.93336 2.69398 0
M  V30 6742 H 617.52 2.12392 0.0187427 0
M  V30 6743 H 619.783 0.945347 0.0708673 0
M  V30 6744 H 619.489 3.41297 0.849059 0
M  V30 6745 H 619.363 2.82628 2.49803 0
M  V30 6746 H 621.75 1.8555 2.29467 0
M  V30 6747 H 621.831 2.47668 0.639857 0
M  V30 6748 H 621.475 4.8418 1.53402 0
M  V30 6749 H 621.405 4.18955 3.19037 0
M  V30 6750 H 623.896 3.23383 1.9553 0
M  V30 6751 H 624.209 6.91498 3.45038 0
M  V30 6752 H 622.554 6.21572 3.10923 0
M  V30 6753 H 625.745 4.04865 2.34952 0
M  V30 6754 H 625.918 5.72717 3.03148 0
M  V30 6755 N 619.324 -0.923095 1.27737 0
M  V30 6756 C 620.287 -2.00587 1.10894 0
M  V30 6757 C 621.287 -1.60718 0.0514927 0
M  V30 6758 O 622.477 -1.71658 0.296481 0
M  V30 6759 C 619.609 -3.33829 0.690717 0
M  V30 6760 H 620.802 -2.16959 2.07048 0
M  V30 6761 H 618.355 -1.10451 1.1059 0
M  V30 6762 H 619.09 -3.23157 -0.272 0
M  V30 6763 H 618.875 -3.64125 1.45448 0
M  V30 6764 H 620.365 -4.13336 0.595252 0
M  V30 6765 N 620.802 -1.09834 -1.13024 0
M  V30 6766 C 621.712 -0.753731 -2.22162 0
M  V30 6767 C 622.728 0.246105 -1.72251 0
M  V30 6768 O 623.904 0.0864051 -2.01215 0
M  V30 6769 C 620.969 -0.183958 -3.46212 0
M  V30 6770 C 620.03 -1.24028 -4.10993 0
M  V30 6771 C 619.263 -0.697597 -5.29121 0
M  V30 6772 O 619.486 0.478092 -5.68393 0
M  V30 6773 O 618.42 -1.4546 -5.84059 0
M  V30 6774 H 622.246 -1.66456 -2.5402 0
M  V30 6775 H 619.831 -0.873026 -1.21238 0
M  V30 6776 H 621.713 0.130257 -4.21199 0
M  V30 6777 H 620.388 0.699823 -3.16045 0
M  V30 6778 H 619.295 -1.60725 -3.37814 0
M  V30 6779 H 620.628 -2.09685 -4.45301 0
M  V30 6780 N 622.28 1.30327 -0.886154 0
M  V30 6781 C 623.228 2.30052 -0.343317 0
M  V30 6782 C 624.222 1.60212 0.550305 0
M  V30 6783 O 625.428 1.74674 0.434609 0
M  V30 6784 H 621.803 0.746306 -0.0923681 0
M  V30 6785 H 623.774 2.73294 -1.19804 0
M  V30 6786 C 622.523 3.45079 0.426107 0
M  V30 6787 H 621.846 3.99003 -0.25227 0
M  V30 6788 H 623.286 4.16931 0.771009 0
M  V30 6789 C 621.745 2.95195 1.62363 0
M  V30 6790 O 622.275 2.95323 2.723 0
M  V30 6791 N 620.481 2.51192 1.4612 0
M  V30 6792 H 620.028 2.51286 0.566832 0
M  V30 6793 H 619.986 2.18173 2.2638 0
M  V30 6794 N 623.758 0.647228 1.43697 0
M  V30 6795 C 624.988 0.16551 2.05936 0
M  V30 6796 C 625.396 -1.17164 1.48557 0
M  V30 6797 O 624.739 -1.73307 0.60914 0
M  V30 6798 C 624.801 -0.00648082 3.59499 0
M  V30 6799 C 624.465 1.25503 4.39429 0
M  V30 6800 C 625.462 2.18241 4.71876 0
M  V30 6801 C 623.147 1.49494 4.79538 0
M  V30 6802 C 625.141 3.33268 5.43333 0
M  V30 6803 C 622.828 2.64815 5.50742 0
M  V30 6804 C 623.826 3.56528 5.82561 0
M  V30 6805 O 623.514 4.69836 6.52311 0
M  V30 6806 H 623.246 0.0844124 0.670709 0
M  V30 6807 H 625.8 0.88638 1.8529 0
M  V30 6808 H 624.03 -0.782661 3.78697 0
M  V30 6809 H 625.719 -0.444794 4.03456 0
M  V30 6810 H 626.485 2.00946 4.41413 0
M  V30 6811 H 622.364 0.789912 4.54182 0
M  V30 6812 H 625.908 4.04874 5.68087 0
M  V30 6813 H 621.805 2.82047 5.8062 0
M  V30 6814 H 622.573 4.69024 6.70789 0
M  V30 6815 N 625.236 -1.5273 0.388769 0
M  V30 6816 C 626.482 -2.02545 -0.186351 0
M  V30 6817 C 626.837 -1.27017 -1.44514 0
M  V30 6818 O 626.13 -0.361948 -1.8815 0
M  V30 6819 C 626.324 -3.53765 -0.508445 0
M  V30 6820 C 626.153 -4.43938 0.71758 0
M  V30 6821 C 624.923 -4.89933 1.23668 0
M  V30 6822 C 627.121 -4.89113 1.58974 0
M  V30 6823 N 625.103 -5.64176 2.42031 0
M  V30 6824 C 626.474 -5.61931 2.61979 0
M  V30 6825 C 628.529 -4.71155 1.60989 0
M  V30 6826 C 627.232 -6.18698 3.66886 0
M  V30 6827 C 629.258 -5.28804 2.64803 0
M  V30 6828 C 628.62 -6.01527 3.6653 0
M  V30 6829 H 624.719 -0.781413 -0.0302921 0
M  V30 6830 H 627.303 -1.87104 0.538539 0
M  V30 6831 H 625.474 -3.6932 -1.20239 0
M  V30 6832 H 627.206 -3.9028 -1.07067 0
M  V30 6833 H 623.961 -4.66833 0.797763 0
M  V30 6834 H 624.385 -6.05949 3.01919 0
M  V30 6835 H 629.027 -4.14435 0.836881 0
M  V30 6836 H 626.745 -6.74501 4.45055 0
M  V30 6837 H 630.331 -5.1679 2.67245 0
M  V30 6838 H 629.211 -6.45339 4.45542 0
M  V30 6839 N 626.714 -0.118576 -1.57153 0
M  V30 6840 C 627.96 0.534078 -1.96263 0
M  V30 6841 C 628.315 1.64316 -1.0009 0
M  V30 6842 O 627.608 1.91575 -0.0308582 0
M  V30 6843 C 627.802 1.11303 -3.39627 0
M  V30 6844 C 627.631 0.0615624 -4.49658 0
M  V30 6845 C 626.401 -0.370103 -5.03943 0
M  V30 6846 C 628.599 -0.719249 -5.09246 0
M  V30 6847 N 626.581 -1.40738 -5.9755 0
M  V30 6848 C 627.952 -1.60774 -5.98792 0
M  V30 6849 C 630.007 -0.770183 -4.91907 0
M  V30 6850 C 628.71 -2.54272 -6.72858 0
M  V30 6851 C 630.736 -1.69288 -5.66653 0
M  V30 6852 C 630.098 -2.56894 -6.55885 0
M  V30 6853 H 626.197 0.165072 -0.764379 0
M  V30 6854 H 628.781 -0.206596 -1.93601 0
M  V30 6855 H 626.952 1.82342 -3.42937 0
M  V30 6856 H 628.684 1.72996 -3.65861 0
M  V30 6857 H 625.439 0.0222121 -4.73595 0
M  V30 6858 H 625.863 -1.92493 -6.49057 0
M  V30 6859 H 630.505 -0.106999 -4.22665 0
M  V30 6860 H 628.223 -3.21605 -7.41347 0
M  V30 6861 H 631.809 -1.73772 -5.55243 0
M  V30 6862 H 630.689 -3.27131 -7.1271 0
M  V30 6863 N 628.193 1.56834 0.155195 0
M  V30 6864 C 629.609 1.51315 0.50755 0
M  V30 6865 C 629.809 0.825614 1.83809 0
M  V30 6866 O 628.865 0.39271 2.49427 0
M  V30 6867 C 630.178 2.96074 0.52542 0
M  V30 6868 C 631.726 3.06968 0.611505 0
M  V30 6869 C 632.201 4.53218 0.660115 0
M  V30 6870 N 633.692 4.5753 0.722564 0
M  V30 6871 C 634.427 5.68056 0.781023 0
M  V30 6872 N 633.923 6.88173 0.799327 0
M  V30 6873 N 635.716 5.56068 0.821278 0
M  V30 6874 H 627.867 1.9993 -0.717063 0
M  V30 6875 H 630.13 0.911507 -0.260496 0
M  V30 6876 H 629.836 3.49599 -0.383875 0
M  V30 6877 H 629.71 3.51587 1.36624 0
M  V30 6878 H 632.097 2.53468 1.51122 0
M  V30 6879 H 632.178 2.54513 -0.256306 0
M  V30 6880 H 631.822 5.07354 -0.23541 0
M  V30 6881 H 631.752 5.03447 1.5443 0
M  V30 6882 H 634.243 3.71054 0.716049 0
M  V30 6883 H 634.556 7.6816 0.845553 0
M  V30 6884 H 632.901 6.90751 0.767337 0
M  V30 6885 H 636.092 4.61142 0.804091 0
M  V30 6886 H 636.265 6.42223 0.863372 0
M  V30 6887 N 629.671 -0.424282 1.51781 0
M  V30 6888 C 630.919 -1.17028 1.64769 0
M  V30 6889 C 631.24 -1.91409 0.372523 0
M  V30 6890 O 630.51 -1.86091 -0.612108 0
M  V30 6891 H 629.09 -0.434992 0.607282 0
M  V30 6892 H 631.752 -0.485169 1.88765 0
M  V30 6893 H 630.848 -1.8927 2.4816 0
M  V30 6894 N 631.149 -1.42148 -0.680565 0
M  V30 6895 C 632.081 -1.41119 -1.80605 0
M  V30 6896 C 633.094 -0.311099 -1.598 0
M  V30 6897 O 634.283 -0.573813 -1.69026 0
M  V30 6898 C 631.383 -1.18204 -3.17618 0
M  V30 6899 C 630.556 -2.40537 -3.65322 0
M  V30 6900 C 629.615 -2.13254 -4.8105 0
M  V30 6901 O 628.641 -2.8641 -4.91892 0
M  V30 6902 N 629.843 -1.13208 -5.69354 0
M  V30 6903 H 632.608 -2.38128 -1.81975 0
M  V30 6904 H 630.169 -1.36953 -0.863446 0
M  V30 6905 H 632.161 -0.97878 -3.92686 0
M  V30 6906 H 630.731 -0.29738 -3.11182 0
M  V30 6907 H 629.951 -2.76468 -2.80996 0
M  V30 6908 H 631.239 -3.22012 -3.93936 0
M  V30 6909 H 630.637 -0.526893 -5.63241 0
M  V30 6910 H 629.194 -0.988699 -6.44258 0
M  V30 6911 N 632.627 0.916307 -1.28225 0
M  V30 6912 C 633.575 2.03977 -1.11786 0
M  V30 6913 C 634.569 1.69358 -0.0378265 0
M  V30 6914 O 635.775 1.78925 -0.196405 0
M  V30 6915 H 632.15 0.66829 -0.344809 0
M  V30 6916 H 634.121 2.14985 -2.06939 0
M  V30 6917 C 632.87 3.38518 -0.7938 0
M  V30 6918 H 632.193 3.65649 -1.61682 0
M  V30 6919 H 633.633 4.17864 -0.718719 0
M  V30 6920 C 632.092 3.33134 0.502353 0
M  V30 6921 O 632.622 3.71281 1.53341 0
M  V30 6922 N 630.828 2.86229 0.502147 0
M  V30 6923 H 630.375 2.55382 -0.337338 0
M  V30 6924 H 630.333 2.83009 1.36942 0
M  V30 6925 N 634.105 1.10431 1.1244 0
M  V30 6926 C 635.333 0.868872 1.87772 0
M  V30 6927 C 635.748 -0.580645 1.7965 0
M  V30 6928 O 635.105 -1.40031 1.17036 0
M  V30 6929 C 635.156 1.30855 3.36986 0
M  V30 6930 O 634.877 2.70123 3.44914 0
M  V30 6931 C 636.378 1.107 4.29256 0
M  V30 6932 H 633.598 0.311868 0.59412 0
M  V30 6933 H 636.142 1.46897 1.42273 0
M  V30 6934 H 634.297 0.752126 3.80029 0
M  V30 6935 H 634.711 2.88923 4.37748 0
M  V30 6936 H 636.185 1.46378 5.32238 0
M  V30 6937 H 636.662 0.0456228 4.39176 0
M  V30 6938 H 637.268 1.64988 3.91994 0
M  V30 6939 N 635.583 -1.29855 0.893053 0
M  V30 6940 C 636.999 -1.48366 0.588199 0
M  V30 6941 C 637.199 -1.81654 -0.872018 0
M  V30 6942 O 636.255 -1.909 -1.65268 0
M  V30 6943 C 637.568 -2.60136 1.5083 0
M  V30 6944 C 639.116 -2.74014 1.51279 0
M  V30 6945 C 639.591 -3.88905 2.41902 0
M  V30 6946 N 641.082 -3.96228 2.39911 0
M  V30 6947 C 641.817 -4.84458 3.06738 0
M  V30 6948 N 641.313 -5.77426 3.8282 0
M  V30 6949 N 643.106 -4.77894 2.95929 0
M  V30 6950 H 635.257 -1.06522 1.83757 0
M  V30 6951 H 637.52 -0.528495 0.787018 0
M  V30 6952 H 637.226 -2.42383 2.54839 0
M  V30 6953 H 637.1 -3.56793 1.22388 0
M  V30 6954 H 639.487 -2.91167 0.480179 0
M  V30 6955 H 639.568 -1.77952 1.83757 0
M  V30 6956 H 639.212 -3.72508 3.45253 0
M  V30 6957 H 639.142 -4.84322 2.06737 0
M  V30 6958 H 641.633 -3.29728 1.84629 0
M  V30 6959 H 641.946 -6.41529 4.30883 0
M  V30 6960 H 640.291 -5.77332 3.86927 0
M  V30 6961 H 643.482 -4.04248 2.36012 0
M  V30 6962 H 643.655 -5.46444 3.48286 0
M  V30 6963 N 637.061 -0.65484 -1.43351 0
M  V30 6964 C 638.289 -0.176685 -2.06144 0
M  V30 6965 C 638.704 1.15831 -1.49093 0
M  V30 6966 O 638.061 1.71542 -0.622868 0
M  V30 6967 C 638.112 -0.0813326 -3.61408 0
M  V30 6968 O 637.833 -1.36355 -4.1634 0
M  V30 6969 C 639.334 0.422706 -4.4128 0
M  V30 6970 H 636.554 -0.0906429 -0.66485 0
M  V30 6971 H 639.098 -0.895945 -1.83829 0
M  V30 6972 H 637.253 0.588496 -3.82904 0
M  V30 6973 H 637.667 -1.22381 -5.10023 0
M  V30 6974 H 639.141 0.438375 -5.50257 0
M  V30 6975 H 639.618 1.45432 -4.14423 0
M  V30 6976 H 640.224 -0.214687 -4.24758 0
M  V30 6977 N 638.539 1.52521 -0.396863 0
M  V30 6978 C 639.469 2.29582 0.425941 0
M  V30 6979 C 640.45 1.33281 1.05689 0
M  V30 6980 O 641.635 1.62181 1.06823 0
M  V30 6981 C 638.765 3.10821 1.54943 0
M  V30 6982 C 637.719 4.15069 1.04413 0
M  V30 6983 C 637.045 4.84578 2.26028 0
M  V30 6984 C 638.345 5.22191 0.106767 0
M  V30 6985 H 640.039 2.98612 -0.217045 0
M  V30 6986 H 637.585 1.43611 -0.105826 0
M  V30 6987 H 639.538 3.63492 2.13193 0
M  V30 6988 H 638.262 2.39538 2.22011 0
M  V30 6989 H 636.921 3.63389 0.484118 0
M  V30 6990 H 636.569 4.09835 2.91623 0
M  V30 6991 H 636.269 5.55043 1.92876 0
M  V30 6992 H 637.793 5.40056 2.84906 0
M  V30 6993 H 639.207 5.70176 0.597685 0
M  V30 6994 H 637.604 5.99947 -0.135352 0
M  V30 6995 H 638.674 4.77531 -0.842134 0
M  V30 6996 N 640.017 0.126909 1.57088 0
M  V30 6997 C 641.257 -0.53216 1.97351 0
M  V30 6998 C 641.621 -1.63342 1.00913 0
M  V30 6999 O 642.822 -2.35194 1.30144 0
M  V30 7000 C 641.093 -1.04385 3.41817 0
M  V30 7001 S 642.652 -1.71033 4.04095 0
M  V30 7002 H 639.47 -0.172724 0.689701 0
M  V30 7003 H 642.072 0.213865 1.94327 0
M  V30 7004 H 640.776 -0.231289 4.09748 0
M  V30 7005 H 640.307 -1.82496 3.48509 0
M  V30 7006 H 642.322 -2.99656 3.95501 0
M  V30 7007 N 641.495 -1.56914 -0.146875 0
M  V30 7008 C 642.741 -1.83628 -0.860741 0
M  V30 7009 C 643.074 -0.708528 -1.80813 0
M  V30 7010 O 642.349 0.287838 -1.92358 0
M  V30 7011 C 642.632 -3.20836 -1.63511 0
M  V30 7012 C 642.485 -4.44174 -0.709199 0
M  V30 7013 C 643.804 -3.55268 -2.59756 0
M  V30 7014 H 640.923 -0.667949 -0.311468 0
M  V30 7015 H 643.565 -1.89582 -0.125936 0
M  V30 7016 H 641.715 -3.15891 -2.26153 0
M  V30 7017 H 643.387 -4.61205 -0.0937781 0
M  V30 7018 H 641.63 -4.33796 -0.0187856 0
M  V30 7019 H 642.301 -5.36785 -1.28707 0
M  V30 7020 H 644.777 -3.60824 -2.07232 0
M  V30 7021 H 643.653 -4.52303 -3.10987 0
M  V30 7022 H 643.914 -2.81231 -3.41118 0
M  V30 7023 N 642.974 0.416227 -1.52004 0
M  V30 7024 C 644.222 1.16153 -1.65387 0
M  V30 7025 C 644.543 1.91208 -0.382669 0
M  V30 7026 O 643.813 1.86413 0.602231 0
M  V30 7027 H 642.393 0.431765 -0.60958 0
M  V30 7028 H 645.055 0.475151 -1.89019 0
M  V30 7029 H 644.151 1.87952 -2.4916 0
M  V30 7030 N 644.452 1.42507 0.673017 0
M  V30 7031 C 645.863 1.38347 1.25367 0
M  V30 7032 C 646.214 0.0776327 1.96046 0
M  V30 7033 O 645.339 -0.823571 2.00116 0
M  V30 7034 C 645.934 2.506 2.28002 0
M  V30 7035 C 644.493 2.49767 2.81591 0
M  V30 7036 C 643.64 2.293 1.55938 0
M  V30 7037 H 646.591 1.51695 0.466288 0
M  V30 7038 H 646.612 2.20953 3.09774 0
M  V30 7039 H 646.124 3.45627 1.76532 0
M  V30 7040 H 644.225 1.58563 3.37177 0
M  V30 7041 H 644.338 3.46867 3.30485 0
M  V30 7042 H 642.702 1.77594 1.82572 0
M  V30 7043 H 643.485 3.26385 1.06431 0
M  V30 7044 N 645.93 -0.909495 1.28709 0
M  V30 7045 C 647.177 -1.65905 1.16111 0
M  V30 7046 C 647.505 -1.92334 -0.289436 0
M  V30 7047 O 646.76 -1.52495 -1.22653 0
M  V30 7048 C 647.059 -3.02117 1.90945 0
M  V30 7049 C 646.725 -2.95332 3.40719 0
M  V30 7050 C 645.387 -2.93189 3.81567 0
M  V30 7051 C 647.739 -2.85264 4.36204 0
M  V30 7052 C 645.067 -2.78784 5.16233 0
M  V30 7053 C 647.419 -2.724 5.70948 0
M  V30 7054 C 646.083 -2.68617 6.11066 0
M  V30 7055 H 645.353 -0.60709 0.42488 0
M  V30 7056 H 648 -1.05932 1.59533 0
M  V30 7057 H 646.305 -3.65901 1.40085 0
M  V30 7058 H 648.002 -3.59026 1.7861 0
M  V30 7059 H 644.592 -2.97797 3.08245 0
M  V30 7060 H 648.776 -2.86005 4.05605 0
M  V30 7061 H 644.032 -2.74254 5.46438 0
M  V30 7062 H 648.206 -2.63579 6.44592 0
M  V30 7063 H 645.833 -2.57213 7.15364 0
M  V30 7064 N 647.408 -1.11026 -1.11852 0
M  V30 7065 C 648.819 -0.873203 -1.65021 0
M  V30 7066 C 649.17 0.595364 -1.86949 0
M  V30 7067 O 648.295 1.45645 -1.60051 0
M  V30 7068 C 648.89 -1.57859 -2.99777 0
M  V30 7069 C 647.449 -1.38807 -3.49871 0
M  V30 7070 C 646.596 -1.62403 -2.24768 0
M  V30 7071 H 649.547 -1.26712 -0.955503 0
M  V30 7072 H 649.568 -1.02111 -3.66543 0
M  V30 7073 H 649.08 -2.6474 -2.83786 0
M  V30 7074 H 647.181 -0.341163 -3.71035 0
M  V30 7075 H 647.294 -2.13421 -4.28938 0
M  V30 7076 H 645.658 -1.04714 -2.32179 0
M  V30 7077 H 646.441 -2.70549 -2.11324 0
M  V30 7078 N 648.886 1.2938 -0.899927 0
M  V30 7079 C 650.302 1.48052 -0.596059 0
M  V30 7080 C 650.502 1.82114 0.862372 0
M  V30 7081 O 649.558 1.91774 1.64253 0
M  V30 7082 C 650.871 2.59332 -1.52208 0
M  V30 7083 C 652.419 2.73208 -1.5273 0
M  V30 7084 C 652.894 3.87617 -2.43961 0
M  V30 7085 N 654.385 3.9495 -2.42009 0
M  V30 7086 C 655.12 4.82824 -3.09303 0
M  V30 7087 N 654.616 5.75387 -3.85877 0
M  V30 7088 N 656.409 4.76317 -2.98459 0
M  V30 7089 H 648.56 1.05546 -1.8432 0
M  V30 7090 H 650.823 0.524314 -0.78981 0
M  V30 7091 H 650.529 2.41029 -2.56121 0
M  V30 7092 H 650.403 3.56139 -1.24278 0
M  V30 7093 H 652.79 2.90908 -0.495614 0
M  V30 7094 H 652.871 1.76975 -1.84698 0
M  V30 7095 H 652.515 3.70672 -3.47224 0
M  V30 7096 H 652.445 4.83218 -2.09303 0
M  V30 7097 H 654.936 3.28744 -1.86375 0
M  V30 7098 H 655.249 6.39235 -4.34279 0
M  V30 7099 H 653.594 5.75272 -3.89984 0
M  V30 7100 H 656.785 4.0299 -2.38152 0
M  V30 7101 H 656.958 5.44589 -3.51179 0
M  V30 7102 N 650.364 0.662433 1.43002 0
M  V30 7103 C 651.312 -0.035345 2.32573 0
M  V30 7104 C 652.306 -0.803505 1.49131 0
M  V30 7105 O 653.512 -0.712865 1.65282 0
M  V30 7106 H 649.887 -0.0302194 0.751393 0
M  V30 7107 H 651.858 0.737686 2.89138 0
M  V30 7108 C 650.607 -0.981575 3.33557 0
M  V30 7109 H 649.93 -0.399914 3.97795 0
M  V30 7110 H 651.37 -1.43873 3.98844 0
M  V30 7111 C 649.829 -2.08204 2.64863 0
M  V30 7112 O 650.359 -3.16698 2.47113 0
M  V30 7113 N 648.565 -1.85022 2.24088 0
M  V30 7114 H 648.112 -0.967909 2.38724 0
M  V30 7115 H 648.07 -2.58845 1.78457 0
M  V30 7116 N 651.842 -1.52309 0.404946 0
M  V30 7117 C 653.088 -2.02065 -0.172455 0
M  V30 7118 C 653.421 -1.29022 -1.45145 0
M  V30 7119 O 652.696 -0.395284 -1.90441 0
M  V30 7120 C 652.979 -3.5759 -0.424433 0
M  V30 7121 C 652.832 -4.41287 0.870945 0
M  V30 7122 C 654.151 -4.23186 -1.20837 0
M  V30 7123 H 651.27 -0.734454 -0.0612035 0
M  V30 7124 H 653.912 -1.82236 0.53759 0
M  V30 7125 H 652.062 -3.74617 -1.02929 0
M  V30 7126 H 653.734 -4.3598 1.50729 0
M  V30 7127 H 651.977 -4.07669 1.48284 0
M  V30 7128 H 652.648 -5.48171 0.649083 0
M  V30 7129 H 655.124 -4.10232 -0.696338 0
M  V30 7130 H 654 -5.31953 -1.35343 0
M  V30 7131 H 654.261 -3.81862 -2.22786 0
M  V30 7132 N 653.32 -0.135238 -1.57019 0
M  V30 7133 C 654.566 0.519563 -1.96032 0
M  V30 7134 C 654.899 1.65284 -1.01955 0
M  V30 7135 O 654.174 1.94408 -0.059727 0
M  V30 7136 C 654.457 1.0369 -3.44848 0
M  V30 7137 C 654.31 -0.0940754 -4.49702 0
M  V30 7138 C 655.629 1.92254 -3.95887 0
M  V30 7139 H 652.748 0.18739 -0.712779 0
M  V30 7140 H 655.39 -0.214086 -1.8879 0
M  V30 7141 H 653.54 1.66209 -3.5115 0
M  V30 7142 H 655.212 -0.73 -4.55487 0
M  V30 7143 H 653.455 -0.754924 -4.27181 0
M  V30 7144 H 654.126 0.309419 -5.51132 0
M  V30 7145 H 656.602 1.39581 -3.9199 0
M  V30 7146 H 655.478 2.25364 -5.00502 0
M  V30 7147 H 655.739 2.85513 -3.37543 0
M  V30 7148 N 654.798 1.5699 0.138552 0
M  V30 7149 C 656.026 1.87976 0.864437 0
M  V30 7150 C 656.441 0.724372 1.74351 0
M  V30 7151 O 655.798 -0.305575 1.79924 0
M  V30 7152 C 655.849 3.18276 1.71414 0
M  V30 7153 O 655.57 4.29365 0.870487 0
M  V30 7154 C 657.071 3.62834 2.54688 0
M  V30 7155 H 654.291 0.622878 0.249528 0
M  V30 7156 H 656.835 2.04094 0.128805 0
M  V30 7157 H 654.99 3.03886 2.40274 0
M  V30 7158 H 655.404 5.03924 1.45466 0
M  V30 7159 H 656.878 4.5682 3.0987 0
M  V30 7160 H 657.355 2.88533 3.31127 0
M  V30 7161 H 657.961 3.79946 1.91105 0
M  V30 7162 N 656.276 -0.40816 1.52223 0
M  V30 7163 C 657.501 -1.18127 1.70472 0
M  V30 7164 C 657.926 -1.83491 0.41384 0
M  V30 7165 O 657.284 -1.70047 -0.628778 0
M  V30 7166 C 657.332 -2.21935 2.84213 0
M  V30 7167 O 656.436 -3.28099 2.4985 0
M  V30 7168 H 655.777 -0.344781 0.56747 0
M  V30 7169 H 658.307 -0.478328 1.9893 0
M  V30 7170 H 658.317 -2.66248 3.09153 0
M  V30 7171 H 656.992 -1.73744 3.7787 0
M  V30 7172 H 655.569 -2.89058 2.35584 0
M  V30 7173 N 657.755 -1.42862 -0.66545 0
M  V30 7174 C 659.001 -1.44043 -1.42757 0
M  V30 7175 C 659.334 -0.0599629 -1.94107 0
M  V30 7176 O 658.609 0.917286 -1.71511 0
M  V30 7177 C 658.892 -2.47266 -2.61786 0
M  V30 7178 C 658.745 -3.94539 -2.16007 0
M  V30 7179 C 660.064 -2.47365 -3.64003 0
M  V30 7180 H 657.183 -0.524506 -0.517748 0
M  V30 7181 H 659.825 -1.74335 -0.755466 0
M  V30 7182 H 657.975 -2.21565 -3.19126 0
M  V30 7183 H 659.647 -4.31254 -1.63762 0
M  V30 7184 H 657.89 -4.07957 -1.47491 0
M  V30 7185 H 658.561 -4.62357 -3.01546 0
M  V30 7186 H 661.037 -2.70243 -3.16399 0
M  V30 7187 H 659.913 -3.21552 -4.44854 0
M  V30 7188 H 660.174 -1.50299 -4.15767 0
M  V30 7189 N 659.233 0.902656 -1.29189 0
M  V30 7190 C 660.196 1.98797 -1.14071 0
M  V30 7191 C 661.196 1.60615 -0.0770549 0
M  V30 7192 O 662.386 1.71165 -0.323753 0
M  V30 7193 C 659.518 3.32688 -0.743739 0
M  V30 7194 H 660.711 2.13637 -2.10473 0
M  V30 7195 H 658.264 1.08678 -1.12334 0
M  V30 7196 H 658.999 3.23549 0.220554 0
M  V30 7197 H 658.784 3.61765 -1.51223 0
M  V30 7198 H 660.274 4.12337 -0.660935 0
M  V30 7199 N 660.711 1.11618 1.11262 0
M  V30 7200 C 661.959 0.864469 1.82678 0
M  V30 7201 C 662.28 -0.611564 1.85162 0
M  V30 7202 O 661.55 -1.44429 1.32352 0
M  V30 7203 H 660.13 0.316821 0.676486 0
M  V30 7204 H 662.792 1.40894 1.34666 0
M  V30 7205 H 661.888 1.23832 2.86482 0
M  V30 7206 N 662.189 -1.289 0.906776 0
M  V30 7207 C 663.119 -2.29932 0.406659 0
M  V30 7208 C 664.1 -1.6189 -0.522061 0
M  V30 7209 O 665.285 -1.8935 -0.431283 0
M  V30 7210 C 662.415 -3.45425 -0.360366 0
M  V30 7211 C 661.369 -4.25316 0.478574 0
M  V30 7212 C 660.695 -5.33076 -0.416373 0
M  V30 7213 C 661.995 -4.92739 1.7322 0
M  V30 7214 H 663.689 -2.72013 1.25097 0
M  V30 7215 H 661.235 -1.30768 0.602977 0
M  V30 7216 H 663.188 -4.15186 -0.721029 0
M  V30 7217 H 661.912 -3.02206 -1.23852 0
M  V30 7218 H 660.571 -3.57273 0.821662 0
M  V30 7219 H 660.219 -4.86101 -1.29287 0
M  V30 7220 H 659.919 -5.8743 0.141309 0
M  V30 7221 H 661.443 -6.05686 -0.773072 0
M  V30 7222 H 662.857 -5.54898 1.44086 0
M  V30 7223 H 661.254 -5.57057 2.23175 0
M  V30 7224 H 662.324 -4.17625 2.46408 0
M  V30 7225 N 663.667 -0.670007 -1.42649 0
M  V30 7226 C 664.892 -0.196955 -2.06463 0
M  V30 7227 C 665.317 1.1352 -1.49983 0
M  V30 7228 O 664.675 1.705 -0.616397 0
M  V30 7229 C 664.723 -0.137381 -3.60338 0
M  V30 7230 O 663.827 0.895523 -4.02559 0
M  V30 7231 H 663.168 -0.102579 -0.656029 0
M  V30 7232 H 665.698 -0.917669 -1.82866 0
M  V30 7233 H 665.708 0.0403625 -4.0798 0
M  V30 7234 H 664.383 -1.10977 -4.0082 0
M  V30 7235 H 662.96 0.689209 -3.66476 0
M  V30 7236 N 665.145 1.52092 -0.413018 0
M  V30 7237 C 666.108 2.25706 0.398687 0
M  V30 7238 C 667.108 1.28221 0.970368 0
M  V30 7239 O 668.298 1.52131 0.848635 0
M  V30 7240 C 665.43 3.03029 1.5616 0
M  V30 7241 H 666.623 2.98888 -0.246131 0
M  V30 7242 H 664.176 1.5542 -0.165622 0
M  V30 7243 H 664.911 2.34205 2.24317 0
M  V30 7244 H 664.696 3.74606 1.15812 0
M  V30 7245 H 666.186 3.58857 2.13569 0
M  V30 7246 N 666.623 0.143563 1.56945 0
M  V30 7247 C 667.555 -0.828353 2.13708 0
M  V30 7248 C 668.568 -1.21313 1.08568 0
M  V30 7249 O 669.757 -1.1578 1.35857 0
M  V30 7250 C 666.857 -2.12248 2.64204 0
M  V30 7251 C 666.03 -1.90561 3.93707 0
M  V30 7252 C 665.089 -3.03931 4.29549 0
M  V30 7253 O 664.115 -2.75772 4.97934 0
M  V30 7254 N 665.317 -4.31016 3.88852 0
M  V30 7255 H 668.082 -0.343242 2.97728 0
M  V30 7256 H 665.643 -0.0401152 1.6185 0
M  V30 7257 H 667.635 -2.87132 2.85197 0
M  V30 7258 H 666.205 -2.52033 1.84928 0
M  V30 7259 H 665.425 -0.997327 3.81375 0
M  V30 7260 H 666.713 -1.73405 4.78339 0
M  V30 7261 H 666.111 -4.56762 3.33743 0
M  V30 7262 H 664.668 -5.02691 4.14903 0
M  V30 7263 N 668.101 -1.57061 -0.130224 0
M  V30 7264 C 669.378 -1.75205 -0.869631 0
M  V30 7265 C 669.758 -0.716063 -1.98584 0
M  V30 7266 O 669.106 0.262032 -2.26993 0
M  V30 7267 C 669.316 -3.19835 -1.39666 0
M  V30 7268 C 670.664 -3.82011 -1.85345 0
M  V30 7269 O 671.688 -3.23368 -1.49371 0
M  V30 7270 O 670.547 -4.85064 -2.51744 0
M  V30 7271 H 667.641 -0.716977 -0.412157 0
M  V30 7272 H 670.187 -1.69311 -0.11484 0
M  V30 7273 H 668.959 -3.86745 -0.595288 0
M  V30 7274 H 668.582 -3.30222 -2.21448 0
M  V30 7275 N 669.579 0.400081 -1.52437 0
M  V30 7276 C 670.828 1.14332 -1.66166 0
M  V30 7277 C 671.141 1.91419 -0.402253 0
M  V30 7278 O 672.347 2.6824 -0.419487 0
M  V30 7279 C 670.803 2.08137 -2.9361 0
M  V30 7280 C 670.411 1.36524 -4.26691 0
M  V30 7281 C 672.155 2.82664 -3.16703 0
M  V30 7282 C 670.062 2.29031 -5.45251 0
M  V30 7283 H 668.992 0.430499 -0.61902 0
M  V30 7284 H 671.643 0.407017 -1.78929 0
M  V30 7285 H 670.025 2.85358 -2.74567 0
M  V30 7286 H 671.199 0.646061 -4.56249 0
M  V30 7287 H 669.514 0.74002 -4.09771 0
M  V30 7288 H 672.111 3.52037 -4.0246 0
M  V30 7289 H 672.454 3.46122 -2.31312 0
M  V30 7290 H 672.987 2.12541 -3.36261 0
M  V30 7291 H 669.726 1.70206 -6.33017 0
M  V30 7292 H 669.246 2.98896 -5.2002 0
M  V30 7293 H 670.925 2.89359 -5.78689 0
M  V30 7294 N 671.057 1.43213 0.657864 0
M  V30 7295 C 672.282 1.48227 1.45064 0
M  V30 7296 C 672.707 0.0999939 1.87834 0
M  V30 7297 O 672.065 -0.905269 1.57081 0
M  V30 7298 C 672.113 2.42931 2.6649 0
M  V30 7299 O 671.217 1.91237 3.6538 0
M  V30 7300 H 670.558 0.501551 0.435135 0
M  V30 7301 H 673.088 1.8808 0.805431 0
M  V30 7302 H 673.098 2.6008 3.1436 0
M  V30 7303 H 671.773 3.43348 2.34701 0
M  V30 7304 H 670.35 1.83726 3.24498 0
M  V30 7305 N 672.536 -0.895792 1.29666 0
M  V30 7306 C 673.468 -2.00563 1.10937 0
M  V30 7307 C 674.481 -1.62705 0.055734 0
M  V30 7308 O 675.67 -1.7595 0.300656 0
M  V30 7309 C 672.77 -3.32262 0.667448 0
M  V30 7310 C 671.943 -3.98625 1.80047 0
M  V30 7311 C 671.002 -5.08617 1.3489 0
M  V30 7312 O 670.028 -5.30837 2.05429 0
M  V30 7313 N 671.23 -5.80076 0.221937 0
M  V30 7314 H 673.995 -2.17184 2.06522 0
M  V30 7315 H 671.556 -1.06822 1.21658 0
M  V30 7316 H 673.548 -4.03196 0.348586 0
M  V30 7317 H 672.118 -3.11985 -0.196055 0
M  V30 7318 H 671.338 -3.21005 2.28801 0
M  V30 7319 H 672.626 -4.39704 2.56003 0
M  V30 7320 H 672.024 -5.64514 -0.366084 0
M  V30 7321 H 670.581 -6.51789 -0.0375346 0
M  V30 7322 N 674.014 -1.12206 -1.10668 0
M  V30 7323 C 675.425 -0.890657 -1.64086 0
M  V30 7324 C 675.776 0.575502 -1.8757 0
M  V30 7325 O 674.901 1.4394 -1.61587 0
M  V30 7326 C 675.496 -1.61029 -2.98085 0
M  V30 7327 C 674.055 -1.4251 -3.48379 0
M  V30 7328 C 673.202 -1.64778 -2.23033 0
M  V30 7329 H 676.153 -1.27718 -0.94201 0
M  V30 7330 H 676.174 -1.05993 -3.65439 0
M  V30 7331 H 675.686 -2.67735 -2.80962 0
M  V30 7332 H 673.787 -0.380497 -3.70652 0
M  V30 7333 H 673.9 -2.17959 -4.26651 0
M  V30 7334 H 672.264 -1.07171 -2.31055 0
M  V30 7335 H 673.047 -2.72776 -2.08443 0
M  V30 7336 N 675.492 1.28418 -0.913599 0
M  V30 7337 C 676.422 2.29713 -0.418847 0
M  V30 7338 C 677.403 1.62165 0.513469 0
M  V30 7339 O 678.588 1.89576 0.421235 0
M  V30 7340 C 675.718 3.45612 0.342042 0
M  V30 7341 C 674.672 4.25056 -0.501123 0
M  V30 7342 C 673.998 5.3329 0.388097 0
M  V30 7343 C 675.298 4.91814 -1.75831 0
M  V30 7344 H 676.992 2.71346 -1.26538 0
M  V30 7345 H 674.538 1.30446 -0.609903 0
M  V30 7346 H 676.491 4.15562 0.699 0
M  V30 7347 H 675.215 3.02858 1.22248 0
M  V30 7348 H 673.874 3.56833 -0.840598 0
M  V30 7349 H 673.522 4.8678 1.26707 0
M  V30 7350 H 673.222 5.87347 -0.172459 0
M  V30 7351 H 674.746 6.06088 0.74094 0
M  V30 7352 H 676.16 5.54126 -1.47026 0
M  V30 7353 H 674.557 5.55866 -2.26126 0
M  V30 7354 H 675.627 4.16313 -2.4862 0
M  V30 7355 N 676.97 0.677563 1.42291 0
M  V30 7356 C 677.902 -0.0380218 2.29168 0
M  V30 7357 C 678.915 -0.762714 1.43828 0
M  V30 7358 O 680.104 -0.616413 1.67519 0
M  V30 7359 C 677.204 -1.07761 3.21311 0
M  V30 7360 C 676.377 -0.42618 4.35319 0
M  V30 7361 C 675.436 -1.36592 5.08162 0
M  V30 7362 O 674.462 -0.865174 5.62586 0
M  V30 7363 N 675.664 -2.69909 5.13935 0
M  V30 7364 H 678.429 0.707766 2.91223 0
M  V30 7365 H 675.99 0.52219 1.53247 0
M  V30 7366 H 677.982 -1.70761 3.6691 0
M  V30 7367 H 676.552 -1.72511 2.60689 0
M  V30 7368 H 675.772 0.383385 3.92331 0
M  V30 7369 H 677.06 0.0275277 5.08793 0
M  V30 7370 H 676.458 -3.13129 4.71134 0
M  V30 7371 H 675.015 -3.2815 5.6317 0
M  V30 7372 N 678.448 -1.51871 0.421078 0
M  V30 7373 C 679.396 -2.28903 -0.413066 0
M  V30 7374 C 680.39 -1.3408 -1.03532 0
M  V30 7375 O 681.596 -1.5149 -0.972146 0
M  V30 7376 H 677.971 -0.736478 -0.152003 0
M  V30 7377 H 679.942 -2.97285 0.257695 0
M  V30 7378 C 678.691 -3.13156 -1.51091 0
M  V30 7379 H 678.014 -3.85997 -1.04145 0
M  V30 7380 H 679.454 -3.7014 -2.06814 0
M  V30 7381 C 677.913 -2.27482 -2.48503 0
M  V30 7382 O 678.443 -1.92325 -3.52667 0
M  V30 7383 N 676.649 -1.91019 -2.18998 0
M  V30 7384 H 676.196 -2.19808 -1.34322 0
M  V30 7385 H 676.154 -1.3399 -2.84419 0
M  V30 7386 N 679.926 -0.151884 -1.56866 0
M  V30 7387 C 681.151 0.508044 -2.01081 0
M  V30 7388 C 681.576 1.57306 -1.03134 0
M  V30 7389 O 680.934 1.81298 -0.0078309 0
M  V30 7390 C 680.982 1.08106 -3.44014 0
M  V30 7391 O 680.086 2.19577 -3.49084 0
M  V30 7392 H 679.427 0.123757 -0.652365 0
M  V30 7393 H 681.957 -0.250055 -2.03066 0
M  V30 7394 H 681.967 1.40851 -3.82916 0
M  V30 7395 H 680.642 0.301168 -4.14808 0
M  V30 7396 H 679.219 1.88023 -3.22027 0
M  V30 7397 N 681.404 1.57128 0.121893 0
M  V30 7398 C 682.651 1.847 0.830188 0
M  V30 7399 C 682.979 0.736543 1.80015 0
M  V30 7400 O 682.234 -0.272358 1.93796 0
M  V30 7401 C 682.533 3.1874 1.61677 0
M  V30 7402 C 682.199 4.43901 0.791361 0
M  V30 7403 C 680.861 4.77887 0.563731 0
M  V30 7404 C 683.213 5.20753 0.215823 0
M  V30 7405 C 680.541 5.86168 -0.249737 0
M  V30 7406 C 682.893 6.29891 -0.584821 0
M  V30 7407 C 681.557 6.6241 -0.822794 0
M  V30 7408 H 680.827 0.675866 0.303787 0
M  V30 7409 H 683.474 1.91276 0.0926894 0
M  V30 7410 H 681.779 3.07728 2.42509 0
M  V30 7411 H 683.476 3.37295 2.16872 0
M  V30 7412 H 680.066 4.17272 0.978867 0
M  V30 7413 H 684.25 4.94851 0.378907 0
M  V30 7414 H 679.506 6.0979 -0.44336 0
M  V30 7415 H 683.68 6.88624 -1.03779 0
M  V30 7416 H 681.307 7.46147 -1.45496 0
M  V30 7417 N 682.882 -0.391992 1.52647 0
M  V30 7418 C 684.131 -1.13449 1.6677 0
M  V30 7419 C 684.444 -1.91203 0.412399 0
M  V30 7420 O 685.65 -2.68013 0.433707 0
M  V30 7421 C 684.106 -2.06577 2.9471 0
M  V30 7422 C 683.714 -1.3426 4.27409 0
M  V30 7423 C 685.458 -2.80981 3.18198 0
M  V30 7424 C 683.365 -2.26136 5.46458 0
M  V30 7425 H 682.295 -0.427211 0.621295 0
M  V30 7426 H 684.946 -0.397522 1.79142 0
M  V30 7427 H 683.328 -2.83898 2.76076 0
M  V30 7428 H 684.502 -0.621856 4.56585 0
M  V30 7429 H 682.817 -0.718279 4.10158 0
M  V30 7430 H 685.414 -3.49898 4.04321 0
M  V30 7431 H 685.757 -3.44891 2.33144 0
M  V30 7432 H 686.29 -2.10754 3.37383 0
M  V30 7433 H 683.029 -1.66846 6.33911 0
M  V30 7434 H 682.549 -2.96134 5.21598 0
M  V30 7435 H 684.228 -2.86286 5.80215 0
M  V30 7436 N 684.36 -1.4356 -0.65026 0
M  V30 7437 C 685.31 -1.45392 -1.75628 0
M  V30 7438 C 686.294 -0.322006 -1.57645 0
M  V30 7439 O 687.486 -0.565996 -1.67707 0
M  V30 7440 C 684.615 -1.38254 -3.1423 0
M  V30 7441 C 683.701 -2.56487 -3.3775 0
M  V30 7442 N 684.092 -3.81824 -3.31729 0
M  V30 7443 C 682.39 -2.51274 -3.6848 0
M  V30 7444 C 683.091 -4.60497 -3.55412 0
M  V30 7445 N 682.067 -3.91274 -3.77367 0
M  V30 7446 H 685.869 -2.40167 -1.69402 0
M  V30 7447 H 683.383 -1.38254 -0.852037 0
M  V30 7448 H 685.38 -1.3765 -3.9352 0
M  V30 7449 H 684.04 -0.445019 -3.21636 0
M  V30 7450 H 685.051 -4.14069 -3.11074 0
M  V30 7451 H 681.728 -1.66223 -3.82983 0
M  V30 7452 H 683.118 -5.69518 -3.5651 0
M  V30 7453 N 685.838 0.888903 -1.30139 0
M  V30 7454 C 687.066 1.67358 -1.21651 0
M  V30 7455 C 687.481 1.87499 0.221246 0
M  V30 7456 O 686.838 1.41969 1.14677 0
M  V30 7457 C 686.889 3.05213 -1.93719 0
M  V30 7458 O 686.61 2.85984 -3.31881 0
M  V30 7459 C 688.111 3.9964 -1.9184 0
M  V30 7460 H 685.331 0.522365 -0.42116 0
M  V30 7461 H 687.875 1.11086 -1.71698 0
M  V30 7462 H 686.03 3.5823 -1.4748 0
M  V30 7463 H 686.444 3.73411 -3.68327 0
M  V30 7464 H 687.918 4.93749 -2.46811 0
M  V30 7465 H 688.395 4.29955 -0.896409 0
M  V30 7466 H 689.001 3.52558 -2.37872 0
M  V30 7467 N 687.317 1.12792 1.10072 0
M  V30 7468 C 688.565 0.883796 1.81751 0
M  V30 7469 C 688.886 -0.591891 1.858 0
M  V30 7470 O 688.156 -1.43017 1.33876 0
M  V30 7471 H 686.736 0.323978 0.673088 0
M  V30 7472 H 689.398 1.42314 1.33164 0
M  V30 7473 H 688.494 1.26863 2.85153 0
M  V30 7474 N 688.795 -1.27931 0.920396 0
M  V30 7475 C 689.745 -2.24727 0.384966 0
M  V30 7476 C 690.729 -1.52715 -0.506661 0
M  V30 7477 O 691.921 -1.73599 -0.345298 0
M  V30 7478 C 689.05 -3.41324 -0.3678 0
M  V30 7479 C 688.136 -4.20649 0.539925 0
M  V30 7480 N 688.527 -4.77906 1.6565 0
M  V30 7481 C 686.825 -4.4469 0.341557 0
M  V30 7482 C 687.526 -5.37652 2.22047 0
M  V30 7483 N 686.502 -5.2218 1.51093 0
M  V30 7484 H 690.304 -2.66572 1.23761 0
M  V30 7485 H 687.818 -1.42779 0.773819 0
M  V30 7486 H 689.815 -4.0976 -0.768277 0
M  V30 7487 H 688.475 -3.01012 -1.21746 0
M  V30 7488 H 689.486 -4.76073 2.03899 0
M  V30 7489 H 686.163 -4.14868 -0.468045 0
M  V30 7490 H 687.553 -5.92948 3.1601 0
M  V30 7491 N 690.273 -0.685099 -1.4193 0
M  V30 7492 C 691.521 -0.21124 -2.00993 0
M  V30 7493 C 691.842 1.18985 -1.54491 0
M  V30 7494 O 691.112 1.8009 -0.771 0
M  V30 7495 H 689.692 -0.0751059 -0.743215 0
M  V30 7496 H 692.354 -0.883915 -1.73704 0
M  V30 7497 H 691.45 -0.220513 -3.1132 0
M  V30 7498 N 691.751 1.51645 -0.429126 0
M  V30 7499 C 693.028 1.94579 0.199614 0
M  V30 7500 C 693.408 1.3673 1.60836 0
M  V30 7501 O 692.756 0.551062 2.21756 0
M  V30 7502 C 692.966 3.48506 0.185685 0
M  V30 7503 C 694.314 4.22756 0.395282 0
M  V30 7504 O 695.338 3.55219 0.264165 0
M  V30 7505 O 694.197 5.42555 0.655475 0
M  V30 7506 H 691.291 0.816007 0.134393 0
M  V30 7507 H 693.837 1.62577 -0.486513 0
M  V30 7508 H 692.609 3.83045 -0.799508 0
M  V30 7509 H 692.232 3.86927 0.91507 0
M  V30 7510 N 693.229 0.160201 1.56784 0
M  V30 7511 C 694.454 -0.497373 2.01348 0
M  V30 7512 C 694.879 -1.56757 1.03966 0
M  V30 7513 O 694.237 -1.81292 0.0174455 0
M  V30 7514 C 694.285 -1.0628 3.44582 0
M  V30 7515 O 693.389 -2.17723 3.50244 0
M  V30 7516 H 692.73 -0.120295 0.653012 0
M  V30 7517 H 695.26 0.260821 2.02931 0
M  V30 7518 H 695.27 -1.38819 3.83658 0
M  V30 7519 H 693.945 -0.279166 4.14962 0
M  V30 7520 H 692.522 -1.86313 3.2302 0
M  V30 7521 N 694.707 -1.5719 -0.113559 0
M  V30 7522 C 695.984 -1.76117 -0.850999 0
M  V30 7523 C 696.364 -0.737085 -1.97814 0
M  V30 7524 O 695.712 0.237942 -2.27258 0
M  V30 7525 C 695.922 -3.21298 -1.36266 0
M  V30 7526 C 697.27 -3.83955 -1.81283 0
M  V30 7527 O 698.294 -3.24934 -1.45933 0
M  V30 7528 O 697.153 -4.87707 -2.46585 0
M  V30 7529 H 694.247 -0.721308 -0.404529 0
M  V30 7530 H 696.793 -1.69423 -0.0968756 0
M  V30 7531 H 695.565 -3.87355 -0.554235 0
M  V30 7532 H 695.188 -3.32552 -2.17933 0
M  V30 7533 N 696.185 0.383891 -1.52853 0
M  V30 7534 C 697.596 0.961591 -1.60032 0
M  V30 7535 C 697.947 1.90819 -0.456333 0
M  V30 7536 O 697.072 2.12288 0.419873 0
M  V30 7537 C 697.667 1.75078 -2.90057 0
M  V30 7538 C 696.226 2.2781 -2.99632 0
M  V30 7539 C 695.373 1.08512 -2.55187 0
M  V30 7540 H 698.324 0.163269 -1.57858 0
M  V30 7541 H 698.345 2.61046 -2.7683 0
M  V30 7542 H 697.857 1.06157 -3.73299 0
M  V30 7543 H 695.958 3.00028 -2.20939 0
M  V30 7544 H 696.071 2.56947 -4.0437 0
M  V30 7545 H 694.435 1.44667 -2.09627 0
M  V30 7546 H 695.218 0.41118 -3.40829 0
M  V30 7547 N 697.663 1.43903 0.642637 0
M  V30 7548 C 699.079 1.27536 0.959519 0
M  V30 7549 C 699.279 0.202751 2.00477 0
M  V30 7550 O 698.335 -0.415256 2.49062 0
M  V30 7551 C 699.648 2.6432 1.43372 0
M  V30 7552 C 701.196 2.71937 1.54981 0
M  V30 7553 C 701.671 4.09164 2.05789 0
M  V30 7554 N 703.162 4.11282 2.13076 0
M  V30 7555 C 703.897 5.14303 2.53534 0
M  V30 7556 N 703.393 6.27693 2.93212 0
M  V30 7557 N 705.186 5.01657 2.53567 0
M  V30 7558 H 697.337 2.12344 -0.0488376 0
M  V30 7559 H 699.6 0.947124 0.0407559 0
M  V30 7560 H 699.306 3.43826 0.740048 0
M  V30 7561 H 699.18 2.90432 2.40685 0
M  V30 7562 H 701.567 1.92757 2.23448 0
M  V30 7563 H 701.648 2.49578 0.560739 0
M  V30 7564 H 701.292 4.88815 1.37921 0
M  V30 7565 H 701.222 4.28893 3.05546 0
M  V30 7566 H 703.713 3.2944 1.85143 0
M  V30 7567 H 704.026 7.02125 3.22863 0
M  V30 7568 H 702.371 6.31149 2.90991 0
M  V30 7569 H 705.562 4.12134 2.21952 0
M  V30 7570 H 705.735 5.82072 2.84774 0
M  V30 7571 N 699.141 -0.881989 1.30609 0
M  V30 7572 C 700.091 -1.97539 1.13852 0
M  V30 7573 C 701.075 -1.60813 0.0528428 0
M  V30 7574 O 702.267 -1.74827 0.276484 0
M  V30 7575 C 699.396 -3.32977 0.835519 0
M  V30 7576 C 698.482 -3.76008 1.96159 0
M  V30 7577 N 698.873 -3.91109 3.20729 0
M  V30 7578 C 697.171 -4.05427 1.85863 0
M  V30 7579 C 697.872 -4.27661 3.94311 0
M  V30 7580 N 696.848 -4.37686 3.22385 0
M  V30 7581 H 700.65 -2.07309 2.08327 0
M  V30 7582 H 698.164 -1.072 1.21992 0
M  V30 7583 H 700.161 -4.11041 0.696477 0
M  V30 7584 H 698.821 -3.24542 -0.101135 0
M  V30 7585 H 699.832 -3.7616 3.55984 0
M  V30 7586 H 696.509 -4.05449 0.995847 0
M  V30 7587 H 697.899 -4.47042 5.01601 0
M  V30 7588 N 700.619 -1.13374 -1.09472 0
M  V30 7589 C 701.859 -0.905422 -1.83252 0
M  V30 7590 C 702.223 0.558396 -1.83701 0
M  V30 7591 O 703.424 0.904254 -2.53134 0
M  V30 7592 C 701.695 -1.47658 -3.25472 0
M  V30 7593 S 703.254 -1.38825 -4.16261 0
M  V30 7594 H 700.072 -0.326371 -0.631667 0
M  V30 7595 H 702.674 -1.44517 -1.31663 0
M  V30 7596 H 701.378 -2.53533 -3.22722 0
M  V30 7597 H 700.909 -0.934756 -3.82133 0
M  V30 7598 H 702.924 -0.366379 -4.94846 0
M  V30 7599 N 702.098 1.27442 -0.927168 0
M  V30 7600 C 703.344 1.95025 -0.577651 0
M  V30 7601 C 703.699 1.71534 0.871421 0
M  V30 7602 O 702.992 1.03354 1.61333 0
M  V30 7603 C 703.186 3.47413 -0.838994 0
M  V30 7604 C 703.015 3.85721 -2.31192 0
M  V30 7605 C 701.785 4.09199 -2.96452 0
M  V30 7606 C 703.983 3.95352 -3.28939 0
M  V30 7607 N 701.965 4.34283 -4.33903 0
M  V30 7608 C 703.336 4.24805 -4.51598 0
M  V30 7609 C 705.391 3.77926 -3.24155 0
M  V30 7610 C 704.094 4.38645 -5.70073 0
M  V30 7611 C 706.12 3.9299 -4.41942 0
M  V30 7612 C 705.482 4.22829 -5.63379 0
M  V30 7613 H 701.581 0.736983 -0.261495 0
M  V30 7614 H 704.165 1.53816 -1.19368 0
M  V30 7615 H 702.336 3.87581 -0.252129 0
M  V30 7616 H 704.068 4.02166 -0.452158 0
M  V30 7617 H 700.823 4.04013 -2.47125 0
M  V30 7618 H 701.247 4.50883 -5.05008 0
M  V30 7619 H 705.889 3.53897 -2.31337 0
M  V30 7620 H 703.607 4.615 -6.63358 0
M  V30 7621 H 707.193 3.80926 -4.39757 0
M  V30 7622 H 706.073 4.34234 -6.53001 0
M  V30 7623 N 703.576 0.692616 1.41565 0
M  V30 7624 C 704.824 0.221896 2.00878 0
M  V30 7625 C 705.145 -1.18164 1.5512 0
M  V30 7626 O 704.415 -1.79679 0.78054 0
M  V30 7627 H 702.995 0.0790463 0.742806 0
M  V30 7628 H 705.657 0.893115 1.73232 0
M  V30 7629 H 704.753 0.23702 3.11199 0
M  V30 7630 N 705.054 -1.51416 0.437162 0
M  V30 7631 C 706.301 -2.02086 -0.129364 0
M  V30 7632 C 706.629 -1.32133 -1.42728 0
M  V30 7633 O 705.884 -0.424916 -1.91031 0
M  V30 7634 C 706.183 -3.55203 -0.39564 0
M  V30 7635 C 705.849 -4.43447 0.81644 0
M  V30 7636 C 704.511 -4.67285 1.14884 0
M  V30 7637 C 706.863 -4.95219 1.62503 0
M  V30 7638 C 704.191 -5.40141 2.29052 0
M  V30 7639 C 706.543 -5.69327 2.7577 0
M  V30 7640 C 705.207 -5.91429 3.09464 0
M  V30 7641 H 704.477 -0.739486 -0.0473375 0
M  V30 7642 H 707.124 -1.82368 0.584321 0
M  V30 7643 H 705.429 -3.73252 -1.19121 0
M  V30 7644 H 707.126 -3.91944 -0.847399 0
M  V30 7645 H 703.716 -4.2509 0.547422 0
M  V30 7646 H 707.9 -4.76686 1.38144 0
M  V30 7647 H 703.156 -5.55468 2.55471 0
M  V30 7648 H 707.33 -6.08433 3.38795 0
M  V30 7649 H 704.957 -6.47662 3.98042 0
M  V30 7650 N 706.532 -0.168513 -1.56696 0
M  V30 7651 C 707.943 0.348694 -1.83415 0
M  V30 7652 C 708.294 1.63257 -1.0882 0
M  V30 7653 O 707.419 2.13707 -0.340333 0
M  V30 7654 C 708.014 0.639423 -3.32711 0
M  V30 7655 C 706.573 1.10108 -3.59935 0
M  V30 7656 C 705.72 0.135464 -2.76969 0
M  V30 7657 H 708.671 -0.392829 -1.53761 0
M  V30 7658 H 708.692 1.49179 -3.50037 0
M  V30 7659 H 708.204 -0.295173 -3.86976 0
M  V30 7660 H 706.305 2.05088 -3.11079 0
M  V30 7661 H 706.418 1.01218 -4.68286 0
M  V30 7662 H 704.782 0.632286 -2.46727 0
M  V30 7663 H 705.565 -0.793104 -3.34013 0
M  V30 7664 N 708.01 1.57248 0.105221 0
M  V30 7665 C 709.287 1.76566 0.841647 0
M  V30 7666 C 709.667 0.747566 1.9742 0
M  V30 7667 O 709.015 -0.225886 2.27381 0
M  V30 7668 C 709.225 3.22016 1.3456 0
M  V30 7669 C 710.573 3.84911 1.79244 0
M  V30 7670 O 711.597 3.25703 1.44207 0
M  V30 7671 O 710.456 4.89008 2.43995 0
M  V30 7672 H 707.55 0.723443 0.400698 0
M  V30 7673 H 710.096 1.69472 0.0878893 0
M  V30 7674 H 708.868 3.87644 0.533685 0
M  V30 7675 H 708.491 3.33703 2.16167 0
M  V30 7676 N 709.488 -0.375779 1.53054 0
M  V30 7677 C 710.904 -0.716764 1.426 0
M  V30 7678 C 711.104 -1.93651 0.556931 0
M  V30 7679 O 710.16 -2.52475 0.0354461 0
M  V30 7680 C 711.473 -0.939499 2.85646 0
M  V30 7681 C 713.021 -1.04015 2.95212 0
M  V30 7682 C 713.496 -1.29543 4.39298 0
M  V30 7683 N 714.987 -1.36335 4.42682 0
M  V30 7684 C 715.722 -1.57778 5.51266 0
M  V30 7685 N 715.218 -1.76604 6.69913 0
M  V30 7686 N 717.011 -1.60065 5.38828 0
M  V30 7687 H 709.162 0.42664 2.08071 0
M  V30 7688 H 711.425 0.128758 0.939215 0
M  V30 7689 H 711.131 -0.115189 3.51511 0
M  V30 7690 H 711.005 -1.85048 3.2869 0
M  V30 7691 H 713.392 -1.85501 2.29507 0
M  V30 7692 H 713.473 -0.106785 2.55577 0
M  V30 7693 H 713.117 -0.485611 5.05573 0
M  V30 7694 H 713.047 -2.24184 4.76497 0
M  V30 7695 H 715.538 -1.23441 3.5717 0
M  V30 7696 H 715.851 -1.9251 7.48438 0
M  V30 7697 H 714.196 -1.73802 6.72917 0
M  V30 7698 H 717.387 -1.44917 4.45103 0
M  V30 7699 H 717.56 -1.76435 6.23518 0
M  V30 7700 N 710.966 -1.44241 -0.634997 0
M  V30 7701 C 712.215 -1.46102 -1.39058 0
M  V30 7702 C 712.528 -0.0959909 -1.95364 0
M  V30 7703 O 713.734 0.00788751 -2.71499 0
M  V30 7704 C 712.19 -2.57195 -2.51751 0
M  V30 7705 C 711.798 -3.99888 -2.01974 0
M  V30 7706 C 713.542 -2.68272 -3.28984 0
M  V30 7707 C 711.449 -5.02412 -3.11987 0
M  V30 7708 H 710.379 -0.543556 -0.522554 0
M  V30 7709 H 713.03 -1.70294 -0.683538 0
M  V30 7710 H 711.412 -2.26237 -3.25012 0
M  V30 7711 H 712.586 -4.40396 -1.35604 0
M  V30 7712 H 710.901 -3.93019 -1.37568 0
M  V30 7713 H 713.498 -3.42042 -4.10988 0
M  V30 7714 H 713.841 -1.73957 -3.78212 0
M  V30 7715 H 714.374 -2.98622 -2.62812 0
M  V30 7716 H 711.113 -5.98342 -2.67707 0
M  V30 7717 H 710.633 -4.66501 -3.77011 0
M  V30 7718 H 712.312 -5.25939 -3.76825 0
M  V30 7719 N 712.444 0.87505 -1.31075 0
M  V30 7720 C 713.721 1.60976 -1.11113 0
M  V30 7721 C 714.101 2.08409 0.336006 0
M  V30 7722 O 713.449 1.85858 1.32924 0
M  V30 7723 C 713.659 2.77166 -2.12085 0
M  V30 7724 C 715.007 3.47254 -2.44335 0
M  V30 7725 O 716.031 2.87367 -2.10472 0
M  V30 7726 O 714.89 4.55276 -3.02301 0
M  V30 7727 H 711.984 0.707982 -0.427424 0
M  V30 7728 H 714.53 0.920957 -1.42536 0
M  V30 7729 H 713.302 2.39494 -3.09449 0
M  V30 7730 H 712.925 3.53737 -1.81538 0
M  V30 7731 N 713.922 1.13953 1.08869 0
M  V30 7732 C 714.832 0.835666 2.19212 0
M  V30 7733 C 715.848 -0.182005 1.73045 0
M  V30 7734 O 717.024 -0.0116661 2.01397 0
M  V30 7735 C 714.089 0.312325 3.4529 0
M  V30 7736 C 713.15 1.39196 4.06107 0
M  V30 7737 C 712.383 0.893496 5.26168 0
M  V30 7738 O 712.606 -0.266807 5.69776 0
M  V30 7739 O 711.54 1.67037 5.78258 0
M  V30 7740 H 715.366 1.75769 2.47667 0
M  V30 7741 H 712.951 0.917421 1.17914 0
M  V30 7742 H 714.833 0.0261582 4.21392 0
M  V30 7743 H 713.508 -0.582042 3.18424 0
M  V30 7744 H 712.415 1.73152 3.31616 0
M  V30 7745 H 713.748 2.26068 4.37212 0
M  V30 7746 N 715.4 -1.26948 0.933913 0
M  V30 7747 C 716.33 -2.29017 0.45534 0
M  V30 7748 C 717.311 -1.62961 -0.487605 0
M  V30 7749 O 718.496 -1.90223 -0.391022 0
M  V30 7750 C 715.626 -3.46112 -0.287015 0
M  V30 7751 C 714.58 -4.24205 0.568682 0
M  V30 7752 C 713.906 -5.3384 -0.303206 0
M  V30 7753 C 715.206 -4.88954 1.83633 0
M  V30 7754 H 716.9 -2.69298 1.30839 0
M  V30 7755 H 714.446 -1.29459 0.630579 0
M  V30 7756 H 716.399 -4.16622 -0.6328 0
M  V30 7757 H 715.123 -3.04765 -1.17414 0
M  V30 7758 H 713.782 -3.5545 0.897261 0
M  V30 7759 H 713.43 -4.88734 -1.18947 0
M  V30 7760 H 713.13 -5.86998 0.265879 0
M  V30 7761 H 714.654 -6.0719 -0.644423 0
M  V30 7762 H 716.068 -5.51717 1.55823 0
M  V30 7763 H 714.465 -5.52198 2.34941 0
M  V30 7764 H 715.535 -4.12305 2.55211 0
M  V30 7765 N 716.879 -0.700114 -1.41195 0
M  V30 7766 C 718.109 -0.241828 -2.0518 0
M  V30 7767 C 718.517 1.1157 -1.52803 0
M  V30 7768 O 717.86 1.70926 -0.673042 0
M  V30 7769 C 717.922 -0.12695 -3.59276 0
M  V30 7770 C 717.586 -1.41725 -4.34469 0
M  V30 7771 C 718.583 -2.35604 -4.63451 0
M  V30 7772 C 716.268 -1.67189 -4.73659 0
M  V30 7773 C 718.262 -3.53204 -5.3059 0
M  V30 7774 C 715.949 -2.85073 -5.40534 0
M  V30 7775 C 716.947 -3.77904 -5.68927 0
M  V30 7776 O 716.635 -4.93723 -6.34424 0
M  V30 7777 H 716.367 -0.109247 -0.667114 0
M  V30 7778 H 718.921 -0.954538 -1.81873 0
M  V30 7779 H 717.151 0.641571 -3.81341 0
M  V30 7780 H 718.84 0.294748 -4.04828 0
M  V30 7781 H 719.606 -2.1719 -4.33651 0
M  V30 7782 H 715.485 -0.957935 -4.50937 0
M  V30 7783 H 719.029 -4.25679 -5.52669 0
M  V30 7784 H 714.926 -3.03402 -5.69752 0
M  V30 7785 H 715.694 -4.93597 -6.5292 0
M  V30 7786 N 718.357 1.51182 -0.445186 0
M  V30 7787 C 719.287 2.30821 0.352686 0
M  V30 7788 C 720.268 1.36576 1.01395 0
M  V30 7789 O 721.453 1.65497 1.01609 0
M  V30 7790 C 718.583 3.15593 1.44976 0
M  V30 7791 C 717.537 4.1818 0.911553 0
M  V30 7792 C 716.863 4.91523 2.10497 0
M  V30 7793 C 718.163 5.22266 -0.059418 0
M  V30 7794 H 719.857 2.97771 -0.311936 0
M  V30 7795 H 717.403 1.43201 -0.151461 0
M  V30 7796 H 719.356 3.70091 2.01521 0
M  V30 7797 H 718.08 2.4648 2.14278 0
M  V30 7798 H 716.739 3.64746 0.368264 0
M  V30 7799 H 716.387 4.18906 2.78437 0
M  V30 7800 H 716.087 5.60898 1.7512 0
M  V30 7801 H 717.611 5.48847 2.6758 0
M  V30 7802 H 719.025 5.71789 0.415985 0
M  V30 7803 H 717.422 5.99213 -0.326152 0
M  V30 7804 H 718.492 4.7461 -0.993631 0
M  V30 7805 N 719.835 0.176821 1.56605 0
M  V30 7806 C 721.083 -0.465793 1.96659 0
M  V30 7807 C 721.404 -1.63406 1.06412 0
M  V30 7808 O 720.674 -1.95457 0.131603 0
M  V30 7809 H 719.254 -0.175072 0.726195 0
M  V30 7810 H 721.916 0.25929 1.93168 0
M  V30 7811 H 721.012 -0.822138 3.01077 0
M  V30 7812 N 721.313 -1.57302 -0.09688 0
M  V30 7813 C 722.261 -2.02942 -1.13654 0
M  V30 7814 C 723.255 -0.930173 -1.41577 0
M  V30 7815 O 724.461 -1.11535 -1.41279 0
M  V30 7816 H 720.836 -0.646726 -0.383731 0
M  V30 7817 H 722.807 -2.89452 -0.725267 0
M  V30 7818 C 721.556 -2.46815 -2.44903 0
M  V30 7819 H 720.879 -3.30979 -2.24261 0
M  V30 7820 H 722.319 -2.82527 -3.16156 0
M  V30 7821 C 720.778 -1.34071 -3.09074 0
M  V30 7822 O 721.308 -0.668856 -3.96092 0
M  V30 7823 N 719.514 -1.09214 -2.69296 0
M  V30 7824 H 719.061 -1.64029 -1.98626 0
M  V30 7825 H 719.019 -0.339785 -3.12559 0
M  V30 7826 N 722.791 0.367657 -1.53252 0
M  V30 7827 C 724.202 0.944563 -1.61043 0
M  V30 7828 C 724.553 1.90325 -0.476546 0
M  V30 7829 O 723.678 2.12721 0.397333 0
M  V30 7830 C 724.273 1.71992 -2.91898 0
M  V30 7831 C 722.832 2.2462 -3.02031 0
M  V30 7832 C 721.979 1.05799 -2.56324 0
M  V30 7833 H 724.93 0.146516 -1.58022 0
M  V30 7834 H 724.951 2.58095 -2.79584 0
M  V30 7835 H 724.463 1.02192 -3.74404 0
M  V30 7836 H 722.564 2.97668 -2.24108 0
M  V30 7837 H 722.677 2.52644 -4.07073 0
M  V30 7838 H 721.041 1.42435 -2.1115 0
M  V30 7839 H 721.824 0.375008 -3.41246 0
M  V30 7840 N 724.269 1.44576 0.627338 0
M  V30 7841 C 725.202 1.46206 1.75212 0
M  V30 7842 C 726.18 0.320483 1.5941 0
M  V30 7843 O 727.364 0.518028 1.81242 0
M  V30 7844 C 724.491 1.29834 3.12827 0
M  V30 7845 C 723.537 2.47603 3.47268 0
M  V30 7846 S 724.37 4.10125 3.44322 0
M  V30 7847 C 725.526 3.96183 4.84551 0
M  V30 7848 H 725.759 2.41378 1.73563 0
M  V30 7849 H 723.292 1.3192 0.802283 0
M  V30 7850 H 725.25 1.21075 3.92239 0
M  V30 7851 H 723.911 0.361662 3.12011 0
M  V30 7852 H 723.104 2.3202 4.47418 0
M  V30 7853 H 722.706 2.53121 2.75329 0
M  V30 7854 H 724.998 3.60107 5.73872 0
M  V30 7855 H 725.941 4.96176 5.05188 0
M  V30 7856 H 726.349 3.28177 4.59304 0
M  V30 7857 N 725.747 -0.868086 1.31537 0
M  V30 7858 C 727.024 -1.60384 1.11965 0
M  V30 7859 C 727.404 -2.08584 -0.324949 0
M  V30 7860 O 726.752 -1.86561 -1.31937 0
M  V30 7861 C 726.962 -2.76038 2.13551 0
M  V30 7862 C 728.31 -3.45954 2.46173 0
M  V30 7863 O 729.334 -2.86247 2.11993 0
M  V30 7864 O 728.193 -4.53666 3.04711 0
M  V30 7865 H 725.287 -0.705705 0.431172 0
M  V30 7866 H 727.833 -0.913385 1.43022 0
M  V30 7867 H 726.605 -2.37849 3.10714 0
M  V30 7868 H 726.228 -3.52769 1.83411 0
M  V30 7869 N 727.225 -1.14528 -1.08264 0
M  V30 7870 C 728.636 -0.925261 -1.6216 0
M  V30 7871 C 728.987 0.535587 -1.88748 0
M  V30 7872 O 728.112 1.4048 -1.64604 0
M  V30 7873 C 728.707 -1.67316 -2.94603 0
M  V30 7874 C 727.266 -1.49868 -3.45278 0
M  V30 7875 C 726.413 -1.69471 -2.19487 0
M  V30 7876 H 729.364 -1.29687 -0.914707 0
M  V30 7877 H 729.385 -1.13721 -3.63109 0
M  V30 7878 H 728.897 -2.73635 -2.75219 0
M  V30 7879 H 726.998 -0.459032 -3.69762 0
M  V30 7880 H 727.111 -2.2696 -4.21931 0
M  V30 7881 H 725.475 -1.12048 -2.2873 0
M  V30 7882 H 726.258 -2.77136 -2.0261 0
M  V30 7883 N 728.703 1.26451 -0.940633 0
M  V30 7884 C 730.114 1.75726 -0.630653 0
M  V30 7885 C 730.465 1.76631 0.854167 0
M  V30 7886 O 729.59 1.37807 1.66848 0
M  V30 7887 C 730.185 3.19114 -1.13805 0
M  V30 7888 C 728.744 3.66005 -0.878497 0
M  V30 7889 C 727.891 2.45505 -1.28928 0
M  V30 7890 H 730.842 1.12535 -1.119 0
M  V30 7891 H 730.863 3.77311 -0.491625 0
M  V30 7892 H 730.375 3.18424 -2.21874 0
M  V30 7893 H 728.476 3.72126 0.187833 0
M  V30 7894 H 728.589 4.54844 -1.50512 0
M  V30 7895 H 726.953 2.4467 -0.707713 0
M  V30 7896 H 727.736 2.47516 -2.37888 0
M  V30 7897 N 730.181 0.707592 1.40822 0
M  V30 7898 C 731.458 0.171172 1.9485 0
M  V30 7899 C 731.838 -1.32143 1.64625 0
M  V30 7900 O 731.186 -2.07372 0.959647 0
M  V30 7901 C 731.396 0.475334 3.45748 0
M  V30 7902 C 732.744 0.409625 4.22619 0
M  V30 7903 O 733.768 0.410934 3.53822 0
M  V30 7904 O 732.627 0.380185 5.45176 0
M  V30 7905 H 729.721 0.022015 0.826707 0
M  V30 7906 H 732.267 0.784577 1.50474 0
M  V30 7907 H 731.039 1.50801 3.61075 0
M  V30 7908 H 730.662 -0.168439 3.97243 0
M  V30 7909 N 731.66 -1.50943 0.453197 0
M  V30 7910 C 732.59 -2.31005 -0.34044 0
M  V30 7911 C 733.571 -1.37112 -1.00669 0
M  V30 7912 O 734.756 -1.66033 -1.0073 0
M  V30 7913 C 731.886 -3.16358 -1.433 0
M  V30 7914 C 730.84 -4.18658 -0.889363 0
M  V30 7915 C 730.166 -4.92633 -2.07887 0
M  V30 7916 C 731.466 -5.22227 0.0871142 0
M  V30 7917 H 733.16 -2.97601 0.327723 0
M  V30 7918 H 730.706 -1.43119 0.159054 0
M  V30 7919 H 732.659 -3.71155 -1.99555 0
M  V30 7920 H 731.383 -2.47613 -2.12968 0
M  V30 7921 H 730.042 -3.64936 -0.348915 0
M  V30 7922 H 729.69 -4.20376 -2.76211 0
M  V30 7923 H 729.39 -5.61819 -1.72143 0
M  V30 7924 H 730.914 -5.50258 -2.64666 0
M  V30 7925 H 732.328 -5.72001 -0.385656 0
M  V30 7926 H 730.725 -5.99032 0.357926 0
M  V30 7927 H 731.795 -4.74077 1.01879 0
M  V30 7928 N 733.138 -0.185124 -1.56509 0
M  V30 7929 C 734.068 0.735098 -2.21627 0
M  V30 7930 C 735.049 1.2288 -1.1762 0
M  V30 7931 O 736.234 1.27945 -1.46095 0
M  V30 7932 C 733.364 1.95889 -2.86783 0
M  V30 7933 C 732.318 1.6005 -3.96948 0
M  V30 7934 C 731.644 2.90009 -4.4922 0
M  V30 7935 C 732.944 0.818008 -5.15855 0
M  V30 7936 H 734.638 0.192274 -2.98782 0
M  V30 7937 H 732.184 0.0910393 -1.43712 0
M  V30 7938 H 734.137 2.60779 -3.31017 0
M  V30 7939 H 732.861 2.52608 -2.07018 0
M  V30 7940 H 731.52 0.975237 -3.5339 0
M  V30 7941 H 731.168 3.44797 -3.6623 0
M  V30 7942 H 730.868 2.66778 -5.23549 0
M  V30 7943 H 732.392 3.55904 -4.9615 0
M  V30 7944 H 733.806 1.36979 -5.56695 0
M  V30 7945 H 732.203 0.684207 -5.96187 0
M  V30 7946 H 733.273 -0.182939 -4.84555 0
M  V30 7947 N 734.616 1.57351 0.0885366 0
M  V30 7948 C 735.841 1.91011 0.80805 0
M  V30 7949 C 736.266 0.780009 1.71165 0
M  V30 7950 O 735.624 -0.268083 1.79307 0
M  V30 7951 C 735.672 3.23562 1.59185 0
M  V30 7952 O 734.776 3.11615 2.7013 0
M  V30 7953 H 734.117 0.625943 0.221565 0
M  V30 7954 H 736.647 2.04507 0.0617954 0
M  V30 7955 H 736.657 3.5703 1.97468 0
M  V30 7956 H 735.332 4.05398 0.928741 0
M  V30 7957 H 733.909 2.89673 2.34827 0
M  V30 7958 N 736.094 -0.359525 1.53444 0
M  V30 7959 C 737.34 -1.10315 1.70172 0
M  V30 7960 C 737.673 -1.88788 0.455287 0
M  V30 7961 O 736.948 -1.86635 -0.547514 0
M  V30 7962 C 737.231 -2.05744 2.95536 0
M  V30 7963 C 737.084 -1.3084 4.3035 0
M  V30 7964 C 738.403 -3.05784 3.16518 0
M  V30 7965 H 735.522 -0.399662 0.619225 0
M  V30 7966 H 738.164 -0.383338 1.86093 0
M  V30 7967 H 736.314 -2.67125 2.82093 0
M  V30 7968 H 737.986 -0.721959 4.55615 0
M  V30 7969 H 736.229 -0.610283 4.29486 0
M  V30 7970 H 736.9 -2.00718 5.14214 0
M  V30 7971 H 739.376 -2.5451 3.29187 0
M  V30 7972 H 738.252 -3.69772 4.05659 0
M  V30 7973 H 738.513 -3.76289 2.32076 0
M  V30 7974 N 737.572 -1.44907 -0.619662 0
M  V30 7975 C 738.482 -1.55168 -1.75955 0
M  V30 7976 C 739.498 -0.43672 -1.6843 0
M  V30 7977 O 740.674 -0.695704 -1.89002 0
M  V30 7978 C 737.739 -1.50397 -3.12381 0
M  V30 7979 C 736.8 -2.72835 -3.31451 0
M  V30 7980 C 736.033 -2.68283 -4.61368 0
M  V30 7981 O 736.256 -1.74929 -5.42914 0
M  V30 7982 O 735.19 -3.59308 -4.82889 0
M  V30 7983 H 739.016 -2.51493 -1.7025 0
M  V30 7984 H 736.601 -1.27282 -0.782289 0
M  V30 7985 H 738.483 -1.50301 -3.93685 0
M  V30 7986 H 737.158 -0.572197 -3.18603 0
M  V30 7987 H 736.065 -2.78496 -2.49781 0
M  V30 7988 H 737.398 -3.65098 -3.30098 0
M  V30 7989 N 739.05 0.861098 -1.31996 0
M  V30 7990 C 739.98 1.98482 -1.22993 0
M  V30 7991 C 740.961 1.6971 -0.115168 0
M  V30 7992 O 742.146 1.91849 -0.30126 0
M  V30 7993 C 739.276 3.34179 -0.945615 0
M  V30 7994 C 738.23 3.77284 -2.02091 0
M  V30 7995 C 737.556 5.1054 -1.58912 0
M  V30 7996 C 738.856 3.93439 -3.43515 0
M  V30 7997 H 740.55 2.06271 -2.17008 0
M  V30 7998 H 738.096 0.991043 -1.04472 0
M  V30 7999 H 740.049 4.12338 -0.869206 0
M  V30 8000 H 738.773 3.26586 0.0301849 0
M  V30 8001 H 737.432 3.01371 -2.08737 0
M  V30 8002 H 737.08 4.99397 -0.600942 0
M  V30 8003 H 736.78 5.40352 -2.30854 0
M  V30 8004 H 738.304 5.91199 -1.52696 0
M  V30 8005 H 739.718 4.6197 -3.39495 0
M  V30 8006 H 738.115 4.34661 -4.13751 0
M  V30 8007 H 739.185 2.96548 -3.8365 0
M  V30 8008 N 740.528 1.15101 1.07655 0
M  V30 8009 C 741.753 0.948177 1.84457 0
M  V30 8010 C 742.178 -0.498432 1.81376 0
M  V30 8011 O 741.536 -1.35509 1.20445 0
M  V30 8012 C 741.584 1.46318 3.29581 0
M  V30 8013 O 740.688 0.660342 4.07079 0
M  V30 8014 H 740.029 0.338428 0.571281 0
M  V30 8015 H 742.559 1.5301 1.35828 0
M  V30 8016 H 742.569 1.47468 3.80417 0
M  V30 8017 H 741.244 2.51635 3.31138 0
M  V30 8018 H 739.821 0.718216 3.65918 0
M  V30 8019 N 742.006 -1.2595 0.947325 0
M  V30 8020 C 743.234 -1.97544 0.615127 0
M  V30 8021 C 743.649 -1.70484 -0.811221 0
M  V30 8022 O 743.006 -0.97662 -1.5417 0
M  V30 8023 C 743.057 -3.51236 0.855328 0
M  V30 8024 O 742.778 -3.77359 2.22558 0
M  V30 8025 C 744.279 -4.40066 0.534515 0
M  V30 8026 H 741.499 -0.629888 0.231263 0
M  V30 8027 H 744.043 -1.60308 1.26971 0
M  V30 8028 H 742.198 -3.8661 0.247266 0
M  V30 8029 H 742.612 -4.71857 2.29022 0
M  V30 8030 H 744.086 -5.46838 0.753168 0
M  V30 8031 H 744.563 -4.35982 -0.530701 0
M  V30 8032 H 745.169 -4.10245 1.12158 0
M  V30 8033 N 743.484 -0.715051 -1.40445 0
M  V30 8034 C 744.709 -0.26254 -2.05732 0
M  V30 8035 C 745.134 1.08691 -1.53519 0
M  V30 8036 O 744.492 1.68453 -0.670328 0
M  V30 8037 C 744.54 -0.25195 -3.59719 0
M  V30 8038 O 743.644 0.766998 -4.05205 0
M  V30 8039 H 742.985 -0.123398 -0.652433 0
M  V30 8040 H 745.515 -0.975382 -1.79854 0
M  V30 8041 H 745.525 -0.0894537 -4.07902 0
M  V30 8042 H 744.2 -1.23672 -3.97087 0
M  V30 8043 H 742.777 0.572269 -3.68483 0
M  V30 8044 N 744.962 1.50701 -0.461195 0
M  V30 8045 C 746.378 1.59187 -0.114786 0
M  V30 8046 C 746.578 1.4702 1.37794 0
M  V30 8047 O 745.634 1.32361 2.15027 0
M  V30 8048 C 746.947 2.93453 -0.656167 0
M  V30 8049 C 748.495 3.06824 -0.618715 0
M  V30 8050 C 748.97 4.4365 -1.13747 0
M  V30 8051 N 750.461 4.50035 -1.09646 0
M  V30 8052 C 751.196 5.54278 -1.46846 0
M  V30 8053 N 750.692 6.65822 -1.91448 0
M  V30 8054 N 752.485 5.44767 -1.38512 0
M  V30 8055 H 744.636 1.56853 -1.43216 0
M  V30 8056 H 746.899 0.740712 -0.59165 0
M  V30 8057 H 746.605 3.07802 -1.7015 0
M  V30 8058 H 746.479 3.77082 -0.0942261 0
M  V30 8059 H 748.866 2.92129 0.417685 0
M  V30 8060 H 748.947 2.24976 -1.21734 0
M  V30 8061 H 748.591 4.59093 -2.17245 0
M  V30 8062 H 748.521 5.24074 -0.515153 0
M  V30 8063 H 751.012 3.69988 -0.769217 0
M  V30 8064 H 751.325 7.41413 -2.18007 0
M  V30 8065 H 749.67 6.66968 -1.95393 0
M  V30 8066 H 752.861 4.56511 -1.03516 0
M  V30 8067 H 753.034 6.25889 -1.6783 0
M  V30 8068 N 746.441 0.193421 1.56409 0
M  V30 8069 C 747.852 -0.319471 1.83946 0
M  V30 8070 C 748.203 -1.61505 1.11403 0
M  V30 8071 O 747.328 -2.13139 0.374289 0
M  V30 8072 C 747.923 -0.586411 3.33686 0
M  V30 8073 C 746.482 -1.04368 3.61641 0
M  V30 8074 C 745.629 -0.0913834 2.77149 0
M  V30 8075 H 748.58 0.417242 1.53117 0
M  V30 8076 H 748.601 -1.43591 3.52366 0
M  V30 8077 H 748.113 0.356701 3.86457 0
M  V30 8078 H 746.214 -2.00113 3.14302 0
M  V30 8079 H 746.327 -0.937549 4.69837 0
M  V30 8080 H 744.691 -0.592954 2.47702 0
M  V30 8081 H 745.474 0.846142 3.32709 0
M  V30 8082 N 747.919 -1.57396 -0.0801906 0
M  V30 8083 C 749.33 -1.75642 -0.633002 0
M  V30 8084 C 749.681 -0.817708 -1.78348 0
M  V30 8085 O 748.806 0.000233743 -2.164 0
M  V30 8086 C 749.401 -3.18502 -1.15507 0
M  V30 8087 C 747.96 -3.38121 -1.65381 0
M  V30 8088 C 747.107 -2.71386 -0.569661 0
M  V30 8089 H 750.058 -1.58027 0.145949 0
M  V30 8090 H 750.079 -3.22198 -2.02408 0
M  V30 8091 H 749.591 -3.86799 -0.317515 0
M  V30 8092 H 747.692 -2.74926 -2.51488 0
M  V30 8093 H 747.805 -4.46521 -1.73654 0
M  V30 8094 H 746.169 -2.33702 -1.0127 0
M  V30 8095 H 746.952 -3.42332 0.257561 0
M  V30 8096 N 749.397 0.351382 -1.53633 0
M  V30 8097 C 750.329 1.45159 -1.77374 0
M  V30 8098 C 751.342 1.4905 -0.654826 0
M  V30 8099 O 752.531 1.52274 -0.931396 0
M  V30 8100 C 749.631 2.83858 -1.85143 0
M  V30 8101 C 748.804 3.03498 -3.14972 0
M  V30 8102 C 747.863 4.22393 -3.138 0
M  V30 8103 O 746.889 4.16885 -3.87551 0
M  V30 8104 N 748.091 5.30533 -2.35617 0
M  V30 8105 H 750.856 1.25167 -2.72311 0
M  V30 8106 H 748.417 0.54121 -1.52586 0
M  V30 8107 H 750.409 3.61557 -1.8182 0
M  V30 8108 H 748.979 2.9703 -0.974275 0
M  V30 8109 H 748.199 2.13336 -3.31484 0
M  V30 8110 H 749.487 3.13498 -4.00745 0
M  V30 8111 H 748.885 5.37875 -1.75235 0
M  V30 8112 H 747.442 6.06756 -2.38098 0
M  V30 8113 N 750.875 1.45233 0.611969 0
M  V30 8114 C 751.825 1.49997 1.71711 0
M  V30 8115 C 752.809 0.363689 1.56736 0
M  V30 8116 O 754.001 0.610261 1.66147 0
M  V30 8117 C 751.13 1.46537 3.10454 0
M  V30 8118 C 750.216 2.65351 3.30831 0
M  V30 8119 N 750.607 3.90485 3.21489 0
M  V30 8120 C 748.905 2.60955 3.61688 0
M  V30 8121 C 749.606 4.69758 3.43078 0
M  V30 8122 N 748.582 4.01141 3.66861 0
M  V30 8123 H 752.384 2.44574 1.62975 0
M  V30 8124 H 749.898 1.40464 0.815082 0
M  V30 8125 H 751.895 1.48035 3.89732 0
M  V30 8126 H 750.555 0.530139 3.20343 0
M  V30 8127 H 751.566 4.22171 2.99987 0
M  V30 8128 H 748.243 1.76319 3.78441 0
M  V30 8129 H 749.633 5.7877 3.41285 0
M  V30 8130 N 752.353 -0.854086 1.3245 0
M  V30 8131 C 753.283 -1.97827 1.24044 0
M  V30 8132 C 754.264 -1.69646 0.124166 0
M  V30 8133 O 755.449 -1.91687 0.31143 0
M  V30 8134 C 752.579 -3.33673 0.963324 0
M  V30 8135 C 751.533 -3.76207 2.04089 0
M  V30 8136 C 750.859 -5.0969 1.61618 0
M  V30 8137 C 752.159 -3.91612 3.45597 0
M  V30 8138 H 753.853 -2.05118 2.18099 0
M  V30 8139 H 751.399 -0.985489 1.04996 0
M  V30 8140 H 753.352 -4.11871 0.891061 0
M  V30 8141 H 752.076 -3.26597 -0.0128649 0
M  V30 8142 H 750.735 -3.0026 2.10332 0
M  V30 8143 H 750.383 -4.99072 0.627418 0
M  V30 8144 H 750.083 -5.3912 2.33717 0
M  V30 8145 H 751.607 -5.90381 1.55829 0
M  V30 8146 H 753.021 -4.60163 3.4194 0
M  V30 8147 H 751.418 -4.3246 4.16051 0
M  V30 8148 H 752.488 -2.9451 3.85217 0
M  V30 8149 N 753.831 -1.1567 -1.07043 0
M  V30 8150 C 755.079 -0.931673 -1.79344 0
M  V30 8151 C 755.4 0.542421 -1.87304 0
M  V30 8152 O 754.67 1.39418 -1.37621 0
M  V30 8153 H 753.25 -0.34171 -0.664262 0
M  V30 8154 H 755.912 -1.45795 -1.29344 0
M  V30 8155 H 755.008 -1.34379 -2.81689 0
M  V30 8156 N 755.309 1.25446 -0.953992 0
M  V30 8157 C 756.557 1.92762 -0.607227 0
M  V30 8158 C 756.878 1.7509 0.858399 0
M  V30 8159 O 756.148 1.11416 1.61132 0
M  V30 8160 H 754.728 0.713377 -0.221591 0
M  V30 8161 H 757.39 1.52625 -1.21209 0
M  V30 8162 H 756.486 3.00695 -0.835998 0
M  V30 8163 N 756.787 0.722489 1.40064 0
M  V30 8164 C 758.033 0.265371 2.01056 0
M  V30 8165 C 758.366 -1.14062 1.57174 0
M  V30 8166 O 757.641 -1.77514 0.794916 0
M  V30 8167 C 757.924 0.353157 3.58364 0
M  V30 8168 C 757.777 1.79802 4.123 0
M  V30 8169 C 759.096 -0.271677 4.39261 0
M  V30 8170 H 756.215 0.0979002 0.730469 0
M  V30 8171 H 758.857 0.916289 1.66446 0
M  V30 8172 H 757.007 -0.201037 3.87979 0
M  V30 8173 H 758.679 2.40813 3.93455 0
M  V30 8174 H 756.922 2.32348 3.66329 0
M  V30 8175 H 757.593 1.81079 5.21454 0
M  V30 8176 H 760.069 0.200607 4.15616 0
M  V30 8177 H 758.945 -0.179843 5.48605 0
M  V30 8178 H 759.206 -1.35611 4.20787 0
M  V30 8179 N 758.265 -1.50454 0.469181 0
M  V30 8180 C 759.212 -2.28486 -0.325982 0
M  V30 8181 C 760.182 -1.33455 -0.988893 0
M  V30 8182 O 761.367 -1.6239 -1.0017 0
M  V30 8183 C 758.507 -3.15288 -1.40313 0
M  V30 8184 C 757.62 -4.25348 -0.755183 0
M  V30 8185 C 756.755 -4.9941 -1.81006 0
M  V30 8186 C 755.794 -6.01348 -1.14226 0
M  V30 8187 N 754.931 -6.68695 -2.1399 0
M  V30 8188 H 759.771 -2.95987 0.345753 0
M  V30 8189 H 757.308 -1.45965 0.182355 0
M  V30 8190 H 759.266 -3.63964 -2.03927 0
M  V30 8191 H 757.896 -2.49837 -2.04405 0
M  V30 8192 H 756.948 -3.80399 -0.00651901 0
M  V30 8193 H 758.26 -4.98279 -0.227941 0
M  V30 8194 H 757.414 -5.51794 -2.52206 0
M  V30 8195 H 756.153 -4.26181 -2.3711 0
M  V30 8196 H 755.158 -5.48225 -0.415876 0
M  V30 8197 H 756.383 -6.76548 -0.588135 0
M  V30 8198 H 754.329 -5.98258 -2.69115 0
M  V30 8199 H 754.246 -7.37495 -1.66246 0
M  V30 8200 H 755.514 -7.25697 -2.84576 0
M  V30 8201 N 759.743 -0.201713 -1.56304 0
M  V30 8202 C 760.69 0.716499 -2.19397 0
M  V30 8203 C 761.66 1.20494 -1.14326 0
M  V30 8204 O 762.845 1.26763 -1.42604 0
M  V30 8205 C 759.985 1.92762 -2.86246 0
M  V30 8206 C 759.098 1.47993 -4.0586 0
M  V30 8207 C 758.233 2.64706 -4.60547 0
M  V30 8208 C 757.272 2.16576 -5.72504 0
M  V30 8209 N 756.409 3.26491 -6.21569 0
M  V30 8210 H 761.249 0.171724 -2.97505 0
M  V30 8211 H 758.786 0.073016 -1.46919 0
M  V30 8212 H 760.744 2.6384 -3.23178 0
M  V30 8213 H 759.374 2.44559 -2.10691 0
M  V30 8214 H 758.426 0.66477 -3.74546 0
M  V30 8215 H 759.738 1.08686 -4.86815 0
M  V30 8216 H 758.892 3.43898 -4.99819 0
M  V30 8217 H 757.631 3.0729 -3.78713 0
M  V30 8218 H 756.636 1.3584 -5.32755 0
M  V30 8219 H 757.861 1.75015 -6.56161 0
M  V30 8220 H 755.807 3.68594 -5.42655 0
M  V30 8221 H 755.724 2.91374 -6.97594 0
M  V30 8222 H 756.992 4.05877 -6.65495 0
M  V30 8223 N 761.222 1.57436 0.0718424 0
M  V30 8224 C 762.633 1.75975 0.623678 0
M  V30 8225 C 762.984 0.827155 1.77912 0
M  V30 8226 O 762.109 0.0112425 2.16397 0
M  V30 8227 C 762.704 3.1911 1.13816 0
M  V30 8228 C 761.263 3.38994 1.63586 0
M  V30 8229 C 760.41 2.71684 0.555261 0
M  V30 8230 H 763.361 1.57948 -0.154328 0
M  V30 8231 H 763.382 3.23267 2.00696 0
M  V30 8232 H 762.894 3.86962 0.296998 0
M  V30 8233 H 760.995 2.76256 2.50027 0
M  V30 8234 H 761.108 4.47436 1.71283 0
M  V30 8235 H 759.472 2.34236 1.00029 0
M  V30 8236 H 760.255 3.42191 -0.275712 0
M  V30 8237 N 762.7 -0.34323 1.53817 0
M  V30 8238 C 763.928 -1.10348 1.75017 0
M  V30 8239 C 764.343 -1.82345 0.489475 0
M  V30 8240 O 763.7 -1.74362 -0.538886 0
M  V30 8241 C 763.751 -2.11672 2.93048 0
M  V30 8242 O 763.472 -1.42603 4.14241 0
M  V30 8243 C 764.973 -3.0007 3.26301 0
M  V30 8244 H 762.193 -0.329056 0.584776 0
M  V30 8245 H 764.737 -0.395339 2.00642 0
M  V30 8246 H 762.892 -2.78051 2.69753 0
M  V30 8247 H 763.306 -2.10294 4.80496 0
M  V30 8248 H 764.78 -3.67101 4.12239 0
M  V30 8249 H 765.257 -3.66105 2.42618 0
M  V30 8250 H 765.863 -2.3928 3.51604 0
M  V30 8251 N 764.178 -1.45556 -0.604258 0
M  V30 8252 C 765.408 -1.53056 -1.38771 0
M  V30 8253 C 765.816 -0.163092 -1.88496 0
M  V30 8254 O 765.159 0.846157 -1.63052 0
M  V30 8255 C 765.221 -2.45656 -2.62476 0
M  V30 8256 C 764.885 -3.92328 -2.34367 0
M  V30 8257 C 765.882 -4.82137 -1.94525 0
M  V30 8258 C 763.567 -4.37275 -2.47177 0
M  V30 8259 C 765.561 -6.14901 -1.67856 0
M  V30 8260 C 763.248 -5.70079 -2.20122 0
M  V30 8261 C 764.246 -6.58711 -1.80524 0
M  V30 8262 O 763.934 -7.89053 -1.53788 0
M  V30 8263 H 763.666 -0.520721 -0.431075 0
M  V30 8264 H 766.22 -1.91464 -0.743693 0
M  V30 8265 H 764.45 -2.02225 -3.29609 0
M  V30 8266 H 766.139 -2.43802 -3.24523 0
M  V30 8267 H 766.905 -4.48675 -1.84162 0
M  V30 8268 H 762.784 -3.68527 -2.76964 0
M  V30 8269 H 766.328 -6.8404 -1.36874 0
M  V30 8270 H 762.225 -6.03095 -2.30102 0
M  V30 8271 H 762.993 -8.01113 -1.67812 0
M  V30 8272 N 765.656 0.84705 -1.32902 0
M  V30 8273 C 766.933 1.58583 -1.14503 0
M  V30 8274 C 767.313 2.09075 0.291724 0
M  V30 8275 O 766.661 1.88636 1.28952 0
M  V30 8276 C 766.871 2.72605 -2.17916 0
M  V30 8277 C 768.219 3.41993 -2.51646 0
M  V30 8278 O 769.243 2.82838 -2.1652 0
M  V30 8279 O 768.102 4.48761 -3.1189 0
M  V30 8280 H 765.196 0.698756 -0.442345 0
M  V30 8281 H 767.742 0.890516 -1.44457 0
M  V30 8282 H 766.514 2.32876 -3.14459 0
M  V30 8283 H 766.137 3.49807 -1.89 0
M  V30 8284 N 767.134 1.16236 1.06428 0
M  V30 8285 C 768.545 0.950942 1.60667 0
M  V30 8286 C 768.896 -0.505491 1.89576 0
M  V30 8287 O 768.021 -1.37843 1.66818 0
M  V30 8288 C 768.616 1.71982 2.91904 0
M  V30 8289 C 767.175 1.55342 3.4285 0
M  V30 8290 C 766.322 1.72942 2.16763 0
M  V30 8291 H 769.273 1.31126 0.893959 0
M  V30 8292 H 769.294 1.19483 3.61253 0
M  V30 8293 H 768.806 2.77978 2.70831 0
M  V30 8294 H 766.907 0.5178 3.68985 0
M  V30 8295 H 767.02 2.33643 4.18267 0
M  V30 8296 H 765.384 1.15673 2.26918 0
M  V30 8297 H 766.167 2.80324 1.98175 0
M  V30 8298 N 768.612 -1.24939 0.960631 0
M  V30 8299 C 769.858 -1.93104 0.61958 0
M  V30 8300 C 770.191 -1.74991 -0.84212 0
M  V30 8301 O 769.466 -1.09867 -1.60498 0
M  V30 8302 C 769.749 -3.46326 0.986422 0
M  V30 8303 C 769.602 -3.73638 2.50429 0
M  V30 8304 C 770.921 -4.37067 0.515827 0
M  V30 8305 H 768.04 -0.701311 0.226566 0
M  V30 8306 H 770.682 -1.47442 1.19836 0
M  V30 8307 H 768.832 -3.85348 0.493907 0
M  V30 8308 H 770.504 -3.44217 3.07103 0
M  V30 8309 H 768.747 -3.19035 2.93937 0
M  V30 8310 H 769.418 -4.80815 2.71147 0
M  V30 8311 H 771.894 -4.05381 0.938389 0
M  V30 8312 H 770.77 -5.43022 0.80114 0
M  V30 8313 H 771.031 -4.38224 -0.584171 0
M  V30 8314 N 770.09 -0.729906 -1.39679 0
M  V30 8315 C 771.315 -0.284345 -2.05442 0
M  V30 8316 C 771.74 1.07056 -1.54663 0
M  V30 8317 O 771.098 1.67732 -0.688157 0
M  V30 8318 C 771.146 -0.290089 -3.59431 0
M  V30 8319 O 770.25 0.723978 -4.05995 0
M  V30 8320 H 769.591 -0.130311 -0.651088 0
M  V30 8321 H 772.121 -0.994403 -1.78809 0
M  V30 8322 H 772.131 -0.132712 -4.07784 0
M  V30 8323 H 770.806 -1.27877 -3.95753 0
M  V30 8324 H 769.383 0.533154 -3.69069 0
M  V30 8325 N 771.568 1.50203 -0.477153 0
M  V30 8326 C 772.478 2.32421 0.319027 0
M  V30 8327 C 773.494 1.43075 0.990233 0
M  V30 8328 O 774.67 1.76123 0.976873 0
M  V30 8329 C 771.735 3.17909 1.38328 0
M  V30 8330 C 770.796 4.23082 0.728036 0
M  V30 8331 C 770.029 5.04484 1.74158 0
M  V30 8332 O 770.252 4.8705 2.96881 0
M  V30 8333 O 769.186 5.8747 1.31006 0
M  V30 8334 H 773.012 3.01638 -0.353281 0
M  V30 8335 H 770.597 1.47478 -0.238891 0
M  V30 8336 H 772.479 3.70937 1.9996 0
M  V30 8337 H 771.154 2.51413 2.03895 0
M  V30 8338 H 770.061 3.7403 0.07261 0
M  V30 8339 H 771.394 4.92065 0.115216 0
M  V30 8340 N 773.046 0.209999 1.56195 0
M  V30 8341 C 774.323 -0.473214 1.89789 0
M  V30 8342 C 774.703 -1.78581 1.1257 0
M  V30 8343 O 774.051 -2.27325 0.231398 0
M  V30 8344 C 774.261 -0.677458 3.42362 0
M  V30 8345 C 775.609 -0.990114 4.12895 0
M  V30 8346 O 776.633 -0.764655 3.47896 0
M  V30 8347 O 775.492 -1.41737 5.278 0
M  V30 8348 H 772.586 -0.248622 0.788743 0
M  V30 8349 H 775.132 0.251324 1.67829 0
M  V30 8350 H 773.904 0.248878 3.90508 0
M  V30 8351 H 773.527 -1.45391 3.70064 0
M  V30 8352 N 774.524 -1.57472 -0.0634922 0
M  V30 8353 C 775.456 -2.00999 -1.10145 0
M  V30 8354 C 776.469 -0.917219 -1.34503 0
M  V30 8355 O 777.658 -1.19501 -1.32596 0
M  V30 8356 C 774.758 -2.34089 -2.45063 0
M  V30 8357 C 773.931 -3.65317 -2.40546 0
M  V30 8358 C 772.99 -3.85982 -3.57637 0
M  V30 8359 O 772.016 -4.5747 -3.38689 0
M  V30 8360 N 773.218 -3.28971 -4.78287 0
M  V30 8361 H 775.983 -2.90656 -0.730714 0
M  V30 8362 H 773.544 -1.59926 -0.252017 0
M  V30 8363 H 775.536 -2.4508 -3.22053 0
M  V30 8364 H 774.106 -1.50279 -2.74107 0
M  V30 8365 H 773.326 -3.65003 -1.48885 0
M  V30 8366 H 774.614 -4.51468 -2.34636 0
M  V30 8367 H 774.012 -2.70962 -4.96584 0
M  V30 8368 H 772.569 -3.45398 -5.5276 0
M  V30 8369 N 776.003 0.335068 -1.53997 0
M  V30 8370 C 777.28 1.09188 -1.62288 0
M  V30 8371 C 777.66 2.0626 -0.449458 0
M  V30 8372 O 777.008 2.21596 0.557444 0
M  V30 8373 C 777.218 1.80403 -2.98757 0
M  V30 8374 C 778.566 2.33841 -3.54406 0
M  V30 8375 O 779.59 1.90487 -3.00987 0
M  V30 8376 O 778.449 3.1318 -4.47862 0
M  V30 8377 H 775.543 0.502621 -0.656736 0
M  V30 8378 H 778.089 0.33588 -1.66343 0
M  V30 8379 H 776.861 1.09732 -3.75599 0
M  V30 8380 H 776.484 2.62841 -2.9833 0
M  V30 8381 N 777.481 1.45874 0.596531 0
M  V30 8382 C 778.892 1.44798 1.17857 0
M  V30 8383 C 779.243 0.181443 1.95359 0
M  V30 8384 O 778.368 -0.716336 2.042 0
M  V30 8385 C 778.963 2.62333 2.14398 0
M  V30 8386 C 777.522 2.64342 2.67955 0
M  V30 8387 C 776.669 2.37244 1.43564 0
M  V30 8388 H 779.62 1.53954 0.385222 0
M  V30 8389 H 779.641 2.37063 2.97626 0
M  V30 8390 H 779.153 3.54499 1.57963 0
M  V30 8391 H 777.254 1.76213 3.28298 0
M  V30 8392 H 777.367 3.63897 3.11634 0
M  V30 8393 H 775.731 1.87022 1.72901 0
M  V30 8394 H 776.514 3.31568 0.889805 0
M  V30 8395 N 778.959 -0.83999 1.33349 0
M  V30 8396 C 779.889 -1.965 1.26135 0
M  V30 8397 C 780.87 -1.69505 0.142152 0
M  V30 8398 O 782.055 -1.91346 0.331743 0
M  V30 8399 C 779.185 -3.32632 0.99866 0
M  V30 8400 C 778.139 -3.74021 2.08068 0
M  V30 8401 C 777.465 -5.07947 1.67014 0
M  V30 8402 C 778.765 -3.87925 3.49731 0
M  V30 8403 H 780.459 -2.02793 2.20262 0
M  V30 8404 H 778.005 -0.974297 1.06035 0
M  V30 8405 H 779.958 -4.10903 0.934696 0
M  V30 8406 H 778.682 -3.26593 0.0217759 0
M  V30 8407 H 777.341 -2.98012 2.13505 0
M  V30 8408 H 776.989 -4.98378 0.680316 0
M  V30 8409 H 776.689 -5.36611 2.39422 0
M  V30 8410 H 778.213 -5.88695 1.62082 0
M  V30 8411 H 779.627 -4.5651 3.46802 0
M  V30 8412 H 778.024 -4.28023 4.20614 0
M  V30 8413 H 779.094 -2.90407 3.88319 0
M  V30 8414 N 780.437 -1.16799 -1.0581 0
M  V30 8415 C 781.662 -0.977402 -1.82925 0
M  V30 8416 C 782.087 0.469514 -1.82146 0
M  V30 8417 O 781.445 1.33576 -1.22585 0
M  V30 8418 C 781.493 -1.51543 -3.27211 0
M  V30 8419 O 780.597 -0.725021 -4.05977 0
M  V30 8420 H 779.938 -0.347474 -0.565825 0
M  V30 8421 H 782.468 -1.55151 -1.33376 0
M  V30 8422 H 782.478 -1.53502 -3.78023 0
M  V30 8423 H 781.153 -2.56872 -3.27093 0
M  V30 8424 H 779.73 -0.77634 -3.64729 0
M  V30 8425 N 781.915 1.24427 -0.967243 0
M  V30 8426 C 783.14 1.9708 -0.646069 0
M  V30 8427 C 783.565 1.71272 0.777665 0
M  V30 8428 O 782.923 0.976179 1.52776 0
M  V30 8429 C 782.971 3.48501 -0.926266 0
M  V30 8430 O 782.075 4.12398 -0.0114653 0
M  V30 8431 H 781.416 0.617423 -0.244304 0
M  V30 8432 H 783.946 1.58215 -1.29727 0
M  V30 8433 H 783.956 3.98885 -0.857619 0
M  V30 8434 H 782.631 3.66613 -1.96386 0
M  V30 8435 H 781.208 3.72661 -0.133396 0
M  V30 8436 N 783.393 0.737304 1.3929 0
M  V30 8437 C 784.67 0.212464 1.94443 0
M  V30 8438 C 785.05 -1.28621 1.67391 0
M  V30 8439 O 784.398 -2.0529 1.00342 0
M  V30 8440 C 784.608 0.548565 3.44662 0
M  V30 8441 C 785.956 0.499177 4.21656 0
M  V30 8442 O 786.98 0.485892 3.5287 0
M  V30 8443 O 785.839 0.495739 5.44247 0
M  V30 8444 H 782.933 0.0395457 0.826054 0
M  V30 8445 H 785.479 0.816319 1.48776 0
M  V30 8446 H 784.251 1.58426 3.57795 0
M  V30 8447 H 783.874 -0.0841399 3.97511 0
M  V30 8448 N 784.871 -1.49948 0.485112 0
M  V30 8449 C 786.118 -2.02396 -0.0650059 0
M  V30 8450 C 786.446 -1.36606 -1.38452 0
M  V30 8451 O 785.701 -0.485476 -1.89583 0
M  V30 8452 C 786 -3.56282 -0.282434 0
M  V30 8453 C 785.666 -4.40625 0.957106 0
M  V30 8454 C 784.328 -4.63393 1.29692 0
M  V30 8455 C 786.68 -4.89799 1.78176 0
M  V30 8456 C 784.008 -5.3258 2.4612 0
M  V30 8457 C 786.36 -5.60266 2.93743 0
M  V30 8458 C 785.024 -5.81284 3.28124 0
M  V30 8459 H 784.294 -0.740618 -0.0237873 0
M  V30 8460 H 786.941 -1.80416 0.642044 0
M  V30 8461 H 785.246 -3.76853 -1.07186 0
M  V30 8462 H 786.943 -3.94442 -0.722276 0
M  V30 8463 H 783.533 -4.23133 0.682384 0
M  V30 8464 H 787.717 -4.7205 1.53239 0
M  V30 8465 H 782.973 -5.47059 2.73014 0
M  V30 8466 H 787.147 -5.97347 3.5798 0
M  V30 8467 H 784.774 -6.34671 4.18446 0
M  V30 8468 N 786.349 -0.21828 -1.56081 0
M  V30 8469 C 787.296 0.693189 -2.20144 0
M  V30 8470 C 788.266 1.19274 -1.15598 0
M  V30 8471 O 789.451 1.25243 -1.4394 0
M  V30 8472 C 786.591 1.89715 -2.88275 0
M  V30 8473 C 785.704 1.4368 -4.07407 0
M  V30 8474 C 784.839 2.59807 -4.63329 0
M  V30 8475 C 783.878 2.10492 -5.74769 0
M  V30 8476 N 783.015 3.1988 -6.24997 0
M  V30 8477 H 787.855 0.14016 -2.9767 0
M  V30 8478 H 785.392 0.0574292 -1.46988 0
M  V30 8479 H 787.35 2.60398 -3.25958 0
M  V30 8480 H 785.98 2.42311 -2.13273 0
M  V30 8481 H 785.032 0.625007 -3.7523 0
M  V30 8482 H 786.344 1.03517 -4.8794 0
M  V30 8483 H 785.498 3.38577 -5.03438 0
M  V30 8484 H 784.237 3.03256 -3.81951 0
M  V30 8485 H 783.242 1.30182 -5.34165 0
M  V30 8486 H 784.467 1.68045 -6.5798 0
M  V30 8487 H 782.413 3.62817 -5.46534 0
M  V30 8488 H 782.33 2.83958 -7.00645 0
M  V30 8489 H 783.598 3.98796 -6.69763 0
M  V30 8490 N 787.827 1.57504 0.0551401 0
M  V30 8491 C 789.243 1.54236 0.410292 0
M  V30 8492 C 789.443 0.940839 1.78187 0
M  V30 8493 O 788.499 0.550541 2.46425 0
M  V30 8494 C 789.812 2.98816 0.336064 0
M  V30 8495 C 791.36 3.10236 0.415047 0
M  V30 8496 C 791.835 4.56499 0.37055 0
M  V30 8497 N 793.326 4.61199 0.43013 0
M  V30 8498 C 794.061 5.71873 0.418179 0
M  V30 8499 N 793.557 6.91864 0.360056 0
M  V30 8500 N 795.35 5.60165 0.465977 0
M  V30 8501 H 787.501 1.94965 -0.842759 0
M  V30 8502 H 789.764 0.893096 -0.317937 0
M  V30 8503 H 789.47 3.4645 -0.605429 0
M  V30 8504 H 789.344 3.59564 1.13988 0
M  V30 8505 H 791.731 2.62566 1.34697 0
M  V30 8506 H 791.812 2.52367 -0.417648 0
M  V30 8507 H 791.456 5.0483 -0.557592 0
M  V30 8508 H 791.386 5.12249 1.221 0
M  V30 8509 H 793.877 3.74857 0.478623 0
M  V30 8510 H 794.19 7.71983 0.35532 0
M  V30 8511 H 792.535 6.94233 0.326492 0
M  V30 8512 H 795.726 4.65322 0.509194 0
M  V30 8513 H 795.899 6.46413 0.453194 0
M  V30 8514 N 789.305 -0.326896 1.54172 0
M  V30 8515 C 790.235 -1.40741 1.86317 0
M  V30 8516 C 791.216 -1.54125 0.719684 0
M  V30 8517 O 792.401 -1.6806 0.973117 0
M  V30 8518 C 789.531 -2.77557 2.08757 0
M  V30 8519 C 788.485 -2.78965 3.24596 0
M  V30 8520 C 787.811 -4.18824 3.32401 0
M  V30 8521 C 789.111 -2.4301 4.62324 0
M  V30 8522 H 790.805 -1.14088 2.76811 0
M  V30 8523 H 788.351 -0.547389 1.3319 0
M  V30 8524 H 790.304 -3.53209 2.29829 0
M  V30 8525 H 789.028 -3.0568 1.15009 0
M  V30 8526 H 787.687 -2.05767 3.03406 0
M  V30 8527 H 787.335 -4.44083 2.36218 0
M  V30 8528 H 787.035 -4.20673 4.10253 0
M  V30 8529 H 788.559 -4.96294 3.55703 0
M  V30 8530 H 789.973 -3.08375 4.83299 0
M  V30 8531 H 788.37 -2.56116 5.42701 0
M  V30 8532 H 789.44 -1.38165 4.64799 0
M  V30 8533 N 790.784 -1.46188 -0.588786 0
M  V30 8534 C 792.032 -1.50885 -1.34455 0
M  V30 8535 C 792.353 -0.159555 -1.94346 0
M  V30 8536 O 791.623 0.813239 -1.78222 0
M  V30 8537 H 790.203 -0.555707 -0.499198 0
M  V30 8538 H 792.865 -1.82277 -0.690014 0
M  V30 8539 H 791.961 -2.25816 -2.15438 0
M  V30 8540 N 792.262 0.832906 -1.33792 0
M  V30 8541 C 793.192 1.95828 -1.27176 0
M  V30 8542 C 794.173 1.69427 -0.15114 0
M  V30 8543 O 795.358 1.91167 -0.341886 0
M  V30 8544 C 792.488 3.32098 -1.01629 0
M  V30 8545 C 791.442 3.72912 -2.10049 0
M  V30 8546 C 790.768 5.07054 -1.69706 0
M  V30 8547 C 792.068 3.86064 -3.51783 0
M  V30 8548 H 793.762 2.01622 -2.21334 0
M  V30 8549 H 791.308 0.96866 -1.0655 0
M  V30 8550 H 793.261 4.10402 -0.956474 0
M  V30 8551 H 791.985 3.26577 -0.0390956 0
M  V30 8552 H 790.644 2.96876 -2.15082 0
M  V30 8553 H 790.292 4.9801 -0.706737 0
M  V30 8554 H 789.992 5.35333 -2.42264 0
M  V30 8555 H 791.516 5.87827 -1.65202 0
M  V30 8556 H 792.93 4.54665 -3.49218 0
M  V30 8557 H 791.327 4.25787 -4.22878 0
M  V30 8558 H 792.397 2.88344 -3.89854 0
M  V30 8559 N 793.74 1.17359 1.05189 0
M  V30 8560 C 795.156 0.920861 1.30355 0
M  V30 8561 C 795.356 -0.419993 1.97074 0
M  V30 8562 O 794.412 -1.15696 2.24434 0
M  V30 8563 C 795.725 2.07818 2.1733 0
M  V30 8564 C 797.273 2.1152 2.30712 0
M  V30 8565 C 797.748 3.26637 3.21048 0
M  V30 8566 N 799.239 3.26426 3.28634 0
M  V30 8567 C 799.974 4.12141 3.98657 0
M  V30 8568 N 799.47 5.07966 4.71107 0
M  V30 8569 N 801.263 4.00091 3.94821 0
M  V30 8570 H 793.414 2.03666 0.602821 0
M  V30 8571 H 795.677 0.889294 0.328421 0
M  V30 8572 H 795.383 3.04727 1.75597 0
M  V30 8573 H 795.257 2.02922 3.17966 0
M  V30 8574 H 797.644 1.15196 2.71687 0
M  V30 8575 H 797.725 2.20477 1.29706 0
M  V30 8576 H 797.369 4.23227 2.80788 0
M  V30 8577 H 797.299 3.14917 4.2206 0
M  V30 8578 H 799.79 2.57045 2.77013 0
M  V30 8579 H 800.103 5.69766 5.22099 0
M  V30 8580 H 798.448 5.11936 4.7005 0
M  V30 8581 H 801.639 3.24523 3.37346 0
M  V30 8582 H 801.812 4.6711 4.49123 0
M  V30 8583 N 795.218 -1.23913 0.973828 0
M  V30 8584 C 796.165 -2.25132 0.508366 0
M  V30 8585 C 797.135 -1.59908 -0.449307 0
M  V30 8586 O 798.32 -1.87405 -0.358313 0
M  V30 8587 C 795.46 -3.4458 -0.189422 0
M  V30 8588 C 794.573 -4.24381 0.807738 0
M  V30 8589 C 793.708 -5.31131 0.0854315 0
M  V30 8590 C 792.747 -6.02635 1.07225 0
M  V30 8591 N 791.884 -7.01073 0.379535 0
M  V30 8592 H 796.724 -2.64313 1.37632 0
M  V30 8593 H 794.261 -1.29924 0.689802 0
M  V30 8594 H 796.219 -4.12706 -0.610733 0
M  V30 8595 H 794.849 -3.06218 -1.02129 0
M  V30 8596 H 793.901 -3.55735 1.34747 0
M  V30 8597 H 795.213 -4.73778 1.55998 0
M  V30 8598 H 794.367 -6.05422 -0.393572 0
M  V30 8599 H 793.106 -4.82658 -0.699461 0
M  V30 8600 H 792.111 -5.27143 1.56207 0
M  V30 8601 H 793.336 -6.53197 1.85769 0
M  V30 8602 H 791.282 -6.54862 -0.386269 0
M  V30 8603 H 791.199 -7.48382 1.07054 0
M  V30 8604 H 792.467 -7.79462 -0.0772984 0
M  V30 8605 N 796.696 -0.74468 -1.38897 0
M  V30 8606 C 798.107 -0.36568 -1.83084 0
M  V30 8607 C 798.458 1.10436 -1.62168 0
M  V30 8608 O 797.583 1.85281 -1.11804 0
M  V30 8609 C 798.178 -0.656946 -3.3237 0
M  V30 8610 C 796.737 -0.331329 -3.74939 0
M  V30 8611 C 795.884 -0.914661 -2.61781 0
M  V30 8612 H 798.835 -0.941551 -1.27752 0
M  V30 8613 H 798.856 0.0679546 -3.80439 0
M  V30 8614 H 798.368 -1.72693 -3.47561 0
M  V30 8615 H 796.469 0.732426 -3.6533 0
M  V30 8616 H 796.582 -0.820655 -4.72019 0
M  V30 8617 H 794.946 -0.34063 -2.52412 0
M  V30 8618 H 795.729 -1.98949 -2.79775 0
M  V30 8619 N 798.174 1.49689 -0.493057 0
M  V30 8620 C 799.422 2.02027 0.0541642 0
M  V30 8621 C 799.743 1.37554 1.38217 0
M  V30 8622 O 799.013 0.528174 1.88646 0
M  V30 8623 H 797.593 0.746646 0.0230069 0
M  V30 8624 H 800.255 1.83795 -0.648489 0
M  V30 8625 H 799.351 3.11523 0.189652 0
M  V30 8626 N 799.652 0.226554 1.55963 0
M  V30 8627 C 800.582 -0.676079 2.23498 0
M  V30 8628 C 801.563 -1.19718 1.20837 0
M  V30 8629 O 802.748 -1.24027 1.49436 0
M  V30 8630 C 799.878 -1.88217 2.91876 0
M  V30 8631 C 798.832 -1.4947 4.01052 0
M  V30 8632 C 798.158 -2.77997 4.56751 0
M  V30 8633 C 799.458 -0.680951 5.17842 0
M  V30 8634 H 801.152 -0.112989 2.99187 0
M  V30 8635 H 798.698 -0.0529046 1.43903 0
M  V30 8636 H 800.651 -2.51911 3.37815 0
M  V30 8637 H 799.375 -2.47031 2.13643 0
M  V30 8638 H 798.034 -0.881199 3.55852 0
M  V30 8639 H 797.682 -3.34966 3.75243 0
M  V30 8640 H 797.382 -2.52803 5.30438 0
M  V30 8641 H 798.906 -3.42625 5.05411 0
M  V30 8642 H 800.32 -1.22171 5.60131 0
M  V30 8643 H 798.717 -0.525898 5.97791 0
M  V30 8644 H 799.787 0.311346 4.83899 0
M  V30 8645 N 801.13 -1.57531 -0.0467866 0
M  V30 8646 C 802.541 -1.76945 -0.595603 0
M  V30 8647 C 802.892 -0.855354 -1.76573 0
M  V30 8648 O 802.017 -0.045668 -2.16352 0
M  V30 8649 C 802.612 -3.20881 -1.08725 0
M  V30 8650 C 801.171 -3.41553 -1.58172 0
M  V30 8651 C 800.318 -2.72533 -0.511968 0
M  V30 8652 H 803.269 -1.57682 0.179436 0
M  V30 8653 H 803.29 -3.26419 -1.95528 0
M  V30 8654 H 802.802 -3.87385 -0.235398 0
M  V30 8655 H 800.903 -2.80199 -2.456 0
M  V30 8656 H 801.016 -4.50104 -1.64143 0
M  V30 8657 H 799.38 -2.35797 -0.962899 0
M  V30 8658 H 800.163 -3.41709 0.330117 0
M  V30 8659 N 802.608 0.318715 -1.54344 0
M  V30 8660 C 804.024 0.663345 -1.45162 0
M  V30 8661 C 804.224 1.9145 -0.62842 0
M  V30 8662 O 803.28 2.5217 -0.129126 0
M  V30 8663 C 804.593 0.832836 -2.88937 0
M  V30 8664 C 806.141 0.929866 -2.98869 0
M  V30 8665 C 806.616 1.13149 -4.43803 0
M  V30 8666 N 808.107 1.19811 -4.47437 0
M  V30 8667 C 808.842 1.37209 -5.56742 0
M  V30 8668 N 808.338 1.51619 -6.76006 0
M  V30 8669 N 810.131 1.39956 -5.44398 0
M  V30 8670 H 802.282 -0.50357 -2.06344 0
M  V30 8671 H 804.545 -0.163528 -0.933789 0
M  V30 8672 H 804.251 -0.0153519 -3.51697 0
M  V30 8673 H 804.125 1.72721 -3.35332 0
M  V30 8674 H 806.512 1.76855 -2.36233 0
M  V30 8675 H 806.593 0.0118561 -2.55797 0
M  V30 8676 H 806.237 0.297636 -5.07027 0
M  V30 8677 H 806.167 2.06345 -4.84489 0
M  V30 8678 H 808.658 1.101 -3.61506 0
M  V30 8679 H 808.971 1.64599 -7.55067 0
M  V30 8680 H 807.316 1.48708 -6.78904 0
M  V30 8681 H 810.507 1.28298 -4.50175 0
M  V30 8682 H 810.68 1.53172 -6.29637 0
M  V30 8683 N 804.086 1.46499 0.581025 0
M  V30 8684 C 805.334 1.51596 1.33653 0
M  V30 8685 C 805.655 0.169859 1.94259 0
M  V30 8686 O 804.925 -0.803776 1.78651 0
M  V30 8687 H 803.505 0.558346 0.496244 0
M  V30 8688 H 806.167 1.8264 0.680338 0
M  V30 8689 H 805.263 2.26956 2.14237 0
M  V30 8690 N 805.565 -0.825799 1.34232 0
M  V30 8691 C 806.495 -1.95151 1.28212 0
M  V30 8692 C 807.476 -1.69345 0.160123 0
M  V30 8693 O 808.661 -1.90983 0.352019 0
M  V30 8694 C 805.791 -3.31554 1.03388 0
M  V30 8695 C 804.745 -3.71793 2.12023 0
M  V30 8696 C 804.071 -5.06147 1.72392 0
M  V30 8697 C 805.371 -3.84193 3.53826 0
M  V30 8698 H 807.065 -2.00445 2.22401 0
M  V30 8699 H 804.611 -0.962996 1.07063 0
M  V30 8700 H 806.564 -4.09889 0.978225 0
M  V30 8701 H 805.288 -3.26551 0.0564142 0
M  V30 8702 H 803.947 -2.95731 2.16654 0
M  V30 8703 H 803.595 -4.97628 0.733137 0
M  V30 8704 H 803.295 -5.34041 2.451 0
M  V30 8705 H 804.819 -5.86943 1.68317 0
M  V30 8706 H 806.233 -4.52806 3.51624 0
M  V30 8707 H 804.63 -4.23538 4.2513 0
M  V30 8708 H 805.7 -2.86272 3.91377 0
M  V30 8709 N 807.043 -1.17915 -1.04565 0
M  V30 8710 C 808.289 -0.982872 -1.78076 0
M  V30 8711 C 808.644 0.482843 -1.86243 0
M  V30 8712 O 807.937 1.35383 -1.3558 0
M  V30 8713 C 808.131 -1.56528 -3.213 0
M  V30 8714 C 807.96 -3.0861 -3.27093 0
M  V30 8715 C 806.73 -3.77389 -3.36014 0
M  V30 8716 C 808.928 -4.06146 -3.15515 0
M  V30 8717 N 806.91 -5.1702 -3.31004 0
M  V30 8718 C 808.281 -5.32268 -3.17948 0
M  V30 8719 C 810.336 -3.97732 -2.99522 0
M  V30 8720 C 809.039 -6.50951 -3.06031 0
M  V30 8721 C 811.065 -5.16007 -2.88948 0
M  V30 8722 C 810.427 -6.41018 -2.9202 0
M  V30 8723 H 806.526 -0.413617 -0.66366 0
M  V30 8724 H 809.11 -1.49607 -1.24603 0
M  V30 8725 H 807.281 -1.07833 -3.73131 0
M  V30 8726 H 809.013 -1.30501 -3.83082 0
M  V30 8727 H 805.768 -3.28098 -3.41538 0
M  V30 8728 H 806.192 -5.90031 -3.31952 0
M  V30 8729 H 810.834 -3.01919 -2.95981 0
M  V30 8730 H 808.552 -7.46968 -3.08326 0
M  V30 8731 H 812.138 -5.11283 -2.77635 0
M  V30 8732 H 811.018 -7.30999 -2.83919 0
M  V30 8733 N 808.521 1.23394 -0.980386 0
M  V30 8734 C 809.451 2.2717 -0.540024 0
M  V30 8735 C 810.432 1.64659 0.426787 0
M  V30 8736 O 811.617 1.91543 0.320153 0
M  V30 8737 C 808.747 3.46939 0.15836 0
M  V30 8738 C 807.701 4.21802 -0.725732 0
M  V30 8739 C 807.027 5.34597 0.104866 0
M  V30 8740 C 808.327 4.81802 -2.01654 0
M  V30 8741 H 810.021 2.64257 -1.40743 0
M  V30 8742 H 807.567 1.2703 -0.678193 0
M  V30 8743 H 809.52 4.18683 0.477737 0
M  V30 8744 H 808.244 3.08912 1.06022 0
M  V30 8745 H 806.903 3.51875 -1.02857 0
M  V30 8746 H 806.551 4.92812 1.00726 0
M  V30 8747 H 806.251 5.85607 -0.483557 0
M  V30 8748 H 807.775 6.09163 0.418624 0
M  V30 8749 H 809.189 5.45554 -1.76193 0
M  V30 8750 H 807.586 5.43098 -2.55273 0
M  V30 8751 H 808.656 4.02549 -2.70338 0
M  V30 8752 N 809.999 0.752036 1.385 0
M  V30 8753 C 810.962 0.131587 2.28822 0
M  V30 8754 C 811.962 -0.649149 1.47115 0
M  V30 8755 O 813.152 -0.475645 1.67581 0
M  V30 8756 C 810.284 -0.822101 3.30839 0
M  V30 8757 H 811.477 0.927551 2.85196 0
M  V30 8758 H 809.03 0.518945 1.47434 0
M  V30 8759 H 809.765 -1.6438 2.79553 0
M  V30 8760 H 809.55 -0.264689 3.91206 0
M  V30 8761 H 811.04 -1.25226 3.98382 0
M  V30 8762 N 811.477 -1.49425 0.500989 0
M  V30 8763 C 812.424 -2.29126 -0.277443 0
M  V30 8764 C 813.394 -1.35522 -0.960363 0
M  V30 8765 O 814.579 -1.64479 -0.967027 0
M  V30 8766 C 811.719 -3.18193 -1.33593 0
M  V30 8767 C 810.832 -4.26854 -0.664791 0
M  V30 8768 C 809.967 -5.03137 -1.70372 0
M  V30 8769 C 809.006 -6.03635 -1.01445 0
M  V30 8770 N 808.143 -6.73083 -1.99758 0
M  V30 8771 H 812.983 -2.95187 0.408458 0
M  V30 8772 H 810.52 -1.45546 0.213275 0
M  V30 8773 H 812.478 -3.68207 -1.96161 0
M  V30 8774 H 811.108 -2.54116 -1.9906 0
M  V30 8775 H 810.16 -3.80328 0.0741708 0
M  V30 8776 H 811.472 -4.9865 -0.122197 0
M  V30 8777 H 810.626 -5.5702 -2.40445 0
M  V30 8778 H 809.365 -4.31114 -2.28017 0
M  V30 8779 H 808.37 -5.48984 -0.299496 0
M  V30 8780 H 809.595 -6.77644 -0.444497 0
M  V30 8781 H 807.541 -6.03832 -2.56365 0
M  V30 8782 H 807.458 -7.40855 -1.50565 0
M  V30 8783 H 808.726 -7.3157 -2.69119 0
M  V30 8784 N 812.955 -0.234822 -1.55841 0
M  V30 8785 C 814.366 0.270588 -1.84729 0
M  V30 8786 C 814.717 1.58494 -1.15646 0
M  V30 8787 O 813.842 2.12071 -0.430667 0
M  V30 8788 C 814.437 0.497733 -3.35124 0
M  V30 8789 C 812.996 0.947428 -3.64281 0
M  V30 8790 C 812.143 0.01787 -2.77294 0
M  V30 8791 H 815.094 -0.457691 -1.51957 0
M  V30 8792 H 815.115 1.34199 -3.56049 0
M  V30 8793 H 814.627 -0.459037 -3.85376 0
M  V30 8794 H 812.728 1.91709 -3.19497 0
M  V30 8795 H 812.841 0.812651 -4.72158 0
M  V30 8796 H 811.205 0.527071 -2.49187 0
M  V30 8797 H 811.988 -0.934056 -3.30349 0
M  V30 8798 N 814.433 1.57553 0.0384317 0
M  V30 8799 C 815.658 1.93485 0.746872 0
M  V30 8800 C 816.083 0.834069 1.68597 0
M  V30 8801 O 815.441 -0.210902 1.80069 0
M  V30 8802 C 815.489 3.28463 1.4881 0
M  V30 8803 O 814.593 3.20051 2.60079 0
M  V30 8804 H 813.934 0.632675 0.201539 0
M  V30 8805 H 816.464 2.046 -0.00329815 0
M  V30 8806 H 816.474 3.63132 1.86009 0
M  V30 8807 H 815.149 4.08147 0.799297 0
M  V30 8808 H 813.726 2.96998 2.25492 0
M  V30 8809 N 815.911 -0.310526 1.54511 0
M  V30 8810 C 816.874 -1.3657 1.84068 0
M  V30 8811 C 817.874 -1.44123 0.713097 0
M  V30 8812 O 819.064 -1.43924 0.981399 0
M  V30 8813 C 816.196 -2.75162 2.01243 0
M  V30 8814 H 817.389 -1.1161 2.78358 0
M  V30 8815 H 814.942 -0.546699 1.46427 0
M  V30 8816 H 815.677 -3.05359 1.09208 0
M  V30 8817 H 815.462 -2.71071 2.83307 0
M  V30 8818 H 816.952 -3.51473 2.25514 0
M  V30 8819 N 817.389 -1.46805 -0.573248 0
M  V30 8820 C 818.805 -1.31969 -0.897577 0
M  V30 8821 C 819.005 -0.298171 -1.99282 0
M  V30 8822 O 818.061 0.295953 -2.5076 0
M  V30 8823 C 819.374 -2.70859 -1.30598 0
M  V30 8824 C 820.922 -2.79022 -1.4183 0
M  V30 8825 C 821.397 -4.18516 -1.86033 0
M  V30 8826 N 822.888 -4.2098 -1.9321 0
M  V30 8827 C 823.623 -5.25814 -2.28707 0
M  V30 8828 N 823.119 -6.40968 -2.6293 0
M  V30 8829 N 824.912 -5.13184 -2.29343 0
M  V30 8830 H 817.063 -2.11869 0.150094 0
M  V30 8831 H 819.326 -0.947989 0.00447895 0
M  V30 8832 H 819.032 -3.46965 -0.575161 0
M  V30 8833 H 818.906 -3.01585 -2.26554 0
M  V30 8834 H 821.293 -2.03198 -2.13996 0
M  V30 8835 H 821.374 -2.51969 -0.441024 0
M  V30 8836 H 821.018 -4.94839 -1.14442 0
M  V30 8837 H 820.948 -4.42982 -2.84735 0
M  V30 8838 H 823.439 -3.37898 -1.69214 0
M  V30 8839 H 823.752 -7.16729 -2.88996 0
M  V30 8840 H 822.097 -6.44314 -2.60547 0
M  V30 8841 H 825.288 -4.22255 -2.02036 0
M  V30 8842 H 825.461 -5.94996 -2.56679 0
M  V30 8843 N 818.867 0.818669 -1.34668 0
M  V30 8844 C 820.113 1.57746 -1.27453 0
M  V30 8845 C 820.446 1.93588 0.154077 0
M  V30 8846 O 819.721 1.60371 1.10051 0
M  V30 8847 C 820.004 2.87414 -2.16945 0
M  V30 8848 C 819.857 2.58125 -3.68363 0
M  V30 8849 C 821.176 3.89021 -2.05792 0
M  V30 8850 H 818.295 0.572339 -0.464324 0
M  V30 8851 H 820.937 0.942784 -1.64959 0
M  V30 8852 H 819.087 3.41576 -1.85089 0
M  V30 8853 H 820.759 2.10239 -4.10606 0
M  V30 8854 H 819.002 1.91503 -3.89242 0
M  V30 8855 H 819.673 3.5061 -4.26353 0
M  V30 8856 H 822.149 3.44224 -2.33771 0
M  V30 8857 H 821.025 4.77548 -2.70628 0
M  V30 8858 H 821.286 4.29786 -1.03618 0
M  V30 8859 N 820.346 1.18468 1.03938 0
M  V30 8860 C 821.757 0.984808 1.58614 0
M  V30 8861 C 822.108 -0.465165 1.90606 0
M  V30 8862 O 821.233 -1.34274 1.69704 0
M  V30 8863 C 821.828 1.78135 2.8819 0
M  V30 8864 C 820.387 1.62579 3.39478 0
M  V30 8865 C 819.534 1.77501 2.13046 0
M  V30 8866 H 822.485 1.32993 0.865944 0
M  V30 8867 H 822.506 1.27119 3.58638 0
M  V30 8868 H 822.018 2.83661 2.64874 0
M  V30 8869 H 820.119 0.59595 3.67803 0
M  V30 8870 H 820.232 2.42463 4.13217 0
M  V30 8871 H 818.596 1.2046 2.24414 0
M  V30 8872 H 819.379 2.84464 1.92185 0
M  V30 8873 N 821.824 -1.22873 0.986916 0
M  V30 8874 C 823.072 -1.91084 0.658121 0
M  V30 8875 C 823.393 -1.77304 -0.811675 0
M  V30 8876 O 822.663 -1.15649 -1.58121 0
M  V30 8877 H 821.243 -0.707251 0.240427 0
M  V30 8878 H 823.905 -1.49357 1.25213 0
M  V30 8879 H 823.001 -2.98373 0.915428 0
M  V30 8880 N 823.302 -0.75937 -1.38099 0
M  V30 8881 C 824.53 -0.329111 -2.04266 0
M  V30 8882 C 824.945 1.04453 -1.57274 0
M  V30 8883 O 824.302 1.66449 -0.748397 0
M  V30 8884 C 824.353 -0.349192 -3.5981 0
M  V30 8885 O 824.074 -1.66863 -4.05078 0
M  V30 8886 C 825.575 0.0942106 -4.432 0
M  V30 8887 H 822.795 -0.13971 -0.656294 0
M  V30 8888 H 825.339 -1.02984 -1.76677 0
M  V30 8889 H 823.494 0.302846 -3.86214 0
M  V30 8890 H 823.908 -1.59877 -4.9954 0
M  V30 8891 H 825.382 0.0290004 -5.51992 0
M  V30 8892 H 825.859 1.1429 -4.24069 0
M  V30 8893 H 826.465 -0.529171 -4.21995 0
M  V30 8894 N 824.78 1.49157 -0.508906 0
M  V30 8895 C 825.727 2.2927 0.265288 0
M  V30 8896 C 826.697 1.3603 0.953162 0
M  V30 8897 O 827.882 1.64989 0.958291 0
M  V30 8898 C 825.022 3.18897 1.31904 0
M  V30 8899 C 824.135 4.27201 0.642144 0
M  V30 8900 C 823.27 5.04033 1.67701 0
M  V30 8901 C 822.309 6.04165 0.982422 0
M  V30 8902 N 821.446 6.74133 1.96186 0
M  V30 8903 H 826.286 2.94967 -0.424107 0
M  V30 8904 H 823.823 1.45431 -0.220991 0
M  V30 8905 H 825.781 3.69242 1.94206 0
M  V30 8906 H 824.411 2.55168 1.97709 0
M  V30 8907 H 823.463 3.80283 -0.0943395 0
M  V30 8908 H 824.775 4.98708 0.0957507 0
M  V30 8909 H 823.929 5.58287 2.37487 0
M  V30 8910 H 822.668 4.32317 2.25728 0
M  V30 8911 H 821.673 5.49135 0.270378 0
M  V30 8912 H 822.898 6.7787 0.408554 0
M  V30 8913 H 820.844 6.05183 2.53159 0
M  V30 8914 H 820.761 7.41643 1.46634 0
M  V30 8915 H 822.029 7.32987 2.65236 0
M  V30 8916 N 826.258 0.243083 1.55714 0
M  V30 8917 C 827.221 -0.644723 2.19945 0
M  V30 8918 C 828.221 -1.10562 1.16759 0
M  V30 8919 O 829.411 -1.01095 1.41865 0
M  V30 8920 C 826.543 -1.88569 2.83997 0
M  V30 8921 H 827.736 -0.0843839 2.99781 0
M  V30 8922 H 825.289 -0.00647246 1.56299 0
M  V30 8923 H 826.024 -2.48736 2.08089 0
M  V30 8924 H 825.809 -1.56345 3.59581 0
M  V30 8925 H 827.299 -2.51774 3.33166 0
M  V30 8926 N 827.736 -1.57571 -0.0300757 0
M  V30 8927 C 828.961 -1.93879 -0.736601 0
M  V30 8928 C 829.386 -0.842998 -1.68152 0
M  V30 8929 O 828.744 0.20135 -1.80178 0
M  V30 8930 C 828.792 -3.29247 -1.47066 0
M  V30 8931 O 827.896 -3.21426 -2.58378 0
M  V30 8932 H 827.237 -0.633735 -0.198181 0
M  V30 8933 H 829.767 -2.04595 0.0141485 0
M  V30 8934 H 829.777 -3.64113 -1.84081 0
M  V30 8935 H 828.452 -4.08565 -0.77764 0
M  V30 8936 H 827.029 -2.98189 -2.23914 0
M  V30 8937 N 829.214 0.302327 -1.54673 0
M  V30 8938 C 830.63 0.647911 -1.45857 0
M  V30 8939 C 830.83 1.90773 -0.64869 0
M  V30 8940 O 829.886 2.52018 -0.155865 0
M  V30 8941 C 831.199 0.802144 -2.89804 0
M  V30 8942 C 832.747 0.898114 -2.99838 0
M  V30 8943 C 833.222 1.08436 -4.44978 0
M  V30 8944 N 834.713 1.15059 -4.48682 0
M  V30 8945 C 835.448 1.31296 -5.58166 0
M  V30 8946 N 834.944 1.4444 -6.77576 0
M  V30 8947 N 836.737 1.34174 -5.45851 0
M  V30 8948 H 828.888 -0.525428 -2.05798 0
M  V30 8949 H 831.151 -0.173423 -0.932002 0
M  V30 8950 H 830.857 -0.0526531 -3.51661 0
M  V30 8951 H 830.731 1.69155 -3.37145 0
M  V30 8952 H 833.118 1.7434 -2.38096 0
M  V30 8953 H 833.199 -0.0152752 -2.55795 0
M  V30 8954 H 832.843 0.243843 -5.07314 0
M  V30 8955 H 832.773 2.01195 -4.8665 0
M  V30 8956 H 835.264 1.0626 -3.62653 0
M  V30 8957 H 835.577 1.56582 -7.56771 0
M  V30 8958 H 833.922 1.41499 -6.80443 0
M  V30 8959 H 837.113 1.23516 -4.5151 0
M  V30 8960 H 837.286 1.46485 -6.31226 0
M  V30 8961 N 830.692 1.47107 0.565454 0
M  V30 8962 C 831.94 1.53005 1.32038 0
M  V30 8963 C 832.261 0.190453 1.94068 0
M  V30 8964 O 831.531 -0.784783 1.79494 0
M  V30 8965 H 830.111 0.563578 0.490294 0
M  V30 8966 H 832.773 1.83351 0.660928 0
M  V30 8967 H 831.869 2.29215 2.11818 0
M  V30 8968 N 832.17 -0.811516 1.35101 0
M  V30 8969 C 833.395 -1.60499 1.31358 0
M  V30 8970 C 833.82 -1.87793 -0.107383 0
M  V30 8971 O 833.178 -1.46161 -1.07268 0
M  V30 8972 C 833.226 -2.91612 2.12119 0
M  V30 8973 O 832.33 -3.84211 1.49853 0
M  V30 8974 H 831.671 -0.487702 0.450603 0
M  V30 8975 H 834.201 -1.00758 1.7807 0
M  V30 8976 H 834.211 -3.4108 2.23894 0
M  V30 8977 H 832.886 -2.71071 3.15426 0
M  V30 8978 H 831.463 -3.42751 1.46889 0
M  V30 8979 N 833.648 -1.19017 -1.03309 0
M  V30 8980 C 834.896 -0.988258 -1.76289 0
M  V30 8981 C 835.217 0.482557 -1.88935 0
M  V30 8982 O 834.487 1.34969 -1.41987 0
M  V30 8983 H 833.067 -0.36267 -0.653054 0
M  V30 8984 H 835.729 -1.49836 -1.2464 0
M  V30 8985 H 834.825 -1.43273 -2.77271 0
M  V30 8986 N 835.127 1.22348 -0.993418 0
M  V30 8987 C 836.09 2.22522 -0.549251 0
M  V30 8988 C 837.09 1.56529 0.368164 0
M  V30 8989 O 838.28 1.73463 0.16005 0
M  V30 8990 C 835.412 3.40307 0.201037 0
M  V30 8991 H 836.605 2.63332 -1.43515 0
M  V30 8992 H 834.158 1.35407 -0.78068 0
M  V30 8993 H 834.893 3.0497 1.10289 0
M  V30 8994 H 834.678 3.8942 -0.457685 0
M  V30 8995 H 836.168 4.14597 0.499946 0
M  V30 8996 N 836.605 0.766683 1.37694 0
M  V30 8997 C 837.515 0.150158 2.34119 0
M  V30 8998 C 838.531 -0.685513 1.59927 0
M  V30 8999 O 839.707 -0.606616 1.92047 0
M  V30 9000 C 836.772 -0.722562 3.39087 0
M  V30 9001 C 835.833 0.128983 4.29106 0
M  V30 9002 C 835.066 -0.702178 5.29061 0
M  V30 9003 O 835.289 -1.93954 5.36412 0
M  V30 9004 O 834.223 -0.114056 6.01792 0
M  V30 9005 H 838.049 0.946829 2.88563 0
M  V30 9006 H 835.634 0.527765 1.39768 0
M  V30 9007 H 837.516 -1.22095 4.03325 0
M  V30 9008 H 836.191 -1.49751 2.86978 0
M  V30 9009 H 835.098 0.673612 3.67985 0
M  V30 9010 H 836.431 0.866892 4.84506 0
M  V30 9011 N 838.083 -1.48885 0.516809 0
M  V30 9012 C 839.329 -2.02788 -0.0220928 0
M  V30 9013 C 839.662 -1.39433 -1.35175 0
M  V30 9014 O 838.937 -0.535459 -1.86984 0
M  V30 9015 C 839.22 -3.59753 -0.158012 0
M  V30 9016 C 839.073 -4.33611 1.19588 0
M  V30 9017 C 840.392 -4.30984 -0.891133 0
M  V30 9018 H 837.511 -0.736971 -0.00655488 0
M  V30 9019 H 840.153 -1.77746 0.671287 0
M  V30 9020 H 838.303 -3.8122 -0.748568 0
M  V30 9021 H 839.975 -4.23598 1.82653 0
M  V30 9022 H 838.218 -3.95547 1.78116 0
M  V30 9023 H 838.889 -5.41846 1.05391 0
M  V30 9024 H 841.365 -4.14267 -0.39012 0
M  V30 9025 H 840.241 -5.40527 -0.955107 0
M  V30 9026 H 840.502 -3.97336 -1.93847 0
M  V30 9027 N 839.561 -0.251338 -1.55583 0
M  V30 9028 C 840.789 0.376187 -2.03451 0
M  V30 9029 C 841.204 1.51215 -1.13047 0
M  V30 9030 O 840.561 1.81917 -0.145769 0
M  V30 9031 C 840.612 0.879779 -3.50631 0
M  V30 9032 O 840.333 -0.210917 -4.37592 0
M  V30 9033 C 841.834 1.57754 -4.14281 0
M  V30 9034 H 839.054 0.0888722 -0.665089 0
M  V30 9035 H 841.598 -0.376497 -2.01004 0
M  V30 9036 H 839.753 1.58263 -3.53598 0
M  V30 9037 H 840.167 0.172203 -5.24217 0
M  V30 9038 H 841.641 1.88158 -5.18942 0
M  V30 9039 H 842.118 2.50103 -3.61034 0
M  V30 9040 H 842.724 0.919154 -4.15249 0
M  V30 9041 N 841.039 1.57585 0.0217189 0
M  V30 9042 C 841.969 2.10073 1.01939 0
M  V30 9043 C 842.95 1.0049 1.37243 0
M  V30 9044 O 844.135 1.28055 1.45999 0
M  V30 9045 C 841.265 2.58618 2.31806 0
M  V30 9046 C 840.219 3.72531 2.10724 0
M  V30 9047 C 839.545 4.07309 3.46415 0
M  V30 9048 C 840.845 5.00672 1.48743 0
M  V30 9049 H 842.539 2.9368 0.582432 0
M  V30 9050 H 840.085 1.41277 0.278715 0
M  V30 9051 H 842.038 2.9396 3.01936 0
M  V30 9052 H 840.762 1.72104 2.77575 0
M  V30 9053 H 839.421 3.37549 1.43025 0
M  V30 9054 H 839.069 3.17851 3.89846 0
M  V30 9055 H 838.769 4.84042 3.33132 0
M  V30 9056 H 840.293 4.45192 4.17895 0
M  V30 9057 H 841.707 5.33925 2.088 0
M  V30 9058 H 840.104 5.82065 1.46013 0
M  V30 9059 H 841.174 4.82769 0.45408 0
M  V30 9060 N 842.517 -0.29412 1.54831 0
M  V30 9061 C 843.766 -1.02614 1.73647 0
M  V30 9062 C 844.079 -1.88193 0.533162 0
M  V30 9063 O 845.285 -2.64713 0.603275 0
M  V30 9064 C 843.741 -1.87417 3.07251 0
M  V30 9065 C 843.349 -1.06806 4.35082 0
M  V30 9066 C 845.093 -2.60176 3.35423 0
M  V30 9067 C 843 -1.90926 5.59733 0
M  V30 9068 H 841.93 -0.386834 0.647206 0
M  V30 9069 H 844.581 -0.282789 1.81308 0
M  V30 9070 H 842.963 -2.65765 2.93572 0
M  V30 9071 H 844.137 -0.330226 4.59615 0
M  V30 9072 H 842.452 -0.455979 4.13896 0
M  V30 9073 H 845.049 -3.23476 4.25755 0
M  V30 9074 H 845.392 -3.29365 2.54606 0
M  V30 9075 H 845.925 -1.88871 3.50103 0
M  V30 9076 H 842.664 -1.26194 6.43238 0
M  V30 9077 H 842.184 -2.62363 5.39375 0
M  V30 9078 H 843.863 -2.48807 5.97247 0
M  V30 9079 N 843.995 -1.47404 -0.557645 0
M  V30 9080 C 845.272 -1.44488 -1.31843 0
M  V30 9081 C 845.652 -0.1416 -2.10625 0
M  V30 9082 O 845 0.876908 -2.11004 0
M  V30 9083 C 845.21 -2.69016 -2.22331 0
M  V30 9084 C 846.558 -3.16212 -2.83364 0
M  V30 9085 O 847.582 -2.69741 -2.32634 0
M  V30 9086 O 846.441 -3.96999 -3.75571 0
M  V30 9087 H 843.535 -0.57578 -0.593639 0
M  V30 9088 H 846.081 -1.59605 -0.576584 0
M  V30 9089 H 844.853 -3.55406 -1.63715 0
M  V30 9090 H 844.476 -2.56484 -3.03812 0
M  V30 9091 N 845.473 0.80434 -1.35529 0
M  V30 9092 C 846.72 1.56154 -1.28927 0
M  V30 9093 C 847.048 1.94026 0.135682 0
M  V30 9094 O 846.303 1.61759 1.10148 0
M  V30 9095 C 846.602 2.85988 -2.14349 0
M  V30 9096 C 846.268 2.67323 -3.6311 0
M  V30 9097 C 844.93 2.61941 -4.03659 0
M  V30 9098 C 847.282 2.49699 -4.57493 0
M  V30 9099 C 844.61 2.3688 -5.36754 0
M  V30 9100 C 846.962 2.26168 -5.90788 0
M  V30 9101 C 845.626 2.19209 -6.30479 0
M  V30 9102 H 844.896 0.571407 -0.471779 0
M  V30 9103 H 847.543 0.929193 -1.67446 0
M  V30 9104 H 845.848 3.53612 -1.68718 0
M  V30 9105 H 847.545 3.43697 -2.06576 0
M  V30 9106 H 844.135 2.72361 -3.30934 0
M  V30 9107 H 848.319 2.52869 -4.27049 0
M  V30 9108 H 843.575 2.29964 -5.66504 0
M  V30 9109 H 847.749 2.11522 -6.63499 0
M  V30 9110 H 845.376 1.99553 -7.33541 0
M  V30 9111 N 846.951 1.19563 1.02676 0
M  V30 9112 C 848.199 0.997593 1.75763 0
M  V30 9113 C 848.52 -0.47253 1.89188 0
M  V30 9114 O 847.79 -1.34214 1.42701 0
M  V30 9115 H 846.37 0.366128 0.651122 0
M  V30 9116 H 849.032 1.50495 1.23844 0
M  V30 9117 H 848.128 1.44741 2.76508 0
M  V30 9118 N 848.429 -1.21819 0.999893 0
M  V30 9119 C 849.339 -2.27691 0.565159 0
M  V30 9120 C 850.355 -1.69587 -0.389398 0
M  V30 9121 O 851.531 -1.99786 -0.254499 0
M  V30 9122 C 848.596 -3.46537 -0.106432 0
M  V30 9123 C 847.657 -4.19932 0.891964 0
M  V30 9124 C 846.89 -5.33103 0.252327 0
M  V30 9125 O 847.113 -5.62398 -0.952103 0
M  V30 9126 O 846.047 -5.94184 0.960698 0
M  V30 9127 H 849.873 -2.67059 1.44613 0
M  V30 9128 H 847.458 -1.28119 0.768499 0
M  V30 9129 H 849.34 -4.18631 -0.482301 0
M  V30 9130 H 848.015 -3.09079 -0.961865 0
M  V30 9131 H 846.922 -3.5008 1.3189 0
M  V30 9132 H 848.255 -4.61287 1.71682 0
M  V30 9133 N 849.908 -0.773975 -1.37286 0
M  V30 9134 C 850.818 -0.162571 -2.34036 0
M  V30 9135 C 851.834 0.677022 -1.60289 0
M  V30 9136 O 853.01 0.596423 -1.92366 0
M  V30 9137 C 850.075 0.70457 -3.39465 0
M  V30 9138 C 849.136 -0.151738 -4.29032 0
M  V30 9139 C 848.369 0.674111 -5.29426 0
M  V30 9140 O 848.592 1.91107 -5.37433 0
M  V30 9141 O 847.526 0.0821398 -6.01844 0
M  V30 9142 H 851.352 -0.962119 -2.88057 0
M  V30 9143 H 848.937 -0.53517 -1.39486 0
M  V30 9144 H 850.819 1.19954 -4.03967 0
M  V30 9145 H 849.494 1.48227 -2.87768 0
M  V30 9146 H 848.401 -0.693118 -3.67623 0
M  V30 9147 H 849.734 -0.892575 -4.84039 0
M  V30 9148 N 851.386 1.48609 -0.524698 0
M  V30 9149 C 852.797 1.86516 -0.0828846 0
M  V30 9150 C 853.148 1.43478 1.33822 0
M  V30 9151 O 852.273 0.823139 2.00133 0
M  V30 9152 C 852.868 3.38495 -0.143639 0
M  V30 9153 C 851.427 3.75615 0.242951 0
M  V30 9154 C 850.574 2.72649 -0.505747 0
M  V30 9155 H 853.525 1.40589 -0.736233 0
M  V30 9156 H 853.546 3.74977 0.645955 0
M  V30 9157 H 853.058 3.69789 -1.17805 0
M  V30 9158 H 851.159 3.49935 1.27971 0
M  V30 9159 H 851.272 4.7901 -0.0929834 0
M  V30 9160 H 849.636 2.54656 0.0473482 0
M  V30 9161 H 850.419 3.06786 -1.54069 0
M  V30 9162 N 852.864 0.259585 1.55447 0
M  V30 9163 C 854.11 -0.362143 1.9954 0
M  V30 9164 C 854.443 -1.5666 1.14767 0
M  V30 9165 O 853.718 -1.93319 0.214025 0
M  V30 9166 C 854.001 -0.759588 3.51998 0
M  V30 9167 C 853.854 0.451134 4.47532 0
M  V30 9168 C 855.173 -1.60186 4.09913 0
M  V30 9169 H 852.292 -0.130157 0.725416 0
M  V30 9170 H 854.934 0.363431 1.86492 0
M  V30 9171 H 853.084 -1.3778 3.63248 0
M  V30 9172 H 854.756 1.08965 4.48246 0
M  V30 9173 H 852.999 1.092 4.19831 0
M  V30 9174 H 853.67 0.129518 5.51848 0
M  V30 9175 H 856.146 -1.0799 4.01842 0
M  V30 9176 H 855.022 -1.84879 5.16828 0
M  V30 9177 H 855.283 -2.57787 3.59163 0
M  V30 9178 N 854.342 -1.57594 -0.0133615 0
M  V30 9179 C 855.588 -1.90262 -0.702019 0
M  V30 9180 C 855.921 -0.859219 -1.74158 0
M  V30 9181 O 855.196 0.123778 -1.94106 0
M  V30 9182 C 855.479 -3.3354 -1.35732 0
M  V30 9183 C 855.332 -4.48586 -0.330208 0
M  V30 9184 C 856.651 -3.76004 -2.28712 0
M  V30 9185 H 853.77 -0.691943 -0.253739 0
M  V30 9186 H 856.412 -1.89967 0.0351894 0
M  V30 9187 H 854.562 -3.33921 -1.98567 0
M  V30 9188 H 856.234 -4.6034 0.297433 0
M  V30 9189 H 854.477 -4.32394 0.348926 0
M  V30 9190 H 855.148 -5.45762 -0.827508 0
M  V30 9191 H 857.624 -3.77089 -1.75906 0
M  V30 9192 H 856.5 -4.77032 -2.71535 0
M  V30 9193 H 856.761 -3.09129 -3.16056 0
M  V30 9194 N 855.82 0.285905 -1.54985 0
M  V30 9195 C 857.231 0.857869 -1.65824 0
M  V30 9196 C 857.582 1.87531 -0.576763 0
M  V30 9197 O 856.707 2.14528 0.284016 0
M  V30 9198 C 857.302 1.56277 -3.00604 0
M  V30 9199 C 855.861 2.08294 -3.13513 0
M  V30 9200 C 855.008 0.920633 -2.61571 0
M  V30 9201 H 857.959 0.0625463 -1.58577 0
M  V30 9202 H 857.98 2.42912 -2.92872 0
M  V30 9203 H 857.492 0.822017 -3.79295 0
M  V30 9204 H 855.593 2.8537 -2.39572 0
M  V30 9205 H 855.706 2.3071 -4.19892 0
M  V30 9206 H 854.07 1.31043 -2.18403 0
M  V30 9207 H 854.853 0.193594 -3.42754 0
M  V30 9208 N 857.298 1.47698 0.54982 0
M  V30 9209 C 858.261 1.60282 1.63837 0
M  V30 9210 C 859.261 0.477394 1.5355 0
M  V30 9211 O 860.451 0.742665 1.57576 0
M  V30 9212 C 857.583 1.55431 3.03404 0
M  V30 9213 H 858.776 2.57325 1.54026 0
M  V30 9214 H 856.329 1.35999 0.770329 0
M  V30 9215 H 857.064 0.597912 3.1874 0
M  V30 9216 H 856.849 2.37116 3.12279 0
M  V30 9217 H 858.339 1.6739 3.82584 0
M  V30 9218 N 858.776 -0.797141 1.35954 0
M  V30 9219 C 859.706 -1.92387 1.32323 0
M  V30 9220 C 860.687 -1.68967 0.196007 0
M  V30 9221 O 861.872 -1.90193 0.39245 0
M  V30 9222 C 859.002 -3.29286 1.10398 0
M  V30 9223 C 857.956 -3.67212 2.19862 0
M  V30 9224 C 857.282 -5.02377 1.8309 0
M  V30 9225 C 858.582 -3.76602 3.61896 0
M  V30 9226 H 860.276 -1.95683 2.26602 0
M  V30 9227 H 857.822 -0.94007 1.09081 0
M  V30 9228 H 859.775 -4.07721 1.06495 0
M  V30 9229 H 858.499 -3.26358 0.125668 0
M  V30 9230 H 857.158 -2.91069 2.22878 0
M  V30 9231 H 856.806 -4.95961 0.838527 0
M  V30 9232 H 856.506 -5.28722 2.56372 0
M  V30 9233 H 858.03 -5.8324 1.80729 0
M  V30 9234 H 859.444 -4.45246 3.6115 0
M  V30 9235 H 857.841 -4.14425 4.34018 0
M  V30 9236 H 858.911 -2.77906 3.97361 0
M  V30 9237 N 860.254 -1.20106 -1.0204 0
M  V30 9238 C 861.67 -0.955099 -1.27867 0
M  V30 9239 C 861.87 0.367595 -1.98119 0
M  V30 9240 O 860.926 1.09705 -2.27423 0
M  V30 9241 C 862.239 -2.13507 -2.11744 0
M  V30 9242 C 863.787 -2.17563 -2.25023 0
M  V30 9243 C 864.262 -3.35035 -3.12275 0
M  V30 9244 N 865.753 -3.35024 -3.19864 0
M  V30 9245 C 866.488 -4.22566 -3.8759 0
M  V30 9246 N 865.984 -5.20278 -4.57474 0
M  V30 9247 N 867.777 -4.10418 -3.84075 0
M  V30 9248 H 859.928 -2.05193 -0.54861 0
M  V30 9249 H 862.191 -0.897689 -0.304728 0
M  V30 9250 H 861.897 -3.09275 -1.67456 0
M  V30 9251 H 861.771 -2.11281 -3.12474 0
M  V30 9252 H 864.158 -1.22359 -2.68537 0
M  V30 9253 H 864.239 -2.23838 -1.23815 0
M  V30 9254 H 863.883 -4.30522 -2.69468 0
M  V30 9255 H 863.813 -3.25996 -4.13563 0
M  V30 9256 H 866.304 -2.64299 -2.701 0
M  V30 9257 H 866.617 -5.83408 -5.06809 0
M  V30 9258 H 864.962 -5.24219 -4.56311 0
M  V30 9259 H 868.153 -3.33353 -3.28623 0
M  V30 9260 H 868.326 -4.78854 -4.36581 0
M  V30 9261 N 861.732 1.21287 -1.00634 0
M  V30 9262 C 863.143 1.72136 -0.722914 0
M  V30 9263 C 863.494 1.8091 0.759338 0
M  V30 9264 O 862.619 1.46458 1.59308 0
M  V30 9265 C 863.214 3.12633 -1.30561 0
M  V30 9266 C 861.773 3.60833 -1.07127 0
M  V30 9267 C 860.92 2.38326 -1.4176 0
M  V30 9268 H 863.871 1.06445 -1.17708 0
M  V30 9269 H 863.892 3.74174 -0.690937 0
M  V30 9270 H 863.404 3.06215 -2.38441 0
M  V30 9271 H 861.505 3.72599 -0.00968671 0
M  V30 9272 H 861.618 4.46226 -1.74411 0
M  V30 9273 H 859.982 2.40575 -0.836412 0
M  V30 9274 H 860.765 2.34558 -2.50674 0
M  V30 9275 N 863.21 0.781244 1.36873 0
M  V30 9276 C 864.45 0.355185 2.0129 0
M  V30 9277 C 864.814 -1.05115 1.6067 0
M  V30 9278 O 866.015 -1.57785 2.17618 0
M  V30 9279 C 864.286 0.504587 3.5382 0
M  V30 9280 S 865.845 0.165196 4.38489 0
M  V30 9281 H 862.663 0.136133 0.697846 0
M  V30 9282 H 865.265 1.01794 1.66908 0
M  V30 9283 H 863.969 1.52857 3.80871 0
M  V30 9284 H 863.5 -0.174392 3.93013 0
M  V30 9285 H 865.515 -1.03605 4.85263 0
M  V30 9286 N 864.689 -1.48329 0.532571 0
M  V30 9287 C 865.652 -2.2816 -0.218069 0
M  V30 9288 C 866.652 -1.35526 -0.865409 0
M  V30 9289 O 867.842 -1.58394 -0.725061 0
M  V30 9290 C 864.974 -3.1448 -1.31586 0
M  V30 9291 H 866.167 -2.95987 0.482865 0
M  V30 9292 H 863.72 -1.53612 0.288603 0
M  V30 9293 H 864.455 -2.5129 -2.04997 0
M  V30 9294 H 864.24 -3.82625 -0.856779 0
M  V30 9295 H 865.73 -3.74693 -1.84377 0
M  V30 9296 N 866.167 -0.267825 -1.55308 0
M  V30 9297 C 867.578 0.231344 -1.85261 0
M  V30 9298 C 867.929 1.56006 -1.18982 0
M  V30 9299 O 867.054 2.1111 -0.475554 0
M  V30 9300 C 867.649 0.426537 -3.36104 0
M  V30 9301 C 866.208 0.869945 -3.66209 0
M  V30 9302 C 865.355 -0.0409522 -2.7727 0
M  V30 9303 H 868.306 -0.489821 -1.50952 0
M  V30 9304 H 868.327 1.26616 -3.58816 0
M  V30 9305 H 867.839 -0.540678 -3.84315 0
M  V30 9306 H 865.94 1.84889 -3.23492 0
M  V30 9307 H 866.053 0.712316 -4.73775 0
M  V30 9308 H 864.417 0.474097 -2.50249 0
M  V30 9309 H 865.2 -1.00392 -3.28293 0
M  V30 9310 N 867.645 1.57599 0.00500368 0
M  V30 9311 C 868.87 1.95026 0.705663 0
M  V30 9312 C 869.295 0.869643 1.6679 0
M  V30 9313 O 868.653 -0.172659 1.80476 0
M  V30 9314 C 868.701 3.31545 1.4181 0
M  V30 9315 O 867.805 3.25495 2.53232 0
M  V30 9316 H 867.146 0.636808 0.188074 0
M  V30 9317 H 869.676 2.04547 -0.046696 0
M  V30 9318 H 869.686 3.66996 1.78265 0
M  V30 9319 H 868.361 4.09751 0.712543 0
M  V30 9320 H 866.938 3.01714 2.19142 0
M  V30 9321 N 869.123 -0.277682 1.55134 0
M  V30 9322 C 870.053 -1.34742 1.90701 0
M  V30 9323 C 871.034 -1.51757 0.768354 0
M  V30 9324 O 872.219 -1.64879 1.02609 0
M  V30 9325 C 869.349 -2.70775 2.17481 0
M  V30 9326 C 868.303 -2.68497 3.33307 0
M  V30 9327 C 867.629 -4.08037 3.45557 0
M  V30 9328 C 868.929 -2.28178 4.69821 0
M  V30 9329 H 870.623 -1.05224 2.803 0
M  V30 9330 H 868.169 -0.504738 1.34864 0
M  V30 9331 H 870.122 -3.45719 2.40949 0
M  V30 9332 H 868.846 -3.01867 1.24676 0
M  V30 9333 H 867.505 -1.9601 3.09799 0
M  V30 9334 H 867.153 -4.36344 2.50226 0
M  V30 9335 H 866.853 -4.07409 4.23429 0
M  V30 9336 H 868.377 -4.84726 3.71312 0
M  V30 9337 H 869.791 -2.92843 4.92865 0
M  V30 9338 H 868.188 -2.3872 5.50575 0
M  V30 9339 H 869.258 -1.23308 4.6896 0
M  V30 9340 N 870.601 -1.47988 -0.541979 0
M  V30 9341 C 871.564 -1.61148 -1.62984 0
M  V30 9342 C 872.564 -0.48553 -1.53295 0
M  V30 9343 O 873.754 -0.751012 -1.5718 0
M  V30 9344 C 870.886 -1.57038 -3.02576 0
M  V30 9345 H 872.079 -2.58138 -1.52659 0
M  V30 9346 H 869.632 -1.36405 -0.763106 0
M  V30 9347 H 870.367 -0.614807 -3.18419 0
M  V30 9348 H 870.152 -2.38769 -3.11018 0
M  V30 9349 H 871.642 -1.69416 -3.81691 0
M  V30 9350 N 872.079 0.78992 -1.36375 0
M  V30 9351 C 873.011 1.91113 -1.26524 0
M  V30 9352 C 874.024 1.61747 -0.184851 0
M  V30 9353 O 875.213 1.73004 -0.439524 0
M  V30 9354 C 872.313 3.25908 -0.92937 0
M  V30 9355 C 871.486 3.83057 -2.11154 0
M  V30 9356 C 870.545 4.96289 -1.74881 0
M  V30 9357 O 869.571 5.12834 -2.46962 0
M  V30 9358 N 870.773 5.76478 -0.682193 0
M  V30 9359 H 873.538 2.00085 -2.23128 0
M  V30 9360 H 871.099 0.968165 -1.29762 0
M  V30 9361 H 873.091 3.99151 -0.667884 0
M  V30 9362 H 871.661 3.12556 -0.0524843 0
M  V30 9363 H 870.881 3.01808 -2.53586 0
M  V30 9364 H 872.169 4.1797 -2.90135 0
M  V30 9365 H 871.567 5.65638 -0.0836661 0
M  V30 9366 H 870.124 6.50026 -0.480529 0
M  V30 9367 N 873.557 1.20646 1.01402 0
M  V30 9368 C 874.487 0.98155 2.11867 0
M  V30 9369 C 875.468 -0.0903712 1.6986 0
M  V30 9370 O 876.653 0.0676586 1.94082 0
M  V30 9371 C 873.783 0.535636 3.43145 0
M  V30 9372 C 872.737 1.55109 3.98905 0
M  V30 9373 C 872.063 0.961725 5.2598 0
M  V30 9374 C 873.363 2.93552 4.32001 0
M  V30 9375 H 875.057 1.90544 2.3094 0
M  V30 9376 H 872.603 0.917554 1.10982 0
M  V30 9377 H 874.556 0.365512 4.19812 0
M  V30 9378 H 873.28 -0.423882 3.23838 0
M  V30 9379 H 871.939 1.70862 3.24348 0
M  V30 9380 H 871.587 -0.00580108 5.03 0
M  V30 9381 H 871.287 1.63993 5.64252 0
M  V30 9382 H 872.811 0.802726 6.053 0
M  V30 9383 H 874.225 2.81295 4.99546 0
M  V30 9384 H 872.622 3.58303 4.81393 0
M  V30 9385 H 873.692 3.4508 3.40658 0
M  V30 9386 N 875.035 -1.20752 1.01276 0
M  V30 9387 C 875.998 -2.2162 0.584583 0
M  V30 9388 C 876.998 -1.57094 -0.343215 0
M  V30 9389 O 878.188 -1.73696 -0.132433 0
M  V30 9390 C 875.32 -3.40583 -0.146872 0
M  V30 9391 H 876.513 -2.61015 1.47686 0
M  V30 9392 H 874.066 -1.34148 0.802123 0
M  V30 9393 H 874.801 -3.06686 -1.05424 0
M  V30 9394 H 874.586 -3.88642 0.51958 0
M  V30 9395 H 876.076 -4.15339 -0.433924 0
M  V30 9396 N 876.513 -0.788492 -1.36457 0
M  V30 9397 C 877.446 -0.132189 -2.27817 0
M  V30 9398 C 878.424 0.691166 -1.47179 0
M  V30 9399 O 879.608 0.662344 -1.7648 0
M  V30 9400 C 876.735 0.818386 -3.28664 0
M  V30 9401 C 875.781 0.0769392 -4.26431 0
M  V30 9402 S 876.614 -1.24666 -5.20786 0
M  V30 9403 C 877.77 -0.300063 -6.2518 0
M  V30 9404 H 878.003 -0.906824 -2.83132 0
M  V30 9405 H 875.536 -0.582666 -1.42984 0
M  V30 9406 H 877.494 1.36138 -3.87268 0
M  V30 9407 H 876.155 1.56626 -2.72263 0
M  V30 9408 H 875.348 0.79819 -4.97639 0
M  V30 9409 H 874.95 -0.395547 -3.71902 0
M  V30 9410 H 877.242 0.521434 -6.7549 0
M  V30 9411 H 878.185 -0.980808 -7.01274 0
M  V30 9412 H 878.593 0.0961898 -5.64418 0
M  V30 9413 N 877.991 1.48044 -0.54043 0
M  V30 9414 C 879.268 1.95523 0.0547302 0
M  V30 9415 C 879.648 1.48284 1.5025 0
M  V30 9416 O 878.996 0.714037 2.17057 0
M  V30 9417 C 879.206 3.48923 -0.0733393 0
M  V30 9418 C 880.554 4.24523 0.0806026 0
M  V30 9419 O 881.578 3.562 -5.58687e-05 0
M  V30 9420 O 880.437 5.45922 0.251216 0
M  V30 9421 H 877.531 0.823728 0.073493 0
M  V30 9422 H 880.077 1.5852 -0.605768 0
M  V30 9423 H 878.849 3.76059 -1.08144 0
M  V30 9424 H 878.472 3.92648 0.625536 0
M  V30 9425 N 879.47 0.276058 1.55163 0
M  V30 9426 C 880.433 -0.597924 2.21263 0
M  V30 9427 C 881.433 -1.0806 1.19078 0
M  V30 9428 O 882.623 -0.980626 1.43977 0
M  V30 9429 C 879.755 -1.82503 2.87933 0
M  V30 9430 H 880.948 -0.0207769 2.99893 0
M  V30 9431 H 878.501 0.0266823 1.56277 0
M  V30 9432 H 879.236 -2.44266 2.13318 0
M  V30 9433 H 879.021 -1.48683 3.62816 0
M  V30 9434 H 880.511 -2.44651 3.38431 0
M  V30 9435 N 880.948 -1.576 0.00335426 0
M  V30 9436 C 882.188 -1.92571 -0.685253 0
M  V30 9437 C 882.552 -0.877961 -1.70751 0
M  V30 9438 O 883.753 -1.11303 -2.44673 0
M  V30 9439 C 882.024 -3.3258 -1.30863 0
M  V30 9440 S 883.583 -3.89442 -2.02189 0
M  V30 9441 H 880.401 -0.674035 -0.226268 0
M  V30 9442 H 883.003 -1.95405 0.0608461 0
M  V30 9443 H 881.707 -4.06673 -0.551837 0
M  V30 9444 H 881.238 -3.33128 -2.09259 0
M  V30 9445 H 883.253 -3.70789 -3.29742 0
M  V30 9446 N 882.426 0.269451 -1.5528 0
M  V30 9447 C 883.651 1.02299 -1.80415 0
M  V30 9448 C 884.076 1.7902 -0.577363 0
M  V30 9449 O 883.434 1.75018 0.473125 0
M  V30 9450 C 883.482 1.95445 -3.0304 0
M  V30 9451 O 882.586 3.04271 -2.78375 0
M  V30 9452 H 881.927 0.292289 -0.596207 0
M  V30 9453 H 884.457 0.297282 -2.02429 0
M  V30 9454 H 884.467 2.37333 -3.31869 0
M  V30 9455 H 883.142 1.39017 -3.91978 0
M  V30 9456 H 881.719 2.66673 -2.60653 0
M  V30 9457 N 883.904 1.48273 0.534124 0
M  V30 9458 C 884.834 1.6538 1.64839 0
M  V30 9459 C 885.815 0.502741 1.62501 0
M  V30 9460 O 887 0.734799 1.79762 0
M  V30 9461 C 884.13 1.68949 3.03436 0
M  V30 9462 C 883.084 2.83513 3.20631 0
M  V30 9463 C 882.41 2.72169 4.60248 0
M  V30 9464 C 883.71 4.24858 3.03797 0
M  V30 9465 H 885.404 2.58663 1.50777 0
M  V30 9466 H 882.95 1.24479 0.723937 0
M  V30 9467 H 884.903 1.79505 3.81256 0
M  V30 9468 H 883.627 0.722415 3.1851 0
M  V30 9469 H 882.286 2.72505 2.45227 0
M  V30 9470 H 881.934 1.7344 4.72152 0
M  V30 9471 H 881.634 3.49042 4.72698 0
M  V30 9472 H 883.158 2.84687 5.40172 0
M  V30 9473 H 884.572 4.36721 3.71413 0
M  V30 9474 H 882.969 5.02697 3.27743 0
M  V30 9475 H 884.039 4.41611 2.0027 0
M  V30 9476 N 885.382 -0.782676 1.36792 0
M  V30 9477 C 886.312 -1.90973 1.34356 0
M  V30 9478 C 887.293 -1.6875 0.213917 0
M  V30 9479 O 888.478 -1.89766 0.412601 0
M  V30 9480 C 885.608 -3.28097 1.13884 0
M  V30 9481 C 884.562 -3.6486 2.23744 0
M  V30 9482 C 883.888 -5.00406 1.88408 0
M  V30 9483 C 885.188 -3.72742 3.6587 0
M  V30 9484 H 886.882 -1.93268 2.28665 0
M  V30 9485 H 884.428 -0.928447 1.10072 0
M  V30 9486 H 886.381 -4.06569 1.10813 0
M  V30 9487 H 885.105 -3.26206 0.160275 0
M  V30 9488 H 883.764 -2.88689 2.25952 0
M  V30 9489 H 883.412 -4.95044 0.891083 0
M  V30 9490 H 883.112 -5.25973 2.61966 0
M  V30 9491 H 884.636 -5.81291 1.86905 0
M  V30 9492 H 886.05 -4.4139 3.65852 0
M  V30 9493 H 884.447 -4.09798 4.38389 0
M  V30 9494 H 885.517 -2.73676 4.00287 0
M  V30 9495 N 886.86 -1.21182 -1.00761 0
M  V30 9496 C 888.137 -0.936297 -1.71735 0
M  V30 9497 C 888.517 0.552585 -2.03739 0
M  V30 9498 O 887.865 1.51672 -1.70903 0
M  V30 9499 C 888.075 -1.81867 -2.97868 0
M  V30 9500 C 889.423 -2.06594 -3.7095 0
M  V30 9501 O 890.447 -1.79194 -3.07844 0
M  V30 9502 O 889.306 -2.5292 -4.84452 0
M  V30 9503 H 886.4 -0.350867 -0.74888 0
M  V30 9504 H 888.946 -1.32098 -1.06527 0
M  V30 9505 H 887.718 -2.82643 -2.70607 0
M  V30 9506 H 887.341 -1.43463 -3.70815 0
M  V30 9507 N 888.338 1.20213 -1.01915 0
M  V30 9508 C 889.248 2.26763 -0.601311 0
M  V30 9509 C 890.264 1.70185 0.362369 0
M  V30 9510 O 891.44 2.00165 0.222682 0
M  V30 9511 C 888.505 3.46662 0.0512879 0
M  V30 9512 C 887.566 4.18459 -0.958659 0
M  V30 9513 C 886.799 5.32634 -0.337107 0
M  V30 9514 O 887.022 5.63841 0.86251 0
M  V30 9515 O 885.956 5.9258 -1.05511 0
M  V30 9516 H 889.782 2.64725 -1.48844 0
M  V30 9517 H 887.367 1.2688 -0.788784 0
M  V30 9518 H 889.249 4.19345 0.41564 0
M  V30 9519 H 887.924 3.1057 0.912572 0
M  V30 9520 H 886.831 3.47937 -1.37442 0
M  V30 9521 H 888.164 4.58498 -1.78999 0
M  V30 9522 N 889.816 0.795718 1.36037 0
M  V30 9523 C 891.044 0.383153 2.03321 0
M  V30 9524 C 891.459 -1.00246 1.59988 0
M  V30 9525 O 890.816 -1.64406 0.792265 0
M  V30 9526 C 890.867 0.444467 3.58757 0
M  V30 9527 O 890.588 1.77544 4.00512 0
M  V30 9528 C 892.089 0.0233291 4.43294 0
M  V30 9529 H 889.309 0.157061 0.652359 0
M  V30 9530 H 891.853 1.07632 1.73884 0
M  V30 9531 H 890.008 -0.200341 3.86882 0
M  V30 9532 H 890.422 1.73065 4.95125 0
M  V30 9533 H 891.896 0.117361 5.51875 0
M  V30 9534 H 892.373 -1.03007 4.2695 0
M  V30 9535 H 892.979 0.64087 4.20444 0
M  V30 9536 N 891.294 -1.47756 0.548274 0
M  V30 9537 C 892.705 -1.8636 0.112547 0
M  V30 9538 C 893.056 -1.45589 -1.31523 0
M  V30 9539 O 892.181 -0.854874 -1.98799 0
M  V30 9540 C 892.776 -3.38224 0.197473 0
M  V30 9541 C 891.335 -3.75954 -0.183163 0
M  V30 9542 C 890.482 -2.7181 0.549059 0
M  V30 9543 H 893.433 -1.394 0.758506 0
M  V30 9544 H 893.454 -3.75957 -0.586217 0
M  V30 9545 H 892.966 -3.67868 1.23673 0
M  V30 9546 H 891.067 -3.51926 -1.22387 0
M  V30 9547 H 891.18 -4.78801 0.169178 0
M  V30 9548 H 889.544 -2.54699 -0.00682862 0
M  V30 9549 H 890.327 -3.04296 1.5893 0
M  V30 9550 N 892.772 -0.284283 -1.55015 0
M  V30 9551 C 894.183 0.211681 -1.85496 0
M  V30 9552 C 894.534 1.54735 -1.2063 0
M  V30 9553 O 893.659 2.10594 -0.497918 0
M  V30 9554 C 894.254 0.390864 -3.36538 0
M  V30 9555 C 892.813 0.831055 -3.67111 0
M  V30 9556 C 891.96 -0.0703581 -2.77211 0
M  V30 9557 H 894.911 -0.505803 -1.50424 0
M  V30 9558 H 894.932 1.22803 -3.60138 0
M  V30 9559 H 894.444 -0.581409 -3.8372 0
M  V30 9560 H 892.545 1.81447 -3.25434 0
M  V30 9561 H 892.658 0.662026 -4.74504 0
M  V30 9562 H 891.022 0.447528 -2.50737 0
M  V30 9563 H 891.805 -1.03868 -3.2721 0
M  V30 9564 N 894.251 1.57596 -0.0117121 0
M  V30 9565 C 895.183 2.06025 1.0043 0
M  V30 9566 C 896.196 0.980348 1.29973 0
M  V30 9567 O 897.385 1.25691 1.26744 0
M  V30 9568 C 894.485 2.45514 2.33615 0
M  V30 9569 C 893.658 3.76378 2.22842 0
M  V30 9570 C 892.717 4.02606 3.38814 0
M  V30 9571 O 891.743 4.73108 3.16477 0
M  V30 9572 N 892.945 3.51416 4.62047 0
M  V30 9573 H 895.71 2.93811 0.591206 0
M  V30 9574 H 893.271 1.60947 0.175427 0
M  V30 9575 H 895.263 2.60166 3.09993 0
M  V30 9576 H 893.833 1.63186 2.66625 0
M  V30 9577 H 893.053 3.71691 1.313 0
M  V30 9578 H 894.341 4.62149 2.12829 0
M  V30 9579 H 893.739 2.94346 4.83091 0
M  V30 9580 H 892.296 3.71377 5.35651 0
M  V30 9581 N 895.729 -0.261212 1.5542 0
M  V30 9582 C 896.954 -1.01341 1.80955 0
M  V30 9583 C 897.379 -1.78711 0.586849 0
M  V30 9584 O 896.737 -1.75266 -0.463837 0
M  V30 9585 C 896.785 -1.93835 3.04073 0
M  V30 9586 O 895.889 -3.02791 2.79985 0
M  V30 9587 H 895.23 -0.289123 0.597749 0
M  V30 9588 H 897.76 -0.286543 2.02584 0
M  V30 9589 H 897.77 -2.3557 3.33123 0
M  V30 9590 H 896.445 -1.36936 3.9271 0
M  V30 9591 H 895.022 -2.65287 2.62063 0
M  V30 9592 N 897.207 -1.48554 -0.526253 0
M  V30 9593 C 898.618 -1.50256 -1.10815 0
M  V30 9594 C 898.969 -0.274445 -1.94271 0
M  V30 9595 O 898.094 0.618094 -2.07385 0
M  V30 9596 C 898.689 -2.72264 -2.01638 0
M  V30 9597 C 897.248 -2.76826 -2.55038 0
M  V30 9598 C 896.395 -2.43823 -1.32081 0
M  V30 9599 H 899.346 -1.55616 -0.31133 0
M  V30 9600 H 899.367 -2.50993 -2.85977 0
M  V30 9601 H 898.879 -3.61632 -1.4087 0
M  V30 9602 H 896.98 -1.91676 -3.19517 0
M  V30 9603 H 897.093 -3.78351 -2.93917 0
M  V30 9604 H 895.457 -1.95058 -1.63781 0
M  V30 9605 H 896.24 -3.35436 -0.730596 0
M  V30 9606 N 898.685 0.775411 -1.37205 0
M  V30 9607 C 899.913 1.56446 -1.35397 0
M  V30 9608 C 900.328 1.887 0.0615437 0
M  V30 9609 O 899.685 1.51178 1.02233 0
M  V30 9610 C 899.736 2.87697 -2.18889 0
M  V30 9611 O 899.457 2.56828 -3.54924 0
M  V30 9612 C 900.958 3.81944 -2.25019 0
M  V30 9613 H 898.178 0.484792 -0.463916 0
M  V30 9614 H 900.722 0.961346 -1.80495 0
M  V30 9615 H 898.877 3.44442 -1.7731 0
M  V30 9616 H 899.291 3.40851 -3.98649 0
M  V30 9617 H 900.765 4.71055 -2.87769 0
M  V30 9618 H 901.242 4.20811 -1.25757 0
M  V30 9619 H 901.848 3.3113 -2.66895 0
M  V30 9620 N 900.163 1.21714 1.00117 0
M  V30 9621 C 901.579 0.97532 1.26332 0
M  V30 9622 C 901.779 -0.336029 1.98678 0
M  V30 9623 O 900.835 -1.06073 2.29139 0
M  V30 9624 C 902.148 2.16848 2.0832 0
M  V30 9625 C 903.696 2.21115 2.21533 0
M  V30 9626 C 904.171 3.3996 3.06906 0
M  V30 9627 N 905.662 3.40071 3.14494 0
M  V30 9628 C 906.397 4.28678 3.80818 0
M  V30 9629 N 905.893 5.2749 4.49139 0
M  V30 9630 N 907.686 4.16476 3.77497 0
M  V30 9631 H 899.837 2.06039 0.515897 0
M  V30 9632 H 902.1 0.902423 0.290408 0
M  V30 9633 H 901.806 3.119 1.62515 0
M  V30 9634 H 901.68 2.16226 3.09073 0
M  V30 9635 H 904.067 1.26616 2.66557 0
M  V30 9636 H 904.148 2.2578 1.20238 0
M  V30 9637 H 903.792 4.34755 2.62585 0
M  V30 9638 H 903.722 3.32534 4.08324 0
M  V30 9639 H 906.213 2.68563 2.65861 0
M  V30 9640 H 906.526 5.91397 4.97463 0
M  V30 9641 H 904.871 5.31412 4.47914 0
M  V30 9642 H 908.062 3.38539 3.23278 0
M  V30 9643 H 908.235 4.85739 4.28908 0
M  V30 9644 N 901.641 -1.19671 1.02551 0
M  V30 9645 C 902.604 -2.20987 0.608055 0
M  V30 9646 C 903.604 -1.5745 -0.326534 0
M  V30 9647 O 904.794 -1.73827 -0.114003 0
M  V30 9648 C 901.926 -3.4072 -0.11074 0
M  V30 9649 H 903.119 -2.59434 1.50446 0
M  V30 9650 H 900.672 -1.3329 0.816307 0
M  V30 9651 H 901.407 -3.07787 -1.02165 0
M  V30 9652 H 901.192 -3.88069 0.560772 0
M  V30 9653 H 902.682 -4.15776 -0.389848 0
M  V30 9654 N 903.119 -0.802921 -1.35613 0
M  V30 9655 C 904.049 -0.225131 -2.32412 0
M  V30 9656 C 905.03 0.647383 -1.57299 0
M  V30 9657 O 906.215 0.578414 -1.85386 0
M  V30 9658 C 903.345 0.630085 -3.41537 0
M  V30 9659 C 902.299 -0.143635 -4.27759 0
M  V30 9660 C 901.625 0.833046 -5.28171 0
M  V30 9661 C 902.925 -1.34054 -5.04804 0
M  V30 9662 H 904.619 -1.03385 -2.80984 0
M  V30 9663 H 902.165 -0.498593 -1.35093 0
M  V30 9664 H 904.118 1.04433 -4.08254 0
M  V30 9665 H 902.842 1.47165 -2.91565 0
M  V30 9666 H 901.501 -0.539015 -3.62616 0
M  V30 9667 H 901.149 1.67001 -4.74468 0
M  V30 9668 H 900.849 0.319697 -5.8673 0
M  V30 9669 H 902.373 1.24558 -5.97761 0
M  V30 9670 H 903.787 -1.00136 -5.64487 0
M  V30 9671 H 902.184 -1.78812 -5.72841 0
M  V30 9672 H 903.254 -2.12906 -4.35659 0
M  V30 9673 N 904.597 1.47463 -0.556102 0
M  V30 9674 C 906.008 1.86298 -0.122429 0
M  V30 9675 C 906.359 1.46285 1.30749 0
M  V30 9676 O 905.484 0.865405 1.98342 0
M  V30 9677 C 906.079 3.38115 -0.215407 0
M  V30 9678 C 904.638 3.76046 0.163223 0
M  V30 9679 C 903.785 2.71515 -0.563466 0
M  V30 9680 H 906.736 1.38996 -0.765888 0
M  V30 9681 H 906.757 3.76263 0.566271 0
M  V30 9682 H 906.269 3.67207 -1.25622 0
M  V30 9683 H 904.37 3.5257 1.20519 0
M  V30 9684 H 904.483 4.78705 -0.194568 0
M  V30 9685 H 902.847 2.54699 -0.00667879 0
M  V30 9686 H 903.63 3.03449 -1.60542 0
M  V30 9687 N 906.075 0.2925 1.54862 0
M  V30 9688 C 907.491 -0.0611461 1.59483 0
M  V30 9689 C 907.691 -1.53141 1.30958 0
M  V30 9690 O 906.747 -2.28291 1.07887 0
M  V30 9691 C 908.06 0.329143 2.98893 0
M  V30 9692 C 909.608 0.2772 3.1177 0
M  V30 9693 C 910.083 0.642185 4.53475 0
M  V30 9694 N 911.574 0.594396 4.5937 0
M  V30 9695 C 912.309 0.849385 5.67074 0
M  V30 9696 N 911.805 1.1699 6.82851 0
M  V30 9697 N 913.598 0.777016 5.56704 0
M  V30 9698 H 905.749 1.25079 1.71665 0
M  V30 9699 H 908.012 0.506516 0.80134 0
M  V30 9700 H 907.718 1.35233 3.24661 0
M  V30 9701 H 907.592 -0.321442 3.75828 0
M  V30 9702 H 909.979 -0.736725 2.85756 0
M  V30 9703 H 910.06 0.962289 2.3701 0
M  V30 9704 H 909.704 1.65388 4.80218 0
M  V30 9705 H 909.634 -0.0648831 5.2656 0
M  V30 9706 H 912.125 0.357256 3.76208 0
M  V30 9707 H 912.438 1.35067 7.60905 0
M  V30 9708 H 910.783 1.20785 6.84424 0
M  V30 9709 H 913.974 0.526333 4.65132 0
M  V30 9710 H 914.147 0.979113 6.4056 0
M  V30 9711 N 907.553 -1.57587 0.0200696 0
M  V30 9712 C 908.964 -1.79312 -0.520019 0
M  V30 9713 C 909.315 -0.929475 -1.72787 0
M  V30 9714 O 908.44 -0.137389 -2.15963 0
M  V30 9715 C 909.035 -3.25203 -0.950172 0
M  V30 9716 C 907.594 -3.47954 -1.43543 0
M  V30 9717 C 906.741 -2.74459 -0.395917 0
M  V30 9718 H 909.692 -1.56779 0.246153 0
M  V30 9719 H 909.713 -3.34418 -1.81508 0
M  V30 9720 H 909.225 -3.88035 -0.070883 0
M  V30 9721 H 907.326 -2.90363 -2.33495 0
M  V30 9722 H 907.439 -4.56661 -1.44905 0
M  V30 9723 H 905.803 -2.39669 -0.862022 0
M  V30 9724 H 906.586 -3.40001 0.47475 0
M  V30 9725 N 909.032 0.252966 -1.55557 0
M  V30 9726 C 909.962 1.31691 -1.9282 0
M  V30 9727 C 910.943 1.50516 -0.7924 0
M  V30 9728 O 912.128 1.63225 -1.05219 0
M  V30 9729 C 909.258 2.67281 -2.21762 0
M  V30 9730 C 908.212 2.6316 -3.37536 0
M  V30 9731 C 907.538 4.02488 -3.52005 0
M  V30 9732 C 908.838 2.20675 -4.73392 0
M  V30 9733 H 910.532 1.00751 -2.81939 0
M  V30 9734 H 908.078 0.483219 -1.3565 0
M  V30 9735 H 910.031 3.41842 -2.46419 0
M  V30 9736 H 908.755 2.99845 -1.29463 0
M  V30 9737 H 907.414 1.91057 -3.12878 0
M  V30 9738 H 907.062 4.32307 -2.57137 0
M  V30 9739 H 906.762 4.00621 -4.29857 0
M  V30 9740 H 908.286 4.78758 -3.78977 0
M  V30 9741 H 909.7 2.84965 -4.97461 0
M  V30 9742 H 908.097 2.29931 -5.54303 0
M  V30 9743 H 909.167 1.15831 -4.70862 0
M  V30 9744 N 910.51 1.48831 0.518367 0
M  V30 9745 C 911.46 1.60614 1.61824 0
M  V30 9746 C 912.444 0.462631 1.54106 0
M  V30 9747 O 913.636 0.714689 1.6193 0
M  V30 9748 C 910.765 1.65984 3.00507 0
M  V30 9749 C 909.851 2.85854 3.13286 0
M  V30 9750 N 910.242 4.1014 2.96005 0
M  V30 9751 C 908.54 2.83429 3.4436 0
M  V30 9752 C 909.241 4.90626 3.12508 0
M  V30 9753 N 908.217 4.2366 3.40607 0
M  V30 9754 H 912.019 2.54443 1.47091 0
M  V30 9755 H 909.533 1.45363 0.724102 0
M  V30 9756 H 911.53 1.72521 3.79529 0
M  V30 9757 H 910.19 0.732792 3.16323 0
M  V30 9758 H 911.201 4.40395 2.72531 0
M  V30 9759 H 907.878 2.0003 3.66462 0
M  V30 9760 H 909.268 5.99302 3.03786 0
M  V30 9761 N 911.988 -0.768124 1.37614 0
M  V30 9762 C 913.399 -1.34462 1.29525 0
M  V30 9763 C 913.75 -1.96121 -0.0555168 0
M  V30 9764 O 912.875 -1.94069 -0.957406 0
M  V30 9765 C 913.47 -2.44475 2.34558 0
M  V30 9766 C 912.029 -2.97883 2.30093 0
M  V30 9767 C 911.176 -1.71131 2.18196 0
M  V30 9768 H 914.127 -0.568103 1.48183 0
M  V30 9769 H 914.148 -3.24047 1.99434 0
M  V30 9770 H 913.66 -1.99568 3.32858 0
M  V30 9771 H 911.761 -3.47156 1.35328 0
M  V30 9772 H 911.874 -3.53251 3.23652 0
M  V30 9773 H 910.238 -1.94197 1.64802 0
M  V30 9774 H 911.021 -1.28323 3.18415 0
M  V30 9775 N 913.466 -1.22244 -0.994698 0
M  V30 9776 C 914.694 -1.07218 -1.76952 0
M  V30 9777 C 915.109 0.377388 -1.8499 0
M  V30 9778 O 914.466 1.26157 -1.31874 0
M  V30 9779 C 914.517 -1.67496 -3.20355 0
M  V30 9780 O 914.238 -3.06782 -3.12756 0
M  V30 9781 C 915.739 -1.57721 -4.14294 0
M  V30 9782 H 912.959 -0.375966 -0.555779 0
M  V30 9783 H 915.503 -1.61799 -1.25065 0
M  V30 9784 H 913.658 -1.16982 -3.69315 0
M  V30 9785 H 914.072 -3.35784 -4.02926 0
M  V30 9786 H 915.546 -2.04623 -5.12673 0
M  V30 9787 H 916.023 -0.533434 -4.35949 0
M  V30 9788 H 916.629 -2.07531 -3.71229 0
M  V30 9789 N 914.944 1.19125 -1.03184 0
M  V30 9790 C 916.355 1.70564 -0.759264 0
M  V30 9791 C 916.706 1.8248 0.720794 0
M  V30 9792 O 915.831 1.49804 1.56166 0
M  V30 9793 C 916.426 3.09793 -1.37163 0
M  V30 9794 C 914.985 3.5848 -1.14757 0
M  V30 9795 C 914.132 2.35265 -1.46784 0
M  V30 9796 H 917.083 1.03925 -1.19939 0
M  V30 9797 H 917.104 3.72624 -0.77015 0
M  V30 9798 H 916.616 3.01088 -2.44882 0
M  V30 9799 H 914.717 3.72494 -0.0887182 0
M  V30 9800 H 914.83 4.42426 -1.83836 0
M  V30 9801 H 913.194 2.38747 -0.887254 0
M  V30 9802 H 913.977 2.29188 -2.55593 0
M  V30 9803 N 916.422 0.810101 1.35185 0
M  V30 9804 C 917.668 0.392698 1.98962 0
M  V30 9805 C 918.001 -1.03835 1.64109 0
M  V30 9806 O 917.276 -1.721 0.9062 0
M  V30 9807 C 917.559 0.580349 3.55393 0
M  V30 9808 C 917.412 2.05658 4.00031 0
M  V30 9809 C 918.731 0.00822618 4.40099 0
M  V30 9810 H 915.85 0.144157 0.722764 0
M  V30 9811 H 918.492 1.02029 1.60281 0
M  V30 9812 H 916.642 0.0461106 3.88473 0
M  V30 9813 H 918.314 2.65348 3.77344 0
M  V30 9814 H 916.557 2.55174 3.50811 0
M  V30 9815 H 917.228 2.13875 5.08883 0
M  V30 9816 H 919.704 0.464517 4.13499 0
M  V30 9817 H 918.58 0.169414 5.48638 0
M  V30 9818 H 918.841 -1.08576 4.2856 0
M  V30 9819 N 917.9 -1.47166 0.563914 0
M  V30 9820 C 919.146 -2.02756 0.0424338 0
M  V30 9821 C 919.479 -1.43662 -1.3067 0
M  V30 9822 O 918.754 -0.594676 -1.85186 0
M  V30 9823 C 919.037 -3.60074 -0.0434793 0
M  V30 9824 C 918.89 -4.29587 1.33323 0
M  V30 9825 C 920.209 -4.336 -0.753568 0
M  V30 9826 H 917.328 -0.736806 0.0168946 0
M  V30 9827 H 919.97 -1.75521 0.727496 0
M  V30 9828 H 918.12 -3.83409 -0.626906 0
M  V30 9829 H 919.792 -4.17573 1.96037 0
M  V30 9830 H 918.035 -3.8968 1.9061 0
M  V30 9831 H 918.706 -5.38218 1.22576 0
M  V30 9832 H 921.182 -4.15299 -0.258126 0
M  V30 9833 H 920.058 -5.43291 -0.782659 0
M  V30 9834 H 920.319 -4.03302 -1.81108 0
M  V30 9835 N 919.378 -0.300708 -1.54705 0
M  V30 9836 C 920.655 0.361757 -1.92226 0
M  V30 9837 C 921.035 1.71714 -1.2279 0
M  V30 9838 O 920.383 2.2559 -0.363542 0
M  V30 9839 C 920.593 0.476699 -3.45729 0
M  V30 9840 C 921.941 0.7477 -4.17965 0
M  V30 9841 O 922.965 0.560521 -3.51762 0
M  V30 9842 O 921.824 1.10724 -5.35166 0
M  V30 9843 H 918.918 0.202213 -0.801897 0
M  V30 9844 H 921.464 -0.348746 -1.66078 0
M  V30 9845 H 920.236 -0.476132 -3.88392 0
M  V30 9846 H 919.859 1.23568 -3.77911 0
M  V30 9847 N 920.856 1.57574 -0.0284266 0
M  V30 9848 C 922.102 1.92884 0.645544 0
M  V30 9849 C 922.457 0.905203 1.69776 0
M  V30 9850 O 921.75 -0.0788509 1.91438 0
M  V30 9851 C 921.944 3.32699 1.3056 0
M  V30 9852 C 921.773 4.48568 0.318848 0
M  V30 9853 C 920.543 5.05235 -0.0810373 0
M  V30 9854 C 922.741 5.12528 -0.426575 0
M  V30 9855 N 920.723 6.04626 -1.06303 0
M  V30 9856 C 922.094 6.07013 -1.26235 0
M  V30 9857 C 924.149 4.95509 -0.48735 0
M  V30 9858 C 922.852 6.8631 -2.15341 0
M  V30 9859 C 924.878 5.75414 -1.36575 0
M  V30 9860 C 924.24 6.69514 -2.1893 0
M  V30 9861 H 920.339 0.753677 0.208555 0
M  V30 9862 H 922.923 1.94466 -0.095439 0
M  V30 9863 H 921.094 3.31938 2.01673 0
M  V30 9864 H 922.826 3.55359 1.93655 0
M  V30 9865 H 919.581 4.72691 0.293264 0
M  V30 9866 H 920.005 6.59012 -1.55025 0
M  V30 9867 H 924.647 4.22584 0.135112 0
M  V30 9868 H 922.365 7.58541 -2.78642 0
M  V30 9869 H 925.951 5.64279 -1.41705 0
M  V30 9870 H 924.831 7.30266 -2.85799 0
M  V30 9871 N 922.334 -0.244713 1.55689 0
M  V30 9872 C 923.611 -0.995407 1.68378 0
M  V30 9873 C 923.991 -2.03288 0.568949 0
M  V30 9874 O 923.339 -2.24469 -0.427299 0
M  V30 9875 C 923.549 -1.62678 3.08767 0
M  V30 9876 C 924.897 -2.1278 3.67437 0
M  V30 9877 O 925.921 -1.72614 3.11581 0
M  V30 9878 O 924.78 -2.86536 4.65359 0
M  V30 9879 H 921.874 -0.463476 0.684923 0
M  V30 9880 H 924.42 -0.238326 1.68018 0
M  V30 9881 H 923.192 -0.876469 3.81358 0
M  V30 9882 H 922.815 -2.45 3.13146 0
M  V30 9883 N 923.813 -1.49104 -0.510467 0
M  V30 9884 C 924.776 -1.64569 -1.59529 0
M  V30 9885 C 925.776 -0.517937 -1.5223 0
M  V30 9886 O 926.966 -0.784183 -1.55551 0
M  V30 9887 C 924.098 -1.6342 -2.99177 0
M  V30 9888 H 925.291 -2.61318 -1.4715 0
M  V30 9889 H 922.844 -1.37993 -0.734001 0
M  V30 9890 H 923.579 -0.68221 -3.17043 0
M  V30 9891 H 923.364 -2.45312 -3.05883 0
M  V30 9892 H 924.854 -1.77474 -3.78011 0
M  V30 9893 N 925.291 0.760815 -1.38019 0
M  V30 9894 C 926.707 1.06289 -1.19058 0
M  V30 9895 C 926.907 2.01471 -0.0342603 0
M  V30 9896 O 925.963 2.44713 0.62224 0
M  V30 9897 C 927.276 1.6499 -2.51394 0
M  V30 9898 C 928.824 1.77196 -2.58013 0
M  V30 9899 C 929.299 2.3931 -3.90506 0
M  V30 9900 N 930.79 2.46749 -3.92007 0
M  V30 9901 C 931.525 2.95687 -4.91281 0
M  V30 9902 N 931.021 3.44715 -6.00952 0
M  V30 9903 N 932.814 2.94661 -4.78677 0
M  V30 9904 H 924.965 0.129045 -2.12008 0
M  V30 9905 H 927.228 0.119878 -0.94039 0
M  V30 9906 H 926.934 1.0252 -3.36426 0
M  V30 9907 H 926.808 2.64146 -2.6927 0
M  V30 9908 H 929.195 2.38796 -1.7338 0
M  V30 9909 H 929.276 0.767645 -2.4401 0
M  V30 9910 H 928.92 1.78346 -4.75558 0
M  V30 9911 H 928.85 3.40369 -4.01817 0
M  V30 9912 H 931.341 2.12064 -3.12789 0
M  V30 9913 H 931.654 3.80492 -6.72641 0
M  V30 9914 H 929.999 3.42791 -6.04582 0
M  V30 9915 H 933.19 2.55665 -3.92113 0
M  V30 9916 H 933.363 3.32489 -5.56197 0
M  V30 9917 N 926.769 1.22769 0.988202 0
M  V30 9918 C 928.18 1.0512 1.54294 0
M  V30 9919 C 928.531 -0.383904 1.92407 0
M  V30 9920 O 927.656 -1.26955 1.75246 0
M  V30 9921 C 928.251 1.90198 2.80375 0
M  V30 9922 C 926.81 1.76831 3.32276 0
M  V30 9923 C 925.957 1.86377 2.05326 0
M  V30 9924 H 928.908 1.36546 0.808758 0
M  V30 9925 H 928.929 1.42216 3.52923 0
M  V30 9926 H 928.441 2.9464 2.52605 0
M  V30 9927 H 926.542 0.751412 3.64945 0
M  V30 9928 H 926.655 2.59771 4.02562 0
M  V30 9929 H 925.019 1.2987 2.19103 0
M  V30 9930 H 925.802 2.9236 1.79946 0
M  V30 9931 N 928.247 -1.18576 1.03814 0
M  V30 9932 C 929.177 -2.24334 0.647795 0
M  V30 9933 C 930.158 -1.66508 -0.34774 0
M  V30 9934 O 931.343 -1.92852 -0.228401 0
M  V30 9935 C 928.473 -3.47299 0.00734922 0
M  V30 9936 C 927.427 -4.17859 0.926152 0
M  V30 9937 C 926.753 -5.34489 0.150317 0
M  V30 9938 C 928.053 -4.71632 2.24411 0
M  V30 9939 H 929.747 -2.57241 1.53191 0
M  V30 9940 H 927.293 -1.23649 0.738028 0
M  V30 9941 H 929.246 -4.20486 -0.277434 0
M  V30 9942 H 927.97 -3.13619 -0.911626 0
M  V30 9943 H 926.629 -3.46567 1.19528 0
M  V30 9944 H 926.277 -4.97056 -0.770985 0
M  V30 9945 H 925.977 -5.82633 0.762407 0
M  V30 9946 H 927.501 -6.10467 -0.127508 0
M  V30 9947 H 928.915 -5.36526 2.02021 0
M  V30 9948 H 927.312 -5.303 2.80894 0
M  V30 9949 H 928.382 -3.89192 2.89236 0
M  V30 9950 N 929.725 -0.817259 -1.34754 0
M  V30 9951 C 931.136 -0.462215 -1.80888 0
M  V30 9952 C 931.487 1.01685 -1.67794 0
M  V30 9953 O 930.612 1.79094 -1.21468 0
M  V30 9954 C 931.207 -0.832204 -3.2842 0
M  V30 9955 C 929.766 -0.52961 -3.72655 0
M  V30 9956 C 928.913 -1.05214 -2.56564 0
M  V30 9957 H 931.864 -1.00795 -1.22581 0
M  V30 9958 H 931.885 -0.133804 -3.80265 0
M  V30 9959 H 931.397 -1.90873 -3.37919 0
M  V30 9960 H 929.498 0.537743 -3.68699 0
M  V30 9961 H 929.611 -1.06971 -4.67005 0
M  V30 9962 H 927.975 -0.473949 -2.50251 0
M  V30 9963 H 928.758 -2.135 -2.68836 0
M  V30 9964 N 931.203 1.46865 -0.571711 0
M  V30 9965 C 932.614 1.86158 -0.142181 0
M  V30 9966 C 932.965 1.47663 1.2919 0
M  V30 9967 O 932.09 0.886393 1.97413 0
M  V30 9968 C 932.685 3.37867 -0.251256 0
M  V30 9969 C 931.244 3.76198 0.123329 0
M  V30 9970 C 930.391 2.70902 -0.592232 0
M  V30 9971 H 933.342 1.38176 -0.780587 0
M  V30 9972 H 933.363 3.76842 0.526331 0
M  V30 9973 H 932.875 3.65853 -1.2951 0
M  V30 9974 H 930.976 3.53829 1.16773 0
M  V30 9975 H 931.089 4.78471 -0.24533 0
M  V30 9976 H 929.453 2.54678 -0.0336927 0
M  V30 9977 H 930.236 3.01729 -1.63751 0
M  V30 9978 N 932.681 0.308908 1.54543 0
M  V30 9979 C 934.092 -0.182144 1.85809 0
M  V30 9980 C 934.443 -1.52796 1.23076 0
M  V30 9981 O 933.568 -2.09775 0.531358 0
M  V30 9982 C 934.163 -0.337275 3.37117 0
M  V30 9983 C 932.722 -0.772545 3.68387 0
M  V30 9984 C 931.869 0.114451 2.77064 0
M  V30 9985 H 934.82 0.529671 1.496 0
M  V30 9986 H 934.841 -1.17058 3.62046 0
M  V30 9987 H 934.353 0.642382 3.82747 0
M  V30 9988 H 932.454 -1.76247 3.2828 0
M  V30 9989 H 932.567 -0.586453 4.75497 0
M  V30 9990 H 930.931 -0.407581 2.51418 0
M  V30 9991 H 931.714 1.09061 3.25516 0
M  V30 9992 N 934.159 -1.57557 0.0367827 0
M  V30 9993 C 935.57 -1.79853 -0.500971 0
M  V30 9994 C 935.921 -0.947749 -1.71791 0
M  V30 9995 O 935.046 -0.160287 -2.15806 0
M  V30 9996 C 935.641 -3.26193 -0.915626 0
M  V30 9997 C 934.2 -3.49457 -1.39845 0
M  V30 9998 C 933.347 -2.74864 -0.366784 0
M  V30 9999 H 936.298 -1.56509 0.262768 0
M  V30 10000 H 936.319 -3.36324 -1.7795 0
M  V30 10001 H 935.831 -3.88089 -0.0297227 0
M  V30 10002 H 933.932 -2.92823 -2.30402 0
M  V30 10003 H 934.045 -4.58172 -1.40054 0
M  V30 10004 H 932.409 -2.4057 -0.836554 0
M  V30 10005 H 933.192 -3.39479 0.510785 0
M  V30 10006 N 935.637 0.236453 -1.55816 0
M  V30 10007 C 936.6 1.27633 -1.90375 0
M  V30 10008 C 937.6 1.40557 -0.781048 0
M  V30 10009 O 938.79 1.39078 -1.04895 0
M  V30 10010 C 935.922 2.65247 -2.14142 0
M  V30 10011 H 937.115 0.982019 -2.83366 0
M  V30 10012 H 934.668 0.476215 -1.48869 0
M  V30 10013 H 935.403 2.99801 -1.23653 0
M  V30 10014 H 935.188 2.57246 -2.95917 0
M  V30 10015 H 936.678 3.40313 -2.42026 0
M  V30 10016 N 937.115 1.49373 0.502552 0
M  V30 10017 C 938.345 1.62252 1.27898 0
M  V30 10018 C 938.753 0.292555 1.86924 0
M  V30 10019 O 938.096 -0.731823 1.68493 0
M  V30 10020 C 938.158 2.63153 2.4493 0
M  V30 10021 C 937.822 4.07541 2.06784 0
M  V30 10022 C 938.819 4.94392 1.60849 0
M  V30 10023 C 936.504 4.53263 2.16466 0
M  V30 10024 C 938.498 6.25003 1.25098 0
M  V30 10025 C 936.185 5.83888 1.80327 0
M  V30 10026 C 937.183 6.69582 1.34718 0
M  V30 10027 O 936.871 7.97773 0.990661 0
M  V30 10028 H 936.603 0.54918 0.394179 0
M  V30 10029 H 939.157 1.96132 0.610031 0
M  V30 10030 H 937.387 2.2445 3.14895 0
M  V30 10031 H 939.076 2.65578 3.06957 0
M  V30 10032 H 939.842 4.60296 1.52816 0
M  V30 10033 H 935.721 3.86731 2.50919 0
M  V30 10034 H 939.265 6.91844 0.894269 0
M  V30 10035 H 935.162 6.17513 1.8801 0
M  V30 10036 H 935.93 8.1077 1.12227 0
M  V30 10037 N 938.594 -0.753485 1.38421 0
M  V30 10038 C 939.871 -1.50318 1.25155 0
M  V30 10039 C 940.251 -2.10588 -0.147003 0
M  V30 10040 O 939.599 -1.97071 -1.15651 0
M  V30 10041 C 939.809 -2.56946 2.36177 0
M  V30 10042 C 941.157 -3.23846 2.74607 0
M  V30 10043 O 942.181 -2.67251 2.3549 0
M  V30 10044 O 941.04 -4.2621 3.42064 0
M  V30 10045 H 938.134 -0.666624 0.48943 0
M  V30 10046 H 940.68 -0.788887 1.50249 0
M  V30 10047 H 939.452 -2.1066 3.29754 0
M  V30 10048 H 939.075 -3.35956 2.12648 0
M  V30 10049 N 940.072 -1.23292 -0.981677 0
M  V30 10050 C 941.349 -0.972514 -1.6971 0
M  V30 10051 C 941.729 0.509244 -2.04866 0
M  V30 10052 O 941.077 1.48013 -1.74082 0
M  V30 10053 C 941.287 -1.88144 -2.93943 0
M  V30 10054 C 942.635 -2.14416 -3.66485 0
M  V30 10055 O 943.659 -1.85684 -3.03974 0
M  V30 10056 O 942.518 -2.63139 -4.78978 0
M  V30 10057 H 939.612 -0.366673 -0.741269 0
M  V30 10058 H 942.158 -1.34328 -1.03701 0
M  V30 10059 H 940.93 -2.8832 -2.64551 0
M  V30 10060 H 940.553 -1.51296 -3.67689 0
M  V30 10061 N 941.55 1.18024 -1.04442 0
M  V30 10062 C 942.796 1.88377 -0.751133 0
M  V30 10063 C 943.129 1.80377 0.719571 0
M  V30 10064 O 942.404 1.20662 1.52548 0
M  V30 10065 C 942.687 3.38708 -1.22265 0
M  V30 10066 C 942.54 3.55499 -2.75574 0
M  V30 10067 C 943.859 4.32475 -0.815688 0
M  V30 10068 H 940.978 0.684037 -0.27434 0
M  V30 10069 H 943.62 1.38837 -1.29709 0
M  V30 10070 H 941.77 3.8103 -0.758192 0
M  V30 10071 H 943.442 3.22244 -3.30086 0
M  V30 10072 H 941.685 2.98028 -3.15217 0
M  V30 10073 H 942.356 4.60994 -3.03625 0
M  V30 10074 H 944.832 3.97953 -1.21542 0
M  V30 10075 H 943.708 5.36213 -1.17331 0
M  V30 10076 H 943.969 4.41207 0.280901 0
M  V30 10077 N 943.028 0.824394 1.34319 0
M  V30 10078 C 943.991 0.252696 2.27803 0
M  V30 10079 C 944.991 -0.570254 1.50349 0
M  V30 10080 O 946.181 -0.386145 1.69866 0
M  V30 10081 C 943.313 -0.645575 3.34731 0
M  V30 10082 H 944.506 1.07742 2.79878 0
M  V30 10083 H 942.059 0.596367 1.44475 0
M  V30 10084 H 942.794 -1.4933 2.87873 0
M  V30 10085 H 942.579 -0.0569478 3.92059 0
M  V30 10086 H 944.069 -1.03933 4.0446 0
M  V30 10087 N 944.506 -1.46559 0.579492 0
M  V30 10088 C 945.438 -2.28383 -0.19337 0
M  V30 10089 C 946.451 -1.38324 -0.858511 0
M  V30 10090 O 947.64 -1.62952 -0.728615 0
M  V30 10091 C 944.74 -3.13262 -1.29306 0
M  V30 10092 C 943.913 -4.31426 -0.720459 0
M  V30 10093 C 942.972 -4.97728 -1.70744 0
M  V30 10094 O 941.998 -5.55423 -1.24476 0
M  V30 10095 N 943.2 -4.94445 -3.04146 0
M  V30 10096 H 945.965 -2.95353 0.508611 0
M  V30 10097 H 943.526 -1.56436 0.417046 0
M  V30 10098 H 945.518 -3.54483 -1.95254 0
M  V30 10099 H 944.088 -2.48388 -1.89795 0
M  V30 10100 H 943.308 -3.94028 0.116398 0
M  V30 10101 H 944.596 -5.07808 -0.31763 0
M  V30 10102 H 943.994 -4.4881 -3.44363 0
M  V30 10103 H 942.551 -5.39616 -3.65592 0
M  V30 10104 N 945.984 -0.3171 -1.54377 0
M  V30 10105 C 947.261 0.341348 -1.92598 0
M  V30 10106 C 947.641 1.70402 -1.24605 0
M  V30 10107 O 946.989 2.25191 -0.387448 0
M  V30 10108 C 947.199 0.440003 -3.46215 0
M  V30 10109 C 948.547 0.703327 -4.18734 0
M  V30 10110 O 949.571 0.523181 -3.52337 0
M  V30 10111 O 948.43 1.05042 -5.3631 0
M  V30 10112 H 945.524 0.193696 -0.803997 0
M  V30 10113 H 948.07 -0.366341 -1.65699 0
M  V30 10114 H 946.842 -0.517299 -3.87866 0
M  V30 10115 H 946.465 1.19553 -3.792 0
M  V30 10116 N 947.462 1.57535 -0.0451378 0
M  V30 10117 C 948.372 2.14653 0.946646 0
M  V30 10118 C 949.388 1.10279 1.3459 0
M  V30 10119 O 950.564 1.42417 1.42405 0
M  V30 10120 C 947.629 2.67533 2.20515 0
M  V30 10121 C 946.69 3.86682 1.86481 0
M  V30 10122 C 945.923 4.37031 3.06332 0
M  V30 10123 O 946.146 3.86481 4.1951 0
M  V30 10124 O 945.08 5.28691 2.87697 0
M  V30 10125 H 948.906 2.99706 0.49091 0
M  V30 10126 H 946.491 1.48355 0.17641 0
M  V30 10127 H 948.373 3.01542 2.94365 0
M  V30 10128 H 947.048 1.85554 2.65238 0
M  V30 10129 H 945.955 3.57573 1.09966 0
M  V30 10130 H 947.288 4.69873 1.46562 0
M  V30 10131 N 948.94 -0.228186 1.55939 0
M  V30 10132 C 950.217 -0.977492 1.69424 0
M  V30 10133 C 950.597 -2.02674 0.590479 0
M  V30 10134 O 949.945 -2.2491 -0.403467 0
M  V30 10135 C 950.155 -1.59394 3.10475 0
M  V30 10136 C 951.503 -2.08871 3.69673 0
M  V30 10137 O 952.527 -1.693 3.13394 0
M  V30 10138 O 951.386 -2.81584 4.68372 0
M  V30 10139 H 948.48 -0.456185 0.6898 0
M  V30 10140 H 951.026 -0.220492 1.68261 0
M  V30 10141 H 949.798 -0.835971 3.82266 0
M  V30 10142 H 949.421 -2.41665 3.15727 0
M  V30 10143 N 950.418 -1.49637 -0.494624 0
M  V30 10144 C 951.695 -1.4995 -1.25596 0
M  V30 10145 C 952.075 -0.230805 -2.09834 0
M  V30 10146 O 951.423 0.786625 -2.14533 0
M  V30 10147 C 951.633 -2.78204 -2.10721 0
M  V30 10148 C 952.981 -3.27946 -2.69698 0
M  V30 10149 O 954.005 -2.79365 -2.20984 0
M  V30 10150 O 952.864 -4.12571 -3.58395 0
M  V30 10151 H 949.958 -0.60044 -0.568684 0
M  V30 10152 H 952.504 -1.61906 -0.508371 0
M  V30 10153 H 951.276 -3.62029 -1.48494 0
M  V30 10154 H 950.899 -2.69139 -2.92661 0
M  V30 10155 N 951.896 0.746133 -1.38819 0
M  V30 10156 C 953.143 1.50545 -1.35434 0
M  V30 10157 C 953.471 1.94427 0.0532669 0
M  V30 10158 O 952.726 1.66285 1.03188 0
M  V30 10159 C 953.025 2.76639 -2.26286 0
M  V30 10160 C 952.691 2.51682 -3.74122 0
M  V30 10161 C 951.353 2.44584 -4.14406 0
M  V30 10162 C 953.705 2.30071 -4.67672 0
M  V30 10163 C 951.033 2.13902 -5.46318 0
M  V30 10164 C 953.385 2.00907 -5.99849 0
M  V30 10165 C 952.049 1.92271 -6.39209 0
M  V30 10166 H 951.319 0.550883 -0.49559 0
M  V30 10167 H 953.966 0.857337 -1.71237 0
M  V30 10168 H 952.271 3.46138 -1.83564 0
M  V30 10169 H 953.968 3.34626 -2.20967 0
M  V30 10170 H 950.558 2.5808 -3.42188 0
M  V30 10171 H 954.742 2.34528 -4.3739 0
M  V30 10172 H 949.998 2.0573 -5.75748 0
M  V30 10173 H 954.172 1.83191 -6.71874 0
M  V30 10174 H 951.799 1.68261 -7.41345 0
M  V30 10175 N 953.375 1.23811 0.975125 0
M  V30 10176 C 954.285 1.0408 2.10249 0
M  V30 10177 C 955.301 -0.0162404 1.73992 0
M  V30 10178 O 956.477 0.180346 2.00591 0
M  V30 10179 C 953.542 0.640013 3.40741 0
M  V30 10180 C 952.603 1.7727 3.90991 0
M  V30 10181 C 951.836 1.39094 5.15256 0
M  V30 10182 O 952.059 0.277483 5.69725 0
M  V30 10183 O 950.993 2.21392 5.59704 0
M  V30 10184 H 954.819 1.98575 2.29786 0
M  V30 10185 H 952.404 1.02563 1.08633 0
M  V30 10186 H 954.286 0.427684 4.19224 0
M  V30 10187 H 952.961 -0.27589 3.22522 0
M  V30 10188 H 951.868 2.03971 3.13602 0
M  V30 10189 H 953.201 2.66711 4.13674 0
M  V30 10190 N 954.853 -1.17469 1.05066 0
M  V30 10191 C 956.102 -1.87032 0.755114 0
M  V30 10192 C 956.415 -1.81844 -0.720572 0
M  V30 10193 O 957.621 -2.46866 -1.13002 0
M  V30 10194 C 956.077 -3.35581 1.30052 0
M  V30 10195 C 955.685 -3.49274 2.80556 0
M  V30 10196 C 957.429 -4.1048 1.08196 0
M  V30 10197 C 955.336 -4.91838 3.28404 0
M  V30 10198 H 954.266 -0.70057 0.278779 0
M  V30 10199 H 956.917 -1.32663 1.26779 0
M  V30 10200 H 955.299 -3.89479 0.715667 0
M  V30 10201 H 956.473 -3.05598 3.44886 0
M  V30 10202 H 954.788 -2.87793 3.00939 0
M  V30 10203 H 957.385 -5.15652 1.41447 0
M  V30 10204 H 957.728 -4.16295 0.0196603 0
M  V30 10205 H 958.261 -3.62784 1.63195 0
M  V30 10206 H 955 -4.91196 4.34058 0
M  V30 10207 H 954.52 -5.36189 2.68815 0
M  V30 10208 H 956.199 -5.60602 3.23009 0
M  V30 10209 N 956.331 -0.831506 -1.3388 0
M  V30 10210 C 957.571 -0.429648 -1.99833 0
M  V30 10211 C 957.935 0.990796 -1.6446 0
M  V30 10212 O 959.136 1.49599 -2.23324 0
M  V30 10213 C 957.407 -0.635558 -3.51704 0
M  V30 10214 S 958.966 -0.327824 -4.37574 0
M  V30 10215 H 955.784 -0.161939 -0.692313 0
M  V30 10216 H 958.386 -1.07919 -1.63015 0
M  V30 10217 H 957.09 -1.66887 -3.74936 0
M  V30 10218 H 956.621 0.0284073 -3.9339 0
M  V30 10219 H 958.636 0.855231 -4.88774 0
M  V30 10220 N 957.809 1.4625 -0.587256 0
M  V30 10221 C 959.034 2.07252 -0.0784517 0
M  V30 10222 C 959.459 1.43239 1.21919 0
M  V30 10223 O 958.817 0.517791 1.73749 0
M  V30 10224 C 958.865 3.60534 0.0691037 0
M  V30 10225 O 957.969 3.96773 1.12448 0
M  V30 10226 H 957.31 0.660825 -0.064859 0
M  V30 10227 H 959.84 1.87819 -0.811491 0
M  V30 10228 H 959.85 4.0708 0.273826 0
M  V30 10229 H 958.525 4.06516 -0.878514 0
M  V30 10230 H 957.102 3.6193 0.897852 0
M  V30 10231 N 959.287 0.325282 1.54207 0
M  V30 10232 C 960.536 -0.27768 1.99779 0
M  V30 10233 C 960.849 -1.5311 1.21723 0
M  V30 10234 O 962.055 -2.21017 1.57682 0
M  V30 10235 C 960.511 -0.545329 3.55745 0
M  V30 10236 C 960.119 0.691143 4.42637 0
M  V30 10237 C 961.863 -1.10815 4.09781 0
M  V30 10238 C 959.77 0.395302 5.90077 0
M  V30 10239 H 958.7 -0.107536 0.746292 0
M  V30 10240 H 961.351 0.437773 1.78202 0
M  V30 10241 H 959.733 -1.32101 3.73317 0
M  V30 10242 H 960.907 1.46653 4.3684 0
M  V30 10243 H 959.222 1.1743 3.99499 0
M  V30 10244 H 961.819 -1.34414 5.1753 0
M  V30 10245 H 962.162 -2.05806 3.6187 0
M  V30 10246 H 962.695 -0.393608 3.95848 0
M  V30 10247 H 959.434 1.31443 6.42186 0
M  V30 10248 H 958.954 -0.34235 5.98822 0
M  V30 10249 H 960.633 0.00576877 6.47 0
M  V30 10250 N 960.765 -1.57509 0.0534917 0
M  V30 10251 C 961.713 -2.12851 -0.937931 0
M  V30 10252 C 962.707 -1.06088 -1.32067 0
M  V30 10253 O 963.913 -1.24494 -1.30005 0
M  V30 10254 H 960.288 -0.680357 -0.320342 0
M  V30 10255 H 962.259 -2.95047 -0.446077 0
M  V30 10256 C 961.008 -2.69034 -2.20264 0
M  V30 10257 H 960.331 -3.50848 -1.91693 0
M  V30 10258 H 961.771 -3.11375 -2.87788 0
M  V30 10259 C 960.23 -1.62919 -2.94888 0
M  V30 10260 O 960.76 -1.04334 -3.87914 0
M  V30 10261 N 958.966 -1.34385 -2.57661 0
M  V30 10262 H 958.513 -1.82214 -1.82088 0
M  V30 10263 H 958.471 -0.636149 -3.07897 0
M  V30 10264 N 962.243 0.219913 -1.56058 0
M  V30 10265 C 963.468 0.965073 -1.83579 0
M  V30 10266 C 963.893 1.77092 -0.634024 0
M  V30 10267 O 963.251 1.76434 0.417205 0
M  V30 10268 C 963.299 1.85705 -3.09105 0
M  V30 10269 O 962.403 2.95261 -2.87914 0
M  V30 10270 H 961.744 0.273173 -0.605204 0
M  V30 10271 H 964.274 0.23273 -2.03272 0
M  V30 10272 H 964.284 2.26655 -3.39252 0
M  V30 10273 H 962.959 1.26476 -3.96203 0
M  V30 10274 H 961.536 2.58246 -2.69005 0
M  V30 10275 N 963.721 1.49897 0.486681 0
M  V30 10276 C 964.949 1.63837 1.26353 0
M  V30 10277 C 965.364 0.315428 1.86146 0
M  V30 10278 O 964.721 -0.700831 1.68507 0
M  V30 10279 C 964.772 2.71792 2.38351 0
M  V30 10280 O 964.493 3.98956 1.81013 0
M  V30 10281 C 965.994 2.96566 3.2949 0
M  V30 10282 H 963.214 0.551158 0.382709 0
M  V30 10283 H 965.758 1.96023 0.582694 0
M  V30 10284 H 963.913 2.42344 3.02238 0
M  V30 10285 H 964.327 4.58536 2.54647 0
M  V30 10286 H 965.801 3.75803 4.04322 0
M  V30 10287 H 966.278 2.07031 3.87343 0
M  V30 10288 H 966.884 3.27485 2.71355 0
M  V30 10289 N 965.199 -0.738761 1.39212 0
M  V30 10290 C 966.129 -1.86602 1.40364 0
M  V30 10291 C 967.11 -1.67984 0.267495 0
M  V30 10292 O 968.295 -1.88358 0.472765 0
M  V30 10293 C 965.425 -3.24308 1.24265 0
M  V30 10294 C 964.379 -3.57557 2.35239 0
M  V30 10295 C 963.705 -4.94159 2.04233 0
M  V30 10296 C 965.005 -3.60914 3.77543 0
M  V30 10297 H 966.699 -1.85896 2.34698 0
M  V30 10298 H 964.245 -0.892959 1.1297 0
M  V30 10299 H 966.198 -4.02838 1.23692 0
M  V30 10300 H 964.922 -3.25531 0.263974 0
M  V30 10301 H 963.581 -2.81354 2.35022 0
M  V30 10302 H 963.229 -4.91959 1.04813 0
M  V30 10303 H 962.929 -5.17373 2.78567 0
M  V30 10304 H 964.453 -5.7505 2.05303 0
M  V30 10305 H 965.867 -4.29528 3.79709 0
M  V30 10306 H 964.264 -3.95644 4.51205 0
M  V30 10307 H 965.334 -2.60803 4.08791 0
M  V30 10308 N 966.677 -1.24326 -0.968545 0
M  V30 10309 C 967.923 -1.08406 -1.71394 0
M  V30 10310 C 968.256 0.376353 -1.90518 0
M  V30 10311 O 967.531 1.27816 -1.46606 0
M  V30 10312 C 967.814 -1.82344 -3.1052 0
M  V30 10313 C 967.667 -3.3613 -2.98893 0
M  V30 10314 C 968.986 -1.59545 -4.10163 0
M  V30 10315 H 966.105 -0.395205 -0.622079 0
M  V30 10316 H 968.747 -1.52983 -1.12677 0
M  V30 10317 H 966.897 -1.44452 -3.60646 0
M  V30 10318 H 968.569 -3.83614 -2.56199 0
M  V30 10319 H 966.812 -3.64553 -2.35124 0
M  V30 10320 H 967.483 -3.83064 -3.97449 0
M  V30 10321 H 969.959 -1.92504 -3.68892 0
M  V30 10322 H 968.835 -2.13736 -5.05577 0
M  V30 10323 H 969.096 -0.533503 -4.38869 0
M  V30 10324 N 968.156 1.1691 -1.05688 0
M  V30 10325 C 969.404 1.86922 -0.768409 0
M  V30 10326 C 969.725 1.81735 0.706921 0
M  V30 10327 O 968.995 1.24671 1.51109 0
M  V30 10328 H 967.575 0.69203 -0.281253 0
M  V30 10329 H 970.237 1.41803 -1.33708 0
M  V30 10330 H 969.333 2.92528 -1.08783 0
M  V30 10331 N 969.634 0.838594 1.33437 0
M  V30 10332 C 970.597 0.276843 2.27522 0
M  V30 10333 C 971.597 -0.554275 1.50945 0
M  V30 10334 O 972.787 -0.368107 1.70266 0
M  V30 10335 C 969.919 -0.610036 3.35397 0
M  V30 10336 H 971.112 1.10705 2.78719 0
M  V30 10337 H 968.665 0.611657 1.43835 0
M  V30 10338 H 969.4 -1.46269 2.89441 0
M  V30 10339 H 969.185 -0.0153615 3.92097 0
M  V30 10340 H 970.675 -0.996368 4.05539 0
M  V30 10341 N 971.112 -1.45937 0.595003 0
M  V30 10342 C 972.36 -2.01921 0.0851368 0
M  V30 10343 C 972.681 -1.46748 -1.28413 0
M  V30 10344 O 971.951 -0.656873 -1.84559 0
M  V30 10345 H 970.531 -0.746457 0.0284826 0
M  V30 10346 H 973.193 -1.78891 0.773561 0
M  V30 10347 H 972.289 -3.1209 0.0254002 0
M  V30 10348 N 972.59 -0.333456 -1.54032 0
M  V30 10349 C 973.836 0.266527 -2.01041 0
M  V30 10350 C 974.169 1.51006 -1.2211 0
M  V30 10351 O 973.444 1.92078 -0.306016 0
M  V30 10352 C 973.727 0.59078 -3.55221 0
M  V30 10353 C 973.58 -0.664143 -4.4487 0
M  V30 10354 C 974.899 1.40447 -4.17088 0
M  V30 10355 H 972.018 0.0953979 -0.7308 0
M  V30 10356 H 974.66 -0.451995 -1.84545 0
M  V30 10357 H 972.81 1.20292 -3.69408 0
M  V30 10358 H 974.482 -1.30227 -4.42537 0
M  V30 10359 H 972.725 -1.29106 -4.14143 0
M  V30 10360 H 973.396 -0.392664 -5.50602 0
M  V30 10361 H 975.872 0.886946 -4.06537 0
M  V30 10362 H 974.748 1.6001 -5.2506 0
M  V30 10363 H 975.009 2.40357 -3.71054 0
M  V30 10364 N 974.068 1.57479 -0.061844 0
M  V30 10365 C 975.479 1.80627 0.472295 0
M  V30 10366 C 975.83 0.97496 1.70261 0
M  V30 10367 O 974.955 0.1946 2.15523 0
M  V30 10368 C 975.55 3.27608 0.863616 0
M  V30 10369 C 974.109 3.51638 1.34267 0
M  V30 10370 C 973.256 2.75412 0.323009 0
M  V30 10371 H 976.207 1.56072 -0.287634 0
M  V30 10372 H 976.228 3.39113 1.72577 0
M  V30 10373 H 975.74 3.88087 -0.0320226 0
M  V30 10374 H 973.841 2.96452 2.25714 0
M  V30 10375 H 973.954 4.60342 1.32747 0
M  V30 10376 H 972.318 2.4187 0.798175 0
M  V30 10377 H 973.101 3.38623 -0.564729 0
M  V30 10378 N 975.546 -0.211634 1.56173 0
M  V30 10379 C 976.509 -1.24588 1.92381 0
M  V30 10380 C 977.509 -1.39297 0.803311 0
M  V30 10381 O 978.699 -1.37392 1.07094 0
M  V30 10382 C 975.831 -2.61807 2.18335 0
M  V30 10383 H 977.024 -0.936814 2.84893 0
M  V30 10384 H 974.577 -0.452471 1.49607 0
M  V30 10385 H 975.312 -2.97795 1.28407 0
M  V30 10386 H 975.097 -2.52506 2.99972 0
M  V30 10387 H 976.587 -3.3642 2.4741 0
M  V30 10388 N 977.024 -1.50153 -0.478725 0
M  V30 10389 C 978.272 -1.60443 -1.22892 0
M  V30 10390 C 978.593 -0.303276 -1.92627 0
M  V30 10391 O 977.863 0.678798 -1.83764 0
M  V30 10392 H 976.443 -0.591205 -0.456602 0
M  V30 10393 H 979.105 -1.86893 -0.552905 0
M  V30 10394 H 978.201 -2.41175 -1.98094 0
M  V30 10395 N 978.502 0.731368 -1.39602 0
M  V30 10396 C 979.913 1.30981 -1.33045 0
M  V30 10397 C 980.264 1.962 0.00349918 0
M  V30 10398 O 979.389 1.96539 0.905615 0
M  V30 10399 C 979.984 2.3817 -2.40958 0
M  V30 10400 C 978.543 2.91678 -2.3791 0
M  V30 10401 C 977.69 1.65286 -2.22656 0
M  V30 10402 H 980.641 0.528615 -1.49637 0
M  V30 10403 H 980.662 3.18645 -2.07955 0
M  V30 10404 H 980.174 1.90673 -3.38032 0
M  V30 10405 H 978.275 3.43446 -1.44485 0
M  V30 10406 H 978.388 3.44545 -3.32904 0
M  V30 10407 H 976.752 1.89759 -1.69893 0
M  V30 10408 H 977.535 1.19836 -3.21705 0
M  V30 10409 N 979.98 1.24838 0.961938 0
M  V30 10410 C 981.205 1.11967 1.7458 0
M  V30 10411 C 981.63 -0.323287 1.85301 0
M  V30 10412 O 980.988 -1.23412 1.32812 0
M  V30 10413 C 981.036 1.77066 3.14134 0
M  V30 10414 O 980.14 1.04534 3.98932 0
M  V30 10415 H 979.481 0.391338 0.536424 0
M  V30 10416 H 982.011 1.65259 1.20626 0
M  V30 10417 H 982.021 1.83056 3.64629 0
M  V30 10418 H 980.696 2.82052 3.05646 0
M  V30 10419 H 979.273 1.06372 3.57407 0
M  V30 10420 N 981.458 -1.16348 1.06306 0
M  V30 10421 C 982.39 -2.20316 0.631929 0
M  V30 10422 C 983.403 -1.59819 -0.310133 0
M  V30 10423 O 984.592 -1.78213 -0.101103 0
M  V30 10424 C 981.692 -3.3877 -0.0937645 0
M  V30 10425 C 980.865 -4.28826 0.861816 0
M  V30 10426 C 979.924 -5.25908 0.175346 0
M  V30 10427 O 978.95 -5.63363 0.813039 0
M  V30 10428 N 980.152 -5.70307 -1.08305 0
M  V30 10429 H 982.917 -2.57925 1.52626 0
M  V30 10430 H 980.478 -1.31358 0.946392 0
M  V30 10431 H 982.47 -4.00759 -0.563412 0
M  V30 10432 H 981.04 -2.99666 -0.889904 0
M  V30 10433 H 980.26 -3.64098 1.51083 0
M  V30 10434 H 981.548 -4.85875 1.51007 0
M  V30 10435 H 980.946 -5.4197 -1.62127 0
M  V30 10436 H 979.503 -6.34387 -1.49656 0
M  V30 10437 N 982.937 -0.845659 -1.3299 0
M  V30 10438 C 984.185 -0.443774 -1.97168 0
M  V30 10439 C 984.506 1.00192 -1.67292 0
M  V30 10440 O 983.776 1.69891 -0.975397 0
M  V30 10441 H 982.356 -0.161111 -0.729419 0
M  V30 10442 H 985.018 -1.08011 -1.62233 0
M  V30 10443 H 984.114 -0.581414 -3.06637 0
M  V30 10444 N 984.415 1.45619 -0.602734 0
M  V30 10445 C 985.347 2.28662 0.157012 0
M  V30 10446 C 986.36 1.39672 0.836396 0
M  V30 10447 O 987.549 1.64091 0.702599 0
M  V30 10448 C 984.649 3.1528 1.24306 0
M  V30 10449 C 983.822 4.32517 0.651731 0
M  V30 10450 C 982.881 5.00381 1.62804 0
M  V30 10451 O 981.907 5.57333 1.15624 0
M  V30 10452 N 983.109 4.99221 2.96241 0
M  V30 10453 H 985.874 2.94506 -0.555535 0
M  V30 10454 H 983.435 1.55753 -0.441881 0
M  V30 10455 H 985.427 3.57544 1.8959 0
M  V30 10456 H 983.997 2.51376 1.85819 0
M  V30 10457 H 983.217 3.93793 -0.17907 0
M  V30 10458 H 984.505 5.08249 0.236802 0
M  V30 10459 H 983.903 4.54232 3.37179 0
M  V30 10460 H 982.46 5.45364 3.56961 0
M  V30 10461 N 985.893 0.34162 1.53853 0
M  V30 10462 C 987.121 -0.256929 2.05299 0
M  V30 10463 C 987.536 -1.44366 1.21671 0
M  V30 10464 O 986.893 -1.80758 0.251584 0
M  V30 10465 C 986.944 -0.673854 3.55164 0
M  V30 10466 O 986.665 0.465687 4.35618 0
M  V30 10467 C 988.166 -1.33332 4.22773 0
M  V30 10468 H 985.386 -0.0499445 0.669139 0
M  V30 10469 H 987.93 0.493048 1.98467 0
M  V30 10470 H 986.085 -1.37378 3.62224 0
M  V30 10471 H 986.499 0.133723 5.2433 0
M  V30 10472 H 987.973 -1.57582 5.29029 0
M  V30 10473 H 988.45 -2.28628 3.75001 0
M  V30 10474 H 989.056 -0.675489 4.19901 0
M  V30 10475 N 987.371 -1.57444 0.0701946 0
M  V30 10476 C 988.319 -2.13834 -0.915302 0
M  V30 10477 C 989.313 -1.07483 -1.30934 0
M  V30 10478 O 990.519 -1.25865 -1.28678 0
M  V30 10479 H 986.894 -0.683716 -0.313108 0
M  V30 10480 H 988.865 -2.95503 -0.414758 0
M  V30 10481 C 987.614 -2.71355 -2.17398 0
M  V30 10482 H 986.937 -3.52861 -1.87961 0
M  V30 10483 H 988.377 -3.1441 -2.84469 0
M  V30 10484 C 986.836 -1.66038 -2.93143 0
M  V30 10485 O 987.366 -1.08443 -3.86786 0
M  V30 10486 N 985.572 -1.3711 -2.56221 0
M  V30 10487 H 985.119 -1.84135 -1.80145 0
M  V30 10488 H 985.077 -0.66877 -3.07205 0
M  V30 10489 N 988.849 0.203349 -1.56283 0
M  V30 10490 C 990.079 0.940061 -1.83974 0
M  V30 10491 C 990.487 1.77703 -0.649486 0
M  V30 10492 O 989.83 1.79487 0.391189 0
M  V30 10493 C 989.892 1.89249 -3.05655 0
M  V30 10494 C 989.556 1.23828 -4.39904 0
M  V30 10495 C 990.553 0.619231 -5.16199 0
M  V30 10496 C 988.238 1.2446 -4.86636 0
M  V30 10497 C 990.232 0.0152287 -6.37398 0
M  V30 10498 C 987.919 0.636764 -6.07773 0
M  V30 10499 C 988.917 0.0231481 -6.82996 0
M  V30 10500 O 988.605 -0.575187 -8.0184 0
M  V30 10501 H 988.337 0.280199 -0.615194 0
M  V30 10502 H 990.891 0.218111 -2.04239 0
M  V30 10503 H 989.121 2.65392 -2.81254 0
M  V30 10504 H 990.81 2.4963 -3.20062 0
M  V30 10505 H 991.576 0.606545 -4.81192 0
M  V30 10506 H 987.455 1.71161 -4.28048 0
M  V30 10507 H 990.999 -0.464333 -6.96053 0
M  V30 10508 H 986.896 0.646924 -6.4225 0
M  V30 10509 H 987.664 -0.471284 -8.17142 0
M  V30 10510 N 990.327 1.50405 0.470755 0
M  V30 10511 C 991.29 1.68741 1.5511 0
M  V30 10512 C 992.29 0.558116 1.50804 0
M  V30 10513 O 993.48 0.825149 1.53418 0
M  V30 10514 C 990.612 1.71295 2.94739 0
M  V30 10515 H 991.805 2.65127 1.40169 0
M  V30 10516 H 989.358 1.39891 0.697156 0
M  V30 10517 H 990.093 0.766029 3.15123 0
M  V30 10518 H 989.878 2.53336 2.99271 0
M  V30 10519 H 991.368 1.87434 3.73173 0
M  V30 10520 N 991.805 -0.723954 1.39988 0
M  V30 10521 C 993.052 -1.48371 1.37812 0
M  V30 10522 C 993.38 -1.94487 -0.0223285 0
M  V30 10523 O 992.635 -1.67906 -1.00529 0
M  V30 10524 C 992.934 -2.73004 2.30659 0
M  V30 10525 C 992.6 -2.45698 3.78078 0
M  V30 10526 C 991.262 -2.37961 4.18244 0
M  V30 10527 C 993.614 -2.22601 4.71273 0
M  V30 10528 C 990.942 -2.05183 5.49652 0
M  V30 10529 C 993.294 -1.91339 6.0297 0
M  V30 10530 C 991.958 -1.82078 6.42187 0
M  V30 10531 H 991.228 -0.542929 0.504291 0
M  V30 10532 H 993.875 -0.829986 1.72579 0
M  V30 10533 H 992.18 -3.43174 1.89048 0
M  V30 10534 H 993.877 -3.31068 2.26263 0
M  V30 10535 H 990.467 -2.52603 3.46251 0
M  V30 10536 H 994.651 -2.2754 4.41066 0
M  V30 10537 H 989.907 -1.96544 5.78948 0
M  V30 10538 H 994.081 -1.72479 6.74703 0
M  V30 10539 H 991.708 -1.56446 7.43928 0
M  V30 10540 N 993.283 -1.25346 -0.955304 0
M  V30 10541 C 994.529 -1.10218 -1.70235 0
M  V30 10542 C 994.862 0.356124 -1.90907 0
M  V30 10543 O 994.137 1.26253 -1.47954 0
M  V30 10544 C 994.42 -1.85627 -3.08569 0
M  V30 10545 C 994.273 -3.39281 -2.95311 0
M  V30 10546 C 995.592 -1.63886 -4.08448 0
M  V30 10547 H 992.711 -0.401781 -0.617852 0
M  V30 10548 H 995.353 -1.5417 -1.11048 0
M  V30 10549 H 993.503 -1.48269 -3.59094 0
M  V30 10550 H 995.175 -3.8631 -2.52116 0
M  V30 10551 H 993.418 -3.67027 -2.31244 0
M  V30 10552 H 994.089 -3.87258 -3.93364 0
M  V30 10553 H 996.565 -1.96406 -3.6683 0
M  V30 10554 H 995.441 -2.19087 -5.03281 0
M  V30 10555 H 995.702 -0.580021 -4.38279 0
M  V30 10556 N 994.761 1.15782 -1.06922 0
M  V30 10557 C 996.172 1.68062 -0.813144 0
M  V30 10558 C 996.523 1.84681 0.662374 0
M  V30 10559 O 995.648 1.54696 1.51321 0
M  V30 10560 C 996.243 3.05273 -1.46949 0
M  V30 10561 C 994.802 3.54647 -1.26104 0
M  V30 10562 C 993.949 2.30477 -1.54194 0
M  V30 10563 H 996.9 1.00056 -1.23185 0
M  V30 10564 H 996.921 3.69986 -0.888308 0
M  V30 10565 H 996.433 2.93145 -2.54337 0
M  V30 10566 H 994.534 3.72024 -0.20718 0
M  V30 10567 H 994.647 4.36354 -1.97819 0
M  V30 10568 H 993.011 2.35803 -0.96276 0
M  V30 10569 H 993.794 2.2094 -2.62755 0
M  V30 10570 N 996.239 0.8527 1.3254 0
M  V30 10571 C 997.149 0.298744 2.3269 0
M  V30 10572 C 998.165 -0.582418 1.63963 0
M  V30 10573 O 999.341 -0.483253 1.95516 0
M  V30 10574 C 996.406 -0.505453 3.42996 0
M  V30 10575 C 995.467 0.401618 4.27417 0
M  V30 10576 C 994.7 -0.364294 5.32455 0
M  V30 10577 O 994.923 -1.59448 5.47661 0
M  V30 10578 O 993.857 0.268892 6.01299 0
M  V30 10579 H 997.683 1.12843 2.81958 0
M  V30 10580 H 995.268 0.615584 1.36128 0
M  V30 10581 H 997.15 -0.961974 4.10273 0
M  V30 10582 H 995.825 -1.31197 2.95921 0
M  V30 10583 H 994.732 0.906274 3.62957 0
M  V30 10584 H 996.065 1.17327 4.78012 0
M  V30 10585 N 997.718 -1.45297 0.610449 0
M  V30 10586 C 998.65 -2.28742 -0.144884 0
M  V30 10587 C 999.663 -1.40114 -0.828977 0
M  V30 10588 O 1000.85 -1.64461 -0.693887 0
M  V30 10589 C 997.952 -3.15934 -1.22632 0
M  V30 10590 C 997.125 -4.32857 -0.628785 0
M  V30 10591 C 996.184 -5.01237 -1.60148 0
M  V30 10592 O 995.21 -5.57938 -1.12667 0
M  V30 10593 N 996.412 -5.00785 -2.9359 0
M  V30 10594 H 999.177 -2.94207 0.571145 0
M  V30 10595 H 996.738 -1.55517 0.450134 0
M  V30 10596 H 998.73 -3.58545 -1.87691 0
M  V30 10597 H 997.3 -2.52358 -1.84483 0
M  V30 10598 H 996.52 -3.93693 0.199951 0
M  V30 10599 H 997.808 -5.08367 -0.209845 0
M  V30 10600 H 997.206 -4.56014 -3.34765 0
M  V30 10601 H 995.763 -5.4725 -3.54064 0
M  V30 10602 N 999.196 -0.349774 -1.5367 0
M  V30 10603 C 1000.16 0.491676 -2.23864 0
M  V30 10604 C 1001.16 1.02256 -1.24098 0
M  V30 10605 O 1002.35 0.910816 -1.48492 0
M  V30 10606 C 999.481 1.68557 -2.96313 0
M  V30 10607 H 1000.67 -0.12233 -2.9965 0
M  V30 10608 H 998.227 -0.101214 -1.55972 0
M  V30 10609 H 998.962 2.3381 -2.2473 0
M  V30 10610 H 998.747 1.31203 -3.69497 0
M  V30 10611 H 1000.24 2.28225 -3.49718 0
M  V30 10612 N 1000.67 1.57404 -0.0785433 0
M  V30 10613 C 1002.09 1.57158 0.2781 0
M  V30 10614 C 1002.29 1.08847 1.69572 0
M  V30 10615 O 1001.35 0.757407 2.40873 0
M  V30 10616 C 1002.66 3.00589 0.0816067 0
M  V30 10617 C 1004.21 3.12637 0.150627 0
M  V30 10618 C 1004.68 4.57997 -0.0176685 0
M  V30 10619 N 1006.17 4.63185 0.0377145 0
M  V30 10620 C 1006.91 5.7336 -0.0679907 0
M  V30 10621 N 1006.4 6.92426 -0.227598 0
M  V30 10622 N 1008.2 5.62099 -0.0104424 0
M  V30 10623 H 1000.35 1.87121 -1.00496 0
M  V30 10624 H 1002.61 0.862937 -0.392484 0
M  V30 10625 H 1002.32 3.40072 -0.896869 0
M  V30 10626 H 1002.19 3.67931 0.831046 0
M  V30 10627 H 1004.58 2.73037 1.11959 0
M  V30 10628 H 1004.66 2.4792 -0.630028 0
M  V30 10629 H 1004.3 4.98288 -0.983431 0
M  V30 10630 H 1004.23 5.20754 0.782475 0
M  V30 10631 H 1006.72 3.77564 0.159208 0
M  V30 10632 H 1007.04 7.72217 -0.300217 0
M  V30 10633 H 1005.38 6.94502 -0.263049 0
M  V30 10634 H 1008.57 4.67964 0.112999 0
M  V30 10635 H 1008.75 6.47928 -0.0962747 0
M  V30 10636 N 1002.15 -0.195058 1.56388 0
M  V30 10637 C 1003.56 -0.75973 1.70543 0
M  V30 10638 C 1003.91 -1.83849 0.685118 0
M  V30 10639 O 1003.04 -2.15819 -0.158457 0
M  V30 10640 C 1003.63 -1.38485 3.09204 0
M  V30 10641 C 1002.19 -1.89661 3.25124 0
M  V30 10642 C 1001.34 -0.766563 2.66494 0
M  V30 10643 H 1004.29 0.0300148 1.58672 0
M  V30 10644 H 1004.31 -2.25424 3.06536 0
M  V30 10645 H 1003.82 -0.599479 3.83442 0
M  V30 10646 H 1001.92 -2.70917 2.55802 0
M  V30 10647 H 1002.04 -2.05837 4.32629 0
M  V30 10648 H 1000.4 -1.18086 2.25672 0
M  V30 10649 H 1001.18 0.00657102 3.43299 0
M  V30 10650 N 1003.63 -1.50653 -0.462772 0
M  V30 10651 C 1005.04 -1.54821 -1.04342 0
M  V30 10652 C 1005.39 -0.356595 -1.92932 0
M  V30 10653 O 1004.52 0.529579 -2.0982 0
M  V30 10654 C 1005.11 -2.80571 -1.89909 0
M  V30 10655 C 1003.67 -2.87394 -2.43067 0
M  V30 10656 C 1002.82 -2.49206 -1.21621 0
M  V30 10657 H 1005.77 -1.56797 -0.245048 0
M  V30 10658 H 1005.79 -2.62897 -2.75074 0
M  V30 10659 H 1005.3 -3.67281 -1.25405 0
M  V30 10660 H 1003.4 -2.05055 -3.111 0
M  V30 10661 H 1003.52 -3.90477 -2.77605 0
M  V30 10662 H 1001.88 -2.01829 -1.55361 0
M  V30 10663 H 1002.66 -3.38233 -0.587669 0
M  V30 10664 N 1005.11 0.71652 -1.4037 0
M  V30 10665 C 1006.52 1.29562 -1.34427 0
M  V30 10666 C 1006.87 1.96192 -0.0173106 0
M  V30 10667 O 1006 1.97488 0.884719 0
M  V30 10668 C 1006.59 2.35601 -2.4347 0
M  V30 10669 C 1005.15 2.89138 -2.4099 0
M  V30 10670 C 1004.3 1.62915 -2.24397 0
M  V30 10671 H 1007.25 0.512715 -1.5019 0
M  V30 10672 H 1007.27 3.16422 -2.11323 0
M  V30 10673 H 1006.78 1.87077 -3.40035 0
M  V30 10674 H 1004.88 3.41894 -1.4812 0
M  V30 10675 H 1004.99 3.40995 -3.3654 0
M  V30 10676 H 1003.36 1.87947 -1.71896 0
M  V30 10677 H 1004.14 1.16417 -3.22958 0
M  V30 10678 N 1006.59 1.25851 0.948643 0
M  V30 10679 C 1008 1.09975 1.50872 0
M  V30 10680 C 1008.35 -0.322497 1.93531 0
M  V30 10681 O 1007.47 -1.21316 1.79197 0
M  V30 10682 C 1008.07 1.99021 2.74182 0
M  V30 10683 C 1006.63 1.87313 3.26483 0
M  V30 10684 C 1005.77 1.92815 1.99293 0
M  V30 10685 H 1008.73 1.3905 0.764908 0
M  V30 10686 H 1008.75 1.53372 3.4822 0
M  V30 10687 H 1008.26 3.02527 2.43103 0
M  V30 10688 H 1006.36 0.867136 3.62369 0
M  V30 10689 H 1006.47 2.72446 3.94094 0
M  V30 10690 H 1004.84 1.36774 2.1486 0
M  V30 10691 H 1005.62 2.97936 1.70554 0
M  V30 10692 N 1008.06 -1.15214 1.07534 0
M  V30 10693 C 1008.99 -2.2216 0.718837 0
M  V30 10694 C 1009.98 -1.6753 -0.29459 0
M  V30 10695 O 1011.16 -1.93481 -0.166931 0
M  V30 10696 C 1008.29 -3.471 0.117836 0
M  V30 10697 C 1007.24 -4.14701 1.05862 0
M  V30 10698 C 1006.57 -5.3374 0.320284 0
M  V30 10699 C 1007.87 -4.64254 2.39302 0
M  V30 10700 H 1009.56 -2.52237 1.61297 0
M  V30 10701 H 1007.11 -1.21239 0.776992 0
M  V30 10702 H 1009.06 -4.21156 -0.143519 0
M  V30 10703 H 1007.79 -3.16361 -0.811389 0
M  V30 10704 H 1006.45 -3.42589 1.30493 0
M  V30 10705 H 1006.09 -4.99257 -0.61246 0
M  V30 10706 H 1005.79 -5.79912 0.947381 0
M  V30 10707 H 1007.32 -6.10563 0.0667721 0
M  V30 10708 H 1008.73 -5.29827 2.18988 0
M  V30 10709 H 1007.13 -5.21095 2.97623 0
M  V30 10710 H 1008.2 -3.79793 3.01472 0
M  V30 10711 N 1009.54 -0.859717 -1.32086 0
M  V30 10712 C 1010.45 -0.31108 -2.32528 0
M  V30 10713 C 1011.47 0.573714 -1.6427 0
M  V30 10714 O 1012.64 0.472878 -1.9577 0
M  V30 10715 C 1009.71 0.487256 -3.43259 0
M  V30 10716 C 1008.77 -0.424279 -4.27198 0
M  V30 10717 C 1008 0.336051 -5.32641 0
M  V30 10718 O 1008.23 1.56541 -5.48499 0
M  V30 10719 O 1007.16 -0.300777 -6.01148 0
M  V30 10720 H 1010.99 -1.14336 -2.81355 0
M  V30 10721 H 1008.57 -0.622794 -1.358 0
M  V30 10722 H 1010.45 0.940203 -4.10777 0
M  V30 10723 H 1009.13 1.29626 -2.96612 0
M  V30 10724 H 1008.04 -0.925509 -3.62471 0
M  V30 10725 H 1009.37 -1.1986 -4.77383 0
M  V30 10726 N 1011.02 1.44971 -0.618145 0
M  V30 10727 C 1012.3 1.95539 -0.0489895 0
M  V30 10728 C 1012.68 1.5604 1.42179 0
M  V30 10729 O 1012.03 0.82809 2.12967 0
M  V30 10730 C 1012.24 3.48044 -0.258193 0
M  V30 10731 C 1013.58 4.24354 -0.144541 0
M  V30 10732 O 1014.61 3.55699 -0.18887 0
M  V30 10733 O 1013.47 5.46486 -0.038519 0
M  V30 10734 H 1010.56 0.826466 0.0297256 0
M  V30 10735 H 1013.11 1.55086 -0.688944 0
M  V30 10736 H 1011.88 3.69798 -1.27926 0
M  V30 10737 H 1011.5 3.95412 0.416522 0
M  V30 10738 N 1012.5 0.357919 1.53482 0
M  V30 10739 C 1013.45 -0.507364 2.26999 0
M  V30 10740 C 1014.44 -1.08987 1.29685 0
M  V30 10741 O 1015.65 -1.03396 1.47341 0
M  V30 10742 H 1012.02 -0.182326 0.729562 0
M  V30 10743 H 1013.99 0.134547 2.98097 0
M  V30 10744 C 1012.74 -1.63911 3.06641 0
M  V30 10745 H 1012.06 -1.20017 3.81361 0
M  V30 10746 H 1013.5 -2.21943 3.61272 0
M  V30 10747 C 1011.96 -2.57697 2.17011 0
M  V30 10748 O 1012.49 -3.60318 1.77578 0
M  V30 10749 N 1010.7 -2.2671 1.818 0
M  V30 10750 H 1010.25 -1.43296 2.14065 0
M  V30 10751 H 1010.2 -2.89716 1.22115 0
M  V30 10752 N 1013.98 -1.5736 0.0868897 0
M  V30 10753 C 1014.91 -2.16596 -0.872252 0
M  V30 10754 C 1015.89 -1.09706 -1.29995 0
M  V30 10755 O 1017.07 -1.37808 -1.36831 0
M  V30 10756 C 1014.2 -2.73972 -2.1344 0
M  V30 10757 C 1013.16 -3.86163 -1.8456 0
M  V30 10758 C 1012.48 -4.30206 -3.17533 0
M  V30 10759 C 1013.78 -5.0973 -1.13899 0
M  V30 10760 H 1015.48 -2.96995 -0.378738 0
M  V30 10761 H 1013.02 -1.42861 -0.18073 0
M  V30 10762 H 1014.98 -3.14062 -2.80968 0
M  V30 10763 H 1013.7 -1.90817 -2.6506 0
M  V30 10764 H 1012.36 -3.466 -1.19432 0
M  V30 10765 H 1012.01 -3.43951 -3.67024 0
M  V30 10766 H 1011.71 -5.05841 -2.98996 0
M  V30 10767 H 1013.23 -4.72922 -3.86234 0
M  V30 10768 H 1014.64 -5.4704 -1.71523 0
M  V30 10769 H 1013.04 -5.90741 -1.05569 0
M  V30 10770 H 1014.11 -4.8475 -0.120432 0
M  V30 10771 N 1015.45 0.186762 -1.56489 0
M  V30 10772 C 1016.7 0.905852 -1.81109 0
M  V30 10773 C 1017.03 1.82906 -0.661477 0
M  V30 10774 O 1016.28 1.92504 0.35226 0
M  V30 10775 C 1016.58 1.74719 -3.11782 0
M  V30 10776 C 1016.25 0.974238 -4.40249 0
M  V30 10777 C 1014.91 0.760856 -4.75147 0
M  V30 10778 C 1017.26 0.430971 -5.19415 0
M  V30 10779 C 1014.59 -0.00714216 -5.867 0
M  V30 10780 C 1016.94 -0.323859 -6.3177 0
M  V30 10781 C 1015.61 -0.548183 -6.65245 0
M  V30 10782 H 1014.88 0.331475 -0.662726 0
M  V30 10783 H 1017.52 0.171703 -1.90729 0
M  V30 10784 H 1015.83 2.55027 -2.97437 0
M  V30 10785 H 1017.53 2.30634 -3.28038 0
M  V30 10786 H 1014.12 1.15057 -4.12868 0
M  V30 10787 H 1018.3 0.583205 -4.92861 0
M  V30 10788 H 1013.56 -0.190832 -6.11102 0
M  V30 10789 H 1017.73 -0.752155 -6.92326 0
M  V30 10790 H 1015.36 -1.14518 -7.51525 0
M  V30 10791 N 1016.93 1.50896 0.454776 0
M  V30 10792 C 1017.86 1.73885 1.5584 0
M  V30 10793 C 1018.84 0.588172 1.59607 0
M  V30 10794 O 1020.03 0.829054 1.75614 0
M  V30 10795 C 1017.16 1.84796 2.94054 0
M  V30 10796 C 1016.11 3.00111 3.05152 0
M  V30 10797 C 1015.44 2.96183 4.45174 0
M  V30 10798 C 1016.74 4.40365 2.80849 0
M  V30 10799 H 1018.43 2.66292 1.36854 0
M  V30 10800 H 1015.98 1.28142 0.656936 0
M  V30 10801 H 1017.93 1.99462 3.71204 0
M  V30 10802 H 1016.66 0.890235 3.14233 0
M  V30 10803 H 1015.31 2.85121 2.30438 0
M  V30 10804 H 1014.96 1.98224 4.62295 0
M  V30 10805 H 1014.66 3.73608 4.53532 0
M  V30 10806 H 1016.19 3.1292 5.24322 0
M  V30 10807 H 1017.6 4.55795 3.47741 0
M  V30 10808 H 1016 5.19363 3.00636 0
M  V30 10809 H 1017.07 4.51606 1.76579 0
M  V30 10810 N 1018.41 -0.709066 1.40748 0
M  V30 10811 C 1019.82 -1.28847 1.35112 0
M  V30 10812 C 1020.17 -1.9618 0.0277149 0
M  V30 10813 O 1019.3 -1.97955 -0.874233 0
M  V30 10814 C 1019.89 -2.34306 2.44716 0
M  V30 10815 C 1018.45 -2.87856 2.4252 0
M  V30 10816 C 1017.6 -1.61723 2.25257 0
M  V30 10817 H 1020.55 -0.504742 1.50459 0
M  V30 10818 H 1020.57 -3.15297 2.12998 0
M  V30 10819 H 1020.08 -1.85271 3.41022 0
M  V30 10820 H 1018.18 -3.41103 1.49931 0
M  V30 10821 H 1018.3 -3.39205 3.38344 0
M  V30 10822 H 1016.66 -1.87032 1.7289 0
M  V30 10823 H 1017.44 -1.14703 3.23571 0
M  V30 10824 N 1019.89 -1.26353 -0.941956 0
M  V30 10825 C 1021.3 -1.10774 -1.50287 0
M  V30 10826 C 1021.65 0.312229 -1.937 0
M  V30 10827 O 1020.78 1.20364 -1.79838 0
M  V30 10828 C 1021.37 -2.00473 -2.73123 0
M  V30 10829 C 1019.93 -1.89042 -3.25485 0
M  V30 10830 C 1019.08 -1.93869 -1.98267 0
M  V30 10831 H 1022.03 -1.39454 -0.757523 0
M  V30 10832 H 1022.05 -1.55216 -3.47402 0
M  V30 10833 H 1021.56 -3.03812 -2.41495 0
M  V30 10834 H 1019.66 -0.886341 -3.61904 0
M  V30 10835 H 1019.78 -2.74533 -3.92643 0
M  V30 10836 H 1018.14 -1.37912 -2.14132 0
M  V30 10837 H 1018.92 -2.98837 -1.68972 0
M  V30 10838 N 1021.37 1.14642 -1.08144 0
M  V30 10839 C 1022.3 2.19283 -0.6669 0
M  V30 10840 C 1023.31 1.60292 0.284668 0
M  V30 10841 O 1024.5 1.78352 0.0727383 0
M  V30 10842 C 1021.6 3.38877 0.0398572 0
M  V30 10843 C 1020.77 4.274 -0.929929 0
M  V30 10844 C 1019.83 5.25562 -0.258991 0
M  V30 10845 O 1018.86 5.61999 -0.902563 0
M  V30 10846 N 1020.06 5.71958 0.992177 0
M  V30 10847 H 1022.83 2.55464 -1.5671 0
M  V30 10848 H 1020.39 1.29836 -0.96717 0
M  V30 10849 H 1022.38 4.01605 0.499583 0
M  V30 10850 H 1020.95 3.01043 0.842118 0
M  V30 10851 H 1020.17 3.61649 -1.56857 0
M  V30 10852 H 1021.46 4.83411 -1.58717 0
M  V30 10853 H 1020.86 5.44481 1.53484 0
M  V30 10854 H 1019.41 6.36687 1.39544 0
M  V30 10855 N 1022.85 0.866709 1.31628 0
M  V30 10856 C 1024.09 0.475086 1.96437 0
M  V30 10857 C 1024.41 -0.975179 1.68865 0
M  V30 10858 O 1023.68 -1.68317 1.0023 0
M  V30 10859 H 1022.26 0.172695 0.726764 0
M  V30 10860 H 1024.93 1.10578 1.60494 0
M  V30 10861 H 1024.02 0.630123 3.05673 0
M  V30 10862 N 1024.32 -1.44642 0.625825 0
M  V30 10863 C 1025.57 -2.01695 0.127948 0
M  V30 10864 C 1025.89 -1.49439 -1.25271 0
M  V30 10865 O 1025.16 -0.695873 -1.83124 0
M  V30 10866 H 1023.74 -0.745685 0.0443096 0
M  V30 10867 H 1026.4 -1.7721 0.811332 0
M  V30 10868 H 1025.5 -3.11966 0.0915933 0
M  V30 10869 N 1025.8 -0.366053 -1.5329 0
M  V30 10870 C 1027.05 0.223051 -2.00865 0
M  V30 10871 C 1027.37 1.49244 -1.25504 0
M  V30 10872 O 1026.64 1.92404 -0.368444 0
M  V30 10873 H 1025.22 0.085413 -0.742101 0
M  V30 10874 H 1027.88 -0.492396 -1.88578 0
M  V30 10875 H 1026.98 0.449701 -3.08843 0
M  V30 10876 N 1027.28 1.57312 -0.0952337 0
M  V30 10877 C 1028.23 2.14032 0.863657 0
M  V30 10878 C 1029.2 1.0589 1.27971 0
M  V30 10879 O 1030.38 1.33678 1.36143 0
M  V30 10880 C 1027.52 2.72513 2.11733 0
M  V30 10881 C 1026.63 3.94887 1.7518 0
M  V30 10882 C 1025.77 4.41533 2.95334 0
M  V30 10883 C 1024.81 5.56496 2.54908 0
M  V30 10884 N 1023.95 5.97993 3.67897 0
M  V30 10885 H 1028.79 2.95655 0.373115 0
M  V30 10886 H 1026.32 1.46085 0.172497 0
M  V30 10887 H 1028.28 3.04539 2.85153 0
M  V30 10888 H 1026.91 1.93618 2.58287 0
M  V30 10889 H 1025.96 3.69175 0.917279 0
M  V30 10890 H 1027.27 4.78322 1.41455 0
M  V30 10891 H 1026.43 4.75343 3.77007 0
M  V30 10892 H 1025.17 3.56999 3.3227 0
M  V30 10893 H 1024.17 5.22314 1.71662 0
M  V30 10894 H 1025.4 6.42779 2.19117 0
M  V30 10895 H 1023.34 5.16405 4.04551 0
M  V30 10896 H 1023.26 6.76225 3.38018 0
M  V30 10897 H 1024.53 6.36434 4.5008 0
M  V30 10898 N 1028.76 -0.17846 1.56586 0
M  V30 10899 C 1030.17 -0.741599 1.71339 0
M  V30 10900 C 1030.52 -1.83112 0.704579 0
M  V30 10901 O 1029.64 -2.15975 -0.135557 0
M  V30 10902 C 1030.24 -1.35198 3.10656 0
M  V30 10903 C 1028.8 -1.86202 3.27118 0
M  V30 10904 C 1027.95 -0.738255 2.67292 0
M  V30 10905 H 1030.9 0.0468424 1.58631 0
M  V30 10906 H 1030.92 -2.2216 3.0891 0
M  V30 10907 H 1030.43 -0.558776 3.84056 0
M  V30 10908 H 1028.53 -2.68188 2.58661 0
M  V30 10909 H 1028.64 -2.01237 4.34788 0
M  V30 10910 H 1027.01 -1.15686 2.26912 0
M  V30 10911 H 1027.79 0.0429821 3.43273 0
M  V30 10912 N 1030.24 -1.51135 -0.446768 0
M  V30 10913 C 1031.65 -1.55919 -1.02694 0
M  V30 10914 C 1032 -0.377038 -1.92543 0
M  V30 10915 O 1031.12 0.507295 -2.1037 0
M  V30 10916 C 1031.72 -2.8257 -1.86922 0
M  V30 10917 C 1030.28 -2.89956 -2.40005 0
M  V30 10918 C 1029.42 -2.50482 -1.18971 0
M  V30 10919 H 1032.37 -1.57048 -0.228403 0
M  V30 10920 H 1032.4 -2.65799 -2.7227 0
M  V30 10921 H 1031.91 -3.6859 -1.21502 0
M  V30 10922 H 1030.01 -2.08343 -3.08907 0
M  V30 10923 H 1030.12 -3.93399 -2.73448 0
M  V30 10924 H 1028.49 -2.03466 -1.53211 0
M  V30 10925 H 1029.27 -3.38837 -0.551762 0
M  V30 10926 N 1031.71 0.701592 -1.41122 0
M  V30 10927 C 1032.94 1.49553 -1.43696 0
M  V30 10928 C 1033.36 1.88053 -0.0421865 0
M  V30 10929 O 1032.72 1.54223 0.953144 0
M  V30 10930 C 1032.77 2.73834 -2.34622 0
M  V30 10931 O 1031.87 3.71088 -1.7991 0
M  V30 10932 H 1031.21 0.450352 -0.487933 0
M  V30 10933 H 1033.74 0.862886 -1.85514 0
M  V30 10934 H 1033.75 3.22209 -2.5029 0
M  V30 10935 H 1032.43 2.45149 -3.35969 0
M  V30 10936 H 1031.01 3.29994 -1.73661 0
M  V30 10937 N 1033.19 1.2685 0.935242 0
M  V30 10938 C 1034.42 1.15645 1.72165 0
M  V30 10939 C 1034.84 -0.283909 1.85945 0
M  V30 10940 O 1034.2 -1.20567 1.354 0
M  V30 10941 C 1034.25 1.83689 3.10307 0
M  V30 10942 O 1033.35 1.12972 3.96625 0
M  V30 10943 H 1032.69 0.402629 0.528002 0
M  V30 10944 H 1035.22 1.67781 1.17093 0
M  V30 10945 H 1035.23 1.90749 3.60664 0
M  V30 10946 H 1033.91 2.88472 2.99595 0
M  V30 10947 H 1032.48 1.13929 3.5507 0
M  V30 10948 N 1034.67 -1.14067 1.0875 0
M  V30 10949 C 1035.63 -2.17453 0.724341 0
M  V30 10950 C 1036.63 -1.58959 -0.242614 0
M  V30 10951 O 1037.82 -1.74186 -0.0217008 0
M  V30 10952 C 1034.96 -3.40828 0.0700236 0
M  V30 10953 H 1036.15 -2.51094 1.63987 0
M  V30 10954 H 1033.7 -1.28775 0.885813 0
M  V30 10955 H 1034.44 -3.1277 -0.857061 0
M  V30 10956 H 1034.22 -3.84551 0.76569 0
M  V30 10957 H 1035.71 -4.17258 -0.168905 0
M  V30 10958 N 1036.15 -0.873678 -1.31166 0
M  V30 10959 C 1037.08 -0.289389 -2.27366 0
M  V30 10960 C 1038.09 0.549667 -1.5324 0
M  V30 10961 O 1039.28 0.371056 -1.74601 0
M  V30 10962 C 1036.38 0.60807 -3.334 0
M  V30 10963 C 1035.56 -0.199379 -4.36945 0
M  V30 10964 C 1034.61 0.626798 -5.22454 0
M  V30 10965 O 1033.64 0.0535121 -5.69175 0
M  V30 10966 N 1034.84 1.93809 -5.47191 0
M  V30 10967 H 1037.61 -1.1161 -2.78143 0
M  V30 10968 H 1035.17 -0.735529 -1.44228 0
M  V30 10969 H 1037.16 1.16656 -3.87522 0
M  V30 10970 H 1035.73 1.33545 -2.82638 0
M  V30 10971 H 1034.95 -0.939316 -3.82845 0
M  V30 10972 H 1036.24 -0.75329 -5.03193 0
M  V30 10973 H 1035.64 2.42693 -5.10995 0
M  V30 10974 H 1034.19 2.44428 -6.04234 0
M  V30 10975 N 1037.63 1.44308 -0.633487 0
M  V30 10976 C 1038.85 2.06384 -0.146063 0
M  V30 10977 C 1039.27 1.47357 1.18031 0
M  V30 10978 O 1038.63 0.597334 1.72448 0
M  V30 10979 C 1038.68 3.61489 -0.0276722 0
M  V30 10980 O 1038.4 4.18318 -1.3016 0
M  V30 10981 C 1039.9 4.40604 0.488168 0
M  V30 10982 H 1037.12 0.666122 -0.0807632 0
M  V30 10983 H 1039.66 1.85139 -0.868557 0
M  V30 10984 H 1037.82 3.81988 0.645273 0
M  V30 10985 H 1038.23 5.11783 -1.14797 0
M  V30 10986 H 1039.71 5.49545 0.520013 0
M  V30 10987 H 1040.18 4.12218 1.51568 0
M  V30 10988 H 1040.79 4.2503 -0.151608 0
M  V30 10989 N 1039.1 0.374177 1.53094 0
M  V30 10990 C 1040.07 -0.455999 2.24618 0
M  V30 10991 C 1041.07 -1.00269 1.25709 0
M  V30 10992 O 1042.26 -0.887077 1.49922 0
M  V30 10993 C 1039.39 -1.63822 2.98957 0
M  V30 10994 H 1040.58 0.169986 2.99418 0
M  V30 10995 H 1038.14 0.126015 1.55791 0
M  V30 10996 H 1038.87 -2.30205 2.28421 0
M  V30 10997 H 1038.66 -1.25308 3.71538 0
M  V30 10998 H 1040.15 -2.22633 3.53305 0
M  V30 10999 N 1040.58 -1.57259 0.103575 0
M  V30 11000 C 1041.49 -2.18018 -0.866327 0
M  V30 11001 C 1042.51 -1.15198 -1.30404 0
M  V30 11002 O 1043.68 -1.47605 -1.37021 0
M  V30 11003 C 1040.75 -2.75533 -2.10434 0
M  V30 11004 C 1039.81 -3.93337 -1.72002 0
M  V30 11005 C 1039.04 -4.481 -2.89901 0
M  V30 11006 O 1039.27 -4.01784 -4.04877 0
M  V30 11007 O 1038.2 -5.39004 -2.67877 0
M  V30 11008 H 1042.03 -3.01322 -0.379338 0
M  V30 11009 H 1039.61 -1.48907 -0.121228 0
M  V30 11010 H 1041.49 -3.12259 -2.8297 0
M  V30 11011 H 1040.17 -1.9527 -2.58169 0
M  V30 11012 H 1039.08 -3.61408 -0.966193 0
M  V30 11013 H 1040.41 -4.74989 -1.29022 0
M  V30 11014 N 1042.06 0.170153 -1.56679 0
M  V30 11015 C 1043.31 0.884902 -1.81252 0
M  V30 11016 C 1043.62 1.83361 -0.681024 0
M  V30 11017 O 1044.83 2.59082 -0.811722 0
M  V30 11018 C 1043.28 1.62408 -3.21172 0
M  V30 11019 C 1042.89 0.718947 -4.42194 0
M  V30 11020 C 1044.64 2.32699 -3.55037 0
M  V30 11021 C 1042.54 1.45843 -5.73135 0
M  V30 11022 H 1041.47 0.33418 -0.675899 0
M  V30 11023 H 1044.12 0.137818 -1.82982 0
M  V30 11024 H 1042.51 2.41596 -3.13763 0
M  V30 11025 H 1043.68 -0.0360521 -4.60786 0
M  V30 11026 H 1042 0.125634 -4.1621 0
M  V30 11027 H 1044.59 2.88621 -4.50114 0
M  V30 11028 H 1044.94 3.08092 -2.79974 0
M  V30 11029 H 1045.47 1.60453 -3.64005 0
M  V30 11030 H 1042.21 0.746799 -6.51232 0
M  V30 11031 H 1041.73 2.18672 -5.58518 0
M  V30 11032 H 1043.41 2.0056 -6.1513 0
M  V30 11033 N 1043.54 1.5137 0.438746 0
M  V30 11034 C 1044.79 1.63969 1.1883 0
M  V30 11035 C 1045.11 0.355245 1.91228 0
M  V30 11036 O 1044.37 -0.660605 1.84213 0
M  V30 11037 C 1044.67 2.79221 2.23093 0
M  V30 11038 C 1044.33 4.18547 1.67717 0
M  V30 11039 C 1043 4.5645 1.52337 0
M  V30 11040 C 1045.35 5.05494 1.26986 0
M  V30 11041 C 1042.68 5.79007 0.946996 0
M  V30 11042 C 1045.03 6.28628 0.707785 0
M  V30 11043 C 1043.69 6.65305 0.540881 0
M  V30 11044 H 1042.96 0.600003 0.43483 0
M  V30 11045 H 1045.61 1.85398 0.479565 0
M  V30 11046 H 1043.91 2.52008 2.99999 0
M  V30 11047 H 1045.61 2.86168 2.80907 0
M  V30 11048 H 1042.2 3.88663 1.80663 0
M  V30 11049 H 1046.38 4.76818 1.37689 0
M  V30 11050 H 1041.64 6.06072 0.805432 0
M  V30 11051 H 1045.81 6.95342 0.38366 0
M  V30 11052 H 1043.44 7.60144 0.0921324 0
M  V30 11053 N 1045.02 -0.694098 1.41492 0
M  V30 11054 C 1045.95 -1.81943 1.39389 0
M  V30 11055 C 1046.96 -1.6009 0.295836 0
M  V30 11056 O 1048.15 -1.69565 0.557658 0
M  V30 11057 C 1045.25 -3.18731 1.15167 0
M  V30 11058 C 1044.42 -3.67601 2.37041 0
M  V30 11059 C 1043.48 -4.83063 2.08654 0
M  V30 11060 O 1042.51 -4.94603 2.81704 0
M  V30 11061 N 1043.71 -5.70409 1.0777 0
M  V30 11062 H 1046.48 -1.84239 2.36381 0
M  V30 11063 H 1044.04 -0.876475 1.36123 0
M  V30 11064 H 1046.03 -3.93602 0.941264 0
M  V30 11065 H 1044.6 -3.11452 0.267673 0
M  V30 11066 H 1043.82 -2.83622 2.73774 0
M  V30 11067 H 1045.11 -3.96991 3.18239 0
M  V30 11068 H 1044.5 -5.63718 0.473123 0
M  V30 11069 H 1043.06 -6.45172 0.927177 0
M  V30 11070 N 1046.49 -1.27344 -0.928501 0
M  V30 11071 C 1047.46 -1.10043 -2.01055 0
M  V30 11072 C 1048.46 -0.0446793 -1.60738 0
M  V30 11073 O 1049.65 -0.289202 -1.71783 0
M  V30 11074 C 1046.78 -0.676559 -3.34119 0
M  V30 11075 H 1047.97 -2.06126 -2.17835 0
M  V30 11076 H 1045.53 -1.10121 -1.10919 0
M  V30 11077 H 1046.26 0.285697 -3.23039 0
M  V30 11078 H 1046.05 -1.43903 -3.64739 0
M  V30 11079 H 1047.54 -0.577725 -4.13584 0
M  V30 11080 N 1047.97 1.13488 -1.09353 0
M  V30 11081 C 1048.9 2.20988 -0.75409 0
M  V30 11082 C 1049.88 1.67977 0.267901 0
M  V30 11083 O 1051.07 1.93722 0.136128 0
M  V30 11084 C 1048.2 3.46869 -0.173042 0
M  V30 11085 C 1047.15 4.12965 -1.12446 0
M  V30 11086 C 1046.48 5.33163 -0.405157 0
M  V30 11087 C 1047.78 4.60388 -2.46658 0
M  V30 11088 H 1049.47 2.49639 -1.6529 0
M  V30 11089 H 1047.02 1.19987 -0.796182 0
M  V30 11090 H 1048.97 4.21331 0.0764988 0
M  V30 11091 H 1047.7 3.17611 0.760956 0
M  V30 11092 H 1046.35 3.40469 -1.35927 0
M  V30 11093 H 1046 5.00169 0.532955 0
M  V30 11094 H 1045.7 5.78332 -1.03952 0
M  V30 11095 H 1047.23 6.1038 -0.163899 0
M  V30 11096 H 1048.64 5.26276 -2.27389 0
M  V30 11097 H 1047.04 5.16294 -3.05876 0
M  V30 11098 H 1048.11 3.74949 -3.07476 0
M  V30 11099 N 1049.45 0.880621 1.30701 0
M  V30 11100 C 1050.38 0.301443 2.27209 0
M  V30 11101 C 1051.4 -0.541533 1.53529 0
M  V30 11102 O 1052.59 -0.361791 1.74795 0
M  V30 11103 C 1049.69 -0.59038 3.33718 0
M  V30 11104 C 1048.86 0.222549 4.36833 0
M  V30 11105 C 1047.92 -0.599083 5.22779 0
M  V30 11106 O 1046.94 -0.0233267 5.69195 0
M  V30 11107 N 1048.15 -1.90904 5.48211 0
M  V30 11108 H 1050.91 1.13083 2.77547 0
M  V30 11109 H 1048.47 0.743168 1.43835 0
M  V30 11110 H 1050.46 -1.14599 3.88135 0
M  V30 11111 H 1049.03 -1.32044 2.83343 0
M  V30 11112 H 1048.25 0.959606 3.82342 0
M  V30 11113 H 1049.54 0.779965 5.02786 0
M  V30 11114 H 1048.94 -2.3998 5.12275 0
M  V30 11115 H 1047.5 -2.4122 6.05521 0
M  V30 11116 N 1050.93 -1.4397 0.641131 0
M  V30 11117 C 1051.86 -2.28997 -0.0963315 0
M  V30 11118 C 1052.87 -1.4184 -0.799071 0
M  V30 11119 O 1054.06 -1.65896 -0.658846 0
M  V30 11120 C 1051.16 -3.18465 -1.15903 0
M  V30 11121 C 1050.34 -4.34093 -0.536828 0
M  V30 11122 C 1049.4 -5.04522 -1.4948 0
M  V30 11123 O 1048.42 -5.60202 -1.00807 0
M  V30 11124 N 1049.62 -5.06899 -2.82901 0
M  V30 11125 H 1052.39 -2.9293 0.633422 0
M  V30 11126 H 1049.95 -1.54527 0.48302 0
M  V30 11127 H 1051.94 -3.62445 -1.80044 0
M  V30 11128 H 1050.51 -2.56214 -1.79089 0
M  V30 11129 H 1049.73 -3.9318 0.283414 0
M  V30 11130 H 1051.02 -5.08698 -0.101966 0
M  V30 11131 H 1050.42 -4.63012 -3.25017 0
M  V30 11132 H 1048.97 -5.54637 -3.42376 0
M  V30 11133 N 1052.41 -0.382291 -1.52893 0
M  V30 11134 C 1053.32 0.463745 -2.29971 0
M  V30 11135 C 1054.33 1.07777 -1.36602 0
M  V30 11136 O 1055.51 1.0851 -1.69669 0
M  V30 11137 C 1052.57 1.57938 -3.08637 0
M  V30 11138 C 1051.64 0.991182 -4.17701 0
M  V30 11139 C 1050.87 2.05365 -4.92606 0
M  V30 11140 O 1051.09 3.26757 -4.67532 0
M  V30 11141 O 1050.03 1.67487 -5.78128 0
M  V30 11142 H 1053.85 -0.163962 -3.03257 0
M  V30 11143 H 1051.44 -0.146199 -1.48683 0
M  V30 11144 H 1053.32 2.22765 -3.57706 0
M  V30 11145 H 1051.99 2.19218 -2.3817 0
M  V30 11146 H 1050.9 0.306364 -3.72843 0
M  V30 11147 H 1052.23 0.422699 -4.90382 0
M  V30 11148 N 1053.89 1.57202 -0.111913 0
M  V30 11149 C 1055.13 1.96834 0.550967 0
M  V30 11150 C 1055.49 0.993502 1.64297 0
M  V30 11151 O 1056.69 1.27894 2.36425 0
M  V30 11152 C 1054.96 3.40805 1.07641 0
M  V30 11153 S 1056.52 4.02445 1.74881 0
M  V30 11154 H 1053.34 0.688021 0.179298 0
M  V30 11155 H 1055.94 1.94522 -0.195312 0
M  V30 11156 H 1054.64 4.09508 0.270377 0
M  V30 11157 H 1054.18 3.46752 1.85814 0
M  V30 11158 H 1056.19 3.92623 3.03416 0
M  V30 11159 N 1055.36 -0.161842 1.56767 0
M  V30 11160 C 1056.3 -1.22927 1.9226 0
M  V30 11161 C 1057.27 -1.42309 0.786562 0
M  V30 11162 O 1058.46 -1.57163 1.04078 0
M  V30 11163 C 1055.59 -2.59069 2.18177 0
M  V30 11164 C 1054.63 -2.56368 3.40849 0
M  V30 11165 S 1055.46 -2.04518 4.94907 0
M  V30 11166 C 1056.62 -3.42418 5.23928 0
M  V30 11167 H 1056.85 -0.926377 2.82499 0
M  V30 11168 H 1054.39 -0.366822 1.49979 0
M  V30 11169 H 1056.34 -3.37421 2.33789 0
M  V30 11170 H 1055.01 -2.86554 1.28629 0
M  V30 11171 H 1054.2 -3.56551 3.56213 0
M  V30 11172 H 1053.8 -1.86116 3.24402 0
M  V30 11173 H 1056.09 -4.38461 5.16486 0
M  V30 11174 H 1057.04 -3.3192 6.25487 0
M  V30 11175 H 1057.44 -3.38868 4.51474 0
M  V30 11176 N 1056.84 -1.516 -0.430713 0
M  V30 11177 C 1058.26 -1.39923 -0.767706 0
M  V30 11178 C 1058.46 -0.486756 -1.95532 0
M  V30 11179 O 1057.51 0.0555965 -2.52439 0
M  V30 11180 C 1058.83 -2.82074 -1.04187 0
M  V30 11181 C 1060.37 -2.9127 -1.1459 0
M  V30 11182 C 1060.85 -4.34342 -1.45295 0
M  V30 11183 N 1062.34 -4.37479 -1.52206 0
M  V30 11184 C 1063.08 -5.45219 -1.77549 0
M  V30 11185 N 1062.57 -6.6311 -2.0064 0
M  V30 11186 N 1064.36 -5.32707 -1.79386 0
M  V30 11187 H 1056.52 -2.09474 0.351351 0
M  V30 11188 H 1058.78 -0.943247 0.0948151 0
M  V30 11189 H 1058.48 -3.50868 -0.241837 0
M  V30 11190 H 1058.36 -3.21805 -1.96777 0
M  V30 11191 H 1060.75 -2.2267 -1.93655 0
M  V30 11192 H 1060.83 -2.55026 -0.198854 0
M  V30 11193 H 1060.47 -5.03494 -0.667559 0
M  V30 11194 H 1060.4 -4.68105 -2.41217 0
M  V30 11195 H 1062.89 -3.52488 -1.36237 0
M  V30 11196 H 1063.2 -7.41012 -2.19366 0
M  V30 11197 H 1061.55 -6.66214 -1.97948 0
M  V30 11198 H 1064.74 -4.39589 -1.60869 0
M  V30 11199 H 1064.91 -6.16752 -1.98799 0
M  V30 11200 N 1058.32 0.686584 -1.41858 0
M  V30 11201 C 1059.25 1.81202 -1.40352 0
M  V30 11202 C 1060.26 1.5993 -0.304322 0
M  V30 11203 O 1061.45 1.69267 -0.566643 0
M  V30 11204 C 1058.55 3.18116 -1.16856 0
M  V30 11205 C 1057.73 3.66339 -2.38987 0
M  V30 11206 C 1056.79 4.8195 -2.11212 0
M  V30 11207 O 1055.81 4.93102 -2.84323 0
M  V30 11208 N 1057.01 5.69829 -1.10793 0
M  V30 11209 H 1059.78 1.82983 -2.37355 0
M  V30 11210 H 1057.34 0.869244 -1.36586 0
M  V30 11211 H 1059.33 3.93097 -0.962125 0
M  V30 11212 H 1057.9 3.11306 -0.284186 0
M  V30 11213 H 1057.12 2.82166 -2.75274 0
M  V30 11214 H 1058.41 3.95297 -3.2034 0
M  V30 11215 H 1057.81 5.63459 -0.503012 0
M  V30 11216 H 1056.36 6.44671 -0.961379 0
M  V30 11217 N 1059.8 1.27835 0.921735 0
M  V30 11218 C 1060.73 1.136 2.04003 0
M  V30 11219 C 1061.71 0.0358756 1.70062 0
M  V30 11220 O 1062.89 0.211438 1.93046 0
M  V30 11221 C 1060.02 0.788697 3.38226 0
M  V30 11222 C 1058.98 1.84272 3.863 0
M  V30 11223 C 1058.3 1.34923 5.17397 0
M  V30 11224 C 1059.6 3.24788 4.09035 0
M  V30 11225 H 1061.3 2.07149 2.1617 0
M  V30 11226 H 1058.84 0.997349 1.0387 0
M  V30 11227 H 1060.8 0.675911 4.15944 0
M  V30 11228 H 1059.52 -0.182499 3.2609 0
M  V30 11229 H 1058.18 1.94451 3.1078 0
M  V30 11230 H 1057.83 0.367328 5.01657 0
M  V30 11231 H 1057.53 2.05397 5.50532 0
M  V30 11232 H 1059.05 1.24951 5.97678 0
M  V30 11233 H 1060.47 3.17575 4.77304 0
M  V30 11234 H 1058.86 3.93025 4.53488 0
M  V30 11235 H 1059.93 3.69398 3.14122 0
M  V30 11236 N 1061.28 -1.12907 1.09954 0
M  V30 11237 C 1062.21 -2.18194 0.701701 0
M  V30 11238 C 1063.22 -1.60724 -0.259131 0
M  V30 11239 O 1064.41 -1.78445 -0.0443549 0
M  V30 11240 C 1061.51 -3.38897 0.0140602 0
M  V30 11241 C 1060.68 -4.25867 0.997807 0
M  V30 11242 C 1059.74 -5.25084 0.34257 0
M  V30 11243 O 1058.77 -5.60492 0.991857 0
M  V30 11244 N 1059.97 -5.73464 -0.901058 0
M  V30 11245 H 1062.73 -2.52939 1.60755 0
M  V30 11246 H 1060.3 -1.28281 0.987703 0
M  V30 11247 H 1062.29 -4.02349 -0.435628 0
M  V30 11248 H 1060.86 -3.02345 -0.794118 0
M  V30 11249 H 1060.08 -3.59107 1.6259 0
M  V30 11250 H 1061.37 -4.80825 1.66388 0
M  V30 11251 H 1060.76 -5.46854 -1.44802 0
M  V30 11252 H 1059.32 -6.38827 -1.29398 0
M  V30 11253 N 1062.75 -0.88754 -1.30232 0
M  V30 11254 C 1063.72 -0.361095 -2.26338 0
M  V30 11255 C 1064.72 0.497871 -1.52898 0
M  V30 11256 O 1065.91 0.30466 -1.71515 0
M  V30 11257 C 1063.04 0.485135 -3.3743 0
M  V30 11258 H 1064.23 -1.20973 -2.74419 0
M  V30 11259 H 1061.78 -0.664619 -1.41466 0
M  V30 11260 H 1062.52 1.35425 -2.9467 0
M  V30 11261 H 1062.3 -0.130173 -3.91884 0
M  V30 11262 H 1063.79 0.845169 -4.08958 0
M  V30 11263 N 1064.23 1.43628 -0.648757 0
M  V30 11264 C 1065.64 1.85142 -0.24066 0
M  V30 11265 C 1065.99 1.54304 1.21181 0
M  V30 11266 O 1065.12 0.989792 1.92437 0
M  V30 11267 C 1065.71 3.3606 -0.429999 0
M  V30 11268 C 1064.27 3.76323 -0.0762588 0
M  V30 11269 C 1063.42 2.67382 -0.734999 0
M  V30 11270 H 1066.37 1.33844 -0.852734 0
M  V30 11271 H 1066.39 3.79102 0.325836 0
M  V30 11272 H 1065.9 3.58474 -1.48721 0
M  V30 11273 H 1064.01 3.59521 0.978529 0
M  V30 11274 H 1064.12 4.76498 -0.498612 0
M  V30 11275 H 1062.48 2.54141 -0.168644 0
M  V30 11276 H 1063.27 2.92625 -1.79515 0
M  V30 11277 N 1065.71 0.390394 1.52688 0
M  V30 11278 C 1066.67 -0.432149 2.25089 0
M  V30 11279 C 1067.67 -0.989296 1.26766 0
M  V30 11280 O 1068.86 -0.871126 1.50854 0
M  V30 11281 C 1066 -1.60642 3.00678 0
M  V30 11282 H 1067.19 0.201734 2.99221 0
M  V30 11283 H 1064.74 0.142531 1.55649 0
M  V30 11284 H 1065.48 -2.2777 2.3085 0
M  V30 11285 H 1065.26 -1.21361 3.72846 0
M  V30 11286 H 1066.75 -2.18873 3.55647 0
M  V30 11287 N 1067.19 -1.57141 0.120249 0
M  V30 11288 C 1068.44 -1.94852 -0.536387 0
M  V30 11289 C 1068.76 -1.00452 -1.67136 0
M  V30 11290 O 1068.03 -0.061053 -1.95805 0
M  V30 11291 H 1066.61 -0.719411 -0.201138 0
M  V30 11292 H 1069.27 -1.93977 0.189482 0
M  V30 11293 H 1068.37 -2.97917 -0.930145 0
M  V30 11294 N 1068.67 0.153526 -1.5685 0
M  V30 11295 C 1069.89 0.886343 -1.87507 0
M  V30 11296 C 1070.32 1.74244 -0.708565 0
M  V30 11297 O 1069.67 1.78045 0.341997 0
M  V30 11298 C 1069.72 1.72428 -3.16703 0
M  V30 11299 O 1068.83 2.82784 -3.00178 0
M  V30 11300 H 1068.17 0.247259 -0.616246 0
M  V30 11301 H 1070.7 0.146306 -2.04076 0
M  V30 11302 H 1070.71 2.12062 -3.4856 0
M  V30 11303 H 1069.38 1.09558 -4.01211 0
M  V30 11304 H 1067.96 2.46604 -2.79716 0
M  V30 11305 N 1070.14 1.51827 0.422667 0
M  V30 11306 C 1071.56 1.57533 1.00201 0
M  V30 11307 C 1071.91 0.407623 1.91919 0
M  V30 11308 O 1071.03 -0.473763 2.1115 0
M  V30 11309 C 1071.63 2.85508 1.82403 0
M  V30 11310 C 1070.19 2.93737 2.35362 0
M  V30 11311 C 1069.33 2.52343 1.14971 0
M  V30 11312 H 1072.28 1.57391 0.20339 0
M  V30 11313 H 1072.3 2.70097 2.68007 0
M  V30 11314 H 1071.82 3.70477 1.15623 0
M  V30 11315 H 1069.92 2.13231 3.05554 0
M  V30 11316 H 1070.03 3.977 2.67155 0
M  V30 11317 H 1068.39 2.05878 1.49955 0
M  V30 11318 H 1069.18 3.39672 0.497786 0
M  V30 11319 N 1071.62 -0.679052 1.4222 0
M  V30 11320 C 1072.59 -1.77448 1.45069 0
M  V30 11321 C 1073.59 -1.57189 0.338882 0
M  V30 11322 O 1074.78 -1.63559 0.599519 0
M  V30 11323 C 1071.91 -3.1603 1.27819 0
M  V30 11324 H 1073.1 -1.7631 2.426 0
M  V30 11325 H 1070.65 -0.888277 1.28605 0
M  V30 11326 H 1071.39 -3.22796 0.311946 0
M  V30 11327 H 1071.17 -3.32138 2.08391 0
M  V30 11328 H 1072.66 -3.9596 1.32686 0
M  V30 11329 N 1073.1 -1.28322 -0.914942 0
M  V30 11330 C 1074.51 -1.13937 -1.47903 0
M  V30 11331 C 1074.86 0.271072 -1.94318 0
M  V30 11332 O 1073.99 1.16522 -1.8235 0
M  V30 11333 C 1074.58 -2.06221 -2.68809 0
M  V30 11334 C 1073.14 -1.95903 -3.21402 0
M  V30 11335 C 1072.29 -1.98031 -1.94111 0
M  V30 11336 H 1075.24 -1.41029 -0.727772 0
M  V30 11337 H 1075.26 -1.6255 -3.44031 0
M  V30 11338 H 1074.77 -3.08866 -2.34997 0
M  V30 11339 H 1072.87 -0.962907 -3.59943 0
M  V30 11340 H 1072.99 -2.82799 -3.86732 0
M  V30 11341 H 1071.35 -1.42423 -2.11158 0
M  V30 11342 H 1072.13 -3.02354 -1.62595 0
M  V30 11343 N 1074.58 1.12322 -1.10551 0
M  V30 11344 C 1075.8 1.8822 -0.871093 0
M  V30 11345 C 1076.23 1.7916 0.573005 0
M  V30 11346 O 1075.59 1.14738 1.40374 0
M  V30 11347 C 1075.63 3.35349 -1.32565 0
M  V30 11348 O 1074.74 4.09461 -0.49145 0
M  V30 11349 H 1074.08 0.584787 -0.314516 0
M  V30 11350 H 1076.61 1.42039 -1.47262 0
M  V30 11351 H 1076.62 3.86189 -1.31612 0
M  V30 11352 H 1075.29 3.4126 -2.37728 0
M  V30 11353 H 1073.87 3.68575 -0.566294 0
M  V30 11354 N 1076.06 0.894434 1.2976 0
M  V30 11355 C 1077.47 0.566892 1.77885 0
M  V30 11356 C 1077.82 -0.917289 1.73437 0
M  V30 11357 O 1076.94 -1.71707 1.31703 0
M  V30 11358 C 1077.54 1.02227 3.2301 0
M  V30 11359 C 1076.1 0.745978 3.68934 0
M  V30 11360 C 1075.24 1.19993 2.49994 0
M  V30 11361 H 1078.2 1.0777 1.16496 0
M  V30 11362 H 1078.22 0.355281 3.78838 0
M  V30 11363 H 1077.73 2.1025 3.26215 0
M  V30 11364 H 1075.83 -0.321866 3.71207 0
M  V30 11365 H 1075.94 1.34017 4.59974 0
M  V30 11366 H 1074.31 0.619047 2.47063 0
M  V30 11367 H 1075.09 2.28811 2.55931 0
M  V30 11368 N 1077.53 -1.43282 0.656365 0
M  V30 11369 C 1078.76 -2.06641 0.177245 0
M  V30 11370 C 1079.18 -1.48893 -1.14946 0
M  V30 11371 O 1078.54 -0.600099 -1.7108 0
M  V30 11372 C 1078.59 -3.60453 0.10299 0
M  V30 11373 O 1077.69 -4.01687 -0.933895 0
M  V30 11374 H 1077.04 -0.656978 0.096314 0
M  V30 11375 H 1079.57 -1.83733 0.900178 0
M  V30 11376 H 1079.58 -4.07923 -0.079291 0
M  V30 11377 H 1078.25 -4.01861 1.07147 0
M  V30 11378 H 1076.83 -3.65801 -0.724148 0
M  V30 11379 N 1079.01 -0.398486 -1.52479 0
M  V30 11380 C 1080.42 0.0735015 -1.86555 0
M  V30 11381 C 1080.78 1.45361 -1.31775 0
M  V30 11382 O 1079.9 2.0632 -0.652759 0
M  V30 11383 C 1080.5 0.140152 -3.3851 0
M  V30 11384 C 1079.05 0.556451 -3.72264 0
M  V30 11385 C 1078.2 -0.275792 -2.75925 0
M  V30 11386 H 1081.15 -0.615991 -1.46257 0
M  V30 11387 H 1081.17 0.957507 -3.68255 0
M  V30 11388 H 1080.69 -0.864442 -3.7835 0
M  V30 11389 H 1078.79 1.56808 -3.37997 0
M  V30 11390 H 1078.9 0.308227 -4.78107 0
M  V30 11391 H 1077.26 0.260304 -2.53366 0
M  V30 11392 H 1078.05 -1.27854 -3.18604 0
M  V30 11393 N 1080.49 1.57075 -0.12858 0
M  V30 11394 C 1081.74 1.95134 0.526046 0
M  V30 11395 C 1082.06 1.01337 1.66601 0
M  V30 11396 O 1081.33 0.0714361 1.9577 0
M  V30 11397 H 1079.91 0.720468 0.19732 0
M  V30 11398 H 1082.57 1.93874 -0.199767 0
M  V30 11399 H 1081.67 2.98406 0.914332 0
M  V30 11400 N 1081.97 -0.145205 1.5693 0
M  V30 11401 C 1083.22 -0.855822 1.83085 0
M  V30 11402 C 1083.54 -1.81625 0.709747 0
M  V30 11403 O 1082.81 -1.94052 -0.268456 0
M  V30 11404 H 1081.39 -0.319032 0.675446 0
M  V30 11405 H 1084.05 -0.138781 1.94405 0
M  V30 11406 H 1083.15 -1.41698 2.78079 0
M  V30 11407 N 1083.45 -1.52049 -0.414609 0
M  V30 11408 C 1084.72 -1.56397 -1.17471 0
M  V30 11409 C 1085.1 -0.34171 -2.08316 0
M  V30 11410 O 1084.45 0.6718 -2.18401 0
M  V30 11411 C 1084.66 -2.88983 -1.95678 0
M  V30 11412 C 1086.01 -3.41781 -2.51935 0
M  V30 11413 O 1087.03 -2.90686 -2.05865 0
M  V30 11414 O 1085.89 -4.30989 -3.36022 0
M  V30 11415 H 1082.99 -0.62974 -0.536056 0
M  V30 11416 H 1085.53 -1.64374 -0.421834 0
M  V30 11417 H 1084.31 -3.69392 -1.29094 0
M  V30 11418 H 1083.93 -2.84274 -2.77983 0
M  V30 11419 N 1084.93 0.6715 -1.42579 0
M  V30 11420 C 1086.2 1.42766 -1.33706 0
M  V30 11421 C 1086.58 2.11086 0.0239748 0
M  V30 11422 O 1085.93 2.03479 1.03964 0
M  V30 11423 C 1086.14 2.42739 -2.50756 0
M  V30 11424 C 1087.49 3.07284 -2.93021 0
M  V30 11425 O 1088.51 2.53066 -2.50671 0
M  V30 11426 O 1087.37 4.05541 -3.66331 0
M  V30 11427 H 1084.47 0.636955 -0.527463 0
M  V30 11428 H 1087.01 0.699946 -1.54593 0
M  V30 11429 H 1085.78 1.91076 -3.41476 0
M  V30 11430 H 1085.41 3.22986 -2.31874 0
M  V30 11431 N 1086.4 1.28806 0.908124 0
M  V30 11432 C 1087.35 1.13215 2.01125 0
M  V30 11433 C 1088.32 0.0277357 1.66077 0
M  V30 11434 O 1089.51 0.193707 1.89814 0
M  V30 11435 C 1086.65 0.805887 3.35558 0
M  V30 11436 C 1085.76 1.9899 3.83441 0
M  V30 11437 C 1084.89 1.60376 5.06412 0
M  V30 11438 C 1083.93 2.75409 5.46641 0
M  V30 11439 N 1083.07 2.37249 6.60801 0
M  V30 11440 H 1087.91 2.07598 2.13792 0
M  V30 11441 H 1085.45 1.03316 1.0471 0
M  V30 11442 H 1087.4 0.597451 4.129 0
M  V30 11443 H 1086.03 -0.101023 3.22642 0
M  V30 11444 H 1085.09 2.31029 3.02208 0
M  V30 11445 H 1086.4 2.85214 4.09212 0
M  V30 11446 H 1085.55 1.35772 5.91313 0
M  V30 11447 H 1084.29 0.712888 4.82462 0
M  V30 11448 H 1083.3 3.00705 4.60279 0
M  V30 11449 H 1084.52 3.65148 5.72577 0
M  V30 11450 H 1082.47 1.50638 6.3847 0
M  V30 11451 H 1082.38 3.17008 6.86325 0
M  V30 11452 H 1083.65 2.15943 7.48992 0
M  V30 11453 N 1087.88 -1.11734 1.11145 0
M  V30 11454 C 1089.29 -1.64928 0.874959 0
M  V30 11455 C 1089.64 -1.87012 -0.593375 0
M  V30 11456 O 1088.77 -1.60206 -1.45475 0
M  V30 11457 C 1089.36 -2.99608 1.58178 0
M  V30 11458 C 1087.92 -3.49723 1.39179 0
M  V30 11459 C 1087.07 -2.24595 1.62642 0
M  V30 11460 H 1090.02 -0.954154 1.26813 0
M  V30 11461 H 1090.04 -3.66434 1.02501 0
M  V30 11462 H 1089.55 -2.83504 2.65042 0
M  V30 11463 H 1087.65 -3.70998 0.345111 0
M  V30 11464 H 1087.77 -4.28711 2.13878 0
M  V30 11465 H 1086.13 -2.32067 1.04961 0
M  V30 11466 H 1086.91 -2.11036 2.70774 0
M  V30 11467 N 1089.36 -0.901303 -1.29284 0
M  V30 11468 C 1090.29 -0.337552 -2.26701 0
M  V30 11469 C 1091.3 0.517039 -1.54371 0
M  V30 11470 O 1092.49 0.333937 -1.75349 0
M  V30 11471 C 1089.59 0.537214 -3.34615 0
M  V30 11472 C 1088.77 -0.292017 -4.36424 0
M  V30 11473 C 1087.83 0.515837 -5.23666 0
M  V30 11474 O 1086.85 -0.0672303 -5.6916 0
M  V30 11475 N 1088.05 1.82159 -5.51179 0
M  V30 11476 H 1090.82 -1.17484 -2.75713 0
M  V30 11477 H 1088.38 -0.765957 -1.42635 0
M  V30 11478 H 1090.37 1.0841 -3.8991 0
M  V30 11479 H 1088.94 1.2752 -2.85408 0
M  V30 11480 H 1088.16 -1.02031 -3.80767 0
M  V30 11481 H 1089.45 -0.859855 -5.01482 0
M  V30 11482 H 1088.85 2.318 -5.16028 0
M  V30 11483 H 1087.4 2.31556 -6.09282 0
M  V30 11484 N 1090.84 1.42931 -0.663954 0
M  V30 11485 C 1092.08 2.01982 -0.182007 0
M  V30 11486 C 1092.42 1.52323 1.20463 0
M  V30 11487 O 1091.69 0.720834 1.80649 0
M  V30 11488 C 1091.97 3.59518 -0.204671 0
M  V30 11489 C 1091.83 4.19382 -1.62599 0
M  V30 11490 C 1093.15 4.37762 0.45308 0
M  V30 11491 H 1090.27 0.733892 -0.0676115 0
M  V30 11492 H 1092.91 1.70092 -0.84668 0
M  V30 11493 H 1091.06 3.86816 0.361295 0
M  V30 11494 H 1092.73 4.03076 -2.24337 0
M  V30 11495 H 1090.97 3.75623 -2.17001 0
M  V30 11496 H 1091.64 5.28496 -1.59362 0
M  V30 11497 H 1094.12 4.1609 -0.0285774 0
M  V30 11498 H 1093 5.47392 0.406538 0
M  V30 11499 H 1093.26 4.1482 1.52895 0
M  V30 11500 N 1092.32 0.406567 1.52266 0
M  V30 11501 C 1093.73 -0.063607 1.86592 0
M  V30 11502 C 1094.08 -1.4466 1.32544 0
M  V30 11503 O 1093.2 -2.05971 0.663692 0
M  V30 11504 C 1093.8 -0.122198 3.3858 0
M  V30 11505 C 1092.36 -0.536701 3.72554 0
M  V30 11506 C 1091.5 0.290422 2.75775 0
M  V30 11507 H 1094.45 0.623738 1.45929 0
M  V30 11508 H 1094.48 -0.937964 3.68758 0
M  V30 11509 H 1093.99 0.884495 3.77887 0
M  V30 11510 H 1092.09 -1.55013 3.38824 0
M  V30 11511 H 1092.2 -0.282867 4.78264 0
M  V30 11512 H 1090.57 -0.246864 2.53501 0
M  V30 11513 H 1091.35 1.29541 3.17921 0
M  V30 11514 N 1093.79 -1.57004 0.136909 0
M  V30 11515 C 1095.21 -1.82675 -0.385577 0
M  V30 11516 C 1095.56 -1.05508 -1.65416 0
M  V30 11517 O 1094.68 -0.297207 -2.14349 0
M  V30 11518 C 1095.28 -3.31356 -0.706326 0
M  V30 11519 C 1093.84 -3.57644 -1.17337 0
M  V30 11520 C 1092.98 -2.7664 -0.191239 0
M  V30 11521 H 1095.93 -1.54522 0.36177 0
M  V30 11522 H 1095.95 -3.4696 -1.56201 0
M  V30 11523 H 1095.47 -3.87492 0.217147 0
M  V30 11524 H 1093.57 -3.06883 -2.11313 0
M  V30 11525 H 1093.68 -4.66152 -1.10632 0
M  V30 11526 H 1092.04 -2.45403 -0.681867 0
M  V30 11527 H 1092.83 -3.35543 0.725647 0
M  V30 11528 N 1095.27 0.136881 -1.57004 0
M  V30 11529 C 1096.69 0.489856 -1.51897 0
M  V30 11530 C 1096.89 1.82833 -0.847009 0
M  V30 11531 O 1095.94 2.48952 -0.421792 0
M  V30 11532 C 1097.26 0.490831 -2.96667 0
M  V30 11533 C 1098.81 0.575639 -3.07661 0
M  V30 11534 C 1099.28 0.607178 -4.53957 0
M  V30 11535 N 1100.77 0.66912 -4.58342 0
M  V30 11536 C 1101.51 0.714675 -5.68929 0
M  V30 11537 N 1101 0.718959 -6.89059 0
M  V30 11538 N 1102.8 0.756326 -5.56988 0
M  V30 11539 H 1094.95 -0.740347 -1.99079 0
M  V30 11540 H 1097.21 -0.271116 -0.908405 0
M  V30 11541 H 1096.92 -0.424648 -3.49127 0
M  V30 11542 H 1096.79 1.32512 -3.53158 0
M  V30 11543 H 1099.18 1.48154 -2.55215 0
M  V30 11544 H 1099.26 -0.285991 -2.54196 0
M  V30 11545 H 1098.9 -0.294604 -5.07045 0
M  V30 11546 H 1098.83 1.48544 -5.05215 0
M  V30 11547 H 1101.32 0.672697 -3.71864 0
M  V30 11548 H 1101.64 0.755848 -7.69095 0
M  V30 11549 H 1099.98 0.686671 -6.91599 0
M  V30 11550 H 1103.17 0.750219 -4.62049 0
M  V30 11551 H 1103.34 0.788363 -6.43186 0
M  V30 11552 N 1096.75 1.52266 0.40654 0
M  V30 11553 C 1098 1.66699 1.15496 0
M  V30 11554 C 1098.33 0.397019 1.90098 0
M  V30 11555 O 1097.6 -0.604646 1.84863 0
M  V30 11556 C 1097.89 2.8907 2.14734 0
M  V30 11557 C 1097.74 4.26123 1.44012 0
M  V30 11558 C 1099.06 3.06966 3.15373 0
M  V30 11559 H 1096.18 0.606642 0.418515 0
M  V30 11560 H 1098.82 1.84826 0.440381 0
M  V30 11561 H 1096.97 2.73745 2.75673 0
M  V30 11562 H 1098.64 4.5318 0.861722 0
M  V30 11563 H 1096.89 4.27406 0.742064 0
M  V30 11564 H 1097.56 5.07799 2.16436 0
M  V30 11565 H 1100.03 3.21205 2.64512 0
M  V30 11566 H 1098.91 3.94097 3.82072 0
M  V30 11567 H 1099.17 2.20395 3.83247 0
M  V30 11568 N 1098.23 -0.663929 1.42933 0
M  V30 11569 C 1099.64 -1.24484 1.39143 0
M  V30 11570 C 1099.99 -1.95993 0.0901142 0
M  V30 11571 O 1099.12 -2.00636 -0.810812 0
M  V30 11572 C 1099.71 -2.26402 2.52047 0
M  V30 11573 C 1098.27 -2.79995 2.51555 0
M  V30 11574 C 1097.42 -1.54475 2.30289 0
M  V30 11575 H 1100.37 -0.456619 1.51989 0
M  V30 11576 H 1100.39 -3.08361 2.22921 0
M  V30 11577 H 1099.9 -1.74328 3.46744 0
M  V30 11578 H 1098 -3.36161 1.60707 0
M  V30 11579 H 1098.11 -3.2827 3.48964 0
M  V30 11580 H 1096.48 -1.81437 1.78753 0
M  V30 11581 H 1097.26 -1.04351 3.27056 0
M  V30 11582 N 1099.71 -1.29285 -0.901281 0
M  V30 11583 C 1100.96 -1.16538 -1.64626 0
M  V30 11584 C 1101.27 0.282623 -1.93547 0
M  V30 11585 O 1102.47 0.531396 -2.66249 0
M  V30 11586 C 1100.93 -2.03809 -2.96631 0
M  V30 11587 C 1100.54 -3.53423 -2.75311 0
M  V30 11588 C 1102.28 -1.99782 -3.7455 0
M  V30 11589 C 1100.19 -4.32804 -4.03032 0
M  V30 11590 H 1099.12 -0.432561 -0.617581 0
M  V30 11591 H 1101.77 -1.53912 -0.999159 0
M  V30 11592 H 1100.15 -1.59302 -3.62545 0
M  V30 11593 H 1101.33 -4.05971 -2.18 0
M  V30 11594 H 1099.64 -3.59106 -2.10789 0
M  V30 11595 H 1102.24 -2.5635 -4.69243 0
M  V30 11596 H 1102.58 -0.97743 -4.04663 0
M  V30 11597 H 1103.11 -2.42324 -3.15474 0
M  V30 11598 H 1099.85 -5.35473 -3.78086 0
M  V30 11599 H 1099.37 -3.85025 -4.59909 0
M  V30 11600 H 1101.05 -4.43383 -4.71191 0
M  V30 11601 N 1101.18 1.11143 -1.11736 0
M  V30 11602 C 1102.6 1.64462 -0.883693 0
M  V30 11603 C 1102.95 1.87324 0.583448 0
M  V30 11604 O 1102.07 1.60975 1.44623 0
M  V30 11605 C 1102.67 2.98765 -1.59764 0
M  V30 11606 C 1101.23 3.4898 -1.41032 0
M  V30 11607 C 1100.37 2.23729 -1.63831 0
M  V30 11608 H 1103.32 0.947415 -1.27317 0
M  V30 11609 H 1103.34 3.65885 -1.04443 0
M  V30 11610 H 1102.86 2.82094 -2.66542 0
M  V30 11611 H 1100.96 3.7081 -0.364781 0
M  V30 11612 H 1101.07 4.27571 -2.16148 0
M  V30 11613 H 1099.43 2.31507 -1.06191 0
M  V30 11614 H 1100.22 2.09597 -2.7189 0
M  V30 11615 N 1102.66 0.908147 1.28804 0
M  V30 11616 C 1104.07 0.585727 1.77274 0
M  V30 11617 C 1104.42 -0.898842 1.744 0
M  V30 11618 O 1103.55 -1.70301 1.33516 0
M  V30 11619 C 1104.14 1.05647 3.21907 0
M  V30 11620 C 1102.7 0.785066 3.68122 0
M  V30 11621 C 1101.85 1.22638 2.48707 0
M  V30 11622 H 1104.8 1.09 1.15346 0
M  V30 11623 H 1104.82 0.395442 3.7844 0
M  V30 11624 H 1104.33 2.13698 3.23967 0
M  V30 11625 H 1102.44 -0.282477 3.71528 0
M  V30 11626 H 1102.55 1.38888 4.58527 0
M  V30 11627 H 1100.91 0.645217 2.46392 0
M  V30 11628 H 1101.7 2.31512 2.5349 0
M  V30 11629 N 1104.14 -1.42577 0.671525 0
M  V30 11630 C 1105.56 -1.5592 0.340769 0
M  V30 11631 C 1105.76 -1.65179 -1.15405 0
M  V30 11632 O 1104.81 -1.61691 -1.93939 0
M  V30 11633 C 1106.13 -2.81087 1.06821 0
M  V30 11634 C 1107.67 -2.94855 1.05022 0
M  V30 11635 C 1108.15 -4.22878 1.75892 0
M  V30 11636 N 1109.64 -4.29783 1.72744 0
M  V30 11637 C 1110.37 -5.2765 2.24439 0
M  V30 11638 N 1109.87 -6.31689 2.84501 0
M  V30 11639 N 1111.66 -5.19426 2.14832 0
M  V30 11640 H 1103.81 -1.34811 1.64133 0
M  V30 11641 H 1106.08 -0.648704 0.691294 0
M  V30 11642 H 1105.78 -2.80371 2.12332 0
M  V30 11643 H 1105.66 -3.71879 0.631356 0
M  V30 11644 H 1108.04 -2.951 0.00345633 0
M  V30 11645 H 1108.13 -2.05303 1.52592 0
M  V30 11646 H 1107.77 -4.23394 2.80535 0
M  V30 11647 H 1107.7 -5.1136 1.25773 0
M  V30 11648 H 1110.19 -3.55225 1.28932 0
M  V30 11649 H 1110.5 -7.02715 3.21575 0
M  V30 11650 H 1108.85 -6.3226 2.88569 0
M  V30 11651 H 1112.04 -4.37067 1.676 0
M  V30 11652 H 1112.21 -5.95535 2.55426 0
M  V30 11653 N 1105.62 -0.414636 -1.52048 0
M  V30 11654 C 1107.03 0.0537107 -1.86623 0
M  V30 11655 C 1107.38 1.43955 -1.3331 0
M  V30 11656 O 1106.51 2.05616 -0.674606 0
M  V30 11657 C 1107.1 0.104241 -3.3864 0
M  V30 11658 C 1105.66 0.516936 -3.72833 0
M  V30 11659 C 1104.81 -0.305042 -2.75617 0
M  V30 11660 H 1107.76 -0.631469 -1.45596 0
M  V30 11661 H 1107.78 0.918395 -3.6925 0
M  V30 11662 H 1107.29 -0.904523 -3.77412 0
M  V30 11663 H 1105.39 1.53214 -3.39641 0
M  V30 11664 H 1105.5 0.2575 -4.78408 0
M  V30 11665 H 1103.87 0.233416 -2.53628 0
M  V30 11666 H 1104.65 -1.31226 -3.1723 0
M  V30 11667 N 1107.1 1.56929 -0.145233 0
M  V30 11668 C 1108.32 2.00431 0.513314 0
M  V30 11669 C 1108.74 1.0253 1.58534 0
M  V30 11670 O 1108.1 0.0220459 1.82487 0
M  V30 11671 C 1108.15 3.43856 1.11557 0
M  V30 11672 O 1107.87 4.38015 0.0863707 0
M  V30 11673 C 1109.37 4.02627 1.8549 0
M  V30 11674 H 1106.59 0.657529 0.133778 0
M  V30 11675 H 1109.13 2.03095 -0.239296 0
M  V30 11676 H 1107.29 3.4205 1.81881 0
M  V30 11677 H 1107.7 5.21842 0.527363 0
M  V30 11678 H 1109.18 5.04985 2.22923 0
M  V30 11679 H 1109.65 3.43239 2.74014 0
M  V30 11680 H 1110.26 4.08058 1.19869 0
M  V30 11681 N 1108.58 -0.128553 1.57075 0
M  V30 11682 C 1109.99 -0.481794 1.52154 0
M  V30 11683 C 1110.19 -1.82381 0.856694 0
M  V30 11684 O 1109.25 -2.48725 0.434989 0
M  V30 11685 C 1110.56 -0.475091 2.96923 0
M  V30 11686 C 1112.11 -0.559315 3.07962 0
M  V30 11687 C 1112.58 -0.583095 4.54273 0
M  V30 11688 N 1114.07 -0.644803 4.5869 0
M  V30 11689 C 1114.81 -0.684493 5.693 0
M  V30 11690 N 1114.31 -0.682407 6.89431 0
M  V30 11691 N 1116.1 -0.726777 5.57382 0
M  V30 11692 H 1108.25 0.750894 1.98684 0
M  V30 11693 H 1110.51 0.27593 0.906955 0
M  V30 11694 H 1110.22 0.443157 3.48897 0
M  V30 11695 H 1110.09 -1.30637 3.53856 0
M  V30 11696 H 1112.48 -1.46798 2.55997 0
M  V30 11697 H 1112.56 0.299468 2.54041 0
M  V30 11698 H 1112.2 0.32149 5.06881 0
M  V30 11699 H 1112.13 -1.45863 5.05996 0
M  V30 11700 H 1114.63 -0.652967 3.72216 0
M  V30 11701 H 1114.94 -0.715051 7.69485 0
M  V30 11702 H 1113.28 -0.649984 6.91954 0
M  V30 11703 H 1116.47 -0.725704 4.6244 0
M  V30 11704 H 1116.65 -0.754242 6.43596 0
M  V30 11705 N 1110.05 -1.5248 -0.398459 0
M  V30 11706 C 1111.46 -1.59107 -0.976817 0
M  V30 11707 C 1111.82 -0.438104 -1.91246 0
M  V30 11708 O 1110.94 0.440111 -2.11877 0
M  V30 11709 C 1111.54 -2.88373 -1.77838 0
M  V30 11710 C 1110.09 -2.97445 -2.30659 0
M  V30 11711 C 1109.24 -2.5414 -1.10942 0
M  V30 11712 H 1112.19 -1.57695 -0.178324 0
M  V30 11713 H 1112.21 -2.74327 -2.63676 0
M  V30 11714 H 1111.73 -3.72269 -1.09714 0
M  V30 11715 H 1109.83 -2.18066 -3.02123 0
M  V30 11716 H 1109.94 -4.019 -2.60794 0
M  V30 11717 H 1108.3 -2.08237 -1.46661 0
M  V30 11718 H 1109.09 -3.40421 -0.443684 0
M  V30 11719 N 1111.53 0.65634 -1.43283 0
M  V30 11720 C 1112.48 1.76243 -1.44646 0
M  V30 11721 C 1113.47 1.5778 -0.31532 0
M  V30 11722 O 1114.66 1.67945 -0.558881 0
M  V30 11723 C 1111.79 3.14813 -1.36921 0
M  V30 11724 C 1110.87 3.38835 -2.55053 0
M  V30 11725 N 1111.26 3.33345 -3.80414 0
M  V30 11726 C 1109.56 3.69542 -2.4971 0
M  V30 11727 C 1110.26 3.57361 -4.58986 0
M  V30 11728 N 1109.24 3.79022 -3.8967 0
M  V30 11729 H 1113.04 1.70419 -2.39447 0
M  V30 11730 H 1110.55 0.85789 -1.37891 0
M  V30 11731 H 1112.55 3.941 -1.3598 0
M  V30 11732 H 1111.21 3.21822 -0.431381 0
M  V30 11733 H 1112.22 3.12827 -4.12747 0
M  V30 11734 H 1108.9 3.83684 -1.64598 0
M  V30 11735 H 1110.29 3.58921 -5.68001 0
M  V30 11736 N 1113.01 1.29761 0.894412 0
M  V30 11737 C 1114.26 1.18214 1.64782 0
M  V30 11738 C 1114.59 -0.264635 1.92388 0
M  V30 11739 O 1113.86 -1.19051 1.53809 0
M  V30 11740 C 1114.15 2.00138 2.99361 0
M  V30 11741 C 1114 3.52984 2.78787 0
M  V30 11742 C 1115.32 1.83187 4.00163 0
M  V30 11743 H 1112.44 0.430802 0.597979 0
M  V30 11744 H 1115.08 1.59292 1.03566 0
M  V30 11745 H 1113.23 1.65233 3.51611 0
M  V30 11746 H 1114.9 3.97898 2.33398 0
M  V30 11747 H 1113.14 3.77642 2.13469 0
M  V30 11748 H 1113.82 4.05585 3.7444 0
M  V30 11749 H 1116.29 2.13684 3.57041 0
M  V30 11750 H 1115.17 2.42849 4.92255 0
M  V30 11751 H 1115.43 0.788469 4.35012 0
M  V30 11752 N 1114.49 -1.10549 1.12324 0
M  V30 11753 C 1115.42 -2.16657 0.747826 0
M  V30 11754 C 1116.43 -1.61238 -0.224981 0
M  V30 11755 O 1117.62 -1.78499 -0.00649408 0
M  V30 11756 C 1114.72 -3.38791 0.0859421 0
M  V30 11757 C 1113.89 -4.23655 1.08792 0
M  V30 11758 C 1112.95 -5.24239 0.453871 0
M  V30 11759 O 1111.98 -5.58262 1.11052 0
M  V30 11760 N 1113.18 -5.75246 -0.779215 0
M  V30 11761 H 1115.95 -2.49472 1.66084 0
M  V30 11762 H 1113.51 -1.26157 1.01469 0
M  V30 11763 H 1115.5 -4.03182 -0.350186 0
M  V30 11764 H 1114.07 -3.03961 -0.729807 0
M  V30 11765 H 1113.29 -3.55578 1.70171 0
M  V30 11766 H 1114.58 -4.77187 1.76549 0
M  V30 11767 H 1113.98 -5.49802 -1.3317 0
M  V30 11768 H 1112.53 -6.41428 -1.15818 0
M  V30 11769 N 1115.97 -0.914965 -1.28321 0
M  V30 11770 C 1116.9 -0.421292 -2.29668 0
M  V30 11771 C 1117.88 0.511743 -1.6222 0
M  V30 11772 O 1119.06 0.419218 -1.89621 0
M  V30 11773 C 1116.19 0.338364 -3.45648 0
M  V30 11774 C 1115.15 -0.505646 -4.25003 0
M  V30 11775 C 1114.47 0.382421 -5.33331 0
M  V30 11776 C 1115.77 -1.76354 -4.91626 0
M  V30 11777 H 1117.47 -1.26826 -2.71211 0
M  V30 11778 H 1115.01 -0.611291 -1.30381 0
M  V30 11779 H 1116.96 0.694578 -4.15636 0
M  V30 11780 H 1115.69 1.21925 -3.02988 0
M  V30 11781 H 1114.35 -0.844395 -3.56743 0
M  V30 11782 H 1114 1.26189 -4.86914 0
M  V30 11783 H 1113.7 -0.17871 -5.87328 0
M  V30 11784 H 1115.22 0.73449 -6.06166 0
M  V30 11785 H 1116.63 -1.47616 -5.5397 0
M  V30 11786 H 1115.03 -2.26717 -5.55625 0
M  V30 11787 H 1116.1 -2.49063 -4.16048 0
M  V30 11788 N 1117.44 1.42219 -0.679077 0
M  V30 11789 C 1118.67 2.06333 -0.210097 0
M  V30 11790 C 1119.09 1.50703 1.12562 0
M  V30 11791 O 1118.45 0.627241 1.70104 0
M  V30 11792 C 1118.5 3.60243 -0.160322 0
M  V30 11793 O 1117.6 4.03122 0.869872 0
M  V30 11794 H 1116.94 0.655362 -0.106754 0
M  V30 11795 H 1119.47 1.82278 -0.929294 0
M  V30 11796 H 1119.48 4.07997 0.014384 0
M  V30 11797 H 1118.16 4.00106 -1.13526 0
M  V30 11798 H 1116.74 3.66907 0.66586 0
M  V30 11799 N 1118.92 0.422693 1.51826 0
M  V30 11800 C 1120.33 -0.0438129 1.86649 0
M  V30 11801 C 1120.68 -1.43246 1.34071 0
M  V30 11802 O 1119.81 -2.05256 0.685501 0
M  V30 11803 C 1120.4 -0.0862802 3.3869 0
M  V30 11804 C 1118.96 -0.497157 3.73102 0
M  V30 11805 C 1118.11 0.319655 2.75451 0
M  V30 11806 H 1121.06 0.639181 1.45259 0
M  V30 11807 H 1121.08 -0.8988 3.69732 0
M  V30 11808 H 1120.59 0.924525 3.76927 0
M  V30 11809 H 1118.69 -1.51411 3.40449 0
M  V30 11810 H 1118.81 -0.232125 4.78537 0
M  V30 11811 H 1117.17 -0.219963 2.53748 0
M  V30 11812 H 1117.95 1.32906 3.16529 0
M  V30 11813 N 1120.4 -1.5685 0.153553 0
M  V30 11814 C 1121.36 -2.15894 -0.769564 0
M  V30 11815 C 1122.36 -1.10239 -1.17064 0
M  V30 11816 O 1123.55 -1.35845 -1.09049 0
M  V30 11817 C 1120.68 -2.72738 -2.04516 0
M  V30 11818 H 1121.88 -2.98807 -0.255842 0
M  V30 11819 H 1119.43 -1.56005 -0.0959279 0
M  V30 11820 H 1120.17 -1.9351 -2.60239 0
M  V30 11821 H 1119.95 -3.50042 -1.76672 0
M  V30 11822 H 1121.44 -3.18208 -2.70432 0
M  V30 11823 N 1121.88 0.120221 -1.57141 0
M  V30 11824 C 1123.29 0.677497 -1.73974 0
M  V30 11825 C 1123.64 1.80371 -0.772055 0
M  V30 11826 O 1122.76 2.16329 0.0553062 0
M  V30 11827 C 1123.36 1.23575 -3.1546 0
M  V30 11828 C 1121.92 1.73933 -3.33803 0
M  V30 11829 C 1121.07 0.638542 -2.69848 0
M  V30 11830 H 1124.02 -0.105685 -1.58348 0
M  V30 11831 H 1124.04 2.10542 -3.16942 0
M  V30 11832 H 1123.55 0.415851 -3.85866 0
M  V30 11833 H 1121.65 2.58404 -2.68437 0
M  V30 11834 H 1121.76 1.84961 -4.41957 0
M  V30 11835 H 1120.13 1.07185 -2.31049 0
M  V30 11836 H 1120.91 -0.170356 -3.42877 0
M  V30 11837 N 1123.36 1.52689 0.390367 0
M  V30 11838 C 1124.77 1.59623 0.968366 0
M  V30 11839 C 1125.12 0.44824 1.91011 0
M  V30 11840 O 1124.24 -0.428868 2.12108 0
M  V30 11841 C 1124.84 2.89312 1.76306 0
M  V30 11842 C 1123.4 2.98664 2.29079 0
M  V30 11843 C 1122.54 2.54725 1.09593 0
M  V30 11844 H 1125.5 1.57787 0.169959 0
M  V30 11845 H 1125.52 2.75721 2.62217 0
M  V30 11846 H 1125.03 3.72846 1.07738 0
M  V30 11847 H 1123.13 2.19665 3.00962 0
M  V30 11848 H 1123.24 4.03277 2.58659 0
M  V30 11849 H 1121.61 2.09012 1.45554 0
M  V30 11850 H 1122.39 3.40651 0.425625 0
M  V30 11851 N 1124.83 -0.648732 1.43629 0
M  V30 11852 C 1126.08 -1.40579 1.45196 0
M  V30 11853 C 1126.4 -1.9484 0.0790556 0
M  V30 11854 O 1125.67 -1.74707 -0.886239 0
M  V30 11855 H 1124.25 -0.52175 0.53459 0
M  V30 11856 H 1126.92 -0.764796 1.79268 0
M  V30 11857 H 1126.01 -2.24591 2.16715 0
M  V30 11858 N 1126.31 -1.30234 -0.887518 0
M  V30 11859 C 1127.22 -1.18316 -2.02579 0
M  V30 11860 C 1128.24 -0.103658 -1.73691 0
M  V30 11861 O 1129.41 -0.3181 -1.98872 0
M  V30 11862 C 1126.48 -0.873222 -3.35523 0
M  V30 11863 C 1125.54 -2.03783 -3.7785 0
M  V30 11864 C 1124.77 -1.74258 -5.0445 0
M  V30 11865 O 1125 -0.669295 -5.6646 0
M  V30 11866 O 1123.93 -2.59423 -5.43124 0
M  V30 11867 H 1127.76 -2.13933 -2.15561 0
M  V30 11868 H 1125.34 -1.09803 -1.0131 0
M  V30 11869 H 1127.22 -0.715463 -4.15282 0
M  V30 11870 H 1125.9 0.053056 -3.23657 0
M  V30 11871 H 1124.81 -2.2509 -2.98806 0
M  V30 11872 H 1126.14 -2.94574 -3.94318 0
M  V30 11873 N 1127.79 1.09952 -1.12909 0
M  V30 11874 C 1128.7 2.19999 -0.81471 0
M  V30 11875 C 1129.72 1.72864 0.19851 0
M  V30 11876 O 1130.89 2.01376 0.0308832 0
M  V30 11877 C 1127.96 3.45573 -0.279363 0
M  V30 11878 C 1127.02 4.07417 -1.35314 0
M  V30 11879 C 1126.25 5.26996 -0.843247 0
M  V30 11880 O 1126.47 5.69495 0.321164 0
M  V30 11881 O 1125.41 5.79826 -1.61511 0
M  V30 11882 H 1129.23 2.49333 -1.73398 0
M  V30 11883 H 1126.82 1.18784 -0.906128 0
M  V30 11884 H 1128.7 4.21398 0.0140531 0
M  V30 11885 H 1127.38 3.17854 0.612401 0
M  V30 11886 H 1126.28 3.33253 -1.6998 0
M  V30 11887 H 1127.62 4.39349 -2.21885 0
M  V30 11888 N 1129.27 0.921757 1.27833 0
M  V30 11889 C 1130.18 0.421668 2.30779 0
M  V30 11890 C 1131.19 -0.494686 1.6682 0
M  V30 11891 O 1132.37 -0.378935 1.97803 0
M  V30 11892 C 1129.44 -0.322928 3.45193 0
M  V30 11893 C 1128.5 0.627618 4.24687 0
M  V30 11894 C 1127.73 -0.0815385 5.33638 0
M  V30 11895 O 1127.95 -1.30193 5.55343 0
M  V30 11896 O 1126.89 0.58725 5.99028 0
M  V30 11897 H 1130.71 1.2763 2.7558 0
M  V30 11898 H 1128.3 0.686877 1.32674 0
M  V30 11899 H 1130.18 -0.743145 4.14796 0
M  V30 11900 H 1128.85 -1.15326 3.02459 0
M  V30 11901 H 1127.76 1.09739 3.57642 0
M  V30 11902 H 1129.09 1.425 4.71121 0
M  V30 11903 N 1130.75 -1.41857 0.686609 0
M  V30 11904 C 1131.97 -2.05699 0.222561 0
M  V30 11905 C 1132.39 -1.51636 -1.12481 0
M  V30 11906 O 1131.75 -0.660925 -1.70112 0
M  V30 11907 C 1131.8 -3.61138 0.161818 0
M  V30 11908 O 1131.52 -4.13199 1.45596 0
M  V30 11909 C 1133.02 -4.42112 -0.324304 0
M  V30 11910 H 1130.24 -0.662665 0.10543 0
M  V30 11911 H 1132.78 -1.81788 0.936671 0
M  V30 11912 H 1130.94 -3.8412 -0.503056 0
M  V30 11913 H 1131.35 -5.0717 1.33712 0
M  V30 11914 H 1132.83 -5.51097 -0.315694 0
M  V30 11915 H 1133.3 -4.1756 -1.36164 0
M  V30 11916 H 1133.91 -4.24174 0.309251 0
M  V30 11917 N 1132.22 -0.430739 -1.51599 0
M  V30 11918 C 1133.45 0.139197 -2.06932 0
M  V30 11919 C 1133.87 1.3626 -1.29672 0
M  V30 11920 O 1133.23 1.78219 -0.332836 0
M  V30 11921 C 1133.28 0.446593 -3.57824 0
M  V30 11922 O 1132.38 1.53414 -3.82803 0
M  V30 11923 H 1131.73 0.00475812 -0.663983 0
M  V30 11924 H 1134.26 -0.610171 -1.9529 0
M  V30 11925 H 1134.27 0.698972 -4.01968 0
M  V30 11926 H 1132.94 -0.447613 -4.13484 0
M  V30 11927 H 1131.52 1.27224 -3.50526 0
M  V30 11928 N 1133.7 1.56767 -0.161869 0
M  V30 11929 C 1134.63 2.1466 0.803356 0
M  V30 11930 C 1135.65 1.09977 1.20037 0
M  V30 11931 O 1136.84 1.37199 1.14187 0
M  V30 11932 C 1133.94 2.66663 2.09151 0
M  V30 11933 C 1133.11 3.95904 1.85953 0
M  V30 11934 C 1132.17 4.33067 2.98897 0
M  V30 11935 O 1131.19 5.01119 2.69942 0
M  V30 11936 N 1132.4 3.93856 4.26448 0
M  V30 11937 H 1135.16 2.98108 0.308472 0
M  V30 11938 H 1132.72 1.61886 0.0212238 0
M  V30 11939 H 1134.71 2.88528 2.83784 0
M  V30 11940 H 1133.28 1.87856 2.49857 0
M  V30 11941 H 1132.5 3.82513 0.952751 0
M  V30 11942 H 1133.79 4.8033 1.67811 0
M  V30 11943 H 1133.19 3.39051 4.52836 0
M  V30 11944 H 1131.75 4.20741 4.97815 0
M  V30 11945 N 1135.18 -0.111886 1.57202 0
M  V30 11946 C 1136.43 -0.8146 1.86376 0
M  V30 11947 C 1136.78 -1.77156 0.750558 0
M  V30 11948 O 1136.07 -1.89977 -0.248867 0
M  V30 11949 C 1136.27 -1.59644 3.19763 0
M  V30 11950 C 1136.1 -0.71669 4.43952 0
M  V30 11951 C 1134.87 -0.36881 5.03952 0
M  V30 11952 C 1137.07 -0.0311316 5.14291 0
M  V30 11953 N 1135.05 0.520861 6.11686 0
M  V30 11954 C 1136.42 0.71726 6.15837 0
M  V30 11955 C 1138.47 0.0445453 4.9788 0
M  V30 11956 C 1137.18 1.53423 7.02747 0
M  V30 11957 C 1139.2 0.848364 5.85283 0
M  V30 11958 C 1138.56 1.58493 6.86338 0
M  V30 11959 H 1134.66 -0.274785 0.732132 0
M  V30 11960 H 1137.25 -0.0779628 1.94544 0
M  V30 11961 H 1135.42 -2.30407 3.12678 0
M  V30 11962 H 1137.15 -2.24504 3.36719 0
M  V30 11963 H 1133.91 -0.712671 4.68207 0
M  V30 11964 H 1134.33 0.957756 6.70191 0
M  V30 11965 H 1138.97 -0.510564 4.19706 0
M  V30 11966 H 1136.69 2.10047 7.80324 0
M  V30 11967 H 1140.28 0.909372 5.74649 0
M  V30 11968 H 1139.16 2.19691 7.52798 0
M  V30 11969 N 1136.66 -1.52894 -0.382264 0
M  V30 11970 C 1138.07 -1.60135 -0.959887 0
M  V30 11971 C 1138.42 -0.458363 -1.90771 0
M  V30 11972 O 1137.55 0.417614 -2.12332 0
M  V30 11973 C 1138.14 -2.90243 -1.74769 0
M  V30 11974 C 1136.7 -2.99874 -2.27491 0
M  V30 11975 C 1135.85 -2.55302 -1.0824 0
M  V30 11976 H 1138.8 -1.57875 -0.161589 0
M  V30 11977 H 1138.82 -2.77108 -2.60751 0
M  V30 11978 H 1138.33 -3.73412 -1.0576 0
M  V30 11979 H 1136.43 -2.21258 -2.99793 0
M  V30 11980 H 1136.54 -4.04643 -2.56516 0
M  V30 11981 H 1134.91 -2.09781 -1.44444 0
M  V30 11982 H 1135.69 -3.40872 -0.407553 0
M  V30 11983 N 1138.14 0.641106 -1.43971 0
M  V30 11984 C 1139.39 1.39807 -1.4594 0
M  V30 11985 C 1139.71 1.94795 -0.0893874 0
M  V30 11986 O 1138.98 1.75175 0.876962 0
M  V30 11987 H 1137.56 0.518908 -0.537349 0
M  V30 11988 H 1140.22 0.755278 -1.79671 0
M  V30 11989 H 1139.31 2.23439 -2.17903 0
M  V30 11990 N 1139.62 1.30703 0.880598 0
M  V30 11991 C 1141.03 1.17818 1.4483 0
M  V30 11992 C 1141.38 -0.219456 1.94969 0
M  V30 11993 O 1140.5 -1.11646 1.85375 0
M  V30 11994 C 1141.1 2.13275 2.63247 0
M  V30 11995 C 1139.66 2.04356 3.16094 0
M  V30 11996 C 1138.8 2.03108 1.88792 0
M  V30 11997 H 1141.75 1.42909 0.690125 0
M  V30 11998 H 1141.78 1.71615 3.39601 0
M  V30 11999 H 1141.29 3.14988 2.26725 0
M  V30 12000 H 1139.39 1.058 3.57263 0
M  V30 12001 H 1139.5 2.92953 3.79098 0
M  V30 12002 H 1137.87 1.47971 2.07308 0
M  V30 12003 H 1138.65 3.06558 1.54521 0
M  V30 12004 N 1141.09 -1.09351 1.1349 0
M  V30 12005 C 1142.06 -2.14185 0.815919 0
M  V30 12006 C 1143.06 -1.59845 -0.174976 0
M  V30 12007 O 1144.25 -1.74122 0.0521971 0
M  V30 12008 C 1141.38 -3.40224 0.214517 0
M  V30 12009 H 1142.57 -2.43913 1.74489 0
M  V30 12010 H 1140.12 -1.24902 0.939634 0
M  V30 12011 H 1140.86 -3.16123 -0.723634 0
M  V30 12012 H 1140.64 -3.80958 0.928102 0
M  V30 12013 H 1142.13 -4.17599 0.00821999 0
M  V30 12014 N 1142.57 -0.928524 -1.27343 0
M  V30 12015 C 1143.8 -0.58516 -1.98974 0
M  V30 12016 C 1144.22 0.829964 -1.68799 0
M  V30 12017 O 1143.58 1.55705 -0.928738 0
M  V30 12018 C 1143.63 -0.818662 -3.51184 0
M  V30 12019 O 1142.73 0.115355 -4.12239 0
M  V30 12020 H 1142.07 -0.225203 -0.624644 0
M  V30 12021 H 1144.6 -1.248 -1.6213 0
M  V30 12022 H 1144.61 -0.734554 -4.01333 0
M  V30 12023 H 1143.29 -1.8502 -3.72479 0
M  V30 12024 H 1141.86 -0.0187371 -3.72895 0
M  V30 12025 N 1144.05 1.41491 -0.694123 0
M  V30 12026 C 1145.46 1.84283 -0.299439 0
M  V30 12027 C 1145.81 1.58081 1.16211 0
M  V30 12028 O 1144.94 1.05051 1.89191 0
M  V30 12029 C 1145.53 3.34522 -0.536696 0
M  V30 12030 C 1144.09 3.7589 -0.195944 0
M  V30 12031 C 1143.24 2.64908 -0.819692 0
M  V30 12032 H 1146.19 1.31063 -0.894884 0
M  V30 12033 H 1146.21 3.79947 0.205062 0
M  V30 12034 H 1145.72 3.53561 -1.6005 0
M  V30 12035 H 1143.82 3.62452 0.863655 0
M  V30 12036 H 1143.94 4.74671 -0.649954 0
M  V30 12037 H 1142.3 2.53476 -0.249412 0
M  V30 12038 H 1143.08 2.86765 -1.88734 0
M  V30 12039 N 1145.53 0.438773 1.51369 0
M  V30 12040 C 1146.94 -0.0240139 1.86685 0
M  V30 12041 C 1147.29 -1.41816 1.35583 0
M  V30 12042 O 1146.41 -2.04517 0.707232 0
M  V30 12043 C 1147.01 -0.0503527 3.38763 0
M  V30 12044 C 1145.57 -0.457556 3.73609 0
M  V30 12045 C 1144.72 0.348852 2.75097 0
M  V30 12046 H 1147.67 0.654552 1.44573 0
M  V30 12047 H 1147.69 -0.859534 3.70665 0
M  V30 12048 H 1147.2 0.964451 3.75925 0
M  V30 12049 H 1145.3 -1.47791 3.42036 0
M  V30 12050 H 1145.41 -0.181357 4.78757 0
M  V30 12051 H 1143.78 -0.193037 2.53967 0
M  V30 12052 H 1144.56 1.36256 3.15102 0
M  V30 12053 N 1147.01 -1.56678 0.170181 0
M  V30 12054 C 1148.42 -1.58512 -0.185999 0
M  V30 12055 C 1148.62 -1.18548 -1.62937 0
M  V30 12056 O 1147.68 -0.896554 -2.36047 0
M  V30 12057 C 1148.99 -3.00554 0.0937842 0
M  V30 12058 C 1150.54 -3.12984 0.0319057 0
M  V30 12059 C 1151.01 -4.57115 0.284664 0
M  V30 12060 N 1152.5 -4.62617 0.2324 0
M  V30 12061 C 1153.24 -5.71988 0.40216 0
M  V30 12062 N 1152.74 -6.89921 0.630915 0
M  V30 12063 N 1154.53 -5.61082 0.338144 0
M  V30 12064 H 1146.68 -1.80944 1.11235 0
M  V30 12065 H 1148.94 -0.838586 0.442128 0
M  V30 12066 H 1148.65 -3.34265 1.09362 0
M  V30 12067 H 1148.52 -3.72151 -0.615118 0
M  V30 12068 H 1150.91 -2.791 -0.958502 0
M  V30 12069 H 1150.99 -2.43825 0.773501 0
M  V30 12070 H 1150.63 -4.91707 1.27227 0
M  V30 12071 H 1150.56 -5.2443 -0.477529 0
M  V30 12072 H 1153.06 -3.7785 0.0611933 0
M  V30 12073 H 1153.37 -7.69153 0.749931 0
M  V30 12074 H 1151.71 -6.91787 0.667516 0
M  V30 12075 H 1154.9 -4.67826 0.16003 0
M  V30 12076 H 1155.08 -6.46265 0.473872 0
M  V30 12077 N 1148.48 0.103547 -1.57259 0
M  V30 12078 C 1149.73 0.809774 -1.85931 0
M  V30 12079 C 1150.06 1.78791 -0.758122 0
M  V30 12080 O 1149.34 1.93079 0.234682 0
M  V30 12081 C 1149.62 1.54601 -3.25224 0
M  V30 12082 C 1149.47 0.586439 -4.45961 0
M  V30 12083 C 1150.79 2.4986 -3.62296 0
M  V30 12084 H 1147.91 0.29293 -0.676285 0
M  V30 12085 H 1150.55 0.0736065 -1.89857 0
M  V30 12086 H 1148.7 2.17355 -3.22008 0
M  V30 12087 H 1150.38 -0.0334441 -4.61288 0
M  V30 12088 H 1148.62 -0.10085 -4.33683 0
M  V30 12089 H 1149.29 1.13855 -5.40131 0
M  V30 12090 H 1151.77 1.97203 -3.66402 0
M  V30 12091 H 1150.64 2.98396 -4.60707 0
M  V30 12092 H 1150.9 3.33233 -2.90531 0
M  V30 12093 N 1149.96 1.53094 0.37415 0
M  V30 12094 C 1151.37 1.60641 0.951381 0
M  V30 12095 C 1151.72 0.468474 1.90525 0
M  V30 12096 O 1150.85 -0.406347 2.12551 0
M  V30 12097 C 1151.44 2.91166 1.73228 0
M  V30 12098 C 1150 3.01077 2.25898 0
M  V30 12099 C 1149.15 2.55873 1.06885 0
M  V30 12100 H 1152.1 1.57959 0.153214 0
M  V30 12101 H 1152.12 2.78487 2.59278 0
M  V30 12102 H 1151.63 3.73968 1.03778 0
M  V30 12103 H 1149.73 2.22844 2.98615 0
M  V30 12104 H 1149.85 4.05998 2.54367 0
M  V30 12105 H 1148.21 2.10544 1.43329 0
M  V30 12106 H 1148.99 3.41084 0.38947 0
M  V30 12107 N 1151.44 -0.633461 1.44309 0
M  V30 12108 C 1152.85 -1.21504 1.41752 0
M  V30 12109 C 1153.2 -1.95758 0.131667 0
M  V30 12110 O 1152.33 -2.02311 -0.768072 0
M  V30 12111 C 1152.92 -2.21005 2.56792 0
M  V30 12112 C 1151.48 -2.74596 2.57438 0
M  V30 12113 C 1150.63 -1.49555 2.33513 0
M  V30 12114 H 1153.58 -0.424277 1.52923 0
M  V30 12115 H 1153.6 -3.03563 2.29412 0
M  V30 12116 H 1153.11 -1.66934 3.50364 0
M  V30 12117 H 1151.21 -3.32676 1.67801 0
M  V30 12118 H 1151.33 -3.20794 3.55849 0
M  V30 12119 H 1149.69 -1.77605 1.82561 0
M  V30 12120 H 1150.47 -0.973899 3.29196 0
M  V30 12121 N 1152.92 -1.31168 -0.873655 0
M  V30 12122 C 1154.33 -1.09745 -1.1588 0
M  V30 12123 C 1154.53 0.134471 -2.01051 0
M  V30 12124 O 1153.59 0.824857 -2.38647 0
M  V30 12125 C 1154.9 -2.36704 -1.85451 0
M  V30 12126 C 1156.45 -2.42278 -1.98167 0
M  V30 12127 C 1156.93 -3.69108 -2.71152 0
M  V30 12128 N 1158.42 -3.69981 -2.7869 0
M  V30 12129 C 1159.15 -4.64811 -3.35765 0
M  V30 12130 N 1158.65 -5.69995 -3.938 0
M  V30 12131 N 1160.44 -4.52337 -3.33688 0
M  V30 12132 H 1152.59 -2.10184 -0.306021 0
M  V30 12133 H 1154.86 -0.927058 -0.198159 0
M  V30 12134 H 1154.56 -3.26666 -1.30316 0
M  V30 12135 H 1154.44 -2.46219 -2.85755 0
M  V30 12136 H 1156.82 -1.52787 -2.52468 0
M  V30 12137 H 1156.9 -2.3673 -0.969164 0
M  V30 12138 H 1156.55 -4.58963 -2.1752 0
M  V30 12139 H 1156.48 -3.71922 -3.72803 0
M  V30 12140 H 1158.97 -2.93944 -2.37498 0
M  V30 12141 H 1159.28 -6.38438 -4.3545 0
M  V30 12142 H 1157.63 -5.73773 -3.92186 0
M  V30 12143 H 1160.82 -3.69341 -2.87584 0
M  V30 12144 H 1160.99 -5.2642 -3.77871 0
M  V30 12145 N 1154.4 1.08748 -1.14068 0
M  V30 12146 C 1155.31 2.19123 -0.837998 0
M  V30 12147 C 1156.32 1.73065 0.180164 0
M  V30 12148 O 1157.5 2.01398 0.00952285 0
M  V30 12149 C 1154.56 3.45257 -0.316 0
M  V30 12150 C 1153.62 4.05959 -1.39628 0
M  V30 12151 C 1152.86 5.26072 -0.899095 0
M  V30 12152 O 1153.08 5.69804 0.260744 0
M  V30 12153 O 1152.01 5.7808 -1.67652 0
M  V30 12154 H 1155.84 2.4748 -1.76033 0
M  V30 12155 H 1153.43 1.17816 -0.918675 0
M  V30 12156 H 1155.31 4.21389 -0.0306425 0
M  V30 12157 H 1153.98 3.18486 0.578654 0
M  V30 12158 H 1152.89 3.31432 -1.73505 0
M  V30 12159 H 1154.22 4.36971 -2.26533 0
M  V30 12160 N 1155.87 0.935264 1.26849 0
M  V30 12161 C 1157.29 0.623198 1.75992 0
M  V30 12162 C 1157.64 -0.861647 1.76267 0
M  V30 12163 O 1156.76 -1.6743 1.37099 0
M  V30 12164 C 1157.36 1.12451 3.19594 0
M  V30 12165 C 1155.92 0.862974 3.66374 0
M  V30 12166 C 1155.06 1.27886 2.4605 0
M  V30 12167 H 1158.01 1.11422 1.13008 0
M  V30 12168 H 1158.03 0.475626 3.77516 0
M  V30 12169 H 1157.55 2.20522 3.19361 0
M  V30 12170 H 1155.65 -0.203606 3.72043 0
M  V30 12171 H 1155.76 1.48582 4.55478 0
M  V30 12172 H 1154.12 0.697335 2.44968 0
M  V30 12173 H 1154.91 2.36837 2.48522 0
M  V30 12174 N 1157.35 -1.41121 0.701616 0
M  V30 12175 C 1158.28 -2.33436 0.0545974 0
M  V30 12176 C 1159.26 -1.52144 -0.760662 0
M  V30 12177 O 1160.45 -1.80661 -0.712414 0
M  V30 12178 C 1157.58 -3.36015 -0.878117 0
M  V30 12179 C 1156.53 -4.27664 -0.169511 0
M  V30 12180 C 1155.86 -5.20666 -1.21699 0
M  V30 12181 C 1157.16 -5.13254 0.967859 0
M  V30 12182 H 1158.85 -2.87791 0.825637 0
M  V30 12183 H 1156.4 -1.38377 0.398484 0
M  V30 12184 H 1158.35 -3.99526 -1.34004 0
M  V30 12185 H 1157.08 -2.80024 -1.68089 0
M  V30 12186 H 1155.73 -3.65586 0.272441 0
M  V30 12187 H 1155.38 -4.60987 -2.01246 0
M  V30 12188 H 1155.08 -5.82822 -0.747836 0
M  V30 12189 H 1156.61 -5.87053 -1.6793 0
M  V30 12190 H 1158.02 -5.70298 0.585944 0
M  V30 12191 H 1156.42 -5.84381 1.3645 0
M  V30 12192 H 1157.49 -4.5006 1.80483 0
M  V30 12193 N 1158.83 -0.446794 -1.51134 0
M  V30 12194 C 1160.06 0.117242 -2.07068 0
M  V30 12195 C 1160.48 1.34877 -1.3111 0
M  V30 12196 O 1159.84 1.77856 -0.35172 0
M  V30 12197 C 1159.89 0.408616 -3.58277 0
M  V30 12198 O 1158.99 1.49345 -3.84408 0
M  V30 12199 H 1158.33 -0.00228458 -0.663996 0
M  V30 12200 H 1160.86 -0.63085 -1.94632 0
M  V30 12201 H 1160.87 0.656298 -4.02687 0
M  V30 12202 H 1159.55 -0.491444 -4.12986 0
M  V30 12203 H 1158.12 1.23499 -3.51856 0
M  V30 12204 N 1160.31 1.56586 -0.178487 0
M  V30 12205 C 1161.72 1.83633 0.337009 0
M  V30 12206 C 1162.07 1.09857 1.6256 0
M  V30 12207 O 1161.2 0.353933 2.13486 0
M  V30 12208 C 1161.79 3.33112 0.618225 0
M  V30 12209 C 1160.35 3.60629 1.07814 0
M  V30 12210 C 1159.5 2.7705 0.117825 0
M  V30 12211 H 1162.45 1.53508 -0.402612 0
M  V30 12212 H 1162.47 3.5098 1.46947 0
M  V30 12213 H 1161.98 3.8678 -0.319808 0
M  V30 12214 H 1160.08 3.12378 2.03103 0
M  V30 12215 H 1160.19 4.68921 0.982339 0
M  V30 12216 H 1158.56 2.47125 0.616563 0
M  V30 12217 H 1159.34 3.33501 -0.814356 0
M  V30 12218 N 1161.79 -0.095206 1.57312 0
M  V30 12219 C 1162.72 -1.14173 1.98739 0
M  V30 12220 C 1163.73 -1.36323 0.889934 0
M  V30 12221 O 1164.92 -1.34977 1.16805 0
M  V30 12222 C 1162.02 -2.49729 2.29104 0
M  V30 12223 C 1161.19 -2.47857 3.60396 0
M  V30 12224 C 1160.25 -3.65341 3.78699 0
M  V30 12225 O 1159.28 -3.47837 4.50553 0
M  V30 12226 N 1160.48 -4.84818 3.19268 0
M  V30 12227 H 1163.25 -0.789126 2.89124 0
M  V30 12228 H 1160.81 -0.284187 1.59386 0
M  V30 12229 H 1162.8 -3.26925 2.38541 0
M  V30 12230 H 1161.37 -2.7708 1.44726 0
M  V30 12231 H 1160.59 -1.56208 3.61929 0
M  V30 12232 H 1161.88 -2.43685 4.46649 0
M  V30 12233 H 1161.27 -5.01943 2.60902 0
M  V30 12234 H 1159.83 -5.59607 3.34191 0
M  V30 12235 N 1163.26 -1.53291 -0.366026 0
M  V30 12236 C 1164.51 -1.69117 -1.10653 0
M  V30 12237 C 1164.83 -0.445327 -1.89847 0
M  V30 12238 O 1164.1 0.540616 -1.88293 0
M  V30 12239 H 1162.68 -0.623446 -0.41149 0
M  V30 12240 H 1165.35 -1.90479 -0.412749 0
M  V30 12241 H 1164.44 -2.55205 -1.79658 0
M  V30 12242 N 1164.74 0.6258 -1.44643 0
M  V30 12243 C 1165.97 1.41726 -1.51422 0
M  V30 12244 C 1166.39 1.87565 -0.14181 0
M  V30 12245 O 1165.75 1.59059 0.870054 0
M  V30 12246 C 1165.8 2.61012 -2.48807 0
M  V30 12247 O 1164.9 3.61029 -1.99328 0
M  V30 12248 H 1164.24 0.423855 -0.511119 0
M  V30 12249 H 1166.77 0.763336 -1.89827 0
M  V30 12250 H 1166.78 3.08489 -2.67018 0
M  V30 12251 H 1165.46 2.26995 -3.48491 0
M  V30 12252 H 1164.04 3.20325 -1.90909 0
M  V30 12253 N 1166.22 1.31629 0.866686 0
M  V30 12254 C 1167.64 1.10358 1.15296 0
M  V30 12255 C 1167.84 -0.123807 2.01119 0
M  V30 12256 O 1166.89 -0.81219 2.39081 0
M  V30 12257 C 1168.21 2.37684 1.84193 0
M  V30 12258 C 1169.75 2.43326 1.9688 0
M  V30 12259 C 1170.23 3.70541 2.69191 0
M  V30 12260 N 1171.72 3.71454 2.76724 0
M  V30 12261 C 1172.45 4.66585 3.33295 0
M  V30 12262 N 1171.95 5.72075 3.90771 0
M  V30 12263 N 1173.74 4.541 3.31284 0
M  V30 12264 H 1165.89 2.10343 0.29487 0
M  V30 12265 H 1168.16 0.928096 0.193239 0
M  V30 12266 H 1167.86 3.27352 1.28582 0
M  V30 12267 H 1167.74 2.47731 2.84445 0
M  V30 12268 H 1170.12 1.54124 2.51654 0
M  V30 12269 H 1170.21 2.3724 0.956596 0
M  V30 12270 H 1169.85 4.60111 2.15083 0
M  V30 12271 H 1169.78 3.73894 3.70825 0
M  V30 12272 H 1172.27 2.952 2.35936 0
M  V30 12273 H 1172.58 6.40738 4.32058 0
M  V30 12274 H 1170.93 5.75844 3.89138 0
M  V30 12275 H 1174.12 3.70861 2.85622 0
M  V30 12276 H 1174.29 5.28416 3.75074 0
M  V30 12277 N 1167.7 -1.08142 1.14644 0
M  V30 12278 C 1168.93 -1.84318 0.939926 0
M  V30 12279 C 1169.34 -1.81735 -0.511636 0
M  V30 12280 O 1168.7 -1.22297 -1.35461 0
M  V30 12281 C 1168.75 -3.31744 1.43625 0
M  V30 12282 O 1168.47 -3.3435 2.83094 0
M  V30 12283 C 1169.97 -4.24717 1.27007 0
M  V30 12284 H 1167.19 -0.581781 0.334323 0
M  V30 12285 H 1169.74 -1.36561 1.52221 0
M  V30 12286 H 1167.89 -3.7688 0.896664 0
M  V30 12287 H 1168.31 -4.26399 3.05425 0
M  V30 12288 H 1169.78 -5.26262 1.66591 0
M  V30 12289 H 1170.26 -4.38682 0.213257 0
M  V30 12290 H 1170.86 -3.85409 1.79833 0
M  V30 12291 N 1169.18 -0.941978 -1.26351 0
M  V30 12292 C 1170.59 -0.632522 -1.75659 0
M  V30 12293 C 1170.94 0.852287 -1.76722 0
M  V30 12294 O 1170.06 1.66701 -1.37985 0
M  V30 12295 C 1170.66 -1.14145 -3.18993 0
M  V30 12296 C 1169.22 -0.882391 -3.65911 0
M  V30 12297 C 1168.37 -1.29189 -2.45368 0
M  V30 12298 H 1171.32 -1.12019 -1.12416 0
M  V30 12299 H 1171.34 -0.495639 -3.77258 0
M  V30 12300 H 1170.85 -2.22213 -3.18187 0
M  V30 12301 H 1168.95 0.183873 -3.72146 0
M  V30 12302 H 1169.06 -1.50996 -4.54683 0
M  V30 12303 H 1167.43 -0.710316 -2.44595 0
M  V30 12304 H 1168.21 -2.38152 -2.47262 0
M  V30 12305 N 1170.66 1.40747 -0.709091 0
M  V30 12306 C 1171.88 2.05841 -0.253816 0
M  V30 12307 C 1172.31 1.53056 1.09341 0
M  V30 12308 O 1171.66 0.663181 1.68735 0
M  V30 12309 C 1171.71 3.59822 -0.236699 0
M  V30 12310 O 1170.82 4.04876 0.784168 0
M  V30 12311 H 1170.16 0.65295 -0.120631 0
M  V30 12312 H 1172.69 1.80266 -0.967749 0
M  V30 12313 H 1172.7 4.07936 -0.0721616 0
M  V30 12314 H 1171.37 3.97608 -1.21988 0
M  V30 12315 H 1169.95 3.68237 0.587884 0
M  V30 12316 N 1172.13 0.454803 1.50895 0
M  V30 12317 C 1173.54 -0.00421212 1.867 0
M  V30 12318 C 1173.9 -1.4037 1.3708 0
M  V30 12319 O 1173.02 -2.03755 0.728884 0
M  V30 12320 C 1173.62 -0.0144196 3.38797 0
M  V30 12321 C 1172.17 -0.417905 3.74073 0
M  V30 12322 C 1171.32 0.37801 2.74711 0
M  V30 12323 H 1174.27 0.669849 1.4387 0
M  V30 12324 H 1174.29 -0.820172 3.71555 0
M  V30 12325 H 1173.81 1.00427 3.74881 0
M  V30 12326 H 1171.91 -1.44155 3.43584 0
M  V30 12327 H 1172.02 -0.130568 4.78922 0
M  V30 12328 H 1170.38 -0.166089 2.54158 0
M  V30 12329 H 1171.17 1.3959 3.13639 0
M  V30 12330 N 1173.61 -1.56489 0.186789 0
M  V30 12331 C 1174.54 -2.21705 -0.732739 0
M  V30 12332 C 1175.52 -1.17751 -1.22755 0
M  V30 12333 O 1176.71 -1.46231 -1.27789 0
M  V30 12334 C 1173.84 -2.86992 -1.95584 0
M  V30 12335 C 1172.79 -3.97118 -1.59628 0
M  V30 12336 C 1172.12 -4.49529 -2.89531 0
M  V30 12337 C 1173.42 -5.15941 -0.812518 0
M  V30 12338 H 1175.11 -2.98802 -0.189094 0
M  V30 12339 H 1172.66 -1.43722 -0.0895099 0
M  V30 12340 H 1174.61 -3.31295 -2.60426 0
M  V30 12341 H 1173.33 -2.07287 -2.52388 0
M  V30 12342 H 1171.99 -3.53494 -0.971475 0
M  V30 12343 H 1171.64 -3.66596 -3.44407 0
M  V30 12344 H 1171.34 -5.23832 -2.66221 0
M  V30 12345 H 1172.87 -4.96528 -3.55376 0
M  V30 12346 H 1174.28 -5.56841 -1.36386 0
M  V30 12347 H 1172.68 -5.96259 -0.677862 0
M  V30 12348 H 1173.75 -4.84535 0.188095 0
M  V30 12349 N 1175.09 0.086862 -1.5736 0
M  V30 12350 C 1176.34 0.790008 -1.8678 0
M  V30 12351 C 1176.67 1.77977 -0.777042 0
M  V30 12352 O 1175.94 1.93317 0.21419 0
M  V30 12353 C 1176.23 1.51143 -3.26845 0
M  V30 12354 C 1176.08 0.539106 -4.46558 0
M  V30 12355 C 1177.4 2.46003 -3.64926 0
M  V30 12356 H 1174.52 0.285741 -0.679354 0
M  V30 12357 H 1177.16 0.0534655 -1.89925 0
M  V30 12358 H 1175.31 2.13928 -3.24295 0
M  V30 12359 H 1176.98 -0.0823679 -4.61226 0
M  V30 12360 H 1175.22 -0.146842 -4.33551 0
M  V30 12361 H 1175.9 1.0812 -5.41308 0
M  V30 12362 H 1178.37 1.93306 -3.68473 0
M  V30 12363 H 1177.25 2.93493 -4.63846 0
M  V30 12364 H 1177.51 3.30133 -2.94049 0
M  V30 12365 N 1176.57 1.53483 0.357892 0
M  V30 12366 C 1177.98 1.61641 0.934289 0
M  V30 12367 C 1178.33 0.488655 1.90017 0
M  V30 12368 O 1177.45 -0.38378 2.1297 0
M  V30 12369 C 1178.05 2.92987 1.7013 0
M  V30 12370 C 1176.61 3.03456 2.22692 0
M  V30 12371 C 1175.76 2.56992 1.04165 0
M  V30 12372 H 1178.71 1.58112 0.136452 0
M  V30 12373 H 1178.73 2.81221 2.5631 0
M  V30 12374 H 1178.24 3.75047 0.998056 0
M  V30 12375 H 1176.34 2.25999 2.96235 0
M  V30 12376 H 1176.45 4.08673 2.50046 0
M  V30 12377 H 1174.82 2.12052 1.41088 0
M  V30 12378 H 1175.6 3.41477 0.353272 0
M  V30 12379 N 1178.05 -0.61812 1.44973 0
M  V30 12380 C 1179.46 -1.19994 1.43033 0
M  V30 12381 C 1179.81 -1.95607 0.152422 0
M  V30 12382 O 1178.93 -2.03114 -0.746571 0
M  V30 12383 C 1179.53 -2.18269 2.59122 0
M  V30 12384 C 1178.09 -2.7185 2.60336 0
M  V30 12385 C 1177.23 -1.4707 2.35086 0
M  V30 12386 H 1180.18 -0.408034 1.53365 0
M  V30 12387 H 1180.21 -3.01113 2.32619 0
M  V30 12388 H 1179.72 -1.63208 3.52115 0
M  V30 12389 H 1177.82 -3.30878 1.7132 0
M  V30 12390 H 1177.93 -3.17001 3.59231 0
M  V30 12391 H 1176.3 -1.75658 1.84435 0
M  V30 12392 H 1177.08 -0.938928 3.30211 0
M  V30 12393 N 1179.52 -1.32087 -0.859693 0
M  V30 12394 C 1180.77 -1.22119 -1.61033 0
M  V30 12395 C 1181.09 0.218289 -1.93774 0
M  V30 12396 O 1180.36 1.14172 -1.5919 0
M  V30 12397 H 1178.94 -0.448989 -0.597008 0
M  V30 12398 H 1181.6 -1.65545 -1.02863 0
M  V30 12399 H 1180.7 -1.80023 -2.54947 0
M  V30 12400 N 1181 1.07532 -1.15215 0
M  V30 12401 C 1182.23 1.84356 -0.950139 0
M  V30 12402 C 1182.65 1.81429 0.496502 0
M  V30 12403 O 1182.01 1.20589 1.35381 0
M  V30 12404 C 1182.06 3.29425 -1.46669 0
M  V30 12405 O 1181.16 4.07008 -0.664674 0
M  V30 12406 H 1180.5 0.570921 -0.339036 0
M  V30 12407 H 1183.03 1.35665 -1.53154 0
M  V30 12408 H 1183.04 3.8026 -1.47873 0
M  V30 12409 H 1181.72 3.3087 -2.51988 0
M  V30 12410 H 1180.29 3.65841 -0.72211 0
M  V30 12411 N 1182.48 0.948665 1.2585 0
M  V30 12412 C 1183.71 0.616741 1.98018 0
M  V30 12413 C 1184.13 -0.803005 1.70098 0
M  V30 12414 O 1183.49 -1.54208 0.953392 0
M  V30 12415 C 1183.54 0.874429 3.49837 0
M  V30 12416 O 1182.64 -0.0497568 4.1237 0
M  V30 12417 H 1181.98 0.235112 0.620982 0
M  V30 12418 H 1184.51 1.27364 1.60124 0
M  V30 12419 H 1184.52 0.798309 4.00114 0
M  V30 12420 H 1183.2 1.90922 3.69488 0
M  V30 12421 H 1181.77 0.0780591 3.72818 0
M  V30 12422 N 1183.96 -1.40369 0.716545 0
M  V30 12423 C 1185.37 -1.83783 0.328719 0
M  V30 12424 C 1185.72 -1.5991 -1.13681 0
M  V30 12425 O 1184.85 -1.08048 -1.87496 0
M  V30 12426 C 1185.44 -3.33626 0.589848 0
M  V30 12427 C 1184 -3.7553 0.25572 0
M  V30 12428 C 1183.15 -2.63571 0.861733 0
M  V30 12429 H 1186.1 -1.29623 0.915621 0
M  V30 12430 H 1186.12 -3.80225 -0.14459 0
M  V30 12431 H 1185.63 -3.5097 1.65655 0
M  V30 12432 H 1183.73 -3.63781 -0.805883 0
M  V30 12433 H 1183.84 -4.73577 0.725388 0
M  V30 12434 H 1182.21 -2.53047 0.289706 0
M  V30 12435 H 1182.99 -2.83727 1.93272 0
M  V30 12436 N 1185.44 -0.462799 -1.50652 0
M  V30 12437 C 1186.37 0.325724 -2.31217 0
M  V30 12438 C 1187.35 0.997942 -1.3775 0
M  V30 12439 O 1188.53 0.996707 -1.66671 0
M  V30 12440 C 1185.66 1.41283 -3.17264 0
M  V30 12441 C 1184.62 0.862687 -4.19216 0
M  V30 12442 C 1183.94 2.04746 -4.93946 0
M  V30 12443 C 1185.24 -0.120365 -5.22161 0
M  V30 12444 H 1186.94 -0.346666 -2.97386 0
M  V30 12445 H 1184.48 -0.168163 -1.43015 0
M  V30 12446 H 1186.44 1.97188 -3.72418 0
M  V30 12447 H 1185.16 2.11387 -2.48964 0
M  V30 12448 H 1183.82 0.325671 -3.65151 0
M  V30 12449 H 1183.47 2.73529 -4.22127 0
M  V30 12450 H 1183.17 1.68562 -5.62904 0
M  V30 12451 H 1184.69 2.61157 -5.51932 0
M  V30 12452 H 1186.1 0.349226 -5.72235 0
M  V30 12453 H 1184.5 -0.396061 -5.98792 0
M  V30 12454 H 1185.57 -1.04895 -4.73418 0
M  V30 12455 N 1186.91 1.56388 -0.195085 0
M  V30 12456 C 1188.33 1.8398 0.317513 0
M  V30 12457 C 1188.68 1.11575 1.61386 0
M  V30 12458 O 1187.8 0.376557 2.13099 0
M  V30 12459 C 1188.4 3.33749 0.582859 0
M  V30 12460 C 1186.96 3.61752 1.03983 0
M  V30 12461 C 1186.1 2.77159 0.088434 0
M  V30 12462 H 1189.05 1.53072 -0.418871 0
M  V30 12463 H 1189.07 3.52519 1.43216 0
M  V30 12464 H 1188.59 3.86419 -0.360813 0
M  V30 12465 H 1186.69 3.14515 1.99778 0
M  V30 12466 H 1186.8 4.69937 0.932549 0
M  V30 12467 H 1185.16 2.47765 0.590317 0
M  V30 12468 H 1185.95 3.32619 -0.849682 0
M  V30 12469 N 1188.39 -0.0785156 1.57404 0
M  V30 12470 C 1189.8 -0.631132 1.75709 0
M  V30 12471 C 1190.15 -1.78261 0.819605 0
M  V30 12472 O 1189.28 -2.164 0.00206912 0
M  V30 12473 C 1189.87 -1.15168 3.18625 0
M  V30 12474 C 1188.43 -1.65021 3.38297 0
M  V30 12475 C 1187.58 -0.566773 2.71446 0
M  V30 12476 H 1190.53 0.147631 1.58012 0
M  V30 12477 H 1190.55 -2.02065 3.22413 0
M  V30 12478 H 1190.06 -0.313399 3.86833 0
M  V30 12479 H 1188.17 -2.51196 2.75194 0
M  V30 12480 H 1188.28 -1.73179 4.46706 0
M  V30 12481 H 1186.64 -1.01021 2.33809 0
M  V30 12482 H 1187.43 0.261204 3.42305 0
M  V30 12483 N 1189.87 -1.5367 -0.349747 0
M  V30 12484 C 1191.29 -1.43796 -0.692457 0
M  V30 12485 C 1191.49 -0.58972 -1.92677 0
M  V30 12486 O 1190.54 -0.078294 -2.52379 0
M  V30 12487 C 1191.86 -2.872 -0.890881 0
M  V30 12488 C 1193.4 -2.96935 -0.989892 0
M  V30 12489 C 1193.88 -4.41433 -1.22068 0
M  V30 12490 N 1195.37 -4.44932 -1.28802 0
M  V30 12491 C 1196.1 -5.53864 -1.48398 0
M  V30 12492 N 1195.6 -6.72814 -1.65208 0
M  V30 12493 N 1197.39 -5.41467 -1.50896 0
M  V30 12494 H 1189.54 -2.07317 0.461895 0
M  V30 12495 H 1191.81 -0.936895 0.144681 0
M  V30 12496 H 1191.51 -3.51656 -0.0555095 0
M  V30 12497 H 1191.39 -3.31784 -1.79442 0
M  V30 12498 H 1193.77 -2.32622 -1.81579 0
M  V30 12499 H 1193.86 -2.55721 -0.0633906 0
M  V30 12500 H 1193.5 -5.06325 -0.399729 0
M  V30 12501 H 1193.43 -4.80233 -2.16064 0
M  V30 12502 H 1195.92 -3.59214 -1.17361 0
M  V30 12503 H 1196.23 -7.51598 -1.79779 0
M  V30 12504 H 1194.58 -6.7577 -1.62356 0
M  V30 12505 H 1197.77 -4.47498 -1.37342 0
M  V30 12506 H 1197.94 -6.26423 -1.65826 0
M  V30 12507 N 1191.35 0.610423 -1.45298 0
M  V30 12508 C 1192.28 1.73207 -1.56594 0
M  V30 12509 C 1193.26 1.64893 -0.417651 0
M  V30 12510 O 1194.44 1.83336 -0.64043 0
M  V30 12511 C 1191.57 3.11803 -1.52959 0
M  V30 12512 C 1190.53 3.34925 -2.66475 0
M  V30 12513 C 1189.85 4.73764 -2.47894 0
M  V30 12514 C 1191.15 3.25456 -4.08504 0
M  V30 12515 H 1192.85 1.6401 -2.50482 0
M  V30 12516 H 1190.39 0.787621 -1.20551 0
M  V30 12517 H 1192.35 3.90065 -1.59458 0
M  V30 12518 H 1191.07 3.21833 -0.55599 0
M  V30 12519 H 1189.73 2.59051 -2.59399 0
M  V30 12520 H 1189.38 4.80524 -1.4868 0
M  V30 12521 H 1189.08 4.90191 -3.24016 0
M  V30 12522 H 1190.6 5.54231 -2.56243 0
M  V30 12523 H 1192.02 3.93597 -4.16839 0
M  V30 12524 H 1190.41 3.53414 -4.84994 0
M  V30 12525 H 1191.48 2.22939 -4.30612 0
M  V30 12526 N 1192.83 1.32541 0.852676 0
M  V30 12527 C 1194.05 1.2636 1.64462 0
M  V30 12528 C 1194.48 -0.16508 1.87374 0
M  V30 12529 O 1193.83 -1.11712 1.42794 0
M  V30 12530 C 1193.88 2.03052 2.97997 0
M  V30 12531 O 1192.99 1.37967 3.88637 0
M  V30 12532 H 1192.33 0.435393 0.501327 0
M  V30 12533 H 1194.86 1.74888 1.06186 0
M  V30 12534 H 1194.87 2.133 3.47803 0
M  V30 12535 H 1193.54 3.06941 2.80642 0
M  V30 12536 H 1192.12 1.36279 3.47106 0
M  V30 12537 N 1194.3 -1.0692 1.15784 0
M  V30 12538 C 1195.53 -1.83849 0.959903 0
M  V30 12539 C 1195.95 -1.8169 -0.486873 0
M  V30 12540 O 1195.31 -1.21305 -1.34739 0
M  V30 12541 C 1195.36 -3.28642 1.48414 0
M  V30 12542 O 1194.46 -4.0665 0.686249 0
M  V30 12543 H 1193.81 -0.569115 0.342059 0
M  V30 12544 H 1196.34 -1.34851 1.53871 0
M  V30 12545 H 1196.35 -3.7947 1.49888 0
M  V30 12546 H 1195.02 -3.29529 2.53739 0
M  V30 12547 H 1193.6 -3.65453 0.741501 0
M  V30 12548 N 1195.78 -0.955326 -1.25345 0
M  V30 12549 C 1197.01 -0.627233 -1.97688 0
M  V30 12550 C 1197.43 0.793973 -1.70522 0
M  V30 12551 O 1196.79 1.537 -0.961556 0
M  V30 12552 C 1196.84 -0.892969 -3.49369 0
M  V30 12553 O 1195.94 0.0278871 -4.12391 0
M  V30 12554 H 1195.28 -0.238402 -0.619726 0
M  V30 12555 H 1197.81 -1.28211 -1.59446 0
M  V30 12556 H 1197.82 -0.819517 -3.99685 0
M  V30 12557 H 1196.5 -1.92879 -3.6847 0
M  V30 12558 H 1195.08 -0.0978295 -3.72772 0
M  V30 12559 N 1197.26 1.39987 -0.723979 0
M  V30 12560 C 1198.67 1.83606 -0.338461 0
M  V30 12561 C 1199.02 1.6051 1.12831 0
M  V30 12562 O 1198.15 1.09041 1.8692 0
M  V30 12563 C 1198.74 3.33308 -0.607533 0
M  V30 12564 C 1197.3 3.75389 -0.275632 0
M  V30 12565 C 1196.45 2.6311 -0.875699 0
M  V30 12566 H 1199.4 1.29135 -0.922483 0
M  V30 12567 H 1199.42 3.80297 0.124424 0
M  V30 12568 H 1198.93 3.50087 -1.67514 0
M  V30 12569 H 1197.03 3.64203 0.786579 0
M  V30 12570 H 1197.15 4.73185 -0.750492 0
M  V30 12571 H 1195.51 2.5289 -0.303122 0
M  V30 12572 H 1196.29 2.82698 -1.94774 0
M  V30 12573 N 1198.74 0.470782 1.50404 0
M  V30 12574 C 1199.99 -0.0841494 2.01925 0
M  V30 12575 C 1200.31 -1.40244 1.35487 0
M  V30 12576 O 1199.58 -1.89409 0.500111 0
M  V30 12577 H 1198.16 -0.0340884 0.746222 0
M  V30 12578 H 1200.82 0.621133 1.84738 0
M  V30 12579 H 1199.92 -0.235877 3.11207 0
M  V30 12580 N 1200.22 -1.56282 0.203376 0
M  V30 12581 C 1201.16 -2.19473 -0.714164 0
M  V30 12582 C 1202.13 -1.14454 -1.20372 0
M  V30 12583 O 1203.32 -1.42739 -1.26611 0
M  V30 12584 C 1200.46 -2.86451 -1.92457 0
M  V30 12585 C 1199.57 -4.06017 -1.47561 0
M  V30 12586 C 1198.71 -4.60829 -2.64216 0
M  V30 12587 C 1197.75 -5.72734 -2.15967 0
M  V30 12588 N 1196.88 -6.21916 -3.25829 0
M  V30 12589 H 1201.72 -2.97523 -0.168558 0
M  V30 12590 H 1199.26 -1.46926 -0.0714525 0
M  V30 12591 H 1201.22 -3.23459 -2.63496 0
M  V30 12592 H 1199.85 -2.10951 -2.44335 0
M  V30 12593 H 1198.9 -3.74617 -0.660784 0
M  V30 12594 H 1200.21 -4.8693 -1.08168 0
M  V30 12595 H 1199.37 -5.00185 -3.43366 0
M  V30 12596 H 1198.11 -3.7904 -3.06887 0
M  V30 12597 H 1197.11 -5.32899 -1.35273 0
M  V30 12598 H 1198.34 -6.56346 -1.74316 0
M  V30 12599 H 1196.28 -5.43047 -3.68016 0
M  V30 12600 H 1196.2 -6.97904 -2.90631 0
M  V30 12601 H 1197.47 -6.65927 -4.05168 0
M  V30 12602 N 1201.7 0.070167 -1.57444 0
M  V30 12603 C 1202.92 0.781894 -1.91557 0
M  V30 12604 C 1203.34 1.71037 -0.799489 0
M  V30 12605 O 1202.7 1.81082 0.227062 0
M  V30 12606 C 1202.75 1.57415 -3.25427 0
M  V30 12607 O 1202.47 0.682991 -4.32743 0
M  V30 12608 C 1203.97 2.38673 -3.73564 0
M  V30 12609 H 1201.19 0.222211 -0.633138 0
M  V30 12610 H 1203.73 0.0399504 -2.04461 0
M  V30 12611 H 1201.89 2.26835 -3.14045 0
M  V30 12612 H 1202.3 1.2342 -5.09772 0
M  V30 12613 H 1203.78 2.89716 -4.6986 0
M  V30 12614 H 1204.25 3.18269 -3.02657 0
M  V30 12615 H 1204.86 1.74405 -3.87896 0
M  V30 12616 N 1203.17 1.53854 0.341593 0
M  V30 12617 C 1204.11 1.76797 1.44284 0
M  V30 12618 C 1205.08 0.617157 1.50432 0
M  V30 12619 O 1206.27 0.85254 1.68119 0
M  V30 12620 C 1203.4 1.86837 2.82506 0
M  V30 12621 C 1202.44 3.09001 2.93974 0
M  V30 12622 S 1203.27 4.68012 2.60241 0
M  V30 12623 C 1204.43 4.80933 4.00567 0
M  V30 12624 H 1204.66 2.69927 1.24606 0
M  V30 12625 H 1202.2 1.44747 0.537375 0
M  V30 12626 H 1204.15 1.93306 3.62137 0
M  V30 12627 H 1202.82 0.947162 2.99479 0
M  V30 12628 H 1202.01 3.12707 3.9526 0
M  V30 12629 H 1201.61 3.00768 2.22294 0
M  V30 12630 H 1203.9 4.62462 4.95111 0
M  V30 12631 H 1204.85 5.83025 4.01855 0
M  V30 12632 H 1205.25 4.09372 3.88684 0
M  V30 12633 N 1204.65 -0.602709 1.4562 0
M  V30 12634 C 1206.06 -1.1847 1.44297 0
M  V30 12635 C 1206.41 -1.95434 0.17316 0
M  V30 12636 O 1205.54 -2.03894 -0.724986 0
M  V30 12637 C 1206.13 -2.15508 2.61422 0
M  V30 12638 C 1204.69 -2.69073 2.63204 0
M  V30 12639 C 1203.84 -1.44568 2.36633 0
M  V30 12640 H 1206.79 -0.391745 1.53789 0
M  V30 12641 H 1206.81 -2.98628 2.35799 0
M  V30 12642 H 1206.32 -1.59464 3.53826 0
M  V30 12643 H 1204.42 -3.29042 1.7482 0
M  V30 12644 H 1204.54 -3.13173 3.62573 0
M  V30 12645 H 1202.9 -1.73692 1.86287 0
M  V30 12646 H 1203.68 -0.903852 3.31188 0
M  V30 12647 N 1206.13 -1.32992 -0.845635 0
M  V30 12648 C 1207.36 -1.27087 -1.63268 0
M  V30 12649 C 1207.77 0.159481 -1.88125 0
M  V30 12650 O 1207.13 1.09948 -1.45663 0
M  V30 12651 C 1207.18 -2.03649 -2.98679 0
M  V30 12652 O 1206.9 -3.41104 -2.74918 0
M  V30 12653 C 1208.4 -2.04875 -3.93117 0
M  V30 12654 H 1205.62 -0.438107 -0.508236 0
M  V30 12655 H 1208.17 -1.75257 -1.05381 0
M  V30 12656 H 1206.32 -1.59178 -3.53187 0
M  V30 12657 H 1206.74 -3.80405 -3.61099 0
M  V30 12658 H 1208.21 -2.62911 -4.85368 0
M  V30 12659 H 1208.69 -1.03728 -4.26775 0
M  V30 12660 H 1209.29 -2.49334 -3.44547 0
M  V30 12661 N 1207.61 1.06304 -1.1635 0
M  V30 12662 C 1208.84 1.82799 -0.96913 0
M  V30 12663 C 1209.25 1.82526 0.482659 0
M  V30 12664 O 1208.61 1.24437 1.33498 0
M  V30 12665 C 1208.66 3.29417 -1.48884 0
M  V30 12666 O 1208.38 3.29803 -2.88377 0
M  V30 12667 C 1209.88 4.22642 -1.33748 0
M  V30 12668 H 1207.1 0.576388 -0.343537 0
M  V30 12669 H 1209.64 1.34122 -1.54375 0
M  V30 12670 H 1207.8 3.75406 -0.956509 0
M  V30 12671 H 1208.21 4.21486 -3.1217 0
M  V30 12672 H 1209.69 5.23545 -1.74942 0
M  V30 12673 H 1210.16 4.38287 -0.283021 0
M  V30 12674 H 1210.77 3.82499 -1.85942 0
M  V30 12675 N 1209.09 0.96196 1.24836 0
M  V30 12676 C 1210.02 0.445329 2.24832 0
M  V30 12677 C 1211.03 -0.442797 1.56663 0
M  V30 12678 O 1212.22 -0.249896 1.76742 0
M  V30 12679 C 1209.32 -0.376953 3.36797 0
M  V30 12680 C 1208.49 0.499908 4.34534 0
M  V30 12681 C 1207.55 -0.265402 5.2553 0
M  V30 12682 O 1206.58 0.338707 5.68191 0
M  V30 12683 N 1207.78 -1.55654 5.59243 0
M  V30 12684 H 1210.54 1.30505 2.69793 0
M  V30 12685 H 1208.11 0.833137 1.38818 0
M  V30 12686 H 1210.1 -0.896831 3.94638 0
M  V30 12687 H 1208.67 -1.13757 2.91167 0
M  V30 12688 H 1207.89 1.20082 3.75465 0
M  V30 12689 H 1209.18 1.09814 4.96808 0
M  V30 12690 H 1208.57 -2.06916 5.265 0
M  V30 12691 H 1207.13 -2.02223 6.19636 0
M  V30 12692 N 1210.56 -1.39601 0.731392 0
M  V30 12693 C 1211.79 -2.05411 0.286532 0
M  V30 12694 C 1212.21 -1.54777 -1.06892 0
M  V30 12695 O 1211.57 -0.689942 -1.67659 0
M  V30 12696 C 1211.62 -3.594 0.293914 0
M  V30 12697 O 1210.72 -4.06072 -0.719657 0
M  V30 12698 H 1210.06 -0.650949 0.131004 0
M  V30 12699 H 1212.59 -1.78703 0.996305 0
M  V30 12700 H 1212.6 -4.0777 0.137052 0
M  V30 12701 H 1211.28 -3.95617 1.28298 0
M  V30 12702 H 1209.86 -3.69125 -0.529226 0
M  V30 12703 N 1212.04 -0.478751 -1.50152 0
M  V30 12704 C 1213.29 0.073585 -2.02366 0
M  V30 12705 C 1213.62 1.3903 -1.36018 0
M  V30 12706 O 1212.87 1.89787 -0.477435 0
M  V30 12707 C 1213.17 0.297535 -3.56159 0
M  V30 12708 C 1212.84 -0.938419 -4.41027 0
M  V30 12709 C 1211.5 -1.27727 -4.63939 0
M  V30 12710 C 1213.85 -1.76098 -4.9055 0
M  V30 12711 C 1211.18 -2.4386 -5.33619 0
M  V30 12712 C 1213.53 -2.91366 -5.61506 0
M  V30 12713 C 1212.2 -3.25657 -5.8267 0
M  V30 12714 H 1211.47 0.0269267 -0.740511 0
M  V30 12715 H 1214.11 -0.63439 -1.80687 0
M  V30 12716 H 1212.42 1.08783 -3.76395 0
M  V30 12717 H 1214.11 0.73899 -3.94132 0
M  V30 12718 H 1210.7 -0.664441 -4.23418 0
M  V30 12719 H 1214.89 -1.51237 -4.72696 0
M  V30 12720 H 1210.14 -2.70692 -5.48211 0
M  V30 12721 H 1214.32 -3.55445 -5.98859 0
M  V30 12722 H 1211.95 -4.15751 -6.36439 0
M  V30 12723 N 1213.52 1.56172 -0.211661 0
M  V30 12724 C 1214.48 2.18602 0.688906 0
M  V30 12725 C 1215.48 1.14508 1.12892 0
M  V30 12726 O 1216.67 1.39799 1.03932 0
M  V30 12727 C 1213.81 2.80141 1.94253 0
M  V30 12728 H 1215 2.9955 0.144765 0
M  V30 12729 H 1212.55 1.56254 0.0379615 0
M  V30 12730 H 1213.29 2.03035 2.52878 0
M  V30 12731 H 1213.07 3.56358 1.63558 0
M  V30 12732 H 1214.56 3.28026 2.58436 0
M  V30 12733 N 1215 -0.0618163 1.57479 0
M  V30 12734 C 1216.22 -0.775513 1.92355 0
M  V30 12735 C 1216.65 -1.69816 0.808949 0
M  V30 12736 O 1216.01 -1.79736 -0.23761 0
M  V30 12737 C 1216.05 -1.5367 3.26218 0
M  V30 12738 O 1215.16 -2.64802 3.16155 0
M  V30 12739 H 1214.5 -0.210909 0.629614 0
M  V30 12740 H 1217.03 -0.0270752 2.04582 0
M  V30 12741 H 1217.04 -1.91379 3.6033 0
M  V30 12742 H 1215.71 -0.859798 4.06916 0
M  V30 12743 H 1214.29 -2.29876 2.93618 0
M  V30 12744 N 1216.48 -1.54033 -0.333429 0
M  V30 12745 C 1217.75 -1.62404 -1.09015 0
M  V30 12746 C 1218.13 -0.451653 -2.06212 0
M  V30 12747 O 1217.48 0.555086 -2.21655 0
M  V30 12748 C 1217.69 -2.98949 -1.80085 0
M  V30 12749 C 1219.04 -3.54655 -2.33464 0
M  V30 12750 O 1220.06 -3.0119 -1.90166 0
M  V30 12751 O 1218.92 -4.48195 -3.12703 0
M  V30 12752 H 1216.02 -0.65727 -0.501921 0
M  V30 12753 H 1218.56 -1.66378 -0.33411 0
M  V30 12754 H 1217.33 -3.75716 -1.09332 0
M  V30 12755 H 1216.96 -2.98609 -2.62523 0
M  V30 12756 N 1217.95 0.594978 -1.45938 0
M  V30 12757 C 1219.37 1.17703 -1.44924 0
M  V30 12758 C 1219.72 1.9534 -0.183522 0
M  V30 12759 O 1218.84 2.04276 0.714163 0
M  V30 12760 C 1219.44 2.14119 -2.62561 0
M  V30 12761 C 1218 2.67674 -2.64627 0
M  V30 12762 C 1217.14 1.43312 -2.37397 0
M  V30 12763 H 1220.09 0.383583 -1.53995 0
M  V30 12764 H 1220.11 2.97374 -2.3738 0
M  V30 12765 H 1219.63 1.57586 -3.54667 0
M  V30 12766 H 1217.73 3.28111 -1.76562 0
M  V30 12767 H 1217.84 3.11246 -3.64229 0
M  V30 12768 H 1216.2 1.72702 -1.87206 0
M  V30 12769 H 1216.99 0.886276 -3.31663 0
M  V30 12770 N 1219.43 1.33438 0.838571 0
M  V30 12771 C 1220.38 1.23717 1.94841 0
M  V30 12772 C 1221.35 0.11573 1.65696 0
M  V30 12773 O 1222.53 0.294051 1.8852 0
M  V30 12774 C 1219.67 0.982626 3.30815 0
M  V30 12775 C 1218.79 2.19036 3.72354 0
M  V30 12776 C 1217.92 1.86995 4.97199 0
M  V30 12777 C 1216.96 3.03998 5.31274 0
M  V30 12778 N 1216.1 2.71943 6.47295 0
M  V30 12779 H 1220.94 2.18639 2.02487 0
M  V30 12780 H 1218.48 1.08721 0.990861 0
M  V30 12781 H 1220.43 0.81548 4.09152 0
M  V30 12782 H 1219.06 0.0701443 3.22724 0
M  V30 12783 H 1218.12 2.46724 2.89537 0
M  V30 12784 H 1219.43 3.06505 3.93518 0
M  V30 12785 H 1218.58 1.66925 5.83285 0
M  V30 12786 H 1217.32 0.967628 4.78004 0
M  V30 12787 H 1216.33 3.24681 4.43692 0
M  V30 12788 H 1217.55 3.94985 5.52416 0
M  V30 12789 H 1215.5 1.8427 6.29588 0
M  V30 12790 H 1215.41 3.52943 6.68556 0
M  V30 12791 H 1216.68 2.55342 7.36492 0
M  V30 12792 N 1220.91 -1.05686 1.16912 0
M  V30 12793 C 1222.14 -1.82018 0.977392 0
M  V30 12794 C 1222.55 -1.83072 -0.477636 0
M  V30 12795 O 1221.89 -1.25296 -1.34338 0
M  V30 12796 C 1221.95 -3.29592 1.4356 0
M  V30 12797 C 1221.62 -3.5223 2.91175 0
M  V30 12798 C 1222.61 -3.44767 3.89142 0
M  V30 12799 C 1220.3 -3.79353 3.29236 0
M  V30 12800 C 1222.29 -3.64104 5.2317 0
M  V30 12801 C 1219.98 -3.98339 4.63432 0
M  V30 12802 C 1220.98 -3.90713 5.60207 0
M  V30 12803 O 1220.67 -4.09175 6.91976 0
M  V30 12804 H 1220.4 -0.580578 0.346273 0
M  V30 12805 H 1222.95 -1.34199 1.55498 0
M  V30 12806 H 1221.18 -3.78302 0.80153 0
M  V30 12807 H 1222.87 -3.87435 1.21032 0
M  V30 12808 H 1223.64 -3.23796 3.61083 0
M  V30 12809 H 1219.52 -3.84395 2.54482 0
M  V30 12810 H 1223.06 -3.58068 5.98693 0
M  V30 12811 H 1218.96 -4.18801 4.91198 0
M  V30 12812 H 1219.73 -4.26429 6.98642 0
M  V30 12813 N 1222.39 -0.968567 -1.24324 0
M  V30 12814 C 1223.35 -0.504307 -2.23583 0
M  V30 12815 C 1224.35 0.399626 -1.55755 0
M  V30 12816 O 1225.54 0.194966 -1.73106 0
M  V30 12817 C 1222.67 0.26956 -3.39833 0
M  V30 12818 H 1223.87 -1.3818 -2.6617 0
M  V30 12819 H 1221.42 -0.753241 -1.36952 0
M  V30 12820 H 1222.15 1.16411 -3.02686 0
M  V30 12821 H 1221.94 -0.379133 -3.90263 0
M  V30 12822 H 1223.43 0.583376 -4.13505 0
M  V30 12823 N 1223.87 1.39211 -0.738786 0
M  V30 12824 C 1225.09 2.04732 -0.298751 0
M  V30 12825 C 1225.51 1.55706 1.06776 0
M  V30 12826 O 1224.87 0.723605 1.67542 0
M  V30 12827 C 1224.92 3.60288 -0.29574 0
M  V30 12828 O 1224.64 4.07511 -1.60831 0
M  V30 12829 C 1226.14 4.43011 0.159994 0
M  V30 12830 H 1223.36 0.658296 -0.129952 0
M  V30 12831 H 1225.9 1.78186 -1.0035 0
M  V30 12832 H 1224.06 3.85722 0.360146 0
M  V30 12833 H 1224.47 5.01858 -1.52443 0
M  V30 12834 H 1225.95 5.51889 0.110941 0
M  V30 12835 H 1226.42 4.22325 1.20573 0
M  V30 12836 H 1227.03 4.22734 -0.466467 0
M  V30 12837 N 1225.34 0.486708 1.49896 0
M  V30 12838 C 1226.76 0.0353906 1.86666 0
M  V30 12839 C 1227.11 -1.3743 1.40026 0
M  V30 12840 O 1226.23 -2.02163 0.77194 0
M  V30 12841 C 1226.83 0.0574475 3.38751 0
M  V30 12842 C 1225.39 -0.338464 3.74875 0
M  V30 12843 C 1224.53 0.436196 2.73848 0
M  V30 12844 H 1227.48 0.700215 1.42417 0
M  V30 12845 H 1227.5 -0.741175 3.73212 0
M  V30 12846 H 1227.02 1.08356 3.72667 0
M  V30 12847 H 1225.12 -1.36835 3.46565 0
M  V30 12848 H 1225.23 -0.0289519 4.79091 0
M  V30 12849 H 1223.59 -0.112141 2.54453 0
M  V30 12850 H 1224.38 1.46212 3.10608 0
M  V30 12851 N 1226.82 -1.56058 0.219941 0
M  V30 12852 C 1227.76 -2.17494 -0.723133 0
M  V30 12853 C 1228.77 -1.14356 -1.15873 0
M  V30 12854 O 1229.96 -1.41343 -1.09016 0
M  V30 12855 C 1227.06 -2.74242 -1.99109 0
M  V30 12856 C 1226.23 -4.02533 -1.71132 0
M  V30 12857 C 1225.29 -4.43862 -2.82618 0
M  V30 12858 O 1224.32 -5.10792 -2.51157 0
M  V30 12859 N 1225.52 -4.09412 -4.11537 0
M  V30 12860 H 1228.28 -2.99048 -0.197619 0
M  V30 12861 H 1225.84 -1.61853 0.0388738 0
M  V30 12862 H 1227.84 -2.98862 -2.7288 0
M  V30 12863 H 1226.41 -1.97 -2.42713 0
M  V30 12864 H 1225.63 -3.85786 -0.810128 0
M  V30 12865 H 1226.91 -4.86227 -1.49868 0
M  V30 12866 H 1226.31 -3.55624 -4.39941 0
M  V30 12867 H 1224.87 -4.38928 -4.81857 0
M  V30 12868 N 1228.3 0.053464 -1.57509 0
M  V30 12869 C 1229.55 0.750212 -1.88414 0
M  V30 12870 C 1229.88 1.76288 -0.814619 0
M  V30 12871 O 1229.16 1.93728 0.173136 0
M  V30 12872 C 1229.44 1.44176 -3.29978 0
M  V30 12873 C 1229.29 0.444263 -4.47601 0
M  V30 12874 C 1230.61 2.38207 -3.70061 0
M  V30 12875 H 1227.73 0.271266 -0.685262 0
M  V30 12876 H 1230.37 0.0131676 -1.89995 0
M  V30 12877 H 1228.52 2.07001 -3.2876 0
M  V30 12878 H 1230.19 -0.180182 -4.60948 0
M  V30 12879 H 1228.44 -0.238771 -4.33142 0
M  V30 12880 H 1229.11 0.966134 -5.43479 0
M  V30 12881 H 1231.58 1.85446 -3.7249 0
M  V30 12882 H 1230.46 2.83588 -4.69967 0
M  V30 12883 H 1230.72 3.23821 -3.00985 0
M  V30 12884 N 1229.78 1.54207 0.325255 0
M  V30 12885 C 1231.03 1.71544 1.06091 0
M  V30 12886 C 1231.34 0.495137 1.89229 0
M  V30 12887 O 1232.55 0.54982 2.65874 0
M  V30 12888 C 1231 3.03412 1.93569 0
M  V30 12889 C 1230.61 4.32842 1.1555 0
M  V30 12890 C 1232.36 3.30113 2.66881 0
M  V30 12891 C 1230.26 5.55773 2.02164 0
M  V30 12892 H 1229.19 0.639281 0.399795 0
M  V30 12893 H 1231.84 1.80701 0.319261 0
M  V30 12894 H 1230.23 2.88158 2.71626 0
M  V30 12895 H 1231.4 4.58857 0.42276 0
M  V30 12896 H 1229.71 4.12893 0.539277 0
M  V30 12897 H 1232.31 4.19151 3.31988 0
M  V30 12898 H 1232.65 2.47918 3.34428 0
M  V30 12899 H 1233.19 3.46227 1.95887 0
M  V30 12900 H 1229.93 6.40565 1.39128 0
M  V30 12901 H 1229.45 5.3398 2.73177 0
M  V30 12902 H 1231.13 5.92113 2.60789 0
M  V30 12903 N 1231.26 -0.58723 1.46251 0
M  V30 12904 C 1232.19 -1.71103 1.52501 0
M  V30 12905 C 1233.2 -1.57454 0.413772 0
M  V30 12906 O 1234.39 -1.64962 0.681902 0
M  V30 12907 C 1231.49 -3.0931 1.38493 0
M  V30 12908 C 1230.66 -3.49005 2.63655 0
M  V30 12909 C 1229.72 -4.66255 2.43911 0
M  V30 12910 O 1228.75 -4.72344 3.17616 0
M  V30 12911 N 1229.95 -5.60843 1.49784 0
M  V30 12912 H 1232.72 -1.66198 2.49396 0
M  V30 12913 H 1230.28 -0.773087 1.4225 0
M  V30 12914 H 1232.27 -3.85535 1.23064 0
M  V30 12915 H 1230.84 -3.08608 0.497963 0
M  V30 12916 H 1230.06 -2.62533 2.94058 0
M  V30 12917 H 1231.35 -3.72291 3.4681 0
M  V30 12918 H 1230.75 -5.58656 0.889972 0
M  V30 12919 H 1229.3 -6.36517 1.4032 0
M  V30 12920 N 1232.74 -1.33881 -0.831482 0
M  V30 12921 C 1233.7 -1.24654 -1.92339 0
M  V30 12922 C 1234.7 -0.163788 -1.59964 0
M  V30 12923 O 1235.89 -0.415829 -1.69164 0
M  V30 12924 C 1233.02 -0.922537 -3.2818 0
M  V30 12925 H 1234.21 -2.21717 -2.01944 0
M  V30 12926 H 1231.77 -1.18046 -1.02445 0
M  V30 12927 H 1232.5 0.0452872 -3.24268 0
M  V30 12928 H 1232.29 -1.70562 -3.53059 0
M  V30 12929 H 1233.78 -0.88292 -4.0816 0
M  V30 12930 N 1234.21 1.05064 -1.1747 0
M  V30 12931 C 1235.62 1.59547 -0.969628 0
M  V30 12932 C 1235.98 1.90153 0.483332 0
M  V30 12933 O 1235.1 1.68415 1.35887 0
M  V30 12934 C 1235.7 2.89877 -1.75377 0
M  V30 12935 C 1234.25 3.41013 -1.59332 0
M  V30 12936 C 1233.4 2.1473 -1.7546 0
M  V30 12937 H 1236.35 0.878595 -1.3216 0
M  V30 12938 H 1236.37 3.59834 -1.23691 0
M  V30 12939 H 1235.89 2.67569 -2.8112 0
M  V30 12940 H 1233.99 3.68355 -0.560827 0
M  V30 12941 H 1234.1 4.15512 -2.38509 0
M  V30 12942 H 1232.46 2.25553 -1.18313 0
M  V30 12943 H 1233.25 1.9489 -2.82618 0
M  V30 12944 N 1235.69 0.975146 1.23809 0
M  V30 12945 C 1236.94 0.639858 1.91704 0
M  V30 12946 C 1237.26 -0.828557 1.76522 0
M  V30 12947 O 1236.53 -1.59217 1.14135 0
M  V30 12948 H 1235.11 0.233667 0.709513 0
M  V30 12949 H 1237.77 1.23782 1.50545 0
M  V30 12950 H 1236.87 0.886915 2.99233 0
M  V30 12951 N 1237.17 -1.38817 0.746158 0
M  V30 12952 C 1238.58 -1.83045 0.367629 0
M  V30 12953 C 1238.93 -1.62285 -1.10263 0
M  V30 12954 O 1238.06 -1.12001 -1.85162 0
M  V30 12955 C 1238.65 -3.323 0.660482 0
M  V30 12956 C 1237.21 -3.74903 0.335318 0
M  V30 12957 C 1236.36 -2.61683 0.917446 0
M  V30 12958 H 1239.31 -1.27651 0.94291 0
M  V30 12959 H 1239.33 -3.80446 -0.0639061 0
M  V30 12960 H 1238.84 -3.47377 1.73062 0
M  V30 12961 H 1236.94 -3.65408 -0.728538 0
M  V30 12962 H 1237.06 -4.71932 0.825677 0
M  V30 12963 H 1235.42 -2.52376 0.343316 0
M  V30 12964 H 1236.2 -2.79563 1.99247 0
M  V30 12965 N 1238.65 -0.49465 -1.49636 0
M  V30 12966 C 1240.06 -0.150217 -1.58892 0
M  V30 12967 C 1240.26 1.34485 -1.50053 0
M  V30 12968 O 1239.32 2.12026 -1.37118 0
M  V30 12969 C 1240.63 -0.721372 -2.91919 0
M  V30 12970 C 1242.18 -0.686908 -3.0537 0
M  V30 12971 C 1242.66 -1.23601 -4.41006 0
M  V30 12972 N 1244.15 -1.19644 -4.47481 0
M  V30 12973 C 1244.88 -1.59157 -5.50869 0
M  V30 12974 N 1244.38 -2.06232 -6.61393 0
M  V30 12975 N 1246.17 -1.50612 -5.41546 0
M  V30 12976 H 1238.32 -1.46675 -1.53624 0
M  V30 12977 H 1240.58 -0.608003 -0.727349 0
M  V30 12978 H 1240.29 -1.76964 -3.03935 0
M  V30 12979 H 1240.16 -0.178199 -3.76779 0
M  V30 12980 H 1242.55 0.352508 -2.92987 0
M  V30 12981 H 1242.63 -1.26716 -2.22209 0
M  V30 12982 H 1242.28 -2.27418 -4.5414 0
M  V30 12983 H 1242.21 -0.631765 -5.22797 0
M  V30 12984 H 1244.7 -0.851443 -3.68183 0
M  V30 12985 H 1245.01 -2.34469 -7.36372 0
M  V30 12986 H 1243.36 -2.10202 -6.6245 0
M  V30 12987 H 1246.55 -1.13659 -4.54092 0
M  V30 12988 H 1246.72 -1.8173 -6.21995 0
M  V30 12989 N 1240.13 1.55939 -0.228214 0
M  V30 12990 C 1241.09 2.1932 0.665681 0
M  V30 12991 C 1242.09 1.15699 1.11671 0
M  V30 12992 O 1243.28 1.40893 1.02444 0
M  V30 12993 C 1240.41 2.82185 1.9127 0
M  V30 12994 H 1241.6 2.99687 0.112986 0
M  V30 12995 H 1239.16 1.56285 0.0213865 0
M  V30 12996 H 1239.89 2.05706 2.5071 0
M  V30 12997 H 1239.68 3.58073 1.5977 0
M  V30 12998 H 1241.17 3.30748 2.54942 0
M  V30 12999 N 1241.6 -0.0451101 1.57535 0
M  V30 13000 C 1242.85 -0.737654 1.88157 0
M  V30 13001 C 1243.17 -1.76743 0.823817 0
M  V30 13002 O 1242.44 -1.95366 -0.144503 0
M  V30 13003 H 1241.02 -0.275431 0.694368 0
M  V30 13004 H 1243.69 -0.0148651 1.94894 0
M  V30 13005 H 1242.78 -1.23726 2.86528 0
M  V30 13006 N 1243.08 -1.54377 -0.317073 0
M  V30 13007 C 1244.49 -1.64062 -0.891105 0
M  V30 13008 C 1244.84 -0.538863 -1.88655 0
M  V30 13009 O 1243.97 0.32718 -2.13912 0
M  V30 13010 C 1244.56 -2.97395 -1.62302 0
M  V30 13011 C 1243.12 -3.09253 -2.14568 0
M  V30 13012 C 1242.27 -2.59664 -0.973146 0
M  V30 13013 H 1245.22 -1.58418 -0.0944829 0
M  V30 13014 H 1245.24 -2.87918 -2.48764 0
M  V30 13015 H 1244.75 -3.77562 -0.898268 0
M  V30 13016 H 1242.86 -2.33774 -2.90139 0
M  V30 13017 H 1242.97 -4.15159 -2.39123 0
M  V30 13018 H 1241.33 -2.15719 -1.35416 0
M  V30 13019 H 1242.12 -3.42294 -0.262611 0
M  V30 13020 N 1244.56 0.579466 -1.4656 0
M  V30 13021 C 1245.8 1.34857 -1.536 0
M  V30 13022 C 1246.16 1.91111 -0.184576 0
M  V30 13023 O 1247.37 2.68487 -0.129731 0
M  V30 13024 C 1245.64 2.44535 -2.60648 0
M  V30 13025 S 1247.2 3.31829 -2.87115 0
M  V30 13026 H 1244.01 0.459405 -0.542649 0
M  V30 13027 H 1246.62 0.665798 -1.83813 0
M  V30 13028 H 1245.32 2.01605 -3.57468 0
M  V30 13029 H 1244.85 3.17581 -2.32177 0
M  V30 13030 H 1246.87 4.43452 -2.22632 0
M  V30 13031 N 1246.04 1.3432 0.824371 0
M  V30 13032 C 1247.29 1.25938 1.57552 0
M  V30 13033 C 1247.6 -0.169298 1.94866 0
M  V30 13034 O 1248.81 -0.375262 2.68894 0
M  V30 13035 C 1247.26 2.20757 2.84244 0
M  V30 13036 C 1246.87 3.68873 2.54237 0
M  V30 13037 C 1248.61 2.21279 3.62265 0
M  V30 13038 C 1246.52 4.55566 3.77113 0
M  V30 13039 H 1245.45 0.467832 0.591311 0
M  V30 13040 H 1248.1 1.59476 0.907724 0
M  V30 13041 H 1246.48 1.80168 3.52641 0
M  V30 13042 H 1247.66 4.17991 1.93959 0
M  V30 13043 H 1245.97 3.70784 1.89494 0
M  V30 13044 H 1248.57 2.83272 4.53499 0
M  V30 13045 H 1248.91 1.2117 3.98276 0
M  V30 13046 H 1249.45 2.60305 3.00809 0
M  V30 13047 H 1246.19 5.56605 3.46223 0
M  V30 13048 H 1245.71 4.11184 4.36678 0
M  V30 13049 H 1247.38 4.701 4.44539 0
M  V30 13050 N 1247.52 -1.0444 1.18026 0
M  V30 13051 C 1248.45 -2.14297 0.927314 0
M  V30 13052 C 1249.43 -1.69575 -0.13357 0
M  V30 13053 O 1250.61 -1.94191 0.0182439 0
M  V30 13054 C 1247.74 -3.44397 0.448134 0
M  V30 13055 C 1246.7 -4.02723 1.44907 0
M  V30 13056 C 1246.02 -5.28257 0.827555 0
M  V30 13057 C 1247.32 -4.39331 2.82463 0
M  V30 13058 H 1249.02 -2.35715 1.84605 0
M  V30 13059 H 1246.56 -1.13281 0.889012 0
M  V30 13060 H 1248.52 -4.20606 0.258554 0
M  V30 13061 H 1247.24 -3.22654 -0.506159 0
M  V30 13062 H 1245.9 -3.28591 1.62552 0
M  V30 13063 H 1245.55 -5.02822 -0.13381 0
M  V30 13064 H 1245.25 -5.68242 1.49581 0
M  V30 13065 H 1246.77 -6.07147 0.64842 0
M  V30 13066 H 1248.18 -5.06543 2.68491 0
M  V30 13067 H 1246.58 -4.90355 3.45936 0
M  V30 13068 H 1247.65 -3.4933 3.36299 0
M  V30 13069 N 1248.99 -0.981699 -1.2329 0
M  V30 13070 C 1250.41 -0.688087 -1.73558 0
M  V30 13071 C 1250.76 0.795633 -1.79344 0
M  V30 13072 O 1249.88 1.62227 -1.43218 0
M  V30 13073 C 1250.48 -1.24235 -3.152 0
M  V30 13074 C 1249.04 -0.998356 -3.62918 0
M  V30 13075 C 1248.18 -1.3693 -2.41134 0
M  V30 13076 H 1251.13 -1.15539 -1.08795 0
M  V30 13077 H 1251.15 -0.61541 -3.7549 0
M  V30 13078 H 1250.67 -2.32223 -3.10957 0
M  V30 13079 H 1248.77 0.0653847 -3.72543 0
M  V30 13080 H 1248.88 -1.65385 -4.49649 0
M  V30 13081 H 1247.24 -0.787773 -2.42211 0
M  V30 13082 H 1248.03 -2.45898 -2.39561 0
M  V30 13083 N 1250.47 1.3842 -0.753509 0
M  V30 13084 C 1251.72 1.99359 -0.306416 0
M  V30 13085 C 1252.03 1.60492 1.11811 0
M  V30 13086 O 1253.24 2.14401 1.66567 0
M  V30 13087 C 1251.7 3.56453 -0.496895 0
M  V30 13088 C 1251.3 4.04272 -1.9305 0
M  V30 13089 C 1253.05 4.24351 -0.11251 0
M  V30 13090 C 1250.96 5.54007 -2.06955 0
M  V30 13091 H 1249.89 0.745812 -0.110818 0
M  V30 13092 H 1252.54 1.58185 -0.930039 0
M  V30 13093 H 1250.92 3.95515 0.195912 0
M  V30 13094 H 1252.09 3.765 -2.65677 0
M  V30 13095 H 1250.41 3.49098 -2.26979 0
M  V30 13096 H 1253 5.34344 -0.195161 0
M  V30 13097 H 1253.35 4.05668 0.934849 0
M  V30 13098 H 1253.88 3.90528 -0.757168 0
M  V30 13099 H 1250.62 5.77594 -3.09944 0
M  V30 13100 H 1250.14 5.83522 -1.38788 0
M  V30 13101 H 1251.82 6.19704 -1.85945 0
M  V30 13102 N 1251.95 0.502579 1.49372 0
M  V30 13103 C 1253.2 -0.0414423 2.02758 0
M  V30 13104 C 1253.53 -1.36499 1.38136 0
M  V30 13105 O 1252.8 -1.87487 0.517593 0
M  V30 13106 C 1253.09 -0.192333 3.59586 0
M  V30 13107 C 1252.94 1.15445 4.34733 0
M  V30 13108 C 1254.26 -0.932218 4.30114 0
M  V30 13109 H 1251.38 -0.0135869 0.736875 0
M  V30 13110 H 1254.02 0.654296 1.78379 0
M  V30 13111 H 1252.17 -0.78491 3.80488 0
M  V30 13112 H 1253.84 1.78603 4.25322 0
M  V30 13113 H 1252.09 1.74333 3.97228 0
M  V30 13114 H 1252.76 1.00216 5.42827 0
M  V30 13115 H 1255.23 -0.429632 4.13876 0
M  V30 13116 H 1254.11 -1.00664 5.39591 0
M  V30 13117 H 1254.37 -1.9763 3.95468 0
M  V30 13118 N 1253.43 -1.55816 0.23648 0
M  V30 13119 C 1254.84 -1.59159 -0.118601 0
M  V30 13120 C 1255.04 -1.25352 -1.57763 0
M  V30 13121 O 1254.1 -0.995863 -2.32032 0
M  V30 13122 C 1255.41 -2.99885 0.221175 0
M  V30 13123 C 1256.96 -3.12567 0.164624 0
M  V30 13124 C 1257.44 -4.55496 0.478285 0
M  V30 13125 N 1258.93 -4.61215 0.428402 0
M  V30 13126 C 1259.66 -5.69768 0.644398 0
M  V30 13127 N 1259.16 -6.86624 0.922966 0
M  V30 13128 N 1260.95 -5.59143 0.575814 0
M  V30 13129 H 1253.1 -1.76063 1.18809 0
M  V30 13130 H 1255.37 -0.819079 0.477297 0
M  V30 13131 H 1255.07 -3.29326 1.2344 0
M  V30 13132 H 1254.95 -3.74425 -0.456723 0
M  V30 13133 H 1257.33 -2.82914 -0.839263 0
M  V30 13134 H 1257.41 -2.40325 0.876219 0
M  V30 13135 H 1257.06 -4.85868 1.47968 0
M  V30 13136 H 1256.99 -5.25984 -0.254671 0
M  V30 13137 H 1259.48 -3.77251 0.221398 0
M  V30 13138 H 1259.79 -7.6528 1.07548 0
M  V30 13139 H 1258.14 -6.88333 0.960325 0
M  V30 13140 H 1261.33 -4.66727 0.358307 0
M  V30 13141 H 1261.5 -6.43674 0.747548 0
M  V30 13142 N 1254.91 0.036755 -1.57557 0
M  V30 13143 C 1256.18 0.764087 -1.80059 0
M  V30 13144 C 1256.56 1.93983 -0.83269 0
M  V30 13145 O 1255.91 2.28148 0.126815 0
M  V30 13146 C 1256.12 1.20433 -3.27562 0
M  V30 13147 C 1257.47 1.6234 -3.9234 0
M  V30 13148 O 1258.49 1.29911 -3.31665 0
M  V30 13149 O 1257.35 2.22504 -4.99154 0
M  V30 13150 H 1254.45 0.368866 -0.74018 0
M  V30 13151 H 1256.99 0.0141254 -1.69694 0
M  V30 13152 H 1255.76 0.364646 -3.89597 0
M  V30 13153 H 1255.39 2.01454 -3.42786 0
M  V30 13154 N 1256.39 1.54543 0.308881 0
M  V30 13155 C 1257.63 1.73107 1.043 0
M  V30 13156 C 1257.95 0.515481 1.88063 0
M  V30 13157 O 1257.22 -0.47036 1.90169 0
M  V30 13158 H 1255.8 0.638289 0.388068 0
M  V30 13159 H 1258.47 1.9188 0.341769 0
M  V30 13160 H 1257.56 2.61697 1.70063 0
M  V30 13161 N 1257.86 -0.571685 1.46866 0
M  V30 13162 C 1258.81 -1.67992 1.58263 0
M  V30 13163 C 1259.78 -1.60535 0.426345 0
M  V30 13164 O 1260.97 -1.79584 0.644534 0
M  V30 13165 C 1258.11 -3.06327 1.58927 0
M  V30 13166 C 1257.22 -3.24328 2.85369 0
M  V30 13167 C 1256.35 -4.52976 2.77464 0
M  V30 13168 C 1255.39 -4.64359 3.98795 0
M  V30 13169 N 1254.53 -5.84345 3.89211 0
M  V30 13170 H 1259.37 -1.57589 2.52922 0
M  V30 13171 H 1256.91 -0.767883 1.25467 0
M  V30 13172 H 1258.86 -3.86411 1.57296 0
M  V30 13173 H 1257.49 -3.15601 0.677912 0
M  V30 13174 H 1256.55 -2.37774 2.96931 0
M  V30 13175 H 1257.86 -3.28605 3.7526 0
M  V30 13176 H 1257.01 -5.41303 2.74001 0
M  V30 13177 H 1255.75 -4.51155 1.85231 0
M  V30 13178 H 1254.76 -3.74448 4.02578 0
M  V30 13179 H 1255.98 -4.6795 4.92137 0
M  V30 13180 H 1253.93 -5.835 2.99772 0
M  V30 13181 H 1253.84 -5.89938 4.72768 0
M  V30 13182 H 1255.11 -6.75072 3.89741 0
M  V30 13183 N 1259.34 -1.34755 -0.817236 0
M  V30 13184 C 1260.29 -1.26801 -1.92848 0
M  V30 13185 C 1261.26 -0.142077 -1.65491 0
M  V30 13186 O 1262.44 -0.324006 -1.88029 0
M  V30 13187 C 1259.58 -1.03513 -3.2921 0
M  V30 13188 C 1258.7 -2.24932 -3.68822 0
M  V30 13189 C 1257.83 -1.94881 -4.94161 0
M  V30 13190 C 1256.87 -3.12411 -5.2637 0
M  V30 13191 N 1256.01 -2.82207 -6.42887 0
M  V30 13192 H 1260.85 -2.21832 -1.98983 0
M  V30 13193 H 1258.38 -1.10284 -0.973439 0
M  V30 13194 H 1260.34 -0.88047 -4.07803 0
M  V30 13195 H 1258.97 -0.121478 -3.22571 0
M  V30 13196 H 1258.02 -2.51299 -2.85575 0
M  V30 13197 H 1259.34 -3.12726 -3.88592 0
M  V30 13198 H 1258.49 -1.76184 -5.80555 0
M  V30 13199 H 1257.23 -1.04355 -4.76405 0
M  V30 13200 H 1256.23 -3.31698 -4.3847 0
M  V30 13201 H 1257.46 -4.03724 -5.46062 0
M  V30 13202 H 1255.41 -1.94263 -6.26576 0
M  V30 13203 H 1255.32 -3.63534 -6.62857 0
M  V30 13204 H 1256.59 -2.67026 -7.32337 0
M  V30 13205 N 1260.82 1.03812 -1.18578 0
M  V30 13206 C 1262.07 1.77319 -0.984173 0
M  V30 13207 C 1262.4 1.88052 0.484789 0
M  V30 13208 O 1261.67 1.3905 1.35998 0
M  V30 13209 C 1261.96 3.20448 -1.6427 0
M  V30 13210 C 1261.81 3.17643 -3.1847 0
M  V30 13211 C 1263.13 4.18623 -1.35805 0
M  V30 13212 H 1260.25 0.643681 -0.358949 0
M  V30 13213 H 1262.89 1.21249 -1.46283 0
M  V30 13214 H 1261.04 3.68324 -1.23572 0
M  V30 13215 H 1262.71 2.77738 -3.6832 0
M  V30 13216 H 1260.95 2.55606 -3.50497 0
M  V30 13217 H 1261.63 4.18724 -3.59686 0
M  V30 13218 H 1264.1 3.79306 -1.71073 0
M  V30 13219 H 1262.98 5.16982 -1.84446 0
M  V30 13220 H 1263.24 4.41203 -0.281418 0
M  V30 13221 N 1262.3 0.988223 1.22768 0
M  V30 13222 C 1263.52 0.679426 1.95955 0
M  V30 13223 C 1263.95 -0.748483 1.72567 0
M  V30 13224 O 1263.31 -1.51097 1.00197 0
M  V30 13225 C 1263.35 0.985284 3.46878 0
M  V30 13226 O 1262.46 0.0814607 4.1232 0
M  V30 13227 H 1261.8 0.254749 0.613188 0
M  V30 13228 H 1264.33 1.32393 1.55991 0
M  V30 13229 H 1264.34 0.925198 3.97371 0
M  V30 13230 H 1263.01 2.02581 3.63227 0
M  V30 13231 H 1261.59 0.196629 3.72381 0
M  V30 13232 N 1263.78 -1.38018 0.760839 0
M  V30 13233 C 1265 -2.04757 0.330038 0
M  V30 13234 C 1265.43 -1.57009 -1.03585 0
M  V30 13235 O 1264.78 -0.725349 -1.66158 0
M  V30 13236 C 1264.83 -3.58696 0.370082 0
M  V30 13237 O 1263.94 -4.07507 -0.633361 0
M  V30 13238 H 1263.28 -0.648023 0.144782 0
M  V30 13239 H 1265.81 -1.7655 1.03399 0
M  V30 13240 H 1265.82 -4.07387 0.223515 0
M  V30 13241 H 1264.49 -3.92806 1.36661 0
M  V30 13242 H 1263.07 -3.70165 -0.45081 0
M  V30 13243 N 1265.25 -0.510493 -1.49103 0
M  V30 13244 C 1266.48 0.0271718 -2.06882 0
M  V30 13245 C 1266.9 1.2995 -1.36962 0
M  V30 13246 O 1266.25 1.76842 -0.450916 0
M  V30 13247 C 1266.3 0.274956 -3.60453 0
M  V30 13248 O 1266.03 -0.946941 -4.27744 0
M  V30 13249 C 1267.53 0.855197 -4.34973 0
M  V30 13250 H 1264.75 -0.024732 -0.670544 0
M  V30 13251 H 1267.29 -0.710567 -1.91758 0
M  V30 13252 H 1265.45 0.962696 -3.75248 0
M  V30 13253 H 1265.86 -0.715627 -5.19595 0
M  V30 13254 H 1267.33 0.978103 -5.43265 0
M  V30 13255 H 1267.81 1.85535 -3.98087 0
M  V30 13256 H 1268.42 0.204632 -4.24807 0
M  V30 13257 N 1266.73 1.55688 -0.24474 0
M  V30 13258 C 1267.68 2.17946 0.669596 0
M  V30 13259 C 1268.67 1.13468 1.14078 0
M  V30 13260 O 1269.86 1.39385 1.09091 0
M  V30 13261 C 1266.99 2.8808 1.86721 0
M  V30 13262 C 1266.07 3.99811 1.41463 0
M  V30 13263 N 1266.46 5.01261 0.676131 0
M  V30 13264 C 1264.76 4.12327 1.70008 0
M  V30 13265 C 1265.46 5.80017 0.442113 0
M  V30 13266 N 1264.44 5.34216 1.00569 0
M  V30 13267 H 1268.24 2.93739 0.0971953 0
M  V30 13268 H 1265.75 1.62332 -0.0469646 0
M  V30 13269 H 1267.75 3.31109 2.53322 0
M  V30 13270 H 1266.41 2.13789 2.44385 0
M  V30 13271 H 1267.42 5.1687 0.326459 0
M  V30 13272 H 1264.1 3.49206 2.28827 0
M  V30 13273 H 1265.49 6.71739 -0.14729 0
M  V30 13274 N 1268.21 -0.0283989 1.57574 0
M  V30 13275 C 1269.44 -0.729772 1.93282 0
M  V30 13276 C 1269.85 -1.69384 0.842959 0
M  V30 13277 O 1269.19 -1.82722 -0.189286 0
M  V30 13278 C 1269.25 -1.54107 3.24794 0
M  V30 13279 C 1268.92 -0.741709 4.50941 0
M  V30 13280 C 1269.91 -0.0416985 5.19883 0
M  V30 13281 C 1267.6 -0.696053 4.97454 0
M  V30 13282 C 1269.59 0.693261 6.33619 0
M  V30 13283 C 1267.28 0.042651 6.11085 0
M  V30 13284 C 1268.28 0.736067 6.79022 0
M  V30 13285 O 1267.97 1.46278 7.9048 0
M  V30 13286 H 1267.7 -0.210092 0.642524 0
M  V30 13287 H 1270.25 0.0102277 2.05397 0
M  V30 13288 H 1268.48 -2.3249 3.09007 0
M  V30 13289 H 1270.17 -2.12512 3.45823 0
M  V30 13290 H 1270.94 -0.0679975 4.84952 0
M  V30 13291 H 1266.82 -1.22528 4.44419 0
M  V30 13292 H 1270.36 1.23504 6.8658 0
M  V30 13293 H 1266.26 0.0708708 6.45461 0
M  V30 13294 H 1267.02 1.37652 8.06842 0
M  V30 13295 N 1269.69 -1.54705 -0.300681 0
M  V30 13296 C 1270.92 -1.77735 -1.05327 0
M  V30 13297 C 1271.33 -0.53709 -1.81417 0
M  V30 13298 O 1270.67 0.502663 -1.76689 0
M  V30 13299 C 1270.73 -2.93222 -2.07993 0
M  V30 13300 C 1270.39 -4.313 -1.51095 0
M  V30 13301 C 1271.39 -5.11317 -0.94082 0
M  V30 13302 C 1269.08 -4.77901 -1.54648 0
M  V30 13303 C 1271.07 -6.36055 -0.413791 0
M  V30 13304 C 1268.76 -6.02602 -1.01558 0
M  V30 13305 C 1269.76 -6.81515 -0.450209 0
M  V30 13306 O 1269.44 -8.03867 0.0726375 0
M  V30 13307 H 1269.18 -0.596468 -0.318122 0
M  V30 13308 H 1271.73 -2.02475 -0.345404 0
M  V30 13309 H 1269.96 -2.64108 -2.82461 0
M  V30 13310 H 1271.65 -3.03826 -2.69156 0
M  V30 13311 H 1272.41 -4.76458 -0.906268 0
M  V30 13312 H 1268.29 -4.16507 -1.97594 0
M  V30 13313 H 1271.84 -6.97594 0.0281534 0
M  V30 13314 H 1267.73 -6.36948 -1.04728 0
M  V30 13315 H 1268.5 -8.1849 -0.0406321 0
M  V30 13316 N 1271.17 0.563888 -1.47167 0
M  V30 13317 C 1272.1 1.68137 -1.62025 0
M  V30 13318 C 1273.08 1.63481 -0.469899 0
M  V30 13319 O 1274.26 1.81206 -0.698432 0
M  V30 13320 C 1271.39 3.06779 -1.62801 0
M  V30 13321 C 1270.35 3.26278 -2.76996 0
M  V30 13322 C 1269.67 4.65638 -2.62841 0
M  V30 13323 C 1270.97 3.12295 -4.18651 0
M  V30 13324 H 1272.67 1.55958 -2.55573 0
M  V30 13325 H 1270.21 0.74887 -1.22996 0
M  V30 13326 H 1272.17 3.84795 -1.71787 0
M  V30 13327 H 1270.89 3.19901 -0.658097 0
M  V30 13328 H 1269.55 2.50668 -2.67509 0
M  V30 13329 H 1269.2 4.75551 -1.63892 0
M  V30 13330 H 1268.9 4.79635 -3.39447 0
M  V30 13331 H 1270.42 5.45798 -2.73746 0
M  V30 13332 H 1271.83 3.80136 -4.2915 0
M  V30 13333 H 1270.23 3.37805 -4.95992 0
M  V30 13334 H 1271.3 2.09126 -4.37486 0
M  V30 13335 N 1272.64 1.35187 0.810078 0
M  V30 13336 C 1273.57 1.30481 1.93641 0
M  V30 13337 C 1274.56 0.179875 1.69146 0
M  V30 13338 O 1275.74 0.374284 1.90559 0
M  V30 13339 C 1272.87 1.07251 3.30325 0
M  V30 13340 C 1271.82 2.16348 3.69293 0
M  V30 13341 C 1271.15 1.78288 5.04101 0
M  V30 13342 C 1272.45 3.58285 3.80038 0
M  V30 13343 H 1274.14 2.24725 1.97836 0
M  V30 13344 H 1271.69 1.08179 0.950436 0
M  V30 13345 H 1273.64 1.02599 4.08719 0
M  V30 13346 H 1272.37 0.0945203 3.26463 0
M  V30 13347 H 1271.03 2.2009 2.93182 0
M  V30 13348 H 1270.67 0.791163 4.96739 0
M  V30 13349 H 1270.37 2.51315 5.31144 0
M  V30 13350 H 1271.9 1.75155 5.84938 0
M  V30 13351 H 1273.31 3.56884 4.48672 0
M  V30 13352 H 1271.71 4.30044 4.18548 0
M  V30 13353 H 1272.78 3.94691 2.81685 0
M  V30 13354 N 1274.12 -1.03182 1.19127 0
M  V30 13355 C 1275.53 -1.57984 0.994888 0
M  V30 13356 C 1275.88 -1.90898 -0.453019 0
M  V30 13357 O 1275.01 -1.70556 -1.33191 0
M  V30 13358 C 1275.6 -2.8705 1.79966 0
M  V30 13359 C 1274.16 -3.38435 1.64737 0
M  V30 13360 C 1273.31 -2.11912 1.78854 0
M  V30 13361 H 1276.26 -0.857458 1.33542 0
M  V30 13362 H 1276.28 -3.57821 1.294 0
M  V30 13363 H 1275.79 -2.63062 2.85341 0
M  V30 13364 H 1273.9 -3.67416 0.619358 0
M  V30 13365 H 1274.01 -4.11665 2.45089 0
M  V30 13366 H 1272.37 -2.23642 1.21886 0
M  V30 13367 H 1273.16 -1.90369 2.85682 0
M  V30 13368 N 1275.6 -0.99472 -1.22242 0
M  V30 13369 C 1276.51 -0.555502 -2.27928 0
M  V30 13370 C 1277.53 0.396584 -1.6942 0
M  V30 13371 O 1278.7 0.262965 -1.99676 0
M  V30 13372 C 1275.77 0.121121 -3.46488 0
M  V30 13373 C 1274.83 -0.874155 -4.20306 0
M  V30 13374 C 1274.06 -0.229726 -5.33205 0
M  V30 13375 O 1274.28 0.975935 -5.61989 0
M  V30 13376 O 1273.22 -0.935501 -5.94586 0
M  V30 13377 H 1277.04 -1.4348 -2.6767 0
M  V30 13378 H 1274.63 -0.763061 -1.28444 0
M  V30 13379 H 1276.51 0.500043 -4.18423 0
M  V30 13380 H 1275.19 0.974959 -3.08668 0
M  V30 13381 H 1274.09 -1.30404 -3.50636 0
M  V30 13382 H 1275.43 -1.69725 -4.62011 0
M  V30 13383 N 1277.08 1.37613 -0.768148 0
M  V30 13384 C 1278.49 1.53202 -0.44737 0
M  V30 13385 C 1278.69 1.72736 1.03752 0
M  V30 13386 O 1277.75 1.74667 1.8234 0
M  V30 13387 C 1279.06 2.7306 -1.25931 0
M  V30 13388 C 1280.61 2.8692 -1.25084 0
M  V30 13389 C 1281.09 4.09757 -2.04605 0
M  V30 13390 N 1282.58 4.16862 -2.0194 0
M  V30 13391 C 1283.31 5.10936 -2.60254 0
M  V30 13392 N 1282.81 6.1059 -3.27341 0
M  V30 13393 N 1284.6 5.03393 -2.50104 0
M  V30 13394 H 1276.75 1.23184 -1.7303 0
M  V30 13395 H 1279.02 0.599541 -0.73434 0
M  V30 13396 H 1278.72 2.65078 -2.31141 0
M  V30 13397 H 1278.6 3.66646 -0.886036 0
M  V30 13398 H 1280.98 2.94375 -0.206736 0
M  V30 13399 H 1281.06 1.94303 -1.66373 0
M  V30 13400 H 1280.71 4.03063 -3.09035 0
M  V30 13401 H 1280.64 5.01481 -1.60701 0
M  V30 13402 H 1283.13 3.455 -1.53096 0
M  V30 13403 H 1283.44 6.78893 -3.6922 0
M  V30 13404 H 1281.79 6.10879 -3.31439 0
M  V30 13405 H 1284.98 4.24483 -1.9731 0
M  V30 13406 H 1285.15 5.76524 -2.95844 0
M  V30 13407 N 1278.56 0.518393 1.4883 0
M  V30 13408 C 1279.97 0.0749773 1.86549 0
M  V30 13409 C 1280.32 -1.34429 1.4291 0
M  V30 13410 O 1279.44 -2.00481 0.814648 0
M  V30 13411 C 1280.04 0.129289 3.38553 0
M  V30 13412 C 1278.6 -0.258871 3.75509 0
M  V30 13413 C 1277.74 0.494185 2.72861 0
M  V30 13414 H 1280.7 0.730266 1.409 0
M  V30 13415 H 1280.72 -0.661844 3.747 0
M  V30 13416 H 1280.23 1.16237 3.70285 0
M  V30 13417 H 1278.33 -1.29453 3.49389 0
M  V30 13418 H 1278.44 0.0726769 4.79045 0
M  V30 13419 H 1276.81 -0.0581428 2.54634 0
M  V30 13420 H 1277.59 1.52767 3.07436 0
M  V30 13421 N 1280.03 -1.55556 0.252993 0
M  V30 13422 C 1281.26 -2.03945 -0.376965 0
M  V30 13423 C 1281.68 -1.13089 -1.50308 0
M  V30 13424 O 1281.04 -0.125039 -1.80868 0
M  V30 13425 C 1281.09 -3.50284 -0.856363 0
M  V30 13426 O 1280.19 -3.62551 -1.96546 0
M  V30 13427 H 1279.54 -0.659002 -0.081317 0
M  V30 13428 H 1282.07 -2.01024 0.380831 0
M  V30 13429 H 1282.08 -3.91222 -1.15798 0
M  V30 13430 H 1280.75 -4.15887 -0.0323302 0
M  V30 13431 H 1279.33 -3.33511 -1.66808 0
M  V30 13432 N 1281.51 0.0200419 -1.57587 0
M  V30 13433 C 1282.74 0.719511 -1.93666 0
M  V30 13434 C 1283.15 1.68934 -0.85193 0
M  V30 13435 O 1282.49 1.8282 0.179593 0
M  V30 13436 C 1282.56 1.52382 -3.25607 0
M  V30 13437 C 1282.22 0.717784 -4.51328 0
M  V30 13438 C 1283.22 0.0141272 -5.19898 0
M  V30 13439 C 1280.9 0.669662 -4.97816 0
M  V30 13440 C 1282.9 -0.726853 -6.33242 0
M  V30 13441 C 1280.58 -0.0750577 -6.11054 0
M  V30 13442 C 1281.58 -0.772067 -6.78622 0
M  V30 13443 O 1281.27 -1.50468 -7.89693 0
M  V30 13444 H 1281 0.206681 -0.643629 0
M  V30 13445 H 1283.55 -0.0211203 -2.05389 0
M  V30 13446 H 1281.78 2.30848 -3.10236 0
M  V30 13447 H 1283.47 2.10675 -3.46945 0
M  V30 13448 H 1284.24 0.0422784 -4.84982 0
M  V30 13449 H 1280.12 1.20169 -4.45062 0
M  V30 13450 H 1283.66 -1.27143 -6.85916 0
M  V30 13451 H 1279.56 -0.1051 -6.45414 0
M  V30 13452 H 1280.33 -1.41929 -8.06101 0
M  V30 13453 N 1282.99 1.54862 0.292472 0
M  V30 13454 C 1283.92 1.89406 1.36556 0
M  V30 13455 C 1284.9 0.753838 1.52484 0
M  V30 13456 O 1286.09 1.01031 1.6585 0
M  V30 13457 C 1283.22 2.14888 2.72838 0
M  V30 13458 C 1282.17 3.3073 2.71665 0
M  V30 13459 C 1281.5 3.41648 4.11316 0
M  V30 13460 C 1282.8 4.67622 2.32651 0
M  V30 13461 H 1284.49 2.79284 1.07894 0
M  V30 13462 H 1282.04 1.34377 0.517585 0
M  V30 13463 H 1283.99 2.3764 3.48002 0
M  V30 13464 H 1282.71 1.2179 3.03042 0
M  V30 13465 H 1281.37 3.07915 1.98958 0
M  V30 13466 H 1281.02 2.46051 4.38711 0
M  V30 13467 H 1280.72 4.19522 4.11431 0
M  V30 13468 H 1282.24 3.6667 4.88248 0
M  V30 13469 H 1283.66 4.90048 2.97533 0
M  V30 13470 H 1282.06 5.48272 2.43963 0
M  V30 13471 H 1283.13 4.67762 1.27777 0
M  V30 13472 N 1284.47 -0.556076 1.47464 0
M  V30 13473 C 1285.38 -1.69043 1.62671 0
M  V30 13474 C 1286.39 -1.66372 0.509535 0
M  V30 13475 O 1287.57 -1.85799 0.777218 0
M  V30 13476 C 1284.64 -3.05546 1.63836 0
M  V30 13477 C 1283.7 -3.19275 2.86988 0
M  V30 13478 C 1282.93 -4.49267 2.88088 0
M  V30 13479 O 1283.15 -5.34796 1.98368 0
M  V30 13480 O 1282.09 -4.66811 3.79962 0
M  V30 13481 H 1285.91 -1.59155 2.58657 0
M  V30 13482 H 1283.5 -0.726211 1.30562 0
M  V30 13483 H 1285.38 -3.86778 1.67275 0
M  V30 13484 H 1284.05 -3.15814 0.710173 0
M  V30 13485 H 1282.96 -2.37437 2.89093 0
M  V30 13486 H 1284.29 -3.13912 3.79104 0
M  V30 13487 N 1285.95 -1.35615 -0.802897 0
M  V30 13488 C 1287.36 -1.15733 -1.099 0
M  V30 13489 C 1287.56 0.0277094 -2.01481 0
M  V30 13490 O 1286.62 0.697196 -2.42684 0
M  V30 13491 C 1287.93 -2.46201 -1.72643 0
M  V30 13492 C 1289.48 -2.52442 -1.85046 0
M  V30 13493 C 1289.96 -3.82962 -2.51205 0
M  V30 13494 N 1291.45 -3.84234 -2.58686 0
M  V30 13495 C 1292.18 -4.81956 -3.10654 0
M  V30 13496 N 1291.68 -5.90068 -3.63032 0
M  V30 13497 N 1293.47 -4.69389 -3.09241 0
M  V30 13498 H 1285.62 -2.11511 -0.194177 0
M  V30 13499 H 1287.88 -0.936259 -0.148739 0
M  V30 13500 H 1287.59 -3.33114 -1.12817 0
M  V30 13501 H 1287.46 -2.6102 -2.72302 0
M  V30 13502 H 1289.85 -1.65955 -2.44014 0
M  V30 13503 H 1289.93 -2.41534 -0.842316 0
M  V30 13504 H 1289.58 -4.69848 -1.92885 0
M  V30 13505 H 1289.51 -3.9116 -3.52564 0
M  V30 13506 H 1292 -3.0612 -2.21582 0
M  V30 13507 H 1292.31 -6.60623 -4.00996 0
M  V30 13508 H 1290.66 -5.93755 -3.6122 0
M  V30 13509 H 1293.85 -3.84066 -2.67602 0
M  V30 13510 H 1294.02 -5.4571 -3.49435 0
M  V30 13511 N 1287.43 1.02549 -1.19673 0
M  V30 13512 C 1288.66 1.79363 -1.02531 0
M  V30 13513 C 1289.06 1.84274 0.42893 0
M  V30 13514 O 1288.41 1.28813 1.30969 0
M  V30 13515 C 1288.47 3.2567 -1.52248 0
M  V30 13516 C 1288.13 3.44386 -3.00412 0
M  V30 13517 C 1289.13 3.34329 -3.98146 0
M  V30 13518 C 1286.81 3.70491 -3.39178 0
M  V30 13519 C 1288.81 3.50106 -5.3264 0
M  V30 13520 C 1286.5 3.85912 -4.7383 0
M  V30 13521 C 1287.49 3.75723 -5.70369 0
M  V30 13522 O 1287.18 3.90685 -7.02581 0
M  V30 13523 H 1286.91 0.571194 -0.361544 0
M  V30 13524 H 1289.47 1.30029 -1.59002 0
M  V30 13525 H 1287.7 3.76044 -0.901548 0
M  V30 13526 H 1289.39 3.8409 -1.31262 0
M  V30 13527 H 1290.15 3.14109 -3.69541 0
M  V30 13528 H 1286.03 3.77513 -2.64585 0
M  V30 13529 H 1289.58 3.42069 -6.07976 0
M  V30 13530 H 1285.47 4.05631 -5.02129 0
M  V30 13531 H 1286.24 4.07756 -7.09702 0
M  V30 13532 N 1288.9 1.00119 1.21713 0
M  V30 13533 C 1289.84 0.516633 2.23301 0
M  V30 13534 C 1290.85 -0.392732 1.57992 0
M  V30 13535 O 1292.04 -0.19354 1.77448 0
M  V30 13536 C 1289.14 -0.269612 3.37826 0
M  V30 13537 C 1288.31 0.637898 4.32723 0
M  V30 13538 C 1287.37 -0.0980745 5.26109 0
M  V30 13539 O 1286.4 0.519302 5.66826 0
M  V30 13540 N 1287.6 -1.37783 5.63911 0
M  V30 13541 H 1290.36 1.39022 2.65505 0
M  V30 13542 H 1287.92 0.87688 1.36097 0
M  V30 13543 H 1289.92 -0.770826 3.97291 0
M  V30 13544 H 1288.49 -1.04436 2.94638 0
M  V30 13545 H 1287.71 1.31966 3.71455 0
M  V30 13546 H 1288.99 1.25564 4.93063 0
M  V30 13547 H 1288.39 -1.90061 5.32817 0
M  V30 13548 H 1286.95 -1.82407 6.25756 0
M  V30 13549 N 1290.38 -1.37203 0.775435 0
M  V30 13550 C 1291.8 -1.52962 0.455488 0
M  V30 13551 C 1292 -1.73284 -1.02834 0
M  V30 13552 O 1291.05 -1.75631 -1.81411 0
M  V30 13553 C 1292.37 -2.72389 1.27377 0
M  V30 13554 C 1293.91 -2.86252 1.26604 0
M  V30 13555 C 1294.39 -4.08666 2.06775 0
M  V30 13556 N 1295.88 -4.15786 2.04148 0
M  V30 13557 C 1296.62 -5.09548 2.6296 0
M  V30 13558 N 1296.11 -6.08845 3.30574 0
M  V30 13559 N 1297.9 -5.02059 2.5277 0
M  V30 13560 H 1290.06 -1.22265 1.73681 0
M  V30 13561 H 1292.32 -0.595638 0.737509 0
M  V30 13562 H 1292.02 -2.63849 2.32544 0
M  V30 13563 H 1291.9 -3.66171 0.905467 0
M  V30 13564 H 1294.29 -2.94261 0.222345 0
M  V30 13565 H 1294.37 -1.93418 1.67401 0
M  V30 13566 H 1294.01 -4.01419 3.11168 0
M  V30 13567 H 1293.94 -5.00621 1.63358 0
M  V30 13568 H 1296.43 -3.44683 1.54926 0
M  V30 13569 H 1296.74 -6.76926 3.72815 0
M  V30 13570 H 1295.09 -6.09113 3.34674 0
M  V30 13571 H 1298.28 -4.23431 1.99559 0
M  V30 13572 H 1298.45 -5.74947 2.98898 0
M  V30 13573 N 1291.86 -0.526279 -1.48553 0
M  V30 13574 C 1293.11 0.0091665 -2.02498 0
M  V30 13575 C 1293.43 1.34632 -1.40373 0
M  V30 13576 O 1292.69 1.88172 -0.537573 0
M  V30 13577 C 1292.99 0.184075 -3.56926 0
M  V30 13578 C 1292.65 -1.07825 -4.37818 0
M  V30 13579 C 1291.32 -1.42422 -4.59641 0
M  V30 13580 C 1293.67 -1.91616 -4.84699 0
M  V30 13581 C 1291 -2.60713 -5.25591 0
M  V30 13582 C 1293.35 -3.09082 -5.51952 0
M  V30 13583 C 1292.01 -3.44029 -5.72014 0
M  V30 13584 H 1291.28 0.00335426 -0.740992 0
M  V30 13585 H 1293.93 -0.691553 -1.78577 0
M  V30 13586 H 1292.23 0.967532 -3.79666 0
M  V30 13587 H 1293.93 0.613226 -3.96283 0
M  V30 13588 H 1290.52 -0.798812 -4.2109 0
M  V30 13589 H 1294.71 -1.66199 -4.67645 0
M  V30 13590 H 1289.96 -2.87996 -5.39322 0
M  V30 13591 H 1294.14 -3.74317 -5.87247 0
M  V30 13592 H 1291.76 -4.35789 -6.2289 0
M  V30 13593 N 1293.34 1.5542 -0.261239 0
M  V30 13594 C 1294.27 2.24949 0.626126 0
M  V30 13595 C 1295.25 1.23474 1.16997 0
M  V30 13596 O 1296.43 1.52161 1.20667 0
M  V30 13597 C 1293.56 2.95996 1.81669 0
M  V30 13598 C 1292.52 4.04282 1.40499 0
M  V30 13599 C 1291.84 4.62831 2.67753 0
M  V30 13600 C 1293.14 5.1923 0.56543 0
M  V30 13601 H 1294.84 2.99364 0.0463164 0
M  V30 13602 H 1292.38 1.43985 0.0208366 0
M  V30 13603 H 1294.34 3.43343 2.44323 0
M  V30 13604 H 1293.06 2.19093 2.42211 0
M  V30 13605 H 1291.72 3.57726 0.801712 0
M  V30 13606 H 1291.37 3.82611 3.26524 0
M  V30 13607 H 1291.07 5.35938 2.40925 0
M  V30 13608 H 1292.59 5.12918 3.31281 0
M  V30 13609 H 1294.01 5.62714 1.09663 0
M  V30 13610 H 1292.4 5.98814 0.392607 0
M  V30 13611 H 1293.47 4.83086 -0.419059 0
M  V30 13612 N 1294.82 -0.0116844 1.57596 0
M  V30 13613 C 1296.23 -0.367602 1.55309 0
M  V30 13614 C 1296.43 -1.75524 0.98962 0
M  V30 13615 O 1295.49 -2.44813 0.618289 0
M  V30 13616 C 1296.8 -0.253532 2.99629 0
M  V30 13617 C 1298.35 -0.329335 3.11263 0
M  V30 13618 C 1298.82 -0.24452 4.57347 0
M  V30 13619 N 1300.31 -0.302782 4.62209 0
M  V30 13620 C 1301.05 -0.260315 5.72809 0
M  V30 13621 N 1300.55 -0.169124 6.92594 0
M  V30 13622 N 1302.34 -0.311323 5.61237 0
M  V30 13623 H 1294.49 0.896204 1.92567 0
M  V30 13624 H 1296.75 0.342445 0.883988 0
M  V30 13625 H 1296.46 0.70074 3.44648 0
M  V30 13626 H 1296.33 -1.04029 3.62571 0
M  V30 13627 H 1298.72 -1.27405 2.66181 0
M  V30 13628 H 1298.8 0.487084 2.5112 0
M  V30 13629 H 1298.44 0.696597 5.031 0
M  V30 13630 H 1298.37 -1.07927 5.15421 0
M  V30 13631 H 1300.87 -0.375067 3.76034 0
M  V30 13632 H 1301.18 -0.142296 7.72669 0
M  V30 13633 H 1299.52 -0.134919 6.94869 0
M  V30 13634 H 1302.71 -0.380678 4.6655 0
M  V30 13635 H 1302.89 -0.274761 6.47417 0
M  V30 13636 N 1296.29 -1.55015 -0.284256 0
M  V30 13637 C 1297.2 -1.90203 -1.37332 0
M  V30 13638 C 1298.22 -0.797994 -1.54622 0
M  V30 13639 O 1299.4 -1.09602 -1.68965 0
M  V30 13640 C 1296.46 -2.15687 -2.71441 0
M  V30 13641 C 1295.52 -3.39313 -2.62993 0
M  V30 13642 C 1294.75 -3.63571 -3.90707 0
M  V30 13643 O 1294.98 -2.90538 -4.9086 0
M  V30 13644 O 1293.91 -4.57102 -3.91589 0
M  V30 13645 H 1297.74 -2.82888 -1.1049 0
M  V30 13646 H 1295.32 -1.41418 -0.481798 0
M  V30 13647 H 1297.2 -2.33553 -3.50758 0
M  V30 13648 H 1295.88 -1.26185 -2.98092 0
M  V30 13649 H 1294.79 -3.26793 -1.82091 0
M  V30 13650 H 1296.12 -4.28997 -2.41293 0
M  V30 13651 N 1297.77 0.548248 -1.47757 0
M  V30 13652 C 1298.73 1.63666 -1.60456 0
M  V30 13653 C 1299.73 1.53499 -0.479028 0
M  V30 13654 O 1300.92 1.57497 -0.744342 0
M  V30 13655 C 1298.06 3.03239 -1.55754 0
M  V30 13656 H 1299.25 1.53752 -2.57488 0
M  V30 13657 H 1296.8 0.768881 -1.36081 0
M  V30 13658 H 1297.54 3.18677 -0.601303 0
M  V30 13659 H 1297.32 3.12027 -2.37448 0
M  V30 13660 H 1298.81 3.82406 -1.67797 0
M  V30 13661 N 1299.25 1.36039 0.795694 0
M  V30 13662 C 1300.18 1.25713 1.91648 0
M  V30 13663 C 1301.19 0.177993 1.61824 0
M  V30 13664 O 1302.38 0.432186 1.73189 0
M  V30 13665 C 1299.48 0.915546 3.26299 0
M  V30 13666 C 1298.66 2.09528 3.83949 0
M  V30 13667 C 1297.72 1.72775 4.97026 0
M  V30 13668 O 1296.74 2.44786 5.13876 0
M  V30 13669 N 1297.94 0.65775 5.76762 0
M  V30 13670 H 1300.71 2.22277 2.01029 0
M  V30 13671 H 1298.27 1.2935 0.973657 0
M  V30 13672 H 1300.26 0.650958 3.9943 0
M  V30 13673 H 1298.83 0.0392343 3.12575 0
M  V30 13674 H 1298.05 2.52304 3.0288 0
M  V30 13675 H 1299.34 2.88361 4.19196 0
M  V30 13676 H 1298.74 0.0596875 5.65669 0
M  V30 13677 H 1297.29 0.45297 6.50224 0
M  V30 13678 N 1300.73 -1.01913 1.20215 0
M  V30 13679 C 1301.95 -1.79613 1.03702 0
M  V30 13680 C 1302.38 -1.83591 -0.409374 0
M  V30 13681 O 1301.74 -1.26911 -1.29473 0
M  V30 13682 C 1301.78 -3.22052 1.62219 0
M  V30 13683 O 1300.89 -4.03374 0.858106 0
M  V30 13684 H 1300.23 -0.554095 0.365889 0
M  V30 13685 H 1302.76 -1.28203 1.59452 0
M  V30 13686 H 1302.77 -3.72772 1.65847 0
M  V30 13687 H 1301.44 -3.18471 2.67487 0
M  V30 13688 H 1300.02 -3.6198 0.895835 0
M  V30 13689 N 1302.21 -1.00763 -1.2118 0
M  V30 13690 C 1303.62 -0.724746 -1.72059 0
M  V30 13691 C 1303.97 0.757413 -1.80991 0
M  V30 13692 O 1303.09 1.59152 -1.46627 0
M  V30 13693 C 1303.69 -1.30893 -3.12494 0
M  V30 13694 C 1302.25 -1.07511 -3.60719 0
M  V30 13695 C 1301.39 -1.42014 -2.38175 0
M  V30 13696 H 1304.35 -1.17821 -1.0632 0
M  V30 13697 H 1304.37 -0.694919 -3.741 0
M  V30 13698 H 1303.88 -2.38767 -3.05961 0
M  V30 13699 H 1301.98 -0.0136518 -3.72597 0
M  V30 13700 H 1302.09 -1.74885 -4.4604 0
M  V30 13701 H 1300.46 -0.838972 -2.40486 0
M  V30 13702 H 1301.24 -2.50924 -2.34291 0
M  V30 13703 N 1303.68 1.3679 -0.7827 0
M  V30 13704 C 1304.59 2.33928 -0.17747 0
M  V30 13705 C 1305.61 1.60716 0.666802 0
M  V30 13706 O 1306.79 1.92742 0.584162 0
M  V30 13707 C 1303.85 3.39907 0.68294 0
M  V30 13708 C 1302.91 4.28926 -0.179053 0
M  V30 13709 C 1302.15 5.29844 0.640386 0
M  V30 13710 O 1302.37 5.38639 1.87681 0
M  V30 13711 O 1301.3 6.01884 0.0438164 0
M  V30 13712 H 1305.13 2.87439 -0.980441 0
M  V30 13713 H 1302.71 1.39142 -0.54404 0
M  V30 13714 H 1304.6 4.04722 1.17379 0
M  V30 13715 H 1303.27 2.88706 1.46391 0
M  V30 13716 H 1302.18 3.67174 -0.716512 0
M  V30 13717 H 1303.51 4.83461 -0.923377 0
M  V30 13718 N 1305.16 0.53415 1.48272 0
M  V30 13719 C 1306.07 -0.230062 2.33469 0
M  V30 13720 C 1307.09 -0.934889 1.46751 0
M  V30 13721 O 1308.26 -0.908921 1.79724 0
M  V30 13722 C 1305.33 -1.2609 3.22958 0
M  V30 13723 C 1304.39 -0.565983 4.25553 0
M  V30 13724 C 1303.62 -1.54771 5.10766 0
M  V30 13725 O 1303.85 -2.7807 4.9803 0
M  V30 13726 O 1302.78 -1.08482 5.92043 0
M  V30 13727 H 1306.61 0.468182 3.0007 0
M  V30 13728 H 1304.19 0.29502 1.46458 0
M  V30 13729 H 1306.07 -1.85652 3.783 0
M  V30 13730 H 1304.75 -1.94148 2.59014 0
M  V30 13731 H 1303.66 0.0702391 3.74034 0
M  V30 13732 H 1304.99 0.0727277 4.92146 0
M  V30 13733 N 1306.64 -1.55279 0.269478 0
M  V30 13734 C 1308.05 -1.85286 -0.229372 0
M  V30 13735 C 1308.4 -1.19148 -1.55879 0
M  V30 13736 O 1307.53 -0.4778 -2.11059 0
M  V30 13737 C 1308.12 -3.3615 -0.42296 0
M  V30 13738 C 1306.68 -3.66301 -0.866047 0
M  V30 13739 C 1305.83 -2.77265 0.0439028 0
M  V30 13740 H 1308.78 -1.509 0.491427 0
M  V30 13741 H 1308.8 -3.5895 -1.26234 0
M  V30 13742 H 1308.31 -3.84258 0.544768 0
M  V30 13743 H 1306.41 -3.23688 -1.84545 0
M  V30 13744 H 1306.53 -4.73851 -0.707274 0
M  V30 13745 H 1304.89 -2.50299 -0.471433 0
M  V30 13746 H 1305.67 -3.28186 1.00741 0
M  V30 13747 N 1308.12 0.00332656 -1.576 0
M  V30 13748 C 1309.35 0.699945 -1.94701 0
M  V30 13749 C 1309.76 1.67492 -0.871312 0
M  V30 13750 O 1309.12 1.81882 0.150054 0
M  V30 13751 C 1309.17 1.43471 -3.31811 0
M  V30 13752 O 1308.89 0.498835 -4.35251 0
M  V30 13753 C 1310.39 2.22614 -3.83351 0
M  V30 13754 H 1307.61 0.195158 -0.641993 0
M  V30 13755 H 1310.16 -0.0468044 -2.04446 0
M  V30 13756 H 1308.31 2.13311 -3.23384 0
M  V30 13757 H 1308.72 1.01688 -5.14548 0
M  V30 13758 H 1310.2 2.69527 -4.81725 0
M  V30 13759 H 1310.68 3.05146 -3.15883 0
M  V30 13760 H 1311.28 1.57796 -3.94944 0
M  V30 13761 N 1309.6 1.55164 0.276031 0
M  V30 13762 C 1311.01 1.66367 0.847293 0
M  V30 13763 C 1311.36 0.588692 1.8716 0
M  V30 13764 O 1310.48 -0.27035 2.14705 0
M  V30 13765 C 1311.08 3.01593 1.5436 0
M  V30 13766 C 1309.64 3.14833 2.06293 0
M  V30 13767 C 1308.78 2.62152 0.903959 0
M  V30 13768 H 1311.74 1.58613 0.0524478 0
M  V30 13769 H 1311.76 2.94412 2.41043 0
M  V30 13770 H 1311.27 3.7981 0.797849 0
M  V30 13771 H 1309.37 2.41384 2.83839 0
M  V30 13772 H 1309.48 4.21353 2.28032 0
M  V30 13773 H 1307.85 2.19233 1.29649 0
M  V30 13774 H 1308.63 3.4287 0.171765 0
M  V30 13775 N 1311.07 -0.540404 1.48045 0
M  V30 13776 C 1312 -1.65538 1.6468 0
M  V30 13777 C 1312.99 -1.62713 0.495847 0
M  V30 13778 O 1314.17 -1.80072 0.727172 0
M  V30 13779 C 1311.3 -3.0415 1.67661 0
M  V30 13780 C 1310.25 -3.2183 2.82152 0
M  V30 13781 C 1309.58 -4.61397 2.70216 0
M  V30 13782 C 1310.88 -3.05596 4.23567 0
M  V30 13783 H 1312.57 -1.51873 2.58021 0
M  V30 13784 H 1310.12 -0.729208 1.24171 0
M  V30 13785 H 1312.07 -3.82013 1.77887 0
M  V30 13786 H 1310.8 -3.18814 0.708907 0
M  V30 13787 H 1309.46 -2.4638 2.71463 0
M  V30 13788 H 1309.1 -4.72883 1.71437 0
M  V30 13789 H 1308.8 -4.74174 3.47035 0
M  V30 13790 H 1310.33 -5.41374 2.82395 0
M  V30 13791 H 1311.74 -3.73261 4.35143 0
M  V30 13792 H 1310.14 -3.29871 5.01303 0
M  V30 13793 H 1311.21 -2.0214 4.40758 0
M  V30 13794 N 1312.55 -1.36459 -0.788468 0
M  V30 13795 C 1313.96 -1.27515 -1.3637 0
M  V30 13796 C 1314.31 0.0846251 -1.96017 0
M  V30 13797 O 1313.44 0.98611 -1.92626 0
M  V30 13798 C 1314.03 -2.30903 -2.4793 0
M  V30 13799 C 1312.59 -2.25645 -3.01266 0
M  V30 13800 C 1311.74 -2.15631 -1.74352 0
M  V30 13801 H 1314.69 -1.47324 -0.590039 0
M  V30 13802 H 1314.71 -1.94601 -3.26972 0
M  V30 13803 H 1314.22 -3.29858 -2.04487 0
M  V30 13804 H 1312.33 -1.3016 -3.49126 0
M  V30 13805 H 1312.44 -3.18373 -3.58016 0
M  V30 13806 H 1310.8 -1.61901 -1.96622 0
M  V30 13807 H 1311.59 -3.16475 -1.33036 0
M  V30 13808 N 1314.03 1.01274 -1.20754 0
M  V30 13809 C 1315.28 1.75191 -1.02156 0
M  V30 13810 C 1315.61 1.89038 0.444791 0
M  V30 13811 O 1314.88 1.41903 1.33018 0
M  V30 13812 C 1315.17 3.16892 -1.71031 0
M  V30 13813 C 1315.02 3.10816 -3.25136 0
M  V30 13814 C 1316.34 4.15648 -1.44654 0
M  V30 13815 H 1313.46 0.635922 -0.372521 0
M  V30 13816 H 1316.1 1.18119 -1.48822 0
M  V30 13817 H 1314.25 3.6562 -1.31357 0
M  V30 13818 H 1315.92 2.69863 -3.74128 0
M  V30 13819 H 1314.17 2.48113 -3.5584 0
M  V30 13820 H 1314.84 4.11001 -3.68487 0
M  V30 13821 H 1317.31 3.75592 -1.7908 0
M  V30 13822 H 1316.19 5.12954 -1.95371 0
M  V30 13823 H 1316.45 4.40507 -0.37494 0
M  V30 13824 N 1315.51 1.01404 1.20644 0
M  V30 13825 C 1316.92 0.73386 1.71672 0
M  V30 13826 C 1317.27 -0.747803 1.8139 0
M  V30 13827 O 1316.4 -1.58372 1.47469 0
M  V30 13828 C 1316.99 1.32549 3.11795 0
M  V30 13829 C 1315.55 1.09423 3.60144 0
M  V30 13830 C 1314.7 1.43275 2.37419 0
M  V30 13831 H 1317.65 1.18383 1.05694 0
M  V30 13832 H 1317.67 0.714749 3.73727 0
M  V30 13833 H 1317.18 2.40386 3.0469 0
M  V30 13834 H 1315.28 0.0334113 3.72585 0
M  V30 13835 H 1315.4 1.77248 4.45107 0
M  V30 13836 H 1313.76 0.851714 2.40037 0
M  V30 13837 H 1314.54 2.52163 2.32957 0
M  V30 13838 N 1316.99 -1.36373 0.789944 0
M  V30 13839 C 1317.92 -2.32616 0.202944 0
M  V30 13840 C 1318.9 -1.56674 -0.662364 0
M  V30 13841 O 1320.08 -1.84826 -0.596078 0
M  V30 13842 C 1317.21 -3.4092 -0.662646 0
M  V30 13843 C 1316.17 -4.27877 0.102811 0
M  V30 13844 C 1315.49 -5.27352 -0.883407 0
M  V30 13845 C 1316.79 -5.0606 1.29231 0
M  V30 13846 H 1318.49 -2.81958 1.00699 0
M  V30 13847 H 1316.03 -1.35562 0.48568 0
M  V30 13848 H 1317.99 -4.07239 -1.08324 0
M  V30 13849 H 1316.71 -2.90147 -1.4994 0
M  V30 13850 H 1315.37 -3.63114 0.504389 0
M  V30 13851 H 1315.02 -4.72853 -1.71521 0
M  V30 13852 H 1314.72 -5.86398 -0.375669 0
M  V30 13853 H 1316.24 -5.96545 -1.30256 0
M  V30 13854 H 1317.66 -5.65417 0.947446 0
M  V30 13855 H 1316.05 -5.74521 1.73338 0
M  V30 13856 H 1317.12 -4.37671 2.08739 0
M  V30 13857 N 1318.47 -0.542005 -1.47987 0
M  V30 13858 C 1319.4 0.202703 -2.32618 0
M  V30 13859 C 1320.38 0.923521 -1.42846 0
M  V30 13860 O 1321.56 0.906957 -1.7172 0
M  V30 13861 C 1318.69 1.24267 -3.24307 0
M  V30 13862 C 1317.65 0.639257 -4.23199 0
M  V30 13863 C 1316.97 1.78275 -5.04105 0
M  V30 13864 C 1318.27 -0.396982 -5.20789 0
M  V30 13865 H 1319.97 -0.503817 -2.95131 0
M  V30 13866 H 1317.51 -0.243736 -1.41922 0
M  V30 13867 H 1319.46 1.7717 -3.82347 0
M  V30 13868 H 1318.19 1.97893 -2.59819 0
M  V30 13869 H 1316.85 0.131655 -3.66364 0
M  V30 13870 H 1316.5 2.50768 -4.36032 0
M  V30 13871 H 1316.2 1.38487 -5.71047 0
M  V30 13872 H 1317.72 2.31533 -5.65 0
M  V30 13873 H 1319.13 0.0454057 -5.73282 0
M  V30 13874 H 1317.53 -0.712911 -5.9585 0
M  V30 13875 H 1318.6 -1.29843 -4.67193 0
M  V30 13876 N 1319.94 1.55134 -0.277709 0
M  V30 13877 C 1320.87 2.256 0.602232 0
M  V30 13878 C 1321.85 1.24708 1.15681 0
M  V30 13879 O 1323.04 1.53433 1.19046 0
M  V30 13880 C 1320.17 2.97907 1.78519 0
M  V30 13881 C 1319.12 4.0575 1.36203 0
M  V30 13882 C 1318.45 4.65644 2.62829 0
M  V30 13883 C 1319.75 5.19801 0.510327 0
M  V30 13884 H 1321.44 2.99396 0.0145622 0
M  V30 13885 H 1318.99 1.43999 0.00556389 0
M  V30 13886 H 1320.94 3.45915 2.40668 0
M  V30 13887 H 1319.67 2.21649 2.39873 0
M  V30 13888 H 1318.33 3.58557 0.763726 0
M  V30 13889 H 1317.97 3.86053 3.22447 0
M  V30 13890 H 1317.67 5.38463 2.35227 0
M  V30 13891 H 1319.2 5.16403 3.25823 0
M  V30 13892 H 1320.61 5.63845 1.03689 0
M  V30 13893 H 1319.01 5.99197 0.329073 0
M  V30 13894 H 1320.08 4.82614 -0.470273 0
M  V30 13895 N 1321.42 0.00503138 1.57599 0
M  V30 13896 C 1322.83 -0.537106 1.78807 0
M  V30 13897 C 1323.18 -1.73666 0.912945 0
M  V30 13898 O 1322.31 -2.16085 0.116775 0
M  V30 13899 C 1322.9 -0.98116 3.24282 0
M  V30 13900 C 1321.46 -1.46857 3.46569 0
M  V30 13901 C 1320.61 -0.422088 2.74069 0
M  V30 13902 H 1323.56 0.231182 1.57007 0
M  V30 13903 H 1323.58 -1.8469 3.32671 0
M  V30 13904 H 1323.09 -0.107907 3.8795 0
M  V30 13905 H 1321.19 -2.36255 2.88122 0
M  V30 13906 H 1321.31 -1.49256 4.55258 0
M  V30 13907 H 1319.67 -0.884853 2.38836 0
M  V30 13908 H 1320.45 0.442285 3.40439 0
M  V30 13909 N 1322.9 -1.55308 -0.267798 0
M  V30 13910 C 1324.31 -1.66814 -0.838459 0
M  V30 13911 C 1324.66 -0.598609 -1.86845 0
M  V30 13912 O 1323.79 0.25896 -2.14845 0
M  V30 13913 C 1324.38 -3.02408 -1.52758 0
M  V30 13914 C 1322.94 -3.15923 -2.04621 0
M  V30 13915 C 1322.09 -2.62628 -0.890044 0
M  V30 13916 H 1325.04 -1.58639 -0.0440354 0
M  V30 13917 H 1325.06 -2.95687 -2.39478 0
M  V30 13918 H 1324.57 -3.80228 -0.777695 0
M  V30 13919 H 1322.67 -2.42886 -2.82555 0
M  V30 13920 H 1322.79 -4.22556 -2.25794 0
M  V30 13921 H 1321.15 -2.19918 -1.28485 0
M  V30 13922 H 1321.93 -3.42956 -0.153579 0
M  V30 13923 N 1324.38 0.532545 -1.4833 0
M  V30 13924 C 1325.79 1.11451 -1.49785 0
M  V30 13925 C 1326.14 1.94386 -0.266207 0
M  V30 13926 O 1325.26 2.07121 0.62688 0
M  V30 13927 C 1325.86 2.0279 -2.71407 0
M  V30 13928 C 1324.42 2.56209 -2.75742 0
M  V30 13929 C 1323.57 1.33114 -2.43261 0
M  V30 13930 H 1326.52 0.317924 -1.55483 0
M  V30 13931 H 1326.54 2.87038 -2.49779 0
M  V30 13932 H 1326.05 1.42401 -3.61031 0
M  V30 13933 H 1324.15 3.20327 -1.9032 0
M  V30 13934 H 1324.26 2.95518 -3.77102 0
M  V30 13935 H 1322.63 1.64607 -1.94362 0
M  V30 13936 H 1323.41 0.744809 -3.35123 0
M  V30 13937 N 1325.86 1.36875 0.78122 0
M  V30 13938 C 1327.08 1.349 1.57533 0
M  V30 13939 C 1327.51 -0.0655249 1.87986 0
M  V30 13940 O 1326.86 -1.03986 1.48515 0
M  V30 13941 C 1326.91 2.18562 2.86815 0
M  V30 13942 O 1326.02 1.58374 3.80777 0
M  V30 13943 H 1325.36 0.461355 0.477543 0
M  V30 13944 H 1327.89 1.80271 0.96766 0
M  V30 13945 H 1327.9 2.31436 3.36008 0
M  V30 13946 H 1326.57 3.21385 2.63978 0
M  V30 13947 H 1325.15 1.54487 3.39394 0
M  V30 13948 N 1327.33 -1.00632 1.21289 0
M  V30 13949 C 1328.56 -1.77967 1.05524 0
M  V30 13950 C 1328.98 -1.84621 -0.395023 0
M  V30 13951 O 1328.33 -1.30664 -1.27409 0
M  V30 13952 C 1328.38 -3.21939 1.64432 0
M  V30 13953 O 1328.11 -3.15669 3.03784 0
M  V30 13954 C 1329.61 -4.1578 1.5376 0
M  V30 13955 H 1326.83 -0.559341 0.370646 0
M  V30 13956 H 1329.37 -1.26604 1.60598 0
M  V30 13957 H 1327.53 -3.70415 1.13453 0
M  V30 13958 H 1327.94 -4.06112 3.31924 0
M  V30 13959 H 1329.41 -5.14602 1.99722 0
M  V30 13960 H 1329.89 -4.36438 0.491811 0
M  V30 13961 H 1330.5 -3.73192 2.0398 0
M  V30 13962 N 1328.81 -1.02043 -1.20104 0
M  V30 13963 C 1330.22 -0.742954 -1.71281 0
M  V30 13964 C 1330.57 0.738173 -1.81784 0
M  V30 13965 O 1329.7 1.57588 -1.48307 0
M  V30 13966 C 1330.29 -1.342 -3.11088 0
M  V30 13967 C 1328.85 -1.11331 -3.59559 0
M  V30 13968 C 1328 -1.44532 -2.36655 0
M  V30 13969 H 1330.95 -1.18942 -1.05064 0
M  V30 13970 H 1330.97 -0.734558 -3.73342 0
M  V30 13971 H 1330.48 -2.41998 -3.03411 0
M  V30 13972 H 1328.58 -0.05317 -3.72562 0
M  V30 13973 H 1328.7 -1.79606 -4.4416 0
M  V30 13974 H 1327.06 -0.864431 -2.39582 0
M  V30 13975 H 1327.84 -2.53394 -2.31616 0
M  V30 13976 N 1330.29 1.35952 -0.797165 0
M  V30 13977 C 1331.25 2.28266 -0.206748 0
M  V30 13978 C 1332.25 1.49169 0.60043 0
M  V30 13979 O 1333.44 1.69054 0.42029 0
M  V30 13980 C 1330.58 3.33363 0.712884 0
M  V30 13981 H 1331.77 2.81992 -1.02082 0
M  V30 13982 H 1329.32 1.45648 -0.567138 0
M  V30 13983 H 1330.06 2.84806 1.551 0
M  V30 13984 H 1329.84 3.91864 0.135926 0
M  V30 13985 H 1331.33 4.02284 1.1206 0
M  V30 13986 N 1331.77 0.549846 1.47697 0
M  V30 13987 C 1333.18 0.11453 1.86348 0
M  V30 13988 C 1333.53 -1.31368 1.45729 0
M  V30 13989 O 1332.66 -1.98707 0.856989 0
M  V30 13990 C 1333.25 0.201072 3.38203 0
M  V30 13991 C 1331.81 -0.179162 3.75973 0
M  V30 13992 C 1330.96 0.551951 2.71751 0
M  V30 13993 H 1333.91 0.759989 1.39319 0
M  V30 13994 H 1333.93 -0.582216 3.76019 0
M  V30 13995 H 1333.44 1.24065 3.67736 0
M  V30 13996 H 1331.54 -1.22013 3.52056 0
M  V30 13997 H 1331.65 0.174273 4.78783 0
M  V30 13998 H 1330.02 -0.00411819 2.547 0
M  V30 13999 H 1330.8 1.59254 3.04127 0
M  V30 14000 N 1333.25 -1.54984 0.285932 0
M  V30 14001 C 1334.21 -2.2164 -0.583824 0
M  V30 14002 C 1335.21 -1.19764 -1.073 0
M  V30 14003 O 1336.4 -1.44598 -0.971439 0
M  V30 14004 C 1333.53 -2.8909 -1.80665 0
M  V30 14005 H 1334.72 -2.999 -0.00168109 0
M  V30 14006 H 1332.28 -1.56257 0.0366325 0
M  V30 14007 H 1333.01 -2.14869 -2.42903 0
M  V30 14008 H 1332.8 -3.63756 -1.4637 0
M  V30 14009 H 1334.29 -3.39982 -2.42491 0
M  V30 14010 N 1334.72 -0.0133892 -1.57594 0
M  V30 14011 C 1335.69 0.958601 -2.08191 0
M  V30 14012 C 1336.69 1.26408 -0.993865 0
M  V30 14013 O 1337.88 1.20703 -1.25604 0
M  V30 14014 C 1335.01 2.27971 -2.5346 0
M  V30 14015 H 1336.2 0.520686 -2.95345 0
M  V30 14016 H 1333.76 0.234351 -1.54533 0
M  V30 14017 H 1334.49 2.76424 -1.69588 0
M  V30 14018 H 1334.28 2.07116 -3.32935 0
M  V30 14019 H 1335.77 2.97672 -2.92884 0
M  V30 14020 N 1336.2 1.55448 0.259558 0
M  V30 14021 C 1337.61 1.67256 0.8296 0
M  V30 14022 C 1337.96 0.60851 1.86525 0
M  V30 14023 O 1337.09 -0.247563 2.14979 0
M  V30 14024 C 1337.68 3.03213 1.51152 0
M  V30 14025 C 1336.24 3.17004 2.02943 0
M  V30 14026 C 1335.39 2.63096 0.876103 0
M  V30 14027 H 1338.34 1.5866 0.0356218 0
M  V30 14028 H 1338.36 2.96952 2.37906 0
M  V30 14029 H 1337.87 3.80635 0.75752 0
M  V30 14030 H 1335.98 2.44381 2.81263 0
M  V30 14031 H 1336.09 4.23748 2.2355 0
M  V30 14032 H 1334.45 2.20596 1.27317 0
M  V30 14033 H 1335.24 3.43033 0.13539 0
M  V30 14034 N 1337.68 -0.524672 1.4861 0
M  V30 14035 C 1338.91 -1.30482 1.60568 0
M  V30 14036 C 1339.32 -1.86889 0.267952 0
M  V30 14037 O 1338.68 -1.66669 -0.743488 0
M  V30 14038 C 1338.73 -2.45191 2.65638 0
M  V30 14039 O 1338.45 -1.91107 3.9422 0
M  V30 14040 C 1339.95 -3.36931 2.88084 0
M  V30 14041 H 1337.17 -0.396612 0.541239 0
M  V30 14042 H 1339.72 -0.632392 1.94476 0
M  V30 14043 H 1337.87 -3.08308 2.34574 0
M  V30 14044 H 1338.29 -2.66234 4.51907 0
M  V30 14045 H 1339.76 -4.13755 3.65391 0
M  V30 14046 H 1340.24 -3.92487 1.97106 0
M  V30 14047 H 1340.84 -2.79601 3.20473 0
M  V30 14048 N 1339.16 -1.37287 -0.77395 0
M  V30 14049 C 1340.12 -1.32699 -1.86878 0
M  V30 14050 C 1341.12 -0.231486 -1.59125 0
M  V30 14051 O 1342.31 -0.487203 -1.67248 0
M  V30 14052 C 1339.44 -1.0609 -3.23972 0
M  V30 14053 H 1340.64 -2.30083 -1.92359 0
M  V30 14054 H 1338.19 -1.22284 -0.973459 0
M  V30 14055 H 1338.92 -0.0922868 -3.24169 0
M  V30 14056 H 1338.71 -1.85383 -3.45508 0
M  V30 14057 H 1340.2 -1.05524 -4.04048 0
M  V30 14058 N 1340.64 0.999871 -1.21821 0
M  V30 14059 C 1341.86 1.77405 -1.06467 0
M  V30 14060 C 1342.28 1.84828 0.385227 0
M  V30 14061 O 1341.64 1.31338 1.26714 0
M  V30 14062 C 1341.69 3.21062 -1.66137 0
M  V30 14063 O 1341.41 3.14054 -3.05454 0
M  V30 14064 C 1342.91 4.14958 -1.55963 0
M  V30 14065 H 1340.13 0.557368 -0.373607 0
M  V30 14066 H 1342.67 1.2575 -1.61267 0
M  V30 14067 H 1340.83 3.69808 -1.15416 0
M  V30 14068 H 1341.24 4.04346 -3.34073 0
M  V30 14069 H 1342.72 5.13536 -2.02448 0
M  V30 14070 H 1343.19 4.36171 -0.514949 0
M  V30 14071 H 1343.8 3.72105 -2.05956 0
M  V30 14072 N 1342.11 1.02678 1.19562 0
M  V30 14073 C 1343.36 0.723086 1.89471 0
M  V30 14074 C 1343.69 -0.746269 1.79289 0
M  V30 14075 O 1342.97 -1.54322 1.18384 0
M  V30 14076 C 1343.25 1.17224 3.40486 0
M  V30 14077 C 1343.1 2.70266 3.5955 0
M  V30 14078 C 1344.42 0.751397 4.33638 0
M  V30 14079 H 1341.54 0.264155 0.688034 0
M  V30 14080 H 1344.18 1.27633 1.40747 0
M  V30 14081 H 1342.33 0.701544 3.82113 0
M  V30 14082 H 1344.01 3.25266 3.27108 0
M  V30 14083 H 1342.25 3.10758 3.02675 0
M  V30 14084 H 1342.92 2.96748 4.65451 0
M  V30 14085 H 1345.4 1.15621 3.99714 0
M  V30 14086 H 1344.27 1.09358 5.37896 0
M  V30 14087 H 1344.53 -0.346367 4.40741 0
M  V30 14088 N 1343.59 -1.35528 0.804364 0
M  V30 14089 C 1345.01 -1.51962 0.487831 0
M  V30 14090 C 1345.21 -1.75426 -0.991353 0
M  V30 14091 O 1344.26 -1.7944 -1.77644 0
M  V30 14092 C 1345.58 -2.69626 1.33126 0
M  V30 14093 C 1347.13 -2.83502 1.32648 0
M  V30 14094 C 1347.6 -4.04188 2.15397 0
M  V30 14095 N 1349.09 -4.11362 2.12922 0
M  V30 14096 C 1349.83 -5.03856 2.73709 0
M  V30 14097 N 1349.32 -6.01696 3.43415 0
M  V30 14098 N 1351.12 -4.96585 2.63363 0
M  V30 14099 H 1343.27 -1.18553 1.76235 0
M  V30 14100 H 1345.53 -0.57986 0.749977 0
M  V30 14101 H 1345.24 -2.58857 2.38088 0
M  V30 14102 H 1345.11 -3.64168 0.982934 0
M  V30 14103 H 1347.5 -2.93723 0.284712 0
M  V30 14104 H 1347.58 -1.89824 1.71466 0
M  V30 14105 H 1347.22 -3.94728 3.19613 0
M  V30 14106 H 1347.15 -4.97044 1.7394 0
M  V30 14107 H 1349.64 -3.41319 1.62203 0
M  V30 14108 H 1349.96 -6.68866 3.8709 0
M  V30 14109 H 1348.3 -6.01877 3.47519 0
M  V30 14110 H 1351.49 -4.19103 2.08496 0
M  V30 14111 H 1351.66 -5.68478 3.11026 0
M  V30 14112 N 1345.07 -0.557671 -1.47404 0
M  V30 14113 C 1346.48 -0.124411 -1.86285 0
M  V30 14114 C 1346.83 1.30593 -1.46424 0
M  V30 14115 O 1345.96 1.9825 -0.867515 0
M  V30 14116 C 1346.55 -0.219005 -3.38091 0
M  V30 14117 C 1345.11 0.159221 -3.76063 0
M  V30 14118 C 1344.26 -0.566355 -2.71455 0
M  V30 14119 H 1347.21 -0.767367 -1.38914 0
M  V30 14120 H 1347.23 0.562267 -3.76323 0
M  V30 14121 H 1346.74 -1.26013 -3.67073 0
M  V30 14122 H 1344.84 1.20144 -3.52698 0
M  V30 14123 H 1344.96 -0.199662 -4.78684 0
M  V30 14124 H 1343.32 -0.00938921 -2.54698 0
M  V30 14125 H 1344.1 -1.60865 -3.03278 0
M  V30 14126 N 1346.55 1.54831 -0.294147 0
M  V30 14127 C 1347.48 2.19422 0.626821 0
M  V30 14128 C 1348.46 1.16136 1.13804 0
M  V30 14129 O 1349.64 1.44747 1.2075 0
M  V30 14130 C 1346.77 2.83262 1.85689 0
M  V30 14131 C 1345.82 4.00016 1.4795 0
M  V30 14132 S 1346.65 5.32757 0.541307 0
M  V30 14133 C 1347.81 6.00076 1.77932 0
M  V30 14134 H 1348.04 2.97198 0.0780539 0
M  V30 14135 H 1345.57 1.54201 -0.0783131 0
M  V30 14136 H 1347.53 3.20671 2.56282 0
M  V30 14137 H 1346.19 2.05345 2.37681 0
M  V30 14138 H 1345.38 4.43443 2.3953 0
M  V30 14139 H 1344.99 3.64129 0.853573 0
M  V30 14140 H 1347.28 6.20466 2.7208 0
M  V30 14141 H 1348.22 6.94368 1.38774 0
M  V30 14142 H 1348.63 5.29643 1.95292 0
M  V30 14143 N 1348.03 0.0217466 1.57585 0
M  V30 14144 C 1349.44 -0.51811 1.79367 0
M  V30 14145 C 1349.79 -1.72688 0.931313 0
M  V30 14146 O 1348.91 -2.15949 0.139687 0
M  V30 14147 C 1349.51 -0.946711 3.25304 0
M  V30 14148 C 1348.07 -1.43173 3.48107 0
M  V30 14149 C 1347.22 -0.392996 2.74501 0
M  V30 14150 H 1350.17 0.247822 1.56753 0
M  V30 14151 H 1350.19 -1.81152 3.34611 0
M  V30 14152 H 1349.7 -0.0667536 3.88043 0
M  V30 14153 H 1347.8 -2.33186 2.90612 0
M  V30 14154 H 1347.91 -1.44419 4.56815 0
M  V30 14155 H 1346.28 -0.859471 2.39761 0
M  V30 14156 H 1347.06 0.478368 3.39951 0
M  V30 14157 N 1349.51 -1.55583 -0.251311 0
M  V30 14158 C 1350.44 -1.86388 -1.33387 0
M  V30 14159 C 1351.45 -0.749829 -1.44504 0
M  V30 14160 O 1352.64 -1.0279 -1.45933 0
M  V30 14161 C 1349.74 -2.0311 -2.71293 0
M  V30 14162 C 1348.91 -3.33937 -2.82498 0
M  V30 14163 C 1347.97 -3.40455 -4.01219 0
M  V30 14164 O 1347 -4.13695 -3.90954 0
M  V30 14165 N 1348.2 -2.69427 -5.14188 0
M  V30 14166 H 1350.96 -2.79834 -1.07298 0
M  V30 14167 H 1348.53 -1.55766 -0.441418 0
M  V30 14168 H 1350.52 -2.04817 -3.49045 0
M  V30 14169 H 1349.09 -1.16429 -2.90109 0
M  V30 14170 H 1348.31 -3.44584 -1.91456 0
M  V30 14171 H 1349.6 -4.20176 -2.86931 0
M  V30 14172 H 1348.99 -2.09647 -5.25419 0
M  V30 14173 H 1347.55 -2.76832 -5.90091 0
M  V30 14174 N 1350.98 0.516783 -1.48886 0
M  V30 14175 C 1351.95 1.60226 -1.63891 0
M  V30 14176 C 1352.95 1.52448 -0.511479 0
M  V30 14177 O 1354.14 1.55882 -0.777582 0
M  V30 14178 C 1351.27 2.99867 -1.62151 0
M  V30 14179 H 1352.46 1.48256 -2.60692 0
M  V30 14180 H 1350.01 0.739844 -1.37681 0
M  V30 14181 H 1350.75 3.1733 -0.668764 0
M  V30 14182 H 1350.53 3.0692 -2.44013 0
M  V30 14183 H 1352.02 3.7876 -1.7587 0
M  V30 14184 N 1352.46 1.37696 0.766659 0
M  V30 14185 C 1353.42 1.33688 1.86172 0
M  V30 14186 C 1354.42 0.239922 1.59 0
M  V30 14187 O 1355.61 0.496066 1.66988 0
M  V30 14188 C 1352.75 1.07807 3.23405 0
M  V30 14189 H 1353.94 2.311 1.91136 0
M  V30 14190 H 1351.49 1.22799 0.966961 0
M  V30 14191 H 1352.23 0.109477 3.24115 0
M  V30 14192 H 1352.01 1.87213 3.4452 0
M  V30 14193 H 1353.5 1.07665 4.03482 0
M  V30 14194 N 1353.94 -0.993397 1.22349 0
M  V30 14195 C 1354.87 -2.10171 1.01737 0
M  V30 14196 C 1355.85 -1.69989 -0.0615276 0
M  V30 14197 O 1357.04 -1.93939 0.100591 0
M  V30 14198 C 1354.17 -3.42186 0.593801 0
M  V30 14199 C 1353.12 -3.96215 1.61858 0
M  V30 14200 C 1352.45 -5.24272 1.05086 0
M  V30 14201 C 1353.75 -4.26956 3.00842 0
M  V30 14202 H 1355.44 -2.27673 1.94436 0
M  V30 14203 H 1352.99 -1.09408 0.936258 0
M  V30 14204 H 1354.94 -4.19131 0.436715 0
M  V30 14205 H 1353.66 -3.2451 -0.368855 0
M  V30 14206 H 1352.32 -3.21401 1.76343 0
M  V30 14207 H 1351.97 -5.02937 0.0795747 0
M  V30 14208 H 1351.67 -5.61387 1.73547 0
M  V30 14209 H 1353.19 -6.03851 0.905349 0
M  V30 14210 H 1354.61 -4.94699 2.89734 0
M  V30 14211 H 1353 -4.75242 3.66422 0
M  V30 14212 H 1354.07 -3.34752 3.50812 0
M  V30 14213 N 1355.42 -1.03311 -1.19015 0
M  V30 14214 C 1356.69 -0.646539 -1.84606 0
M  V30 14215 C 1357.07 0.87449 -1.92135 0
M  V30 14216 O 1356.42 1.77291 -1.44154 0
M  V30 14217 C 1356.63 -1.31354 -3.23338 0
M  V30 14218 C 1357.98 -1.43949 -3.99455 0
M  V30 14219 O 1359 -1.27104 -3.32751 0
M  V30 14220 O 1357.86 -1.71328 -5.1895 0
M  V30 14221 H 1354.96 -0.225267 -0.795728 0
M  V30 14222 H 1357.5 -1.13152 -1.2647 0
M  V30 14223 H 1356.28 -2.3521 -3.12717 0
M  V30 14224 H 1355.9 -0.816688 -3.89122 0
M  V30 14225 N 1356.9 1.35099 -0.81154 0
M  V30 14226 C 1358.31 1.81082 -0.454543 0
M  V30 14227 C 1358.66 1.67361 1.02395 0
M  V30 14228 O 1357.78 1.20707 1.79607 0
M  V30 14229 C 1358.38 3.2877 -0.818274 0
M  V30 14230 C 1356.94 3.72877 -0.513808 0
M  V30 14231 C 1356.08 2.57008 -1.04125 0
M  V30 14232 H 1359.03 1.23007 -1.00274 0
M  V30 14233 H 1359.06 3.80318 -0.117683 0
M  V30 14234 H 1358.57 3.38725 -1.89439 0
M  V30 14235 H 1356.67 3.68468 0.553368 0
M  V30 14236 H 1356.78 4.67455 -1.0499 0
M  V30 14237 H 1355.15 2.5045 -0.463337 0
M  V30 14238 H 1355.93 2.69738 -2.12358 0
M  V30 14239 N 1358.37 0.56548 1.47106 0
M  V30 14240 C 1359.32 -0.177564 2.30116 0
M  V30 14241 C 1360.29 -0.900534 1.39569 0
M  V30 14242 O 1361.48 -0.894603 1.68527 0
M  V30 14243 C 1358.62 -1.19633 3.237 0
M  V30 14244 C 1357.73 -0.47858 4.29341 0
M  V30 14245 C 1356.86 -1.48336 5.10068 0
M  V30 14246 C 1355.9 -0.751049 6.07475 0
M  V30 14247 N 1355.04 -1.70306 6.81132 0
M  V30 14248 H 1359.88 0.536409 2.93132 0
M  V30 14249 H 1357.42 0.276352 1.44481 0
M  V30 14250 H 1359.37 -1.79967 3.76388 0
M  V30 14251 H 1358 -1.87823 2.6253 0
M  V30 14252 H 1357.06 0.239454 3.79646 0
M  V30 14253 H 1358.37 0.0947147 4.9871 0
M  V30 14254 H 1357.52 -2.16 5.66947 0
M  V30 14255 H 1356.26 -2.09058 4.4062 0
M  V30 14256 H 1355.27 -0.0605336 5.49767 0
M  V30 14257 H 1356.49 -0.14946 6.78936 0
M  V30 14258 H 1354.44 -2.2987 6.14407 0
M  V30 14259 H 1354.35 -1.18213 7.46701 0
M  V30 14260 H 1355.62 -2.37058 7.42579 0
M  V30 14261 N 1359.85 -1.54672 0.302354 0
M  V30 14262 C 1360.82 -2.22246 -0.560283 0
M  V30 14263 C 1361.82 -1.20895 -1.06023 0
M  V30 14264 O 1363.01 -1.45621 -0.956047 0
M  V30 14265 C 1360.14 -2.9099 -1.77589 0
M  V30 14266 H 1361.33 -2.99885 0.0301274 0
M  V30 14267 H 1358.88 -1.56209 0.0532036 0
M  V30 14268 H 1359.62 -2.17433 -2.4061 0
M  V30 14269 H 1359.4 -3.65288 -1.42503 0
M  V30 14270 H 1360.89 -3.42535 -2.38871 0
M  V30 14271 N 1361.33 -0.0301034 -1.57571 0
M  V30 14272 C 1362.28 0.969425 -2.11435 0
M  V30 14273 C 1363.27 1.33627 -1.04116 0
M  V30 14274 O 1364.48 1.31839 -1.2255 0
M  V30 14275 H 1360.85 0.330407 -0.675526 0
M  V30 14276 H 1362.82 0.489828 -2.94352 0
M  V30 14277 C 1361.57 2.24233 -2.65734 0
M  V30 14278 H 1360.9 1.9688 -3.47963 0
M  V30 14279 H 1362.34 2.92378 -3.07068 0
M  V30 14280 C 1360.8 2.97274 -1.58524 0
M  V30 14281 O 1361.33 3.8942 -0.985641 0
M  V30 14282 N 1359.53 2.59627 -1.30545 0
M  V30 14283 H 1359.08 1.84773 -1.79491 0
M  V30 14284 H 1359.04 3.08807 -0.590372 0
M  V30 14285 N 1362.81 1.55714 0.243056 0
M  V30 14286 C 1364.06 1.77726 0.970555 0
M  V30 14287 C 1364.38 0.595108 1.85172 0
M  V30 14288 O 1363.64 -0.42143 1.91108 0
M  V30 14289 C 1363.94 3.05281 1.85845 0
M  V30 14290 C 1363.6 4.36451 1.13232 0
M  V30 14291 C 1362.27 4.72095 0.931656 0
M  V30 14292 C 1364.62 5.17524 0.617944 0
M  V30 14293 C 1361.95 5.86344 0.204373 0
M  V30 14294 C 1364.3 6.32527 -0.0958899 0
M  V30 14295 C 1362.96 6.66789 -0.308 0
M  V30 14296 H 1362.23 0.650345 0.355151 0
M  V30 14297 H 1364.88 1.89986 0.240351 0
M  V30 14298 H 1363.18 2.8805 2.65584 0
M  V30 14299 H 1364.88 3.19511 2.4231 0
M  V30 14300 H 1361.47 4.08451 1.29867 0
M  V30 14301 H 1365.65 4.90439 0.760507 0
M  V30 14302 H 1360.91 6.11393 0.0296 0
M  V30 14303 H 1365.08 6.94588 -0.502077 0
M  V30 14304 H 1362.71 7.55165 -0.873502 0
M  V30 14305 N 1364.29 -0.50888 1.49158 0
M  V30 14306 C 1365.51 -1.29245 1.62205 0
M  V30 14307 C 1365.94 -1.85845 0.29041 0
M  V30 14308 O 1365.29 -1.6547 -0.740906 0
M  V30 14309 C 1365.34 -2.40415 2.68762 0
M  V30 14310 O 1364.45 -3.44048 2.27387 0
M  V30 14311 H 1363.79 -0.381898 0.543185 0
M  V30 14312 H 1366.32 -0.610076 1.95293 0
M  V30 14313 H 1366.33 -2.86295 2.90688 0
M  V30 14314 H 1365 -1.98584 3.65427 0
M  V30 14315 H 1363.58 -3.04141 2.1576 0
M  V30 14316 N 1365.76 -1.381 -0.759346 0
M  V30 14317 C 1366.99 -1.37213 -1.54855 0
M  V30 14318 C 1367.41 0.0395175 -1.88759 0
M  V30 14319 O 1366.76 1.00462 -1.5236 0
M  V30 14320 C 1366.82 -2.22232 -2.85123 0
M  V30 14321 O 1366.54 -3.57897 -2.52668 0
M  V30 14322 C 1368.04 -2.29461 -3.79292 0
M  V30 14323 H 1365.26 -0.469542 -0.479345 0
M  V30 14324 H 1367.8 -1.81604 -0.940216 0
M  V30 14325 H 1365.96 -1.81317 -3.42349 0
M  V30 14326 H 1366.37 -4.02599 -3.36176 0
M  V30 14327 H 1367.84 -2.93246 -4.67665 0
M  V30 14328 H 1368.32 -1.3066 -4.19315 0
M  V30 14329 H 1368.93 -2.70741 -3.27993 0
M  V30 14330 N 1367.24 0.986894 -1.22875 0
M  V30 14331 C 1368.19 2.09935 -1.00151 0
M  V30 14332 C 1369.18 1.69303 0.0573751 0
M  V30 14333 O 1370.39 1.79746 -0.0955781 0
M  V30 14334 H 1366.77 0.686605 -0.306721 0
M  V30 14335 H 1368.74 2.26271 -1.94535 0
M  V30 14336 C 1367.49 3.42442 -0.602374 0
M  V30 14337 H 1366.81 3.74154 -1.40886 0
M  V30 14338 H 1368.25 4.21242 -0.482836 0
M  V30 14339 C 1366.71 3.29785 0.688707 0
M  V30 14340 O 1367.24 3.6208 1.73957 0
M  V30 14341 N 1365.44 2.82956 0.662152 0
M  V30 14342 H 1364.99 2.56873 -0.193337 0
M  V30 14343 H 1364.95 2.74869 1.52625 0
M  V30 14344 N 1368.72 1.0394 1.18466 0
M  V30 14345 C 1369.67 0.623063 2.241 0
M  V30 14346 C 1370.66 -0.349518 1.65755 0
M  V30 14347 O 1371.87 -0.216947 1.78688 0
M  V30 14348 H 1368.24 0.183263 0.729327 0
M  V30 14349 H 1370.21 1.52439 2.56524 0
M  V30 14350 C 1368.96 0.000626805 3.477 0
M  V30 14351 H 1368.29 0.740056 3.92891 0
M  V30 14352 H 1369.73 -0.253484 4.23242 0
M  V30 14353 C 1368.19 -1.24907 3.1289 0
M  V30 14354 O 1368.72 -2.33996 3.2651 0
M  V30 14355 N 1366.92 -1.14187 2.67226 0
M  V30 14356 H 1366.47 -0.254146 2.56343 0
M  V30 14357 H 1366.43 -1.97893 2.44307 0
M  V30 14358 N 1370.2 -1.34667 0.818693 0
M  V30 14359 C 1371.42 -2.03173 0.416585 0
M  V30 14360 C 1371.85 -1.61261 -0.968321 0
M  V30 14361 O 1371.21 -0.79517 -1.62932 0
M  V30 14362 C 1371.25 -3.56803 0.521884 0
M  V30 14363 O 1370.36 -4.09827 -0.459953 0
M  V30 14364 H 1369.7 -0.6413 0.172136 0
M  V30 14365 H 1372.23 -1.72006 1.10794 0
M  V30 14366 H 1372.24 -4.06073 0.3961 0
M  V30 14367 H 1370.91 -3.86656 1.53198 0
M  V30 14368 H 1369.49 -3.71744 -0.293405 0
M  V30 14369 N 1371.68 -0.573274 -1.46804 0
M  V30 14370 C 1372.62 0.178246 -2.31916 0
M  V30 14371 C 1373.62 0.89366 -1.4391 0
M  V30 14372 O 1374.82 0.81312 -1.60588 0
M  V30 14373 H 1371.2 0.0763519 -0.748114 0
M  V30 14374 H 1373.17 -0.558552 -2.93126 0
M  V30 14375 C 1371.92 1.18476 -3.26892 0
M  V30 14376 H 1371.24 0.643691 -3.94584 0
M  V30 14377 H 1372.68 1.68118 -3.89246 0
M  V30 14378 C 1371.14 2.24092 -2.51564 0
M  V30 14379 O 1371.67 3.3129 -2.27178 0
M  V30 14380 N 1369.88 1.98447 -2.1229 0
M  V30 14381 H 1369.42 1.11283 -2.32323 0
M  V30 14382 H 1369.38 2.69325 -1.62207 0
M  V30 14383 N 1373.15 1.5451 -0.310553 0
M  V30 14384 C 1374.57 1.85829 0.180166 0
M  V30 14385 C 1374.92 1.23239 1.52665 0
M  V30 14386 O 1374.04 0.53359 2.09718 0
M  V30 14387 C 1374.64 3.37153 0.333687 0
M  V30 14388 C 1373.2 3.68469 0.768625 0
M  V30 14389 C 1372.34 2.77051 -0.117399 0
M  V30 14390 H 1375.29 1.49544 -0.531262 0
M  V30 14391 H 1375.31 3.62171 1.16673 0
M  V30 14392 H 1374.83 3.82678 -0.646455 0
M  V30 14393 H 1372.93 3.28467 1.75898 0
M  V30 14394 H 1373.04 4.75559 0.581392 0
M  V30 14395 H 1371.4 2.51461 0.404905 0
M  V30 14396 H 1372.19 3.254 -1.09407 0
M  V30 14397 N 1374.63 0.0384594 1.57553 0
M  V30 14398 C 1375.88 -0.636879 1.91803 0
M  V30 14399 C 1376.2 -1.72128 0.916347 0
M  V30 14400 O 1375.47 -1.95858 -0.0407405 0
M  V30 14401 H 1374.05 -0.238237 0.707992 0
M  V30 14402 H 1376.71 0.0884651 1.94699 0
M  V30 14403 H 1375.81 -1.08364 2.92683 0
M  V30 14404 N 1376.11 -1.55841 -0.234795 0
M  V30 14405 C 1377.07 -1.9051 -1.2743 0
M  V30 14406 C 1378.07 -0.782543 -1.40474 0
M  V30 14407 O 1379.26 -1.05043 -1.38966 0
M  V30 14408 C 1376.4 -2.14424 -2.65019 0
M  V30 14409 H 1377.59 -2.83471 -0.979003 0
M  V30 14410 H 1375.14 -1.48919 -0.47463 0
M  V30 14411 H 1375.88 -1.23972 -2.99669 0
M  V30 14412 H 1375.66 -2.96191 -2.56931 0
M  V30 14413 H 1377.15 -2.42388 -3.40056 0
M  V30 14414 N 1377.59 0.500963 -1.49426 0
M  V30 14415 C 1379.01 0.832142 -1.36189 0
M  V30 14416 C 1379.21 1.9759 -0.395014 0
M  V30 14417 O 1378.26 2.51905 0.173294 0
M  V30 14418 C 1379.57 1.17232 -2.76907 0
M  V30 14419 C 1381.12 1.28052 -2.85607 0
M  V30 14420 C 1381.6 1.65399 -4.27092 0
M  V30 14421 N 1383.09 1.72448 -4.29902 0
M  V30 14422 C 1383.82 2.02789 -5.36343 0
M  V30 14423 N 1383.32 2.31354 -6.53029 0
M  V30 14424 N 1385.11 2.0404 -5.23759 0
M  V30 14425 H 1377.26 -0.253253 -2.10885 0
M  V30 14426 H 1379.53 -0.0507111 -0.946643 0
M  V30 14427 H 1379.23 0.405247 -3.49357 0
M  V30 14428 H 1379.11 2.11574 -3.12276 0
M  V30 14429 H 1381.49 2.03831 -2.13394 0
M  V30 14430 H 1381.57 0.317603 -2.53821 0
M  V30 14431 H 1381.22 0.901704 -4.99832 0
M  V30 14432 H 1381.15 2.6279 -4.56343 0
M  V30 14433 H 1383.64 1.52532 -3.45749 0
M  V30 14434 H 1383.95 2.53695 -7.29972 0
M  V30 14435 H 1382.3 2.28811 -6.56255 0
M  V30 14436 H 1385.49 1.812 -4.31606 0
M  V30 14437 H 1385.66 2.27353 -6.06807 0
M  V30 14438 N 1379.07 1.38501 0.752011 0
M  V30 14439 C 1380.48 1.31086 1.32941 0
M  V30 14440 C 1380.83 -0.0326248 1.96173 0
M  V30 14441 O 1379.95 -0.934692 1.95173 0
M  V30 14442 C 1380.55 2.37395 2.41721 0
M  V30 14443 C 1379.11 2.33553 2.95177 0
M  V30 14444 C 1378.26 2.20178 1.68573 0
M  V30 14445 H 1381.21 1.48836 0.550771 0
M  V30 14446 H 1381.23 2.03202 3.21697 0
M  V30 14447 H 1380.74 3.35164 1.9567 0
M  V30 14448 H 1378.84 1.39371 3.45553 0
M  V30 14449 H 1378.95 3.27753 3.49449 0
M  V30 14450 H 1377.32 1.67057 1.9226 0
M  V30 14451 H 1378.1 3.19891 1.24599 0
M  V30 14452 N 1380.55 -0.980364 1.23396 0
M  V30 14453 C 1381.96 -1.53622 1.061 0
M  V30 14454 C 1382.31 -1.92648 -0.371645 0
M  V30 14455 O 1381.43 -1.76051 -1.25837 0
M  V30 14456 C 1382.03 -2.79159 1.91979 0
M  V30 14457 C 1380.59 -3.31144 1.78943 0
M  V30 14458 C 1379.73 -2.04135 1.87681 0
M  V30 14459 H 1382.68 -0.800047 1.37058 0
M  V30 14460 H 1382.71 -3.52011 1.4446 0
M  V30 14461 H 1382.22 -2.50723 2.96242 0
M  V30 14462 H 1380.32 -3.64459 0.774634 0
M  V30 14463 H 1380.43 -4.009 2.62329 0
M  V30 14464 H 1378.8 -2.18271 1.31262 0
M  V30 14465 H 1379.58 -1.78081 2.93499 0
M  V30 14466 N 1382.02 -1.04567 -1.17913 0
M  V30 14467 C 1383.43 -0.779118 -1.69666 0
M  V30 14468 C 1383.79 0.699448 -1.83309 0
M  V30 14469 O 1382.91 1.54407 -1.51616 0
M  V30 14470 C 1383.51 -1.40769 -3.08171 0
M  V30 14471 C 1382.06 -1.18933 -3.57116 0
M  V30 14472 C 1381.21 -1.49519 -2.33536 0
M  V30 14473 H 1384.16 -1.21144 -1.02518 0
M  V30 14474 H 1384.18 -0.813584 -3.717 0
M  V30 14475 H 1383.7 -2.4838 -2.9821 0
M  V30 14476 H 1381.8 -0.132184 -3.72365 0
M  V30 14477 H 1381.91 -1.88987 -4.40251 0
M  V30 14478 H 1380.27 -0.915056 -2.37695 0
M  V30 14479 H 1381.06 -2.5825 -2.26189 0
M  V30 14480 N 1383.5 1.34231 -0.825823 0
M  V30 14481 C 1384.91 1.8059 -0.473724 0
M  V30 14482 C 1385.26 1.68438 1.00614 0
M  V30 14483 O 1384.39 1.22606 1.78317 0
M  V30 14484 C 1384.98 3.27884 -0.853099 0
M  V30 14485 C 1383.54 3.72311 -0.553327 0
M  V30 14486 C 1382.69 2.55889 -1.06845 0
M  V30 14487 H 1385.64 1.21937 -1.01573 0
M  V30 14488 H 1385.66 3.80172 -0.158014 0
M  V30 14489 H 1385.17 3.36696 -1.93021 0
M  V30 14490 H 1383.27 3.69034 0.514256 0
M  V30 14491 H 1383.39 4.66315 -1.09942 0
M  V30 14492 H 1381.75 2.49945 -0.489874 0
M  V30 14493 H 1382.53 2.67471 -2.15207 0
M  V30 14494 N 1384.98 0.581051 1.46498 0
M  V30 14495 C 1386.4 0.242599 1.57745 0
M  V30 14496 C 1386.6 -1.25508 1.57639 0
M  V30 14497 O 1385.65 -2.0367 1.49247 0
M  V30 14498 C 1386.96 0.890342 2.87217 0
M  V30 14499 C 1388.51 0.863778 3.00845 0
M  V30 14500 C 1388.99 1.49103 4.3305 0
M  V30 14501 N 1390.48 1.4553 4.39745 0
M  V30 14502 C 1391.21 1.91003 5.40653 0
M  V30 14503 N 1390.71 2.44442 6.48244 0
M  V30 14504 N 1392.5 1.8193 5.31844 0
M  V30 14505 H 1384.65 1.55382 1.44811 0
M  V30 14506 H 1386.92 0.649375 0.690664 0
M  V30 14507 H 1386.62 1.94383 2.93101 0
M  V30 14508 H 1386.5 0.397569 3.75099 0
M  V30 14509 H 1388.88 -0.181089 2.94544 0
M  V30 14510 H 1388.96 1.39455 2.14443 0
M  V30 14511 H 1388.61 2.53509 4.40109 0
M  V30 14512 H 1388.54 0.935496 5.18224 0
M  V30 14513 H 1391.03 1.06466 3.62593 0
M  V30 14514 H 1391.34 2.77002 7.2145 0
M  V30 14515 H 1389.69 2.48467 6.49068 0
M  V30 14516 H 1392.88 1.3994 4.46693 0
M  V30 14517 H 1393.05 2.17685 6.10342 0
M  V30 14518 N 1386.46 -1.54343 0.318742 0
M  V30 14519 C 1387.42 -2.22828 -0.536679 0
M  V30 14520 C 1388.42 -1.22013 -1.04735 0
M  V30 14521 O 1389.61 -1.46626 -0.940549 0
M  V30 14522 C 1386.74 -2.92857 -1.74493 0
M  V30 14523 H 1387.94 -2.99836 0.0619325 0
M  V30 14524 H 1385.49 -1.56144 0.0697687 0
M  V30 14525 H 1386.22 -2.19973 -2.3829 0
M  V30 14526 H 1386.01 -3.66779 -1.38621 0
M  V30 14527 H 1387.5 -3.45049 -2.35225 0
M  V30 14528 N 1387.94 -0.0468143 -1.5753 0
M  V30 14529 C 1389.16 0.637648 -1.96829 0
M  V30 14530 C 1389.58 1.64635 -0.924158 0
M  V30 14531 O 1388.94 1.82267 0.0921139 0
M  V30 14532 C 1388.99 1.32842 -3.36207 0
M  V30 14533 O 1388.71 0.360111 -4.36617 0
M  V30 14534 C 1390.21 2.10305 -3.90239 0
M  V30 14535 H 1387.43 0.174634 -0.647876 0
M  V30 14536 H 1389.97 -0.111824 -2.04194 0
M  V30 14537 H 1388.13 2.02915 -3.30006 0
M  V30 14538 H 1388.54 0.852661 -5.17523 0
M  V30 14539 H 1390.02 2.54065 -4.90056 0
M  V30 14540 H 1390.49 2.94942 -3.25432 0
M  V30 14541 H 1391.1 1.45152 -3.99764 0
M  V30 14542 N 1389.41 1.55964 0.226527 0
M  V30 14543 C 1390.38 1.91184 1.26418 0
M  V30 14544 C 1391.38 0.789982 1.40057 0
M  V30 14545 O 1392.57 1.05778 1.38407 0
M  V30 14546 C 1389.7 2.15826 2.63878 0
M  V30 14547 H 1390.89 2.83986 0.963956 0
M  V30 14548 H 1388.45 1.49169 0.466726 0
M  V30 14549 H 1389.18 1.2556 2.99007 0
M  V30 14550 H 1388.97 2.97549 2.55356 0
M  V30 14551 H 1390.46 2.44188 3.38765 0
M  V30 14552 N 1390.89 -0.493031 1.4969 0
M  V30 14553 C 1392.31 -0.824908 1.36629 0
M  V30 14554 C 1392.51 -1.97378 0.405487 0
M  V30 14555 O 1391.56 -2.51993 -0.159933 0
M  V30 14556 C 1392.88 -1.15761 2.77524 0
M  V30 14557 C 1394.43 -1.26536 2.86282 0
M  V30 14558 C 1394.9 -1.63131 4.27963 0
M  V30 14559 N 1396.39 -1.70165 4.30811 0
M  V30 14560 C 1397.13 -1.99942 5.37411 0
M  V30 14561 N 1396.62 -2.27888 6.54247 0
M  V30 14562 N 1398.42 -2.0126 5.24834 0
M  V30 14563 H 1390.57 0.264433 2.10748 0
M  V30 14564 H 1392.83 0.0557306 0.94636 0
M  V30 14565 H 1392.54 -0.386714 3.49567 0
M  V30 14566 H 1392.41 -2.09915 3.13393 0
M  V30 14567 H 1394.8 -2.02696 2.14472 0
M  V30 14568 H 1394.88 -0.304137 2.53986 0
M  V30 14569 H 1394.52 -0.875184 5.00303 0
M  V30 14570 H 1394.45 -2.60367 4.5773 0
M  V30 14571 H 1396.94 -1.50696 3.46553 0
M  V30 14572 H 1397.26 -2.4982 7.31307 0
M  V30 14573 H 1395.6 -2.25327 6.57459 0
M  V30 14574 H 1398.79 -1.78909 4.32561 0
M  V30 14575 H 1398.96 -2.24131 6.08004 0
M  V30 14576 N 1392.37 -1.38898 -0.744656 0
M  V30 14577 C 1393.3 -1.39571 -1.87195 0
M  V30 14578 C 1394.28 -0.260372 -1.68095 0
M  V30 14579 O 1395.47 -0.464776 -1.88556 0
M  V30 14580 C 1392.6 -1.22889 -3.24832 0
M  V30 14581 C 1391.55 -2.33721 -3.58551 0
M  V30 14582 C 1390.88 -2.02136 -4.9502 0
M  V30 14583 C 1392.18 -3.7601 -3.62511 0
M  V30 14584 H 1393.87 -2.33908 -1.86889 0
M  V30 14585 H 1391.42 -1.12591 -0.897739 0
M  V30 14586 H 1393.37 -1.21983 -4.03359 0
M  V30 14587 H 1392.09 -0.250172 -3.2564 0
M  V30 14588 H 1390.75 -2.33828 -2.82348 0
M  V30 14589 H 1390.4 -1.02726 -4.92399 0
M  V30 14590 H 1390.1 -2.76371 -5.18549 0
M  V30 14591 H 1391.62 -2.02864 -5.75915 0
M  V30 14592 H 1393.04 -3.77885 -4.31133 0
M  V30 14593 H 1391.44 -4.49524 -3.97553 0
M  V30 14594 H 1392.51 -4.07682 -2.62533 0
M  V30 14595 N 1393.85 0.973806 -1.23914 0
M  V30 14596 C 1395.26 1.53057 -1.06913 0
M  V30 14597 C 1395.61 1.92842 0.361423 0
M  V30 14598 O 1394.74 1.76716 1.24901 0
M  V30 14599 C 1395.33 2.78137 -1.93457 0
M  V30 14600 C 1393.89 3.3019 -1.80697 0
M  V30 14601 C 1393.04 2.03137 -1.88761 0
M  V30 14602 H 1395.99 0.792767 -1.37481 0
M  V30 14603 H 1396.01 3.5124 -1.46325 0
M  V30 14604 H 1395.52 2.49149 -2.97568 0
M  V30 14605 H 1393.62 3.64043 -0.793951 0
M  V30 14606 H 1393.73 3.99503 -2.64451 0
M  V30 14607 H 1392.1 2.17572 -1.32418 0
M  V30 14608 H 1392.88 1.76522 -2.9444 0
M  V30 14609 N 1395.33 1.05191 1.17357 0
M  V30 14610 C 1396.26 0.610878 2.20909 0
M  V30 14611 C 1397.27 -0.325369 1.59515 0
M  V30 14612 O 1398.46 -0.118104 1.78109 0
M  V30 14613 C 1395.56 -0.126086 3.38665 0
M  V30 14614 C 1394.73 0.820857 4.29629 0
M  V30 14615 C 1393.79 0.125154 5.26051 0
M  V30 14616 O 1392.82 0.759245 5.64114 0
M  V30 14617 N 1394.02 -1.13742 5.69248 0
M  V30 14618 H 1396.79 1.50158 2.5937 0
M  V30 14619 H 1394.35 0.933814 1.32256 0
M  V30 14620 H 1396.34 -0.601627 4.00203 0
M  V30 14621 H 1394.91 -0.918459 2.98803 0
M  V30 14622 H 1394.13 1.47602 3.65523 0
M  V30 14623 H 1395.42 1.46363 4.87294 0
M  V30 14624 H 1394.81 -1.67291 5.40398 0
M  V30 14625 H 1393.37 -1.55703 6.3293 0
M  V30 14626 N 1396.8 -1.33791 0.83293 0
M  V30 14627 C 1398.22 -1.50893 0.519955 0
M  V30 14628 C 1398.42 -1.7749 -0.953919 0
M  V30 14629 O 1397.48 -1.83168 -1.73798 0
M  V30 14630 C 1398.79 -2.66741 1.38815 0
M  V30 14631 C 1400.34 -2.80625 1.38631 0
M  V30 14632 C 1400.81 -3.99528 2.23922 0
M  V30 14633 N 1402.3 -4.06753 2.21599 0
M  V30 14634 C 1403.04 -4.97937 2.84335 0
M  V30 14635 N 1402.53 -5.94276 3.561 0
M  V30 14636 N 1404.33 -4.90887 2.73837 0
M  V30 14637 H 1396.48 -1.14788 1.7871 0
M  V30 14638 H 1398.74 -0.563822 0.762108 0
M  V30 14639 H 1398.45 -2.53748 2.43525 0
M  V30 14640 H 1398.32 -3.62001 1.05996 0
M  V30 14641 H 1400.71 -2.93053 0.346951 0
M  V30 14642 H 1400.79 -1.86144 1.75454 0
M  V30 14643 H 1400.43 -3.8786 3.27914 0
M  V30 14644 H 1400.36 -4.93242 1.84444 0
M  V30 14645 H 1402.85 -3.37802 1.69406 0
M  V30 14646 H 1403.17 -6.60504 4.01191 0
M  V30 14647 H 1401.51 -5.9437 3.60207 0
M  V30 14648 H 1404.7 -4.14586 2.17338 0
M  V30 14649 H 1404.88 -5.61752 3.23014 0
M  V30 14650 N 1398.28 -0.588812 -1.46187 0
M  V30 14651 C 1399.53 -0.0765765 -2.01955 0
M  V30 14652 C 1399.85 1.29034 -1.46203 0
M  V30 14653 O 1399.12 1.84836 -0.649044 0
M  V30 14654 H 1397.7 -0.025318 -0.746571 0
M  V30 14655 H 1400.36 -0.765971 -1.79217 0
M  V30 14656 H 1399.46 -0.0121702 -3.12098 0
M  V30 14657 N 1399.76 1.54172 -0.326923 0
M  V30 14658 C 1401 2.02539 0.275192 0
M  V30 14659 C 1401.36 1.2099 1.49082 0
M  V30 14660 O 1402.57 1.59176 2.16602 0
M  V30 14661 C 1400.84 3.52366 0.597767 0
M  V30 14662 S 1402.4 4.22663 1.17906 0
M  V30 14663 H 1399.21 0.706135 0.0830286 0
M  V30 14664 H 1401.82 1.89991 -0.460826 0
M  V30 14665 H 1400.52 4.09338 -0.295052 0
M  V30 14666 H 1400.05 3.69001 1.36389 0
M  V30 14667 H 1402.07 4.30601 2.46571 0
M  V30 14668 N 1401.24 0.0551678 1.57503 0
M  V30 14669 C 1402.65 -0.479948 1.80426 0
M  V30 14670 C 1403 -1.70673 0.967733 0
M  V30 14671 O 1402.13 -2.15604 0.185462 0
M  V30 14672 C 1402.72 -0.877496 3.27239 0
M  V30 14673 C 1401.28 -1.35757 3.51066 0
M  V30 14674 C 1400.43 -0.334681 2.75273 0
M  V30 14675 H 1403.38 0.281016 1.56192 0
M  V30 14676 H 1403.4 -1.74013 3.38378 0
M  V30 14677 H 1402.91 0.015571 3.88097 0
M  V30 14678 H 1401.01 -2.26969 2.95492 0
M  V30 14679 H 1401.12 -1.34697 4.59776 0
M  V30 14680 H 1399.49 -0.808421 2.4153 0
M  V30 14681 H 1400.27 0.550369 3.3886 0
M  V30 14682 N 1402.72 -1.56081 -0.218252 0
M  V30 14683 C 1403.96 -1.78893 -0.940296 0
M  V30 14684 C 1404.29 -0.62425 -1.84738 0
M  V30 14685 O 1403.56 0.358686 -1.92588 0
M  V30 14686 H 1402.14 -0.659828 -0.350193 0
M  V30 14687 H 1404.8 -1.93546 -0.229316 0
M  V30 14688 H 1403.89 -2.71167 -1.54516 0
M  V30 14689 N 1404.2 0.485086 -1.49949 0
M  V30 14690 C 1405.47 1.24639 -1.50747 0
M  V30 14691 C 1405.85 2.09683 -0.244162 0
M  V30 14692 O 1405.2 2.1503 0.772949 0
M  V30 14693 C 1405.41 2.08946 -2.7954 0
M  V30 14694 C 1406.76 2.67604 -3.29656 0
M  V30 14695 O 1407.78 2.192 -2.80766 0
M  V30 14696 O 1406.64 3.55761 -4.14845 0
M  V30 14697 H 1403.74 0.564849 -0.604049 0
M  V30 14698 H 1406.28 0.498052 -1.62227 0
M  V30 14699 H 1405.05 1.46185 -3.62968 0
M  V30 14700 H 1404.68 2.90941 -2.70997 0
M  V30 14701 N 1405.67 1.39291 0.737279 0
M  V30 14702 C 1406.92 1.36121 1.49384 0
M  V30 14703 C 1407.24 -0.0429406 1.94953 0
M  V30 14704 O 1406.51 -0.993756 1.68823 0
M  V30 14705 H 1405.09 0.500916 0.554159 0
M  V30 14706 H 1407.75 1.74134 0.875402 0
M  V30 14707 H 1406.85 2.02246 2.37704 0
M  V30 14708 N 1407.15 -0.967221 1.24429 0
M  V30 14709 C 1408.56 -1.52488 1.07723 0
M  V30 14710 C 1408.91 -1.93031 -0.351191 0
M  V30 14711 O 1408.04 -1.77376 -1.23963 0
M  V30 14712 C 1408.63 -2.77107 1.94929 0
M  V30 14713 C 1407.19 -3.29227 1.82446 0
M  V30 14714 C 1406.34 -2.02133 1.89835 0
M  V30 14715 H 1409.29 -0.785465 1.37899 0
M  V30 14716 H 1409.31 -3.50459 1.48186 0
M  V30 14717 H 1408.82 -2.47567 2.98885 0
M  V30 14718 H 1406.92 -3.63617 0.813246 0
M  V30 14719 H 1407.04 -3.98095 2.66566 0
M  V30 14720 H 1405.4 -2.16867 1.3357 0
M  V30 14721 H 1406.18 -1.74958 2.95372 0
M  V30 14722 N 1408.63 -1.05812 -1.16797 0
M  V30 14723 C 1409.54 -0.675541 -2.24663 0
M  V30 14724 C 1410.56 0.30622 -1.71284 0
M  V30 14725 O 1411.73 0.156752 -2.00789 0
M  V30 14726 C 1408.8 -0.0627149 -3.46643 0
M  V30 14727 C 1407.86 -1.09572 -4.15081 0
M  V30 14728 C 1407.09 -0.512044 -5.31238 0
M  V30 14729 O 1407.31 0.676665 -5.66372 0
M  V30 14730 O 1406.25 -1.24936 -5.88791 0
M  V30 14731 H 1410.07 -1.57467 -2.59688 0
M  V30 14732 H 1407.66 -0.830073 -1.24218 0
M  V30 14733 H 1409.54 0.277543 -4.20485 0
M  V30 14734 H 1408.22 0.80997 -3.13403 0
M  V30 14735 H 1407.12 -1.48807 -3.4323 0
M  V30 14736 H 1408.46 -1.93977 -4.52365 0
M  V30 14737 N 1410.11 1.33347 -0.840014 0
M  V30 14738 C 1411.07 2.27492 -0.279264 0
M  V30 14739 C 1412.07 1.51004 0.552669 0
M  V30 14740 O 1413.26 1.70305 0.366295 0
M  V30 14741 C 1410.39 3.35462 0.606466 0
M  V30 14742 H 1411.59 2.78601 -1.11001 0
M  V30 14743 H 1409.14 1.4377 -0.613187 0
M  V30 14744 H 1409.87 2.89596 1.45961 0
M  V30 14745 H 1409.66 3.92098 0.0111889 0
M  V30 14746 H 1411.15 4.05645 0.992052 0
M  V30 14747 N 1411.59 0.596556 1.45873 0
M  V30 14748 C 1412.83 0.0872856 2.01911 0
M  V30 14749 C 1413.15 -1.28257 1.46885 0
M  V30 14750 O 1412.42 -1.84489 0.658837 0
M  V30 14751 H 1411 0.0292769 0.746426 0
M  V30 14752 H 1413.67 0.775464 1.78809 0
M  V30 14753 H 1412.76 0.0287213 3.12087 0
M  V30 14754 N 1413.06 -1.53996 0.335095 0
M  V30 14755 C 1414.48 -1.59591 -0.0171422 0
M  V30 14756 C 1414.68 -1.35132 -1.49471 0
M  V30 14757 O 1413.74 -1.14141 -2.25229 0
M  V30 14758 C 1415.05 -2.97872 0.411443 0
M  V30 14759 C 1416.6 -3.10887 0.363072 0
M  V30 14760 C 1417.07 -4.51532 0.766995 0
M  V30 14761 N 1418.56 -4.57557 0.72085 0
M  V30 14762 C 1419.3 -5.64516 1.00544 0
M  V30 14763 N 1418.79 -6.79365 1.35777 0
M  V30 14764 N 1420.59 -5.54349 0.930243 0
M  V30 14765 H 1412.74 -1.68151 1.29766 0
M  V30 14766 H 1415 -0.787067 0.528422 0
M  V30 14767 H 1414.71 -3.20809 1.44134 0
M  V30 14768 H 1414.58 -3.76571 -0.217678 0
M  V30 14769 H 1416.97 -2.87679 -0.657642 0
M  V30 14770 H 1417.05 -2.34266 1.02728 0
M  V30 14771 H 1416.69 -4.75474 1.78568 0
M  V30 14772 H 1416.62 -5.26539 0.0803511 0
M  V30 14773 H 1419.11 -3.75079 0.460867 0
M  V30 14774 H 1419.43 -7.56891 1.55999 0
M  V30 14775 H 1417.77 -6.80833 1.39614 0
M  V30 14776 H 1420.96 -4.63503 0.654402 0
M  V30 14777 H 1421.14 -6.37616 1.15539 0
M  V30 14778 N 1414.54 -0.0635198 -1.57472 0
M  V30 14779 C 1415.95 0.470372 -1.80678 0
M  V30 14780 C 1416.3 1.70158 -0.976771 0
M  V30 14781 O 1415.43 2.15502 -0.196893 0
M  V30 14782 C 1416.02 0.860129 -3.277 0
M  V30 14783 C 1414.58 1.33893 -3.51781 0
M  V30 14784 C 1413.73 0.320078 -2.75447 0
M  V30 14785 H 1416.68 -0.289295 -1.56041 0
M  V30 14786 H 1416.7 1.72216 -3.39296 0
M  V30 14787 H 1416.21 -0.0361525 -3.88083 0
M  V30 14788 H 1414.31 2.25399 -2.96692 0
M  V30 14789 H 1414.43 1.32257 -4.60483 0
M  V30 14790 H 1412.79 0.795601 -2.41955 0
M  V30 14791 H 1413.57 -0.568332 -3.38563 0
M  V30 14792 N 1416.02 1.56195 0.209972 0
M  V30 14793 C 1416.98 1.92514 1.24383 0
M  V30 14794 C 1417.98 0.804793 1.39211 0
M  V30 14795 O 1419.17 1.0724 1.37278 0
M  V30 14796 C 1416.3 2.18613 2.61574 0
M  V30 14797 H 1417.5 2.84992 0.933781 0
M  V30 14798 H 1415.05 1.49656 0.450878 0
M  V30 14799 H 1415.79 1.28724 2.97659 0
M  V30 14800 H 1415.57 3.00241 2.52186 0
M  V30 14801 H 1417.06 2.47767 3.36156 0
M  V30 14802 N 1417.5 -0.477127 1.50204 0
M  V30 14803 C 1418.77 -1.23837 1.51406 0
M  V30 14804 C 1419.15 -2.09551 0.255278 0
M  V30 14805 O 1418.5 -2.15437 -0.761535 0
M  V30 14806 C 1418.71 -2.0746 2.80644 0
M  V30 14807 C 1420.06 -2.65852 3.31071 0
M  V30 14808 O 1421.08 -2.17708 2.81925 0
M  V30 14809 O 1419.94 -3.53556 4.16726 0
M  V30 14810 H 1417.04 -0.561638 0.607036 0
M  V30 14811 H 1419.58 -0.489442 1.62489 0
M  V30 14812 H 1418.36 -1.44258 3.63738 0
M  V30 14813 H 1417.98 -2.895 2.72536 0
M  V30 14814 N 1418.98 -1.3968 -0.729882 0
M  V30 14815 C 1419.92 -1.38808 -1.84393 0
M  V30 14816 C 1420.89 -0.247035 -1.64253 0
M  V30 14817 O 1422.08 -0.44293 -1.85588 0
M  V30 14818 C 1419.22 -1.2424 -3.2196 0
M  V30 14819 C 1418.33 -2.47932 -3.53771 0
M  V30 14820 C 1417.47 -2.25913 -4.80767 0
M  V30 14821 C 1416.51 -3.45254 -5.05436 0
M  V30 14822 N 1415.64 -3.2252 -6.23638 0
M  V30 14823 H 1420.48 -2.34038 -1.84473 0
M  V30 14824 H 1418.02 -1.16252 -0.901332 0
M  V30 14825 H 1419.98 -1.13804 -4.01378 0
M  V30 14826 H 1418.61 -0.326375 -3.21146 0
M  V30 14827 H 1417.66 -2.68952 -2.69015 0
M  V30 14828 H 1418.97 -3.36806 -3.67917 0
M  V30 14829 H 1418.13 -2.12748 -5.68175 0
M  V30 14830 H 1416.86 -1.34441 -4.68804 0
M  V30 14831 H 1415.87 -3.58912 -4.16488 0
M  V30 14832 H 1417.09 -4.37634 -5.19282 0
M  V30 14833 H 1415.04 -2.33718 -6.12953 0
M  V30 14834 H 1414.96 -4.04954 -6.38395 0
M  V30 14835 H 1416.23 -3.1306 -7.13872 0
M  V30 14836 N 1420.45 0.960609 -1.2494 0
M  V30 14837 C 1421.7 1.69884 -1.08731 0
M  V30 14838 C 1422.02 1.92018 0.372602 0
M  V30 14839 O 1423.22 2.6348 0.655018 0
M  V30 14840 C 1421.68 3.05815 -1.8975 0
M  V30 14841 C 1421.29 2.91498 -3.40196 0
M  V30 14842 C 1423.03 3.83462 -1.82092 0
M  V30 14843 C 1420.94 4.22783 -4.13532 0
M  V30 14844 H 1419.87 0.637087 -0.403281 0
M  V30 14845 H 1422.52 1.06987 -1.49084 0
M  V30 14846 H 1420.9 3.69582 -1.42216 0
M  V30 14847 H 1422.07 2.367 -3.9536 0
M  V30 14848 H 1420.39 2.27312 -3.48882 0
M  V30 14849 H 1422.99 4.8069 -2.34181 0
M  V30 14850 H 1423.33 4.08782 -0.787597 0
M  V30 14851 H 1423.86 3.26435 -2.27344 0
M  V30 14852 H 1420.6 4.02653 -5.17253 0
M  V30 14853 H 1420.12 4.77369 -3.63152 0
M  V30 14854 H 1421.8 4.91361 -4.2092 0
M  V30 14855 N 1421.93 1.0643 1.16234 0
M  V30 14856 C 1422.86 0.634274 2.20249 0
M  V30 14857 C 1423.88 -0.308432 1.59852 0
M  V30 14858 O 1425.07 -0.0992067 1.78224 0
M  V30 14859 C 1422.17 -0.0901593 3.3878 0
M  V30 14860 C 1421.34 0.866379 4.28734 0
M  V30 14861 C 1420.4 0.180942 5.25889 0
M  V30 14862 O 1419.42 0.819034 5.63277 0
M  V30 14863 N 1420.63 -1.07698 5.70422 0
M  V30 14864 H 1423.39 1.52901 2.57762 0
M  V30 14865 H 1420.95 0.947789 1.31258 0
M  V30 14866 H 1422.94 -0.559147 4.00819 0
M  V30 14867 H 1421.51 -0.886715 2.9976 0
M  V30 14868 H 1420.73 1.51471 3.63937 0
M  V30 14869 H 1422.02 1.51524 4.85714 0
M  V30 14870 H 1421.42 -1.6155 5.42142 0
M  V30 14871 H 1419.98 -1.48981 6.34545 0
M  V30 14872 N 1423.41 -1.329 0.847073 0
M  V30 14873 C 1424.34 -2.27027 0.231111 0
M  V30 14874 C 1425.32 -1.50045 -0.626524 0
M  V30 14875 O 1426.51 -1.79193 -0.58499 0
M  V30 14876 C 1423.63 -3.31911 -0.67472 0
M  V30 14877 C 1422.68 -4.26362 0.108531 0
M  V30 14878 S 1423.51 -5.14874 1.4719 0
M  V30 14879 C 1424.67 -6.23285 0.571586 0
M  V30 14880 H 1424.9 -2.78922 1.02906 0
M  V30 14881 H 1422.43 -1.40315 0.64428 0
M  V30 14882 H 1424.39 -3.92821 -1.19172 0
M  V30 14883 H 1423.05 -2.78815 -1.44641 0
M  V30 14884 H 1422.25 -5.00639 -0.581079 0
M  V30 14885 H 1421.85 -3.69831 0.556863 0
M  V30 14886 H 1424.14 -6.77119 -0.227261 0
M  V30 14887 H 1425.08 -6.96347 1.28477 0
M  V30 14888 H 1425.49 -5.64303 0.149291 0
M  V30 14889 N 1424.89 -0.604284 -1.45555 0
M  V30 14890 C 1425.85 0.106526 -2.28952 0
M  V30 14891 C 1426.85 0.798277 -1.39586 0
M  V30 14892 O 1428.04 0.646943 -1.61741 0
M  V30 14893 C 1425.17 1.16091 -3.20524 0
M  V30 14894 H 1426.37 -0.626655 -2.9328 0
M  V30 14895 H 1423.92 -0.363183 -1.52022 0
M  V30 14896 H 1424.65 1.92496 -2.6099 0
M  V30 14897 H 1424.44 0.669137 -3.86348 0
M  V30 14898 H 1425.93 1.65882 -3.8324 0
M  V30 14899 N 1426.37 1.53816 -0.343257 0
M  V30 14900 C 1427.3 2.21306 0.556696 0
M  V30 14901 C 1428.28 1.19697 1.10051 0
M  V30 14902 O 1429.46 1.48515 1.16084 0
M  V30 14903 C 1426.59 2.89026 1.76583 0
M  V30 14904 C 1425.63 4.04521 1.35149 0
M  V30 14905 S 1426.47 5.3421 0.37154 0
M  V30 14906 C 1427.62 6.05433 1.58751 0
M  V30 14907 H 1427.86 2.97295 -0.0165367 0
M  V30 14908 H 1425.39 1.53874 -0.127331 0
M  V30 14909 H 1427.35 3.28662 2.45951 0
M  V30 14910 H 1426.01 2.12803 2.31028 0
M  V30 14911 H 1425.2 4.50839 2.25301 0
M  V30 14912 H 1424.8 3.66661 0.737296 0
M  V30 14913 H 1427.1 6.28808 2.52203 0
M  V30 14914 H 1428.04 6.98432 1.16613 0
M  V30 14915 H 1428.45 5.35588 1.78343 0
M  V30 14916 N 1427.84 0.0718701 1.57436 0
M  V30 14917 C 1429.09 -0.598116 1.93779 0
M  V30 14918 C 1429.42 -1.69258 0.952131 0
M  V30 14919 O 1428.7 -1.94491 -0.0186426 0
M  V30 14920 C 1428.98 -1.17499 3.40391 0
M  V30 14921 C 1428.83 -0.0871719 4.49716 0
M  V30 14922 C 1430.15 -2.08047 3.8782 0
M  V30 14923 H 1427.27 -0.215954 0.704651 0
M  V30 14924 H 1429.91 0.137854 1.89499 0
M  V30 14925 H 1428.06 -1.80221 3.44169 0
M  V30 14926 H 1429.74 0.545906 4.58058 0
M  V30 14927 H 1427.98 0.582213 4.29875 0
M  V30 14928 H 1428.65 -0.531202 5.49438 0
M  V30 14929 H 1431.13 -1.5526 3.86049 0
M  V30 14930 H 1430 -2.45345 4.91016 0
M  V30 14931 H 1430.26 -2.98879 3.25766 0
M  V30 14932 N 1429.32 -1.56304 -0.201686 0
M  V30 14933 C 1430.27 -1.90422 -1.25393 0
M  V30 14934 C 1431.26 -0.769236 -1.41321 0
M  V30 14935 O 1432.45 -1.03199 -1.43802 0
M  V30 14936 C 1429.58 -2.24157 -2.60016 0
M  V30 14937 C 1428.66 -3.44097 -2.47908 0
M  V30 14938 N 1429.05 -4.62185 -2.05471 0
M  V30 14939 C 1427.35 -3.48105 -2.78817 0
M  V30 14940 C 1428.05 -5.44345 -2.05095 0
M  V30 14941 N 1427.03 -4.84576 -2.46346 0
M  V30 14942 H 1430.83 -2.79227 -0.917045 0
M  V30 14943 H 1428.35 -1.57135 -0.410157 0
M  V30 14944 H 1430.34 -2.46782 -3.36012 0
M  V30 14945 H 1429 -1.36676 -2.94533 0
M  V30 14946 H 1430.01 -4.86974 -1.76285 0
M  V30 14947 H 1426.69 -2.71022 -3.17574 0
M  V30 14948 H 1428.08 -6.48914 -1.74242 0
M  V30 14949 N 1430.8 0.469154 -1.50455 0
M  V30 14950 C 1432.05 1.21868 -1.61222 0
M  V30 14951 C 1432.37 1.9243 -0.315535 0
M  V30 14952 O 1431.64 1.84192 0.667083 0
M  V30 14953 H 1430.22 0.452828 -0.594101 0
M  V30 14954 H 1432.88 0.540993 -1.87241 0
M  V30 14955 H 1431.98 1.96554 -2.42431 0
M  V30 14956 N 1432.28 1.40065 0.722464 0
M  V30 14957 C 1433.52 1.38175 1.48444 0
M  V30 14958 C 1433.86 -0.0182857 1.94191 0
M  V30 14959 O 1433.13 -0.985638 1.67677 0
M  V30 14960 C 1433.42 2.36518 2.71535 0
M  V30 14961 C 1433.27 3.85517 2.31726 0
M  V30 14962 C 1434.59 2.325 3.73673 0
M  V30 14963 H 1431.71 0.503221 0.538458 0
M  V30 14964 H 1434.35 1.7115 0.825087 0
M  V30 14965 H 1432.5 2.08529 3.27793 0
M  V30 14966 H 1434.17 4.24306 1.81003 0
M  V30 14967 H 1432.41 4.01684 1.63807 0
M  V30 14968 H 1433.08 4.49834 3.19928 0
M  V30 14969 H 1435.56 2.57277 3.27029 0
M  V30 14970 H 1434.44 3.03369 4.57447 0
M  V30 14971 H 1434.7 1.33427 4.21485 0
M  V30 14972 N 1433.76 -0.95397 1.25448 0
M  V30 14973 C 1434.99 -1.73331 1.12977 0
M  V30 14974 C 1435.4 -1.86131 -0.316364 0
M  V30 14975 O 1434.76 -1.35951 -1.21753 0
M  V30 14976 C 1434.81 -3.14675 1.77938 0
M  V30 14977 O 1434.53 -3.025 3.16899 0
M  V30 14978 C 1436.03 -4.08884 1.71256 0
M  V30 14979 H 1433.25 -0.543118 0.394036 0
M  V30 14980 H 1435.79 -1.19678 1.65823 0
M  V30 14981 H 1433.95 -3.6527 1.29062 0
M  V30 14982 H 1434.36 -3.91668 3.4885 0
M  V30 14983 H 1435.84 -5.05668 2.21368 0
M  V30 14984 H 1436.31 -4.33959 0.676476 0
M  V30 14985 H 1436.92 -3.64205 2.19624 0
M  V30 14986 N 1435.24 -1.07045 -1.15668 0
M  V30 14987 C 1436.46 -0.812746 -1.90268 0
M  V30 14988 C 1436.88 0.633722 -1.77847 0
M  V30 14989 O 1436.24 1.43444 -1.12828 0
M  V30 14990 C 1436.29 -1.20793 -3.40722 0
M  V30 14991 O 1436.01 -2.59764 -3.52781 0
M  V30 14992 C 1437.51 -0.979074 -4.32353 0
M  V30 14993 H 1434.73 -0.294093 -0.603117 0
M  V30 14994 H 1437.27 -1.42609 -1.46571 0
M  V30 14995 H 1435.43 -0.638975 -3.82094 0
M  V30 14996 H 1435.84 -2.75801 -4.46133 0
M  V30 14997 H 1437.32 -1.30513 -5.36349 0
M  V30 14998 H 1437.79 0.0847752 -4.39118 0
M  V30 14999 H 1438.4 -1.53278 -3.96719 0
M  V30 15000 N 1436.71 1.32449 -0.85411 0
M  V30 15001 C 1437.62 2.32658 -0.301221 0
M  V30 15002 C 1438.64 1.64025 0.580673 0
M  V30 15003 O 1439.82 1.95568 0.481172 0
M  V30 15004 C 1436.88 3.43049 0.501803 0
M  V30 15005 C 1435.94 4.27374 -0.406166 0
M  V30 15006 C 1435.17 5.32494 0.358627 0
M  V30 15007 O 1435.4 5.4783 1.58865 0
M  V30 15008 O 1434.33 6.0127 -0.275291 0
M  V30 15009 H 1438.16 2.81838 -1.13143 0
M  V30 15010 H 1435.74 1.36063 -0.617032 0
M  V30 15011 H 1437.62 4.10375 0.957608 0
M  V30 15012 H 1436.3 2.9606 1.30882 0
M  V30 15013 H 1435.21 3.6286 -0.910136 0
M  V30 15014 H 1436.54 4.77887 -1.17835 0
M  V30 15015 N 1438.19 0.611994 1.45232 0
M  V30 15016 C 1439.1 -0.105981 2.3436 0
M  V30 15017 C 1440.12 -0.855785 1.515 0
M  V30 15018 O 1441.29 -0.812376 1.84289 0
M  V30 15019 C 1438.36 -1.08794 3.29188 0
M  V30 15020 C 1437.42 -0.339611 4.27955 0
M  V30 15021 C 1436.65 -1.27479 5.18252 0
M  V30 15022 O 1436.88 -2.51279 5.12069 0
M  V30 15023 O 1435.81 -0.769469 5.96961 0
M  V30 15024 H 1439.64 0.626584 2.97166 0
M  V30 15025 H 1437.22 0.37224 1.44688 0
M  V30 15026 H 1439.1 -1.65338 3.8761 0
M  V30 15027 H 1437.78 -1.80145 2.68941 0
M  V30 15028 H 1436.68 0.268408 3.73136 0
M  V30 15029 H 1438.02 0.333501 4.91069 0
M  V30 15030 N 1439.67 -1.53632 0.351409 0
M  V30 15031 C 1440.91 -2.02951 -0.242935 0
M  V30 15032 C 1441.27 -1.23346 -1.47138 0
M  V30 15033 O 1442.47 -1.62602 -2.14042 0
M  V30 15034 C 1440.75 -3.53272 -0.541633 0
M  V30 15035 S 1442.3 -4.24485 -1.11167 0
M  V30 15036 H 1439.12 -0.707367 -0.071784 0
M  V30 15037 H 1441.72 -1.89234 0.490993 0
M  V30 15038 H 1440.43 -4.08817 0.360137 0
M  V30 15039 H 1439.96 -3.71124 -1.30502 0
M  V30 15040 H 1441.97 -4.34469 -2.39689 0
M  V30 15041 N 1441.15 -0.0802183 -1.57396 0
M  V30 15042 C 1442.08 0.913777 -2.10197 0
M  V30 15043 C 1443.09 1.25588 -1.03593 0
M  V30 15044 O 1444.28 1.21159 -1.31083 0
M  V30 15045 C 1441.38 2.2272 -2.55439 0
M  V30 15046 C 1440.55 2.06268 -3.8571 0
M  V30 15047 C 1439.61 3.20989 -4.16956 0
M  V30 15048 O 1438.64 2.95608 -4.8642 0
M  V30 15049 N 1439.84 4.46331 -3.71172 0
M  V30 15050 H 1442.61 0.462908 -2.96103 0
M  V30 15051 H 1440.17 0.105287 -1.61557 0
M  V30 15052 H 1442.16 2.98389 -2.73397 0
M  V30 15053 H 1440.73 2.59278 -1.74624 0
M  V30 15054 H 1439.95 1.15016 -3.77048 0
M  V30 15055 H 1441.24 1.92535 -4.70965 0
M  V30 15056 H 1440.64 4.69837 -3.15071 0
M  V30 15057 H 1439.19 5.18999 -3.94314 0
M  V30 15058 N 1442.63 1.56409 0.193394 0
M  V30 15059 C 1443.59 1.93822 1.22334 0
M  V30 15060 C 1444.59 0.819513 1.3835 0
M  V30 15061 O 1445.78 1.0869 1.36132 0
M  V30 15062 C 1442.91 2.21375 2.59241 0
M  V30 15063 H 1444.1 2.85967 0.903502 0
M  V30 15064 H 1441.66 1.50125 0.43498 0
M  V30 15065 H 1442.39 1.31874 2.96277 0
M  V30 15066 H 1442.18 3.02899 2.48988 0
M  V30 15067 H 1443.67 2.51319 3.33509 0
M  V30 15068 N 1444.1 -0.461169 1.50702 0
M  V30 15069 C 1445.07 -1.54032 1.69725 0
M  V30 15070 C 1446.07 -1.50445 0.567707 0
M  V30 15071 O 1447.26 -1.52889 0.834901 0
M  V30 15072 C 1444.39 -2.93642 1.73168 0
M  V30 15073 H 1445.58 -1.38478 2.66015 0
M  V30 15074 H 1443.13 -0.688235 1.40332 0
M  V30 15075 H 1443.87 -3.14629 0.786078 0
M  V30 15076 H 1443.65 -2.97652 2.55236 0
M  V30 15077 H 1445.14 -3.71972 1.89807 0
M  V30 15078 N 1445.58 -1.40446 -0.715026 0
M  V30 15079 C 1446.51 -1.43511 -1.84193 0
M  V30 15080 C 1447.49 -0.295969 -1.67505 0
M  V30 15081 O 1448.68 -0.504667 -1.87528 0
M  V30 15082 C 1445.81 -1.29751 -3.22152 0
M  V30 15083 C 1444.76 -2.41274 -3.53512 0
M  V30 15084 C 1444.09 -2.12591 -4.90621 0
M  V30 15085 C 1445.39 -3.83614 -3.54454 0
M  V30 15086 H 1447.08 -2.37819 -1.81885 0
M  V30 15087 H 1444.63 -1.14469 -0.873655 0
M  V30 15088 H 1446.58 -1.30511 -4.0068 0
M  V30 15089 H 1445.3 -0.319189 -3.25037 0
M  V30 15090 H 1443.96 -2.39764 -2.77324 0
M  V30 15091 H 1443.61 -1.13148 -4.90109 0
M  V30 15092 H 1443.31 -2.87308 -5.1257 0
M  V30 15093 H 1444.84 -2.15034 -5.71483 0
M  V30 15094 H 1446.25 -3.86945 -4.23021 0
M  V30 15095 H 1444.65 -4.57855 -3.87929 0
M  V30 15096 H 1445.72 -4.13159 -2.53827 0
M  V30 15097 N 1447.06 0.947303 -1.25952 0
M  V30 15098 C 1447.99 2.0487 -1.02767 0
M  V30 15099 C 1449 1.62797 0.00985984 0
M  V30 15100 O 1450.19 1.77018 -0.229527 0
M  V30 15101 C 1447.29 3.34682 -0.533048 0
M  V30 15102 C 1446.47 4.05555 -1.63841 0
M  V30 15103 C 1445.53 5.13638 -1.1429 0
M  V30 15104 O 1444.55 5.38682 -1.83876 0
M  V30 15105 N 1445.75 5.80499 0.0119377 0
M  V30 15106 H 1448.52 2.25327 -1.97605 0
M  V30 15107 H 1446.08 1.11636 -1.17256 0
M  V30 15108 H 1448.07 4.04273 -0.185868 0
M  V30 15109 H 1446.64 3.10941 0.321585 0
M  V30 15110 H 1445.86 3.29962 -2.15683 0
M  V30 15111 H 1447.15 4.49661 -2.38081 0
M  V30 15112 H 1446.55 5.62581 0.593212 0
M  V30 15113 H 1445.1 6.51109 0.30009 0
M  V30 15114 N 1448.54 1.07657 1.15099 0
M  V30 15115 C 1449.78 0.811006 1.87622 0
M  V30 15116 C 1450.14 -0.651144 1.80621 0
M  V30 15117 O 1451.34 -1.03188 2.48205 0
M  V30 15118 C 1449.61 1.30906 3.32563 0
M  V30 15119 S 1451.17 1.17465 4.22785 0
M  V30 15120 H 1447.99 0.293808 0.647455 0
M  V30 15121 H 1450.59 1.3763 1.38846 0
M  V30 15122 H 1449.3 2.36784 3.35204 0
M  V30 15123 H 1448.83 0.739107 3.86395 0
M  V30 15124 H 1450.84 0.114115 4.96069 0
M  V30 15125 N 1450.02 -1.31994 0.861122 0
M  V30 15126 C 1450.97 -2.26248 0.282123 0
M  V30 15127 C 1451.95 -1.50246 -0.57575 0
M  V30 15128 O 1453.14 -1.71845 -0.424075 0
M  V30 15129 C 1450.27 -3.39293 -0.523011 0
M  V30 15130 C 1449.36 -4.22673 0.34761 0
M  V30 15131 N 1449.75 -4.8496 1.43692 0
M  V30 15132 C 1448.05 -4.45785 0.138488 0
M  V30 15133 C 1448.75 -5.47215 1.97307 0
M  V30 15134 N 1447.72 -5.28525 1.27132 0
M  V30 15135 H 1451.53 -2.71936 1.11481 0
M  V30 15136 H 1449.04 -1.46158 0.707928 0
M  V30 15137 H 1451.04 -4.05832 -0.954269 0
M  V30 15138 H 1449.7 -2.95149 -1.35341 0
M  V30 15139 H 1450.71 -4.84873 1.81985 0
M  V30 15140 H 1447.38 -4.12303 -0.656677 0
M  V30 15141 H 1448.77 -6.06737 2.88652 0
M  V30 15142 N 1451.49 -0.619688 -1.44906 0
M  V30 15143 C 1452.74 -0.119397 -2.01747 0
M  V30 15144 C 1453.06 1.25904 -1.48907 0
M  V30 15145 O 1452.33 1.83417 -0.688104 0
M  V30 15146 H 1450.91 -0.0411482 -0.745866 0
M  V30 15147 H 1453.58 -0.803813 -1.77552 0
M  V30 15148 H 1452.67 -0.078368 -3.12002 0
M  V30 15149 N 1452.97 1.53444 -0.359552 0
M  V30 15150 C 1454.22 2.02152 0.224969 0
M  V30 15151 C 1454.57 1.24236 1.46912 0
M  V30 15152 O 1453.87 0.325976 1.88807 0
M  V30 15153 C 1454.06 3.5273 0.575863 0
M  V30 15154 C 1453.89 4.45226 -0.63273 0
M  V30 15155 C 1452.66 4.92204 -1.14296 0
M  V30 15156 C 1454.86 4.92058 -1.49611 0
M  V30 15157 N 1452.84 5.68692 -2.31221 0
M  V30 15158 C 1454.21 5.66829 -2.51208 0
M  V30 15159 C 1456.27 4.74141 -1.51969 0
M  V30 15160 C 1454.97 6.25587 -3.55012 0
M  V30 15161 C 1456.99 5.33761 -2.54663 0
M  V30 15162 C 1456.36 6.08412 -3.54984 0
M  V30 15163 H 1452.46 0.780693 0.0451987 0
M  V30 15164 H 1455.04 1.88097 -0.502735 0
M  V30 15165 H 1453.21 3.66958 1.27265 0
M  V30 15166 H 1454.94 3.88166 1.14495 0
M  V30 15167 H 1451.7 4.6827 -0.70853 0
M  V30 15168 H 1452.12 6.116 -2.90301 0
M  V30 15169 H 1456.76 4.15956 -0.757639 0
M  V30 15170 H 1454.48 6.82871 -4.32102 0
M  V30 15171 H 1458.07 5.21795 -2.57334 0
M  V30 15172 H 1456.95 6.53724 -4.33145 0
M  V30 15173 N 1454.45 0.0885642 1.57351 0
M  V30 15174 C 1455.68 -0.588641 1.98871 0
M  V30 15175 C 1456.1 -1.61333 0.967125 0
M  V30 15176 O 1455.46 -1.81183 -0.0652149 0
M  V30 15177 C 1455.51 -1.21877 3.39379 0
M  V30 15178 O 1454.61 -2.33462 3.39955 0
M  V30 15179 H 1453.95 -0.149938 0.64685 0
M  V30 15180 H 1456.48 0.168043 2.03909 0
M  V30 15181 H 1456.49 -1.56163 3.76931 0
M  V30 15182 H 1455.17 -0.468037 4.13258 0
M  V30 15183 H 1453.74 -2.00844 3.14191 0
M  V30 15184 N 1455.93 -1.56509 -0.185096 0
M  V30 15185 C 1457.17 -1.81474 -0.905263 0
M  V30 15186 C 1457.51 -0.664225 -1.82488 0
M  V30 15187 O 1456.78 0.33466 -1.91599 0
M  V30 15188 C 1457.07 -3.16754 -1.71287 0
M  V30 15189 C 1456.92 -4.42312 -0.817302 0
M  V30 15190 C 1458.24 -3.48828 -2.68342 0
M  V30 15191 H 1455.36 -0.660155 -0.327664 0
M  V30 15192 H 1458 -1.89219 -0.172129 0
M  V30 15193 H 1456.15 -3.10282 -2.33789 0
M  V30 15194 H 1457.82 -4.60839 -0.206218 0
M  V30 15195 H 1456.06 -4.33621 -0.124564 0
M  V30 15196 H 1456.73 -5.33487 -1.41758 0
M  V30 15197 H 1459.21 -3.55663 -2.15969 0
M  V30 15198 H 1458.09 -4.44585 -3.21924 0
M  V30 15199 H 1458.35 -2.72829 -3.47875 0
M  V30 15200 N 1457.41 0.45317 -1.50944 0
M  V30 15201 C 1458.34 1.56678 -1.67287 0
M  V30 15202 C 1459.35 1.53089 -0.553853 0
M  V30 15203 O 1460.54 1.58152 -0.827653 0
M  V30 15204 C 1457.64 2.95585 -1.65779 0
M  V30 15205 C 1456.81 3.2385 -2.94007 0
M  V30 15206 C 1455.87 4.42401 -2.84899 0
M  V30 15207 O 1454.9 4.4183 -3.58853 0
M  V30 15208 N 1456.1 5.4508 -1.99671 0
M  V30 15209 H 1458.87 1.43069 -2.63347 0
M  V30 15210 H 1456.43 0.641875 -1.48632 0
M  V30 15211 H 1458.42 3.7289 -1.57275 0
M  V30 15212 H 1456.99 3.02872 -0.773791 0
M  V30 15213 H 1456.21 2.34991 -3.16501 0
M  V30 15214 H 1457.5 3.39554 -3.7892 0
M  V30 15215 H 1456.89 5.48374 -1.38933 0
M  V30 15216 H 1455.45 6.21298 -1.97057 0
M  V30 15217 N 1458.88 1.40823 0.707568 0
M  V30 15218 C 1460.3 1.23029 1.01666 0
M  V30 15219 C 1460.5 0.111152 2.01193 0
M  V30 15220 O 1459.56 -0.52836 2.4691 0
M  V30 15221 C 1460.87 2.57509 1.55272 0
M  V30 15222 C 1462.42 2.6459 1.67216 0
M  V30 15223 C 1462.89 3.99357 2.24227 0
M  V30 15224 N 1464.38 4.01141 2.31603 0
M  V30 15225 C 1465.12 5.02211 2.76715 0
M  V30 15226 N 1464.61 6.13674 3.21521 0
M  V30 15227 N 1466.41 4.89577 2.76172 0
M  V30 15228 H 1458.56 2.12346 0.0480107 0
M  V30 15229 H 1460.82 0.944281 0.0838885 0
M  V30 15230 H 1460.53 3.40095 0.896012 0
M  V30 15231 H 1460.4 2.79158 2.53674 0
M  V30 15232 H 1462.79 1.8237 2.32002 0
M  V30 15233 H 1462.87 2.46763 0.673927 0
M  V30 15234 H 1462.51 4.8202 1.6006 0
M  V30 15235 H 1462.44 4.14518 3.2478 0
M  V30 15236 H 1464.93 3.20657 1.99968 0
M  V30 15237 H 1465.25 6.86677 3.54534 0
M  V30 15238 H 1463.59 6.17228 3.1946 0
M  V30 15239 H 1466.78 4.01588 2.40509 0
M  V30 15240 H 1466.96 5.68485 3.11012 0
M  V30 15241 N 1460.36 -0.94061 1.26453 0
M  V30 15242 C 1461.33 -2.02096 1.0812 0
M  V30 15243 C 1462.33 -1.60773 0.0293393 0
M  V30 15244 O 1463.52 -1.72051 0.272796 0
M  V30 15245 C 1460.65 -3.34749 0.644646 0
M  V30 15246 H 1461.84 -2.19792 2.04038 0
M  V30 15247 H 1459.39 -1.11965 1.09058 0
M  V30 15248 H 1460.13 -3.22752 -0.316509 0
M  V30 15249 H 1459.91 -3.66095 1.40416 0
M  V30 15250 H 1461.4 -4.14117 0.538233 0
M  V30 15251 N 1461.84 -1.08266 -1.14527 0
M  V30 15252 C 1462.8 -0.715117 -2.17758 0
M  V30 15253 C 1463.8 0.24935 -1.58855 0
M  V30 15254 O 1464.99 0.0290846 -1.74176 0
M  V30 15255 C 1462.13 -0.055575 -3.40855 0
M  V30 15256 H 1463.32 -1.62921 -2.51787 0
M  V30 15257 H 1460.87 -0.880346 -1.2915 0
M  V30 15258 H 1461.61 0.870312 -3.12404 0
M  V30 15259 H 1461.39 -0.749382 -3.84872 0
M  V30 15260 H 1462.88 0.186592 -4.17183 0
M  V30 15261 N 1463.32 1.31536 -0.86811 0
M  V30 15262 C 1464.25 2.27486 -0.279749 0
M  V30 15263 C 1465.26 1.53006 0.556158 0
M  V30 15264 O 1466.45 1.74442 0.378454 0
M  V30 15265 C 1463.55 3.33139 0.622197 0
M  V30 15266 C 1462.73 4.37026 -0.180855 0
M  V30 15267 C 1461.79 5.22183 0.64894 0
M  V30 15268 O 1460.81 5.69147 0.0776395 0
M  V30 15269 N 1462.01 5.46365 1.96127 0
M  V30 15270 H 1464.78 2.78613 -1.1043 0
M  V30 15271 H 1462.34 1.44538 -0.729409 0
M  V30 15272 H 1464.33 3.87024 1.18297 0
M  V30 15273 H 1462.9 2.8207 1.34742 0
M  V30 15274 H 1462.12 3.8324 -0.923078 0
M  V30 15275 H 1463.41 5.03508 -0.731953 0
M  V30 15276 H 1462.81 5.09962 2.44857 0
M  V30 15277 H 1461.36 6.03192 2.46987 0
M  V30 15278 N 1464.8 0.627364 1.44575 0
M  V30 15279 C 1466.03 0.137114 2.06145 0
M  V30 15280 C 1466.44 -1.19201 1.46928 0
M  V30 15281 O 1465.78 -1.7413 0.585199 0
M  V30 15282 C 1465.84 -0.0560229 3.59456 0
M  V30 15283 C 1465.5 1.19435 4.41117 0
M  V30 15284 C 1466.5 2.11717 4.74839 0
M  V30 15285 C 1464.19 1.42871 4.81553 0
M  V30 15286 C 1466.18 3.25749 5.47875 0
M  V30 15287 C 1463.87 2.572 5.54339 0
M  V30 15288 C 1464.87 3.48466 5.87419 0
M  V30 15289 O 1464.55 4.60802 6.58723 0
M  V30 15290 H 1464.29 0.0751614 0.671809 0
M  V30 15291 H 1466.84 0.86076 1.86494 0
M  V30 15292 H 1465.07 -0.834775 3.77582 0
M  V30 15293 H 1466.76 -0.500352 4.02804 0
M  V30 15294 H 1467.52 1.94844 4.44141 0
M  V30 15295 H 1463.4 0.727246 4.55228 0
M  V30 15296 H 1466.95 3.97007 5.73612 0
M  V30 15297 H 1462.84 2.74018 5.84452 0
M  V30 15298 H 1463.61 4.59736 6.77189 0
M  V30 15299 N 1466.28 -1.53251 0.367684 0
M  V30 15300 C 1467.21 -2.28728 -0.469676 0
M  V30 15301 C 1468.19 -1.3124 -1.08213 0
M  V30 15302 O 1469.37 -1.60112 -1.09898 0
M  V30 15303 C 1466.5 -3.07808 -1.60846 0
M  V30 15304 C 1465.46 -4.13 -1.12315 0
M  V30 15305 C 1464.78 -4.80176 -2.35234 0
M  V30 15306 C 1466.08 -5.21892 -0.2064 0
M  V30 15307 H 1467.78 -2.98972 0.160019 0
M  V30 15308 H 1465.32 -1.43786 0.0784011 0
M  V30 15309 H 1467.27 -3.59358 -2.20091 0
M  V30 15310 H 1466 -2.35258 -2.26542 0
M  V30 15311 H 1464.66 -3.62399 -0.553378 0
M  V30 15312 H 1464.31 -4.04196 -2.99391 0
M  V30 15313 H 1464.01 -5.51261 -2.03433 0
M  V30 15314 H 1465.53 -5.34521 -2.9516 0
M  V30 15315 H 1466.94 -5.68932 -0.706386 0
M  V30 15316 H 1465.34 -6.00096 0.0208362 0
M  V30 15317 H 1466.41 -4.79051 0.750851 0
M  V30 15318 N 1467.75 -0.0969077 -1.57302 0
M  V30 15319 C 1468.7 0.861379 -2.14124 0
M  V30 15320 C 1469.67 1.27858 -1.06026 0
M  V30 15321 O 1470.86 1.36001 -1.33822 0
M  V30 15322 C 1468 2.11443 -2.72738 0
M  V30 15323 C 1467.11 1.7476 -3.95074 0
M  V30 15324 C 1466.24 2.94864 -4.41847 0
M  V30 15325 C 1465.28 2.54316 -5.56767 0
M  V30 15326 N 1464.42 3.67261 -5.98384 0
M  V30 15327 H 1469.26 0.369968 -2.95694 0
M  V30 15328 H 1466.8 0.170943 -1.46103 0
M  V30 15329 H 1468.75 2.84829 -3.04842 0
M  V30 15330 H 1467.38 2.5808 -1.93893 0
M  V30 15331 H 1466.44 0.91335 -3.69272 0
M  V30 15332 H 1467.75 1.40946 -4.78472 0
M  V30 15333 H 1466.9 3.76501 -4.75744 0
M  V30 15334 H 1465.64 3.31889 -3.57352 0
M  V30 15335 H 1464.65 1.71106 -5.22497 0
M  V30 15336 H 1465.87 2.18432 -6.43012 0
M  V30 15337 H 1463.82 4.04001 -5.16836 0
M  V30 15338 H 1463.73 3.37298 -6.76584 0
M  V30 15339 H 1465 4.49403 -6.36912 0
M  V30 15340 N 1469.23 1.56605 0.176793 0
M  V30 15341 C 1470.48 1.81952 0.895627 0
M  V30 15342 C 1470.81 0.673893 1.82133 0
M  V30 15343 O 1470.09 -0.324494 1.91774 0
M  V30 15344 C 1470.37 3.17658 1.69604 0
M  V30 15345 C 1470.22 4.4274 0.793834 0
M  V30 15346 C 1471.54 3.50246 2.66488 0
M  V30 15347 H 1468.66 0.661884 0.324159 0
M  V30 15348 H 1471.3 1.89307 0.162092 0
M  V30 15349 H 1469.45 3.11518 2.3214 0
M  V30 15350 H 1471.12 4.60942 0.181775 0
M  V30 15351 H 1469.37 4.33681 0.101566 0
M  V30 15352 H 1470.04 5.34231 1.38927 0
M  V30 15353 H 1472.51 3.56804 2.1408 0
M  V30 15354 H 1471.39 4.46286 3.19562 0
M  V30 15355 H 1471.65 2.7467 3.46423 0
M  V30 15356 N 1470.71 -0.445159 1.51182 0
M  V30 15357 C 1471.62 -1.5651 1.74762 0
M  V30 15358 C 1472.64 -1.62134 0.631542 0
M  V30 15359 O 1473.81 -1.79522 0.912898 0
M  V30 15360 C 1470.88 -2.92552 1.86049 0
M  V30 15361 C 1469.94 -2.97108 3.0988 0
M  V30 15362 C 1469.17 -4.2666 3.2062 0
M  V30 15363 O 1469.39 -5.18608 2.37491 0
M  V30 15364 O 1468.33 -4.3734 4.13542 0
M  V30 15365 H 1472.15 -1.3953 2.6975 0
M  V30 15366 H 1469.74 -0.627363 1.3559 0
M  V30 15367 H 1471.62 -3.73304 1.95504 0
M  V30 15368 H 1470.3 -3.09676 0.94248 0
M  V30 15369 H 1469.2 -2.15338 3.05909 0
M  V30 15370 H 1470.54 -2.84927 4.01345 0
M  V30 15371 N 1472.19 -1.41197 -0.700089 0
M  V30 15372 C 1473.12 -1.38616 -1.82533 0
M  V30 15373 C 1474.13 -0.289047 -1.60213 0
M  V30 15374 O 1475.32 -0.550465 -1.698 0
M  V30 15375 C 1472.42 -1.13815 -3.19217 0
M  V30 15376 C 1471.59 -2.3548 -3.68603 0
M  V30 15377 C 1470.65 -2.06604 -4.83943 0
M  V30 15378 O 1469.68 -2.79604 -4.95792 0
M  V30 15379 N 1470.88 -1.05351 -5.7086 0
M  V30 15380 H 1473.65 -2.35598 -1.8524 0
M  V30 15381 H 1471.21 -1.3575 -0.882238 0
M  V30 15382 H 1473.2 -0.924571 -3.93997 0
M  V30 15383 H 1471.77 -0.254468 -3.11563 0
M  V30 15384 H 1470.99 -2.72569 -2.8478 0
M  V30 15385 H 1472.28 -3.16553 -3.98336 0
M  V30 15386 H 1471.68 -0.449223 -5.63914 0
M  V30 15387 H 1470.23 -0.899819 -6.45559 0
M  V30 15388 N 1473.67 0.933891 -1.2695 0
M  V30 15389 C 1474.6 2.05078 -1.11649 0
M  V30 15390 C 1475.58 1.70089 -0.0196463 0
M  V30 15391 O 1476.76 1.93239 -0.193007 0
M  V30 15392 C 1473.89 3.38963 -0.756387 0
M  V30 15393 C 1472.85 3.88041 -1.80577 0
M  V30 15394 C 1472.17 5.18661 -1.2998 0
M  V30 15395 C 1473.47 4.12116 -3.2087 0
M  V30 15396 H 1475.17 2.18137 -2.05077 0
M  V30 15397 H 1472.71 1.04817 -0.987392 0
M  V30 15398 H 1474.66 4.1657 -0.63619 0
M  V30 15399 H 1473.39 3.25901 0.213607 0
M  V30 15400 H 1472.05 3.12622 -1.91477 0
M  V30 15401 H 1471.7 5.01985 -0.319442 0
M  V30 15402 H 1471.4 5.52467 -2.00134 0
M  V30 15403 H 1472.92 5.98844 -1.19242 0
M  V30 15404 H 1474.33 4.80312 -3.13006 0
M  V30 15405 H 1472.73 4.57218 -3.88679 0
M  V30 15406 H 1473.8 3.17633 -3.66384 0
M  V30 15407 N 1475.14 1.08871 1.13951 0
M  V30 15408 C 1476.39 0.821287 1.85098 0
M  V30 15409 C 1476.72 -0.65302 1.8321 0
M  V30 15410 O 1475.97 -1.49629 1.26134 0
M  V30 15411 C 1476.27 1.29443 3.33135 0
M  V30 15412 C 1475.94 2.77737 3.55208 0
M  V30 15413 C 1474.6 3.18238 3.60941 0
M  V30 15414 C 1476.95 3.7338 3.63644 0
M  V30 15415 C 1474.28 4.53165 3.72637 0
M  V30 15416 C 1476.63 5.08089 3.76867 0
M  V30 15417 C 1475.3 5.48187 3.8085 0
M  V30 15418 H 1474.57 0.30053 0.67732 0
M  V30 15419 H 1477.21 1.36249 1.34568 0
M  V30 15420 H 1475.52 0.672919 3.85978 0
M  V30 15421 H 1477.22 1.06421 3.86621 0
M  V30 15422 H 1473.81 2.45393 3.51398 0
M  V30 15423 H 1477.99 3.43207 3.58501 0
M  V30 15424 H 1473.25 4.83679 3.73985 0
M  V30 15425 H 1477.42 5.82058 3.82337 0
M  V30 15426 H 1475.05 6.52737 3.89665 0
M  V30 15427 N 1476.62 -1.31073 0.875073 0
M  V30 15428 C 1477.87 -1.9613 0.487584 0
M  V30 15429 C 1478.19 -1.69482 -0.964407 0
M  V30 15430 O 1477.46 -1.013 -1.67676 0
M  V30 15431 H 1476.04 -0.725649 0.177319 0
M  V30 15432 H 1478.7 -1.59787 1.11598 0
M  V30 15433 H 1477.8 -3.05265 0.649574 0
M  V30 15434 N 1478.1 -0.635022 -1.4424 0
M  V30 15435 C 1479.03 0.0543561 -2.33437 0
M  V30 15436 C 1480.01 0.830807 -1.48431 0
M  V30 15437 O 1481.2 0.795913 -1.77141 0
M  V30 15438 C 1478.33 1.03391 -3.31553 0
M  V30 15439 C 1477.28 0.368824 -4.26408 0
M  V30 15440 C 1476.61 1.45855 -5.14422 0
M  V30 15441 C 1477.91 -0.727381 -5.1721 0
M  V30 15442 H 1479.6 -0.690489 -2.91329 0
M  V30 15443 H 1477.15 -0.3335 -1.40085 0
M  V30 15444 H 1479.1 1.52495 -3.9284 0
M  V30 15445 H 1477.82 1.80969 -2.71878 0
M  V30 15446 H 1476.48 -0.101605 -3.66459 0
M  V30 15447 H 1476.13 2.22531 -4.51098 0
M  V30 15448 H 1475.83 1.0189 -5.78699 0
M  V30 15449 H 1477.35 1.95132 -5.78581 0
M  V30 15450 H 1478.77 -0.319272 -5.7241 0
M  V30 15451 H 1477.17 -1.09041 -5.9011 0
M  V30 15452 H 1478.24 -1.59292 -4.57989 0
M  V30 15453 N 1479.58 1.53054 -0.375806 0
M  V30 15454 C 1480.83 2.01003 0.210257 0
M  V30 15455 C 1481.15 1.26451 1.48442 0
M  V30 15456 O 1480.42 0.380687 1.92166 0
M  V30 15457 H 1479 0.74263 0.0806861 0
M  V30 15458 H 1481.66 1.8826 -0.504393 0
M  V30 15459 H 1480.76 3.09123 0.430027 0
M  V30 15460 N 1481.06 0.105248 1.57248 0
M  V30 15461 C 1481.99 -0.846915 2.176 0
M  V30 15462 C 1482.97 -1.28706 1.11216 0
M  V30 15463 O 1484.15 -1.35213 1.39396 0
M  V30 15464 C 1481.28 -2.10228 2.76445 0
M  V30 15465 C 1480.24 -1.80041 3.8829 0
M  V30 15466 C 1479.56 -3.12491 4.33882 0
M  V30 15467 C 1480.86 -1.07943 5.11024 0
M  V30 15468 H 1482.56 -0.344052 2.97417 0
M  V30 15469 H 1480.1 -0.164045 1.43063 0
M  V30 15470 H 1482.06 -2.77284 3.17319 0
M  V30 15471 H 1480.78 -2.62815 1.93897 0
M  V30 15472 H 1479.44 -1.15379 3.4797 0
M  V30 15473 H 1479.09 -3.62985 3.48211 0
M  V30 15474 H 1478.79 -2.93072 5.09296 0
M  V30 15475 H 1480.31 -3.80688 4.77398 0
M  V30 15476 H 1481.72 -1.65127 5.49004 0
M  V30 15477 H 1480.12 -0.986674 5.91933 0
M  V30 15478 H 1481.19 -0.0638511 4.84858 0
M  V30 15479 N 1482.53 -1.56697 -0.168486 0
M  V30 15480 C 1483.95 -1.50879 -0.52036 0
M  V30 15481 C 1484.15 -0.810001 -1.84503 0
M  V30 15482 O 1483.21 -0.371549 -2.49751 0
M  V30 15483 C 1484.52 -2.95618 -0.550502 0
M  V30 15484 C 1486.07 -3.06439 -0.637508 0
M  V30 15485 C 1486.54 -4.52642 -0.698516 0
M  V30 15486 N 1488.03 -4.569 -0.761328 0
M  V30 15487 C 1488.77 -5.67373 -0.829155 0
M  V30 15488 N 1488.26 -6.87471 -0.857642 0
M  V30 15489 N 1490.06 -5.55352 -0.868392 0
M  V30 15490 H 1482.21 -2.00531 0.700087 0
M  V30 15491 H 1484.47 -0.913683 0.252759 0
M  V30 15492 H 1484.18 -3.49912 0.354222 0
M  V30 15493 H 1484.05 -3.50416 -1.396 0
M  V30 15494 H 1486.44 -2.52178 -1.53266 0
M  V30 15495 H 1486.52 -2.54721 0.234719 0
M  V30 15496 H 1486.16 -5.07535 0.192387 0
M  V30 15497 H 1486.09 -5.0212 -1.58693 0
M  V30 15498 H 1488.58 -3.70434 -0.747482 0
M  V30 15499 H 1488.9 -7.67416 -0.910648 0
M  V30 15500 H 1487.24 -6.90076 -0.825872 0
M  V30 15501 H 1490.43 -4.60444 -0.843158 0
M  V30 15502 H 1490.61 -6.41468 -0.917789 0
M  V30 15503 N 1484.01 0.437135 -1.51416 0
M  V30 15504 C 1485.42 1.01699 -1.5657 0
M  V30 15505 C 1485.77 1.92299 -0.389291 0
M  V30 15506 O 1484.9 2.10689 0.49389 0
M  V30 15507 C 1485.49 1.85119 -2.83754 0
M  V30 15508 C 1484.05 2.38154 -2.91478 0
M  V30 15509 C 1483.2 1.17374 -2.51234 0
M  V30 15510 H 1486.15 0.218399 -1.5719 0
M  V30 15511 H 1486.17 2.70572 -2.67528 0
M  V30 15512 H 1485.68 1.19153 -3.69357 0
M  V30 15513 H 1483.79 3.07575 -2.10306 0
M  V30 15514 H 1483.9 2.70937 -3.95133 0
M  V30 15515 H 1482.26 1.51913 -2.04437 0
M  V30 15516 H 1483.05 0.530176 -3.39181 0
M  V30 15517 N 1485.49 1.41566 0.692592 0
M  V30 15518 C 1486.91 1.24101 1.00355 0
M  V30 15519 C 1487.11 0.132485 2.01064 0
M  V30 15520 O 1486.16 -0.502142 2.47457 0
M  V30 15521 C 1487.48 2.59142 1.52532 0
M  V30 15522 C 1489.02 2.66348 1.64401 0
M  V30 15523 C 1489.5 4.01713 2.19978 0
M  V30 15524 N 1490.99 4.03575 2.27335 0
M  V30 15525 C 1491.72 5.05118 2.71373 0
M  V30 15526 N 1491.22 6.1705 3.14994 0
M  V30 15527 N 1493.01 4.92479 2.70963 0
M  V30 15528 H 1485.16 2.12385 0.0254859 0
M  V30 15529 H 1487.43 0.945118 0.0738684 0
M  V30 15530 H 1487.13 3.41026 0.85989 0
M  V30 15531 H 1487.01 2.81833 2.50699 0
M  V30 15532 H 1489.39 1.84821 2.30055 0
M  V30 15533 H 1489.48 2.47464 0.647717 0
M  V30 15534 H 1489.12 4.8369 1.54939 0
M  V30 15535 H 1489.05 4.1794 3.20365 0
M  V30 15536 H 1491.54 3.2276 1.96556 0
M  V30 15537 H 1491.85 6.90399 3.47231 0
M  V30 15538 H 1490.2 6.20582 3.12895 0
M  V30 15539 H 1493.39 4.04117 2.36236 0
M  V30 15540 H 1493.56 5.71752 3.04965 0
M  V30 15541 N 1486.97 -0.927146 1.27443 0
M  V30 15542 C 1488.22 -1.67159 1.13589 0
M  V30 15543 C 1488.54 -1.92379 -0.31865 0
M  V30 15544 O 1487.81 -1.53045 -1.22287 0
M  V30 15545 H 1486.39 -0.619524 0.417371 0
M  V30 15546 H 1489.05 -1.11323 1.59979 0
M  V30 15547 H 1488.15 -2.63954 1.66537 0
M  V30 15548 N 1488.45 -1.09474 -1.13372 0
M  V30 15549 C 1489.36 -0.746674 -2.224 0
M  V30 15550 C 1490.37 0.251572 -1.72172 0
M  V30 15551 O 1491.55 0.092793 -2.01186 0
M  V30 15552 C 1488.61 -0.172965 -3.46268 0
M  V30 15553 C 1487.67 -1.22722 -4.11385 0
M  V30 15554 C 1486.91 -0.680794 -5.2934 0
M  V30 15555 O 1487.13 0.496135 -5.68238 0
M  V30 15556 O 1486.06 -1.43605 -5.84518 0
M  V30 15557 H 1489.89 -1.65649 -2.54547 0
M  V30 15558 H 1487.48 -0.869172 -1.21514 0
M  V30 15559 H 1489.36 0.143629 -4.21155 0
M  V30 15560 H 1488.03 0.709853 -3.15821 0
M  V30 15561 H 1486.94 -1.59652 -3.38323 0
M  V30 15562 H 1488.27 -2.0827 -4.45965 0
M  V30 15563 N 1489.92 1.30607 -0.882012 0
M  V30 15564 C 1491.16 1.98047 -0.505626 0
M  V30 15565 C 1491.53 1.68123 0.927287 0
M  V30 15566 O 1492.73 2.28872 1.40964 0
M  V30 15567 C 1491 3.49021 -0.769367 0
M  V30 15568 S 1492.56 4.36003 -0.494641 0
M  V30 15569 H 1489.38 0.685625 -0.188252 0
M  V30 15570 H 1491.98 1.58776 -1.14064 0
M  V30 15571 H 1490.68 3.68291 -1.8108 0
M  V30 15572 H 1490.21 3.93211 -0.121801 0
M  V30 15573 H 1492.23 4.91683 0.668004 0
M  V30 15574 N 1491.4 0.642663 1.43901 0
M  V30 15575 C 1492.35 -0.0774542 2.27868 0
M  V30 15576 C 1493.34 -0.805028 1.39313 0
M  V30 15577 O 1494.53 -0.689234 1.63029 0
M  V30 15578 C 1491.66 -1.05046 3.26834 0
M  V30 15579 C 1490.74 -0.321911 4.22877 0
M  V30 15580 N 1491.13 0.655802 5.01531 0
M  V30 15581 C 1489.43 -0.5648 4.42409 0
M  V30 15582 C 1490.13 1.08729 5.71448 0
M  V30 15583 N 1489.11 0.423699 5.41946 0
M  V30 15584 H 1492.91 0.672951 2.86092 0
M  V30 15585 H 1490.43 0.469088 1.55478 0
M  V30 15586 H 1492.42 -1.58106 3.85756 0
M  V30 15587 H 1491.08 -1.80104 2.70171 0
M  V30 15588 H 1492.09 1.0341 5.07471 0
M  V30 15589 H 1488.77 -1.29736 3.96831 0
M  V30 15590 H 1490.16 1.89569 6.44603 0
M  V30 15591 N 1492.88 -1.52852 0.383918 0
M  V30 15592 C 1493.83 -2.26294 -0.453826 0
M  V30 15593 C 1494.8 -1.27688 -1.0623 0
M  V30 15594 O 1495.98 -1.56507 -1.09134 0
M  V30 15595 C 1493.12 -3.06907 -1.57803 0
M  V30 15596 C 1492.24 -4.20434 -0.992943 0
M  V30 15597 C 1491.37 -4.88453 -2.08776 0
M  V30 15598 C 1490.41 -5.93981 -1.47828 0
M  V30 15599 N 1489.55 -6.55617 -2.51218 0
M  V30 15600 H 1494.39 -2.97462 0.178927 0
M  V30 15601 H 1491.92 -1.46759 0.100066 0
M  V30 15602 H 1493.88 -3.51933 -2.24052 0
M  V30 15603 H 1492.51 -2.37959 -2.18118 0
M  V30 15604 H 1491.56 -3.79762 -0.22021 0
M  V30 15605 H 1492.88 -4.96211 -0.507504 0
M  V30 15606 H 1492.03 -5.36755 -2.82806 0
M  V30 15607 H 1490.77 -4.12187 -2.60678 0
M  V30 15608 H 1489.77 -5.45023 -0.723202 0
M  V30 15609 H 1491 -6.72176 -0.967278 0
M  V30 15610 H 1488.95 -5.82195 -3.02299 0
M  V30 15611 H 1488.86 -7.26991 -2.07414 0
M  V30 15612 H 1490.13 -7.08564 -3.24895 0
M  V30 15613 N 1494.36 -0.113586 -1.5719 0
M  V30 15614 C 1495.61 0.546529 -1.95297 0
M  V30 15615 C 1495.94 1.66674 -0.996671 0
M  V30 15616 O 1495.21 1.94472 -0.0329298 0
M  V30 15617 C 1495.5 1.08433 -3.43387 0
M  V30 15618 C 1495.35 -0.0320929 -4.49789 0
M  V30 15619 C 1496.67 1.97691 -3.932 0
M  V30 15620 H 1493.79 0.197195 -0.710129 0
M  V30 15621 H 1496.43 -0.188048 -1.89067 0
M  V30 15622 H 1494.58 1.71033 -3.48827 0
M  V30 15623 H 1496.25 -0.66716 -4.5645 0
M  V30 15624 H 1494.49 -0.695983 -4.2818 0
M  V30 15625 H 1495.17 0.385341 -5.50653 0
M  V30 15626 H 1497.64 1.4497 -3.90029 0
M  V30 15627 H 1496.52 2.3224 -4.97349 0
M  V30 15628 H 1496.78 2.90137 -3.33576 0
M  V30 15629 N 1495.84 1.56784 0.160173 0
M  V30 15630 C 1496.77 2.00298 1.20012 0
M  V30 15631 C 1497.75 0.880356 1.45546 0
M  V30 15632 O 1498.93 1.14724 1.56691 0
M  V30 15633 C 1496.06 2.37238 2.53645 0
M  V30 15634 C 1495.02 3.52563 2.42658 0
M  V30 15635 C 1494.34 3.75278 3.80881 0
M  V30 15636 C 1495.64 4.85657 1.92183 0
M  V30 15637 H 1497.34 2.87423 0.838362 0
M  V30 15638 H 1494.88 1.3828 0.401838 0
M  V30 15639 H 1496.84 2.66278 3.2661 0
M  V30 15640 H 1495.56 1.47035 2.9163 0
M  V30 15641 H 1494.22 3.23669 1.72146 0
M  V30 15642 H 1493.87 2.82347 4.1628 0
M  V30 15643 H 1493.57 4.52882 3.74396 0
M  V30 15644 H 1495.09 4.0673 4.55415 0
M  V30 15645 H 1496.51 5.13501 2.54931 0
M  V30 15646 H 1494.9 5.66975 1.96619 0
M  V30 15647 H 1495.97 4.76908 0.876742 0
M  V30 15648 N 1497.32 -0.429099 1.51646 0
M  V30 15649 C 1498.23 -1.54648 1.76412 0
M  V30 15650 C 1499.24 -1.61455 0.648703 0
M  V30 15651 O 1500.42 -1.78544 0.931888 0
M  V30 15652 C 1497.48 -2.90562 1.89142 0
M  V30 15653 C 1496.54 -2.93804 3.13014 0
M  V30 15654 C 1495.78 -4.23235 3.25127 0
M  V30 15655 O 1496 -5.1606 2.42979 0
M  V30 15656 O 1494.93 -4.32929 4.18158 0
M  V30 15657 H 1498.76 -1.36661 2.71215 0
M  V30 15658 H 1496.34 -0.612946 1.36247 0
M  V30 15659 H 1498.23 -3.7121 1.99453 0
M  V30 15660 H 1496.9 -3.08659 0.975272 0
M  V30 15661 H 1495.81 -2.12082 3.08175 0
M  V30 15662 H 1497.14 -2.80654 4.04344 0
M  V30 15663 N 1498.79 -1.41931 -0.685074 0
M  V30 15664 C 1499.73 -1.39028 -1.8096 0
M  V30 15665 C 1500.7 -0.256001 -1.60572 0
M  V30 15666 O 1501.89 -0.44459 -1.83182 0
M  V30 15667 C 1499.02 -1.17125 -3.17804 0
M  V30 15668 C 1498.06 -2.33411 -3.56961 0
M  V30 15669 S 1498.89 -3.9592 -3.60565 0
M  V30 15670 C 1500.05 -3.7634 -5.00119 0
M  V30 15671 H 1500.28 -2.34189 -1.83146 0
M  V30 15672 H 1497.82 -1.2858 -0.854778 0
M  V30 15673 H 1499.77 -1.05175 -3.96798 0
M  V30 15674 H 1498.44 -0.235668 -3.13215 0
M  V30 15675 H 1497.63 -2.13807 -4.56402 0
M  V30 15676 H 1497.23 -2.41823 -2.85303 0
M  V30 15677 H 1499.52 -3.36695 -5.87914 0
M  V30 15678 H 1500.47 -4.7542 -5.24768 0
M  V30 15679 H 1500.87 -3.09407 -4.72152 0
M  V30 15680 N 1500.27 0.920374 -1.27933 0
M  V30 15681 C 1501.52 1.66883 -1.147 0
M  V30 15682 C 1501.85 1.92082 0.305732 0
M  V30 15683 O 1501.1 1.51449 1.23942 0
M  V30 15684 C 1501.4 3.03725 -1.88377 0
M  V30 15685 C 1501.07 2.9821 -3.38203 0
M  V30 15686 C 1499.73 2.96413 -3.79068 0
M  V30 15687 C 1502.08 2.88952 -4.3377 0
M  V30 15688 C 1499.41 2.83151 -5.13851 0
M  V30 15689 C 1501.76 2.77231 -5.68618 0
M  V30 15690 C 1500.42 2.73788 -6.08766 0
M  V30 15691 H 1499.69 0.61067 -0.419718 0
M  V30 15692 H 1502.34 1.0728 -1.58629 0
M  V30 15693 H 1500.65 3.67075 -1.36978 0
M  V30 15694 H 1502.34 3.60527 -1.7556 0
M  V30 15695 H 1498.93 3.004 -3.05709 0
M  V30 15696 H 1503.12 2.89433 -4.03165 0
M  V30 15697 H 1498.37 2.78877 -5.44093 0
M  V30 15698 H 1502.55 2.69034 -6.42335 0
M  V30 15699 H 1500.17 2.63268 -7.13158 0
M  V30 15700 N 1501.75 1.10074 1.1279 0
M  V30 15701 C 1503.03 0.753069 1.80522 0
M  V30 15702 C 1503.41 -0.760982 1.96907 0
M  V30 15703 O 1502.75 -1.68584 1.54245 0
M  V30 15704 C 1502.96 1.49982 3.15129 0
M  V30 15705 C 1504.31 1.66993 3.90382 0
M  V30 15706 O 1505.34 1.46289 3.24774 0
M  V30 15707 O 1504.2 2.01293 5.08078 0
M  V30 15708 H 1501.29 0.271277 0.781241 0
M  V30 15709 H 1503.84 1.20333 1.19658 0
M  V30 15710 H 1502.61 2.53043 2.98471 0
M  V30 15711 H 1502.23 1.04217 3.83699 0
M  V30 15712 N 1503.23 -1.30138 0.888926 0
M  V30 15713 C 1504.47 -1.96654 0.519499 0
M  V30 15714 C 1504.83 -1.68872 -0.92196 0
M  V30 15715 O 1504.12 -0.985192 -1.64331 0
M  V30 15716 C 1504.32 -3.4975 0.735488 0
M  V30 15717 C 1504.14 -3.92414 2.19639 0
M  V30 15718 C 1502.91 -4.1782 2.84174 0
M  V30 15719 C 1505.11 -4.04943 3.17058 0
M  V30 15720 N 1503.09 -4.46973 4.20819 0
M  V30 15721 C 1504.47 -4.38024 4.38788 0
M  V30 15722 C 1506.52 -3.87382 3.12793 0
M  V30 15723 C 1505.22 -4.55375 5.568 0
M  V30 15724 C 1507.25 -4.05937 4.3008 0
M  V30 15725 C 1506.61 -4.39367 5.50578 0
M  V30 15726 H 1502.71 -0.744421 0.239501 0
M  V30 15727 H 1505.29 -1.57292 1.14749 0
M  V30 15728 H 1503.47 -3.88158 0.136957 0
M  V30 15729 H 1505.2 -4.03331 0.332568 0
M  V30 15730 H 1501.95 -4.11171 2.35022 0
M  V30 15731 H 1502.38 -4.65677 4.914 0
M  V30 15732 H 1507.02 -3.60609 2.20729 0
M  V30 15733 H 1504.74 -4.80989 6.49365 0
M  V30 15734 H 1508.32 -3.93814 4.28255 0
M  V30 15735 H 1507.2 -4.53428 6.39822 0
M  V30 15736 N 1504.71 -0.650285 -1.43559 0
M  V30 15737 C 1505.65 0.0550615 -2.32535 0
M  V30 15738 C 1506.65 0.81612 -1.48445 0
M  V30 15739 O 1507.85 0.726853 -1.64672 0
M  V30 15740 H 1504.23 0.0365887 -0.751109 0
M  V30 15741 H 1506.2 -0.713146 -2.89753 0
M  V30 15742 C 1504.95 1.00982 -3.32713 0
M  V30 15743 H 1504.27 0.433626 -3.97441 0
M  V30 15744 H 1505.71 1.47249 -3.9761 0
M  V30 15745 C 1504.17 2.10442 -2.63089 0
M  V30 15746 O 1504.7 3.18782 -2.44419 0
M  V30 15747 N 1502.91 1.86915 -2.22511 0
M  V30 15748 H 1502.45 0.988113 -2.37895 0
M  V30 15749 H 1502.41 2.60348 -1.76256 0
M  V30 15750 N 1506.18 1.52647 -0.392018 0
M  V30 15751 C 1507.11 2.29446 0.433228 0
M  V30 15752 C 1508.09 1.32945 1.06111 0
M  V30 15753 O 1509.28 1.61841 1.07337 0
M  V30 15754 C 1506.41 3.10328 1.55929 0
M  V30 15755 C 1505.36 4.14735 1.05731 0
M  V30 15756 C 1504.69 4.83858 2.27565 0
M  V30 15757 C 1505.99 5.22154 0.123346 0
M  V30 15758 H 1507.68 2.9868 -0.207563 0
M  V30 15759 H 1505.23 1.43643 -0.101266 0
M  V30 15760 H 1507.18 3.62814 2.14346 0
M  V30 15761 H 1505.91 2.38832 2.22771 0
M  V30 15762 H 1504.57 3.63234 0.495653 0
M  V30 15763 H 1504.21 4.08907 2.92923 0
M  V30 15764 H 1503.91 5.54428 1.94637 0
M  V30 15765 H 1505.44 5.39149 2.86619 0
M  V30 15766 H 1506.85 5.69983 0.615784 0
M  V30 15767 H 1505.25 5.99987 -0.116304 0
M  V30 15768 H 1506.32 4.77796 -0.826969 0
M  V30 15769 N 1507.66 0.121921 1.57128 0
M  V30 15770 C 1508.57 -0.840825 2.19014 0
M  V30 15771 C 1509.59 -1.29051 1.16712 0
M  V30 15772 O 1510.76 -1.35289 1.49194 0
M  V30 15773 C 1507.83 -2.07204 2.7797 0
M  V30 15774 C 1506.89 -1.67399 3.95318 0
M  V30 15775 C 1506.12 -2.84652 4.51452 0
M  V30 15776 O 1506.35 -4.00161 4.06482 0
M  V30 15777 O 1505.28 -2.61568 5.42094 0
M  V30 15778 H 1509.11 -0.344146 3.01744 0
M  V30 15779 H 1506.69 -0.103841 1.49039 0
M  V30 15780 H 1508.57 -2.79307 3.1554 0
M  V30 15781 H 1507.25 -2.55872 1.9827 0
M  V30 15782 H 1506.16 -0.92395 3.62511 0
M  V30 15783 H 1507.49 -1.2347 4.76462 0
M  V30 15784 N 1509.14 -1.56867 -0.151857 0
M  V30 15785 C 1510.07 -1.94494 -1.21263 0
M  V30 15786 C 1511.09 -0.84021 -1.39443 0
M  V30 15787 O 1512.27 -1.11863 -1.391 0
M  V30 15788 C 1509.37 -2.19952 -2.57826 0
M  V30 15789 C 1508.55 -3.51227 -2.60689 0
M  V30 15790 C 1507.61 -3.65282 -3.78756 0
M  V30 15791 O 1506.63 -4.3772 -3.63854 0
M  V30 15792 N 1507.83 -3.01582 -4.96012 0
M  V30 15793 H 1510.6 -2.86092 -0.892845 0
M  V30 15794 H 1508.16 -1.58258 -0.341463 0
M  V30 15795 H 1510.15 -2.266 -3.35312 0
M  V30 15796 H 1508.72 -1.34643 -2.82117 0
M  V30 15797 H 1507.94 -3.56062 -1.69155 0
M  V30 15798 H 1509.23 -4.37574 -2.59628 0
M  V30 15799 H 1508.63 -2.42637 -5.11022 0
M  V30 15800 H 1507.19 -3.13799 -5.71291 0
M  V30 15801 N 1510.62 0.421051 -1.51871 0
M  V30 15802 C 1511.58 1.49478 -1.73749 0
M  V30 15803 C 1512.58 1.48887 -0.607395 0
M  V30 15804 O 1513.77 1.50622 -0.875143 0
M  V30 15805 C 1510.9 2.88947 -1.80893 0
M  V30 15806 H 1512.1 1.31377 -2.69593 0
M  V30 15807 H 1509.65 0.650786 -1.42107 0
M  V30 15808 H 1510.38 3.12434 -0.86922 0
M  V30 15809 H 1510.17 2.90781 -2.63038 0
M  V30 15810 H 1511.66 3.66809 -1.99602 0
M  V30 15811 N 1512.1 1.42293 0.677538 0
M  V30 15812 C 1513.34 1.42334 1.43476 0
M  V30 15813 C 1513.67 0.0397842 1.94959 0
M  V30 15814 O 1512.94 -0.921258 1.72886 0
M  V30 15815 H 1511.52 0.523969 0.532415 0
M  V30 15816 H 1514.18 1.7769 0.800758 0
M  V30 15817 H 1513.27 2.12146 2.28912 0
M  V30 15818 N 1513.57 -0.913576 1.28419 0
M  V30 15819 C 1514.81 -1.67716 1.16836 0
M  V30 15820 C 1515.18 -1.8997 -0.278452 0
M  V30 15821 O 1516.38 -2.63781 -0.516994 0
M  V30 15822 C 1514.65 -2.99838 1.94504 0
M  V30 15823 S 1516.21 -3.9093 1.99297 0
M  V30 15824 H 1513.03 -0.575987 0.416845 0
M  V30 15825 H 1515.63 -1.08661 1.62521 0
M  V30 15826 H 1514.33 -2.81343 2.98788 0
M  V30 15827 H 1513.86 -3.6394 1.4937 0
M  V30 15828 H 1515.88 -4.83863 1.0996 0
M  V30 15829 N 1515.05 -1.1067 -1.12204 0
M  V30 15830 C 1516 -0.726979 -2.161 0
M  V30 15831 C 1516.99 0.26505 -1.58702 0
M  V30 15832 O 1518.18 0.0734052 -1.76848 0
M  V30 15833 C 1515.31 -0.163062 -3.42913 0
M  V30 15834 C 1514.39 -1.18228 -4.07287 0
M  V30 15835 N 1514.78 -2.3738 -4.46637 0
M  V30 15836 C 1513.08 -1.02336 -4.34101 0
M  V30 15837 C 1513.78 -3.02318 -4.9697 0
M  V30 15838 N 1512.76 -2.29826 -4.92627 0
M  V30 15839 H 1516.56 -1.63396 -2.44293 0
M  V30 15840 H 1514.08 -0.984782 -1.29135 0
M  V30 15841 H 1516.07 0.127067 -4.16706 0
M  V30 15842 H 1514.73 0.738611 -3.16188 0
M  V30 15843 H 1515.74 -2.74889 -4.38926 0
M  V30 15844 H 1512.42 -0.177452 -4.17123 0
M  V30 15845 H 1513.81 -4.03685 -5.3711 0
M  V30 15846 N 1516.53 1.29665 -0.895815 0
M  V30 15847 C 1517.46 2.30268 -0.387151 0
M  V30 15848 C 1518.44 1.61442 0.535768 0
M  V30 15849 O 1519.63 1.88978 0.447321 0
M  V30 15850 C 1516.76 3.45107 0.389639 0
M  V30 15851 C 1515.71 4.25706 -0.442498 0
M  V30 15852 C 1515.04 5.32704 0.461552 0
M  V30 15853 C 1516.34 4.9419 -1.69036 0
M  V30 15854 H 1518.03 2.73064 -1.22786 0
M  V30 15855 H 1515.58 1.31274 -0.591869 0
M  V30 15856 H 1517.53 4.14559 0.756203 0
M  V30 15857 H 1516.25 3.01145 1.2641 0
M  V30 15858 H 1514.91 3.57957 -0.791343 0
M  V30 15859 H 1514.56 4.84987 1.33403 0
M  V30 15860 H 1514.26 5.87529 -0.0915006 0
M  V30 15861 H 1515.78 6.05009 0.824395 0
M  V30 15862 H 1517.2 5.561 -1.39376 0
M  V30 15863 H 1515.6 5.5893 -2.18444 0
M  V30 15864 H 1516.67 4.19699 -2.42859 0
M  V30 15865 N 1518.01 0.657889 1.43212 0
M  V30 15866 C 1518.94 -0.0172114 2.33494 0
M  V30 15867 C 1519.92 -0.807087 1.49733 0
M  V30 15868 O 1521.1 -0.767631 1.78385 0
M  V30 15869 C 1518.23 -0.981029 3.33156 0
M  V30 15870 C 1517.19 -0.30094 4.26941 0
M  V30 15871 C 1516.51 -1.37653 5.16678 0
M  V30 15872 C 1517.81 0.809572 5.15988 0
M  V30 15873 H 1519.51 0.736749 2.90194 0
M  V30 15874 H 1517.05 0.355744 1.39537 0
M  V30 15875 H 1519.01 -1.46226 3.95216 0
M  V30 15876 H 1517.73 -1.76621 2.74723 0
M  V30 15877 H 1516.39 0.159893 3.66251 0
M  V30 15878 H 1516.04 -2.15326 4.54581 0
M  V30 15879 H 1515.74 -0.926704 5.80246 0
M  V30 15880 H 1517.26 -1.85903 5.81612 0
M  V30 15881 H 1518.68 0.410297 5.7183 0
M  V30 15882 H 1517.07 1.18415 5.88301 0
M  V30 15883 H 1518.14 1.66558 4.55397 0
M  V30 15884 N 1519.49 -1.52437 0.400108 0
M  V30 15885 C 1520.73 -2.01312 -0.178252 0
M  V30 15886 C 1521.06 -1.28797 -1.46411 0
M  V30 15887 O 1520.33 -0.411211 -1.91536 0
M  V30 15888 H 1518.91 -0.743819 -0.0688613 0
M  V30 15889 H 1521.57 -1.87434 0.53428 0
M  V30 15890 H 1520.66 -3.09768 -0.380793 0
M  V30 15891 N 1520.96 -0.130252 -1.57061 0
M  V30 15892 C 1522.19 0.535707 -2.00362 0
M  V30 15893 C 1522.61 1.58712 -1.00956 0
M  V30 15894 O 1521.97 1.81292 0.0171546 0
M  V30 15895 C 1522.02 1.12836 -3.42491 0
M  V30 15896 O 1521.12 2.24367 -3.46025 0
M  V30 15897 H 1520.47 0.132735 -0.650598 0
M  V30 15898 H 1523 -0.222047 -2.03392 0
M  V30 15899 H 1523.01 1.46115 -3.80939 0
M  V30 15900 H 1521.68 0.358304 -4.14354 0
M  V30 15901 H 1520.26 1.92443 -3.19406 0
M  V30 15902 N 1522.44 1.56945 0.143535 0
M  V30 15903 C 1523.69 1.84696 0.851985 0
M  V30 15904 C 1524.04 0.714713 1.78633 0
M  V30 15905 O 1523.34 -0.287092 1.89437 0
M  V30 15906 C 1523.53 3.16482 1.66054 0
M  V30 15907 C 1523.36 4.42418 0.80599 0
M  V30 15908 C 1522.13 5.03107 0.470269 0
M  V30 15909 C 1524.33 5.14123 0.134742 0
M  V30 15910 N 1522.31 6.12612 -0.397516 0
M  V30 15911 C 1523.68 6.17157 -0.593039 0
M  V30 15912 C 1525.74 4.97869 0.0557743 0
M  V30 15913 C 1524.44 7.05696 -1.39234 0
M  V30 15914 C 1526.47 5.86874 -0.730272 0
M  V30 15915 C 1525.83 6.89392 -1.44632 0
M  V30 15916 H 1521.93 0.726447 0.28948 0
M  V30 15917 H 1524.51 1.94347 0.117143 0
M  V30 15918 H 1522.68 3.07972 2.3666 0
M  V30 15919 H 1524.41 3.32128 2.31243 0
M  V30 15920 H 1521.17 4.66676 0.806858 0
M  V30 15921 H 1521.59 6.71985 -0.822534 0
M  V30 15922 H 1526.23 4.18592 0.595021 0
M  V30 15923 H 1523.95 7.84398 -1.94283 0
M  V30 15924 H 1527.54 5.76365 -0.79341 0
M  V30 15925 H 1526.42 7.57072 -2.04479 0
M  V30 15926 N 1523.92 -0.412991 1.52093 0
M  V30 15927 C 1525.17 -1.15801 1.65634 0
M  V30 15928 C 1525.49 -1.91127 0.386737 0
M  V30 15929 O 1524.76 -1.86541 -0.598262 0
M  V30 15930 H 1523.34 -0.430467 0.610498 0
M  V30 15931 H 1526 -0.471127 1.8912 0
M  V30 15932 H 1525.1 -1.87421 2.49559 0
M  V30 15933 N 1525.4 -1.4265 -0.669982 0
M  V30 15934 C 1526.81 -1.38614 -1.25072 0
M  V30 15935 C 1527.16 -0.0818051 -1.96029 0
M  V30 15936 O 1526.29 0.81931 -2.0029 0
M  V30 15937 C 1526.88 -2.51085 -2.27469 0
M  V30 15938 C 1525.44 -2.50366 -2.81059 0
M  V30 15939 C 1524.59 -2.29632 -1.5545 0
M  V30 15940 H 1527.54 -1.51794 -0.463058 0
M  V30 15941 H 1527.56 -2.21612 -3.09303 0
M  V30 15942 H 1527.07 -3.46002 -1.75796 0
M  V30 15943 H 1525.17 -1.5928 -3.36839 0
M  V30 15944 H 1525.29 -3.47569 -3.29746 0
M  V30 15945 H 1523.65 -1.77982 -1.82193 0
M  V30 15946 H 1524.43 -3.26611 -1.05736 0
M  V30 15947 N 1526.88 0.906753 -1.28902 0
M  V30 15948 C 1527.84 1.99158 -1.1344 0
M  V30 15949 C 1528.84 1.60639 -0.0719551 0
M  V30 15950 O 1530.03 1.71267 -0.318317 0
M  V30 15951 C 1527.16 3.32923 -0.733172 0
M  V30 15952 H 1528.36 2.14305 -2.09794 0
M  V30 15953 H 1525.91 1.09034 -1.11988 0
M  V30 15954 H 1526.64 3.23477 0.230826 0
M  V30 15955 H 1526.43 3.62244 -1.50073 0
M  V30 15956 H 1527.92 4.12544 -0.64784 0
M  V30 15957 N 1528.36 1.11264 1.11616 0
M  V30 15958 C 1529.31 0.738429 2.15711 0
M  V30 15959 C 1530.29 -0.25663 1.5884 0
M  V30 15960 O 1531.48 -0.0640255 1.76884 0
M  V30 15961 C 1528.61 0.181245 3.42821 0
M  V30 15962 C 1527.7 1.20386 4.06655 0
M  V30 15963 N 1528.09 2.39745 4.45372 0
M  V30 15964 C 1526.39 1.04637 4.33552 0
M  V30 15965 C 1527.09 3.04949 4.95359 0
M  V30 15966 N 1526.06 2.32435 4.91401 0
M  V30 15967 H 1529.86 1.6469 2.43423 0
M  V30 15968 H 1527.38 0.991616 1.28611 0
M  V30 15969 H 1529.38 -0.104966 4.16768 0
M  V30 15970 H 1528.04 -0.721832 3.16575 0
M  V30 15971 H 1529.05 2.77213 4.37462 0
M  V30 15972 H 1525.72 0.19957 4.17023 0
M  V30 15973 H 1527.11 4.06528 5.34962 0
M  V30 15974 N 1529.83 -1.29188 0.902679 0
M  V30 15975 C 1530.78 -2.25236 0.353959 0
M  V30 15976 C 1531.77 -1.52002 -0.527659 0
M  V30 15977 O 1532.96 -1.73107 -0.369189 0
M  V30 15978 C 1530.09 -3.40785 -0.414803 0
M  V30 15979 C 1529.17 -4.21353 0.481904 0
M  V30 15980 N 1529.57 -4.80143 1.59048 0
M  V30 15981 C 1527.86 -4.45119 0.280241 0
M  V30 15982 C 1528.56 -5.40661 2.14616 0
M  V30 15983 N 1527.54 -5.24213 1.43882 0
M  V30 15984 H 1531.34 -2.68252 1.20076 0
M  V30 15985 H 1528.86 -1.43832 0.754069 0
M  V30 15986 H 1530.85 -4.08662 -0.824674 0
M  V30 15987 H 1529.51 -2.99305 -1.25883 0
M  V30 15988 H 1530.52 -4.78838 1.97319 0
M  V30 15989 H 1527.2 -4.14184 -0.525174 0
M  V30 15990 H 1528.59 -5.97246 3.07809 0
M  V30 15991 N 1531.31 -0.665475 -1.42861 0
M  V30 15992 C 1532.26 0.0186204 -2.30792 0
M  V30 15993 C 1533.23 0.802249 -1.45441 0
M  V30 15994 O 1534.41 0.776383 -1.7429 0
M  V30 15995 C 1531.55 0.970499 -3.31173 0
M  V30 15996 C 1530.67 0.18168 -4.31618 0
M  V30 15997 C 1529.8 1.12846 -5.19075 0
M  V30 15998 C 1528.84 0.330788 -6.11206 0
M  V30 15999 N 1527.98 1.2298 -6.91246 0
M  V30 16000 H 1532.82 -0.737068 -2.88741 0
M  V30 16001 H 1530.35 -0.375225 -1.42234 0
M  V30 16002 H 1532.31 1.53611 -3.87891 0
M  V30 16003 H 1530.94 1.69292 -2.74845 0
M  V30 16004 H 1529.99 -0.500415 -3.77094 0
M  V30 16005 H 1531.31 -0.438041 -4.96873 0
M  V30 16006 H 1530.46 1.76431 -5.8048 0
M  V30 16007 H 1529.2 1.78208 -4.53975 0
M  V30 16008 H 1528.2 -0.318333 -5.48878 0
M  V30 16009 H 1529.43 -0.318599 -6.78352 0
M  V30 16010 H 1527.38 1.86999 -6.28783 0
M  V30 16011 H 1527.29 0.664933 -7.5307 0
M  V30 16012 H 1528.56 1.85341 -7.57145 0
M  V30 16013 N 1532.79 1.52222 -0.408187 0
M  V30 16014 C 1534.21 1.59491 -0.0590201 0
M  V30 16015 C 1534.41 1.42109 1.42854 0
M  V30 16016 O 1533.46 1.24757 2.19527 0
M  V30 16017 C 1534.77 2.9557 -0.553093 0
M  V30 16018 C 1536.32 3.08801 -0.510986 0
M  V30 16019 C 1536.8 4.47358 -0.981554 0
M  V30 16020 N 1538.29 4.53596 -0.938335 0
M  V30 16021 C 1539.02 5.59076 -1.27364 0
M  V30 16022 N 1538.52 6.72113 -1.68035 0
M  V30 16023 N 1540.31 5.49279 -1.19367 0
M  V30 16024 H 1532.46 1.61768 -1.37641 0
M  V30 16025 H 1534.73 0.760959 -0.565372 0
M  V30 16026 H 1534.43 3.13566 -1.59276 0
M  V30 16027 H 1534.31 3.77181 0.0377629 0
M  V30 16028 H 1536.69 2.90489 0.519637 0
M  V30 16029 H 1536.77 2.29098 -1.13788 0
M  V30 16030 H 1536.42 4.66413 -2.0105 0
M  V30 16031 H 1536.35 5.25556 -0.331478 0
M  V30 16032 H 1538.84 3.72453 -0.639297 0
M  V30 16033 H 1539.15 7.48586 -1.91934 0
M  V30 16034 H 1537.5 6.73396 -1.71938 0
M  V30 16035 H 1540.69 4.59853 -0.8748 0
M  V30 16036 H 1540.86 6.31378 -1.45829 0
M  V30 16037 O 1534.31 0.279252 1.59067 0
M  V30 16038 H 1535 -0.289874 1.91519 0
M  V30 END ATOM
M  V30 BEGIN BOND
M  V30 END BOND
M  V30 END CTAB
M  END
$$$$
