drugbank_target|Q08170 Serine/arginine-rich splicing factor 4 (DB11638)
 OpenBabel12092121093D

  0  0  0     0  0            999 V3000
M  V30 BEGIN CTAB
M  V30 COUNTS 7994 8035 0 0 0
M  V30 BEGIN ATOM
M  V30 1 H -0.908 1.98254 -0.117106 0
M  V30 2 N 0 1.576 0 0
M  V30 3 C 0.933 2.03868 1.02534 0
M  V30 4 C 1.911 0.928543 1.3348 0
M  V30 5 O 3.095 1.19667 1.45644 0
M  V30 6 C 0.222 2.43627 2.35294 0
M  V30 7 C -0.732 3.65373 2.2001 0
M  V30 8 S 0.101 5.13292 1.52614 0
M  V30 9 C 1.257 5.56322 2.86805 0
M  V30 10 H 1.49 2.90518 0.631377 0
M  V30 11 H -0.977 1.52953 0.210867 0
M  V30 12 H 0.981 2.67203 3.11629 0
M  V30 13 H -0.358 1.57376 2.7183 0
M  V30 14 H -1.165 3.90944 3.18086 0
M  V30 15 H -1.563 3.418 1.51819 0
M  V30 16 H 0.729 5.58782 3.83104 0
M  V30 17 H 1.672 6.56266 2.65933 0
M  V30 18 H 2.08 4.83886 2.90714 0
M  V30 19 N 1.4781 -0.272755 1.55222 0
M  V30 20 C 2.8891 -0.84378 1.66545 0
M  V30 21 C 3.2401 -1.87035 0.592641 0
M  V30 22 O 2.3651 -2.14761 -0.265818 0
M  V30 23 C 2.9601 -1.53723 3.01918 0
M  V30 24 C 1.5191 -2.05628 3.15268 0
M  V30 25 C 0.6661 -0.898424 2.62343 0
M  V30 26 H 3.6171 -0.0490998 1.58624 0
M  V30 27 H 3.6381 -2.40421 2.94921 0
M  V30 28 H 3.1501 -0.78983 3.79978 0
M  V30 29 H 1.2511 -2.83329 2.41983 0
M  V30 30 H 1.3641 -2.27142 4.21833 0
M  V30 31 H -0.2719 -1.29186 2.19506 0
M  V30 32 H 0.5111 -0.164528 3.42906 0
M  V30 33 N 2.9562 -1.48159 -0.537278 0
M  V30 34 C 4.3722 -1.34118 -0.865129 0
M  V30 35 C 4.5722 -0.346678 -1.98495 0
M  V30 36 O 3.6282 0.234715 -2.51407 0
M  V30 37 C 4.9412 -2.73963 -1.23954 0
M  V30 38 C 6.4892 -2.82397 -1.34984 0
M  V30 39 C 6.9642 -4.22928 -1.75772 0
M  V30 40 N 8.4552 -4.25566 -1.82887 0
M  V30 41 C 9.1902 -5.31235 -2.15817 0
M  V30 42 N 8.6862 -6.47189 -2.47222 0
M  V30 43 N 10.4792 -5.18624 -2.16761 0
M  V30 44 H 2.6302 -2.1144 0.201715 0
M  V30 45 H 4.8932 -0.947598 0.0275949 0
M  V30 46 H 4.5992 -3.48264 -0.490381 0
M  V30 47 H 4.4732 -3.0702 -2.19132 0
M  V30 48 H 6.8602 -2.08356 -2.08978 0
M  V30 49 H 6.9412 -2.5297 -0.379448 0
M  V30 50 H 6.5852 -4.97482 -1.02341 0
M  V30 51 H 6.5152 -4.49794 -2.73848 0
M  V30 52 H 9.0062 -3.41924 -1.60924 0
M  V30 53 H 9.3192 -7.23564 -2.71433 0
M  V30 54 H 7.6642 -6.50476 -2.44757 0
M  V30 55 H 10.8552 -4.27056 -1.91679 0
M  V30 56 H 11.0282 -6.01078 -2.42093 0
M  V30 57 N 4.4343 0.785586 -1.36625 0
M  V30 58 C 5.6803 1.54591 -1.31261 0
M  V30 59 C 6.0133 1.93906 0.106823 0
M  V30 60 O 5.2883 1.63007 1.06108 0
M  V30 61 C 5.5713 2.82038 -2.23889 0
M  V30 62 C 5.4243 2.49066 -3.74548 0
M  V30 63 C 6.7433 3.83887 -2.15217 0
M  V30 64 H 3.8623 0.560846 -0.478143 0
M  V30 65 H 6.5043 0.902278 -1.67209 0
M  V30 66 H 4.6543 3.36961 -1.93363 0
M  V30 67 H 6.3263 2.00164 -4.15611 0
M  V30 68 H 4.5693 1.81954 -3.93796 0
M  V30 69 H 5.2403 3.40109 -4.34776 0
M  V30 70 H 7.7163 3.38421 -2.42096 0
M  V30 71 H 6.5923 4.70806 -2.82193 0
M  V30 72 H 6.8533 4.27131 -1.14068 0
M  V30 73 N 5.9124 1.20967 1.01018 0
M  V30 74 C 7.1424 1.04803 1.78044 0
M  V30 75 C 7.5504 -0.405462 1.84804 0
M  V30 76 O 6.8934 -1.2932 1.30468 0
M  V30 77 C 6.9554 1.56377 3.23707 0
M  V30 78 C 6.6194 3.04767 3.40538 0
M  V30 79 C 7.6164 4.02366 3.29239 0
M  V30 80 C 5.3014 3.43862 3.66147 0
M  V30 81 C 7.2954 5.37049 3.43304 0
M  V30 82 C 4.9824 4.78699 3.79855 0
M  V30 83 C 5.9804 5.75101 3.68439 0
M  V30 84 O 5.6684 7.07493 3.81719 0
M  V30 85 H 5.4004 0.368778 0.56655 0
M  V30 86 H 7.9544 1.60642 1.27997 0
M  V30 87 H 6.1844 0.949297 3.74867 0
M  V30 88 H 7.8734 1.36136 3.8239 0
M  V30 89 H 8.6394 3.73506 3.09384 0
M  V30 90 H 4.5184 2.69364 3.74118 0
M  V30 91 H 8.0624 6.12277 3.34309 0
M  V30 92 H 3.9594 5.07247 3.99213 0
M  V30 93 H 4.7274 7.1483 3.98697 0
M  V30 94 N 7.3905 -1.2043 1.01659 0
M  V30 95 C 8.6395 -1.89118 0.701237 0
M  V30 96 C 8.9525 -1.79705 -0.772358 0
M  V30 97 O 10.1585 -2.43528 -1.20026 0
M  V30 98 C 8.6145 -3.39168 1.20388 0
M  V30 99 C 8.2225 -3.57166 2.70438 0
M  V30 100 C 9.9665 -4.1341 0.963953 0
M  V30 101 C 7.8735 -5.01042 3.14183 0
M  V30 102 H 6.8035 -0.708267 0.2586 0
M  V30 103 H 9.4545 -1.36239 1.22927 0
M  V30 104 H 7.8365 -3.91369 0.603824 0
M  V30 105 H 9.0105 -3.15351 3.35992 0
M  V30 106 H 7.3255 -2.96294 2.92572 0
M  V30 107 H 9.9225 -5.19491 1.26621 0
M  V30 108 H 10.2655 -4.16181 -0.099578 0
M  V30 109 H 10.7985 -3.67309 1.52738 0
M  V30 110 H 7.5375 -5.03426 4.19812 0
M  V30 111 H 7.0575 -5.43668 2.53348 0
M  V30 112 H 8.7365 -5.69623 3.0682 0
M  V30 113 N 8.8686 -0.792821 -1.36206 0
M  V30 114 C 10.1166 -0.366062 -1.98757 0
M  V30 115 C 10.4376 1.0668 -1.63231 0
M  V30 116 O 9.7076 1.73587 -0.907978 0
M  V30 117 H 8.2876 -0.132364 -0.735179 0
M  V30 118 H 10.9496 -1.01562 -1.66347 0
M  V30 119 H 10.0456 -0.460638 -3.08682 0
M  V30 120 N 10.3467 1.47872 -0.545128 0
M  V30 121 C 11.7627 1.5829 -0.204032 0
M  V30 122 C 11.9627 1.54529 1.29317 0
M  V30 123 O 11.0187 1.44232 2.07252 0
M  V30 124 C 12.3317 2.89304 -0.819987 0
M  V30 125 C 13.8797 3.02864 -0.790105 0
M  V30 126 C 14.3547 4.3656 -1.38491 0
M  V30 127 N 15.8457 4.43165 -1.34755 0
M  V30 128 C 16.5807 5.45153 -1.77753 0
M  V30 129 N 16.0767 6.54016 -2.2855 0
M  V30 130 N 17.8697 5.36125 -1.68897 0
M  V30 131 H 10.0207 1.4856 -1.51802 0
M  V30 132 H 12.2837 0.706305 -0.632327 0
M  V30 133 H 11.9897 2.97757 -1.87173 0
M  V30 134 H 11.8637 3.75957 -0.305915 0
M  V30 135 H 14.2507 2.94014 0.252913 0
M  V30 136 H 14.3317 2.17782 -1.34181 0
M  V30 137 H 13.9757 4.46164 -2.42693 0
M  V30 138 H 13.9057 5.20353 -0.808754 0
M  V30 139 H 16.3967 3.65083 -0.975855 0
M  V30 140 H 16.7097 7.27994 -2.59314 0
M  V30 141 H 15.0547 6.54938 -2.32553 0
M  V30 142 H 18.2457 4.49975 -1.28998 0
M  V30 143 H 18.4187 6.15472 -2.02726 0
M  V30 144 N 11.8248 0.280983 1.55075 0
M  V30 145 C 12.7548 -0.597469 2.25727 0
M  V30 146 C 13.7358 -1.15417 1.24952 0
M  V30 147 O 14.9208 -1.18722 1.53684 0
M  V30 148 C 12.0508 -1.7789 2.98283 0
M  V30 149 C 11.0048 -1.35347 4.06036 0
M  V30 150 C 10.3308 -2.61846 4.66198 0
M  V30 151 C 11.6308 -0.499354 5.19907 0
M  V30 152 H 13.3248 -0.00824265 2.99399 0
M  V30 153 H 10.8708 -0.0025244 1.44 0
M  V30 154 H 12.8238 -2.39937 3.46422 0
M  V30 155 H 11.5478 -2.39405 2.22155 0
M  V30 156 H 10.2068 -0.756156 3.58717 0
M  V30 157 H 9.8548 -3.21632 3.86732 0
M  V30 158 H 9.5548 -2.3409 5.38958 0
M  V30 159 H 11.0788 -3.24732 5.1709 0
M  V30 160 H 12.4928 -1.02498 5.64063 0
M  V30 161 H 10.8898 -0.316424 5.99265 0
M  V30 162 H 11.9598 0.480459 4.82514 0
M  V30 163 N 13.3029 -1.57598 0.00835791 0
M  V30 164 C 14.5279 -1.95617 -0.689103 0
M  V30 165 C 14.9529 -0.883753 -1.66046 0
M  V30 166 O 14.3109 0.157352 -1.80616 0
M  V30 167 C 14.3589 -3.32736 -1.38994 0
M  V30 168 O 13.4629 -3.27631 -2.50463 0
M  V30 169 H 12.8039 -0.638379 -0.182668 0
M  V30 170 H 15.3339 -2.045 0.064036 0
M  V30 171 H 15.3439 -3.68494 -1.75147 0
M  V30 172 H 14.0189 -4.1034 -0.677778 0
M  V30 173 H 12.5959 -3.03561 -2.16576 0
M  V30 174 N 14.781 0.264519 -1.55364 0
M  V30 175 C 16.011 1.01153 -1.80143 0
M  V30 176 C 16.419 1.80115 -0.579253 0
M  V30 177 O 15.762 1.77813 0.46132 0
M  V30 178 C 15.824 2.01098 -2.97993 0
M  V30 179 C 15.488 1.40995 -4.34706 0
M  V30 180 C 16.485 0.821316 -5.13372 0
M  V30 181 C 14.17 1.43461 -4.81378 0
M  V30 182 C 16.164 0.265339 -6.36847 0
M  V30 183 C 13.851 0.874771 -6.04807 0
M  V30 184 C 14.849 0.291146 -6.82379 0
M  V30 185 O 14.537 -0.260093 -8.03479 0
M  V30 186 H 14.269 0.304125 -0.603725 0
M  V30 187 H 16.823 0.298089 -2.03225 0
M  V30 188 H 15.053 2.76224 -2.70623 0
M  V30 189 H 16.742 2.61997 -3.1002 0
M  V30 190 H 17.508 0.794903 -4.78442 0
M  V30 191 H 13.387 1.87826 -4.21002 0
M  V30 192 H 16.931 -0.190837 -6.97339 0
M  V30 193 H 12.828 0.898452 -6.39217 0
M  V30 194 H 13.596 -0.150265 -8.18362 0
M  V30 195 N 16.2591 1.48442 0.529413 0
M  V30 196 C 17.1911 1.59095 1.64989 0
M  V30 197 C 18.2041 0.475212 1.5571 0
M  V30 198 O 19.3931 0.746081 1.6216 0
M  V30 199 C 16.4931 1.50518 3.0364 0
M  V30 200 C 15.6661 2.77142 3.38395 0
M  V30 201 C 14.7251 2.62012 4.56329 0
M  V30 202 O 13.7511 3.35898 4.59522 0
M  V30 203 N 14.9531 1.71667 5.54536 0
M  V30 204 H 17.7181 2.55723 1.56287 0
M  V30 205 H 15.2791 1.45173 0.716697 0
M  V30 206 H 17.2711 1.38091 3.80412 0
M  V30 207 H 15.8411 0.618627 3.06418 0
M  V30 208 H 15.0611 3.0413 2.50796 0
M  V30 209 H 16.3491 3.61146 3.58401 0
M  V30 210 H 15.7471 1.10841 5.54735 0
M  V30 211 H 14.3041 1.65178 6.30523 0
M  V30 212 N 17.7372 -0.778329 1.37039 0
M  V30 213 C 18.7002 -1.87301 1.32102 0
M  V30 214 C 19.7002 -1.59198 0.226405 0
M  V30 215 O 20.8902 -1.67403 0.481861 0
M  V30 216 C 18.0222 -3.24309 1.05055 0
M  V30 217 H 19.2152 -1.93093 2.29467 0
M  V30 218 H 16.7682 -0.977358 1.21973 0
M  V30 219 H 17.5032 -3.24196 0.0819373 0
M  V30 220 H 17.2882 -3.46098 1.84279 0
M  V30 221 H 18.7782 -4.04382 1.04234 0
M  V30 222 N 19.2153 -1.21501 -1.00376 0
M  V30 223 C 20.6313 -0.972629 -1.26539 0
M  V30 224 C 20.8313 0.340257 -1.98606 0
M  V30 225 O 19.8873 1.06561 -2.28913 0
M  V30 226 C 21.2003 -2.16404 -2.08781 0
M  V30 227 C 22.7483 -2.20643 -2.22004 0
M  V30 228 C 23.2233 -3.39306 -3.07629 0
M  V30 229 N 24.7143 -3.39401 -3.15217 0
M  V30 230 C 25.4493 -4.27867 -3.81729 0
M  V30 231 N 24.9453 -5.26533 -4.5026 0
M  V30 232 N 26.7383 -4.15672 -3.78382 0
M  V30 233 H 18.8893 -2.05929 -0.520281 0
M  V30 234 H 21.1523 -0.901803 -0.292328 0
M  V30 235 H 20.8583 -3.11554 -1.63178 0
M  V30 236 H 20.7323 -2.15567 -3.09533 0
M  V30 237 H 23.1193 -1.26048 -2.66825 0
M  V30 238 H 23.2003 -2.25523 -1.20718 0
M  V30 239 H 22.8443 -4.34195 -2.63509 0
M  V30 240 H 22.7743 -3.31665 -4.09031 0
M  V30 241 H 25.2653 -2.67997 -2.66432 0
M  V30 242 H 25.5783 -5.90337 -4.98721 0
M  V30 243 H 23.9233 -5.30457 -4.49044 0
M  V30 244 H 27.1143 -3.3785 -3.23998 0
M  V30 245 H 27.2873 -4.84825 -4.2994 0
M  V30 246 N 20.6934 1.19889 -1.02296 0
M  V30 247 C 21.6034 2.26571 -0.608508 0
M  V30 248 C 22.6194 1.70299 0.356964 0
M  V30 249 O 23.7954 2.00235 0.216326 0
M  V30 250 C 20.8604 3.46677 0.0402814 0
M  V30 251 C 19.9214 4.18153 -0.97194 0
M  V30 252 C 19.1544 5.32525 -0.354016 0
M  V30 253 O 19.3774 5.64112 0.844604 0
M  V30 254 O 18.3114 5.92242 -1.07391 0
M  V30 255 H 22.1374 2.64251 -1.49684 0
M  V30 256 H 19.7224 1.26629 -0.792809 0
M  V30 257 H 21.6044 4.19475 0.402324 0
M  V30 258 H 20.2794 3.10858 0.902707 0
M  V30 259 H 19.1864 3.47499 -1.38546 0
M  V30 260 H 20.5194 4.57927 -1.80454 0
M  V30 261 N 22.1715 0.800033 1.35784 0
M  V30 262 C 23.5875 0.482977 1.52117 0
M  V30 263 C 23.7875 -0.996948 1.75109 0
M  V30 264 O 22.8435 -1.78216 1.78872 0
M  V30 265 C 24.1565 1.32264 2.70049 0
M  V30 266 C 25.7045 1.31742 2.83924 0
M  V30 267 C 26.1795 2.14106 4.04874 0
M  V30 268 N 27.6705 2.11607 4.12039 0
M  V30 269 C 28.4055 2.72099 5.04727 0
M  V30 270 N 27.9015 3.41492 6.02789 0
M  V30 271 N 29.6945 2.61776 4.97423 0
M  V30 272 H 21.8455 1.75856 1.19115 0
M  V30 273 H 24.1085 0.748122 0.582252 0
M  V30 274 H 23.8145 2.37261 2.59616 0
M  V30 275 H 23.6885 0.971303 3.6448 0
M  V30 276 H 26.0755 0.275333 2.93813 0
M  V30 277 H 26.1565 1.70859 1.9037 0
M  V30 278 H 25.8005 3.18351 3.95746 0
M  V30 279 H 25.7305 1.72353 4.97596 0
M  V30 280 H 28.2215 1.61112 3.41835 0
M  V30 281 H 28.5345 3.84953 6.70098 0
M  V30 282 H 26.8795 3.45596 6.02983 0
M  V30 283 H 30.0705 2.07157 4.19766 0
M  V30 284 H 30.2435 3.0921 5.69468 0
M  V30 285 N 23.6496 -1.47581 0.552962 0
M  V30 286 C 24.9266 -1.95563 -0.0381515 0
M  V30 287 C 25.3066 -1.49552 -1.48988 0
M  V30 288 O 24.6546 -0.732414 -2.16444 0
M  V30 289 C 24.8646 -3.48848 0.102919 0
M  V30 290 C 26.2126 -4.24577 -0.0446082 0
M  V30 291 O 27.2366 -3.56187 0.0302548 0
M  V30 292 O 26.0956 -5.46116 -0.204923 0
M  V30 293 H 23.1896 -0.824321 -0.0665067 0
M  V30 294 H 25.7356 -1.58001 0.619186 0
M  V30 295 H 24.5076 -3.75129 1.11328 0
M  V30 296 H 24.1306 -3.93165 -0.592224 0
M  V30 297 N 25.1277 -0.289203 -1.54924 0
M  V30 298 C 26.3737 0.323998 -2.00195 0
M  V30 299 C 26.7067 1.54441 -1.17735 0
M  V30 300 O 25.9817 1.92875 -0.250878 0
M  V30 301 C 26.2647 0.692276 -3.53383 0
M  V30 302 C 26.1177 -0.536457 -4.46589 0
M  V30 303 C 27.4367 1.52335 -4.12895 0
M  V30 304 H 24.5557 0.116289 -0.727768 0
M  V30 305 H 27.1977 -0.398954 -1.85764 0
M  V30 306 H 25.3477 1.30822 -3.65811 0
M  V30 307 H 27.0197 -1.17499 -4.46085 0
M  V30 308 H 25.2627 -1.17192 -4.1767 0
M  V30 309 H 25.9337 -0.234806 -5.515 0
M  V30 310 H 28.4097 1.00302 -4.0383 0
M  V30 311 H 27.2857 1.74982 -5.20262 0
M  V30 312 H 27.5467 2.50886 -3.64018 0
M  V30 313 N 26.6058 1.57591 -0.0167156 0
M  V30 314 C 27.5158 2.1291 0.98521 0
M  V30 315 C 28.5318 1.07834 1.36557 0
M  V30 316 O 29.7078 1.39826 1.44951 0
M  V30 317 C 26.7728 2.63512 2.25305 0
M  V30 318 C 25.8338 3.83256 1.93426 0
M  V30 319 C 25.0668 4.31435 3.14165 0
M  V30 320 O 25.2898 3.78851 4.26413 0
M  V30 321 O 24.2238 5.23416 2.97186 0
M  V30 322 H 28.0498 2.98772 0.544888 0
M  V30 323 H 25.6348 1.48012 0.203141 0
M  V30 324 H 27.5168 2.96183 2.99756 0
M  V30 325 H 26.1918 1.8074 2.68542 0
M  V30 326 H 25.0988 3.55531 1.16398 0
M  V30 327 H 26.4318 4.67153 1.55013 0
M  V30 328 N 28.0839 -0.256276 1.55502 0
M  V30 329 C 29.4999 -0.604325 1.47716 0
M  V30 330 C 29.6999 -1.88763 0.705039 0
M  V30 331 O 28.7559 -2.51445 0.230613 0
M  V30 332 C 30.0689 -0.715756 2.92057 0
M  V30 333 C 31.6169 -0.808706 3.02372 0
M  V30 334 C 32.0919 -0.951777 4.48001 0
M  V30 335 N 33.5829 -1.01688 4.519 0
M  V30 336 C 34.3179 -1.14668 5.61817 0
M  V30 337 N 33.8139 -1.24261 6.81565 0
M  V30 338 N 35.6069 -1.1791 5.49594 0
M  V30 339 H 27.7579 0.586291 2.04148 0
M  V30 340 H 30.0209 0.201015 0.926443 0
M  V30 341 H 29.7269 0.157027 3.51349 0
M  V30 342 H 29.6009 -1.59071 3.42018 0
M  V30 343 H 31.9879 -1.67195 2.43166 0
M  V30 344 H 32.0689 0.0912063 2.55637 0
M  V30 345 H 31.7129 -0.0931291 5.07815 0
M  V30 346 H 31.6429 -1.86659 4.92408 0
M  V30 347 H 34.1339 -0.954468 3.65648 0
M  V30 348 H 34.4469 -1.34046 7.61086 0
M  V30 349 H 32.7919 -1.21236 6.84344 0
M  V30 350 H 35.9829 -1.10057 4.54978 0
M  V30 351 H 36.1559 -1.27681 6.35296 0
M  V30 352 N 29.562 -1.4872 -0.521534 0
M  V30 353 C 30.809 -1.57168 -1.27689 0
M  V30 354 C 31.137 -0.249275 -1.92896 0
M  V30 355 O 30.392 0.761162 -1.80291 0
M  V30 356 C 30.691 -2.66497 -2.38148 0
M  V30 357 C 30.357 -4.08664 -1.90538 0
M  V30 358 C 29.019 -4.47357 -1.77271 0
M  V30 359 C 31.371 -4.97724 -1.54663 0
M  V30 360 C 28.699 -5.72905 -1.26478 0
M  V30 361 C 31.051 -6.2377 -1.05329 0
M  V30 362 C 29.715 -6.61311 -0.906861 0
M  V30 363 H 28.985 -0.575117 -0.467249 0
M  V30 364 H 31.632 -1.82472 -0.581051 0
M  V30 365 H 29.937 -2.35085 -3.13437 0
M  V30 366 H 31.634 -2.70246 -2.96257 0
M  V30 367 H 28.224 -3.78111 -2.01816 0
M  V30 368 H 32.408 -4.68501 -1.63768 0
M  V30 369 H 27.664 -6.00709 -1.13835 0
M  V30 370 H 31.838 -6.9217 -0.76644 0
M  V30 371 H 29.465 -7.5848 -0.511083 0
M  V30 372 N 31.0401 0.771051 -1.3745 0
M  V30 373 C 32.2871 1.52963 -1.32697 0
M  V30 374 C 32.6151 1.94299 0.0883274 0
M  V30 375 O 31.8701 1.64397 1.0617 0
M  V30 376 C 32.1691 2.80676 -2.2126 0
M  V30 377 C 31.8351 2.58389 -3.69521 0
M  V30 378 C 30.4971 2.52019 -4.09927 0
M  V30 379 C 32.8491 2.38469 -4.63446 0
M  V30 380 C 30.1771 2.23721 -5.42371 0
M  V30 381 C 32.5291 2.11694 -5.96128 0
M  V30 382 C 31.1931 2.03769 -6.35637 0
M  V30 383 H 30.4631 0.559732 -0.485573 0
M  V30 384 H 33.1101 0.888083 -1.69662 0
M  V30 385 H 31.4151 3.49392 -1.77291 0
M  V30 386 H 33.1121 3.38557 -2.14895 0
M  V30 387 H 29.7021 2.6421 -3.37478 0
M  V30 388 H 33.8861 2.4238 -4.33089 0
M  V30 389 H 29.1421 2.16081 -5.71943 0
M  V30 390 H 33.3161 1.9528 -6.6846 0
M  V30 391 H 30.9431 1.81606 -7.38189 0
M  V30 392 N 32.5182 1.22032 0.997298 0
M  V30 393 C 33.4652 0.986467 2.08656 0
M  V30 394 C 34.4352 -0.0902671 1.65855 0
M  V30 395 O 35.6202 0.0584294 1.90711 0
M  V30 396 C 32.7602 0.565569 3.40434 0
M  V30 397 C 31.8732 1.71259 3.96604 0
M  V30 398 C 31.0082 1.24011 5.16522 0
M  V30 399 C 30.0472 2.35896 5.64818 0
M  V30 400 N 29.1842 1.89726 6.7598 0
M  V30 401 H 34.0242 1.91892 2.27994 0
M  V30 402 H 31.5612 0.956199 1.11782 0
M  V30 403 H 33.5192 0.302738 4.161 0
M  V30 404 H 32.1492 -0.329879 3.2111 0
M  V30 405 H 31.2012 2.08986 3.17851 0
M  V30 406 H 32.5132 2.55436 4.28432 0
M  V30 407 H 31.6672 0.934395 5.99461 0
M  V30 408 H 30.4062 0.368487 4.86306 0
M  V30 409 H 29.4112 2.67261 4.8047 0
M  V30 410 H 30.6362 3.23567 5.97061 0
M  V30 411 H 28.5822 1.0492 6.47555 0
M  V30 412 H 28.4992 2.67471 7.07103 0
M  V30 413 H 29.7672 1.62211 7.62435 0
M  V30 414 N 33.9963 -1.19345 1.0293 0
M  V30 415 C 35.2443 -1.88665 0.724574 0
M  V30 416 C 35.5653 -1.80036 -0.749144 0
M  V30 417 O 34.8353 -1.2111 -1.53978 0
M  V30 418 H 33.4153 -0.698406 0.265025 0
M  V30 419 H 36.0773 -1.44885 1.30362 0
M  V30 420 H 35.1733 -2.94987 1.01926 0
M  V30 421 N 35.4744 -0.807222 -1.35358 0
M  V30 422 C 36.7044 -0.399796 -2.02695 0
M  V30 423 C 37.1124 0.994176 -1.60974 0
M  V30 424 O 36.4554 1.65209 -0.803226 0
M  V30 425 C 36.5174 -0.404445 -3.57218 0
M  V30 426 C 36.1814 -1.74904 -4.22206 0
M  V30 427 C 37.1784 -2.70743 -4.4384 0
M  V30 428 C 34.8634 -2.03322 -4.5931 0
M  V30 429 C 36.8574 -3.93183 -5.01683 0
M  V30 430 C 34.5444 -3.26026 -5.16866 0
M  V30 431 C 35.5424 -4.20774 -5.37994 0
M  V30 432 O 35.2304 -5.41312 -5.94337 0
M  V30 433 H 34.9624 -0.160517 -0.656666 0
M  V30 434 H 37.5164 -1.09235 -1.73945 0
M  V30 435 H 35.7464 0.344707 -3.85161 0
M  V30 436 H 37.4354 -0.0192429 -4.05895 0
M  V30 437 H 38.2014 -2.5008 -4.15554 0
M  V30 438 H 34.0804 -1.30384 -4.42178 0
M  V30 439 H 37.6244 -4.6715 -5.1809 0
M  V30 440 H 33.5214 -3.46559 -5.44579 0
M  V30 441 H 34.2894 -5.42618 -6.12787 0
M  V30 442 N 36.9525 1.47285 -0.560781 0
M  V30 443 C 38.2005 2.02064 -0.0379868 0
M  V30 444 C 38.5215 1.43711 1.31803 0
M  V30 445 O 37.7915 0.61362 1.86042 0
M  V30 446 H 36.3715 0.746918 -0.0110531 0
M  V30 447 H 39.0335 1.80648 -0.731598 0
M  V30 448 H 38.1295 3.12064 0.0474463 0
M  V30 449 N 38.4306 0.297415 1.54768 0
M  V30 450 C 39.3776 -0.580276 2.23386 0
M  V30 451 C 40.3476 -1.13238 1.21517 0
M  V30 452 O 41.5326 -1.17757 1.50126 0
M  V30 453 C 38.6726 -1.74801 2.97555 0
M  V30 454 C 37.7856 -1.22764 4.1419 0
M  V30 455 C 36.9206 -2.35895 4.75949 0
M  V30 456 C 35.9596 -1.80974 5.84735 0
M  V30 457 N 35.0966 -2.87664 6.40464 0
M  V30 458 H 39.9366 0.0114833 2.97998 0
M  V30 459 H 37.4736 0.0174361 1.4709 0
M  V30 460 H 39.4316 -2.43475 3.38786 0
M  V30 461 H 38.0616 -2.31145 2.25326 0
M  V30 462 H 37.1136 -0.433271 3.77924 0
M  V30 463 H 38.4256 -0.785551 4.92575 0
M  V30 464 H 37.5796 -3.12523 5.20014 0
M  V30 465 H 36.3186 -2.83429 3.96887 0
M  V30 466 H 35.3236 -1.02834 5.40097 0
M  V30 467 H 36.5486 -1.34348 6.65678 0
M  V30 468 H 34.4946 -3.34538 5.64287 0
M  V30 469 H 34.4116 -2.4794 7.14186 0
M  V30 470 H 35.6796 -3.642 6.89187 0
M  V30 471 N 39.9087 -1.5758 0.0250728 0
M  V30 472 C 41.1577 -1.90811 -0.653767 0
M  V30 473 C 41.4707 -0.90273 -1.73523 0
M  V30 474 O 42.6767 -1.12614 -2.47043 0
M  V30 475 C 41.1327 -3.38804 -1.21409 0
M  V30 476 C 40.7407 -4.47692 -0.166126 0
M  V30 477 C 42.4847 -3.81108 -1.86967 0
M  V30 478 C 40.3917 -5.86779 -0.737856 0
M  V30 479 H 39.3217 -0.712063 -0.247956 0
M  V30 480 H 41.9727 -1.83281 0.0897137 0
M  V30 481 H 40.3547 -3.41252 -2.00905 0
M  V30 482 H 41.5287 -4.56797 0.606079 0
M  V30 483 H 39.8437 -4.14565 0.390466 0
M  V30 484 H 42.4407 -4.82375 -2.30692 0
M  V30 485 H 42.7837 -3.15953 -2.71071 0
M  V30 486 H 43.3167 -3.81065 -1.14167 0
M  V30 487 H 40.0557 -6.55468 0.0649577 0
M  V30 488 H 39.5757 -5.81288 -1.47864 0
M  V30 489 H 41.2547 -6.35223 -1.22884 0
M  V30 490 N 41.3868 0.248026 -1.55636 0
M  V30 491 C 42.3168 1.31079 -1.93237 0
M  V30 492 C 43.2978 1.50264 -0.797174 0
M  V30 493 O 44.4828 1.62891 -1.05737 0
M  V30 494 C 41.6128 2.66575 -2.22609 0
M  V30 495 C 40.5668 2.62087 -3.3837 0
M  V30 496 C 39.8928 4.01369 -3.53281 0
M  V30 497 C 41.1928 2.19171 -4.7409 0
M  V30 498 H 42.8868 0.998556 -2.82257 0
M  V30 499 H 40.4328 0.47891 -1.35803 0
M  V30 500 H 42.3858 3.41057 -2.47503 0
M  V30 501 H 41.1098 2.99432 -1.30414 0
M  V30 502 H 39.7688 1.90063 -3.13483 0
M  V30 503 H 39.4168 4.31489 -2.58508 0
M  V30 504 H 39.1168 3.99254 -4.31127 0
M  V30 505 H 40.6408 4.77552 -3.80495 0
M  V30 506 H 42.0548 2.83384 -4.98363 0
M  V30 507 H 40.4518 2.2817 -5.5503 0
M  V30 508 H 41.5218 1.14336 -4.71227 0
M  V30 509 N 42.8649 1.48995 0.513639 0
M  V30 510 C 43.7749 1.67443 1.64317 0
M  V30 511 C 44.7909 0.556947 1.64846 0
M  V30 512 O 45.9669 0.830082 1.83498 0
M  V30 513 C 43.0319 1.72515 3.00732 0
M  V30 514 C 42.0929 2.96009 3.1093 0
M  V30 515 C 41.3259 3.00829 4.40837 0
M  V30 516 O 41.5489 2.13594 5.28898 0
M  V30 517 O 40.4829 3.93168 4.55744 0
M  V30 518 H 44.3089 2.63106 1.51687 0
M  V30 519 H 41.8939 1.32588 0.688543 0
M  V30 520 H 43.7759 1.78277 3.81831 0
M  V30 521 H 42.4509 0.800278 3.13651 0
M  V30 522 H 41.3579 2.9577 2.29065 0
M  V30 523 H 42.6909 3.87934 3.02933 0
M  V30 524 N 44.343 -0.763751 1.37857 0
M  V30 525 C 45.589 -1.52483 1.33704 0
M  V30 526 C 45.922 -1.94051 -0.0759612 0
M  V30 527 O 45.197 -1.64675 -1.03501 0
M  V30 528 C 45.48 -2.78441 2.28348 0
M  V30 529 C 45.333 -2.43075 3.78463 0
M  V30 530 C 46.652 -3.80415 2.21298 0
M  V30 531 H 43.771 -0.553169 0.487005 0
M  V30 532 H 46.413 -0.875562 1.68624 0
M  V30 533 H 44.563 -3.33842 1.987 0
M  V30 534 H 46.235 -1.93527 4.18742 0
M  V30 535 H 44.478 -1.75666 3.96641 0
M  V30 536 H 45.149 -3.33149 4.40132 0
M  V30 537 H 47.625 -3.34527 2.47449 0
M  V30 538 H 46.501 -4.66257 2.89647 0
M  V30 539 H 46.762 -4.25262 1.20849 0
M  V30 540 N 45.8211 -1.22559 -0.990812 0
M  V30 541 C 47.0981 -0.959875 -1.70428 0
M  V30 542 C 47.4781 0.524455 -2.04481 0
M  V30 543 O 46.8261 1.49302 -1.72977 0
M  V30 544 C 47.0361 -1.85955 -2.95333 0
M  V30 545 C 48.3841 -2.11687 -3.68068 0
M  V30 546 O 49.4081 -1.8342 -3.05345 0
M  V30 547 O 48.2671 -2.59572 -4.80921 0
M  V30 548 H 45.3611 -0.361154 -0.743974 0
M  V30 549 H 47.9071 -1.33554 -1.04697 0
M  V30 550 H 46.6791 -2.86346 -2.66687 0
M  V30 551 H 46.3021 -1.4856 -3.68803 0
M  V30 552 N 47.2992 1.18797 -1.03562 0
M  V30 553 C 48.2292 2.24472 -0.643019 0
M  V30 554 C 49.2102 1.66433 0.351283 0
M  V30 555 O 50.3952 1.92803 0.232505 0
M  V30 556 C 47.5252 3.473 4.24935e-05 0
M  V30 557 C 46.4792 4.18055 -0.917257 0
M  V30 558 C 45.8052 5.34519 -0.138941 0
M  V30 559 C 47.1052 4.72109 -2.23407 0
M  V30 560 H 48.7992 2.57566 -1.52643 0
M  V30 561 H 46.3452 1.23806 -0.735394 0
M  V30 562 H 48.2982 4.20426 0.286383 0
M  V30 563 H 47.0222 3.13424 0.918299 0
M  V30 564 H 45.6812 3.46821 -1.1879 0
M  V30 565 H 45.3292 4.96891 0.781562 0
M  V30 566 H 45.0292 5.82794 -0.750005 0
M  V30 567 H 46.5532 6.10438 0.1405 0
M  V30 568 H 47.9672 5.36955 -2.00879 0
M  V30 569 H 46.3642 5.30897 -2.79765 0
M  V30 570 H 47.4342 3.89807 -2.88407 0
M  V30 571 N 48.7773 0.814389 1.34928 0
M  V30 572 C 49.7243 0.22822 2.29669 0
M  V30 573 C 50.6943 -0.642164 1.53184 0
M  V30 574 O 51.8793 -0.585605 1.81591 0
M  V30 575 C 49.0193 -0.61089 3.3965 0
M  V30 576 C 48.1323 0.280792 4.31086 0
M  V30 577 C 47.2673 -0.567067 5.28165 0
M  V30 578 C 46.3063 0.324531 6.11239 0
M  V30 579 N 45.4433 -0.483756 7.00431 0
M  V30 580 H 50.2833 1.04153 2.79206 0
M  V30 581 H 47.8203 0.525133 1.37407 0
M  V30 582 H 49.7783 -1.11263 4.0209 0
M  V30 583 H 48.4083 -1.38939 2.91369 0
M  V30 584 H 47.4603 0.900688 3.69583 0
M  V30 585 H 48.7723 0.966723 4.89342 0
M  V30 586 H 47.9263 -1.13363 5.96015 0
M  V30 587 H 46.6653 -1.28654 4.70425 0
M  V30 588 H 45.6703 0.903298 5.42329 0
M  V30 589 H 46.8953 1.04198 6.71059 0
M  V30 590 H 44.8413 -1.18706 6.45171 0
M  V30 591 H 44.7583 0.143965 7.55863 0
M  V30 592 H 46.0263 -1.03334 7.7262 0
M  V30 593 N 50.2554 -1.46986 0.568584 0
M  V30 594 C 51.2034 -2.31858 -0.185649 0
M  V30 595 C 52.1974 -1.43624 -0.898249 0
M  V30 596 O 53.4034 -1.60327 -0.818242 0
M  V30 597 H 49.7784 -0.747866 -0.0787399 0
M  V30 598 H 51.7494 -2.93303 0.549191 0
M  V30 599 C 50.4984 -3.26513 -1.19519 0
M  V30 600 H 49.8214 -3.94377 -0.656285 0
M  V30 601 H 51.2614 -3.88707 -1.6936 0
M  V30 602 C 49.7204 -2.50847 -2.24894 0
M  V30 603 O 50.2504 -2.26119 -3.32014 0
M  V30 604 N 48.4564 -2.11656 -1.99124 0
M  V30 605 H 48.0034 -2.31966 -1.12024 0
M  V30 606 H 47.9614 -1.61347 -2.69842 0
M  V30 607 N 51.7335 -0.305618 -1.54608 0
M  V30 608 C 52.9815 0.301701 -1.99835 0
M  V30 609 C 53.3025 1.54054 -1.19551 0
M  V30 610 O 52.5725 1.93702 -0.292658 0
M  V30 611 H 51.1525 0.114468 -0.738178 0
M  V30 612 H 53.8145 -0.418016 -1.90364 0
M  V30 613 H 52.9105 0.570548 -3.06841 0
M  V30 614 N 53.2116 1.57565 -0.0334293 0
M  V30 615 C 54.4416 1.95996 0.653398 0
M  V30 616 C 54.8496 0.908749 1.65947 0
M  V30 617 O 54.1926 -0.117471 1.83324 0
M  V30 618 C 54.2546 3.30589 1.41249 0
M  V30 619 C 53.9186 4.53503 0.564263 0
M  V30 620 C 54.9156 5.19647 -0.16225 0
M  V30 621 C 52.6006 4.99801 0.500398 0
M  V30 622 C 54.5946 6.30412 -0.941255 0
M  V30 623 C 52.2816 6.10448 -0.282308 0
M  V30 624 C 53.2796 6.75612 -1.00184 0
M  V30 625 O 52.9676 7.84134 -1.77171 0
M  V30 626 H 52.6996 0.65027 0.184728 0
M  V30 627 H 55.2536 2.05199 -0.0907841 0
M  V30 628 H 53.4836 3.17888 2.20191 0
M  V30 629 H 55.1726 3.53892 1.98784 0
M  V30 630 H 55.9386 4.84846 -0.12227 0
M  V30 631 H 51.8176 4.48883 1.05002 0
M  V30 632 H 55.3616 6.81208 -1.50339 0
M  V30 633 H 51.2586 6.44686 -0.323989 0
M  V30 634 H 52.0266 8.00822 -1.69194 0
M  V30 635 N 54.6897 -0.239769 1.55765 0
M  V30 636 C 55.9377 -0.964892 1.77579 0
M  V30 637 C 56.2587 -1.85582 0.598699 0
M  V30 638 O 55.5287 -1.92075 -0.385226 0
M  V30 639 H 54.1087 -0.359265 0.654933 0
M  V30 640 H 56.7707 -0.256001 1.93211 0
M  V30 641 H 55.8667 -1.58243 2.69009 0
M  V30 642 N 56.1678 -1.49265 -0.50573 0
M  V30 643 C 57.4148 -1.58513 -1.26015 0
M  V30 644 C 57.7428 -0.26972 -1.92621 0
M  V30 645 O 56.9978 0.741997 -1.81088 0
M  V30 646 C 57.2968 -2.69008 -2.35308 0
M  V30 647 C 56.9628 -4.10662 -1.86192 0
M  V30 648 C 55.6248 -4.49212 -1.72516 0
M  V30 649 C 57.9768 -4.99336 -1.49375 0
M  V30 650 C 55.3048 -5.74214 -1.20394 0
M  V30 651 C 57.6568 -6.24852 -0.987072 0
M  V30 652 C 56.3208 -6.62236 -0.836669 0
M  V30 653 H 55.5908 -0.580041 -0.461122 0
M  V30 654 H 58.2378 -1.83078 -0.561665 0
M  V30 655 H 56.5428 -2.38396 -3.10926 0
M  V30 656 H 58.2398 -2.73373 -2.93374 0
M  V30 657 H 54.8298 -3.8023 -1.97795 0
M  V30 658 H 59.0138 -4.70212 -1.5879 0
M  V30 659 H 54.2698 -6.01883 -1.07458 0
M  V30 660 H 58.4438 -6.92944 -0.692983 0
M  V30 661 H 56.0708 -7.58979 -0.430607 0
M  V30 662 N 57.6459 0.756429 -1.3826 0
M  V30 663 C 58.8919 1.51772 -1.34511 0
M  V30 664 C 59.2249 1.94089 0.0656691 0
M  V30 665 O 58.4999 1.65221 1.02626 0
M  V30 666 C 58.7829 2.77226 -2.29821 0
M  V30 667 C 58.6359 2.41065 -3.79747 0
M  V30 668 C 59.9549 3.79236 -2.23312 0
M  V30 669 H 57.0739 0.550578 -0.489931 0
M  V30 670 H 59.7159 0.866607 -1.69086 0
M  V30 671 H 57.8659 3.32784 -2.00467 0
M  V30 672 H 59.5379 1.91303 -4.19763 0
M  V30 673 H 57.7809 1.7356 -3.97567 0
M  V30 674 H 58.4519 3.3081 -4.41892 0
M  V30 675 H 60.9279 3.3321 -2.49219 0
M  V30 676 H 59.8039 4.64714 -2.92116 0
M  V30 677 H 60.0649 4.24615 -1.23102 0
M  V30 678 N 59.124 1.23083 0.984299 0
M  V30 679 C 60.034 1.02515 2.11016 0
M  V30 680 C 61.05 -0.0291702 1.73976 0
M  V30 681 O 62.226 0.165434 2.00719 0
M  V30 682 C 59.291 0.614673 3.41208 0
M  V30 683 C 58.352 1.74359 3.92297 0
M  V30 684 C 57.585 1.35261 5.16275 0
M  V30 685 O 57.808 0.235136 5.69915 0
M  V30 686 O 56.742 2.17227 5.61334 0
M  V30 687 H 60.568 1.96862 2.31255 0
M  V30 688 H 58.153 1.01753 1.09392 0
M  V30 689 H 60.035 0.396518 4.1953 0
M  V30 690 H 58.71 -0.299851 3.22308 0
M  V30 691 H 57.617 2.01635 3.1511 0
M  V30 692 H 58.95 2.63629 4.15645 0
M  V30 693 N 60.6021 -1.18246 1.0419 0
M  V30 694 C 61.8491 -1.88257 0.746017 0
M  V30 695 C 62.1771 -1.80429 -0.726331 0
M  V30 696 O 61.4321 -1.2 -1.54591 0
M  V30 697 C 61.7311 -3.38082 1.15911 0
M  V30 698 C 61.3971 -3.66114 2.63195 0
M  V30 699 C 60.0591 -3.73474 3.03432 0
M  V30 700 C 62.4111 -3.78398 3.5842 0
M  V30 701 C 59.7391 -3.90599 4.37778 0
M  V30 702 C 62.0911 -3.97039 4.92487 0
M  V30 703 C 60.7551 -4.02635 5.32392 0
M  V30 704 H 60.0251 -0.688883 0.272987 0
M  V30 705 H 62.6721 -1.3995 1.30715 0
M  V30 706 H 60.9771 -3.88377 0.516806 0
M  V30 707 H 62.6741 -3.90596 0.907516 0
M  V30 708 H 59.2641 -3.61003 2.3103 0
M  V30 709 H 63.4481 -3.72042 3.28479 0
M  V30 710 H 58.7041 -3.93175 4.68213 0
M  V30 711 H 62.8781 -4.05486 5.66175 0
M  V30 712 H 60.5051 -4.15657 6.36501 0
M  V30 713 N 62.0802 -0.821533 -1.34494 0
M  V30 714 C 63.3572 -0.33159 -1.92769 0
M  V30 715 C 63.7372 1.18088 -1.74981 0
M  V30 716 O 63.0852 1.98733 -1.12772 0
M  V30 717 C 63.2952 -0.759398 -3.40638 0
M  V30 718 C 64.6432 -0.757433 -4.1779 0
M  V30 719 O 65.6672 -0.70189 -3.49216 0
M  V30 720 O 64.5262 -0.829361 -5.4017 0
M  V30 721 H 61.6202 -0.0902502 -0.822061 0
M  V30 722 H 64.1662 -0.906231 -1.43477 0
M  V30 723 H 62.9382 -1.8012 -3.47379 0
M  V30 724 H 62.5612 -0.160378 -3.97276 0
M  V30 725 N 63.5583 1.46682 -0.576371 0
M  V30 726 C 64.8353 1.95599 0.00703437 0
M  V30 727 C 65.2153 1.51904 1.46589 0
M  V30 728 O 64.5633 0.766755 2.15251 0
M  V30 729 C 64.7733 3.4864 -0.158404 0
M  V30 730 C 66.1213 4.24594 -0.0229439 0
M  V30 731 O 67.1453 3.56094 -0.0869173 0
M  V30 732 O 66.0043 5.46373 0.118015 0
M  V30 733 H 63.0983 0.825275 0.053384 0
M  V30 734 H 65.6443 1.56996 -0.644244 0
M  V30 735 H 64.4163 3.7331 -1.17282 0
M  V30 736 H 64.0393 3.94057 0.5296 0
M  V30 737 N 65.0364 0.313813 1.54444 0
M  V30 738 C 65.9664 -0.549454 2.26943 0
M  V30 739 C 66.9474 -1.12741 1.27372 0
M  V30 740 O 68.1324 -1.15436 1.56167 0
M  V30 741 C 65.2624 -1.71523 3.01989 0
M  V30 742 C 64.2164 -1.26703 4.08816 0
M  V30 743 C 63.5424 -2.51898 4.71647 0
M  V30 744 C 64.8424 -0.388962 5.2085 0
M  V30 745 H 66.5364 0.0552661 2.99349 0
M  V30 746 H 64.0824 0.0280207 1.43973 0
M  V30 747 H 66.0354 -2.32535 3.51433 0
M  V30 748 H 64.7594 -2.34639 2.27183 0
M  V30 749 H 63.4184 -0.679896 3.6024 0
M  V30 750 H 63.0664 -3.13356 3.93468 0
M  V30 751 H 62.7664 -2.22605 5.43802 0
M  V30 752 H 64.2904 -3.1369 5.23861 0
M  V30 753 H 65.7044 -0.905107 5.6611 0
M  V30 754 H 64.1014 -0.18924 5.99802 0
M  V30 755 H 65.1714 0.582699 4.81386 0
M  V30 756 N 66.5145 -1.57545 0.0417849 0
M  V30 757 C 67.9305 -1.56467 -0.314704 0
M  V30 758 C 68.1305 -1.04859 -1.72066 0
M  V30 759 O 67.1865 -0.700983 -2.42575 0
M  V30 760 C 68.4995 -3.00317 -0.15174 0
M  V30 761 C 70.0475 -3.12201 -0.223553 0
M  V30 762 C 70.5225 -4.57913 -0.0892295 0
M  V30 763 N 72.0135 -4.6297 -0.145808 0
M  V30 764 C 72.7485 -5.73362 -0.0658459 0
M  V30 765 N 72.2445 -6.92769 0.0659282 0
M  V30 766 N 74.0375 -5.6197 -0.12075 0
M  V30 767 H 66.1885 -1.89416 0.961014 0
M  V30 768 H 68.4515 -0.871862 0.372237 0
M  V30 769 H 68.1575 -3.42073 0.817254 0
M  V30 770 H 68.0315 -3.65892 -0.916692 0
M  V30 771 H 70.4185 -2.70349 -1.18301 0
M  V30 772 H 70.4995 -2.49323 0.571994 0
M  V30 773 H 70.1435 -5.00448 0.866867 0
M  V30 774 H 70.0735 -5.18786 -0.903802 0
M  V30 775 H 72.5645 -3.7709 -0.247286 0
M  V30 776 H 72.8775 -7.72707 0.119905 0
M  V30 777 H 71.2225 -6.94927 0.100885 0
M  V30 778 H 74.4135 -4.67572 -0.222187 0
M  V30 779 H 74.5865 -6.47977 -0.0549735 0
M  V30 780 N 67.9926 0.231505 -1.5589 0
M  V30 781 C 69.2696 0.981096 -1.69215 0
M  V30 782 C 69.6496 2.02799 -0.586164 0
M  V30 783 O 68.9976 2.24823 0.408253 0
M  V30 784 C 69.2076 1.60054 -3.10135 0
M  V30 785 C 70.5556 2.09658 -3.69227 0
M  V30 786 O 71.5796 1.69967 -3.13033 0
M  V30 787 O 70.4386 2.8258 -4.67772 0
M  V30 788 H 67.5326 0.457653 -0.688827 0
M  V30 789 H 70.0786 0.224073 -1.68214 0
M  V30 790 H 68.8506 0.844105 -3.82087 0
M  V30 791 H 68.4736 2.42336 -3.15212 0
M  V30 792 N 69.4707 1.49531 0.497807 0
M  V30 793 C 70.4337 1.65916 1.58128 0
M  V30 794 C 71.4337 0.530825 1.51786 0
M  V30 795 O 72.6237 0.797342 1.54881 0
M  V30 796 C 69.7557 1.65951 2.9778 0
M  V30 797 H 70.9487 2.62556 1.44929 0
M  V30 798 H 68.5017 1.38611 0.722275 0
M  V30 799 H 69.2367 0.709065 3.16453 0
M  V30 800 H 69.0217 2.47897 3.03792 0
M  V30 801 H 70.5117 1.80673 3.76493 0
M  V30 802 N 70.9488 -0.749086 1.3866 0
M  V30 803 C 72.2258 -1.4992 1.25632 0
M  V30 804 C 72.6058 -2.10633 -0.140317 0
M  V30 805 O 71.9538 -1.97437 -1.15025 0
M  V30 806 C 72.1638 -2.56195 2.36992 0
M  V30 807 C 73.5118 -3.22972 2.75634 0
M  V30 808 O 74.5358 -2.66502 2.36337 0
M  V30 809 O 73.3948 -4.25122 3.43415 0
M  V30 810 H 70.4888 -0.665067 0.491544 0
M  V30 811 H 73.0348 -0.784113 1.50498 0
M  V30 812 H 71.8068 -2.09612 3.30422 0
M  V30 813 H 71.4298 -3.35279 2.13714 0
M  V30 814 N 72.4269 -1.23603 -0.977757 0
M  V30 815 C 73.7039 -0.977897 -1.69401 0
M  V30 816 C 74.0839 0.502738 -2.05026 0
M  V30 817 O 73.4319 1.47459 -1.74551 0
M  V30 818 C 73.6419 -1.89077 -2.93345 0
M  V30 819 C 74.9899 -2.15579 -3.65802 0
M  V30 820 O 76.0139 -1.86648 -3.03383 0
M  V30 821 O 74.8729 -2.64658 -4.78141 0
M  V30 822 H 71.9669 -0.369025 -0.740101 0
M  V30 823 H 74.5129 -1.34657 -1.03274 0
M  V30 824 H 73.2849 -2.89158 -2.63634 0
M  V30 825 H 72.9079 -1.52463 -3.67207 0
M  V30 826 N 73.905 1.17692 -1.04816 0
M  V30 827 C 74.868 2.19787 -0.650117 0
M  V30 828 C 75.868 1.58044 0.296427 0
M  V30 829 O 77.058 1.74012 0.0808097 0
M  V30 830 C 74.19 3.40869 0.0456987 0
M  V30 831 H 75.383 2.56516 -1.5537 0
M  V30 832 H 72.936 1.31708 -0.841594 0
M  V30 833 H 73.671 3.09681 0.962726 0
M  V30 834 H 73.456 3.86928 -0.634727 0
M  V30 835 H 74.946 4.16445 0.310432 0
M  V30 836 N 75.3831 0.828654 1.34056 0
M  V30 837 C 76.6291 0.42008 1.98402 0
M  V30 838 C 76.9621 -1.01564 1.65525 0
M  V30 839 O 76.2371 -1.70834 0.929831 0
M  V30 840 C 76.5201 0.62927 3.54559 0
M  V30 841 C 76.3731 2.11152 3.97159 0
M  V30 842 C 77.6921 0.0688756 4.40046 0
M  V30 843 H 74.8111 0.154104 0.720709 0
M  V30 844 H 77.4531 1.04228 1.5886 0
M  V30 845 H 75.6031 0.0996418 3.88372 0
M  V30 846 H 77.2751 2.70522 3.73651 0
M  V30 847 H 75.5181 2.59985 3.47261 0
M  V30 848 H 76.1891 2.20868 5.05887 0
M  V30 849 H 78.6651 0.521458 4.1282 0
M  V30 850 H 77.5411 0.245006 5.48353 0
M  V30 851 H 77.8021 -1.0266 4.30015 0
M  V30 852 N 76.8612 -1.46375 0.584142 0
M  V30 853 C 78.0912 -2.06461 0.0758195 0
M  V30 854 C 78.4992 -1.43322 -1.23512 0
M  V30 855 O 77.8422 -0.533216 -1.75791 0
M  V30 856 C 77.9042 -3.59131 -0.162773 0
M  V30 857 C 77.5682 -4.4447 1.06279 0
M  V30 858 C 78.5652 -4.80918 1.97519 0
M  V30 859 C 76.2502 -4.85584 1.28504 0
M  V30 860 C 78.2442 -5.57309 3.09331 0
M  V30 861 C 75.9312 -5.61734 2.4062 0
M  V30 862 C 76.9292 -5.9751 3.30863 0
M  V30 863 O 76.6172 -6.72121 4.41032 0
M  V30 864 H 76.3492 -0.673745 0.0551725 0
M  V30 865 H 78.9032 -1.88969 0.804984 0
M  V30 866 H 77.1332 -3.74936 -0.946565 0
M  V30 867 H 78.8222 -4.0114 -0.619782 0
M  V30 868 H 79.5882 -4.49732 1.81565 0
M  V30 869 H 75.4672 -4.57187 0.591702 0
M  V30 870 H 79.0112 -5.85152 3.79793 0
M  V30 871 H 74.9082 -5.92334 2.56537 0
M  V30 872 H 75.6762 -6.90547 4.39417 0
M  V30 873 N 78.3393 -0.321999 -1.54275 0
M  V30 874 C 79.2493 0.553631 -2.27974 0
M  V30 875 C 80.2653 1.13054 -1.32268 0
M  V30 876 O 81.4413 1.15084 -1.6528 0
M  V30 877 C 78.5063 1.69927 -3.02201 0
M  V30 878 C 77.5673 1.15433 -4.1349 0
M  V30 879 C 76.8003 2.24537 -4.84168 0
M  V30 880 O 77.0233 3.44852 -4.5435 0
M  V30 881 O 75.9573 1.90044 -5.7111 0
M  V30 882 H 79.7833 -0.0448345 -3.03667 0
M  V30 883 H 77.3683 -0.0877418 -1.49142 0
M  V30 884 H 79.2503 2.3663 -3.48689 0
M  V30 885 H 77.9253 2.28395 -2.29385 0
M  V30 886 H 76.8323 0.452436 -3.71354 0
M  V30 887 H 78.1653 0.614805 -4.88345 0
M  V30 888 N 79.8174 1.5752 -0.0501392 0
M  V30 889 C 80.7474 2.14502 0.922566 0
M  V30 890 C 81.7284 1.06642 1.3252 0
M  V30 891 O 82.9134 1.34577 1.4001 0
M  V30 892 C 80.0434 2.68916 2.19776 0
M  V30 893 C 78.9974 3.8175 1.93523 0
M  V30 894 C 78.3234 4.22677 3.27487 0
M  V30 895 C 79.6234 5.06932 1.25765 0
M  V30 896 H 81.3174 2.9603 0.447952 0
M  V30 897 H 78.8634 1.42401 0.214024 0
M  V30 898 H 80.8164 3.07419 2.88222 0
M  V30 899 H 79.5404 1.84578 2.69441 0
M  V30 900 H 78.1994 3.43718 1.27489 0
M  V30 901 H 77.8474 3.35291 3.74952 0
M  V30 902 H 77.5474 4.98725 3.1072 0
M  V30 903 H 79.0714 4.63779 3.97166 0
M  V30 904 H 80.4854 5.42888 1.84244 0
M  V30 905 H 78.8824 5.88116 1.19328 0
M  V30 906 H 79.9524 4.84337 0.233536 0
M  V30 907 N 81.2955 -0.223234 1.56011 0
M  V30 908 C 82.2435 -1.29627 1.93131 0
M  V30 909 C 83.2375 -1.48608 0.813146 0
M  V30 910 O 84.4435 -1.49802 0.997966 0
M  V30 911 H 80.8185 -0.434563 0.613726 0
M  V30 912 H 82.7895 -0.955995 2.82672 0
M  V30 913 C 81.5385 -2.63983 2.26292 0
M  V30 914 H 80.8615 -2.50185 3.11846 0
M  V30 915 H 82.3015 -3.3788 2.56151 0
M  V30 916 C 80.7605 -3.18866 1.08747 0
M  V30 917 O 81.2905 -4.00192 0.347727 0
M  V30 918 N 79.4965 -2.77217 0.871743 0
M  V30 919 H 79.0435 -2.1119 1.47501 0
M  V30 920 H 79.0015 -3.1428 0.0869905 0
M  V30 921 N 82.7736 -1.49793 -0.48987 0
M  V30 922 C 84.0216 -1.59525 -1.24081 0
M  V30 923 C 84.3426 -0.288953 -1.92847 0
M  V30 924 O 83.6126 0.692436 -1.83254 0
M  V30 925 H 82.1926 -0.587796 -0.460983 0
M  V30 926 H 84.8546 -1.86477 -0.566778 0
M  V30 927 H 83.9506 -2.39696 -1.99881 0
M  V30 928 N 84.2517 0.741722 -1.39055 0
M  V30 929 C 85.1987 1.85566 -1.37237 0
M  V30 930 C 86.1687 1.64457 -0.233072 0
M  V30 931 O 87.3537 1.85957 -0.427147 0
M  V30 932 C 84.4937 3.23004 -1.215 0
M  V30 933 C 83.6067 3.55864 -2.44918 0
M  V30 934 C 82.7417 4.82669 -2.21821 0
M  V30 935 C 81.7807 5.08351 -3.40948 0
M  V30 936 N 80.9177 6.26356 -3.17211 0
M  V30 937 H 85.7577 1.86455 -2.32462 0
M  V30 938 H 83.2947 0.911176 -1.15482 0
M  V30 939 H 85.2527 4.02331 -1.10389 0
M  V30 940 H 83.8827 3.21411 -0.29908 0
M  V30 941 H 82.9347 2.7129 -2.66657 0
M  V30 942 H 84.2467 3.70765 -3.33668 0
M  V30 943 H 83.4007 5.69962 -2.07914 0
M  V30 944 H 82.1397 4.69929 -1.30454 0
M  V30 945 H 81.1447 4.19522 -3.55361 0
M  V30 946 H 82.3697 5.22981 -4.33207 0
M  V30 947 H 80.3157 6.14917 -2.28502 0
M  V30 948 H 80.2327 6.41813 -3.99515 0
M  V30 949 H 81.5007 7.16506 -3.06984 0
M  V30 950 N 85.7298 1.2412 0.971189 0
M  V30 951 C 87.0068 0.986867 1.6888 0
M  V30 952 C 87.3868 -0.491857 2.0529 0
M  V30 953 O 86.7348 -1.46531 1.75331 0
M  V30 954 C 86.9448 1.9063 2.92338 0
M  V30 955 C 88.2928 2.17515 3.64654 0
M  V30 956 O 89.3168 1.88254 3.02388 0
M  V30 957 O 88.1758 2.6719 4.7673 0
M  V30 958 H 85.2698 0.372944 0.738134 0
M  V30 959 H 87.8158 1.35203 1.02559 0
M  V30 960 H 86.5878 2.90552 2.62097 0
M  V30 961 H 86.2108 1.54408 3.66393 0
M  V30 962 N 87.2079 -1.17134 1.05439 0
M  V30 963 C 88.1379 -2.2342 0.678649 0
M  V30 964 C 89.1189 -1.66971 -0.32476 0
M  V30 965 O 90.3039 -1.93149 -0.201802 0
M  V30 966 C 87.4339 -3.47256 0.0552099 0
M  V30 967 C 86.3879 -4.16543 0.98365 0
M  V30 968 C 85.7139 -5.34231 0.223961 0
M  V30 969 C 87.0139 -4.68495 2.3089 0
M  V30 970 H 88.7079 -2.55105 1.56722 0
M  V30 971 H 86.2539 -1.2262 0.754998 0
M  V30 972 H 88.2069 -4.20828 -0.21946 0
M  V30 973 H 86.9309 -3.14846 -0.868319 0
M  V30 974 H 85.5899 -3.44887 1.24293 0
M  V30 975 H 85.2379 -4.98071 -0.702412 0
M  V30 976 H 84.9379 -5.81527 0.842627 0
M  V30 977 H 86.4619 -6.10585 -0.0433671 0
M  V30 978 H 87.8759 -5.33691 2.09396 0
M  V30 979 H 86.2729 -5.26379 2.88176 0
M  V30 980 H 87.3429 -3.85169 2.94572 0
M  V30 981 N 88.686 -0.835752 -1.33615 0
M  V30 982 C 89.926 -0.43599 -1.99696 0
M  V30 983 C 90.29 0.98557 -1.64774 0
M  V30 984 O 91.491 1.48889 -2.23798 0
M  V30 985 C 89.762 -0.646721 -3.515 0
M  V30 986 S 91.321 -0.341715 -4.37467 0
M  V30 987 H 88.139 -0.164136 -0.691795 0
M  V30 988 H 90.741 -1.08436 -1.62671 0
M  V30 989 H 89.445 -1.68077 -3.74404 0
M  V30 990 H 88.976 0.0159173 -3.93397 0
M  V30 991 H 90.991 0.839708 -4.89043 0
M  V30 992 N 90.1641 1.46063 -0.591896 0
M  V30 993 C 91.4121 2.01938 -0.0808391 0
M  V30 994 C 91.7331 1.46475 1.28725 0
M  V30 995 O 91.0031 0.652944 1.84698 0
M  V30 996 H 89.5831 0.746516 -0.0268938 0
M  V30 997 H 92.2451 1.79055 -0.769752 0
M  V30 998 H 91.3411 3.12094 -0.0187578 0
M  V30 999 N 91.6422 0.330177 1.54103 0
M  V30 1000 C 92.5522 -0.541534 2.28264 0
M  V30 1001 C 93.5682 -1.12351 1.32866 0
M  V30 1002 O 94.7442 -1.14206 1.65888 0
M  V30 1003 C 91.8092 -1.68322 3.03098 0
M  V30 1004 C 90.8702 -1.13238 4.14096 0
M  V30 1005 C 90.1032 -2.21966 4.85352 0
M  V30 1006 O 90.3262 -3.42437 4.56172 0
M  V30 1007 O 89.2602 -1.87013 5.7211 0
M  V30 1008 H 93.0862 0.060938 3.03639 0
M  V30 1009 H 90.6712 0.09565 1.49093 0
M  V30 1010 H 92.5532 -2.34777 3.49939 0
M  V30 1011 H 91.2282 -2.27176 2.30593 0
M  V30 1012 H 90.1352 -0.432736 3.71589 0
M  V30 1013 H 91.4682 -0.588898 4.88664 0
M  V30 1014 N 93.1203 -1.57491 0.0584922 0
M  V30 1015 C 94.5363 -1.56792 -0.298091 0
M  V30 1016 C 94.7363 -1.06679 -1.70944 0
M  V30 1017 O 93.7923 -0.726672 -2.41818 0
M  V30 1018 C 95.1053 -3.00461 -0.119879 0
M  V30 1019 C 96.6533 -3.1242 -0.190428 0
M  V30 1020 C 97.1283 -4.57982 -0.0406567 0
M  V30 1021 N 98.6193 -4.63099 -0.0966958 0
M  V30 1022 C 99.3543 -5.734 -0.00502943 0
M  V30 1023 N 98.8503 -6.9266 0.139402 0
M  V30 1024 N 100.643 -5.62067 -0.0611391 0
M  V30 1025 H 92.7943 -1.88386 0.98105 0
M  V30 1026 H 95.0573 -0.867865 0.381463 0
M  V30 1027 H 94.7633 -3.41187 0.85349 0
M  V30 1028 H 94.6373 -3.66843 -0.877833 0
M  V30 1029 H 97.0243 -2.71589 -1.15427 0
M  V30 1030 H 97.1053 -2.48702 0.598405 0
M  V30 1031 H 96.7493 -4.995 0.919897 0
M  V30 1032 H 96.6793 -5.19715 -0.848727 0
M  V30 1033 H 99.1703 -3.77331 -0.207277 0
M  V30 1034 H 99.4833 -7.72536 0.201855 0
M  V30 1035 H 97.8283 -6.94781 0.174586 0
M  V30 1036 H 101.019 -4.67782 -0.172583 0
M  V30 1037 H 101.192 -6.47999 0.0137562 0
M  V30 1038 N 94.5984 0.214957 -1.56127 0
M  V30 1039 C 95.8444 0.939762 -1.79712 0
M  V30 1040 C 96.1774 1.83723 -0.629247 0
M  V30 1041 O 95.4524 1.90925 0.371197 0
M  V30 1042 C 95.7354 1.77306 -3.13424 0
M  V30 1043 C 95.5884 0.90164 -4.40671 0
M  V30 1044 C 96.9074 2.74956 -3.43638 0
M  V30 1045 H 94.0264 0.340214 -0.653776 0
M  V30 1046 H 96.6684 0.20824 -1.88855 0
M  V30 1047 H 94.8184 2.39673 -3.0576 0
M  V30 1048 H 96.4904 0.294206 -4.60361 0
M  V30 1049 H 94.7334 0.207368 -4.33304 0
M  V30 1050 H 95.4044 1.51923 -5.30682 0
M  V30 1051 H 97.8804 2.22724 -3.51473 0
M  V30 1052 H 96.7564 3.30358 -4.38355 0
M  V30 1053 H 97.0174 3.53023 -2.66134 0
M  V30 1054 N 96.0765 1.50051 0.48192 0
M  V30 1055 C 97.3255 1.59741 1.23149 0
M  V30 1056 C 97.6385 0.298163 1.93314 0
M  V30 1057 O 98.8445 0.273835 2.70116 0
M  V30 1058 C 97.3005 2.81926 2.23708 0
M  V30 1059 C 96.9085 4.18685 1.59396 0
M  V30 1060 C 98.6525 3.00956 2.99375 0
M  V30 1061 C 96.5595 5.3207 2.58178 0
M  V30 1062 H 95.4895 0.594838 0.46334 0
M  V30 1063 H 98.1405 1.76467 0.503169 0
M  V30 1064 H 96.5225 2.58736 2.99786 0
M  V30 1065 H 97.6965 4.52088 0.891811 0
M  V30 1066 H 96.0115 4.05171 0.960503 0
M  V30 1067 H 98.6085 3.82836 3.73283 0
M  V30 1068 H 98.9515 2.12258 3.58123 0
M  V30 1069 H 99.4845 3.24277 2.30411 0
M  V30 1070 H 96.2235 6.22888 2.04184 0
M  V30 1071 H 95.7435 5.03098 3.26577 0
M  V30 1072 H 97.4225 5.62196 3.20225 0
M  V30 1073 N 97.5546 -0.734337 1.39446 0
M  V30 1074 C 98.8006 -1.49613 1.36908 0
M  V30 1075 C 99.1336 -1.94169 -0.0347829 0
M  V30 1076 O 98.4086 -1.66833 -0.999847 0
M  V30 1077 C 98.6916 -2.73534 2.34203 0
M  V30 1078 C 98.5446 -2.34993 3.83534 0
M  V30 1079 C 99.8636 -3.75635 2.29317 0
M  V30 1080 H 96.9826 -0.542714 0.498629 0
M  V30 1081 H 99.6246 -0.839597 1.70443 0
M  V30 1082 H 97.7746 -3.29553 2.05736 0
M  V30 1083 H 99.4466 -1.84601 4.22753 0
M  V30 1084 H 97.6896 -1.67213 4.00278 0
M  V30 1085 H 98.3606 -3.23738 4.47099 0
M  V30 1086 H 100.837 -3.29203 2.54489 0
M  V30 1087 H 99.7126 -4.60008 2.99472 0
M  V30 1088 H 99.9736 -4.22603 1.29842 0
M  V30 1089 N 99.0327 -1.24633 -0.964593 0
M  V30 1090 C 99.9427 -1.05859 -2.09359 0
M  V30 1091 C 100.959 0.00148855 -1.74 0
M  V30 1092 O 102.135 -0.197346 -2.00431 0
M  V30 1093 C 99.1997 -0.668879 -3.40187 0
M  V30 1094 C 98.2607 -1.80578 -3.89474 0
M  V30 1095 C 97.4937 -1.43457 -5.14058 0
M  V30 1096 O 97.7167 -0.325775 -5.69469 0
M  V30 1097 O 96.6507 -2.2613 -5.57807 0
M  V30 1098 H 100.477 -2.00516 -2.28094 0
M  V30 1099 H 98.0617 -1.03481 -1.0776 0
M  V30 1100 H 99.9437 -0.463211 -4.18846 0
M  V30 1101 H 98.6187 0.248536 -3.22744 0
M  V30 1102 H 97.5257 -2.06623 -3.11862 0
M  V30 1103 H 98.8587 -2.70208 -4.11398 0
M  V30 1104 N 100.511 1.16574 -1.06058 0
M  V30 1105 C 101.461 2.18854 -0.63929 0
M  V30 1106 C 102.445 1.57505 0.328798 0
M  V30 1107 O 103.637 1.76408 0.144623 0
M  V30 1108 C 100.766 3.43291 -0.0247203 0
M  V30 1109 C 99.8518 4.11722 -1.01716 0
M  V30 1110 N 100.243 4.55841 -2.19186 0
M  V30 1111 C 98.5408 4.37872 -0.847569 0
M  V30 1112 C 99.2418 5.08751 -2.82042 0
M  V30 1113 N 98.2178 5.01489 -2.09784 0
M  V30 1114 H 102.02 2.5068 -1.53417 0
M  V30 1115 H 99.5338 1.32999 -0.931935 0
M  V30 1116 H 101.531 4.15856 0.294915 0
M  V30 1117 H 100.191 3.12954 0.865448 0
M  V30 1118 H 101.202 4.49649 -2.56975 0
M  V30 1119 H 97.8788 4.17499 -0.00918848 0
M  V30 1120 H 99.2688 5.52944 -3.81709 0
M  V30 1121 N 101.989 0.842826 1.3317 0
M  V30 1122 C 102.952 0.284065 2.27433 0
M  V30 1123 C 103.952 -0.54948 1.5112 0
M  V30 1124 O 105.142 -0.362699 1.70382 0
M  V30 1125 C 102.274 -0.599384 3.35589 0
M  V30 1126 H 103.467 1.11589 2.78366 0
M  V30 1127 H 101.02 0.616221 1.4364 0
M  V30 1128 H 101.755 -1.45349 2.89904 0
M  V30 1129 H 101.54 -0.00291266 3.921 0
M  V30 1130 H 103.03 -0.983488 4.05854 0
M  V30 1131 N 103.467 -1.45747 0.599634 0
M  V30 1132 C 104.883 -1.57424 0.26264 0
M  V30 1133 C 105.083 -1.59222 -1.23493 0
M  V30 1134 O 104.139 -1.51825 -2.01756 0
M  V30 1135 C 105.452 -2.86061 0.926795 0
M  V30 1136 C 107 -2.99722 0.901967 0
M  V30 1137 C 107.475 -4.31119 1.54598 0
M  V30 1138 N 108.966 -4.37858 1.5111 0
M  V30 1139 C 109.701 -5.3818 1.97863 0
M  V30 1140 N 109.197 -6.45083 2.52666 0
M  V30 1141 N 110.99 -5.29487 1.88679 0
M  V30 1142 H 103.141 -1.42823 1.57211 0
M  V30 1143 H 105.404 -0.68235 0.658105 0
M  V30 1144 H 105.11 -2.90605 1.98095 0
M  V30 1145 H 104.984 -3.74563 0.445238 0
M  V30 1146 H 107.371 -2.9475 -0.143617 0
M  V30 1147 H 107.452 -2.12652 1.42171 0
M  V30 1148 H 107.096 -4.36849 2.59085 0
M  V30 1149 H 107.026 -5.16992 1.00132 0
M  V30 1150 H 109.517 -3.61209 1.11068 0
M  V30 1151 H 109.83 -7.17869 2.86155 0
M  V30 1152 H 108.175 -6.45856 2.56701 0
M  V30 1153 H 111.366 -4.44877 1.4561 0
M  V30 1154 H 111.539 -6.07524 2.25429 0
M  V30 1155 N 104.945 -0.338344 -1.53925 0
M  V30 1156 C 106.193 0.259245 -2.0043 0
M  V30 1157 C 106.514 1.51484 -1.22791 0
M  V30 1158 O 105.784 1.93037 -0.33368 0
M  V30 1159 H 104.364 0.0987845 -0.740439 0
M  V30 1160 H 107.026 -0.458302 -1.89435 0
M  V30 1161 H 106.122 0.505334 -3.07982 0
M  V30 1162 N 106.423 1.57458 -0.0668435 0
M  V30 1163 C 107.834 1.80776 0.466558 0
M  V30 1164 C 108.185 0.980361 1.69951 0
M  V30 1165 O 107.31 0.201441 2.1546 0
M  V30 1166 C 107.905 3.27881 0.85321 0
M  V30 1167 C 106.464 3.52062 1.3315 0
M  V30 1168 C 105.611 2.75513 0.314264 0
M  V30 1169 H 108.562 1.5598 -0.292588 0
M  V30 1170 H 108.583 3.39659 1.715 0
M  V30 1171 H 108.095 3.88075 -0.0443439 0
M  V30 1172 H 106.196 2.97167 2.24772 0
M  V30 1173 H 106.309 4.60762 1.31285 0
M  V30 1174 H 104.673 2.42123 0.790492 0
M  V30 1175 H 105.456 3.38442 -0.575477 0
M  V30 1176 N 107.901 -0.206675 1.56239 0
M  V30 1177 C 109.317 -0.557025 1.49564 0
M  V30 1178 C 109.517 -1.86424 0.764735 0
M  V30 1179 O 108.573 -2.50584 0.310491 0
M  V30 1180 C 109.886 -0.622478 2.94186 0
M  V30 1181 C 111.434 -0.712099 3.04792 0
M  V30 1182 C 111.909 -0.808767 4.50803 0
M  V30 1183 N 113.4 -0.8726 4.54907 0
M  V30 1184 C 114.135 -0.967365 5.65181 0
M  V30 1185 N 113.631 -1.02515 6.85173 0
M  V30 1186 N 115.424 -1.00366 5.53067 0
M  V30 1187 H 107.575 0.650943 2.02179 0
M  V30 1188 H 109.838 0.230387 0.919579 0
M  V30 1189 H 109.544 0.268727 3.50672 0
M  V30 1190 H 109.418 -1.4811 3.46905 0
M  V30 1191 H 111.805 -1.59374 2.48363 0
M  V30 1192 H 111.886 0.172489 2.55218 0
M  V30 1193 H 111.53 0.0684754 5.07854 0
M  V30 1194 H 111.46 -1.70899 4.98098 0
M  V30 1195 H 113.951 -0.837657 3.68499 0
M  V30 1196 H 114.264 -1.09765 7.64965 0
M  V30 1197 H 112.609 -0.994026 6.87855 0
M  V30 1198 H 115.8 -0.95527 4.58249 0
M  V30 1199 H 115.973 -1.07405 6.39037 0
M  V30 1200 N 109.379 -1.50304 -0.473955 0
M  V30 1201 C 110.795 -1.37667 -0.807466 0
M  V30 1202 C 110.995 -0.430555 -1.96846 0
M  V30 1203 O 110.051 0.127874 -2.52176 0
M  V30 1204 C 111.364 -2.78974 -1.12223 0
M  V30 1205 C 112.912 -2.87868 -1.22885 0
M  V30 1206 C 113.387 -4.30003 -1.57676 0
M  V30 1207 N 114.878 -4.3294 -1.64673 0
M  V30 1208 C 115.613 -5.3991 -1.93091 0
M  V30 1209 N 115.109 -6.57092 -2.1955 0
M  V30 1210 N 116.902 -5.27351 -1.94569 0
M  V30 1211 H 109.053 -2.10394 0.291212 0
M  V30 1212 H 111.316 -0.945575 0.0677609 0
M  V30 1213 H 111.022 -3.50031 -0.342229 0
M  V30 1214 H 110.896 -3.16038 -2.05913 0
M  V30 1215 H 113.283 -2.17032 -1.99953 0
M  V30 1216 H 113.364 -2.54352 -0.271814 0
M  V30 1217 H 113.008 -5.01375 -0.81149 0
M  V30 1218 H 112.938 -4.61004 -2.54525 0
M  V30 1219 H 115.429 -3.48441 -1.46277 0
M  V30 1220 H 115.742 -7.34425 -2.405 0
M  V30 1221 H 114.087 -6.60272 -2.16948 0
M  V30 1222 H 117.278 -4.34801 -1.73394 0
M  V30 1223 H 117.451 -6.10805 -2.16381 0
M  V30 1224 N 110.857 0.726932 -1.39834 0
M  V30 1225 C 112.134 1.47902 -1.28001 0
M  V30 1226 C 112.514 2.1083 0.106789 0
M  V30 1227 O 111.862 1.99242 1.11869 0
M  V30 1228 C 112.072 2.52392 -2.41038 0
M  V30 1229 C 113.42 3.18546 -2.80737 0
M  V30 1230 O 114.444 2.62708 -2.40547 0
M  V30 1231 O 113.303 4.19604 -3.50135 0
M  V30 1232 H 110.397 0.657163 -0.502062 0
M  V30 1233 H 112.943 0.760071 -1.51727 0
M  V30 1234 H 111.715 2.04329 -3.33715 0
M  V30 1235 H 111.338 3.31837 -2.19021 0
M  V30 1236 N 112.336 1.25143 0.95797 0
M  V30 1237 C 113.584 1.09476 1.69881 0
M  V30 1238 C 113.905 -0.365502 1.91544 0
M  V30 1239 O 113.175 -1.25985 1.50015 0
M  V30 1240 H 111.755 0.402128 0.629525 0
M  V30 1241 H 114.417 1.57214 1.15194 0
M  V30 1242 H 113.513 1.60046 2.6794 0
M  V30 1243 N 113.814 -1.1601 1.06675 0
M  V30 1244 C 115.039 -1.91068 0.806706 0
M  V30 1245 C 115.464 -1.77112 -0.633485 0
M  V30 1246 O 114.822 -1.09908 -1.44187 0
M  V30 1247 C 114.87 -3.39655 1.21106 0
M  V30 1248 O 113.974 -4.10893 0.352189 0
M  V30 1249 H 113.315 -0.595125 0.294486 0
M  V30 1250 H 115.845 -1.46955 1.42356 0
M  V30 1251 H 115.855 -3.90434 1.18428 0
M  V30 1252 H 114.53 -3.49132 2.26008 0
M  V30 1253 H 113.107 -3.70285 0.440868 0
M  V30 1254 N 115.292 -0.849877 -1.32721 0
M  V30 1255 C 116.522 -0.46408 -2.0132 0
M  V30 1256 C 116.93 0.94246 -1.64056 0
M  V30 1257 O 116.273 1.6257 -0.855379 0
M  V30 1258 C 116.335 -0.517887 -3.5575 0
M  V30 1259 C 115.999 -1.88248 -4.16427 0
M  V30 1260 C 116.996 -2.84726 -4.35002 0
M  V30 1261 C 114.681 -2.17832 -4.52609 0
M  V30 1262 C 116.675 -4.08945 -4.8892 0
M  V30 1263 C 114.362 -3.42304 -5.06232 0
M  V30 1264 C 115.36 -4.37677 -5.24335 0
M  V30 1265 O 115.048 -5.59946 -5.76815 0
M  V30 1266 H 114.78 -0.181327 -0.651227 0
M  V30 1267 H 117.334 -1.14713 -1.70382 0
M  V30 1268 H 115.564 0.221997 -3.86062 0
M  V30 1269 H 117.253 -0.148366 -4.05629 0
M  V30 1270 H 118.019 -2.63174 -4.07388 0
M  V30 1271 H 113.898 -1.44385 -4.37806 0
M  V30 1272 H 117.442 -4.83396 -5.02966 0
M  V30 1273 H 113.339 -3.63709 -5.33278 0
M  V30 1274 H 114.107 -5.61838 -5.95214 0
M  V30 1275 N 116.77 1.45427 -0.607355 0
M  V30 1276 C 118.018 2.01841 -0.102253 0
M  V30 1277 C 118.339 1.47832 1.27164 0
M  V30 1278 O 117.609 0.672497 1.83995 0
M  V30 1279 H 116.189 0.746188 -0.0348101 0
M  V30 1280 H 118.851 1.78229 -0.7887 0
M  V30 1281 H 117.947 3.12057 -0.0518585 0
M  V30 1282 N 118.248 0.346503 1.53744 0
M  V30 1283 C 119.473 -0.253074 2.0585 0
M  V30 1284 C 119.898 -1.43202 1.21962 0
M  V30 1285 O 119.256 -1.79783 0.234073 0
M  V30 1286 C 119.304 -0.643193 3.54817 0
M  V30 1287 O 118.408 -1.74286 3.73762 0
M  V30 1288 H 117.749 -0.0413583 0.662711 0
M  V30 1289 H 120.279 0.501574 1.98357 0
M  V30 1290 H 120.289 -0.919526 3.97503 0
M  V30 1291 H 118.964 0.218966 4.15323 0
M  V30 1292 H 117.541 -1.46356 3.42979 0
M  V30 1293 N 119.726 -1.57421 0.075193 0
M  V30 1294 C 120.974 -1.93236 -0.591974 0
M  V30 1295 C 121.295 -0.956241 -1.69944 0
M  V30 1296 O 120.565 -0.00494792 -1.95899 0
M  V30 1297 H 119.145 -0.713355 -0.22166 0
M  V30 1298 H 121.807 -1.9444 0.133848 0
M  V30 1299 H 120.903 -2.95131 -1.01509 0
M  V30 1300 N 121.204 0.198386 -1.56346 0
M  V30 1301 C 122.62 0.549085 -1.49857 0
M  V30 1302 C 122.82 1.86016 -0.774611 0
M  V30 1303 O 121.876 2.50416 -0.323776 0
M  V30 1304 C 123.189 0.606868 -2.94512 0
M  V30 1305 C 124.737 0.695925 -3.05165 0
M  V30 1306 C 125.212 0.784848 -4.51225 0
M  V30 1307 N 126.703 0.848463 -4.55363 0
M  V30 1308 C 127.438 0.937378 -5.65686 0
M  V30 1309 N 126.934 0.9888 -6.85707 0
M  V30 1310 N 128.727 0.974312 -5.53592 0
M  V30 1311 H 120.878 -0.661655 -2.01831 0
M  V30 1312 H 123.141 -0.235261 -0.918344 0
M  V30 1313 H 122.847 -0.28732 -3.50524 0
M  V30 1314 H 122.721 1.46268 -3.47686 0
M  V30 1315 H 125.108 1.58055 -2.49204 0
M  V30 1316 H 125.189 -0.186022 -2.55123 0
M  V30 1317 H 124.833 -0.0954072 -5.0781 0
M  V30 1318 H 124.763 1.68255 -4.98997 0
M  V30 1319 H 127.254 0.818103 -3.68938 0
M  V30 1320 H 127.567 1.05707 -7.65536 0
M  V30 1321 H 125.912 0.957534 -6.88372 0
M  V30 1322 H 129.103 0.930954 -4.58749 0
M  V30 1323 H 129.276 1.04015 -6.39597 0
M  V30 1324 N 122.682 1.50554 0.465978 0
M  V30 1325 C 123.907 1.65838 1.24549 0
M  V30 1326 C 124.332 0.343486 1.84937 0
M  V30 1327 O 123.69 -0.69324 1.67523 0
M  V30 1328 C 123.738 2.75533 2.32624 0
M  V30 1329 O 122.842 2.37142 3.37398 0
M  V30 1330 H 122.183 0.553893 0.366194 0
M  V30 1331 H 124.713 1.96959 0.553927 0
M  V30 1332 H 124.723 2.98763 2.77857 0
M  V30 1333 H 123.398 3.70962 1.88043 0
M  V30 1334 H 121.975 2.24377 2.97841 0
M  V30 1335 N 124.16 -0.719506 1.40217 0
M  V30 1336 C 125.408 -1.47641 1.3801 0
M  V30 1337 C 125.729 -1.94992 -0.018145 0
M  V30 1338 O 124.999 -1.70073 -0.972207 0
M  V30 1339 H 123.579 -0.547744 0.507923 0
M  V30 1340 H 126.241 -0.853187 1.75233 0
M  V30 1341 H 125.337 -2.35112 2.05253 0
M  V30 1342 N 125.638 -1.25649 -0.95132 0
M  V30 1343 C 126.868 -1.13179 -1.72841 0
M  V30 1344 C 127.276 0.316827 -1.86528 0
M  V30 1345 O 126.619 1.22948 -1.3649 0
M  V30 1346 C 126.681 -1.71644 -3.15878 0
M  V30 1347 C 126.345 -3.20667 -3.25609 0
M  V30 1348 C 127.342 -4.17616 -3.09666 0
M  V30 1349 C 125.027 -3.6094 -3.49324 0
M  V30 1350 C 127.021 -5.52817 -3.17289 0
M  V30 1351 C 124.708 -4.96278 -3.56584 0
M  V30 1352 C 125.706 -5.92025 -3.40581 0
M  V30 1353 O 125.394 -7.24899 -3.47528 0
M  V30 1354 H 125.126 -0.395389 -0.54831 0
M  V30 1355 H 127.68 -1.66566 -1.20187 0
M  V30 1356 H 125.91 -1.12707 -3.69911 0
M  V30 1357 H 127.599 -1.54225 -3.75459 0
M  V30 1358 H 128.365 -3.87842 -2.91211 0
M  V30 1359 H 124.244 -2.86907 -3.6084 0
M  V30 1360 H 127.788 -6.2753 -3.04716 0
M  V30 1361 H 123.685 -5.25716 -3.74556 0
M  V30 1362 H 124.453 -7.33039 -3.64138 0
M  V30 1363 N 127.117 1.15442 -1.07289 0
M  V30 1364 C 128.365 1.85845 -0.794096 0
M  V30 1365 C 128.686 1.82692 0.681809 0
M  V30 1366 O 127.956 1.26741 1.49377 0
M  V30 1367 H 126.536 0.688089 -0.290763 0
M  V30 1368 H 129.198 1.39947 -1.3565 0
M  V30 1369 H 128.294 2.91001 -1.12804 0
M  V30 1370 N 128.595 0.856903 1.32268 0
M  V30 1371 C 129.825 0.47475 2.01071 0
M  V30 1372 C 130.233 -0.933746 1.64553 0
M  V30 1373 O 129.576 -1.62114 0.863989 0
M  V30 1374 C 129.638 0.536746 3.55471 0
M  V30 1375 C 129.302 1.90453 4.15423 0
M  V30 1376 C 130.299 2.87029 4.33486 0
M  V30 1377 C 127.984 2.20229 4.51447 0
M  V30 1378 C 129.978 4.11532 4.86744 0
M  V30 1379 C 127.665 3.44984 5.0441 0
M  V30 1380 C 128.663 4.40452 5.22007 0
M  V30 1381 O 128.351 5.62998 5.73837 0
M  V30 1382 H 128.083 0.184778 0.650256 0
M  V30 1383 H 130.637 1.15615 1.69771 0
M  V30 1384 H 128.867 -0.20152 3.86175 0
M  V30 1385 H 130.556 0.169875 4.05544 0
M  V30 1386 H 131.322 2.6533 4.05986 0
M  V30 1387 H 127.201 1.46705 4.37034 0
M  V30 1388 H 130.745 4.86056 5.00395 0
M  V30 1389 H 126.642 3.66532 5.31342 0
M  V30 1390 H 127.41 5.64987 5.92226 0
M  V30 1391 N 130.073 -1.45103 0.615059 0
M  V30 1392 C 131.489 -1.57137 0.279322 0
M  V30 1393 C 131.689 -1.60523 -1.21797 0
M  V30 1394 O 130.745 -1.53956 -2.00134 0
M  V30 1395 C 132.058 -2.85062 0.957083 0
M  V30 1396 C 133.606 -2.98749 0.933706 0
M  V30 1397 C 134.081 -4.29455 1.59162 0
M  V30 1398 N 135.572 -4.36231 1.55746 0
M  V30 1399 C 136.307 -5.36051 2.0356 0
M  V30 1400 N 135.803 -6.42367 2.59494 0
M  V30 1401 N 137.596 -5.27456 1.94284 0
M  V30 1402 H 129.747 -1.41148 1.58717 0
M  V30 1403 H 132.01 -0.675331 0.665306 0
M  V30 1404 H 131.716 -2.88488 2.01166 0
M  V30 1405 H 131.59 -3.7407 0.48494 0
M  V30 1406 H 133.977 -2.94886 -0.112347 0
M  V30 1407 H 134.058 -2.11132 1.44419 0
M  V30 1408 H 133.702 -4.34077 2.63704 0
M  V30 1409 H 133.632 -5.15901 1.0561 0
M  V30 1410 H 136.123 -3.60011 1.14893 0
M  V30 1411 H 136.436 -7.14793 2.93752 0
M  V30 1412 H 134.781 -6.43097 2.63537 0
M  V30 1413 H 137.972 -4.43308 1.5032 0
M  V30 1414 H 138.145 -6.05099 2.3186 0
M  V30 1415 N 131.551 -0.354651 -1.53558 0
M  V30 1416 C 132.967 -0.00315426 -1.596 0
M  V30 1417 C 133.167 1.47741 -1.37021 0
M  V30 1418 O 132.223 2.23759 -1.16996 0
M  V30 1419 C 133.536 -0.44929 -2.97325 0
M  V30 1420 C 135.084 -0.402578 -3.104 0
M  V30 1421 C 135.559 -0.824355 -4.5052 0
M  V30 1422 N 137.05 -0.778979 -4.56603 0
M  V30 1423 C 137.785 -1.07715 -5.63192 0
M  V30 1424 N 137.281 -1.44405 -6.77583 0
M  V30 1425 N 139.074 -1.00066 -5.53121 0
M  V30 1426 H 131.225 -1.31893 -1.66487 0
M  V30 1427 H 133.488 -0.538388 -0.780284 0
M  V30 1428 H 133.194 -1.48202 -3.1895 0
M  V30 1429 H 133.068 0.169772 -3.76818 0
M  V30 1430 H 135.455 0.621004 -2.88492 0
M  V30 1431 H 135.536 -1.05699 -2.32941 0
M  V30 1432 H 135.18 -1.846 -4.73165 0
M  V30 1433 H 135.11 -0.147304 -5.26394 0
M  V30 1434 H 137.601 -0.508528 -3.74463 0
M  V30 1435 H 137.914 -1.65612 -7.54846 0
M  V30 1436 H 136.259 -1.4826 -6.79002 0
M  V30 1437 H 139.45 -0.713293 -4.62633 0
M  V30 1438 H 139.623 -1.23638 -6.36096 0
M  V30 1439 N 133.029 1.57378 -0.0835403 0
M  V30 1440 C 134.254 1.98682 0.594987 0
M  V30 1441 C 134.679 0.961969 1.61641 0
M  V30 1442 O 134.037 -0.0709989 1.81161 0
M  V30 1443 C 134.085 3.38988 1.2296 0
M  V30 1444 O 133.189 3.39208 2.34546 0
M  V30 1445 H 132.53 0.646368 0.152002 0
M  V30 1446 H 135.06 2.03961 -0.161533 0
M  V30 1447 H 135.07 3.76431 1.57366 0
M  V30 1448 H 133.745 4.13107 0.481228 0
M  V30 1449 H 132.322 3.13548 2.01846 0
M  V30 1450 N 134.507 -0.190092 1.56449 0
M  V30 1451 C 135.755 -0.907908 1.80559 0
M  V30 1452 C 136.076 -1.83583 0.657438 0
M  V30 1453 O 135.346 -1.93203 -0.323924 0
M  V30 1454 H 133.926 -0.338247 0.666032 0
M  V30 1455 H 136.588 -0.194403 1.93928 0
M  V30 1456 H 135.684 -1.49604 2.73907 0
M  V30 1457 N 135.985 -1.50799 -0.457987 0
M  V30 1458 C 137.401 -1.38515 -0.792819 0
M  V30 1459 C 137.601 -0.451409 -1.96379 0
M  V30 1460 O 136.657 0.10112 -2.52297 0
M  V30 1461 C 137.97 -2.80149 -1.09258 0
M  V30 1462 C 139.518 -2.89156 -1.19825 0
M  V30 1463 C 139.993 -4.31651 -1.53106 0
M  V30 1464 N 141.484 -4.34662 -1.60072 0
M  V30 1465 C 142.219 -5.41928 -1.87354 0
M  V30 1466 N 141.715 -6.59384 -2.12568 0
M  V30 1467 N 143.508 -5.29385 -1.88965 0
M  V30 1468 H 135.659 -2.10073 0.313511 0
M  V30 1469 H 137.922 -0.944803 0.0777862 0
M  V30 1470 H 137.628 -3.50374 -0.305084 0
M  V30 1471 H 137.502 -3.18204 -2.02549 0
M  V30 1472 H 139.889 -2.19141 -1.97639 0
M  V30 1473 H 139.97 -2.54626 -0.244821 0
M  V30 1474 H 139.614 -5.02208 -0.758266 0
M  V30 1475 H 139.544 -4.63678 -2.49621 0
M  V30 1476 H 142.035 -3.49973 -1.42573 0
M  V30 1477 H 142.348 -7.36934 -2.32696 0
M  V30 1478 H 140.693 -6.62535 -2.09933 0
M  V30 1479 H 143.884 -4.36616 -1.68772 0
M  V30 1480 H 144.057 -6.13066 -2.09891 0
M  V30 1481 N 137.463 0.71206 -1.40597 0
M  V30 1482 C 138.74 1.46536 -1.29563 0
M  V30 1483 C 139.12 2.10931 0.0844217 0
M  V30 1484 O 138.468 2.00418 1.0975 0
M  V30 1485 C 138.678 2.49821 -2.43701 0
M  V30 1486 C 140.026 3.15551 -2.841 0
M  V30 1487 O 141.05 2.60142 -2.4332 0
M  V30 1488 O 139.909 4.15867 -3.54566 0
M  V30 1489 H 137.003 0.651801 -0.509004 0
M  V30 1490 H 139.549 0.743935 -1.52524 0
M  V30 1491 H 138.321 2.00778 -3.35863 0
M  V30 1492 H 137.944 3.29495 -2.22528 0
M  V30 1493 N 138.941 1.26152 0.944643 0
M  V30 1494 C 139.888 1.07408 2.04285 0
M  V30 1495 C 140.858 -0.0198413 1.66088 0
M  V30 1496 O 142.043 0.139264 1.90291 0
M  V30 1497 C 139.183 0.70945 3.37729 0
M  V30 1498 C 138.296 1.87926 3.88983 0
M  V30 1499 C 137.431 1.45807 5.10797 0
M  V30 1500 C 136.47 2.5964 5.54305 0
M  V30 1501 N 135.607 2.18226 6.67324 0
M  V30 1502 H 140.447 2.01389 2.1965 0
M  V30 1503 H 137.984 1.00275 1.07626 0
M  V30 1504 H 139.942 0.478948 4.14442 0
M  V30 1505 H 138.572 -0.193389 3.2222 0
M  V30 1506 H 137.624 2.22279 3.08701 0
M  V30 1507 H 138.936 2.73377 4.17213 0
M  V30 1508 H 138.09 1.18781 5.94959 0
M  V30 1509 H 136.829 0.574414 4.84305 0
M  V30 1510 H 135.834 2.87399 4.68702 0
M  V30 1511 H 137.059 3.48599 5.828 0
M  V30 1512 H 135.005 1.3229 6.42523 0
M  V30 1513 H 134.922 2.97221 6.95123 0
M  V30 1514 H 136.19 1.94403 7.54869 0
M  V30 1515 N 140.419 -1.14872 1.07899 0
M  V30 1516 C 141.649 -1.89386 0.825631 0
M  V30 1517 C 142.057 -1.78565 -0.625406 0
M  V30 1518 O 141.4 -1.13918 -1.44113 0
M  V30 1519 C 141.462 -3.40206 1.16191 0
M  V30 1520 C 141.126 -3.74812 2.61467 0
M  V30 1521 C 142.123 -3.75367 3.59716 0
M  V30 1522 C 139.808 -4.0495 2.97189 0
M  V30 1523 C 141.802 -4.05574 4.9172 0
M  V30 1524 C 139.489 -4.34821 4.29388 0
M  V30 1525 C 140.487 -4.35116 5.26463 0
M  V30 1526 O 140.175 -4.64267 6.56286 0
M  V30 1527 H 139.907 -0.606894 0.297751 0
M  V30 1528 H 142.461 -1.46438 1.44031 0
M  V30 1529 H 140.691 -3.8358 0.490214 0
M  V30 1530 H 142.38 -3.96018 0.890193 0
M  V30 1531 H 143.146 -3.52176 3.33462 0
M  V30 1532 H 139.025 -4.03876 2.22273 0
M  V30 1533 H 142.569 -4.05719 5.67484 0
M  V30 1534 H 138.466 -4.5748 4.55392 0
M  V30 1535 H 139.234 -4.82007 6.61522 0
M  V30 1536 N 141.898 -0.863906 -1.31812 0
M  V30 1537 C 143.146 -0.470904 -1.96537 0
M  V30 1538 C 143.467 0.978771 -1.68657 0
M  V30 1539 O 142.737 1.6853 -0.998717 0
M  V30 1540 H 141.317 -0.171148 -0.72713 0
M  V30 1541 H 143.979 -1.10236 -1.60729 0
M  V30 1542 H 143.075 -0.623616 -3.05806 0
M  V30 1543 N 143.376 1.44774 -0.622745 0
M  V30 1544 C 144.787 1.85546 -0.207226 0
M  V30 1545 C 145.138 1.52093 1.23944 0
M  V30 1546 O 144.263 0.95492 1.94191 0
M  V30 1547 C 144.858 3.36781 -0.369313 0
M  V30 1548 C 143.417 3.76399 -0.00836847 0
M  V30 1549 C 142.564 2.68664 -0.686651 0
M  V30 1550 H 145.515 1.3536 -0.828454 0
M  V30 1551 H 145.536 3.78453 0.394162 0
M  V30 1552 H 145.048 3.61098 -1.42231 0
M  V30 1553 H 143.149 3.57698 1.04322 0
M  V30 1554 H 143.262 4.7732 -0.412584 0
M  V30 1555 H 141.626 2.54404 -0.122777 0
M  V30 1556 H 142.409 2.95815 -1.74208 0
M  V30 1557 N 144.854 0.36279 1.53368 0
M  V30 1558 C 146.265 -0.117022 1.86333 0
M  V30 1559 C 146.616 -1.48397 1.28347 0
M  V30 1560 O 145.741 -2.07787 0.604428 0
M  V30 1561 C 146.336 -0.21912 3.38091 0
M  V30 1562 C 144.895 -0.643184 3.70864 0
M  V30 1563 C 144.042 0.211318 2.76494 0
M  V30 1564 H 146.993 0.581687 1.47655 0
M  V30 1565 H 147.014 -1.04319 3.6592 0
M  V30 1566 H 146.526 0.775902 3.80265 0
M  V30 1567 H 144.627 -1.64654 3.34245 0
M  V30 1568 H 144.74 -0.41973 4.77258 0
M  V30 1569 H 143.104 -0.319367 2.5269 0
M  V30 1570 H 143.887 1.20383 3.21501 0
M  V30 1571 N 146.332 -1.57332 0.0918853 0
M  V30 1572 C 147.56 -1.98574 -0.581048 0
M  V30 1573 C 147.975 -0.970903 -1.61923 0
M  V30 1574 O 147.332 0.0399054 -1.82456 0
M  V30 1575 C 147.383 -3.39872 -1.23164 0
M  V30 1576 O 147.104 -4.37469 -0.234989 0
M  V30 1577 C 148.605 -3.96099 -1.99049 0
M  V30 1578 H 145.825 -0.65261 -0.156018 0
M  V30 1579 H 148.369 -2.0379 0.170225 0
M  V30 1580 H 146.524 -3.35679 -1.93386 0
M  V30 1581 H 146.938 -5.19751 -0.70418 0
M  V30 1582 H 148.412 -4.97127 -2.39934 0
M  V30 1583 H 148.889 -3.3374 -2.85507 0
M  V30 1584 H 149.495 -4.03755 -1.3365 0
M  V30 1585 N 147.81 0.181792 -1.56548 0
M  V30 1586 C 149.226 0.53316 -1.50431 0
M  V30 1587 C 149.426 1.85184 -0.794297 0
M  V30 1588 O 148.482 2.50058 -0.350318 0
M  V30 1589 C 149.795 0.575597 -2.9514 0
M  V30 1590 C 151.343 0.663519 -3.05886 0
M  V30 1591 C 151.818 0.736946 -4.52032 0
M  V30 1592 N 153.309 0.800118 -4.56237 0
M  V30 1593 C 154.044 0.877327 -5.66649 0
M  V30 1594 N 153.54 0.916016 -6.86718 0
M  V30 1595 N 155.333 0.915542 -5.54594 0
M  V30 1596 H 147.484 -0.683025 -2.01118 0
M  V30 1597 H 149.747 -0.244988 -0.915797 0
M  V30 1598 H 149.453 -0.324482 -3.502 0
M  V30 1599 H 149.327 1.42572 -3.49218 0
M  V30 1600 H 151.714 1.55403 -2.50867 0
M  V30 1601 H 151.795 -0.21307 -2.54911 0
M  V30 1602 H 151.439 -0.149262 -5.07681 0
M  V30 1603 H 151.369 1.62953 -5.00753 0
M  V30 1604 H 153.86 0.778926 -3.69785 0
M  V30 1605 H 154.173 0.975813 -7.66614 0
M  V30 1606 H 152.518 0.884469 -6.89349 0
M  V30 1607 H 155.709 0.882245 -4.59711 0
M  V30 1608 H 155.882 0.972253 -6.40665 0
M  V30 1609 N 149.288 1.51039 0.449983 0
M  V30 1610 C 150.516 1.66869 1.2232 0
M  V30 1611 C 150.931 0.360727 1.85322 0
M  V30 1612 O 150.288 -0.659531 1.70166 0
M  V30 1613 C 150.339 2.77524 2.31652 0
M  V30 1614 O 150.06 4.03252 1.7123 0
M  V30 1615 C 151.561 3.04512 3.2216 0
M  V30 1616 H 148.781 0.560326 0.369155 0
M  V30 1617 H 151.325 1.97385 0.534719 0
M  V30 1618 H 149.48 2.49642 2.96239 0
M  V30 1619 H 149.894 4.64609 2.43389 0
M  V30 1620 H 151.368 3.85551 3.95038 0
M  V30 1621 H 151.845 2.16415 3.8218 0
M  V30 1622 H 152.451 3.34005 2.63288 0
M  V30 1623 N 150.766 -0.704594 1.40972 0
M  V30 1624 C 151.676 -1.84856 1.44448 0
M  V30 1625 C 152.692 -1.70726 0.335961 0
M  V30 1626 O 153.868 -1.92799 0.582276 0
M  V30 1627 C 150.933 -3.20758 1.31587 0
M  V30 1628 C 149.994 -3.47063 2.52677 0
M  V30 1629 C 149.227 -4.76481 2.4042 0
M  V30 1630 O 149.45 -5.52341 1.42391 0
M  V30 1631 O 148.384 -5.03367 3.30007 0
M  V30 1632 H 152.21 -1.8488 2.40942 0
M  V30 1633 H 149.795 -0.85647 1.22413 0
M  V30 1634 H 151.677 -4.01913 1.26665 0
M  V30 1635 H 150.352 -3.21438 0.382049 0
M  V30 1636 H 149.259 -2.65873 2.63177 0
M  V30 1637 H 150.592 -3.5119 3.44858 0
M  V30 1638 N 152.244 -1.26651 -0.937939 0
M  V30 1639 C 153.474 -1.15006 -1.71631 0
M  V30 1640 C 153.882 0.297026 -1.86854 0
M  V30 1641 O 153.225 1.21493 -1.37786 0
M  V30 1642 C 153.287 -1.74984 -3.14039 0
M  V30 1643 C 152.951 -3.24103 -3.2219 0
M  V30 1644 C 153.948 -4.20877 -3.05219 0
M  V30 1645 C 151.633 -3.64625 -3.45476 0
M  V30 1646 C 153.627 -5.56151 -3.11408 0
M  V30 1647 C 151.314 -5.00032 -3.513 0
M  V30 1648 C 152.312 -5.95604 -3.34282 0
M  V30 1649 O 152 -7.28545 -3.3982 0
M  V30 1650 H 151.732 -0.401183 -0.544085 0
M  V30 1651 H 154.286 -1.67832 -1.18413 0
M  V30 1652 H 152.516 -1.16624 -3.68695 0
M  V30 1653 H 154.205 -1.58199 -3.73802 0
M  V30 1654 H 154.971 -3.90908 -2.87081 0
M  V30 1655 H 150.85 -2.90718 -3.57777 0
M  V30 1656 H 154.394 -6.30727 -2.98043 0
M  V30 1657 H 150.291 -5.29659 -3.68959 0
M  V30 1658 H 151.059 -7.3686 -3.56343 0
M  V30 1659 N 153.722 1.14298 -1.08507 0
M  V30 1660 C 155.138 1.37347 -0.812901 0
M  V30 1661 C 155.338 1.93052 0.577325 0
M  V30 1662 O 154.394 2.14389 1.33393 0
M  V30 1663 C 155.707 2.33359 -1.89642 0
M  V30 1664 C 157.255 2.46996 -1.92255 0
M  V30 1665 C 157.73 3.46309 -2.99724 0
M  V30 1666 N 159.221 3.53853 -2.98902 0
M  V30 1667 C 159.956 4.3055 -3.787 0
M  V30 1668 N 159.452 5.10482 -4.6838 0
M  V30 1669 N 161.245 4.25757 -3.66998 0
M  V30 1670 H 153.396 0.764867 -1.9815 0
M  V30 1671 H 155.659 0.398966 -0.859959 0
M  V30 1672 H 155.365 1.99565 -2.89597 0
M  V30 1673 H 155.239 3.33274 -1.76659 0
M  V30 1674 H 157.626 2.80081 -0.929445 0
M  V30 1675 H 157.707 1.47039 -2.09316 0
M  V30 1676 H 157.351 3.13957 -3.99241 0
M  V30 1677 H 157.281 4.46049 -2.79907 0
M  V30 1678 H 159.772 2.96812 -2.33904 0
M  V30 1679 H 160.085 5.66284 -5.25873 0
M  V30 1680 H 158.43 5.09747 -4.72422 0
M  V30 1681 H 161.621 3.62383 -2.96304 0
M  V30 1682 H 161.794 4.85279 -4.29427 0
M  V30 1683 N 155.201 0.870884 1.31352 0
M  V30 1684 C 156.131 0.343096 2.30966 0
M  V30 1685 C 157.112 -0.566507 1.60389 0
M  V30 1686 O 158.297 -0.483336 1.88089 0
M  V30 1687 C 155.427 -0.455487 3.443 0
M  V30 1688 C 154.381 0.361103 4.26474 0
M  V30 1689 C 153.707 -0.563221 5.31725 0
M  V30 1690 C 155.007 1.59566 4.97329 0
M  V30 1691 H 156.701 1.17548 2.75359 0
M  V30 1692 H 154.247 0.566686 1.32381 0
M  V30 1693 H 156.2 -0.83525 4.13039 0
M  V30 1694 H 154.924 -1.32139 2.98675 0
M  V30 1695 H 153.583 0.722825 3.59403 0
M  V30 1696 H 153.231 -1.42643 4.82351 0
M  V30 1697 H 152.931 -0.0207409 5.87596 0
M  V30 1698 H 154.455 -0.939808 6.03324 0
M  V30 1699 H 155.869 1.28728 5.58661 0
M  V30 1700 H 154.266 2.07728 5.63 0
M  V30 1701 H 155.336 2.34798 4.24262 0
M  V30 1702 N 156.679 -1.44442 0.630414 0
M  V30 1703 C 157.928 -2.01267 0.132073 0
M  V30 1704 C 158.241 -1.50172 -1.25331 0
M  V30 1705 O 159.447 -1.9912 -1.84562 0
M  V30 1706 C 157.903 -3.59422 0.185362 0
M  V30 1707 C 157.511 -4.19514 1.57201 0
M  V30 1708 C 159.255 -4.23724 -0.256553 0
M  V30 1709 C 157.162 -5.69891 1.58045 0
M  V30 1710 H 156.092 -0.752619 0.0456092 0
M  V30 1711 H 158.743 -1.65666 0.789106 0
M  V30 1712 H 157.125 -3.92318 -0.538759 0
M  V30 1713 H 158.299 -3.98156 2.31966 0
M  V30 1714 H 156.614 -3.67496 1.95795 0
M  V30 1715 H 159.211 -5.34019 -0.269767 0
M  V30 1716 H 159.554 -3.96013 -1.28372 0
M  V30 1717 H 160.087 -3.95629 0.41505 0
M  V30 1718 H 156.826 -6.02336 2.58597 0
M  V30 1719 H 156.346 -5.93373 0.875725 0
M  V30 1720 H 158.025 -6.33515 1.31408 0
M  V30 1721 N 158.157 -0.370918 -1.53173 0
M  V30 1722 C 159.403 0.217423 -2.01631 0
M  V30 1723 C 159.736 1.47983 -1.25756 0
M  V30 1724 O 159.011 1.91274 -0.352764 0
M  V30 1725 C 159.294 0.503982 -3.56556 0
M  V30 1726 C 159.147 -0.77243 -4.43118 0
M  V30 1727 C 160.466 1.30234 -4.20389 0
M  V30 1728 H 157.585 0.0775486 -0.732909 0
M  V30 1729 H 160.227 -0.496863 -1.83388 0
M  V30 1730 H 158.377 1.11248 -3.72231 0
M  V30 1731 H 160.049 -1.4098 -4.39229 0
M  V30 1732 H 158.292 -1.39167 -4.10871 0
M  V30 1733 H 158.963 -0.526815 -5.4948 0
M  V30 1734 H 161.439 0.787546 -4.08579 0
M  V30 1735 H 160.315 1.47158 -5.28806 0
M  V30 1736 H 160.576 2.31237 -3.76805 0
M  V30 1737 N 159.635 1.57281 -0.100228 0
M  V30 1738 C 160.545 2.17833 0.870965 0
M  V30 1739 C 161.561 1.14921 1.30649 0
M  V30 1740 O 162.737 1.47313 1.37335 0
M  V30 1741 C 159.802 2.75085 2.1102 0
M  V30 1742 C 158.863 3.9297 1.72838 0
M  V30 1743 C 158.096 4.47482 2.90854 0
M  V30 1744 O 158.319 4.00922 4.05731 0
M  V30 1745 O 157.253 5.38433 2.69023 0
M  V30 1746 H 161.079 3.0124 0.38575 0
M  V30 1747 H 158.664 1.48881 0.124397 0
M  V30 1748 H 160.546 3.11656 2.83634 0
M  V30 1749 H 159.221 1.94721 2.58584 0
M  V30 1750 H 158.128 3.61201 0.973883 0
M  V30 1751 H 159.461 4.74713 1.30033 0
M  V30 1752 N 161.113 -0.173488 1.56642 0
M  V30 1753 C 162.061 -1.23417 1.97157 0
M  V30 1754 C 163.055 -1.45946 0.860013 0
M  V30 1755 O 164.261 -1.46551 1.04512 0
M  V30 1756 H 160.636 -0.414818 0.62724 0
M  V30 1757 H 162.607 -0.865582 2.8557 0
M  V30 1758 C 161.356 -2.5665 2.34576 0
M  V30 1759 H 160.679 -2.40137 3.19647 0
M  V30 1760 H 162.119 -3.2956 2.6677 0
M  V30 1761 C 160.578 -3.15245 1.18836 0
M  V30 1762 O 161.108 -3.98883 0.474869 0
M  V30 1763 N 159.314 -2.74303 0.959497 0
M  V30 1764 H 158.861 -2.0639 1.54146 0
M  V30 1765 H 158.819 -3.13844 0.186932 0
M  V30 1766 N 162.591 -1.51276 -0.441967 0
M  V30 1767 C 163.521 -1.752 -1.54361 0
M  V30 1768 C 164.502 -0.601682 -1.59103 0
M  V30 1769 O 165.687 -0.843913 -1.74905 0
M  V30 1770 C 162.817 -1.87282 -2.92477 0
M  V30 1771 C 161.771 -3.02687 -3.02596 0
M  V30 1772 C 161.097 -2.99947 -4.42647 0
M  V30 1773 C 162.397 -4.4273 -2.77106 0
M  V30 1774 H 164.091 -2.67442 -1.34592 0
M  V30 1775 H 161.637 -1.28694 -0.646048 0
M  V30 1776 H 163.59 -2.02602 -3.695 0
M  V30 1777 H 162.314 -0.916844 -3.13467 0
M  V30 1778 H 160.973 -2.87065 -2.28012 0
M  V30 1779 H 160.621 -2.02136 -4.60597 0
M  V30 1780 H 160.321 -3.77439 -4.50348 0
M  V30 1781 H 161.845 -3.17354 -5.2165 0
M  V30 1782 H 163.259 -4.58727 -3.43864 0
M  V30 1783 H 161.656 -5.21893 -2.96222 0
M  V30 1784 H 162.726 -4.53087 -1.72744 0
M  V30 1785 N 164.069 0.697108 -1.41344 0
M  V30 1786 C 165.294 1.49096 -1.44171 0
M  V30 1787 C 165.719 1.88038 -0.0481568 0
M  V30 1788 O 165.077 1.54525 0.948243 0
M  V30 1789 C 165.125 2.73088 -2.3549 0
M  V30 1790 O 164.229 3.70514 -1.81088 0
M  V30 1791 H 163.57 0.448801 -0.489361 0
M  V30 1792 H 166.1 0.856992 -1.85787 0
M  V30 1793 H 166.11 3.21413 -2.51312 0
M  V30 1794 H 164.785 2.44081 -3.36745 0
M  V30 1795 H 163.362 3.29441 -1.74708 0
M  V30 1796 N 165.547 1.27147 0.931209 0
M  V30 1797 C 166.772 1.16191 1.71797 0
M  V30 1798 C 167.197 -0.278004 1.86034 0
M  V30 1799 O 166.555 -1.20137 1.35782 0
M  V30 1800 C 166.603 1.84673 3.09723 0
M  V30 1801 O 165.707 1.14231 3.96264 0
M  V30 1802 H 165.048 0.404303 0.526721 0
M  V30 1803 H 167.578 1.68152 1.1656 0
M  V30 1804 H 167.588 1.91893 3.60057 0
M  V30 1805 H 166.263 2.89421 2.98677 0
M  V30 1806 H 164.84 1.15056 3.54706 0
M  V30 1807 N 167.025 -1.13721 1.09112 0
M  V30 1808 C 168.441 -1.36914 0.820174 0
M  V30 1809 C 168.641 -1.93356 -0.567079 0
M  V30 1810 O 167.697 -2.15093 -1.32255 0
M  V30 1811 C 169.01 -2.3235 1.90877 0
M  V30 1812 C 170.558 -2.45973 1.93562 0
M  V30 1813 C 171.033 -3.44714 3.01556 0
M  V30 1814 N 172.524 -3.52263 3.00775 0
M  V30 1815 C 173.259 -4.28536 3.80978 0
M  V30 1816 N 172.755 -5.07991 4.71081 0
M  V30 1817 N 174.548 -4.23804 3.69251 0
M  V30 1818 H 166.699 -0.754348 1.98553 0
M  V30 1819 H 168.962 -0.3944 0.862063 0
M  V30 1820 H 168.668 -1.98027 2.90651 0
M  V30 1821 H 168.542 -3.32332 1.78424 0
M  V30 1822 H 170.929 -2.79584 0.944286 0
M  V30 1823 H 171.01 -1.45926 2.10093 0
M  V30 1824 H 170.654 -3.11835 4.00901 0
M  V30 1825 H 170.584 -4.44558 2.82269 0
M  V30 1826 H 173.075 -2.95567 2.35475 0
M  V30 1827 H 173.388 -5.63487 5.28869 0
M  V30 1828 H 171.733 -5.07235 4.75119 0
M  V30 1829 H 174.924 -3.60806 2.98222 0
M  V30 1830 H 175.097 -4.82995 4.31995 0
M  V30 1831 N 168.503 -0.877838 -1.30888 0
M  V30 1832 C 169.743 -0.499301 -1.98208 0
M  V30 1833 C 170.107 0.932649 -1.67826 0
M  V30 1834 O 171.308 1.41694 -2.28421 0
M  V30 1835 C 169.579 -0.758221 -3.49265 0
M  V30 1836 S 171.138 -0.480719 -4.36159 0
M  V30 1837 H 167.956 -0.186062 -0.686223 0
M  V30 1838 H 170.558 -1.13556 -1.59139 0
M  V30 1839 H 169.262 -1.79903 -3.68867 0
M  V30 1840 H 168.793 -0.109247 -3.93248 0
M  V30 1841 H 170.808 0.683698 -4.91467 0
M  V30 1842 N 169.982 1.44106 -0.638065 0
M  V30 1843 C 171.207 2.0685 -0.150916 0
M  V30 1844 C 171.632 1.47417 1.16833 0
M  V30 1845 O 170.99 0.578264 1.71831 0
M  V30 1846 C 171.038 3.60555 -0.05708 0
M  V30 1847 O 170.142 4.00465 0.984972 0
M  V30 1848 H 169.483 0.658151 -0.0879399 0
M  V30 1849 H 172.013 1.84865 -0.876707 0
M  V30 1850 H 172.023 4.07789 0.131232 0
M  V30 1851 H 170.698 4.03193 -1.02021 0
M  V30 1852 H 169.275 3.64849 0.770672 0
M  V30 1853 N 171.46 0.379036 1.52974 0
M  V30 1854 C 172.706 -0.199244 2.02422 0
M  V30 1855 C 173.061 -1.4532 1.26095 0
M  V30 1856 O 172.354 -1.88377 0.34996 0
M  V30 1857 C 172.548 -0.53096 3.53434 0
M  V30 1858 C 172.377 0.689298 4.44386 0
M  V30 1859 C 171.147 1.20546 4.9071 0
M  V30 1860 C 173.345 1.55856 4.90116 0
M  V30 1861 N 171.327 2.38434 5.65705 0
M  V30 1862 C 172.698 2.58396 5.63588 0
M  V30 1863 C 174.753 1.57986 4.7217 0
M  V30 1864 C 173.456 3.62939 6.21022 0
M  V30 1865 C 175.482 2.6143 5.30479 0
M  V30 1866 C 174.844 3.62693 6.03849 0
M  V30 1867 H 170.943 -0.0352671 0.781204 0
M  V30 1868 H 173.527 0.526614 1.87443 0
M  V30 1869 H 171.698 -1.22588 3.68547 0
M  V30 1870 H 173.43 -1.0955 3.89591 0
M  V30 1871 H 170.185 0.768022 4.67331 0
M  V30 1872 H 170.609 2.98055 6.07859 0
M  V30 1873 H 175.251 0.810475 4.14959 0
M  V30 1874 H 172.969 4.40751 6.77321 0
M  V30 1875 H 176.555 2.63949 5.18481 0
M  V30 1876 H 175.435 4.41424 6.48163 0
M  V30 1877 N 172.938 -1.57226 0.108567 0
M  V30 1878 C 173.87 -2.11809 -0.875752 0
M  V30 1879 C 174.883 -1.05839 -1.23701 0
M  V30 1880 O 176.072 -1.33245 -1.18778 0
M  V30 1881 C 173.172 -2.59411 -2.18081 0
M  V30 1882 C 172.345 -3.89364 -1.99284 0
M  V30 1883 C 171.404 -4.22672 -3.13424 0
M  V30 1884 O 170.43 -4.91668 -2.86795 0
M  V30 1885 N 171.632 -3.79154 -4.3957 0
M  V30 1886 H 174.397 -2.9689 -0.409477 0
M  V30 1887 H 171.958 -1.61721 -0.076158 0
M  V30 1888 H 173.95 -2.7873 -2.93414 0
M  V30 1889 H 172.52 -1.79268 -2.5609 0
M  V30 1890 H 171.74 -3.79059 -1.08203 0
M  V30 1891 H 173.028 -4.74358 -1.84017 0
M  V30 1892 H 172.426 -3.23486 -4.64083 0
M  V30 1893 H 170.983 -4.03602 -5.11809 0
M  V30 1894 N 174.416 0.165178 -1.56732 0
M  V30 1895 C 175.693 0.908443 -1.73224 0
M  V30 1896 C 176.073 2.0013 -0.67165 0
M  V30 1897 O 175.421 2.26353 0.31253 0
M  V30 1898 C 175.631 1.46756 -3.16644 0
M  V30 1899 C 176.979 1.93809 -3.77787 0
M  V30 1900 O 178.003 1.56537 -3.1996 0
M  V30 1901 O 176.862 2.62486 -4.79336 0
M  V30 1902 H 173.956 0.428025 -0.707618 0
M  V30 1903 H 176.502 0.152526 -1.69013 0
M  V30 1904 H 175.274 0.68129 -3.85323 0
M  V30 1905 H 174.897 2.28749 -3.25207 0
M  V30 1906 N 175.894 1.51508 0.433938 0
M  V30 1907 C 176.824 1.76016 1.53429 0
M  V30 1908 C 177.805 0.610112 1.58782 0
M  V30 1909 O 178.99 0.853177 1.74455 0
M  V30 1910 C 176.12 1.88831 2.9148 0
M  V30 1911 C 175.074 3.04288 3.00987 0
M  V30 1912 C 174.4 3.0229 4.4105 0
M  V30 1913 C 175.7 4.44193 2.74754 0
M  V30 1914 H 177.394 2.68152 1.33171 0
M  V30 1915 H 174.94 1.29035 0.639214 0
M  V30 1916 H 176.893 2.04559 3.6842 0
M  V30 1917 H 175.617 0.933455 3.12976 0
M  V30 1918 H 174.276 2.8827 2.26486 0
M  V30 1919 H 173.924 2.04576 4.59519 0
M  V30 1920 H 173.624 3.79822 4.4834 0
M  V30 1921 H 175.148 3.20116 5.1996 0
M  V30 1922 H 176.562 4.60544 3.41426 0
M  V30 1923 H 174.959 5.23457 2.9345 0
M  V30 1924 H 176.029 4.53996 1.70339 0
M  V30 1925 N 177.372 -0.689602 1.41712 0
M  V30 1926 C 178.319 -1.80345 1.44029 0
M  V30 1927 C 179.289 -1.63478 0.293948 0
M  V30 1928 O 180.474 -1.84244 0.495869 0
M  V30 1929 C 177.614 -3.18272 1.33405 0
M  V30 1930 C 176.727 -3.46529 2.57956 0
M  V30 1931 C 175.862 -4.74103 2.39582 0
M  V30 1932 C 174.901 -4.95347 3.5958 0
M  V30 1933 N 174.038 -6.14151 3.40239 0
M  V30 1934 H 178.878 -1.77698 2.39222 0
M  V30 1935 H 176.415 -0.867688 1.18784 0
M  V30 1936 H 178.373 -3.97956 1.25246 0
M  V30 1937 H 177.003 -3.2008 0.418164 0
M  V30 1938 H 176.055 -2.61207 2.76542 0
M  V30 1939 H 177.367 -3.58126 3.47199 0
M  V30 1940 H 176.521 -5.61853 2.28924 0
M  V30 1941 H 175.26 -4.64763 1.47805 0
M  V30 1942 H 174.265 -4.06044 3.70686 0
M  V30 1943 H 175.49 -5.06542 4.52318 0
M  V30 1944 H 173.436 -6.06013 2.51167 0
M  V30 1945 H 173.353 -6.26543 4.23061 0
M  V30 1946 H 174.621 -7.04619 3.33365 0
M  V30 1947 N 178.85 -1.27639 -0.924453 0
M  V30 1948 C 180.127 -1.04887 -1.651 0
M  V30 1949 C 180.507 0.415327 -2.06974 0
M  V30 1950 O 179.855 1.39923 -1.80648 0
M  V30 1951 C 180.065 -2.01348 -2.85061 0
M  V30 1952 C 181.413 -2.30899 -3.56329 0
M  V30 1953 O 182.437 -1.99348 -2.95193 0
M  V30 1954 O 181.296 -2.84699 -4.66485 0
M  V30 1955 H 178.39 -0.400083 -0.723784 0
M  V30 1956 H 180.936 -1.38916 -0.974703 0
M  V30 1957 H 179.708 -3.0008 -2.51133 0
M  V30 1958 H 179.331 -1.679 -3.6041 0
M  V30 1959 N 180.328 1.1314 -1.09713 0
M  V30 1960 C 181.558 1.88048 -0.855656 0
M  V30 1961 C 181.966 1.79537 0.596919 0
M  V30 1962 O 181.309 1.16196 1.42282 0
M  V30 1963 C 181.371 3.38314 -1.21589 0
M  V30 1964 C 181.035 3.70605 -2.67397 0
M  V30 1965 C 182.032 3.69596 -3.65643 0
M  V30 1966 C 179.717 4.0017 -3.03593 0
M  V30 1967 C 181.711 3.977 -4.9811 0
M  V30 1968 C 179.398 4.27935 -4.36251 0
M  V30 1969 C 180.396 4.26685 -5.33318 0
M  V30 1970 O 180.084 4.53767 -6.63589 0
M  V30 1971 H 179.816 0.60208 -0.307368 0
M  V30 1972 H 182.37 1.44128 -1.46343 0
M  V30 1973 H 180.6 3.82752 -0.551177 0
M  V30 1974 H 182.289 3.94552 -0.953083 0
M  V30 1975 H 183.055 3.46826 -3.39023 0
M  V30 1976 H 178.934 4.00289 -2.2867 0
M  V30 1977 H 182.478 3.9664 -5.73866 0
M  V30 1978 H 178.375 4.50178 -4.62613 0
M  V30 1979 H 179.143 4.71422 -6.69107 0
M  V30 1980 N 181.806 0.884767 1.30421 0
M  V30 1981 C 182.739 0.295999 2.26272 0
M  V30 1982 C 183.717 -0.58332 1.51777 0
M  V30 1983 O 184.901 -0.53346 1.80794 0
M  V30 1984 C 182.028 -0.57944 3.33707 0
M  V30 1985 C 181.074 0.230525 4.25877 0
M  V30 1986 S 181.907 1.61867 5.1045 0
M  V30 1987 C 183.063 0.749756 6.21393 0
M  V30 1988 H 183.296 1.10848 2.75862 0
M  V30 1989 H 180.829 0.684178 1.38414 0
M  V30 1990 H 182.787 -1.07879 3.96071 0
M  V30 1991 H 181.448 -1.36601 2.82841 0
M  V30 1992 H 180.641 -0.437542 5.02097 0
M  V30 1993 H 180.243 0.662493 3.68086 0
M  V30 1994 H 182.535 -0.0333547 6.77492 0
M  V30 1995 H 183.478 1.48356 6.92384 0
M  V30 1996 H 183.886 0.310751 5.63644 0
M  V30 1997 N 183.284 -1.43765 0.645699 0
M  V30 1998 C 184.7 -1.56509 0.312591 0
M  V30 1999 C 184.9 -1.6307 -1.18365 0
M  V30 2000 O 183.956 -1.58167 -1.96824 0
M  V30 2001 C 185.269 -2.82968 1.01733 0
M  V30 2002 C 186.817 -2.96701 0.996865 0
M  V30 2003 C 187.292 -4.25982 1.68236 0
M  V30 2004 N 188.783 -4.32829 1.64964 0
M  V30 2005 C 189.518 -5.31613 2.14885 0
M  V30 2006 N 189.014 -6.36718 2.73061 0
M  V30 2007 N 190.807 -5.23217 2.05428 0
M  V30 2008 H 182.958 -1.3775 1.61675 0
M  V30 2009 H 185.221 -0.661067 0.679481 0
M  V30 2010 H 184.927 -2.84156 2.0724 0
M  V30 2011 H 184.801 -3.72957 0.564177 0
M  V30 2012 H 187.188 -2.95058 -0.0497719 0
M  V30 2013 H 187.269 -2.08022 1.48865 0
M  V30 2014 H 186.913 -4.28386 2.72852 0
M  V30 2015 H 186.843 -5.13545 1.16529 0
M  V30 2016 H 189.334 -3.57493 1.22503 0
M  V30 2017 H 189.647 -7.08401 3.08848 0
M  V30 2018 H 187.992 -6.37362 2.77118 0
M  V30 2019 H 191.183 -4.40019 1.59689 0
M  V30 2020 H 191.356 -6.00045 2.44643 0
M  V30 2021 N 184.763 -0.387143 -1.52771 0
M  V30 2022 C 185.695 0.484089 -2.2403 0
M  V30 2023 C 186.708 1.02849 -1.26198 0
M  V30 2024 O 187.897 0.931186 -1.52286 0
M  V30 2025 C 184.997 1.68337 -2.94136 0
M  V30 2026 C 184.17 1.26672 -4.18656 0
M  V30 2027 C 183.229 2.33045 -4.7178 0
M  V30 2028 O 182.255 1.94541 -5.34923 0
M  V30 2029 N 183.457 3.64929 -4.5145 0
M  V30 2030 H 186.222 -0.126404 -2.99433 0
M  V30 2031 H 183.783 -0.213392 -1.60488 0
M  V30 2032 H 185.775 2.39019 -3.26577 0
M  V30 2033 H 184.345 2.20025 -2.22053 0
M  V30 2034 H 183.565 0.388878 -3.92277 0
M  V30 2035 H 184.853 0.964964 -4.99566 0
M  V30 2036 H 184.251 3.98974 -4.01044 0
M  V30 2037 H 182.808 4.31651 -4.88386 0
M  V30 2038 N 186.241 1.57166 -0.116904 0
M  V30 2039 C 187.204 2.14039 0.819742 0
M  V30 2040 C 188.204 1.07477 1.19605 0
M  V30 2041 O 189.394 1.33263 1.1219 0
M  V30 2042 C 186.526 2.67891 2.10826 0
M  V30 2043 H 187.719 2.98128 0.325511 0
M  V30 2044 H 185.272 1.55739 0.132312 0
M  V30 2045 H 186.007 1.87384 2.64685 0
M  V30 2046 H 185.792 3.45823 1.84793 0
M  V30 2047 H 187.282 3.11809 2.77785 0
M  V30 2048 N 187.719 -0.156864 1.56817 0
M  V30 2049 C 188.967 -0.869404 1.82444 0
M  V30 2050 C 189.288 -1.82147 0.69623 0
M  V30 2051 O 188.558 -1.93847 -0.28287 0
M  V30 2052 H 187.138 -0.324043 0.673056 0
M  V30 2053 H 189.8 -0.153224 1.94297 0
M  V30 2054 H 188.896 -1.43761 2.77019 0
M  V30 2055 N 189.197 -1.51736 -0.425897 0
M  V30 2056 C 190.107 -1.76738 -1.54275 0
M  V30 2057 C 191.123 -0.65211 -1.61318 0
M  V30 2058 O 192.299 -0.935654 -1.78346 0
M  V30 2059 C 189.364 -1.89755 -2.90162 0
M  V30 2060 C 188.425 -3.13633 -2.93143 0
M  V30 2061 C 187.658 -3.2602 -4.22548 0
M  V30 2062 O 187.881 -2.44067 -5.15546 0
M  V30 2063 O 186.815 -4.19071 -4.32046 0
M  V30 2064 H 190.641 -2.71502 -1.36089 0
M  V30 2065 H 188.226 -1.36376 -0.610069 0
M  V30 2066 H 190.108 -2.00236 -3.70788 0
M  V30 2067 H 188.783 -0.981785 -3.08452 0
M  V30 2068 H 187.69 -3.08622 -2.11431 0
M  V30 2069 H 189.023 -4.04936 -2.798 0
M  V30 2070 N 190.675 0.682077 -1.42076 0
M  V30 2071 C 191.921 1.44428 -1.42367 0
M  V30 2072 C 192.254 1.94164 -0.0373056 0
M  V30 2073 O 191.529 1.70429 0.937239 0
M  V30 2074 C 191.812 2.64654 -2.44194 0
M  V30 2075 C 191.665 2.20596 -3.91991 0
M  V30 2076 C 192.984 3.66865 -2.431 0
M  V30 2077 H 190.103 0.523834 -0.518428 0
M  V30 2078 H 192.745 0.77576 -1.73442 0
M  V30 2079 H 190.895 3.2169 -2.17826 0
M  V30 2080 H 192.567 1.68783 -4.29313 0
M  V30 2081 H 190.81 1.52242 -4.06208 0
M  V30 2082 H 191.481 3.06921 -4.58807 0
M  V30 2083 H 193.957 3.19531 -2.66532 0
M  V30 2084 H 192.833 4.48577 -3.16339 0
M  V30 2085 H 193.094 4.17493 -1.45437 0
M  V30 2086 N 192.153 1.28127 0.917671 0
M  V30 2087 C 193.381 1.17892 1.70026 0
M  V30 2088 C 193.796 -0.262958 1.8696 0
M  V30 2089 O 193.153 -1.17811 1.3938 0
M  V30 2090 C 193.204 1.86872 3.09453 0
M  V30 2091 O 192.925 3.25428 2.93306 0
M  V30 2092 C 194.426 1.8289 4.03815 0
M  V30 2093 H 191.646 0.40942 0.531617 0
M  V30 2094 H 194.19 1.69181 1.14883 0
M  V30 2095 H 192.345 1.39464 3.61426 0
M  V30 2096 H 192.759 3.59918 3.81523 0
M  V30 2097 H 194.233 2.35751 4.99125 0
M  V30 2098 H 194.71 0.800412 4.31845 0
M  V30 2099 H 195.316 2.29959 3.57769 0
M  V30 2100 N 193.631 -1.12557 1.10312 0
M  V30 2101 C 194.861 -1.87592 0.865617 0
M  V30 2102 C 195.269 -1.79851 -0.587389 0
M  V30 2103 O 194.612 -1.16949 -1.41664 0
M  V30 2104 C 194.674 -3.37665 1.23381 0
M  V30 2105 C 194.338 -3.69181 2.69359 0
M  V30 2106 C 195.335 -3.67652 3.67597 0
M  V30 2107 C 193.02 -3.98555 3.05711 0
M  V30 2108 C 195.014 -3.95053 5.00212 0
M  V30 2109 C 192.701 -4.25616 4.38514 0
M  V30 2110 C 193.699 -4.23851 5.35574 0
M  V30 2111 O 193.387 -4.50242 6.65986 0
M  V30 2112 H 193.119 -0.600442 0.310557 0
M  V30 2113 H 195.673 -1.4335 1.47105 0
M  V30 2114 H 193.903 -3.82454 0.571467 0
M  V30 2115 H 195.592 -3.94041 0.973994 0
M  V30 2116 H 196.358 -3.45024 3.40857 0
M  V30 2117 H 192.237 -3.99071 2.30789 0
M  V30 2118 H 195.781 -3.93591 5.75962 0
M  V30 2119 H 191.678 -4.47718 4.64994 0
M  V30 2120 H 192.446 -4.67867 6.71597 0
M  V30 2121 N 195.109 -0.891671 -1.2995 0
M  V30 2122 C 196.072 -0.36828 -2.26222 0
M  V30 2123 C 197.072 0.493014 -1.53056 0
M  V30 2124 O 198.262 0.299213 -1.71611 0
M  V30 2125 C 195.394 0.47442 -3.37583 0
M  V30 2126 H 196.587 -1.21844 -2.74033 0
M  V30 2127 H 194.14 -0.669107 -1.41254 0
M  V30 2128 H 194.875 1.34489 -2.95099 0
M  V30 2129 H 194.66 -0.142615 -3.91841 0
M  V30 2130 H 196.15 0.83218 -4.09224 0
M  V30 2131 N 196.587 1.43421 -0.653314 0
M  V30 2132 C 197.864 1.95361 -0.0966581 0
M  V30 2133 C 198.244 1.59461 1.38331 0
M  V30 2134 O 197.592 0.879777 2.10884 0
M  V30 2135 C 197.802 3.47311 -0.342988 0
M  V30 2136 C 199.15 4.23875 -0.24798 0
M  V30 2137 O 200.174 3.55133 -0.275553 0
M  V30 2138 O 199.033 5.4623 -0.171771 0
M  V30 2139 H 196.127 0.826945 0.00956291 0
M  V30 2140 H 198.673 1.5336 -0.726558 0
M  V30 2141 H 197.445 3.66569 -1.36906 0
M  V30 2142 H 197.068 3.9631 0.319975 0
M  V30 2143 N 198.065 0.39524 1.52563 0
M  V30 2144 C 199.028 -0.425001 2.25225 0
M  V30 2145 C 200.028 -0.985266 1.27079 0
M  V30 2146 O 201.218 -0.866332 1.5113 0
M  V30 2147 C 198.35 -1.59686 3.01186 0
M  V30 2148 H 199.543 0.211233 2.99155 0
M  V30 2149 H 197.096 0.147472 1.55603 0
M  V30 2150 H 197.831 -2.27035 2.31572 0
M  V30 2151 H 197.616 -1.20176 3.73229 0
M  V30 2152 H 199.106 -2.17743 3.5634 0
M  V30 2153 N 199.544 -1.57102 0.125237 0
M  V30 2154 C 200.494 -2.12202 -0.833936 0
M  V30 2155 C 201.478 -1.04433 -1.22403 0
M  V30 2156 O 202.67 -1.30655 -1.19408 0
M  V30 2157 C 199.799 -2.72994 -2.08157 0
M  V30 2158 C 198.885 -3.87852 -1.71556 0
M  V30 2159 N 199.276 -4.9464 -1.05662 0
M  V30 2160 C 197.574 -3.98153 -2.00973 0
M  V30 2161 C 198.275 -5.74953 -0.883376 0
M  V30 2162 N 197.251 -5.24985 -1.41036 0
M  V30 2163 H 201.053 -2.92141 -0.321035 0
M  V30 2164 H 198.567 -1.62217 -0.0770315 0
M  V30 2165 H 200.564 -3.10816 -2.77847 0
M  V30 2166 H 199.224 -1.9452 -2.59985 0
M  V30 2167 H 200.235 -5.12872 -0.719878 0
M  V30 2168 H 196.912 -3.30728 -2.54804 0
M  V30 2169 H 198.302 -6.70904 -0.365675 0
M  V30 2170 N 201.022 0.148545 -1.56898 0
M  V30 2171 C 201.969 1.18345 -1.98149 0
M  V30 2172 C 202.939 1.42772 -0.848848 0
M  V30 2173 O 204.124 1.55132 -1.11079 0
M  V30 2174 C 201.264 2.51231 -2.36594 0
M  V30 2175 C 200.377 2.33991 -3.63142 0
M  V30 2176 C 199.512 3.59902 -3.90697 0
M  V30 2177 C 198.551 3.37692 -5.1052 0
M  V30 2178 N 197.688 4.5573 -5.34092 0
M  V30 2179 H 202.528 0.82467 -2.86362 0
M  V30 2180 H 200.065 0.395756 -1.41676 0
M  V30 2181 H 202.023 3.28713 -2.56912 0
M  V30 2182 H 200.653 2.85059 -1.51463 0
M  V30 2183 H 199.705 1.47572 -3.50609 0
M  V30 2184 H 201.017 2.13539 -4.5078 0
M  V30 2185 H 200.171 4.45813 -4.11505 0
M  V30 2186 H 198.91 3.83357 -3.01477 0
M  V30 2187 H 197.915 2.5017 -4.89587 0
M  V30 2188 H 199.14 3.15637 -6.0129 0
M  V30 2189 H 197.086 4.79361 -4.47827 0
M  V30 2190 H 197.003 4.38274 -6.15996 0
M  V30 2191 H 198.271 5.42858 -5.59397 0
M  V30 2192 N 202.5 1.5196 0.417844 0
M  V30 2193 C 203.748 1.65263 1.16329 0
M  V30 2194 C 204.069 0.380634 1.91249 0
M  V30 2195 O 203.339 -0.604214 1.86349 0
M  V30 2196 H 201.919 0.60912 0.432414 0
M  V30 2197 H 204.581 1.88969 0.477162 0
M  V30 2198 H 203.677 2.4896 1.88217 0
M  V30 2199 N 203.978 -0.674533 1.42435 0
M  V30 2200 C 205.394 -0.98769 1.25367 0
M  V30 2201 C 205.594 -2.00879 0.158044 0
M  V30 2202 O 204.65 -2.48075 -0.470633 0
M  V30 2203 C 205.963 -1.49224 2.6106 0
M  V30 2204 C 207.511 -1.61 2.68417 0
M  V30 2205 C 207.986 -2.14852 4.04478 0
M  V30 2206 N 209.477 -2.22185 4.06434 0
M  V30 2207 C 210.212 -2.64928 5.08528 0
M  V30 2208 N 209.708 -3.07121 6.21006 0
M  V30 2209 N 211.501 -2.64679 4.95885 0
M  V30 2210 H 203.652 0.00152503 2.124 0
M  V30 2211 H 205.915 -0.0618434 0.945981 0
M  V30 2212 H 205.621 -0.816453 3.42092 0
M  V30 2213 H 205.495 -2.47094 2.84999 0
M  V30 2214 H 207.882 -2.27686 1.87732 0
M  V30 2215 H 207.963 -0.616195 2.48267 0
M  V30 2216 H 207.607 -1.48775 4.85622 0
M  V30 2217 H 207.537 -3.15024 4.2198 0
M  V30 2218 H 210.028 -1.92435 3.25234 0
M  V30 2219 H 210.341 -3.38423 6.94759 0
M  V30 2220 H 208.686 -3.04978 6.24511 0
M  V30 2221 H 211.877 -2.31078 4.07088 0
M  V30 2222 H 212.05 -2.9767 5.75584 0
M  V30 2223 N 205.456 -1.28612 -0.910864 0
M  V30 2224 C 206.403 -1.12786 -2.01365 0
M  V30 2225 C 207.373 -0.024201 -1.66082 0
M  V30 2226 O 208.558 -0.189667 -1.89855 0
M  V30 2227 C 205.698 -0.798743 -3.35729 0
M  V30 2228 C 204.811 -1.98173 -3.83864 0
M  V30 2229 C 203.946 -1.59298 -5.06752 0
M  V30 2230 C 202.985 -2.74245 -5.47226 0
M  V30 2231 N 202.122 -2.35842 -6.61304 0
M  V30 2232 H 206.962 -2.07142 -2.14234 0
M  V30 2233 H 204.499 -1.03093 -1.0493 0
M  V30 2234 H 206.457 -0.588662 -4.13026 0
M  V30 2235 H 205.087 0.10789 -3.2262 0
M  V30 2236 H 204.139 -2.30386 -3.02699 0
M  V30 2237 H 205.451 -2.84343 -4.09818 0
M  V30 2238 H 204.605 -1.34513 -5.916 0
M  V30 2239 H 203.344 -0.702618 -4.82612 0
M  V30 2240 H 202.349 -2.99725 -4.60918 0
M  V30 2241 H 203.574 -3.63928 -5.73353 0
M  V30 2242 H 201.52 -1.49279 -6.38789 0
M  V30 2243 H 201.437 -3.15546 -6.86998 0
M  V30 2244 H 202.705 -2.14348 -7.4945 0
M  V30 2245 N 206.934 1.1197 -1.10907 0
M  V30 2246 C 207.882 2.19927 -0.757303 0
M  V30 2247 C 208.876 1.67564 0.248747 0
M  V30 2248 O 210.082 1.79672 0.108605 0
M  V30 2249 H 206.457 0.716925 -0.226987 0
M  V30 2250 H 208.428 2.46847 -1.67658 0
M  V30 2251 C 207.177 3.47061 -0.210671 0
M  V30 2252 H 206.5 3.87703 -0.976049 0
M  V30 2253 H 207.94 4.24 -0.0026584 0
M  V30 2254 C 206.399 3.19864 1.05777 0
M  V30 2255 O 206.929 3.40049 2.13845 0
M  V30 2256 N 205.135 2.73636 0.978349 0
M  V30 2257 H 204.682 2.5741 0.0988246 0
M  V30 2258 H 204.64 2.55815 1.82773 0
M  V30 2259 N 208.412 0.89855 1.29475 0
M  V30 2260 C 209.322 0.379974 2.31502 0
M  V30 2261 C 210.338 -0.524695 1.659 0
M  V30 2262 O 211.514 -0.414551 1.97087 0
M  V30 2263 C 208.579 -0.385138 3.44554 0
M  V30 2264 C 207.64 0.550914 4.2575 0
M  V30 2265 C 206.873 -0.177778 5.33404 0
M  V30 2266 O 207.096 -1.40189 5.52904 0
M  V30 2267 O 206.03 0.479106 5.9999 0
M  V30 2268 H 209.856 1.22639 2.77837 0
M  V30 2269 H 207.441 0.662834 1.33891 0
M  V30 2270 H 209.323 -0.817841 4.13388 0
M  V30 2271 H 207.998 -1.20763 3.0033 0
M  V30 2272 H 206.905 1.03271 3.59564 0
M  V30 2273 H 208.238 1.33979 4.73614 0
M  V30 2274 N 209.89 -1.43072 0.660911 0
M  V30 2275 C 211.138 -2.01323 0.177094 0
M  V30 2276 C 211.459 -1.5245 -1.2159 0
M  V30 2277 O 210.729 -0.740322 -1.81373 0
M  V30 2278 H 209.309 -0.744382 0.0624804 0
M  V30 2279 H 211.971 -1.75179 0.854305 0
M  V30 2280 H 211.067 -3.11649 0.167641 0
M  V30 2281 N 211.368 -0.403325 -1.52352 0
M  V30 2282 C 212.614 0.174605 -2.02047 0
M  V30 2283 C 212.947 1.45282 -1.28867 0
M  V30 2284 O 212.222 1.90483 -0.393257 0
M  V30 2285 C 212.505 0.428238 -3.57545 0
M  V30 2286 C 212.358 -0.866248 -4.4138 0
M  V30 2287 C 213.677 1.21287 -4.23057 0
M  V30 2288 H 210.796 0.0619851 -0.734389 0
M  V30 2289 H 213.438 -0.53565 -1.82293 0
M  V30 2290 H 211.588 1.03327 -3.74507 0
M  V30 2291 H 213.26 -1.50265 -4.3614 0
M  V30 2292 H 211.503 -1.47851 -4.07827 0
M  V30 2293 H 212.174 -0.643249 -5.48239 0
M  V30 2294 H 214.65 0.700703 -4.10158 0
M  V30 2295 H 213.526 1.35909 -5.31808 0
M  V30 2296 H 213.787 2.23193 -3.81625 0
M  V30 2297 N 212.846 1.57033 -0.133567 0
M  V30 2298 C 214.095 1.94861 0.520768 0
M  V30 2299 C 214.408 1.02012 1.66892 0
M  V30 2300 O 215.614 1.29365 2.38699 0
M  V30 2301 C 214.07 3.46362 0.977809 0
M  V30 2302 C 213.678 4.47773 -0.142674 0
M  V30 2303 C 215.422 3.93083 1.60269 0
M  V30 2304 C 213.329 5.90468 0.331883 0
M  V30 2305 H 212.259 0.727453 0.198315 0
M  V30 2306 H 214.91 1.82227 -0.215759 0
M  V30 2307 H 213.292 3.54282 1.7692 0
M  V30 2308 H 214.466 4.51536 -0.919317 0
M  V30 2309 H 212.781 4.10891 -0.675124 0
M  V30 2310 H 215.378 4.97121 1.96914 0
M  V30 2311 H 215.721 3.33876 2.48662 0
M  V30 2312 H 216.254 3.88025 0.876453 0
M  V30 2313 H 212.993 6.53463 -0.516341 0
M  V30 2314 H 212.513 5.90094 1.07469 0
M  V30 2315 H 214.192 6.42179 0.788332 0
M  V30 2316 N 214.325 -0.140222 1.56975 0
M  V30 2317 C 215.235 -1.19223 2.02047 0
M  V30 2318 C 216.251 -1.46612 0.937062 0
M  V30 2319 O 217.427 -1.58148 1.24704 0
M  V30 2320 C 214.492 -2.50414 2.39778 0
M  V30 2321 C 213.553 -2.30612 3.621 0
M  V30 2322 C 212.786 -3.55547 3.98023 0
M  V30 2323 O 213.009 -4.62004 3.34528 0
M  V30 2324 O 211.943 -3.47808 4.91237 0
M  V30 2325 H 215.769 -0.839559 2.91865 0
M  V30 2326 H 213.354 -0.349453 1.45256 0
M  V30 2327 H 215.236 -3.27747 2.64877 0
M  V30 2328 H 213.911 -2.85198 1.53114 0
M  V30 2329 H 212.818 -1.51207 3.4218 0
M  V30 2330 H 214.151 -2.00741 4.49404 0
M  V30 2331 N 215.803 -1.52179 -0.40978 0
M  V30 2332 C 217.05 -1.66206 -1.15679 0
M  V30 2333 C 217.378 -0.391674 -1.90516 0
M  V30 2334 O 216.633 0.62533 -1.8544 0
M  V30 2335 C 216.932 -2.83428 -2.17723 0
M  V30 2336 C 216.598 -4.21672 -1.59699 0
M  V30 2337 C 215.26 -4.59274 -1.43599 0
M  V30 2338 C 217.612 -5.07825 -1.17317 0
M  V30 2339 C 214.94 -5.80709 -0.836328 0
M  V30 2340 C 217.292 -6.29864 -0.587691 0
M  V30 2341 C 215.956 -6.66216 -0.413818 0
M  V30 2342 H 215.226 -0.608192 -0.423301 0
M  V30 2343 H 217.873 -1.86279 -0.444097 0
M  V30 2344 H 216.178 -2.57687 -2.95135 0
M  V30 2345 H 217.875 -2.91477 -2.75394 0
M  V30 2346 H 214.465 -3.9204 -1.73213 0
M  V30 2347 H 218.649 -4.79359 -1.28565 0
M  V30 2348 H 213.905 -6.07498 -0.689626 0
M  V30 2349 H 218.079 -6.95948 -0.250894 0
M  V30 2350 H 215.706 -7.60182 0.0529471 0
M  V30 2351 N 217.281 0.66697 -1.42791 0
M  V30 2352 C 218.527 1.4291 -1.43891 0
M  V30 2353 C 218.86 1.94114 -0.0578972 0
M  V30 2354 O 218.135 1.71414 0.91911 0
M  V30 2355 C 218.418 2.62049 -2.46987 0
M  V30 2356 C 218.271 2.16426 -3.94309 0
M  V30 2357 C 219.59 3.64266 -2.46978 0
M  V30 2358 H 216.709 0.518306 -0.523954 0
M  V30 2359 H 219.351 0.757321 -1.74255 0
M  V30 2360 H 217.501 3.19361 -2.21225 0
M  V30 2361 H 219.173 1.64221 -4.31079 0
M  V30 2362 H 217.416 1.47925 -4.078 0
M  V30 2363 H 218.087 3.02038 -4.62036 0
M  V30 2364 H 220.563 3.16686 -2.69906 0
M  V30 2365 H 219.439 4.45196 -3.21079 0
M  V30 2366 H 219.7 4.15927 -1.49857 0
M  V30 2367 N 218.759 1.29093 0.90403 0
M  V30 2368 C 219.984 1.19809 1.69294 0
M  V30 2369 C 220.409 -0.238481 1.86582 0
M  V30 2370 O 219.767 -1.1723 1.383 0
M  V30 2371 C 219.815 1.91202 3.05736 0
M  V30 2372 O 218.919 1.22611 3.93752 0
M  V30 2373 H 218.26 0.415385 0.518027 0
M  V30 2374 H 220.79 1.70586 1.12967 0
M  V30 2375 H 220.8 1.99487 3.55906 0
M  V30 2376 H 219.475 2.95692 2.92471 0
M  V30 2377 H 218.052 1.22554 3.52186 0
M  V30 2378 N 220.237 -1.11381 1.11499 0
M  V30 2379 C 221.467 -1.86663 0.885464 0
M  V30 2380 C 221.875 -1.80464 -0.568281 0
M  V30 2381 O 221.218 -1.18445 -1.40415 0
M  V30 2382 C 221.28 -3.36337 1.26956 0
M  V30 2383 C 220.944 -3.66304 2.73259 0
M  V30 2384 C 221.941 -3.63733 3.71476 0
M  V30 2385 C 219.626 -3.9529 3.09921 0
M  V30 2386 C 221.62 -3.89725 5.04374 0
M  V30 2387 C 219.307 -4.20941 4.43004 0
M  V30 2388 C 220.305 -4.18147 5.40039 0
M  V30 2389 O 219.993 -4.43153 6.70724 0
M  V30 2390 H 219.725 -0.597114 0.316908 0
M  V30 2391 H 222.279 -1.41782 1.48617 0
M  V30 2392 H 220.509 -3.81826 0.611999 0
M  V30 2393 H 222.198 -3.92986 1.01573 0
M  V30 2394 H 222.964 -3.41389 3.44498 0
M  V30 2395 H 218.843 -3.966 2.35009 0
M  V30 2396 H 222.387 -3.8746 5.80104 0
M  V30 2397 H 218.284 -4.42761 4.69716 0
M  V30 2398 H 219.052 -4.60717 6.76522 0
M  V30 2399 N 221.715 -0.905404 -1.28997 0
M  V30 2400 C 222.94 -0.549175 -1.99997 0
M  V30 2401 C 223.365 0.860276 -1.67275 0
M  V30 2402 O 222.723 1.57355 -0.900502 0
M  V30 2403 C 222.771 -0.755185 -3.52604 0
M  V30 2404 O 221.875 0.189692 -4.11964 0
M  V30 2405 H 221.216 -0.213899 -0.628604 0
M  V30 2406 H 223.746 -1.21856 -1.64354 0
M  V30 2407 H 223.756 -0.662045 -4.02593 0
M  V30 2408 H 222.431 -1.78271 -3.75755 0
M  V30 2409 H 221.008 0.0485257 -3.72868 0
M  V30 2410 N 223.193 1.4272 -0.668489 0
M  V30 2411 C 224.47 1.95248 -0.117373 0
M  V30 2412 C 224.85 1.60919 1.36632 0
M  V30 2413 O 224.198 0.902095 2.09939 0
M  V30 2414 C 224.408 3.46927 -0.379806 0
M  V30 2415 C 225.756 4.23588 -0.292923 0
M  V30 2416 O 226.78 3.5482 -0.313204 0
M  V30 2417 O 225.639 5.46017 -0.229697 0
M  V30 2418 H 222.733 0.827 0.00079152 0
M  V30 2419 H 225.279 1.52581 -0.742783 0
M  V30 2420 H 224.051 3.65096 -1.40786 0
M  V30 2421 H 223.674 3.96627 0.277923 0
M  V30 2422 N 224.671 0.411399 1.52136 0
M  V30 2423 C 225.604 -0.457614 2.23565 0
M  V30 2424 C 226.582 -1.04613 1.24478 0
M  V30 2425 O 227.766 -1.09356 1.53536 0
M  V30 2426 C 224.893 -1.6354 2.96602 0
M  V30 2427 C 223.939 -1.17005 4.10137 0
M  V30 2428 S 224.772 -0.13333 5.35334 0
M  V30 2429 C 225.928 -1.31638 6.119 0
M  V30 2430 H 226.161 0.148883 2.96927 0
M  V30 2431 H 223.694 0.195713 1.53155 0
M  V30 2432 H 225.652 -2.31074 3.39286 0
M  V30 2433 H 224.313 -2.21324 2.22878 0
M  V30 2434 H 223.506 -2.05005 4.60422 0
M  V30 2435 H 223.108 -0.573319 3.6958 0
M  V30 2436 H 225.4 -2.23957 6.39413 0
M  V30 2437 H 226.343 -0.854014 7.02931 0
M  V30 2438 H 226.751 -1.54321 5.42997 0
M  V30 2439 N 226.149 -1.5696 0.141893 0
M  V30 2440 C 227.096 -2.16501 -0.799737 0
M  V30 2441 C 228.066 -1.09643 -1.24771 0
M  V30 2442 O 229.251 -1.3766 -1.32115 0
M  V30 2443 C 226.391 -2.78679 -2.03549 0
M  V30 2444 C 225.504 -3.99914 -1.6338 0
M  V30 2445 C 224.639 -4.50106 -2.82096 0
M  V30 2446 C 223.678 -5.63819 -2.38275 0
M  V30 2447 N 222.815 -6.08651 -3.49983 0
M  V30 2448 H 227.655 -2.96632 -0.285179 0
M  V30 2449 H 225.192 -1.46533 -0.129053 0
M  V30 2450 H 227.15 -3.1287 -2.75986 0
M  V30 2451 H 225.78 -2.012 -2.52425 0
M  V30 2452 H 224.832 -3.71735 -0.807279 0
M  V30 2453 H 226.144 -4.82311 -1.27192 0
M  V30 2454 H 225.298 -4.86325 -3.62729 0
M  V30 2455 H 224.037 -3.66706 -3.21525 0
M  V30 2456 H 223.042 -5.2718 -1.56081 0
M  V30 2457 H 224.267 -6.49 -1.99938 0
M  V30 2458 H 222.213 -5.28188 -3.89042 0
M  V30 2459 H 222.13 -6.85961 -3.17794 0
M  V30 2460 H 223.398 -6.49515 -4.30988 0
M  V30 2461 N 227.627 0.131896 -1.57047 0
M  V30 2462 C 229.043 0.485031 -1.52051 0
M  V30 2463 C 229.243 1.82563 -0.85281 0
M  V30 2464 O 228.299 2.48817 -0.429694 0
M  V30 2465 C 229.612 0.481409 -2.96821 0
M  V30 2466 C 231.16 0.565868 -3.07842 0
M  V30 2467 C 231.635 0.592762 -4.54148 0
M  V30 2468 N 233.126 0.654564 -4.58552 0
M  V30 2469 C 233.861 0.696608 -5.69153 0
M  V30 2470 N 233.357 0.697078 -6.89284 0
M  V30 2471 N 235.15 0.738639 -5.57226 0
M  V30 2472 H 227.301 -0.746664 -1.98843 0
M  V30 2473 H 229.564 -0.273999 -0.90754 0
M  V30 2474 H 229.27 -0.435731 -3.4899 0
M  V30 2475 H 229.144 1.3139 -3.53577 0
M  V30 2476 H 231.531 1.47343 -2.55684 0
M  V30 2477 H 231.612 -0.29406 -2.54104 0
M  V30 2478 H 231.256 -0.310701 -5.06949 0
M  V30 2479 H 231.186 1.46939 -5.05684 0
M  V30 2480 H 233.677 0.660887 -3.72076 0
M  V30 2481 H 233.99 0.731426 -7.69331 0
M  V30 2482 H 232.335 0.66471 -6.91814 0
M  V30 2483 H 235.526 0.735545 -4.62285 0
M  V30 2484 H 235.699 0.767938 -6.43434 0
M  V30 2485 N 229.106 1.52395 0.401703 0
M  V30 2486 C 230.069 1.75636 1.47257 0
M  V30 2487 C 231.069 0.62628 1.48103 0
M  V30 2488 O 232.259 0.894227 1.49497 0
M  V30 2489 C 229.391 1.84553 2.86624 0
M  V30 2490 H 230.584 2.71241 1.27938 0
M  V30 2491 H 228.137 1.42923 0.632662 0
M  V30 2492 H 228.872 0.908882 3.11303 0
M  V30 2493 H 228.657 2.66715 2.87412 0
M  V30 2494 H 230.147 2.04251 3.64241 0
M  V30 2495 N 230.584 -0.659388 1.43143 0
M  V30 2496 C 231.514 -1.78422 1.50625 0
M  V30 2497 C 232.495 -1.66216 0.361443 0
M  V30 2498 O 233.68 -1.85404 0.577834 0
M  V30 2499 C 230.81 -3.16815 1.42287 0
M  V30 2500 C 229.764 -3.43777 2.54954 0
M  V30 2501 C 229.09 -4.81905 2.31671 0
M  V30 2502 C 230.39 -3.39134 3.97222 0
M  V30 2503 H 232.084 -1.72417 2.44771 0
M  V30 2504 H 229.63 -0.828084 1.17808 0
M  V30 2505 H 231.583 -3.95253 1.46127 0
M  V30 2506 H 230.307 -3.23534 0.446435 0
M  V30 2507 H 228.966 -2.67707 2.50457 0
M  V30 2508 H 228.614 -4.85294 1.32284 0
M  V30 2509 H 228.314 -5.00906 3.07192 0
M  V30 2510 H 229.838 -5.62609 2.37284 0
M  V30 2511 H 231.252 -4.07518 4.03239 0
M  V30 2512 H 229.649 -3.69671 4.72719 0
M  V30 2513 H 230.719 -2.37426 4.22797 0
M  V30 2514 N 232.062 -1.29571 -0.897171 0
M  V30 2515 C 232.972 -1.16808 -2.03453 0
M  V30 2516 C 233.988 -0.0907471 -1.73763 0
M  V30 2517 O 235.164 -0.303312 -1.99103 0
M  V30 2518 C 232.229 -0.848264 -3.36163 0
M  V30 2519 C 231.29 -2.0097 -3.79354 0
M  V30 2520 C 230.523 -1.70505 -5.05731 0
M  V30 2521 O 230.746 -0.62718 -5.66941 0
M  V30 2522 O 229.68 -2.5538 -5.45036 0
M  V30 2523 H 233.506 -2.12325 -2.17144 0
M  V30 2524 H 231.091 -1.09047 -1.02123 0
M  V30 2525 H 232.973 -0.684581 -4.15802 0
M  V30 2526 H 231.648 0.0771071 -3.23608 0
M  V30 2527 H 230.555 -2.22863 -3.00471 0
M  V30 2528 H 231.888 -2.91636 -3.96496 0
M  V30 2529 N 233.54 1.10788 -1.12088 0
M  V30 2530 C 234.487 2.17025 -0.785407 0
M  V30 2531 C 235.457 1.64265 0.246191 0
M  V30 2532 O 236.642 1.90412 0.121584 0
M  V30 2533 C 233.782 3.44249 -0.242177 0
M  V30 2534 C 232.895 4.1098 -1.33115 0
M  V30 2535 C 232.03 5.25911 -0.747741 0
M  V30 2536 C 231.069 5.84538 -1.81609 0
M  V30 2537 N 230.206 6.90853 -1.25167 0
M  V30 2538 H 235.046 2.45066 -1.69548 0
M  V30 2539 H 232.583 1.20297 -0.846582 0
M  V30 2540 H 234.541 4.17101 0.0908026 0
M  V30 2541 H 233.171 3.16571 0.631072 0
M  V30 2542 H 232.223 3.36133 -1.78097 0
M  V30 2543 H 233.535 4.50601 -2.13917 0
M  V30 2544 H 232.689 6.056 -0.365216 0
M  V30 2545 H 231.428 4.87614 0.0915188 0
M  V30 2546 H 230.433 5.03522 -2.20785 0
M  V30 2547 H 231.658 6.249 -2.6585 0
M  V30 2548 H 229.604 6.54562 -0.434174 0
M  V30 2549 H 229.521 7.29166 -1.99633 0
M  V30 2550 H 230.789 7.7433 -0.896259 0
M  V30 2551 N 235.018 0.912232 1.28515 0
M  V30 2552 C 235.948 0.416403 2.29757 0
M  V30 2553 C 236.929 -0.515194 1.6211 0
M  V30 2554 O 238.114 -0.423253 1.89532 0
M  V30 2555 C 235.244 -0.34572 3.45575 0
M  V30 2556 C 234.198 0.496599 4.25109 0
M  V30 2557 C 233.524 -0.393771 5.33248 0
M  V30 2558 C 234.824 1.75307 4.92001 0
M  V30 2559 H 236.518 1.26249 2.7148 0
M  V30 2560 H 234.064 0.608515 1.30511 0
M  V30 2561 H 236.017 -0.703422 4.15488 0
M  V30 2562 H 234.741 -1.2257 3.02728 0
M  V30 2563 H 233.4 0.8368 3.56922 0
M  V30 2564 H 233.048 -1.27225 4.86644 0
M  V30 2565 H 232.748 0.166209 5.87365 0
M  V30 2566 H 234.272 -0.747389 6.06009 0
M  V30 2567 H 235.686 1.46437 5.54283 0
M  V30 2568 H 234.083 2.25534 5.56106 0
M  V30 2569 H 235.153 2.48176 4.16577 0
M  V30 2570 N 236.496 -1.42363 0.676048 0
M  V30 2571 C 237.773 -1.95183 0.127726 0
M  V30 2572 C 238.153 -1.61641 -1.35777 0
M  V30 2573 O 237.501 -0.913216 -2.09458 0
M  V30 2574 C 237.711 -3.46721 0.398199 0
M  V30 2575 C 239.059 -4.23427 0.315383 0
M  V30 2576 O 240.083 -3.54649 0.332016 0
M  V30 2577 O 238.942 -5.45888 0.25865 0
M  V30 2578 H 236.036 -0.826992 0.00359427 0
M  V30 2579 H 238.582 -1.52184 0.750864 0
M  V30 2580 H 237.354 -3.64344 1.4272 0
M  V30 2581 H 236.977 -3.96769 -0.256885 0
M  V30 2582 N 237.974 -0.419461 -1.51915 0
M  V30 2583 C 239.222 0.152637 -2.01523 0
M  V30 2584 C 239.543 1.44762 -1.30649 0
M  V30 2585 O 238.813 1.90997 -0.435535 0
M  V30 2586 H 237.393 0.0593966 -0.744635 0
M  V30 2587 H 240.055 -0.558073 -1.86739 0
M  V30 2588 H 239.151 0.341369 -3.10227 0
M  V30 2589 N 239.452 1.56882 -0.150215 0
M  V30 2590 C 240.68 2.00593 0.506948 0
M  V30 2591 C 241.095 1.03033 1.58208 0
M  V30 2592 O 240.452 0.0278396 1.82479 0
M  V30 2593 C 240.503 3.44209 1.10465 0
M  V30 2594 O 240.224 4.3804 0.0724636 0
M  V30 2595 C 241.725 4.03214 1.84211 0
M  V30 2596 H 238.945 0.65795 0.13169 0
M  V30 2597 H 241.489 2.03018 -0.245743 0
M  V30 2598 H 239.644 3.42625 1.80795 0
M  V30 2599 H 240.058 5.22007 0.510793 0
M  V30 2600 H 241.532 5.0569 2.21318 0
M  V30 2601 H 242.009 3.44107 2.72923 0
M  V30 2602 H 242.615 4.08437 1.18572 0
M  V30 2603 N 240.93 -0.123565 1.57115 0
M  V30 2604 C 241.84 -1.17074 2.033 0
M  V30 2605 C 242.856 -1.4561 0.952559 0
M  V30 2606 O 244.032 -1.56817 1.26374 0
M  V30 2607 C 241.097 -2.47857 2.42421 0
M  V30 2608 C 240.158 -2.26758 3.64526 0
M  V30 2609 C 239.391 -3.51305 4.01771 0
M  V30 2610 O 239.614 -4.5843 3.39409 0
M  V30 2611 O 238.548 -3.42578 4.94898 0
M  V30 2612 H 242.374 -0.808555 2.92739 0
M  V30 2613 H 239.959 -0.334027 1.45618 0
M  V30 2614 H 241.841 -3.2492 2.68338 0
M  V30 2615 H 240.516 -2.83558 1.5613 0
M  V30 2616 H 239.423 -1.47569 3.43765 0
M  V30 2617 H 240.756 -1.95963 4.51508 0
M  V30 2618 N 242.408 -1.52605 -0.393616 0
M  V30 2619 C 243.654 -1.67672 -1.14079 0
M  V30 2620 C 243.987 -0.413121 -1.89755 0
M  V30 2621 O 243.262 0.588952 -1.85369 0
M  V30 2622 C 243.545 -2.9088 -2.12276 0
M  V30 2623 C 243.398 -4.27329 -1.40394 0
M  V30 2624 C 244.717 -3.09628 -3.12759 0
M  V30 2625 H 241.836 -0.610168 -0.413356 0
M  V30 2626 H 244.478 -1.85193 -0.424696 0
M  V30 2627 H 242.628 -2.76073 -2.73342 0
M  V30 2628 H 244.3 -4.53894 -0.82327 0
M  V30 2629 H 242.543 -4.2802 -0.705801 0
M  V30 2630 H 243.214 -5.09615 -2.12123 0
M  V30 2631 H 245.69 -3.23436 -2.61779 0
M  V30 2632 H 244.566 -3.97322 -3.78717 0
M  V30 2633 H 244.827 -2.23637 -3.81365 0
M  V30 2634 N 243.887 0.651787 -1.4349 0
M  V30 2635 C 244.835 1.78586 -1.49029 0
M  V30 2636 C 245.829 1.65448 -0.363767 0
M  V30 2637 O 247.035 1.71777 -0.537821 0
M  V30 2638 H 243.41 0.589236 -0.467231 0
M  V30 2639 H 245.381 1.71035 -2.44519 0
M  V30 2640 C 244.13 3.16851 -1.43181 0
M  V30 2641 H 243.453 3.27598 -2.29171 0
M  V30 2642 H 244.893 3.96156 -1.51118 0
M  V30 2643 C 243.352 3.36568 -0.149616 0
M  V30 2644 O 243.882 3.93885 0.788509 0
M  V30 2645 N 242.088 2.90539 -0.0593484 0
M  V30 2646 H 241.635 2.4408 -0.823575 0
M  V30 2647 H 241.593 3.04108 0.797853 0
M  V30 2648 N 245.365 1.30045 0.890287 0
M  V30 2649 C 246.613 1.18327 1.63839 0
M  V30 2650 C 246.934 -0.263455 1.93212 0
M  V30 2651 O 246.204 -1.17856 1.56482 0
M  V30 2652 H 244.784 0.434933 0.607324 0
M  V30 2653 H 247.446 1.631 1.06698 0
M  V30 2654 H 246.542 1.74024 2.59079 0
M  V30 2655 N 246.843 -1.10192 1.12674 0
M  V30 2656 C 248.259 -1.34235 0.863317 0
M  V30 2657 C 248.459 -1.95062 -0.505277 0
M  V30 2658 O 247.515 -2.19192 -1.25345 0
M  V30 2659 C 248.828 -2.2616 1.98172 0
M  V30 2660 C 250.376 -2.3969 2.0129 0
M  V30 2661 C 250.851 -3.34946 3.1237 0
M  V30 2662 N 252.342 -3.42515 3.11829 0
M  V30 2663 C 253.077 -4.16199 3.94419 0
M  V30 2664 N 252.573 -4.92747 4.87004 0
M  V30 2665 N 254.366 -4.11843 3.82547 0
M  V30 2666 H 246.517 -0.690798 2.00853 0
M  V30 2667 H 248.78 -0.366774 0.874174 0
M  V30 2668 H 248.486 -1.8868 2.96804 0
M  V30 2669 H 248.36 -3.26488 1.88906 0
M  V30 2670 H 250.747 -2.76438 1.03276 0
M  V30 2671 H 250.828 -1.39169 2.14629 0
M  V30 2672 H 250.472 -2.98923 4.10619 0
M  V30 2673 H 250.402 -4.35353 2.96269 0
M  V30 2674 H 252.893 -2.87926 2.44759 0
M  V30 2675 H 253.206 -5.46376 5.46528 0
M  V30 2676 H 251.551 -4.91862 4.91016 0
M  V30 2677 H 254.742 -3.51136 3.0955 0
M  V30 2678 H 254.915 -4.69007 4.47142 0
M  V30 2679 N 248.321 -0.919034 -1.28029 0
M  V30 2680 C 249.268 -0.410005 -2.27129 0
M  V30 2681 C 250.238 0.518405 -1.57803 0
M  V30 2682 O 251.423 0.439451 -1.8567 0
M  V30 2683 C 248.563 0.339054 -3.4343 0
M  V30 2684 C 247.676 -0.622468 -4.27492 0
M  V30 2685 C 246.811 0.145567 -5.31001 0
M  V30 2686 C 245.85 -0.809226 -6.06727 0
M  V30 2687 N 244.987 -0.0743728 -7.02061 0
M  V30 2688 H 249.827 -1.26011 -2.70047 0
M  V30 2689 H 247.364 -0.632663 -1.328 0
M  V30 2690 H 249.322 0.789586 -4.0966 0
M  V30 2691 H 247.952 1.15346 -3.01488 0
M  V30 2692 H 247.004 -1.19153 -3.61257 0
M  V30 2693 H 248.316 -1.35252 -4.80113 0
M  V30 2694 H 247.47 0.656417 -6.03139 0
M  V30 2695 H 246.209 0.908643 -4.79161 0
M  V30 2696 H 245.214 -1.3314 -5.33436 0
M  V30 2697 H 246.439 -1.57194 -6.60656 0
M  V30 2698 H 244.385 0.670616 -6.52563 0
M  V30 2699 H 244.302 -0.744157 -7.52329 0
M  V30 2700 H 245.57 0.416109 -7.78389 0
M  V30 2701 N 249.799 1.42003 -0.683588 0
M  V30 2702 C 251.048 2.00638 -0.206681 0
M  V30 2703 C 251.361 1.5472 1.19671 0
M  V30 2704 O 252.567 2.05833 1.77045 0
M  V30 2705 C 251.023 3.58487 -0.318632 0
M  V30 2706 C 250.631 4.1339 -1.72663 0
M  V30 2707 C 252.375 4.24384 0.0991141 0
M  V30 2708 C 250.282 5.63633 -1.79087 0
M  V30 2709 H 249.212 0.750408 -0.0735107 0
M  V30 2710 H 251.863 1.62624 -0.850048 0
M  V30 2711 H 250.245 3.94047 0.392781 0
M  V30 2712 H 251.419 3.89273 -2.46583 0
M  V30 2713 H 249.734 3.59976 -2.09299 0
M  V30 2714 H 252.331 5.34652 0.0713833 0
M  V30 2715 H 252.674 4.00505 1.13586 0
M  V30 2716 H 253.207 3.93816 -0.561599 0
M  V30 2717 H 249.946 5.92323 -2.80774 0
M  V30 2718 H 249.466 5.89714 -1.09535 0
M  V30 2719 H 251.145 6.28201 -1.5483 0
M  V30 2720 N 251.277 0.427512 1.51691 0
M  V30 2721 C 252.693 0.0792977 1.59403 0
M  V30 2722 C 252.893 -1.41035 1.43914 0
M  V30 2723 O 251.949 -2.17922 1.27539 0
M  V30 2724 C 253.262 0.590636 2.94842 0
M  V30 2725 C 254.81 0.550215 3.08126 0
M  V30 2726 C 255.285 1.03836 4.46074 0
M  V30 2727 N 256.776 0.995943 4.52366 0
M  V30 2728 C 257.511 1.34463 5.57411 0
M  V30 2729 N 257.007 1.76569 6.69922 0
M  V30 2730 N 258.8 1.26343 5.47717 0
M  V30 2731 H 250.951 1.39687 1.60004 0
M  V30 2732 H 253.214 0.575003 0.753708 0
M  V30 2733 H 252.92 1.63251 3.11516 0
M  V30 2734 H 252.794 0.0102061 3.77199 0
M  V30 2735 H 255.181 -0.482654 2.91126 0
M  V30 2736 H 255.262 1.16693 2.27632 0
M  V30 2737 H 254.906 2.06965 4.63819 0
M  V30 2738 H 254.836 0.398286 5.25092 0
M  V30 2739 H 257.327 0.68661 3.7161 0
M  V30 2740 H 257.64 2.01438 7.46085 0
M  V30 2741 H 255.985 1.80488 6.71155 0
M  V30 2742 H 259.176 0.933209 4.58703 0
M  V30 2743 H 259.349 1.53846 6.29472 0
M  V30 2744 N 252.755 -1.56801 0.158532 0
M  V30 2745 C 253.685 -2.20347 -0.772609 0
M  V30 2746 C 254.666 -1.15518 -1.24859 0
M  V30 2747 O 255.851 -1.43902 -1.30406 0
M  V30 2748 C 252.981 -2.83417 -2.00729 0
M  V30 2749 C 251.935 -3.94174 -1.66765 0
M  V30 2750 C 251.261 -4.44233 -2.97592 0
M  V30 2751 C 252.561 -5.14392 -0.905447 0
M  V30 2752 H 254.255 -2.98413 -0.242959 0
M  V30 2753 H 251.801 -1.43537 -0.115419 0
M  V30 2754 H 253.754 -3.26543 -2.6636 0
M  V30 2755 H 252.478 -2.02701 -2.56086 0
M  V30 2756 H 251.137 -3.51684 -1.03508 0
M  V30 2757 H 250.785 -3.60325 -3.50963 0
M  V30 2758 H 250.485 -5.18945 -2.75626 0
M  V30 2759 H 252.009 -4.90037 -3.64274 0
M  V30 2760 H 253.423 -5.5429 -1.46408 0
M  V30 2761 H 251.82 -5.9494 -0.7853 0
M  V30 2762 H 252.89 -4.84795 0.100668 0
M  V30 2763 N 254.233 0.115231 -1.57178 0
M  V30 2764 C 255.479 0.82357 -1.85325 0
M  V30 2765 C 255.812 1.79349 -0.744814 0
M  V30 2766 O 255.087 1.92899 0.249024 0
M  V30 2767 C 255.37 1.57014 -3.24066 0
M  V30 2768 C 255.223 0.619565 -4.45513 0
M  V30 2769 C 256.542 2.52545 -3.60429 0
M  V30 2770 H 253.661 0.297948 -0.674089 0
M  V30 2771 H 256.303 0.0877138 -1.89797 0
M  V30 2772 H 254.453 2.19742 -3.20383 0
M  V30 2773 H 256.125 0.000837639 -4.613 0
M  V30 2774 H 254.368 -0.0686174 -4.33746 0
M  V30 2775 H 255.039 1.17866 -5.3927 0
M  V30 2776 H 257.515 1.9992 -3.64926 0
M  V30 2777 H 256.391 3.01811 -4.58477 0
M  V30 2778 H 256.652 3.35383 -2.88047 0
M  V30 2779 N 255.711 1.52812 0.385517 0
M  V30 2780 C 256.621 1.80766 1.49535 0
M  V30 2781 C 257.637 0.694651 1.59532 0
M  V30 2782 O 258.813 0.982611 1.75803 0
M  V30 2783 C 255.878 1.97381 2.85029 0
M  V30 2784 C 254.939 3.21295 2.84724 0
M  V30 2785 C 254.172 3.37108 4.13756 0
M  V30 2786 O 254.395 2.5765 5.08893 0
M  V30 2787 O 253.329 4.30378 4.20783 0
M  V30 2788 H 257.155 2.75015 1.28842 0
M  V30 2789 H 254.74 1.37946 0.573697 0
M  V30 2790 H 256.622 2.09996 3.65349 0
M  V30 2791 H 255.297 1.06322 3.05741 0
M  V30 2792 H 254.204 3.1412 2.03174 0
M  V30 2793 H 255.537 4.12212 2.68965 0
M  V30 2794 N 257.189 -0.644168 1.43834 0
M  V30 2795 C 258.466 -1.40188 1.36406 0
M  V30 2796 C 258.846 -2.11094 0.0163124 0
M  V30 2797 O 258.194 -2.05426 -1.00062 0
M  V30 2798 C 258.404 -2.3791 2.55343 0
M  V30 2799 C 259.752 -3.01637 2.98832 0
M  V30 2800 O 260.776 -2.48237 2.55455 0
M  V30 2801 O 259.635 -3.98477 3.74003 0
M  V30 2802 H 256.729 -0.626773 0.539523 0
M  V30 2803 H 259.275 -0.670317 1.559 0
M  V30 2804 H 258.047 -1.84525 3.4506 0
M  V30 2805 H 257.67 -3.18503 2.37995 0
M  V30 2806 N 258.668 -1.30515 -0.883378 0
M  V30 2807 C 259.615 -1.17032 -1.98927 0
M  V30 2808 C 260.585 -0.0594241 -1.65994 0
M  V30 2809 O 261.77 -0.229895 -1.8941 0
M  V30 2810 C 258.91 -0.869777 -3.33959 0
M  V30 2811 C 258.023 -2.06271 -3.79574 0
M  V30 2812 C 257.158 -1.70011 -5.03259 0
M  V30 2813 C 256.197 -2.8579 -5.41286 0
M  V30 2814 N 255.334 -2.49816 -6.56153 0
M  V30 2815 H 260.174 -2.1164 -2.09792 0
M  V30 2816 H 257.711 -1.05296 -1.02719 0
M  V30 2817 H 259.669 -0.676138 -4.11685 0
M  V30 2818 H 258.299 0.0394332 -3.22776 0
M  V30 2819 H 257.351 -2.36755 -2.97744 0
M  V30 2820 H 258.663 -2.92971 -4.03694 0
M  V30 2821 H 257.817 -1.47032 -5.88614 0
M  V30 2822 H 256.556 -0.804829 -4.81013 0
M  V30 2823 H 255.561 -3.09434 -4.54456 0
M  V30 2824 H 256.786 -3.76008 -5.65504 0
M  V30 2825 H 254.732 -1.62795 -6.35479 0
M  V30 2826 H 254.649 -3.30048 -6.8015 0
M  V30 2827 H 255.917 -2.30197 -7.44735 0
M  V30 2828 N 260.146 1.09593 -1.13257 0
M  V30 2829 C 261.557 1.63229 -0.906274 0
M  V30 2830 C 261.908 1.8811 0.557578 0
M  V30 2831 O 261.033 1.62953 1.42391 0
M  V30 2832 C 261.628 2.96535 -1.63867 0
M  V30 2833 C 260.187 3.47003 -1.45828 0
M  V30 2834 C 259.334 2.2145 -1.66898 0
M  V30 2835 H 262.285 0.92978 -1.28611 0
M  V30 2836 H 262.306 3.64411 -1.09476 0
M  V30 2837 H 261.818 2.78394 -2.70404 0
M  V30 2838 H 259.919 3.70272 -0.415848 0
M  V30 2839 H 260.032 4.24551 -2.2202 0
M  V30 2840 H 258.396 2.30022 -1.09371 0
M  V30 2841 H 259.179 2.0583 -2.74752 0
M  V30 2842 N 261.624 0.925811 1.2754 0
M  V30 2843 C 262.872 0.564138 1.94067 0
M  V30 2844 C 263.193 -0.897188 1.73134 0
M  V30 2845 O 262.463 -1.63573 1.07799 0
M  V30 2846 H 261.043 0.205645 0.718136 0
M  V30 2847 H 263.705 1.1778 1.55287 0
M  V30 2848 H 262.801 0.76881 3.02483 0
M  V30 2849 N 263.102 -1.41638 0.69111 0
M  V30 2850 C 264.327 -2.06148 0.227583 0
M  V30 2851 C 264.752 -1.51652 -1.11281 0
M  V30 2852 O 264.11 -0.64164 -1.69566 0
M  V30 2853 C 264.158 -3.60095 0.190858 0
M  V30 2854 O 263.262 -4.03845 -0.835664 0
M  V30 2855 H 262.603 -0.654434 0.112306 0
M  V30 2856 H 265.133 -1.81484 0.944714 0
M  V30 2857 H 265.143 -4.07995 0.020207 0
M  V30 2858 H 263.818 -3.99129 1.16915 0
M  V30 2859 H 262.395 -3.67458 -0.63473 0
M  V30 2860 N 264.58 -0.43555 -1.51462 0
M  V30 2861 C 265.996 -0.0877501 -1.59359 0
M  V30 2862 C 266.196 1.4027 -1.4466 0
M  V30 2863 O 265.252 2.17243 -1.28693 0
M  V30 2864 C 266.565 -0.606264 -2.94525 0
M  V30 2865 C 268.113 -0.566548 -3.0783 0
M  V30 2866 C 268.588 -1.06201 -4.45517 0
M  V30 2867 N 270.079 -1.01992 -4.51832 0
M  V30 2868 C 270.814 -1.37417 -5.5669 0
M  V30 2869 N 270.31 -1.80119 -6.68976 0
M  V30 2870 N 272.103 -1.29245 -5.47039 0
M  V30 2871 H 264.254 -1.40533 -1.59261 0
M  V30 2872 H 266.517 -0.578992 -0.750648 0
M  V30 2873 H 266.223 -1.64901 -3.10645 0
M  V30 2874 H 266.097 -0.0302097 -3.77188 0
M  V30 2875 H 268.484 0.467208 -2.91378 0
M  V30 2876 H 268.565 -1.17898 -2.2701 0
M  V30 2877 H 268.209 -2.09422 -4.62715 0
M  V30 2878 H 268.139 -0.426127 -5.24873 0
M  V30 2879 H 270.63 -0.706308 -3.71241 0
M  V30 2880 H 270.943 -2.05392 -7.45006 0
M  V30 2881 H 269.288 -1.84044 -6.70189 0
M  V30 2882 H 272.479 -0.957522 -4.58202 0
M  V30 2883 H 272.652 -1.57182 -6.28648 0
M  V30 2884 N 266.058 1.56714 -0.166846 0
M  V30 2885 C 267.474 1.58473 0.189372 0
M  V30 2886 C 267.674 1.18201 1.63189 0
M  V30 2887 O 266.73 0.891528 2.36237 0
M  V30 2888 C 268.043 3.00573 -0.0873872 0
M  V30 2889 C 269.591 3.1299 -0.0252443 0
M  V30 2890 C 270.066 4.57174 -0.274934 0
M  V30 2891 N 271.557 4.62665 -0.222553 0
M  V30 2892 C 272.292 5.72072 -0.389985 0
M  V30 2893 N 271.788 6.90054 -0.616229 0
M  V30 2894 N 273.581 5.61153 -0.326202 0
M  V30 2895 H 265.732 1.8118 -1.10849 0
M  V30 2896 H 267.995 0.839525 -0.440342 0
M  V30 2897 H 267.701 3.34497 -1.0865 0
M  V30 2898 H 267.575 3.72019 0.623037 0
M  V30 2899 H 269.962 2.78895 0.96444 0
M  V30 2900 H 270.043 2.43989 -0.768309 0
M  V30 2901 H 269.687 4.91976 -1.26181 0
M  V30 2902 H 269.617 5.24328 0.48869 0
M  V30 2903 H 272.108 3.77863 -0.0531512 0
M  V30 2904 H 272.421 7.69311 -0.733559 0
M  V30 2905 H 270.766 6.91927 -0.652791 0
M  V30 2906 H 273.957 4.67859 -0.150072 0
M  V30 2907 H 274.13 6.46364 -0.460116 0
M  V30 2908 N 267.536 -0.106894 1.57237 0
M  V30 2909 C 268.952 -0.46078 1.52804 0
M  V30 2910 C 269.152 -1.81184 0.881746 0
M  V30 2911 O 268.208 -2.48102 0.469224 0
M  V30 2912 C 269.521 -0.434127 2.9755 0
M  V30 2913 C 271.069 -0.516821 3.08704 0
M  V30 2914 C 271.544 -0.520436 4.55033 0
M  V30 2915 N 273.035 -0.58153 4.59535 0
M  V30 2916 C 273.77 -0.605973 5.70189 0
M  V30 2917 N 273.266 -0.587331 6.90306 0
M  V30 2918 N 275.059 -0.649895 5.5833 0
M  V30 2919 H 267.21 0.778203 1.9763 0
M  V30 2920 H 269.473 0.288403 0.903066 0
M  V30 2921 H 269.179 0.491197 3.48253 0
M  V30 2922 H 269.053 -1.25748 3.55622 0
M  V30 2923 H 271.44 -1.43256 2.57995 0
M  V30 2924 H 271.521 0.334449 2.53604 0
M  V30 2925 H 271.165 0.391313 5.0639 0
M  V30 2926 H 271.095 -1.38876 5.07958 0
M  V30 2927 H 273.586 -0.60161 3.73081 0
M  V30 2928 H 273.899 -0.60894 7.70397 0
M  V30 2929 H 272.244 -0.554564 6.92784 0
M  V30 2930 H 275.435 -0.661907 4.63397 0
M  V30 2931 H 275.608 -0.665476 6.44574 0
M  V30 2932 N 269.014 -1.53014 -0.377408 0
M  V30 2933 C 270.43 -1.42523 -0.718281 0
M  V30 2934 C 270.63 -0.55487 -1.9371 0
M  V30 2935 O 269.686 -0.0327593 -2.52479 0
M  V30 2936 C 270.999 -2.85546 -0.942539 0
M  V30 2937 C 272.547 -2.95101 -1.04329 0
M  V30 2938 C 273.022 -4.3916 -1.3001 0
M  V30 2939 N 274.513 -4.42536 -1.36806 0
M  V30 2940 C 275.248 -5.51097 -1.58364 0
M  V30 2941 N 274.744 -6.69724 -1.77317 0
M  V30 2942 N 276.537 -5.38657 -1.60638 0
M  V30 2943 H 268.688 -2.08116 0.424426 0
M  V30 2944 H 270.951 -0.939352 0.127759 0
M  V30 2945 H 270.657 -3.51499 -0.118929 0
M  V30 2946 H 270.531 -3.28493 -1.85397 0
M  V30 2947 H 272.918 -2.29309 -1.85745 0
M  V30 2948 H 272.999 -2.55566 -0.109505 0
M  V30 2949 H 272.643 -5.05521 -0.490991 0
M  V30 2950 H 272.573 -4.76258 -2.24691 0
M  V30 2951 H 275.064 -3.57039 -1.23821 0
M  V30 2952 H 275.377 -7.48233 -1.93306 0
M  V30 2953 H 273.722 -6.72732 -1.74518 0
M  V30 2954 H 276.913 -4.44948 -1.45391 0
M  V30 2955 H 277.086 -6.2333 -1.77098 0
M  V30 2956 N 270.492 0.636531 -1.44174 0
M  V30 2957 C 271.717 1.42847 -1.50364 0
M  V30 2958 C 272.142 1.87665 -0.127867 0
M  V30 2959 O 271.5 1.58408 0.88185 0
M  V30 2960 C 271.548 2.62854 -2.4686 0
M  V30 2961 O 270.652 3.62501 -1.9664 0
M  V30 2962 H 269.993 0.427642 -0.507955 0
M  V30 2963 H 272.523 0.777422 -1.89255 0
M  V30 2964 H 272.533 3.10465 -2.64718 0
M  V30 2965 H 271.208 2.29578 -3.46795 0
M  V30 2966 H 269.785 3.21735 -1.88523 0
M  V30 2967 N 271.97 1.30982 0.876444 0
M  V30 2968 C 273.2 1.23063 1.65949 0
M  V30 2969 C 273.608 -0.207537 1.88058 0
M  V30 2970 O 272.951 -1.14781 1.43426 0
M  V30 2971 C 273.013 1.89768 3.05333 0
M  V30 2972 C 272.677 3.39106 3.0636 0
M  V30 2973 C 273.674 4.3496 2.84791 0
M  V30 2974 C 271.359 3.80693 3.27686 0
M  V30 2975 C 273.353 5.70375 2.84519 0
M  V30 2976 C 271.04 5.16223 3.27043 0
M  V30 2977 C 272.038 6.10875 3.05485 0
M  V30 2978 O 271.726 7.43928 3.04674 0
M  V30 2979 H 271.458 0.426685 0.524324 0
M  V30 2980 H 274.012 1.7329 1.10271 0
M  V30 2981 H 272.242 1.34082 3.6271 0
M  V30 2982 H 273.931 1.75853 3.65829 0
M  V30 2983 H 274.697 4.0416 2.68103 0
M  V30 2984 H 270.576 3.07457 3.43499 0
M  V30 2985 H 274.12 6.44228 2.67611 0
M  V30 2986 H 270.017 5.4666 3.43269 0
M  V30 2987 H 270.785 7.53022 3.2078 0
M  V30 2988 N 273.449 -1.08991 1.13837 0
M  V30 2989 C 274.674 -1.85551 0.926585 0
M  V30 2990 C 275.099 -1.80782 -0.519566 0
M  V30 2991 O 274.457 -1.18855 -1.36906 0
M  V30 2992 C 274.505 -3.31266 1.42462 0
M  V30 2993 O 273.609 -4.07822 0.612789 0
M  V30 2994 H 272.95 -0.575192 0.331738 0
M  V30 2995 H 275.48 -1.37604 1.51414 0
M  V30 2996 H 275.49 -3.82112 1.43019 0
M  V30 2997 H 274.165 -3.34052 2.47754 0
M  V30 2998 H 272.742 -3.66731 0.675463 0
M  V30 2999 N 274.927 -0.932562 -1.27047 0
M  V30 3000 C 276.343 -0.633544 -1.46487 0
M  V30 3001 C 276.543 0.815746 -1.84249 0
M  V30 3002 O 275.599 1.59319 -1.95892 0
M  V30 3003 C 276.912 -1.58758 -2.55375 0
M  V30 3004 C 278.46 -1.59634 -2.69232 0
M  V30 3005 C 278.935 -2.53747 -3.81283 0
M  V30 3006 N 280.426 -2.51982 -3.88664 0
M  V30 3007 C 281.161 -3.21491 -4.74796 0
M  V30 3008 N 280.657 -4.00395 -5.65381 0
M  V30 3009 N 282.45 -3.10485 -4.68568 0
M  V30 3010 H 274.601 -1.86946 -1.00821 0
M  V30 3011 H 276.864 -0.802897 -0.504044 0
M  V30 3012 H 276.57 -2.62172 -2.34432 0
M  V30 3013 H 276.444 -1.33301 -3.52861 0
M  V30 3014 H 278.831 -0.569488 -2.89553 0
M  V30 3015 H 278.912 -1.89142 -1.72218 0
M  V30 3016 H 278.556 -3.56545 -3.61715 0
M  V30 3017 H 278.486 -2.21532 -4.77735 0
M  V30 3018 H 280.977 -1.94681 -3.23895 0
M  V30 3019 H 281.29 -4.50406 -6.27976 0
M  V30 3020 H 279.635 -4.04498 -5.65161 0
M  V30 3021 H 282.826 -2.48331 -3.96799 0
M  V30 3022 H 282.999 -3.64925 -5.35475 0
M  V30 3023 N 276.405 1.4127 -0.698611 0
M  V30 3024 C 277.63 2.06024 -0.238512 0
M  V30 3025 C 278.055 1.5224 1.10475 0
M  V30 3026 O 277.413 0.650623 1.69223 0
M  V30 3027 C 277.461 3.59988 -0.209952 0
M  V30 3028 O 276.565 4.04282 0.814235 0
M  V30 3029 H 275.906 0.653829 -0.115775 0
M  V30 3030 H 278.436 1.8098 -0.954326 0
M  V30 3031 H 278.446 4.07979 -0.0418436 0
M  V30 3032 H 277.121 3.98503 -1.1903 0
M  V30 3033 H 275.698 3.6779 0.615234 0
M  V30 3034 N 277.883 0.443576 1.51229 0
M  V30 3035 C 279.299 0.0962001 1.5931 0
M  V30 3036 C 279.499 -1.39501 1.45402 0
M  V30 3037 O 278.555 -2.16557 1.29843 0
M  V30 3038 C 279.868 0.621875 2.94199 0
M  V30 3039 C 281.416 0.582865 3.07525 0
M  V30 3040 C 281.891 1.08562 4.44948 0
M  V30 3041 N 283.382 1.04387 4.51284 0
M  V30 3042 C 284.117 1.40368 5.55954 0
M  V30 3043 N 283.613 1.83664 6.68011 0
M  V30 3044 N 285.406 1.32145 5.46346 0
M  V30 3045 H 277.557 1.41376 1.58514 0
M  V30 3046 H 279.82 0.582965 0.747567 0
M  V30 3047 H 279.526 1.66546 3.09767 0
M  V30 3048 H 279.4 0.0502125 3.77167 0
M  V30 3049 H 281.787 -0.451749 2.91622 0
M  V30 3050 H 281.868 1.191 2.26382 0
M  V30 3051 H 281.512 2.11873 4.61598 0
M  V30 3052 H 281.442 0.453956 5.2464 0
M  V30 3053 H 283.933 0.725986 3.70861 0
M  V30 3054 H 284.246 2.0934 7.43906 0
M  V30 3055 H 282.591 1.87596 6.69203 0
M  V30 3056 H 285.782 0.981808 4.57688 0
M  V30 3057 H 285.955 1.60514 6.27805 0
M  V30 3058 N 279.361 -1.56624 0.175154 0
M  V30 3059 C 280.586 -2.01813 -0.478137 0
M  V30 3060 C 281.011 -1.05457 -1.55757 0
M  V30 3061 O 280.369 -0.0347439 -1.81267 0
M  V30 3062 C 280.417 -3.45581 -1.02987 0
M  V30 3063 O 279.521 -3.52305 -2.14371 0
M  V30 3064 H 278.862 -0.65413 -0.114059 0
M  V30 3065 H 281.392 -2.02673 0.280173 0
M  V30 3066 H 281.402 -3.84965 -1.35151 0
M  V30 3067 H 280.077 -4.1521 -0.239556 0
M  V30 3068 H 278.654 -3.24783 -1.83222 0
M  V30 3069 N 280.839 0.0985539 -1.57292 0
M  V30 3070 C 281.789 1.1261 -1.9825 0
M  V30 3071 C 282.773 1.35961 -0.860426 0
M  V30 3072 O 283.965 1.36711 -1.12424 0
M  V30 3073 C 281.094 2.44727 -2.40757 0
M  V30 3074 C 280.18 2.24764 -3.59642 0
M  V30 3075 N 280.571 1.74661 -4.74687 0
M  V30 3076 C 278.869 2.55344 -3.65672 0
M  V30 3077 C 279.57 1.68887 -5.56644 0
M  V30 3078 N 278.546 2.13976 -4.99715 0
M  V30 3079 H 282.348 0.731604 -2.84648 0
M  V30 3080 H 279.862 0.306029 -1.59491 0
M  V30 3081 H 281.859 3.19072 -2.68326 0
M  V30 3082 H 280.519 2.84917 -1.55733 0
M  V30 3083 H 281.53 1.43908 -4.97505 0
M  V30 3084 H 278.207 2.99081 -2.91302 0
M  V30 3085 H 279.597 1.3123 -6.5896 0
M  V30 3086 N 282.317 1.53212 0.369288 0
M  V30 3087 C 283.542 1.73423 1.1375 0
M  V30 3088 C 283.967 0.460404 1.82378 0
M  V30 3089 O 283.325 -0.585298 1.71592 0
M  V30 3090 C 283.373 2.89769 2.1463 0
M  V30 3091 O 282.477 2.58119 3.21634 0
M  V30 3092 H 281.818 0.576061 0.330227 0
M  V30 3093 H 284.348 2.00083 0.427547 0
M  V30 3094 H 284.358 3.15829 2.58294 0
M  V30 3095 H 283.033 3.8217 1.64071 0
M  V30 3096 H 281.61 2.42864 2.82969 0
M  V30 3097 N 283.795 -0.628877 1.44509 0
M  V30 3098 C 285.211 -0.947305 1.28446 0
M  V30 3099 C 285.411 -2.00275 0.221872 0
M  V30 3100 O 284.467 -2.49447 -0.391471 0
M  V30 3101 C 285.78 -1.40843 2.65676 0
M  V30 3102 C 287.328 -1.52379 2.73404 0
M  V30 3103 C 287.803 -2.01875 4.11109 0
M  V30 3104 N 289.294 -2.09142 4.13296 0
M  V30 3105 C 290.029 -2.48615 5.16699 0
M  V30 3106 N 289.525 -2.87209 6.30462 0
M  V30 3107 N 291.318 -2.48768 5.04054 0
M  V30 3108 H 283.469 0.0690977 2.12288 0
M  V30 3109 H 285.732 -0.0317164 0.947469 0
M  V30 3110 H 285.438 -0.707206 3.44516 0
M  V30 3111 H 285.312 -2.37902 2.92716 0
M  V30 3112 H 287.699 -2.21598 1.9488 0
M  V30 3113 H 287.78 -0.536898 2.50102 0
M  V30 3114 H 287.424 -1.3325 4.90109 0
M  V30 3115 H 287.354 -3.0144 4.31789 0
M  V30 3116 H 289.845 -1.81991 3.31191 0
M  V30 3117 H 290.158 -3.16149 7.05174 0
M  V30 3118 H 288.503 -2.84955 6.33897 0
M  V30 3119 H 291.694 -2.18009 4.14234 0
M  V30 3120 H 291.867 -2.79207 5.84763 0
M  V30 3121 N 285.273 -1.31445 -0.869486 0
M  V30 3122 C 286.498 -1.24256 -1.66058 0
M  V30 3123 C 286.923 0.188928 -1.87149 0
M  V30 3124 O 286.281 1.13522 -1.4136 0
M  V30 3125 C 286.329 -1.9924 -3.00559 0
M  V30 3126 O 285.433 -1.33007 -3.90362 0
M  V30 3127 H 284.774 -0.428973 -0.506831 0
M  V30 3128 H 287.304 -1.73521 -1.08404 0
M  V30 3129 H 287.314 -2.08854 -3.50491 0
M  V30 3130 H 285.989 -3.03342 -2.84528 0
M  V30 3131 H 284.566 -1.31848 -3.48813 0
M  V30 3132 N 286.751 1.08385 -1.14413 0
M  V30 3133 C 288.167 1.32844 -0.884563 0
M  V30 3134 C 288.367 1.95841 0.474181 0
M  V30 3135 O 287.423 2.21158 1.21842 0
M  V30 3136 C 288.736 2.22978 -2.01745 0
M  V30 3137 C 290.284 2.36458 -2.05077 0
M  V30 3138 C 290.759 3.29934 -3.1766 0
M  V30 3139 N 292.25 3.37511 -3.17239 0
M  V30 3140 C 292.985 4.09871 -4.0099 0
M  V30 3141 N 292.481 4.84936 -4.94781 0
M  V30 3142 N 294.274 4.05704 -3.89051 0
M  V30 3143 H 286.425 0.658756 -2.01926 0
M  V30 3144 H 288.688 0.352821 -0.879899 0
M  V30 3145 H 288.394 1.83934 -2.99769 0
M  V30 3146 H 288.268 3.23441 -1.94077 0
M  V30 3147 H 290.655 2.7476 -1.0766 0
M  V30 3148 H 290.736 1.35736 -2.16816 0
M  V30 3149 H 290.38 2.92352 -4.15322 0
M  V30 3150 H 290.31 4.30584 -3.03158 0
M  V30 3151 H 292.801 2.83996 -2.49308 0
M  V30 3152 H 293.114 5.37612 -5.55151 0
M  V30 3153 H 291.459 4.83988 -4.98779 0
M  V30 3154 H 294.65 3.46167 -3.15097 0
M  V30 3155 H 294.823 4.61834 -4.54547 0
M  V30 3156 N 288.23 0.939286 1.26551 0
M  V30 3157 C 289.455 0.602008 1.98471 0
M  V30 3158 C 289.88 -0.815624 1.69497 0
M  V30 3159 O 289.238 -1.54912 0.941905 0
M  V30 3160 C 289.286 0.848407 3.50477 0
M  V30 3161 O 288.39 -0.0804009 4.12322 0
M  V30 3162 H 287.731 0.23049 0.622712 0
M  V30 3163 H 290.261 1.2617 1.61066 0
M  V30 3164 H 290.271 0.768553 4.00696 0
M  V30 3165 H 288.946 1.88171 3.70897 0
M  V30 3166 H 287.523 0.0503508 3.72866 0
M  V30 3167 N 289.708 -1.40897 0.706093 0
M  V30 3168 C 291.124 -1.55042 0.37869 0
M  V30 3169 C 291.324 -1.67944 -1.11342 0
M  V30 3170 O 290.38 -1.66372 -1.89938 0
M  V30 3171 C 291.693 -2.78398 1.13643 0
M  V30 3172 C 293.241 -2.92206 1.12181 0
M  V30 3173 C 293.716 -4.18463 1.86152 0
M  V30 3174 N 295.207 -4.25443 1.83173 0
M  V30 3175 C 295.942 -5.2202 2.37239 0
M  V30 3176 N 295.438 -6.24563 2.99821 0
M  V30 3177 N 297.231 -5.14033 2.27435 0
M  V30 3178 H 289.382 -1.30769 1.67372 0
M  V30 3179 H 291.645 -0.631653 0.706907 0
M  V30 3180 H 291.351 -2.7511 2.19106 0
M  V30 3181 H 291.225 -3.70228 0.721853 0
M  V30 3182 H 293.612 -2.95004 0.0754171 0
M  V30 3183 H 293.693 -2.01521 1.57554 0
M  V30 3184 H 293.337 -4.16427 2.90776 0
M  V30 3185 H 293.267 -5.08141 1.38206 0
M  V30 3186 H 295.758 -3.51976 1.37556 0
M  V30 3187 H 296.071 -6.94665 3.38616 0
M  V30 3188 H 294.416 -6.25035 3.03902 0
M  V30 3189 H 297.607 -4.3285 1.78208 0
M  V30 3190 H 297.78 -5.89129 2.69873 0
M  V30 3191 N 291.186 -0.45159 -1.50991 0
M  V30 3192 C 292.411 0.110667 -2.07105 0
M  V30 3193 C 292.836 1.3446 -1.31538 0
M  V30 3194 O 292.194 1.77743 -0.357365 0
M  V30 3195 C 292.242 0.397238 -3.58405 0
M  V30 3196 O 291.346 1.48124 -3.84881 0
M  V30 3197 H 290.687 -0.00439271 -0.663985 0
M  V30 3198 H 293.217 -0.637026 -1.9443 0
M  V30 3199 H 293.227 0.64351 -4.02893 0
M  V30 3200 H 291.902 -0.504553 -4.12828 0
M  V30 3201 H 290.479 1.22381 -3.52246 0
M  V30 3202 N 292.664 1.56529 -0.183458 0
M  V30 3203 C 294.08 1.58664 0.172554 0
M  V30 3204 C 294.28 1.19925 1.61926 0
M  V30 3205 O 293.336 0.916534 2.35278 0
M  V30 3206 C 294.649 3.00463 -0.119262 0
M  V30 3207 C 296.197 3.12945 -0.0584396 0
M  V30 3208 C 296.672 4.56857 -0.323408 0
M  V30 3209 N 298.163 4.62403 -0.271612 0
M  V30 3210 C 298.898 5.71626 -0.450639 0
M  V30 3211 N 298.394 6.89362 -0.689384 0
M  V30 3212 N 300.187 5.60775 -0.385701 0
M  V30 3213 H 292.338 1.79994 -1.12765 0
M  V30 3214 H 294.601 0.834808 -0.449222 0
M  V30 3215 H 294.307 3.33326 -1.12192 0
M  V30 3216 H 294.181 3.72659 0.583544 0
M  V30 3217 H 296.568 2.79902 0.934805 0
M  V30 3218 H 296.649 2.4316 -0.794144 0
M  V30 3219 H 296.293 4.9061 -1.31392 0
M  V30 3220 H 296.223 5.24816 0.43305 0
M  V30 3221 H 298.714 3.77785 -0.0932256 0
M  V30 3222 H 299.027 7.68489 -0.815113 0
M  V30 3223 H 297.372 6.91196 -0.726142 0
M  V30 3224 H 300.563 4.67674 -0.199687 0
M  V30 3225 H 300.736 6.4584 -0.528646 0
M  V30 3226 N 294.142 -0.090211 1.57342 0
M  V30 3227 C 295.092 -1.11557 1.98844 0
M  V30 3228 C 296.076 -1.35503 0.867624 0
M  V30 3229 O 297.268 -1.36113 1.13148 0
M  V30 3230 C 294.397 -2.43446 2.42051 0
M  V30 3231 C 293.483 -2.22853 3.60828 0
M  V30 3232 N 293.874 -1.72141 4.75606 0
M  V30 3233 C 292.172 -2.53401 3.67021 0
M  V30 3234 C 292.873 -1.65932 5.57531 0
M  V30 3235 N 291.849 -2.11323 5.00843 0
M  V30 3236 H 295.651 -0.716499 2.85032 0
M  V30 3237 H 293.165 -0.297567 1.59651 0
M  V30 3238 H 295.162 -3.17644 2.70014 0
M  V30 3239 H 293.822 -2.84087 1.57241 0
M  V30 3240 H 294.833 -1.41268 4.98261 0
M  V30 3241 H 291.51 -2.97532 2.92884 0
M  V30 3242 H 292.9 -1.27733 6.59647 0
M  V30 3243 N 295.62 -1.53406 -0.361157 0
M  V30 3244 C 296.845 -1.74024 -1.12829 0
M  V30 3245 C 297.27 -0.470069 -1.82132 0
M  V30 3246 O 296.628 0.57619 -1.719 0
M  V30 3247 C 296.676 -2.90903 -2.13091 0
M  V30 3248 O 295.78 -2.59821 -3.20261 0
M  V30 3249 H 295.121 -0.577804 -0.327168 0
M  V30 3250 H 297.651 -2.00307 -0.41693 0
M  V30 3251 H 297.661 -3.17194 -2.56616 0
M  V30 3252 H 296.336 -3.83034 -1.62042 0
M  V30 3253 H 294.913 -2.44362 -2.81677 0
M  V30 3254 N 297.098 0.621204 -1.44841 0
M  V30 3255 C 298.514 0.94048 -1.28946 0
M  V30 3256 C 298.714 2.00154 -0.23249 0
M  V30 3257 O 297.77 2.49651 0.378237 0
M  V30 3258 C 299.083 1.39433 -2.66419 0
M  V30 3259 C 300.631 1.50927 -2.74208 0
M  V30 3260 C 301.106 1.99692 -4.12174 0
M  V30 3261 N 302.597 2.06947 -4.144 0
M  V30 3262 C 303.332 2.45871 -5.1801 0
M  V30 3263 N 302.828 2.83862 -6.31977 0
M  V30 3264 N 304.621 2.46092 -5.05366 0
M  V30 3265 H 296.772 -0.0803548 -2.12248 0
M  V30 3266 H 299.035 0.0266913 -0.947624 0
M  V30 3267 H 298.741 0.688925 -3.44887 0
M  V30 3268 H 298.615 2.36347 -2.93973 0
M  V30 3269 H 301.002 2.20561 -1.96053 0
M  V30 3270 H 301.083 0.523627 -2.50383 0
M  V30 3271 H 300.727 1.30649 -4.90809 0
M  V30 3272 H 300.657 2.99146 -4.33381 0
M  V30 3273 H 303.148 1.80232 -3.32152 0
M  V30 3274 H 303.461 3.12405 -7.0684 0
M  V30 3275 H 301.806 2.8159 -6.35399 0
M  V30 3276 H 304.997 2.1581 -4.15384 0
M  V30 3277 H 305.17 2.76102 -5.86235 0
M  V30 3278 N 298.576 1.31904 0.862503 0
M  V30 3279 C 299.523 1.20182 1.9704 0
M  V30 3280 C 300.493 0.0858247 1.65878 0
M  V30 3281 O 301.678 0.26 1.8902 0
M  V30 3282 C 298.818 0.922797 3.32533 0
M  V30 3283 C 297.931 2.12284 3.76244 0
M  V30 3284 C 297.066 1.77996 5.00491 0
M  V30 3285 C 296.105 2.94366 5.36671 0
M  V30 3286 N 295.242 2.60223 6.52095 0
M  V30 3287 H 300.082 2.14951 2.06398 0
M  V30 3288 H 297.619 1.06917 1.01031 0
M  V30 3289 H 299.577 0.741548 4.10557 0
M  V30 3290 H 298.207 0.0119227 3.22798 0
M  V30 3291 H 297.259 2.41461 2.9394 0
M  V30 3292 H 298.571 2.99357 3.98982 0
M  V30 3293 H 297.725 1.56377 5.862 0
M  V30 3294 H 296.464 0.881252 4.79672 0
M  V30 3295 H 295.469 3.16625 4.49476 0
M  V30 3296 H 296.694 3.84957 5.59451 0
M  V30 3297 H 294.64 1.72884 6.32809 0
M  V30 3298 H 294.557 3.40827 6.74814 0
M  V30 3299 H 295.825 2.42016 7.40978 0
M  V30 3300 N 300.054 -1.07777 1.14986 0
M  V30 3301 C 301.279 -1.84558 0.946213 0
M  V30 3302 C 301.704 -1.81323 -0.500362 0
M  V30 3303 O 301.062 -1.20301 -1.35637 0
M  V30 3304 C 301.11 -3.29736 1.45968 0
M  V30 3305 O 300.214 -4.07149 0.65601 0
M  V30 3306 H 299.555 -0.571641 0.33782 0
M  V30 3307 H 302.085 -1.35991 1.52865 0
M  V30 3308 H 302.095 -3.80574 1.47063 0
M  V30 3309 H 300.77 -3.31406 2.51283 0
M  V30 3310 H 299.347 -3.65994 0.714322 0
M  V30 3311 N 301.532 -0.945985 -1.26051 0
M  V30 3312 C 302.948 -0.649045 -1.45807 0
M  V30 3313 C 303.148 0.796158 -1.85104 0
M  V30 3314 O 302.204 1.57233 -1.97571 0
M  V30 3315 C 303.517 -1.61458 -2.53677 0
M  V30 3316 C 305.065 -1.62481 -2.67524 0
M  V30 3317 C 305.54 -2.57776 -3.7857 0
M  V30 3318 N 307.031 -2.5609 -3.85969 0
M  V30 3319 C 307.766 -3.26508 -4.7136 0
M  V30 3320 N 307.262 -4.0637 -5.61102 0
M  V30 3321 N 309.055 -3.15437 -4.65248 0
M  V30 3322 H 301.206 -1.88005 -0.988328 0
M  V30 3323 H 303.469 -0.808198 -0.4955 0
M  V30 3324 H 303.175 -2.64644 -2.31638 0
M  V30 3325 H 303.049 -1.37036 -3.51427 0
M  V30 3326 H 305.436 -0.600167 -2.88933 0
M  V30 3327 H 305.517 -1.90958 -1.70202 0
M  V30 3328 H 305.161 -3.60361 -3.57913 0
M  V30 3329 H 305.091 -2.26587 -4.75359 0
M  V30 3330 H 307.582 -1.98105 -3.21812 0
M  V30 3331 H 307.895 -4.57042 -6.23164 0
M  V30 3332 H 306.24 -4.10469 -5.60839 0
M  V30 3333 H 309.431 -2.52525 -3.94143 0
M  V30 3334 H 309.604 -3.70584 -5.31575 0
M  V30 3335 N 303.011 1.40521 -0.713556 0
M  V30 3336 C 304.236 2.05759 -0.26035 0
M  V30 3337 C 304.661 1.53403 1.08854 0
M  V30 3338 O 304.019 0.668535 1.68524 0
M  V30 3339 C 304.067 3.59745 -0.248122 0
M  V30 3340 O 303.171 4.05123 0.77131 0
M  V30 3341 H 302.512 0.652564 -0.122703 0
M  V30 3342 H 305.042 1.79958 -0.973467 0
M  V30 3343 H 305.052 4.07911 -0.0851129 0
M  V30 3344 H 303.727 3.97218 -1.2325 0
M  V30 3345 H 302.304 3.68422 0.57619 0
M  V30 3346 N 304.489 0.459591 1.5075 0
M  V30 3347 C 305.905 0.113092 1.59199 0
M  V30 3348 C 306.105 -1.37951 1.46874 0
M  V30 3349 O 305.161 -2.15168 1.32132 0
M  V30 3350 C 306.474 0.653043 2.93523 0
M  V30 3351 C 308.022 0.615449 3.0689 0
M  V30 3352 C 308.497 1.13275 4.43771 0
M  V30 3353 N 309.988 1.09167 4.50152 0
M  V30 3354 C 310.723 1.46256 5.54434 0
M  V30 3355 N 310.219 1.90739 6.66026 0
M  V30 3356 N 312.012 1.37932 5.44914 0
M  V30 3357 H 304.163 1.43049 1.57005 0
M  V30 3358 H 306.426 0.590861 0.741341 0
M  V30 3359 H 306.132 1.69822 3.07983 0
M  V30 3360 H 306.006 0.0902132 3.77092 0
M  V30 3361 H 308.393 -0.420793 2.92084 0
M  V30 3362 H 308.474 1.21495 2.25106 0
M  V30 3363 H 308.118 2.16757 4.59324 0
M  V30 3364 H 308.048 0.509576 5.24129 0
M  V30 3365 H 310.539 0.76528 3.7007 0
M  V30 3366 H 310.852 2.17218 7.41644 0
M  V30 3367 H 309.197 1.94683 6.67176 0
M  V30 3368 H 312.388 1.0303 4.56621 0
M  V30 3369 H 312.561 1.67164 6.26067 0
M  V30 3370 N 305.967 -1.56429 0.191757 0
M  V30 3371 C 307.192 -2.02309 -0.456706 0
M  V30 3372 C 307.617 -1.07103 -1.5463 0
M  V30 3373 O 306.975 -0.0539677 -1.8122 0
M  V30 3374 C 307.023 -3.46654 -0.993159 0
M  V30 3375 O 306.127 -3.54559 -2.10622 0
M  V30 3376 H 305.468 -0.655303 -0.107114 0
M  V30 3377 H 307.998 -2.02364 0.301653 0
M  V30 3378 H 308.008 -3.86377 -1.31061 0
M  V30 3379 H 306.683 -4.1544 -0.195504 0
M  V30 3380 H 305.26 -3.26708 -1.79767 0
M  V30 3381 N 307.445 0.0818655 -1.57387 0
M  V30 3382 C 308.693 0.781368 -1.86384 0
M  V30 3383 C 309.014 1.78618 -0.782342 0
M  V30 3384 O 308.284 1.94976 0.190061 0
M  V30 3385 H 306.864 0.291562 -0.687751 0
M  V30 3386 H 309.526 0.060348 -1.94807 0
M  V30 3387 H 308.622 1.3038 -2.83562 0
M  V30 3388 N 308.923 1.53595 0.353017 0
M  V30 3389 C 310.148 1.7462 1.11904 0
M  V30 3390 C 310.573 0.479721 1.8188 0
M  V30 3391 O 309.931 -0.567066 1.72204 0
M  V30 3392 C 309.979 2.92029 2.11545 0
M  V30 3393 O 309.083 2.61516 3.18878 0
M  V30 3394 H 308.424 0.579531 0.324099 0
M  V30 3395 H 310.954 2.00525 0.406301 0
M  V30 3396 H 310.964 3.18551 2.5493 0
M  V30 3397 H 309.639 3.83888 1.60008 0
M  V30 3398 H 308.216 2.45852 2.80377 0
M  V30 3399 N 310.401 -0.613514 1.45168 0
M  V30 3400 C 311.626 -1.40437 1.52618 0
M  V30 3401 C 312.051 -1.87438 0.157707 0
M  V30 3402 O 311.409 -1.59791 -0.856537 0
M  V30 3403 C 311.457 -2.58894 2.51011 0
M  V30 3404 O 310.561 -3.59326 2.02382 0
M  V30 3405 H 309.902 -0.419506 0.514695 0
M  V30 3406 H 312.432 -0.747215 1.90467 0
M  V30 3407 H 312.442 -3.06214 2.69624 0
M  V30 3408 H 311.117 -2.24032 3.50403 0
M  V30 3409 H 309.694 -3.18695 1.93618 0
M  V30 3410 N 311.879 -1.3236 -0.855495 0
M  V30 3411 C 312.826 -1.21225 -1.964 0
M  V30 3412 C 313.796 -0.0946204 -1.6583 0
M  V30 3413 O 314.981 -0.27002 -1.8888 0
M  V30 3414 C 312.121 -0.940419 -3.32039 0
M  V30 3415 C 311.234 -2.14276 -3.75113 0
M  V30 3416 C 310.369 -1.80648 -4.9954 0
M  V30 3417 C 309.408 -2.97208 -5.35102 0
M  V30 3418 N 308.545 -2.63678 -6.50706 0
M  V30 3419 H 313.385 -2.16042 -2.05255 0
M  V30 3420 H 310.922 -1.07451 -1.00463 0
M  V30 3421 H 312.88 -0.763311 -4.10158 0
M  V30 3422 H 311.51 -0.0290413 -3.22787 0
M  V30 3423 H 310.562 -2.43017 -2.92655 0
M  V30 3424 H 311.874 -3.01468 -3.97389 0
M  V30 3425 H 311.028 -1.59484 -5.85363 0
M  V30 3426 H 309.767 -0.906678 -4.79198 0
M  V30 3427 H 308.772 -3.19004 -4.47791 0
M  V30 3428 H 309.997 -3.87918 -5.57401 0
M  V30 3429 H 307.943 -1.76238 -6.31883 0
M  V30 3430 H 307.86 -3.444 -6.72997 0
M  V30 3431 H 309.128 -2.45942 -7.39684 0
M  V30 3432 N 313.357 1.07166 -1.15556 0
M  V30 3433 C 314.582 1.84053 -0.955988 0
M  V30 3434 C 315.007 1.81586 0.490739 0
M  V30 3435 O 314.365 1.21018 1.34997 0
M  V30 3436 C 314.413 3.28957 -1.47714 0
M  V30 3437 O 313.517 4.06795 -0.677593 0
M  V30 3438 H 312.858 0.569842 -0.340847 0
M  V30 3439 H 315.388 1.35178 -1.53584 0
M  V30 3440 H 315.398 3.79788 -1.4908 0
M  V30 3441 H 314.073 3.30068 -2.53037 0
M  V30 3442 H 312.65 3.6561 -0.733721 0
M  V30 3443 N 314.835 0.952656 1.25548 0
M  V30 3444 C 316.06 0.623025 1.97821 0
M  V30 3445 C 316.485 -0.7976 1.70352 0
M  V30 3446 O 315.843 -1.53905 0.958283 0
M  V30 3447 C 315.891 0.885532 3.49558 0
M  V30 3448 O 314.995 -0.0366641 4.12384 0
M  V30 3449 H 314.336 0.237082 0.620232 0
M  V30 3450 H 316.866 1.27871 1.59719 0
M  V30 3451 H 316.876 0.811009 3.99858 0
M  V30 3452 H 315.551 1.92094 3.6888 0
M  V30 3453 H 314.128 0.0898954 3.72792 0
M  V30 3454 N 316.313 -1.40141 0.720998 0
M  V30 3455 C 317.263 -2.27949 0.0482544 0
M  V30 3456 C 318.247 -1.43538 -0.727021 0
M  V30 3457 O 319.439 -1.6658 -0.598332 0
M  V30 3458 C 316.568 -3.32126 -0.868729 0
M  V30 3459 C 315.654 -4.24008 -0.0883515 0
M  V30 3460 N 316.045 -4.97154 0.931226 0
M  V30 3461 C 314.343 -4.4485 -0.320105 0
M  V30 3462 C 315.044 -5.64587 1.4006 0
M  V30 3463 N 314.02 -5.38787 0.721752 0
M  V30 3464 H 317.822 -2.81948 0.829609 0
M  V30 3465 H 315.336 -1.52656 0.554067 0
M  V30 3466 H 317.333 -3.93884 -1.36605 0
M  V30 3467 H 315.993 -2.79687 -1.6494 0
M  V30 3468 H 317.004 -5.01 1.31222 0
M  V30 3469 H 313.681 -4.03378 -1.07668 0
M  V30 3470 H 315.071 -6.33175 2.24808 0
M  V30 3471 N 317.792 -0.46758 -1.50504 0
M  V30 3472 C 319.017 0.0886943 -2.0721 0
M  V30 3473 C 319.442 1.33057 -1.32956 0
M  V30 3474 O 318.8 1.77354 -0.376197 0
M  V30 3475 C 318.848 0.359202 -3.58806 0
M  V30 3476 O 317.952 1.44034 -3.8643 0
M  V30 3477 H 317.293 -0.0114349 -0.663902 0
M  V30 3478 H 319.823 -0.657613 -1.93744 0
M  V30 3479 H 319.833 0.600742 -4.03553 0
M  V30 3480 H 318.508 -0.548311 -4.1227 0
M  V30 3481 H 317.085 1.18638 -3.53524 0
M  V30 3482 N 319.27 1.56325 -0.20005 0
M  V30 3483 C 320.217 2.1932 0.718833 0
M  V30 3484 C 321.187 1.14198 1.20615 0
M  V30 3485 O 322.372 1.42469 1.26914 0
M  V30 3486 C 319.512 2.86041 1.93066 0
M  V30 3487 C 318.625 4.05702 1.48425 0
M  V30 3488 C 317.76 4.60266 2.65196 0
M  V30 3489 C 316.799 5.72273 2.17185 0
M  V30 3490 N 315.936 6.21221 3.27152 0
M  V30 3491 H 320.776 2.97486 0.17489 0
M  V30 3492 H 318.313 1.46911 0.0745794 0
M  V30 3493 H 320.271 3.22897 2.64184 0
M  V30 3494 H 318.901 2.1043 2.44783 0
M  V30 3495 H 317.953 3.74475 0.668755 0
M  V30 3496 H 319.265 4.86699 1.09204 0
M  V30 3497 H 318.419 4.99453 3.4443 0
M  V30 3498 H 317.158 3.78386 3.07693 0
M  V30 3499 H 316.163 5.3261 1.36407 0
M  V30 3500 H 317.388 6.55974 1.75713 0
M  V30 3501 H 315.334 5.42263 3.69171 0
M  V30 3502 H 315.251 6.97284 2.92116 0
M  V30 3503 H 316.519 6.65063 4.06585 0
M  V30 3504 N 320.748 -0.0735177 1.57428 0
M  V30 3505 C 321.973 -0.789787 1.91774 0
M  V30 3506 C 322.398 -1.70413 0.796306 0
M  V30 3507 O 321.756 -1.79555 -0.250961 0
M  V30 3508 C 321.804 -1.5609 3.25067 0
M  V30 3509 O 320.908 -2.67144 3.14178 0
M  V30 3510 H 320.249 -0.215582 0.628029 0
M  V30 3511 H 322.779 -0.0422781 2.04556 0
M  V30 3512 H 322.789 -1.94052 3.58898 0
M  V30 3513 H 321.464 -0.890015 4.06265 0
M  V30 3514 H 320.041 -2.32052 2.91901 0
M  V30 3515 N 322.226 -1.5378 -0.344866 0
M  V30 3516 C 323.642 -1.44015 -0.687888 0
M  V30 3517 C 323.842 -0.595834 -1.92489 0
M  V30 3518 O 322.898 -0.0863064 -2.52352 0
M  V30 3519 C 324.211 -2.87481 -0.881758 0
M  V30 3520 C 325.759 -2.97247 -0.980459 0
M  V30 3521 C 326.234 -4.41819 -1.20665 0
M  V30 3522 N 327.725 -4.45339 -1.27389 0
M  V30 3523 C 328.46 -5.54333 -1.46639 0
M  V30 3524 N 327.956 -6.73335 -1.63071 0
M  V30 3525 N 329.749 -5.41944 -1.49176 0
M  V30 3526 H 321.9 -2.07169 0.468475 0
M  V30 3527 H 324.163 -0.93643 0.147655 0
M  V30 3528 H 323.869 -3.51672 -0.0443444 0
M  V30 3529 H 323.743 -3.32352 -1.78388 0
M  V30 3530 H 326.13 -2.33197 -1.8084 0
M  V30 3531 H 326.211 -2.5574 -0.0552713 0
M  V30 3532 H 325.855 -5.06449 -0.383652 0
M  V30 3533 H 325.785 -4.80917 -2.14539 0
M  V30 3534 H 328.276 -3.59585 -1.1622 0
M  V30 3535 H 328.589 -7.52165 -1.77391 0
M  V30 3536 H 326.934 -6.76282 -1.60209 0
M  V30 3537 H 330.125 -4.47932 -1.3592 0
M  V30 3538 H 330.298 -6.26946 -1.63837 0
M  V30 3539 N 323.704 0.605807 -1.45491 0
M  V30 3540 C 324.929 1.39625 -1.53361 0
M  V30 3541 C 325.354 1.87351 -0.167645 0
M  V30 3542 O 324.712 1.60243 0.848051 0
M  V30 3543 C 324.76 2.57559 -2.5238 0
M  V30 3544 O 323.864 3.58248 -2.04285 0
M  V30 3545 H 323.205 0.416771 -0.516912 0
M  V30 3546 H 325.735 0.737103 -1.90861 0
M  V30 3547 H 325.745 3.0478 -2.71244 0
M  V30 3548 H 324.42 2.22171 -3.51586 0
M  V30 3549 H 322.997 3.17664 -1.95305 0
M  V30 3550 N 325.182 1.32811 0.848464 0
M  V30 3551 C 326.598 1.11937 1.13764 0
M  V30 3552 C 326.798 -0.0960789 2.01271 0
M  V30 3553 O 325.854 -0.779165 2.40178 0
M  V30 3554 C 327.167 2.402 1.809 0
M  V30 3555 C 328.715 2.46016 1.93508 0
M  V30 3556 C 329.19 3.74215 2.64059 0
M  V30 3557 N 330.681 3.75232 2.71579 0
M  V30 3558 C 331.416 4.71134 3.26833 0
M  V30 3559 N 330.912 5.77406 3.8285 0
M  V30 3560 N 332.705 4.58623 3.24995 0
M  V30 3561 H 324.856 2.1073 0.265855 0
M  V30 3562 H 327.119 0.930671 0.180431 0
M  V30 3563 H 326.825 3.29093 1.24058 0
M  V30 3564 H 326.699 2.51628 2.81004 0
M  V30 3565 H 329.086 1.57577 2.49506 0
M  V30 3566 H 329.167 2.38536 0.923811 0
M  V30 3567 H 328.811 4.63031 2.08722 0
M  V30 3568 H 328.741 3.78968 3.65637 0
M  V30 3569 H 331.232 2.98423 2.31845 0
M  V30 3570 H 331.545 6.46632 4.23187 0
M  V30 3571 H 329.89 5.81152 3.81165 0
M  V30 3572 H 333.081 3.74762 2.80484 0
M  V30 3573 H 333.254 5.33535 3.67756 0
M  V30 3574 N 326.66 -1.06551 1.16123 0
M  V30 3575 C 327.885 -1.83544 0.965735 0
M  V30 3576 C 328.31 -1.81843 -0.481102 0
M  V30 3577 O 327.668 -1.21732 -1.34354 0
M  V30 3578 C 327.716 -3.28169 1.49457 0
M  V30 3579 O 326.82 -4.0643 0.699157 0
M  V30 3580 H 326.161 -0.568026 0.343864 0
M  V30 3581 H 328.691 -1.34362 1.54299 0
M  V30 3582 H 328.701 -3.78992 1.51092 0
M  V30 3583 H 327.376 -3.28722 2.54784 0
M  V30 3584 H 325.953 -3.65216 0.7531 0
M  V30 3585 N 328.138 -0.959301 -1.25041 0
M  V30 3586 C 329.554 -0.664474 -1.4511 0
M  V30 3587 C 329.754 0.776481 -1.85938 0
M  V30 3588 O 328.81 1.55128 -1.99227 0
M  V30 3589 C 330.123 -1.64139 -2.5195 0
M  V30 3590 C 331.671 -1.65309 -2.65786 0
M  V30 3591 C 332.146 -2.61777 -3.75815 0
M  V30 3592 N 333.637 -2.60169 -3.83231 0
M  V30 3593 C 334.372 -3.31489 -4.6787 0
M  V30 3594 N 333.868 -4.12298 -5.56761 0
M  V30 3595 N 335.661 -3.20354 -4.61876 0
M  V30 3596 H 327.812 -1.89043 -0.968332 0
M  V30 3597 H 330.075 -0.813408 -0.4869 0
M  V30 3598 H 329.781 -2.67086 -2.28819 0
M  V30 3599 H 329.655 -1.40756 -3.49954 0
M  V30 3600 H 332.042 -0.630778 -2.8828 0
M  V30 3601 H 332.123 -1.92753 -1.68167 0
M  V30 3602 H 331.767 -3.64137 -3.54071 0
M  V30 3603 H 331.697 -2.31616 -4.72929 0
M  V30 3604 H 334.188 -2.01507 -3.19692 0
M  V30 3605 H 334.501 -4.63625 -6.18281 0
M  V30 3606 H 332.846 -4.16395 -5.56454 0
M  V30 3607 H 336.037 -2.56692 -3.91442 0
M  V30 3608 H 336.21 -3.76201 -5.27614 0
M  V30 3609 N 329.616 1.39756 -0.72842 0
M  V30 3610 C 330.841 2.05472 -0.282159 0
M  V30 3611 C 331.266 1.54549 1.07221 0
M  V30 3612 O 330.624 0.686372 1.67805 0
M  V30 3613 C 330.672 3.59462 -0.286264 0
M  V30 3614 O 329.776 4.05918 0.728298 0
M  V30 3615 H 329.117 0.651226 -0.129618 0
M  V30 3616 H 331.647 1.78915 -0.992499 0
M  V30 3617 H 331.657 4.07798 -0.128373 0
M  V30 3618 H 330.332 3.95889 -1.27456 0
M  V30 3619 H 328.909 3.69012 0.537081 0
M  V30 3620 N 331.094 0.475555 1.50254 0
M  V30 3621 C 332.342 -0.077738 2.0195 0
M  V30 3622 C 332.663 -1.39813 1.35931 0
M  V30 3623 O 331.933 -1.89249 0.506123 0
M  V30 3624 H 330.513 -0.031719 0.746326 0
M  V30 3625 H 333.175 0.626995 1.84539 0
M  V30 3626 H 332.271 -0.225995 3.11281 0
M  V30 3627 N 332.573 -1.56217 0.208337 0
M  V30 3628 C 333.798 -2.02782 -0.435222 0
M  V30 3629 C 334.223 -1.08738 -1.53485 0
M  V30 3630 O 333.581 -0.0731855 -1.81152 0
M  V30 3631 C 333.629 -3.47687 -0.956335 0
M  V30 3632 O 332.733 -3.56773 -2.06849 0
M  V30 3633 H 332.074 -0.656403 -0.100158 0
M  V30 3634 H 334.604 -2.02033 0.3231 0
M  V30 3635 H 334.614 -3.87745 -1.26955 0
M  V30 3636 H 333.289 -4.15624 -0.15143 0
M  V30 3637 H 331.866 -3.28597 -1.76292 0
M  V30 3638 N 334.051 0.0651679 -1.57465 0
M  V30 3639 C 335.467 0.420105 -1.53972 0
M  V30 3640 C 335.667 1.78782 -0.929474 0
M  V30 3641 O 334.723 2.46771 -0.534839 0
M  V30 3642 C 336.036 0.355084 -2.98596 0
M  V30 3643 C 337.584 0.434792 -3.09965 0
M  V30 3644 C 338.059 0.399609 -4.56253 0
M  V30 3645 N 339.55 0.459488 -4.60915 0
M  V30 3646 C 340.285 0.454584 -5.71595 0
M  V30 3647 N 339.781 0.404102 -6.9162 0
M  V30 3648 N 341.574 0.501635 -5.59857 0
M  V30 3649 H 333.725 -0.830328 -1.95498 0
M  V30 3650 H 335.988 -0.312244 -0.895102 0
M  V30 3651 H 335.694 -0.583357 -3.46828 0
M  V30 3652 H 335.568 1.16275 -3.58831 0
M  V30 3653 H 337.955 1.36366 -2.61703 0
M  V30 3654 H 338.036 -0.40157 -2.52628 0
M  V30 3655 H 337.68 -0.525436 -5.05175 0
M  V30 3656 H 337.61 1.25359 -5.11461 0
M  V30 3657 H 340.101 0.502482 -3.74544 0
M  V30 3658 H 340.414 0.404468 -7.71741 0
M  V30 3659 H 338.759 0.37069 -6.94011 0
M  V30 3660 H 341.95 0.538812 -4.64989 0
M  V30 3661 H 342.123 0.494345 -6.46112 0
M  V30 3662 N 335.529 1.53961 0.336706 0
M  V30 3663 C 336.754 1.75797 1.10046 0
M  V30 3664 C 337.179 0.498985 1.81361 0
M  V30 3665 O 336.537 -0.548769 1.72795 0
M  V30 3666 C 336.585 2.94257 2.08436 0
M  V30 3667 O 335.689 2.64883 3.16087 0
M  V30 3668 H 335.03 0.582936 0.317934 0
M  V30 3669 H 337.56 2.00945 0.38501 0
M  V30 3670 H 337.57 3.21237 2.51537 0
M  V30 3671 H 336.245 3.85564 1.55927 0
M  V30 3672 H 334.822 2.48812 2.77753 0
M  V30 3673 N 337.007 -0.598083 1.45811 0
M  V30 3674 C 338.423 -0.919847 1.30426 0
M  V30 3675 C 338.623 -1.99759 0.264303 0
M  V30 3676 O 337.679 -2.50221 -0.338472 0
M  V30 3677 C 338.992 -1.35176 2.68603 0
M  V30 3678 C 340.54 -1.46546 2.76574 0
M  V30 3679 C 341.015 -1.9311 4.15298 0
M  V30 3680 N 342.506 -2.00328 4.1764 0
M  V30 3681 C 343.241 -2.37599 5.21856 0
M  V30 3682 N 342.737 -2.73771 6.36413 0
M  V30 3683 N 344.53 -2.38021 5.09218 0
M  V30 3684 H 336.681 0.114111 2.12093 0
M  V30 3685 H 338.944 -0.0116121 0.947929 0
M  V30 3686 H 338.65 -0.633969 3.45939 0
M  V30 3687 H 338.524 -2.3164 2.97696 0
M  V30 3688 H 340.911 -2.17415 1.99537 0
M  V30 3689 H 340.992 -0.483727 2.51185 0
M  V30 3690 H 340.636 -1.22824 4.92825 0
M  V30 3691 H 340.566 -2.92213 4.38086 0
M  V30 3692 H 343.057 -1.74925 3.34977 0
M  V30 3693 H 343.37 -3.0112 7.11721 0
M  V30 3694 H 341.715 -2.71445 6.39799 0
M  V30 3695 H 344.906 -2.09174 4.18765 0
M  V30 3696 H 345.079 -2.66741 5.90554 0
M  V30 3697 N 338.485 -1.33259 -0.841409 0
M  V30 3698 C 339.71 -1.2775 -1.63385 0
M  V30 3699 C 340.135 0.149188 -1.87507 0
M  V30 3700 O 339.493 1.10498 -1.43736 0
M  V30 3701 C 339.541 -2.05571 -2.96265 0
M  V30 3702 O 338.645 -1.41257 -3.87453 0
M  V30 3703 H 337.986 -0.439627 -0.497618 0
M  V30 3704 H 340.516 -1.75782 -1.04699 0
M  V30 3705 H 340.526 -2.16241 -3.45982 0
M  V30 3706 H 339.201 -3.09309 -2.7803 0
M  V30 3707 H 337.778 -1.39217 -3.45938 0
M  V30 3708 N 339.963 1.05934 -1.16686 0
M  V30 3709 C 340.91 2.13499 -0.876748 0
M  V30 3710 C 341.88 1.65162 0.176299 0
M  V30 3711 O 343.065 1.90757 0.0407143 0
M  V30 3712 C 340.205 3.42912 -0.387967 0
M  V30 3713 C 339.318 4.04964 -1.50426 0
M  V30 3714 C 338.453 5.22266 -0.970125 0
M  V30 3715 C 337.492 5.76309 -2.06238 0
M  V30 3716 N 336.629 6.84922 -1.54356 0
M  V30 3717 H 341.469 2.37654 -1.7979 0
M  V30 3718 H 339.006 1.16598 -0.896843 0
M  V30 3719 H 340.964 4.17111 -0.086186 0
M  V30 3720 H 339.594 3.18963 0.496235 0
M  V30 3721 H 338.646 3.28277 -1.92193 0
M  V30 3722 H 339.958 4.41122 -2.32836 0
M  V30 3723 H 339.112 6.03506 -0.621743 0
M  V30 3724 H 337.851 4.87564 -0.115377 0
M  V30 3725 H 336.856 4.93704 -2.41942 0
M  V30 3726 H 338.081 6.13062 -2.92115 0
M  V30 3727 H 336.027 6.52131 -0.711406 0
M  V30 3728 H 335.944 7.20043 -2.30379 0
M  V30 3729 H 337.212 7.69832 -1.22387 0
M  V30 3730 N 341.441 0.965919 1.2453 0
M  V30 3731 C 342.666 0.643971 1.97149 0
M  V30 3732 C 343.091 -0.779487 1.71189 0
M  V30 3733 O 342.449 -1.5288 0.974553 0
M  V30 3734 C 342.497 0.922557 3.48599 0
M  V30 3735 O 341.601 0.00707672 4.12399 0
M  V30 3736 H 340.942 0.243647 0.617683 0
M  V30 3737 H 343.472 1.29558 1.58353 0
M  V30 3738 H 343.482 0.853373 3.98976 0
M  V30 3739 H 342.157 1.95996 3.66822 0
M  V30 3740 H 340.734 0.12943 3.72675 0
M  V30 3741 N 342.919 -1.39368 0.735821 0
M  V30 3742 C 344.335 -1.54204 0.411492 0
M  V30 3743 C 344.535 -1.70268 -1.07755 0
M  V30 3744 O 343.591 -1.70364 -1.86366 0
M  V30 3745 C 344.904 -2.75925 1.19523 0
M  V30 3746 C 346.452 -2.89761 1.18354 0
M  V30 3747 C 346.927 -4.14421 1.94986 0
M  V30 3748 N 348.418 -4.21462 1.92156 0
M  V30 3749 C 349.153 -5.16871 2.48258 0
M  V30 3750 N 348.649 -6.18063 3.13001 0
M  V30 3751 N 350.442 -5.09093 2.38287 0
M  V30 3752 H 342.593 -1.27189 1.70108 0
M  V30 3753 H 344.856 -0.616517 0.720147 0
M  V30 3754 H 344.562 -2.70401 2.24892 0
M  V30 3755 H 344.436 -3.68614 0.800222 0
M  V30 3756 H 346.823 -2.94777 0.137975 0
M  V30 3757 H 346.904 -1.98133 1.61793 0
M  V30 3758 H 346.548 -4.10166 2.99543 0
M  V30 3759 H 346.478 -5.05095 1.48953 0
M  V30 3760 H 348.969 -3.48979 1.44991 0
M  V30 3761 H 349.282 -6.87326 3.53275 0
M  V30 3762 H 347.627 -6.18448 3.17091 0
M  V30 3763 H 350.818 -4.28973 1.8735 0
M  V30 3764 H 350.991 -5.83272 2.82308 0
M  V30 3765 N 344.397 -0.483516 -1.5 0
M  V30 3766 C 345.622 0.0667119 -2.07293 0
M  V30 3767 C 346.047 1.3164 -1.3436 0
M  V30 3768 O 345.405 1.76945 -0.394987 0
M  V30 3769 C 345.453 0.321126 -3.59167 0
M  V30 3770 O 344.557 1.39927 -3.87936 0
M  V30 3771 H 343.898 -0.0184758 -0.663743 0
M  V30 3772 H 346.428 -0.678125 -1.93035 0
M  V30 3773 H 346.438 0.557906 -4.04168 0
M  V30 3774 H 345.113 -0.592007 -4.11665 0
M  V30 3775 H 343.69 1.14882 -3.54763 0
M  V30 3776 N 345.875 1.56104 -0.216619 0
M  V30 3777 C 347.291 1.58995 0.13886 0
M  V30 3778 C 347.491 1.23333 1.59346 0
M  V30 3779 O 346.547 0.966234 2.33281 0
M  V30 3780 C 347.86 3.00143 -0.182968 0
M  V30 3781 C 349.408 3.12751 -0.124807 0
M  V30 3782 C 349.883 4.56068 -0.420241 0
M  V30 3783 N 351.374 4.61723 -0.369634 0
M  V30 3784 C 352.109 5.70542 -0.571789 0
M  V30 3785 N 351.605 6.87744 -0.835453 0
M  V30 3786 N 353.398 5.59831 -0.504563 0
M  V30 3787 H 345.549 1.77562 -1.16557 0
M  V30 3788 H 347.812 0.825091 -0.466828 0
M  V30 3789 H 347.518 3.30871 -1.19237 0
M  V30 3790 H 347.392 3.73813 0.504367 0
M  V30 3791 H 349.779 2.81822 0.875223 0
M  V30 3792 H 349.86 2.41421 -0.845544 0
M  V30 3793 H 349.504 4.87713 -1.41769 0
M  V30 3794 H 349.434 5.25617 0.321631 0
M  V30 3795 H 351.925 3.77502 -0.173338 0
M  V30 3796 H 352.238 7.66587 -0.977938 0
M  V30 3797 H 350.583 6.895 -0.872592 0
M  V30 3798 H 353.774 4.67145 -0.298842 0
M  V30 3799 H 353.947 6.44573 -0.665519 0
M  V30 3800 N 347.353 -0.0568162 1.57498 0
M  V30 3801 C 348.578 -0.769402 1.92601 0
M  V30 3802 C 349.003 -1.69559 0.814336 0
M  V30 3803 O 348.361 -1.79811 -0.231903 0
M  V30 3804 C 348.409 -1.52634 3.26704 0
M  V30 3805 O 347.513 -2.63797 3.16994 0
M  V30 3806 H 346.854 -0.208909 0.63028 0
M  V30 3807 H 349.384 -0.0205798 2.0459 0
M  V30 3808 H 349.394 -1.90234 3.60936 0
M  V30 3809 H 348.069 -0.846875 4.07186 0
M  V30 3810 H 346.646 -2.28943 2.94346 0
M  V30 3811 N 348.832 -1.54138 -0.328536 0
M  V30 3812 C 349.764 -1.79509 -1.4251 0
M  V30 3813 C 350.777 -0.67688 -1.48061 0
M  V30 3814 O 351.966 -0.953898 -1.50874 0
M  V30 3815 C 349.066 -1.89337 -2.81078 0
M  V30 3816 C 348.239 -3.19443 -2.98789 0
M  V30 3817 C 347.298 -3.20036 -4.17688 0
M  V30 3818 O 346.324 -3.93697 -4.11086 0
M  V30 3819 N 347.526 -2.43467 -5.26976 0
M  V30 3820 H 350.291 -2.74139 -1.21111 0
M  V30 3821 H 347.852 -1.53373 -0.518499 0
M  V30 3822 H 349.844 -1.87167 -3.58818 0
M  V30 3823 H 348.414 -1.01826 -2.95551 0
M  V30 3824 H 347.634 -3.34614 -2.08391 0
M  V30 3825 H 348.922 -4.05354 -3.07515 0
M  V30 3826 H 348.32 -1.83201 -5.35214 0
M  V30 3827 H 346.877 -2.4708 -6.03154 0
M  V30 3828 N 350.31 0.590341 -1.46126 0
M  V30 3829 C 351.535 1.37991 -1.54833 0
M  V30 3830 C 351.96 1.87163 -0.187506 0
M  V30 3831 O 351.318 1.61133 0.831008 0
M  V30 3832 C 351.366 2.54867 -2.55098 0
M  V30 3833 O 350.47 3.56061 -2.08073 0
M  V30 3834 H 349.811 0.411265 -0.521303 0
M  V30 3835 H 352.341 0.716819 -1.91632 0
M  V30 3836 H 352.351 3.01886 -2.74461 0
M  V30 3837 H 351.026 2.18429 -3.53923 0
M  V30 3838 H 349.603 3.15574 -1.98664 0
M  V30 3839 N 351.788 1.33704 0.83433 0
M  V30 3840 C 353.204 1.13137 1.12571 0
M  V30 3841 C 353.404 -0.0747261 2.01361 0
M  V30 3842 O 352.46 -0.753647 2.4099 0
M  V30 3843 C 353.773 2.42105 1.78342 0
M  V30 3844 C 355.321 2.48054 1.90888 0
M  V30 3845 C 355.796 3.76995 2.60075 0
M  V30 3846 N 357.287 3.78092 2.67584 0
M  V30 3847 C 358.022 4.74574 3.21818 0
M  V30 3848 N 357.518 5.81434 3.76705 0
M  V30 3849 N 359.311 4.62044 3.20112 0
M  V30 3850 H 351.462 2.11 0.243489 0
M  V30 3851 H 353.725 0.932532 0.17055 0
M  V30 3852 H 353.431 3.30391 1.20561 0
M  V30 3853 H 353.305 2.54594 2.7832 0
M  V30 3854 H 355.692 1.60215 2.47821 0
M  V30 3855 H 355.773 2.39502 0.898459 0
M  V30 3856 H 355.417 4.65219 2.03799 0
M  V30 3857 H 355.347 3.82825 3.61597 0
M  V30 3858 H 357.838 3.00865 2.28667 0
M  V30 3859 H 358.151 6.51084 4.16305 0
M  V30 3860 H 356.496 5.85163 3.7498 0
M  V30 3861 H 359.687 3.77716 2.76493 0
M  V30 3862 H 359.86 5.37406 3.62076 0
M  V30 3863 N 353.266 -1.05314 1.17247 0
M  V30 3864 C 354.491 -1.82509 0.985148 0
M  V30 3865 C 354.916 -1.82343 -0.461788 0
M  V30 3866 O 354.274 -1.23151 -1.33055 0
M  V30 3867 C 354.322 -3.26566 1.52929 0
M  V30 3868 O 353.426 -4.05666 0.742225 0
M  V30 3869 H 352.767 -0.564347 0.349869 0
M  V30 3870 H 355.297 -1.32718 1.55715 0
M  V30 3871 H 355.307 -3.77369 1.55103 0
M  V30 3872 H 353.982 -3.26001 2.58256 0
M  V30 3873 H 352.559 -3.64397 0.791794 0
M  V30 3874 N 354.744 -0.972509 -1.24016 0
M  V30 3875 C 356.16 -0.679827 -1.44397 0
M  V30 3876 C 356.36 0.756716 -1.86751 0
M  V30 3877 O 355.416 1.53007 -2.00861 0
M  V30 3878 C 356.729 -1.66803 -2.50195 0
M  V30 3879 C 358.277 -1.68119 -2.64017 0
M  V30 3880 C 358.752 -2.65748 -3.73017 0
M  V30 3881 N 360.243 -2.64219 -3.8045 0
M  V30 3882 C 360.978 -3.36433 -4.64328 0
M  V30 3883 N 360.474 -4.1818 -5.52356 0
M  V30 3884 N 362.267 -3.25235 -4.58453 0
M  V30 3885 H 354.418 -1.90059 -0.948228 0
M  V30 3886 H 356.681 -0.818527 -0.478245 0
M  V30 3887 H 356.387 -2.69498 -2.25973 0
M  V30 3888 H 356.261 -1.4446 -3.48441 0
M  V30 3889 H 358.648 -0.661319 -2.87594 0
M  V30 3890 H 358.729 -1.94525 -1.66113 0
M  V30 3891 H 358.373 -3.67872 -3.50189 0
M  V30 3892 H 358.303 -2.36619 -4.70446 0
M  V30 3893 H 360.794 -2.04887 -3.17537 0
M  V30 3894 H 361.107 -4.70157 -6.13329 0
M  V30 3895 H 359.452 -4.22273 -5.52006 0
M  V30 3896 H 362.643 -2.60829 -3.88698 0
M  V30 3897 H 362.816 -3.81776 -5.23594 0
M  V30 3898 N 356.222 1.38976 -0.743202 0
M  V30 3899 C 357.447 2.05161 -0.303936 0
M  V30 3900 C 357.872 1.55677 1.05576 0
M  V30 3901 O 357.23 0.704131 1.67068 0
M  V30 3902 C 357.278 3.59138 -0.324373 0
M  V30 3903 O 356.382 4.06668 0.685204 0
M  V30 3904 H 355.723 0.649815 -0.136518 0
M  V30 3905 H 358.253 1.77852 -1.01142 0
M  V30 3906 H 358.263 4.07639 -0.171618 0
M  V30 3907 H 356.938 3.94515 -1.31647 0
M  V30 3908 H 355.515 3.69561 0.497913 0
M  V30 3909 N 357.7 0.491464 1.49741 0
M  V30 3910 C 358.647 -0.292027 2.28945 0
M  V30 3911 C 359.617 -0.968973 1.34908 0
M  V30 3912 O 360.802 -0.97748 1.6386 0
M  V30 3913 C 357.942 -1.35617 3.17336 0
M  V30 3914 C 357.055 -0.691957 4.26422 0
M  V30 3915 C 356.19 -1.73572 5.02042 0
M  V30 3916 C 355.229 -1.05286 6.02977 0
M  V30 3917 N 354.366 -2.0404 6.71798 0
M  V30 3918 H 359.206 0.389654 2.95442 0
M  V30 3919 H 356.743 0.204003 1.45679 0
M  V30 3920 H 358.701 -1.98502 3.66951 0
M  V30 3921 H 357.331 -2.00674 2.52844 0
M  V30 3922 H 356.383 0.0499523 3.80367 0
M  V30 3923 H 357.695 -0.153946 4.98562 0
M  V30 3924 H 356.849 -2.43987 5.55478 0
M  V30 3925 H 355.588 -2.30757 4.29654 0
M  V30 3926 H 354.593 -0.334446 5.48782 0
M  V30 3927 H 355.818 -0.487636 6.77347 0
M  V30 3928 H 353.764 -2.60205 6.02187 0
M  V30 3929 H 353.681 -1.55279 7.39881 0
M  V30 3930 H 354.949 -2.73772 7.29842 0
M  V30 3931 N 359.178 -1.55987 0.224894 0
M  V30 3932 C 360.125 -2.20436 -0.68385 0
M  V30 3933 C 361.095 -1.16102 -1.18783 0
M  V30 3934 O 362.28 -1.4447 -1.24632 0
M  V30 3935 C 359.42 -2.89076 -1.88491 0
M  V30 3936 C 358.533 -4.08012 -1.41951 0
M  V30 3937 C 357.668 -4.64426 -2.5784 0
M  V30 3938 C 356.707 -5.75656 -2.08053 0
M  V30 3939 N 355.844 -6.26347 -3.17227 0
M  V30 3940 H 360.684 -2.97727 -0.12754 0
M  V30 3941 H 358.221 -1.47011 -0.0511978 0
M  V30 3942 H 360.179 -3.27059 -2.59014 0
M  V30 3943 H 358.809 -2.14298 -2.41405 0
M  V30 3944 H 357.861 -3.75492 -0.609095 0
M  V30 3945 H 359.173 -4.88375 -1.01447 0
M  V30 3946 H 358.327 -5.04869 -3.3644 0
M  V30 3947 H 357.066 -3.83233 -3.01635 0
M  V30 3948 H 356.071 -5.34712 -1.27916 0
M  V30 3949 H 357.296 -6.58686 -1.65255 0
M  V30 3950 H 355.242 -5.48067 -3.60497 0
M  V30 3951 H 355.159 -7.01843 -2.80986 0
M  V30 3952 H 356.427 -6.71447 -3.95953 0
M  V30 3953 N 360.656 0.0484629 -1.57525 0
M  V30 3954 C 361.566 1.07241 -2.08654 0
M  V30 3955 C 362.582 1.409 -1.02095 0
M  V30 3956 O 363.758 1.50609 -1.33712 0
M  V30 3957 C 360.823 2.36008 -2.5397 0
M  V30 3958 C 359.884 2.09108 -3.7493 0
M  V30 3959 C 359.117 3.31736 -4.18075 0
M  V30 3960 O 359.34 4.41714 -3.60895 0
M  V30 3961 O 358.274 3.18576 -5.10679 0
M  V30 3962 H 362.1 0.667965 -2.96263 0
M  V30 3963 H 359.685 0.26417 -1.47046 0
M  V30 3964 H 361.567 3.11747 -2.83535 0
M  V30 3965 H 360.242 2.75786 -1.69481 0
M  V30 3966 H 359.149 1.31 -3.50414 0
M  V30 3967 H 360.482 1.74198 -4.60343 0
M  V30 3968 N 362.134 1.5431 0.320358 0
M  V30 3969 C 363.081 1.83918 1.39438 0
M  V30 3970 C 364.051 0.686525 1.51248 0
M  V30 3971 O 365.236 0.933269 1.66417 0
M  V30 3972 C 362.376 2.075 2.75749 0
M  V30 3973 C 361.489 3.35177 2.72544 0
M  V30 3974 C 360.624 3.48704 4.00723 0
M  V30 3975 C 359.663 4.70244 3.91838 0
M  V30 3976 N 358.8 4.80679 5.11754 0
M  V30 3977 H 363.64 2.75544 1.13489 0
M  V30 3978 H 361.177 1.36459 0.549309 0
M  V30 3979 H 363.135 2.19166 3.54996 0
M  V30 3980 H 361.765 1.19163 3 0
M  V30 3981 H 360.817 3.32233 1.85271 0
M  V30 3982 H 362.129 4.24534 2.61863 0
M  V30 3983 H 361.283 3.59928 4.88402 0
M  V30 3984 H 360.022 2.57445 4.14214 0
M  V30 3985 H 359.027 4.59072 3.02544 0
M  V30 3986 H 360.252 5.6289 3.7991 0
M  V30 3987 H 358.198 3.92337 5.25745 0
M  V30 3988 H 358.115 5.64007 5.0342 0
M  V30 3989 H 359.383 4.96239 6.01138 0
M  V30 3990 N 363.613 -0.582584 1.46437 0
M  V30 3991 C 364.838 -1.37168 1.55563 0
M  V30 3992 C 365.263 -1.87061 0.19743 0
M  V30 3993 O 364.621 -1.61572 -0.822451 0
M  V30 3994 C 364.669 -2.53511 2.56446 0
M  V30 3995 O 363.773 -3.54953 2.09958 0
M  V30 3996 H 363.114 -0.408494 0.523477 0
M  V30 3997 H 365.644 -0.706646 1.9201 0
M  V30 3998 H 365.654 -3.00426 2.76058 0
M  V30 3999 H 364.329 -2.16549 3.55076 0
M  V30 4000 H 362.906 -3.14516 2.00334 0
M  V30 4001 N 365.091 -1.34144 -0.827227 0
M  V30 4002 C 366.507 -1.13732 -1.11969 0
M  V30 4003 C 366.707 0.0640463 -2.01398 0
M  V30 4004 O 365.763 0.740856 -2.41387 0
M  V30 4005 C 367.076 -2.43047 -1.77055 0
M  V30 4006 C 368.624 -2.49063 -1.89569 0
M  V30 4007 C 369.099 -3.78369 -2.58072 0
M  V30 4008 N 370.59 -3.79505 -2.65575 0
M  V30 4009 C 371.325 -4.76274 -3.19297 0
M  V30 4010 N 370.821 -5.83424 -3.73616 0
M  V30 4011 N 372.614 -4.63735 -3.17658 0
M  V30 4012 H 364.765 -2.11126 -0.232296 0
M  V30 4013 H 367.028 -0.933424 -0.165602 0
M  V30 4014 H 366.734 -3.31025 -1.18807 0
M  V30 4015 H 366.608 -2.56066 -2.76966 0
M  V30 4016 H 368.995 -1.61527 -2.46968 0
M  V30 4017 H 369.076 -2.39975 -0.885745 0
M  V30 4018 H 368.72 -4.66293 -2.01329 0
M  V30 4019 H 368.65 -3.84737 -3.59562 0
M  V30 4020 H 371.141 -3.02074 -2.27068 0
M  V30 4021 H 371.454 -6.53282 -4.12846 0
M  V30 4022 H 369.799 -5.87143 -3.71871 0
M  V30 4023 H 372.99 -3.79177 -2.74486 0
M  V30 4024 H 373.163 -5.39318 -3.59221 0
M  V30 4025 N 366.569 1.04691 -1.17803 0
M  V30 4026 C 367.794 1.81984 -0.994813 0
M  V30 4027 C 368.219 1.82586 0.452112 0
M  V30 4028 O 367.577 1.23854 1.324 0
M  V30 4029 C 367.625 3.2575 -1.54659 0
M  V30 4030 O 366.729 4.05267 -0.763728 0
M  V30 4031 H 366.07 0.562483 -0.352857 0
M  V30 4032 H 368.6 1.3189 -1.56417 0
M  V30 4033 H 368.61 3.76541 -1.57102 0
M  V30 4034 H 367.285 3.24627 -2.59981 0
M  V30 4035 H 365.862 3.63972 -0.811108 0
M  V30 4036 N 368.047 0.979072 1.23499 0
M  V30 4037 C 369.458 0.684391 1.73704 0
M  V30 4038 C 369.809 -0.799448 1.79174 0
M  V30 4039 O 368.934 -1.62531 1.42873 0
M  V30 4040 C 369.529 1.23564 3.15464 0
M  V30 4041 C 368.088 0.99063 3.6313 0
M  V30 4042 C 367.235 1.36416 2.41425 0
M  V30 4043 H 370.186 1.15307 1.09041 0
M  V30 4044 H 370.207 0.607417 3.7562 0
M  V30 4045 H 369.719 2.31561 3.1145 0
M  V30 4046 H 367.82 -0.0733136 3.72528 0
M  V30 4047 H 367.933 1.64427 4.5 0
M  V30 4048 H 366.297 0.782616 2.42378 0
M  V30 4049 H 367.08 2.45387 2.40083 0
M  V30 4050 N 369.525 -1.3858 0.750561 0
M  V30 4051 C 370.75 -2.04997 0.314812 0
M  V30 4052 C 371.175 -1.56235 -1.04749 0
M  V30 4053 O 370.533 -0.712981 -1.66692 0
M  V30 4054 C 370.581 -3.58961 0.343415 0
M  V30 4055 O 369.685 -4.07025 -0.663628 0
M  V30 4056 H 369.026 -0.649081 0.139962 0
M  V30 4057 H 371.556 -1.77313 1.02084 0
M  V30 4058 H 371.566 -4.07542 0.193233 0
M  V30 4059 H 370.241 -3.93811 1.33738 0
M  V30 4060 H 368.818 -3.6982 -0.478307 0
M  V30 4061 N 371.003 -0.499398 -1.49478 0
M  V30 4062 C 371.95 0.279881 -2.29097 0
M  V30 4063 C 372.92 0.961805 -1.3542 0
M  V30 4064 O 374.105 0.968777 -1.64376 0
M  V30 4065 C 371.245 1.33932 -3.18051 0
M  V30 4066 C 370.358 0.669333 -4.26783 0
M  V30 4067 C 369.493 1.70907 -5.02955 0
M  V30 4068 C 368.532 1.02087 -6.03527 0
M  V30 4069 N 367.669 2.00474 -6.7287 0
M  V30 4070 H 372.509 -0.405317 -2.95231 0
M  V30 4071 H 370.046 -0.211726 -1.45568 0
M  V30 4072 H 372.004 1.96553 -3.67998 0
M  V30 4073 H 370.634 1.9933 -2.53904 0
M  V30 4074 H 369.686 -0.0701234 -3.80335 0
M  V30 4075 H 370.998 0.127503 -4.98637 0
M  V30 4076 H 370.152 2.41037 -5.56764 0
M  V30 4077 H 368.891 2.28476 -4.30871 0
M  V30 4078 H 367.896 0.305338 -5.48951 0
M  V30 4079 H 369.121 0.451708 -6.77596 0
M  V30 4080 H 367.067 2.57007 -6.03559 0
M  V30 4081 H 366.984 1.51353 -7.40694 0
M  V30 4082 H 368.252 2.69897 -7.31284 0
M  V30 4083 N 372.481 1.55866 -0.233164 0
M  V30 4084 C 373.391 2.24431 0.683217 0
M  V30 4085 C 374.407 1.2558 1.2044 0
M  V30 4086 O 375.583 1.58422 1.24356 0
M  V30 4087 C 372.648 2.91979 1.86947 0
M  V30 4088 C 371.709 4.06204 1.38912 0
M  V30 4089 C 370.942 4.70522 2.51883 0
M  V30 4090 O 371.165 4.33865 3.70293 0
M  V30 4091 O 370.099 5.59296 2.22423 0
M  V30 4092 H 373.925 3.03426 0.129059 0
M  V30 4093 H 371.51 1.494 -0.0022283 0
M  V30 4094 H 373.392 3.34573 2.56201 0
M  V30 4095 H 372.067 2.15935 2.41151 0
M  V30 4096 H 370.974 3.68155 0.664259 0
M  V30 4097 H 372.307 4.84025 0.893328 0
M  V30 4098 N 373.959 -0.0401083 1.57549 0
M  V30 4099 C 374.906 -1.04413 2.05831 0
M  V30 4100 C 375.876 -1.36585 0.945184 0
M  V30 4101 O 377.061 -1.47112 1.21502 0
M  V30 4102 C 374.201 -2.34336 2.53339 0
M  V30 4103 C 373.314 -2.08419 3.78398 0
M  V30 4104 C 372.449 -3.32133 4.14561 0
M  V30 4105 C 371.488 -3.01721 5.3257 0
M  V30 4106 N 370.625 -4.17855 5.64218 0
M  V30 4107 H 375.465 -0.625442 2.91363 0
M  V30 4108 H 373.002 -0.297218 1.44066 0
M  V30 4109 H 374.96 -3.10234 2.78946 0
M  V30 4110 H 373.59 -2.73948 1.7074 0
M  V30 4111 H 372.642 -1.23069 3.59942 0
M  V30 4112 H 373.954 -1.81978 4.64419 0
M  V30 4113 H 373.108 -4.16406 4.41238 0
M  V30 4114 H 371.847 -3.61678 3.2717 0
M  V30 4115 H 370.852 -2.15849 5.05657 0
M  V30 4116 H 372.077 -2.73466 6.21605 0
M  V30 4117 H 370.023 -4.47372 4.79786 0
M  V30 4118 H 369.94 -3.94798 6.44725 0
M  V30 4119 H 371.208 -5.03033 5.95465 0
M  V30 4120 N 375.437 -1.54477 -0.31217 0
M  V30 4121 C 376.662 -1.77526 -1.07235 0
M  V30 4122 C 377.087 -0.527775 -1.80544 0
M  V30 4123 O 376.445 0.52121 -1.73646 0
M  V30 4124 C 376.493 -2.97535 -2.03728 0
M  V30 4125 O 375.597 -2.69878 -3.11833 0
M  V30 4126 H 374.938 -0.58792 -0.30862 0
M  V30 4127 H 377.468 -2.01532 -0.352993 0
M  V30 4128 H 377.478 -3.25198 -2.46395 0
M  V30 4129 H 376.153 -3.87996 -1.49774 0
M  V30 4130 H 374.73 -2.53199 -2.7376 0
M  V30 4131 N 376.915 0.57481 -1.46744 0
M  V30 4132 C 378.331 0.898981 -1.31873 0
M  V30 4133 C 378.531 1.99313 -0.29605 0
M  V30 4134 O 377.587 2.50728 0.298621 0
M  V30 4135 C 378.9 1.30886 -2.7072 0
M  V30 4136 C 380.448 1.42127 -2.78871 0
M  V30 4137 C 380.923 1.86478 -4.18318 0
M  V30 4138 N 382.414 1.93658 -4.20774 0
M  V30 4139 C 383.149 2.29267 -5.2557 0
M  V30 4140 N 382.645 2.63612 -6.40688 0
M  V30 4141 N 384.438 2.29889 -5.1294 0
M  V30 4142 H 376.589 -0.147839 -2.11885 0
M  V30 4143 H 378.852 -0.00347013 -0.947994 0
M  V30 4144 H 378.558 0.578853 -3.46904 0
M  V30 4145 H 378.432 2.26874 -3.01343 0
M  V30 4146 H 380.819 2.14213 -2.0297 0
M  V30 4147 H 380.9 0.443705 -2.51922 0
M  V30 4148 H 380.544 1.14968 -4.94717 0
M  V30 4149 H 380.474 2.85207 -4.42679 0
M  V30 4150 H 382.965 1.69574 -3.37718 0
M  V30 4151 H 383.278 2.89759 -7.16421 0
M  V30 4152 H 381.623 2.61232 -6.44036 0
M  V30 4153 H 384.814 2.02485 -4.22039 0
M  V30 4154 H 384.987 2.57312 -5.94722 0
M  V30 4155 N 378.394 1.34581 0.820102 0
M  V30 4156 C 379.619 1.30333 1.61332 0
M  V30 4157 C 380.044 -0.119339 1.87721 0
M  V30 4158 O 379.402 -1.08197 1.45475 0
M  V30 4159 C 379.45 2.10258 2.92957 0
M  V30 4160 O 378.554 1.47404 3.85157 0
M  V30 4161 H 377.895 0.447488 0.490561 0
M  V30 4162 H 380.425 1.77425 1.01889 0
M  V30 4163 H 380.435 2.21718 3.42498 0
M  V30 4164 H 379.11 3.13693 2.73074 0
M  V30 4165 H 377.687 1.44703 3.43679 0
M  V30 4166 N 379.872 -1.04064 1.18357 0
M  V30 4167 C 381.288 -1.2947 0.933258 0
M  V30 4168 C 381.488 -1.97466 -0.401169 0
M  V30 4169 O 380.544 -2.25528 -1.13549 0
M  V30 4170 C 381.857 -2.15337 2.09882 0
M  V30 4171 C 383.405 -2.28683 2.13712 0
M  V30 4172 C 383.88 -3.17917 3.29686 0
M  V30 4173 N 385.371 -3.25504 3.29547 0
M  V30 4174 C 386.106 -3.94706 4.15926 0
M  V30 4175 N 385.602 -4.66239 5.12439 0
M  V30 4176 N 387.395 -3.90986 4.0384 0
M  V30 4177 H 379.546 -0.583359 2.04232 0
M  V30 4178 H 381.809 -0.319921 0.892387 0
M  V30 4179 H 381.515 -1.72682 3.06389 0
M  V30 4180 H 381.389 -3.16015 2.05947 0
M  V30 4181 H 383.776 -2.70575 1.17784 0
M  V30 4182 H 383.857 -1.27596 2.21705 0
M  V30 4183 H 383.501 -2.76736 4.25887 0
M  V30 4184 H 383.431 -4.19036 3.1893 0
M  V30 4185 H 385.922 -2.74547 2.59677 0
M  V30 4186 H 386.235 -5.16638 5.74722 0
M  V30 4187 H 384.58 -4.65143 5.16398 0
M  V30 4188 H 387.771 -3.34234 3.27727 0
M  V30 4189 H 387.944 -4.44646 4.71375 0
M  V30 4190 N 381.35 -0.985608 -1.22978 0
M  V30 4191 C 382.575 -0.675254 -1.961 0
M  V30 4192 C 383 0.752154 -1.72407 0
M  V30 4193 O 382.358 1.5131 -0.998751 0
M  V30 4194 C 382.406 -0.977899 -3.47087 0
M  V30 4195 O 381.51 -0.072685 -4.12336 0
M  V30 4196 H 380.851 -0.253443 -0.613728 0
M  V30 4197 H 383.381 -1.32061 -1.56272 0
M  V30 4198 H 383.391 -0.916739 -3.97567 0
M  V30 4199 H 382.066 -2.01807 -3.63657 0
M  V30 4200 H 380.643 -0.188703 -3.72422 0
M  V30 4201 N 382.828 1.3818 -0.7579 0
M  V30 4202 C 383.778 2.27741 -0.108674 0
M  V30 4203 C 384.762 1.45415 0.688709 0
M  V30 4204 O 385.954 1.68108 0.553956 0
M  V30 4205 C 383.083 3.34313 0.780367 0
M  V30 4206 C 382.169 4.24093 -0.0240977 0
M  V30 4207 N 382.56 4.9451 -1.06271 0
M  V30 4208 C 380.858 4.45542 0.202049 0
M  V30 4209 C 381.559 5.60675 -1.54979 0
M  V30 4210 N 380.535 5.36684 -0.864348 0
M  V30 4211 H 384.337 2.79649 -0.904071 0
M  V30 4212 H 381.851 1.51133 -0.594346 0
M  V30 4213 H 383.848 3.97368 1.26114 0
M  V30 4214 H 382.508 2.83962 1.57467 0
M  V30 4215 H 383.519 4.97345 -1.44459 0
M  V30 4216 H 380.196 4.06091 0.96935 0
M  V30 4217 H 381.586 6.26992 -2.41517 0
M  V30 4218 N 384.306 0.507319 1.49211 0
M  V30 4219 C 385.531 -0.033725 2.07373 0
M  V30 4220 C 385.956 -1.29485 1.36437 0
M  V30 4221 O 385.314 -1.76294 0.423087 0
M  V30 4222 C 385.362 -0.263945 3.59633 0
M  V30 4223 O 384.466 -1.33737 3.90113 0
M  V30 4224 H 383.807 0.0290331 0.663365 0
M  V30 4225 H 386.337 0.708749 1.91932 0
M  V30 4226 H 386.347 -0.493536 4.05004 0
M  V30 4227 H 385.022 0.657424 4.10671 0
M  V30 4228 H 383.599 -1.09224 3.56545 0
M  V30 4229 N 385.784 -1.5574 0.241426 0
M  V30 4230 C 386.747 -2.19877 -0.647063 0
M  V30 4231 C 387.747 -1.16642 -1.10686 0
M  V30 4232 O 388.937 -1.41757 -1.01245 0
M  V30 4233 C 386.069 -2.83797 -1.88871 0
M  V30 4234 H 387.262 -2.99772 -0.087574 0
M  V30 4235 H 384.815 -1.56298 -0.00813574 0
M  V30 4236 H 385.55 -2.07824 -2.48957 0
M  V30 4237 H 385.335 -3.59414 -1.56728 0
M  V30 4238 H 386.825 -3.32898 -2.52129 0
M  V30 4239 N 387.262 0.0317525 -1.57568 0
M  V30 4240 C 388.51 0.721676 -1.88776 0
M  V30 4241 C 388.831 1.76039 -0.838772 0
M  V30 4242 O 388.101 1.95482 0.127935 0
M  V30 4243 H 386.681 0.269534 -0.696678 0
M  V30 4244 H 389.343 -0.00165879 -1.949 0
M  V30 4245 H 388.439 1.21293 -2.87566 0
M  V30 4246 N 388.74 1.54641 0.303973 0
M  V30 4247 C 389.687 1.85386 1.37479 0
M  V30 4248 C 390.657 0.702528 1.50512 0
M  V30 4249 O 391.842 0.950867 1.65418 0
M  V30 4250 C 388.982 2.10413 2.73533 0
M  V30 4251 C 388.095 3.38049 2.68974 0
M  V30 4252 C 387.23 3.52934 3.97002 0
M  V30 4253 C 386.269 4.74373 3.86829 0
M  V30 4254 N 385.406 4.8608 5.06627 0
M  V30 4255 H 390.246 2.76732 1.1056 0
M  V30 4256 H 387.783 1.37034 0.534805 0
M  V30 4257 H 389.741 2.22919 3.52652 0
M  V30 4258 H 388.371 1.22338 2.98719 0
M  V30 4259 H 387.423 3.3418 1.81736 0
M  V30 4260 H 388.735 4.27288 2.57346 0
M  V30 4261 H 387.889 3.65088 4.84557 0
M  V30 4262 H 386.628 2.61824 4.1146 0
M  V30 4263 H 385.633 4.62255 2.97658 0
M  V30 4264 H 386.858 5.66888 3.73918 0
M  V30 4265 H 384.804 3.97891 5.21554 0
M  V30 4266 H 384.721 5.69315 4.9741 0
M  V30 4267 H 385.989 5.02587 5.95841 0
M  V30 4268 N 390.218 -0.567019 1.47046 0
M  V30 4269 C 391.443 -1.3551 1.57009 0
M  V30 4270 C 391.868 -1.86841 0.217259 0
M  V30 4271 O 391.226 -1.62435 -0.805268 0
M  V30 4272 C 391.274 -2.50777 2.5912 0
M  V30 4273 O 390.378 -3.52706 2.13711 0
M  V30 4274 H 389.719 -0.402919 0.52778 0
M  V30 4275 H 392.249 -0.686241 1.92748 0
M  V30 4276 H 392.259 -2.97481 2.79229 0
M  V30 4277 H 390.934 -2.12771 3.57353 0
M  V30 4278 H 389.511 -3.12374 2.03659 0
M  V30 4279 N 391.696 -1.35014 -0.812953 0
M  V30 4280 C 393.112 -1.14914 -1.10757 0
M  V30 4281 C 393.312 0.0426818 -2.01455 0
M  V30 4282 O 392.368 0.715212 -2.42159 0
M  V30 4283 C 393.681 -2.44911 -1.74468 0
M  V30 4284 C 395.229 -2.5106 -1.86917 0
M  V30 4285 C 395.704 -3.81085 -2.54044 0
M  V30 4286 N 397.195 -3.82301 -2.61535 0
M  V30 4287 C 397.93 -4.79634 -3.14227 0
M  V30 4288 N 397.426 -5.87353 -3.67407 0
M  V30 4289 N 399.219 -4.67078 -3.12721 0
M  V30 4290 H 391.37 -2.1136 -0.20989 0
M  V30 4291 H 393.633 -0.935128 -0.155692 0
M  V30 4292 H 393.339 -3.32267 -1.15289 0
M  V30 4293 H 393.213 -2.58989 -2.74234 0
M  V30 4294 H 395.6 -1.64137 -2.45241 0
M  V30 4295 H 395.681 -2.40901 -0.860242 0
M  V30 4296 H 395.325 -4.68402 -1.96372 0
M  V30 4297 H 395.255 -3.88529 -3.55461 0
M  V30 4298 H 397.746 -3.04465 -2.23851 0
M  V30 4299 H 398.059 -6.57624 -4.05894 0
M  V30 4300 H 396.404 -5.91054 -3.65623 0
M  V30 4301 H 399.595 -3.82067 -2.70449 0
M  V30 4302 H 399.768 -5.43098 -3.53481 0
M  V30 4303 N 393.175 1.03435 -1.18907 0
M  V30 4304 C 394.4 1.80919 -1.01406 0
M  V30 4305 C 394.825 1.83055 0.432721 0
M  V30 4306 O 394.183 1.25252 1.31079 0
M  V30 4307 C 394.231 3.24091 -1.58105 0
M  V30 4308 O 393.335 4.04434 -0.806669 0
M  V30 4309 H 392.676 0.558709 -0.358803 0
M  V30 4310 H 395.206 1.30223 -1.57807 0
M  V30 4311 H 395.216 3.74853 -1.61087 0
M  V30 4312 H 393.891 3.21851 -2.6341 0
M  V30 4313 H 392.468 3.63091 -0.849666 0
M  V30 4314 N 394.653 0.992116 1.22453 0
M  V30 4315 C 395.6 0.541731 2.24352 0
M  V30 4316 C 396.57 -0.425519 1.60557 0
M  V30 4317 O 397.755 -0.330453 1.87917 0
M  V30 4318 C 394.895 -0.138248 3.44823 0
M  V30 4319 C 394.008 0.870649 4.23136 0
M  V30 4320 C 393.143 0.164269 5.30946 0
M  V30 4321 C 392.182 1.16159 6.00977 0
M  V30 4322 N 391.319 0.483568 7.00433 0
M  V30 4323 H 396.159 1.41541 2.62241 0
M  V30 4324 H 393.696 0.709013 1.28885 0
M  V30 4325 H 395.654 -0.5494 4.13567 0
M  V30 4326 H 394.284 -0.975721 3.077 0
M  V30 4327 H 393.336 1.40013 3.53696 0
M  V30 4328 H 394.648 1.63014 4.7141 0
M  V30 4329 H 393.802 -0.303653 6.0594 0
M  V30 4330 H 392.541 -0.627733 4.83643 0
M  V30 4331 H 391.546 1.64015 5.24766 0
M  V30 4332 H 392.771 1.95445 6.50368 0
M  V30 4333 H 390.717 -0.289012 6.55363 0
M  V30 4334 H 390.634 1.18152 7.4671 0
M  V30 4335 H 391.902 0.0384219 7.79491 0
M  V30 4336 N 396.131 -1.37776 0.765217 0
M  V30 4337 C 397.356 -2.04651 0.336537 0
M  V30 4338 C 397.781 -1.57337 -1.03086 0
M  V30 4339 O 397.139 -0.730621 -1.65927 0
M  V30 4340 C 397.187 -3.58577 0.381468 0
M  V30 4341 O 396.291 -4.07706 -0.62042 0
M  V30 4342 H 395.632 -0.64756 0.146838 0
M  V30 4343 H 398.162 -1.76221 1.03959 0
M  V30 4344 H 398.172 -4.07314 0.236448 0
M  V30 4345 H 396.847 -3.9237 1.37907 0
M  V30 4346 H 395.424 -3.70306 -0.439056 0
M  V30 4347 N 397.609 -0.515225 -1.4894 0
M  V30 4348 C 398.556 0.255567 -2.29381 0
M  V30 4349 C 399.526 0.947387 -1.36432 0
M  V30 4350 O 400.711 0.951288 -1.65394 0
M  V30 4351 C 397.851 1.30551 -3.19453 0
M  V30 4352 C 396.964 0.624029 -4.27469 0
M  V30 4353 C 396.099 1.65563 -5.0474 0
M  V30 4354 C 395.138 0.956802 -6.04576 0
M  V30 4355 N 394.275 1.93326 -6.74959 0
M  V30 4356 H 399.115 -0.436607 -2.94784 0
M  V30 4357 H 396.652 -0.227154 -1.45336 0
M  V30 4358 H 398.61 1.92639 -3.70062 0
M  V30 4359 H 397.24 1.96626 -2.56004 0
M  V30 4360 H 396.292 -0.110459 -3.8024 0
M  V30 4361 H 397.604 0.0746092 -4.98744 0
M  V30 4362 H 396.758 2.35119 -5.59289 0
M  V30 4363 H 395.497 2.23893 -4.3327 0
M  V30 4364 H 394.502 0.247097 -5.49244 0
M  V30 4365 H 395.727 0.379814 -6.78037 0
M  V30 4366 H 393.673 2.50591 -6.06251 0
M  V30 4367 H 393.59 1.43489 -7.42258 0
M  V30 4368 H 394.858 2.62126 -7.34105 0
M  V30 4369 N 399.087 1.5561 -0.249682 0
M  V30 4370 C 400.364 1.90932 0.424761 0
M  V30 4371 C 400.744 1.17078 1.75658 0
M  V30 4372 O 400.092 0.289176 2.26663 0
M  V30 4373 C 400.302 3.43975 0.590109 0
M  V30 4374 C 401.65 4.15281 0.884714 0
M  V30 4375 O 402.674 3.49729 0.67587 0
M  V30 4376 O 401.533 5.31236 1.28259 0
M  V30 4377 H 398.627 0.794815 0.228468 0
M  V30 4378 H 401.173 1.67135 -0.293954 0
M  V30 4379 H 399.945 3.89748 -0.34818 0
M  V30 4380 H 399.568 3.73644 1.35926 0
M  V30 4381 N 400.565 -0.0233959 1.57583 0
M  V30 4382 C 401.497 -1.04994 2.03737 0
M  V30 4383 C 402.51 -1.32125 0.951152 0
M  V30 4384 O 403.699 -1.29512 1.22837 0
M  V30 4385 C 400.799 -2.39026 2.40249 0
M  V30 4386 C 399.972 -2.31171 3.7132 0
M  V30 4387 C 399.031 -3.47698 3.94959 0
M  V30 4388 O 398.057 -3.26937 4.65941 0
M  V30 4389 N 399.259 -4.6976 3.41037 0
M  V30 4390 H 402.024 -0.656507 2.92421 0
M  V30 4391 H 399.585 -0.211235 1.60516 0
M  V30 4392 H 401.577 -3.15712 2.53196 0
M  V30 4393 H 400.147 -2.70194 1.57207 0
M  V30 4394 H 399.367 -1.39547 3.68674 0
M  V30 4395 H 400.655 -2.23071 4.57293 0
M  V30 4396 H 400.053 -4.89528 2.83512 0
M  V30 4397 H 398.61 -5.43791 3.59353 0
M  V30 4398 N 402.043 -1.548 -0.295768 0
M  V30 4399 C 403.006 -1.85363 -1.34808 0
M  V30 4400 C 404.006 -0.726817 -1.43436 0
M  V30 4401 O 405.196 -0.995088 -1.42981 0
M  V30 4402 C 402.328 -2.03859 -2.73229 0
M  V30 4403 H 403.521 -2.7941 -1.08949 0
M  V30 4404 H 401.074 -1.46942 -0.532702 0
M  V30 4405 H 401.809 -1.12117 -3.04303 0
M  V30 4406 H 401.594 -2.8588 -2.68356 0
M  V30 4407 H 403.084 -2.28857 -3.49305 0
M  V30 4408 N 403.521 0.559213 -1.47345 0
M  V30 4409 C 404.431 1.69388 -1.62311 0
M  V30 4410 C 405.447 1.6648 -0.505993 0
M  V30 4411 O 406.623 1.85964 -0.773262 0
M  V30 4412 C 403.688 3.05894 -1.63185 0
M  V30 4413 C 402.749 3.19885 -2.86307 0
M  V30 4414 C 401.982 4.49879 -2.87131 0
M  V30 4415 O 402.205 5.35217 -1.97229 0
M  V30 4416 O 401.139 4.67618 -3.78968 0
M  V30 4417 H 404.965 1.59706 -2.58317 0
M  V30 4418 H 402.55 0.728989 -1.30407 0
M  V30 4419 H 404.432 3.87133 -1.66451 0
M  V30 4420 H 403.107 3.15964 -0.70345 0
M  V30 4421 H 402.014 2.38052 -2.88587 0
M  V30 4422 H 403.347 3.14718 -3.78435 0
M  V30 4423 N 404.999 1.35443 0.805782 0
M  V30 4424 C 405.909 1.30546 1.94923 0
M  V30 4425 C 406.925 0.210233 1.72725 0
M  V30 4426 O 408.101 0.43975 1.9654 0
M  V30 4427 C 405.166 1.07782 3.29521 0
M  V30 4428 C 404.227 2.26625 3.64609 0
M  V30 4429 C 403.46 2.04938 4.92784 0
M  V30 4430 O 403.683 1.01624 5.61274 0
M  V30 4431 O 402.617 2.9232 5.26149 0
M  V30 4432 H 406.443 2.26779 2.02002 0
M  V30 4433 H 404.028 1.15823 0.943682 0
M  V30 4434 H 405.91 0.969392 4.10098 0
M  V30 4435 H 404.585 0.146003 3.23371 0
M  V30 4436 H 403.492 2.43033 2.84404 0
M  V30 4437 H 404.825 3.18257 3.75464 0
M  V30 4438 N 406.477 -1.02803 1.19454 0
M  V30 4439 C 407.424 -2.11099 0.933046 0
M  V30 4440 C 408.394 -1.65571 -0.132447 0
M  V30 4441 O 409.579 -1.90797 0.00987576 0
M  V30 4442 C 406.719 -3.41763 0.478747 0
M  V30 4443 C 405.832 -4.00833 1.6111 0
M  V30 4444 C 404.967 -5.19511 1.10825 0
M  V30 4445 C 404.006 -5.70639 2.21445 0
M  V30 4446 N 403.143 -6.80589 1.72461 0
M  V30 4447 H 407.983 -2.32804 1.86028 0
M  V30 4448 H 405.52 -1.14179 0.927441 0
M  V30 4449 H 407.478 -4.16736 0.196745 0
M  V30 4450 H 406.108 -3.20166 -0.411493 0
M  V30 4451 H 405.16 -3.23066 2.00829 0
M  V30 4452 H 406.472 -4.34794 2.4445 0
M  V30 4453 H 405.626 -6.01645 0.781533 0
M  V30 4454 H 404.365 -4.87086 0.244606 0
M  V30 4455 H 403.37 -4.87116 2.54947 0
M  V30 4456 H 404.595 -6.05102 3.08267 0
M  V30 4457 H 402.541 -6.50016 0.884056 0
M  V30 4458 H 402.458 -7.13681 2.49389 0
M  V30 4459 H 403.726 -7.66317 1.42755 0
M  V30 4460 N 407.956 -0.998596 -1.21925 0
M  V30 4461 C 409.205 -0.673085 -1.90138 0
M  V30 4462 C 409.518 0.79895 -1.78539 0
M  V30 4463 O 410.724 1.23628 -2.4172 0
M  V30 4464 C 409.18 -1.15339 -3.40918 0
M  V30 4465 C 408.788 -2.65106 -3.61141 0
M  V30 4466 C 410.532 -0.902476 -4.14796 0
M  V30 4467 C 408.439 -3.0671 -5.05651 0
M  V30 4468 H 407.369 -0.248057 -0.712028 0
M  V30 4469 H 410.02 -1.20891 -1.38049 0
M  V30 4470 H 408.402 -0.545658 -3.92223 0
M  V30 4471 H 409.576 -3.31274 -3.20304 0
M  V30 4472 H 407.891 -2.88142 -3.00605 0
M  V30 4473 H 410.488 -1.18895 -5.21314 0
M  V30 4474 H 410.831 0.161349 -4.15987 0
M  V30 4475 H 411.364 -1.47269 -3.69536 0
M  V30 4476 H 408.103 -4.12292 -5.09603 0
M  V30 4477 H 407.623 -2.45249 -5.47369 0
M  V30 4478 H 409.302 -2.9833 -5.74115 0
M  V30 4479 N 409.434 1.37368 -0.772513 0
M  V30 4480 C 410.366 2.28899 -0.117502 0
M  V30 4481 C 411.379 1.4867 0.663405 0
M  V30 4482 O 412.568 1.71314 0.501372 0
M  V30 4483 C 409.668 3.2788 0.857192 0
M  V30 4484 C 408.841 4.37207 0.129938 0
M  V30 4485 C 407.9 5.16257 1.01811 0
M  V30 4486 O 406.926 5.67159 0.481601 0
M  V30 4487 N 408.128 5.31058 2.3443 0
M  V30 4488 H 410.893 2.85752 -0.903662 0
M  V30 4489 H 408.454 1.49353 -0.62493 0
M  V30 4490 H 410.446 3.77647 1.45482 0
M  V30 4491 H 409.016 2.7179 1.54432 0
M  V30 4492 H 408.236 3.88827 -0.648605 0
M  V30 4493 H 409.524 5.07434 -0.372559 0
M  V30 4494 H 408.922 4.91287 2.80452 0
M  V30 4495 H 407.479 5.84131 2.89197 0
M  V30 4496 N 410.912 0.523116 1.48665 0
M  V30 4497 C 411.86 -0.256859 2.31177 0
M  V30 4498 C 412.854 -0.94199 1.40794 0
M  V30 4499 O 414.06 -0.867157 1.57735 0
M  V30 4500 H 410.435 -0.1017 0.745091 0
M  V30 4501 H 412.406 0.458739 2.94853 0
M  V30 4502 C 411.155 -1.29503 3.22683 0
M  V30 4503 H 410.478 -0.777248 3.92172 0
M  V30 4504 H 411.918 -1.81233 3.83315 0
M  V30 4505 C 410.377 -2.32501 2.43813 0
M  V30 4506 O 410.907 -3.3881 2.15803 0
M  V30 4507 N 409.113 -2.05538 2.05432 0
M  V30 4508 H 408.66 -1.19104 2.28412 0
M  V30 4509 H 408.618 -2.74676 1.52973 0
M  V30 4510 N 412.39 -1.55475 0.257931 0
M  V30 4511 C 413.338 -2.23244 -0.653076 0
M  V30 4512 C 414.332 -1.22366 -1.17144 0
M  V30 4513 O 415.538 -1.40347 -1.12706 0
M  V30 4514 H 411.913 -0.716247 -0.229117 0
M  V30 4515 H 413.884 -2.98343 -0.0584788 0
M  V30 4516 C 412.633 -2.95401 -1.83395 0
M  V30 4517 H 411.956 -3.72802 -1.44424 0
M  V30 4518 H 413.396 -3.46165 -2.44838 0
M  V30 4519 C 411.855 -1.99895 -2.71189 0
M  V30 4520 O 412.385 -1.53909 -3.71046 0
M  V30 4521 N 410.591 -1.6676 -2.3799 0
M  V30 4522 H 410.138 -2.04352 -1.56837 0
M  V30 4523 H 410.096 -1.03127 -2.97005 0
M  V30 4524 N 413.868 0.0150385 -1.57593 0
M  V30 4525 C 415.145 0.7392 -1.81094 0
M  V30 4526 C 415.525 1.92817 -0.859344 0
M  V30 4527 O 414.873 2.28301 0.095362 0
M  V30 4528 C 415.083 1.15907 -3.29191 0
M  V30 4529 C 416.431 1.56918 -3.9454 0
M  V30 4530 O 417.455 1.25328 -3.33424 0
M  V30 4531 O 416.314 2.15604 -5.02173 0
M  V30 4532 H 413.408 0.358631 -0.745193 0
M  V30 4533 H 415.954 -0.00926156 -1.69697 0
M  V30 4534 H 414.726 0.310921 -3.90063 0
M  V30 4535 H 414.349 1.96711 -3.45529 0
M  V30 4536 N 415.346 1.54954 0.287554 0
M  V30 4537 C 416.294 1.87606 1.37502 0
M  V30 4538 C 417.288 0.751001 1.51843 0
M  V30 4539 O 418.494 0.935169 1.53801 0
M  V30 4540 H 414.869 0.595231 0.459569 0
M  V30 4541 H 416.84 2.78477 1.07206 0
M  V30 4542 C 415.589 2.15183 2.73115 0
M  V30 4543 H 414.912 3.01234 2.62866 0
M  V30 4544 H 416.352 2.4196 3.48183 0
M  V30 4545 C 414.811 0.954686 3.2309 0
M  V30 4546 O 415.341 0.181949 4.01288 0
M  V30 4547 N 413.547 0.756368 2.80584 0
M  V30 4548 H 413.094 1.38643 2.17108 0
M  V30 4549 H 413.052 -0.0430391 3.14371 0
M  V30 4550 N 416.824 -0.551391 1.4764 0
M  V30 4551 C 418.07 -1.31024 1.54792 0
M  V30 4552 C 418.403 -1.9304 0.211967 0
M  V30 4553 O 417.678 -1.78175 -0.77999 0
M  V30 4554 C 417.961 -2.41593 2.67029 0
M  V30 4555 C 417.814 -1.84408 4.10261 0
M  V30 4556 C 419.133 -3.43488 2.75143 0
M  V30 4557 H 416.252 -0.475031 0.563485 0
M  V30 4558 H 418.894 -0.616454 1.79722 0
M  V30 4559 H 417.044 -3.00772 2.45904 0
M  V30 4560 H 418.716 -1.29445 4.42766 0
M  V30 4561 H 416.959 -1.15051 4.18265 0
M  V30 4562 H 417.63 -2.64367 4.84576 0
M  V30 4563 H 420.106 -2.94236 2.94218 0
M  V30 4564 H 418.982 -4.18274 3.55441 0
M  V30 4565 H 419.243 -4.02703 1.82435 0
M  V30 4566 N 418.302 -1.35869 -0.798587 0
M  V30 4567 C 419.55 -1.29332 -1.55298 0
M  V30 4568 C 419.871 0.129729 -1.94568 0
M  V30 4569 O 419.141 1.06796 -1.6423 0
M  V30 4570 H 417.721 -0.475737 -0.57592 0
M  V30 4571 H 420.383 -1.70062 -0.952093 0
M  V30 4572 H 419.479 -1.91458 -2.46476 0
M  V30 4573 N 419.78 1.02168 -1.19998 0
M  V30 4574 C 420.727 2.10601 -0.944228 0
M  V30 4575 C 421.697 1.65639 0.123664 0
M  V30 4576 O 422.882 1.9079 -0.0199941 0
M  V30 4577 C 420.022 3.41504 -0.496865 0
M  V30 4578 C 419.135 3.99973 -1.63234 0
M  V30 4579 C 418.27 5.18915 -1.13579 0
M  V30 4580 C 417.309 5.69456 -2.24468 0
M  V30 4581 N 416.446 6.79665 -1.76068 0
M  V30 4582 H 421.286 2.31814 -1.8726 0
M  V30 4583 H 418.823 1.13686 -0.933483 0
M  V30 4584 H 420.781 4.16626 -0.218843 0
M  V30 4585 H 419.411 3.2038 0.394508 0
M  V30 4586 H 418.463 3.21997 -2.0254 0
M  V30 4587 H 419.775 4.33492 -2.46752 0
M  V30 4588 H 418.929 6.01222 -0.813429 0
M  V30 4589 H 417.668 4.8695 -0.270434 0
M  V30 4590 H 416.673 4.85757 -2.57526 0
M  V30 4591 H 417.898 6.03459 -3.11472 0
M  V30 4592 H 415.844 6.49538 -0.918516 0
M  V30 4593 H 415.761 7.12349 -2.5317 0
M  V30 4594 H 417.029 7.65549 -1.46817 0
M  V30 4595 N 421.258 1.00505 1.21394 0
M  V30 4596 C 422.669 0.721082 1.72213 0
M  V30 4597 C 423.02 -0.761263 1.80829 0
M  V30 4598 O 422.145 -1.59464 1.46288 0
M  V30 4599 C 422.74 1.30228 3.12772 0
M  V30 4600 C 421.299 1.06743 3.60947 0
M  V30 4601 C 420.446 1.41507 2.38477 0
M  V30 4602 H 423.397 1.17594 1.06571 0
M  V30 4603 H 423.418 0.686955 3.74247 0
M  V30 4604 H 422.93 2.38115 3.06468 0
M  V30 4605 H 421.031 0.00572162 3.726 0
M  V30 4606 H 421.144 1.73936 4.46411 0
M  V30 4607 H 419.508 0.833852 2.40664 0
M  V30 4608 H 420.291 2.50424 2.34824 0
M  V30 4609 N 422.737 -1.36956 0.779787 0
M  V30 4610 C 423.684 -2.30175 0.169697 0
M  V30 4611 C 424.654 -1.51501 -0.68094 0
M  V30 4612 O 425.839 -1.80042 -0.631629 0
M  V30 4613 C 422.979 -3.37985 -0.697131 0
M  V30 4614 C 422.092 -4.31661 0.170992 0
M  V30 4615 C 421.227 -5.2655 -0.701298 0
M  V30 4616 C 420.266 -6.11867 0.168869 0
M  V30 4617 N 419.403 -6.98973 -0.661855 0
M  V30 4618 H 424.243 -2.81767 0.970135 0
M  V30 4619 H 421.78 -1.38699 0.489994 0
M  V30 4620 H 423.738 -3.99128 -1.2146 0
M  V30 4621 H 422.368 -2.87739 -1.46309 0
M  V30 4622 H 421.42 -3.71756 0.80634 0
M  V30 4623 H 422.732 -4.91644 0.841875 0
M  V30 4624 H 421.886 -5.92937 -1.28494 0
M  V30 4625 H 420.625 -4.66998 -1.40584 0
M  V30 4626 H 419.63 -5.44452 0.764986 0
M  V30 4627 H 420.855 -6.73493 0.870863 0
M  V30 4628 H 418.801 -6.41941 -1.35086 0
M  V30 4629 H 418.718 -7.55984 -0.0484447 0
M  V30 4630 H 419.986 -7.6974 -1.22963 0
M  V30 4631 N 424.215 -0.530993 -1.48385 0
M  V30 4632 C 425.44 0.000729535 -2.074 0
M  V30 4633 C 425.865 1.27298 -1.3848 0
M  V30 4634 O 425.223 1.75599 -0.451081 0
M  V30 4635 C 425.271 0.206697 -3.60007 0
M  V30 4636 O 424.375 1.27514 -3.92191 0
M  V30 4637 H 423.716 -0.039583 -0.662819 0
M  V30 4638 H 426.246 -0.739194 -1.9078 0
M  V30 4639 H 426.256 0.42904 -4.05738 0
M  V30 4640 H 424.931 -0.722675 -4.09573 0
M  V30 4641 H 423.508 1.03537 -3.58238 0
M  V30 4642 N 425.693 1.55336 -0.266172 0
M  V30 4643 C 427.109 1.59356 0.0882065 0
M  V30 4644 C 427.309 1.2834 1.55342 0
M  V30 4645 O 426.365 1.03996 2.30089 0
M  V30 4646 C 427.678 2.99409 -0.278364 0
M  V30 4647 C 429.226 3.12196 -0.224243 0
M  V30 4648 C 429.701 4.545 -0.565123 0
M  V30 4649 N 431.192 4.60313 -0.51634 0
M  V30 4650 C 431.927 5.68434 -0.753013 0
M  V30 4651 N 431.423 6.84738 -1.05383 0
M  V30 4652 N 433.216 5.57942 -0.682414 0
M  V30 4653 H 425.367 1.73764 -1.22147 0
M  V30 4654 H 427.63 0.809822 -0.492841 0
M  V30 4655 H 427.336 3.2691 -1.29703 0
M  V30 4656 H 427.21 3.75228 0.385186 0
M  V30 4657 H 429.597 2.84464 0.78512 0
M  V30 4658 H 429.678 2.38609 -0.921922 0
M  V30 4659 H 429.322 4.82956 -1.57213 0
M  V30 4660 H 429.252 5.26374 0.154248 0
M  V30 4661 H 431.743 3.7676 -0.29335 0
M  V30 4662 H 432.056 7.63088 -1.22133 0
M  V30 4663 H 430.401 6.86375 -1.09151 0
M  V30 4664 H 433.592 4.65958 -0.44731 0
M  V30 4665 H 433.765 6.4213 -0.870248 0
M  V30 4666 N 427.171 -0.0066808 1.57599 0
M  V30 4667 C 428.396 -0.707738 1.94951 0
M  V30 4668 C 428.821 -1.66882 0.867868 0
M  V30 4669 O 428.179 -1.80457 -0.17458 0
M  V30 4670 C 428.227 -1.42162 3.31394 0
M  V30 4671 O 427.331 -2.53578 3.25226 0
M  V30 4672 H 426.672 -0.188752 0.636607 0
M  V30 4673 H 429.202 0.0445193 2.04552 0
M  V30 4674 H 429.212 -1.78655 3.66806 0
M  V30 4675 H 427.887 -0.716903 4.09675 0
M  V30 4676 H 426.464 -2.19463 3.01481 0
M  V30 4677 N 428.649 -1.55105 -0.279332 0
M  V30 4678 C 430.06 -1.66186 -0.850832 0
M  V30 4679 C 430.411 -0.584707 -1.87285 0
M  V30 4680 O 429.536 0.274919 -2.14647 0
M  V30 4681 C 430.131 -3.01264 -1.55001 0
M  V30 4682 C 428.69 -3.14394 -2.06963 0
M  V30 4683 C 427.837 -2.61959 -0.909536 0
M  V30 4684 H 430.788 -1.58602 -0.0558235 0
M  V30 4685 H 430.809 -2.93899 -2.41669 0
M  V30 4686 H 430.321 -3.7964 -0.805931 0
M  V30 4687 H 428.422 -2.4078 -2.84352 0
M  V30 4688 H 428.535 -4.20867 -2.28928 0
M  V30 4689 H 426.899 -2.18957 -1.30116 0
M  V30 4690 H 427.682 -3.42833 -0.179062 0
M  V30 4691 N 430.127 0.543554 -1.4793 0
M  V30 4692 C 431.352 1.32995 -1.59145 0
M  V30 4693 C 431.777 1.86472 -0.246956 0
M  V30 4694 O 431.135 1.63696 0.779324 0
M  V30 4695 C 431.183 2.46623 -2.63077 0
M  V30 4696 O 430.287 3.49261 -2.19295 0
M  V30 4697 H 429.628 0.394472 -0.534124 0
M  V30 4698 H 432.158 0.655489 -1.93816 0
M  V30 4699 H 432.168 2.93001 -2.83926 0
M  V30 4700 H 430.843 2.07059 -3.60693 0
M  V30 4701 H 429.42 3.09094 -2.08603 0
M  V30 4702 N 431.605 1.3629 0.791371 0
M  V30 4703 C 433.021 1.16661 1.08914 0
M  V30 4704 C 433.221 -0.0106266 2.01497 0
M  V30 4705 O 432.277 -0.676596 2.43266 0
M  V30 4706 C 433.59 2.47656 1.70549 0
M  V30 4707 C 435.138 2.54002 1.82899 0
M  V30 4708 C 435.613 3.85078 2.47949 0
M  V30 4709 N 437.104 3.86413 2.5542 0
M  V30 4710 C 437.839 4.84572 3.06557 0
M  V30 4711 N 437.335 5.93124 3.58016 0
M  V30 4712 N 439.128 4.71994 3.05251 0
M  V30 4713 H 431.279 2.11668 0.176238 0
M  V30 4714 H 433.542 0.937486 0.140796 0
M  V30 4715 H 433.248 3.34059 1.09989 0
M  V30 4716 H 433.122 2.63319 2.70079 0
M  V30 4717 H 435.509 1.68018 2.42598 0
M  V30 4718 H 435.59 2.42239 0.821808 0
M  V30 4719 H 435.234 4.71467 1.88895 0
M  V30 4720 H 435.164 3.94135 3.49235 0
M  V30 4721 H 437.655 3.07988 2.18979 0
M  V30 4722 H 437.968 6.63999 3.95381 0
M  V30 4723 H 436.313 5.96796 3.56173 0
M  V30 4724 H 439.504 3.86321 2.64336 0
M  V30 4725 H 439.677 5.48653 3.44796 0
M  V30 4726 N 433.083 -1.0153 1.20538 0
M  V30 4727 C 434.033 -2.08482 0.922991 0
M  V30 4728 C 435.017 -1.60469 -0.117702 0
M  V30 4729 O 436.209 -1.76772 0.0898465 0
M  V30 4730 C 433.338 -3.39952 0.478312 0
M  V30 4731 C 432.424 -3.94662 1.5525 0
M  V30 4732 N 432.815 -4.22866 2.77521 0
M  V30 4733 C 431.113 -4.22825 1.41897 0
M  V30 4734 C 431.814 -4.67002 3.4682 0
M  V30 4735 N 430.79 -4.69356 2.74237 0
M  V30 4736 H 434.592 -2.28199 1.85209 0
M  V30 4737 H 432.106 -1.19512 1.09957 0
M  V30 4738 H 434.103 -4.16105 0.257408 0
M  V30 4739 H 432.763 -3.21648 -0.444148 0
M  V30 4740 H 433.774 -4.11732 3.1416 0
M  V30 4741 H 430.451 -4.13714 0.561015 0
M  V30 4742 H 431.841 -4.97632 4.51455 0
M  V30 4743 N 434.561 -1.01147 -1.20859 0
M  V30 4744 C 435.508 -0.577354 -2.23462 0
M  V30 4745 C 436.478 0.399922 -1.61214 0
M  V30 4746 O 437.663 0.300515 -1.88419 0
M  V30 4747 C 434.803 0.083372 -3.44999 0
M  V30 4748 C 433.916 -0.937856 -4.21697 0
M  V30 4749 C 433.051 -0.248717 -5.30617 0
M  V30 4750 C 432.09 -1.25705 -5.99053 0
M  V30 4751 N 431.227 -0.594939 -6.99575 0
M  V30 4752 H 436.067 -1.45695 -2.59956 0
M  V30 4753 H 433.604 -0.729428 -1.27741 0
M  V30 4754 H 435.562 0.483535 -4.14388 0
M  V30 4755 H 434.192 0.926645 -3.09214 0
M  V30 4756 H 433.244 -1.45622 -3.51423 0
M  V30 4757 H 434.556 -1.70493 -4.68757 0
M  V30 4758 H 433.71 0.207215 -6.06346 0
M  V30 4759 H 432.449 0.55071 -4.84581 0
M  V30 4760 H 431.454 -1.72343 -5.2209 0
M  V30 4761 H 432.679 -2.05767 -6.47176 0
M  V30 4762 H 430.625 0.184713 -6.5574 0
M  V30 4763 H 430.542 -1.30017 -7.44736 0
M  V30 4764 H 431.81 -0.162427 -7.79331 0
M  V30 4765 N 436.039 1.36541 -0.78704 0
M  V30 4766 C 437.264 2.0409 -0.369053 0
M  V30 4767 C 437.689 1.58957 1.00569 0
M  V30 4768 O 437.047 0.756926 1.64743 0
M  V30 4769 C 437.095 3.57924 -0.438466 0
M  V30 4770 O 436.199 4.08642 0.555479 0
M  V30 4771 H 435.54 0.645142 -0.157122 0
M  V30 4772 H 438.07 1.74545 -1.06749 0
M  V30 4773 H 438.08 4.06887 -0.301218 0
M  V30 4774 H 436.755 3.90127 -1.44132 0
M  V30 4775 H 435.332 3.70958 0.380088 0
M  V30 4776 N 437.518 0.538854 1.48102 0
M  V30 4777 C 438.465 -0.219042 2.29758 0
M  V30 4778 C 439.435 -0.925562 1.37922 0
M  V30 4779 O 440.62 -0.924855 1.66886 0
M  V30 4780 C 437.76 -1.25452 3.2149 0
M  V30 4781 C 436.873 -0.555943 4.28408 0
M  V30 4782 C 436.008 -1.57512 5.0731 0
M  V30 4783 C 435.047 -0.860498 6.06021 0
M  V30 4784 N 434.184 -1.82564 6.77949 0
M  V30 4785 H 439.024 0.483449 2.94052 0
M  V30 4786 H 436.561 0.250247 1.44956 0
M  V30 4787 H 438.519 -1.86727 3.7308 0
M  V30 4788 H 437.149 -1.92528 2.591 0
M  V30 4789 H 436.201 0.170938 3.80016 0
M  V30 4790 H 437.513 0.00474616 4.988 0
M  V30 4791 H 436.667 -2.26191 5.62959 0
M  V30 4792 H 435.406 -2.16972 4.36778 0
M  V30 4793 H 434.411 -0.159686 5.49568 0
M  V30 4794 H 435.636 -0.271897 6.78555 0
M  V30 4795 H 433.582 -2.40915 6.10161 0
M  V30 4796 H 433.499 -1.31662 7.44447 0
M  V30 4797 H 434.767 -2.50414 7.38182 0
M  V30 4798 N 438.996 -1.55193 0.274407 0
M  V30 4799 C 440.221 -2.04446 -0.348824 0
M  V30 4800 C 440.646 -1.15149 -1.48735 0
M  V30 4801 O 440.004 -0.149952 -1.80679 0
M  V30 4802 C 440.052 -3.51431 -0.808009 0
M  V30 4803 O 439.156 -3.65225 -1.91531 0
M  V30 4804 H 438.497 -0.66006 -0.0722276 0
M  V30 4805 H 441.027 -2.00481 0.408498 0
M  V30 4806 H 441.037 -3.92781 -1.10395 0
M  V30 4807 H 439.712 -4.15892 0.0249865 0
M  V30 4808 H 438.289 -3.35778 -1.62196 0
M  V30 4809 N 440.474 -0.00167713 -1.576 0
M  V30 4810 C 441.421 0.989195 -2.08527 0
M  V30 4811 C 442.391 1.34031 -0.981065 0
M  V30 4812 O 443.576 1.43839 -1.2536 0
M  V30 4813 C 440.716 2.27537 -2.59463 0
M  V30 4814 C 439.829 1.98314 -3.83791 0
M  V30 4815 C 438.964 3.21025 -4.23222 0
M  V30 4816 C 438.003 2.87495 -5.40382 0
M  V30 4817 N 437.14 4.02749 -5.75098 0
M  V30 4818 H 441.98 0.547973 -2.92919 0
M  V30 4819 H 439.517 0.258917 -1.44803 0
M  V30 4820 H 441.475 3.02729 -2.87073 0
M  V30 4821 H 440.105 2.69325 -1.77943 0
M  V30 4822 H 439.157 1.13482 -3.63078 0
M  V30 4823 H 440.469 1.69601 -4.69081 0
M  V30 4824 H 439.623 4.04561 -4.52123 0
M  V30 4825 H 438.362 3.52877 -3.36644 0
M  V30 4826 H 437.367 2.02367 -5.11202 0
M  V30 4827 H 438.592 2.56889 -6.28637 0
M  V30 4828 H 436.538 4.34494 -4.91478 0
M  V30 4829 H 436.455 3.77566 -6.54966 0
M  V30 4830 H 437.723 4.87068 -6.08592 0
M  V30 4831 N 441.952 1.55251 0.271103 0
M  V30 4832 C 443.177 1.80306 1.02491 0
M  V30 4833 C 443.602 0.575457 1.79081 0
M  V30 4834 O 442.96 -0.474987 1.74967 0
M  V30 4835 C 443.008 3.02832 1.95768 0
M  V30 4836 O 442.112 2.78051 3.04568 0
M  V30 4837 H 441.453 0.595896 0.292923 0
M  V30 4838 H 443.983 2.02397 0.299436 0
M  V30 4839 H 443.993 3.31616 2.37686 0
M  V30 4840 H 442.668 3.9183 1.39434 0
M  V30 4841 H 441.245 2.60369 2.66951 0
M  V30 4842 N 443.43 -0.535701 1.48216 0
M  V30 4843 C 444.846 -0.863701 1.3421 0
M  V30 4844 C 445.046 -1.98458 0.34879 0
M  V30 4845 O 444.102 -2.51432 -0.23204 0
M  V30 4846 C 445.415 -1.23662 2.74095 0
M  V30 4847 C 446.963 -1.34683 2.82541 0
M  V30 4848 C 447.438 -1.75322 4.23115 0
M  V30 4849 N 448.929 -1.82434 4.2576 0
M  V30 4850 C 449.664 -2.15252 5.31464 0
M  V30 4851 N 449.16 -2.46533 6.47452 0
M  V30 4852 N 450.953 -2.16209 5.18855 0
M  V30 4853 H 443.104 0.203965 2.11418 0
M  V30 4854 H 445.367 0.0286033 0.947568 0
M  V30 4855 H 445.073 -0.486674 3.48316 0
M  V30 4856 H 444.947 -2.18805 3.07253 0
M  V30 4857 H 447.334 -2.08756 2.08579 0
M  V30 4858 H 447.415 -0.376756 2.5301 0
M  V30 4859 H 447.059 -1.01812 4.97591 0
M  V30 4860 H 446.989 -2.7337 4.50085 0
M  V30 4861 H 449.48 -1.6056 3.42095 0
M  V30 4862 H 449.793 -2.70662 7.23852 0
M  V30 4863 H 448.138 -2.44065 6.50736 0
M  V30 4864 H 451.329 -1.91224 4.2726 0
M  V30 4865 H 451.502 -2.41453 6.01335 0
M  V30 4866 N 444.908 -1.36708 -0.784132 0
M  V30 4867 C 446.133 -1.34565 -1.5782 0
M  V30 4868 C 446.558 0.0695257 -1.87971 0
M  V30 4869 O 445.916 1.04302 -1.48293 0
M  V30 4870 C 445.964 -2.17952 -2.87279 0
M  V30 4871 O 445.068 -1.57563 -3.81114 0
M  V30 4872 H 444.409 -0.460337 -0.478524 0
M  V30 4873 H 446.939 -1.80064 -0.971495 0
M  V30 4874 H 446.949 -2.30721 -3.365 0
M  V30 4875 H 445.624 -3.20823 -2.64661 0
M  V30 4876 H 444.201 -1.53764 -3.39722 0
M  V30 4877 N 446.386 1.0089 -1.21074 0
M  V30 4878 C 447.802 1.2695 -0.967257 0
M  V30 4879 C 448.002 1.9846 0.348673 0
M  V30 4880 O 447.058 2.28459 1.0753 0
M  V30 4881 C 448.371 2.09697 -2.15517 0
M  V30 4882 C 449.919 2.22937 -2.197 0
M  V30 4883 C 450.394 3.09064 -3.37999 0
M  V30 4884 N 451.885 3.16653 -3.38061 0
M  V30 4885 C 452.62 3.8354 -4.26245 0
M  V30 4886 N 452.116 4.52488 -5.2462 0
M  V30 4887 N 453.909 3.80141 -4.14064 0
M  V30 4888 H 446.06 0.529005 -2.05707 0
M  V30 4889 H 448.323 0.296148 -0.900556 0
M  V30 4890 H 448.029 1.64497 -3.10859 0
M  V30 4891 H 447.903 3.10444 -2.14253 0
M  V30 4892 H 450.29 2.67357 -1.24916 0
M  V30 4893 H 450.371 1.21673 -2.2501 0
M  V30 4894 H 450.015 2.65347 -4.33074 0
M  V30 4895 H 449.945 4.10433 -3.29928 0
M  V30 4896 H 452.436 2.67566 -2.66865 0
M  V30 4897 H 452.749 5.01219 -5.88217 0
M  V30 4898 H 451.094 4.51288 -5.28549 0
M  V30 4899 H 454.285 3.25427 -3.36474 0
M  V30 4900 H 454.458 4.31992 -4.82998 0
M  V30 4901 N 447.864 1.01787 1.20321 0
M  V30 4902 C 449.089 0.727009 1.9424 0
M  V30 4903 C 449.514 -0.706179 1.74341 0
M  V30 4904 O 448.872 -1.48609 1.03852 0
M  V30 4905 C 448.92 1.06958 3.44372 0
M  V30 4906 O 448.024 0.181983 4.11998 0
M  V30 4907 H 447.365 0.269626 0.606793 0
M  V30 4908 H 449.895 1.36158 1.52716 0
M  V30 4909 H 449.905 1.02182 3.94997 0
M  V30 4910 H 448.58 2.11378 3.58179 0
M  V30 4911 H 447.157 0.287378 3.71791 0
M  V30 4912 N 449.342 -1.36122 0.79427 0
M  V30 4913 C 450.274 -2.28683 0.153903 0
M  V30 4914 C 451.287 -1.49707 -0.639669 0
M  V30 4915 O 452.476 -1.7209 -0.474054 0
M  V30 4916 C 449.576 -3.29202 -0.804921 0
M  V30 4917 C 448.749 -4.37358 -0.060366 0
M  V30 4918 C 447.808 -5.17811 -0.935849 0
M  V30 4919 O 446.834 -5.67853 -0.391309 0
M  V30 4920 N 448.036 -5.34721 -2.25951 0
M  V30 4921 H 450.801 -2.84278 0.949008 0
M  V30 4922 H 448.362 -1.4834 0.648611 0
M  V30 4923 H 450.354 -3.79914 -1.39455 0
M  V30 4924 H 448.924 -2.74212 -1.50088 0
M  V30 4925 H 448.144 -3.87746 0.710382 0
M  V30 4926 H 449.432 -5.06777 0.45324 0
M  V30 4927 H 448.83 -4.95687 -2.72601 0
M  V30 4928 H 447.387 -5.88657 -2.79867 0
M  V30 4929 N 450.82 -0.546701 -1.47814 0
M  V30 4930 C 451.73 0.21026 -2.33656 0
M  V30 4931 C 452.746 0.922413 -1.47538 0
M  V30 4932 O 453.922 0.893652 -1.80488 0
M  V30 4933 C 450.987 1.23348 -3.24016 0
M  V30 4934 C 450.048 0.529883 -4.26017 0
M  V30 4935 C 449.281 1.50435 -5.12059 0
M  V30 4936 O 449.504 2.73837 -5.00369 0
M  V30 4937 O 448.438 1.03459 -5.92942 0
M  V30 4938 H 452.264 -0.493605 -2.99662 0
M  V30 4939 H 449.849 -0.307427 -1.46203 0
M  V30 4940 H 451.731 1.82438 -3.79861 0
M  V30 4941 H 450.406 1.91945 -2.60651 0
M  V30 4942 H 449.313 -0.101948 -3.73961 0
M  V30 4943 H 450.646 -0.11445 -4.92067 0
M  V30 4944 N 452.299 1.55045 -0.282633 0
M  V30 4945 C 453.715 1.59441 0.0712997 0
M  V30 4946 C 453.915 1.2998 1.53972 0
M  V30 4947 O 452.971 1.06431 2.28973 0
M  V30 4948 C 454.284 2.99097 -0.310104 0
M  V30 4949 C 455.832 3.1194 -0.257343 0
M  V30 4950 C 456.307 4.53875 -0.613297 0
M  V30 4951 N 457.798 4.5974 -0.565134 0
M  V30 4952 C 458.533 5.67603 -0.81326 0
M  V30 4953 N 458.029 6.83582 -1.1264 0
M  V30 4954 N 459.822 5.57187 -0.741553 0
M  V30 4955 H 451.973 1.72458 -1.23984 0
M  V30 4956 H 454.236 0.804549 -0.501403 0
M  V30 4957 H 453.942 3.25516 -1.33163 0
M  V30 4958 H 453.816 3.75616 0.345366 0
M  V30 4959 H 456.203 2.85281 0.754905 0
M  V30 4960 H 456.284 2.37618 -0.947178 0
M  V30 4961 H 455.928 4.81261 -1.62327 0
M  V30 4962 H 455.858 5.26508 0.09841 0
M  V30 4963 H 458.349 3.76427 -0.333294 0
M  V30 4964 H 458.662 7.6175 -1.30219 0
M  V30 4965 H 457.007 6.85179 -1.16425 0
M  V30 4966 H 460.198 4.65457 -0.496705 0
M  V30 4967 H 460.371 6.41171 -0.938306 0
M  V30 4968 N 453.777 0.010035 1.57597 0
M  V30 4969 C 455.193 -0.346164 1.55801 0
M  V30 4970 C 455.393 -1.74144 1.01371 0
M  V30 4971 O 454.449 -2.43938 0.651968 0
M  V30 4972 C 455.762 -0.212216 2.9995 0
M  V30 4973 C 457.31 -0.286409 3.11687 0
M  V30 4974 C 457.785 -0.18147 4.5764 0
M  V30 4975 N 459.276 -0.239056 4.62583 0
M  V30 4976 C 460.011 -0.181351 5.73113 0
M  V30 4977 N 459.507 -0.073661 6.92761 0
M  V30 4978 N 461.3 -0.233949 5.61613 0
M  V30 4979 H 453.451 0.922657 1.91313 0
M  V30 4980 H 455.714 0.354595 0.879185 0
M  V30 4981 H 455.42 0.748169 3.4365 0
M  V30 4982 H 455.294 -0.990224 3.6397 0
M  V30 4983 H 457.681 -1.23724 2.67911 0
M  V30 4984 H 457.762 0.521645 2.50425 0
M  V30 4985 H 457.406 0.765863 5.02093 0
M  V30 4986 H 457.336 -1.00814 5.1686 0
M  V30 4987 H 459.827 -0.32321 3.76515 0
M  V30 4988 H 460.14 -0.0358003 7.72792 0
M  V30 4989 H 458.485 -0.0391461 6.94989 0
M  V30 4990 H 461.676 -0.316347 4.6703 0
M  V30 4991 H 461.849 -0.185514 6.47734 0
M  V30 4992 N 455.255 -1.55392 -0.262866 0
M  V30 4993 C 456.501 -1.76737 -0.99458 0
M  V30 4994 C 456.834 -0.572453 -1.85571 0
M  V30 4995 O 456.109 0.429732 -1.89693 0
M  V30 4996 C 456.392 -3.07824 -1.8686 0
M  V30 4997 C 456.245 -4.3769 -1.03672 0
M  V30 4998 C 457.564 -3.35021 -2.85393 0
M  V30 4999 H 454.683 -0.643005 -0.360157 0
M  V30 5000 H 457.325 -1.88126 -0.266216 0
M  V30 5001 H 455.475 -2.98245 -2.48962 0
M  V30 5002 H 457.147 -4.59238 -0.43563 0
M  V30 5003 H 455.39 -4.32461 -0.340513 0
M  V30 5004 H 456.061 -5.25759 -1.6817 0
M  V30 5005 H 458.537 -3.44458 -2.33426 0
M  V30 5006 H 457.413 -4.27989 -3.43681 0
M  V30 5007 H 457.674 -2.55153 -3.61039 0
M  V30 5008 N 456.733 0.527833 -1.48498 0
M  V30 5009 C 457.643 1.65907 -1.65867 0
M  V30 5010 C 458.659 1.6537 -0.541192 0
M  V30 5011 O 459.835 1.84282 -0.812534 0
M  V30 5012 C 456.9 3.02364 -1.69637 0
M  V30 5013 C 455.961 3.1374 -2.93028 0
M  V30 5014 C 455.194 4.43688 -2.96609 0
M  V30 5015 O 455.417 5.30913 -2.08538 0
M  V30 5016 O 454.351 4.59475 -3.88802 0
M  V30 5017 H 458.177 1.5419 -2.61647 0
M  V30 5018 H 455.762 0.701163 -1.31924 0
M  V30 5019 H 457.644 3.83515 -1.74625 0
M  V30 5020 H 456.319 3.14401 -0.770312 0
M  V30 5021 H 455.226 2.31877 -2.93571 0
M  V30 5022 H 456.559 3.06621 -3.85026 0
M  V30 5023 N 458.211 1.37122 0.776871 0
M  V30 5024 C 459.121 1.34651 1.9211 0
M  V30 5025 C 460.137 0.246824 1.7224 0
M  V30 5026 O 461.313 0.48134 1.95563 0
M  V30 5027 C 458.378 1.14748 3.2716 0
M  V30 5028 C 457.439 2.34308 3.5972 0
M  V30 5029 C 456.672 2.15345 4.88326 0
M  V30 5030 O 456.895 1.13507 5.58992 0
M  V30 5031 O 455.829 3.03414 5.1983 0
M  V30 5032 H 459.655 2.31013 1.97146 0
M  V30 5033 H 457.24 1.17799 0.918901 0
M  V30 5034 H 459.122 1.05616 4.0795 0
M  V30 5035 H 457.797 0.214562 3.22988 0
M  V30 5036 H 456.704 2.49011 2.79185 0
M  V30 5037 H 458.037 3.26149 3.68629 0
M  V30 5038 N 459.689 -1.00246 1.21608 0
M  V30 5039 C 460.599 -2.12515 0.993709 0
M  V30 5040 C 461.615 -1.73913 -0.0549939 0
M  V30 5041 O 462.791 -2.00943 0.135619 0
M  V30 5042 C 459.856 -3.42083 0.563953 0
M  V30 5043 C 458.917 -3.94843 1.68516 0
M  V30 5044 C 458.15 -5.18226 1.27582 0
M  V30 5045 O 458.373 -5.70201 0.150506 0
M  V30 5046 O 457.307 -5.64497 2.0887 0
M  V30 5047 H 461.133 -2.34152 1.93407 0
M  V30 5048 H 458.718 -1.10891 1.00118 0
M  V30 5049 H 460.6 -4.20073 0.334194 0
M  V30 5050 H 459.275 -3.21828 -0.347665 0
M  V30 5051 H 458.182 -3.18068 1.96935 0
M  V30 5052 H 459.515 -4.19512 2.5743 0
M  V30 5053 N 461.167 -1.02423 -1.1978 0
M  V30 5054 C 462.114 -0.601023 -2.22837 0
M  V30 5055 C 463.084 0.382801 -1.61629 0
M  V30 5056 O 464.269 0.280514 -1.88727 0
M  V30 5057 C 461.409 0.0467755 -3.45068 0
M  V30 5058 C 460.522 -0.98253 -4.20678 0
M  V30 5059 C 459.657 -0.304982 -5.30324 0
M  V30 5060 C 458.696 -1.32052 -5.97686 0
M  V30 5061 N 457.833 -0.669105 -6.98904 0
M  V30 5062 H 462.673 -1.48444 -2.58396 0
M  V30 5063 H 460.21 -0.742936 -1.2696 0
M  V30 5064 H 462.168 0.439556 -4.14878 0
M  V30 5065 H 460.798 0.893796 -3.10179 0
M  V30 5066 H 459.85 -1.49341 -3.49859 0
M  V30 5067 H 461.162 -1.75455 -4.66923 0
M  V30 5068 H 460.316 0.142893 -6.06532 0
M  V30 5069 H 459.055 0.499283 -4.85138 0
M  V30 5070 H 458.06 -1.7787 -5.20233 0
M  V30 5071 H 459.285 -2.1262 -6.44957 0
M  V30 5072 H 457.231 0.115152 -6.55899 0
M  V30 5073 H 457.148 -1.37908 -7.43315 0
M  V30 5074 H 458.416 -0.245076 -7.79115 0
M  V30 5075 N 462.645 1.35699 -0.801477 0
M  V30 5076 C 464.061 1.52065 -0.484596 0
M  V30 5077 C 464.261 1.75215 0.995084 0
M  V30 5078 O 463.317 1.79061 1.78026 0
M  V30 5079 C 464.63 2.69908 -1.32552 0
M  V30 5080 C 466.178 2.83784 -1.32044 0
M  V30 5081 C 466.653 4.04646 -2.14536 0
M  V30 5082 N 468.144 4.11814 -2.12046 0
M  V30 5083 C 468.879 5.04437 -2.72636 0
M  V30 5084 N 468.375 6.02426 -3.42133 0
M  V30 5085 N 470.168 4.97144 -2.62305 0
M  V30 5086 H 462.319 1.18928 -1.75983 0
M  V30 5087 H 464.582 0.581455 -0.748741 0
M  V30 5088 H 464.288 2.59363 -2.37537 0
M  V30 5089 H 464.162 3.64376 -0.975181 0
M  V30 5090 H 466.549 2.93783 -0.27846 0
M  V30 5091 H 466.63 1.90188 -1.71062 0
M  V30 5092 H 466.274 3.95407 -3.18772 0
M  V30 5093 H 466.204 4.97413 -1.72882 0
M  V30 5094 H 468.695 3.41664 -1.61476 0
M  V30 5095 H 469.008 6.69688 -3.85666 0
M  V30 5096 H 467.353 6.02615 -3.46237 0
M  V30 5097 H 470.544 4.19546 -2.07603 0
M  V30 5098 H 470.717 5.69138 -3.09815 0
M  V30 5099 N 464.123 0.554532 1.47522 0
M  V30 5100 C 465.371 0.0294208 2.02079 0
M  V30 5101 C 465.692 -1.32411 1.43151 0
M  V30 5102 O 464.962 -1.863 0.605728 0
M  V30 5103 H 463.542 0.00788672 0.746958 0
M  V30 5104 H 466.204 0.723934 1.80956 0
M  V30 5105 H 465.3 -0.0606745 3.12041 0
M  V30 5106 N 465.601 -1.54893 0.290851 0
M  V30 5107 C 466.826 -2.04804 -0.32712 0
M  V30 5108 C 467.251 -1.16721 -1.47506 0
M  V30 5109 O 466.609 -0.169107 -1.8051 0
M  V30 5110 C 466.657 -3.52268 -0.770689 0
M  V30 5111 O 465.761 -3.67236 -1.87647 0
M  V30 5112 H 465.102 -0.660789 -0.0652227 0
M  V30 5113 H 467.632 -2.00036 0.429739 0
M  V30 5114 H 467.642 -3.9393 -1.06223 0
M  V30 5115 H 466.317 -4.15843 0.069096 0
M  V30 5116 H 464.894 -3.37479 -1.58626 0
M  V30 5117 N 467.08 -0.0183926 -1.57589 0
M  V30 5118 C 468.326 0.663543 -1.91638 0
M  V30 5119 C 468.659 1.72392 -0.894134 0
M  V30 5120 O 467.934 1.94316 0.0846449 0
M  V30 5121 C 468.217 1.28984 -3.36207 0
M  V30 5122 C 468.07 0.239761 -4.49161 0
M  V30 5123 C 469.389 2.2109 -3.80536 0
M  V30 5124 H 466.508 0.239746 -0.696915 0
M  V30 5125 H 469.15 -0.073456 -1.89858 0
M  V30 5126 H 467.3 1.91799 -3.37854 0
M  V30 5127 H 468.972 -0.390119 -4.59647 0
M  V30 5128 H 467.215 -0.435972 -4.31604 0
M  V30 5129 H 467.886 0.717383 -5.47319 0
M  V30 5130 H 470.362 1.68273 -3.80557 0
M  V30 5131 H 469.238 2.61869 -4.82406 0
M  V30 5132 H 469.499 3.09764 -3.15434 0
M  V30 5133 N 468.558 1.5553 0.254621 0
M  V30 5134 C 469.783 1.81383 1.00573 0
M  V30 5135 C 470.208 0.594419 1.78461 0
M  V30 5136 O 469.566 -0.456403 1.75461 0
M  V30 5137 C 469.614 3.04892 1.92545 0
M  V30 5138 O 468.718 2.81266 3.01601 0
M  V30 5139 H 468.059 0.598969 0.286587 0
M  V30 5140 H 470.589 2.02703 0.277952 0
M  V30 5141 H 470.599 3.34119 2.34155 0
M  V30 5142 H 469.274 3.93287 1.3527 0
M  V30 5143 H 467.851 2.63185 2.64174 0
M  V30 5144 N 470.036 -0.519951 1.48776 0
M  V30 5145 C 471.452 -0.849418 1.35119 0
M  V30 5146 C 471.652 -1.98077 0.36982 0
M  V30 5147 O 470.708 -2.51664 -0.205359 0
M  V30 5148 C 472.021 -1.20748 2.75391 0
M  V30 5149 C 473.569 -1.31679 2.83954 0
M  V30 5150 C 474.044 -1.70824 4.24951 0
M  V30 5151 N 475.535 -1.77908 4.27672 0
M  V30 5152 C 476.27 -2.09603 5.33717 0
M  V30 5153 N 475.766 -2.39652 6.5003 0
M  V30 5154 N 477.559 -2.10694 5.21119 0
M  V30 5155 H 469.71 0.226377 2.1119 0
M  V30 5156 H 471.973 0.0386519 0.947212 0
M  V30 5157 H 471.679 -0.449703 3.48813 0
M  V30 5158 H 471.553 -2.15534 3.09556 0
M  V30 5159 H 473.94 -2.06532 2.10781 0
M  V30 5160 H 474.021 -0.3499 2.53396 0
M  V30 5161 H 473.665 -0.965282 4.98643 0
M  V30 5162 H 473.595 -2.6858 4.52959 0
M  V30 5163 H 476.086 -1.56923 3.43779 0
M  V30 5164 H 476.399 -2.6297 7.26682 0
M  V30 5165 H 474.744 -2.37149 6.53288 0
M  V30 5166 H 477.935 -1.86682 4.29264 0
M  V30 5167 H 478.108 -2.35062 6.03863 0
M  V30 5168 N 471.514 -1.37532 -0.769588 0
M  V30 5169 C 472.762 -1.32597 -1.5252 0
M  V30 5170 C 473.083 0.0884294 -1.94799 0
M  V30 5171 O 472.353 1.03289 -1.66458 0
M  V30 5172 H 470.933 -0.487846 -0.565699 0
M  V30 5173 H 473.595 -1.72044 -0.915806 0
M  V30 5174 H 472.691 -1.96643 -2.42359 0
M  V30 5175 N 472.992 0.995999 -1.22138 0
M  V30 5176 C 474.408 1.25917 -0.980667 0
M  V30 5177 C 474.608 1.98819 0.327604 0
M  V30 5178 O 473.664 2.29587 1.05101 0
M  V30 5179 C 474.977 2.07399 -2.17729 0
M  V30 5180 C 476.525 2.20594 -2.22052 0
M  V30 5181 C 477 3.05462 -3.41258 0
M  V30 5182 N 478.491 3.13049 -3.41401 0
M  V30 5183 C 479.226 3.78997 -4.30289 0
M  V30 5184 N 478.722 4.46899 -5.2939 0
M  V30 5185 N 480.515 3.75728 -4.18073 0
M  V30 5186 H 472.666 0.507158 -2.06256 0
M  V30 5187 H 474.929 0.28658 -0.903646 0
M  V30 5188 H 474.635 1.61191 -3.12586 0
M  V30 5189 H 474.509 3.08154 -2.17534 0
M  V30 5190 H 476.896 2.66017 -1.27745 0
M  V30 5191 H 476.977 1.1928 -2.26287 0
M  V30 5192 H 476.621 2.60739 -4.35864 0
M  V30 5193 H 476.551 4.06911 -3.34262 0
M  V30 5194 H 479.042 2.64721 -2.69688 0
M  V30 5195 H 479.355 4.94952 -5.935 0
M  V30 5196 H 477.7 4.45657 -5.33306 0
M  V30 5197 H 480.891 3.2184 -3.39907 0
M  V30 5198 H 481.064 4.26845 -4.87553 0
M  V30 5199 N 474.47 1.03057 1.19235 0
M  V30 5200 C 475.695 0.74757 1.93458 0
M  V30 5201 C 476.12 -0.687648 1.7508 0
M  V30 5202 O 475.478 -1.47499 1.05422 0
M  V30 5203 C 475.526 1.10604 3.43219 0
M  V30 5204 O 474.63 0.225671 4.11782 0
M  V30 5205 H 473.971 0.276047 0.603899 0
M  V30 5206 H 476.501 1.3777 1.51263 0
M  V30 5207 H 476.511 1.06366 3.93891 0
M  V30 5208 H 475.186 2.15165 3.55917 0
M  V30 5209 H 473.763 0.326795 3.71465 0
M  V30 5210 N 475.948 -1.35272 0.808662 0
M  V30 5211 C 476.88 -2.28507 0.178149 0
M  V30 5212 C 477.893 -1.50377 -0.623754 0
M  V30 5213 O 479.082 -1.72583 -0.455774 0
M  V30 5214 C 476.182 -3.30038 -0.769959 0
M  V30 5215 C 475.355 -4.37398 -0.0139749 0
M  V30 5216 C 474.414 -5.18775 -0.880875 0
M  V30 5217 O 473.44 -5.68236 -0.331059 0
M  V30 5218 N 474.642 -5.37087 -2.20267 0
M  V30 5219 H 477.407 -2.83255 0.979106 0
M  V30 5220 H 474.968 -1.47643 0.664308 0
M  V30 5221 H 476.96 -3.81371 -1.35418 0
M  V30 5222 H 475.53 -2.75789 -1.47171 0
M  V30 5223 H 474.75 -3.86971 0.751468 0
M  V30 5224 H 476.038 -5.06268 0.506965 0
M  V30 5225 H 475.436 -4.9855 -2.67328 0
M  V30 5226 H 473.993 -5.91593 -2.73608 0
M  V30 5227 N 477.426 -0.562348 -1.47226 0
M  V30 5228 C 478.336 0.185466 -2.33866 0
M  V30 5229 C 479.352 0.906713 -1.48508 0
M  V30 5230 O 480.528 0.874458 -1.81425 0
M  V30 5231 C 477.593 1.19904 -3.25306 0
M  V30 5232 C 476.654 0.484669 -4.26555 0
M  V30 5233 C 475.887 1.44996 -5.13626 0
M  V30 5234 O 476.11 2.68515 -5.03245 0
M  V30 5235 O 475.044 0.971642 -5.94006 0
M  V30 5236 H 478.87 -0.525361 -2.99121 0
M  V30 5237 H 476.455 -0.322916 -1.45868 0
M  V30 5238 H 478.337 1.78399 -3.81774 0
M  V30 5239 H 477.012 1.8917 -2.62672 0
M  V30 5240 H 475.919 -0.141605 -3.73832 0
M  V30 5241 H 477.252 -0.166634 -4.91918 0
M  V30 5242 N 478.904 1.54736 -0.299062 0
M  V30 5243 C 479.851 2.23448 0.577899 0
M  V30 5244 C 480.821 1.21637 1.13109 0
M  V30 5245 O 482.006 1.50252 1.17597 0
M  V30 5246 C 479.146 2.9774 1.74484 0
M  V30 5247 C 478.259 4.1432 1.22323 0
M  V30 5248 C 477.394 4.76199 2.35388 0
M  V30 5249 C 476.433 5.84927 1.80351 0
M  V30 5250 N 475.57 6.4077 2.86982 0
M  V30 5251 H 480.41 2.97996 -0.0146545 0
M  V30 5252 H 477.947 1.47088 -0.0190013 0
M  V30 5253 H 479.905 3.39045 2.43114 0
M  V30 5254 H 478.535 2.25572 2.30905 0
M  V30 5255 H 477.587 3.7797 0.429249 0
M  V30 5256 H 478.899 4.92659 0.780309 0
M  V30 5257 H 478.053 5.20346 3.11969 0
M  V30 5258 H 476.792 3.97188 2.83006 0
M  V30 5259 H 475.797 5.40207 1.02259 0
M  V30 5260 H 477.022 6.65821 1.3364 0
M  V30 5261 H 474.968 5.64643 3.33938 0
M  V30 5262 H 474.885 7.1445 2.4718 0
M  V30 5263 H 476.153 6.89574 3.63466 0
M  V30 5264 N 480.382 0.0267497 1.57577 0
M  V30 5265 C 481.607 -0.666227 1.96408 0
M  V30 5266 C 482.032 -1.65004 0.903071 0
M  V30 5267 O 481.39 -1.80787 -0.136263 0
M  V30 5268 C 481.438 -1.35101 3.34335 0
M  V30 5269 O 480.542 -2.46623 3.30531 0
M  V30 5270 H 479.883 -0.175206 0.640468 0
M  V30 5271 H 482.413 0.0878977 2.04411 0
M  V30 5272 H 482.423 -1.70834 3.70513 0
M  V30 5273 H 481.098 -0.629844 4.11103 0
M  V30 5274 H 479.675 -2.13019 3.06068 0
M  V30 5275 N 481.861 -1.55662 -0.24637 0
M  V30 5276 C 482.791 -1.93377 -1.30873 0
M  V30 5277 C 483.772 -0.798773 -1.50179 0
M  V30 5278 O 484.957 -1.0591 -1.62778 0
M  V30 5279 C 482.087 -2.22893 -2.66338 0
M  V30 5280 C 481.041 -3.38649 -2.61727 0
M  V30 5281 C 480.367 -3.53708 -4.00992 0
M  V30 5282 C 481.667 -4.74323 -2.18666 0
M  V30 5283 H 483.361 -2.82363 -0.995552 0
M  V30 5284 H 480.907 -1.35854 -0.477464 0
M  V30 5285 H 482.86 -2.47866 -3.40794 0
M  V30 5286 H 481.584 -1.30733 -2.99293 0
M  V30 5287 H 480.243 -3.13685 -1.89729 0
M  V30 5288 H 479.891 -2.58967 -4.31214 0
M  V30 5289 H 479.591 -4.31551 -3.98795 0
M  V30 5290 H 481.115 -3.81003 -4.77147 0
M  V30 5291 H 482.529 -4.98665 -2.82854 0
M  V30 5292 H 480.926 -5.55273 -2.27579 0
M  V30 5293 H 481.996 -4.71349 -1.13834 0
M  V30 5294 N 483.339 0.512053 -1.4905 0
M  V30 5295 C 484.755 0.84224 -1.35567 0
M  V30 5296 C 484.955 1.97878 -0.380319 0
M  V30 5297 O 484.011 2.51769 0.19201 0
M  V30 5298 C 485.324 1.19286 -2.76028 0
M  V30 5299 C 486.872 1.30171 -2.84648 0
M  V30 5300 C 487.347 1.68568 -4.25851 0
M  V30 5301 N 488.838 1.75638 -4.28609 0
M  V30 5302 C 489.573 2.06769 -5.34821 0
M  V30 5303 N 489.069 2.36201 -6.51292 0
M  V30 5304 N 490.862 2.07927 -5.22229 0
M  V30 5305 H 483.013 -0.237574 -2.11067 0
M  V30 5306 H 485.276 -0.0436747 -0.946993 0
M  V30 5307 H 484.982 0.431199 -3.49047 0
M  V30 5308 H 484.856 2.13889 -3.10695 0
M  V30 5309 H 487.243 2.05411 -2.11873 0
M  V30 5310 H 487.324 0.336457 -2.53578 0
M  V30 5311 H 486.968 0.938824 -4.99148 0
M  V30 5312 H 486.898 2.66174 -4.54377 0
M  V30 5313 H 489.389 1.55097 -3.44606 0
M  V30 5314 H 489.702 2.59112 -7.28066 0
M  V30 5315 H 488.047 2.33681 -6.54536 0
M  V30 5316 H 491.238 1.84403 -4.30248 0
M  V30 5317 H 491.411 2.31856 -6.05101 0
M  V30 5318 N 484.817 1.37938 0.762283 0
M  V30 5319 C 485.749 1.30349 1.88525 0
M  V30 5320 C 486.762 0.217402 1.61342 0
M  V30 5321 O 487.951 0.474291 1.72084 0
M  V30 5322 C 485.051 0.994844 3.23969 0
M  V30 5323 C 484.224 2.18829 3.78725 0
M  V30 5324 C 483.283 1.84844 4.92665 0
M  V30 5325 O 482.309 2.57244 5.07754 0
M  V30 5326 N 483.511 0.798201 5.74986 0
M  V30 5327 H 486.276 2.27114 1.95549 0
M  V30 5328 H 483.837 1.31686 0.941825 0
M  V30 5329 H 485.829 0.748168 3.97724 0
M  V30 5330 H 484.399 0.115446 3.12387 0
M  V30 5331 H 483.619 2.59615 2.96637 0
M  V30 5332 H 484.907 2.98497 4.1204 0
M  V30 5333 H 484.305 0.197611 5.65355 0
M  V30 5334 H 482.862 0.611396 6.48926 0
M  V30 5335 N 486.295 -0.989507 1.22664 0
M  V30 5336 C 487.52 -1.77031 1.08051 0
M  V30 5337 C 487.945 -1.84535 -0.364483 0
M  V30 5338 O 487.303 -1.3003 -1.2634 0
M  V30 5339 C 487.351 -3.18 1.70024 0
M  V30 5340 O 486.455 -4.01161 0.956216 0
M  V30 5341 H 485.796 -0.545008 0.379292 0
M  V30 5342 H 488.326 -1.24277 1.62531 0
M  V30 5343 H 488.336 -3.68616 1.74888 0
M  V30 5344 H 487.011 -3.11853 2.75174 0
M  V30 5345 H 485.588 -3.59687 0.98384 0
M  V30 5346 N 487.773 -1.03688 -1.18687 0
M  V30 5347 C 489.189 -0.755413 -1.4059 0
M  V30 5348 C 489.389 0.656659 -1.905 0
M  V30 5349 O 488.445 1.42144 -2.08689 0
M  V30 5350 C 489.758 -1.7983 -2.41001 0
M  V30 5351 C 491.306 -1.81877 -2.54735 0
M  V30 5352 C 491.781 -2.85148 -3.58406 0
M  V30 5353 N 493.272 -2.84015 -3.6591 0
M  V30 5354 C 494.007 -3.60573 -4.45841 0
M  V30 5355 N 493.503 -4.46871 -5.29413 0
M  V30 5356 N 495.296 -3.49079 -4.40568 0
M  V30 5357 H 487.447 -1.94818 -0.846148 0
M  V30 5358 H 489.71 -0.842727 -0.434184 0
M  V30 5359 H 489.416 -2.81097 -2.1137 0
M  V30 5360 H 489.29 -1.62727 -3.40294 0
M  V30 5361 H 491.677 -0.812836 -2.83685 0
M  V30 5362 H 491.758 -2.03057 -1.55568 0
M  V30 5363 H 491.402 -3.85918 -3.30197 0
M  V30 5364 H 491.332 -2.61224 -4.57241 0
M  V30 5365 H 493.823 -2.21431 -3.0623 0
M  V30 5366 H 494.136 -5.02007 -5.87545 0
M  V30 5367 H 492.481 -4.5094 -5.28846 0
M  V30 5368 H 495.672 -2.81066 -3.74325 0
M  V30 5369 H 495.845 -4.08994 -5.02621 0
M  V30 5370 N 489.251 1.34841 -0.815825 0
M  V30 5371 C 490.476 2.03261 -0.41226 0
M  V30 5372 C 490.901 1.61055 0.971751 0
M  V30 5373 O 490.259 0.7917 1.63101 0
M  V30 5374 C 490.307 3.56914 -0.514289 0
M  V30 5375 O 489.411 4.09728 0.468675 0
M  V30 5376 H 488.752 0.641664 -0.170771 0
M  V30 5377 H 491.282 1.72241 -1.10427 0
M  V30 5378 H 491.292 4.06156 -0.387457 0
M  V30 5379 H 489.967 3.86982 -1.52375 0
M  V30 5380 H 488.544 3.71681 0.301316 0
M  V30 5381 N 490.729 0.570148 1.46925 0
M  V30 5382 C 492.145 0.23087 1.57921 0
M  V30 5383 C 492.345 -1.26676 1.56702 0
M  V30 5384 O 491.401 -2.04774 1.47729 0
M  V30 5385 C 492.714 0.868973 2.8787 0
M  V30 5386 C 494.262 0.841397 3.01479 0
M  V30 5387 C 494.737 1.45881 4.34146 0
M  V30 5388 N 496.228 1.42258 4.40814 0
M  V30 5389 C 496.963 1.8698 5.42057 0
M  V30 5390 N 496.459 2.39618 6.50042 0
M  V30 5391 N 498.252 1.77972 5.33181 0
M  V30 5392 H 490.403 1.54301 1.45962 0
M  V30 5393 H 492.666 0.644224 0.69547 0
M  V30 5394 H 492.372 1.922 2.94537 0
M  V30 5395 H 492.246 0.369682 3.75384 0
M  V30 5396 H 494.633 -0.202973 2.94401 0
M  V30 5397 H 494.714 1.37858 2.15474 0
M  V30 5398 H 494.358 2.50231 4.4198 0
M  V30 5399 H 494.288 0.896958 5.18905 0
M  V30 5400 H 496.779 1.03768 3.63374 0
M  V30 5401 H 497.092 2.71633 7.23488 0
M  V30 5402 H 495.437 2.43636 6.50897 0
M  V30 5403 H 498.628 1.36617 4.4772 0
M  V30 5404 H 498.801 2.13143 6.11943 0
M  V30 5405 N 492.207 -1.54576 0.307264 0
M  V30 5406 C 493.432 -2.05139 -0.305379 0
M  V30 5407 C 493.857 -1.18278 -1.46259 0
M  V30 5408 O 493.215 -0.188243 -1.8032 0
M  V30 5409 C 493.263 -3.53066 -0.733283 0
M  V30 5410 O 492.367 -3.69206 -1.83741 0
M  V30 5411 H 491.708 -0.661444 -0.0582105 0
M  V30 5412 H 494.238 -1.99569 0.450931 0
M  V30 5413 H 494.248 -3.95034 -1.02039 0
M  V30 5414 H 492.923 -4.15746 0.113198 0
M  V30 5415 H 491.5 -3.39143 -1.55037 0
M  V30 5416 N 493.685 -0.035106 -1.57561 0
M  V30 5417 C 495.101 0.321334 -1.56332 0
M  V30 5418 C 495.301 1.72509 -1.04129 0
M  V30 5419 O 494.357 2.4287 -0.690694 0
M  V30 5420 C 495.67 0.164469 -3.0025 0
M  V30 5421 C 497.218 0.236786 -3.12103 0
M  V30 5422 C 497.693 0.10864 -4.57871 0
M  V30 5423 N 499.184 0.165433 -4.62904 0
M  V30 5424 C 499.919 0.0901506 -5.73329 0
M  V30 5425 N 499.415 -0.0365606 -6.9279 0
M  V30 5426 N 501.208 0.144572 -5.61914 0
M  V30 5427 H 493.359 -0.952976 -1.89821 0
M  V30 5428 H 495.622 -0.368537 -0.873432 0
M  V30 5429 H 495.328 -0.802746 -3.42416 0
M  V30 5430 H 495.202 0.932194 -3.655 0
M  V30 5431 H 497.589 1.19446 -2.69845 0
M  V30 5432 H 497.67 -0.561419 -2.49563 0
M  V30 5433 H 497.314 -0.845644 -5.00811 0
M  V30 5434 H 497.244 0.925786 -5.18398 0
M  V30 5435 H 499.735 0.263269 -3.76982 0
M  V30 5436 H 500.048 -0.0871487 -7.72751 0
M  V30 5437 H 498.393 -0.0714256 -6.94963 0
M  V30 5438 H 501.584 0.242006 -4.67474 0
M  V30 5439 H 501.757 0.0824413 -6.47948 0
M  V30 5440 N 495.163 1.55791 0.238111 0
M  V30 5441 C 496.388 1.8244 0.986432 0
M  V30 5442 C 496.813 0.613314 1.7782 0
M  V30 5443 O 496.171 -0.437767 1.75935 0
M  V30 5444 C 496.219 3.06917 1.893 0
M  V30 5445 O 495.323 2.84449 2.98601 0
M  V30 5446 H 494.664 0.601975 0.280218 0
M  V30 5447 H 497.194 2.02987 0.256437 0
M  V30 5448 H 497.204 3.36583 2.30598 0
M  V30 5449 H 495.879 3.947 1.31091 0
M  V30 5450 H 494.456 2.65972 2.61368 0
M  V30 5451 N 496.642 -0.504142 1.49319 0
M  V30 5452 C 497.589 -1.60603 1.65756 0
M  V30 5453 C 498.559 -1.58425 0.499082 0
M  V30 5454 O 499.744 -1.76459 0.725728 0
M  V30 5455 C 496.884 -2.98764 1.72726 0
M  V30 5456 C 495.997 -3.10982 2.99857 0
M  V30 5457 C 495.132 -4.39857 2.97824 0
M  V30 5458 C 494.171 -4.45697 4.19548 0
M  V30 5459 N 493.308 -5.65995 4.15444 0
M  V30 5460 H 498.148 -1.45895 2.59843 0
M  V30 5461 H 495.685 -0.709891 1.28837 0
M  V30 5462 H 497.643 -3.78839 1.74747 0
M  V30 5463 H 496.273 -3.12183 0.821075 0
M  V30 5464 H 495.325 -2.23991 3.07461 0
M  V30 5465 H 496.637 -3.11157 3.89849 0
M  V30 5466 H 495.791 -5.2825 2.98391 0
M  V30 5467 H 494.53 -4.42242 2.05604 0
M  V30 5468 H 493.535 -3.55707 4.19229 0
M  V30 5469 H 494.76 -4.4503 5.12957 0
M  V30 5470 H 492.706 -5.69229 3.26059 0
M  V30 5471 H 492.623 -5.67773 4.99169 0
M  V30 5472 H 493.891 -6.56604 4.20109 0
M  V30 5473 N 498.12 -1.38341 -0.754957 0
M  V30 5474 C 499.368 -1.34208 -1.51105 0
M  V30 5475 C 499.689 0.0677634 -1.94882 0
M  V30 5476 O 498.959 1.01517 -1.67544 0
M  V30 5477 H 497.539 -0.493819 -0.560493 0
M  V30 5478 H 500.201 -1.73005 -0.897507 0
M  V30 5479 H 499.297 -1.99203 -2.4026 0
M  V30 5480 N 499.598 0.982988 -1.23187 0
M  V30 5481 C 500.846 1.72052 -1.06031 0
M  V30 5482 C 501.167 1.90769 0.404019 0
M  V30 5483 O 500.437 1.47446 1.28982 0
M  V30 5484 H 499.017 0.637499 -0.389363 0
M  V30 5485 H 501.679 1.18338 -1.54862 0
M  V30 5486 H 500.775 2.7111 -1.54615 0
M  V30 5487 N 501.076 1.04316 1.18135 0
M  V30 5488 C 502.301 0.768047 1.92655 0
M  V30 5489 C 502.726 -0.66904 1.758 0
M  V30 5490 O 502.084 -1.46372 1.06981 0
M  V30 5491 C 502.132 1.14239 3.42026 0
M  V30 5492 O 501.236 0.269333 4.1152 0
M  V30 5493 H 500.577 0.282436 0.600937 0
M  V30 5494 H 503.107 1.39367 1.49793 0
M  V30 5495 H 503.117 1.10538 3.92741 0
M  V30 5496 H 501.792 2.18928 3.53615 0
M  V30 5497 H 500.369 0.366175 3.71098 0
M  V30 5498 N 502.554 -1.34406 0.822964 0
M  V30 5499 C 503.97 -1.51275 0.508727 0
M  V30 5500 C 504.17 -1.76776 -0.967083 0
M  V30 5501 O 503.226 -1.81871 -1.75155 0
M  V30 5502 C 504.539 -2.67765 1.36829 0
M  V30 5503 C 506.087 -2.81647 1.36542 0
M  V30 5504 C 506.562 -4.01181 2.20947 0
M  V30 5505 N 508.053 -4.08388 2.18571 0
M  V30 5506 C 508.788 -5.00036 2.80627 0
M  V30 5507 N 508.284 -5.96906 3.51674 0
M  V30 5508 N 510.077 -4.92908 2.70181 0
M  V30 5509 H 502.228 -1.16113 1.77852 0
M  V30 5510 H 504.491 -0.56947 0.757897 0
M  V30 5511 H 504.197 -2.55551 2.41633 0
M  V30 5512 H 504.071 -3.62779 1.03303 0
M  V30 5513 H 506.458 -2.93303 0.325163 0
M  V30 5514 H 506.539 -1.87443 1.74066 0
M  V30 5515 H 506.183 -3.90286 3.25022 0
M  V30 5516 H 506.113 -4.94599 1.80774 0
M  V30 5517 H 508.604 -3.39051 1.66891 0
M  V30 5518 H 508.917 -6.63468 3.96271 0
M  V30 5519 H 507.262 -5.9703 3.5578 0
M  V30 5520 H 510.453 -4.1619 2.14251 0
M  V30 5521 H 510.626 -5.64137 3.18831 0
M  V30 5522 N 504.032 -0.577932 -1.46621 0
M  V30 5523 C 505.257 -0.0652536 -2.07297 0
M  V30 5524 C 505.682 1.22828 -1.4246 0
M  V30 5525 O 505.04 1.74075 -0.506718 0
M  V30 5526 C 505.088 0.0920589 -3.60482 0
M  V30 5527 O 504.192 1.14972 -3.96049 0
M  V30 5528 H 503.533 -0.06065 -0.661224 0
M  V30 5529 H 506.063 -0.799515 -1.88332 0
M  V30 5530 H 506.073 0.299741 -4.06897 0
M  V30 5531 H 504.748 -0.852612 -4.07067 0
M  V30 5532 H 503.325 0.920879 -3.61351 0
M  V30 5533 N 505.51 1.54411 -0.315457 0
M  V30 5534 C 506.926 1.59556 0.037464 0
M  V30 5535 C 507.126 1.33217 1.5118 0
M  V30 5536 O 506.182 1.11264 2.26664 0
M  V30 5537 C 507.495 2.98372 -0.373477 0
M  V30 5538 C 509.043 3.11324 -0.323452 0
M  V30 5539 C 509.518 4.52472 -0.709433 0
M  V30 5540 N 511.009 4.58437 -0.662524 0
M  V30 5541 C 511.744 5.65751 -0.933474 0
M  V30 5542 N 511.24 6.81039 -1.27114 0
M  V30 5543 N 513.033 5.55489 -0.859573 0
M  V30 5544 H 505.184 1.6979 -1.27614 0
M  V30 5545 H 507.447 0.793732 -0.518356 0
M  V30 5546 H 507.153 3.22618 -1.40037 0
M  V30 5547 H 507.027 3.76264 0.265615 0
M  V30 5548 H 509.414 2.86818 0.694223 0
M  V30 5549 H 509.495 2.35555 -0.997367 0
M  V30 5550 H 509.139 4.7771 -1.72498 0
M  V30 5551 H 509.069 5.26598 -0.0132923 0
M  V30 5552 H 511.56 3.75636 -0.413065 0
M  V30 5553 H 511.873 7.58816 -1.46348 0
M  V30 5554 H 510.218 6.82555 -1.30932 0
M  V30 5555 H 513.409 4.64299 -0.595324 0
M  V30 5556 H 513.582 6.39036 -1.0741 0
M  V30 5557 N 506.988 0.0434614 1.5754 0
M  V30 5558 C 508.213 -0.645358 1.97104 0
M  V30 5559 C 508.638 -1.64037 0.920521 0
M  V30 5560 O 507.996 -1.80922 -0.11708 0
M  V30 5561 C 508.044 -1.31547 3.35749 0
M  V30 5562 O 507.148 -2.43103 3.33129 0
M  V30 5563 H 506.489 -0.168403 0.64229 0
M  V30 5564 H 509.019 0.109573 2.04306 0
M  V30 5565 H 509.029 -1.66895 3.72304 0
M  V30 5566 H 507.704 -0.586205 4.11748 0
M  V30 5567 H 506.281 -2.0976 3.0831 0
M  V30 5568 N 508.466 -1.55915 -0.229846 0
M  V30 5569 C 509.882 -1.48721 -0.579166 0
M  V30 5570 C 510.082 -0.736976 -1.87539 0
M  V30 5571 O 509.138 -0.273258 -2.51017 0
M  V30 5572 C 510.451 -2.9323 -0.666082 0
M  V30 5573 C 511.999 -3.03701 -0.757267 0
M  V30 5574 C 512.474 -4.49552 -0.8756 0
M  V30 5575 N 513.965 -4.53561 -0.940035 0
M  V30 5576 C 514.7 -5.63683 -1.05116 0
M  V30 5577 N 514.196 -6.83576 -1.12675 0
M  V30 5578 N 515.989 -5.51516 -1.08565 0
M  V30 5579 H 508.14 -2.03123 0.620857 0
M  V30 5580 H 510.403 -0.922898 0.21671 0
M  V30 5581 H 510.109 -3.51032 0.21664 0
M  V30 5582 H 509.983 -3.44668 -1.53243 0
M  V30 5583 H 512.37 -2.45969 -1.63043 0
M  V30 5584 H 512.451 -2.55446 0.134583 0
M  V30 5585 H 512.095 -5.079 -0.00692351 0
M  V30 5586 H 512.025 -4.95506 -1.78274 0
M  V30 5587 H 514.516 -3.67215 -0.892269 0
M  V30 5588 H 514.829 -7.63251 -1.21109 0
M  V30 5589 H 513.174 -6.86303 -1.09603 0
M  V30 5590 H 516.365 -4.5678 -1.02319 0
M  V30 5591 H 516.538 -6.37372 -1.1688 0
M  V30 5592 N 509.944 0.496216 -1.49584 0
M  V30 5593 C 511.169 1.27865 -1.63295 0
M  V30 5594 C 511.594 1.85592 -0.306156 0
M  V30 5595 O 510.952 1.66092 0.726851 0
M  V30 5596 C 511 2.38128 -2.7079 0
M  V30 5597 O 510.104 3.42108 -2.30296 0
M  V30 5598 H 509.445 0.377279 -0.546403 0
M  V30 5599 H 511.975 0.593497 -1.95803 0
M  V30 5600 H 511.985 2.8382 -2.93104 0
M  V30 5601 H 510.66 1.95479 -3.67098 0
M  V30 5602 H 509.237 3.02301 -2.18331 0
M  V30 5603 N 511.423 1.38739 0.74761 0
M  V30 5604 C 512.839 1.20067 1.05148 0
M  V30 5605 C 513.039 0.0534835 2.01429 0
M  V30 5606 O 512.095 -0.59886 2.45296 0
M  V30 5607 C 513.408 2.52957 1.62584 0
M  V30 5608 C 514.956 2.59692 1.74726 0
M  V30 5609 C 515.431 3.92772 2.35573 0
M  V30 5610 N 516.922 3.94343 2.42997 0
M  V30 5611 C 517.657 4.9408 2.90985 0
M  V30 5612 N 517.153 6.04214 3.38965 0
M  V30 5613 N 518.946 4.81466 2.9008 0
M  V30 5614 H 511.097 2.12121 0.108808 0
M  V30 5615 H 513.36 0.941491 0.110899 0
M  V30 5616 H 513.066 3.37389 0.993051 0
M  V30 5617 H 512.94 2.71779 2.61565 0
M  V30 5618 H 515.327 1.75651 2.3713 0
M  V30 5619 H 515.408 2.44731 0.744326 0
M  V30 5620 H 515.052 4.77238 1.738 0
M  V30 5621 H 514.982 4.05046 3.36519 0
M  V30 5622 H 517.473 3.14799 2.0907 0
M  V30 5623 H 517.786 6.76241 3.74056 0
M  V30 5624 H 516.131 6.07825 3.37007 0
M  V30 5625 H 519.322 3.94535 2.51912 0
M  V30 5626 H 519.495 5.59344 3.27166 0
M  V30 5627 N 512.901 -0.976442 1.23707 0
M  V30 5628 C 514.126 -1.75875 1.09922 0
M  V30 5629 C 514.551 -1.84911 -0.34489 0
M  V30 5630 O 513.909 -1.31363 -1.24954 0
M  V30 5631 C 513.957 -3.16179 1.73388 0
M  V30 5632 O 513.061 -4.00124 0.99871 0
M  V30 5633 H 512.402 -0.540954 0.385052 0
M  V30 5634 H 514.932 -1.22546 1.6384 0
M  V30 5635 H 514.942 -3.66741 1.78788 0
M  V30 5636 H 513.617 -3.08917 2.78466 0
M  V30 5637 H 512.194 -3.58624 1.02193 0
M  V30 5638 N 514.379 -1.04941 -1.1758 0
M  V30 5639 C 515.326 -0.648155 -2.21512 0
M  V30 5640 C 516.296 0.348431 -1.62404 0
M  V30 5641 O 517.481 0.240419 -1.89279 0
M  V30 5642 C 514.621 -0.0264291 -3.4509 0
M  V30 5643 C 513.734 -1.07154 -4.185 0
M  V30 5644 C 512.869 -0.417403 -5.29558 0
M  V30 5645 C 511.908 -1.447 -5.94751 0
M  V30 5646 N 511.045 -0.817203 -6.97328 0
M  V30 5647 H 515.885 -1.53891 -2.55189 0
M  V30 5648 H 513.422 -0.769699 -1.25356 0
M  V30 5649 H 515.38 0.351456 -4.15717 0
M  V30 5650 H 514.01 0.827802 -3.12005 0
M  V30 5651 H 513.062 -1.56728 -3.46613 0
M  V30 5652 H 514.374 -1.8532 -4.63096 0
M  V30 5653 H 513.528 0.0142061 -6.06698 0
M  V30 5654 H 512.267 0.396265 -4.86087 0
M  V30 5655 H 511.272 -1.88865 -5.16343 0
M  V30 5656 H 512.497 -2.26252 -6.40302 0
M  V30 5657 H 510.443 -0.0239995 -6.55996 0
M  V30 5658 H 510.36 -1.53644 -7.40223 0
M  V30 5659 H 511.628 -0.410283 -7.7842 0
M  V30 5660 N 515.857 1.33968 -0.830081 0
M  V30 5661 C 517.082 2.02813 -0.433796 0
M  V30 5662 C 517.507 1.62076 0.954614 0
M  V30 5663 O 516.865 0.808955 1.62252 0
M  V30 5664 C 516.913 3.56348 -0.552115 0
M  V30 5665 O 516.017 4.10202 0.425191 0
M  V30 5666 H 515.358 0.639817 -0.177567 0
M  V30 5667 H 517.888 1.7106 -1.12248 0
M  V30 5668 H 517.898 4.05722 -0.430513 0
M  V30 5669 H 516.573 3.85344 -1.56471 0
M  V30 5670 H 515.15 3.71979 0.261878 0
M  V30 5671 N 517.335 0.585699 1.46312 0
M  V30 5672 C 518.282 -0.145835 2.30339 0
M  V30 5673 C 519.252 -0.881215 1.40797 0
M  V30 5674 O 520.437 -0.871293 1.69744 0
M  V30 5675 C 517.577 -1.15161 3.25318 0
M  V30 5676 C 516.69 -0.419367 4.2996 0
M  V30 5677 C 515.825 -1.41293 5.12064 0
M  V30 5678 C 514.864 -0.667261 6.08452 0
M  V30 5679 N 514.001 -1.60903 6.83414 0
M  V30 5680 H 518.841 0.576755 2.92365 0
M  V30 5681 H 516.378 0.296237 1.44086 0
M  V30 5682 H 518.336 -1.74763 3.78832 0
M  V30 5683 H 516.966 -1.84188 2.65094 0
M  V30 5684 H 516.018 0.291751 3.7928 0
M  V30 5685 H 517.33 0.163433 4.98532 0
M  V30 5686 H 516.484 -2.08167 5.6987 0
M  V30 5687 H 515.223 -2.02966 4.43459 0
M  V30 5688 H 514.228 0.0152356 5.49798 0
M  V30 5689 H 515.453 -0.0558817 6.79077 0
M  V30 5690 H 513.399 -2.21381 6.17516 0
M  V30 5691 H 513.316 -1.07911 7.48259 0
M  V30 5692 H 514.584 -2.26802 7.45775 0
M  V30 5693 N 518.813 -1.54241 0.323641 0
M  V30 5694 C 520.09 -1.92741 -0.333181 0
M  V30 5695 C 520.47 -1.25326 -1.69872 0
M  V30 5696 O 519.818 -0.396991 -2.25025 0
M  V30 5697 C 520.028 -3.46399 -0.425322 0
M  V30 5698 C 521.376 -4.19029 -0.68557 0
M  V30 5699 O 522.4 -3.52555 -0.50824 0
M  V30 5700 O 521.259 -5.36751 -1.02767 0
M  V30 5701 H 518.353 -0.804811 -0.190286 0
M  V30 5702 H 520.899 -1.65542 0.373361 0
M  V30 5703 H 519.671 -3.87643 0.533737 0
M  V30 5704 H 519.294 -3.79704 -1.17944 0
M  V30 5705 N 520.291 -0.0518155 -1.57515 0
M  V30 5706 C 521.238 0.922352 -2.11569 0
M  V30 5707 C 522.208 1.30842 -1.02321 0
M  V30 5708 O 523.393 1.39778 -1.29872 0
M  V30 5709 C 520.533 2.19167 -2.6657 0
M  V30 5710 C 519.646 1.86003 -3.89906 0
M  V30 5711 C 518.781 3.07398 -4.33221 0
M  V30 5712 C 517.82 2.70158 -5.49255 0
M  V30 5713 N 516.957 3.84248 -5.8762 0
M  V30 5714 H 521.797 0.454506 -2.94514 0
M  V30 5715 H 519.334 0.212718 -1.45554 0
M  V30 5716 H 521.292 2.93443 -2.96559 0
M  V30 5717 H 519.922 2.63528 -1.86421 0
M  V30 5718 H 518.974 1.01874 -3.66505 0
M  V30 5719 H 520.286 1.54592 -4.74239 0
M  V30 5720 H 519.44 3.89972 -4.64765 0
M  V30 5721 H 518.179 3.41988 -3.477 0
M  V30 5722 H 517.184 1.86001 -5.17382 0
M  V30 5723 H 518.409 2.36759 -6.36492 0
M  V30 5724 H 516.355 4.18638 -5.05053 0
M  V30 5725 H 516.272 3.56538 -6.66646 0
M  V30 5726 H 517.54 4.6746 -6.2378 0
M  V30 5727 N 521.769 1.56035 0.221574 0
M  V30 5728 C 523.185 1.49026 0.571271 0
M  V30 5729 C 523.385 0.746912 1.87146 0
M  V30 5730 O 522.441 0.286566 2.50869 0
M  V30 5731 C 523.754 2.93579 0.650522 0
M  V30 5732 C 525.302 3.04099 0.741151 0
M  V30 5733 C 525.777 4.5001 0.851747 0
M  V30 5734 N 527.268 4.54053 0.915968 0
M  V30 5735 C 528.003 5.64232 1.02125 0
M  V30 5736 N 527.499 6.84164 1.09049 0
M  V30 5737 N 529.292 5.52084 1.05639 0
M  V30 5738 H 521.443 2.02791 -0.63162 0
M  V30 5739 H 523.706 0.921736 -0.221602 0
M  V30 5740 H 523.412 3.50912 -0.235253 0
M  V30 5741 H 523.286 3.45476 1.51413 0
M  V30 5742 H 525.673 2.4683 1.61737 0
M  V30 5743 H 525.754 2.55371 -0.148128 0
M  V30 5744 H 525.398 5.07896 -0.0200117 0
M  V30 5745 H 525.328 4.96444 1.75644 0
M  V30 5746 H 527.819 3.67683 0.872782 0
M  V30 5747 H 528.132 7.63883 1.1706 0
M  V30 5748 H 526.477 6.86875 1.05962 0
M  V30 5749 H 529.668 4.57317 0.998953 0
M  V30 5750 H 529.841 6.37983 1.13498 0
M  V30 5751 N 523.247 -0.488276 1.49845 0
M  V30 5752 C 524.194 -1.58836 1.67451 0
M  V30 5753 C 525.164 -1.57886 0.515857 0
M  V30 5754 O 526.349 -1.75679 0.744403 0
M  V30 5755 C 523.489 -2.96915 1.75885 0
M  V30 5756 C 522.602 -3.07784 3.03138 0
M  V30 5757 C 521.737 -4.36673 3.02473 0
M  V30 5758 C 520.776 -4.41222 4.24252 0
M  V30 5759 N 519.913 -5.61557 4.21424 0
M  V30 5760 H 524.753 -1.43131 2.61376 0
M  V30 5761 H 522.29 -0.696186 1.29583 0
M  V30 5762 H 524.248 -3.76965 1.78755 0
M  V30 5763 H 522.878 -3.11295 0.85414 0
M  V30 5764 H 521.93 -2.20717 3.09819 0
M  V30 5765 H 523.242 -3.07005 3.93128 0
M  V30 5766 H 522.396 -5.25055 3.03977 0
M  V30 5767 H 521.135 -4.40037 2.10283 0
M  V30 5768 H 520.14 -3.5124 4.22978 0
M  V30 5769 H 521.365 -4.39564 5.17649 0
M  V30 5770 H 519.311 -5.65738 3.32078 0
M  V30 5771 H 519.228 -5.62447 5.05163 0
M  V30 5772 H 520.496 -6.52111 4.2705 0
M  V30 5773 N 524.725 -1.39134 -0.740242 0
M  V30 5774 C 525.973 -1.35803 -1.49673 0
M  V30 5775 C 526.294 0.0470897 -1.94943 0
M  V30 5776 O 525.564 0.997347 -1.68611 0
M  V30 5777 H 524.144 -0.499736 -0.555224 0
M  V30 5778 H 526.806 -1.73947 -0.879107 0
M  V30 5779 H 525.902 -2.0174 -2.38133 0
M  V30 5780 N 526.204 0.969867 -1.24223 0
M  V30 5781 C 527.62 1.23809 -1.00716 0
M  V30 5782 C 527.82 1.99469 0.285358 0
M  V30 5783 O 526.876 2.31764 1.00207 0
M  V30 5784 C 528.189 2.02734 -2.2208 0
M  V30 5785 C 529.737 2.15834 -2.26681 0
M  V30 5786 C 530.212 2.98154 -3.47661 0
M  V30 5787 N 531.703 3.05737 -3.47964 0
M  V30 5788 C 532.438 3.69785 -4.38231 0
M  V30 5789 N 531.934 4.35569 -5.3875 0
M  V30 5790 N 533.727 3.66775 -4.25949 0
M  V30 5791 H 525.878 0.463294 -2.07286 0
M  V30 5792 H 528.141 0.267348 -0.909521 0
M  V30 5793 H 527.847 1.54524 -3.15935 0
M  V30 5794 H 527.721 3.0347 -2.24021 0
M  V30 5795 H 530.108 2.63248 -1.33359 0
M  V30 5796 H 530.189 1.14453 -2.28767 0
M  V30 5797 H 529.833 2.51435 -4.41297 0
M  V30 5798 H 529.763 3.99729 -3.42818 0
M  V30 5799 H 532.254 2.58941 -2.75242 0
M  V30 5800 H 532.567 4.82251 -6.03866 0
M  V30 5801 H 530.912 4.34244 -5.42639 0
M  V30 5802 H 534.103 3.14558 -3.46657 0
M  V30 5803 H 534.276 4.16407 -4.96497 0
M  V30 5804 N 527.682 1.05563 1.17022 0
M  V30 5805 C 528.629 0.659893 2.21165 0
M  V30 5806 C 529.599 -0.339813 1.62587 0
M  V30 5807 O 530.784 -0.230378 1.89404 0
M  V30 5808 C 527.924 0.0447297 3.45071 0
M  V30 5809 C 527.037 1.09372 4.17926 0
M  V30 5810 C 526.172 0.445481 5.29329 0
M  V30 5811 C 525.211 1.47852 5.93975 0
M  V30 5812 N 524.348 0.854172 6.96885 0
M  V30 5813 H 529.188 1.55243 2.54369 0
M  V30 5814 H 526.725 0.776336 1.24946 0
M  V30 5815 H 528.683 -0.329404 4.15898 0
M  V30 5816 H 527.313 -0.811244 3.1244 0
M  V30 5817 H 526.365 1.58564 3.45777 0
M  V30 5818 H 527.677 1.87773 4.62107 0
M  V30 5819 H 526.831 0.0179688 6.06697 0
M  V30 5820 H 525.57 -0.370481 4.86291 0
M  V30 5821 H 524.575 1.91601 5.15334 0
M  V30 5822 H 525.8 2.29645 6.39093 0
M  V30 5823 H 523.746 0.0587882 6.55974 0
M  V30 5824 H 523.663 1.57567 7.39397 0
M  V30 5825 H 524.931 0.451559 7.78191 0
M  V30 5826 N 529.16 -1.33526 0.837174 0
M  V30 5827 C 530.576 -1.50727 0.524743 0
M  V30 5828 C 530.776 -1.77792 -0.948279 0
M  V30 5829 O 529.832 -1.83719 -1.73216 0
M  V30 5830 C 531.145 -2.66299 1.39661 0
M  V30 5831 C 532.693 -2.80183 1.39521 0
M  V30 5832 C 533.168 -3.98815 2.25189 0
M  V30 5833 N 534.659 -4.06047 2.2289 0
M  V30 5834 C 535.394 -4.97032 2.85915 0
M  V30 5835 N 534.89 -5.93143 3.57985 0
M  V30 5836 N 536.683 -4.90015 2.75394 0
M  V30 5837 H 528.834 -1.1422 1.79074 0
M  V30 5838 H 531.097 -0.561399 0.763894 0
M  V30 5839 H 530.803 -2.52974 2.4433 0
M  V30 5840 H 530.677 -3.61663 1.07145 0
M  V30 5841 H 533.064 -2.92942 0.356253 0
M  V30 5842 H 533.145 -1.85586 1.76044 0
M  V30 5843 H 532.789 -3.86817 3.29143 0
M  V30 5844 H 532.719 -4.92654 1.86009 0
M  V30 5845 H 535.21 -3.37262 1.70478 0
M  V30 5846 H 535.523 -6.59227 4.03286 0
M  V30 5847 H 533.868 -5.93223 3.62093 0
M  V30 5848 H 537.059 -4.13894 2.18654 0
M  V30 5849 H 537.232 -5.60724 3.24796 0
M  V30 5850 N 530.638 -0.59345 -1.46 0
M  V30 5851 C 531.863 -0.0872365 -2.07216 0
M  V30 5852 C 532.288 1.2131 -1.43755 0
M  V30 5853 O 531.646 1.73528 -0.525152 0
M  V30 5854 C 531.694 0.0538197 -3.6056 0
M  V30 5855 O 530.798 1.10765 -3.97247 0
M  V30 5856 H 530.139 -0.0676598 -0.660544 0
M  V30 5857 H 532.669 -0.819445 -1.87473 0
M  V30 5858 H 532.679 0.256567 -4.07193 0
M  V30 5859 H 531.354 -0.895739 -4.0614 0
M  V30 5860 H 529.931 0.882501 -3.62307 0
M  V30 5861 N 532.116 1.54067 -0.331816 0
M  V30 5862 C 533.532 1.59587 0.0205388 0
M  V30 5863 C 533.732 1.34813 1.49759 0
M  V30 5864 O 532.788 1.13661 2.25471 0
M  V30 5865 C 534.101 2.97959 -0.405103 0
M  V30 5866 C 535.649 3.10964 -0.356454 0
M  V30 5867 C 536.124 4.51694 -0.757384 0
M  V30 5868 N 537.615 4.57709 -0.71111 0
M  V30 5869 C 538.35 5.64729 -0.993427 0
M  V30 5870 N 537.846 6.79652 -1.3433 0
M  V30 5871 N 539.639 5.54546 -0.918442 0
M  V30 5872 H 531.79 1.68426 -1.29407 0
M  V30 5873 H 534.053 0.78819 -0.526745 0
M  V30 5874 H 533.759 3.21115 -1.43451 0
M  V30 5875 H 533.633 3.76524 0.225692 0
M  V30 5876 H 536.02 2.87538 0.663763 0
M  V30 5877 H 536.101 2.34484 -1.02229 0
M  V30 5878 H 535.745 4.75853 -1.77555 0
M  V30 5879 H 535.675 5.26555 -0.0691444 0
M  V30 5880 H 538.166 3.75176 -0.452883 0
M  V30 5881 H 538.479 7.57221 -1.54388 0
M  V30 5882 H 536.824 6.81128 -1.38164 0
M  V30 5883 H 540.015 4.63641 -0.644536 0
M  V30 5884 H 540.188 6.37861 -1.14181 0
M  V30 5885 N 533.594 0.0601682 1.57485 0
M  V30 5886 C 534.504 -0.926121 2.15546 0
M  V30 5887 C 535.52 -1.33532 1.11558 0
M  V30 5888 O 536.696 -1.4104 1.4377 0
M  V30 5889 C 533.761 -2.17952 2.69625 0
M  V30 5890 C 532.822 -1.82783 3.88444 0
M  V30 5891 C 532.055 -3.02148 4.39935 0
M  V30 5892 O 532.278 -4.15803 3.90466 0
M  V30 5893 O 531.212 -2.82639 5.31412 0
M  V30 5894 H 535.038 -0.462289 3.00161 0
M  V30 5895 H 532.623 -0.162246 1.48516 0
M  V30 5896 H 534.505 -2.91474 3.04337 0
M  V30 5897 H 533.18 -2.63456 1.88077 0
M  V30 5898 H 532.087 -1.06549 3.58606 0
M  V30 5899 H 533.42 -1.42072 4.7125 0
M  V30 5900 N 535.072 -1.5615 -0.213296 0
M  V30 5901 C 535.982 -1.96265 -1.28519 0
M  V30 5902 C 536.998 -0.86765 -1.50824 0
M  V30 5903 O 538.174 -1.17191 -1.63793 0
M  V30 5904 C 535.239 -2.27836 -2.61327 0
M  V30 5905 C 534.3 -3.50949 -2.47252 0
M  V30 5906 C 533.533 -3.81004 -3.73727 0
M  V30 5907 O 533.756 -3.12612 -4.77106 0
M  V30 5908 O 532.69 -4.74477 -3.70344 0
M  V30 5909 H 536.516 -2.87631 -0.974795 0
M  V30 5910 H 534.101 -1.43467 -0.416832 0
M  V30 5911 H 535.983 -2.49299 -3.39747 0
M  V30 5912 H 534.658 -1.39643 -2.9203 0
M  V30 5913 H 533.565 -3.34754 -1.67004 0
M  V30 5914 H 534.898 -4.39551 -2.21486 0
M  V30 5915 N 536.55 0.480323 -1.50102 0
M  V30 5916 C 537.775 1.26126 -1.64642 0
M  V30 5917 C 538.2 1.85257 -0.325823 0
M  V30 5918 O 537.558 1.66854 0.709194 0
M  V30 5919 C 537.606 2.35243 -2.73301 0
M  V30 5920 O 536.71 3.39646 -2.33911 0
M  V30 5921 H 536.051 0.371463 -0.550374 0
M  V30 5922 H 538.581 0.572696 -1.96421 0
M  V30 5923 H 538.591 2.80695 -2.96098 0
M  V30 5924 H 537.266 1.91574 -3.6915 0
M  V30 5925 H 535.843 2.99969 -2.21525 0
M  V30 5926 N 538.028 1.39524 0.732853 0
M  V30 5927 C 539.444 1.21176 1.03868 0
M  V30 5928 C 539.644 0.0748448 2.01361 0
M  V30 5929 O 538.7 -0.57281 2.45917 0
M  V30 5930 C 540.013 2.54667 1.59892 0
M  V30 5931 C 541.561 2.6153 1.71962 0
M  V30 5932 C 542.036 3.95248 2.31394 0
M  V30 5933 N 543.527 3.96899 2.38801 0
M  V30 5934 C 544.262 4.97138 2.85729 0
M  V30 5935 N 543.758 6.07775 3.32537 0
M  V30 5936 N 545.551 4.84516 2.84957 0
M  V30 5937 H 537.702 2.12225 0.086304 0
M  V30 5938 H 539.965 0.942614 0.100907 0
M  V30 5939 H 539.671 3.38423 0.95721 0
M  V30 5940 H 539.545 2.74538 2.58668 0
M  V30 5941 H 541.932 1.78156 2.35254 0
M  V30 5942 H 542.013 2.45507 0.718327 0
M  V30 5943 H 541.657 4.79054 1.68729 0
M  V30 5944 H 541.587 4.08593 3.32204 0
M  V30 5945 H 544.078 3.16998 2.05719 0
M  V30 5946 H 544.391 6.8017 3.66862 0
M  V30 5947 H 542.736 6.11366 3.30541 0
M  V30 5948 H 545.927 3.97185 2.47713 0
M  V30 5949 H 546.1 5.62783 3.21215 0
M  V30 5950 N 539.506 -0.963266 1.24736 0
M  V30 5951 C 540.731 -1.74699 1.11781 0
M  V30 5952 C 541.156 -1.85267 -0.325258 0
M  V30 5953 O 540.514 -1.32681 -1.23553 0
M  V30 5954 C 540.562 -3.14322 1.76731 0
M  V30 5955 O 539.666 -3.99043 1.04109 0
M  V30 5956 H 539.007 -0.53684 0.390767 0
M  V30 5957 H 541.537 -1.20801 1.65131 0
M  V30 5958 H 541.547 -3.64824 1.82668 0
M  V30 5959 H 540.222 -3.05946 2.81726 0
M  V30 5960 H 538.799 -3.5752 1.05991 0
M  V30 5961 N 540.985 -1.06182 -1.16461 0
M  V30 5962 C 542.401 -0.785065 -1.38956 0
M  V30 5963 C 542.601 0.616103 -1.9185 0
M  V30 5964 O 541.657 1.37686 -2.11657 0
M  V30 5965 C 542.97 -1.84902 -2.37132 0
M  V30 5966 C 544.518 -1.8724 -2.50819 0
M  V30 5967 C 544.993 -2.92686 -3.52277 0
M  V30 5968 N 546.484 -2.91712 -3.59803 0
M  V30 5969 C 547.219 -3.69949 -4.38093 0
M  V30 5970 N 546.715 -4.58 -5.19815 0
M  V30 5971 N 548.508 -3.58346 -4.33064 0
M  V30 5972 H 540.659 -1.96569 -0.804634 0
M  V30 5973 H 542.922 -0.851747 -0.416211 0
M  V30 5974 H 542.628 -2.85518 -2.0536 0
M  V30 5975 H 542.502 -1.69908 -3.36766 0
M  V30 5976 H 544.889 -0.872827 -2.81897 0
M  V30 5977 H 544.97 -2.06311 -1.51226 0
M  V30 5978 H 544.614 -3.92835 -3.21937 0
M  V30 5979 H 544.544 -2.70864 -4.51598 0
M  V30 5980 H 547.035 -2.27876 -3.01464 0
M  V30 5981 H 547.348 -5.14357 -5.76764 0
M  V30 5982 H 545.693 -4.62056 -5.19162 0
M  V30 5983 H 548.884 -2.88943 -3.68279 0
M  V30 5984 H 549.057 -4.19563 -4.93833 0
M  V30 5985 N 542.463 1.3308 -0.844243 0
M  V30 5986 C 543.688 2.02341 -0.455282 0
M  V30 5987 C 544.113 1.6308 0.93737 0
M  V30 5988 O 543.471 0.826118 1.61385 0
M  V30 5989 C 543.519 3.55743 -0.58988 0
M  V30 5990 O 542.623 4.1063 0.38166 0
M  V30 5991 H 541.964 0.637898 -0.184343 0
M  V30 5992 H 544.494 1.6986 -1.14056 0
M  V30 5993 H 544.504 4.05243 -0.473522 0
M  V30 5994 H 543.179 3.83662 -1.60549 0
M  V30 5995 H 541.756 3.72236 0.22241 0
M  V30 5996 N 543.941 0.601185 1.45683 0
M  V30 5997 C 545.357 0.264315 1.57396 0
M  V30 5998 C 545.557 -1.23324 1.59353 0
M  V30 5999 O 544.613 -2.01594 1.52039 0
M  V30 6000 C 545.926 0.929839 2.85962 0
M  V30 6001 C 547.474 0.905156 2.99626 0
M  V30 6002 C 547.949 1.55057 4.30954 0
M  V30 6003 N 549.44 1.51576 4.37697 0
M  V30 6004 C 550.175 1.98436 5.37969 0
M  V30 6005 N 549.671 2.53352 6.44813 0
M  V30 6006 N 551.464 1.89242 5.29286 0
M  V30 6007 H 543.615 1.57363 1.42656 0
M  V30 6008 H 545.878 0.658831 0.681649 0
M  V30 6009 H 545.584 1.98404 2.90394 0
M  V30 6010 H 545.458 0.449224 3.74515 0
M  V30 6011 H 547.845 -0.14048 2.94765 0
M  V30 6012 H 547.926 1.42397 2.12501 0
M  V30 6013 H 547.57 2.5955 4.36573 0
M  V30 6014 H 547.5 1.00682 5.16886 0
M  V30 6015 H 549.991 1.11452 3.61091 0
M  V30 6016 H 550.304 2.86918 7.17564 0
M  V30 6017 H 548.649 2.57388 6.45582 0
M  V30 6018 H 551.84 1.46083 4.44722 0
M  V30 6019 H 552.013 2.26075 6.07284 0
M  V30 6020 N 545.419 -1.53889 0.339982 0
M  V30 6021 C 546.644 -2.05741 -0.261798 0
M  V30 6022 C 547.069 -1.21354 -1.43718 0
M  V30 6023 O 546.427 -0.22645 -1.7988 0
M  V30 6024 C 546.475 -3.54542 -0.658228 0
M  V30 6025 O 545.579 -3.7302 -1.75869 0
M  V30 6026 H 544.92 -0.662529 -0.0441672 0
M  V30 6027 H 547.45 -1.98568 0.493161 0
M  V30 6028 H 547.46 -3.9711 -0.936368 0
M  V30 6029 H 546.135 -4.15412 0.201358 0
M  V30 6030 H 544.712 -3.42355 -1.47809 0
M  V30 6031 N 546.897 -0.0685191 -1.57451 0
M  V30 6032 C 548.313 0.288101 -1.56978 0
M  V30 6033 C 548.513 1.70262 -1.07765 0
M  V30 6034 O 547.569 2.4135 -0.742054 0
M  V30 6035 C 548.882 0.100745 -3.00531 0
M  V30 6036 C 550.43 0.170531 -3.12535 0
M  V30 6037 C 550.905 0.0114944 -4.57999 0
M  V30 6038 N 552.396 0.0672065 -4.63151 0
M  V30 6039 C 553.131 -0.0314813 -5.73391 0
M  V30 6040 N 552.627 -0.183503 -6.92557 0
M  V30 6041 N 554.42 0.0253489 -5.62094 0
M  V30 6042 H 546.571 -0.993026 -1.87757 0
M  V30 6043 H 548.834 -0.386981 -0.865419 0
M  V30 6044 H 548.54 -0.875197 -3.40636 0
M  V30 6045 H 548.414 0.854457 -3.67395 0
M  V30 6046 H 550.801 1.13696 -2.72318 0
M  V30 6047 H 550.882 -0.614229 -2.48316 0
M  V30 6048 H 550.526 -0.951684 -4.98904 0
M  V30 6049 H 550.456 0.815617 -5.20245 0
M  V30 6050 H 552.947 0.183246 -3.77455 0
M  V30 6051 H 553.26 -0.251041 -7.72392 0
M  V30 6052 H 551.605 -0.218822 -6.94655 0
M  V30 6053 H 554.796 0.142794 -4.67882 0
M  V30 6054 H 554.969 -0.0550166 -6.47977 0
M  V30 6055 N 548.375 1.56261 0.205012 0
M  V30 6056 C 549.6 1.84491 0.947512 0
M  V30 6057 C 550.025 0.650894 1.76479 0
M  V30 6058 O 549.383 -0.40035 1.76824 0
M  V30 6059 C 549.431 3.10863 1.82747 0
M  V30 6060 O 548.535 2.90719 2.925 0
M  V30 6061 H 547.876 0.607783 0.267386 0
M  V30 6062 H 550.406 2.03485 0.213323 0
M  V30 6063 H 550.416 3.41399 2.23407 0
M  V30 6064 H 549.091 3.97392 1.2269 0
M  V30 6065 H 547.668 2.71457 2.55667 0
M  V30 6066 N 549.853 -0.472356 1.50355 0
M  V30 6067 C 550.8 -1.57051 1.69126 0
M  V30 6068 C 551.77 -1.5733 0.532574 0
M  V30 6069 O 552.955 -1.7488 0.762994 0
M  V30 6070 C 550.095 -2.95033 1.79024 0
M  V30 6071 C 549.208 -3.04552 3.06386 0
M  V30 6072 C 548.343 -4.33441 3.07087 0
M  V30 6073 C 547.382 -4.36697 4.28908 0
M  V30 6074 N 546.519 -5.57056 4.27356 0
M  V30 6075 H 551.359 -1.40351 2.62879 0
M  V30 6076 H 548.896 -0.682403 1.30314 0
M  V30 6077 H 550.854 -3.75048 1.82744 0
M  V30 6078 H 549.484 -3.10371 0.887109 0
M  V30 6079 H 548.536 -2.17419 3.12143 0
M  V30 6080 H 549.848 -3.02818 3.96362 0
M  V30 6081 H 549.002 -5.21801 3.09529 0
M  V30 6082 H 547.741 -4.37782 2.14939 0
M  V30 6083 H 546.746 -3.46734 4.2668 0
M  V30 6084 H 547.971 -4.34049 5.22282 0
M  V30 6085 H 545.917 -5.62184 3.3806 0
M  V30 6086 H 545.834 -5.57058 5.111 0
M  V30 6087 H 547.102 -6.47545 4.33942 0
M  V30 6088 N 551.331 -1.39911 -0.725443 0
M  V30 6089 C 552.556 -1.41137 -1.5197 0
M  V30 6090 C 552.981 -0.010262 -1.88097 0
M  V30 6091 O 552.339 0.979184 -1.52583 0
M  V30 6092 C 552.387 -2.2994 -2.77777 0
M  V30 6093 O 551.491 -1.73586 -3.74088 0
M  V30 6094 H 550.832 -0.480219 -0.458569 0
M  V30 6095 H 553.362 -1.84023 -0.894249 0
M  V30 6096 H 553.372 -2.44785 -3.26411 0
M  V30 6097 H 552.047 -3.31759 -2.50816 0
M  V30 6098 H 550.624 -1.68035 -3.32894 0
M  V30 6099 N 552.809 0.956637 -1.25245 0
M  V30 6100 C 553.719 2.0868 -1.0719 0
M  V30 6101 C 554.735 1.73997 -0.00959074 0
M  V30 6102 O 555.911 2.00301 -0.210104 0
M  V30 6103 C 552.976 3.39754 -0.690526 0
M  V30 6104 C 552.037 3.88316 -1.83055 0
M  V30 6105 C 551.27 5.13134 -1.46728 0
M  V30 6106 O 551.493 5.6925 -0.362029 0
M  V30 6107 O 550.427 5.56356 -2.29677 0
M  V30 6108 H 554.253 2.26813 -2.01965 0
M  V30 6109 H 551.838 1.07098 -1.04165 0
M  V30 6110 H 553.72 4.18543 -0.489871 0
M  V30 6111 H 552.395 3.22896 0.227981 0
M  V30 6112 H 551.302 3.1054 -2.08604 0
M  V30 6113 H 552.635 4.09669 -2.72822 0
M  V30 6114 N 554.287 1.06798 1.15896 0
M  V30 6115 C 555.703 0.792423 1.38538 0
M  V30 6116 C 555.903 -0.60592 1.92174 0
M  V30 6117 O 554.959 -1.36561 2.12385 0
M  V30 6118 C 556.272 1.86157 2.36149 0
M  V30 6119 C 557.82 1.88567 2.49823 0
M  V30 6120 C 558.295 2.9455 3.5072 0
M  V30 6121 N 559.786 2.93616 3.58251 0
M  V30 6122 C 560.521 3.72267 4.36125 0
M  V30 6123 N 560.017 4.60751 5.17379 0
M  V30 6124 N 561.81 3.60637 4.31158 0
M  V30 6125 H 553.961 1.96993 0.794198 0
M  V30 6126 H 556.224 0.853942 0.411688 0
M  V30 6127 H 555.93 2.86603 2.03843 0
M  V30 6128 H 555.804 1.71692 3.3586 0
M  V30 6129 H 558.191 0.887765 2.8143 0
M  V30 6130 H 558.272 2.0711 1.5013 0
M  V30 6131 H 557.916 3.94537 3.19849 0
M  V30 6132 H 557.846 2.73255 4.50155 0
M  V30 6133 H 560.337 2.29472 3.00252 0
M  V30 6134 H 560.65 5.17408 5.74028 0
M  V30 6135 H 558.995 4.64803 5.16704 0
M  V30 6136 H 562.186 2.90892 3.66742 0
M  V30 6137 H 562.359 4.22176 4.91601 0
M  V30 6138 N 555.766 -1.3263 0.851289 0
M  V30 6139 C 556.991 -2.02097 0.466006 0
M  V30 6140 C 557.416 -1.63574 -0.928709 0
M  V30 6141 O 556.774 -0.834665 -1.60944 0
M  V30 6142 C 556.822 -3.55425 0.608737 0
M  V30 6143 O 555.926 -4.10827 -0.359878 0
M  V30 6144 H 555.267 -0.636911 0.187724 0
M  V30 6145 H 557.797 -1.69253 1.14955 0
M  V30 6146 H 557.807 -4.04986 0.495006 0
M  V30 6147 H 556.482 -3.82806 1.62581 0
M  V30 6148 H 555.059 -3.72349 -0.202666 0
M  V30 6149 N 557.244 -0.608902 -1.45362 0
M  V30 6150 C 558.66 -0.272659 -1.57254 0
M  V30 6151 C 558.86 1.22477 -1.60005 0
M  V30 6152 O 557.916 2.00785 -1.53106 0
M  V30 6153 C 559.229 -0.944991 -2.85465 0
M  V30 6154 C 560.777 -0.921033 -2.99142 0
M  V30 6155 C 561.252 -1.5734 -4.30126 0
M  V30 6156 N 562.743 -1.53895 -4.36887 0
M  V30 6157 C 563.478 -2.01286 -5.36909 0
M  V30 6158 N 562.974 -2.56768 -6.43461 0
M  V30 6159 N 564.767 -1.92046 -5.28275 0
M  V30 6160 H 556.918 -1.58117 -1.4182 0
M  V30 6161 H 559.181 -0.662437 -0.678146 0
M  V30 6162 H 558.887 -1.99941 -2.89338 0
M  V30 6163 H 558.761 -0.469079 -3.74272 0
M  V30 6164 H 561.148 0.124846 -2.94836 0
M  V30 6165 H 561.229 -1.43522 -2.11743 0
M  V30 6166 H 560.873 -2.61862 -4.35191 0
M  V30 6167 H 560.803 -1.03422 -5.16344 0
M  V30 6168 H 563.294 -1.13366 -3.60495 0
M  V30 6169 H 563.607 -2.9072 -7.16032 0
M  V30 6170 H 561.952 -2.60808 -6.44208 0
M  V30 6171 H 565.143 -1.48439 -4.43941 0
M  V30 6172 H 565.316 -2.29293 -6.06077 0
M  V30 6173 N 558.722 1.53707 -0.348139 0
M  V30 6174 C 559.669 2.25173 0.506518 0
M  V30 6175 C 560.639 1.25174 1.09182 0
M  V30 6176 O 561.824 1.53917 1.12757 0
M  V30 6177 C 558.964 3.03141 1.64923 0
M  V30 6178 C 558.077 4.18002 1.0908 0
M  V30 6179 C 557.212 4.83447 2.20119 0
M  V30 6180 C 556.251 5.90369 1.61651 0
M  V30 6181 N 555.388 6.49575 2.66451 0
M  V30 6182 H 560.228 2.97799 -0.109452 0
M  V30 6183 H 557.765 1.46953 -0.0657866 0
M  V30 6184 H 559.723 3.46607 2.32205 0
M  V30 6185 H 558.353 2.32803 2.23612 0
M  V30 6186 H 557.405 3.79145 0.308783 0
M  V30 6187 H 558.717 4.94892 0.623178 0
M  V30 6188 H 557.871 5.30008 2.95257 0
M  V30 6189 H 556.61 4.05991 2.70227 0
M  V30 6190 H 555.615 5.43186 0.850209 0
M  V30 6191 H 556.84 6.69735 1.1239 0
M  V30 6192 H 554.786 5.74981 3.15805 0
M  V30 6193 H 554.703 7.21952 2.24325 0
M  V30 6194 H 555.971 7.00789 3.41344 0
M  V30 6195 N 560.2 0.0768682 1.57412 0
M  V30 6196 C 561.616 -0.279772 1.57129 0
M  V30 6197 C 561.816 -1.69688 1.08666 0
M  V30 6198 O 560.872 -2.40953 0.754843 0
M  V30 6199 C 562.185 -0.0848055 3.0058 0
M  V30 6200 C 563.733 -0.153954 3.12621 0
M  V30 6201 C 564.208 0.0127946 4.57998 0
M  V30 6202 N 565.699 -0.0426435 4.6318 0
M  V30 6203 C 566.434 0.0618892 5.73367 0
M  V30 6204 N 565.93 0.220229 6.9245 0
M  V30 6205 N 567.723 0.00446072 5.621 0
M  V30 6206 H 559.874 1.00297 1.87228 0
M  V30 6207 H 562.137 0.391565 0.863354 0
M  V30 6208 H 561.843 0.89325 3.40168 0
M  V30 6209 H 561.717 -0.834961 3.67843 0
M  V30 6210 H 564.104 -1.1225 2.72917 0
M  V30 6211 H 564.185 0.627389 2.47987 0
M  V30 6212 H 563.829 0.978128 4.98392 0
M  V30 6213 H 563.759 -0.788016 5.20671 0
M  V30 6214 H 566.25 -0.163226 3.77547 0
M  V30 6215 H 566.563 0.291999 7.72248 0
M  V30 6216 H 564.908 0.255658 6.9453 0
M  V30 6217 H 568.099 -0.117979 4.67951 0
M  V30 6218 H 568.272 0.0893796 6.47938 0
M  V30 6219 N 561.678 -1.56367 -0.196722 0
M  V30 6220 C 562.926 -1.80172 -0.915554 0
M  V30 6221 C 563.247 -0.649649 -1.8386 0
M  V30 6222 O 562.517 0.332111 -1.93064 0
M  V30 6223 H 561.097 -0.664592 -0.341067 0
M  V30 6224 H 563.759 -1.93844 -0.202622 0
M  V30 6225 H 562.855 -2.7327 -1.50764 0
M  V30 6226 N 563.156 0.464375 -1.50603 0
M  V30 6227 C 564.381 1.24372 -1.65971 0
M  V30 6228 C 564.806 1.84901 -0.345453 0
M  V30 6229 O 564.164 1.67596 0.691457 0
M  V30 6230 C 564.212 2.32331 -2.7578 0
M  V30 6231 O 563.316 3.37146 -2.375 0
M  V30 6232 H 562.657 0.365604 -0.554283 0
M  V30 6233 H 565.187 0.55183 -1.97018 0
M  V30 6234 H 565.197 2.77539 -2.99059 0
M  V30 6235 H 563.872 1.87648 -3.71162 0
M  V30 6236 H 562.449 2.97602 -2.24694 0
M  V30 6237 N 564.634 1.40294 0.718013 0
M  V30 6238 C 565.581 1.40367 1.8321 0
M  V30 6239 C 566.551 0.260952 1.64037 0
M  V30 6240 O 567.736 0.458648 1.85205 0
M  V30 6241 C 564.876 1.26965 3.20895 0
M  V30 6242 C 563.989 2.50922 3.51656 0
M  V30 6243 C 563.124 2.29981 4.78834 0
M  V30 6244 C 562.163 3.49527 5.02491 0
M  V30 6245 N 561.3 3.27796 6.20882 0
M  V30 6246 H 566.14 2.35593 1.82482 0
M  V30 6247 H 563.677 1.17012 0.891444 0
M  V30 6248 H 565.635 1.17202 4.00399 0
M  V30 6249 H 564.265 0.353591 3.20858 0
M  V30 6250 H 563.317 2.71223 2.66725 0
M  V30 6251 H 564.629 3.39913 3.65048 0
M  V30 6252 H 563.783 2.17558 5.66351 0
M  V30 6253 H 562.522 1.38411 4.67647 0
M  V30 6254 H 561.527 3.6243 4.1343 0
M  V30 6255 H 562.752 4.42021 5.15553 0
M  V30 6256 H 560.698 2.38906 6.1095 0
M  V30 6257 H 560.615 4.10351 6.34939 0
M  V30 6258 H 561.883 3.19101 7.11193 0
M  V30 6259 N 566.112 -0.949982 1.2575 0
M  V30 6260 C 567.528 -1.22191 1.02672 0
M  V30 6261 C 567.728 -1.99898 -0.253588 0
M  V30 6262 O 566.784 -2.33329 -0.965076 0
M  V30 6263 C 568.097 -1.99175 2.25277 0
M  V30 6264 C 569.645 -2.12201 2.30087 0
M  V30 6265 C 570.12 -2.92586 3.5236 0
M  V30 6266 N 571.611 -3.00163 3.52784 0
M  V30 6267 C 572.346 -3.62766 4.44059 0
M  V30 6268 N 571.842 -4.26943 5.45611 0
M  V30 6269 N 573.635 -3.59953 4.3173 0
M  V30 6270 H 565.786 -0.430258 2.07996 0
M  V30 6271 H 568.049 -0.252844 0.91366 0
M  V30 6272 H 567.755 -1.49479 3.18354 0
M  V30 6273 H 567.629 -2.99868 2.28821 0
M  V30 6274 H 570.016 -2.61093 1.3753 0
M  V30 6275 H 570.097 -1.10799 2.30559 0
M  V30 6276 H 569.741 -2.44383 4.45241 0
M  V30 6277 H 569.671 -3.94224 3.49134 0
M  V30 6278 H 572.162 -2.54529 2.79327 0
M  V30 6279 H 572.475 -4.72583 6.11461 0
M  V30 6280 H 570.82 -4.25557 5.49478 0
M  V30 6281 H 574.011 -3.09003 3.51617 0
M  V30 6282 H 574.184 -4.08455 5.03059 0
M  V30 6283 N 567.59 -1.07411 -1.15328 0
M  V30 6284 C 568.867 -0.710732 -1.82231 0
M  V30 6285 C 569.247 0.806732 -1.95077 0
M  V30 6286 O 568.595 1.72139 -1.50268 0
M  V30 6287 C 568.805 -1.42586 -3.18544 0
M  V30 6288 C 570.153 -1.57836 -3.94174 0
M  V30 6289 O 571.177 -1.38669 -3.281 0
M  V30 6290 O 570.036 -1.8938 -5.12638 0
M  V30 6291 H 567.13 -0.25297 -0.78736 0
M  V30 6292 H 569.676 -1.17508 -1.22434 0
M  V30 6293 H 568.448 -2.46008 -3.04296 0
M  V30 6294 H 568.071 -0.952332 -3.86026 0
M  V30 6295 N 569.068 1.32177 -0.85831 0
M  V30 6296 C 570.293 2.01847 -0.476718 0
M  V30 6297 C 570.718 1.64065 0.920021 0
M  V30 6298 O 570.076 0.843189 1.60499 0
M  V30 6299 C 570.124 3.55097 -0.627578 0
M  V30 6300 O 569.228 4.11012 0.338086 0
M  V30 6301 H 568.569 0.635907 -0.191099 0
M  V30 6302 H 571.099 1.68641 -1.15851 0
M  V30 6303 H 571.109 4.04718 -0.516476 0
M  V30 6304 H 569.784 3.81938 -1.64609 0
M  V30 6305 H 568.361 3.72451 0.182917 0
M  V30 6306 N 570.547 0.616602 1.45037 0
M  V30 6307 C 571.494 -0.0969439 2.30596 0
M  V30 6308 C 572.464 -0.851151 1.42635 0
M  V30 6309 O 573.649 -0.835092 1.71554 0
M  V30 6310 C 570.789 -1.08234 3.27688 0
M  V30 6311 C 569.902 -0.328072 4.30752 0
M  V30 6312 C 569.037 -1.30399 5.14946 0
M  V30 6313 C 568.076 -0.538049 6.09731 0
M  V30 6314 N 567.213 -1.46371 6.86673 0
M  V30 6315 H 572.053 0.63864 2.91076 0
M  V30 6316 H 569.59 0.326733 1.43425 0
M  V30 6317 H 571.548 -1.66688 3.82454 0
M  V30 6318 H 570.178 -1.78523 2.68941 0
M  V30 6319 H 569.23 0.372136 3.78575 0
M  V30 6320 H 570.542 0.269142 4.98073 0
M  V30 6321 H 569.696 -1.96032 5.74157 0
M  V30 6322 H 568.435 -1.93514 4.47665 0
M  V30 6323 H 567.44 0.131852 5.49642 0
M  V30 6324 H 568.665 0.0881732 6.79043 0
M  V30 6325 H 566.611 -2.08233 6.22073 0
M  V30 6326 H 566.528 -0.920152 7.50379 0
M  V30 6327 H 567.796 -2.10932 7.50418 0
M  V30 6328 N 572.025 -1.5352 0.356285 0
M  V30 6329 C 572.988 -2.24071 -0.482182 0
M  V30 6330 C 573.988 -1.24531 -1.01729 0
M  V30 6331 O 575.178 -1.48876 -0.904513 0
M  V30 6332 C 572.31 -2.97025 -1.67299 0
M  V30 6333 H 573.503 -2.99596 0.135031 0
M  V30 6334 H 571.056 -1.55928 0.107825 0
M  V30 6335 H 571.791 -2.25719 -2.32855 0
M  V30 6336 H 571.576 -3.7005 -1.29636 0
M  V30 6337 H 573.066 -3.50683 -2.26741 0
M  V30 6338 N 573.503 -0.0852151 -1.57369 0
M  V30 6339 C 574.751 0.579658 -1.93609 0
M  V30 6340 C 575.072 1.69332 -0.967043 0
M  V30 6341 O 574.342 1.95892 -0.0174215 0
M  V30 6342 H 572.922 0.217113 -0.714752 0
M  V30 6343 H 575.584 -0.146226 -1.94351 0
M  V30 6344 H 574.68 0.996276 -2.95771 0
M  V30 6345 N 574.981 1.5647 0.188427 0
M  V30 6346 C 576.206 1.85486 0.927891 0
M  V30 6347 C 576.631 0.669575 1.75779 0
M  V30 6348 O 575.989 -0.381573 1.77239 0
M  V30 6349 C 576.037 3.12784 1.7944 0
M  V30 6350 O 575.141 2.93805 2.894 0
M  V30 6351 H 574.482 0.610585 0.260925 0
M  V30 6352 H 577.012 2.037 0.191729 0
M  V30 6353 H 577.022 3.43749 2.19774 0
M  V30 6354 H 575.697 3.98671 1.18468 0
M  V30 6355 H 574.274 2.74153 2.52774 0
M  V30 6356 N 576.459 -0.456382 1.50847 0
M  V30 6357 C 577.684 -1.2349 1.66628 0
M  V30 6358 C 578.109 -1.84715 0.355254 0
M  V30 6359 O 577.467 -1.67961 -0.682559 0
M  V30 6360 C 577.515 -2.30865 2.77009 0
M  V30 6361 O 576.619 -3.35882 2.39285 0
M  V30 6362 H 575.96 -0.36266 0.556214 0
M  V30 6363 H 578.49 -0.541374 1.97308 0
M  V30 6364 H 578.5 -2.75949 3.00526 0
M  V30 6365 H 577.175 -1.85677 3.72152 0
M  V30 6366 H 575.752 -2.96406 2.26269 0
M  V30 6367 N 577.937 -1.40673 -0.710563 0
M  V30 6368 C 578.884 -1.41336 -1.82463 0
M  V30 6369 C 579.854 -0.269648 -1.63897 0
M  V30 6370 O 581.039 -0.468463 -1.8496 0
M  V30 6371 C 578.179 -1.28665 -3.20218 0
M  V30 6372 C 577.292 -2.52784 -3.5032 0
M  V30 6373 C 576.427 -2.32517 -4.77608 0
M  V30 6374 C 575.466 -3.52187 -5.0063 0
M  V30 6375 N 574.603 -3.31084 -6.19135 0
M  V30 6376 H 579.443 -2.36558 -1.8123 0
M  V30 6377 H 576.98 -1.17483 -0.885226 0
M  V30 6378 H 578.938 -1.19324 -3.99772 0
M  V30 6379 H 577.568 -0.370602 -3.20666 0
M  V30 6380 H 576.62 -2.72634 -2.65283 0
M  V30 6381 H 577.932 -3.41845 -3.63241 0
M  V30 6382 H 577.086 -2.20558 -5.65189 0
M  V30 6383 H 575.825 -1.40889 -4.66906 0
M  V30 6384 H 574.83 -3.64617 -4.11502 0
M  V30 6385 H 576.055 -4.44749 -5.13201 0
M  V30 6386 H 574.001 -2.42143 -6.09674 0
M  V30 6387 H 573.918 -4.13713 -6.32754 0
M  V30 6388 H 575.186 -3.22868 -7.0949 0
M  V30 6389 N 579.415 0.9433 -1.26252 0
M  V30 6390 C 580.362 2.0417 -1.07625 0
M  V30 6391 C 581.332 1.6609 0.0180738 0
M  V30 6392 O 582.517 1.90276 -0.141289 0
M  V30 6393 C 579.657 3.37653 -0.713043 0
M  V30 6394 C 578.77 3.88783 -1.8834 0
M  V30 6395 C 577.905 5.10642 -1.4635 0
M  V30 6396 C 576.944 5.54028 -2.60229 0
M  V30 6397 N 576.081 6.67092 -2.18936 0
M  V30 6398 H 580.921 2.19436 -2.01623 0
M  V30 6399 H 578.458 1.07519 -1.00389 0
M  V30 6400 H 580.416 4.14391 -0.483358 0
M  V30 6401 H 579.046 3.22241 0.18996 0
M  V30 6402 H 578.098 3.08464 -2.22608 0
M  V30 6403 H 579.41 4.16922 -2.73821 0
M  V30 6404 H 578.564 5.94832 -1.19414 0
M  V30 6405 H 577.303 4.84244 -0.579568 0
M  V30 6406 H 576.308 4.68396 -2.87898 0
M  V30 6407 H 577.533 5.82429 -3.49219 0
M  V30 6408 H 575.479 6.42381 -1.32974 0
M  V30 6409 H 575.396 6.94806 -2.97961 0
M  V30 6410 H 576.664 7.54662 -1.95206 0
M  V30 6411 N 580.893 1.08022 1.14757 0
M  V30 6412 C 581.84 0.706657 2.19716 0
M  V30 6413 C 582.81 -0.30525 1.63271 0
M  V30 6414 O 583.995 -0.19015 1.8985 0
M  V30 6415 C 581.135 0.117914 3.44898 0
M  V30 6416 C 580.248 1.18212 4.15512 0
M  V30 6417 C 579.383 0.557659 5.28265 0
M  V30 6418 C 578.422 1.60418 5.90705 0
M  V30 6419 N 577.559 1.0018 6.94916 0
M  V30 6420 H 582.399 1.60603 2.51019 0
M  V30 6421 H 579.936 0.802664 1.23271 0
M  V30 6422 H 581.894 -0.241112 4.16503 0
M  V30 6423 H 580.524 -0.744788 3.1409 0
M  V30 6424 H 579.576 1.65863 3.42335 0
M  V30 6425 H 580.888 1.97533 4.5802 0
M  V30 6426 H 580.042 0.146654 6.06523 0
M  V30 6427 H 578.781 -0.267249 4.86967 0
M  V30 6428 H 577.786 2.02489 5.11154 0
M  V30 6429 H 579.011 2.43149 6.34078 0
M  V30 6430 H 576.957 0.197917 6.55701 0
M  V30 6431 H 576.874 1.73216 7.35889 0
M  V30 6432 H 578.142 0.616523 7.77058 0
M  V30 6433 N 582.371 -1.3172 0.865308 0
M  V30 6434 C 583.318 -2.2863 0.315736 0
M  V30 6435 C 584.288 -1.55524 -0.583213 0
M  V30 6436 O 585.473 -1.83694 -0.51585 0
M  V30 6437 C 582.613 -3.41735 -0.480773 0
M  V30 6438 C 581.726 -4.297 0.445167 0
M  V30 6439 C 580.861 -5.29944 -0.365012 0
M  V30 6440 C 579.9 -6.09554 0.557651 0
M  V30 6441 N 579.037 -7.01768 -0.215994 0
M  V30 6442 H 583.877 -2.75026 1.14736 0
M  V30 6443 H 581.414 -1.35302 0.577209 0
M  V30 6444 H 583.372 -4.06045 -0.958306 0
M  V30 6445 H 582.002 -2.96461 -1.27714 0
M  V30 6446 H 581.054 -3.65875 1.04113 0
M  V30 6447 H 582.366 -4.85295 1.15284 0
M  V30 6448 H 581.52 -5.99908 -0.905255 0
M  V30 6449 H 580.259 -4.74994 -1.106 0
M  V30 6450 H 579.264 -5.38485 1.10969 0
M  V30 6451 H 580.489 -6.66591 1.29742 0
M  V30 6452 H 578.435 -6.49232 -0.939878 0
M  V30 6453 H 578.352 -7.54762 0.432431 0
M  V30 6454 H 579.62 -7.76002 -0.737618 0
M  V30 6455 N 583.85 -0.624285 -1.44708 0
M  V30 6456 C 584.797 0.0847135 -2.30644 0
M  V30 6457 C 585.767 0.843575 -1.43084 0
M  V30 6458 O 586.952 0.825982 -1.71995 0
M  V30 6459 C 584.091 1.06495 -3.28257 0
M  V30 6460 C 583.205 0.305224 -4.3092 0
M  V30 6461 C 582.34 1.27667 -5.1563 0
M  V30 6462 C 581.379 0.505706 -6.10007 0
M  V30 6463 N 580.516 1.42727 -6.8744 0
M  V30 6464 H 585.356 -0.654068 -2.90733 0
M  V30 6465 H 582.893 -0.334334 -1.4325 0
M  V30 6466 H 584.851 1.64658 -3.83332 0
M  V30 6467 H 583.481 1.77094 -2.69884 0
M  V30 6468 H 582.533 -0.392207 -3.78373 0
M  V30 6469 H 583.845 -0.295553 -4.97924 0
M  V30 6470 H 582.999 1.92984 -5.75189 0
M  V30 6471 H 581.738 1.91137 -4.48685 0
M  V30 6472 H 580.743 -0.160999 -5.49564 0
M  V30 6473 H 581.968 -0.124183 -6.78986 0
M  V30 6474 H 579.913 2.04931 -6.23169 0
M  V30 6475 H 579.831 0.880345 -7.50857 0
M  V30 6476 H 581.099 2.0695 -7.51526 0
M  V30 6477 N 585.328 1.53329 -0.364422 0
M  V30 6478 C 586.238 2.29414 0.490552 0
M  V30 6479 C 587.254 1.35335 1.09363 0
M  V30 6480 O 588.43 1.68391 1.10483 0
M  V30 6481 C 585.495 3.06772 1.61529 0
M  V30 6482 C 584.556 4.16516 1.03986 0
M  V30 6483 C 583.789 4.90176 2.111 0
M  V30 6484 O 584.012 4.63687 3.32191 0
M  V30 6485 O 582.946 5.76134 1.74222 0
M  V30 6486 H 586.772 3.03428 -0.12856 0
M  V30 6487 H 584.357 1.48843 -0.128837 0
M  V30 6488 H 586.239 3.55082 2.26924 0
M  V30 6489 H 584.914 2.35596 2.21983 0
M  V30 6490 H 583.821 3.7246 0.349856 0
M  V30 6491 H 585.154 4.89855 0.4799 0
M  V30 6492 N 586.806 0.0935595 1.57322 0
M  V30 6493 C 588.083 -0.612692 1.85756 0
M  V30 6494 C 588.463 -1.86439 0.99013 0
M  V30 6495 O 587.811 -2.28416 0.0621362 0
M  V30 6496 C 588.021 -0.929547 3.36393 0
M  V30 6497 C 589.369 -1.29366 4.04413 0
M  V30 6498 O 590.393 -1.02061 3.41265 0
M  V30 6499 O 589.252 -1.80498 5.15832 0
M  V30 6500 H 586.346 -0.306444 0.768128 0
M  V30 6501 H 588.892 0.126141 1.69231 0
M  V30 6502 H 587.664 -0.0414766 3.91278 0
M  V30 6503 H 587.287 -1.72441 3.5826 0
M  V30 6504 N 588.284 -1.56567 -0.180126 0
M  V30 6505 C 589.512 -1.85618 -0.913972 0
M  V30 6506 C 589.927 -0.677892 -1.7621 0
M  V30 6507 O 589.284 0.353171 -1.7905 0
M  V30 6508 C 589.335 -3.13619 -1.79793 0
M  V30 6509 O 589.056 -4.26906 -0.98402 0
M  V30 6510 C 590.557 -3.55954 -2.64219 0
M  V30 6511 H 587.777 -0.616043 -0.265954 0
M  V30 6512 H 590.321 -2.03681 -0.182872 0
M  V30 6513 H 588.476 -2.97409 -2.48247 0
M  V30 6514 H 588.89 -4.9989 -1.58776 0
M  V30 6515 H 590.364 -4.48444 -3.21873 0
M  V30 6516 H 590.841 -2.79653 -3.38661 0
M  V30 6517 H 591.447 -3.74746 -2.01111 0
M  V30 6518 N 589.762 0.448376 -1.51087 0
M  V30 6519 C 591.039 1.20926 -1.53741 0
M  V30 6520 C 591.419 2.09025 -0.295222 0
M  V30 6521 O 590.767 2.16851 0.720283 0
M  V30 6522 C 590.977 2.02067 -2.84552 0
M  V30 6523 C 592.325 2.59486 -3.36084 0
M  V30 6524 O 593.349 2.12289 -2.86028 0
M  V30 6525 O 592.208 3.45539 -4.23397 0
M  V30 6526 H 589.302 0.549951 -0.617643 0
M  V30 6527 H 591.848 0.458344 -1.63393 0
M  V30 6528 H 590.62 1.37291 -3.66425 0
M  V30 6529 H 590.243 2.84246 -2.78011 0
M  V30 6530 N 591.24 1.41047 0.703093 0
M  V30 6531 C 592.656 1.23351 1.01275 0
M  V30 6532 C 592.856 0.11754 2.01157 0
M  V30 6533 O 591.912 -0.520518 2.47077 0
M  V30 6534 C 593.225 2.58001 1.54454 0
M  V30 6535 C 594.773 2.65119 1.66376 0
M  V30 6536 C 595.248 4.00067 2.22958 0
M  V30 6537 N 596.739 4.01875 2.30328 0
M  V30 6538 C 597.474 5.03087 2.75119 0
M  V30 6539 N 596.97 6.14692 3.19571 0
M  V30 6540 N 598.763 4.90451 2.74616 0
M  V30 6541 H 590.914 2.1236 0.0412686 0
M  V30 6542 H 593.177 0.944543 0.08089 0
M  V30 6543 H 592.883 3.40378 0.88521 0
M  V30 6544 H 592.757 2.79962 2.52786 0
M  V30 6545 H 595.144 1.83106 2.31422 0
M  V30 6546 H 595.225 2.46975 0.666089 0
M  V30 6547 H 594.869 4.82526 1.58529 0
M  V30 6548 H 594.799 4.15547 3.23462 0
M  V30 6549 H 597.29 3.21291 1.98949 0
M  V30 6550 H 597.603 6.87799 3.52352 0
M  V30 6551 H 595.948 6.18239 3.17498 0
M  V30 6552 H 599.139 4.0235 2.39233 0
M  V30 6553 H 599.312 5.6947 3.09206 0
M  V30 6554 N 592.718 -0.936591 1.26751 0
M  V30 6555 C 593.943 -1.72288 1.15462 0
M  V30 6556 C 594.368 -1.85915 -0.285887 0
M  V30 6557 O 593.726 -1.35272 -1.20711 0
M  V30 6558 C 593.774 -3.10503 1.83359 0
M  V30 6559 O 592.878 -3.96745 1.1255 0
M  V30 6560 H 592.219 -0.52843 0.402067 0
M  V30 6561 H 594.749 -1.17271 1.67656 0
M  V30 6562 H 594.759 -3.60867 1.90365 0
M  V30 6563 H 593.434 -2.99901 2.88153 0
M  V30 6564 H 592.011 -3.55191 1.13551 0
M  V30 6565 N 594.196 -1.08629 -1.14182 0
M  V30 6566 C 595.128 -0.676189 -2.18998 0
M  V30 6567 C 596.141 0.277871 -1.60411 0
M  V30 6568 O 597.33 0.0651771 -1.78381 0
M  V30 6569 C 594.43 0.0254916 -3.3889 0
M  V30 6570 C 593.603 -0.948039 -4.27002 0
M  V30 6571 C 592.662 -0.281268 -5.25448 0
M  V30 6572 O 591.688 -0.926378 -5.61611 0
M  V30 6573 N 592.89 0.967923 -5.72374 0
M  V30 6574 H 595.655 -1.57792 -2.54798 0
M  V30 6575 H 593.216 -0.972665 -1.29425 0
M  V30 6576 H 595.208 0.482554 -4.01813 0
M  V30 6577 H 593.778 0.829348 -3.01398 0
M  V30 6578 H 592.998 -1.58388 -3.6098 0
M  V30 6579 H 594.286 -1.60765 -4.82734 0
M  V30 6580 H 593.684 1.51175 -5.45126 0
M  V30 6581 H 592.241 1.36844 -6.37273 0
M  V30 6582 N 595.674 1.31259 -0.872281 0
M  V30 6583 C 596.899 2.0133 -0.498099 0
M  V30 6584 C 597.324 1.65031 0.902568 0
M  V30 6585 O 596.682 0.860164 1.59596 0
M  V30 6586 C 596.73 3.54411 -0.665205 0
M  V30 6587 O 595.834 4.11347 0.294473 0
M  V30 6588 H 595.175 0.633844 -0.197832 0
M  V30 6589 H 597.705 1.67402 -1.17633 0
M  V30 6590 H 597.715 4.04147 -0.559373 0
M  V30 6591 H 596.39 3.80171 -1.68651 0
M  V30 6592 H 594.967 3.72624 0.143403 0
M  V30 6593 N 597.152 0.631951 1.44375 0
M  V30 6594 C 598.568 0.297642 1.568 0
M  V30 6595 C 598.768 -1.19916 1.61934 0
M  V30 6596 O 597.824 -1.98324 1.56281 0
M  V30 6597 C 599.137 0.990286 2.83926 0
M  V30 6598 C 600.685 0.968507 2.97639 0
M  V30 6599 C 601.16 1.64163 4.27568 0
M  V30 6600 N 602.651 1.60826 4.34384 0
M  V30 6601 C 603.386 2.09802 5.33639 0
M  V30 6602 N 602.882 2.66973 6.39294 0
M  V30 6603 N 604.675 2.00426 5.25153 0
M  V30 6604 H 596.826 1.60353 1.39286 0
M  V30 6605 H 599.089 0.673142 0.667521 0
M  V30 6606 H 598.795 2.04519 2.8612 0
M  V30 6607 H 598.669 0.528563 3.73478 0
M  V30 6608 H 601.056 -0.0779247 2.94997 0
M  V30 6609 H 601.137 1.46873 2.09433 0
M  V30 6610 H 600.781 2.68752 4.3097 0
M  V30 6611 H 600.711 1.11624 5.14634 0
M  V30 6612 H 603.202 1.19087 3.58646 0
M  V30 6613 H 603.515 3.02074 7.11316 0
M  V30 6614 H 601.86 2.71024 6.39977 0
M  V30 6615 H 605.051 1.55483 4.41523 0
M  V30 6616 H 605.224 2.38906 6.02352 0
M  V30 6617 N 598.631 -1.53133 0.372548 0
M  V30 6618 C 599.856 -2.0625 -0.218098 0
M  V30 6619 C 600.281 -1.24375 -1.41111 0
M  V30 6620 O 599.639 -0.264554 -1.79359 0
M  V30 6621 C 599.687 -3.55858 -0.582876 0
M  V30 6622 O 598.791 -3.76667 -1.67917 0
M  V30 6623 H 598.132 -0.663317 -0.030104 0
M  V30 6624 H 600.662 -1.97477 0.535169 0
M  V30 6625 H 600.672 -3.99007 -0.851925 0
M  V30 6626 H 599.347 -4.14892 0.289428 0
M  V30 6627 H 597.924 -3.45413 -1.40513 0
M  V30 6628 N 600.109 -0.101901 -1.5727 0
M  V30 6629 C 601.52 0.426173 -1.81771 0
M  V30 6630 C 601.871 1.67725 -1.01797 0
M  V30 6631 O 600.996 2.14958 -0.249386 0
M  V30 6632 C 601.591 0.779962 -3.297 0
M  V30 6633 C 600.15 1.25275 -3.54941 0
M  V30 6634 C 599.297 0.252814 -2.76145 0
M  V30 6635 H 602.248 -0.32726 -1.55289 0
M  V30 6636 H 602.269 1.63891 -3.43395 0
M  V30 6637 H 601.781 -0.130778 -3.8788 0
M  V30 6638 H 599.882 2.18097 -3.021 0
M  V30 6639 H 599.995 1.20988 -4.63572 0
M  V30 6640 H 598.359 0.736362 -2.43823 0
M  V30 6641 H 599.142 -0.650724 -3.37076 0
M  V30 6642 N 601.587 1.56661 0.17182 0
M  V30 6643 C 602.812 1.86459 0.908165 0
M  V30 6644 C 603.237 0.688181 1.75059 0
M  V30 6645 O 602.595 -0.362753 1.77634 0
M  V30 6646 C 602.643 3.14669 1.76112 0
M  V30 6647 O 601.747 2.96858 2.86268 0
M  V30 6648 H 601.088 0.613318 0.254434 0
M  V30 6649 H 603.618 2.03892 0.170113 0
M  V30 6650 H 603.628 3.46061 2.16115 0
M  V30 6651 H 602.303 3.99905 1.14233 0
M  V30 6652 H 600.88 2.76819 2.49852 0
M  V30 6653 N 603.065 -0.440357 1.51323 0
M  V30 6654 C 604.481 -0.7766 1.39431 0
M  V30 6655 C 604.681 -1.95838 0.474296 0
M  V30 6656 O 603.737 -2.52398 -0.0716692 0
M  V30 6657 C 605.05 -1.05981 2.81405 0
M  V30 6658 C 606.598 -1.16442 2.90534 0
M  V30 6659 C 607.073 -1.48058 4.33408 0
M  V30 6660 N 608.564 -1.54988 4.36501 0
M  V30 6661 C 609.299 -1.81017 5.44078 0
M  V30 6662 N 608.795 -2.04858 6.61819 0
M  V30 6663 N 610.588 -1.82774 5.31554 0
M  V30 6664 H 602.739 0.338006 2.09693 0
M  V30 6665 H 605.002 0.0888072 0.943831 0
M  V30 6666 H 604.708 -0.264173 3.50706 0
M  V30 6667 H 604.582 -1.98822 3.20546 0
M  V30 6668 H 606.969 -1.95068 2.21432 0
M  V30 6669 H 607.05 -0.215088 2.54894 0
M  V30 6670 H 606.694 -0.699605 5.03059 0
M  V30 6671 H 606.624 -2.44192 4.66559 0
M  V30 6672 H 609.115 -1.38479 3.51613 0
M  V30 6673 H 609.428 -2.2408 7.396 0
M  V30 6674 H 607.773 -2.02187 6.6494 0
M  V30 6675 H 610.964 -1.63665 4.38556 0
M  V30 6676 H 611.137 -2.02722 6.15474 0
M  V30 6677 N 604.543 -1.41418 -0.695603 0
M  V30 6678 C 605.768 -1.44329 -1.48942 0
M  V30 6679 C 606.193 -0.0501579 -1.88033 0
M  V30 6680 O 605.551 0.946598 -1.54626 0
M  V30 6681 C 605.599 -2.3578 -2.72837 0
M  V30 6682 O 604.703 -1.81482 -3.70322 0
M  V30 6683 H 604.044 -0.489838 -0.44828 0
M  V30 6684 H 606.574 -1.85878 -0.855014 0
M  V30 6685 H 606.584 -2.51654 -3.21145 0
M  V30 6686 H 605.259 -3.37005 -2.43722 0
M  V30 6687 H 603.836 -1.75058 -3.29255 0
M  V30 6688 N 606.021 0.929856 -1.27246 0
M  V30 6689 C 607.267 1.6798 -1.13625 0
M  V30 6690 C 607.6 1.91586 0.317589 0
M  V30 6691 O 606.875 1.50467 1.23247 0
M  V30 6692 C 607.158 3.04766 -1.91806 0
M  V30 6693 C 607.011 2.88415 -3.45162 0
M  V30 6694 C 608.33 4.05063 -1.72082 0
M  V30 6695 H 605.449 0.609632 -0.414147 0
M  V30 6696 H 608.091 1.0792 -1.56376 0
M  V30 6697 H 606.241 3.56034 -1.55474 0
M  V30 6698 H 607.913 2.44282 -3.91311 0
M  V30 6699 H 606.156 2.23802 -3.71611 0
M  V30 6700 H 606.827 3.85482 -3.95105 0
M  V30 6701 H 609.303 3.62798 -2.03757 0
M  V30 6702 H 608.179 4.98765 -2.29182 0
M  V30 6703 H 608.44 4.37021 -0.668206 0
M  V30 6704 N 607.499 1.09233 1.13605 0
M  V30 6705 C 608.724 0.849067 1.89224 0
M  V30 6706 C 609.149 -0.593875 1.78479 0
M  V30 6707 O 608.507 -1.41703 1.13092 0
M  V30 6708 C 608.555 1.28642 3.36873 0
M  V30 6709 O 607.659 0.44363 4.10007 0
M  V30 6710 H 607 0.30767 0.588417 0
M  V30 6711 H 609.53 1.45595 1.43748 0
M  V30 6712 H 609.54 1.27096 3.87699 0
M  V30 6713 H 608.215 2.33729 3.44011 0
M  V30 6714 H 606.792 0.523241 3.69211 0
M  V30 6715 N 608.977 -1.30795 0.87923 0
M  V30 6716 C 609.924 -2.28282 0.339968 0
M  V30 6717 C 610.894 -1.56134 -0.566685 0
M  V30 6718 O 612.079 -1.84231 -0.496338 0
M  V30 6719 C 609.219 -3.42225 -0.444501 0
M  V30 6720 C 608.332 -4.29204 0.490717 0
M  V30 6721 C 607.467 -5.30302 -0.308784 0
M  V30 6722 C 606.506 -6.08929 0.622272 0
M  V30 6723 N 605.643 -7.01957 -0.14155 0
M  V30 6724 H 610.483 -2.73794 1.17647 0
M  V30 6725 H 608.02 -1.34682 0.591527 0
M  V30 6726 H 609.978 -4.07038 -0.915186 0
M  V30 6727 H 608.608 -2.97799 -1.24562 0
M  V30 6728 H 607.66 -3.6475 1.07988 0
M  V30 6729 H 608.972 -4.84045 1.20425 0
M  V30 6730 H 608.126 -6.00835 -0.841575 0
M  V30 6731 H 606.865 -4.7614 -1.05556 0
M  V30 6732 H 605.87 -5.37278 1.16674 0
M  V30 6733 H 607.095 -6.65178 1.36804 0
M  V30 6734 H 605.041 -6.50192 -0.870966 0
M  V30 6735 H 604.958 -7.54261 0.51246 0
M  V30 6736 H 606.226 -7.76741 -0.655271 0
M  V30 6737 N 610.455 -0.639598 -1.44038 0
M  V30 6738 C 611.365 0.0612377 -2.3452 0
M  V30 6739 C 612.381 0.826717 -1.53106 0
M  V30 6740 O 613.557 0.777059 -1.85806 0
M  V30 6741 C 610.622 1.02492 -3.31204 0
M  V30 6742 C 609.683 0.25788 -4.28525 0
M  V30 6743 C 608.916 1.17566 -5.2059 0
M  V30 6744 O 609.139 2.41461 -5.16771 0
M  V30 6745 O 608.073 0.655407 -5.98321 0
M  V30 6746 H 611.899 -0.68318 -2.95916 0
M  V30 6747 H 609.484 -0.399784 -1.43952 0
M  V30 6748 H 611.366 1.57911 -3.90694 0
M  V30 6749 H 610.041 1.7498 -2.7233 0
M  V30 6750 H 608.948 -0.339566 -3.72556 0
M  V30 6751 H 610.281 -0.427154 -4.90343 0
M  V30 6752 N 611.933 1.52934 -0.380664 0
M  V30 6753 C 613.349 1.59571 -0.0302429 0
M  V30 6754 C 613.549 1.39509 1.45394 0
M  V30 6755 O 612.605 1.20777 2.21741 0
M  V30 6756 C 613.918 2.96519 -0.499691 0
M  V30 6757 C 615.466 3.09672 -0.455204 0
M  V30 6758 C 615.941 4.49056 -0.900703 0
M  V30 6759 N 617.432 4.55215 -0.856367 0
M  V30 6760 C 618.167 5.61282 -1.17259 0
M  V30 6761 N 617.663 6.75035 -1.55885 0
M  V30 6762 N 619.456 5.51343 -1.0944 0
M  V30 6763 H 611.607 1.64224 -1.347 0
M  V30 6764 H 613.87 0.771033 -0.551554 0
M  V30 6765 H 613.576 3.16388 -1.53595 0
M  V30 6766 H 613.45 3.77052 0.105789 0
M  V30 6767 H 615.837 2.89504 0.571949 0
M  V30 6768 H 615.918 2.31113 -1.09638 0
M  V30 6769 H 615.562 4.69964 -1.92604 0
M  V30 6770 H 615.492 5.26068 -0.236629 0
M  V30 6771 H 617.983 3.73546 -0.572013 0
M  V30 6772 H 618.296 7.51926 -1.784 0
M  V30 6773 H 616.641 6.76388 -1.59764 0
M  V30 6774 H 619.832 4.61356 -0.791713 0
M  V30 6775 H 620.005 6.33905 -1.34417 0
M  V30 6776 N 613.412 0.11024 1.57214 0
M  V30 6777 C 614.322 -0.857077 2.18383 0
M  V30 6778 C 615.338 -1.29915 1.1575 0
M  V30 6779 O 616.514 -1.36394 1.48184 0
M  V30 6780 C 613.579 -2.09264 2.76423 0
M  V30 6781 C 612.64 -1.70333 3.94063 0
M  V30 6782 C 611.873 -2.87999 4.49324 0
M  V30 6783 O 612.096 -4.0317 4.03497 0
M  V30 6784 O 611.03 -2.6559 5.40135 0
M  V30 6785 H 614.856 -0.366561 3.0148 0
M  V30 6786 H 612.441 -0.114914 1.48957 0
M  V30 6787 H 614.323 -2.81644 3.13456 0
M  V30 6788 H 612.998 -2.57339 1.96363 0
M  V30 6789 H 611.905 -0.950864 3.61814 0
M  V30 6790 H 613.238 -1.27007 4.75531 0
M  V30 6791 N 614.89 -1.56749 -0.16351 0
M  V30 6792 C 615.84 -1.93424 -1.20712 0
M  V30 6793 C 616.824 -0.803469 -1.39403 0
M  V30 6794 O 618.016 -1.06675 -1.41243 0
M  V30 6795 C 615.145 -2.30431 -2.54473 0
M  V30 6796 C 614.231 -3.5004 -2.39443 0
M  V30 6797 N 614.622 -4.67058 -1.9414 0
M  V30 6798 C 612.92 -3.548 -2.70246 0
M  V30 6799 C 613.621 -5.49184 -1.9176 0
M  V30 6800 N 612.597 -4.9044 -2.34457 0
M  V30 6801 H 616.399 -2.8138 -0.848681 0
M  V30 6802 H 613.913 -1.58089 -0.371717 0
M  V30 6803 H 615.91 -2.54903 -3.29894 0
M  V30 6804 H 614.57 -1.43818 -2.91112 0
M  V30 6805 H 615.581 -4.91128 -1.64357 0
M  V30 6806 H 612.258 -2.78685 -3.10871 0
M  V30 6807 H 613.648 -6.5297 -1.58366 0
M  V30 6808 N 616.368 0.432326 -1.51554 0
M  V30 6809 C 617.331 1.50765 -1.72634 0
M  V30 6810 C 618.331 1.49334 -0.596314 0
M  V30 6811 O 619.521 1.51268 -0.863925 0
M  V30 6812 C 616.653 2.90284 -1.7874 0
M  V30 6813 H 617.846 1.33377 -2.68609 0
M  V30 6814 H 615.399 0.661329 -1.4162 0
M  V30 6815 H 616.134 3.13071 -0.845977 0
M  V30 6816 H 615.919 2.92727 -2.6087 0
M  V30 6817 H 617.409 3.68282 -1.96871 0
M  V30 6818 N 617.846 1.41785 0.688094 0
M  V30 6819 C 618.793 1.44221 1.80191 0
M  V30 6820 C 619.763 0.295688 1.63447 0
M  V30 6821 O 620.948 0.49783 1.84191 0
M  V30 6822 C 618.088 1.33743 3.1813 0
M  V30 6823 C 617.201 2.58325 3.46254 0
M  V30 6824 C 616.336 2.40086 4.73848 0
M  V30 6825 C 615.375 3.60107 4.94964 0
M  V30 6826 N 614.512 3.40892 6.13789 0
M  V30 6827 H 619.352 2.39411 1.77444 0
M  V30 6828 H 616.889 1.18876 0.866423 0
M  V30 6829 H 618.847 1.25669 3.97823 0
M  V30 6830 H 617.477 0.42157 3.20035 0
M  V30 6831 H 616.529 2.7682 2.60912 0
M  V30 6832 H 617.841 3.4758 3.57756 0
M  V30 6833 H 616.995 2.29522 5.61609 0
M  V30 6834 H 615.734 1.483 4.64606 0
M  V30 6835 H 614.739 3.71118 4.05649 0
M  V30 6836 H 615.964 4.52857 5.06061 0
M  V30 6837 H 613.91 2.51812 6.05745 0
M  V30 6838 H 613.827 4.23727 6.26092 0
M  V30 6839 H 615.095 3.34114 7.04264 0
M  V30 6840 N 619.324 -0.923095 1.27737 0
M  V30 6841 C 620.549 -1.71054 1.17283 0
M  V30 6842 C 620.974 -1.86208 -0.266153 0
M  V30 6843 O 620.332 -1.36545 -1.1927 0
M  V30 6844 C 620.38 -3.0854 1.86642 0
M  V30 6845 O 619.484 -3.95528 1.16752 0
M  V30 6846 H 618.825 -0.524136 0.407649 0
M  V30 6847 H 621.355 -1.15487 1.6889 0
M  V30 6848 H 621.365 -3.58828 1.94182 0
M  V30 6849 H 620.04 -2.96828 2.91317 0
M  V30 6850 H 618.617 -3.53967 1.17312 0
M  V30 6851 N 620.802 -1.09834 -1.13024 0
M  V30 6852 C 621.712 -0.753731 -2.22162 0
M  V30 6853 C 622.728 0.246105 -1.72251 0
M  V30 6854 O 623.904 0.0864051 -2.01215 0
M  V30 6855 C 620.969 -0.183958 -3.46212 0
M  V30 6856 C 620.03 -1.24028 -4.10993 0
M  V30 6857 C 619.263 -0.697597 -5.29121 0
M  V30 6858 O 619.486 0.478092 -5.68393 0
M  V30 6859 O 618.42 -1.4546 -5.84059 0
M  V30 6860 H 622.246 -1.66456 -2.5402 0
M  V30 6861 H 619.831 -0.873026 -1.21238 0
M  V30 6862 H 621.713 0.130257 -4.21199 0
M  V30 6863 H 620.388 0.699823 -3.16045 0
M  V30 6864 H 619.295 -1.60725 -3.37814 0
M  V30 6865 H 620.628 -2.09685 -4.45301 0
M  V30 6866 N 622.28 1.30327 -0.886154 0
M  V30 6867 C 623.505 2.0079 -0.519425 0
M  V30 6868 C 623.93 1.65979 0.885013 0
M  V30 6869 O 623.288 0.877043 1.58675 0
M  V30 6870 C 623.336 3.53686 -0.702758 0
M  V30 6871 O 622.44 4.11637 0.250828 0
M  V30 6872 H 621.781 0.63171 -0.204544 0
M  V30 6873 H 624.311 1.66145 -1.19402 0
M  V30 6874 H 624.321 4.03531 -0.602207 0
M  V30 6875 H 622.996 3.78361 -1.72673 0
M  V30 6876 H 621.573 3.72755 0.103873 0
M  V30 6877 N 623.758 0.647228 1.43697 0
M  V30 6878 C 624.983 0.164083 2.0675 0
M  V30 6879 C 625.408 -1.15892 1.48158 0
M  V30 6880 O 624.766 -1.71459 0.589194 0
M  V30 6881 C 624.814 0.0800368 3.60511 0
M  V30 6882 O 623.918 -0.959453 4.01084 0
M  V30 6883 H 623.259 0.0921288 0.657578 0
M  V30 6884 H 625.789 0.88846 1.84303 0
M  V30 6885 H 625.799 -0.105263 4.07864 0
M  V30 6886 H 624.474 1.04586 4.02535 0
M  V30 6887 H 623.051 -0.747425 3.65333 0
M  V30 6888 N 625.236 -1.5273 0.388769 0
M  V30 6889 C 626.168 -2.24081 -0.481704 0
M  V30 6890 C 627.181 -1.26307 -1.02715 0
M  V30 6891 O 628.37 -1.52386 -0.929565 0
M  V30 6892 C 625.47 -2.94315 -1.68024 0
M  V30 6893 C 624.643 -4.18791 -1.26226 0
M  V30 6894 C 623.702 -4.72028 -2.32542 0
M  V30 6895 O 622.728 -5.35129 -1.93972 0
M  V30 6896 N 623.93 -4.51838 -3.64448 0
M  V30 6897 H 626.695 -2.9942 0.129591 0
M  V30 6898 H 624.256 -1.60465 0.2151 0
M  V30 6899 H 626.248 -3.26831 -2.38671 0
M  V30 6900 H 624.818 -2.22287 -2.19789 0
M  V30 6901 H 624.038 -3.92318 -0.384703 0
M  V30 6902 H 625.326 -4.99668 -0.959647 0
M  V30 6903 H 624.724 -4.01468 -3.98547 0
M  V30 6904 H 623.281 -4.88845 -4.31131 0
M  V30 6905 N 626.714 -0.118576 -1.57153 0
M  V30 6906 C 628.13 0.238014 -1.57815 0
M  V30 6907 C 628.33 1.66747 -1.13127 0
M  V30 6908 O 627.386 2.38867 -0.818462 0
M  V30 6909 C 628.699 0.00508207 -3.007 0
M  V30 6910 C 630.247 0.0710139 -3.12919 0
M  V30 6911 C 630.722 -0.13422 -4.57803 0
M  V30 6912 N 632.213 -0.0801755 -4.63131 0
M  V30 6913 C 632.948 -0.213885 -5.73001 0
M  V30 6914 N 632.444 -0.403742 -6.91623 0
M  V30 6915 N 634.237 -0.15349 -5.6189 0
M  V30 6916 H 626.388 -1.05226 -1.84503 0
M  V30 6917 H 628.651 -0.414318 -0.852669 0
M  V30 6918 H 628.357 -0.983125 -3.3768 0
M  V30 6919 H 628.231 0.73714 -3.69927 0
M  V30 6920 H 630.618 1.04975 -2.75798 0
M  V30 6921 H 630.699 -0.692918 -2.46236 0
M  V30 6922 H 630.343 -1.10992 -4.95624 0
M  V30 6923 H 630.273 0.649692 -5.22577 0
M  V30 6924 H 632.764 0.0630689 -3.77847 0
M  V30 6925 H 633.077 -0.496645 -7.71202 0
M  V30 6926 H 631.422 -0.43971 -6.93608 0
M  V30 6927 H 634.613 -0.00613174 -4.681 0
M  V30 6928 H 634.786 -0.261138 -6.47474 0
M  V30 6929 N 628.193 1.56834 0.155195 0
M  V30 6930 C 629.103 2.009 1.21146 0
M  V30 6931 C 630.119 0.923029 1.475 0
M  V30 6932 O 631.295 1.23189 1.59331 0
M  V30 6933 C 628.36 2.37378 2.52691 0
M  V30 6934 C 627.421 3.59883 2.34057 0
M  V30 6935 C 626.654 3.94612 3.59329 0
M  V30 6936 O 626.877 3.30104 4.65175 0
M  V30 6937 O 625.811 4.87895 3.52479 0
M  V30 6938 H 629.637 2.9105 0.867371 0
M  V30 6939 H 627.222 1.44916 0.363298 0
M  V30 6940 H 629.104 2.61737 3.3026 0
M  V30 6941 H 627.779 1.50385 2.86646 0
M  V30 6942 H 626.686 3.40722 1.54465 0
M  V30 6943 H 628.019 4.47468 2.0502 0
M  V30 6944 N 629.671 -0.424282 1.51781 0
M  V30 6945 C 630.919 -1.17028 1.64769 0
M  V30 6946 C 631.24 -1.91409 0.372523 0
M  V30 6947 O 630.51 -1.86091 -0.612108 0
M  V30 6948 H 629.09 -0.434992 0.607282 0
M  V30 6949 H 631.752 -0.485169 1.88765 0
M  V30 6950 H 630.848 -1.8927 2.4816 0
M  V30 6951 N 631.149 -1.42148 -0.680565 0
M  V30 6952 C 632.565 -1.24947 -0.992995 0
M  V30 6953 C 632.765 -0.149527 -2.00944 0
M  V30 6954 O 631.821 0.481145 -2.47873 0
M  V30 6955 C 633.134 -2.60426 -1.5033 0
M  V30 6956 C 634.682 -2.67733 -1.62137 0
M  V30 6957 C 635.157 -4.03564 -2.16565 0
M  V30 6958 N 636.648 -4.05488 -2.23905 0
M  V30 6959 C 637.383 -5.07401 -2.67081 0
M  V30 6960 N 636.879 -6.19698 -3.09751 0
M  V30 6961 N 638.672 -4.94758 -2.66778 0
M  V30 6962 H 630.823 -2.12399 -0.0074788 0
M  V30 6963 H 633.086 -0.94571 -0.0658529 0
M  V30 6964 H 632.792 -3.41743 -0.830947 0
M  V30 6965 H 632.666 -2.83949 -2.483 0
M  V30 6966 H 635.053 -1.86765 -2.2848 0
M  V30 6967 H 635.134 -2.48004 -0.626713 0
M  V30 6968 H 634.778 -4.84987 -1.50833 0
M  V30 6969 H 634.708 -4.20641 -3.1681 0
M  V30 6970 H 637.199 -3.24415 -1.93812 0
M  V30 6971 H 637.512 -6.93318 -3.41365 0
M  V30 6972 H 635.857 -6.23212 -3.07623 0
M  V30 6973 H 639.048 -4.06105 -2.32801 0
M  V30 6974 H 639.221 -5.74317 -3.00107 0
M  V30 6975 N 632.627 0.916307 -1.28225 0
M  V30 6976 C 633.875 1.6619 -1.15002 0
M  V30 6977 C 634.196 1.92642 0.302329 0
M  V30 6978 O 633.466 1.54076 1.20985 0
M  V30 6979 H 632.046 0.615964 -0.422608 0
M  V30 6980 H 634.708 1.09963 -1.60917 0
M  V30 6981 H 633.804 2.62533 -1.68769 0
M  V30 6982 N 634.105 1.10431 1.1244 0
M  V30 6983 C 635.015 0.765502 2.21759 0
M  V30 6984 C 636.031 -0.236966 1.72379 0
M  V30 6985 O 637.207 -0.0757329 2.01258 0
M  V30 6986 C 634.272 0.202316 3.46109 0
M  V30 6987 C 633.333 1.26205 4.1033 0
M  V30 6988 C 632.566 0.725648 5.28744 0
M  V30 6989 O 632.789 -0.447942 5.68638 0
M  V30 6990 O 631.723 1.48555 5.83279 0
M  V30 6991 H 635.549 1.67801 2.53133 0
M  V30 6992 H 633.134 0.879443 1.20773 0
M  V30 6993 H 635.016 -0.107918 4.21262 0
M  V30 6994 H 633.691 -0.683052 3.16411 0
M  V30 6995 H 632.598 1.62514 3.36957 0
M  V30 6996 H 633.931 2.12044 4.44183 0
M  V30 6997 N 635.583 -1.29855 0.893053 0
M  V30 6998 C 636.808 -2.00512 0.530066 0
M  V30 6999 C 637.233 -1.66446 -0.876199 0
M  V30 7000 O 636.591 -0.885446 -1.58207 0
M  V30 7001 C 636.639 -3.53308 0.721505 0
M  V30 7002 O 635.743 -4.11764 -0.228994 0
M  V30 7003 H 635.084 -0.630617 0.207891 0
M  V30 7004 H 637.614 -1.6551 1.20282 0
M  V30 7005 H 637.624 -4.03206 0.623599 0
M  V30 7006 H 636.299 -3.77439 1.74678 0
M  V30 7007 H 634.876 -3.72805 -0.0841034 0
M  V30 7008 N 637.061 -0.65484 -1.43351 0
M  V30 7009 C 637.971 0.0363603 -2.34572 0
M  V30 7010 C 638.987 0.810432 -1.53974 0
M  V30 7011 O 640.163 0.757308 -1.86619 0
M  V30 7012 C 637.228 0.989733 -3.32273 0
M  V30 7013 C 636.289 0.212414 -4.28774 0
M  V30 7014 C 635.522 1.12038 -5.21808 0
M  V30 7015 O 635.745 2.35967 -5.19303 0
M  V30 7016 O 634.679 0.59191 -5.98982 0
M  V30 7017 H 638.505 -0.714527 -2.95175 0
M  V30 7018 H 636.09 -0.415029 -1.4352 0
M  V30 7019 H 637.972 1.53759 -3.92347 0
M  V30 7020 H 636.647 1.72082 -2.74171 0
M  V30 7021 H 635.554 -0.379062 -3.72175 0
M  V30 7022 H 636.887 -0.479138 -4.89862 0
M  V30 7023 N 638.539 1.52521 -0.396863 0
M  V30 7024 C 639.487 2.28217 0.44943 0
M  V30 7025 C 640.481 1.32416 1.05652 0
M  V30 7026 O 641.687 1.49925 0.996124 0
M  V30 7027 H 638.062 0.733966 0.1637 0
M  V30 7028 H 640.033 2.97658 -0.210367 0
M  V30 7029 C 638.782 3.10713 1.56054 0
M  V30 7030 H 638.105 3.84291 1.10273 0
M  V30 7031 H 639.545 3.66803 2.12677 0
M  V30 7032 C 638.004 2.23499 2.52091 0
M  V30 7033 O 638.534 1.8669 3.55682 0
M  V30 7034 N 636.74 1.8751 2.2201 0
M  V30 7035 H 636.287 2.17643 1.37802 0
M  V30 7036 H 636.245 1.29448 2.86514 0
M  V30 7037 N 640.017 0.126909 1.57088 0
M  V30 7038 C 640.98 -0.806097 2.14557 0
M  V30 7039 C 641.98 -1.18918 1.08236 0
M  V30 7040 O 643.17 -1.11339 1.33975 0
M  V30 7041 C 640.302 -2.09116 2.69227 0
M  V30 7042 H 641.495 -0.306522 2.98329 0
M  V30 7043 H 639.048 -0.122393 1.5582 0
M  V30 7044 H 639.783 -2.63486 1.89065 0
M  V30 7045 H 639.568 -1.82588 3.46993 0
M  V30 7046 H 641.058 -2.75794 3.13572 0
M  V30 7047 N 641.495 -1.56914 -0.146875 0
M  V30 7048 C 642.743 -1.82994 -0.85777 0
M  V30 7049 C 643.064 -0.707814 -1.817 0
M  V30 7050 O 642.334 0.270521 -1.94023 0
M  V30 7051 H 640.914 -0.675106 -0.319751 0
M  V30 7052 H 643.576 -1.9439 -0.140849 0
M  V30 7053 H 642.672 -2.77928 -1.41994 0
M  V30 7054 N 642.974 0.416227 -1.52004 0
M  V30 7055 C 644.202 1.18573 -1.69553 0
M  V30 7056 C 644.617 1.84472 -0.401919 0
M  V30 7057 O 643.974 1.71593 0.621463 0
M  V30 7058 C 644.025 2.25413 -2.82615 0
M  V30 7059 O 643.746 1.62205 -4.06966 0
M  V30 7060 C 645.247 3.15297 -3.11613 0
M  V30 7061 H 642.467 0.356582 -0.56841 0
M  V30 7062 H 645.011 0.490618 -1.98528 0
M  V30 7063 H 643.166 2.90604 -2.56179 0
M  V30 7064 H 643.58 2.3298 -4.69916 0
M  V30 7065 H 645.054 3.86351 -3.94255 0
M  V30 7066 H 645.531 3.77264 -2.24874 0
M  V30 7067 H 646.137 2.55783 -3.39787 0
M  V30 7068 N 644.452 1.42507 0.673017 0
M  V30 7069 C 645.4 1.46362 1.80779 0
M  V30 7070 C 646.394 0.339166 1.6597 0
M  V30 7071 O 647.6 0.512262 1.72557 0
M  V30 7072 H 643.975 0.458433 0.596107 0
M  V30 7073 H 645.946 2.41953 1.74646 0
M  V30 7074 C 644.695 1.38462 3.18941 0
M  V30 7075 H 644.018 2.24283 3.30964 0
M  V30 7076 H 645.458 1.45221 3.98355 0
M  V30 7077 C 643.917 0.0996354 3.36753 0
M  V30 7078 O 644.447 -0.846894 3.92671 0
M  V30 7079 N 642.653 0.016211 2.90595 0
M  V30 7080 H 642.2 0.78725 2.45276 0
M  V30 7081 H 642.158 -0.84291 3.0289 0
M  V30 7082 N 645.93 -0.909495 1.28709 0
M  V30 7083 C 646.862 -2.01729 1.08804 0
M  V30 7084 C 647.875 -1.62755 0.0384739 0
M  V30 7085 O 649.064 -1.76259 0.281977 0
M  V30 7086 C 646.164 -3.32952 0.63217 0
M  V30 7087 C 645.337 -4.00512 1.75809 0
M  V30 7088 C 644.396 -5.10019 1.29488 0
M  V30 7089 O 643.422 -5.32986 1.99787 0
M  V30 7090 N 644.624 -5.80278 0.1604 0
M  V30 7091 H 647.389 -2.19362 2.04207 0
M  V30 7092 H 644.95 -1.08106 1.20518 0
M  V30 7093 H 646.942 -4.03543 0.305802 0
M  V30 7094 H 645.512 -3.11759 -0.229134 0
M  V30 7095 H 644.732 -3.23413 2.25383 0
M  V30 7096 H 646.02 -4.42395 2.51325 0
M  V30 7097 H 645.418 -5.64094 -0.425937 0
M  V30 7098 H 643.975 -6.51713 -0.106663 0
M  V30 7099 N 647.408 -1.11026 -1.11852 0
M  V30 7100 C 648.318 -0.777252 -2.2135 0
M  V30 7101 C 649.334 0.227821 -1.72502 0
M  V30 7102 O 650.51 0.0650587 -2.01295 0
M  V30 7103 C 647.575 -0.220668 -3.45997 0
M  V30 7104 C 646.636 -1.2838 -4.09655 0
M  V30 7105 C 645.869 -0.753678 -5.28352 0
M  V30 7106 O 646.092 0.417779 -5.68868 0
M  V30 7107 O 645.026 -1.51647 -5.82483 0
M  V30 7108 H 648.852 -1.69141 -2.5224 0
M  V30 7109 H 646.437 -0.885836 -1.20305 0
M  V30 7110 H 648.319 0.0855756 -4.21313 0
M  V30 7111 H 646.994 0.666262 -3.16769 0
M  V30 7112 H 645.901 -1.64299 -3.3609 0
M  V30 7113 H 647.234 -2.14396 -4.43052 0
M  V30 7114 N 648.886 1.2938 -0.899927 0
M  V30 7115 C 650.114 1.99691 -0.541386 0
M  V30 7116 C 650.529 1.67355 0.873936 0
M  V30 7117 O 649.886 0.918728 1.57688 0
M  V30 7118 C 649.937 3.54168 -0.72438 0
M  V30 7119 O 649.658 3.85359 -2.08399 0
M  V30 7120 C 651.159 4.41746 -0.370819 0
M  V30 7121 H 648.379 0.638037 -0.207726 0
M  V30 7122 H 650.923 1.6491 -1.20934 0
M  V30 7123 H 649.078 3.87261 -0.103607 0
M  V30 7124 H 649.492 4.80032 -2.11352 0
M  V30 7125 H 650.966 5.49256 -0.549693 0
M  V30 7126 H 651.443 4.33712 0.692148 0
M  V30 7127 H 652.049 4.14125 -0.968543 0
M  V30 7128 N 650.364 0.662433 1.43002 0
M  V30 7129 C 651.78 0.330835 1.56133 0
M  V30 7130 C 651.98 -1.16454 1.64441 0
M  V30 7131 O 651.036 -1.94964 1.60453 0
M  V30 7132 C 652.349 1.05029 2.81761 0
M  V30 7133 C 653.897 1.03142 2.95518 0
M  V30 7134 C 654.372 1.73196 4.2399 0
M  V30 7135 N 655.863 1.70004 4.30875 0
M  V30 7136 C 656.598 2.21074 5.29069 0
M  V30 7137 N 656.094 2.80473 6.33488 0
M  V30 7138 N 657.887 2.1152 5.20784 0
M  V30 7139 H 650.038 1.63272 1.35853 0
M  V30 7140 H 652.301 0.687149 0.653092 0
M  V30 7141 H 652.007 2.10542 2.81718 0
M  V30 7142 H 651.881 0.607664 3.72273 0
M  V30 7143 H 654.268 -0.0153339 2.95096 0
M  V30 7144 H 654.349 1.51282 2.0627 0
M  V30 7145 H 653.993 2.77833 4.25172 0
M  V30 7146 H 653.923 1.22515 5.1215 0
M  V30 7147 H 656.414 1.26667 3.56039 0
M  V30 7148 H 656.727 3.17094 7.04749 0
M  V30 7149 H 655.072 2.84538 6.34085 0
M  V30 7150 H 658.263 1.64814 4.38126 0
M  V30 7151 H 658.436 2.51629 5.97149 0
M  V30 7152 N 651.842 -1.52309 0.404946 0
M  V30 7153 C 653.067 -2.06666 -0.1743 0
M  V30 7154 C 653.492 -1.27341 -1.38441 0
M  V30 7155 O 652.85 -0.302539 -1.78758 0
M  V30 7156 C 652.898 -3.57014 -0.507262 0
M  V30 7157 O 652.002 -3.80144 -1.59889 0
M  V30 7158 H 651.343 -0.663807 -0.0160273 0
M  V30 7159 H 653.873 -1.96297 0.576937 0
M  V30 7160 H 653.883 -4.00724 -0.767098 0
M  V30 7161 H 652.558 -4.14184 0.377368 0
M  V30 7162 H 651.135 -3.48316 -1.33155 0
M  V30 7163 N 653.32 -0.135238 -1.57019 0
M  V30 7164 C 654.736 0.221262 -1.58059 0
M  V30 7165 C 654.936 1.65538 -1.14889 0
M  V30 7166 O 653.992 2.37985 -0.843751 0
M  V30 7167 C 655.305 -0.0268114 -3.00688 0
M  V30 7168 C 656.853 0.0378206 -3.12977 0
M  V30 7169 C 657.328 -0.182769 -4.57635 0
M  V30 7170 N 658.819 -0.129292 -4.6302 0
M  V30 7171 C 659.554 -0.274648 -5.72742 0
M  V30 7172 N 659.05 -0.477075 -6.91155 0
M  V30 7173 N 660.843 -0.213077 -5.61696 0
M  V30 7174 H 652.994 -1.07177 -1.83376 0
M  V30 7175 H 655.257 -0.423338 -0.848227 0
M  V30 7176 H 654.963 -1.01889 -3.36618 0
M  V30 7177 H 654.837 0.697863 -3.70688 0
M  V30 7178 H 657.224 1.02043 -2.76896 0
M  V30 7179 H 657.305 -0.718996 -2.45487 0
M  V30 7180 H 656.949 -1.16243 -4.94419 0
M  V30 7181 H 656.879 0.59423 -5.23237 0
M  V30 7182 H 659.37 0.0229896 -3.77893 0
M  V30 7183 H 659.683 -0.578413 -7.70632 0
M  V30 7184 H 658.028 -0.513252 -6.93102 0
M  V30 7185 H 661.219 -0.0557796 -4.68067 0
M  V30 7186 H 661.392 -0.329796 -6.4716 0
M  V30 7187 N 654.798 1.5699 0.138552 0
M  V30 7188 C 656.023 1.88344 0.86841 0
M  V30 7189 C 656.448 0.725159 1.7356 0
M  V30 7190 O 655.806 -0.324992 1.78363 0
M  V30 7191 C 655.854 3.18334 1.69398 0
M  V30 7192 O 654.958 3.02863 2.79907 0
M  V30 7193 H 654.299 0.618577 0.241367 0
M  V30 7194 H 656.829 2.04207 0.126826 0
M  V30 7195 H 656.839 3.50567 2.08726 0
M  V30 7196 H 655.514 4.02238 1.05725 0
M  V30 7197 H 654.091 2.82056 2.43924 0
M  V30 7198 N 656.276 -0.40816 1.52223 0
M  V30 7199 C 657.692 -0.74685 1.41047 0
M  V30 7200 C 657.892 -1.94788 0.51573 0
M  V30 7201 O 656.948 -2.52494 -0.0181156 0
M  V30 7202 C 658.261 -0.999878 2.83589 0
M  V30 7203 C 659.809 -1.10253 2.92939 0
M  V30 7204 C 660.284 -1.38832 4.36451 0
M  V30 7205 N 661.775 -1.45694 4.3969 0
M  V30 7206 C 662.51 -1.69435 5.47795 0
M  V30 7207 N 662.006 -1.90774 6.66016 0
M  V30 7208 N 663.799 -1.71458 5.35312 0
M  V30 7209 H 655.95 0.382409 2.08929 0
M  V30 7210 H 658.213 0.108807 0.941735 0
M  V30 7211 H 657.919 -0.189723 3.51188 0
M  V30 7212 H 657.793 -1.91978 3.24691 0
M  V30 7213 H 660.18 -1.90328 2.2552 0
M  V30 7214 H 660.261 -0.160973 2.55293 0
M  V30 7215 H 659.905 -0.592741 5.04429 0
M  V30 7216 H 659.835 -2.34241 4.71634 0
M  V30 7217 H 662.326 -1.3099 3.54472 0
M  V30 7218 H 662.639 -2.08342 7.44186 0
M  V30 7219 H 660.984 -1.88037 6.69079 0
M  V30 7220 H 664.175 -1.54326 4.41929 0
M  V30 7221 H 664.348 -1.89621 6.19635 0
M  V30 7222 N 657.755 -1.42862 -0.66545 0
M  V30 7223 C 658.98 -1.47456 -1.45848 0
M  V30 7224 C 659.405 -0.0900312 -1.87884 0
M  V30 7225 O 658.763 0.913587 -1.56599 0
M  V30 7226 C 658.811 -2.41514 -2.67774 0
M  V30 7227 O 657.915 -1.89296 -3.66389 0
M  V30 7228 H 657.256 -0.499236 -0.437789 0
M  V30 7229 H 659.786 -1.8765 -0.815394 0
M  V30 7230 H 659.796 -2.58409 -3.15735 0
M  V30 7231 H 658.471 -3.42099 -2.36519 0
M  V30 7232 H 657.048 -1.82003 -3.25468 0
M  V30 7233 N 659.233 0.902656 -1.29189 0
M  V30 7234 C 660.181 2.0278 -1.13943 0
M  V30 7235 C 661.175 1.69308 -0.055787 0
M  V30 7236 O 662.381 1.78707 -0.215371 0
M  V30 7237 H 658.756 0.664595 -0.351877 0
M  V30 7238 H 660.727 2.12778 -2.09208 0
M  V30 7239 C 659.476 3.37657 -0.82966 0
M  V30 7240 H 658.799 3.63913 -1.65551 0
M  V30 7241 H 660.239 4.17078 -0.762998 0
M  V30 7242 C 658.698 3.33648 0.466991 0
M  V30 7243 O 659.228 3.72886 1.49395 0
M  V30 7244 N 657.434 2.86745 0.471761 0
M  V30 7245 H 656.981 2.55009 -0.364406 0
M  V30 7246 H 656.939 2.84446 1.33933 0
M  V30 7247 N 660.711 1.11618 1.11262 0
M  V30 7248 C 661.936 0.889013 1.8738 0
M  V30 7249 C 662.361 -0.555884 1.79698 0
M  V30 7250 O 661.719 -1.39272 1.16073 0
M  V30 7251 C 661.767 1.35759 3.34069 0
M  V30 7252 O 660.871 0.530499 4.08974 0
M  V30 7253 H 660.212 0.320082 0.581759 0
M  V30 7254 H 662.742 1.48611 1.40627 0
M  V30 7255 H 662.752 1.35291 3.84916 0
M  V30 7256 H 661.427 2.40973 3.38976 0
M  V30 7257 H 660.004 0.601439 3.68018 0
M  V30 7258 N 662.189 -1.289 0.906776 0
M  V30 7259 C 663.136 -2.2751 0.388313 0
M  V30 7260 C 664.106 -1.57301 -0.533439 0
M  V30 7261 O 665.291 -1.85243 -0.457148 0
M  V30 7262 C 662.431 -3.43091 -0.37181 0
M  V30 7263 C 661.544 -4.28066 0.581647 0
M  V30 7264 C 660.679 -5.30837 -0.19623 0
M  V30 7265 C 659.718 -6.07472 0.751294 0
M  V30 7266 N 658.855 -7.021 0.00737727 0
M  V30 7267 H 663.695 -2.71237 1.23428 0
M  V30 7268 H 661.232 -1.33397 0.619962 0
M  V30 7269 H 663.19 -4.08888 -0.828641 0
M  V30 7270 H 661.82 -3.00374 -1.18218 0
M  V30 7271 H 660.872 -3.62378 1.157 0
M  V30 7272 H 662.184 -4.81382 1.30665 0
M  V30 7273 H 661.338 -6.02485 -0.71394 0
M  V30 7274 H 660.077 -4.78272 -0.954324 0
M  V30 7275 H 659.082 -5.34682 1.28044 0
M  V30 7276 H 660.307 -6.62126 1.50883 0
M  V30 7277 H 658.253 -6.51894 -0.732854 0
M  V30 7278 H 658.17 -7.53004 0.672334 0
M  V30 7279 H 659.438 -7.77956 -0.490365 0
M  V30 7280 N 663.667 -0.670007 -1.42649 0
M  V30 7281 C 664.892 -0.196955 -2.06463 0
M  V30 7282 C 665.317 1.1352 -1.49983 0
M  V30 7283 O 664.675 1.705 -0.616397 0
M  V30 7284 C 664.723 -0.137381 -3.60338 0
M  V30 7285 O 663.827 0.895523 -4.02559 0
M  V30 7286 H 663.168 -0.102579 -0.656029 0
M  V30 7287 H 665.698 -0.917669 -1.82866 0
M  V30 7288 H 665.708 0.0403625 -4.0798 0
M  V30 7289 H 664.383 -1.10977 -4.0082 0
M  V30 7290 H 662.96 0.689209 -3.66476 0
M  V30 7291 N 665.145 1.52092 -0.413018 0
M  V30 7292 C 666.092 2.27119 0.410558 0
M  V30 7293 C 667.062 1.29692 1.03774 0
M  V30 7294 O 668.247 1.58561 1.06128 0
M  V30 7295 C 665.387 3.09863 1.51918 0
M  V30 7296 C 664.5 4.22252 0.912528 0
M  V30 7297 C 663.635 4.92348 1.99417 0
M  V30 7298 C 662.674 5.96694 1.36466 0
M  V30 7299 N 661.811 6.60292 2.38661 0
M  V30 7300 H 666.651 2.97067 -0.235661 0
M  V30 7301 H 664.188 1.46542 -0.128055 0
M  V30 7302 H 666.146 3.56144 2.17295 0
M  V30 7303 H 664.776 2.42078 2.13537 0
M  V30 7304 H 663.828 3.80113 0.147697 0
M  V30 7305 H 665.14 4.9709 0.412717 0
M  V30 7306 H 664.294 5.42054 2.72512 0
M  V30 7307 H 663.033 4.17087 2.52764 0
M  V30 7308 H 662.038 5.46304 0.61906 0
M  V30 7309 H 663.263 6.73899 0.838827 0
M  V30 7310 H 661.209 5.87858 2.91134 0
M  V30 7311 H 661.126 7.30816 1.93503 0
M  V30 7312 H 662.394 7.14635 3.11314 0
M  V30 7313 N 666.623 0.143563 1.56945 0
M  V30 7314 C 668.034 -0.37783 1.82837 0
M  V30 7315 C 668.385 -1.64967 1.06209 0
M  V30 7316 O 667.51 -2.14221 0.306291 0
M  V30 7317 C 668.105 -0.692274 3.31652 0
M  V30 7318 C 666.664 -1.1582 3.58138 0
M  V30 7319 C 665.811 -0.17951 2.76718 0
M  V30 7320 H 668.762 0.368317 1.54367 0
M  V30 7321 H 668.783 -1.54729 3.47619 0
M  V30 7322 H 668.295 0.233572 3.87397 0
M  V30 7323 H 666.396 -2.10011 3.07776 0
M  V30 7324 H 666.509 -1.08655 4.66616 0
M  V30 7325 H 664.873 -0.671458 2.4569 0
M  V30 7326 H 665.656 0.739865 3.35233 0
M  V30 7327 N 668.101 -1.57061 -0.130224 0
M  V30 7328 C 669.049 -2.00486 -1.17933 0
M  V30 7329 C 670.043 -0.899933 -1.43519 0
M  V30 7330 O 671.249 -1.08514 -1.43613 0
M  V30 7331 H 667.624 -0.638441 -0.397363 0
M  V30 7332 H 669.595 -2.87848 -0.786501 0
M  V30 7333 C 668.344 -2.41565 -2.50084 0
M  V30 7334 H 667.667 -3.26148 -2.31231 0
M  V30 7335 H 669.107 -2.75757 -3.22078 0
M  V30 7336 C 667.566 -1.27485 -3.11848 0
M  V30 7337 O 668.096 -0.584688 -3.97422 0
M  V30 7338 N 666.302 -1.03478 -2.71552 0
M  V30 7339 H 665.849 -1.59779 -2.02061 0
M  V30 7340 H 665.807 -0.27341 -3.13209 0
M  V30 7341 N 669.579 0.400081 -1.52437 0
M  V30 7342 C 670.509 1.4947 -1.7939 0
M  V30 7343 C 671.49 1.57383 -0.645329 0
M  V30 7344 O 672.675 1.72511 -0.891826 0
M  V30 7345 C 669.805 2.87201 -1.95276 0
M  V30 7346 C 668.759 2.94134 -3.10917 0
M  V30 7347 C 668.085 4.34207 -3.1204 0
M  V30 7348 C 669.385 2.64791 -4.50203 0
M  V30 7349 H 671.079 1.27165 -2.71052 0
M  V30 7350 H 668.625 0.610312 -1.30427 0
M  V30 7351 H 670.578 3.63772 -2.12715 0
M  V30 7352 H 669.302 3.10819 -1.00294 0
M  V30 7353 H 667.961 2.20009 -2.93243 0
M  V30 7354 H 667.609 4.54848 -2.14761 0
M  V30 7355 H 667.309 4.39768 -3.89715 0
M  V30 7356 H 668.833 5.127 -3.31619 0
M  V30 7357 H 670.247 3.31083 -4.68035 0
M  V30 7358 H 668.644 2.81717 -5.29864 0
M  V30 7359 H 669.714 1.60184 -4.57678 0
M  V30 7360 N 671.057 1.43213 0.657864 0
M  V30 7361 C 672.468 1.39669 1.23893 0
M  V30 7362 C 672.819 0.0984217 1.95953 0
M  V30 7363 O 671.944 -0.8023 2.00978 0
M  V30 7364 C 672.539 2.53004 2.25332 0
M  V30 7365 C 671.098 2.5274 2.78926 0
M  V30 7366 C 670.245 2.30941 1.53497 0
M  V30 7367 H 673.196 1.52181 0.450172 0
M  V30 7368 H 673.217 2.24226 3.07413 0
M  V30 7369 H 672.729 3.4748 1.72856 0
M  V30 7370 H 670.83 1.6213 3.35477 0
M  V30 7371 H 670.943 3.50352 3.26787 0
M  V30 7372 H 669.307 1.7952 1.80678 0
M  V30 7373 H 670.09 3.27496 1.02963 0
M  V30 7374 N 672.536 -0.895792 1.29666 0
M  V30 7375 C 673.761 -1.68528 1.20885 0
M  V30 7376 C 674.186 -1.8673 -0.226595 0
M  V30 7377 O 673.544 -1.39044 -1.16347 0
M  V30 7378 C 673.592 -3.04512 1.93144 0
M  V30 7379 O 672.696 -3.92963 1.25115 0
M  V30 7380 H 672.037 -0.515371 0.418675 0
M  V30 7381 H 674.567 -1.11878 1.71302 0
M  V30 7382 H 674.577 -3.54628 2.0175 0
M  V30 7383 H 673.252 -2.90582 2.97548 0
M  V30 7384 H 671.829 -3.51399 1.24794 0
M  V30 7385 N 674.014 -1.12206 -1.10668 0
M  V30 7386 C 674.924 -0.800686 -2.20513 0
M  V30 7387 C 675.94 0.209512 -1.72734 0
M  V30 7388 O 677.116 0.043705 -2.01353 0
M  V30 7389 C 674.181 -0.257353 -3.45744 0
M  V30 7390 C 673.242 -1.32718 -4.0827 0
M  V30 7391 C 672.475 -0.809674 -5.27522 0
M  V30 7392 O 672.698 0.35742 -5.69279 0
M  V30 7393 O 671.632 -1.57816 -5.80842 0
M  V30 7394 H 675.458 -1.71807 -2.50432 0
M  V30 7395 H 673.043 -0.898546 -1.19359 0
M  V30 7396 H 674.925 0.0408849 -4.2138 0
M  V30 7397 H 673.6 0.632627 -3.17458 0
M  V30 7398 H 672.507 -1.67855 -3.34329 0
M  V30 7399 H 673.84 -2.19083 -4.40753 0
M  V30 7400 N 675.492 1.28418 -0.913599 0
M  V30 7401 C 676.717 1.99643 -0.561899 0
M  V30 7402 C 677.142 1.67819 0.849608 0
M  V30 7403 O 676.5 0.910503 1.56779 0
M  V30 7404 C 676.548 3.52116 -0.777622 0
M  V30 7405 O 675.652 4.12076 0.163457 0
M  V30 7406 H 674.993 0.627229 -0.217898 0
M  V30 7407 H 677.523 1.63575 -1.229 0
M  V30 7408 H 677.533 4.02163 -0.687666 0
M  V30 7409 H 676.208 3.74613 -1.8066 0
M  V30 7410 H 674.785 3.72892 0.0247827 0
M  V30 7411 N 676.97 0.677563 1.42291 0
M  V30 7412 C 678.386 0.347376 1.55774 0
M  V30 7413 C 678.586 -1.14703 1.65667 0
M  V30 7414 O 677.642 -1.93252 1.62512 0
M  V30 7415 C 678.955 1.08011 2.80631 0
M  V30 7416 C 680.503 1.06271 2.94407 0
M  V30 7417 C 680.978 1.77683 4.22129 0
M  V30 7418 N 682.469 1.74564 4.29047 0
M  V30 7419 C 683.204 2.26673 5.26694 0
M  V30 7420 N 682.7 2.87176 6.30477 0
M  V30 7421 N 684.493 2.17032 5.18511 0
M  V30 7422 H 676.644 1.64703 1.34114 0
M  V30 7423 H 678.907 0.694038 0.645768 0
M  V30 7424 H 678.613 2.13518 2.79469 0
M  V30 7425 H 678.487 0.647115 3.71608 0
M  V30 7426 H 680.874 0.0159658 2.95096 0
M  V30 7427 H 680.955 1.53461 2.04654 0
M  V30 7428 H 680.599 2.82327 4.22201 0
M  V30 7429 H 680.529 1.2794 5.10822 0
M  V30 7430 H 683.02 1.30436 3.54676 0
M  V30 7431 H 683.333 3.24551 7.01346 0
M  V30 7432 H 681.678 2.91247 6.31031 0
M  V30 7433 H 684.869 1.69451 4.36353 0
M  V30 7434 H 685.042 2.57948 5.94446 0
M  V30 7435 N 678.448 -1.51871 0.421078 0
M  V30 7436 C 679.673 -2.0684 -0.152371 0
M  V30 7437 C 680.098 -1.28802 -1.37083 0
M  V30 7438 O 679.456 -0.321482 -1.78427 0
M  V30 7439 C 679.504 -3.57532 -0.469368 0
M  V30 7440 O 678.608 -3.81818 -1.55848 0
M  V30 7441 H 677.949 -0.663939 -0.00898586 0
M  V30 7442 H 680.479 -1.95674 0.597724 0
M  V30 7443 H 680.489 -4.01515 -0.724553 0
M  V30 7444 H 679.164 -4.13761 0.421276 0
M  V30 7445 H 677.741 -3.49709 -1.29453 0
M  V30 7446 N 679.926 -0.151884 -1.56866 0
M  V30 7447 C 681.342 0.204486 -1.58285 0
M  V30 7448 C 681.542 1.6431 -1.16639 0
M  V30 7449 O 680.598 2.37077 -0.868946 0
M  V30 7450 C 681.911 -0.0587019 -3.00643 0
M  V30 7451 C 683.459 0.00462303 -3.13 0
M  V30 7452 C 683.934 -0.231297 -4.57416 0
M  V30 7453 N 685.425 -0.178394 -4.62856 0
M  V30 7454 C 686.16 -0.335379 -5.72418 0
M  V30 7455 N 685.656 -0.550355 -6.90611 0
M  V30 7456 N 687.449 -0.272641 -5.61438 0
M  V30 7457 H 679.6 -1.09116 -1.82229 0
M  V30 7458 H 681.863 -0.432311 -0.843689 0
M  V30 7459 H 681.569 -1.05453 -3.35518 0
M  V30 7460 H 681.443 0.658508 -3.71407 0
M  V30 7461 H 683.83 0.991009 -2.77962 0
M  V30 7462 H 683.911 -0.744992 -2.44711 0
M  V30 7463 H 683.555 -1.2148 -4.93158 0
M  V30 7464 H 683.485 0.5387 -5.23837 0
M  V30 7465 H 685.976 -0.0170923 -3.77896 0
M  V30 7466 H 686.289 -0.660116 -7.69976 0
M  V30 7467 H 684.634 -0.586736 -6.92519 0
M  V30 7468 H 687.825 -0.105421 -4.67981 0
M  V30 7469 H 687.998 -0.398418 -6.46774 0
M  V30 7470 N 681.404 1.57128 0.121893 0
M  V30 7471 C 682.629 1.89254 0.848385 0
M  V30 7472 C 683.054 0.743527 1.72781 0
M  V30 7473 O 682.412 -0.306056 1.78698 0
M  V30 7474 C 682.46 3.20113 1.66012 0
M  V30 7475 O 681.564 3.05815 2.76679 0
M  V30 7476 H 680.905 0.621103 0.234793 0
M  V30 7477 H 683.435 2.0433 0.10516 0
M  V30 7478 H 683.445 3.52761 2.04996 0
M  V30 7479 H 682.12 4.03336 1.01452 0
M  V30 7480 H 680.697 2.84627 2.40918 0
M  V30 7481 N 682.882 -0.391992 1.52647 0
M  V30 7482 C 683.829 -1.47866 1.77213 0
M  V30 7483 C 684.799 -1.54286 0.615223 0
M  V30 7484 O 685.984 -1.7059 0.854622 0
M  V30 7485 C 683.124 -2.85129 1.94411 0
M  V30 7486 C 682.237 -2.87883 3.22098 0
M  V30 7487 C 681.372 -4.16553 3.29631 0
M  V30 7488 C 680.411 -4.13348 4.51453 0
M  V30 7489 N 679.548 -5.33619 4.56284 0
M  V30 7490 H 684.388 -1.26219 2.6995 0
M  V30 7491 H 681.925 -0.612367 1.33748 0
M  V30 7492 H 683.883 -3.64833 2.02367 0
M  V30 7493 H 682.513 -3.05232 1.05038 0
M  V30 7494 H 681.565 -2.00567 3.23229 0
M  V30 7495 H 682.877 -2.81382 4.11856 0
M  V30 7496 H 682.031 -5.0466 3.36753 0
M  V30 7497 H 680.77 -4.25773 2.37842 0
M  V30 7498 H 679.775 -3.23629 4.44459 0
M  V30 7499 H 681 -4.05754 5.44555 0
M  V30 7500 H 678.946 -5.43474 3.67385 0
M  V30 7501 H 678.863 -5.29182 5.3991 0
M  V30 7502 H 680.131 -6.23632 4.67657 0
M  V30 7503 N 684.36 -1.4356 -0.65026 0
M  V30 7504 C 685.585 -1.48995 -1.44275 0
M  V30 7505 C 686.01 -0.109954 -1.87778 0
M  V30 7506 O 685.368 0.896926 -1.57559 0
M  V30 7507 C 685.416 -2.44341 -2.65198 0
M  V30 7508 O 684.52 -1.93172 -3.6436 0
M  V30 7509 H 683.861 -0.503852 -0.432469 0
M  V30 7510 H 686.391 -1.88504 -0.795446 0
M  V30 7511 H 686.401 -2.61743 -3.12977 0
M  V30 7512 H 685.076 -3.44588 -2.32877 0
M  V30 7513 H 683.653 -1.85445 -3.23519 0
M  V30 7514 N 685.838 0.888903 -1.30139 0
M  V30 7515 C 686.801 1.97576 -1.16174 0
M  V30 7516 C 687.801 1.60525 -0.094086 0
M  V30 7517 O 688.991 1.70812 -0.341889 0
M  V30 7518 C 686.123 3.3188 -0.778983 0
M  V30 7519 H 687.316 2.11393 -2.12728 0
M  V30 7520 H 684.869 1.0748 -1.1348 0
M  V30 7521 H 685.604 3.23765 0.186225 0
M  V30 7522 H 685.389 3.60141 -1.55051 0
M  V30 7523 H 686.879 4.11612 -0.704631 0
M  V30 7524 N 687.317 1.12792 1.10072 0
M  V30 7525 C 688.542 0.908838 1.86427 0
M  V30 7526 C 688.967 -0.536793 1.80278 0
M  V30 7527 O 688.325 -1.38033 1.17543 0
M  V30 7528 C 688.373 1.39295 3.3261 0
M  V30 7529 O 687.477 0.573846 4.08388 0
M  V30 7530 H 686.818 0.326234 0.578331 0
M  V30 7531 H 689.348 1.50094 1.39043 0
M  V30 7532 H 689.358 1.39366 3.83459 0
M  V30 7533 H 688.033 2.44555 3.36401 0
M  V30 7534 H 686.61 0.640438 3.67359 0
M  V30 7535 N 688.795 -1.27931 0.920396 0
M  V30 7536 C 689.742 -2.27085 0.412422 0
M  V30 7537 C 690.712 -1.57858 -0.516725 0
M  V30 7538 O 691.897 -1.85717 -0.437475 0
M  V30 7539 C 689.037 -3.43466 -0.335399 0
M  V30 7540 C 688.15 -4.27425 0.627017 0
M  V30 7541 C 687.285 -5.31016 -0.139916 0
M  V30 7542 C 686.324 -6.06641 0.815683 0
M  V30 7543 N 685.461 -7.02052 0.0818439 0
M  V30 7544 H 690.301 -2.69913 1.26298 0
M  V30 7545 H 687.838 -1.32732 0.634076 0
M  V30 7546 H 689.796 -4.09744 -0.785226 0
M  V30 7547 H 688.426 -3.01611 -1.15025 0
M  V30 7548 H 687.478 -3.6113 1.19537 0
M  V30 7549 H 688.79 -4.79969 1.35763 0
M  V30 7550 H 687.944 -6.03208 -0.649998 0
M  V30 7551 H 686.683 -4.79257 -0.903543 0
M  V30 7552 H 685.688 -5.33294 1.33708 0
M  V30 7553 H 686.913 -6.60489 1.57897 0
M  V30 7554 H 684.859 -6.52634 -0.663671 0
M  V30 7555 H 684.776 -7.52249 0.752163 0
M  V30 7556 H 686.044 -7.78432 -0.407825 0
M  V30 7557 N 690.273 -0.685099 -1.4193 0
M  V30 7558 C 691.501 -0.220372 -2.05723 0
M  V30 7559 C 691.916 1.12642 -1.51516 0
M  V30 7560 O 691.273 1.70182 -0.659114 0
M  V30 7561 C 691.324 -0.157974 -3.61155 0
M  V30 7562 O 691.045 -1.45156 -4.13354 0
M  V30 7563 C 692.546 0.329009 -4.42077 0
M  V30 7564 H 689.766 -0.104725 -0.662777 0
M  V30 7565 H 692.31 -0.934736 -1.81887 0
M  V30 7566 H 690.465 0.507144 -3.84066 0
M  V30 7567 H 690.879 -1.33172 -5.07312 0
M  V30 7568 H 692.353 0.321559 -5.51063 0
M  V30 7569 H 692.83 1.36608 -4.17414 0
M  V30 7570 H 693.436 -0.304737 -4.24207 0
M  V30 7571 N 691.751 1.51645 -0.429126 0
M  V30 7572 C 693.167 1.59394 -0.080994 0
M  V30 7573 C 693.367 1.44064 1.40882 0
M  V30 7574 O 692.423 1.27771 2.17786 0
M  V30 7575 C 693.736 2.94779 -0.593773 0
M  V30 7576 C 695.284 3.08067 -0.553494 0
M  V30 7577 C 695.759 4.45963 -1.04311 0
M  V30 7578 N 697.25 4.5226 -1.00076 0
M  V30 7579 C 697.985 5.57268 -1.35056 0
M  V30 7580 N 697.481 6.69734 -1.77282 0
M  V30 7581 N 699.274 5.47582 -1.26925 0
M  V30 7582 H 691.425 1.59856 -1.39857 0
M  V30 7583 H 693.688 0.753095 -0.575805 0
M  V30 7584 H 693.394 3.11342 -1.63583 0
M  V30 7585 H 693.268 3.77197 -0.0142202 0
M  V30 7586 H 695.655 2.91177 0.479556 0
M  V30 7587 H 695.736 2.27508 -1.16935 0
M  V30 7588 H 695.38 4.63598 -2.07459 0
M  V30 7589 H 695.31 5.25049 -0.403873 0
M  V30 7590 H 697.801 3.71537 -0.690564 0
M  V30 7591 H 698.114 7.4587 -2.02232 0
M  V30 7592 H 696.459 6.70963 -1.81202 0
M  V30 7593 H 699.65 4.58604 -0.93809 0
M  V30 7594 H 699.823 6.29308 -1.54516 0
M  V30 7595 N 693.229 0.160201 1.56784 0
M  V30 7596 C 694.454 -0.497373 2.01348 0
M  V30 7597 C 694.879 -1.56757 1.03966 0
M  V30 7598 O 694.237 -1.81292 0.0174455 0
M  V30 7599 C 694.285 -1.0628 3.44582 0
M  V30 7600 O 693.389 -2.17723 3.50244 0
M  V30 7601 H 692.73 -0.120295 0.653012 0
M  V30 7602 H 695.26 0.260821 2.02931 0
M  V30 7603 H 695.27 -1.38819 3.83658 0
M  V30 7604 H 693.945 -0.279166 4.14962 0
M  V30 7605 H 692.522 -1.86313 3.2302 0
M  V30 7606 N 694.707 -1.5719 -0.113559 0
M  V30 7607 C 696.123 -1.52607 -0.467253 0
M  V30 7608 C 696.323 -0.874058 -1.81556 0
M  V30 7609 O 695.379 -0.458703 -2.48299 0
M  V30 7610 C 696.692 -2.97363 -0.446736 0
M  V30 7611 C 698.24 -3.08482 -0.529903 0
M  V30 7612 C 698.715 -4.54809 -0.539721 0
M  V30 7613 N 700.206 -4.59284 -0.601005 0
M  V30 7614 C 700.941 -5.69927 -0.630138 0
M  V30 7615 N 700.437 -6.90051 -0.616589 0
M  V30 7616 N 702.23 -5.5805 -0.673558 0
M  V30 7617 H 694.381 -1.97958 0.769819 0
M  V30 7618 H 696.644 -0.90428 0.284572 0
M  V30 7619 H 696.35 -3.48458 0.47643 0
M  V30 7620 H 696.224 -3.55086 -1.27254 0
M  V30 7621 H 698.611 -2.57386 -1.44349 0
M  V30 7622 H 698.692 -2.53744 0.323695 0
M  V30 7623 H 698.336 -5.06552 0.369843 0
M  V30 7624 H 698.266 -5.07364 -1.41028 0
M  V30 7625 H 700.757 -3.72822 -0.617419 0
M  V30 7626 H 701.07 -7.70132 -0.641592 0
M  V30 7627 H 699.415 -6.92543 -0.583927 0
M  V30 7628 H 702.606 -4.63112 -0.681544 0
M  V30 7629 H 702.779 -6.44286 -0.692794 0
M  V30 7630 N 696.185 0.383891 -1.52853 0
M  V30 7631 C 697.41 1.154 -1.7233 0
M  V30 7632 C 697.835 1.82809 -0.44298 0
M  V30 7633 O 697.193 1.71026 0.601645 0
M  V30 7634 C 697.241 2.17386 -2.87708 0
M  V30 7635 O 696.345 3.24082 -2.55038 0
M  V30 7636 H 695.686 0.335709 -0.572883 0
M  V30 7637 H 698.216 0.44662 -1.99666 0
M  V30 7638 H 698.226 2.61296 -3.1335 0
M  V30 7639 H 696.901 1.6771 -3.80587 0
M  V30 7640 H 695.478 2.85273 -2.40153 0
M  V30 7641 N 697.663 1.43903 0.642637 0
M  V30 7642 C 698.61 1.49881 1.75512 0
M  V30 7643 C 699.58 0.347538 1.62423 0
M  V30 7644 O 700.765 0.556177 1.82514 0
M  V30 7645 C 697.905 1.43797 3.13714 0
M  V30 7646 C 697.018 2.6921 3.37861 0
M  V30 7647 C 696.153 2.5504 4.6597 0
M  V30 7648 C 695.192 3.75671 4.83257 0
M  V30 7649 N 694.329 3.60247 6.02633 0
M  V30 7650 H 699.169 2.44935 1.69737 0
M  V30 7651 H 696.706 1.21572 0.828165 0
M  V30 7652 H 698.664 1.38262 3.93624 0
M  V30 7653 H 697.294 0.523173 3.18532 0
M  V30 7654 H 696.346 2.8498 2.51973 0
M  V30 7655 H 697.658 3.58786 3.46517 0
M  V30 7656 H 696.812 2.47273 5.54023 0
M  V30 7657 H 695.551 1.63006 4.59653 0
M  V30 7658 H 694.556 3.83836 3.93637 0
M  V30 7659 H 695.781 4.68728 4.91397 0
M  V30 7660 H 693.727 2.70955 5.97427 0
M  V30 7661 H 693.644 4.43431 6.12295 0
M  V30 7662 H 694.912 3.56351 6.93278 0
M  V30 7663 N 699.141 -0.881989 1.30609 0
M  V30 7664 C 700.366 -1.67236 1.22665 0
M  V30 7665 C 700.791 -1.8696 -0.206777 0
M  V30 7666 O 700.149 -1.4027 -1.14865 0
M  V30 7667 C 700.197 -3.02446 1.96363 0
M  V30 7668 O 699.301 -3.91614 1.29276 0
M  V30 7669 H 698.642 -0.510902 0.424117 0
M  V30 7670 H 701.172 -1.10055 1.72479 0
M  V30 7671 H 701.182 -3.52468 2.055 0
M  V30 7672 H 699.857 -2.8741 3.00613 0
M  V30 7673 H 698.434 -3.50055 1.28514 0
M  V30 7674 N 700.619 -1.13374 -1.09472 0
M  V30 7675 C 702.035 -0.871846 -1.33682 0
M  V30 7676 C 702.235 0.492847 -1.9538 0
M  V30 7677 O 701.291 1.23946 -2.19985 0
M  V30 7678 C 702.604 -1.99608 -2.24893 0
M  V30 7679 C 704.152 -2.02812 -2.38404 0
M  V30 7680 C 704.627 -3.14497 -3.3295 0
M  V30 7681 N 706.118 -3.14004 -3.40523 0
M  V30 7682 C 706.853 -3.97061 -4.13679 0
M  V30 7683 N 706.349 -4.90131 -4.89636 0
M  V30 7684 N 708.142 -3.85162 -4.09398 0
M  V30 7685 H 700.293 -2.01288 -0.677995 0
M  V30 7686 H 702.556 -0.876492 -0.361201 0
M  V30 7687 H 702.262 -2.98 -1.86786 0
M  V30 7688 H 702.136 -1.90981 -3.25278 0
M  V30 7689 H 704.523 -1.05034 -2.75775 0
M  V30 7690 H 704.604 -2.15511 -1.37799 0
M  V30 7691 H 704.248 -4.12514 -2.96302 0
M  V30 7692 H 704.178 -2.99035 -4.33458 0
M  V30 7693 H 706.669 -2.46587 -2.86362 0
M  V30 7694 H 706.982 -5.49996 -5.42885 0
M  V30 7695 H 705.327 -4.94138 -4.88726 0
M  V30 7696 H 708.518 -3.11779 -3.49158 0
M  V30 7697 H 708.691 -4.5012 -4.6615 0
M  V30 7698 N 702.098 1.27442 -0.927168 0
M  V30 7699 C 703.323 1.99036 -0.583042 0
M  V30 7700 C 703.748 1.68711 0.83176 0
M  V30 7701 O 703.106 0.927081 1.55804 0
M  V30 7702 C 703.154 3.51271 -0.814925 0
M  V30 7703 O 702.258 4.12226 0.119742 0
M  V30 7704 H 701.599 0.624883 -0.224538 0
M  V30 7705 H 704.129 1.62263 -1.24628 0
M  V30 7706 H 704.139 4.01411 -0.730282 0
M  V30 7707 H 702.814 3.72676 -1.84623 0
M  V30 7708 H 701.391 3.72897 -0.0147688 0
M  V30 7709 N 703.576 0.692616 1.41565 0
M  V30 7710 C 704.992 0.363878 1.55397 0
M  V30 7711 C 705.192 -1.1294 1.66874 0
M  V30 7712 O 704.248 -1.91517 1.64552 0
M  V30 7713 C 705.561 1.10982 2.7947 0
M  V30 7714 C 707.109 1.09387 2.93263 0
M  V30 7715 C 707.584 1.8215 4.20221 0
M  V30 7716 N 709.075 1.79105 4.27172 0
M  V30 7717 C 709.81 2.32247 5.2426 0
M  V30 7718 N 709.306 2.93847 6.27396 0
M  V30 7719 N 711.099 2.22519 5.1618 0
M  V30 7720 H 703.25 1.66116 1.3236 0
M  V30 7721 H 705.513 0.700848 0.63837 0
M  V30 7722 H 705.219 2.1647 2.77188 0
M  V30 7723 H 705.093 0.686492 3.709 0
M  V30 7724 H 707.48 0.0472638 2.95062 0
M  V30 7725 H 707.561 1.55623 2.03015 0
M  V30 7726 H 707.205 2.86789 4.19183 0
M  V30 7727 H 707.135 1.33351 5.09436 0
M  V30 7728 H 709.626 1.34191 3.53272 0
M  V30 7729 H 709.939 3.31972 6.97864 0
M  V30 7730 H 708.284 2.97924 6.27906 0
M  V30 7731 H 711.475 1.7407 4.34531 0
M  V30 7732 H 711.648 2.64239 5.91677 0
M  V30 7733 N 705.054 -1.51416 0.437162 0
M  V30 7734 C 706.279 -2.0699 -0.130424 0
M  V30 7735 C 706.704 -1.30249 -1.35709 0
M  V30 7736 O 706.062 -0.340388 -1.78076 0
M  V30 7737 C 706.11 -3.5801 -0.43142 0
M  V30 7738 O 705.214 -3.8345 -1.5179 0
M  V30 7739 H 704.555 -0.663997 -0.00194339 0
M  V30 7740 H 707.085 -1.95029 0.618445 0
M  V30 7741 H 707.095 -4.02261 -0.681926 0
M  V30 7742 H 705.77 -4.13291 0.465137 0
M  V30 7743 H 704.347 -3.51062 -1.25737 0
M  V30 7744 N 706.532 -0.168513 -1.56696 0
M  V30 7745 C 707.495 0.748928 -2.16619 0
M  V30 7746 C 708.495 1.16007 -1.11351 0
M  V30 7747 O 709.685 1.07748 -1.3688 0
M  V30 7748 C 706.817 2.01904 -2.74677 0
M  V30 7749 H 708.01 0.227317 -2.99037 0
M  V30 7750 H 705.563 0.0810372 -1.5609 0
M  V30 7751 H 706.298 2.58381 -1.95985 0
M  V30 7752 H 706.083 1.73323 -3.51712 0
M  V30 7753 H 707.573 2.67383 -3.20774 0
M  V30 7754 N 708.01 1.57248 0.105221 0
M  V30 7755 C 709.235 1.90143 0.828264 0
M  V30 7756 C 709.66 0.761811 1.71983 0
M  V30 7757 O 709.018 -0.287086 1.79013 0
M  V30 7758 C 709.066 3.21856 1.62608 0
M  V30 7759 O 708.17 3.08732 2.7342 0
M  V30 7760 H 707.511 0.623558 0.228192 0
M  V30 7761 H 710.041 2.0443 0.0834826 0
M  V30 7762 H 710.051 3.54916 2.01243 0
M  V30 7763 H 708.726 4.0439 0.971687 0
M  V30 7764 H 707.303 2.87167 2.37886 0
M  V30 7765 N 709.488 -0.375779 1.53054 0
M  V30 7766 C 710.904 -0.716764 1.426 0
M  V30 7767 C 711.104 -1.93651 0.556931 0
M  V30 7768 O 710.16 -2.52475 0.0354461 0
M  V30 7769 C 711.473 -0.939499 2.85646 0
M  V30 7770 C 713.021 -1.04015 2.95212 0
M  V30 7771 C 713.496 -1.29543 4.39298 0
M  V30 7772 N 714.987 -1.36335 4.42682 0
M  V30 7773 C 715.722 -1.57778 5.51266 0
M  V30 7774 N 715.218 -1.76604 6.69913 0
M  V30 7775 N 717.011 -1.60065 5.38828 0
M  V30 7776 H 709.162 0.42664 2.08071 0
M  V30 7777 H 711.425 0.128758 0.939215 0
M  V30 7778 H 711.131 -0.115189 3.51511 0
M  V30 7779 H 711.005 -1.85048 3.2869 0
M  V30 7780 H 713.392 -1.85501 2.29507 0
M  V30 7781 H 713.473 -0.106785 2.55577 0
M  V30 7782 H 713.117 -0.485611 5.05573 0
M  V30 7783 H 713.047 -2.24184 4.76497 0
M  V30 7784 H 715.538 -1.23441 3.5717 0
M  V30 7785 H 715.851 -1.9251 7.48438 0
M  V30 7786 H 714.196 -1.73802 6.72917 0
M  V30 7787 H 717.387 -1.44917 4.45103 0
M  V30 7788 H 717.56 -1.76435 6.23518 0
M  V30 7789 N 710.966 -1.44241 -0.634997 0
M  V30 7790 C 712.191 -1.50516 -1.42687 0
M  V30 7791 C 712.616 -0.129864 -1.87651 0
M  V30 7792 O 711.974 0.880164 -1.58502 0
M  V30 7793 C 712.022 -2.4714 -2.62591 0
M  V30 7794 O 711.126 -1.97025 -3.62291 0
M  V30 7795 H 710.467 -0.50841 -0.427101 0
M  V30 7796 H 712.997 -1.89337 -0.775408 0
M  V30 7797 H 713.007 -2.65048 -3.10183 0
M  V30 7798 H 711.682 -3.47039 -2.29209 0
M  V30 7799 H 710.259 -1.88866 -3.21534 0
M  V30 7800 N 712.444 0.87505 -1.31075 0
M  V30 7801 C 713.855 1.4433 -1.18431 0
M  V30 7802 C 714.206 1.9506 0.211189 0
M  V30 7803 O 713.331 1.85847 1.10859 0
M  V30 7804 C 713.926 2.62341 -2.14389 0
M  V30 7805 C 712.485 3.15225 -2.05694 0
M  V30 7806 C 711.632 1.87929 -2.03907 0
M  V30 7807 H 714.583 0.684061 -1.432 0
M  V30 7808 H 714.604 3.3887 -1.73053 0
M  V30 7809 H 714.116 2.25388 -3.15946 0
M  V30 7810 H 712.217 3.56812 -1.07314 0
M  V30 7811 H 712.33 3.77853 -2.94558 0
M  V30 7812 H 710.694 2.06679 -1.48849 0
M  V30 7813 H 711.477 1.53221 -3.07211 0
M  V30 7814 N 713.922 1.13953 1.08869 0
M  V30 7815 C 715.147 0.928559 1.85452 0
M  V30 7816 C 715.572 -0.517642 1.80837 0
M  V30 7817 O 714.93 -1.36779 1.19001 0
M  V30 7818 C 714.978 1.42814 3.31114 0
M  V30 7819 O 714.082 0.617129 4.07756 0
M  V30 7820 H 713.423 0.33235 0.574839 0
M  V30 7821 H 715.953 1.5156 1.37443 0
M  V30 7822 H 715.963 1.43425 3.8196 0
M  V30 7823 H 714.638 2.48109 3.33788 0
M  V30 7824 H 713.215 0.679365 3.66659 0
M  V30 7825 N 715.4 -1.26948 0.933913 0
M  V30 7826 C 716.816 -1.46419 0.635103 0
M  V30 7827 C 717.016 -1.84336 -0.813785 0
M  V30 7828 O 716.072 -1.96061 -1.59111 0
M  V30 7829 C 717.385 -2.55206 1.5903 0
M  V30 7830 C 718.933 -2.69062 1.5992 0
M  V30 7831 C 719.408 -3.81013 2.54152 0
M  V30 7832 N 720.899 -3.88395 2.52395 0
M  V30 7833 C 721.634 -4.74454 3.21996 0
M  V30 7834 N 721.13 -5.64954 4.00997 0
M  V30 7835 N 722.923 -4.68237 3.10983 0
M  V30 7836 H 715.074 -1.00622 1.87053 0
M  V30 7837 H 717.337 -0.503189 0.803433 0
M  V30 7838 H 717.043 -2.34153 2.62422 0
M  V30 7839 H 716.917 -3.52719 1.33677 0
M  V30 7840 H 719.304 -2.89492 0.572569 0
M  V30 7841 H 719.385 -1.72016 1.89325 0
M  V30 7842 H 719.029 -3.61336 3.5693 0
M  V30 7843 H 718.959 -4.77499 2.22041 0
M  V30 7844 H 721.45 -3.23687 1.95025 0
M  V30 7845 H 721.763 -6.27496 4.51074 0
M  V30 7846 H 720.108 -5.6473 4.05099 0
M  V30 7847 H 723.299 -3.96535 2.48753 0
M  V30 7848 H 723.472 -5.35087 3.65494 0
M  V30 7849 N 716.879 -0.700114 -1.41195 0
M  V30 7850 C 718.104 -0.240704 -2.05998 0
M  V30 7851 C 718.529 1.10313 -1.52357 0
M  V30 7852 O 717.887 1.69154 -0.652424 0
M  V30 7853 C 717.935 -0.213783 -3.59966 0
M  V30 7854 O 717.039 0.809933 -4.04368 0
M  V30 7855 H 716.38 -0.116471 -0.653705 0
M  V30 7856 H 718.91 -0.956251 -1.80878 0
M  V30 7857 H 718.92 -0.0461852 -4.07974 0
M  V30 7858 H 717.595 -1.19454 -3.98376 0
M  V30 7859 H 716.172 0.611319 -3.67855 0
M  V30 7860 N 718.357 1.51182 -0.445186 0
M  V30 7861 C 719.773 1.59299 -0.0978954 0
M  V30 7862 C 719.973 1.4555 1.39346 0
M  V30 7863 O 719.029 1.30073 2.16419 0
M  V30 7864 C 720.342 2.94133 -0.625005 0
M  V30 7865 C 721.89 3.07463 -0.586137 0
M  V30 7866 C 722.365 4.44832 -1.09035 0
M  V30 7867 N 723.856 4.51173 -1.04867 0
M  V30 7868 C 724.591 5.55804 -1.40959 0
M  V30 7869 N 724.087 6.67816 -1.84375 0
M  V30 7870 N 725.88 5.46205 -1.32726 0
M  V30 7871 H 718.031 1.58363 -1.41544 0
M  V30 7872 H 720.294 0.746946 -0.58376 0
M  V30 7873 H 720 3.09589 -1.66876 0
M  V30 7874 H 719.874 3.77161 -0.0542262 0
M  V30 7875 H 722.261 2.9167 0.448646 0
M  V30 7876 H 722.342 2.26255 -1.19341 0
M  V30 7877 H 721.986 4.61372 -2.12364 0
M  V30 7878 H 721.916 5.24591 -0.459539 0
M  V30 7879 H 724.407 3.70783 -0.729932 0
M  V30 7880 H 724.72 7.43683 -2.10131 0
M  V30 7881 H 723.065 6.69003 -1.88308 0
M  V30 7882 H 726.256 4.57583 -0.986678 0
M  V30 7883 H 726.429 6.27634 -1.61182 0
M  V30 7884 N 719.835 0.176821 1.56605 0
M  V30 7885 C 721.06 -0.47599 2.01864 0
M  V30 7886 C 721.485 -1.55645 1.05623 0
M  V30 7887 O 720.843 -1.81263 0.0366729 0
M  V30 7888 C 720.891 -1.02619 3.4569 0
M  V30 7889 O 719.995 -2.13996 3.52533 0
M  V30 7890 H 719.336 -0.113363 0.654251 0
M  V30 7891 H 721.866 0.28233 2.02643 0
M  V30 7892 H 721.876 -1.34742 3.85109 0
M  V30 7893 H 720.551 -0.235138 4.15235 0
M  V30 7894 H 719.128 -1.82876 3.24978 0
M  V30 7895 N 721.313 -1.57302 -0.09688 0
M  V30 7896 C 722.729 -1.53094 -0.451041 0
M  V30 7897 C 722.929 -0.893265 -1.80618 0
M  V30 7898 O 721.985 -0.485013 -2.47798 0
M  V30 7899 C 723.298 -2.9782 -0.415172 0
M  V30 7900 C 724.846 -3.09026 -0.497155 0
M  V30 7901 C 725.321 -4.55356 -0.491452 0
M  V30 7902 N 726.812 -4.59896 -0.552258 0
M  V30 7903 C 727.547 -5.70563 -0.569654 0
M  V30 7904 N 727.043 -6.90666 -0.543365 0
M  V30 7905 N 728.836 -5.58733 -0.614331 0
M  V30 7906 H 720.987 -1.97131 0.790771 0
M  V30 7907 H 723.25 -0.901211 0.294147 0
M  V30 7908 H 722.956 -3.47933 0.513362 0
M  V30 7909 H 722.83 -3.56416 -1.23481 0
M  V30 7910 H 725.217 -2.58902 -1.41611 0
M  V30 7911 H 725.298 -2.53386 0.35059 0
M  V30 7912 H 724.942 -5.06131 0.423549 0
M  V30 7913 H 724.872 -5.08832 -1.35639 0
M  V30 7914 H 727.363 -3.73456 -0.577842 0
M  V30 7915 H 727.676 -7.70769 -0.559873 0
M  V30 7916 H 726.021 -6.93123 -0.510441 0
M  V30 7917 H 729.212 -4.63809 -0.632387 0
M  V30 7918 H 729.385 -6.44984 -0.62442 0
M  V30 7919 N 722.791 0.367657 -1.53252 0
M  V30 7920 C 724.016 1.13566 -1.73544 0
M  V30 7921 C 724.441 1.82329 -0.462344 0
M  V30 7922 O 723.799 1.71655 0.583472 0
M  V30 7923 C 723.847 2.14322 -2.89997 0
M  V30 7924 O 722.951 3.21359 -2.58461 0
M  V30 7925 H 722.292 0.329614 -0.576412 0
M  V30 7926 H 724.822 0.425417 -2.00128 0
M  V30 7927 H 724.832 2.57958 -3.16104 0
M  V30 7928 H 723.507 1.63664 -3.82344 0
M  V30 7929 H 722.084 2.8271 -2.43165 0
M  V30 7930 N 724.269 1.44576 0.627338 0
M  V30 7931 C 725.219 1.48168 1.73293 0
M  V30 7932 C 726.203 0.347045 1.57113 0
M  V30 7933 O 727.395 0.592605 1.66785 0
M  V30 7934 C 724.524 1.43236 3.11991 0
M  V30 7935 C 723.61 2.61828 3.33627 0
M  V30 7936 N 724.001 3.87053 3.25612 0
M  V30 7937 C 722.299 2.57104 3.64436 0
M  V30 7938 C 723 4.66093 3.48041 0
M  V30 7939 N 721.976 3.97228 3.71095 0
M  V30 7940 H 725.778 2.42832 1.6556 0
M  V30 7941 H 723.292 1.39592 0.829934 0
M  V30 7942 H 725.289 1.43893 3.91281 0
M  V30 7943 H 723.949 0.496133 3.20887 0
M  V30 7944 H 724.96 4.18966 3.04447 0
M  V30 7945 H 721.637 1.72295 3.8029 0
M  V30 7946 H 723.027 5.75117 3.47404 0
M  V30 7947 N 725.747 -0.868086 1.31537 0
M  V30 7948 C 726.972 -1.65926 1.24432 0
M  V30 7949 C 727.397 -1.87169 -0.186936 0
M  V30 7950 O 726.755 -1.4148 -1.13371 0
M  V30 7951 C 726.803 -3.00347 1.9956 0
M  V30 7952 O 725.907 -3.90221 1.33422 0
M  V30 7953 H 725.248 -0.506375 0.429512 0
M  V30 7954 H 727.778 -1.0822 1.73637 0
M  V30 7955 H 727.788 -3.50269 2.09226 0
M  V30 7956 H 726.463 -2.84205 3.03645 0
M  V30 7957 H 725.04 -3.48672 1.32219 0
M  V30 7958 N 727.225 -1.14528 -1.08264 0
M  V30 7959 C 728.641 -0.885976 -1.3275 0
M  V30 7960 C 728.841 0.472096 -1.95892 0
M  V30 7961 O 727.897 1.21606 -2.21288 0
M  V30 7962 C 729.21 -2.01982 -2.22764 0
M  V30 7963 C 730.758 -2.05329 -2.36239 0
M  V30 7964 C 731.233 -3.1801 -3.29596 0
M  V30 7965 N 732.724 -3.17598 -3.37173 0
M  V30 7966 C 733.459 -4.01426 -4.09444 0
M  V30 7967 N 732.955 -4.95297 -4.8441 0
M  V30 7968 N 734.748 -3.89482 -4.0529 0
M  V30 7969 H 726.899 -2.01996 -0.656607 0
M  V30 7970 H 729.162 -0.880274 -0.351884 0
M  V30 7971 H 728.868 -2.99964 -1.83615 0
M  V30 7972 H 728.742 -1.94421 -3.23234 0
M  V30 7973 H 731.129 -1.07953 -2.74646 0
M  V30 7974 H 731.21 -2.1696 -1.35506 0
M  V30 7975 H 730.854 -4.15633 -2.9191 0
M  V30 7976 H 730.784 -3.03616 -4.30261 0
M  V30 7977 H 733.275 -2.4961 -2.83731 0
M  V30 7978 H 733.588 -5.55723 -5.37021 0
M  V30 7979 H 731.933 -4.99293 -4.83457 0
M  V30 7980 H 735.124 -3.15465 -3.45832 0
M  V30 7981 H 735.297 -4.55039 -4.6135 0
M  V30 7982 N 728.703 1.26451 -0.940633 0
M  V30 7983 C 729.928 1.98407 -0.60412 0
M  V30 7984 C 730.353 1.69584 0.81382 0
M  V30 7985 O 729.711 0.943553 1.54812 0
M  V30 7986 C 729.759 3.50387 -0.852136 0
M  V30 7987 O 728.863 4.1233 0.076013 0
M  V30 7988 H 728.204 0.622466 -0.231153 0
M  V30 7989 H 730.734 1.60932 -1.26342 0
M  V30 7990 H 730.744 4.00614 -0.772816 0
M  V30 7991 H 729.419 3.70696 -1.88566 0
M  V30 7992 H 727.996 3.7286 -0.0543187 0
M  V30 7993 O 730.22 0.846016 1.37567 0
M  V30 7994 H 730.911 0.436618 1.88715 0
M  V30 END ATOM
M  V30 BEGIN BOND
M  V30 END BOND
M  V30 END CTAB
M  END
$$$$
