drugbank_target|Q08210 Dihydroorotate dehydrogenase (quinone), mitochondrial (DB01117)
 OpenBabel12092119353D

  0  0  0     0  0            999 V3000
M  V30 BEGIN CTAB
M  V30 COUNTS 9289 9375 0 0 0
M  V30 BEGIN ATOM
M  V30 1 H -0.908 1.98254 -0.117106 0
M  V30 2 N 0 1.576 0 0
M  V30 3 C 0.933 2.03868 1.02534 0
M  V30 4 C 1.911 0.928543 1.3348 0
M  V30 5 O 3.095 1.19667 1.45644 0
M  V30 6 C 0.222 2.43627 2.35294 0
M  V30 7 C -0.732 3.65373 2.2001 0
M  V30 8 S 0.101 5.13292 1.52614 0
M  V30 9 C 1.257 5.56322 2.86805 0
M  V30 10 H 1.49 2.90518 0.631377 0
M  V30 11 H -0.977 1.52953 0.210867 0
M  V30 12 H 0.981 2.67203 3.11629 0
M  V30 13 H -0.358 1.57376 2.7183 0
M  V30 14 H -1.165 3.90944 3.18086 0
M  V30 15 H -1.563 3.418 1.51819 0
M  V30 16 H 0.729 5.58782 3.83104 0
M  V30 17 H 1.672 6.56266 2.65933 0
M  V30 18 H 2.08 4.83886 2.90714 0
M  V30 19 N 1.4781 -0.272755 1.55222 0
M  V30 20 C 2.7271 -1.00211 1.75045 0
M  V30 21 C 3.0401 -1.87441 0.559046 0
M  V30 22 O 4.2461 -2.63856 0.639698 0
M  V30 23 C 2.7021 -1.83165 3.09804 0
M  V30 24 C 2.3101 -1.008 4.36513 0
M  V30 25 C 4.0541 -2.55529 3.38977 0
M  V30 26 C 1.9611 -1.83194 5.62311 0
M  V30 27 H 0.8911 -0.377878 0.652476 0
M  V30 28 H 3.5421 -0.257776 1.8168 0
M  V30 29 H 1.9241 -2.61694 2.97207 0
M  V30 30 H 3.0981 -0.266855 4.60027 0
M  V30 31 H 1.4131 -0.398897 4.14485 0
M  V30 32 H 4.0101 -3.17578 4.30172 0
M  V30 33 H 4.3531 -3.25825 2.59121 0
M  V30 34 H 4.8861 -1.84029 3.52673 0
M  V30 35 H 1.6251 -1.17318 6.44916 0
M  V30 36 H 1.1451 -2.54905 5.4294 0
M  V30 37 H 2.8241 -2.40552 6.00619 0
M  V30 38 N 2.9562 -1.48159 -0.537278 0
M  V30 39 C 4.1812 -1.59707 -1.32319 0
M  V30 40 C 4.6062 -0.254859 -1.86365 0
M  V30 41 O 3.9642 0.772378 -1.64024 0
M  V30 42 C 4.0122 -2.6412 -2.45505 0
M  V30 43 O 3.1162 -2.20774 -3.48328 0
M  V30 44 H 2.4572 -0.535791 -0.392204 0
M  V30 45 H 4.9872 -1.94092 -0.647268 0
M  V30 46 H 4.9972 -2.85166 -2.91795 0
M  V30 47 H 3.6722 -3.61567 -2.05528 0
M  V30 48 H 2.2492 -2.09911 -3.08207 0
M  V30 49 N 4.4343 0.785586 -1.36625 0
M  V30 50 C 5.3813 1.89838 -1.31264 0
M  V30 51 C 6.3513 1.65115 -0.180633 0
M  V30 52 O 7.5363 1.87222 -0.36777 0
M  V30 53 C 4.6763 3.26706 -1.11163 0
M  V30 54 C 3.7893 3.63476 -2.33472 0
M  V30 55 C 2.9243 4.89481 -2.06353 0
M  V30 56 C 1.9633 5.18941 -3.24602 0
M  V30 57 N 1.1003 6.36131 -2.97123 0
M  V30 58 H 5.9403 1.93756 -2.26413 0
M  V30 59 H 3.4773 0.947454 -1.12524 0
M  V30 60 H 5.4353 4.05639 -0.975337 0
M  V30 61 H 4.0653 3.222 -0.196674 0
M  V30 62 H 3.1173 2.79636 -2.57891 0
M  V30 63 H 4.4293 3.81193 -3.21704 0
M  V30 64 H 3.5833 5.76288 -1.89675 0
M  V30 65 H 2.3223 4.73841 -1.15437 0
M  V30 66 H 1.3273 4.30615 -3.41834 0
M  V30 67 H 2.5523 5.36498 -4.16349 0
M  V30 68 H 0.4983 6.21875 -2.08823 0
M  V30 69 H 0.4153 6.54198 -3.78894 0
M  V30 70 H 1.6833 7.2591 -2.84033 0
M  V30 71 N 5.9124 1.20967 1.01018 0
M  V30 72 C 6.8424 0.988272 2.11555 0
M  V30 73 C 7.8234 -0.0849778 1.69888 0
M  V30 74 O 9.0084 0.0738202 1.9406 0
M  V30 75 C 6.1384 0.546528 3.42973 0
M  V30 76 C 5.0924 1.56375 3.9841 0
M  V30 77 C 4.4184 0.97842 5.25672 0
M  V30 78 C 5.7184 2.94922 4.31066 0
M  V30 79 H 7.4124 1.91276 2.30334 0
M  V30 80 H 4.9584 0.921073 1.1069 0
M  V30 81 H 6.9114 0.378839 4.19694 0
M  V30 82 H 5.6354 -0.413598 3.23971 0
M  V30 83 H 4.2944 1.71891 3.23804 0
M  V30 84 H 3.9424 0.0101688 5.02999 0
M  V30 85 H 3.6424 1.65784 5.63728 0
M  V30 86 H 5.1664 0.821939 6.05043 0
M  V30 87 H 6.5804 2.8288 4.9865 0
M  V30 88 H 4.9774 3.5983 4.80253 0
M  V30 89 H 6.0474 3.4616 3.39561 0
M  V30 90 N 7.3905 -1.2043 1.01659 0
M  V30 91 C 8.3375 -2.23215 0.586822 0
M  V30 92 C 9.3075 -1.61382 -0.393085 0
M  V30 93 O 10.4925 -1.88544 -0.292525 0
M  V30 94 C 7.6325 -3.45032 -0.0687464 0
M  V30 95 C 6.7455 -4.21296 0.955724 0
M  V30 96 C 5.8805 -5.30507 0.271208 0
M  V30 97 C 4.9195 -5.98515 1.28244 0
M  V30 98 N 4.0565 -6.99316 0.62459 0
M  V30 99 H 8.8965 -2.59336 1.46796 0
M  V30 100 H 6.4335 -1.27431 0.734836 0
M  V30 101 H 8.3915 -4.1459 -0.465965 0
M  V30 102 H 7.0215 -3.09604 -0.913529 0
M  V30 103 H 6.0735 -3.50803 1.4711 0
M  V30 104 H 7.3855 -4.6803 1.72479 0
M  V30 105 H 6.5395 -6.06428 -0.18151 0
M  V30 106 H 5.2785 -4.8481 -0.530163 0
M  V30 107 H 4.2835 -5.21355 1.74554 0
M  V30 108 H 5.5085 -6.46298 2.08509 0
M  V30 109 H 3.4545 -6.55812 -0.156914 0
M  V30 110 H 3.3715 -7.44178 1.33172 0
M  V30 111 H 4.6395 -7.79255 0.195462 0
M  V30 112 N 8.8686 -0.792821 -1.36206 0
M  V30 113 C 10.2796 -0.429513 -1.81692 0
M  V30 114 C 10.6306 1.04695 -1.65932 0
M  V30 115 O 9.7556 1.81256 -1.18218 0
M  V30 116 C 10.3506 -0.772831 -3.29868 0
M  V30 117 C 8.9096 -0.462307 -3.7355 0
M  V30 118 C 8.0566 -1.00569 -2.5842 0
M  V30 119 H 11.0076 -0.985672 -1.24379 0
M  V30 120 H 11.0286 -0.0651928 -3.80444 0
M  V30 121 H 10.5406 -1.84747 -3.41307 0
M  V30 122 H 8.6416 0.604158 -3.67669 0
M  V30 123 H 8.7546 -0.985299 -4.68859 0
M  V30 124 H 7.1186 -0.428734 -2.51066 0
M  V30 125 H 7.9016 -2.08616 -2.72643 0
M  V30 126 N 10.3467 1.47872 -0.545128 0
M  V30 127 C 11.2787 2.27869 0.246621 0
M  V30 128 C 12.2917 1.36282 0.890561 0
M  V30 129 O 13.4807 1.61207 0.766449 0
M  V30 130 C 10.5807 3.10159 1.36582 0
M  V30 131 C 9.7537 4.29627 0.820954 0
M  V30 132 C 8.8127 4.93607 1.82314 0
M  V30 133 O 7.8387 5.52366 1.37406 0
M  V30 134 N 9.0407 4.87211 3.15603 0
M  V30 135 H 11.8057 2.96459 -0.439539 0
M  V30 136 H 9.3667 1.57367 -0.380421 0
M  V30 137 H 11.3587 3.49829 2.03474 0
M  V30 138 H 9.9287 2.43891 1.9554 0
M  V30 139 H 9.1487 3.94192 -0.0244032 0
M  V30 140 H 10.4367 5.06928 0.436063 0
M  V30 141 H 9.8347 4.40651 3.54744 0
M  V30 142 H 8.3917 5.30937 3.78087 0
M  V30 143 N 11.8248 0.280983 1.55075 0
M  V30 144 C 13.0718 -0.334115 1.99725 0
M  V30 145 C 13.3998 -1.5542 1.1694 0
M  V30 146 O 12.6548 -1.94361 0.228531 0
M  V30 147 C 12.9538 -0.754656 3.49342 0
M  V30 148 C 12.6198 0.361445 4.49449 0
M  V30 149 C 11.2818 0.667893 4.76542 0
M  V30 150 C 13.6338 1.11322 5.09173 0
M  V30 151 C 10.9618 1.7296 5.60626 0
M  V30 152 C 13.3138 2.1647 5.9441 0
M  V30 153 C 11.9778 2.47742 6.19822 0
M  V30 154 H 11.2478 -0.122261 0.730844 0
M  V30 155 H 13.8948 0.395917 1.87363 0
M  V30 156 H 12.1998 -1.56446 3.5921 0
M  V30 157 H 13.8968 -1.24142 3.813 0
M  V30 158 H 10.4868 0.112481 4.28452 0
M  V30 159 H 14.6708 0.88973 4.8826 0
M  V30 160 H 9.9268 1.97684 5.78559 0
M  V30 161 H 14.1008 2.75193 6.3972 0
M  V30 162 H 11.7278 3.30145 6.84769 0
M  V30 163 N 13.3029 -1.57598 0.00835791 0
M  V30 164 C 14.2359 -2.04409 -1.01451 0
M  V30 165 C 15.2139 -0.935609 -1.32985 0
M  V30 166 O 16.3979 -1.20437 -1.45007 0
M  V30 167 C 13.5249 -2.44872 -2.33999 0
M  V30 168 C 12.5709 -3.66535 -2.18069 0
M  V30 169 S 13.4039 -5.14095 -1.4989 0
M  V30 170 C 14.5599 -5.57835 -2.8385 0
M  V30 171 H 14.7929 -2.90849 -0.615961 0
M  V30 172 H 12.3259 -1.53063 -0.202752 0
M  V30 173 H 14.2839 -2.68852 -3.10208 0
M  V30 174 H 12.9449 -1.58815 -2.70992 0
M  V30 175 H 12.1379 -3.92626 -3.16008 0
M  V30 176 H 11.7399 -3.426 -1.50004 0
M  V30 177 H 14.0319 -5.60806 -3.80136 0
M  V30 178 H 14.9749 -6.57667 -2.62449 0
M  V30 179 H 15.3829 -4.85421 -2.88144 0
M  V30 180 N 14.781 0.264519 -1.55364 0
M  V30 181 C 16.028 0.994986 -1.7637 0
M  V30 182 C 16.356 1.85976 -0.5695 0
M  V30 183 O 15.611 1.90509 0.44776 0
M  V30 184 C 15.91 1.9004 -3.02687 0
M  V30 185 C 15.576 1.19243 -4.34847 0
M  V30 186 C 14.238 0.996709 -4.70764 0
M  V30 187 C 16.59 0.689296 -5.16622 0
M  V30 188 C 13.918 0.285261 -5.86006 0
M  V30 189 C 16.27 -0.00860079 -6.32599 0
M  V30 190 C 14.934 -0.215963 -6.67151 0
M  V30 191 H 14.204 0.364091 -0.645383 0
M  V30 192 H 16.851 0.266543 -1.89636 0
M  V30 193 H 15.156 2.69533 -2.84357 0
M  V30 194 H 16.853 2.46695 -3.16137 0
M  V30 195 H 13.443 1.3549 -4.06621 0
M  V30 196 H 17.627 0.828108 -4.89342 0
M  V30 197 H 12.883 0.113961 -6.11294 0
M  V30 198 H 17.057 -0.406186 -6.95214 0
M  V30 199 H 14.684 -0.769217 -7.56298 0
M  V30 200 N 16.2591 1.48442 0.529413 0
M  V30 201 C 17.1891 1.65902 1.64313 0
M  V30 202 C 18.1701 0.507897 1.6234 0
M  V30 203 O 19.3551 0.740503 1.79528 0
M  V30 204 C 16.4851 1.69911 3.02898 0
M  V30 205 C 15.4391 2.8453 3.19729 0
M  V30 206 C 14.7651 2.73629 4.59381 0
M  V30 207 C 16.0651 4.25821 3.02447 0
M  V30 208 H 17.7591 2.5914 1.49955 0
M  V30 209 H 15.3051 1.24709 0.719982 0
M  V30 210 H 17.2581 1.80715 3.80684 0
M  V30 211 H 15.9821 0.732524 3.18279 0
M  V30 212 H 14.6411 2.73283 2.44361 0
M  V30 213 H 14.2891 1.74938 4.71599 0
M  V30 214 H 13.9891 3.50541 4.71588 0
M  V30 215 H 15.5131 2.86401 5.39265 0
M  V30 216 H 16.9271 4.37898 3.70024 0
M  V30 217 H 15.3241 5.03735 3.26146 0
M  V30 218 H 16.3941 4.42244 1.98867 0
M  V30 219 N 17.7372 -0.778329 1.37039 0
M  V30 220 C 19.1482 -1.35421 1.28523 0
M  V30 221 C 19.4992 -1.96075 -0.0700901 0
M  V30 222 O 18.6242 -1.93352 -0.971801 0
M  V30 223 C 19.2192 -2.46211 2.32735 0
M  V30 224 C 17.7782 -2.99585 2.27873 0
M  V30 225 C 16.9252 -1.72748 2.16918 0
M  V30 226 H 19.8762 -0.5791 1.47757 0
M  V30 227 H 19.8972 -3.2552 1.9702 0
M  V30 228 H 19.4092 -2.02036 3.31365 0
M  V30 229 H 17.5102 -3.48152 1.32745 0
M  V30 230 H 17.6232 -3.55646 3.21018 0
M  V30 231 H 15.9872 -1.95416 1.63354 0
M  V30 232 H 16.7702 -1.30686 3.17452 0
M  V30 233 N 19.2153 -1.21501 -1.00376 0
M  V30 234 C 20.1623 -0.975387 -2.09177 0
M  V30 235 C 21.1323 0.0990615 -1.65804 0
M  V30 236 O 22.3173 -0.0483147 -1.90739 0
M  V30 237 C 19.4573 -0.547507 -3.40729 0
M  V30 238 C 18.5703 -1.69153 -3.97506 0
M  V30 239 C 17.7053 -1.2127 -5.17172 0
M  V30 240 C 16.7443 -2.32897 -5.66061 0
M  V30 241 N 15.8813 -1.86138 -6.76976 0
M  V30 242 H 20.7213 -1.9068 -2.29009 0
M  V30 243 H 18.2583 -0.950257 -1.12288 0
M  V30 244 H 20.2163 -0.280667 -4.16255 0
M  V30 245 H 18.8463 0.346904 -3.20931 0
M  V30 246 H 17.8983 -2.07298 -3.18954 0
M  V30 247 H 19.2103 -2.5316 -4.29781 0
M  V30 248 H 18.3643 -0.902591 -5.99948 0
M  V30 249 H 17.1033 -0.342692 -4.86495 0
M  V30 250 H 16.1083 -2.64709 -4.81881 0
M  V30 251 H 17.3333 -3.20396 -5.98768 0
M  V30 252 H 15.2793 -1.01484 -6.48103 0
M  V30 253 H 15.1963 -2.63717 -7.08512 0
M  V30 254 H 16.4643 -1.58165 -7.63285 0
M  V30 255 N 20.6934 1.19889 -1.02296 0
M  V30 256 C 21.6404 2.22901 -0.598651 0
M  V30 257 C 22.6104 1.61588 0.384521 0
M  V30 258 O 23.7954 1.88697 0.282522 0
M  V30 259 C 20.9354 3.45063 0.0504476 0
M  V30 260 C 20.0484 4.20783 -0.978053 0
M  V30 261 C 19.1834 5.30356 -0.299338 0
M  V30 262 C 18.2224 5.97826 -1.31416 0
M  V30 263 N 17.3594 6.98975 -0.661667 0
M  V30 264 H 22.1994 2.58554 -1.48169 0
M  V30 265 H 19.7364 1.27039 -0.741584 0
M  V30 266 H 21.6944 4.14831 0.443971 0
M  V30 267 H 20.3244 3.10084 0.897097 0
M  V30 268 H 19.3764 3.50018 -1.48969 0
M  V30 269 H 20.6884 4.67109 -1.74958 0
M  V30 270 H 19.8424 6.06516 0.149347 0
M  V30 271 H 18.5814 4.85084 0.504445 0
M  V30 272 H 17.5864 5.20422 -1.77317 0
M  V30 273 H 18.8114 6.45183 -2.11933 0
M  V30 274 H 16.7574 6.55886 0.122132 0
M  V30 275 H 16.6744 7.43461 -1.37117 0
M  V30 276 H 17.9424 7.7914 -0.236785 0
M  V30 277 N 22.1715 0.800033 1.35784 0
M  V30 278 C 23.1215 0.178654 2.27299 0
M  V30 279 C 24.1055 -0.643667 1.47464 0
M  V30 280 O 25.2975 -0.502 1.69732 0
M  V30 281 C 22.4265 -0.677194 3.36555 0
M  V30 282 C 21.5125 0.154497 4.23818 0
M  V30 283 N 21.9035 1.21427 4.91008 0
M  V30 284 C 20.2015 -0.0649462 4.45953 0
M  V30 285 C 20.9025 1.72147 5.55644 0
M  V30 286 N 19.8785 1.02897 5.33773 0
M  V30 287 H 23.6805 0.989637 2.76737 0
M  V30 288 H 21.1945 0.64054 1.49234 0
M  V30 289 H 23.1915 -1.13835 4.01058 0
M  V30 290 H 21.8515 -1.4866 2.8867 0
M  V30 291 H 22.8625 1.59684 4.92668 0
M  V30 292 H 19.5395 -0.844016 4.0888 0
M  V30 293 H 20.9295 2.60683 6.19269 0
M  V30 294 N 23.6496 -1.47581 0.552962 0
M  V30 295 C 24.8986 -2.01684 0.0251995 0
M  V30 296 C 25.2116 -1.43317 -1.33115 0
M  V30 297 O 26.4176 -1.89057 -1.94858 0
M  V30 298 C 24.8736 -3.599 -0.00542052 0
M  V30 299 C 24.4816 -4.27257 1.34742 0
M  V30 300 C 26.2256 -4.21768 -0.4808 0
M  V30 301 C 24.1326 -5.77467 1.27614 0
M  V30 302 H 23.0626 -0.753979 0.00565033 0
M  V30 303 H 25.7136 -1.69616 0.70018 0
M  V30 304 H 24.0956 -3.88911 -0.745961 0
M  V30 305 H 25.2696 -4.09893 2.10534 0
M  V30 306 H 23.5846 -3.77358 1.76039 0
M  V30 307 H 26.1816 -5.31838 -0.55246 0
M  V30 308 H 26.5246 -3.88651 -1.49184 0
M  V30 309 H 27.0576 -3.97273 0.204752 0
M  V30 310 H 23.7966 -6.15196 2.26304 0
M  V30 311 H 23.3166 -5.9718 0.55996 0
M  V30 312 H 24.9956 -6.3959 0.976421 0
M  V30 313 N 25.1277 -0.289203 -1.54924 0
M  V30 314 C 26.0577 0.58549 -2.2604 0
M  V30 315 C 27.0387 1.14753 -1.25562 0
M  V30 316 O 28.2237 1.17906 -1.54311 0
M  V30 317 C 25.3537 1.76305 -2.99222 0
M  V30 318 C 24.3077 1.33191 -4.06748 0
M  V30 319 C 23.6337 2.5937 -4.6758 0
M  V30 320 C 24.9337 0.471775 -5.20165 0
M  V30 321 H 26.6277 -0.00763532 -2.99399 0
M  V30 322 H 24.1737 -0.00511229 -1.43999 0
M  V30 323 H 26.1267 2.38097 -3.47689 0
M  V30 324 H 24.8507 2.38223 -2.23422 0
M  V30 325 H 23.5097 0.737121 -3.59113 0
M  V30 326 H 23.1577 3.19576 -3.88433 0
M  V30 327 H 22.8577 2.31228 -5.40192 0
M  V30 328 H 24.3817 3.21985 -5.18804 0
M  V30 329 H 25.7957 0.995056 -5.64599 0
M  V30 330 H 24.1927 0.284639 -5.99425 0
M  V30 331 H 25.2627 -0.506041 -4.82252 0
M  V30 332 N 26.6058 1.57591 -0.0167156 0
M  V30 333 C 27.8308 1.9598 0.67872 0
M  V30 334 C 28.2558 0.892546 1.65575 0
M  V30 335 O 27.6138 -0.147772 1.80697 0
M  V30 336 C 27.6618 3.33468 1.37227 0
M  V30 337 O 26.7658 3.28954 2.48722 0
M  V30 338 H 26.1068 0.639339 0.17928 0
M  V30 339 H 28.6368 2.04463 -0.0748802 0
M  V30 340 H 28.6468 3.69417 1.7319 0
M  V30 341 H 27.3218 4.10694 0.656007 0
M  V30 342 H 25.8988 3.04705 2.14963 0
M  V30 343 N 28.0839 -0.256276 1.55502 0
M  V30 344 C 29.3139 -1.00196 1.80677 0
M  V30 345 C 29.7219 -1.79805 0.588797 0
M  V30 346 O 29.0649 -1.78055 -0.451883 0
M  V30 347 C 29.1269 -1.99515 2.99055 0
M  V30 348 C 28.7909 -1.38688 4.35448 0
M  V30 349 C 29.7879 -0.794079 5.138 0
M  V30 350 C 27.4729 -1.40906 4.82132 0
M  V30 351 C 29.4669 -0.231562 6.36979 0
M  V30 352 C 27.1539 -0.842684 6.05262 0
M  V30 353 C 28.1519 -0.254953 6.82524 0
M  V30 354 O 27.8399 0.3027 8.0333 0
M  V30 355 H 27.5719 -0.300919 0.60533 0
M  V30 356 H 30.1259 -0.287307 2.03381 0
M  V30 357 H 28.3559 -2.74785 2.72084 0
M  V30 358 H 30.0449 -2.60349 3.11405 0
M  V30 359 H 30.8109 -0.769519 4.78856 0
M  V30 360 H 26.6899 -1.85591 4.21992 0
M  V30 361 H 30.2339 0.227816 6.97228 0
M  V30 362 H 26.1309 -0.86454 6.39684 0
M  V30 363 H 26.8989 0.193662 8.18271 0
M  V30 364 N 29.562 -1.4872 -0.521534 0
M  V30 365 C 30.802 -1.58771 -1.28729 0
M  V30 366 C 31.166 -0.259394 -1.9024 0
M  V30 367 O 32.367 -0.234942 -2.67771 0
M  V30 368 C 30.638 -2.70039 -2.34124 0
M  V30 369 S 32.197 -2.9991 -3.20312 0
M  V30 370 H 29.015 -0.560251 -0.437767 0
M  V30 371 H 31.617 -1.86283 -0.593188 0
M  V30 372 H 30.321 -3.65101 -1.87429 0
M  V30 373 H 29.852 -2.44455 -3.08229 0
M  V30 374 H 31.867 -2.39855 -4.34378 0
M  V30 375 N 31.0401 0.771051 -1.3745 0
M  V30 376 C 32.4561 1.07171 -1.18265 0
M  V30 377 C 32.6561 2.01491 -0.019287 0
M  V30 378 O 31.7121 2.44244 0.640408 0
M  V30 379 C 33.0251 1.66854 -2.50161 0
M  V30 380 C 34.5731 1.79109 -2.56689 0
M  V30 381 C 35.0481 2.42205 -3.88717 0
M  V30 382 N 36.5391 2.49655 -3.90162 0
M  V30 383 C 37.2741 2.9933 -4.8907 0
M  V30 384 N 36.7701 3.49172 -5.98374 0
M  V30 385 N 38.5631 2.9821 -4.76474 0
M  V30 386 H 30.7141 0.144796 -2.11906 0
M  V30 387 H 32.9771 0.126863 -0.939473 0
M  V30 388 H 32.6831 1.05017 -3.35655 0
M  V30 389 H 32.5571 2.6614 -2.673 0
M  V30 390 H 34.9441 2.40077 -1.71601 0
M  V30 391 H 35.0251 0.785757 -2.43433 0
M  V30 392 H 34.6691 1.81875 -4.74219 0
M  V30 393 H 34.5991 3.43345 -3.99276 0
M  V30 394 H 37.0901 2.14383 -3.11205 0
M  V30 395 H 37.4031 3.8548 -6.69795 0
M  V30 396 H 35.7481 3.47275 -6.02018 0
M  V30 397 H 38.9391 2.58572 -3.90203 0
M  V30 398 H 39.1121 3.36613 -5.53711 0
M  V30 399 N 32.5182 1.22032 0.997298 0
M  V30 400 C 33.4652 0.986467 2.08656 0
M  V30 401 C 34.4352 -0.0902671 1.65855 0
M  V30 402 O 35.6202 0.0584294 1.90711 0
M  V30 403 C 32.7602 0.565569 3.40434 0
M  V30 404 C 31.8732 1.71259 3.96604 0
M  V30 405 C 31.0082 1.24011 5.16522 0
M  V30 406 C 30.0472 2.35896 5.64818 0
M  V30 407 N 29.1842 1.89726 6.7598 0
M  V30 408 H 34.0242 1.91892 2.27994 0
M  V30 409 H 31.5612 0.956199 1.11782 0
M  V30 410 H 33.5192 0.302738 4.161 0
M  V30 411 H 32.1492 -0.329879 3.2111 0
M  V30 412 H 31.2012 2.08986 3.17851 0
M  V30 413 H 32.5132 2.55436 4.28432 0
M  V30 414 H 31.6672 0.934395 5.99461 0
M  V30 415 H 30.4062 0.368487 4.86306 0
M  V30 416 H 29.4112 2.67261 4.8047 0
M  V30 417 H 30.6362 3.23567 5.97061 0
M  V30 418 H 28.5822 1.0492 6.47555 0
M  V30 419 H 28.4992 2.67471 7.07103 0
M  V30 420 H 29.7672 1.62211 7.62435 0
M  V30 421 N 33.9963 -1.19345 1.0293 0
M  V30 422 C 35.2733 -1.84811 0.640642 0
M  V30 423 C 35.6533 -1.91855 -0.88062 0
M  V30 424 O 35.0013 -1.43587 -1.7775 0
M  V30 425 C 35.2113 -3.23755 1.30321 0
M  V30 426 C 36.5593 -3.99912 1.42673 0
M  V30 427 O 37.5833 -3.33155 1.26041 0
M  V30 428 O 36.4423 -5.19494 1.6967 0
M  V30 429 H 33.5363 -0.796443 0.222726 0
M  V30 430 H 36.0823 -1.26831 1.12748 0
M  V30 431 H 34.8543 -3.13466 2.34211 0
M  V30 432 H 34.4773 -3.89381 0.804261 0
M  V30 433 N 35.4744 -0.807222 -1.35358 0
M  V30 434 C 36.7204 -0.388463 -1.99045 0
M  V30 435 C 37.0534 1.04184 -1.63888 0
M  V30 436 O 36.3284 1.72292 -0.902535 0
M  V30 437 C 36.6114 -0.572783 -3.55515 0
M  V30 438 C 36.4644 -2.04807 -4.00468 0
M  V30 439 C 37.7834 0.00114064 -4.401 0
M  V30 440 H 34.9024 -0.142619 -0.723069 0
M  V30 441 H 37.5444 -1.01687 -1.60498 0
M  V30 442 H 35.6944 -0.0378425 -3.88482 0
M  V30 443 H 37.3664 -2.64544 -3.77908 0
M  V30 444 H 35.6094 -2.54427 -3.51353 0
M  V30 445 H 36.2804 -2.12792 -5.09337 0
M  V30 446 H 38.7564 -0.455716 -4.13597 0
M  V30 447 H 37.6324 -0.157737 -5.48673 0
M  V30 448 H 37.8934 1.09488 -4.28328 0
M  V30 449 N 36.9525 1.47285 -0.560781 0
M  V30 450 C 37.8825 2.32857 0.173105 0
M  V30 451 C 38.8635 1.44009 0.905281 0
M  V30 452 O 40.0485 1.7286 0.885046 0
M  V30 453 C 37.1785 3.25861 1.20133 0
M  V30 454 C 36.1325 4.23978 0.585388 0
M  V30 455 C 35.4585 5.06332 1.7185 0
M  V30 456 C 36.7585 5.20242 -0.463178 0
M  V30 457 H 38.4525 2.94466 -0.541307 0
M  V30 458 H 35.9985 1.41601 -0.261764 0
M  V30 459 H 37.9515 3.84569 1.72293 0
M  V30 460 H 36.6755 2.62315 1.94573 0
M  V30 461 H 35.3345 3.66501 0.085054 0
M  V30 462 H 34.9825 4.39186 2.45203 0
M  V30 463 H 34.6825 5.72762 1.31213 0
M  V30 464 H 36.2065 5.67899 2.24329 0
M  V30 465 H 37.6205 5.73293 -0.027502 0
M  V30 466 H 36.0175 5.94896 -0.788627 0
M  V30 467 H 37.0875 4.65504 -1.35773 0
M  V30 468 N 38.4306 0.297415 1.54768 0
M  V30 469 C 39.3786 -0.596051 2.24833 0
M  V30 470 C 40.3726 -1.13992 1.25308 0
M  V30 471 O 41.5786 -1.09098 1.4317 0
M  V30 472 H 37.9536 -0.210814 0.721846 0
M  V30 473 H 39.9246 0.0174667 2.98395 0
M  V30 474 C 38.6736 -1.75818 2.99972 0
M  V30 475 H 37.9966 -1.3489 3.76357 0
M  V30 476 H 39.4366 -2.35949 3.52284 0
M  V30 477 C 37.8956 -2.66014 2.06732 0
M  V30 478 O 38.4256 -3.67009 1.63302 0
M  V30 479 N 36.6316 -2.33669 1.72763 0
M  V30 480 H 36.1786 -1.51586 2.08277 0
M  V30 481 H 36.1366 -2.94285 1.10652 0
M  V30 482 N 39.9087 -1.5758 0.0250728 0
M  V30 483 C 40.8387 -2.13007 -0.956575 0
M  V30 484 C 41.8197 -1.0452 -1.342 0
M  V30 485 O 43.0047 -1.32332 -1.42133 0
M  V30 486 C 40.1347 -2.65386 -2.24026 0
M  V30 487 C 39.0887 -3.78623 -1.99571 0
M  V30 488 C 38.4147 -4.17414 -3.3417 0
M  V30 489 C 39.7147 -5.04867 -1.33814 0
M  V30 490 H 41.4087 -2.9528 -0.494991 0
M  V30 491 H 38.9547 -1.42042 -0.236651 0
M  V30 492 H 40.9077 -3.02794 -2.93076 0
M  V30 493 H 39.6317 -1.80268 -2.72343 0
M  V30 494 H 38.2907 -3.41646 -1.32941 0
M  V30 495 H 37.9387 -3.29284 -3.80238 0
M  V30 496 H 37.6387 -4.93719 -3.18615 0
M  V30 497 H 39.1627 -4.57402 -4.04495 0
M  V30 498 H 40.5767 -5.39888 -1.92857 0
M  V30 499 H 38.9737 -5.86144 -1.28669 0
M  V30 500 H 40.0437 -4.83904 -0.310561 0
M  V30 501 N 41.3868 0.248026 -1.55636 0
M  V30 502 C 42.6338 0.976224 -1.77415 0
M  V30 503 C 42.9618 1.85361 -0.589193 0
M  V30 504 O 42.2168 1.90973 0.427529 0
M  V30 505 C 42.5158 1.86819 -3.04686 0
M  V30 506 C 42.1818 1.14625 -4.36087 0
M  V30 507 C 40.8438 0.946723 -4.71795 0
M  V30 508 C 43.1958 0.634463 -5.17324 0
M  V30 509 C 40.5238 0.223091 -5.86276 0
M  V30 510 C 42.8758 -0.0756959 -6.32555 0
M  V30 511 C 41.5398 -0.286711 -6.66884 0
M  V30 512 H 40.8098 0.357226 -0.649208 0
M  V30 513 H 43.4568 0.246415 -1.89908 0
M  V30 514 H 41.7618 2.66502 -2.872 0
M  V30 515 H 43.4588 2.43329 -3.18735 0
M  V30 516 H 40.0488 1.3117 -4.08035 0
M  V30 517 H 44.2328 0.77616 -4.90193 0
M  V30 518 H 39.4888 0.0491185 -6.1138 0
M  V30 519 H 43.6628 -0.479899 -6.94745 0
M  V30 520 H 41.2898 -0.849389 -7.5544 0
M  V30 521 N 42.8649 1.48995 0.513639 0
M  V30 522 C 43.7749 1.67443 1.64317 0
M  V30 523 C 44.7909 0.556947 1.64846 0
M  V30 524 O 45.9669 0.830082 1.83498 0
M  V30 525 C 43.0319 1.72515 3.00732 0
M  V30 526 C 42.0929 2.96009 3.1093 0
M  V30 527 C 41.3259 3.00829 4.40837 0
M  V30 528 O 41.5489 2.13594 5.28898 0
M  V30 529 O 40.4829 3.93168 4.55744 0
M  V30 530 H 44.3089 2.63106 1.51687 0
M  V30 531 H 41.8939 1.32588 0.688543 0
M  V30 532 H 43.7759 1.78277 3.81831 0
M  V30 533 H 42.4509 0.800278 3.13651 0
M  V30 534 H 41.3579 2.9577 2.29065 0
M  V30 535 H 42.6909 3.87934 3.02933 0
M  V30 536 N 44.343 -0.763751 1.37857 0
M  V30 537 C 45.275 -1.88664 1.30148 0
M  V30 538 C 46.288 -1.61365 0.215685 0
M  V30 539 O 47.477 -1.72134 0.472459 0
M  V30 540 C 44.577 -3.24075 0.991396 0
M  V30 541 C 43.75 -3.78958 2.18426 0
M  V30 542 C 42.809 -4.92862 1.8432 0
M  V30 543 O 41.835 -5.08027 2.56704 0
M  V30 544 N 43.037 -5.75071 0.792081 0
M  V30 545 H 45.802 -1.95791 2.26905 0
M  V30 546 H 43.363 -0.943226 1.31586 0
M  V30 547 H 45.355 -3.97804 0.743935 0
M  V30 548 H 43.925 -3.12399 0.112122 0
M  V30 549 H 43.145 -2.96913 2.59299 0
M  V30 550 H 44.433 -4.12357 2.98058 0
M  V30 551 H 43.831 -5.65375 0.191595 0
M  V30 552 H 42.388 -6.48991 0.60449 0
M  V30 553 N 45.8211 -1.22559 -0.990812 0
M  V30 554 C 46.7681 -0.997519 -2.0813 0
M  V30 555 C 47.7381 0.0814702 -1.659 0
M  V30 556 O 48.9231 -0.0685424 -1.90677 0
M  V30 557 C 46.0631 -0.583615 -3.40129 0
M  V30 558 C 45.1761 -1.7336 -3.9569 0
M  V30 559 C 44.3111 -1.26748 -5.15857 0
M  V30 560 C 43.3501 -2.38888 -5.63559 0
M  V30 561 N 42.4871 -1.93308 -6.74964 0
M  V30 562 H 47.3271 -1.93099 -2.26973 0
M  V30 563 H 44.8641 -0.962114 -1.11273 0
M  V30 564 H 46.8221 -0.324801 -4.15934 0
M  V30 565 H 45.4521 0.312845 -3.2128 0
M  V30 566 H 44.5041 -2.10669 -3.16738 0
M  V30 567 H 45.8161 -2.57704 -4.27071 0
M  V30 568 H 44.9701 -0.966173 -5.98957 0
M  V30 569 H 43.7091 -0.394272 -4.86104 0
M  V30 570 H 42.7141 -2.69805 -4.79046 0
M  V30 571 H 43.9391 -3.26728 -5.95336 0
M  V30 572 H 41.8851 -1.08352 -6.4699 0
M  V30 573 H 41.8021 -2.71217 -7.05675 0
M  V30 574 H 43.0701 -1.66252 -7.61564 0
M  V30 575 N 47.2992 1.18797 -1.03562 0
M  V30 576 C 48.5462 1.8865 -0.736023 0
M  V30 577 C 48.8742 1.80041 0.735889 0
M  V30 578 O 48.1292 1.19179 1.55225 0
M  V30 579 C 48.4282 3.38692 -1.14117 0
M  V30 580 C 48.0942 3.67504 -2.6125 0
M  V30 581 C 46.7562 3.75078 -3.01447 0
M  V30 582 C 49.1082 3.80293 -3.56408 0
M  V30 583 C 46.4362 3.92915 -4.35701 0
M  V30 584 C 48.7882 3.99645 -4.90374 0
M  V30 585 C 47.4522 4.05453 -5.30249 0
M  V30 586 H 46.7222 0.690321 -0.26933 0
M  V30 587 H 49.3692 1.40641 -1.29971 0
M  V30 588 H 47.6742 3.88645 -0.496202 0
M  V30 589 H 49.3712 3.91072 -0.886789 0
M  V30 590 H 45.9612 3.62223 -2.29113 0
M  V30 591 H 50.1452 3.73779 -3.26501 0
M  V30 592 H 45.4012 3.95653 -4.66121 0
M  V30 593 H 49.5752 4.08482 -5.64017 0
M  V30 594 H 47.2022 4.19027 -6.34288 0
M  V30 595 N 48.7773 0.814389 1.34928 0
M  V30 596 C 50.0073 0.41054 2.0248 0
M  V30 597 C 50.4153 -0.985625 1.61499 0
M  V30 598 O 49.7583 -1.64781 0.811976 0
M  V30 599 C 49.8203 0.423384 3.56998 0
M  V30 600 C 49.4843 1.77141 4.21272 0
M  V30 601 C 50.4813 2.73093 4.42398 0
M  V30 602 C 48.1663 2.05755 4.58225 0
M  V30 603 C 50.1603 3.95838 4.9959 0
M  V30 604 C 47.8473 3.28762 5.1513 0
M  V30 605 C 48.8453 4.23621 5.35755 0
M  V30 606 O 48.5333 5.44456 5.91458 0
M  V30 607 H 48.2653 0.163997 0.655806 0
M  V30 608 H 50.8193 1.10155 1.73364 0
M  V30 609 H 49.0493 -0.324276 3.85338 0
M  V30 610 H 50.7383 0.0407683 4.0588 0
M  V30 611 H 51.5043 2.5228 4.14222 0
M  V30 612 H 47.3833 1.32727 4.4148 0
M  V30 613 H 50.9273 4.69891 5.15605 0
M  V30 614 H 46.8243 3.49443 5.42734 0
M  V30 615 H 47.5923 5.4586 6.09901 0
M  V30 616 N 50.2554 -1.46986 0.568584 0
M  V30 617 C 51.4854 -2.0653 0.0539173 0
M  V30 618 C 51.8934 -1.42004 -1.25026 0
M  V30 619 O 51.2364 -0.514541 -1.76347 0
M  V30 620 C 51.2984 -3.58938 -0.200854 0
M  V30 621 C 50.9624 -4.45572 1.01559 0
M  V30 622 C 51.9594 -4.82986 1.92407 0
M  V30 623 C 49.6444 -4.8692 1.23346 0
M  V30 624 C 51.6384 -5.60559 3.03402 0
M  V30 625 C 49.3254 -5.64255 2.34649 0
M  V30 626 C 50.3234 -6.00986 3.24507 0
M  V30 627 O 50.0114 -6.76761 4.33878 0
M  V30 628 H 49.7434 -0.674292 0.0480234 0
M  V30 629 H 52.2974 -1.89812 0.784896 0
M  V30 630 H 50.5274 -3.73911 -0.986279 0
M  V30 631 H 52.2164 -4.0046 -0.662294 0
M  V30 632 H 52.9824 -4.51633 1.76785 0
M  V30 633 H 48.8614 -4.57789 0.543178 0
M  V30 634 H 52.4054 -5.89147 3.73565 0
M  V30 635 H 48.3024 -5.95021 2.5024 0
M  V30 636 H 49.0704 -6.95168 4.32068 0
M  V30 637 N 51.7335 -0.305618 -1.54608 0
M  V30 638 C 52.9615 0.304775 -2.04643 0
M  V30 639 C 53.3765 1.47167 -1.18268 0
M  V30 640 O 52.7335 1.81296 -0.209328 0
M  V30 641 C 52.7845 0.756564 -3.53495 0
M  V30 642 O 52.5055 -0.36389 -4.36586 0
M  V30 643 C 54.0065 1.43163 -4.19546 0
M  V30 644 H 51.2265 0.0655481 -0.667791 0
M  V30 645 H 53.7705 -0.446592 -1.99564 0
M  V30 646 H 51.9255 1.45794 -3.58919 0
M  V30 647 H 52.3395 -0.0113121 -5.24499 0
M  V30 648 H 53.8135 1.69886 -5.25207 0
M  V30 649 H 54.2905 2.37318 -3.69563 0
M  V30 650 H 54.8965 0.773307 -4.18211 0
M  V30 651 N 53.2116 1.57565 -0.0334293 0
M  V30 652 C 54.4366 1.96689 0.657895 0
M  V30 653 C 54.8616 0.910057 1.64619 0
M  V30 654 O 54.2196 -0.128598 1.80843 0
M  V30 655 C 54.2676 3.34905 1.33683 0
M  V30 656 O 53.3716 3.31574 2.45219 0
M  V30 657 H 52.7126 0.641205 0.172489 0
M  V30 658 H 55.2426 2.04372 -0.0965621 0
M  V30 659 H 55.2526 3.71234 1.69262 0
M  V30 660 H 53.9276 4.11366 0.612411 0
M  V30 661 H 52.5046 3.06968 2.11719 0
M  V30 662 N 54.6897 -0.239769 1.55765 0
M  V30 663 C 55.6367 -1.29696 1.90913 0
M  V30 664 C 56.6067 -1.47478 0.764164 0
M  V30 665 O 57.7917 -1.61345 1.01845 0
M  V30 666 C 54.9317 -2.64598 2.21544 0
M  V30 667 C 54.0447 -2.54765 3.48882 0
M  V30 668 C 53.1797 -3.82069 3.69049 0
M  V30 669 C 52.2187 -3.66883 4.89963 0
M  V30 670 N 51.3557 -4.86094 5.06614 0
M  V30 671 H 56.1957 -0.990224 2.81067 0
M  V30 672 H 53.7327 -0.477684 1.39128 0
M  V30 673 H 55.6907 -3.43132 2.3731 0
M  V30 674 H 54.3207 -2.93405 1.34585 0
M  V30 675 H 53.3727 -1.67763 3.41409 0
M  V30 676 H 54.6847 -2.39457 4.37563 0
M  V30 677 H 53.8387 -4.69046 3.84812 0
M  V30 678 H 52.5777 -4.00282 2.78614 0
M  V30 679 H 51.5827 -2.78289 4.74168 0
M  V30 680 H 52.8077 -3.50157 5.81865 0
M  V30 681 H 50.7537 -5.04655 4.19117 0
M  V30 682 H 50.6707 -4.73443 5.89396 0
M  V30 683 H 51.9387 -5.74549 5.26795 0
M  V30 684 N 56.1678 -1.49265 -0.50573 0
M  V30 685 C 57.5838 -1.35923 -0.836486 0
M  V30 686 C 57.7838 -0.388704 -1.97715 0
M  V30 687 O 56.8398 0.181336 -2.51848 0
M  V30 688 C 58.1528 -2.76531 -1.18115 0
M  V30 689 C 59.7008 -2.85197 -1.28964 0
M  V30 690 C 60.1758 -4.26561 -1.66761 0
M  V30 691 N 61.6668 -4.2935 -1.73819 0
M  V30 692 C 62.4018 -5.35693 -2.045 0
M  V30 693 N 61.8978 -6.52287 -2.33438 0
M  V30 694 N 63.6908 -5.23105 -2.05711 0
M  V30 695 H 55.8418 -2.10965 0.246519 0
M  V30 696 H 58.1048 -0.9468 0.0476887 0
M  V30 697 H 57.8108 -3.49226 -0.416398 0
M  V30 698 H 57.6848 -3.11599 -2.1257 0
M  V30 699 H 60.0718 -2.12742 -2.04511 0
M  V30 700 H 60.1528 -2.53718 -0.325704 0
M  V30 701 H 59.7968 -4.99541 -0.917656 0
M  V30 702 H 59.7268 -4.55502 -2.64246 0
M  V30 703 H 62.2178 -3.4526 -1.53635 0
M  V30 704 H 62.5308 -7.29158 -2.56024 0
M  V30 705 H 60.8758 -6.55521 -2.30905 0
M  V30 706 H 64.0668 -4.31026 -1.82577 0
M  V30 707 H 64.2398 -6.06078 -2.29289 0
M  V30 708 N 57.6459 0.756429 -1.3826 0
M  V30 709 C 58.5929 1.87011 -1.35261 0
M  V30 710 C 59.5629 1.64695 -0.215616 0
M  V30 711 O 60.7479 1.864 -0.407399 0
M  V30 712 C 57.8879 3.24275 -1.18068 0
M  V30 713 C 57.0009 3.58442 -2.41129 0
M  V30 714 C 56.1359 4.84994 -2.16689 0
M  V30 715 C 55.1749 5.11939 -3.35537 0
M  V30 716 N 54.3119 6.29685 -3.10549 0
M  V30 717 H 59.1519 1.8891 -2.30472 0
M  V30 718 H 56.6889 0.923373 -1.14509 0
M  V30 719 H 58.6469 4.03479 -1.06116 0
M  V30 720 H 57.2769 3.21711 -0.264973 0
M  V30 721 H 56.3289 2.74103 -2.63764 0
M  V30 722 H 57.6409 3.74283 -3.29717 0
M  V30 723 H 56.7949 5.72135 -2.01857 0
M  V30 724 H 55.5339 4.71286 -1.25462 0
M  V30 725 H 54.5389 4.23268 -3.50891 0
M  V30 726 H 55.7639 5.27546 -4.27635 0
M  V30 727 H 53.7099 6.17306 -2.21967 0
M  V30 728 H 53.6269 6.46014 -3.92686 0
M  V30 729 H 54.8949 7.19722 -2.99367 0
M  V30 730 N 59.124 1.23083 0.984299 0
M  V30 731 C 60.034 1.02515 2.11016 0
M  V30 732 C 61.05 -0.0291702 1.73976 0
M  V30 733 O 62.226 0.165434 2.00719 0
M  V30 734 C 59.291 0.614673 3.41208 0
M  V30 735 C 58.352 1.74359 3.92297 0
M  V30 736 C 57.585 1.35261 5.16275 0
M  V30 737 O 57.808 0.235136 5.69915 0
M  V30 738 O 56.742 2.17227 5.61334 0
M  V30 739 H 60.568 1.96862 2.31255 0
M  V30 740 H 58.153 1.01753 1.09392 0
M  V30 741 H 60.035 0.396518 4.1953 0
M  V30 742 H 58.71 -0.299851 3.22308 0
M  V30 743 H 57.617 2.01635 3.1511 0
M  V30 744 H 58.95 2.63629 4.15645 0
M  V30 745 N 60.6021 -1.18246 1.0419 0
M  V30 746 C 61.8271 -1.92736 0.765996 0
M  V30 747 C 62.2521 -1.75728 -0.67091 0
M  V30 748 O 61.6101 -1.06825 -1.46486 0
M  V30 749 C 61.6581 -3.42148 1.13875 0
M  V30 750 O 60.7621 -4.11548 0.264954 0
M  V30 751 H 60.1031 -0.601238 0.281797 0
M  V30 752 H 62.6331 -1.49942 1.39207 0
M  V30 753 H 62.6431 -3.92858 1.1012 0
M  V30 754 H 61.3181 -3.53848 2.18551 0
M  V30 755 H 59.8951 -3.71137 0.362226 0
M  V30 756 N 62.0802 -0.821533 -1.34494 0
M  V30 757 C 63.0282 -0.230702 -2.31453 0
M  V30 758 C 64.0222 0.627793 -1.57338 0
M  V30 759 O 65.2282 0.519288 -1.72347 0
M  V30 760 H 61.6032 -0.0558577 -0.749923 0
M  V30 761 H 63.5742 -1.06332 -2.78812 0
M  V30 762 C 62.3232 0.59391 -3.4259 0
M  V30 763 H 61.6462 -0.0573588 -3.99759 0
M  V30 764 H 63.0862 0.973446 -4.12674 0
M  V30 765 C 61.5452 1.76568 -2.86924 0
M  V30 766 O 62.0752 2.8638 -2.81691 0
M  V30 767 N 60.2812 1.58198 -2.43766 0
M  V30 768 H 59.8282 0.68872 -2.48222 0
M  V30 769 H 59.7862 2.36752 -2.06871 0
M  V30 770 N 63.5583 1.46682 -0.576371 0
M  V30 771 C 64.5063 2.31953 0.17335 0
M  V30 772 C 65.5003 1.44098 0.89062 0
M  V30 773 O 66.7063 1.60759 0.809728 0
M  V30 774 H 63.0813 0.748273 0.0747727 0
M  V30 775 H 65.0523 2.93007 -0.564738 0
M  V30 776 C 63.8013 3.27142 1.17786 0
M  V30 777 H 63.1243 3.94719 0.635361 0
M  V30 778 H 64.5643 3.896 1.67296 0
M  V30 779 C 63.0233 2.52036 2.23561 0
M  V30 780 O 63.5533 2.27877 3.3081 0
M  V30 781 N 61.7593 2.12709 1.97998 0
M  V30 782 H 61.3063 2.32557 1.10792 0
M  V30 783 H 61.2643 1.62776 2.68982 0
M  V30 784 N 65.0364 0.313813 1.54444 0
M  V30 785 C 65.9694 -0.598866 2.20202 0
M  V30 786 C 66.9474 -1.12318 1.17573 0
M  V30 787 O 68.1314 -1.18899 1.46271 0
M  V30 788 C 65.2584 -1.82071 2.85601 0
M  V30 789 C 64.3044 -1.42851 4.01865 0
M  V30 790 S 65.1374 -0.473512 5.33402 0
M  V30 791 C 66.2934 -1.70286 6.0229 0
M  V30 792 H 66.5264 -0.0402532 2.97273 0
M  V30 793 H 64.0594 0.0979165 1.54089 0
M  V30 794 H 66.0174 -2.52184 3.23904 0
M  V30 795 H 64.6784 -2.3505 2.08351 0
M  V30 796 H 63.8714 -2.33871 4.46453 0
M  V30 797 H 63.4734 -0.807198 3.65185 0
M  V30 798 H 65.7654 -2.64168 6.23876 0
M  V30 799 H 66.7084 -1.29932 6.96077 0
M  V30 800 H 67.1164 -1.88541 5.32083 0
M  V30 801 N 66.5145 -1.57545 0.0417849 0
M  V30 802 C 67.4615 -2.10977 -0.935805 0
M  V30 803 C 68.4315 -1.01486 -1.31491 0
M  V30 804 O 69.6165 -1.2898 -1.40602 0
M  V30 805 C 66.7565 -2.65169 -2.2086 0
M  V30 806 C 65.8695 -3.88714 -1.88482 0
M  V30 807 C 65.0045 -4.31254 -3.1015 0
M  V30 808 C 64.0435 -5.47524 -2.7365 0
M  V30 809 N 63.1805 -5.85162 -3.87982 0
M  V30 810 H 68.0205 -2.94218 -0.473249 0
M  V30 811 H 65.5575 -1.45415 -0.221981 0
M  V30 812 H 67.5155 -2.94685 -2.95325 0
M  V30 813 H 66.1455 -1.8474 -2.64709 0
M  V30 814 H 65.1975 -3.65849 -1.04205 0
M  V30 815 H 66.5095 -4.73245 -1.57608 0
M  V30 816 H 65.6635 -4.62273 -3.92923 0
M  V30 817 H 64.4025 -3.45516 -3.44195 0
M  V30 818 H 63.4075 -5.16187 -1.89291 0
M  V30 819 H 64.6325 -6.34971 -2.40807 0
M  V30 820 H 62.5785 -5.02377 -4.21846 0
M  V30 821 H 62.4955 -6.64362 -3.60775 0
M  V30 822 H 63.7635 -6.20791 -4.71422 0
M  V30 823 N 67.9926 0.231505 -1.5589 0
M  V30 824 C 68.9406 1.30649 -1.92441 0
M  V30 825 C 69.9346 1.49037 -0.805254 0
M  V30 826 O 71.1406 1.50329 -0.990007 0
M  V30 827 H 67.5156 0.437812 -0.611412 0
M  V30 828 H 69.4866 0.970973 -2.82161 0
M  V30 829 C 68.2356 2.65179 -2.24889 0
M  V30 830 H 67.5586 2.51835 -3.10514 0
M  V30 831 H 68.9986 3.39234 -2.54355 0
M  V30 832 C 67.4576 3.19439 -1.07054 0
M  V30 833 O 67.9876 4.00371 -0.326499 0
M  V30 834 N 66.1936 2.77675 -0.85703 0
M  V30 835 H 65.7406 2.11969 -1.46379 0
M  V30 836 H 65.6986 3.14321 -0.0703223 0
M  V30 837 N 69.4707 1.49531 0.497807 0
M  V30 838 C 70.3807 1.69176 1.62532 0
M  V30 839 C 71.3967 0.5744 1.64246 0
M  V30 840 O 72.5727 0.849497 1.82608 0
M  V30 841 C 69.6377 1.75695 2.98885 0
M  V30 842 C 68.6987 2.9929 3.07773 0
M  V30 843 C 67.9317 3.05488 4.37622 0
M  V30 844 O 68.1547 2.19192 5.26603 0
M  V30 845 O 67.0887 3.9798 4.51548 0
M  V30 846 H 70.9147 2.647 1.48887 0
M  V30 847 H 68.4997 1.3331 0.674441 0
M  V30 848 H 70.3817 1.82317 3.79919 0
M  V30 849 H 69.0567 0.8335 3.12785 0
M  V30 850 H 67.9637 2.98183 2.25915 0
M  V30 851 H 69.2967 3.91125 2.98801 0
M  V30 852 N 70.9488 -0.749086 1.3866 0
M  V30 853 C 72.1738 -1.54344 1.38538 0
M  V30 854 C 72.5988 -1.88088 -0.0216655 0
M  V30 855 O 71.9568 -1.50899 -1.00494 0
M  V30 856 C 72.0048 -2.8164 2.25192 0
M  V30 857 O 71.1088 -3.7698 1.67212 0
M  V30 858 H 70.4498 -0.466654 0.472367 0
M  V30 859 H 72.9798 -0.925355 1.82478 0
M  V30 860 H 72.9898 -3.30519 2.3921 0
M  V30 861 H 71.6648 -2.56411 3.27454 0
M  V30 862 H 70.2418 -3.35699 1.6236 0
M  V30 863 N 72.4269 -1.23603 -0.977757 0
M  V30 864 C 73.3569 -1.04401 -2.0886 0
M  V30 865 C 74.3379 0.0399052 -1.70053 0
M  V30 866 O 75.5229 -0.125246 -1.93796 0
M  V30 867 C 72.6529 -0.637269 -3.41403 0
M  V30 868 C 71.6069 -1.66883 -3.94124 0
M  V30 869 C 70.9329 -1.11745 -5.22893 0
M  V30 870 C 72.2329 -3.06247 -4.23096 0
M  V30 871 H 73.9269 -1.97316 -2.25182 0
M  V30 872 H 71.4729 -0.950096 -1.08209 0
M  V30 873 H 73.4259 -0.48998 -4.18542 0
M  V30 874 H 72.1499 0.327557 -3.24953 0
M  V30 875 H 70.8089 -1.80416 -3.19133 0
M  V30 876 H 70.4569 -0.143527 -5.02795 0
M  V30 877 H 70.1569 -1.80672 -5.59134 0
M  V30 878 H 71.6809 -0.982067 -6.02651 0
M  V30 879 H 73.0949 -2.96001 -4.90975 0
M  V30 880 H 71.4919 -3.72436 -4.70544 0
M  V30 881 H 72.5619 -3.55041 -3.30263 0
M  V30 882 N 73.905 1.17692 -1.04816 0
M  V30 883 C 74.835 2.23777 -0.666791 0
M  V30 884 C 75.816 1.66796 0.33361 0
M  V30 885 O 77.001 1.93039 0.212042 0
M  V30 886 C 74.131 3.47281 -0.0367933 0
M  V30 887 C 73.085 4.17059 -0.961546 0
M  V30 888 C 72.411 5.34342 -0.195626 0
M  V30 889 C 73.711 4.69713 -2.28402 0
M  V30 890 H 75.405 2.55933 -1.55367 0
M  V30 891 H 72.951 1.23019 -0.748484 0
M  V30 892 H 74.904 4.20706 0.241775 0
M  V30 893 H 73.628 3.14381 0.885004 0
M  V30 894 H 72.287 3.45541 -1.22462 0
M  V30 895 H 71.935 4.97692 0.728816 0
M  V30 896 H 71.635 5.81966 -0.811775 0
M  V30 897 H 73.159 6.10553 0.0757473 0
M  V30 898 H 74.573 5.34794 -2.06563 0
M  V30 899 H 72.97 5.279 -2.8538 0
M  V30 900 H 74.04 3.86726 -2.92525 0
M  V30 901 N 75.3831 0.828654 1.34056 0
M  V30 902 C 76.7991 0.515135 1.51058 0
M  V30 903 C 76.9991 -0.959581 1.77184 0
M  V30 904 O 76.0551 -1.74382 1.82612 0
M  V30 905 C 77.3681 1.37963 2.67183 0
M  V30 906 C 78.9161 1.37735 2.81066 0
M  V30 907 C 79.3911 2.22645 4.00241 0
M  V30 908 N 80.8821 2.203 4.07458 0
M  V30 909 C 81.6171 2.82744 4.98842 0
M  V30 910 N 81.1131 3.54201 5.9541 0
M  V30 911 N 82.9061 2.72268 4.91759 0
M  V30 912 H 75.0571 1.78343 1.15358 0
M  V30 913 H 77.3201 0.760304 0.566252 0
M  V30 914 H 77.0261 2.42714 2.54525 0
M  V30 915 H 76.9001 1.0484 3.62338 0
M  V30 916 H 79.2871 0.337593 2.93163 0
M  V30 917 H 79.3681 1.74859 1.86703 0
M  V30 918 H 79.0121 3.26674 3.88905 0
M  V30 919 H 78.9421 1.82869 4.93829 0
M  V30 920 H 81.4331 1.68327 3.38341 0
M  V30 921 H 81.7461 3.9908 6.61782 0
M  V30 922 H 80.0911 3.58308 5.95517 0
M  V30 923 H 83.2821 2.16014 4.15278 0
M  V30 924 H 83.4551 3.21219 5.62781 0
M  V30 925 N 76.8612 -1.46375 0.584142 0
M  V30 926 C 77.7912 -2.33103 -0.136037 0
M  V30 927 C 78.7722 -1.45431 -0.882255 0
M  V30 928 O 79.9572 -1.74246 -0.857434 0
M  V30 929 C 77.0872 -3.27731 -1.14933 0
M  V30 930 C 76.0412 -4.24855 -0.517862 0
M  V30 931 C 75.3672 -5.09001 -1.63773 0
M  V30 932 C 76.6672 -5.19439 0.545886 0
M  V30 933 H 78.3612 -2.93568 0.588086 0
M  V30 934 H 75.9072 -1.41166 0.284259 0
M  V30 935 H 77.8602 -3.87261 -1.66153 0
M  V30 936 H 76.5842 -2.65377 -1.90375 0
M  V30 937 H 75.2432 -3.6659 -0.0267361 0
M  V30 938 H 74.8912 -4.43031 -2.38185 0
M  V30 939 H 74.5912 -5.74777 -1.22085 0
M  V30 940 H 76.1152 -5.71396 -2.15266 0
M  V30 941 H 77.5292 -5.73177 0.118704 0
M  V30 942 H 75.9262 -5.93566 0.88317 0
M  V30 943 H 76.9962 -4.63285 1.43162 0
M  V30 944 N 78.3393 -0.321999 -1.54275 0
M  V30 945 C 79.5883 0.281931 -1.9972 0
M  V30 946 C 79.9013 1.53369 -1.21397 0
M  V30 947 O 81.1073 2.21352 -1.57211 0
M  V30 948 C 79.5633 0.5529 -3.55628 0
M  V30 949 C 79.1713 -0.681721 -4.42783 0
M  V30 950 C 80.9153 1.11687 -4.09544 0
M  V30 951 C 78.8223 -0.382742 -5.9016 0
M  V30 952 H 77.7523 0.109124 -0.746062 0
M  V30 953 H 80.4033 -0.43398 -1.78294 0
M  V30 954 H 78.7853 1.32896 -3.73035 0
M  V30 955 H 79.9593 -1.45723 -4.37151 0
M  V30 956 H 78.2743 -1.1658 -3.99748 0
M  V30 957 H 80.8713 1.35515 -5.17242 0
M  V30 958 H 81.2143 2.06575 -3.61431 0
M  V30 959 H 81.7473 0.402032 -3.95763 0
M  V30 960 H 78.4863 -1.30076 -6.42464 0
M  V30 961 H 78.0063 0.355094 -5.98748 0
M  V30 962 H 79.6853 0.00800157 -6.47 0
M  V30 963 N 79.8174 1.5752 -0.0501392 0
M  V30 964 C 80.7654 2.12651 0.942459 0
M  V30 965 C 81.7594 1.05807 1.32292 0
M  V30 966 O 82.9654 1.24217 1.3027 0
M  V30 967 H 79.3404 0.679673 0.321789 0
M  V30 968 H 81.3114 2.94951 0.452356 0
M  V30 969 C 80.0604 2.68565 2.20836 0
M  V30 970 H 79.3834 3.50439 1.92439 0
M  V30 971 H 80.8234 3.10761 2.8845 0
M  V30 972 C 79.2824 1.62291 2.95234 0
M  V30 973 O 79.8124 1.03508 3.88135 0
M  V30 974 N 78.0184 1.33836 2.57946 0
M  V30 975 H 77.5654 1.81826 1.82475 0
M  V30 976 H 77.5234 0.629595 3.08032 0
M  V30 977 N 81.2955 -0.223234 1.56011 0
M  V30 978 C 82.5255 -0.963413 1.82762 0
M  V30 979 C 82.9335 -1.78516 0.626804 0
M  V30 980 O 82.2765 -1.78974 -0.414014 0
M  V30 981 C 82.3385 -1.93126 3.0322 0
M  V30 982 C 82.0025 -1.2942 4.38291 0
M  V30 983 C 82.9995 -0.684916 5.15369 0
M  V30 984 C 80.6845 -1.30647 4.85012 0
M  V30 985 C 82.6785 -0.0963971 6.37327 0
M  V30 986 C 80.3655 -0.71411 6.06913 0
M  V30 987 C 81.3635 -0.110123 6.82911 0
M  V30 988 O 81.0515 0.47303 8.02507 0
M  V30 989 H 80.7835 -0.288011 0.611576 0
M  V30 990 H 83.3375 -0.244103 2.03944 0
M  V30 991 H 81.5675 -2.68952 2.77852 0
M  V30 992 H 83.2565 -2.53685 3.16857 0
M  V30 993 H 84.0225 -0.667774 4.80381 0
M  V30 994 H 79.9015 -1.76598 4.25833 0
M  V30 995 H 83.4455 0.375657 6.96588 0
M  V30 996 H 79.3425 -0.728659 6.41374 0
M  V30 997 H 80.1105 0.367186 8.17676 0
M  V30 998 N 82.7736 -1.49793 -0.48987 0
M  V30 999 C 83.7216 -1.67783 -1.61095 0
M  V30 1000 C 84.7156 -0.543683 -1.60438 0
M  V30 1001 O 85.9216 -0.723647 -1.64813 0
M  V30 1002 H 82.2966 -0.529255 -0.534222 0
M  V30 1003 H 84.2676 -2.61861 -1.43078 0
M  V30 1004 C 83.0166 -1.77191 -2.99164 0
M  V30 1005 H 82.3396 -2.63841 -3.0038 0
M  V30 1006 H 83.7796 -1.93809 -3.77113 0
M  V30 1007 C 82.2386 -0.519203 -3.32875 0
M  V30 1008 O 82.7686 0.350124 -4.00171 0
M  V30 1009 N 80.9746 -0.378816 -2.8812 0
M  V30 1010 H 80.5216 -1.08725 -2.33531 0
M  V30 1011 H 80.4796 0.458239 -3.11043 0
M  V30 1012 N 84.2517 0.741722 -1.39055 0
M  V30 1013 C 85.6677 1.04638 -1.20512 0
M  V30 1014 C 85.8677 2.01405 -0.0620218 0
M  V30 1015 O 84.9237 2.45547 0.588457 0
M  V30 1016 C 86.2367 1.6151 -2.53643 0
M  V30 1017 C 87.7847 1.73623 -2.6043 0
M  V30 1018 C 88.2597 2.33906 -3.93767 0
M  V30 1019 N 89.7507 2.41323 -3.9537 0
M  V30 1020 C 90.4857 2.88888 -4.95309 0
M  V30 1021 N 89.9817 3.36401 -6.05645 0
M  V30 1022 N 91.7747 2.88037 -4.82692 0
M  V30 1023 H 83.9257 0.0998155 -2.12165 0
M  V30 1024 H 86.1887 0.106907 -0.941953 0
M  V30 1025 H 85.8947 0.978739 -3.37807 0
M  V30 1026 H 85.7687 2.60411 -2.72885 0
M  V30 1027 H 88.1557 2.36384 -1.76655 0
M  V30 1028 H 88.2367 0.733945 -2.45045 0
M  V30 1029 H 87.8807 1.71776 -4.7797 0
M  V30 1030 H 87.8107 3.34799 -4.06469 0
M  V30 1031 H 90.3017 2.07734 -3.15682 0
M  V30 1032 H 90.6147 3.71186 -6.77821 0
M  V30 1033 H 88.9597 3.34427 -6.09248 0
M  V30 1034 H 92.1507 2.50237 -3.95599 0
M  V30 1035 H 92.3237 3.24792 -5.60726 0
M  V30 1036 N 85.7298 1.2412 0.971189 0
M  V30 1037 C 86.9598 1.10415 1.7462 0
M  V30 1038 C 87.3678 -0.346462 1.86001 0
M  V30 1039 O 86.7108 -1.25104 1.34517 0
M  V30 1040 C 86.7728 1.66596 3.18568 0
M  V30 1041 C 86.4368 3.15446 3.3067 0
M  V30 1042 C 87.4338 4.12636 3.16271 0
M  V30 1043 C 85.1188 3.55337 3.55022 0
M  V30 1044 C 87.1128 5.47699 3.26044 0
M  V30 1045 C 84.7998 4.90542 3.64434 0
M  V30 1046 C 85.7978 5.86532 3.49956 0
M  V30 1047 O 85.4858 7.19279 3.59017 0
M  V30 1048 H 85.2178 0.386616 0.55453 0
M  V30 1049 H 87.7718 1.64633 1.22821 0
M  V30 1050 H 86.0018 1.06808 3.71657 0
M  V30 1051 H 87.6908 1.48232 3.77865 0
M  V30 1052 H 88.4568 3.8316 2.97344 0
M  V30 1053 H 84.3358 2.8113 3.65359 0
M  V30 1054 H 87.8798 6.22603 3.14661 0
M  V30 1055 H 83.7768 5.19691 3.82873 0
M  V30 1056 H 84.5448 7.27153 3.75754 0
M  V30 1057 N 87.2079 -1.17134 1.05439 0
M  V30 1058 C 88.4379 -1.91094 0.785274 0
M  V30 1059 C 88.8459 -1.77198 -0.663142 0
M  V30 1060 O 88.1889 -1.10835 -1.46497 0
M  V30 1061 C 88.2509 -3.42594 1.08949 0
M  V30 1062 C 87.9149 -3.80274 2.53458 0
M  V30 1063 C 88.9119 -3.82912 3.51673 0
M  V30 1064 C 86.5969 -4.11162 2.88532 0
M  V30 1065 C 88.5909 -4.15913 4.83006 0
M  V30 1066 C 86.2779 -4.43831 4.20068 0
M  V30 1067 C 87.2759 -4.46185 5.17115 0
M  V30 1068 O 86.9639 -4.78083 6.46291 0
M  V30 1069 H 86.6959 -0.613073 0.284811 0
M  V30 1070 H 89.2499 -1.49461 1.40893 0
M  V30 1071 H 87.4799 -3.84534 0.408741 0
M  V30 1072 H 89.1689 -3.97817 0.805991 0
M  V30 1073 H 89.9349 -3.5917 3.25917 0
M  V30 1074 H 85.8139 -4.085 2.13656 0
M  V30 1075 H 89.3579 -4.17665 5.5875 0
M  V30 1076 H 85.2549 -4.67037 4.45586 0
M  V30 1077 H 86.0229 -4.9593 6.51149 0
M  V30 1078 N 88.686 -0.835752 -1.33615 0
M  V30 1079 C 89.634 -0.255238 -2.31195 0
M  V30 1080 C 90.628 0.61107 -1.57995 0
M  V30 1081 O 91.834 0.500979 -1.72888 0
M  V30 1082 H 88.209 -0.0638085 -0.749288 0
M  V30 1083 H 90.18 -1.09283 -2.77669 0
M  V30 1084 C 88.929 0.55754 -3.43201 0
M  V30 1085 H 88.252 -0.0997553 -3.99676 0
M  V30 1086 H 89.692 0.929622 -4.13683 0
M  V30 1087 C 88.151 1.73515 -2.88781 0
M  V30 1088 O 88.681 2.83376 -2.84712 0
M  V30 1089 N 86.887 1.55603 -2.4543 0
M  V30 1090 H 86.434 0.662354 -2.48939 0
M  V30 1091 H 86.392 2.34545 -2.09371 0
M  V30 1092 N 90.1641 1.46063 -0.591896 0
M  V30 1093 C 91.1111 2.30399 0.136069 0
M  V30 1094 C 92.0811 1.41169 0.875238 0
M  V30 1095 O 93.2661 1.70112 0.86409 0
M  V30 1096 C 90.4061 3.25804 1.13781 0
M  V30 1097 C 89.5191 4.30134 0.401137 0
M  V30 1098 C 88.6541 5.12659 1.39121 0
M  V30 1099 C 87.6931 6.0873 0.641462 0
M  V30 1100 N 86.8301 6.8409 1.58004 0
M  V30 1101 H 91.6701 2.92118 -0.589144 0
M  V30 1102 H 89.2071 1.43959 -0.302342 0
M  V30 1103 H 91.1651 3.79569 1.73156 0
M  V30 1104 H 89.7951 2.65872 1.83062 0
M  V30 1105 H 88.8471 3.79152 -0.307826 0
M  V30 1106 H 90.1591 4.98458 -0.184565 0
M  V30 1107 H 89.3131 5.70747 2.05749 0
M  V30 1108 H 88.0521 4.44316 2.01084 0
M  V30 1109 H 87.0571 5.49786 -0.0385419 0
M  V30 1110 H 88.2821 6.79095 0.0270945 0
M  V30 1111 H 86.2281 6.18449 2.18761 0
M  V30 1112 H 86.1451 7.48709 1.04738 0
M  V30 1113 H 87.4131 7.4673 2.23639 0
M  V30 1114 N 91.6422 0.330177 1.54103 0
M  V30 1115 C 92.8912 -0.271336 1.99867 0
M  V30 1116 C 93.2042 -1.52723 1.22209 0
M  V30 1117 O 94.4102 -2.20515 1.58383 0
M  V30 1118 C 92.8662 -0.534032 3.55916 0
M  V30 1119 C 92.4742 0.705193 4.42415 0
M  V30 1120 C 94.2182 -1.09514 4.1013 0
M  V30 1121 C 92.1252 0.414035 5.89949 0
M  V30 1122 H 91.0552 -0.105166 0.74663 0
M  V30 1123 H 93.7062 0.443429 1.78062 0
M  V30 1124 H 92.0882 -1.30915 3.73734 0
M  V30 1125 H 93.2622 1.4804 4.36372 0
M  V30 1126 H 91.5772 1.18698 3.99124 0
M  V30 1127 H 94.1742 -1.3277 5.17954 0
M  V30 1128 H 94.5172 -2.04656 3.62521 0
M  V30 1129 H 95.0502 -0.381038 3.95971 0
M  V30 1130 H 91.7892 1.33481 6.41766 0
M  V30 1131 H 91.3092 -0.323336 5.98928 0
M  V30 1132 H 92.9882 0.0263105 6.46995 0
M  V30 1133 N 93.1203 -1.57491 0.0584922 0
M  V30 1134 C 94.3973 -1.84346 -0.653918 0
M  V30 1135 C 94.7773 -0.948355 -1.88599 0
M  V30 1136 O 94.1253 -0.0112403 -2.28497 0
M  V30 1137 C 94.3353 -3.34239 -1.00425 0
M  V30 1138 C 95.6833 -4.01431 -1.38342 0
M  V30 1139 O 96.7073 -3.38907 -1.09637 0
M  V30 1140 O 95.5663 -5.11683 -1.91943 0
M  V30 1141 H 92.6603 -0.761112 -0.323478 0
M  V30 1142 H 95.2063 -1.6947 0.0884125 0
M  V30 1143 H 93.9783 -3.91089 -0.128625 0
M  V30 1144 H 93.6013 -3.54329 -1.80378 0
M  V30 1145 N 94.5984 0.214957 -1.56127 0
M  V30 1146 C 95.8234 0.95924 -1.83884 0
M  V30 1147 C 96.2484 1.7689 -0.639644 0
M  V30 1148 O 95.6064 1.76566 0.411601 0
M  V30 1149 C 95.6544 1.84723 -3.09693 0
M  V30 1150 O 94.7584 2.94346 -2.8885 0
M  V30 1151 H 94.0994 0.27125 -0.606069 0
M  V30 1152 H 96.6294 0.226276 -2.03345 0
M  V30 1153 H 96.6394 2.25576 -3.39969 0
M  V30 1154 H 95.3144 1.25218 -3.96602 0
M  V30 1155 H 93.8914 2.57391 -2.69823 0
M  V30 1156 N 96.0765 1.50051 0.48192 0
M  V30 1157 C 97.0245 1.68635 1.60203 0
M  V30 1158 C 98.0185 0.552184 1.60148 0
M  V30 1159 O 99.2245 0.732377 1.64427 0
M  V30 1160 H 95.5995 0.532081 0.531407 0
M  V30 1161 H 97.5705 2.62616 1.41688 0
M  V30 1162 C 96.3195 1.78775 2.9822 0
M  V30 1163 H 95.6425 2.6543 2.98976 0
M  V30 1164 H 97.0825 1.95806 3.7608 0
M  V30 1165 C 95.5415 0.536849 3.32595 0
M  V30 1166 O 96.0715 -0.328897 4.00351 0
M  V30 1167 N 94.2775 0.394091 2.87915 0
M  V30 1168 H 93.8245 1.09962 2.32951 0
M  V30 1169 H 93.7825 -0.441737 3.11281 0
M  V30 1170 N 97.5546 -0.734337 1.39446 0
M  V30 1171 C 98.5026 -1.86971 1.38364 0
M  V30 1172 C 99.4966 -1.67288 0.266687 0
M  V30 1173 O 100.703 -1.74621 0.436755 0
M  V30 1174 H 97.0776 -0.615474 0.432082 0
M  V30 1175 H 99.0486 -1.85 2.34132 0
M  V30 1176 C 97.7976 -3.2466 1.24465 0
M  V30 1177 H 97.1206 -3.40402 2.09682 0
M  V30 1178 H 98.5606 -4.04292 1.27764 0
M  V30 1179 C 97.0196 -3.36867 -0.0468674 0
M  V30 1180 O 97.5496 -3.88618 -1.01681 0
M  V30 1181 N 95.7556 -2.90391 -0.110145 0
M  V30 1182 H 95.3026 -2.48466 0.679868 0
M  V30 1183 H 95.2606 -2.98939 -0.973799 0
M  V30 1184 N 99.0327 -1.24633 -0.964593 0
M  V30 1185 C 100.263 -1.11339 -1.74032 0
M  V30 1186 C 100.671 0.336593 -1.86182 0
M  V30 1187 O 100.014 1.24389 -1.35178 0
M  V30 1188 C 100.076 -1.68284 -3.1768 0
M  V30 1189 C 99.7397 -3.17196 -3.28992 0
M  V30 1190 C 100.737 -4.14308 -3.14078 0
M  V30 1191 C 98.4217 -3.57215 -3.53133 0
M  V30 1192 C 100.416 -5.4942 -3.23135 0
M  V30 1193 C 98.1027 -4.92468 -3.61827 0
M  V30 1194 C 99.1007 -5.8838 -3.46841 0
M  V30 1195 O 98.7887 -7.21173 -3.55197 0
M  V30 1196 H 98.5207 -0.389551 -0.552472 0
M  V30 1197 H 101.075 -1.65282 -1.21946 0
M  V30 1198 H 99.3047 -1.08777 -3.71085 0
M  V30 1199 H 100.994 -1.50234 -3.77074 0
M  V30 1200 H 101.76 -3.84731 -2.95308 0
M  V30 1201 H 97.6387 -2.83063 -3.63863 0
M  V30 1202 H 101.183 -6.24263 -3.11355 0
M  V30 1203 H 97.0797 -5.21714 -3.80111 0
M  V30 1204 H 97.8477 -7.29135 -3.71892 0
M  V30 1205 N 100.511 1.16574 -1.06058 0
M  V30 1206 C 101.741 1.90675 -0.795397 0
M  V30 1207 C 102.149 1.77547 0.653735 0
M  V30 1208 O 101.492 1.11611 1.45907 0
M  V30 1209 C 101.554 3.42011 -1.10764 0
M  V30 1210 C 101.218 3.78924 -2.55471 0
M  V30 1211 C 102.215 3.81042 -3.53699 0
M  V30 1212 C 99.8998 4.09626 -2.90708 0
M  V30 1213 C 101.894 4.13346 -4.85205 0
M  V30 1214 C 99.5808 4.41597 -4.22416 0
M  V30 1215 C 100.579 4.43436 -5.19474 0
M  V30 1216 O 100.267 4.74649 -6.48817 0
M  V30 1217 H 99.9988 0.611554 -0.288058 0
M  V30 1218 H 102.553 1.48711 -1.41683 0
M  V30 1219 H 100.783 3.84312 -0.429128 0
M  V30 1220 H 102.472 3.97384 -0.827077 0
M  V30 1221 H 103.238 3.57437 -3.27817 0
M  V30 1222 H 99.1168 4.07361 -2.15819 0
M  V30 1223 H 102.661 4.14696 -5.60957 0
M  V30 1224 H 98.5578 4.64667 -4.48056 0
M  V30 1225 H 99.3258 4.9247 -6.5377 0
M  V30 1226 N 101.989 0.842826 1.3317 0
M  V30 1227 C 102.937 0.267495 2.31057 0
M  V30 1228 C 103.931 -0.602682 1.58316 0
M  V30 1229 O 105.137 -0.491803 1.73151 0
M  V30 1230 H 101.512 0.0677813 0.748939 0
M  V30 1231 H 103.483 1.10754 2.77085 0
M  V30 1232 C 102.232 -0.539331 3.43492 0
M  V30 1233 H 101.555 0.12095 3.99617 0
M  V30 1234 H 102.995 -0.90767 4.14171 0
M  V30 1235 C 101.454 -1.71981 2.89697 0
M  V30 1236 O 101.984 -2.81862 2.86211 0
M  V30 1237 N 100.19 -1.54299 2.46252 0
M  V30 1238 H 99.7369 -0.649143 2.49287 0
M  V30 1239 H 99.6949 -2.33431 2.10612 0
M  V30 1240 N 103.467 -1.45747 0.599634 0
M  V30 1241 C 104.715 -2.01893 0.0915472 0
M  V30 1242 C 105.036 -1.47155 -1.27946 0
M  V30 1243 O 104.306 -0.66273 -1.84349 0
M  V30 1244 H 102.886 -0.746363 0.0308524 0
M  V30 1245 H 105.548 -1.78645 0.779237 0
M  V30 1246 H 104.644 -3.1208 0.0353086 0
M  V30 1247 N 104.945 -0.338344 -1.53925 0
M  V30 1248 C 106.193 0.259245 -2.0043 0
M  V30 1249 C 106.514 1.51484 -1.22791 0
M  V30 1250 O 105.784 1.93037 -0.33368 0
M  V30 1251 H 104.364 0.0987845 -0.740439 0
M  V30 1252 H 107.026 -0.458302 -1.89435 0
M  V30 1253 H 106.122 0.505334 -3.07982 0
M  V30 1254 N 106.423 1.57458 -0.0668435 0
M  V30 1255 C 107.37 2.12439 0.902122 0
M  V30 1256 C 108.34 1.03565 1.2986 0
M  V30 1257 O 109.525 1.312 1.38532 0
M  V30 1258 C 106.665 2.6865 2.16614 0
M  V30 1259 C 105.778 3.91663 1.82274 0
M  V30 1260 C 104.913 4.36134 3.0325 0
M  V30 1261 C 103.952 5.51808 2.64904 0
M  V30 1262 N 103.089 5.9126 3.78624 0
M  V30 1263 H 107.929 2.94934 0.426382 0
M  V30 1264 H 105.466 1.4575 0.198819 0
M  V30 1265 H 107.424 2.99346 2.90599 0
M  V30 1266 H 106.054 1.88928 2.61737 0
M  V30 1267 H 105.106 3.6746 0.983719 0
M  V30 1268 H 106.418 4.75693 1.50059 0
M  V30 1269 H 105.572 4.68465 3.85519 0
M  V30 1270 H 104.311 3.50948 3.38655 0
M  V30 1271 H 103.316 5.19133 1.81055 0
M  V30 1272 H 104.541 6.38722 2.30675 0
M  V30 1273 H 102.487 5.09024 4.138 0
M  V30 1274 H 102.404 6.70018 3.5016 0
M  V30 1275 H 103.672 6.28212 4.61486 0
M  V30 1276 N 107.901 -0.206675 1.56239 0
M  V30 1277 C 109.15 -0.926964 1.79138 0
M  V30 1278 C 109.463 -1.84901 0.638043 0
M  V30 1279 O 110.669 -2.60906 0.751033 0
M  V30 1280 C 109.125 -1.6986 3.17294 0
M  V30 1281 C 108.733 -0.821956 4.40395 0
M  V30 1282 C 110.477 -2.40922 3.4951 0
M  V30 1283 C 108.384 -1.59179 5.69575 0
M  V30 1284 H 107.314 -0.349864 0.667915 0
M  V30 1285 H 109.965 -0.180487 1.8261 0
M  V30 1286 H 108.347 -2.48853 3.08039 0
M  V30 1287 H 109.521 -0.0715019 4.60745 0
M  V30 1288 H 107.836 -0.222741 4.15804 0
M  V30 1289 H 110.433 -2.99047 4.43255 0
M  V30 1290 H 110.776 -3.14542 2.72707 0
M  V30 1291 H 111.309 -1.68905 3.60161 0
M  V30 1292 H 108.048 -0.898589 6.49312 0
M  V30 1293 H 107.568 -2.31648 5.53262 0
M  V30 1294 H 109.247 -2.14862 6.10281 0
M  V30 1295 N 109.379 -1.50304 -0.473955 0
M  V30 1296 C 110.309 -1.71886 -1.58042 0
M  V30 1297 C 111.29 -0.567799 -1.60344 0
M  V30 1298 O 112.475 -0.806623 -1.76656 0
M  V30 1299 C 109.605 -1.81036 -2.96384 0
M  V30 1300 C 108.559 -2.962 -3.08949 0
M  V30 1301 C 107.885 -2.9049 -4.48909 0
M  V30 1302 C 109.185 -4.36752 -2.86434 0
M  V30 1303 H 110.879 -2.64527 -1.40234 0
M  V30 1304 H 108.425 -1.27295 -0.673201 0
M  V30 1305 H 110.378 -1.94719 -3.73714 0
M  V30 1306 H 109.102 -0.850147 -3.15341 0
M  V30 1307 H 107.761 -2.82164 -2.3405 0
M  V30 1308 H 107.409 -1.92321 -4.64781 0
M  V30 1309 H 107.109 -3.67802 -4.58253 0
M  V30 1310 H 108.633 -3.06218 -5.28264 0
M  V30 1311 H 110.047 -4.5133 -3.53517 0
M  V30 1312 H 108.444 -5.15493 -3.07225 0
M  V30 1313 H 109.514 -4.49321 -1.82316 0
M  V30 1314 N 110.857 0.726932 -1.39834 0
M  V30 1315 C 112.082 1.52121 -1.40976 0
M  V30 1316 C 112.507 1.88098 -0.00826029 0
M  V30 1317 O 111.865 1.52479 0.980807 0
M  V30 1318 C 111.913 2.78021 -2.29644 0
M  V30 1319 O 111.017 3.74272 -1.73188 0
M  V30 1320 H 110.358 0.45908 -0.479731 0
M  V30 1321 H 112.888 0.896207 -1.83927 0
M  V30 1322 H 112.898 3.26671 -2.44438 0
M  V30 1323 H 111.573 2.51169 -3.31492 0
M  V30 1324 H 110.15 3.33073 -1.6768 0
M  V30 1325 N 112.336 1.25143 0.95797 0
M  V30 1326 C 113.284 1.05019 2.07542 0
M  V30 1327 C 114.278 -0.0178751 1.69391 0
M  V30 1328 O 115.484 0.137472 1.79474 0
M  V30 1329 H 111.859 0.32265 0.679265 0
M  V30 1330 H 113.83 1.99759 2.21673 0
M  V30 1331 C 112.579 0.682074 3.40944 0
M  V30 1332 H 111.902 1.49573 3.70767 0
M  V30 1333 H 113.342 0.580945 4.20001 0
M  V30 1334 C 111.801 -0.611608 3.31302 0
M  V30 1335 O 112.331 -1.65465 3.66038 0
M  V30 1336 N 110.537 -0.595982 2.84423 0
M  V30 1337 H 110.084 0.253192 2.56353 0
M  V30 1338 H 110.042 -1.46173 2.78354 0
M  V30 1339 N 113.814 -1.1601 1.06675 0
M  V30 1340 C 115.091 -1.82679 0.699114 0
M  V30 1341 C 115.471 -1.94559 -0.819137 0
M  V30 1342 O 114.819 -1.49169 -1.73092 0
M  V30 1343 C 115.029 -3.19445 1.40555 0
M  V30 1344 C 116.377 -3.95171 1.55323 0
M  V30 1345 O 117.401 -3.28976 1.36577 0
M  V30 1346 O 116.26 -5.13833 1.86112 0
M  V30 1347 H 113.354 -0.788954 0.247951 0
M  V30 1348 H 115.9 -1.23179 1.16726 0
M  V30 1349 H 114.672 -3.05856 2.44065 0
M  V30 1350 H 114.295 -3.86625 0.927733 0
M  V30 1351 N 115.292 -0.849877 -1.32721 0
M  V30 1352 C 116.708 -0.539102 -1.50219 0
M  V30 1353 C 116.908 0.931271 -1.78689 0
M  V30 1354 O 115.964 1.71455 -1.85363 0
M  V30 1355 C 117.277 -1.42196 -2.64954 0
M  V30 1356 C 118.825 -1.42189 -2.78839 0
M  V30 1357 C 119.3 -2.28985 -3.96648 0
M  V30 1358 N 120.791 -2.26754 -4.03902 0
M  V30 1359 C 121.526 -2.90644 -4.94281 0
M  V30 1360 N 121.022 -3.63629 -5.897 0
M  V30 1361 N 122.815 -2.80057 -4.87365 0
M  V30 1362 H 114.966 -1.80156 -1.12506 0
M  V30 1363 H 117.229 -0.769217 -0.554085 0
M  V30 1364 H 116.935 -2.46733 -2.50631 0
M  V30 1365 H 116.809 -1.10591 -3.60624 0
M  V30 1366 H 119.196 -0.38419 -2.92588 0
M  V30 1367 H 119.277 -1.77807 -1.83898 0
M  V30 1368 H 118.921 -3.32819 -3.83658 0
M  V30 1369 H 118.851 -1.90702 -4.90857 0
M  V30 1370 H 121.342 -1.73688 -3.3562 0
M  V30 1371 H 121.655 -4.09558 -6.55349 0
M  V30 1372 H 120 -3.67737 -5.89741 0
M  V30 1373 H 123.191 -2.22593 -4.11789 0
M  V30 1374 H 123.364 -3.30132 -5.57599 0
M  V30 1375 N 116.77 1.45427 -0.607355 0
M  V30 1376 C 117.702 2.2871 0.149752 0
M  V30 1377 C 118.715 1.39937 0.831958 0
M  V30 1378 O 119.904 1.64313 0.697385 0
M  V30 1379 C 117.004 3.15673 1.23304 0
M  V30 1380 C 116.177 4.32722 0.637996 0
M  V30 1381 C 115.236 5.00895 1.61215 0
M  V30 1382 O 114.262 5.57697 1.13854 0
M  V30 1383 N 115.464 5.00159 2.94655 0
M  V30 1384 H 118.229 2.94328 -0.564882 0
M  V30 1385 H 115.79 1.55612 -0.446823 0
M  V30 1386 H 117.782 3.58144 1.88454 0
M  V30 1387 H 116.352 2.51965 1.8502 0
M  V30 1388 H 115.572 3.93734 -0.191572 0
M  V30 1389 H 116.86 5.08321 0.220665 0
M  V30 1390 H 116.258 4.553 3.35735 0
M  V30 1391 H 114.815 5.46495 3.55228 0
M  V30 1392 N 118.248 0.346503 1.53744 0
M  V30 1393 C 119.478 -0.250047 2.05081 0
M  V30 1394 C 119.886 -1.44529 1.22098 0
M  V30 1395 O 119.229 -1.81992 0.249917 0
M  V30 1396 C 119.291 -0.725934 3.52094 0
M  V30 1397 C 118.955 0.350053 4.55657 0
M  V30 1398 C 119.952 1.19372 5.0601 0
M  V30 1399 C 117.637 0.504827 4.99757 0
M  V30 1400 C 119.631 2.17768 5.99046 0
M  V30 1401 C 117.318 1.49218 5.92602 0
M  V30 1402 C 118.316 2.32706 6.42135 0
M  V30 1403 O 118.004 3.2976 7.33153 0
M  V30 1404 H 117.736 -0.0515469 0.674032 0
M  V30 1405 H 120.29 0.497559 1.99282 0
M  V30 1406 H 118.52 -1.52483 3.55367 0
M  V30 1407 H 120.209 -1.24336 3.86388 0
M  V30 1408 H 120.975 1.08525 4.72702 0
M  V30 1409 H 116.854 -0.135178 4.60802 0
M  V30 1410 H 120.398 2.82971 6.37631 0
M  V30 1411 H 116.295 1.6012 6.25325 0
M  V30 1412 H 117.063 3.25265 7.51096 0
M  V30 1413 N 119.726 -1.57421 0.075193 0
M  V30 1414 C 120.975 -1.92794 -0.592731 0
M  V30 1415 C 121.288 -0.957478 -1.70563 0
M  V30 1416 O 122.494 -1.20417 -2.43335 0
M  V30 1417 C 120.95 -3.42495 -1.10569 0
M  V30 1418 C 120.558 -4.47994 -0.0236121 0
M  V30 1419 C 122.302 -3.86864 -1.74748 0
M  V30 1420 C 120.209 -5.88829 -0.550803 0
M  V30 1421 H 119.139 -0.719591 -0.225177 0
M  V30 1422 H 121.79 -1.82902 0.147978 0
M  V30 1423 H 120.172 -3.47471 -1.89947 0
M  V30 1424 H 121.346 -4.54637 0.751099 0
M  V30 1425 H 119.661 -4.13113 0.522159 0
M  V30 1426 H 122.258 -4.8947 -2.15229 0
M  V30 1427 H 122.601 -3.24417 -2.60882 0
M  V30 1428 H 123.134 -3.84504 -1.01986 0
M  V30 1429 H 119.873 -6.54929 0.273457 0
M  V30 1430 H 119.393 -5.85698 -1.29296 0
M  V30 1431 H 121.072 -6.38811 -1.02613 0
M  V30 1432 N 121.204 0.198386 -1.56346 0
M  V30 1433 C 122.434 0.934215 -1.84271 0
M  V30 1434 C 122.842 1.77496 -0.655125 0
M  V30 1435 O 122.185 1.7961 0.385488 0
M  V30 1436 C 122.247 1.88278 -3.06254 0
M  V30 1437 C 121.911 1.22431 -4.40295 0
M  V30 1438 C 122.908 0.602839 -5.16393 0
M  V30 1439 C 120.593 1.22915 -4.87029 0
M  V30 1440 C 122.587 -0.0050083 -6.374 0
M  V30 1441 C 120.274 0.617465 -6.07973 0
M  V30 1442 C 121.272 0.00146341 -6.83 0
M  V30 1443 O 120.96 -0.600642 -8.01653 0
M  V30 1444 H 120.692 0.278245 -0.616081 0
M  V30 1445 H 123.246 0.211626 -2.04307 0
M  V30 1446 H 121.476 2.64498 -2.82095 0
M  V30 1447 H 123.165 2.48612 -3.20853 0
M  V30 1448 H 123.931 0.591265 -4.81382 0
M  V30 1449 H 119.81 1.69801 -4.28589 0
M  V30 1450 H 123.354 -0.48643 -6.95902 0
M  V30 1451 H 119.251 0.62653 -6.42452 0
M  V30 1452 H 120.019 -0.497225 -8.16988 0
M  V30 1453 N 122.682 1.50554 0.465978 0
M  V30 1454 C 123.907 1.65838 1.24549 0
M  V30 1455 C 124.332 0.343486 1.84937 0
M  V30 1456 O 123.69 -0.69324 1.67523 0
M  V30 1457 C 123.738 2.75533 2.32624 0
M  V30 1458 O 122.842 2.37142 3.37398 0
M  V30 1459 H 122.183 0.553893 0.366194 0
M  V30 1460 H 124.713 1.96959 0.553927 0
M  V30 1461 H 124.723 2.98763 2.77857 0
M  V30 1462 H 123.398 3.70962 1.88043 0
M  V30 1463 H 121.975 2.24377 2.97841 0
M  V30 1464 N 124.16 -0.719506 1.40217 0
M  V30 1465 C 125.571 -1.29848 1.34151 0
M  V30 1466 C 125.922 -1.96196 0.0131349 0
M  V30 1467 O 125.047 -1.973 -0.88892 0
M  V30 1468 C 125.642 -2.36118 2.42968 0
M  V30 1469 C 124.201 -2.8965 2.40374 0
M  V30 1470 C 123.348 -1.63393 2.24049 0
M  V30 1471 H 126.299 -0.51591 1.5008 0
M  V30 1472 H 126.32 -3.16871 2.10649 0
M  V30 1473 H 125.832 -1.878 3.39636 0
M  V30 1474 H 123.933 -3.42208 1.47392 0
M  V30 1475 H 124.046 -3.4171 3.35814 0
M  V30 1476 H 122.41 -1.88312 1.71495 0
M  V30 1477 H 123.193 -1.17104 3.2271 0
M  V30 1478 N 125.638 -1.25649 -0.95132 0
M  V30 1479 C 126.568 -1.08808 -2.06599 0
M  V30 1480 C 127.549 0.00382547 -1.701 0
M  V30 1481 O 128.734 -0.166325 -1.93486 0
M  V30 1482 C 125.864 -0.709542 -3.39975 0
M  V30 1483 C 124.818 -1.75206 -3.90496 0
M  V30 1484 C 124.144 -1.22811 -5.20405 0
M  V30 1485 C 125.444 -3.15153 -4.16504 0
M  V30 1486 H 127.138 -2.02048 -2.20946 0
M  V30 1487 H 124.684 -0.972835 -1.06169 0
M  V30 1488 H 126.637 -0.578649 -4.17408 0
M  V30 1489 H 125.361 0.258556 -3.25575 0
M  V30 1490 H 124.02 -1.87145 -3.15234 0
M  V30 1491 H 123.668 -0.250145 -5.02378 0
M  V30 1492 H 123.368 -1.92492 -5.55176 0
M  V30 1493 H 124.892 -1.10968 -6.00432 0
M  V30 1494 H 126.306 -3.06349 -4.84586 0
M  V30 1495 H 124.703 -3.82333 -4.62538 0
M  V30 1496 H 125.773 -3.61966 -3.22658 0
M  V30 1497 N 127.117 1.15442 -1.07289 0
M  V30 1498 C 128.357 1.8788 -0.805012 0
M  V30 1499 C 128.721 1.80413 0.656907 0
M  V30 1500 O 129.922 2.47874 1.0398 0
M  V30 1501 C 128.193 3.3298 -1.29843 0
M  V30 1502 S 129.752 4.23158 -1.16114 0
M  V30 1503 H 126.57 0.64839 -0.291739 0
M  V30 1504 H 129.172 1.39285 -1.37186 0
M  V30 1505 H 127.876 3.35958 -2.35712 0
M  V30 1506 H 127.407 3.86629 -0.726767 0
M  V30 1507 H 129.422 4.96103 -0.0982778 0
M  V30 1508 N 128.595 0.856903 1.32268 0
M  V30 1509 C 129.505 0.306131 2.32594 0
M  V30 1510 C 130.521 -0.577209 1.64147 0
M  V30 1511 O 131.697 -0.477043 1.95669 0
M  V30 1512 C 128.762 -0.494561 3.43154 0
M  V30 1513 C 127.823 0.415186 4.27288 0
M  V30 1514 C 127.056 -0.347387 5.32568 0
M  V30 1515 O 127.279 -1.57708 5.48165 0
M  V30 1516 O 126.213 0.287982 6.01211 0
M  V30 1517 H 130.039 1.13737 2.81598 0
M  V30 1518 H 127.624 0.619902 1.35932 0
M  V30 1519 H 129.506 -0.948944 4.10576 0
M  V30 1520 H 128.181 -1.30257 2.96336 0
M  V30 1521 H 127.088 0.917793 3.62667 0
M  V30 1522 H 128.421 1.18844 4.77637 0
M  V30 1523 N 130.073 -1.45103 0.615059 0
M  V30 1524 C 131.303 -2.06254 0.119596 0
M  V30 1525 C 131.711 -1.4591 -1.20445 0
M  V30 1526 O 131.054 -0.570384 -1.7462 0
M  V30 1527 C 131.116 -3.59396 -0.0865591 0
M  V30 1528 C 130.78 -4.42116 1.15683 0
M  V30 1529 C 131.777 -4.7662 2.07676 0
M  V30 1530 C 129.462 -4.82749 1.38775 0
M  V30 1531 C 131.456 -5.50622 3.21082 0
M  V30 1532 C 129.143 -5.56504 2.52481 0
M  V30 1533 C 130.141 -5.90358 3.43463 0
M  V30 1534 O 129.829 -6.62615 4.55189 0
M  V30 1535 H 129.561 -0.672423 0.0694512 0
M  V30 1536 H 132.115 -1.87219 0.844885 0
M  V30 1537 H 130.345 -3.76859 -0.866823 0
M  V30 1538 H 132.034 -4.02365 -0.534555 0
M  V30 1539 H 132.8 -4.4578 1.91063 0
M  V30 1540 H 128.679 -4.55829 0.688545 0
M  V30 1541 H 132.223 -5.76965 3.92119 0
M  V30 1542 H 128.12 -5.86759 2.69043 0
M  V30 1543 H 128.888 -6.81071 4.53966 0
M  V30 1544 N 131.551 -0.354651 -1.53558 0
M  V30 1545 C 132.498 0.496968 -2.25386 0
M  V30 1546 C 133.468 1.0865 -1.25636 0
M  V30 1547 O 134.653 1.12104 -1.54394 0
M  V30 1548 C 131.793 1.63637 -3.03837 0
M  V30 1549 C 130.906 1.07307 -4.18461 0
M  V30 1550 C 130.041 2.18068 -4.84376 0
M  V30 1551 C 129.08 1.59147 -5.91049 0
M  V30 1552 N 128.217 2.63695 -6.50699 0
M  V30 1553 H 133.057 -0.122075 -2.9775 0
M  V30 1554 H 130.594 -0.0720154 -1.46924 0
M  V30 1555 H 132.552 2.30734 -3.47589 0
M  V30 1556 H 131.182 2.22623 -2.33749 0
M  V30 1557 H 130.234 0.292708 -3.79272 0
M  V30 1558 H 131.546 0.602193 -4.95152 0
M  V30 1559 H 130.7 2.93007 -5.31255 0
M  V30 1560 H 129.439 2.68504 -4.07133 0
M  V30 1561 H 128.444 0.827175 -5.43542 0
M  V30 1562 H 129.669 1.09549 -6.70206 0
M  V30 1563 H 127.615 3.13365 -5.76315 0
M  V30 1564 H 127.532 2.21263 -7.22896 0
M  V30 1565 H 128.8 3.3837 -7.02229 0
M  V30 1566 N 133.029 1.57378 -0.0835403 0
M  V30 1567 C 133.976 2.13384 0.879539 0
M  V30 1568 C 134.946 1.04936 1.28754 0
M  V30 1569 O 136.131 1.32662 1.37133 0
M  V30 1570 C 133.271 2.70932 2.13752 0
M  V30 1571 C 132.384 3.93575 1.7811 0
M  V30 1572 C 131.519 4.39326 2.98607 0
M  V30 1573 C 130.558 5.54587 2.59037 0
M  V30 1574 N 129.695 5.95243 3.72331 0
M  V30 1575 H 134.535 2.9537 0.395076 0
M  V30 1576 H 132.072 1.45953 0.183349 0
M  V30 1577 H 134.03 3.02411 2.87408 0
M  V30 1578 H 132.66 1.91693 2.59718 0
M  V30 1579 H 131.712 3.68483 0.94469 0
M  V30 1580 H 133.024 4.77258 1.45005 0
M  V30 1581 H 132.178 4.72528 3.80529 0
M  V30 1582 H 130.917 3.5452 3.34913 0
M  V30 1583 H 129.922 5.21024 1.75539 0
M  V30 1584 H 131.147 6.41133 2.23887 0
M  V30 1585 H 129.093 5.13385 4.08378 0
M  V30 1586 H 129.01 6.73694 3.43034 0
M  V30 1587 H 130.278 6.33072 4.54797 0
M  V30 1588 N 134.507 -0.190092 1.56449 0
M  V30 1589 C 135.454 -1.23557 1.94942 0
M  V30 1590 C 136.424 -1.44972 0.810696 0
M  V30 1591 O 137.609 -1.58023 1.06927 0
M  V30 1592 C 134.749 -2.57416 2.2985 0
M  V30 1593 C 133.862 -2.43537 3.5681 0
M  V30 1594 C 132.997 -3.70134 3.81017 0
M  V30 1595 C 132.036 -3.51109 5.01387 0
M  V30 1596 N 131.173 -4.6973 5.21822 0
M  V30 1597 H 136.013 -0.900304 2.84075 0
M  V30 1598 H 133.55 -0.43318 1.40577 0
M  V30 1599 H 135.508 -3.35409 2.48106 0
M  V30 1600 H 134.138 -2.88975 1.43852 0
M  V30 1601 H 133.19 -1.56816 3.46573 0
M  V30 1602 H 134.502 -2.25415 4.4496 0
M  V30 1603 H 133.656 -4.56566 3.9954 0
M  V30 1604 H 132.395 -3.91215 2.91207 0
M  V30 1605 H 131.4 -2.63063 4.82782 0
M  V30 1606 H 132.625 -3.31468 5.9271 0
M  V30 1607 H 130.571 -4.91065 4.34961 0
M  V30 1608 H 130.488 -4.54452 6.0416 0
M  V30 1609 H 131.756 -5.57499 5.44808 0
M  V30 1610 N 135.985 -1.50799 -0.457987 0
M  V30 1611 C 137.234 -1.6168 -1.20593 0
M  V30 1612 C 137.547 -0.32888 -1.92815 0
M  V30 1613 O 138.753 -0.316773 -2.69646 0
M  V30 1614 C 137.209 -2.8545 -2.19195 0
M  V30 1615 C 136.817 -4.21168 -1.52715 0
M  V30 1616 C 138.561 -3.05681 -2.94549 0
M  V30 1617 C 136.468 -5.3611 -2.4968 0
M  V30 1618 H 135.398 -0.602134 -0.453818 0
M  V30 1619 H 138.049 -1.77245 -0.475031 0
M  V30 1620 H 136.431 -2.63472 -2.95632 0
M  V30 1621 H 137.605 -4.53449 -0.819775 0
M  V30 1622 H 135.92 -4.06648 -0.895922 0
M  V30 1623 H 138.517 -3.88727 -3.67145 0
M  V30 1624 H 138.86 -2.17929 -3.54701 0
M  V30 1625 H 139.393 -3.27901 -2.25223 0
M  V30 1626 H 136.132 -6.26057 -1.94249 0
M  V30 1627 H 135.652 -5.0823 -3.18532 0
M  V30 1628 H 137.331 -5.6722 -3.11241 0
M  V30 1629 N 137.463 0.71206 -1.40597 0
M  V30 1630 C 138.411 1.84746 -1.41321 0
M  V30 1631 C 139.405 1.66842 -0.293268 0
M  V30 1632 O 140.611 1.73904 -0.464481 0
M  V30 1633 H 136.986 0.608522 -0.441819 0
M  V30 1634 H 138.957 1.81252 -2.37045 0
M  V30 1635 C 137.706 3.22638 -1.29614 0
M  V30 1636 H 137.029 3.37023 -2.15071 0
M  V30 1637 H 138.469 4.02209 -1.3418 0
M  V30 1638 C 136.928 3.36899 -0.00673121 0
M  V30 1639 O 137.458 3.90186 0.954859 0
M  V30 1640 N 135.664 2.9053 0.0639327 0
M  V30 1641 H 135.211 2.47353 -0.719311 0
M  V30 1642 H 135.169 3.0045 0.926118 0
M  V30 1643 N 138.941 1.26152 0.944643 0
M  V30 1644 C 140.218 1.02247 1.66748 0
M  V30 1645 C 140.598 -0.448202 2.06287 0
M  V30 1646 O 139.946 -1.42779 1.78399 0
M  V30 1647 C 140.156 1.96788 2.88228 0
M  V30 1648 C 141.504 2.25201 3.59958 0
M  V30 1649 O 142.528 1.94626 2.98327 0
M  V30 1650 O 141.387 2.77242 4.70956 0
M  V30 1651 H 138.481 0.388517 0.730057 0
M  V30 1652 H 141.027 1.37348 0.99668 0
M  V30 1653 H 139.799 2.96047 2.55875 0
M  V30 1654 H 139.422 1.62145 3.63035 0
M  V30 1655 N 140.419 -1.14872 1.07899 0
M  V30 1656 C 141.668 -1.85135 0.800499 0
M  V30 1657 C 141.981 -1.83547 -0.676014 0
M  V30 1658 O 143.187 -2.49548 -1.06948 0
M  V30 1659 C 141.643 -3.3231 1.38197 0
M  V30 1660 C 141.251 -3.42329 2.8899 0
M  V30 1661 C 142.995 -4.0772 1.18174 0
M  V30 1662 C 140.902 -4.83684 3.403 0
M  V30 1663 H 139.832 -0.693563 0.29578 0
M  V30 1664 H 142.483 -1.29532 1.29976 0
M  V30 1665 H 140.865 -3.87618 0.810431 0
M  V30 1666 H 142.039 -2.97097 3.52236 0
M  V30 1667 H 140.354 -2.80369 3.07867 0
M  V30 1668 H 142.951 -5.12049 1.5398 0
M  V30 1669 H 143.294 -4.16124 0.12117 0
M  V30 1670 H 143.827 -3.58696 1.71994 0
M  V30 1671 H 140.566 -4.80465 4.45907 0
M  V30 1672 H 140.086 -5.29474 2.81811 0
M  V30 1673 H 141.765 -5.52558 3.36584 0
M  V30 1674 N 141.898 -0.863906 -1.31812 0
M  V30 1675 C 143.123 -0.48527 -2.01643 0
M  V30 1676 C 143.548 0.913058 -1.64453 0
M  V30 1677 O 142.906 1.6014 -0.849985 0
M  V30 1678 C 142.954 -0.642625 -3.54828 0
M  V30 1679 O 142.058 0.320659 -4.11151 0
M  V30 1680 H 141.399 -0.193793 -0.635091 0
M  V30 1681 H 143.929 -1.16565 -1.68148 0
M  V30 1682 H 143.939 -0.533628 -4.04495 0
M  V30 1683 H 142.614 -1.66227 -3.81237 0
M  V30 1684 H 141.191 0.167126 -3.72525 0
M  V30 1685 N 143.376 1.44774 -0.622745 0
M  V30 1686 C 144.601 2.06999 -0.128968 0
M  V30 1687 C 145.026 1.4617 1.1839 0
M  V30 1688 O 144.384 0.560007 1.72434 0
M  V30 1689 C 144.432 3.60595 -0.0188351 0
M  V30 1690 O 143.536 3.99398 1.02739 0
M  V30 1691 H 142.877 0.659047 -0.0809544 0
M  V30 1692 H 145.407 1.85784 -0.85705 0
M  V30 1693 H 145.417 4.07627 0.174476 0
M  V30 1694 H 144.092 4.04252 -0.977384 0
M  V30 1695 H 142.669 3.64011 0.809326 0
M  V30 1696 N 144.854 0.36279 1.53368 0
M  V30 1697 C 146.084 -0.228281 2.05335 0
M  V30 1698 C 146.492 -1.43226 1.23625 0
M  V30 1699 O 145.835 -1.81717 0.269206 0
M  V30 1700 C 145.897 -0.688549 3.52845 0
M  V30 1701 C 145.561 0.398362 4.5526 0
M  V30 1702 C 146.558 1.24732 5.04716 0
M  V30 1703 C 144.243 0.557805 4.99193 0
M  V30 1704 C 146.237 2.2411 5.96702 0
M  V30 1705 C 143.924 1.55495 5.90986 0
M  V30 1706 C 144.922 2.39503 6.39631 0
M  V30 1707 O 144.61 3.37517 7.29615 0
M  V30 1708 H 144.342 -0.044395 0.674541 0
M  V30 1709 H 146.896 0.518668 1.98744 0
M  V30 1710 H 145.126 -1.48706 3.56964 0
M  V30 1711 H 146.815 -1.20231 3.87685 0
M  V30 1712 H 147.581 1.13532 4.71525 0
M  V30 1713 H 143.46 -0.0862959 4.60919 0
M  V30 1714 H 147.004 2.89718 6.34594 0
M  V30 1715 H 142.901 1.66744 6.23592 0
M  V30 1716 H 143.669 3.33213 7.47604 0
M  V30 1717 N 146.332 -1.57332 0.0918853 0
M  V30 1718 C 147.578 -1.94524 -0.573425 0
M  V30 1719 C 147.911 -0.973578 -1.68033 0
M  V30 1720 O 147.186 -0.00609226 -1.94499 0
M  V30 1721 C 147.469 -3.41858 -1.13161 0
M  V30 1722 C 147.322 -4.4979 -0.0299747 0
M  V30 1723 C 148.641 -3.90435 -2.03098 0
M  V30 1724 H 145.76 -0.70734 -0.206975 0
M  V30 1725 H 148.402 -1.89309 0.161942 0
M  V30 1726 H 146.552 -3.46433 -1.7583 0
M  V30 1727 H 148.224 -4.57327 0.604112 0
M  V30 1728 H 146.467 -4.291 0.636833 0
M  V30 1729 H 147.138 -5.50069 -0.461287 0
M  V30 1730 H 149.614 -3.87992 -1.50338 0
M  V30 1731 H 148.49 -4.94097 -2.39081 0
M  V30 1732 H 148.751 -3.29541 -2.94712 0
M  V30 1733 N 147.81 0.181792 -1.56548 0
M  V30 1734 C 149.035 0.920019 -1.85877 0
M  V30 1735 C 149.46 1.75494 -0.677021 0
M  V30 1736 O 148.818 1.77399 0.374056 0
M  V30 1737 C 148.866 1.78112 -3.13542 0
M  V30 1738 O 147.97 2.88152 -2.95029 0
M  V30 1739 H 147.311 0.258334 -0.611686 0
M  V30 1740 H 149.841 0.183092 -2.03779 0
M  V30 1741 H 149.851 2.18314 -3.44678 0
M  V30 1742 H 148.526 1.16777 -3.99169 0
M  V30 1743 H 147.103 2.51609 -2.75222 0
M  V30 1744 N 149.288 1.51039 0.449983 0
M  V30 1745 C 150.534 1.63322 1.20223 0
M  V30 1746 C 150.867 0.34241 1.91158 0
M  V30 1747 O 150.142 -0.657344 1.83055 0
M  V30 1748 C 150.425 2.82801 2.22925 0
M  V30 1749 C 150.278 4.21823 1.56157 0
M  V30 1750 C 151.597 2.97807 3.24035 0
M  V30 1751 H 148.716 0.594407 0.435718 0
M  V30 1752 H 151.358 1.83489 0.493136 0
M  V30 1753 H 149.508 2.65738 2.834 0
M  V30 1754 H 151.18 4.50526 0.991162 0
M  V30 1755 H 149.423 4.25105 0.864172 0
M  V30 1756 H 150.094 5.01391 2.30891 0
M  V30 1757 H 152.57 3.13497 2.73603 0
M  V30 1758 H 151.446 3.82992 3.93202 0
M  V30 1759 H 151.707 2.09328 3.89402 0
M  V30 1760 N 150.766 -0.704594 1.40972 0
M  V30 1761 C 152.177 -1.28418 1.3552 0
M  V30 1762 C 152.528 -1.96171 0.0339434 0
M  V30 1763 O 151.653 -1.98231 -0.867944 0
M  V30 1764 C 152.248 -2.33528 2.45459 0
M  V30 1765 C 150.807 -2.87085 2.43433 0
M  V30 1766 C 149.954 -1.61007 2.2577 0
M  V30 1767 H 152.905 -0.499963 1.50619 0
M  V30 1768 H 152.926 -3.14619 2.13998 0
M  V30 1769 H 152.438 -1.84187 3.41609 0
M  V30 1770 H 150.539 -3.40626 1.51013 0
M  V30 1771 H 150.652 -3.3813 3.39419 0
M  V30 1772 H 149.016 -1.86482 1.73483 0
M  V30 1773 H 149.799 -1.13675 3.23933 0
M  V30 1774 N 152.244 -1.26651 -0.937939 0
M  V30 1775 C 153.491 -1.12387 -1.6845 0
M  V30 1776 C 153.819 0.332208 -1.91642 0
M  V30 1777 O 153.074 1.2602 -1.49725 0
M  V30 1778 C 153.373 -1.84168 -3.06295 0
M  V30 1779 C 153.039 -3.34056 -3.02849 0
M  V30 1780 C 151.701 -3.74942 -3.01616 0
M  V30 1781 C 154.053 -4.29741 -2.9491 0
M  V30 1782 C 151.381 -5.09894 -2.90215 0
M  V30 1783 C 153.733 -5.64738 -2.8505 0
M  V30 1784 C 152.397 -6.0493 -2.82162 0
M  V30 1785 H 151.667 -0.411252 -0.616403 0
M  V30 1786 H 154.314 -1.57134 -1.09459 0
M  V30 1787 H 152.619 -1.319 -3.6893 0
M  V30 1788 H 154.316 -1.70569 -3.62915 0
M  V30 1789 H 150.906 -3.01534 -3.0459 0
M  V30 1790 H 155.09 -3.99133 -2.94969 0
M  V30 1791 H 150.346 -5.40194 -2.86358 0
M  V30 1792 H 154.52 -6.38561 -2.77872 0
M  V30 1793 H 152.147 -7.09457 -2.73084 0
M  V30 1794 N 153.722 1.14298 -1.08507 0
M  V30 1795 C 154.669 2.19414 -0.715965 0
M  V30 1796 C 155.639 1.63399 0.298326 0
M  V30 1797 O 156.824 1.89929 0.182101 0
M  V30 1798 C 153.964 3.44845 -0.132534 0
M  V30 1799 C 153.077 4.15007 -1.19973 0
M  V30 1800 C 152.212 5.28024 -0.580048 0
M  V30 1801 C 151.251 5.9002 -1.62921 0
M  V30 1802 N 150.388 6.94485 -1.03125 0
M  V30 1803 H 155.228 2.50336 -1.61666 0
M  V30 1804 H 152.765 1.2293 -0.807882 0
M  V30 1805 H 154.723 4.16601 0.223454 0
M  V30 1806 H 153.353 3.14403 0.731467 0
M  V30 1807 H 152.405 3.41629 -1.67313 0
M  V30 1808 H 153.717 4.57178 -1.99473 0
M  V30 1809 H 152.871 6.06455 -0.172364 0
M  V30 1810 H 151.61 4.87076 0.246603 0
M  V30 1811 H 150.615 5.10291 -2.04654 0
M  V30 1812 H 151.84 6.33042 -2.45835 0
M  V30 1813 H 149.786 6.55612 -0.225711 0
M  V30 1814 H 149.703 7.35148 -1.76334 0
M  V30 1815 H 150.971 7.7679 -0.649458 0
M  V30 1816 N 155.201 0.870884 1.31352 0
M  V30 1817 C 156.45 0.478408 1.95944 0
M  V30 1818 C 156.763 -0.974493 1.69597 0
M  V30 1819 O 157.969 -1.47316 2.28058 0
M  V30 1820 C 156.425 0.804609 3.50791 0
M  V30 1821 C 156.033 2.27433 3.85977 0
M  V30 1822 C 157.777 0.480648 4.2177 0
M  V30 1823 C 155.684 2.5429 5.33939 0
M  V30 1824 H 154.614 0.175175 0.733369 0
M  V30 1825 H 157.265 1.06391 1.4951 0
M  V30 1826 H 155.647 0.148347 3.95722 0
M  V30 1827 H 156.821 2.97373 3.52002 0
M  V30 1828 H 155.136 2.56442 3.28065 0
M  V30 1829 H 157.733 0.658519 5.30629 0
M  V30 1830 H 158.076 -0.578979 4.12254 0
M  V30 1831 H 158.609 1.09349 3.82476 0
M  V30 1832 H 155.348 3.58939 5.48491 0
M  V30 1833 H 154.868 1.88945 5.69263 0
M  V30 1834 H 156.547 2.39066 6.01212 0
M  V30 1835 N 156.679 -1.44442 0.630414 0
M  V30 1836 C 157.627 -2.32437 -0.0871428 0
M  V30 1837 C 158.621 -1.47304 -0.836525 0
M  V30 1838 O 159.827 -1.63653 -0.749506 0
M  V30 1839 H 156.202 -0.750533 -0.0469495 0
M  V30 1840 H 158.173 -2.90709 0.673096 0
M  V30 1841 C 156.922 -3.31288 -1.05563 0
M  V30 1842 H 156.245 -3.96805 -0.488426 0
M  V30 1843 H 157.685 -3.9554 -1.52721 0
M  V30 1844 C 156.144 -2.6016 -2.14052 0
M  V30 1845 O 156.674 -2.39997 -3.22124 0
M  V30 1846 N 154.88 -2.19911 -1.89967 0
M  V30 1847 H 154.427 -2.36509 -1.02085 0
M  V30 1848 H 154.385 -1.72646 -2.62756 0
M  V30 1849 N 158.157 -0.370918 -1.53173 0
M  V30 1850 C 159.406 0.218249 -2.00516 0
M  V30 1851 C 159.719 1.49429 -1.26215 0
M  V30 1852 O 160.925 2.16239 -1.64174 0
M  V30 1853 C 159.381 0.43948 -3.57207 0
M  V30 1854 C 158.989 -0.822244 -4.4039 0
M  V30 1855 C 160.733 0.986012 -4.1289 0
M  V30 1856 C 158.64 -0.570304 -5.88644 0
M  V30 1857 H 157.57 0.0853333 -0.749156 0
M  V30 1858 H 160.221 -0.490483 -1.76823 0
M  V30 1859 H 158.603 1.20961 -3.77074 0
M  V30 1860 H 159.777 -1.59557 -4.32294 0
M  V30 1861 H 158.092 -1.29238 -3.95836 0
M  V30 1862 H 160.689 1.18991 -5.21292 0
M  V30 1863 H 161.032 1.94972 -3.6782 0
M  V30 1864 H 161.565 0.27592 -3.96842 0
M  V30 1865 H 158.304 -1.50449 -6.38001 0
M  V30 1866 H 157.824 0.164427 -5.99575 0
M  V30 1867 H 159.503 -0.19784 -6.46697 0
M  V30 1868 N 159.635 1.57281 -0.100228 0
M  V30 1869 C 161.051 1.57527 0.256416 0
M  V30 1870 C 161.251 1.11173 1.68056 0
M  V30 1871 O 160.307 0.79053 2.39806 0
M  V30 1872 C 161.62 3.00673 0.0401747 0
M  V30 1873 C 163.168 3.12815 0.107528 0
M  V30 1874 C 163.643 4.57929 -0.0807834 0
M  V30 1875 N 165.134 4.63193 -0.0261207 0
M  V30 1876 C 165.869 5.73212 -0.146999 0
M  V30 1877 N 165.365 6.92047 -0.322999 0
M  V30 1878 N 167.158 5.62031 -0.0879044 0
M  V30 1879 H 159.309 1.85718 -1.03065 0
M  V30 1880 H 161.572 0.857446 -0.404339 0
M  V30 1881 H 161.278 3.38804 -0.943649 0
M  V30 1882 H 161.152 3.69042 0.780262 0
M  V30 1883 H 163.539 2.74554 1.08186 0
M  V30 1884 H 163.62 2.47028 -0.664134 0
M  V30 1885 H 163.264 4.96886 -1.05201 0
M  V30 1886 H 163.194 5.21783 0.710635 0
M  V30 1887 H 165.685 3.77748 0.107161 0
M  V30 1888 H 165.998 7.7173 -0.406608 0
M  V30 1889 H 164.343 6.94074 -0.358733 0
M  V30 1890 H 167.534 4.68075 0.048498 0
M  V30 1891 H 167.707 6.47734 -0.185557 0
M  V30 1892 N 161.113 -0.173488 1.56642 0
M  V30 1893 C 162.061 -1.23417 1.97157 0
M  V30 1894 C 163.055 -1.45946 0.860013 0
M  V30 1895 O 164.261 -1.46551 1.04512 0
M  V30 1896 H 160.636 -0.414818 0.62724 0
M  V30 1897 H 162.607 -0.865582 2.8557 0
M  V30 1898 C 161.356 -2.5665 2.34576 0
M  V30 1899 H 160.679 -2.40137 3.19647 0
M  V30 1900 H 162.119 -3.2956 2.6677 0
M  V30 1901 C 160.578 -3.15245 1.18836 0
M  V30 1902 O 161.108 -3.98883 0.474869 0
M  V30 1903 N 159.314 -2.74303 0.959497 0
M  V30 1904 H 158.861 -2.0639 1.54146 0
M  V30 1905 H 158.819 -3.13844 0.186932 0
M  V30 1906 N 162.591 -1.51276 -0.441967 0
M  V30 1907 C 163.521 -1.752 -1.54361 0
M  V30 1908 C 164.502 -0.601682 -1.59103 0
M  V30 1909 O 165.687 -0.843913 -1.74905 0
M  V30 1910 C 162.817 -1.87282 -2.92477 0
M  V30 1911 C 161.771 -3.02687 -3.02596 0
M  V30 1912 C 161.097 -2.99947 -4.42647 0
M  V30 1913 C 162.397 -4.4273 -2.77106 0
M  V30 1914 H 164.091 -2.67442 -1.34592 0
M  V30 1915 H 161.637 -1.28694 -0.646048 0
M  V30 1916 H 163.59 -2.02602 -3.695 0
M  V30 1917 H 162.314 -0.916844 -3.13467 0
M  V30 1918 H 160.973 -2.87065 -2.28012 0
M  V30 1919 H 160.621 -2.02136 -4.60597 0
M  V30 1920 H 160.321 -3.77439 -4.50348 0
M  V30 1921 H 161.845 -3.17354 -5.2165 0
M  V30 1922 H 163.259 -4.58727 -3.43864 0
M  V30 1923 H 161.656 -5.21893 -2.96222 0
M  V30 1924 H 162.726 -4.53087 -1.72744 0
M  V30 1925 N 164.069 0.697108 -1.41344 0
M  V30 1926 C 165.317 1.45426 -1.40341 0
M  V30 1927 C 165.638 1.94996 -0.0128787 0
M  V30 1928 O 164.908 1.71599 0.945027 0
M  V30 1929 H 163.488 0.539594 -0.516573 0
M  V30 1930 H 166.15 0.825201 -1.76569 0
M  V30 1931 H 165.246 2.31817 -2.08967 0
M  V30 1932 N 165.547 1.27147 0.931209 0
M  V30 1933 C 166.775 1.16082 1.71267 0
M  V30 1934 C 167.19 -0.282772 1.8667 0
M  V30 1935 O 166.547 -1.19283 1.38122 0
M  V30 1936 C 166.598 1.8358 3.11417 0
M  V30 1937 O 166.319 3.22299 2.96741 0
M  V30 1938 C 167.82 1.78597 4.05732 0
M  V30 1939 H 165.04 0.403758 0.535929 0
M  V30 1940 H 167.584 1.67953 1.16671 0
M  V30 1941 H 165.739 1.35623 3.62885 0
M  V30 1942 H 166.153 3.55851 3.85319 0
M  V30 1943 H 167.627 2.30444 5.01597 0
M  V30 1944 H 168.104 0.754564 4.3267 0
M  V30 1945 H 168.71 2.26152 3.60188 0
M  V30 1946 N 167.025 -1.13721 1.09112 0
M  V30 1947 C 168.25 -1.89314 0.847053 0
M  V30 1948 C 168.675 -1.78416 -0.595774 0
M  V30 1949 O 168.033 -1.12942 -1.41823 0
M  V30 1950 C 168.081 -3.3701 1.28284 0
M  V30 1951 O 167.185 -4.10054 0.439267 0
M  V30 1952 H 166.526 -0.588745 0.307044 0
M  V30 1953 H 169.056 -1.43902 1.45442 0
M  V30 1954 H 169.066 -3.87834 1.26683 0
M  V30 1955 H 167.741 -3.4426 2.33363 0
M  V30 1956 H 166.318 -3.69266 0.519312 0
M  V30 1957 N 168.503 -0.877838 -1.30888 0
M  V30 1958 C 169.451 -0.328662 -2.30266 0
M  V30 1959 C 170.445 0.560496 -1.59859 0
M  V30 1960 O 171.651 0.445722 -1.74394 0
M  V30 1961 H 168.026 -0.0876142 -0.746879 0
M  V30 1962 H 169.997 -1.18061 -2.74051 0
M  V30 1963 C 168.746 0.448071 -3.44801 0
M  V30 1964 H 168.069 -0.226859 -3.99156 0
M  V30 1965 H 169.509 0.797541 -4.16432 0
M  V30 1966 C 167.968 1.64239 -2.94155 0
M  V30 1967 O 168.498 2.74175 -2.93583 0
M  V30 1968 N 166.704 1.47716 -2.50256 0
M  V30 1969 H 166.251 0.582821 -2.5092 0
M  V30 1970 H 166.209 2.27765 -2.16727 0
M  V30 1971 N 169.982 1.44106 -0.638065 0
M  V30 1972 C 171.229 2.01978 -0.14533 0
M  V30 1973 C 171.557 1.50234 1.23532 0
M  V30 1974 O 170.812 0.679548 1.83523 0
M  V30 1975 C 171.111 3.5729 -0.0887327 0
M  V30 1976 C 170.777 4.28317 -1.40909 0
M  V30 1977 C 169.439 4.47437 -1.77069 0
M  V30 1978 C 171.791 4.6867 -2.28031 0
M  V30 1979 C 169.119 5.04171 -3.00047 0
M  V30 1980 C 171.471 5.26766 -3.50286 0
M  V30 1981 C 170.135 5.44104 -3.86661 0
M  V30 1982 H 169.405 0.739089 -0.0531801 0
M  V30 1983 H 172.052 1.72781 -0.825761 0
M  V30 1984 H 170.357 3.8594 0.675095 0
M  V30 1985 H 172.054 3.99807 0.309145 0
M  V30 1986 H 168.644 4.1377 -1.1177 0
M  V30 1987 H 172.828 4.53604 -2.01388 0
M  V30 1988 H 168.084 5.15782 -3.28298 0
M  V30 1989 H 172.258 5.56983 -4.18023 0
M  V30 1990 H 169.885 5.87832 -4.82034 0
M  V30 1991 N 171.46 0.379036 1.52974 0
M  V30 1992 C 172.706 -0.206727 2.01744 0
M  V30 1993 C 173.039 -1.47314 1.26539 0
M  V30 1994 O 172.314 -1.91084 0.362903 0
M  V30 1995 C 172.597 -0.485066 3.56818 0
M  V30 1996 C 172.45 0.795919 4.42702 0
M  V30 1997 C 173.769 -1.28003 4.21074 0
M  V30 1998 H 170.888 -0.0736607 0.73331 0
M  V30 1999 H 173.53 0.506581 1.83122 0
M  V30 2000 H 171.68 -1.09272 3.72816 0
M  V30 2001 H 173.352 1.43307 4.38476 0
M  V30 2002 H 171.595 1.41344 4.10127 0
M  V30 2003 H 172.266 0.555947 5.49193 0
M  V30 2004 H 174.742 -0.765867 4.08991 0
M  V30 2005 H 173.618 -1.44352 5.29579 0
M  V30 2006 H 173.879 -2.29236 3.78026 0
M  V30 2007 N 172.938 -1.57226 0.108567 0
M  V30 2008 C 173.886 -2.16002 -0.862885 0
M  V30 2009 C 174.88 -1.10644 -1.28274 0
M  V30 2010 O 176.086 -1.28966 -1.2557 0
M  V30 2011 H 172.461 -0.691148 -0.296342 0
M  V30 2012 H 174.432 -2.96427 -0.342575 0
M  V30 2013 C 173.181 -2.76576 -2.10716 0
M  V30 2014 H 172.504 -3.5734 -1.793 0
M  V30 2015 H 173.944 -3.21253 -2.76717 0
M  V30 2016 C 172.403 -1.73137 -2.89007 0
M  V30 2017 O 172.933 -1.17842 -3.84026 0
M  V30 2018 N 171.139 -1.43317 -2.52801 0
M  V30 2019 H 170.686 -1.88473 -1.75601 0
M  V30 2020 H 170.644 -0.743485 -3.05483 0
M  V30 2021 N 174.416 0.165178 -1.56732 0
M  V30 2022 C 175.364 1.22369 -1.97809 0
M  V30 2023 C 176.358 1.45488 -0.867741 0
M  V30 2024 O 177.564 1.45995 -1.05288 0
M  V30 2025 H 173.939 0.411486 -0.629431 0
M  V30 2026 H 175.91 0.850425 -2.86025 0
M  V30 2027 C 174.659 2.55403 -2.35934 0
M  V30 2028 H 173.982 2.38438 -3.20916 0
M  V30 2029 H 175.422 3.2814 -2.68514 0
M  V30 2030 C 173.881 3.14611 -1.20506 0
M  V30 2031 O 174.411 3.98626 -0.496016 0
M  V30 2032 N 172.617 2.7379 -0.97403 0
M  V30 2033 H 172.164 2.0557 -1.55238 0
M  V30 2034 H 172.122 3.1374 -0.203573 0
M  V30 2035 N 175.894 1.51508 0.433938 0
M  V30 2036 C 176.841 1.73068 1.52696 0
M  V30 2037 C 177.811 0.572441 1.55924 0
M  V30 2038 O 178.996 0.807253 1.72882 0
M  V30 2039 C 176.136 1.86474 2.90381 0
M  V30 2040 C 175.249 3.14037 2.96656 0
M  V30 2041 C 174.384 3.18019 4.25485 0
M  V30 2042 C 173.423 4.39882 4.2564 0
M  V30 2043 N 172.56 4.41394 5.45999 0
M  V30 2044 H 177.4 2.66366 1.33615 0
M  V30 2045 H 174.937 1.32008 0.649018 0
M  V30 2046 H 176.895 1.92229 3.70275 0
M  V30 2047 H 175.525 0.965809 3.08013 0
M  V30 2048 H 174.577 3.17575 2.09404 0
M  V30 2049 H 175.889 4.0394 2.92633 0
M  V30 2050 H 175.043 3.22708 5.13755 0
M  V30 2051 H 173.782 2.2601 4.3217 0
M  V30 2052 H 172.787 4.35366 3.35763 0
M  V30 2053 H 174.012 5.33159 4.20617 0
M  V30 2054 H 171.958 3.52258 5.53399 0
M  V30 2055 H 171.875 5.25111 5.4387 0
M  V30 2056 H 173.143 4.50281 6.36292 0
M  V30 2057 N 177.372 -0.689602 1.41712 0
M  V30 2058 C 178.319 -1.80345 1.44029 0
M  V30 2059 C 179.289 -1.63478 0.293948 0
M  V30 2060 O 180.474 -1.84244 0.495869 0
M  V30 2061 C 177.614 -3.18272 1.33405 0
M  V30 2062 C 176.727 -3.46529 2.57956 0
M  V30 2063 C 175.862 -4.74103 2.39582 0
M  V30 2064 C 174.901 -4.95347 3.5958 0
M  V30 2065 N 174.038 -6.14151 3.40239 0
M  V30 2066 H 178.878 -1.77698 2.39222 0
M  V30 2067 H 176.415 -0.867688 1.18784 0
M  V30 2068 H 178.373 -3.97956 1.25246 0
M  V30 2069 H 177.003 -3.2008 0.418164 0
M  V30 2070 H 176.055 -2.61207 2.76542 0
M  V30 2071 H 177.367 -3.58126 3.47199 0
M  V30 2072 H 176.521 -5.61853 2.28924 0
M  V30 2073 H 175.26 -4.64763 1.47805 0
M  V30 2074 H 174.265 -4.06044 3.70686 0
M  V30 2075 H 175.49 -5.06542 4.52318 0
M  V30 2076 H 173.436 -6.06013 2.51167 0
M  V30 2077 H 173.353 -6.26543 4.23061 0
M  V30 2078 H 174.621 -7.04619 3.33365 0
M  V30 2079 N 178.85 -1.27639 -0.924453 0
M  V30 2080 C 180.127 -1.04887 -1.651 0
M  V30 2081 C 180.507 0.415327 -2.06974 0
M  V30 2082 O 179.855 1.39923 -1.80648 0
M  V30 2083 C 180.065 -2.01348 -2.85061 0
M  V30 2084 C 181.413 -2.30899 -3.56329 0
M  V30 2085 O 182.437 -1.99348 -2.95193 0
M  V30 2086 O 181.296 -2.84699 -4.66485 0
M  V30 2087 H 178.39 -0.400083 -0.723784 0
M  V30 2088 H 180.936 -1.38916 -0.974703 0
M  V30 2089 H 179.708 -3.0008 -2.51133 0
M  V30 2090 H 179.331 -1.679 -3.6041 0
M  V30 2091 N 180.328 1.1314 -1.09713 0
M  V30 2092 C 181.574 1.84757 -0.836224 0
M  V30 2093 C 181.907 1.8347 0.636598 0
M  V30 2094 O 181.182 1.27491 1.46889 0
M  V30 2095 C 181.465 3.32782 -1.37578 0
M  V30 2096 C 181.318 3.42567 -2.91493 0
M  V30 2097 C 182.637 4.28307 -1.01198 0
M  V30 2098 H 179.756 0.67082 -0.305236 0
M  V30 2099 H 182.398 1.3278 -1.35903 0
M  V30 2100 H 180.548 3.77177 -0.931097 0
M  V30 2101 H 182.22 3.06862 -3.44432 0
M  V30 2102 H 180.463 2.83349 -3.28475 0
M  V30 2103 H 181.134 4.46674 -3.24324 0
M  V30 2104 H 183.61 3.91999 -1.39556 0
M  V30 2105 H 182.486 5.30307 -1.41653 0
M  V30 2106 H 182.747 4.42029 0.0794833 0
M  V30 2107 N 181.806 0.884767 1.30421 0
M  V30 2108 C 182.736 0.367574 2.30589 0
M  V30 2109 C 183.717 -0.549464 1.60981 0
M  V30 2110 O 184.902 -0.46336 1.88591 0
M  V30 2111 C 182.032 -0.418944 3.44764 0
M  V30 2112 C 180.986 0.406316 4.26067 0
M  V30 2113 C 180.312 -0.506793 5.32293 0
M  V30 2114 C 181.612 1.64832 4.95608 0
M  V30 2115 H 183.306 1.20462 2.74097 0
M  V30 2116 H 180.852 0.580695 1.31772 0
M  V30 2117 H 182.805 -0.791395 4.13902 0
M  V30 2118 H 181.529 -1.28964 3.0006 0
M  V30 2119 H 180.188 0.760903 3.58617 0
M  V30 2120 H 179.836 -1.37519 4.83836 0
M  V30 2121 H 179.536 0.0415828 5.87585 0
M  V30 2122 H 181.06 -0.875764 6.04287 0
M  V30 2123 H 182.474 1.34646 5.57264 0
M  V30 2124 H 180.871 2.13688 5.60765 0
M  V30 2125 H 181.941 2.39284 4.21748 0
M  V30 2126 N 183.284 -1.43765 0.645699 0
M  V30 2127 C 184.561 -1.9541 0.0862963 0
M  V30 2128 C 184.941 -1.58725 -1.39175 0
M  V30 2129 O 184.289 -0.868581 -2.11348 0
M  V30 2130 C 184.499 -3.47488 0.324565 0
M  V30 2131 C 185.847 -4.24001 0.225497 0
M  V30 2132 O 186.871 -3.55274 0.256715 0
M  V30 2133 O 185.73 -5.46313 0.142801 0
M  V30 2134 H 182.824 -0.826882 -0.0139483 0
M  V30 2135 H 185.37 -1.53743 0.718415 0
M  V30 2136 H 184.142 -3.67289 1.3496 0
M  V30 2137 H 183.765 -3.96135 -0.340987 0
M  V30 2138 N 184.763 -0.387143 -1.52771 0
M  V30 2139 C 185.711 0.463953 -2.27926 0
M  V30 2140 C 186.705 1.06493 -1.31741 0
M  V30 2141 O 187.911 1.00565 -1.49287 0
M  V30 2142 H 184.286 0.16837 -0.732909 0
M  V30 2143 H 186.257 -0.19141 -2.97785 0
M  V30 2144 C 185.006 1.5803 -3.09713 0
M  V30 2145 H 184.329 1.12718 -3.83581 0
M  V30 2146 H 185.769 2.15008 -3.65442 0
M  V30 2147 C 184.228 2.53509 -2.2189 0
M  V30 2148 O 184.758 3.56863 -1.84422 0
M  V30 2149 N 182.964 2.23199 -1.86093 0
M  V30 2150 H 182.511 1.39185 -2.16761 0
M  V30 2151 H 182.469 2.87333 -1.27621 0
M  V30 2152 N 186.241 1.57166 -0.116904 0
M  V30 2153 C 187.518 1.86645 0.585049 0
M  V30 2154 C 187.898 1.0177 1.84949 0
M  V30 2155 O 187.246 0.0960379 2.28298 0
M  V30 2156 C 187.456 3.37736 0.879507 0
M  V30 2157 C 188.804 4.06289 1.23348 0
M  V30 2158 O 189.828 3.42743 0.969836 0
M  V30 2159 O 188.687 5.18455 1.7282 0
M  V30 2160 H 185.781 0.772593 0.295007 0
M  V30 2161 H 188.327 1.69025 -0.151249 0
M  V30 2162 H 187.099 3.91296 -0.0166136 0
M  V30 2163 H 186.722 3.6078 1.67103 0
M  V30 2164 N 187.719 -0.156864 1.56817 0
M  V30 2165 C 188.949 -0.885031 1.86684 0
M  V30 2166 C 189.357 -1.75696 0.701954 0
M  V30 2167 O 188.7 -1.80569 -0.337732 0
M  V30 2168 C 188.762 -1.80092 3.11138 0
M  V30 2169 C 188.426 -1.10714 4.43386 0
M  V30 2170 C 189.423 -0.465714 5.1781 0
M  V30 2171 C 187.108 -1.09959 4.90117 0
M  V30 2172 C 189.102 0.174002 6.37162 0
M  V30 2173 C 186.789 -0.456055 6.09396 0
M  V30 2174 C 187.787 0.179622 6.82764 0
M  V30 2175 O 187.475 0.812975 7.99779 0
M  V30 2176 H 187.207 -0.261813 0.623242 0
M  V30 2177 H 189.761 -0.157383 2.04796 0
M  V30 2178 H 187.991 -2.56926 2.89009 0
M  V30 2179 H 189.68 -2.40018 3.27332 0
M  V30 2180 H 190.446 -0.463427 4.82781 0
M  V30 2181 H 186.325 -1.58378 4.3294 0
M  V30 2182 H 189.869 0.670765 6.94368 0
M  V30 2183 H 185.766 -0.455975 6.43888 0
M  V30 2184 H 186.534 0.71366 8.15383 0
M  V30 2185 N 189.197 -1.51736 -0.425897 0
M  V30 2186 C 190.446 -1.64201 -1.17136 0
M  V30 2187 C 190.759 -0.369705 -1.92074 0
M  V30 2188 O 191.965 -0.373898 -2.68913 0
M  V30 2189 C 190.421 -2.90035 -2.13091 0
M  V30 2190 C 190.029 -4.24312 -1.43747 0
M  V30 2191 C 191.773 -3.1186 -2.87999 0
M  V30 2192 C 189.68 -5.41285 -2.38253 0
M  V30 2193 H 188.61 -0.611624 -0.440944 0
M  V30 2194 H 191.261 -1.78212 -0.437328 0
M  V30 2195 H 189.643 -2.69684 -2.89977 0
M  V30 2196 H 190.817 -4.55086 -0.723408 0
M  V30 2197 H 189.132 -4.08456 -0.809465 0
M  V30 2198 H 191.729 -3.96427 -3.58817 0
M  V30 2199 H 192.072 -2.25403 -3.49999 0
M  V30 2200 H 192.605 -3.32605 -2.18217 0
M  V30 2201 H 189.344 -6.30037 -1.80925 0
M  V30 2202 H 188.864 -5.14872 -3.0768 0
M  V30 2203 H 190.543 -5.73694 -2.99139 0
M  V30 2204 N 190.675 0.682077 -1.42076 0
M  V30 2205 C 191.905 1.46844 -1.45329 0
M  V30 2206 C 192.313 1.89102 -0.0609328 0
M  V30 2207 O 191.656 1.58238 0.933082 0
M  V30 2208 C 191.718 2.75375 -2.31104 0
M  V30 2209 C 191.382 2.55238 -3.79081 0
M  V30 2210 C 192.379 2.20309 -4.70914 0
M  V30 2211 C 190.064 2.70459 -4.2327 0
M  V30 2212 C 192.058 2.00859 -6.04925 0
M  V30 2213 C 189.745 2.50624 -5.57343 0
M  V30 2214 C 190.743 2.15876 -6.47986 0
M  V30 2215 O 190.431 1.96227 -7.79583 0
M  V30 2216 H 190.163 0.4586 -0.496651 0
M  V30 2217 H 192.717 0.846131 -1.87162 0
M  V30 2218 H 190.947 3.40061 -1.84107 0
M  V30 2219 H 192.636 3.37231 -2.25898 0
M  V30 2220 H 193.402 2.08153 -4.38061 0
M  V30 2221 H 189.281 2.96485 -3.53012 0
M  V30 2222 H 192.825 1.7366 -6.75639 0
M  V30 2223 H 188.722 2.62375 -5.89771 0
M  V30 2224 H 189.49 2.10883 -7.90867 0
M  V30 2225 N 192.153 1.28127 0.917671 0
M  V30 2226 C 193.063 1.13556 2.05286 0
M  V30 2227 C 194.079 0.0630914 1.73886 0
M  V30 2228 O 195.255 0.271598 1.9956 0
M  V30 2229 C 192.32 0.794676 3.3747 0
M  V30 2230 C 191.381 1.94909 3.82504 0
M  V30 2231 C 190.614 1.62437 5.0838 0
M  V30 2232 O 190.837 0.536905 5.67867 0
M  V30 2233 O 189.771 2.46677 5.4903 0
M  V30 2234 H 193.597 2.08844 2.20495 0
M  V30 2235 H 191.182 1.07409 1.03845 0
M  V30 2236 H 193.064 0.618344 4.16839 0
M  V30 2237 H 191.739 -0.128581 3.23445 0
M  V30 2238 H 190.646 2.18055 3.03978 0
M  V30 2239 H 191.979 2.85291 4.01086 0
M  V30 2240 N 193.631 -1.12557 1.10312 0
M  V30 2241 C 194.579 -2.20325 0.745629 0
M  V30 2242 C 195.573 -1.67429 -0.25763 0
M  V30 2243 O 196.779 -1.79612 -0.118132 0
M  V30 2244 H 193.154 -0.718118 0.223182 0
M  V30 2245 H 195.125 -2.47733 1.66346 0
M  V30 2246 C 193.874 -3.47168 0.192262 0
M  V30 2247 H 193.197 -3.88215 0.955475 0
M  V30 2248 H 194.637 -4.23995 -0.0198274 0
M  V30 2249 C 193.096 -3.19298 -1.07472 0
M  V30 2250 O 193.626 -3.3891 -2.15645 0
M  V30 2251 N 191.832 -2.73113 -0.992847 0
M  V30 2252 H 191.379 -2.57354 -0.112474 0
M  V30 2253 H 191.337 -2.54842 -1.84127 0
M  V30 2254 N 195.109 -0.891671 -1.2995 0
M  V30 2255 C 196.358 -0.509521 -1.95158 0
M  V30 2256 C 196.671 0.947388 -1.71125 0
M  V30 2257 O 197.877 1.43669 -2.30372 0
M  V30 2258 C 196.333 -0.860315 -3.49466 0
M  V30 2259 C 195.941 -2.33545 -3.8231 0
M  V30 2260 C 197.685 -0.547687 -4.20952 0
M  V30 2261 C 195.592 -2.62752 -5.29826 0
M  V30 2262 H 194.522 -0.18682 -0.730489 0
M  V30 2263 H 197.173 -1.08756 -1.47798 0
M  V30 2264 H 195.555 -0.211285 -3.95436 0
M  V30 2265 H 196.729 -3.02936 -3.47227 0
M  V30 2266 H 195.044 -2.61629 -3.23944 0
M  V30 2267 H 197.641 -0.742854 -5.29515 0
M  V30 2268 H 197.984 0.51332 -4.13123 0
M  V30 2269 H 198.517 -1.1542 -3.80688 0
M  V30 2270 H 195.256 -3.6762 -5.42712 0
M  V30 2271 H 194.776 -1.97977 -5.66185 0
M  V30 2272 H 196.455 -2.48601 -5.97333 0
M  V30 2273 N 196.587 1.43421 -0.653314 0
M  V30 2274 C 197.534 2.30768 0.0382271 0
M  V30 2275 C 198.504 1.44755 0.814576 0
M  V30 2276 O 199.689 1.73624 0.791162 0
M  V30 2277 C 196.829 3.30336 0.998599 0
M  V30 2278 C 195.942 4.31448 0.218342 0
M  V30 2279 C 195.077 5.18098 1.17252 0
M  V30 2280 C 194.116 6.10902 0.382702 0
M  V30 2281 N 193.253 6.90176 1.28848 0
M  V30 2282 H 198.093 2.89357 -0.712511 0
M  V30 2283 H 195.63 1.42548 -0.363128 0
M  V30 2284 H 197.588 3.86572 1.56901 0
M  V30 2285 H 196.218 2.73397 1.71621 0
M  V30 2286 H 195.27 3.77506 -0.46836 0
M  V30 2287 H 196.582 4.97227 -0.395812 0
M  V30 2288 H 195.736 5.7896 1.81356 0
M  V30 2289 H 194.475 4.52444 1.82058 0
M  V30 2290 H 193.48 5.49128 -0.27169 0
M  V30 2291 H 194.705 6.78598 -0.260957 0
M  V30 2292 H 192.651 6.27171 1.92334 0
M  V30 2293 H 192.568 7.52478 0.728887 0
M  V30 2294 H 193.836 7.55543 1.91766 0
M  V30 2295 N 198.065 0.39524 1.52563 0
M  V30 2296 C 199.012 -0.437036 2.26624 0
M  V30 2297 C 199.982 -1.05281 1.28472 0
M  V30 2298 O 201.167 -1.07971 1.57311 0
M  V30 2299 C 198.307 -1.55524 3.08069 0
M  V30 2300 C 197.42 -0.961745 4.21158 0
M  V30 2301 C 196.555 -2.05149 4.89987 0
M  V30 2302 C 195.594 -1.4342 5.95061 0
M  V30 2303 N 194.731 -2.46351 6.57462 0
M  V30 2304 H 199.571 0.200976 2.97322 0
M  V30 2305 H 197.108 0.110944 1.46681 0
M  V30 2306 H 199.066 -2.21437 3.53584 0
M  V30 2307 H 197.696 -2.16348 2.3957 0
M  V30 2308 H 196.748 -0.192048 3.79915 0
M  V30 2309 H 198.06 -0.470701 4.96574 0
M  V30 2310 H 197.214 -2.78819 5.38837 0
M  V30 2311 H 195.953 -2.57615 4.14109 0
M  V30 2312 H 194.958 -0.682774 5.45544 0
M  V30 2313 H 196.183 -0.917416 6.72875 0
M  V30 2314 H 194.129 -2.97975 5.8442 0
M  V30 2315 H 194.046 -2.02019 7.28508 0
M  V30 2316 H 195.314 -3.19633 7.10954 0
M  V30 2317 N 199.544 -1.57102 0.125237 0
M  V30 2318 C 200.454 -2.19191 -0.8362 0
M  V30 2319 C 201.47 -1.16985 -1.28805 0
M  V30 2320 O 202.646 -1.49479 -1.34974 0
M  V30 2321 C 199.711 -2.78407 -2.06617 0
M  V30 2322 C 198.772 -3.9567 -1.66565 0
M  V30 2323 C 198.005 -4.52052 -2.83698 0
M  V30 2324 O 198.228 -4.07326 -3.99302 0
M  V30 2325 O 197.162 -5.42645 -2.60423 0
M  V30 2326 H 200.988 -3.01816 -0.337776 0
M  V30 2327 H 198.573 -1.4906 -0.100695 0
M  V30 2328 H 200.455 -3.16129 -2.7864 0
M  V30 2329 H 199.13 -1.9881 -2.55453 0
M  V30 2330 H 198.037 -3.62705 -0.916296 0
M  V30 2331 H 199.37 -4.76722 -1.22464 0
M  V30 2332 N 201.022 0.148545 -1.56898 0
M  V30 2333 C 201.969 1.18345 -1.98149 0
M  V30 2334 C 202.939 1.42772 -0.848848 0
M  V30 2335 O 204.124 1.55132 -1.11079 0
M  V30 2336 C 201.264 2.51231 -2.36594 0
M  V30 2337 C 200.377 2.33991 -3.63142 0
M  V30 2338 C 199.512 3.59902 -3.90697 0
M  V30 2339 C 198.551 3.37692 -5.1052 0
M  V30 2340 N 197.688 4.5573 -5.34092 0
M  V30 2341 H 202.528 0.82467 -2.86362 0
M  V30 2342 H 200.065 0.395756 -1.41676 0
M  V30 2343 H 202.023 3.28713 -2.56912 0
M  V30 2344 H 200.653 2.85059 -1.51463 0
M  V30 2345 H 199.705 1.47572 -3.50609 0
M  V30 2346 H 201.017 2.13539 -4.5078 0
M  V30 2347 H 200.171 4.45813 -4.11505 0
M  V30 2348 H 198.91 3.83357 -3.01477 0
M  V30 2349 H 197.915 2.5017 -4.89587 0
M  V30 2350 H 199.14 3.15637 -6.0129 0
M  V30 2351 H 197.086 4.79361 -4.47827 0
M  V30 2352 H 197.003 4.38274 -6.15996 0
M  V30 2353 H 198.271 5.42858 -5.59397 0
M  V30 2354 N 202.5 1.5196 0.417844 0
M  V30 2355 C 203.725 1.69717 1.1921 0
M  V30 2356 C 204.15 0.402148 1.83751 0
M  V30 2357 O 203.508 -0.639593 1.69643 0
M  V30 2358 C 203.556 2.82794 2.2374 0
M  V30 2359 O 202.66 2.47756 3.29683 0
M  V30 2360 H 202.001 0.565263 0.348387 0
M  V30 2361 H 204.531 1.98621 0.490985 0
M  V30 2362 H 204.541 3.07452 2.68212 0
M  V30 2363 H 203.216 3.76756 1.76146 0
M  V30 2364 H 201.793 2.33739 2.90552 0
M  V30 2365 N 203.978 -0.674533 1.42435 0
M  V30 2366 C 204.925 -1.78807 1.45934 0
M  V30 2367 C 205.895 -1.63157 0.311271 0
M  V30 2368 O 207.08 -1.83707 0.515383 0
M  V30 2369 C 204.22 -3.16839 1.36773 0
M  V30 2370 C 203.333 -3.43774 2.61617 0
M  V30 2371 C 202.468 -4.71536 2.44597 0
M  V30 2372 C 201.507 -4.91505 3.64814 0
M  V30 2373 N 200.644 -6.10508 3.46734 0
M  V30 2374 H 205.484 -1.75151 2.41093 0
M  V30 2375 H 203.021 -0.85504 1.19697 0
M  V30 2376 H 204.979 -3.96606 1.29459 0
M  V30 2377 H 203.609 -3.19619 0.452089 0
M  V30 2378 H 202.661 -2.58259 2.79297 0
M  V30 2379 H 203.973 -3.54423 3.50978 0
M  V30 2380 H 203.127 -5.59393 2.3487 0
M  V30 2381 H 201.866 -4.6317 1.52726 0
M  V30 2382 H 200.871 -4.0209 3.74972 0
M  V30 2383 H 202.096 -5.01716 4.57665 0
M  V30 2384 H 200.042 -6.03315 2.5758 0
M  V30 2385 H 199.959 -6.2202 4.29682 0
M  V30 2386 H 201.227 -7.01044 3.40819 0
M  V30 2387 N 205.456 -1.28612 -0.910864 0
M  V30 2388 C 206.406 -1.09423 -2.00026 0
M  V30 2389 C 207.39 -0.0170079 -1.60891 0
M  V30 2390 O 208.582 -0.237472 -1.754 0
M  V30 2391 C 205.711 -0.76114 -3.34756 0
M  V30 2392 C 204.797 -1.87735 -3.80285 0
M  V30 2393 N 205.188 -3.11938 -3.98156 0
M  V30 2394 C 203.486 -1.76786 -4.09467 0
M  V30 2395 C 204.187 -3.84687 -4.36338 0
M  V30 2396 N 203.163 -3.12555 -4.44759 0
M  V30 2397 H 206.965 -2.03658 -2.11898 0
M  V30 2398 H 204.479 -1.19573 -1.09891 0
M  V30 2399 H 206.476 -0.604743 -4.12491 0
M  V30 2400 H 205.136 0.173403 -3.24237 0
M  V30 2401 H 206.147 -3.47516 -3.83996 0
M  V30 2402 H 202.824 -0.905284 -4.07567 0
M  V30 2403 H 204.214 -4.91518 -4.58104 0
M  V30 2404 N 206.934 1.1197 -1.10907 0
M  V30 2405 C 207.881 2.17846 -0.762345 0
M  V30 2406 C 208.851 1.63995 0.263599 0
M  V30 2407 O 210.036 1.90273 0.141773 0
M  V30 2408 C 207.176 3.44487 -0.205651 0
M  V30 2409 C 206.289 4.12369 -1.28748 0
M  V30 2410 C 205.424 5.26674 -0.691919 0
M  V30 2411 C 204.463 5.86431 -1.75399 0
M  V30 2412 N 203.6 6.92142 -1.17833 0
M  V30 2413 H 208.44 2.46851 -1.6694 0
M  V30 2414 H 205.977 1.21188 -0.833776 0
M  V30 2415 H 207.935 4.16981 0.135037 0
M  V30 2416 H 206.565 3.15884 0.664613 0
M  V30 2417 H 205.617 3.38003 -1.74522 0
M  V30 2418 H 206.929 4.52844 -2.09125 0
M  V30 2419 H 206.083 6.05953 -0.300963 0
M  V30 2420 H 204.822 4.8749 0.143232 0
M  V30 2421 H 203.827 5.05835 -2.15432 0
M  V30 2422 H 205.052 6.27685 -2.59208 0
M  V30 2423 H 202.998 6.54985 -0.364725 0
M  V30 2424 H 202.915 7.31242 -1.91887 0
M  V30 2425 H 204.183 7.75237 -0.81408 0
M  V30 2426 N 208.412 0.89855 1.29475 0
M  V30 2427 C 209.359 0.373819 2.27753 0
M  V30 2428 C 210.329 -0.543444 1.56958 0
M  V30 2429 O 211.514 -0.468934 1.84948 0
M  V30 2430 C 208.654 -0.393648 3.42848 0
M  V30 2431 C 207.767 0.554379 4.28428 0
M  V30 2432 C 206.902 -0.230026 5.30702 0
M  V30 2433 C 205.941 0.712599 6.07938 0
M  V30 2434 N 205.078 -0.0373283 7.0209 0
M  V30 2435 H 209.918 1.21699 2.72017 0
M  V30 2436 H 207.455 0.611456 1.33789 0
M  V30 2437 H 209.413 -0.85466 4.08352 0
M  V30 2438 H 208.043 -1.20128 2.99615 0
M  V30 2439 H 207.095 1.13391 3.63107 0
M  V30 2440 H 208.407 1.27597 4.82204 0
M  V30 2441 H 207.561 -0.752288 6.02018 0
M  V30 2442 H 206.3 -0.984758 4.77654 0
M  V30 2443 H 205.305 1.24637 5.35486 0
M  V30 2444 H 206.53 1.46664 6.63074 0
M  V30 2445 H 204.476 -0.774348 6.51414 0
M  V30 2446 H 204.393 0.624374 7.53417 0
M  V30 2447 H 205.661 -0.539891 7.77628 0
M  V30 2448 N 209.89 -1.43072 0.660911 0
M  V30 2449 C 211.139 -2.00942 0.174735 0
M  V30 2450 C 211.452 -1.52797 -1.22117 0
M  V30 2451 O 212.658 -2.02991 -1.80297 0
M  V30 2452 C 211.114 -3.58948 0.261559 0
M  V30 2453 C 210.722 -4.16085 1.66064 0
M  V30 2454 C 212.466 -4.24173 -0.166617 0
M  V30 2455 C 210.373 -5.6641 1.70098 0
M  V30 2456 H 209.303 -0.751483 0.0615631 0
M  V30 2457 H 211.954 -1.63955 0.824069 0
M  V30 2458 H 210.336 -3.93372 -0.455421 0
M  V30 2459 H 211.51 -3.93147 2.40359 0
M  V30 2460 H 209.825 -3.6326 2.03546 0
M  V30 2461 H 212.422 -5.34471 -0.156433 0
M  V30 2462 H 212.765 -3.98647 -1.19943 0
M  V30 2463 H 213.298 -3.94659 0.498875 0
M  V30 2464 H 210.037 -5.96715 2.71315 0
M  V30 2465 H 209.557 -5.91382 1.00139 0
M  V30 2466 H 211.236 -6.30585 1.44816 0
M  V30 2467 N 211.368 -0.403325 -1.52352 0
M  V30 2468 C 212.617 0.175668 -2.00934 0
M  V30 2469 C 212.93 1.46718 -1.29356 0
M  V30 2470 O 214.136 2.12708 -1.68724 0
M  V30 2471 C 212.592 0.363612 -3.58058 0
M  V30 2472 C 212.2 -0.915472 -4.38547 0
M  V30 2473 C 213.944 0.89821 -4.14888 0
M  V30 2474 C 211.851 -0.695035 -5.87302 0
M  V30 2475 H 210.781 0.0694234 -0.750797 0
M  V30 2476 H 213.432 -0.527879 -1.75743 0
M  V30 2477 H 211.814 1.12935 -3.79555 0
M  V30 2478 H 212.988 -1.68691 -4.28812 0
M  V30 2479 H 211.303 -1.37606 -3.93006 0
M  V30 2480 H 213.9 1.07907 -5.23699 0
M  V30 2481 H 214.243 1.87126 -3.71873 0
M  V30 2482 H 214.776 0.191681 -3.97338 0
M  V30 2483 H 211.515 -1.63948 -6.34666 0
M  V30 2484 H 211.035 0.0372116 -5.99788 0
M  V30 2485 H 212.714 -0.33497 -6.46132 0
M  V30 2486 N 212.846 1.57033 -0.133567 0
M  V30 2487 C 214.093 1.95686 0.520877 0
M  V30 2488 C 214.421 1.0177 1.6575 0
M  V30 2489 O 213.676 0.0443195 1.9565 0
M  V30 2490 C 213.975 3.40674 1.08057 0
M  V30 2491 C 213.641 4.50855 0.0637899 0
M  V30 2492 C 212.303 4.80716 -0.215757 0
M  V30 2493 C 214.655 5.17398 -0.62835 0
M  V30 2494 C 211.983 5.74433 -1.19348 0
M  V30 2495 C 214.335 6.12167 -1.5948 0
M  V30 2496 C 212.999 6.40414 -1.88218 0
M  V30 2497 H 212.269 0.716067 0.190602 0
M  V30 2498 H 214.916 1.9026 -0.217556 0
M  V30 2499 H 213.221 3.42865 1.89606 0
M  V30 2500 H 214.918 3.67902 1.59529 0
M  V30 2501 H 211.508 4.27605 0.291855 0
M  V30 2502 H 215.692 4.94472 -0.425562 0
M  V30 2503 H 210.948 5.94616 -1.42272 0
M  V30 2504 H 215.122 6.6281 -2.13671 0
M  V30 2505 H 212.749 7.12838 -2.64133 0
M  V30 2506 N 214.325 -0.140222 1.56975 0
M  V30 2507 C 215.255 -1.17456 2.01808 0
M  V30 2508 C 216.236 -1.44415 0.898794 0
M  V30 2509 O 217.421 -1.5522 1.16707 0
M  V30 2510 C 214.551 -2.50607 2.40444 0
M  V30 2511 C 213.505 -2.38155 3.55621 0
M  V30 2512 C 212.831 -3.76078 3.80091 0
M  V30 2513 C 214.131 -1.85991 4.88062 0
M  V30 2514 H 215.825 -0.801743 2.88466 0
M  V30 2515 H 213.371 -0.38422 1.38779 0
M  V30 2516 H 215.324 -3.23197 2.7041 0
M  V30 2517 H 214.048 -2.89737 1.50732 0
M  V30 2518 H 212.707 -1.68016 3.25832 0
M  V30 2519 H 212.355 -4.12656 2.87618 0
M  V30 2520 H 212.055 -3.68606 4.57606 0
M  V30 2521 H 213.579 -4.50206 4.12488 0
M  V30 2522 H 214.993 -2.4838 5.16701 0
M  V30 2523 H 213.39 -1.89393 5.6943 0
M  V30 2524 H 214.46 -0.816023 4.77984 0
M  V30 2525 N 215.803 -1.52179 -0.40978 0
M  V30 2526 C 216.733 -1.78435 -1.5061 0
M  V30 2527 C 217.714 -0.635295 -1.57791 0
M  V30 2528 O 218.899 -0.880823 -1.73076 0
M  V30 2529 C 216.029 -1.93444 -2.88439 0
M  V30 2530 C 214.983 -3.09038 -2.96108 0
M  V30 2531 C 214.309 -3.09268 -4.36185 0
M  V30 2532 C 215.609 -4.48508 -2.67652 0
M  V30 2533 H 217.303 -2.70237 -1.28889 0
M  V30 2534 H 214.849 -1.30036 -0.618605 0
M  V30 2535 H 216.802 -2.10394 -3.65119 0
M  V30 2536 H 215.526 -0.983129 -3.11452 0
M  V30 2537 H 214.185 -2.91837 -2.21872 0
M  V30 2538 H 213.833 -2.11861 -4.56206 0
M  V30 2539 H 213.533 -3.86907 -4.42241 0
M  V30 2540 H 215.057 -3.28348 -5.14801 0
M  V30 2541 H 216.471 -4.65918 -3.34056 0
M  V30 2542 H 214.868 -5.28059 -2.85085 0
M  V30 2543 H 215.938 -4.56649 -1.63095 0
M  V30 2544 N 217.281 0.66697 -1.42791 0
M  V30 2545 C 218.528 1.42699 -1.43678 0
M  V30 2546 C 218.856 1.94419 -0.0560425 0
M  V30 2547 O 218.111 1.7182 0.936831 0
M  V30 2548 C 218.41 2.6349 -2.4147 0
M  V30 2549 C 218.076 2.30267 -3.8767 0
M  V30 2550 C 216.738 2.20918 -4.27491 0
M  V30 2551 C 219.09 2.03435 -4.79858 0
M  V30 2552 C 216.418 1.82873 -5.57471 0
M  V30 2553 C 218.77 1.66892 -6.10188 0
M  V30 2554 C 217.434 1.56058 -6.49001 0
M  V30 2555 H 216.704 0.522171 -0.525755 0
M  V30 2556 H 219.351 0.759785 -1.75783 0
M  V30 2557 H 217.656 3.35279 -2.0272 0
M  V30 2558 H 219.353 3.21684 -2.39417 0
M  V30 2559 H 215.943 2.38449 -3.56146 0
M  V30 2560 H 220.127 2.09586 -4.49875 0
M  V30 2561 H 215.383 1.7306 -5.86396 0
M  V30 2562 H 219.557 1.45157 -6.81104 0
M  V30 2563 H 217.184 1.26348 -7.49627 0
M  V30 2564 N 218.759 1.29093 0.90403 0
M  V30 2565 C 220.005 1.16986 1.65656 0
M  V30 2566 C 220.338 -0.278925 1.92186 0
M  V30 2567 O 219.613 -1.2019 1.5292 0
M  V30 2568 C 219.896 1.97908 3.0084 0
M  V30 2569 C 219.749 3.50903 2.81403 0
M  V30 2570 C 221.068 1.80208 4.01513 0
M  V30 2571 H 218.187 0.426346 0.601164 0
M  V30 2572 H 220.829 1.58518 1.04747 0
M  V30 2573 H 218.979 1.62616 3.52829 0
M  V30 2574 H 220.651 3.96153 2.36348 0
M  V30 2575 H 218.894 3.76045 2.1627 0
M  V30 2576 H 219.565 4.02791 3.77443 0
M  V30 2577 H 222.041 2.11025 3.58619 0
M  V30 2578 H 220.917 2.39184 4.94047 0
M  V30 2579 H 221.178 0.756119 4.35586 0
M  V30 2580 N 220.237 -1.11381 1.11499 0
M  V30 2581 C 221.462 -1.87475 0.887019 0
M  V30 2582 C 221.887 -1.79639 -0.557796 0
M  V30 2583 O 221.245 -1.15924 -1.39396 0
M  V30 2584 C 221.293 -3.34213 1.35403 0
M  V30 2585 O 220.397 -4.0903 0.526146 0
M  V30 2586 H 219.738 -0.582099 0.319463 0
M  V30 2587 H 222.268 -1.40785 1.48461 0
M  V30 2588 H 222.278 -3.8506 1.34881 0
M  V30 2589 H 220.953 -3.39232 2.40612 0
M  V30 2590 H 219.53 -3.68082 0.597522 0
M  V30 2591 N 221.715 -0.905404 -1.28997 0
M  V30 2592 C 222.645 -0.404212 -2.29975 0
M  V30 2593 C 223.626 0.523784 -1.61835 0
M  V30 2594 O 224.811 0.433298 -1.89304 0
M  V30 2595 C 221.941 0.364042 -3.45387 0
M  V30 2596 C 220.895 -0.474048 -4.25367 0
M  V30 2597 C 220.221 0.422045 -5.33032 0
M  V30 2598 C 221.521 -1.72696 -4.92923 0
M  V30 2599 H 223.215 -1.24807 -2.72146 0
M  V30 2600 H 220.761 -0.601585 -1.30832 0
M  V30 2601 H 222.714 0.725447 -4.15109 0
M  V30 2602 H 221.438 1.24174 -3.02074 0
M  V30 2603 H 220.097 -0.81786 -3.57361 0
M  V30 2604 H 219.745 1.29804 -4.85963 0
M  V30 2605 H 219.445 -0.135057 -5.87445 0
M  V30 2606 H 220.969 0.779517 -6.05604 0
M  V30 2607 H 222.383 -1.43495 -5.55051 0
M  V30 2608 H 220.78 -2.22582 -5.57295 0
M  V30 2609 H 221.85 -2.45964 -4.17887 0
M  V30 2610 N 223.193 1.4272 -0.668489 0
M  V30 2611 C 224.44 2.01624 -0.18814 0
M  V30 2612 C 224.768 1.5282 1.20317 0
M  V30 2613 O 224.023 0.718323 1.8204 0
M  V30 2614 C 224.322 3.57021 -0.164499 0
M  V30 2615 C 223.988 4.25232 -1.49962 0
M  V30 2616 C 222.65 4.4358 -1.8652 0
M  V30 2617 C 225.002 4.63727 -2.37921 0
M  V30 2618 C 222.33 4.97694 -3.10674 0
M  V30 2619 C 224.682 5.19218 -3.6138 0
M  V30 2620 C 223.346 5.3578 -3.98115 0
M  V30 2621 H 222.616 0.737795 -0.0688454 0
M  V30 2622 H 225.263 1.70991 -0.862225 0
M  V30 2623 H 223.568 3.87285 0.593079 0
M  V30 2624 H 225.265 4.00372 0.224271 0
M  V30 2625 H 221.855 4.11306 -1.20522 0
M  V30 2626 H 226.039 4.4923 -2.10964 0
M  V30 2627 H 221.295 5.08702 -3.39164 0
M  V30 2628 H 225.469 5.4799 -4.29743 0
M  V30 2629 H 223.096 5.77475 -4.94395 0
M  V30 2630 N 224.671 0.411399 1.52136 0
M  V30 2631 C 225.919 -0.163322 2.01439 0
M  V30 2632 C 226.24 -1.45453 1.29879 0
M  V30 2633 O 225.51 -1.91225 0.4254 0
M  V30 2634 H 224.09 -0.0633447 0.744309 0
M  V30 2635 H 226.752 0.548161 1.87033 0
M  V30 2636 H 225.848 -0.357817 3.10042 0
M  V30 2637 N 226.149 -1.5696 0.141893 0
M  V30 2638 C 227.079 -2.19516 -0.795936 0
M  V30 2639 C 228.06 -1.14187 -1.26077 0
M  V30 2640 O 229.245 -1.42511 -1.31925 0
M  V30 2641 C 226.375 -2.81272 -2.03723 0
M  V30 2642 C 225.329 -3.92384 -1.70936 0
M  V30 2643 C 224.655 -4.41052 -3.02287 0
M  V30 2644 C 225.955 -5.13403 -0.959954 0
M  V30 2645 H 227.649 -2.98138 -0.274596 0
M  V30 2646 H 225.195 -1.43406 -0.130636 0
M  V30 2647 H 227.148 -3.237 -2.69808 0
M  V30 2648 H 225.872 -1.99973 -2.58221 0
M  V30 2649 H 224.531 -3.50566 -1.07232 0
M  V30 2650 H 224.179 -3.56582 -3.54765 0
M  V30 2651 H 223.879 -5.15993 -2.81114 0
M  V30 2652 H 225.403 -4.86146 -3.69451 0
M  V30 2653 H 226.817 -5.52706 -1.52279 0
M  V30 2654 H 225.214 -5.94073 -0.848357 0
M  V30 2655 H 226.284 -4.84875 0.0492434 0
M  V30 2656 N 227.627 0.131896 -1.57047 0
M  V30 2657 C 228.857 0.855219 -1.88068 0
M  V30 2658 C 229.265 1.74557 -0.729817 0
M  V30 2659 O 228.608 1.81083 0.308962 0
M  V30 2660 C 228.67 1.75119 -3.13964 0
M  V30 2661 C 228.334 1.03646 -4.45091 0
M  V30 2662 C 229.331 0.383276 -5.18485 0
M  V30 2663 C 227.016 1.02148 -4.91804 0
M  V30 2664 C 229.01 -0.275347 -6.36805 0
M  V30 2665 C 226.697 0.359047 -6.10044 0
M  V30 2666 C 227.695 -0.288222 -6.82392 0
M  V30 2667 O 227.383 -0.94011 -7.98384 0
M  V30 2668 H 227.115 0.251864 -0.627328 0
M  V30 2669 H 229.669 0.124782 -2.05021 0
M  V30 2670 H 227.899 2.52295 -2.9306 0
M  V30 2671 H 229.588 2.3478 -3.31109 0
M  V30 2672 H 230.354 0.386562 -4.83457 0
M  V30 2673 H 226.233 1.5147 -4.35405 0
M  V30 2674 H 229.777 -0.781148 -6.93213 0
M  V30 2675 H 225.674 0.35348 -6.44531 0
M  V30 2676 H 226.442 -0.84329 -8.14144 0
M  V30 2677 N 229.106 1.52395 0.401703 0
M  V30 2678 C 230.354 1.66488 1.14569 0
M  V30 2679 C 230.675 0.400897 1.90835 0
M  V30 2680 O 229.945 -0.584415 1.8698 0
M  V30 2681 H 228.525 0.613672 0.425929 0
M  V30 2682 H 231.187 1.89464 0.457093 0
M  V30 2683 H 230.283 2.50942 1.85566 0
M  V30 2684 N 230.584 -0.659388 1.43143 0
M  V30 2685 C 231.831 -1.41935 1.44433 0
M  V30 2686 C 232.159 -1.94387 0.0663522 0
M  V30 2687 O 231.414 -1.72314 -0.927706 0
M  V30 2688 C 231.713 -2.62206 2.42864 0
M  V30 2689 C 231.379 -2.28208 3.88886 0
M  V30 2690 C 230.041 -2.18647 4.28657 0
M  V30 2691 C 232.393 -2.00887 4.8093 0
M  V30 2692 C 229.721 -1.79914 5.58433 0
M  V30 2693 C 232.073 -1.63653 6.11065 0
M  V30 2694 C 230.737 -1.52614 6.49819 0
M  V30 2695 H 230.007 -0.519376 0.528517 0
M  V30 2696 H 232.654 -0.750453 1.76183 0
M  V30 2697 H 230.959 -3.34199 2.04495 0
M  V30 2698 H 232.656 -3.2041 2.41119 0
M  V30 2699 H 229.246 -2.36557 3.57406 0
M  V30 2700 H 233.43 -2.07198 4.5098 0
M  V30 2701 H 228.686 -1.69948 5.87305 0
M  V30 2702 H 232.86 -1.41543 6.81864 0
M  V30 2703 H 230.487 -1.22371 7.50286 0
M  V30 2704 N 232.062 -1.29571 -0.897171 0
M  V30 2705 C 233.309 -1.17689 -1.6479 0
M  V30 2706 C 233.637 0.27107 -1.92602 0
M  V30 2707 O 232.892 1.21193 -1.53658 0
M  V30 2708 C 233.191 -1.9382 -3.00281 0
M  V30 2709 C 232.857 -3.43522 -2.92068 0
M  V30 2710 C 231.519 -3.84348 -2.89535 0
M  V30 2711 C 233.871 -4.38906 -2.81089 0
M  V30 2712 C 231.199 -5.18869 -2.73846 0
M  V30 2713 C 233.551 -5.73521 -2.66939 0
M  V30 2714 C 232.215 -6.13601 -2.62774 0
M  V30 2715 H 231.485 -0.430654 -0.603008 0
M  V30 2716 H 234.132 -1.60536 -1.04404 0
M  V30 2717 H 232.437 -1.4357 -3.64547 0
M  V30 2718 H 234.134 -1.82028 -3.57305 0
M  V30 2719 H 230.724 -3.11072 -2.94842 0
M  V30 2720 H 234.908 -4.08315 -2.82121 0
M  V30 2721 H 230.164 -5.4903 -2.69027 0
M  V30 2722 H 234.338 -6.47078 -2.57416 0
M  V30 2723 H 231.965 -7.17786 -2.50375 0
M  V30 2724 N 233.54 1.10788 -1.12088 0
M  V30 2725 C 234.45 2.20599 -0.798338 0
M  V30 2726 C 235.466 1.72712 0.21135 0
M  V30 2727 O 236.642 2.01348 0.0458477 0
M  V30 2728 C 233.707 3.45771 -0.253674 0
M  V30 2729 C 232.768 4.08411 -1.32283 0
M  V30 2730 C 232.001 5.27608 -0.80406 0
M  V30 2731 O 232.224 5.69241 0.363478 0
M  V30 2732 O 231.158 5.8101 -1.57198 0
M  V30 2733 H 234.984 2.50614 -1.7154 0
M  V30 2734 H 232.569 1.19454 -0.897275 0
M  V30 2735 H 234.451 4.21376 0.0453691 0
M  V30 2736 H 233.126 3.1739 0.636005 0
M  V30 2737 H 232.033 3.34507 -1.67499 0
M  V30 2738 H 233.366 4.40986 -2.18614 0
M  V30 2739 N 235.018 0.912232 1.28515 0
M  V30 2740 C 236.243 0.559774 1.99703 0
M  V30 2741 C 236.668 -0.851393 1.67729 0
M  V30 2742 O 236.026 -1.56875 0.908834 0
M  V30 2743 C 236.074 0.773874 3.52198 0
M  V30 2744 O 235.178 -0.167842 4.12058 0
M  V30 2745 H 234.519 0.21723 0.627461 0
M  V30 2746 H 237.049 1.22725 1.63706 0
M  V30 2747 H 237.059 0.683386 4.02236 0
M  V30 2748 H 235.734 1.80261 3.74805 0
M  V30 2749 H 234.311 -0.0287509 3.72889 0
M  V30 2750 N 236.496 -1.42363 0.676048 0
M  V30 2751 C 237.726 -2.05561 0.206967 0
M  V30 2752 C 238.134 -1.50887 -1.14148 0
M  V30 2753 O 237.477 -0.643933 -1.72044 0
M  V30 2754 C 237.539 -3.5944 0.0659508 0
M  V30 2755 C 237.203 -4.36812 1.34331 0
M  V30 2756 C 238.2 -4.67383 2.27704 0
M  V30 2757 C 235.885 -4.76429 1.59125 0
M  V30 2758 C 237.879 -5.36509 3.44147 0
M  V30 2759 C 235.566 -5.45294 2.75857 0
M  V30 2760 C 236.564 -5.75259 3.68193 0
M  V30 2761 O 236.252 -6.42712 4.82883 0
M  V30 2762 H 235.984 -0.668872 0.0979084 0
M  V30 2763 H 238.538 -1.83467 0.923531 0
M  V30 2764 H 236.768 -3.80197 -0.706204 0
M  V30 2765 H 238.457 -4.0427 -0.363418 0
M  V30 2766 H 239.223 -4.37275 2.09799 0
M  V30 2767 H 235.102 -4.52498 0.881258 0
M  V30 2768 H 238.646 -5.59814 4.16238 0
M  V30 2769 H 234.543 -5.7482 2.93688 0
M  V30 2770 H 235.311 -6.61204 4.82444 0
M  V30 2771 N 237.974 -0.419461 -1.51915 0
M  V30 2772 C 238.922 0.415502 -2.28859 0
M  V30 2773 C 239.916 1.03674 -1.3397 0
M  V30 2774 O 241.122 0.973757 -1.51387 0
M  V30 2775 H 237.497 0.152786 -0.736315 0
M  V30 2776 H 239.468 -0.254531 -2.97312 0
M  V30 2777 C 238.217 1.51425 -3.12995 0
M  V30 2778 H 237.54 1.04556 -3.85886 0
M  V30 2779 H 238.98 2.07208 -3.6992 0
M  V30 2780 C 237.439 2.48745 -2.27217 0
M  V30 2781 O 237.969 3.52871 -1.9195 0
M  V30 2782 N 236.175 2.19202 -1.90785 0
M  V30 2783 H 235.722 1.34556 -2.19664 0
M  V30 2784 H 235.68 2.84561 -1.33687 0
M  V30 2785 N 239.452 1.56882 -0.150215 0
M  V30 2786 C 240.863 1.82995 0.370076 0
M  V30 2787 C 241.214 1.06907 1.64515 0
M  V30 2788 O 240.339 0.315369 2.1409 0
M  V30 2789 C 240.934 3.31942 0.678208 0
M  V30 2790 C 239.493 3.58625 1.14301 0
M  V30 2791 C 238.64 2.76792 0.167778 0
M  V30 2792 H 241.591 1.54209 -0.374858 0
M  V30 2793 H 241.612 3.48272 1.53254 0
M  V30 2794 H 241.124 3.87294 -0.249991 0
M  V30 2795 H 239.225 3.08664 2.08704 0
M  V30 2796 H 239.338 4.67073 1.06676 0
M  V30 2797 H 237.702 2.45972 0.661037 0
M  V30 2798 H 238.485 3.34916 -0.754069 0
M  V30 2799 N 240.93 -0.123565 1.57115 0
M  V30 2800 C 241.84 -1.17074 2.033 0
M  V30 2801 C 242.856 -1.4561 0.952559 0
M  V30 2802 O 244.032 -1.56817 1.26374 0
M  V30 2803 C 241.097 -2.47857 2.42421 0
M  V30 2804 C 240.158 -2.26758 3.64526 0
M  V30 2805 C 239.391 -3.51305 4.01771 0
M  V30 2806 O 239.614 -4.5843 3.39409 0
M  V30 2807 O 238.548 -3.42578 4.94898 0
M  V30 2808 H 242.374 -0.808555 2.92739 0
M  V30 2809 H 239.959 -0.334027 1.45618 0
M  V30 2810 H 241.841 -3.2492 2.68338 0
M  V30 2811 H 240.516 -2.83558 1.5613 0
M  V30 2812 H 239.423 -1.47569 3.43765 0
M  V30 2813 H 240.756 -1.95963 4.51508 0
M  V30 2814 N 242.408 -1.52605 -0.393616 0
M  V30 2815 C 243.655 -1.67424 -1.1391 0
M  V30 2816 C 243.983 -0.411859 -1.90089 0
M  V30 2817 O 243.238 0.605626 -1.86093 0
M  V30 2818 C 243.537 -2.85721 -2.14705 0
M  V30 2819 C 243.203 -4.23342 -1.55218 0
M  V30 2820 C 241.865 -4.60771 -1.3872 0
M  V30 2821 C 244.217 -5.09041 -1.11924 0
M  V30 2822 C 241.545 -5.81563 -0.774689 0
M  V30 2823 C 243.897 -6.30452 -0.520853 0
M  V30 2824 C 242.561 -6.66617 -0.343134 0
M  V30 2825 H 241.831 -0.612648 -0.416826 0
M  V30 2826 H 244.478 -1.8674 -0.424315 0
M  V30 2827 H 242.783 -2.60803 -2.92385 0
M  V30 2828 H 244.48 -2.94382 -2.72288 0
M  V30 2829 H 241.07 -3.93855 -1.69045 0
M  V30 2830 H 245.254 -4.80695 -1.23473 0
M  V30 2831 H 240.51 -6.08196 -0.625154 0
M  V30 2832 H 244.684 -6.96175 -0.177065 0
M  V30 2833 H 242.311 -7.60083 0.133571 0
M  V30 2834 N 243.887 0.651787 -1.4349 0
M  V30 2835 C 245.134 1.41167 -1.45183 0
M  V30 2836 C 245.462 1.94349 -0.0766601 0
M  V30 2837 O 244.717 1.72804 0.918555 0
M  V30 2838 C 245.016 2.60914 -2.44251 0
M  V30 2839 C 244.682 2.26142 -3.9009 0
M  V30 2840 C 243.344 2.16371 -4.2981 0
M  V30 2841 C 245.696 1.98334 -4.81989 0
M  V30 2842 C 243.024 1.7695 -5.5938 0
M  V30 2843 C 245.376 1.6041 -6.11924 0
M  V30 2844 C 244.04 1.49166 -6.5062 0
M  V30 2845 H 243.31 0.516566 -0.531263 0
M  V30 2846 H 245.957 0.741099 -1.76579 0
M  V30 2847 H 244.262 3.3311 -2.06265 0
M  V30 2848 H 245.959 3.19127 -2.42815 0
M  V30 2849 H 242.549 2.34658 -3.58655 0
M  V30 2850 H 246.733 2.04803 -4.52072 0
M  V30 2851 H 241.989 1.66831 -5.88198 0
M  V30 2852 H 246.163 1.37925 -6.82605 0
M  V30 2853 H 243.79 1.1839 -7.50925 0
M  V30 2854 N 245.365 1.30045 0.890287 0
M  V30 2855 C 246.295 1.18541 2.01172 0
M  V30 2856 C 247.276 0.0773356 1.69924 0
M  V30 2857 O 248.461 0.25845 1.92473 0
M  V30 2858 C 245.591 0.870941 3.36202 0
M  V30 2859 C 244.545 1.93637 3.81692 0
M  V30 2860 C 243.871 1.475 5.13953 0
M  V30 2861 C 245.171 3.34666 4.00994 0
M  V30 2862 H 246.865 2.12359 2.11054 0
M  V30 2863 H 244.411 1.02238 1.01407 0
M  V30 2864 H 246.364 0.777141 4.14172 0
M  V30 2865 H 245.088 -0.102926 3.26438 0
M  V30 2866 H 243.747 2.01972 3.05946 0
M  V30 2867 H 243.395 0.489551 5.00612 0
M  V30 2868 H 243.095 2.1876 5.4536 0
M  V30 2869 H 244.619 1.39489 5.94454 0
M  V30 2870 H 246.033 3.2912 4.69417 0
M  V30 2871 H 244.43 4.03966 4.43769 0
M  V30 2872 H 245.5 3.76949 3.05021 0
M  V30 2873 N 246.843 -1.10192 1.12674 0
M  V30 2874 C 248.073 -1.85713 0.905213 0
M  V30 2875 C 248.481 -1.81056 -0.549108 0
M  V30 2876 O 247.824 -1.19927 -1.39151 0
M  V30 2877 C 247.886 -3.34972 1.30516 0
M  V30 2878 C 247.55 -3.63385 2.77129 0
M  V30 2879 C 248.547 -3.59772 3.75313 0
M  V30 2880 C 246.232 -3.91981 3.14096 0
M  V30 2881 C 248.226 -3.84354 5.08479 0
M  V30 2882 C 245.913 -4.16218 4.47443 0
M  V30 2883 C 246.911 -4.12395 5.44444 0
M  V30 2884 O 246.599 -4.36014 6.75387 0
M  V30 2885 H 246.331 -0.593719 0.323223 0
M  V30 2886 H 248.885 -1.40198 1.50112 0
M  V30 2887 H 247.115 -3.81156 0.652463 0
M  V30 2888 H 248.804 -3.91886 1.05736 0
M  V30 2889 H 249.57 -3.37716 3.48099 0
M  V30 2890 H 245.449 -3.94085 2.39202 0
M  V30 2891 H 248.993 -3.81285 5.84181 0
M  V30 2892 H 244.89 -4.37754 4.74386 0
M  V30 2893 H 245.658 -4.53516 6.8137 0
M  V30 2894 N 248.321 -0.919034 -1.28029 0
M  V30 2895 C 249.598 -0.473668 -1.89778 0
M  V30 2896 C 249.978 1.04783 -1.83259 0
M  V30 2897 O 249.326 1.8982 -1.27202 0
M  V30 2898 C 249.536 -1.00998 -3.34066 0
M  V30 2899 C 250.884 -1.06525 -4.1102 0
M  V30 2900 O 251.908 -0.958996 -3.43048 0
M  V30 2901 O 250.767 -1.22776 -5.3253 0
M  V30 2902 H 247.861 -0.15098 -0.813101 0
M  V30 2903 H 250.407 -1.01016 -1.36359 0
M  V30 2904 H 249.179 -2.05392 -3.33061 0
M  V30 2905 H 248.802 -0.454626 -3.94992 0
M  V30 2906 N 249.799 1.42003 -0.683588 0
M  V30 2907 C 251.048 2.00638 -0.206681 0
M  V30 2908 C 251.361 1.5472 1.19671 0
M  V30 2909 O 252.567 2.05833 1.77045 0
M  V30 2910 C 251.023 3.58487 -0.318632 0
M  V30 2911 C 250.631 4.1339 -1.72663 0
M  V30 2912 C 252.375 4.24384 0.0991141 0
M  V30 2913 C 250.282 5.63633 -1.79087 0
M  V30 2914 H 249.212 0.750408 -0.0735107 0
M  V30 2915 H 251.863 1.62624 -0.850048 0
M  V30 2916 H 250.245 3.94047 0.392781 0
M  V30 2917 H 251.419 3.89273 -2.46583 0
M  V30 2918 H 249.734 3.59976 -2.09299 0
M  V30 2919 H 252.331 5.34652 0.0713833 0
M  V30 2920 H 252.674 4.00505 1.13586 0
M  V30 2921 H 253.207 3.93816 -0.561599 0
M  V30 2922 H 249.946 5.92323 -2.80774 0
M  V30 2923 H 249.466 5.89714 -1.09535 0
M  V30 2924 H 251.145 6.28201 -1.5483 0
M  V30 2925 N 251.277 0.427512 1.51691 0
M  V30 2926 C 252.524 -0.142229 2.02 0
M  V30 2927 C 252.852 -1.43566 1.31221 0
M  V30 2928 O 252.107 -1.91298 0.412744 0
M  V30 2929 C 252.406 -0.418249 3.54944 0
M  V30 2930 C 252.072 0.788187 4.43958 0
M  V30 2931 C 250.734 1.11906 4.68007 0
M  V30 2932 C 253.086 1.59347 4.96244 0
M  V30 2933 C 250.414 2.25608 5.41588 0
M  V30 2934 C 252.766 2.7214 5.71072 0
M  V30 2935 C 251.43 3.05692 5.93387 0
M  V30 2936 H 250.7 -0.0520451 0.73917 0
M  V30 2937 H 253.347 0.572697 1.82736 0
M  V30 2938 H 251.652 -1.21496 3.72486 0
M  V30 2939 H 253.349 -0.872339 3.91397 0
M  V30 2940 H 249.939 0.520344 4.2543 0
M  V30 2941 H 254.123 1.35106 4.77556 0
M  V30 2942 H 249.379 2.51929 5.57083 0
M  V30 2943 H 253.553 3.34914 6.10578 0
M  V30 2944 H 251.18 3.9391 6.50184 0
M  V30 2945 N 252.755 -1.56801 0.158532 0
M  V30 2946 C 253.685 -2.20347 -0.772609 0
M  V30 2947 C 254.666 -1.15518 -1.24859 0
M  V30 2948 O 255.851 -1.43902 -1.30406 0
M  V30 2949 C 252.981 -2.83417 -2.00729 0
M  V30 2950 C 251.935 -3.94174 -1.66765 0
M  V30 2951 C 251.261 -4.44233 -2.97592 0
M  V30 2952 C 252.561 -5.14392 -0.905447 0
M  V30 2953 H 254.255 -2.98413 -0.242959 0
M  V30 2954 H 251.801 -1.43537 -0.115419 0
M  V30 2955 H 253.754 -3.26543 -2.6636 0
M  V30 2956 H 252.478 -2.02701 -2.56086 0
M  V30 2957 H 251.137 -3.51684 -1.03508 0
M  V30 2958 H 250.785 -3.60325 -3.50963 0
M  V30 2959 H 250.485 -5.18945 -2.75626 0
M  V30 2960 H 252.009 -4.90037 -3.64274 0
M  V30 2961 H 253.423 -5.5429 -1.46408 0
M  V30 2962 H 251.82 -5.9494 -0.7853 0
M  V30 2963 H 252.89 -4.84795 0.100668 0
M  V30 2964 N 254.233 0.115231 -1.57178 0
M  V30 2965 C 255.18 1.14115 -2.00615 0
M  V30 2966 C 256.15 1.40939 -0.878941 0
M  V30 2967 O 257.335 1.52741 -1.14345 0
M  V30 2968 C 254.475 2.46156 -2.4187 0
M  V30 2969 C 253.588 2.26236 -3.68024 0
M  V30 2970 C 252.723 3.51534 -3.98243 0
M  V30 2971 C 251.762 3.26787 -5.17568 0
M  V30 2972 N 250.899 4.44298 -5.43639 0
M  V30 2973 H 255.739 0.763743 -2.88047 0
M  V30 2974 H 253.276 0.365615 -1.42484 0
M  V30 2975 H 255.234 3.23189 -2.63827 0
M  V30 2976 H 253.864 2.81783 -1.57475 0
M  V30 2977 H 252.916 1.40102 -3.5366 0
M  V30 2978 H 254.228 2.03929 -4.55208 0
M  V30 2979 H 253.382 4.36984 -4.20868 0
M  V30 2980 H 252.121 3.76876 -3.09541 0
M  V30 2981 H 251.126 2.39729 -4.94783 0
M  V30 2982 H 252.351 3.02812 -6.0785 0
M  V30 2983 H 250.297 4.69754 -4.57895 0
M  V30 2984 H 250.214 4.25109 -6.25154 0
M  V30 2985 H 251.482 5.3087 -5.70786 0
M  V30 2986 N 255.711 1.52812 0.385517 0
M  V30 2987 C 256.958 1.68026 1.1302 0
M  V30 2988 C 257.286 0.421934 1.89868 0
M  V30 2989 O 256.541 -0.595749 1.86412 0
M  V30 2990 C 256.84 2.86856 2.13187 0
M  V30 2991 C 256.506 4.24159 1.5297 0
M  V30 2992 C 255.168 4.61501 1.36274 0
M  V30 2993 C 257.52 5.09627 1.09223 0
M  V30 2994 C 254.848 5.81966 0.743837 0
M  V30 2995 C 257.2 6.30719 0.487411 0
M  V30 2996 C 255.864 6.6679 0.307777 0
M  V30 2997 H 255.134 0.614849 0.413571 0
M  V30 2998 H 257.781 1.86962 0.414405 0
M  V30 2999 H 256.086 2.6235 2.90998 0
M  V30 3000 H 257.783 2.95821 2.70722 0
M  V30 3001 H 254.373 3.94746 1.66954 0
M  V30 3002 H 258.557 4.81343 1.20922 0
M  V30 3003 H 253.813 6.08519 0.592891 0
M  V30 3004 H 257.987 6.96259 0.140143 0
M  V30 3005 H 255.614 7.60001 -0.173879 0
M  V30 3006 N 257.189 -0.644168 1.43834 0
M  V30 3007 C 258.429 -1.41565 1.47441 0
M  V30 3008 C 258.793 -1.91743 0.0992723 0
M  V30 3009 O 259.994 -2.68798 0.0100192 0
M  V30 3010 C 258.265 -2.55902 2.49498 0
M  V30 3011 S 259.824 -3.44287 2.72051 0
M  V30 3012 H 256.642 -0.483118 0.521649 0
M  V30 3013 H 259.244 -0.747008 1.80666 0
M  V30 3014 H 257.948 -2.17327 3.48134 0
M  V30 3015 H 257.479 -3.27607 2.17801 0
M  V30 3016 H 259.494 -4.52927 2.0266 0
M  V30 3017 N 258.668 -1.30515 -0.883378 0
M  V30 3018 C 259.598 -1.19607 -2.00541 0
M  V30 3019 C 260.579 -0.086346 -1.69881 0
M  V30 3020 O 261.764 -0.268654 -1.92333 0
M  V30 3021 C 258.894 -0.888758 -3.35736 0
M  V30 3022 C 257.848 -1.95659 -3.8066 0
M  V30 3023 C 257.174 -1.50224 -5.13164 0
M  V30 3024 C 258.474 -3.36788 -3.99213 0
M  V30 3025 H 260.168 -2.13476 -2.09925 0
M  V30 3026 H 257.714 -1.02775 -1.00863 0
M  V30 3027 H 259.667 -0.799094 -4.13754 0
M  V30 3028 H 258.391 0.0856125 -3.26488 0
M  V30 3029 H 257.05 -2.03591 -3.04871 0
M  V30 3030 H 256.698 -0.516092 -5.00345 0
M  V30 3031 H 256.398 -2.2165 -5.44192 0
M  V30 3032 H 257.922 -1.42639 -5.93706 0
M  V30 3033 H 259.336 -3.31605 -4.67665 0
M  V30 3034 H 257.733 -4.06314 -4.41621 0
M  V30 3035 H 258.803 -3.78561 -3.03017 0
M  V30 3036 N 260.146 1.09593 -1.13257 0
M  V30 3037 C 261.093 2.1618 -0.808381 0
M  V30 3038 C 262.063 1.64517 0.228754 0
M  V30 3039 O 263.248 1.9053 0.101381 0
M  V30 3040 C 260.388 3.43973 -0.278675 0
M  V30 3041 C 259.501 4.09545 -1.37466 0
M  V30 3042 C 258.636 5.25088 -0.803479 0
M  V30 3043 C 257.675 5.82579 -1.87799 0
M  V30 3044 N 256.812 6.89486 -1.32488 0
M  V30 3045 H 261.652 2.43254 -1.72138 0
M  V30 3046 H 259.189 1.19392 -0.859294 0
M  V30 3047 H 261.147 4.17174 0.0465583 0
M  V30 3048 H 259.777 3.17223 0.597459 0
M  V30 3049 H 258.829 3.34226 -1.81652 0
M  V30 3050 H 260.141 4.48307 -2.18684 0
M  V30 3051 H 259.295 6.05178 -0.429427 0
M  V30 3052 H 258.034 4.87684 0.0397956 0
M  V30 3053 H 257.039 5.01152 -2.26113 0
M  V30 3054 H 258.264 6.22045 -2.72463 0
M  V30 3055 H 256.21 6.54064 -0.503575 0
M  V30 3056 H 256.127 7.27007 -2.07355 0
M  V30 3057 H 257.395 7.73336 -0.978336 0
M  V30 3058 N 261.624 0.925811 1.2754 0
M  V30 3059 C 262.854 0.580666 1.98272 0
M  V30 3060 C 263.262 -0.845207 1.69272 0
M  V30 3061 O 262.605 -1.57306 0.948707 0
M  V30 3062 C 262.667 0.724418 3.52126 0
M  V30 3063 C 262.331 2.12206 4.04744 0
M  V30 3064 C 263.328 3.09604 4.17662 0
M  V30 3065 C 261.013 2.4385 4.39138 0
M  V30 3066 C 263.007 4.36755 4.64246 0
M  V30 3067 C 260.694 3.71237 4.85414 0
M  V30 3068 C 261.692 4.67503 4.97926 0
M  V30 3069 O 261.38 5.92624 5.43187 0
M  V30 3070 H 261.112 0.218987 0.639547 0
M  V30 3071 H 263.666 1.24452 1.63404 0
M  V30 3072 H 261.896 0.0034663 3.867 0
M  V30 3073 H 263.585 0.384607 4.04074 0
M  V30 3074 H 264.351 2.86478 3.91351 0
M  V30 3075 H 260.23 1.69665 4.28643 0
M  V30 3076 H 263.774 5.11898 4.73927 0
M  V30 3077 H 259.671 3.94182 5.11166 0
M  V30 3078 H 260.439 5.95585 5.61445 0
M  V30 3079 N 263.102 -1.41638 0.69111 0
M  V30 3080 C 264.351 -2.00526 0.217318 0
M  V30 3081 C 264.664 -1.55353 -1.18848 0
M  V30 3082 O 265.87 -2.06769 -1.75951 0
M  V30 3083 C 264.326 -3.58313 0.337639 0
M  V30 3084 C 263.934 -4.12469 1.74852 0
M  V30 3085 C 265.678 -4.24431 -0.0766066 0
M  V30 3086 C 263.585 -5.62675 1.82074 0
M  V30 3087 H 262.515 -0.750008 0.0774893 0
M  V30 3088 H 265.166 -1.6217 0.858661 0
M  V30 3089 H 263.548 -3.9425 -0.371879 0
M  V30 3090 H 264.722 -3.8796 2.48644 0
M  V30 3091 H 263.037 -3.58861 2.11205 0
M  V30 3092 H 265.634 -5.34683 -0.0430284 0
M  V30 3093 H 265.977 -4.01101 -1.1146 0
M  V30 3094 H 266.51 -3.93512 0.582476 0
M  V30 3095 H 263.249 -5.90826 2.83911 0
M  V30 3096 H 262.769 -5.89124 1.12661 0
M  V30 3097 H 264.448 -6.27371 1.58159 0
M  V30 3098 N 264.58 -0.43555 -1.51462 0
M  V30 3099 C 265.857 0.191364 -1.94662 0
M  V30 3100 C 266.237 1.60254 -1.37411 0
M  V30 3101 O 265.585 2.2152 -0.560458 0
M  V30 3102 C 265.795 0.17091 -3.48581 0
M  V30 3103 C 267.143 0.377357 -4.2292 0
M  V30 3104 O 268.167 0.249104 -3.55328 0
M  V30 3105 O 267.026 0.63247 -5.42828 0
M  V30 3106 H 264.12 0.130932 -0.816569 0
M  V30 3107 H 266.666 -0.4934 -1.62369 0
M  V30 3108 H 265.438 -0.815738 -3.82703 0
M  V30 3109 H 265.061 0.898659 -3.87311 0
M  V30 3110 N 266.058 1.56714 -0.166846 0
M  V30 3111 C 267.306 1.96358 0.478305 0
M  V30 3112 C 267.627 1.0537 1.6408 0
M  V30 3113 O 266.897 0.119154 1.95537 0
M  V30 3114 H 265.477 0.725065 0.179692 0
M  V30 3115 H 268.139 1.93329 -0.246985 0
M  V30 3116 H 267.235 3.00547 0.841292 0
M  V30 3117 N 267.536 -0.106894 1.57237 0
M  V30 3118 C 268.446 -1.14911 2.0453 0
M  V30 3119 C 269.462 -1.44592 0.96795 0
M  V30 3120 O 270.638 -1.55468 1.2803 0
M  V30 3121 C 267.703 -2.45272 2.45036 0
M  V30 3122 C 266.764 -2.22879 3.66911 0
M  V30 3123 C 265.997 -3.47024 4.05475 0
M  V30 3124 O 266.22 -4.54804 3.44252 0
M  V30 3125 O 265.154 -3.3731 4.98504 0
M  V30 3126 H 268.98 -0.777461 2.9358 0
M  V30 3127 H 266.565 -0.318563 1.45964 0
M  V30 3128 H 268.447 -3.22055 2.71769 0
M  V30 3129 H 267.122 -2.81886 1.59129 0
M  V30 3130 H 266.029 -1.43915 3.45311 0
M  V30 3131 H 267.362 -1.91163 4.53561 0
M  V30 3132 N 269.014 -1.53014 -0.377408 0
M  V30 3133 C 270.263 -1.67845 -1.11853 0
M  V30 3134 C 270.576 -0.430625 -1.90801 0
M  V30 3135 O 271.782 -0.459261 -2.67587 0
M  V30 3136 C 270.238 -2.96668 -2.03756 0
M  V30 3137 C 269.846 -4.28671 -1.30175 0
M  V30 3138 C 271.59 -3.20865 -2.77932 0
M  V30 3139 C 269.497 -5.48591 -2.20911 0
M  V30 3140 H 268.427 -0.625343 -0.421263 0
M  V30 3141 H 271.078 -1.79514 -0.380409 0
M  V30 3142 H 269.46 -2.78773 -2.8125 0
M  V30 3143 H 270.634 -4.57157 -0.578259 0
M  V30 3144 H 268.949 -4.10825 -0.679108 0
M  V30 3145 H 271.546 -4.07642 -3.46024 0
M  V30 3146 H 271.889 -2.36424 -3.4265 0
M  V30 3147 H 272.422 -3.39379 -2.07525 0
M  V30 3148 H 269.161 -6.35474 -1.6079 0
M  V30 3149 H 268.681 -5.244 -2.91144 0
M  V30 3150 H 270.36 -5.8292 -2.80736 0
M  V30 3151 N 270.492 0.636531 -1.44174 0
M  V30 3152 C 271.732 1.40781 -1.48189 0
M  V30 3153 C 272.096 1.91688 -0.10944 0
M  V30 3154 O 273.297 2.68789 -0.0242741 0
M  V30 3155 C 271.568 2.54575 -2.50851 0
M  V30 3156 S 273.127 3.4284 -2.73873 0
M  V30 3157 H 269.945 0.480345 -0.524204 0
M  V30 3158 H 272.547 0.737416 -1.81059 0
M  V30 3159 H 271.251 2.15478 -3.49281 0
M  V30 3160 H 270.782 3.26447 -2.19536 0
M  V30 3161 H 272.797 4.51846 -2.05059 0
M  V30 3162 N 271.97 1.30982 0.876444 0
M  V30 3163 C 272.92 1.14688 1.97055 0
M  V30 3164 C 273.904 0.0596593 1.60789 0
M  V30 3165 O 275.096 0.283892 1.74708 0
M  V30 3166 C 272.225 0.849627 3.3262 0
M  V30 3167 C 271.311 1.97752 3.75173 0
M  V30 3168 N 271.702 3.22384 3.89746 0
M  V30 3169 C 270 1.8758 4.04635 0
M  V30 3170 C 270.701 3.96121 4.25985 0
M  V30 3171 N 269.677 3.24237 4.36315 0
M  V30 3172 H 273.479 2.09204 2.06424 0
M  V30 3173 H 270.993 1.22445 1.06682 0
M  V30 3174 H 272.99 0.713895 4.10742 0
M  V30 3175 H 271.65 -0.087376 3.24582 0
M  V30 3176 H 272.661 3.57575 3.74647 0
M  V30 3177 H 269.338 1.01303 4.05024 0
M  V30 3178 H 270.728 5.03491 4.44911 0
M  V30 3179 N 273.449 -1.08991 1.13837 0
M  V30 3180 C 274.726 -1.77863 0.813876 0
M  V30 3181 C 275.106 -1.99375 -0.693746 0
M  V30 3182 O 274.454 -1.59875 -1.63255 0
M  V30 3183 C 274.664 -3.0986 1.60586 0
M  V30 3184 C 276.012 -3.84493 1.8014 0
M  V30 3185 O 277.036 -3.19624 1.57222 0
M  V30 3186 O 275.895 -5.00957 2.18413 0
M  V30 3187 H 272.989 -0.771589 0.297624 0
M  V30 3188 H 275.535 -1.15507 1.24323 0
M  V30 3189 H 274.307 -2.89715 2.63022 0
M  V30 3190 H 273.93 -3.79942 1.17173 0
M  V30 3191 N 274.927 -0.932562 -1.27047 0
M  V30 3192 C 275.857 -0.452902 -2.29066 0
M  V30 3193 C 276.838 0.489338 -1.62909 0
M  V30 3194 O 278.023 0.393046 -1.90181 0
M  V30 3195 C 275.153 0.290698 -3.46081 0
M  V30 3196 C 274.107 -0.564168 -4.24265 0
M  V30 3197 C 273.433 0.308886 -5.33807 0
M  V30 3198 C 274.733 -1.83112 -4.89149 0
M  V30 3199 H 276.427 -1.30552 -2.69437 0
M  V30 3200 H 273.973 -0.629201 -1.29526 0
M  V30 3201 H 275.926 0.637233 -4.16554 0
M  V30 3202 H 274.65 1.17738 -3.0464 0
M  V30 3203 H 273.309 -0.893477 -3.55545 0
M  V30 3204 H 272.957 1.19467 -4.88607 0
M  V30 3205 H 272.657 -0.259633 -5.87026 0
M  V30 3206 H 274.181 0.650884 -6.07121 0
M  V30 3207 H 275.595 -1.55236 -5.51883 0
M  V30 3208 H 273.992 -2.34353 -5.52448 0
M  V30 3209 H 275.062 -2.54772 -4.12576 0
M  V30 3210 N 276.405 1.4127 -0.698611 0
M  V30 3211 C 277.652 2.0118 -0.230865 0
M  V30 3212 C 277.98 1.55338 1.17049 0
M  V30 3213 O 277.235 0.756775 1.80475 0
M  V30 3214 C 277.534 3.56592 -0.240192 0
M  V30 3215 C 277.2 4.21955 -1.58948 0
M  V30 3216 C 275.862 4.39524 -1.95887 0
M  V30 3217 C 278.214 4.58576 -2.47704 0
M  V30 3218 C 275.542 4.90992 -3.2116 0
M  V30 3219 C 277.894 5.11435 -3.72313 0
M  V30 3220 C 276.558 5.27215 -4.0939 0
M  V30 3221 H 275.828 0.736169 -0.0844796 0
M  V30 3222 H 278.475 1.69124 -0.8983 0
M  V30 3223 H 276.78 3.88456 0.510797 0
M  V30 3224 H 278.477 4.00758 0.139296 0
M  V30 3225 H 275.067 4.08657 -1.29219 0
M  V30 3226 H 279.251 4.44654 -2.20445 0
M  V30 3227 H 274.507 5.01393 -3.49878 0
M  V30 3228 H 278.681 5.38752 -4.4127 0
M  V30 3229 H 276.308 5.66859 -5.06533 0
M  V30 3230 N 277.883 0.443576 1.51229 0
M  V30 3231 C 278.813 -0.355142 2.30783 0
M  V30 3232 C 279.794 -1.0154 1.36468 0
M  V30 3233 O 280.979 -1.01785 1.65389 0
M  V30 3234 C 278.109 -1.45312 3.15439 0
M  V30 3235 C 277.063 -0.916002 4.18083 0
M  V30 3236 C 276.389 -2.1102 4.91299 0
M  V30 3237 C 277.689 0.0538602 5.22272 0
M  V30 3238 H 279.383 0.308767 2.97804 0
M  V30 3239 H 276.929 0.149937 1.43217 0
M  V30 3240 H 278.882 -2.01914 3.69876 0
M  V30 3241 H 277.606 -2.14541 2.46252 0
M  V30 3242 H 276.265 -0.372145 3.64706 0
M  V30 3243 H 275.913 -2.78882 4.18609 0
M  V30 3244 H 275.613 -1.75717 5.60712 0
M  V30 3245 H 277.137 -2.68164 5.48562 0
M  V30 3246 H 278.551 -0.422069 5.71744 0
M  V30 3247 H 276.948 0.319776 5.99247 0
M  V30 3248 H 278.018 0.98858 4.74716 0
M  V30 3249 N 279.361 -1.56624 0.175154 0
M  V30 3250 C 280.291 -2.21155 -0.749195 0
M  V30 3251 C 281.272 -1.16836 -1.23626 0
M  V30 3252 O 282.457 -1.45277 -1.28873 0
M  V30 3253 C 279.587 -2.8553 -1.97711 0
M  V30 3254 C 278.541 -3.95921 -1.62575 0
M  V30 3255 C 277.867 -4.47365 -2.92864 0
M  V30 3256 C 279.167 -5.15323 -0.850838 0
M  V30 3257 H 280.861 -2.98653 -0.211295 0
M  V30 3258 H 278.407 -1.43651 -0.100188 0
M  V30 3259 H 280.36 -3.2935 -2.62881 0
M  V30 3260 H 279.084 -2.05406 -2.53921 0
M  V30 3261 H 277.743 -3.52762 -0.997719 0
M  V30 3262 H 277.391 -3.64027 -3.47122 0
M  V30 3263 H 277.091 -5.21839 -2.70106 0
M  V30 3264 H 278.615 -4.93873 -3.59056 0
M  V30 3265 H 280.029 -5.55812 -1.40521 0
M  V30 3266 H 278.426 -5.95739 -0.722154 0
M  V30 3267 H 279.496 -4.84661 0.152082 0
M  V30 3268 N 280.839 0.0985539 -1.57292 0
M  V30 3269 C 281.769 1.12064 -2.04851 0
M  V30 3270 C 282.75 1.41981 -0.936767 0
M  V30 3271 O 283.935 1.52071 -1.20781 0
M  V30 3272 C 281.065 2.44144 -2.47004 0
M  V30 3273 C 280.019 2.28643 -3.6181 0
M  V30 3274 C 279.345 3.65869 -3.89929 0
M  V30 3275 C 280.645 1.72986 -4.92822 0
M  V30 3276 H 282.339 0.724979 -2.9049 0
M  V30 3277 H 279.885 0.34729 -1.39749 0
M  V30 3278 H 281.838 3.15914 -2.78884 0
M  V30 3279 H 280.562 2.85639 -1.5836 0
M  V30 3280 H 279.221 1.59318 -3.30172 0
M  V30 3281 H 278.869 4.04885 -2.98458 0
M  V30 3282 H 278.569 3.56344 -4.67218 0
M  V30 3283 H 280.093 4.39112 -4.2428 0
M  V30 3284 H 281.507 2.34593 -5.23105 0
M  V30 3285 H 279.904 1.74229 -5.74251 0
M  V30 3286 H 280.974 0.689007 -4.7998 0
M  V30 3287 N 282.317 1.53212 0.369288 0
M  V30 3288 C 283.565 1.68881 1.11012 0
M  V30 3289 C 283.886 0.441285 1.89941 0
M  V30 3290 O 283.156 -0.544623 1.88177 0
M  V30 3291 H 281.736 0.622569 0.412816 0
M  V30 3292 H 284.398 1.90391 0.416802 0
M  V30 3293 H 283.494 2.54822 1.80201 0
M  V30 3294 N 283.795 -0.628877 1.44509 0
M  V30 3295 C 284.742 -1.74074 1.51549 0
M  V30 3296 C 285.712 -1.62084 0.363021 0
M  V30 3297 O 286.897 -1.81975 0.573567 0
M  V30 3298 C 284.037 -3.12328 1.46784 0
M  V30 3299 C 283.15 -3.35277 2.72422 0
M  V30 3300 C 282.285 -4.63515 2.59475 0
M  V30 3301 C 281.324 -4.7965 3.80266 0
M  V30 3302 N 280.461 -5.99168 3.65981 0
M  V30 3303 H 285.301 -1.67392 2.46544 0
M  V30 3304 H 282.838 -0.816527 1.22357 0
M  V30 3305 H 284.796 -3.92286 1.42012 0
M  V30 3306 H 283.426 -3.18018 0.553544 0
M  V30 3307 H 282.478 -2.49242 2.87372 0
M  V30 3308 H 283.79 -3.43078 3.62076 0
M  V30 3309 H 282.944 -5.51638 2.52548 0
M  V30 3310 H 281.683 -4.58076 1.67384 0
M  V30 3311 H 280.688 -3.89957 3.87574 0
M  V30 3312 H 281.913 -4.86902 4.73395 0
M  V30 3313 H 279.859 -5.94814 2.76644 0
M  V30 3314 H 279.776 -6.08035 4.49254 0
M  V30 3315 H 281.044 -6.89846 3.6295 0
M  V30 3316 N 285.273 -1.31445 -0.869486 0
M  V30 3317 C 286.503 -1.23942 -1.65294 0
M  V30 3318 C 286.911 0.197561 -1.88166 0
M  V30 3319 O 286.254 1.14019 -1.44033 0
M  V30 3320 C 286.316 -1.91385 -3.04322 0
M  V30 3321 C 285.98 -3.40726 -3.04557 0
M  V30 3322 C 286.977 -4.36464 -2.82481 0
M  V30 3323 C 284.662 -3.82425 -3.25663 0
M  V30 3324 C 286.656 -5.71876 -2.8149 0
M  V30 3325 C 284.343 -5.1795 -3.243 0
M  V30 3326 C 285.341 -6.12486 -3.02241 0
M  V30 3327 O 285.029 -7.45534 -3.00724 0
M  V30 3328 H 284.761 -0.429459 -0.522054 0
M  V30 3329 H 287.315 -1.73873 -1.0935 0
M  V30 3330 H 285.545 -1.36004 -3.61994 0
M  V30 3331 H 287.234 -1.77791 -3.64891 0
M  V30 3332 H 288 -4.05576 -2.65956 0
M  V30 3333 H 283.879 -3.09274 -3.41863 0
M  V30 3334 H 287.423 -6.45638 -2.64191 0
M  V30 3335 H 283.32 -5.48473 -3.40365 0
M  V30 3336 H 284.088 -7.54713 -3.16782 0
M  V30 3337 N 286.751 1.08385 -1.14413 0
M  V30 3338 C 287.699 2.17406 -0.826888 0
M  V30 3339 C 288.693 1.6827 0.195312 0
M  V30 3340 O 289.899 1.79927 0.0513892 0
M  V30 3341 H 286.274 0.70934 -0.249681 0
M  V30 3342 H 288.245 2.41388 -1.75426 0
M  V30 3343 C 286.994 3.46215 -0.320979 0
M  V30 3344 H 286.317 3.84401 -1.0989 0
M  V30 3345 H 287.757 4.23777 -0.137549 0
M  V30 3346 C 286.216 3.23067 0.955472 0
M  V30 3347 O 286.746 3.4668 2.02918 0
M  V30 3348 N 284.952 2.7661 0.890798 0
M  V30 3349 H 284.499 2.57594 0.0168815 0
M  V30 3350 H 284.457 2.61501 1.74542 0
M  V30 3351 N 288.23 0.939286 1.26551 0
M  V30 3352 C 289.479 0.581601 1.93133 0
M  V30 3353 C 289.792 -0.883224 1.74524 0
M  V30 3354 O 290.998 -1.3502 2.35546 0
M  V30 3355 C 289.454 0.989425 3.46032 0
M  V30 3356 C 289.062 2.47573 3.73379 0
M  V30 3357 C 290.806 0.703544 4.18629 0
M  V30 3358 C 288.713 2.82235 5.19709 0
M  V30 3359 H 287.643 0.213803 0.723052 0
M  V30 3360 H 290.294 1.14167 1.4366 0
M  V30 3361 H 288.676 0.357902 3.94379 0
M  V30 3362 H 289.85 3.15614 3.35744 0
M  V30 3363 H 288.165 2.73471 3.1401 0
M  V30 3364 H 290.762 0.938869 5.26393 0
M  V30 3365 H 291.105 -0.359639 4.14744 0
M  V30 3366 H 291.638 1.2947 3.76141 0
M  V30 3367 H 288.377 3.87509 5.28694 0
M  V30 3368 H 287.897 2.18854 5.58447 0
M  V30 3369 H 289.576 2.70599 5.87695 0
M  V30 3370 N 289.708 -1.40897 0.706093 0
M  V30 3371 C 290.638 -2.33418 0.0620085 0
M  V30 3372 C 291.619 -1.52385 -0.755827 0
M  V30 3373 O 292.804 -1.80886 -0.706674 0
M  V30 3374 C 289.934 -3.36293 -0.867445 0
M  V30 3375 C 288.888 -4.27716 -0.155932 0
M  V30 3376 C 288.214 -5.2105 -1.20046 0
M  V30 3377 C 289.514 -5.12944 0.984149 0
M  V30 3378 H 291.208 -2.87527 0.83477 0
M  V30 3379 H 288.754 -1.38249 0.402875 0
M  V30 3380 H 290.707 -3.99949 -1.32735 0
M  V30 3381 H 289.431 -2.80556 -1.67199 0
M  V30 3382 H 288.09 -3.65498 0.284047 0
M  V30 3383 H 287.738 -4.61624 -1.99781 0
M  V30 3384 H 287.438 -5.83056 -0.729328 0
M  V30 3385 H 288.962 -5.87584 -1.66066 0
M  V30 3386 H 290.376 -5.70109 0.604048 0
M  V30 3387 H 288.773 -5.83945 1.38304 0
M  V30 3388 H 289.843 -4.49485 1.81911 0
M  V30 3389 N 291.186 -0.45159 -1.50991 0
M  V30 3390 C 292.597 0.00818571 -1.86698 0
M  V30 3391 C 292.948 1.40661 -1.3678 0
M  V30 3392 O 292.073 2.0391 -0.724546 0
M  V30 3393 C 292.668 0.0216303 -3.38793 0
M  V30 3394 C 291.227 0.425865 -3.73983 0
M  V30 3395 C 290.374 -0.372163 -2.74791 0
M  V30 3396 H 293.325 -0.666785 -1.44013 0
M  V30 3397 H 293.346 0.828078 -3.7138 0
M  V30 3398 H 292.858 -0.996288 -3.75094 0
M  V30 3399 H 290.959 1.44886 -3.43277 0
M  V30 3400 H 291.072 0.140761 -4.78893 0
M  V30 3401 H 289.436 0.171498 -2.54122 0
M  V30 3402 H 290.219 -1.38922 -3.13935 0
M  V30 3403 N 292.664 1.56529 -0.183458 0
M  V30 3404 C 293.894 2.01331 0.463612 0
M  V30 3405 C 294.302 1.06278 1.5653 0
M  V30 3406 O 293.645 0.0577976 1.83609 0
M  V30 3407 C 293.707 3.42547 1.09096 0
M  V30 3408 C 293.371 4.56817 0.129442 0
M  V30 3409 C 294.368 5.15734 -0.656807 0
M  V30 3410 C 292.053 5.02295 0.02174 0
M  V30 3411 C 294.047 6.1857 -1.53784 0
M  V30 3412 C 291.734 6.04978 -0.862864 0
M  V30 3413 C 292.732 6.62988 -1.64123 0
M  V30 3414 O 292.42 7.63677 -2.51103 0
M  V30 3415 H 292.152 0.664917 0.121907 0
M  V30 3416 H 294.706 2.034 -0.285954 0
M  V30 3417 H 292.936 3.37428 1.88889 0
M  V30 3418 H 294.625 3.71228 1.64148 0
M  V30 3419 H 295.391 4.81473 -0.583839 0
M  V30 3420 H 291.27 4.56847 0.617392 0
M  V30 3421 H 294.814 6.63777 -2.14583 0
M  V30 3422 H 290.711 6.38663 -0.93699 0
M  V30 3423 H 291.479 7.81049 -2.44753 0
M  V30 3424 N 294.142 -0.090211 1.57342 0
M  V30 3425 C 295.419 -0.824761 1.77361 0
M  V30 3426 C 295.799 -1.96698 0.76637 0
M  V30 3427 O 295.147 -2.27586 -0.204179 0
M  V30 3428 C 295.357 -1.31481 3.23286 0
M  V30 3429 C 296.705 -1.75563 3.86604 0
M  V30 3430 O 297.729 -1.41093 3.27065 0
M  V30 3431 O 296.588 -2.39317 4.91314 0
M  V30 3432 H 293.682 -0.393776 0.727234 0
M  V30 3433 H 296.228 -0.0717138 1.69548 0
M  V30 3434 H 295 -0.496671 3.88135 0
M  V30 3435 H 294.623 -2.12973 3.35751 0
M  V30 3436 N 295.62 -1.53406 -0.361157 0
M  V30 3437 C 296.848 -1.73717 -1.12383 0
M  V30 3438 C 297.263 -0.468161 -1.82904 0
M  V30 3439 O 296.62 0.559198 -1.73722 0
M  V30 3440 C 296.671 -2.90558 -2.15078 0
M  V30 3441 O 296.392 -4.12549 -1.47428 0
M  V30 3442 C 297.893 -3.22777 -3.03858 0
M  V30 3443 H 295.113 -0.580896 -0.335858 0
M  V30 3444 H 297.657 -2.00167 -0.418728 0
M  V30 3445 H 295.812 -2.66489 -2.8118 0
M  V30 3446 H 296.226 -4.78009 -2.15887 0
M  V30 3447 H 297.7 -4.07927 -3.71887 0
M  V30 3448 H 298.177 -2.38329 -3.68912 0
M  V30 3449 H 298.783 -3.48787 -2.43367 0
M  V30 3450 N 297.098 0.621204 -1.44841 0
M  V30 3451 C 298.323 1.41244 -1.51871 0
M  V30 3452 C 298.748 1.87519 -0.147764 0
M  V30 3453 O 298.106 1.59334 0.865 0
M  V30 3454 C 298.154 2.60221 -2.49634 0
M  V30 3455 O 297.258 3.60395 -2.00473 0
M  V30 3456 H 296.599 0.42223 -0.512463 0
M  V30 3457 H 299.129 0.757305 -1.90069 0
M  V30 3458 H 299.139 3.0764 -2.67996 0
M  V30 3459 H 297.814 2.25887 -3.4921 0
M  V30 3460 H 296.391 3.19717 -1.91925 0
M  V30 3461 N 298.576 1.31904 0.862503 0
M  V30 3462 C 299.524 1.20125 1.9918 0
M  V30 3463 C 300.518 0.107824 1.69056 0
M  V30 3464 O 301.724 0.270223 1.7796 0
M  V30 3465 H 298.099 0.372148 0.65346 0
M  V30 3466 H 300.07 2.15652 2.06244 0
M  V30 3467 C 298.819 0.933099 3.34946 0
M  V30 3468 H 298.142 1.76664 3.5865 0
M  V30 3469 H 299.582 0.890892 4.14535 0
M  V30 3470 C 298.041 -0.364172 3.34926 0
M  V30 3471 O 298.571 -1.37858 3.77304 0
M  V30 3472 N 296.777 -0.383362 2.8806 0
M  V30 3473 H 296.324 0.442651 2.53768 0
M  V30 3474 H 296.282 -1.25123 2.8843 0
M  V30 3475 N 300.054 -1.07777 1.14986 0
M  V30 3476 C 301.331 -1.7699 0.832695 0
M  V30 3477 C 301.711 -2.001 -0.672561 0
M  V30 3478 O 301.059 -1.61598 -1.6155 0
M  V30 3479 C 301.269 -3.08139 1.63863 0
M  V30 3480 C 302.617 -3.8256 1.84208 0
M  V30 3481 O 303.641 -3.17939 1.60603 0
M  V30 3482 O 302.5 -4.98612 2.23714 0
M  V30 3483 H 299.594 -0.768389 0.305791 0
M  V30 3484 H 302.14 -1.14182 1.25541 0
M  V30 3485 H 300.912 -2.86909 2.6608 0
M  V30 3486 H 300.535 -3.78678 1.21197 0
M  V30 3487 N 301.532 -0.945985 -1.26051 0
M  V30 3488 C 302.757 -0.612525 -1.98149 0
M  V30 3489 C 303.182 0.806623 -1.69927 0
M  V30 3490 O 302.54 1.54411 -0.950108 0
M  V30 3491 C 302.588 -0.866981 -3.50023 0
M  V30 3492 O 301.692 0.0585333 -4.12358 0
M  V30 3493 H 301.033 -0.23379 -0.621481 0
M  V30 3494 H 303.563 -1.27023 -1.60395 0
M  V30 3495 H 303.573 -0.789792 -4.00283 0
M  V30 3496 H 302.248 -1.90135 -3.69894 0
M  V30 3497 H 300.825 -0.0701241 -3.72834 0
M  V30 3498 N 303.011 1.40521 -0.713556 0
M  V30 3499 C 304.26 2.00155 -0.249192 0
M  V30 3500 C 304.573 1.57224 1.16362 0
M  V30 3501 O 305.779 2.09542 1.72639 0
M  V30 3502 C 304.235 3.5773 -0.3946 0
M  V30 3503 C 303.843 4.09635 -1.81392 0
M  V30 3504 C 305.587 4.24499 0.00907364 0
M  V30 3505 C 303.494 5.59707 -1.91003 0
M  V30 3506 H 302.424 0.74868 -0.0894114 0
M  V30 3507 H 305.075 1.60784 -0.884352 0
M  V30 3508 H 303.457 3.94792 0.30911 0
M  V30 3509 H 304.631 3.83955 -2.54785 0
M  V30 3510 H 302.946 3.55456 -2.16888 0
M  V30 3511 H 305.543 5.34683 -0.0420404 0
M  V30 3512 H 305.886 4.02824 1.05065 0
M  V30 3513 H 306.419 3.92536 -0.645007 0
M  V30 3514 H 303.158 5.86234 -2.93275 0
M  V30 3515 H 302.678 5.87258 -1.22019 0
M  V30 3516 H 304.357 6.24776 -1.6812 0
M  V30 3517 N 304.489 0.459591 1.5075 0
M  V30 3518 C 305.719 -0.0972338 2.06371 0
M  V30 3519 C 306.127 -1.35074 1.32483 0
M  V30 3520 O 305.47 -1.79637 0.384226 0
M  V30 3521 C 305.532 -0.462759 3.56509 0
M  V30 3522 C 305.196 0.687084 4.51805 0
M  V30 3523 C 306.193 1.56578 4.95761 0
M  V30 3524 C 303.878 0.874144 4.94635 0
M  V30 3525 C 305.872 2.61604 5.81242 0
M  V30 3526 C 303.559 1.92765 5.79901 0
M  V30 3527 C 304.557 2.79697 6.23104 0
M  V30 3528 O 304.245 3.83235 7.06673 0
M  V30 3529 H 303.977 -0.00140687 0.675999 0
M  V30 3530 H 306.531 0.644011 1.95043 0
M  V30 3531 H 304.761 -1.25703 3.65699 0
M  V30 3532 H 306.45 -0.953323 3.94546 0
M  V30 3533 H 307.216 1.4329 4.6335 0
M  V30 3534 H 303.095 0.207006 4.60535 0
M  V30 3535 H 306.639 3.29489 6.14884 0
M  V30 3536 H 302.536 2.06064 6.11725 0
M  V30 3537 H 303.304 3.80084 7.24899 0
M  V30 3538 N 305.967 -1.56429 0.191757 0
M  V30 3539 C 306.93 -2.17707 -0.716688 0
M  V30 3540 C 307.93 -1.13061 -1.14341 0
M  V30 3541 O 309.12 -1.38464 -1.05704 0
M  V30 3542 C 306.252 -2.77644 -1.97804 0
M  V30 3543 H 307.445 -2.99342 -0.1829 0
M  V30 3544 H 304.998 -1.56193 -0.0578566 0
M  V30 3545 H 305.733 -1.99799 -2.55443 0
M  V30 3546 H 305.518 -3.54246 -1.68083 0
M  V30 3547 H 307.008 -3.24708 -2.62592 0
M  V30 3548 N 307.445 0.0818655 -1.57387 0
M  V30 3549 C 308.685 0.788375 -1.88584 0
M  V30 3550 C 309.049 1.75248 -0.784351 0
M  V30 3551 O 310.25 2.50334 -0.979105 0
M  V30 3552 C 308.521 1.48654 -3.25018 0
M  V30 3553 S 310.08 2.22951 -3.7794 0
M  V30 3554 H 306.898 0.262383 -0.660815 0
M  V30 3555 H 309.5 0.0448995 -1.95448 0
M  V30 3556 H 308.204 0.770919 -4.03094 0
M  V30 3557 H 307.735 2.26965 -3.21326 0
M  V30 3558 H 309.75 3.49309 -3.52417 0
M  V30 3559 N 308.923 1.53595 0.353017 0
M  V30 3560 C 310.151 1.74311 1.1146 0
M  V30 3561 C 310.566 0.477854 1.82653 0
M  V30 3562 O 309.923 -0.549977 1.74016 0
M  V30 3563 C 309.974 2.91694 2.13534 0
M  V30 3564 O 309.695 4.13325 1.45238 0
M  V30 3565 C 311.196 3.24384 3.02142 0
M  V30 3566 H 308.416 0.582669 0.332773 0
M  V30 3567 H 310.96 2.00386 0.408107 0
M  V30 3568 H 309.115 2.67977 2.79763 0
M  V30 3569 H 309.529 4.79148 2.13349 0
M  V30 3570 H 311.003 4.09893 3.69718 0
M  V30 3571 H 311.48 2.40282 3.67643 0
M  V30 3572 H 312.086 3.50073 2.41514 0
M  V30 3573 N 310.401 -0.613514 1.45168 0
M  V30 3574 C 311.349 -1.74572 1.53712 0
M  V30 3575 C 312.343 -1.64426 0.407505 0
M  V30 3576 O 313.549 -1.70291 0.583176 0
M  V30 3577 H 309.924 -0.576641 0.48269 0
M  V30 3578 H 311.895 -1.64492 2.48968 0
M  V30 3579 C 310.644 -3.12943 1.51532 0
M  V30 3580 H 309.967 -3.21407 2.37776 0
M  V30 3581 H 311.407 -3.9201 1.61569 0
M  V30 3582 C 309.866 -3.36053 0.238798 0
M  V30 3583 O 310.396 -3.95837 -0.6838 0
M  V30 3584 N 308.602 -2.9028 0.136359 0
M  V30 3585 H 308.149 -2.41811 0.887999 0
M  V30 3586 H 308.107 -3.06116 -0.716944 0
M  V30 3587 N 311.879 -1.3236 -0.855495 0
M  V30 3588 C 313.128 -1.22226 -1.60448 0
M  V30 3589 C 313.441 0.214733 -1.94418 0
M  V30 3590 O 314.647 0.437917 -2.67945 0
M  V30 3591 C 313.103 -2.14063 -2.89318 0
M  V30 3592 C 312.711 -3.62839 -2.62777 0
M  V30 3593 C 314.455 -2.12764 -3.67331 0
M  V30 3594 C 312.362 -4.4664 -3.87643 0
M  V30 3595 H 311.292 -0.453904 -0.602069 0
M  V30 3596 H 313.943 -1.57314 -0.944698 0
M  V30 3597 H 312.325 -1.71889 -3.5675 0
M  V30 3598 H 313.499 -4.1335 -2.03662 0
M  V30 3599 H 311.814 -3.66261 -1.98096 0
M  V30 3600 H 314.411 -2.72611 -4.59987 0
M  V30 3601 H 314.754 -1.11841 -4.00995 0
M  V30 3602 H 315.287 -2.53214 -3.06802 0
M  V30 3603 H 312.026 -5.48373 -3.5912 0
M  V30 3604 H 311.546 -4.0088 -4.46156 0
M  V30 3605 H 313.225 -4.59597 -4.55389 0
M  V30 3606 N 313.357 1.07166 -1.15556 0
M  V30 3607 C 314.304 2.14417 -0.854055 0
M  V30 3608 C 315.274 1.64965 0.193806 0
M  V30 3609 O 316.459 1.90703 0.0609443 0
M  V30 3610 C 313.599 3.43304 -0.351574 0
M  V30 3611 C 312.712 4.06537 -1.46123 0
M  V30 3612 C 311.847 5.23266 -0.914677 0
M  V30 3613 C 310.886 5.78464 -2.00114 0
M  V30 3614 N 310.023 6.86521 -1.47083 0
M  V30 3615 H 314.863 2.39548 -1.77259 0
M  V30 3616 H 312.4 1.17543 -0.884425 0
M  V30 3617 H 314.358 4.17179 -0.0419409 0
M  V30 3618 H 312.988 3.18419 0.530037 0
M  V30 3619 H 312.04 3.30297 -1.88701 0
M  V30 3620 H 313.352 4.43567 -2.28144 0
M  V30 3621 H 312.506 6.04131 -0.557698 0
M  V30 3622 H 311.245 4.87658 -0.0636583 0
M  V30 3623 H 310.25 4.96243 -2.36692 0
M  V30 3624 H 311.475 6.16126 -2.85597 0
M  V30 3625 H 309.421 6.52849 -0.642198 0
M  V30 3626 H 309.338 7.22446 -2.22729 0
M  V30 3627 H 310.606 7.71087 -1.14215 0
M  V30 3628 N 314.835 0.952656 1.25548 0
M  V30 3629 C 315.785 0.442033 2.23674 0
M  V30 3630 C 316.769 -0.467632 1.53955 0
M  V30 3631 O 317.961 -0.301006 1.74422 0
M  V30 3632 C 315.09 -0.280816 3.4215 0
M  V30 3633 C 314.176 0.646803 4.19139 0
M  V30 3634 N 314.567 1.77759 4.73535 0
M  V30 3635 C 312.865 0.454617 4.43677 0
M  V30 3636 C 313.566 2.35658 5.31827 0
M  V30 3637 N 312.542 1.64333 5.18166 0
M  V30 3638 H 316.344 1.30505 2.63336 0
M  V30 3639 H 313.858 0.809904 1.40763 0
M  V30 3640 H 315.855 -0.663747 4.11582 0
M  V30 3641 H 314.515 -1.14046 3.04012 0
M  V30 3642 H 315.526 2.15949 4.7073 0
M  V30 3643 H 312.203 -0.362312 4.15925 0
M  V30 3644 H 313.593 3.30998 5.84713 0
M  V30 3645 N 316.313 -1.40141 0.720998 0
M  V30 3646 C 317.243 -2.33339 0.0867621 0
M  V30 3647 C 318.224 -1.53178 -0.739622 0
M  V30 3648 O 319.409 -1.81625 -0.687449 0
M  V30 3649 C 316.539 -3.37194 -0.831728 0
M  V30 3650 C 315.493 -4.27857 -0.110558 0
M  V30 3651 C 314.819 -5.22294 -1.14513 0
M  V30 3652 C 316.119 -5.11872 1.0385 0
M  V30 3653 H 317.813 -2.86626 0.865219 0
M  V30 3654 H 315.359 -1.37814 0.417516 0
M  V30 3655 H 317.312 -4.01335 -1.28485 0
M  V30 3656 H 316.036 -2.82314 -1.64214 0
M  V30 3657 H 314.695 -3.65176 0.322797 0
M  V30 3658 H 314.343 -4.63717 -1.94874 0
M  V30 3659 H 314.043 -5.83797 -0.667446 0
M  V30 3660 H 315.567 -5.89312 -1.59824 0
M  V30 3661 H 316.981 -5.69436 0.664482 0
M  V30 3662 H 315.378 -5.82445 1.4449 0
M  V30 3663 H 316.448 -4.4753 1.86668 0
M  V30 3664 N 317.792 -0.46758 -1.50504 0
M  V30 3665 C 319.069 0.15003 -1.95024 0
M  V30 3666 C 319.449 1.57304 -1.40779 0
M  V30 3667 O 318.797 2.20281 -0.607319 0
M  V30 3668 C 319.007 0.0969324 -3.48865 0
M  V30 3669 C 320.355 0.287565 -4.23625 0
M  V30 3670 O 321.379 0.173678 -3.55776 0
M  V30 3671 O 320.238 0.517186 -5.44047 0
M  V30 3672 H 317.332 0.113582 -0.819163 0
M  V30 3673 H 319.878 -0.52773 -1.61286 0
M  V30 3674 H 318.65 -0.896732 -3.80886 0
M  V30 3675 H 318.273 0.816303 -3.8913 0
M  V30 3676 N 319.27 1.56325 -0.20005 0
M  V30 3677 C 320.517 1.97719 0.437411 0
M  V30 3678 C 320.845 1.08709 1.61284 0
M  V30 3679 O 320.1 0.127261 1.95286 0
M  V30 3680 C 320.399 3.4495 0.935103 0
M  V30 3681 C 320.065 4.5072 -0.12749 0
M  V30 3682 C 318.727 4.79368 -0.419451 0
M  V30 3683 C 321.079 5.14268 -0.847231 0
M  V30 3684 C 318.407 5.68854 -1.43604 0
M  V30 3685 C 320.759 6.04852 -1.85301 0
M  V30 3686 C 319.423 6.31855 -2.15211 0
M  V30 3687 H 318.693 0.723507 0.16006 0
M  V30 3688 H 321.34 1.89166 -0.298056 0
M  V30 3689 H 319.645 3.50599 1.74894 0
M  V30 3690 H 321.342 3.74337 1.43781 0
M  V30 3691 H 317.932 4.28458 0.11023 0
M  V30 3692 H 322.116 4.92222 -0.634901 0
M  V30 3693 H 317.372 5.88047 -1.67364 0
M  V30 3694 H 321.546 6.53152 -2.41591 0
M  V30 3695 H 319.173 7.00994 -2.94129 0
M  V30 3696 N 320.748 -0.0735177 1.57428 0
M  V30 3697 C 321.997 -0.771809 1.86349 0
M  V30 3698 C 322.31 -1.78828 0.792452 0
M  V30 3699 O 323.516 -2.53602 0.96945 0
M  V30 3700 C 321.972 -1.42358 3.30548 0
M  V30 3701 C 321.58 -0.445761 4.45777 0
M  V30 3702 C 323.324 -2.10434 3.6867 0
M  V30 3703 C 321.231 -1.10335 5.81016 0
M  V30 3704 H 320.161 -0.291999 0.695164 0
M  V30 3705 H 322.812 -0.0250749 1.83483 0
M  V30 3706 H 321.194 -2.21852 3.28021 0
M  V30 3707 H 322.368 0.319239 4.59693 0
M  V30 3708 H 320.683 0.130457 4.16196 0
M  V30 3709 H 323.28 -2.60405 4.67004 0
M  V30 3710 H 323.623 -2.90298 2.98383 0
M  V30 3711 H 324.156 -1.37773 3.7318 0
M  V30 3712 H 320.895 -0.345061 6.54591 0
M  V30 3713 H 320.415 -1.83925 5.70904 0
M  V30 3714 H 322.094 -1.62367 6.26295 0
M  V30 3715 N 322.226 -1.5378 -0.344866 0
M  V30 3716 C 323.174 -1.82373 -1.4437 0
M  V30 3717 C 324.168 -0.694128 -1.54526 0
M  V30 3718 O 325.374 -0.877442 -1.57165 0
M  V30 3719 H 321.749 -0.577765 -0.481344 0
M  V30 3720 H 323.72 -2.74306 -1.17468 0
M  V30 3721 C 322.469 -2.04898 -2.80913 0
M  V30 3722 H 321.792 -2.9127 -2.73865 0
M  V30 3723 H 323.232 -2.28871 -3.56923 0
M  V30 3724 C 321.691 -0.834116 -3.26411 0
M  V30 3725 O 322.221 -0.0328885 -4.01687 0
M  V30 3726 N 320.427 -0.65171 -2.83198 0
M  V30 3727 H 319.974 -1.30489 -2.22104 0
M  V30 3728 H 319.932 0.159686 -3.13994 0
M  V30 3729 N 323.704 0.605807 -1.45491 0
M  V30 3730 C 325.115 1.18777 -1.44045 0
M  V30 3731 C 325.466 1.95471 -0.169001 0
M  V30 3732 O 324.591 2.0374 0.729324 0
M  V30 3733 C 325.186 2.16064 -2.60963 0
M  V30 3734 C 323.745 2.69633 -2.62631 0
M  V30 3735 C 322.892 1.45072 -2.36325 0
M  V30 3736 H 325.843 0.395017 -1.53705 0
M  V30 3737 H 325.864 2.9913 -2.35163 0
M  V30 3738 H 325.376 1.60217 -3.53486 0
M  V30 3739 H 323.477 3.29414 -1.74119 0
M  V30 3740 H 323.59 3.13944 -3.61906 0
M  V30 3741 H 321.954 1.74089 -1.85917 0
M  V30 3742 H 322.737 0.910899 -3.30995 0
M  V30 3743 N 325.182 1.32811 0.848464 0
M  V30 3744 C 326.429 1.23724 1.60308 0
M  V30 3745 C 326.757 -0.1994 1.93475 0
M  V30 3746 O 326.012 -1.15406 1.5805 0
M  V30 3747 C 326.311 2.04831 2.92881 0
M  V30 3748 C 325.977 3.54125 2.79117 0
M  V30 3749 C 324.639 3.94829 2.7507 0
M  V30 3750 C 326.991 4.49036 2.64606 0
M  V30 3751 C 324.319 5.28675 2.544 0
M  V30 3752 C 326.671 5.83033 2.4547 0
M  V30 3753 C 325.335 6.22931 2.39819 0
M  V30 3754 H 324.605 0.452737 0.586609 0
M  V30 3755 H 327.252 1.64301 0.983743 0
M  V30 3756 H 325.557 1.57001 3.58968 0
M  V30 3757 H 327.254 1.95164 3.50303 0
M  V30 3758 H 323.844 3.21801 2.83094 0
M  V30 3759 H 328.028 4.18505 2.66772 0
M  V30 3760 H 323.284 5.58637 2.48465 0
M  V30 3761 H 327.458 6.56186 2.33222 0
M  V30 3762 H 325.085 7.26584 2.23562 0
M  V30 3763 N 326.66 -1.06551 1.16123 0
M  V30 3764 C 327.908 -1.78947 0.939267 0
M  V30 3765 C 328.229 -1.87532 -0.534476 0
M  V30 3766 O 327.499 -1.38211 -1.38833 0
M  V30 3767 H 326.079 -0.662807 0.344523 0
M  V30 3768 H 328.741 -1.28725 1.46342 0
M  V30 3769 H 327.837 -2.81117 1.35572 0
M  V30 3770 N 328.138 -0.959301 -1.25041 0
M  V30 3771 C 329.384 -0.617525 -1.9317 0
M  V30 3772 C 329.717 0.843981 -1.74902 0
M  V30 3773 O 328.992 1.60615 -1.09696 0
M  V30 3774 C 329.275 -0.982736 -3.46431 0
M  V30 3775 C 329.128 -2.50032 -3.73904 0
M  V30 3776 C 330.447 -0.511176 -4.37121 0
M  V30 3777 H 327.566 -0.22582 -0.701552 0
M  V30 3778 H 330.208 -1.19679 -1.4757 0
M  V30 3779 H 328.358 -0.489806 -3.854 0
M  V30 3780 H 330.03 -3.06737 -3.44544 0
M  V30 3781 H 328.273 -2.93598 -3.19348 0
M  V30 3782 H 328.944 -2.70635 -4.81103 0
M  V30 3783 H 331.42 -0.934075 -4.0548 0
M  V30 3784 H 330.296 -0.795361 -5.43107 0
M  V30 3785 H 330.557 0.588834 -4.38161 0
M  V30 3786 N 329.616 1.39756 -0.72842 0
M  V30 3787 C 330.579 2.29012 -0.0927297 0
M  V30 3788 C 331.579 1.45992 0.674025 0
M  V30 3789 O 332.769 1.66749 0.50402 0
M  V30 3790 C 329.901 3.29396 0.878137 0
M  V30 3791 H 331.094 2.86729 -0.879011 0
M  V30 3792 H 328.647 1.48293 -0.493847 0
M  V30 3793 H 329.382 2.76722 1.69101 0
M  V30 3794 H 329.167 3.907 0.331051 0
M  V30 3795 H 330.657 3.96199 1.3197 0
M  V30 3796 N 331.094 0.475555 1.50254 0
M  V30 3797 C 332.057 -0.305016 2.27161 0
M  V30 3798 C 333.057 -0.916519 1.32123 0
M  V30 3799 O 334.247 -0.785003 1.5551 0
M  V30 3800 C 331.379 -1.43496 3.09227 0
M  V30 3801 H 332.572 0.369511 2.97615 0
M  V30 3802 H 330.125 0.229747 1.54602 0
M  V30 3803 H 330.86 -2.14441 2.43281 0
M  V30 3804 H 330.645 -1.00223 3.79075 0
M  V30 3805 H 332.135 -1.98548 3.67381 0
M  V30 3806 N 332.573 -1.56217 0.208337 0
M  V30 3807 C 333.821 -1.97558 -0.426076 0
M  V30 3808 C 334.142 -1.09683 -1.61229 0
M  V30 3809 O 333.412 -0.170956 -1.95153 0
M  V30 3810 H 331.992 -0.729575 -0.160405 0
M  V30 3811 H 334.654 -1.92606 0.298155 0
M  V30 3812 H 333.75 -3.02672 -0.761312 0
M  V30 3813 N 334.051 0.0651679 -1.57465 0
M  V30 3814 C 335.298 0.763063 -1.87573 0
M  V30 3815 C 335.626 1.77242 -0.800961 0
M  V30 3816 O 334.881 1.94651 0.202316 0
M  V30 3817 C 335.18 1.50081 -3.24362 0
M  V30 3818 C 334.846 0.630816 -4.46466 0
M  V30 3819 C 333.508 0.391082 -4.79608 0
M  V30 3820 C 335.86 0.0279465 -5.21193 0
M  V30 3821 C 333.188 -0.460894 -5.84887 0
M  V30 3822 C 335.54 -0.811522 -6.27373 0
M  V30 3823 C 334.204 -1.06106 -6.59013 0
M  V30 3824 H 333.474 0.279224 -0.686378 0
M  V30 3825 H 336.121 0.0236726 -1.91485 0
M  V30 3826 H 334.426 2.31258 -3.16271 0
M  V30 3827 H 336.123 2.04571 -3.44894 0
M  V30 3828 H 332.713 0.8278 -4.2053 0
M  V30 3829 H 336.897 0.200262 -4.95896 0
M  V30 3830 H 332.153 -0.662907 -6.07796 0
M  V30 3831 H 336.327 -1.28537 -6.84435 0
M  V30 3832 H 333.954 -1.723 -7.40417 0
M  V30 3833 N 335.529 1.53961 0.336706 0
M  V30 3834 C 336.806 1.62171 1.09361 0
M  V30 3835 C 337.186 0.447263 2.06307 0
M  V30 3836 O 336.534 -0.559802 2.21537 0
M  V30 3837 C 336.744 2.98565 1.80721 0
M  V30 3838 C 338.092 3.54157 2.34218 0
M  V30 3839 O 339.116 3.00784 1.90807 0
M  V30 3840 O 337.975 4.47528 3.13657 0
M  V30 3841 H 335.069 0.6562 0.503319 0
M  V30 3842 H 337.615 1.66307 0.33765 0
M  V30 3843 H 336.387 3.75482 1.10132 0
M  V30 3844 H 336.01 2.9805 2.63158 0
M  V30 3845 N 337.007 -0.598083 1.45811 0
M  V30 3846 C 337.954 -1.7082 1.55207 0
M  V30 3847 C 338.924 -1.61278 0.39732 0
M  V30 3848 O 340.109 -1.80717 0.612038 0
M  V30 3849 C 337.249 -3.09144 1.53376 0
M  V30 3850 C 336.362 -3.29423 2.79472 0
M  V30 3851 C 335.497 -4.57907 2.69248 0
M  V30 3852 C 334.536 -4.71476 3.90354 0
M  V30 3853 N 333.673 -5.9127 3.78608 0
M  V30 3854 H 338.513 -1.62125 2.50039 0
M  V30 3855 H 336.05 -0.790389 1.24062 0
M  V30 3856 H 338.008 -3.89186 1.50301 0
M  V30 3857 H 336.638 -3.16773 0.620876 0
M  V30 3858 H 335.69 -2.43091 2.92594 0
M  V30 3859 H 337.002 -3.3532 3.69272 0
M  V30 3860 H 336.156 -5.46157 2.64192 0
M  V30 3861 H 334.895 -4.54423 1.77063 0
M  V30 3862 H 333.9 -3.81648 3.95759 0
M  V30 3863 H 335.125 -4.76751 4.83617 0
M  V30 3864 H 333.071 -5.88813 2.89199 0
M  V30 3865 H 332.988 -5.98369 4.6205 0
M  V30 3866 H 334.256 -6.81992 3.77501 0
M  V30 3867 N 338.485 -1.33259 -0.841409 0
M  V30 3868 C 339.433 -1.23279 -1.97244 0
M  V30 3869 C 340.427 -0.134706 -1.68864 0
M  V30 3870 O 341.633 -0.298501 -1.77508 0
M  V30 3871 H 338.008 -0.382497 -0.647457 0
M  V30 3872 H 339.979 -2.18906 -2.02787 0
M  V30 3873 C 338.728 -0.986268 -3.33419 0
M  V30 3874 H 338.051 -1.82347 -3.55794 0
M  V30 3875 H 339.491 -0.956728 -4.13065 0
M  V30 3876 C 337.95 0.310842 -3.35463 0
M  V30 3877 O 338.48 1.31838 -3.79449 0
M  V30 3878 N 336.686 0.337485 -2.88634 0
M  V30 3879 H 336.233 -0.482967 -2.53032 0
M  V30 3880 H 336.191 1.20518 -2.90384 0
M  V30 3881 N 339.963 1.05934 -1.16686 0
M  V30 3882 C 341.211 1.78447 -0.948744 0
M  V30 3883 C 341.532 1.87813 0.524523 0
M  V30 3884 O 340.802 1.38945 1.38098 0
M  V30 3885 H 339.382 0.660971 -0.348033 0
M  V30 3886 H 342.044 1.27947 -1.47022 0
M  V30 3887 H 341.14 2.80394 -1.37061 0
M  V30 3888 N 341.441 0.965919 1.2453 0
M  V30 3889 C 342.687 0.62776 1.92839 0
M  V30 3890 C 343.02 -0.834694 1.75347 0
M  V30 3891 O 342.295 -1.60031 1.10546 0
M  V30 3892 C 342.578 1.00109 3.45905 0
M  V30 3893 C 342.431 2.52011 3.72573 0
M  V30 3894 C 343.75 0.53435 4.36844 0
M  V30 3895 H 340.869 0.229537 0.700344 0
M  V30 3896 H 343.511 1.2046 1.46933 0
M  V30 3897 H 341.661 0.510238 3.85135 0
M  V30 3898 H 343.333 3.08559 3.42912 0
M  V30 3899 H 341.576 2.95287 3.17786 0
M  V30 3900 H 342.247 2.73183 4.79661 0
M  V30 3901 H 344.723 0.955565 4.04979 0
M  V30 3902 H 343.599 0.824152 5.42678 0
M  V30 3903 H 343.86 -0.565589 4.38467 0
M  V30 3904 N 342.919 -1.39368 0.735821 0
M  V30 3905 C 344.159 -2.02349 0.288813 0
M  V30 3906 C 344.523 -1.57127 -1.10341 0
M  V30 3907 O 345.724 -2.12312 -1.64854 0
M  V30 3908 C 343.995 -3.55288 0.387986 0
M  V30 3909 S 345.554 -4.38795 0.0209408 0
M  V30 3910 H 342.372 -0.701944 0.113115 0
M  V30 3911 H 344.974 -1.70164 0.962518 0
M  V30 3912 H 343.678 -3.85691 1.40252 0
M  V30 3913 H 343.209 -3.92227 -0.303512 0
M  V30 3914 H 345.224 -4.81595 -1.19503 0
M  V30 3915 N 344.397 -0.483516 -1.5 0
M  V30 3916 C 345.646 0.0689102 -2.01582 0
M  V30 3917 C 345.959 1.39655 -1.36952 0
M  V30 3918 O 347.165 2.03465 -1.79762 0
M  V30 3919 C 345.621 0.173302 -3.59483 0
M  V30 3920 C 345.229 -1.14665 -4.33077 0
M  V30 3921 C 346.973 0.677024 -4.19066 0
M  V30 3922 C 344.88 -1.00537 -5.82792 0
M  V30 3923 H 343.81 0.0295277 -0.753422 0
M  V30 3924 H 346.461 -0.620295 -1.72698 0
M  V30 3925 H 344.843 0.926569 -3.85007 0
M  V30 3926 H 346.017 -1.91184 -4.19268 0
M  V30 3927 H 344.332 -1.58244 -3.85159 0
M  V30 3928 H 346.929 0.799952 -5.28682 0
M  V30 3929 H 347.272 1.67151 -3.81269 0
M  V30 3930 H 347.805 -0.0192083 -3.97795 0
M  V30 3931 H 344.544 -1.9736 -6.25083 0
M  V30 3932 H 344.064 -0.280776 -5.99142 0
M  V30 3933 H 345.743 -0.677 -6.43448 0
M  V30 3934 N 345.875 1.56104 -0.216619 0
M  V30 3935 C 347.152 1.89988 0.465165 0
M  V30 3936 C 347.532 1.13326 1.78102 0
M  V30 3937 O 346.88 0.241033 2.27225 0
M  V30 3938 C 347.09 3.42646 0.662939 0
M  V30 3939 C 348.438 4.13311 0.972602 0
M  V30 3940 O 349.462 3.48217 0.749901 0
M  V30 3941 O 348.321 5.28396 1.39499 0
M  V30 3942 H 345.415 0.78979 0.245276 0
M  V30 3943 H 347.961 1.67721 -0.258436 0
M  V30 3944 H 346.733 3.90399 -0.26543 0
M  V30 3945 H 346.356 3.70677 1.43821 0
M  V30 3946 N 347.353 -0.0568162 1.57498 0
M  V30 3947 C 348.578 -0.769402 1.92601 0
M  V30 3948 C 349.003 -1.69559 0.814336 0
M  V30 3949 O 348.361 -1.79811 -0.231903 0
M  V30 3950 C 348.409 -1.52634 3.26704 0
M  V30 3951 O 347.513 -2.63797 3.16994 0
M  V30 3952 H 346.854 -0.208909 0.63028 0
M  V30 3953 H 349.384 -0.0205798 2.0459 0
M  V30 3954 H 349.394 -1.90234 3.60936 0
M  V30 3955 H 348.069 -0.846875 4.07186 0
M  V30 3956 H 346.646 -2.28943 2.94346 0
M  V30 3957 N 348.832 -1.54138 -0.328536 0
M  V30 3958 C 350.081 -1.71318 -1.06456 0
M  V30 3959 C 350.394 -0.491109 -1.89334 0
M  V30 3960 O 351.6 -0.54416 -2.65991 0
M  V30 3961 C 350.056 -3.03 -1.94214 0
M  V30 3962 C 349.664 -4.32595 -1.16471 0
M  V30 3963 C 351.408 -3.29544 -2.67583 0
M  V30 3964 C 349.315 -5.55341 -2.03347 0
M  V30 3965 H 348.245 -0.638429 -0.401155 0
M  V30 3966 H 350.896 -1.80633 -0.323106 0
M  V30 3967 H 349.278 -2.87579 -2.72239 0
M  V30 3968 H 350.452 -4.58766 -0.432525 0
M  V30 3969 H 348.767 -4.12777 -0.548063 0
M  V30 3970 H 351.364 -4.18444 -3.3288 0
M  V30 3971 H 351.707 -2.47206 -3.34955 0
M  V30 3972 H 352.24 -3.45809 -1.96623 0
M  V30 3973 H 348.979 -6.40268 -1.40491 0
M  V30 3974 H 348.499 -5.33397 -2.74313 0
M  V30 3975 H 350.178 -5.91557 -2.62049 0
M  V30 3976 N 350.31 0.590341 -1.46126 0
M  V30 3977 C 351.24 1.71032 -1.58966 0
M  V30 3978 C 352.221 1.64302 -0.440335 0
M  V30 3979 O 353.406 1.82436 -0.665634 0
M  V30 3980 C 350.536 3.09665 -1.57241 0
M  V30 3981 C 349.49 3.31221 -2.71066 0
M  V30 3982 C 348.816 4.70303 -2.54399 0
M  V30 3983 C 350.116 3.19796 -4.1295 0
M  V30 3984 H 351.81 1.60543 -2.52718 0
M  V30 3985 H 349.356 0.770933 -1.21625 0
M  V30 3986 H 351.309 3.87831 -1.64819 0
M  V30 3987 H 350.033 3.21036 -0.600289 0
M  V30 3988 H 348.692 2.55452 -2.62944 0
M  V30 3989 H 348.34 4.78429 -1.55288 0
M  V30 3990 H 348.04 4.85679 -3.30741 0
M  V30 3991 H 349.564 5.50647 -2.63857 0
M  V30 3992 H 350.978 3.87815 -4.22223 0
M  V30 3993 H 349.375 3.46696 -4.89818 0
M  V30 3994 H 350.445 2.16983 -4.33643 0
M  V30 3995 N 351.788 1.33704 0.83433 0
M  V30 3996 C 352.735 1.24335 1.94447 0
M  V30 3997 C 353.705 0.120991 1.65659 0
M  V30 3998 O 354.89 0.300035 1.88426 0
M  V30 3999 C 352.03 0.993124 3.30501 0
M  V30 4000 C 351.143 2.20217 3.71657 0
M  V30 4001 C 350.278 1.88572 4.96602 0
M  V30 4002 C 349.317 3.05683 5.30306 0
M  V30 4003 N 348.454 2.73997 6.46429 0
M  V30 4004 H 353.294 2.1928 2.01792 0
M  V30 4005 H 350.831 1.09035 0.987404 0
M  V30 4006 H 352.789 0.828467 4.08892 0
M  V30 4007 H 351.419 0.0803902 3.227 0
M  V30 4008 H 350.471 2.47642 2.88752 0
M  V30 4009 H 351.783 3.07752 3.92543 0
M  V30 4010 H 350.937 1.68776 5.82752 0
M  V30 4011 H 349.676 0.982799 4.77695 0
M  V30 4012 H 348.681 3.26088 4.42659 0
M  V30 4013 H 349.906 3.96737 5.51159 0
M  V30 4014 H 347.852 1.86268 6.28999 0
M  V30 4015 H 347.769 3.55064 6.67432 0
M  V30 4016 H 349.037 2.57679 7.35678 0
M  V30 4017 N 353.266 -1.05314 1.17247 0
M  V30 4018 C 354.196 -2.1498 0.911362 0
M  V30 4019 C 355.177 -1.69471 -0.146169 0
M  V30 4020 O 356.362 -1.942 0.003812 0
M  V30 4021 C 353.492 -3.4472 0.422528 0
M  V30 4022 C 352.446 -4.03789 1.4191 0
M  V30 4023 C 351.772 -5.28858 0.788274 0
M  V30 4024 C 353.072 -4.41418 2.7919 0
M  V30 4025 H 354.766 -2.3708 1.82848 0
M  V30 4026 H 352.312 -1.13938 0.880569 0
M  V30 4027 H 354.265 -4.20787 0.227289 0
M  V30 4028 H 352.989 -3.22269 -0.530123 0
M  V30 4029 H 351.648 -3.2979 1.60106 0
M  V30 4030 H 351.296 -5.02709 -0.171173 0
M  V30 4031 H 350.996 -5.69338 1.45353 0
M  V30 4032 H 352.52 -6.07612 0.603282 0
M  V30 4033 H 353.934 -5.08524 2.64719 0
M  V30 4034 H 352.331 -4.92913 3.42282 0
M  V30 4035 H 353.401 -3.51819 3.33693 0
M  V30 4036 N 354.744 -0.972509 -1.24016 0
M  V30 4037 C 355.992 -0.635776 -1.91839 0
M  V30 4038 C 356.313 0.832312 -1.76345 0
M  V30 4039 O 355.583 1.5946 -1.13795 0
M  V30 4040 H 354.163 -0.232157 -0.710009 0
M  V30 4041 H 356.825 -1.23462 -1.50809 0
M  V30 4042 H 355.921 -0.880545 -2.99421 0
M  V30 4043 N 356.222 1.38976 -0.743202 0
M  V30 4044 C 357.469 2.00343 -0.294752 0
M  V30 4045 C 357.797 1.58983 1.12047 0
M  V30 4046 O 357.052 0.813809 1.77977 0
M  V30 4047 C 357.351 3.55647 -0.353517 0
M  V30 4048 C 357.017 4.16685 -1.72292 0
M  V30 4049 C 355.679 4.3307 -2.09771 0
M  V30 4050 C 358.031 4.50464 -2.62168 0
M  V30 4051 C 355.359 4.80526 -3.36618 0
M  V30 4052 C 357.711 4.99332 -3.88395 0
M  V30 4053 C 356.375 5.13924 -4.25956 0
M  V30 4054 H 355.645 0.733108 -0.107857 0
M  V30 4055 H 358.292 1.6618 -0.951651 0
M  V30 4056 H 356.597 3.89884 0.386954 0
M  V30 4057 H 358.294 4.00998 0.0117269 0
M  V30 4058 H 354.884 4.04339 -1.42155 0
M  V30 4059 H 359.068 4.37416 -2.3448 0
M  V30 4060 H 354.324 4.90008 -3.65653 0
M  V30 4061 H 358.498 5.2444 -4.58187 0
M  V30 4062 H 356.125 5.50457 -5.2431 0
M  V30 4063 N 357.7 0.491464 1.49741 0
M  V30 4064 C 358.925 -0.0557177 2.07325 0
M  V30 4065 C 359.35 -1.30925 1.35056 0
M  V30 4066 O 358.708 -1.76733 0.404365 0
M  V30 4067 C 358.756 -0.302074 3.59333 0
M  V30 4068 O 357.86 -1.37868 3.88672 0
M  V30 4069 H 357.201 0.0219956 0.663636 0
M  V30 4070 H 359.731 0.688352 1.92673 0
M  V30 4071 H 359.741 -0.536464 4.04458 0
M  V30 4072 H 358.416 0.61383 4.11345 0
M  V30 4073 H 356.993 -1.12999 3.55367 0
M  V30 4074 N 359.178 -1.55987 0.224894 0
M  V30 4075 C 360.425 -1.9839 -0.4059 0
M  V30 4076 C 360.753 -1.11261 -1.59535 0
M  V30 4077 O 360.008 -0.158314 -1.95059 0
M  V30 4078 C 360.307 -3.46394 -0.880106 0
M  V30 4079 C 359.973 -4.5046 0.19918 0
M  V30 4080 C 358.635 -4.7864 0.495661 0
M  V30 4081 C 360.987 -5.12855 0.928939 0
M  V30 4082 C 358.315 -5.66497 1.52636 0
M  V30 4083 C 360.667 -6.01828 1.949 0
M  V30 4084 C 359.331 -6.28351 2.25236 0
M  V30 4085 H 358.601 -0.725961 -0.148529 0
M  V30 4086 H 361.248 -1.88668 0.328113 0
M  V30 4087 H 359.553 -3.53337 -1.69294 0
M  V30 4088 H 361.25 -3.76577 -1.37808 0
M  V30 4089 H 357.84 -4.28579 -0.0420526 0
M  V30 4090 H 362.024 -4.9115 0.713129 0
M  V30 4091 H 357.28 -5.8531 1.76698 0
M  V30 4092 H 361.454 -6.49225 2.51951 0
M  V30 4093 H 359.081 -6.96226 3.05244 0
M  V30 4094 N 360.656 0.0484629 -1.57525 0
M  V30 4095 C 361.905 0.742065 -1.87553 0
M  V30 4096 C 362.218 1.77545 -0.820802 0
M  V30 4097 O 363.424 2.52027 -1.00967 0
M  V30 4098 C 361.88 1.37081 -3.32771 0
M  V30 4099 C 361.488 0.374786 -4.4643 0
M  V30 4100 C 363.232 2.04542 -3.71972 0
M  V30 4101 C 361.139 1.01077 -5.82698 0
M  V30 4102 H 360.069 0.280903 -0.699721 0
M  V30 4103 H 362.72 -0.00411877 -1.835 0
M  V30 4104 H 361.102 2.16605 -3.31509 0
M  V30 4105 H 362.276 -0.392331 -4.59127 0
M  V30 4106 H 360.591 -0.196653 -4.15935 0
M  V30 4107 H 363.188 2.52943 -4.71088 0
M  V30 4108 H 363.531 2.85515 -3.02964 0
M  V30 4109 H 364.064 1.31819 -3.75325 0
M  V30 4110 H 360.803 0.240878 -6.55057 0
M  V30 4111 H 360.323 1.74819 -5.73758 0
M  V30 4112 H 362.002 1.52383 -6.28799 0
M  V30 4113 N 362.134 1.5431 0.320358 0
M  V30 4114 C 363.044 1.86946 1.41734 0
M  V30 4115 C 364.06 0.761689 1.56443 0
M  V30 4116 O 365.236 1.05629 1.71477 0
M  V30 4117 C 362.301 2.09293 2.76401 0
M  V30 4118 C 361.362 3.33082 2.70841 0
M  V30 4119 C 360.595 3.54353 3.99086 0
M  V30 4120 O 360.818 2.79002 4.97508 0
M  V30 4121 O 359.752 4.47838 4.0215 0
M  V30 4122 H 363.578 2.80232 1.17062 0
M  V30 4123 H 361.163 1.40255 0.514673 0
M  V30 4124 H 363.045 2.25303 3.56113 0
M  V30 4125 H 361.72 1.19194 3.00956 0
M  V30 4126 H 360.627 3.22454 1.89668 0
M  V30 4127 H 361.96 4.23249 2.5124 0
M  V30 4128 N 363.613 -0.582584 1.46437 0
M  V30 4129 C 364.862 -1.337 1.5102 0
M  V30 4130 C 365.175 -1.94891 0.166359 0
M  V30 4131 O 366.381 -2.71351 0.0899954 0
M  V30 4132 C 364.837 -2.42315 2.66104 0
M  V30 4133 C 364.445 -1.87427 4.06909 0
M  V30 4134 C 366.189 -3.19099 2.79958 0
M  V30 4135 C 364.096 -2.93672 5.13333 0
M  V30 4136 H 363.026 -0.502619 0.562041 0
M  V30 4137 H 365.677 -0.621701 1.72647 0
M  V30 4138 H 364.059 -3.16645 2.37807 0
M  V30 4139 H 365.233 -1.19639 4.44998 0
M  V30 4140 H 363.548 -1.2331 3.97723 0
M  V30 4141 H 366.145 -3.9839 3.56636 0
M  V30 4142 H 366.488 -3.71695 1.87479 0
M  V30 4143 H 367.021 -2.51875 3.07902 0
M  V30 4144 H 363.76 -2.45962 6.07604 0
M  V30 4145 H 363.28 -3.59948 4.79789 0
M  V30 4146 H 364.959 -3.5762 5.39182 0
M  V30 4147 N 365.091 -1.34144 -0.827227 0
M  V30 4148 C 366.339 -1.26009 -1.58007 0
M  V30 4149 C 366.66 0.170971 -1.94249 0
M  V30 4150 O 365.93 1.10256 -1.61927 0
M  V30 4151 H 364.51 -0.463414 -0.585881 0
M  V30 4152 H 367.172 -1.68005 -0.987951 0
M  V30 4153 H 366.268 -1.86187 -2.50481 0
M  V30 4154 N 366.569 1.04691 -1.17803 0
M  V30 4155 C 367.797 1.81446 -0.99423 0
M  V30 4156 C 368.212 1.83174 0.457459 0
M  V30 4157 O 367.569 1.26265 1.31771 0
M  V30 4158 C 367.62 3.27334 -1.5341 0
M  V30 4159 O 367.341 3.25798 -2.92895 0
M  V30 4160 C 368.842 4.20759 -1.39559 0
M  V30 4161 H 366.062 0.571599 -0.351447 0
M  V30 4162 H 368.606 1.31982 -1.56208 0
M  V30 4163 H 366.761 3.74052 -1.00815 0
M  V30 4164 H 367.175 4.17144 -3.17949 0
M  V30 4165 H 368.649 5.21084 -1.82141 0
M  V30 4166 H 369.126 4.37856 -0.343394 0
M  V30 4167 H 369.732 3.79901 -1.91195 0
M  V30 4168 N 368.047 0.979072 1.23499 0
M  V30 4169 C 369.296 0.642751 1.91185 0
M  V30 4170 C 369.609 -0.827253 1.77245 0
M  V30 4171 O 370.815 -1.27458 2.39722 0
M  V30 4172 C 369.271 1.09901 3.42709 0
M  V30 4173 C 368.879 2.59327 3.65313 0
M  V30 4174 C 370.623 0.836371 4.16179 0
M  V30 4175 C 368.53 2.98627 5.10467 0
M  V30 4176 H 367.46 0.236698 0.715884 0
M  V30 4177 H 370.111 1.1868 1.39955 0
M  V30 4178 H 368.493 0.48319 3.93041 0
M  V30 4179 H 369.667 3.26136 3.25533 0
M  V30 4180 H 367.982 2.83323 3.05151 0
M  V30 4181 H 370.579 1.10586 5.23139 0
M  V30 4182 H 370.922 -0.227509 4.15678 0
M  V30 4183 H 371.455 1.41371 3.71832 0
M  V30 4184 H 368.194 4.04133 5.16098 0
M  V30 4185 H 367.714 2.3651 5.51201 0
M  V30 4186 H 369.393 2.89159 5.78788 0
M  V30 4187 N 369.525 -1.3858 0.750561 0
M  V30 4188 C 370.753 -2.04471 0.316098 0
M  V30 4189 C 371.168 -1.56606 -1.05452 0
M  V30 4190 O 370.525 -0.737784 -1.66922 0
M  V30 4191 C 370.576 -3.60025 0.326275 0
M  V30 4192 O 370.297 -4.06133 1.6428 0
M  V30 4193 C 371.798 -4.43131 -0.122429 0
M  V30 4194 H 369.018 -0.65717 0.135528 0
M  V30 4195 H 371.562 -1.77329 1.01857 0
M  V30 4196 H 369.717 -3.86014 -0.327431 0
M  V30 4197 H 370.131 -5.00547 1.56693 0
M  V30 4198 H 371.605 -5.51963 -0.0641473 0
M  V30 4199 H 372.082 -4.23333 -1.16988 0
M  V30 4200 H 372.688 -4.22323 0.50229 0
M  V30 4201 N 371.003 -0.499398 -1.49478 0
M  V30 4202 C 372.414 -0.051215 -1.8663 0
M  V30 4203 C 372.765 1.36238 -1.41186 0
M  V30 4204 O 371.89 2.01502 -0.789051 0
M  V30 4205 C 372.485 -0.0861651 -3.3869 0
M  V30 4206 C 371.044 0.30667 -3.75149 0
M  V30 4207 C 370.191 -0.459397 -2.73468 0
M  V30 4208 H 373.142 -0.712264 -1.41818 0
M  V30 4209 H 373.163 0.709507 -3.73826 0
M  V30 4210 H 372.675 -1.11512 -3.71735 0
M  V30 4211 H 370.776 1.33892 -3.47712 0
M  V30 4212 H 370.889 -0.0116669 -4.79099 0
M  V30 4213 H 369.253 0.0905645 -2.54539 0
M  V30 4214 H 370.036 -1.4884 -3.09357 0
M  V30 4215 N 372.481 1.55866 -0.233164 0
M  V30 4216 C 373.897 1.59133 0.121988 0
M  V30 4217 C 374.097 1.25016 1.58029 0
M  V30 4218 O 373.153 0.990922 2.32243 0
M  V30 4219 C 374.466 2.99932 -0.214792 0
M  V30 4220 C 376.014 3.12601 -0.157971 0
M  V30 4221 C 376.489 4.55597 -0.46859 0
M  V30 4222 N 377.98 4.61305 -0.418585 0
M  V30 4223 C 378.715 5.69903 -0.63227 0
M  V30 4224 N 378.211 6.86819 -0.90835 0
M  V30 4225 N 380.004 5.59264 -0.563913 0
M  V30 4226 H 372.155 1.76315 -1.18434 0
M  V30 4227 H 374.418 0.820093 -0.475553 0
M  V30 4228 H 374.124 3.29588 -1.22739 0
M  V30 4229 H 373.998 3.74327 0.464691 0
M  V30 4230 H 376.385 2.82735 0.845283 0
M  V30 4231 H 376.466 2.40511 -0.871102 0
M  V30 4232 H 376.11 4.86182 -1.46934 0
M  V30 4233 H 376.04 5.25928 0.265865 0
M  V30 4234 H 378.531 3.77297 -0.213368 0
M  V30 4235 H 378.844 7.65507 -1.05919 0
M  V30 4236 H 377.189 6.88536 -0.945673 0
M  V30 4237 H 380.38 4.66802 -0.348372 0
M  V30 4238 H 380.553 6.43831 -0.733847 0
M  V30 4239 N 373.959 -0.0401083 1.57549 0
M  V30 4240 C 375.207 -0.731677 1.8839 0
M  V30 4241 C 375.528 -1.76481 0.829425 0
M  V30 4242 O 374.798 -1.95411 -0.1383 0
M  V30 4243 H 373.378 -0.273225 0.695239 0
M  V30 4244 H 376.04 -0.00867725 1.94898 0
M  V30 4245 H 375.136 -1.22816 2.86919 0
M  V30 4246 N 375.437 -1.54477 -0.31217 0
M  V30 4247 C 376.369 -1.81011 -1.40598 0
M  V30 4248 C 377.382 -0.692546 -1.47335 0
M  V30 4249 O 378.571 -0.969847 -1.49854 0
M  V30 4250 C 375.671 -1.92307 -2.79054 0
M  V30 4251 C 374.844 -3.22594 -2.95384 0
M  V30 4252 C 373.903 -3.24448 -4.1427 0
M  V30 4253 O 372.929 -3.98035 -4.06887 0
M  V30 4254 N 374.131 -2.49042 -5.24365 0
M  V30 4255 H 376.896 -2.75408 -1.18196 0
M  V30 4256 H 374.457 -1.53914 -0.502202 0
M  V30 4257 H 376.449 -1.90962 -3.56813 0
M  V30 4258 H 375.019 -1.04955 -2.94454 0
M  V30 4259 H 374.239 -3.36806 -2.04831 0
M  V30 4260 H 375.527 -4.08593 -3.03198 0
M  V30 4261 H 374.925 -1.88867 -5.33241 0
M  V30 4262 H 373.482 -2.53463 -6.005 0
M  V30 4263 N 376.915 0.57481 -1.46744 0
M  V30 4264 C 378.143 1.35856 -1.56047 0
M  V30 4265 C 378.558 1.87691 -0.204365 0
M  V30 4266 O 377.915 1.64049 0.79963 0
M  V30 4267 C 377.966 2.54066 -2.57163 0
M  V30 4268 O 377.687 2.04377 -3.87507 0
M  V30 4269 C 379.188 3.46514 -2.76483 0
M  V30 4270 H 376.408 0.414754 -0.527466 0
M  V30 4271 H 378.952 0.698035 -1.92218 0
M  V30 4272 H 377.107 3.16092 -2.23974 0
M  V30 4273 H 377.521 2.81419 -4.4261 0
M  V30 4274 H 378.995 4.25919 -3.51137 0
M  V30 4275 H 379.472 3.98951 -1.83671 0
M  V30 4276 H 380.078 2.90318 -3.10799 0
M  V30 4277 N 378.394 1.34581 0.820102 0
M  V30 4278 C 379.642 1.26845 1.57336 0
M  V30 4279 C 379.963 -0.160667 1.94337 0
M  V30 4280 O 379.233 -1.09396 1.6251 0
M  V30 4281 H 377.813 0.466514 0.583415 0
M  V30 4282 H 380.475 1.68526 0.979027 0
M  V30 4283 H 379.571 1.87513 2.4949 0
M  V30 4284 N 379.872 -1.04064 1.18357 0
M  V30 4285 C 380.82 -2.14187 0.907007 0
M  V30 4286 C 381.814 -1.68879 -0.132725 0
M  V30 4287 O 383.02 -1.79993 0.0154248 0
M  V30 4288 H 379.395 -0.699585 0.275835 0
M  V30 4289 H 381.366 -2.34711 1.84264 0
M  V30 4290 C 380.115 -3.44785 0.449254 0
M  V30 4291 H 379.438 -3.80058 1.24081 0
M  V30 4292 H 380.878 -4.22974 0.294737 0
M  V30 4293 C 379.337 -3.26391 -0.834909 0
M  V30 4294 O 379.867 -3.53973 -1.89911 0
M  V30 4295 N 378.073 -2.79726 -0.787523 0
M  V30 4296 H 377.62 -2.5748 0.0787347 0
M  V30 4297 H 377.578 -2.67798 -1.64716 0
M  V30 4298 N 381.35 -0.985608 -1.22978 0
M  V30 4299 C 382.313 -0.535071 -2.22867 0
M  V30 4300 C 383.313 0.378123 -1.56291 0
M  V30 4301 O 384.503 0.171092 -1.73358 0
M  V30 4302 C 381.635 0.222702 -3.40172 0
M  V30 4303 H 382.828 -1.41835 -2.6424 0
M  V30 4304 H 380.381 -0.772042 -1.35901 0
M  V30 4305 H 381.116 1.12229 -3.04262 0
M  V30 4306 H 380.901 -0.43288 -3.89703 0
M  V30 4307 H 382.391 0.526335 -4.1427 0
M  V30 4308 N 382.828 1.3818 -0.7579 0
M  V30 4309 C 383.775 2.30416 -0.133057 0
M  V30 4310 C 384.745 1.50398 0.704957 0
M  V30 4311 O 385.93 1.79014 0.660192 0
M  V30 4312 C 383.07 3.36834 0.750813 0
M  V30 4313 C 382.183 4.31879 -0.102297 0
M  V30 4314 C 381.318 5.25368 0.784979 0
M  V30 4315 C 380.357 6.12058 -0.0715046 0
M  V30 4316 N 379.494 6.97832 0.772972 0
M  V30 4317 H 384.334 2.83274 -0.925186 0
M  V30 4318 H 381.871 1.39461 -0.467866 0
M  V30 4319 H 383.829 3.97145 1.27794 0
M  V30 4320 H 382.459 2.85374 1.50868 0
M  V30 4321 H 381.511 3.72991 -0.747095 0
M  V30 4322 H 382.823 4.92921 -0.763552 0
M  V30 4323 H 381.977 5.90818 1.37911 0
M  V30 4324 H 380.716 4.64703 1.47996 0
M  V30 4325 H 379.721 5.456 -0.678272 0
M  V30 4326 H 380.946 6.74793 -0.763606 0
M  V30 4327 H 378.892 6.3971 1.45282 0
M  V30 4328 H 378.809 7.55812 0.168709 0
M  V30 4329 H 380.077 7.67687 1.35194 0
M  V30 4330 N 384.306 0.507319 1.49211 0
M  V30 4331 C 385.717 0.0611118 1.866 0
M  V30 4332 C 386.068 -1.35488 1.41907 0
M  V30 4333 O 385.193 -2.0108 0.799726 0
M  V30 4334 C 385.788 0.104125 3.3864 0
M  V30 4335 C 384.347 -0.28677 3.75306 0
M  V30 4336 C 383.494 0.473893 2.73221 0
M  V30 4337 H 386.445 0.719775 1.41439 0
M  V30 4338 H 386.466 -0.689672 3.74198 0
M  V30 4339 H 385.978 1.13482 3.71138 0
M  V30 4340 H 384.079 -1.32046 3.48417 0
M  V30 4341 H 384.192 0.0370745 4.79086 0
M  V30 4342 H 382.556 -0.0770644 2.54583 0
M  V30 4343 H 383.339 1.50478 3.08563 0
M  V30 4344 N 385.784 -1.5574 0.241426 0
M  V30 4345 C 387.2 -1.59196 -0.113548 0
M  V30 4346 C 387.4 -1.25852 -1.57364 0
M  V30 4347 O 386.456 -1.00322 -2.31715 0
M  V30 4348 C 387.769 -2.99814 0.230695 0
M  V30 4349 C 389.317 -3.12513 0.174547 0
M  V30 4350 C 389.792 -4.55342 0.492744 0
M  V30 4351 N 391.283 -4.61076 0.443043 0
M  V30 4352 C 392.018 -5.6956 0.662484 0
M  V30 4353 N 391.514 -6.86328 0.944761 0
M  V30 4354 N 393.307 -5.58957 0.593564 0
M  V30 4355 H 385.458 -1.75685 1.19368 0
M  V30 4356 H 387.721 -0.81756 0.479896 0
M  V30 4357 H 387.427 -3.28932 1.24485 0
M  V30 4358 H 387.301 -3.74568 -0.444833 0
M  V30 4359 H 389.688 -2.83179 -0.830277 0
M  V30 4360 H 389.769 -2.40045 0.883845 0
M  V30 4361 H 389.413 -4.85396 1.4951 0
M  V30 4362 H 389.343 -5.26062 -0.23797 0
M  V30 4363 H 391.834 -3.77179 0.233374 0
M  V30 4364 H 392.147 -7.64935 1.09977 0
M  V30 4365 H 390.492 -6.88025 0.982175 0
M  V30 4366 H 393.683 -4.66611 0.373123 0
M  V30 4367 H 393.856 -6.43433 0.767981 0
M  V30 4368 N 387.262 0.0317525 -1.57568 0
M  V30 4369 C 388.511 0.722131 -1.8833 0
M  V30 4370 C 388.824 1.76664 -0.839587 0
M  V30 4371 O 390.03 2.50942 -1.03635 0
M  V30 4372 C 388.486 1.33544 -3.34207 0
M  V30 4373 C 388.094 0.327415 -4.46802 0
M  V30 4374 C 389.838 2.00585 -3.7412 0
M  V30 4375 C 387.745 0.948915 -5.83738 0
M  V30 4376 H 386.675 0.273466 -0.702661 0
M  V30 4377 H 389.326 -0.0235811 -1.83485 0
M  V30 4378 H 387.708 2.13077 -3.33788 0
M  V30 4379 H 388.882 -0.441006 -4.58685 0
M  V30 4380 H 387.197 -0.240758 -4.15703 0
M  V30 4381 H 389.794 2.47932 -4.73744 0
M  V30 4382 H 390.137 2.82285 -3.05975 0
M  V30 4383 H 390.67 1.27831 -3.76702 0
M  V30 4384 H 387.409 0.171387 -6.55276 0
M  V30 4385 H 386.929 1.68724 -5.7558 0
M  V30 4386 H 388.608 1.45705 -6.3038 0
M  V30 4387 N 388.74 1.54641 0.303973 0
M  V30 4388 C 389.987 1.7378 1.03955 0
M  V30 4389 C 390.315 0.521986 1.87365 0
M  V30 4390 O 389.57 -0.496099 1.89308 0
M  V30 4391 C 389.869 2.97753 1.97681 0
M  V30 4392 C 389.535 4.31671 1.30271 0
M  V30 4393 C 388.197 4.68075 1.11619 0
M  V30 4394 C 390.549 5.147 0.82055 0
M  V30 4395 C 387.877 5.8509 0.434304 0
M  V30 4396 C 390.229 6.32416 0.152395 0
M  V30 4397 C 388.893 6.67484 -0.0461067 0
M  V30 4398 H 388.163 0.635908 0.380398 0
M  V30 4399 H 390.81 1.88896 0.314718 0
M  V30 4400 H 389.115 2.77406 2.76682 0
M  V30 4401 H 390.812 3.09756 2.54661 0
M  V30 4402 H 387.402 4.03041 1.45795 0
M  V30 4403 H 391.586 4.87077 0.952374 0
M  V30 4404 H 386.842 6.10806 0.269495 0
M  V30 4405 H 391.016 6.96023 -0.229126 0
M  V30 4406 H 388.643 7.58011 -0.576494 0
M  V30 4407 N 390.218 -0.567019 1.47046 0
M  V30 4408 C 391.634 -0.891975 1.32348 0
M  V30 4409 C 391.834 -1.99154 0.306616 0
M  V30 4410 O 390.89 -2.50883 -0.28532 0
M  V30 4411 C 392.203 -1.29449 2.7141 0
M  V30 4412 C 393.751 -1.40646 2.79621 0
M  V30 4413 C 394.226 -1.84257 4.19301 0
M  V30 4414 N 395.717 -1.91424 4.21795 0
M  V30 4415 C 396.452 -2.26476 5.26779 0
M  V30 4416 N 395.948 -2.60211 6.42077 0
M  V30 4417 N 397.741 -2.27166 5.14152 0
M  V30 4418 H 389.892 0.159074 2.11803 0
M  V30 4419 H 392.155 0.00849752 0.947962 0
M  V30 4420 H 391.861 -0.560448 3.47206 0
M  V30 4421 H 391.735 -2.25273 3.02542 0
M  V30 4422 H 394.122 -2.13133 2.04104 0
M  V30 4423 H 394.203 -0.430339 2.52154 0
M  V30 4424 H 393.847 -1.12343 4.95319 0
M  V30 4425 H 393.777 -2.82855 4.44185 0
M  V30 4426 H 396.268 -1.6778 3.38612 0
M  V30 4427 H 396.581 -2.85956 7.17948 0
M  V30 4428 H 394.926 -2.57813 6.45413 0
M  V30 4429 H 398.117 -2.00244 4.23107 0
M  V30 4430 H 398.29 -2.54154 5.96079 0
M  V30 4431 N 391.696 -1.35014 -0.812953 0
M  V30 4432 C 392.973 -1.18502 -1.55617 0
M  V30 4433 C 393.353 0.238421 -2.09749 0
M  V30 4434 O 392.701 1.2411 -1.91857 0
M  V30 4435 C 392.911 -2.24783 -2.66971 0
M  V30 4436 C 394.259 -2.60268 -3.35478 0
M  V30 4437 O 395.283 -2.23648 -2.77236 0
M  V30 4438 O 394.142 -3.2321 -4.40678 0
M  V30 4439 H 391.236 -0.459984 -0.687272 0
M  V30 4440 H 393.782 -1.46677 -0.853464 0
M  V30 4441 H 392.554 -3.20284 -2.24798 0
M  V30 4442 H 392.177 -1.97841 -3.44884 0
M  V30 4443 N 393.175 1.03435 -1.18907 0
M  V30 4444 C 394.421 1.77005 -0.989798 0
M  V30 4445 C 394.754 1.88205 0.478816 0
M  V30 4446 O 394.029 1.39481 1.35556 0
M  V30 4447 C 394.312 3.19925 -1.65287 0
M  V30 4448 C 394.165 3.1663 -3.19477 0
M  V30 4449 C 395.484 4.18189 -1.37134 0
M  V30 4450 H 392.603 0.642538 -0.360991 0
M  V30 4451 H 395.245 1.20784 -1.46667 0
M  V30 4452 H 393.395 3.67929 -1.24741 0
M  V30 4453 H 395.067 2.76567 -3.692 0
M  V30 4454 H 393.31 2.54491 -3.51307 0
M  V30 4455 H 393.981 4.1758 -3.61013 0
M  V30 4456 H 396.457 3.78761 -1.72276 0
M  V30 4457 H 395.333 5.16394 -1.86087 0
M  V30 4458 H 395.594 4.41112 -0.295424 0
M  V30 4459 N 394.653 0.992116 1.22453 0
M  V30 4460 C 395.563 0.55065 2.28046 0
M  V30 4461 C 396.579 -0.400189 1.69335 0
M  V30 4462 O 397.755 -0.267215 1.99619 0
M  V30 4463 C 394.82 -0.128496 3.46462 0
M  V30 4464 C 393.881 0.865208 4.20491 0
M  V30 4465 C 393.114 0.218377 5.33253 0
M  V30 4466 O 393.337 -0.987894 5.6178 0
M  V30 4467 O 392.271 0.922845 5.94783 0
M  V30 4468 H 396.097 1.4291 2.67975 0
M  V30 4469 H 393.682 0.760326 1.28606 0
M  V30 4470 H 395.564 -0.508947 4.18315 0
M  V30 4471 H 394.239 -0.981526 3.0846 0
M  V30 4472 H 393.146 1.29658 3.50913 0
M  V30 4473 H 394.479 1.68741 4.62371 0
M  V30 4474 N 396.131 -1.37776 0.765217 0
M  V30 4475 C 397.356 -2.04651 0.336537 0
M  V30 4476 C 397.781 -1.57337 -1.03086 0
M  V30 4477 O 397.139 -0.730621 -1.65927 0
M  V30 4478 C 397.187 -3.58577 0.381468 0
M  V30 4479 O 396.291 -4.07706 -0.62042 0
M  V30 4480 H 395.632 -0.64756 0.146838 0
M  V30 4481 H 398.162 -1.76221 1.03959 0
M  V30 4482 H 398.172 -4.07314 0.236448 0
M  V30 4483 H 396.847 -3.9237 1.37907 0
M  V30 4484 H 395.424 -3.70306 -0.439056 0
M  V30 4485 N 397.609 -0.515225 -1.4894 0
M  V30 4486 C 399.025 -0.172099 -1.58669 0
M  V30 4487 C 399.225 1.32405 -1.51892 0
M  V30 4488 O 398.281 2.10116 -1.40027 0
M  V30 4489 C 399.594 -0.761533 -2.90897 0
M  V30 4490 C 401.142 -0.728926 -3.04394 0
M  V30 4491 C 401.617 -1.29667 -4.39261 0
M  V30 4492 N 403.108 -1.25799 -4.4579 0
M  V30 4493 C 403.843 -1.66733 -5.48623 0
M  V30 4494 N 403.339 -2.15327 -6.58488 0
M  V30 4495 N 405.132 -1.58061 -5.39419 0
M  V30 4496 H 397.283 -1.48778 -1.51588 0
M  V30 4497 H 399.546 -0.617968 -0.718901 0
M  V30 4498 H 399.252 -1.81136 -3.01468 0
M  V30 4499 H 399.126 -0.230106 -3.76497 0
M  V30 4500 H 401.513 0.312098 -2.93445 0
M  V30 4501 H 401.594 -1.29766 -2.20442 0
M  V30 4502 H 401.238 -2.33655 -4.50963 0
M  V30 4503 H 401.168 -0.703752 -5.21876 0
M  V30 4504 H 403.659 -0.902102 -3.66975 0
M  V30 4505 H 403.972 -2.44594 -7.33071 0
M  V30 4506 H 402.317 -2.19311 -6.59491 0
M  V30 4507 H 405.508 -1.19906 -4.52482 0
M  V30 4508 H 405.681 -1.90284 -6.19432 0
M  V30 4509 N 399.087 1.5561 -0.249682 0
M  V30 4510 C 400.312 2.03865 0.381305 0
M  V30 4511 C 400.737 1.12769 1.50548 0
M  V30 4512 O 400.095 0.121189 1.80895 0
M  V30 4513 C 400.143 3.50101 0.863816 0
M  V30 4514 O 399.247 3.62132 1.97318 0
M  V30 4515 H 398.588 0.658827 0.0827194 0
M  V30 4516 H 401.118 2.01105 -0.376552 0
M  V30 4517 H 401.128 3.90975 1.1663 0
M  V30 4518 H 399.803 4.1588 0.0411816 0
M  V30 4519 H 398.38 3.33155 1.67517 0
M  V30 4520 N 400.565 -0.0233959 1.57583 0
M  V30 4521 C 401.814 -0.712133 1.8871 0
M  V30 4522 C 402.127 -1.76217 0.848944 0
M  V30 4523 O 403.333 -2.50389 1.04964 0
M  V30 4524 C 401.789 -1.3177 3.3491 0
M  V30 4525 C 401.397 -0.303715 4.46969 0
M  V30 4526 C 403.141 -1.98598 3.75179 0
M  V30 4527 C 401.048 -0.917945 5.84233 0
M  V30 4528 H 399.978 -0.269735 0.704101 0
M  V30 4529 H 402.629 0.0333114 1.8347 0
M  V30 4530 H 401.011 -2.11304 3.34913 0
M  V30 4531 H 402.185 0.465325 4.58445 0
M  V30 4532 H 400.5 0.2628 4.1557 0
M  V30 4533 H 403.097 -2.45416 4.75053 0
M  V30 4534 H 403.44 -2.80659 3.07468 0
M  V30 4535 H 403.973 -1.25831 3.77374 0
M  V30 4536 H 400.712 -0.136633 6.55358 0
M  V30 4537 H 400.232 -1.65669 5.76467 0
M  V30 4538 H 401.911 -1.4236 6.31144 0
M  V30 4539 N 402.043 -1.548 -0.295768 0
M  V30 4540 C 403.292 -1.73538 -1.02798 0
M  V30 4541 C 403.605 -0.531159 -1.8825 0
M  V30 4542 O 404.811 -0.600458 -2.64777 0
M  V30 4543 C 403.267 -3.07051 -1.87744 0
M  V30 4544 C 402.875 -4.34968 -1.07269 0
M  V30 4545 C 404.619 -3.35146 -2.60533 0
M  V30 4546 C 402.526 -5.5953 -1.91521 0
M  V30 4547 H 401.456 -0.646794 -0.387522 0
M  V30 4548 H 404.107 -1.81278 -0.284718 0
M  V30 4549 H 402.489 -2.93289 -2.66078 0
M  V30 4550 H 403.663 -4.5958 -0.335117 0
M  V30 4551 H 401.978 -4.13847 -0.460384 0
M  V30 4552 H 404.575 -4.2541 -3.23929 0
M  V30 4553 H 404.918 -2.54255 -3.29636 0
M  V30 4554 H 405.451 -3.49902 -1.89244 0
M  V30 4555 H 402.19 -6.43103 -1.26878 0
M  V30 4556 H 401.71 -5.39096 -2.62937 0
M  V30 4557 H 403.389 -5.96982 -2.49442 0
M  V30 4558 N 403.521 0.559213 -1.47345 0
M  V30 4559 C 404.469 1.68747 -1.60085 0
M  V30 4560 C 405.463 1.628 -0.46825 0
M  V30 4561 O 406.669 1.68009 -0.645977 0
M  V30 4562 H 403.044 0.558329 -0.503759 0
M  V30 4563 H 405.015 1.55138 -2.54902 0
M  V30 4564 C 403.764 3.07103 -1.63042 0
M  V30 4565 H 403.087 3.12361 -2.49541 0
M  V30 4566 H 404.527 3.85743 -1.76006 0
M  V30 4567 C 402.986 3.34935 -0.363357 0
M  V30 4568 O 403.516 3.98102 0.536416 0
M  V30 4569 N 401.722 2.89574 -0.244 0
M  V30 4570 H 401.269 2.38348 -0.977133 0
M  V30 4571 H 401.227 3.08566 0.602836 0
M  V30 4572 N 404.999 1.35443 0.805782 0
M  V30 4573 C 406.224 1.32037 1.59941 0
M  V30 4574 C 406.649 -0.0994215 1.87837 0
M  V30 4575 O 406.007 -1.06648 1.46615 0
M  V30 4576 C 406.055 2.13354 2.90711 0
M  V30 4577 O 405.159 1.5148 3.83572 0
M  V30 4578 H 404.5 0.452666 0.485787 0
M  V30 4579 H 407.03 1.78496 1.00002 0
M  V30 4580 H 407.04 2.25338 3.40128 0
M  V30 4581 H 405.715 3.16572 2.69732 0
M  V30 4582 H 404.292 1.4834 3.42125 0
M  V30 4583 N 406.477 -1.02803 1.19454 0
M  V30 4584 C 407.717 -1.77769 1.00883 0
M  V30 4585 C 408.081 -1.86596 -0.45233 0
M  V30 4586 O 409.282 -2.57895 -0.757877 0
M  V30 4587 C 407.553 -3.16486 1.66046 0
M  V30 4588 S 409.112 -4.07632 1.62424 0
M  V30 4589 H 405.93 -0.611949 0.361993 0
M  V30 4590 H 408.532 -1.23175 1.51816 0
M  V30 4591 H 407.236 -3.0768 2.7159 0
M  V30 4592 H 406.767 -3.76156 1.15196 0
M  V30 4593 H 408.782 -4.91937 0.64903 0
M  V30 4594 N 407.956 -0.998596 -1.21925 0
M  V30 4595 C 409.204 -0.676325 -1.90448 0
M  V30 4596 C 409.525 0.794719 -1.78071 0
M  V30 4597 O 408.795 1.5701 -1.17152 0
M  V30 4598 H 407.375 -0.247165 -0.704925 0
M  V30 4599 H 410.037 -1.26633 -1.48156 0
M  V30 4600 H 409.133 -0.943858 -2.97486 0
M  V30 4601 N 409.434 1.37368 -0.772513 0
M  V30 4602 C 410.681 1.99673 -0.337182 0
M  V30 4603 C 411.009 1.61324 1.0865 0
M  V30 4604 O 410.264 0.851377 1.7621 0
M  V30 4605 C 410.563 3.54817 -0.428876 0
M  V30 4606 C 410.229 4.12936 -1.81092 0
M  V30 4607 C 408.891 4.28523 -2.1891 0
M  V30 4608 C 411.243 4.44801 -2.71664 0
M  V30 4609 C 408.571 4.73277 -3.46735 0
M  V30 4610 C 410.923 4.90981 -3.98899 0
M  V30 4611 C 409.587 5.04773 -4.36761 0
M  V30 4612 H 408.857 0.730656 -0.123384 0
M  V30 4613 H 411.504 1.64124 -0.986686 0
M  V30 4614 H 409.809 3.90618 0.304167 0
M  V30 4615 H 411.506 4.00933 -0.0733334 0
M  V30 4616 H 408.096 4.01233 -1.50699 0
M  V30 4617 H 412.28 4.32344 -2.43706 0
M  V30 4618 H 407.536 4.82142 -3.75964 0
M  V30 4619 H 411.71 5.14603 -4.69208 0
M  V30 4620 H 409.337 5.39211 -5.35868 0
M  V30 4621 N 410.912 0.523116 1.48665 0
M  V30 4622 C 411.86 -0.256859 2.31177 0
M  V30 4623 C 412.854 -0.94199 1.40794 0
M  V30 4624 O 414.06 -0.867157 1.57735 0
M  V30 4625 H 410.435 -0.1017 0.745091 0
M  V30 4626 H 412.406 0.458739 2.94853 0
M  V30 4627 C 411.155 -1.29503 3.22683 0
M  V30 4628 H 410.478 -0.777248 3.92172 0
M  V30 4629 H 411.918 -1.81233 3.83315 0
M  V30 4630 C 410.377 -2.32501 2.43813 0
M  V30 4631 O 410.907 -3.3881 2.15803 0
M  V30 4632 N 409.113 -2.05538 2.05432 0
M  V30 4633 H 408.66 -1.19104 2.28412 0
M  V30 4634 H 408.618 -2.74676 1.52973 0
M  V30 4635 N 412.39 -1.55475 0.257931 0
M  V30 4636 C 413.338 -2.23244 -0.653076 0
M  V30 4637 C 414.332 -1.22366 -1.17144 0
M  V30 4638 O 415.538 -1.40347 -1.12706 0
M  V30 4639 H 411.913 -0.716247 -0.229117 0
M  V30 4640 H 413.884 -2.98343 -0.0584788 0
M  V30 4641 C 412.633 -2.95401 -1.83395 0
M  V30 4642 H 411.956 -3.72802 -1.44424 0
M  V30 4643 H 413.396 -3.46165 -2.44838 0
M  V30 4644 C 411.855 -1.99895 -2.71189 0
M  V30 4645 O 412.385 -1.53909 -3.71046 0
M  V30 4646 N 410.591 -1.6676 -2.3799 0
M  V30 4647 H 410.138 -2.04352 -1.56837 0
M  V30 4648 H 410.096 -1.03127 -2.97005 0
M  V30 4649 N 413.868 0.0150385 -1.57593 0
M  V30 4650 C 414.801 1.04475 -2.0288 0
M  V30 4651 C 415.779 1.3436 -0.915764 0
M  V30 4652 O 416.963 1.46779 -1.18271 0
M  V30 4653 C 414.09 2.37608 -2.41371 0
M  V30 4654 C 413.136 2.23487 -3.63257 0
M  V30 4655 S 413.969 1.57505 -5.11813 0
M  V30 4656 C 415.125 2.921 -5.5356 0
M  V30 4657 H 415.358 0.65907 -2.89903 0
M  V30 4658 H 412.891 0.225452 -1.52745 0
M  V30 4659 H 414.849 3.14165 -2.64217 0
M  V30 4660 H 413.51 2.7332 -1.54775 0
M  V30 4661 H 412.703 3.21802 -3.87891 0
M  V30 4662 H 412.305 1.55074 -3.40335 0
M  V30 4663 H 414.597 3.88419 -5.55101 0
M  V30 4664 H 415.54 2.72184 -6.53698 0
M  V30 4665 H 415.948 2.95318 -4.8109 0
M  V30 4666 N 415.346 1.54954 0.287554 0
M  V30 4667 C 416.594 1.74528 1.01904 0
M  V30 4668 C 416.915 0.541349 1.87335 0
M  V30 4669 O 416.185 -0.444108 1.908 0
M  V30 4670 H 414.765 0.643576 0.379235 0
M  V30 4671 H 417.427 1.92333 0.315294 0
M  V30 4672 H 416.523 2.64015 1.6644 0
M  V30 4673 N 416.824 -0.551391 1.4764 0
M  V30 4674 C 418.064 -1.31901 1.56145 0
M  V30 4675 C 418.428 -1.90724 0.221013 0
M  V30 4676 O 419.629 -2.6819 0.180945 0
M  V30 4677 C 417.9 -2.39517 2.65267 0
M  V30 4678 S 419.459 -3.26289 2.93395 0
M  V30 4679 H 416.277 -0.448965 0.551318 0
M  V30 4680 H 418.879 -0.630599 1.85051 0
M  V30 4681 H 417.583 -1.94747 3.6125 0
M  V30 4682 H 417.114 -3.13092 2.38195 0
M  V30 4683 H 419.129 -4.39122 2.31055 0
M  V30 4684 N 418.302 -1.35869 -0.798587 0
M  V30 4685 C 419.579 -1.20145 -1.54352 0
M  V30 4686 C 419.959 0.216161 -2.0999 0
M  V30 4687 O 419.307 1.22068 -1.93162 0
M  V30 4688 C 419.517 -2.27602 -2.64572 0
M  V30 4689 C 420.865 -2.63811 -3.32699 0
M  V30 4690 O 421.889 -2.26576 -2.74849 0
M  V30 4691 O 420.748 -3.27866 -4.37226 0
M  V30 4692 H 417.842 -0.467248 -0.682355 0
M  V30 4693 H 420.388 -1.47574 -0.837859 0
M  V30 4694 H 419.16 -3.2265 -2.21388 0
M  V30 4695 H 418.783 -2.01488 -3.42766 0
M  V30 4696 N 419.78 1.02168 -1.19998 0
M  V30 4697 C 420.727 2.10601 -0.944228 0
M  V30 4698 C 421.697 1.65639 0.123664 0
M  V30 4699 O 422.882 1.9079 -0.0199941 0
M  V30 4700 C 420.022 3.41504 -0.496865 0
M  V30 4701 C 419.135 3.99973 -1.63234 0
M  V30 4702 C 418.27 5.18915 -1.13579 0
M  V30 4703 C 417.309 5.69456 -2.24468 0
M  V30 4704 N 416.446 6.79665 -1.76068 0
M  V30 4705 H 421.286 2.31814 -1.8726 0
M  V30 4706 H 418.823 1.13686 -0.933483 0
M  V30 4707 H 420.781 4.16626 -0.218843 0
M  V30 4708 H 419.411 3.2038 0.394508 0
M  V30 4709 H 418.463 3.21997 -2.0254 0
M  V30 4710 H 419.775 4.33492 -2.46752 0
M  V30 4711 H 418.929 6.01222 -0.813429 0
M  V30 4712 H 417.668 4.8695 -0.270434 0
M  V30 4713 H 416.673 4.85757 -2.57526 0
M  V30 4714 H 417.898 6.03459 -3.11472 0
M  V30 4715 H 415.844 6.49538 -0.918516 0
M  V30 4716 H 415.761 7.12349 -2.5317 0
M  V30 4717 H 417.029 7.65549 -1.46817 0
M  V30 4718 N 421.258 1.00505 1.21394 0
M  V30 4719 C 422.504 0.688793 1.90745 0
M  V30 4720 C 422.837 -0.778486 1.77914 0
M  V30 4721 O 422.112 -1.56433 1.15581 0
M  V30 4722 C 422.395 1.11063 3.42545 0
M  V30 4723 C 422.248 2.63737 3.64367 0
M  V30 4724 C 423.567 0.673059 4.34923 0
M  V30 4725 H 420.686 0.251702 0.692687 0
M  V30 4726 H 423.328 1.25074 1.43026 0
M  V30 4727 H 421.478 0.632508 3.83317 0
M  V30 4728 H 423.15 3.19313 3.32922 0
M  V30 4729 H 421.393 3.05248 3.08231 0
M  V30 4730 H 422.064 2.88305 4.70727 0
M  V30 4731 H 424.54 1.08392 4.01734 0
M  V30 4732 H 423.416 0.996383 5.39781 0
M  V30 4733 H 423.677 -0.425808 4.40045 0
M  V30 4734 N 422.737 -1.36956 0.779787 0
M  V30 4735 C 423.965 -2.03755 0.359398 0
M  V30 4736 C 424.38 -1.58807 -1.02106 0
M  V30 4737 O 423.737 -0.773024 -1.6532 0
M  V30 4738 C 423.788 -3.59251 0.402568 0
M  V30 4739 O 423.509 -4.02557 1.72858 0
M  V30 4740 C 425.01 -4.43291 -0.0284068 0
M  V30 4741 H 422.23 -0.654148 0.149437 0
M  V30 4742 H 424.774 -1.75128 1.05595 0
M  V30 4743 H 422.929 -3.86621 -0.245478 0
M  V30 4744 H 423.343 -4.97111 1.67275 0
M  V30 4745 H 424.817 -5.51975 0.0529466 0
M  V30 4746 H 425.294 -4.25719 -1.07982 0
M  V30 4747 H 425.9 -4.21163 0.591758 0
M  V30 4748 N 424.215 -0.530993 -1.48385 0
M  V30 4749 C 425.125 0.23503 -2.3342 0
M  V30 4750 C 426.141 0.93801 -1.46552 0
M  V30 4751 O 427.317 0.912745 -1.7953 0
M  V30 4752 C 424.382 1.26778 -3.22689 0
M  V30 4753 C 423.443 0.575038 -4.25431 0
M  V30 4754 C 422.676 1.55858 -5.10435 0
M  V30 4755 O 422.899 2.79129 -4.97437 0
M  V30 4756 O 421.833 1.09742 -5.91811 0
M  V30 4757 H 425.659 -0.461794 -3.00169 0
M  V30 4758 H 423.244 -0.291903 -1.46521 0
M  V30 4759 H 425.126 1.86457 -3.77904 0
M  V30 4760 H 423.801 1.94699 -2.586 0
M  V30 4761 H 422.708 -0.0622782 -3.74048 0
M  V30 4762 H 424.041 -0.062253 -4.92161 0
M  V30 4763 N 425.693 1.55336 -0.266172 0
M  V30 4764 C 426.641 2.23587 0.641228 0
M  V30 4765 C 427.635 1.22986 1.16494 0
M  V30 4766 O 428.841 1.40943 1.1196 0
M  V30 4767 H 425.216 0.717452 0.225315 0
M  V30 4768 H 427.187 2.9837 0.0426561 0
M  V30 4769 C 425.936 2.96369 1.81826 0
M  V30 4770 H 425.259 3.73563 1.42445 0
M  V30 4771 H 426.699 3.47459 2.42998 0
M  V30 4772 C 425.158 2.0133 2.70125 0
M  V30 4773 O 425.688 1.55875 3.70224 0
M  V30 4774 N 423.894 1.6802 2.37102 0
M  V30 4775 H 423.441 2.05181 1.55751 0
M  V30 4776 H 423.399 1.047 2.96454 0
M  V30 4777 N 427.171 -0.0066808 1.57599 0
M  V30 4778 C 428.101 -0.999296 2.11036 0
M  V30 4779 C 429.082 -1.36278 1.01795 0
M  V30 4780 O 430.267 -1.4477 1.29442 0
M  V30 4781 C 427.397 -2.29328 2.60818 0
M  V30 4782 C 426.351 -2.07159 3.74525 0
M  V30 4783 C 425.677 -3.42512 4.10596 0
M  V30 4784 C 426.977 -1.43959 5.02069 0
M  V30 4785 H 428.671 -0.554382 2.94223 0
M  V30 4786 H 426.217 -0.265221 1.41536 0
M  V30 4787 H 428.17 -2.99117 2.96828 0
M  V30 4788 H 426.894 -2.7592 1.74745 0
M  V30 4789 H 425.553 -1.39797 3.38899 0
M  V30 4790 H 425.201 -3.86795 3.21556 0
M  V30 4791 H 424.901 -3.28498 4.87199 0
M  V30 4792 H 426.425 -4.13628 4.4916 0
M  V30 4793 H 427.839 -2.03696 5.35893 0
M  V30 4794 H 426.236 -1.40452 5.83432 0
M  V30 4795 H 427.306 -0.407992 4.83181 0
M  V30 4796 N 428.649 -1.55105 -0.279332 0
M  V30 4797 C 429.898 -1.74618 -1.00952 0
M  V30 4798 C 430.211 -0.551096 -1.87676 0
M  V30 4799 O 431.417 -0.628507 -2.64125 0
M  V30 4800 C 429.873 -3.09025 -1.84476 0
M  V30 4801 C 429.481 -4.36081 -1.0265 0
M  V30 4802 C 431.225 -3.37891 -2.56963 0
M  V30 4803 C 429.132 -5.6153 -1.85576 0
M  V30 4804 H 428.062 -0.650868 -0.38064 0
M  V30 4805 H 430.713 -1.81569 -0.265475 0
M  V30 4806 H 429.095 -2.96095 -2.62952 0
M  V30 4807 H 430.269 -4.59909 -0.286354 0
M  V30 4808 H 428.584 -4.14312 -0.416464 0
M  V30 4809 H 431.181 -4.28822 -3.19399 0
M  V30 4810 H 431.524 -2.57737 -3.26921 0
M  V30 4811 H 432.057 -3.5189 -1.85522 0
M  V30 4812 H 428.796 -6.44413 -1.2005 0
M  V30 4813 H 428.316 -5.41854 -2.57204 0
M  V30 4814 H 429.995 -5.99594 -2.43096 0
M  V30 4815 N 430.127 0.543554 -1.4793 0
M  V30 4816 C 431.057 1.65888 -1.64327 0
M  V30 4817 C 432.038 1.62818 -0.492383 0
M  V30 4818 O 433.223 1.80226 -0.723338 0
M  V30 4819 C 430.353 3.04506 -1.67013 0
M  V30 4820 C 429.307 3.2243 -2.81466 0
M  V30 4821 C 428.633 4.61972 -2.69233 0
M  V30 4822 C 429.933 3.06496 -4.22915 0
M  V30 4823 H 431.627 1.52421 -2.57698 0
M  V30 4824 H 429.173 0.731849 -1.24016 0
M  V30 4825 H 431.126 3.82391 -1.77074 0
M  V30 4826 H 429.85 3.18964 -0.70212 0
M  V30 4827 H 428.509 2.46957 -2.70938 0
M  V30 4828 H 428.157 4.73247 -1.7043 0
M  V30 4829 H 427.857 4.74911 -3.46025 0
M  V30 4830 H 429.381 5.41974 -2.81242 0
M  V30 4831 H 430.795 3.74186 -4.34348 0
M  V30 4832 H 429.192 3.30938 -5.006 0
M  V30 4833 H 430.262 2.03077 -4.40327 0
M  V30 4834 N 431.605 1.3629 0.791371 0
M  V30 4835 C 432.852 1.30412 1.54916 0
M  V30 4836 C 433.18 -0.117162 1.94147 0
M  V30 4837 O 432.435 -1.08599 1.62803 0
M  V30 4838 C 432.734 2.17068 2.8393 0
M  V30 4839 C 432.4 3.65645 2.63846 0
M  V30 4840 C 431.062 4.0614 2.58077 0
M  V30 4841 C 433.414 4.59855 2.45322 0
M  V30 4842 C 430.742 5.3899 2.31748 0
M  V30 4843 C 433.094 5.9292 2.2052 0
M  V30 4844 C 431.758 6.32542 2.13183 0
M  V30 4845 H 431.028 0.47721 0.566879 0
M  V30 4846 H 433.675 1.68325 0.913172 0
M  V30 4847 H 431.98 1.72085 3.51986 0
M  V30 4848 H 433.677 2.09846 3.4171 0
M  V30 4849 H 430.267 3.33518 2.69191 0
M  V30 4850 H 434.451 4.29443 2.48782 0
M  V30 4851 H 429.707 5.68672 2.24548 0
M  V30 4852 H 433.881 6.65487 2.05182 0
M  V30 4853 H 431.508 7.35412 1.92544 0
M  V30 4854 N 433.083 -1.0153 1.20538 0
M  V30 4855 C 434.499 -1.27461 0.96051 0
M  V30 4856 C 434.699 -1.98273 -0.359193 0
M  V30 4857 O 433.755 -2.27886 -1.0874 0
M  V30 4858 C 435.068 -2.10837 2.14402 0
M  V30 4859 C 436.616 -2.24099 2.18515 0
M  V30 4860 C 437.091 -3.10852 3.36355 0
M  V30 4861 N 438.582 -3.18441 3.36377 0
M  V30 4862 C 439.317 -3.85795 4.24205 0
M  V30 4863 N 438.813 -4.55264 5.22213 0
M  V30 4864 N 440.606 -3.82331 4.12043 0
M  V30 4865 H 432.757 -0.539907 2.05423 0
M  V30 4866 H 435.02 -0.30092 0.898972 0
M  V30 4867 H 434.726 -1.66144 3.09983 0
M  V30 4868 H 434.6 -3.11576 2.12604 0
M  V30 4869 H 436.987 -2.68016 1.23497 0
M  V30 4870 H 437.068 -1.22865 2.24361 0
M  V30 4871 H 436.712 -2.6764 4.31661 0
M  V30 4872 H 436.642 -4.12177 3.27746 0
M  V30 4873 H 439.133 -2.68978 2.65442 0
M  V30 4874 H 439.446 -5.04331 5.85551 0
M  V30 4875 H 437.791 -4.54085 5.26148 0
M  V30 4876 H 440.982 -3.27207 3.34743 0
M  V30 4877 H 441.155 -4.34547 4.807 0
M  V30 4878 N 434.561 -1.01147 -1.20859 0
M  V30 4879 C 435.508 -0.577354 -2.23462 0
M  V30 4880 C 436.478 0.399922 -1.61214 0
M  V30 4881 O 437.663 0.300515 -1.88419 0
M  V30 4882 C 434.803 0.083372 -3.44999 0
M  V30 4883 C 433.916 -0.937856 -4.21697 0
M  V30 4884 C 433.051 -0.248717 -5.30617 0
M  V30 4885 C 432.09 -1.25705 -5.99053 0
M  V30 4886 N 431.227 -0.594939 -6.99575 0
M  V30 4887 H 436.067 -1.45695 -2.59956 0
M  V30 4888 H 433.604 -0.729428 -1.27741 0
M  V30 4889 H 435.562 0.483535 -4.14388 0
M  V30 4890 H 434.192 0.926645 -3.09214 0
M  V30 4891 H 433.244 -1.45622 -3.51423 0
M  V30 4892 H 434.556 -1.70493 -4.68757 0
M  V30 4893 H 433.71 0.207215 -6.06346 0
M  V30 4894 H 432.449 0.55071 -4.84581 0
M  V30 4895 H 431.454 -1.72343 -5.2209 0
M  V30 4896 H 432.679 -2.05767 -6.47176 0
M  V30 4897 H 430.625 0.184713 -6.5574 0
M  V30 4898 H 430.542 -1.30017 -7.44736 0
M  V30 4899 H 431.81 -0.162427 -7.79331 0
M  V30 4900 N 436.039 1.36541 -0.78704 0
M  V30 4901 C 437.455 1.52571 -0.46844 0
M  V30 4902 C 437.655 1.7415 1.01361 0
M  V30 4903 O 436.711 1.77163 1.79915 0
M  V30 4904 C 438.024 2.71299 -1.29682 0
M  V30 4905 C 439.572 2.85169 -1.29027 0
M  V30 4906 C 440.047 4.06898 -2.10233 0
M  V30 4907 N 441.538 4.1404 -2.07666 0
M  V30 4908 C 442.273 5.07301 -2.67271 0
M  V30 4909 N 441.769 6.06021 -3.35724 0
M  V30 4910 N 443.562 4.99898 -2.57018 0
M  V30 4911 H 435.713 1.20788 -1.74711 0
M  V30 4912 H 437.976 0.589364 -0.742532 0
M  V30 4913 H 437.682 2.61868 -2.34773 0
M  V30 4914 H 437.556 3.6539 -0.936479 0
M  V30 4915 H 439.943 2.94062 -0.247284 0
M  V30 4916 H 440.024 1.91992 -1.69035 0
M  V30 4917 H 439.668 3.98766 -3.1456 0
M  V30 4918 H 439.598 4.99218 -1.67597 0
M  V30 4919 H 442.089 3.43357 -1.57843 0
M  V30 4920 H 442.402 6.73741 -3.78541 0
M  V30 4921 H 440.747 6.06253 -3.39826 0
M  V30 4922 H 443.938 4.21724 -2.03142 0
M  V30 4923 H 444.111 5.72392 -3.03761 0
M  V30 4924 N 437.518 0.538854 1.48102 0
M  V30 4925 C 438.45 -0.256278 2.27763 0
M  V30 4926 C 439.463 -0.89633 1.35904 0
M  V30 4927 O 440.652 -0.773275 1.60881 0
M  V30 4928 C 437.752 -1.37896 3.09577 0
M  V30 4929 C 436.925 -0.839159 4.29275 0
M  V30 4930 C 435.984 -1.84405 4.9283 0
M  V30 4931 O 435.01 -1.39746 5.51779 0
M  V30 4932 N 436.212 -3.17666 4.85869 0
M  V30 4933 H 438.977 0.426968 2.96643 0
M  V30 4934 H 436.538 0.373747 1.57527 0
M  V30 4935 H 438.53 -2.04955 3.48963 0
M  V30 4936 H 437.1 -1.96572 2.4306 0
M  V30 4937 H 436.32 0.00769287 3.94199 0
M  V30 4938 H 437.608 -0.457548 5.06739 0
M  V30 4939 H 437.006 -3.56609 4.39143 0
M  V30 4940 H 435.563 -3.80334 5.29329 0
M  V30 4941 N 438.996 -1.55193 0.274407 0
M  V30 4942 C 439.906 -2.26164 -0.623473 0
M  V30 4943 C 440.922 -1.28729 -1.17068 0
M  V30 4944 O 442.098 -1.61663 -1.20112 0
M  V30 4945 C 439.163 -2.96833 -1.7914 0
M  V30 4946 C 438.224 -4.09745 -1.28093 0
M  V30 4947 C 437.457 -4.77034 -2.3932 0
M  V30 4948 O 437.68 -4.4353 -3.5866 0
M  V30 4949 O 436.614 -5.64996 -2.07516 0
M  V30 4950 H 440.44 -3.03661 -0.0485661 0
M  V30 4951 H 438.025 -1.49341 0.0418382 0
M  V30 4952 H 439.907 -3.41248 -2.4724 0
M  V30 4953 H 438.582 -2.22253 -2.35341 0
M  V30 4954 H 437.489 -3.69787 -0.566416 0
M  V30 4955 H 438.822 -4.86224 -0.764683 0
M  V30 4956 N 440.474 -0.00167713 -1.576 0
M  V30 4957 C 441.384 1.00548 -2.1196 0
M  V30 4958 C 442.4 1.3758 -1.06526 0
M  V30 4959 O 443.576 1.46278 -1.38436 0
M  V30 4960 C 440.641 2.27809 -2.6135 0
M  V30 4961 C 439.702 1.97074 -3.81393 0
M  V30 4962 C 438.935 3.18267 -4.28417 0
M  V30 4963 O 439.158 4.30009 -3.74765 0
M  V30 4964 O 438.092 3.02167 -5.20556 0
M  V30 4965 H 441.918 0.573373 -2.98238 0
M  V30 4966 H 439.503 0.217255 -1.47812 0
M  V30 4967 H 441.385 3.02568 -2.93309 0
M  V30 4968 H 440.06 2.70254 -1.78169 0
M  V30 4969 H 438.967 1.19785 -3.54404 0
M  V30 4970 H 440.3 1.59464 -4.65652 0
M  V30 4971 N 441.952 1.55251 0.271103 0
M  V30 4972 C 443.229 1.66664 1.02384 0
M  V30 4973 C 443.609 0.534363 2.04225 0
M  V30 4974 O 442.957 -0.465337 2.23712 0
M  V30 4975 C 443.167 3.05961 1.67895 0
M  V30 4976 C 444.515 3.63772 2.18986 0
M  V30 4977 O 445.539 3.08606 1.77878 0
M  V30 4978 O 444.398 4.60429 2.94393 0
M  V30 4979 H 441.492 0.676957 0.475035 0
M  V30 4980 H 444.038 1.67589 0.26681 0
M  V30 4981 H 442.81 3.79815 0.941071 0
M  V30 4982 H 442.433 3.08943 2.5028 0
M  V30 4983 N 443.43 -0.535701 1.48216 0
M  V30 4984 C 444.377 -1.64083 1.62312 0
M  V30 4985 C 445.347 -1.59448 0.465365 0
M  V30 4986 O 446.532 -1.77959 0.688135 0
M  V30 4987 C 443.672 -3.0236 1.66349 0
M  V30 4988 C 442.785 -3.17273 2.93193 0
M  V30 4989 C 441.92 -4.46075 2.88427 0
M  V30 4990 C 440.959 -4.54496 4.1 0
M  V30 4991 N 440.096 -5.7468 4.03345 0
M  V30 4992 H 444.936 -1.51374 2.5669 0
M  V30 4993 H 442.473 -0.737059 1.27302 0
M  V30 4994 H 444.431 -3.82461 1.66672 0
M  V30 4995 H 443.061 -3.13854 0.754672 0
M  V30 4996 H 442.113 -2.30462 3.02641 0
M  V30 4997 H 443.425 -3.19357 3.83162 0
M  V30 4998 H 442.579 -5.3446 2.87119 0
M  V30 4999 H 441.318 -4.46504 1.96177 0
M  V30 5000 H 440.323 -3.64519 4.11589 0
M  V30 5001 H 441.548 -4.5581 5.03402 0
M  V30 5002 H 439.494 -5.76017 3.13912 0
M  V30 5003 H 439.411 -5.78234 4.87013 0
M  V30 5004 H 440.679 -6.65367 4.06087 0
M  V30 5005 N 444.908 -1.36708 -0.784132 0
M  V30 5006 C 445.838 -1.34153 -1.91116 0
M  V30 5007 C 446.819 -0.212121 -1.68772 0
M  V30 5008 O 448.004 -0.410581 -1.8981 0
M  V30 5009 C 445.134 -1.13535 -3.28218 0
M  V30 5010 C 444.088 -2.23356 -3.65097 0
M  V30 5011 C 443.414 -1.87875 -5.00607 0
M  V30 5012 C 444.714 -3.65473 -3.73131 0
M  V30 5013 H 446.408 -2.28459 -1.93512 0
M  V30 5014 H 443.954 -1.09973 -0.929618 0
M  V30 5015 H 445.907 -1.10381 -4.06687 0
M  V30 5016 H 444.631 -0.156804 -3.26223 0
M  V30 5017 H 443.29 -2.25645 -2.88929 0
M  V30 5018 H 442.938 -0.885814 -4.95139 0
M  V30 5019 H 442.638 -2.61406 -5.26252 0
M  V30 5020 H 444.162 -1.86286 -5.81489 0
M  V30 5021 H 445.576 -3.65382 -4.41779 0
M  V30 5022 H 443.973 -4.37953 -4.10265 0
M  V30 5023 H 445.043 -3.99995 -2.74102 0
M  V30 5024 N 446.386 1.0089 -1.21074 0
M  V30 5025 C 447.316 2.1145 -0.990523 0
M  V30 5026 C 448.297 1.69897 0.0831699 0
M  V30 5027 O 449.482 1.94052 -0.0758853 0
M  V30 5028 C 446.612 3.42914 -0.550177 0
M  V30 5029 C 445.566 3.98244 -1.56799 0
M  V30 5030 C 444.892 5.25568 -0.984013 0
M  V30 5031 C 446.192 4.30752 -2.95381 0
M  V30 5032 H 447.886 2.3013 -1.91521 0
M  V30 5033 H 445.432 1.10592 -0.92225 0
M  V30 5034 H 447.385 4.19653 -0.383305 0
M  V30 5035 H 446.109 3.24014 0.41015 0
M  V30 5036 H 444.768 3.23621 -1.72236 0
M  V30 5037 H 444.416 5.02998 -0.0155216 0
M  V30 5038 H 444.116 5.63551 -1.66384 0
M  V30 5039 H 445.64 6.04955 -0.828378 0
M  V30 5040 H 447.054 4.98349 -2.8341 0
M  V30 5041 H 445.451 4.79869 -3.60341 0
M  V30 5042 H 446.521 3.39192 -3.46521 0
M  V30 5043 N 447.864 1.01787 1.20321 0
M  V30 5044 C 449.089 0.727009 1.9424 0
M  V30 5045 C 449.514 -0.706179 1.74341 0
M  V30 5046 O 448.872 -1.48609 1.03852 0
M  V30 5047 C 448.92 1.06958 3.44372 0
M  V30 5048 O 448.024 0.181983 4.11998 0
M  V30 5049 H 447.365 0.269626 0.606793 0
M  V30 5050 H 449.895 1.36158 1.52716 0
M  V30 5051 H 449.905 1.02182 3.94997 0
M  V30 5052 H 448.58 2.11378 3.58179 0
M  V30 5053 H 447.157 0.287378 3.71791 0
M  V30 5054 N 449.342 -1.36122 0.79427 0
M  V30 5055 C 450.289 -2.29982 0.194101 0
M  V30 5056 C 451.259 -1.52214 -0.664833 0
M  V30 5057 O 452.444 -1.80702 -0.612498 0
M  V30 5058 C 449.584 -3.38706 -0.661244 0
M  V30 5059 C 448.697 -4.31456 0.216766 0
M  V30 5060 C 447.832 -5.27265 -0.645411 0
M  V30 5061 C 446.871 -6.11653 0.233756 0
M  V30 5062 N 446.008 -6.99636 -0.587682 0
M  V30 5063 H 450.848 -2.80722 0.999965 0
M  V30 5064 H 448.385 -1.38172 0.504677 0
M  V30 5065 H 450.343 -4.00394 -1.17219 0
M  V30 5066 H 448.973 -2.89274 -1.43249 0
M  V30 5067 H 448.025 -3.7088 0.845724 0
M  V30 5068 H 449.337 -4.90724 0.893973 0
M  V30 5069 H 448.491 -5.94266 -1.22198 0
M  V30 5070 H 447.23 -4.68463 -1.35623 0
M  V30 5071 H 446.235 -5.4361 0.82269 0
M  V30 5072 H 447.46 -6.72531 0.942247 0
M  V30 5073 H 445.406 -6.43337 -1.2827 0
M  V30 5074 H 445.323 -7.55993 0.0317402 0
M  V30 5075 H 446.591 -7.71001 -1.14792 0
M  V30 5076 N 450.82 -0.546701 -1.47814 0
M  V30 5077 C 451.77 0.227042 -2.26867 0
M  V30 5078 C 452.754 0.894844 -1.33721 0
M  V30 5079 O 453.946 0.794887 -1.58147 0
M  V30 5080 C 451.075 1.26299 -3.19223 0
M  V30 5081 C 450.161 0.59913 -4.19847 0
M  V30 5082 N 450.552 -0.324777 -5.04756 0
M  V30 5083 C 448.85 0.854331 -4.37741 0
M  V30 5084 C 449.551 -0.709386 -5.77358 0
M  V30 5085 N 448.527 -0.0666153 -5.43559 0
M  V30 5086 H 452.329 -0.483476 -2.89896 0
M  V30 5087 H 449.843 -0.365893 -1.58224 0
M  V30 5088 H 451.84 1.83116 -3.74532 0
M  V30 5089 H 450.5 1.97471 -2.57751 0
M  V30 5090 H 451.511 -0.698351 -5.1317 0
M  V30 5091 H 448.188 1.55536 -3.87447 0
M  V30 5092 H 449.578 -1.46796 -6.55668 0
M  V30 5093 N 452.299 1.55045 -0.282633 0
M  V30 5094 C 453.548 1.98938 0.332667 0
M  V30 5095 C 453.861 1.17455 1.56409 0
M  V30 5096 O 455.067 1.51527 2.25282 0
M  V30 5097 C 453.523 3.54105 0.643226 0
M  V30 5098 C 453.131 4.44374 -0.568814 0
M  V30 5099 C 454.875 4.06569 1.22074 0
M  V30 5100 C 452.782 5.90943 -0.232426 0
M  V30 5101 H 451.712 0.743043 0.128075 0
M  V30 5102 H 454.363 1.79341 -0.388464 0
M  V30 5103 H 452.745 3.69532 1.42346 0
M  V30 5104 H 453.919 4.40718 -1.34551 0
M  V30 5105 H 452.234 4.02585 -1.06369 0
M  V30 5106 H 454.831 5.13626 1.48635 0
M  V30 5107 H 455.174 3.56057 2.15707 0
M  V30 5108 H 455.707 3.94612 0.502621 0
M  V30 5109 H 452.446 6.45567 -1.13683 0
M  V30 5110 H 451.966 5.9765 0.507357 0
M  V30 5111 H 453.645 6.4677 0.172657 0
M  V30 5112 N 453.777 0.010035 1.57597 0
M  V30 5113 C 455.023 -0.673697 1.91283 0
M  V30 5114 C 455.356 -1.72863 0.884979 0
M  V30 5115 O 454.631 -1.94268 -0.0949487 0
M  V30 5116 C 454.914 -1.30766 3.35518 0
M  V30 5117 C 454.767 -0.263578 4.49027 0
M  V30 5118 C 456.086 -2.23105 3.79358 0
M  V30 5119 H 453.205 -0.243439 0.695634 0
M  V30 5120 H 455.847 0.0633864 1.89894 0
M  V30 5121 H 453.997 -1.93588 3.36832 0
M  V30 5122 H 455.669 0.365738 4.59848 0
M  V30 5123 H 453.912 0.413077 4.31829 0
M  V30 5124 H 454.583 -0.746398 5.4693 0
M  V30 5125 H 457.059 -1.70289 3.79659 0
M  V30 5126 H 455.935 -2.64424 4.81011 0
M  V30 5127 H 456.196 -3.11433 3.13787 0
M  V30 5128 N 455.255 -1.55392 -0.262866 0
M  V30 5129 C 456.503 -1.76127 -0.991147 0
M  V30 5130 C 456.824 -0.571083 -1.8645 0
M  V30 5131 O 456.094 0.413698 -1.91482 0
M  V30 5132 H 454.674 -0.649528 -0.368948 0
M  V30 5133 H 457.336 -1.9281 -0.284655 0
M  V30 5134 H 456.432 -2.6663 -1.62219 0
M  V30 5135 N 456.733 0.527833 -1.48498 0
M  V30 5136 C 457.979 1.28545 -1.56857 0
M  V30 5137 C 458.312 1.92678 -0.242651 0
M  V30 5138 O 457.587 1.79394 0.751545 0
M  V30 5139 C 457.87 2.37314 -2.70839 0
M  V30 5140 C 457.723 1.77858 -4.13142 0
M  V30 5141 C 459.042 3.39068 -2.80573 0
M  V30 5142 H 456.161 0.466006 -0.570971 0
M  V30 5143 H 458.803 0.587784 -1.8068 0
M  V30 5144 H 456.953 2.96821 -2.50658 0
M  V30 5145 H 458.625 1.22385 -4.44769 0
M  V30 5146 H 456.868 1.08383 -4.20042 0
M  V30 5147 H 457.539 2.56624 -4.88721 0
M  V30 5148 H 460.015 2.89518 -2.98862 0
M  V30 5149 H 458.891 4.12566 -3.6205 0
M  V30 5150 H 459.152 3.9975 -1.88818 0
M  V30 5151 N 458.211 1.37122 0.776871 0
M  V30 5152 C 459.436 1.354 1.57104 0
M  V30 5153 C 459.861 -0.0595562 1.88006 0
M  V30 5154 O 459.219 -1.03514 1.48844 0
M  V30 5155 C 459.267 2.19472 2.8612 0
M  V30 5156 O 458.371 1.59582 3.80273 0
M  V30 5157 H 457.712 0.462869 0.476076 0
M  V30 5158 H 460.242 1.80577 0.961932 0
M  V30 5159 H 460.252 2.32502 3.35271 0
M  V30 5160 H 458.927 3.22222 2.62956 0
M  V30 5161 H 457.504 1.55564 3.38902 0
M  V30 5162 N 459.689 -1.00246 1.21608 0
M  V30 5163 C 460.938 -1.73476 1.02902 0
M  V30 5164 C 461.251 -1.90643 -0.437561 0
M  V30 5165 O 462.457 -2.61105 -0.74407 0
M  V30 5166 C 460.913 -3.12079 1.79261 0
M  V30 5167 C 460.521 -3.02877 3.30106 0
M  V30 5168 C 462.265 -3.89421 1.68972 0
M  V30 5169 C 460.172 -4.36575 3.98944 0
M  V30 5170 H 459.102 -0.650408 0.381425 0
M  V30 5171 H 461.753 -1.11985 1.45367 0
M  V30 5172 H 460.135 -3.74196 1.2959 0
M  V30 5173 H 461.309 -2.49983 3.87098 0
M  V30 5174 H 459.624 -2.39022 3.40965 0
M  V30 5175 H 462.221 -4.88362 2.17731 0
M  V30 5176 H 462.564 -4.1122 0.648397 0
M  V30 5177 H 463.097 -3.33963 2.16133 0
M  V30 5178 H 459.836 -4.19978 5.03288 0
M  V30 5179 H 459.356 -4.8942 3.4674 0
M  V30 5180 H 461.035 -5.05364 4.04 0
M  V30 5181 N 461.167 -1.02423 -1.1978 0
M  V30 5182 C 462.415 -0.716569 -1.8897 0
M  V30 5183 C 462.736 0.756769 -1.79716 0
M  V30 5184 O 462.006 1.5449 -1.20456 0
M  V30 5185 H 460.586 -0.262062 -0.699523 0
M  V30 5186 H 463.248 -1.29747 -1.45436 0
M  V30 5187 H 462.344 -1.00675 -2.95417 0
M  V30 5188 N 462.645 1.35699 -0.801477 0
M  V30 5189 C 463.592 2.29876 -0.206294 0
M  V30 5190 C 464.562 1.52565 0.656752 0
M  V30 5191 O 465.747 1.81024 0.602906 0
M  V30 5192 C 462.887 3.39052 0.643272 0
M  V30 5193 C 462 4.31335 -0.239644 0
M  V30 5194 C 461.135 5.27599 0.61744 0
M  V30 5195 C 460.174 6.11521 -0.26619 0
M  V30 5196 N 459.311 6.99938 0.550571 0
M  V30 5197 H 464.151 2.80187 -1.01484 0
M  V30 5198 H 461.688 1.37902 -0.511997 0
M  V30 5199 H 463.646 4.0101 1.15094 0
M  V30 5200 H 462.276 2.9003 1.41713 0
M  V30 5201 H 461.328 3.70426 -0.865381 0
M  V30 5202 H 462.64 4.90243 -0.919985 0
M  V30 5203 H 461.794 5.94906 1.19045 0
M  V30 5204 H 460.533 4.69176 1.33137 0
M  V30 5205 H 459.538 5.43166 -0.851507 0
M  V30 5206 H 460.763 6.72022 -0.9779 0
M  V30 5207 H 458.709 6.44008 1.24856 0
M  V30 5208 H 458.626 7.55966 -0.071832 0
M  V30 5209 H 459.894 7.71599 1.10702 0
M  V30 5210 N 464.123 0.554532 1.47522 0
M  V30 5211 C 465.071 -0.207765 2.3167 0
M  V30 5212 C 466.065 -0.911914 1.4276 0
M  V30 5213 O 467.271 -0.833504 1.59539 0
M  V30 5214 H 463.646 -0.0858726 0.747081 0
M  V30 5215 H 465.617 0.521178 2.93813 0
M  V30 5216 C 464.366 -1.2263 3.25357 0
M  V30 5217 H 463.689 -0.693887 3.93732 0
M  V30 5218 H 465.129 -1.73062 3.87073 0
M  V30 5219 C 463.588 -2.27278 2.4869 0
M  V30 5220 O 464.118 -3.34156 2.22941 0
M  V30 5221 N 462.324 -2.01134 2.09746 0
M  V30 5222 H 461.871 -1.14232 2.30887 0
M  V30 5223 H 461.829 -2.71369 1.58765 0
M  V30 5224 N 465.601 -1.54893 0.290851 0
M  V30 5225 C 466.548 -2.23138 -0.58974 0
M  V30 5226 C 467.518 -1.21036 -1.13752 0
M  V30 5227 O 468.703 -1.49626 -1.18392 0
M  V30 5228 C 465.843 -2.96811 -1.76061 0
M  V30 5229 C 464.956 -4.13665 -1.24519 0
M  V30 5230 C 464.091 -4.74944 -2.3791 0
M  V30 5231 C 463.13 -5.83963 -1.83451 0
M  V30 5232 N 462.267 -6.39239 -2.90376 0
M  V30 5233 H 467.107 -2.98 -0.00114915 0
M  V30 5234 H 464.644 -1.47096 0.0112006 0
M  V30 5235 H 466.602 -3.37751 -2.44909 0
M  V30 5236 H 465.232 -2.24344 -2.32098 0
M  V30 5237 H 464.284 -3.77737 -0.449288 0
M  V30 5238 H 465.596 -4.92238 -0.806424 0
M  V30 5239 H 464.75 -5.18684 -3.14724 0
M  V30 5240 H 463.489 -3.95682 -2.85109 0
M  V30 5241 H 462.494 -5.39657 -1.05122 0
M  V30 5242 H 463.719 -6.65103 -1.37169 0
M  V30 5243 H 461.665 -5.62864 -3.36927 0
M  V30 5244 H 461.582 -7.13129 -2.50965 0
M  V30 5245 H 462.85 -6.87637 -3.67118 0
M  V30 5246 N 467.08 -0.0183926 -1.57589 0
M  V30 5247 C 468.357 0.700621 -1.82622 0
M  V30 5248 C 468.737 1.90951 -0.90005 0
M  V30 5249 O 468.085 2.28452 0.0469145 0
M  V30 5250 C 468.295 1.08899 -3.31575 0
M  V30 5251 C 469.643 1.48514 -3.9778 0
M  V30 5252 O 470.667 1.18227 -3.36007 0
M  V30 5253 O 469.526 2.04903 -5.06633 0
M  V30 5254 H 466.62 0.342743 -0.752633 0
M  V30 5255 H 469.166 -0.0452548 -1.6964 0
M  V30 5256 H 467.938 0.228113 -3.90635 0
M  V30 5257 H 467.561 1.89338 -3.49624 0
M  V30 5258 N 468.558 1.5553 0.254621 0
M  V30 5259 C 469.786 1.81046 1.00149 0
M  V30 5260 C 470.201 0.593047 1.79244 0
M  V30 5261 O 469.558 -0.438196 1.77161 0
M  V30 5262 C 469.609 3.04684 1.94551 0
M  V30 5263 O 469.33 4.21725 1.18658 0
M  V30 5264 C 470.831 3.42943 2.80901 0
M  V30 5265 H 468.051 0.602653 0.295044 0
M  V30 5266 H 470.595 2.02576 0.279842 0
M  V30 5267 H 468.75 2.85226 2.62154 0
M  V30 5268 H 469.164 4.91746 1.82445 0
M  V30 5269 H 470.638 4.32576 3.42902 0
M  V30 5270 H 471.115 2.63176 3.51617 0
M  V30 5271 H 471.721 3.64724 2.18762 0
M  V30 5272 N 470.036 -0.519951 1.48776 0
M  V30 5273 C 471.282 -1.27711 1.57536 0
M  V30 5274 C 471.615 -1.92547 0.252866 0
M  V30 5275 O 470.89 -1.7979 -0.742021 0
M  V30 5276 C 471.173 -2.35875 2.72094 0
M  V30 5277 C 471.026 -1.75664 4.1408 0
M  V30 5278 C 472.345 -3.37575 2.82367 0
M  V30 5279 H 469.464 -0.462971 0.573434 0
M  V30 5280 H 472.106 -0.578194 1.80989 0
M  V30 5281 H 470.256 -2.95488 2.52228 0
M  V30 5282 H 471.928 -1.20025 4.45412 0
M  V30 5283 H 470.171 -1.06154 4.20611 0
M  V30 5284 H 470.842 -2.54029 4.90075 0
M  V30 5285 H 473.318 -2.87929 3.00393 0
M  V30 5286 H 472.194 -4.1064 3.64233 0
M  V30 5287 H 472.455 -3.98743 1.90936 0
M  V30 5288 N 471.514 -1.37532 -0.769588 0
M  V30 5289 C 472.462 -1.33561 -1.90432 0
M  V30 5290 C 473.456 -0.224027 -1.67912 0
M  V30 5291 O 474.662 -0.392174 -1.75676 0
M  V30 5292 H 471.037 -0.416279 -0.626271 0
M  V30 5293 H 473.008 -2.29348 -1.90899 0
M  V30 5294 C 471.757 -1.16162 -3.27722 0
M  V30 5295 H 471.08 -2.00951 -3.45628 0
M  V30 5296 H 472.52 -1.17434 -4.07413 0
M  V30 5297 C 470.979 0.132583 -3.36639 0
M  V30 5298 O 471.509 1.11539 -3.85904 0
M  V30 5299 N 469.715 0.184013 -2.90017 0
M  V30 5300 H 469.262 -0.616415 -2.50116 0
M  V30 5301 H 469.22 1.04956 -2.96364 0
M  V30 5302 N 472.992 0.995999 -1.22138 0
M  V30 5303 C 474.241 1.72928 -1.03821 0
M  V30 5304 C 474.554 1.90872 0.427444 0
M  V30 5305 O 475.76 2.61496 0.730212 0
M  V30 5306 C 474.216 3.11124 -1.80913 0
M  V30 5307 C 473.824 3.01122 -3.31707 0
M  V30 5308 C 475.568 3.8852 -1.71035 0
M  V30 5309 C 473.475 4.34453 -4.01253 0
M  V30 5310 H 472.405 0.648376 -0.384869 0
M  V30 5311 H 475.056 1.11213 -1.45959 0
M  V30 5312 H 473.438 3.73503 -1.31573 0
M  V30 5313 H 474.612 2.47926 -3.88419 0
M  V30 5314 H 472.927 2.3721 -3.42228 0
M  V30 5315 H 475.524 4.872 -2.20318 0
M  V30 5316 H 475.867 4.1087 -0.670196 0
M  V30 5317 H 476.4 3.32812 -2.17902 0
M  V30 5318 H 473.139 4.17303 -5.05508 0
M  V30 5319 H 472.659 4.87574 -3.49331 0
M  V30 5320 H 474.338 5.03215 -4.06674 0
M  V30 5321 N 474.47 1.03057 1.19235 0
M  V30 5322 C 475.716 0.729098 1.89241 0
M  V30 5323 C 476.049 -0.740573 1.79525 0
M  V30 5324 O 475.324 -1.53946 1.18874 0
M  V30 5325 C 475.607 1.18304 3.40112 0
M  V30 5326 C 475.46 2.71406 3.5869 0
M  V30 5327 C 476.779 0.765161 4.33397 0
M  V30 5328 H 473.898 0.266338 0.687192 0
M  V30 5329 H 476.54 1.28079 1.40341 0
M  V30 5330 H 474.69 0.713672 3.81889 0
M  V30 5331 H 476.362 3.26303 3.26074 0
M  V30 5332 H 474.605 3.11717 3.01687 0
M  V30 5333 H 475.276 2.98225 4.64506 0
M  V30 5334 H 477.752 1.16889 3.99345 0
M  V30 5335 H 476.628 1.11065 5.37546 0
M  V30 5336 H 476.889 -0.332372 4.40849 0
M  V30 5337 N 475.948 -1.35272 0.808662 0
M  V30 5338 C 477.225 -1.93077 0.313181 0
M  V30 5339 C 477.605 -1.73847 -1.19752 0
M  V30 5340 O 476.953 -1.1087 -1.998 0
M  V30 5341 C 477.163 -3.41347 0.726859 0
M  V30 5342 C 478.511 -4.18493 0.717532 0
M  V30 5343 O 479.535 -3.4987 0.668535 0
M  V30 5344 O 478.394 -5.40937 0.777779 0
M  V30 5345 H 475.488 -0.822885 0.0824018 0
M  V30 5346 H 478.034 -1.44335 0.892499 0
M  V30 5347 H 476.806 -3.49082 1.76797 0
M  V30 5348 H 476.429 -3.97411 0.122461 0
M  V30 5349 N 477.426 -0.562348 -1.47226 0
M  V30 5350 C 478.703 0.0256985 -1.95583 0
M  V30 5351 C 479.083 1.48032 -1.50498 0
M  V30 5352 O 478.431 2.15973 -0.746181 0
M  V30 5353 C 478.641 -0.125129 -3.48776 0
M  V30 5354 C 479.989 0.0175728 -4.24596 0
M  V30 5355 O 481.013 -0.0529341 -3.56161 0
M  V30 5356 O 479.872 0.170145 -5.46235 0
M  V30 5357 H 476.966 0.0612565 -0.824728 0
M  V30 5358 H 479.512 -0.629233 -1.57603 0
M  V30 5359 H 478.284 -1.13715 -3.74412 0
M  V30 5360 H 477.907 0.567178 -3.93534 0
M  V30 5361 N 478.904 1.54736 -0.299062 0
M  V30 5362 C 479.834 2.26409 0.571085 0
M  V30 5363 C 480.815 1.2629 1.13951 0
M  V30 5364 O 482 1.55059 1.16921 0
M  V30 5365 C 479.13 3.00338 1.74396 0
M  V30 5366 C 478.084 4.07588 1.30599 0
M  V30 5367 C 477.41 4.69222 2.56387 0
M  V30 5368 C 478.71 5.20455 0.438645 0
M  V30 5369 H 480.404 2.99388 -0.0266991 0
M  V30 5370 H 477.95 1.43993 -0.0142812 0
M  V30 5371 H 479.903 3.49198 2.35878 0
M  V30 5372 H 478.627 2.24934 2.36796 0
M  V30 5373 H 477.286 3.59575 0.71424 0
M  V30 5374 H 476.934 3.9046 3.17097 0
M  V30 5375 H 476.634 5.41653 2.27784 0
M  V30 5376 H 478.158 5.20844 3.18675 0
M  V30 5377 H 479.572 5.65221 0.959085 0
M  V30 5378 H 477.969 5.99594 0.246466 0
M  V30 5379 H 479.039 4.8192 -0.536738 0
M  V30 5380 N 480.382 0.0267497 1.57577 0
M  V30 5381 C 481.329 -0.955894 2.10075 0
M  V30 5382 C 482.299 -1.32453 1.00226 0
M  V30 5383 O 483.484 -1.41826 1.27632 0
M  V30 5384 C 480.624 -2.2338 2.6305 0
M  V30 5385 C 479.737 -1.92183 3.86898 0
M  V30 5386 C 478.872 -3.14251 4.28275 0
M  V30 5387 C 477.911 -2.78862 5.44888 0
M  V30 5388 N 477.048 -3.93548 5.81433 0
M  V30 5389 H 481.888 -0.501303 2.93753 0
M  V30 5390 H 479.425 -0.235847 1.45197 0
M  V30 5391 H 481.383 -2.98124 2.91853 0
M  V30 5392 H 480.013 -2.6646 1.82205 0
M  V30 5393 H 479.065 -1.07692 3.64838 0
M  V30 5394 H 480.377 -1.62117 4.7172 0
M  V30 5395 H 479.531 -3.97317 4.58502 0
M  V30 5396 H 478.27 -3.47476 3.42215 0
M  V30 5397 H 477.275 -1.94208 5.14357 0
M  V30 5398 H 478.5 -2.46855 6.32645 0
M  V30 5399 H 476.446 -4.2662 4.98328 0
M  V30 5400 H 476.363 -3.67098 6.6089 0
M  V30 5401 H 477.631 -4.77325 6.16264 0
M  V30 5402 N 481.861 -1.55662 -0.24637 0
M  V30 5403 C 483.091 -1.81312 -0.990438 0
M  V30 5404 C 483.499 -0.600234 -1.79426 0
M  V30 5405 O 482.842 0.440537 -1.78339 0
M  V30 5406 C 482.904 -3.0032 -1.97607 0
M  V30 5407 C 482.568 -4.36322 -1.35912 0
M  V30 5408 C 483.565 -5.14295 -0.761348 0
M  V30 5409 C 481.25 -4.83019 -1.37833 0
M  V30 5410 C 483.244 -6.37114 -0.190998 0
M  V30 5411 C 480.931 -6.05786 -0.804128 0
M  V30 5412 C 481.929 -6.82672 -0.211489 0
M  V30 5413 O 481.617 -8.03121 0.353845 0
M  V30 5414 H 481.349 -0.607233 -0.297058 0
M  V30 5415 H 483.903 -2.0356 -0.274351 0
M  V30 5416 H 482.133 -2.73829 -2.73047 0
M  V30 5417 H 483.822 -3.13057 -2.58361 0
M  V30 5418 H 484.588 -4.79337 -0.739013 0
M  V30 5419 H 480.467 -4.23165 -1.829 0
M  V30 5420 H 484.011 -6.97069 0.272206 0
M  V30 5421 H 479.908 -6.40222 -0.823792 0
M  V30 5422 H 480.676 -8.18131 0.245761 0
M  V30 5423 N 483.339 0.512053 -1.4905 0
M  V30 5424 C 484.579 1.27715 -1.59588 0
M  V30 5425 C 484.943 1.90071 -0.271502 0
M  V30 5426 O 486.144 2.67616 -0.251987 0
M  V30 5427 C 484.415 2.32399 -2.71524 0
M  V30 5428 S 485.974 3.18396 -3.01943 0
M  V30 5429 H 482.792 0.43419 -0.563027 0
M  V30 5430 H 485.394 0.581315 -1.86657 0
M  V30 5431 H 484.098 1.85101 -3.66287 0
M  V30 5432 H 483.629 3.06667 -2.46412 0
M  V30 5433 H 485.644 4.32842 -2.42616 0
M  V30 5434 N 484.817 1.37938 0.762283 0
M  V30 5435 C 486.066 1.32989 1.51647 0
M  V30 5436 C 486.379 -0.0802922 1.95435 0
M  V30 5437 O 487.585 -0.252295 2.70325 0
M  V30 5438 C 486.041 2.33485 2.73885 0
M  V30 5439 C 485.649 3.80079 2.37157 0
M  V30 5440 C 487.393 2.37563 3.51801 0
M  V30 5441 C 485.3 4.72283 3.55954 0
M  V30 5442 H 484.23 0.494301 0.56937 0
M  V30 5443 H 486.881 1.63448 0.834083 0
M  V30 5444 H 485.263 1.96056 3.44061 0
M  V30 5445 H 486.437 4.26398 1.74704 0
M  V30 5446 H 484.752 3.79037 1.72395 0
M  V30 5447 H 487.349 3.0365 4.40114 0
M  V30 5448 H 487.692 1.39199 3.92338 0
M  V30 5449 H 488.225 2.73747 2.8863 0
M  V30 5450 H 484.964 5.7181 3.2049 0
M  V30 5451 H 484.484 4.30663 4.1748 0
M  V30 5452 H 486.163 4.89876 4.22647 0
M  V30 5453 N 486.295 -0.989507 1.22664 0
M  V30 5454 C 487.243 -2.10148 0.997035 0
M  V30 5455 C 488.237 -1.6929 -0.0609783 0
M  V30 5456 O 489.443 -1.79766 0.0917523 0
M  V30 5457 H 485.818 -0.687256 0.305259 0
M  V30 5458 H 487.789 -2.26685 1.94053 0
M  V30 5459 C 486.538 -3.4257 0.595085 0
M  V30 5460 H 485.861 -3.74453 1.40089 0
M  V30 5461 H 487.301 -4.21344 0.473869 0
M  V30 5462 C 485.76 -3.29638 -0.695725 0
M  V30 5463 O 486.29 -3.61709 -1.74727 0
M  V30 5464 N 484.496 -2.82814 -0.668173 0
M  V30 5465 H 484.043 -2.56914 0.18787 0
M  V30 5466 H 484.001 -2.74544 -1.5321 0
M  V30 5467 N 487.773 -1.03688 -1.18687 0
M  V30 5468 C 488.72 -0.624624 -2.22187 0
M  V30 5469 C 489.69 0.365636 -1.62026 0
M  V30 5470 O 490.875 0.260481 -1.89014 0
M  V30 5471 C 488.015 0.0101738 -3.45099 0
M  V30 5472 C 487.128 -1.02709 -4.19613 0
M  V30 5473 C 486.263 -0.361213 -5.2997 0
M  V30 5474 C 485.302 -1.38384 -5.96252 0
M  V30 5475 N 484.439 -0.743196 -6.98155 0
M  V30 5476 H 489.279 -1.51176 -2.56807 0
M  V30 5477 H 486.816 -0.75636 -1.26165 0
M  V30 5478 H 488.774 0.395528 -4.15321 0
M  V30 5479 H 487.404 0.860848 -3.1111 0
M  V30 5480 H 486.456 -1.53043 -3.48256 0
M  V30 5481 H 487.768 -1.80398 -4.65036 0
M  V30 5482 H 486.922 0.0785537 -6.06649 0
M  V30 5483 H 485.661 0.447799 -4.8564 0
M  V30 5484 H 484.666 -1.83378 -5.18317 0
M  V30 5485 H 485.891 -2.19448 -6.42666 0
M  V30 5486 H 483.837 0.0455789 -6.55984 0
M  V30 5487 H 483.754 -1.45784 -7.41811 0
M  V30 5488 H 485.022 -0.327698 -7.78811 0
M  V30 5489 N 489.251 1.34841 -0.815825 0
M  V30 5490 C 490.5 1.97755 -0.396976 0
M  V30 5491 C 490.813 1.65422 1.04379 0
M  V30 5492 O 492.019 2.21771 1.5662 0
M  V30 5493 C 490.475 3.53818 -0.658869 0
M  V30 5494 C 490.083 3.95051 -2.11278 0
M  V30 5495 C 491.827 4.23397 -0.305834 0
M  V30 5496 C 489.734 5.43997 -2.31994 0
M  V30 5497 H 488.664 0.739985 -0.1447 0
M  V30 5498 H 491.315 1.53781 -1.00118 0
M  V30 5499 H 489.697 3.95997 0.0154112 0
M  V30 5500 H 490.871 3.63998 -2.82564 0
M  V30 5501 H 489.186 3.38388 -2.42657 0
M  V30 5502 H 491.783 5.32899 -0.43854 0
M  V30 5503 H 492.126 4.09508 0.748952 0
M  V30 5504 H 492.659 3.8667 -0.934403 0
M  V30 5505 H 489.398 5.62865 -3.35952 0
M  V30 5506 H 488.918 5.76589 -1.65244 0
M  V30 5507 H 490.597 6.10584 -2.14001 0
M  V30 5508 N 490.729 0.570148 1.46925 0
M  V30 5509 C 491.977 0.0508523 2.02036 0
M  V30 5510 C 492.298 -1.30885 1.44548 0
M  V30 5511 O 491.568 -1.85647 0.625453 0
M  V30 5512 H 490.148 0.0158088 0.746833 0
M  V30 5513 H 492.81 0.743086 1.80178 0
M  V30 5514 H 491.906 -0.027575 3.12088 0
M  V30 5515 N 492.207 -1.54576 0.307264 0
M  V30 5516 C 493.623 -1.59534 -0.0459251 0
M  V30 5517 C 493.823 -1.32414 -1.51884 0
M  V30 5518 O 492.879 -1.1006 -2.27251 0
M  V30 5519 C 494.192 -2.98566 0.357649 0
M  V30 5520 C 495.74 -3.11491 0.306937 0
M  V30 5521 C 496.215 -4.52842 0.685427 0
M  V30 5522 N 497.706 -4.58782 0.638203 0
M  V30 5523 C 498.441 -5.66238 0.903458 0
M  V30 5524 N 497.937 -6.81703 1.23501 0
M  V30 5525 N 499.73 -5.55937 0.830102 0
M  V30 5526 H 491.881 -1.70464 1.26712 0
M  V30 5527 H 494.144 -0.79647 0.514139 0
M  V30 5528 H 493.85 -3.23356 1.38325 0
M  V30 5529 H 493.724 -3.76117 -0.285565 0
M  V30 5530 H 496.111 -2.86446 -0.709424 0
M  V30 5531 H 496.192 -2.36081 0.984861 0
M  V30 5532 H 495.836 -4.78618 1.69963 0
M  V30 5533 H 495.766 -5.26598 -0.0146346 0
M  V30 5534 H 498.257 -3.75849 0.393138 0
M  V30 5535 H 498.57 -7.59582 1.42322 0
M  V30 5536 H 496.915 -6.8324 1.27311 0
M  V30 5537 H 500.106 -4.64608 0.570693 0
M  V30 5538 H 500.279 -6.39597 1.04019 0
M  V30 5539 N 493.685 -0.035106 -1.57561 0
M  V30 5540 C 494.915 0.651312 -1.96065 0
M  V30 5541 C 495.323 1.6585 -0.910514 0
M  V30 5542 O 494.666 1.83336 0.11552 0
M  V30 5543 C 494.728 1.40897 -3.30739 0
M  V30 5544 C 494.392 0.559436 -4.53563 0
M  V30 5545 C 495.389 -0.16778 -5.19629 0
M  V30 5546 C 493.074 0.495079 -4.99854 0
M  V30 5547 C 495.068 -0.947963 -6.30311 0
M  V30 5548 C 492.755 -0.288804 -6.10417 0
M  V30 5549 C 493.753 -1.00903 -6.75505 0
M  V30 5550 O 493.441 -1.78005 -7.83945 0
M  V30 5551 H 493.173 0.184036 -0.650467 0
M  V30 5552 H 495.727 -0.0929677 -2.05189 0
M  V30 5553 H 493.957 2.19852 -3.18123 0
M  V30 5554 H 495.646 1.98407 -3.54104 0
M  V30 5555 H 496.412 -0.12743 -4.84833 0
M  V30 5556 H 492.291 1.04524 -4.48994 0
M  V30 5557 H 495.835 -1.51064 -6.81047 0
M  V30 5558 H 491.732 -0.33085 -6.44652 0
M  V30 5559 H 492.5 -1.70046 -8.00641 0
M  V30 5560 N 495.163 1.55791 0.238111 0
M  V30 5561 C 496.126 1.90239 1.27835 0
M  V30 5562 C 497.126 0.779552 1.4064 0
M  V30 5563 O 498.316 1.04747 1.3919 0
M  V30 5564 C 495.448 2.13859 2.65475 0
M  V30 5565 H 496.641 2.83262 0.985034 0
M  V30 5566 H 494.194 1.48818 0.477799 0
M  V30 5567 H 494.929 1.23334 2.99932 0
M  V30 5568 H 494.714 2.95643 2.57561 0
M  V30 5569 H 496.204 2.41664 3.40571 0
M  V30 5570 N 496.642 -0.504142 1.49319 0
M  V30 5571 C 497.919 -1.26548 1.49147 0
M  V30 5572 C 498.299 -2.09977 0.21744 0
M  V30 5573 O 497.647 -2.14028 -0.800269 0
M  V30 5574 C 497.857 -2.12489 2.76857 0
M  V30 5575 C 499.205 -2.7178 3.26222 0
M  V30 5576 O 500.229 -2.22758 2.77952 0
M  V30 5577 O 499.088 -3.61015 4.10281 0
M  V30 5578 H 496.182 -0.572495 0.596806 0
M  V30 5579 H 498.728 -0.51867 1.61579 0
M  V30 5580 H 497.5 -1.50796 3.61077 0
M  V30 5581 H 497.123 -2.94368 2.6727 0
M  V30 5582 N 498.12 -1.38341 -0.754957 0
M  V30 5583 C 499.35 -1.37504 -1.54195 0
M  V30 5584 C 499.758 0.0373787 -1.89163 0
M  V30 5585 O 499.101 1.01402 -1.53178 0
M  V30 5586 C 499.163 -2.16488 -2.87008 0
M  V30 5587 C 498.827 -3.65311 -2.74585 0
M  V30 5588 C 499.824 -4.58834 -2.44474 0
M  V30 5589 C 497.509 -4.08649 -2.9208 0
M  V30 5590 C 499.503 -5.93675 -2.32011 0
M  V30 5591 C 497.19 -5.43571 -2.79237 0
M  V30 5592 C 498.188 -6.35898 -2.49245 0
M  V30 5593 O 497.876 -7.68338 -2.36458 0
M  V30 5594 H 497.608 -0.472159 -0.483779 0
M  V30 5595 H 500.162 -1.82515 -0.94221 0
M  V30 5596 H 498.392 -1.66194 -3.49166 0
M  V30 5597 H 500.081 -2.08076 -3.4851 0
M  V30 5598 H 500.847 -4.26657 -2.30627 0
M  V30 5599 H 496.726 -3.37134 -3.14422 0
M  V30 5600 H 500.27 -6.65706 -2.08522 0
M  V30 5601 H 496.167 -5.75345 -2.92657 0
M  V30 5602 H 496.935 -7.78845 -2.5168 0
M  V30 5603 N 499.598 0.982988 -1.23187 0
M  V30 5604 C 500.847 1.71817 -1.05649 0
M  V30 5605 C 501.16 1.91315 0.407176 0
M  V30 5606 O 502.366 2.62256 0.702436 0
M  V30 5607 C 500.822 3.09188 -1.84203 0
M  V30 5608 C 500.43 2.97586 -3.34882 0
M  V30 5609 C 502.174 3.86684 -1.75146 0
M  V30 5610 C 500.081 4.30173 -4.05839 0
M  V30 5611 H 499.011 0.644258 -0.391724 0
M  V30 5612 H 501.662 1.09659 -1.4713 0
M  V30 5613 H 500.044 3.72087 -1.35527 0
M  V30 5614 H 501.218 2.43793 -3.91026 0
M  V30 5615 H 499.533 2.33567 -3.44725 0
M  V30 5616 H 502.13 4.84836 -2.25473 0
M  V30 5617 H 502.473 4.10136 -0.713737 0
M  V30 5618 H 503.006 3.30482 -2.21419 0
M  V30 5619 H 499.745 4.11918 -5.09906 0
M  V30 5620 H 499.265 4.83841 -3.54482 0
M  V30 5621 H 500.944 4.98873 -4.11989 0
M  V30 5622 N 501.076 1.04316 1.18135 0
M  V30 5623 C 502.039 0.640794 2.2006 0
M  V30 5624 C 503.039 -0.303124 1.57917 0
M  V30 5625 O 504.229 -0.0881855 1.73977 0
M  V30 5626 C 501.361 -0.060148 3.40847 0
M  V30 5627 H 502.554 1.54281 2.57172 0
M  V30 5628 H 500.107 0.836004 1.32063 0
M  V30 5629 H 500.842 -0.975845 3.0927 0
M  V30 5630 H 500.627 0.618319 3.87194 0
M  V30 5631 H 502.117 -0.328082 4.16309 0
M  V30 5632 N 502.554 -1.34406 0.822964 0
M  V30 5633 C 503.803 -1.97542 0.407458 0
M  V30 5634 C 504.116 -1.65973 -1.035 0
M  V30 5635 O 505.322 -2.22598 -1.55442 0
M  V30 5636 C 503.778 -3.53463 0.677623 0
M  V30 5637 C 503.386 -3.93925 2.1337 0
M  V30 5638 C 505.13 -4.23229 0.328284 0
M  V30 5639 C 503.037 -5.42759 2.34876 0
M  V30 5640 H 501.967 -0.739207 0.148623 0
M  V30 5641 H 504.618 -1.53248 1.00932 0
M  V30 5642 H 503 -3.96 0.00558965 0
M  V30 5643 H 504.174 -3.62494 2.8449 0
M  V30 5644 H 502.489 -3.37097 2.44448 0
M  V30 5645 H 505.086 -5.32659 0.466794 0
M  V30 5646 H 505.429 -4.09899 -0.727224 0
M  V30 5647 H 505.962 -3.86169 0.954896 0
M  V30 5648 H 502.701 -5.61075 3.38932 0
M  V30 5649 H 502.221 -5.75704 1.68299 0
M  V30 5650 H 503.9 -6.0944 2.17236 0
M  V30 5651 N 504.032 -0.577932 -1.46621 0
M  V30 5652 C 504.98 0.170882 -2.31971 0
M  V30 5653 C 505.974 0.889086 -1.44193 0
M  V30 5654 O 507.18 0.808017 -1.60845 0
M  V30 5655 H 503.555 0.0739763 -0.748353 0
M  V30 5656 H 505.526 -0.567856 -2.92947 0
M  V30 5657 C 504.275 1.17438 -3.27267 0
M  V30 5658 H 503.598 0.63116 -3.94787 0
M  V30 5659 H 505.038 1.66882 -3.89778 0
M  V30 5660 C 503.497 2.23292 -2.52274 0
M  V30 5661 O 504.027 3.30567 -2.28229 0
M  V30 5662 N 502.233 1.97772 -2.12919 0
M  V30 5663 H 501.78 1.10545 -2.32675 0
M  V30 5664 H 501.738 2.68809 -1.63062 0
M  V30 5665 N 505.51 1.54411 -0.315457 0
M  V30 5666 C 506.756 2.00716 0.289972 0
M  V30 5667 C 507.089 1.2034 1.5242 0
M  V30 5668 O 506.364 0.283579 1.92422 0
M  V30 5669 C 506.647 3.54507 0.632196 0
M  V30 5670 C 506.5 4.45615 -0.61218 0
M  V30 5671 C 507.819 4.15421 1.45305 0
M  V30 5672 H 504.938 0.729637 0.10392 0
M  V30 5673 H 507.58 1.8506 -0.430427 0
M  V30 5674 H 505.73 3.67979 1.24595 0
M  V30 5675 H 507.402 4.44026 -1.25053 0
M  V30 5676 H 505.645 4.15621 -1.24264 0
M  V30 5677 H 506.316 5.51022 -0.328379 0
M  V30 5678 H 508.792 4.05474 0.934331 0
M  V30 5679 H 507.668 5.23157 1.66127 0
M  V30 5680 H 507.929 3.68223 2.44671 0
M  V30 5681 N 506.988 0.0434614 1.5754 0
M  V30 5682 C 508.213 -0.645358 1.97104 0
M  V30 5683 C 508.638 -1.64037 0.920521 0
M  V30 5684 O 507.996 -1.80922 -0.11708 0
M  V30 5685 C 508.044 -1.31547 3.35749 0
M  V30 5686 O 507.148 -2.43103 3.33129 0
M  V30 5687 H 506.489 -0.168403 0.64229 0
M  V30 5688 H 509.019 0.109573 2.04306 0
M  V30 5689 H 509.029 -1.66895 3.72304 0
M  V30 5690 H 507.704 -0.586205 4.11748 0
M  V30 5691 H 506.281 -2.0976 3.0831 0
M  V30 5692 N 508.466 -1.55915 -0.229846 0
M  V30 5693 C 509.691 -1.8296 -0.976743 0
M  V30 5694 C 510.116 -0.622735 -1.77493 0
M  V30 5695 O 509.474 0.428431 -1.76165 0
M  V30 5696 C 509.522 -3.07916 -1.8767 0
M  V30 5697 O 508.626 -2.86028 -2.97088 0
M  V30 5698 H 507.967 -0.603453 -0.277021 0
M  V30 5699 H 510.497 -2.0312 -0.245669 0
M  V30 5700 H 510.507 -3.37802 -2.2881 0
M  V30 5701 H 509.182 -3.95389 -1.28996 0
M  V30 5702 H 507.759 -2.67355 -2.59954 0
M  V30 5703 N 509.944 0.496216 -1.49584 0
M  V30 5704 C 511.355 1.07765 -1.52459 0
M  V30 5705 C 511.706 1.93679 -0.31353 0
M  V30 5706 O 510.831 2.08588 0.576186 0
M  V30 5707 C 511.426 1.96111 -2.76271 0
M  V30 5708 C 509.985 2.49409 -2.81908 0
M  V30 5709 C 509.132 1.27142 -2.46435 0
M  V30 5710 H 512.083 0.279914 -1.56212 0
M  V30 5711 H 512.104 2.80862 -2.56704 0
M  V30 5712 H 511.616 1.33555 -3.64396 0
M  V30 5713 H 509.717 3.1559 -1.98074 0
M  V30 5714 H 509.83 2.86234 -3.84196 0
M  V30 5715 H 508.194 1.59818 -1.98319 0
M  V30 5716 H 508.977 0.662866 -3.3684 0
M  V30 5717 N 511.423 1.38739 0.74761 0
M  V30 5718 C 512.371 1.36573 1.88283 0
M  V30 5719 C 513.365 0.250712 1.67534 0
M  V30 5720 O 514.571 0.420073 1.7503 0
M  V30 5721 H 510.946 0.42619 0.619569 0
M  V30 5722 H 512.917 2.32356 1.87226 0
M  V30 5723 C 511.666 1.21361 3.25832 0
M  V30 5724 H 510.989 2.06424 3.42388 0
M  V30 5725 H 512.429 1.23901 4.05493 0
M  V30 5726 C 510.888 -0.0790099 3.36807 0
M  V30 5727 O 511.418 -1.05385 3.8763 0
M  V30 5728 N 509.624 -0.13785 2.90273 0
M  V30 5729 H 509.171 0.656128 2.49104 0
M  V30 5730 H 509.129 -1.00228 2.97996 0
M  V30 5731 N 512.901 -0.976442 1.23707 0
M  V30 5732 C 514.129 -1.75341 1.09833 0
M  V30 5733 C 514.544 -1.8553 -0.349885 0
M  V30 5734 O 513.901 -1.33732 -1.24185 0
M  V30 5735 C 513.952 -3.17833 1.72233 0
M  V30 5736 O 513.673 -3.08167 3.11391 0
M  V30 5737 C 515.174 -4.11906 1.63853 0
M  V30 5738 H 512.394 -0.550137 0.384175 0
M  V30 5739 H 514.938 -1.2265 1.63638 0
M  V30 5740 H 513.093 -3.67538 1.22452 0
M  V30 5741 H 513.507 -3.97897 3.41729 0
M  V30 5742 H 514.981 -5.09579 2.12211 0
M  V30 5743 H 515.458 -4.35109 0.598092 0
M  V30 5744 H 516.064 -3.68107 2.13019 0
M  V30 5745 N 514.379 -1.04941 -1.1758 0
M  V30 5746 C 515.79 -0.784501 -1.69418 0
M  V30 5747 C 516.141 0.693625 -1.8353 0
M  V30 5748 O 515.266 1.53925 -1.52106 0
M  V30 5749 C 515.861 -1.41746 -3.07723 0
M  V30 5750 C 514.42 -1.20066 -3.56737 0
M  V30 5751 C 513.567 -1.5026 -2.33061 0
M  V30 5752 H 516.518 -1.21469 -1.02133 0
M  V30 5753 H 516.539 -0.825381 -3.7144 0
M  V30 5754 H 516.051 -2.49325 -2.9742 0
M  V30 5755 H 514.152 -0.144006 -3.72322 0
M  V30 5756 H 514.265 -1.90384 -4.39648 0
M  V30 5757 H 512.629 -0.922598 -2.37403 0
M  V30 5758 H 513.412 -2.58967 -2.25368 0
M  V30 5759 N 515.857 1.33968 -0.830081 0
M  V30 5760 C 517.105 1.97672 -0.420734 0
M  V30 5761 C 517.426 1.66111 1.02138 0
M  V30 5762 O 516.696 0.955503 1.71017 0
M  V30 5763 H 515.276 0.73125 -0.152587 0
M  V30 5764 H 517.938 1.63483 -1.0611 0
M  V30 5765 H 517.034 3.07294 -0.545588 0
M  V30 5766 N 517.335 0.585699 1.46312 0
M  V30 5767 C 518.265 -0.133556 2.33118 0
M  V30 5768 C 519.246 -0.880707 1.45525 0
M  V30 5769 O 520.431 -0.855579 1.74337 0
M  V30 5770 C 517.561 -1.14585 3.27853 0
M  V30 5771 C 516.515 -0.513341 4.2491 0
M  V30 5772 C 515.841 -1.63231 5.09175 0
M  V30 5773 C 517.141 0.551413 5.19381 0
M  V30 5774 H 518.835 0.59121 2.93505 0
M  V30 5775 H 516.381 0.285761 1.41136 0
M  V30 5776 H 518.334 -1.65741 3.87438 0
M  V30 5777 H 517.058 -1.90093 2.65579 0
M  V30 5778 H 515.717 -0.0228349 3.66593 0
M  V30 5779 H 515.365 -2.37713 4.43285 0
M  V30 5780 H 515.065 -1.21473 5.74907 0
M  V30 5781 H 516.589 -2.14658 5.71624 0
M  V30 5782 H 518.003 0.124804 5.73164 0
M  V30 5783 H 516.4 0.889486 5.93471 0
M  V30 5784 H 517.47 1.43655 4.63132 0
M  V30 5785 N 518.813 -1.54241 0.323641 0
M  V30 5786 C 520.229 -1.59574 -0.0290018 0
M  V30 5787 C 520.429 -1.34017 -1.50472 0
M  V30 5788 O 519.485 -1.12464 -2.26071 0
M  V30 5789 C 520.798 -2.98169 0.389295 0
M  V30 5790 C 522.346 -3.11148 0.339958 0
M  V30 5791 C 522.821 -4.5209 0.733418 0
M  V30 5792 N 524.312 -4.5808 0.686827 0
M  V30 5793 C 525.047 -5.65248 0.963464 0
M  V30 5794 N 524.543 -6.80355 1.30724 0
M  V30 5795 N 526.336 -5.55025 0.88902 0
M  V30 5796 H 518.487 -1.6911 1.28512 0
M  V30 5797 H 520.75 -0.790972 0.522558 0
M  V30 5798 H 520.456 -3.21871 1.41746 0
M  V30 5799 H 520.33 -3.76399 -0.245657 0
M  V30 5800 H 522.717 -2.87182 -0.679002 0
M  V30 5801 H 522.798 -2.35023 1.00985 0
M  V30 5802 H 522.442 -4.76788 1.75029 0
M  V30 5803 H 522.372 -5.26584 0.0412189 0
M  V30 5804 H 524.863 -3.75411 0.43298 0
M  V30 5805 H 525.176 -7.58029 1.5037 0
M  V30 5806 H 523.521 -6.81851 1.3455 0
M  V30 5807 H 526.712 -4.63977 0.619939 0
M  V30 5808 H 526.885 -6.38458 1.10797 0
M  V30 5809 N 520.291 -0.0518155 -1.57515 0
M  V30 5810 C 521.568 0.661727 -1.84067 0
M  V30 5811 C 521.948 1.88999 -0.940351 0
M  V30 5812 O 521.296 2.285 -0.00155404 0
M  V30 5813 C 521.506 1.01841 -3.3381 0
M  V30 5814 C 522.854 1.40043 -4.00841 0
M  V30 5815 O 523.878 1.11073 -3.38439 0
M  V30 5816 O 522.737 1.94111 -5.10865 0
M  V30 5817 H 519.831 0.326702 -0.759733 0
M  V30 5818 H 522.377 -0.0812277 -1.69505 0
M  V30 5819 H 521.149 0.145202 -3.91031 0
M  V30 5820 H 520.772 1.81879 -3.53562 0
M  V30 5821 N 521.769 1.56035 0.221574 0
M  V30 5822 C 522.717 1.93269 1.29421 0
M  V30 5823 C 523.711 0.814727 1.48521 0
M  V30 5824 O 524.917 0.999559 1.49696 0
M  V30 5825 H 521.292 0.614188 0.43391 0
M  V30 5826 H 523.263 2.82773 0.952987 0
M  V30 5827 C 522.012 2.26573 2.63742 0
M  V30 5828 H 521.335 3.12112 2.49853 0
M  V30 5829 H 522.775 2.5651 3.37607 0
M  V30 5830 C 521.234 1.09086 3.1875 0
M  V30 5831 O 521.764 0.351985 4.00155 0
M  V30 5832 N 519.97 0.874693 2.77124 0
M  V30 5833 H 519.517 1.47726 2.11033 0
M  V30 5834 H 519.475 0.0903349 3.1427 0
M  V30 5835 N 523.247 -0.488276 1.49845 0
M  V30 5836 C 524.179 -1.60539 1.63584 0
M  V30 5837 C 525.192 -1.5434 0.517972 0
M  V30 5838 O 526.381 -1.60041 0.790516 0
M  V30 5839 C 523.481 -2.99374 1.58835 0
M  V30 5840 C 522.654 -3.30624 2.86368 0
M  V30 5841 C 521.713 -4.4893 2.74496 0
M  V30 5842 O 520.739 -4.50085 3.48443 0
M  V30 5843 N 521.941 -5.49591 1.86894 0
M  V30 5844 H 524.706 -1.49176 2.59936 0
M  V30 5845 H 522.267 -0.67639 1.47094 0
M  V30 5846 H 524.259 -3.76459 1.48529 0
M  V30 5847 H 522.829 -3.04595 0.702892 0
M  V30 5848 H 522.049 -2.42314 3.1093 0
M  V30 5849 H 523.337 -3.48305 3.70892 0
M  V30 5850 H 522.735 -5.51467 1.26097 0
M  V30 5851 H 521.292 -6.25728 1.82503 0
M  V30 5852 N 524.725 -1.39134 -0.740242 0
M  V30 5853 C 525.635 -1.39697 -1.88473 0
M  V30 5854 C 526.651 -0.292403 -1.71526 0
M  V30 5855 O 527.827 -0.533021 -1.94219 0
M  V30 5856 C 524.892 -1.23382 -3.24003 0
M  V30 5857 C 523.953 -2.43763 -3.53381 0
M  V30 5858 C 523.186 -2.28216 -4.82445 0
M  V30 5859 O 523.409 -1.28288 -5.55786 0
M  V30 5860 O 522.343 -3.1709 -5.11603 0
M  V30 5861 H 526.169 -2.36159 -1.90952 0
M  V30 5862 H 523.754 -1.20194 -0.887346 0
M  V30 5863 H 525.636 -1.16395 -4.05006 0
M  V30 5864 H 524.311 -0.300121 -3.22306 0
M  V30 5865 H 523.218 -2.56325 -2.72485 0
M  V30 5866 H 524.551 -3.35808 -3.59852 0
M  V30 5867 N 526.204 0.969867 -1.24223 0
M  V30 5868 C 527.167 2.04564 -1.03373 0
M  V30 5869 C 528.167 1.60798 0.00819206 0
M  V30 5870 O 529.357 1.72641 -0.232567 0
M  V30 5871 C 526.489 3.36163 -0.566343 0
M  V30 5872 H 527.682 2.24494 -1.98853 0
M  V30 5873 H 525.235 1.1448 -1.06415 0
M  V30 5874 H 525.97 3.21925 0.391751 0
M  V30 5875 H 525.755 3.69273 -1.31834 0
M  V30 5876 H 527.245 4.1526 -0.441435 0
M  V30 5877 N 527.682 1.05563 1.17022 0
M  V30 5878 C 528.93 0.76642 1.87004 0
M  V30 5879 C 529.251 -0.708854 1.8166 0
M  V30 5880 O 528.521 -1.51242 1.2451 0
M  V30 5881 H 527.101 0.280516 0.692329 0
M  V30 5882 H 529.763 1.33557 1.41945 0
M  V30 5883 H 528.859 1.08472 2.92644 0
M  V30 5884 N 529.16 -1.33526 0.837174 0
M  V30 5885 C 530.107 -2.29248 0.267169 0
M  V30 5886 C 531.077 -1.54252 -0.616071 0
M  V30 5887 O 532.262 -1.82559 -0.554699 0
M  V30 5888 C 529.402 -3.40638 -0.553152 0
M  V30 5889 C 528.515 -4.30548 0.353921 0
M  V30 5890 C 527.65 -5.29051 -0.477339 0
M  V30 5891 C 526.689 -6.106 0.42823 0
M  V30 5892 N 525.826 -7.01152 -0.364801 0
M  V30 5893 H 530.666 -2.77398 1.08877 0
M  V30 5894 H 528.203 -1.36496 0.54838 0
M  V30 5895 H 530.161 -4.03921 -1.04422 0
M  V30 5896 H 528.791 -2.93685 -1.33973 0
M  V30 5897 H 527.843 -3.68001 0.963289 0
M  V30 5898 H 529.155 -4.87631 1.04964 0
M  V30 5899 H 528.309 -5.97853 -1.0323 0
M  V30 5900 H 527.048 -4.72541 -1.2065 0
M  V30 5901 H 526.053 -5.40718 0.995219 0
M  V30 5902 H 527.278 -6.69193 1.15573 0
M  V30 5903 H 525.224 -6.47092 -1.07738 0
M  V30 5904 H 525.141 -7.5551 0.272238 0
M  V30 5905 H 526.409 -7.74263 -0.902054 0
M  V30 5906 N 530.638 -0.59345 -1.46 0
M  V30 5907 C 531.568 0.121192 -2.33185 0
M  V30 5908 C 532.549 0.872977 -1.4599 0
M  V30 5909 O 533.734 0.846321 -1.74789 0
M  V30 5910 C 530.864 1.12844 -3.28456 0
M  V30 5911 C 529.818 0.4908 -4.25177 0
M  V30 5912 C 529.144 1.60529 -5.10034 0
M  V30 5913 C 530.444 -0.578949 -5.19081 0
M  V30 5914 H 532.138 -0.606767 -2.93187 0
M  V30 5915 H 529.684 -0.293242 -1.40983 0
M  V30 5916 H 531.637 1.63684 -3.88311 0
M  V30 5917 H 530.361 1.88681 -2.66584 0
M  V30 5918 H 529.02 0.00339328 -3.666 0
M  V30 5919 H 528.668 2.35359 -4.44539 0
M  V30 5920 H 528.368 1.18422 -5.75543 0
M  V30 5921 H 529.892 2.11623 -5.72755 0
M  V30 5922 H 531.306 -0.155199 -5.7309 0
M  V30 5923 H 529.703 -0.920947 -5.92991 0
M  V30 5924 H 530.773 -1.46109 -4.62364 0
M  V30 5925 N 532.116 1.54067 -0.331816 0
M  V30 5926 C 533.063 2.24623 0.530372 0
M  V30 5927 C 534.033 1.24009 1.10503 0
M  V30 5928 O 535.218 1.52712 1.14384 0
M  V30 5929 C 532.358 3.01374 1.68129 0
M  V30 5930 C 531.471 4.16821 1.13507 0
M  V30 5931 C 530.606 4.81085 2.25234 0
M  V30 5932 C 529.645 5.88621 1.67903 0
M  V30 5933 N 528.782 6.46713 2.73326 0
M  V30 5934 H 533.622 2.97898 -0.0778607 0
M  V30 5935 H 531.159 1.47014 -0.0501965 0
M  V30 5936 H 533.117 3.44125 2.35868 0
M  V30 5937 H 531.747 2.30419 2.26069 0
M  V30 5938 H 530.799 3.78796 0.348979 0
M  V30 5939 H 532.111 4.94203 0.675633 0
M  V30 5940 H 531.265 5.26846 3.00862 0
M  V30 5941 H 530.004 4.03102 2.74518 0
M  V30 5942 H 529.009 5.42254 0.907773 0
M  V30 5943 H 530.234 6.68506 1.19487 0
M  V30 5944 H 528.18 5.71599 3.21886 0
M  V30 5945 H 528.097 7.19532 2.3197 0
M  V30 5946 H 529.365 6.97129 3.48758 0
M  V30 5947 N 533.594 0.0601682 1.57485 0
M  V30 5948 C 534.542 -0.928899 2.13247 0
M  V30 5949 C 535.536 -1.31616 1.06647 0
M  V30 5950 O 536.742 -1.29476 1.25043 0
M  V30 5951 H 533.117 -0.317455 0.681708 0
M  V30 5952 H 535.088 -0.433566 2.95233 0
M  V30 5953 C 533.837 -2.19121 2.69965 0
M  V30 5954 H 533.16 -1.90204 3.51657 0
M  V30 5955 H 534.6 -2.86465 3.12592 0
M  V30 5956 C 533.059 -2.94195 1.64168 0
M  V30 5957 O 533.589 -3.87468 1.05978 0
M  V30 5958 N 531.795 -2.57089 1.35476 0
M  V30 5959 H 531.342 -1.81314 1.82984 0
M  V30 5960 H 531.3 -3.07624 0.649196 0
M  V30 5961 N 535.072 -1.5615 -0.213296 0
M  V30 5962 C 536.321 -1.78743 -0.93455 0
M  V30 5963 C 536.634 -0.630199 -1.8517 0
M  V30 5964 O 537.84 -0.739966 -2.61222 0
M  V30 5965 C 536.296 -3.16571 -1.71203 0
M  V30 5966 C 535.904 -4.40043 -0.840617 0
M  V30 5967 C 537.648 -3.48485 -2.42401 0
M  V30 5968 C 535.555 -5.68895 -1.61592 0
M  V30 5969 H 534.485 -0.666426 -0.352692 0
M  V30 5970 H 537.136 -1.82532 -0.188227 0
M  V30 5971 H 535.518 -3.06981 -2.50157 0
M  V30 5972 H 536.692 -4.6071 -0.0910326 0
M  V30 5973 H 535.007 -4.15706 -0.240365 0
M  V30 5974 H 537.604 -4.41983 -3.00924 0
M  V30 5975 H 537.947 -2.71371 -3.15695 0
M  V30 5976 H 538.48 -3.59442 -1.7043 0
M  V30 5977 H 535.219 -6.48925 -0.926106 0
M  V30 5978 H 534.739 -5.52275 -2.33991 0
M  V30 5979 H 536.418 -6.09365 -2.17447 0
M  V30 5980 N 536.55 0.480323 -1.50102 0
M  V30 5981 C 537.799 1.22979 -1.59872 0
M  V30 5982 C 538.112 1.93282 -0.30022 0
M  V30 5983 O 539.318 2.70086 -0.276709 0
M  V30 5984 C 537.774 2.23408 -2.82164 0
M  V30 5985 C 537.382 1.5895 -4.18854 0
M  V30 5986 C 539.126 2.99055 -3.01275 0
M  V30 5987 C 537.033 2.57611 -5.32344 0
M  V30 5988 H 535.963 0.462707 -0.59533 0
M  V30 5989 H 538.614 0.501291 -1.7652 0
M  V30 5990 H 536.996 2.99511 -2.59055 0
M  V30 5991 H 538.17 0.887 -4.52182 0
M  V30 5992 H 536.485 0.956191 -4.05273 0
M  V30 5993 H 539.082 3.72876 -3.83233 0
M  V30 5994 H 539.425 3.57897 -2.12639 0
M  V30 5995 H 539.958 2.30066 -3.24522 0
M  V30 5996 H 536.697 2.03521 -6.23105 0
M  V30 5997 H 536.217 3.26041 -5.03445 0
M  V30 5998 H 537.896 3.19627 -5.62537 0
M  V30 5999 N 538.028 1.39524 0.732853 0
M  V30 6000 C 538.958 1.41153 1.86005 0
M  V30 6001 C 539.939 0.274614 1.67869 0
M  V30 6002 O 541.124 0.480745 1.88155 0
M  V30 6003 C 538.254 1.25638 3.23778 0
M  V30 6004 C 537.208 2.36752 3.56556 0
M  V30 6005 C 536.534 2.06326 4.93289 0
M  V30 6006 C 537.834 3.79069 3.5931 0
M  V30 6007 H 539.528 2.35484 1.84899 0
M  V30 6008 H 537.074 1.13348 0.888162 0
M  V30 6009 H 539.027 1.25398 4.0231 0
M  V30 6010 H 537.751 0.277772 3.25417 0
M  V30 6011 H 536.41 2.36213 2.80355 0
M  V30 6012 H 536.058 1.06897 4.9151 0
M  V30 6013 H 535.758 2.80757 5.16187 0
M  V30 6014 H 537.282 2.07739 5.74175 0
M  V30 6015 H 538.696 3.81526 4.27914 0
M  V30 6016 H 537.093 4.52878 3.93728 0
M  V30 6017 H 538.163 4.09893 2.59068 0
M  V30 6018 N 539.506 -0.963266 1.24736 0
M  V30 6019 C 540.731 -1.74699 1.11781 0
M  V30 6020 C 541.156 -1.85267 -0.325258 0
M  V30 6021 O 540.514 -1.32681 -1.23553 0
M  V30 6022 C 540.562 -3.14322 1.76731 0
M  V30 6023 O 539.666 -3.99043 1.04109 0
M  V30 6024 H 539.007 -0.53684 0.390767 0
M  V30 6025 H 541.537 -1.20801 1.65131 0
M  V30 6026 H 541.547 -3.64824 1.82668 0
M  V30 6027 H 540.222 -3.05946 2.81726 0
M  V30 6028 H 538.799 -3.5752 1.05991 0
M  V30 6029 N 540.985 -1.06182 -1.16461 0
M  V30 6030 C 542.231 -0.779015 -1.87241 0
M  V30 6031 C 542.564 0.692715 -1.81425 0
M  V30 6032 O 541.839 1.5074 -1.22913 0
M  V30 6033 C 542.122 -1.2728 -3.36856 0
M  V30 6034 C 541.975 -2.80821 -3.51368 0
M  V30 6035 C 543.294 -0.879799 -4.31216 0
M  V30 6036 H 540.413 -0.284464 -0.679889 0
M  V30 6037 H 543.055 -1.31755 -1.36896 0
M  V30 6038 H 541.205 -0.814673 -3.79862 0
M  V30 6039 H 542.877 -3.34833 -3.17308 0
M  V30 6040 H 541.12 -3.19606 -2.93316 0
M  V30 6041 H 541.791 -3.10435 -4.56436 0
M  V30 6042 H 544.267 -1.27436 -3.96105 0
M  V30 6043 H 543.143 -1.25278 -5.34412 0
M  V30 6044 H 543.404 0.215372 -4.41575 0
M  V30 6045 N 542.463 1.3308 -0.844243 0
M  V30 6046 C 543.41 2.29104 -0.279323 0
M  V30 6047 C 544.38 1.54577 0.607882 0
M  V30 6048 O 545.565 1.8285 0.545009 0
M  V30 6049 C 542.705 3.40927 0.53508 0
M  V30 6050 C 541.818 4.30354 -0.376749 0
M  V30 6051 C 540.953 5.29297 0.449276 0
M  V30 6052 C 539.992 6.10365 -0.460606 0
M  V30 6053 N 539.129 7.01335 0.327612 0
M  V30 6054 H 543.969 2.76817 -1.10346 0
M  V30 6055 H 541.506 1.36203 -0.555611 0
M  V30 6056 H 543.464 4.04469 1.02278 0
M  V30 6057 H 542.094 2.94391 1.32414 0
M  V30 6058 H 541.146 3.67485 -0.982791 0
M  V30 6059 H 542.458 4.87067 -1.07549 0
M  V30 6060 H 541.612 5.98392 1.00058 0
M  V30 6061 H 540.351 4.73174 1.18143 0
M  V30 6062 H 539.356 5.40182 -1.02388 0
M  V30 6063 H 540.581 6.68571 -1.1912 0
M  V30 6064 H 538.527 6.47655 1.04305 0
M  V30 6065 H 538.444 7.55355 -0.3123 0
M  V30 6066 H 539.712 7.74731 0.86098 0
M  V30 6067 N 543.941 0.601185 1.45683 0
M  V30 6068 C 544.851 -0.123395 2.34275 0
M  V30 6069 C 545.867 -0.86702 1.5086 0
M  V30 6070 O 547.043 -0.826049 1.8368 0
M  V30 6071 C 544.108 -1.11237 3.2837 0
M  V30 6072 C 543.169 -0.371405 4.2769 0
M  V30 6073 C 542.402 -1.31327 5.1729 0
M  V30 6074 O 542.625 -2.55078 5.10188 0
M  V30 6075 O 541.559 -0.813811 5.96373 0
M  V30 6076 H 545.385 0.604483 2.97623 0
M  V30 6077 H 542.97 0.361477 1.44961 0
M  V30 6078 H 544.852 -1.68214 3.8637 0
M  V30 6079 H 543.527 -1.82139 2.67595 0
M  V30 6080 H 542.434 0.24067 3.73325 0
M  V30 6081 H 543.767 0.296998 4.91303 0
M  V30 6082 N 545.419 -1.53889 0.339982 0
M  V30 6083 C 546.329 -2.28604 -0.526988 0
M  V30 6084 C 547.345 -1.33578 -1.11503 0
M  V30 6085 O 548.521 -1.66612 -1.13148 0
M  V30 6086 C 545.586 -3.04164 -1.66389 0
M  V30 6087 C 544.647 -4.14809 -1.10599 0
M  V30 6088 C 543.88 -4.86756 -2.18871 0
M  V30 6089 O 544.103 -4.58343 -3.39526 0
M  V30 6090 O 543.037 -5.73289 -1.83366 0
M  V30 6091 H 546.863 -3.03594 0.0802707 0
M  V30 6092 H 544.448 -1.4903 0.105141 0
M  V30 6093 H 546.33 -3.51427 -2.32544 0
M  V30 6094 H 545.005 -2.32035 -2.25703 0
M  V30 6095 H 543.912 -3.71857 -0.409067 0
M  V30 6096 H 545.245 -4.89029 -0.557771 0
M  V30 6097 N 546.897 -0.0685191 -1.57451 0
M  V30 6098 C 548.146 0.600898 -1.92541 0
M  V30 6099 C 548.459 1.70967 -0.950239 0
M  V30 6100 O 549.665 2.43844 -1.19384 0
M  V30 6101 C 548.121 1.12019 -3.42023 0
M  V30 6102 C 547.729 0.0426028 -4.4798 0
M  V30 6103 C 549.473 1.76386 -3.86119 0
M  V30 6104 C 547.38 0.575759 -5.88591 0
M  V30 6105 H 546.31 0.228225 -0.71863 0
M  V30 6106 H 548.961 -0.140223 -1.82963 0
M  V30 6107 H 547.343 1.91418 -3.46663 0
M  V30 6108 H 548.517 -0.73182 -4.54952 0
M  V30 6109 H 546.832 -0.504642 -4.13331 0
M  V30 6110 H 549.429 2.17302 -4.88553 0
M  V30 6111 H 549.772 2.62255 -3.23308 0
M  V30 6112 H 550.305 1.03615 -3.84069 0
M  V30 6113 H 547.044 -0.245691 -6.55039 0
M  V30 6114 H 546.564 1.31778 -5.85145 0
M  V30 6115 H 548.243 1.0532 -6.3837 0
M  V30 6116 N 548.375 1.56261 0.205012 0
M  V30 6117 C 549.652 1.70856 0.952233 0
M  V30 6118 C 550.032 0.620501 2.01775 0
M  V30 6119 O 549.38 -0.370035 2.25484 0
M  V30 6120 C 549.59 3.12807 1.54767 0
M  V30 6121 C 550.938 3.72733 2.0336 0
M  V30 6122 O 551.962 3.15873 1.64629 0
M  V30 6123 O 550.821 4.72501 2.746 0
M  V30 6124 H 547.915 0.696496 0.445895 0
M  V30 6125 H 550.461 1.6857 0.195489 0
M  V30 6126 H 549.233 3.83465 0.779132 0
M  V30 6127 H 548.856 3.1928 2.36951 0
M  V30 6128 N 549.853 -0.472356 1.50355 0
M  V30 6129 C 550.801 -1.59126 1.69651 0
M  V30 6130 C 551.795 -1.59793 0.56237 0
M  V30 6131 O 553.001 -1.63957 0.742832 0
M  V30 6132 H 549.376 -0.528008 0.535454 0
M  V30 6133 H 551.347 -1.40013 2.63513 0
M  V30 6134 C 550.096 -2.97075 1.8067 0
M  V30 6135 H 549.419 -2.9728 2.67329 0
M  V30 6136 H 550.859 -3.74825 1.98197 0
M  V30 6137 C 549.318 -3.32247 0.558016 0
M  V30 6138 O 549.848 -4.00553 -0.303399 0
M  V30 6139 N 548.054 -2.87659 0.412415 0
M  V30 6140 H 547.601 -2.32246 1.11443 0
M  V30 6141 H 547.559 -3.11556 -0.421908 0
M  V30 6142 N 551.331 -1.39911 -0.725443 0
M  V30 6143 C 552.261 -1.42138 -1.85254 0
M  V30 6144 C 553.242 -0.283513 -1.67721 0
M  V30 6145 O 554.427 -0.490717 -1.87898 0
M  V30 6146 C 551.557 -1.27354 -3.23107 0
M  V30 6147 C 550.511 -2.3864 -3.55296 0
M  V30 6148 C 549.837 -2.08939 -4.92188 0
M  V30 6149 C 551.137 -3.8097 -3.57295 0
M  V30 6150 H 552.831 -2.36461 -1.83648 0
M  V30 6151 H 550.377 -1.13817 -0.882138 0
M  V30 6152 H 552.33 -1.2753 -4.01639 0
M  V30 6153 H 551.054 -0.295025 -3.25265 0
M  V30 6154 H 549.713 -2.37696 -2.79099 0
M  V30 6155 H 549.361 -1.09502 -4.90936 0
M  V30 6156 H 549.061 -2.83491 -5.14691 0
M  V30 6157 H 550.585 -2.10781 -5.73065 0
M  V30 6158 H 551.999 -3.8379 -4.25885 0
M  V30 6159 H 550.396 -4.5496 -3.9132 0
M  V30 6160 H 551.466 -4.11261 -2.5689 0
M  V30 6161 N 552.809 0.956637 -1.25245 0
M  V30 6162 C 553.719 2.0868 -1.0719 0
M  V30 6163 C 554.735 1.73997 -0.00959074 0
M  V30 6164 O 555.911 2.00301 -0.210104 0
M  V30 6165 C 552.976 3.39754 -0.690526 0
M  V30 6166 C 552.037 3.88316 -1.83055 0
M  V30 6167 C 551.27 5.13134 -1.46728 0
M  V30 6168 O 551.493 5.6925 -0.362029 0
M  V30 6169 O 550.427 5.56356 -2.29677 0
M  V30 6170 H 554.253 2.26813 -2.01965 0
M  V30 6171 H 551.838 1.07098 -1.04165 0
M  V30 6172 H 553.72 4.18543 -0.489871 0
M  V30 6173 H 552.395 3.22896 0.227981 0
M  V30 6174 H 551.302 3.1054 -2.08604 0
M  V30 6175 H 552.635 4.09669 -2.72822 0
M  V30 6176 N 554.287 1.06798 1.15896 0
M  V30 6177 C 555.234 0.683314 2.20453 0
M  V30 6178 C 556.204 -0.32255 1.62938 0
M  V30 6179 O 557.389 -0.210276 1.89638 0
M  V30 6180 C 554.529 0.0813266 3.45004 0
M  V30 6181 C 553.642 1.13799 4.16742 0
M  V30 6182 C 552.777 0.501598 5.28826 0
M  V30 6183 C 551.816 1.54144 5.92373 0
M  V30 6184 N 550.953 0.928038 6.9594 0
M  V30 6185 H 555.793 1.57932 2.52708 0
M  V30 6186 H 553.33 0.789544 1.24115 0
M  V30 6187 H 555.288 -0.285274 4.16224 0
M  V30 6188 H 553.918 -0.77806 3.13283 0
M  V30 6189 H 552.97 1.62223 3.44075 0
M  V30 6190 H 554.282 1.92664 4.60089 0
M  V30 6191 H 553.436 0.0823162 6.06644 0
M  V30 6192 H 552.175 -0.318883 4.86656 0
M  V30 6193 H 551.18 1.97056 5.13273 0
M  V30 6194 H 552.405 2.3641 6.36621 0
M  V30 6195 H 550.351 0.12836 6.55874 0
M  V30 6196 H 550.268 1.65401 7.37685 0
M  V30 6197 H 551.536 0.534071 7.77668 0
M  V30 6198 N 555.766 -1.3263 0.851289 0
M  V30 6199 C 556.714 -2.30882 0.282202 0
M  V30 6200 C 557.708 -1.58697 -0.592589 0
M  V30 6201 O 558.914 -1.73461 -0.480768 0
M  V30 6202 H 555.289 -0.748492 0.0725487 0
M  V30 6203 H 557.26 -2.76374 1.12516 0
M  V30 6204 C 556.009 -3.43828 -0.517449 0
M  V30 6205 H 555.332 -3.99532 0.146392 0
M  V30 6206 H 556.772 -4.1474 -0.88128 0
M  V30 6207 C 555.231 -2.90786 -1.70133 0
M  V30 6208 O 555.761 -2.88 -2.80034 0
M  V30 6209 N 553.967 -2.4723 -1.52728 0
M  V30 6210 H 553.514 -2.49695 -0.633257 0
M  V30 6211 H 553.472 -2.12094 -2.32085 0
M  V30 6212 N 557.244 -0.608902 -1.45362 0
M  V30 6213 C 558.192 0.121639 -2.32282 0
M  V30 6214 C 559.186 0.858301 -1.46046 0
M  V30 6215 O 560.392 0.773718 -1.62523 0
M  V30 6216 H 556.767 0.058086 -0.749753 0
M  V30 6217 H 558.738 -0.629866 -2.91677 0
M  V30 6218 C 557.487 1.1047 -3.29684 0
M  V30 6219 H 556.81 0.547278 -3.96036 0
M  V30 6220 H 558.25 1.58576 -3.9323 0
M  V30 6221 C 556.709 2.17891 -2.56954 0
M  V30 6222 O 557.239 3.25652 -2.35189 0
M  V30 6223 N 555.445 1.93211 -2.17066 0
M  V30 6224 H 554.992 1.05584 -2.34967 0
M  V30 6225 H 554.95 2.6529 -1.68727 0
M  V30 6226 N 558.722 1.53707 -0.348139 0
M  V30 6227 C 559.971 2.0017 0.247992 0
M  V30 6228 C 560.284 1.23983 1.51286 0
M  V30 6229 O 561.49 1.60946 2.18652 0
M  V30 6230 C 559.946 3.56515 0.492459 0
M  V30 6231 C 559.554 4.41562 -0.756777 0
M  V30 6232 C 561.298 4.11381 1.0472 0
M  V30 6233 C 559.205 5.89426 -0.482856 0
M  V30 6234 H 558.135 0.747806 0.0964452 0
M  V30 6235 H 560.786 1.77532 -0.464179 0
M  V30 6236 H 559.168 3.75236 1.26545 0
M  V30 6237 H 560.342 4.34615 -1.53122 0
M  V30 6238 H 558.657 3.97711 -1.23348 0
M  V30 6239 H 561.254 5.19468 1.26717 0
M  V30 6240 H 561.597 3.64885 2.00411 0
M  V30 6241 H 562.13 3.96389 0.334801 0
M  V30 6242 H 558.869 6.40164 -1.40962 0
M  V30 6243 H 558.389 5.99264 0.253416 0
M  V30 6244 H 560.068 6.4692 -0.101816 0
M  V30 6245 N 560.2 0.0768682 1.57412 0
M  V30 6246 C 561.133 -0.924685 2.08626 0
M  V30 6247 C 562.111 -1.28792 0.992542 0
M  V30 6248 O 563.295 -1.39634 1.26628 0
M  V30 6249 C 560.422 -2.23131 2.54814 0
M  V30 6250 C 559.468 -2.01928 3.75669 0
M  V30 6251 S 560.301 -1.27397 5.20125 0
M  V30 6252 C 561.457 -2.59329 5.69648 0
M  V30 6253 H 561.69 -0.488928 2.93252 0
M  V30 6254 H 559.223 -0.136014 1.538 0
M  V30 6255 H 561.181 -2.98226 2.82084 0
M  V30 6256 H 559.842 -2.63831 1.70447 0
M  V30 6257 H 559.035 -2.98639 4.05993 0
M  V30 6258 H 558.637 -1.34967 3.48798 0
M  V30 6259 H 560.929 -3.55394 5.76803 0
M  V30 6260 H 561.872 -2.33608 6.68456 0
M  V30 6261 H 562.28 -2.66767 4.9749 0
M  V30 6262 N 561.678 -1.56367 -0.196722 0
M  V30 6263 C 562.626 -1.95304 -1.2633 0
M  V30 6264 C 563.62 -0.838252 -1.47206 0
M  V30 6265 O 564.826 -1.02325 -1.48087 0
M  V30 6266 H 561.201 -0.621013 -0.424083 0
M  V30 6267 H 563.172 -2.84254 -0.907879 0
M  V30 6268 C 561.921 -2.3074 -2.60104 0
M  V30 6269 H 561.244 -3.16047 -2.44856 0
M  V30 6270 H 562.684 -2.61849 -3.33484 0
M  V30 6271 C 561.143 -1.14143 -3.16975 0
M  V30 6272 O 561.673 -0.415602 -3.99544 0
M  V30 6273 N 559.879 -0.91867 -2.75697 0
M  V30 6274 H 559.426 -1.51065 -2.08656 0
M  V30 6275 H 559.384 -0.140321 -3.14087 0
M  V30 6276 N 563.156 0.464375 -1.50603 0
M  V30 6277 C 564.433 1.22549 -1.5245 0
M  V30 6278 C 564.813 2.09327 -0.273035 0
M  V30 6279 O 564.161 2.16074 0.743242 0
M  V30 6280 C 564.371 2.05074 -2.82393 0
M  V30 6281 C 565.719 2.63036 -3.33313 0
M  V30 6282 O 566.743 2.1531 -2.8376 0
M  V30 6283 O 565.602 3.5001 -4.19709 0
M  V30 6284 H 562.696 0.556471 -0.611775 0
M  V30 6285 H 565.242 0.475648 -1.62898 0
M  V30 6286 H 564.014 1.41169 -3.64948 0
M  V30 6287 H 563.637 2.87179 -2.7498 0
M  V30 6288 N 564.634 1.40294 0.718013 0
M  V30 6289 C 565.544 1.42678 1.86226 0
M  V30 6290 C 566.56 0.319655 1.71039 0
M  V30 6291 O 567.736 0.563852 1.93346 0
M  V30 6292 C 564.801 1.2852 3.21999 0
M  V30 6293 C 563.862 2.49354 3.49458 0
M  V30 6294 C 563.095 2.35863 4.78753 0
M  V30 6295 O 563.318 1.37114 5.53675 0
M  V30 6296 O 562.252 3.25189 5.06494 0
M  V30 6297 H 566.078 2.39167 1.87171 0
M  V30 6298 H 563.663 1.2159 0.868112 0
M  V30 6299 H 565.545 1.22824 4.03103 0
M  V30 6300 H 564.22 0.351359 3.21787 0
M  V30 6301 H 563.127 2.60628 2.68373 0
M  V30 6302 H 564.46 3.41491 3.54464 0
M  V30 6303 N 566.112 -0.949982 1.2575 0
M  V30 6304 C 567.337 -1.73503 1.13628 0
M  V30 6305 C 567.762 -1.85601 -0.30559 0
M  V30 6306 O 567.12 -1.33984 -1.22139 0
M  V30 6307 C 567.168 -3.1243 1.80055 0
M  V30 6308 O 566.272 -3.97916 1.08336 0
M  V30 6309 H 565.613 -0.532665 0.396439 0
M  V30 6310 H 568.143 -1.19043 1.66403 0
M  V30 6311 H 568.153 -3.62866 1.86527 0
M  V30 6312 H 566.828 -3.02941 2.84956 0
M  V30 6313 H 565.405 -3.56375 1.09777 0
M  V30 6314 N 567.59 -1.07411 -1.15328 0
M  V30 6315 C 568.818 -0.818782 -1.90009 0
M  V30 6316 C 569.233 0.628072 -1.78047 0
M  V30 6317 O 568.59 1.43085 -1.13282 0
M  V30 6318 C 568.641 -1.21874 -3.40337 0
M  V30 6319 O 568.362 -2.60883 -3.51954 0
M  V30 6320 C 569.863 -0.992796 -4.3204 0
M  V30 6321 H 567.083 -0.296007 -0.60218 0
M  V30 6322 H 569.627 -1.43073 -1.46117 0
M  V30 6323 H 567.782 -0.651103 -3.81889 0
M  V30 6324 H 568.196 -2.77216 -4.45255 0
M  V30 6325 H 569.67 -1.32215 -5.35932 0
M  V30 6326 H 570.147 0.0708331 -4.39143 0
M  V30 6327 H 570.753 -1.54537 -3.9623 0
M  V30 6328 N 569.068 1.32177 -0.85831 0
M  V30 6329 C 570.298 2.01021 -0.476889 0
M  V30 6330 C 570.706 1.64653 0.931995 0
M  V30 6331 O 570.049 0.865713 1.62022 0
M  V30 6332 C 570.111 3.55413 -0.540528 0
M  V30 6333 C 569.775 4.1522 -1.90895 0
M  V30 6334 C 570.772 4.3318 -2.87491 0
M  V30 6335 C 568.457 4.51212 -2.20709 0
M  V30 6336 C 570.451 4.86306 -4.1205 0
M  V30 6337 C 568.138 5.04042 -3.45521 0
M  V30 6338 C 569.136 5.21538 -4.41007 0
M  V30 6339 O 568.824 5.73238 -5.63608 0
M  V30 6340 H 568.556 0.650059 -0.18547 0
M  V30 6341 H 571.11 1.69648 -1.15796 0
M  V30 6342 H 569.34 3.86196 0.19741 0
M  V30 6343 H 571.029 4.05526 -0.174191 0
M  V30 6344 H 571.795 4.05704 -2.65762 0
M  V30 6345 H 567.674 4.36878 -1.4717 0
M  V30 6346 H 571.218 4.99877 -4.86589 0
M  V30 6347 H 567.115 5.30952 -3.67098 0
M  V30 6348 H 567.883 5.91625 -5.65617 0
M  V30 6349 N 570.547 0.616602 1.45037 0
M  V30 6350 C 571.495 -0.109318 2.32343 0
M  V30 6351 C 572.489 -0.850543 1.465 0
M  V30 6352 O 573.695 -0.765088 1.62931 0
M  V30 6353 H 570.07 -0.0541091 0.750051 0
M  V30 6354 H 572.041 0.645326 2.91338 0
M  V30 6355 C 570.79 -1.0872 3.30266 0
M  V30 6356 H 570.113 -0.526267 3.96321 0
M  V30 6357 H 571.553 -1.56489 3.94065 0
M  V30 6358 C 570.012 -2.16525 2.58105 0
M  V30 6359 O 570.542 -3.244 2.36913 0
M  V30 6360 N 568.748 -1.92057 2.18088 0
M  V30 6361 H 568.295 -1.04337 2.35524 0
M  V30 6362 H 568.253 -2.64391 1.70131 0
M  V30 6363 N 572.025 -1.5352 0.356285 0
M  V30 6364 C 572.935 -2.29151 -0.502712 0
M  V30 6365 C 573.951 -1.34753 -1.1008 0
M  V30 6366 O 575.127 -1.67803 -1.11374 0
M  V30 6367 C 572.192 -3.05911 -1.63154 0
M  V30 6368 C 571.253 -4.15958 -1.06194 0
M  V30 6369 C 570.486 -4.8905 -2.13696 0
M  V30 6370 O 570.709 -4.61919 -3.34645 0
M  V30 6371 O 569.643 -5.75202 -1.77275 0
M  V30 6372 H 573.469 -3.03492 0.112466 0
M  V30 6373 H 571.054 -1.4891 0.120942 0
M  V30 6374 H 572.936 -3.53874 -2.28804 0
M  V30 6375 H 571.611 -2.34415 -2.23229 0
M  V30 6376 H 570.518 -3.7227 -0.369603 0
M  V30 6377 H 571.851 -4.89593 -0.505872 0
M  V30 6378 N 573.503 -0.0852151 -1.57369 0
M  V30 6379 C 574.78 0.622534 -1.85429 0
M  V30 6380 C 575.16 1.86962 -0.980229 0
M  V30 6381 O 574.508 2.28445 -0.0500219 0
M  V30 6382 C 574.718 0.947374 -3.35896 0
M  V30 6383 C 576.066 1.31509 -4.03721 0
M  V30 6384 O 577.09 1.03869 -3.40719 0
M  V30 6385 O 575.949 1.83231 -5.14868 0
M  V30 6386 H 573.043 0.310513 -0.766492 0
M  V30 6387 H 575.589 -0.117164 -1.69295 0
M  V30 6388 H 574.361 0.0622264 -3.91251 0
M  V30 6389 H 573.984 1.74338 -3.5734 0
M  V30 6390 N 574.981 1.5647 0.188427 0
M  V30 6391 C 575.929 1.95971 1.25293 0
M  V30 6392 C 576.923 0.846047 1.4676 0
M  V30 6393 O 578.129 1.03109 1.47542 0
M  V30 6394 H 574.504 0.623253 0.420784 0
M  V30 6395 H 576.475 2.84731 0.892792 0
M  V30 6396 C 575.224 2.32116 2.58877 0
M  V30 6397 H 574.547 3.17341 2.43176 0
M  V30 6398 H 575.987 2.63613 3.3209 0
M  V30 6399 C 574.446 1.15823 3.16365 0
M  V30 6400 O 574.976 0.436785 3.99318 0
M  V30 6401 N 573.182 0.933278 2.75206 0
M  V30 6402 H 572.729 1.52169 2.07852 0
M  V30 6403 H 572.687 0.156976 3.14008 0
M  V30 6404 N 576.459 -0.456382 1.50847 0
M  V30 6405 C 577.406 -1.55249 1.70782 0
M  V30 6406 C 578.376 -1.56757 0.549231 0
M  V30 6407 O 579.561 -1.74061 0.7815 0
M  V30 6408 C 576.701 -2.93118 1.82143 0
M  V30 6409 C 575.814 -3.01285 3.09598 0
M  V30 6410 C 574.949 -4.30159 3.11667 0
M  V30 6411 C 573.988 -4.32124 4.33515 0
M  V30 6412 N 573.125 -5.52492 4.3324 0
M  V30 6413 H 577.965 -1.37555 2.64353 0
M  V30 6414 H 575.502 -0.668543 1.3103 0
M  V30 6415 H 577.46 -3.73088 1.86711 0
M  V30 6416 H 576.09 -3.09413 0.919978 0
M  V30 6417 H 575.142 -2.14096 3.14431 0
M  V30 6418 H 576.454 -2.98597 3.99551 0
M  V30 6419 H 575.608 -5.18489 3.15046 0
M  V30 6420 H 574.347 -4.35477 2.1957 0
M  V30 6421 H 573.352 -3.42189 4.30333 0
M  V30 6422 H 574.577 -4.28485 5.26856 0
M  V30 6423 H 572.523 -5.58567 3.44004 0
M  V30 6424 H 572.44 -5.51605 5.16979 0
M  V30 6425 H 573.708 -6.42906 4.40786 0
M  V30 6426 N 577.937 -1.40673 -0.710563 0
M  V30 6427 C 579.186 -1.38525 -1.46607 0
M  V30 6428 C 579.499 0.0077024 -1.95598 0
M  V30 6429 O 580.705 0.151792 -2.71075 0
M  V30 6430 C 579.161 -2.43489 -2.6503 0
M  V30 6431 C 578.769 -3.88619 -2.22888 0
M  V30 6432 C 580.513 -2.50456 -3.42742 0
M  V30 6433 C 578.42 -4.85168 -3.3818 0
M  V30 6434 H 577.35 -0.515092 -0.550632 0
M  V30 6435 H 580.001 -1.66431 -0.772846 0
M  V30 6436 H 578.383 -2.0869 -3.36548 0
M  V30 6437 H 579.557 -4.32588 -1.58758 0
M  V30 6438 H 577.872 -3.85174 -1.58208 0
M  V30 6439 H 580.469 -3.19776 -4.28541 0
M  V30 6440 H 580.812 -1.53665 -3.86902 0
M  V30 6441 H 581.345 -2.84271 -2.78271 0
M  V30 6442 H 578.084 -5.8331 -2.99047 0
M  V30 6443 H 577.604 -4.4586 -4.01209 0
M  V30 6444 H 579.283 -5.05225 -4.04174 0
M  V30 6445 N 579.415 0.9433 -1.26252 0
M  V30 6446 C 580.661 1.69175 -1.11837 0
M  V30 6447 C 580.994 1.91238 0.337891 0
M  V30 6448 O 580.269 1.49152 1.24836 0
M  V30 6449 C 580.552 3.06783 -1.88563 0
M  V30 6450 C 580.405 2.9206 -3.42083 0
M  V30 6451 C 581.724 4.06865 -1.67776 0
M  V30 6452 H 578.843 0.61399 -0.407658 0
M  V30 6453 H 581.485 1.09572 -1.55222 0
M  V30 6454 H 579.635 3.57663 -1.51689 0
M  V30 6455 H 581.307 2.48419 -3.88698 0
M  V30 6456 H 579.55 2.27731 -3.69217 0
M  V30 6457 H 580.221 3.89651 -3.90994 0
M  V30 6458 H 582.697 3.64939 -1.99897 0
M  V30 6459 H 581.573 5.01168 -2.23879 0
M  V30 6460 H 581.834 4.37705 -0.621816 0
M  V30 6461 N 580.893 1.08022 1.14757 0
M  V30 6462 C 581.803 0.718292 2.23333 0
M  V30 6463 C 582.819 -0.273477 1.71837 0
M  V30 6464 O 583.995 -0.118406 2.01052 0
M  V30 6465 C 581.06 0.128855 3.4646 0
M  V30 6466 C 580.121 1.17473 4.12915 0
M  V30 6467 C 579.354 0.61333 5.30164 0
M  V30 6468 O 579.577 -0.568458 5.6756 0
M  V30 6469 O 578.511 1.3615 5.86299 0
M  V30 6470 H 582.337 1.62394 2.56636 0
M  V30 6471 H 579.922 0.853628 1.22611 0
M  V30 6472 H 581.804 -0.197249 4.20938 0
M  V30 6473 H 580.479 -0.750014 3.14891 0
M  V30 6474 H 579.386 1.5533 3.40328 0
M  V30 6475 H 580.719 2.02574 4.48581 0
M  V30 6476 N 582.371 -1.3172 0.865308 0
M  V30 6477 C 583.318 -2.2863 0.315736 0
M  V30 6478 C 584.288 -1.55524 -0.583213 0
M  V30 6479 O 585.473 -1.83694 -0.51585 0
M  V30 6480 C 582.613 -3.41735 -0.480773 0
M  V30 6481 C 581.726 -4.297 0.445167 0
M  V30 6482 C 580.861 -5.29944 -0.365012 0
M  V30 6483 C 579.9 -6.09554 0.557651 0
M  V30 6484 N 579.037 -7.01768 -0.215994 0
M  V30 6485 H 583.877 -2.75026 1.14736 0
M  V30 6486 H 581.414 -1.35302 0.577209 0
M  V30 6487 H 583.372 -4.06045 -0.958306 0
M  V30 6488 H 582.002 -2.96461 -1.27714 0
M  V30 6489 H 581.054 -3.65875 1.04113 0
M  V30 6490 H 582.366 -4.85295 1.15284 0
M  V30 6491 H 581.52 -5.99908 -0.905255 0
M  V30 6492 H 580.259 -4.74994 -1.106 0
M  V30 6493 H 579.264 -5.38485 1.10969 0
M  V30 6494 H 580.489 -6.66591 1.29742 0
M  V30 6495 H 578.435 -6.49232 -0.939878 0
M  V30 6496 H 578.352 -7.54762 0.432431 0
M  V30 6497 H 579.62 -7.76002 -0.737618 0
M  V30 6498 N 583.85 -0.624285 -1.44708 0
M  V30 6499 C 584.797 0.0847135 -2.30644 0
M  V30 6500 C 585.767 0.843575 -1.43084 0
M  V30 6501 O 586.952 0.825982 -1.71995 0
M  V30 6502 C 584.091 1.06495 -3.28257 0
M  V30 6503 C 583.205 0.305224 -4.3092 0
M  V30 6504 C 582.34 1.27667 -5.1563 0
M  V30 6505 C 581.379 0.505706 -6.10007 0
M  V30 6506 N 580.516 1.42727 -6.8744 0
M  V30 6507 H 585.356 -0.654068 -2.90733 0
M  V30 6508 H 582.893 -0.334334 -1.4325 0
M  V30 6509 H 584.851 1.64658 -3.83332 0
M  V30 6510 H 583.481 1.77094 -2.69884 0
M  V30 6511 H 582.533 -0.392207 -3.78373 0
M  V30 6512 H 583.845 -0.295553 -4.97924 0
M  V30 6513 H 582.999 1.92984 -5.75189 0
M  V30 6514 H 581.738 1.91137 -4.48685 0
M  V30 6515 H 580.743 -0.160999 -5.49564 0
M  V30 6516 H 581.968 -0.124183 -6.78986 0
M  V30 6517 H 579.913 2.04931 -6.23169 0
M  V30 6518 H 579.831 0.880345 -7.50857 0
M  V30 6519 H 581.099 2.0695 -7.51526 0
M  V30 6520 N 585.328 1.53329 -0.364422 0
M  V30 6521 C 586.276 2.27212 0.497737 0
M  V30 6522 C 587.27 1.30146 1.08437 0
M  V30 6523 O 588.476 1.47778 1.0277 0
M  V30 6524 H 584.851 0.730329 0.179232 0
M  V30 6525 H 586.822 2.98037 -0.147182 0
M  V30 6526 C 585.571 3.07333 1.6261 0
M  V30 6527 H 584.894 3.81866 1.184 0
M  V30 6528 H 586.334 3.62209 2.20409 0
M  V30 6529 C 584.793 2.18102 2.56775 0
M  V30 6530 O 585.323 1.79104 3.59562 0
M  V30 6531 N 583.529 1.82759 2.25937 0
M  V30 6532 H 583.076 2.14671 1.42387 0
M  V30 6533 H 583.034 1.23342 2.89196 0
M  V30 6534 N 586.806 0.0935595 1.57322 0
M  V30 6535 C 587.754 -0.883457 2.15169 0
M  V30 6536 C 588.748 -1.29324 1.09415 0
M  V30 6537 O 589.954 -1.26795 1.27762 0
M  V30 6538 H 586.329 -0.302923 0.688289 0
M  V30 6539 H 588.3 -0.370845 2.96087 0
M  V30 6540 C 587.049 -2.13345 2.74552 0
M  V30 6541 H 586.372 -1.82702 3.55612 0
M  V30 6542 H 587.812 -2.7977 3.18598 0
M  V30 6543 C 586.271 -2.90646 1.70371 0
M  V30 6544 O 586.801 -3.85133 1.14173 0
M  V30 6545 N 585.007 -2.54157 1.40899 0
M  V30 6546 H 584.554 -1.77391 1.86789 0
M  V30 6547 H 584.512 -3.06178 0.714301 0
M  V30 6548 N 588.284 -1.56567 -0.180126 0
M  V30 6549 C 589.531 -1.81492 -0.898167 0
M  V30 6550 C 589.859 -0.669225 -1.82624 0
M  V30 6551 O 589.114 0.344096 -1.92651 0
M  V30 6552 C 589.413 -3.1252 -1.73395 0
M  V30 6553 C 589.079 -4.40658 -0.955567 0
M  V30 6554 C 587.741 -4.75465 -0.740707 0
M  V30 6555 C 590.093 -5.19593 -0.408948 0
M  V30 6556 C 587.421 -5.86691 0.0320128 0
M  V30 6557 C 589.773 -6.31627 0.350638 0
M  V30 6558 C 588.437 -6.65007 0.576378 0
M  V30 6559 H 587.707 -0.664125 -0.328662 0
M  V30 6560 H 590.354 -1.908 -0.163616 0
M  V30 6561 H 588.659 -2.98515 -2.53763 0
M  V30 6562 H 590.356 -3.29013 -2.29241 0
M  V30 6563 H 586.946 -4.13352 -1.13306 0
M  V30 6564 H 591.13 -4.93104 -0.562307 0
M  V30 6565 H 586.386 -6.11016 0.216735 0
M  V30 6566 H 590.56 -6.92001 0.781497 0
M  V30 6567 H 588.187 -7.51033 1.17703 0
M  V30 6568 N 589.762 0.448376 -1.51087 0
M  V30 6569 C 590.71 1.56407 -1.72161 0
M  V30 6570 C 591.704 1.58878 -0.587721 0
M  V30 6571 O 592.91 1.62755 -0.768822 0
M  V30 6572 H 589.285 0.519423 -0.543786 0
M  V30 6573 H 591.256 1.35803 -2.65707 0
M  V30 6574 C 590.005 2.94163 -1.85373 0
M  V30 6575 H 589.328 2.9299 -2.72024 0
M  V30 6576 H 590.768 3.71625 -2.04135 0
M  V30 6577 C 589.227 3.31317 -0.610803 0
M  V30 6578 O 589.757 4.00985 0.239636 0
M  V30 6579 N 587.963 2.86966 -0.458127 0
M  V30 6580 H 587.51 2.30443 -1.15124 0
M  V30 6581 H 587.468 3.12188 0.372289 0
M  V30 6582 N 591.24 1.41047 0.703093 0
M  V30 6583 C 592.187 1.42302 1.81711 0
M  V30 6584 C 593.157 0.278336 1.63751 0
M  V30 6585 O 594.342 0.478266 1.84709 0
M  V30 6586 C 591.482 1.30362 3.19531 0
M  V30 6587 C 590.595 2.54638 3.48975 0
M  V30 6588 C 589.73 2.35047 4.76368 0
M  V30 6589 C 588.769 3.54837 4.98756 0
M  V30 6590 N 587.906 3.34363 6.1737 0
M  V30 6591 H 592.746 2.37516 1.79973 0
M  V30 6592 H 590.283 1.1795 0.878983 0
M  V30 6593 H 592.241 1.21443 3.99134 0
M  V30 6594 H 590.871 0.387602 3.20464 0
M  V30 6595 H 589.923 2.74037 2.63833 0
M  V30 6596 H 591.235 3.43766 3.61423 0
M  V30 6597 H 590.389 2.23552 5.64012 0
M  V30 6598 H 589.128 1.43363 4.66153 0
M  V30 6599 H 588.133 3.66795 4.09563 0
M  V30 6600 H 589.358 4.47464 5.10835 0
M  V30 6601 H 587.304 2.45373 6.08382 0
M  V30 6602 H 587.221 4.17063 6.30551 0
M  V30 6603 H 588.489 3.26626 7.07768 0
M  V30 6604 N 592.718 -0.936591 1.26751 0
M  V30 6605 C 593.666 -2.0573 1.08527 0
M  V30 6606 C 594.66 -1.69397 0.0108784 0
M  V30 6607 O 595.866 -1.79215 0.167915 0
M  V30 6608 H 592.241 -0.673691 0.334133 0
M  V30 6609 H 594.212 -2.1825 2.03493 0
M  V30 6610 C 592.961 -3.39738 0.739845 0
M  V30 6611 H 592.284 -3.68174 1.55845 0
M  V30 6612 H 593.724 -4.18955 0.652149 0
M  V30 6613 C 592.183 -3.32292 -0.555288 0
M  V30 6614 O 592.713 -3.68794 -1.59229 0
M  V30 6615 N 590.919 -2.85394 -0.54762 0
M  V30 6616 H 590.466 -2.55886 0.296667 0
M  V30 6617 H 590.424 -2.80795 -1.41427 0
M  V30 6618 N 594.196 -1.08629 -1.14182 0
M  V30 6619 C 595.144 -0.71284 -2.21408 0
M  V30 6620 C 596.138 0.282457 -1.67029 0
M  V30 6621 O 597.344 0.144783 -1.79417 0
M  V30 6622 H 593.719 -0.212497 -0.721352 0
M  V30 6623 H 595.69 -1.6265 -2.50175 0
M  V30 6624 C 594.439 -0.140704 -3.47415 0
M  V30 6625 H 593.762 -0.897739 -3.8959 0
M  V30 6626 H 595.202 0.0827677 -4.23919 0
M  V30 6627 C 593.661 1.122 -3.17668 0
M  V30 6628 O 594.191 2.20652 -3.35672 0
M  V30 6629 N 592.397 1.03328 -2.71609 0
M  V30 6630 H 591.944 0.150666 -2.57159 0
M  V30 6631 H 591.902 1.8789 -2.52081 0
M  V30 6632 N 595.674 1.31259 -0.872281 0
M  V30 6633 C 596.899 2.0133 -0.498099 0
M  V30 6634 C 597.324 1.65031 0.902568 0
M  V30 6635 O 596.682 0.860164 1.59596 0
M  V30 6636 C 596.73 3.54411 -0.665205 0
M  V30 6637 O 595.834 4.11347 0.294473 0
M  V30 6638 H 595.175 0.633844 -0.197832 0
M  V30 6639 H 597.705 1.67402 -1.17633 0
M  V30 6640 H 597.715 4.04147 -0.559373 0
M  V30 6641 H 596.39 3.80171 -1.68651 0
M  V30 6642 H 594.967 3.72624 0.143403 0
M  V30 6643 N 597.152 0.631951 1.44375 0
M  V30 6644 C 598.102 -0.0943862 2.27805 0
M  V30 6645 C 599.086 -0.815359 1.38711 0
M  V30 6646 O 600.278 -0.701331 1.62513 0
M  V30 6647 C 597.407 -1.07472 3.26044 0
M  V30 6648 C 596.493 -0.353329 4.22626 0
M  V30 6649 N 596.884 0.618512 5.02004 0
M  V30 6650 C 595.182 -0.597662 4.41977 0
M  V30 6651 C 595.883 1.0448 5.7224 0
M  V30 6652 N 594.859 0.383413 5.42246 0
M  V30 6653 H 598.661 0.651672 2.86584 0
M  V30 6654 H 596.175 0.45752 1.55822 0
M  V30 6655 H 598.172 -1.60969 3.84571 0
M  V30 6656 H 596.832 -1.82107 2.68825 0
M  V30 6657 H 597.843 0.996356 5.08226 0
M  V30 6658 H 594.52 -1.32682 3.95856 0
M  V30 6659 H 595.91 1.84773 6.45994 0
M  V30 6660 N 598.631 -1.53133 0.372548 0
M  V30 6661 C 599.564 -2.22328 -0.514361 0
M  V30 6662 C 600.542 -1.21776 -1.07747 0
M  V30 6663 O 601.726 -1.50704 -1.13228 0
M  V30 6664 C 598.853 -2.92343 -1.71035 0
M  V30 6665 C 597.899 -4.07026 -1.27405 0
M  V30 6666 S 598.732 -5.34821 -0.269526 0
M  V30 6667 C 599.888 -6.08352 -1.47168 0
M  V30 6668 H 600.121 -2.9721 0.0732683 0
M  V30 6669 H 597.654 -1.53603 0.156673 0
M  V30 6670 H 599.612 -3.33296 -2.39634 0
M  V30 6671 H 598.273 -2.17173 -2.26925 0
M  V30 6672 H 597.466 -4.55056 -2.16656 0
M  V30 6673 H 597.068 -3.68001 -0.66719 0
M  V30 6674 H 599.36 -6.33507 -2.40157 0
M  V30 6675 H 600.303 -7.0053 -1.03263 0
M  V30 6676 H 600.711 -5.38893 -1.6809 0
M  V30 6677 N 600.109 -0.101901 -1.5727 0
M  V30 6678 C 601.042 0.891377 -2.10071 0
M  V30 6679 C 602.02 1.27197 -1.01291 0
M  V30 6680 O 603.204 1.37602 -1.28833 0
M  V30 6681 C 600.331 2.19049 -2.58331 0
M  V30 6682 C 599.377 1.95925 -3.78834 0
M  V30 6683 S 600.21 1.19106 -5.22086 0
M  V30 6684 C 601.366 2.50234 -5.73702 0
M  V30 6685 H 601.599 0.442212 -2.93993 0
M  V30 6686 H 599.132 0.111529 -1.53997 0
M  V30 6687 H 601.09 2.937 -2.86793 0
M  V30 6688 H 599.751 2.61086 -1.74622 0
M  V30 6689 H 598.944 2.92143 -4.10693 0
M  V30 6690 H 598.546 1.29401 -3.50901 0
M  V30 6691 H 600.838 3.46173 -5.82384 0
M  V30 6692 H 601.781 2.22944 -6.72088 0
M  V30 6693 H 602.189 2.58818 -5.01671 0
M  V30 6694 N 601.587 1.56661 0.17182 0
M  V30 6695 C 602.534 1.96371 1.21273 0
M  V30 6696 C 603.504 0.82756 1.44016 0
M  V30 6697 O 604.689 1.08764 1.56764 0
M  V30 6698 C 601.829 2.32838 2.54716 0
M  V30 6699 C 600.942 3.59628 2.39356 0
M  V30 6700 C 600.077 3.85311 3.65662 0
M  V30 6701 C 599.116 5.0545 3.45234 0
M  V30 6702 N 598.253 5.27268 4.63608 0
M  V30 6703 H 603.093 2.85106 0.86709 0
M  V30 6704 H 600.63 1.41073 0.416744 0
M  V30 6705 H 602.588 2.52004 3.3249 0
M  V30 6706 H 601.218 1.47214 2.87277 0
M  V30 6707 H 600.27 3.4838 1.52761 0
M  V30 6708 H 601.582 4.4756 2.20207 0
M  V30 6709 H 600.736 4.04841 4.51872 0
M  V30 6710 H 599.475 2.95753 3.8779 0
M  V30 6711 H 598.48 4.85819 2.5741 0
M  V30 6712 H 599.705 5.96538 3.24529 0
M  V30 6713 H 597.651 4.40662 4.85956 0
M  V30 6714 H 597.568 6.09422 4.4737 0
M  V30 6715 H 598.836 5.51277 5.51103 0
M  V30 6716 N 603.065 -0.440357 1.51323 0
M  V30 6717 C 604.342 -1.20109 1.5438 0
M  V30 6718 C 604.722 -2.08866 0.306303 0
M  V30 6719 O 604.07 -2.1723 -0.708773 0
M  V30 6720 C 604.28 -2.00555 2.8562 0
M  V30 6721 C 605.628 -2.577 3.37455 0
M  V30 6722 O 606.652 -2.10769 2.8715 0
M  V30 6723 O 605.511 -3.43289 4.25224 0
M  V30 6724 H 602.605 -0.546668 0.620551 0
M  V30 6725 H 605.151 -0.449672 1.63634 0
M  V30 6726 H 603.923 -1.35346 3.67147 0
M  V30 6727 H 603.546 -2.82768 2.79514 0
M  V30 6728 N 604.543 -1.41418 -0.695603 0
M  V30 6729 C 605.506 -1.42988 -1.79129 0
M  V30 6730 C 606.506 -0.320514 -1.57573 0
M  V30 6731 O 607.696 -0.58039 -1.64247 0
M  V30 6732 C 604.828 -1.24122 -3.175 0
M  V30 6733 H 606.021 -2.40526 -1.7913 0
M  V30 6734 H 603.574 -1.2756 -0.903225 0
M  V30 6735 H 604.309 -0.274253 -3.23138 0
M  V30 6736 H 604.094 -2.045 -3.34547 0
M  V30 6737 H 605.584 -1.28056 -3.97481 0
M  V30 6738 N 606.021 0.929856 -1.27246 0
M  V30 6739 C 606.968 2.03017 -1.09785 0
M  V30 6740 C 607.938 1.661 0.000456744 0
M  V30 6741 O 609.123 1.90116 -0.161462 0
M  V30 6742 C 606.263 3.36878 -0.748816 0
M  V30 6743 C 605.376 3.86763 -1.92453 0
M  V30 6744 C 604.511 5.09061 -1.51758 0
M  V30 6745 C 603.55 5.51237 -2.66091 0
M  V30 6746 N 602.687 6.64732 -2.25999 0
M  V30 6747 H 607.527 2.17285 -2.03939 0
M  V30 6748 H 605.064 1.06448 -1.01524 0
M  V30 6749 H 607.022 4.13855 -0.527283 0
M  V30 6750 H 605.652 3.22424 0.155771 0
M  V30 6751 H 604.704 3.06086 -2.25867 0
M  V30 6752 H 606.016 4.13994 -2.78227 0
M  V30 6753 H 605.17 5.93532 -1.25716 0
M  V30 6754 H 603.909 4.83602 -0.630896 0
M  V30 6755 H 602.914 4.65316 -2.92849 0
M  V30 6756 H 604.139 5.78692 -3.55377 0
M  V30 6757 H 602.085 6.40935 -1.3978 0
M  V30 6758 H 602.002 6.91607 -3.05313 0
M  V30 6759 H 603.27 7.52549 -2.03199 0
M  V30 6760 N 607.499 1.09233 1.13605 0
M  V30 6761 C 608.776 0.739633 1.81077 0
M  V30 6762 C 609.156 -0.775595 1.96336 0
M  V30 6763 O 608.504 -1.69726 1.52988 0
M  V30 6764 C 608.714 1.47636 3.16235 0
M  V30 6765 C 610.062 1.64087 3.91613 0
M  V30 6766 O 611.086 1.43871 3.25852 0
M  V30 6767 O 609.945 1.97511 5.0956 0
M  V30 6768 H 607.039 0.265464 0.783236 0
M  V30 6769 H 609.585 1.19441 1.20549 0
M  V30 6770 H 608.357 2.50818 3.00344 0
M  V30 6771 H 607.98 1.01362 3.84462 0
M  V30 6772 N 608.977 -1.30795 0.87923 0
M  V30 6773 C 609.925 -2.30231 0.331112 0
M  V30 6774 C 610.919 -1.59918 -0.558794 0
M  V30 6775 O 612.125 -1.74441 -0.443866 0
M  V30 6776 H 608.5 -0.746785 0.088409 0
M  V30 6777 H 610.471 -2.73925 1.18353 0
M  V30 6778 C 609.22 -3.44848 -0.444401 0
M  V30 6779 H 608.543 -3.99131 0.231106 0
M  V30 6780 H 609.983 -4.16516 -0.793109 0
M  V30 6781 C 608.442 -2.94329 -1.63926 0
M  V30 6782 O 608.972 -2.93875 -2.73862 0
M  V30 6783 N 607.178 -2.50413 -1.4745 0
M  V30 6784 H 606.725 -2.50982 -0.58015 0
M  V30 6785 H 606.683 -2.16969 -2.27534 0
M  V30 6786 N 610.455 -0.639598 -1.44038 0
M  V30 6787 C 611.702 -0.14748 -2.01962 0
M  V30 6788 C 612.03 1.23372 -1.50365 0
M  V30 6789 O 611.285 1.8345 -0.681501 0
M  V30 6790 C 611.584 -0.0925348 -3.5728 0
M  V30 6791 C 611.25 -1.41365 -4.28167 0
M  V30 6792 C 609.912 -1.77545 -4.47248 0
M  V30 6793 C 612.264 -2.2853 -4.68427 0
M  V30 6794 C 609.592 -3.00583 -5.03852 0
M  V30 6795 C 611.944 -3.50846 -5.26393 0
M  V30 6796 C 610.608 -3.8724 -5.43692 0
M  V30 6797 H 609.878 -0.0539666 -0.739032 0
M  V30 6798 H 612.525 -0.827599 -1.72694 0
M  V30 6799 H 610.83 0.670987 -3.86012 0
M  V30 6800 H 612.527 0.304891 -3.99839 0
M  V30 6801 H 609.117 -1.1221 -4.13651 0
M  V30 6802 H 613.301 -2.0187 -4.5339 0
M  V30 6803 H 608.557 -3.28846 -5.15432 0
M  V30 6804 H 612.731 -4.18616 -5.56537 0
M  V30 6805 H 610.358 -4.8266 -5.87319 0
M  V30 6806 N 611.933 1.52934 -0.380664 0
M  V30 6807 C 612.863 2.29118 0.450268 0
M  V30 6808 C 613.844 1.32153 1.07096 0
M  V30 6809 O 615.029 1.61038 1.08537 0
M  V30 6810 C 612.159 3.09161 1.58231 0
M  V30 6811 C 611.113 4.13938 1.0881 0
M  V30 6812 C 610.439 4.82153 2.31155 0
M  V30 6813 C 611.739 5.22048 0.162146 0
M  V30 6814 H 613.433 2.98826 -0.185361 0
M  V30 6815 H 610.979 1.43715 -0.0905886 0
M  V30 6816 H 612.932 3.61211 2.17036 0
M  V30 6817 H 611.656 2.3717 2.2454 0
M  V30 6818 H 610.315 3.62855 0.522633 0
M  V30 6819 H 609.963 4.06719 2.95953 0
M  V30 6820 H 609.663 5.52966 1.98752 0
M  V30 6821 H 611.187 5.37004 2.90618 0
M  V30 6822 H 612.601 5.6951 0.658126 0
M  V30 6823 H 610.998 6.00057 -0.0717122 0
M  V30 6824 H 612.068 4.78398 -0.791438 0
M  V30 6825 N 613.412 0.11024 1.57214 0
M  V30 6826 C 614.658 -0.544479 1.95977 0
M  V30 6827 C 615.013 -1.64845 0.992171 0
M  V30 6828 O 614.306 -1.91589 0.0206981 0
M  V30 6829 C 614.5 -1.13102 3.39032 0
M  V30 6830 C 614.329 -0.0854079 4.49619 0
M  V30 6831 C 613.099 0.343373 5.04132 0
M  V30 6832 C 615.297 0.692232 5.0962 0
M  V30 6833 N 613.279 1.37567 5.98288 0
M  V30 6834 C 614.65 1.57596 5.99636 0
M  V30 6835 C 616.705 0.744085 4.92309 0
M  V30 6836 C 615.408 2.50701 6.74197 0
M  V30 6837 C 617.434 1.6628 5.67543 0
M  V30 6838 C 616.796 2.53412 6.57238 0
M  V30 6839 H 612.895 -0.169124 0.763493 0
M  V30 6840 H 615.479 0.196326 1.93708 0
M  V30 6841 H 613.65 -1.84158 3.41965 0
M  V30 6842 H 615.382 -1.74934 3.64939 0
M  V30 6843 H 612.137 -0.0473277 4.73576 0
M  V30 6844 H 612.561 1.89048 6.50069 0
M  V30 6845 H 617.203 0.0845825 4.22715 0
M  V30 6846 H 614.921 3.17669 7.43043 0
M  V30 6847 H 618.507 1.70825 5.56156 0
M  V30 6848 H 617.387 3.23347 7.14434 0
M  V30 6849 N 614.89 -1.56749 -0.16351 0
M  V30 6850 C 616.137 -1.82434 -0.878866 0
M  V30 6851 C 616.465 -0.688557 -1.81904 0
M  V30 6852 O 615.72 0.323644 -1.93005 0
M  V30 6853 C 616.019 -3.14342 -1.70071 0
M  V30 6854 C 615.685 -4.41647 -0.908775 0
M  V30 6855 C 614.347 -4.76224 -0.690236 0
M  V30 6856 C 616.699 -5.19998 -0.353815 0
M  V30 6857 C 614.027 -5.86624 0.0942374 0
M  V30 6858 C 616.379 -6.3122 0.41761 0
M  V30 6859 C 615.043 -6.64358 0.646879 0
M  V30 6860 H 614.313 -0.667574 -0.3216 0
M  V30 6861 H 616.96 -1.90963 -0.14337 0
M  V30 6862 H 615.265 -3.0119 -2.50583 0
M  V30 6863 H 616.962 -3.31426 -2.25738 0
M  V30 6864 H 613.552 -4.1453 -1.08916 0
M  V30 6865 H 617.736 -4.93673 -0.509975 0
M  V30 6866 H 612.992 -6.10751 0.281529 0
M  V30 6867 H 617.166 -6.91133 0.854849 0
M  V30 6868 H 614.793 -7.49742 1.25662 0
M  V30 6869 N 616.368 0.432326 -1.51554 0
M  V30 6870 C 617.316 1.54572 -1.73811 0
M  V30 6871 C 618.31 1.58246 -0.604539 0
M  V30 6872 O 619.516 1.6193 -0.786041 0
M  V30 6873 H 615.891 0.513626 -0.549265 0
M  V30 6874 H 617.862 1.32977 -2.67132 0
M  V30 6875 C 616.611 2.92181 -1.88483 0
M  V30 6876 H 615.934 2.90088 -2.75116 0
M  V30 6877 H 617.374 3.69439 -2.08065 0
M  V30 6878 C 615.833 3.3065 -0.645909 0
M  V30 6879 O 616.363 4.01216 0.197093 0
M  V30 6880 N 614.569 2.86464 -0.488538 0
M  V30 6881 H 614.116 2.29209 -1.17562 0
M  V30 6882 H 614.074 3.12565 0.339156 0
M  V30 6883 N 617.846 1.41785 0.688094 0
M  V30 6884 C 619.074 1.44915 1.47673 0
M  V30 6885 C 619.489 0.0565786 1.88715 0
M  V30 6886 O 618.846 -0.92579 1.57275 0
M  V30 6887 C 618.897 2.36452 2.73446 0
M  V30 6888 O 618.618 3.7029 2.34131 0
M  V30 6889 C 620.119 2.48463 3.67125 0
M  V30 6890 H 617.339 0.493324 0.454832 0
M  V30 6891 H 619.883 1.86153 0.846594 0
M  V30 6892 H 618.038 1.98502 3.3268 0
M  V30 6893 H 618.452 4.19183 3.15255 0
M  V30 6894 H 619.926 3.16662 4.52138 0
M  V30 6895 H 620.403 1.51826 4.12123 0
M  V30 6896 H 621.009 2.8708 3.13792 0
M  V30 6897 N 619.324 -0.923095 1.27737 0
M  V30 6898 C 620.552 -1.70525 1.17171 0
M  V30 6899 C 620.967 -1.86847 -0.270881 0
M  V30 6900 O 620.324 -1.38879 -1.18401 0
M  V30 6901 C 620.375 -3.10242 1.85559 0
M  V30 6902 O 620.096 -2.94683 3.24182 0
M  V30 6903 C 621.597 -4.04586 1.81176 0
M  V30 6904 H 618.817 -0.533347 0.407163 0
M  V30 6905 H 621.361 -1.15599 1.68692 0
M  V30 6906 H 619.516 -3.62014 1.3793 0
M  V30 6907 H 619.93 -3.83045 3.58297 0
M  V30 6908 H 621.404 -5.00119 2.33633 0
M  V30 6909 H 621.881 -4.3218 0.782099 0
M  V30 6910 H 622.487 -3.58741 2.2844 0
M  V30 6911 N 620.802 -1.09834 -1.13024 0
M  V30 6912 C 621.749 -0.741522 -2.18564 0
M  V30 6913 C 622.719 0.279236 -1.63736 0
M  V30 6914 O 623.904 0.159923 -1.90129 0
M  V30 6915 C 621.044 -0.17277 -3.44667 0
M  V30 6916 C 620.157 -1.24808 -4.13578 0
M  V30 6917 C 619.292 -0.641631 -5.27311 0
M  V30 6918 C 618.331 -1.69795 -5.88078 0
M  V30 6919 N 617.468 -1.11223 -6.93234 0
M  V30 6920 H 622.308 -1.64576 -2.48432 0
M  V30 6921 H 619.845 -0.822174 -1.21978 0
M  V30 6922 H 621.803 0.17482 -4.16834 0
M  V30 6923 H 620.433 0.694725 -3.15235 0
M  V30 6924 H 619.485 -1.71288 -3.39653 0
M  V30 6925 H 620.797 -2.04795 -4.54819 0
M  V30 6926 H 619.951 -0.243128 -6.06213 0
M  V30 6927 H 618.69 0.189742 -4.87331 0
M  V30 6928 H 617.695 -2.10595 -5.07868 0
M  V30 6929 H 618.92 -2.53206 -6.3013 0
M  V30 6930 H 616.866 -0.302208 -6.55304 0
M  V30 6931 H 616.783 -1.84901 -7.3304 0
M  V30 6932 H 618.051 -0.740068 -7.75979 0
M  V30 6933 N 622.28 1.30327 -0.886154 0
M  V30 6934 C 623.227 2.28099 -0.352069 0
M  V30 6935 C 624.197 1.56433 0.558397 0
M  V30 6936 O 625.382 1.84492 0.486561 0
M  V30 6937 C 622.522 3.42456 0.426346 0
M  V30 6938 C 621.635 4.28938 -0.513472 0
M  V30 6939 C 620.77 5.30458 0.280657 0
M  V30 6940 C 619.809 6.0859 -0.654556 0
M  V30 6941 N 618.946 7.02022 0.104322 0
M  V30 6942 H 623.786 2.73166 -1.19097 0
M  V30 6943 H 621.323 1.34367 -0.598662 0
M  V30 6944 H 623.281 4.07518 0.893587 0
M  V30 6945 H 621.911 2.98455 1.22981 0
M  V30 6946 H 620.963 3.64173 -1.09921 0
M  V30 6947 H 622.275 4.83399 -1.2299 0
M  V30 6948 H 621.429 6.01273 0.8097 0
M  V30 6949 H 620.168 4.76693 1.03029 0
M  V30 6950 H 619.173 5.36651 -1.19522 0
M  V30 6951 H 620.398 6.64443 -1.4033 0
M  V30 6952 H 618.344 6.50645 0.836472 0
M  V30 6953 H 618.261 7.53979 -0.552453 0
M  V30 6954 H 619.529 7.77077 0.614069 0
M  V30 6955 N 623.758 0.647228 1.43697 0
M  V30 6956 C 624.705 -0.0480092 2.3075 0
M  V30 6957 C 625.675 -0.820705 1.44408 0
M  V30 6958 O 626.86 -0.798515 1.73287 0
M  V30 6959 C 624 -1.01259 3.2991 0
M  V30 6960 C 623.113 -0.236629 4.31351 0
M  V30 6961 C 622.248 -1.19447 5.17596 0
M  V30 6962 C 621.287 -0.408595 6.10735 0
M  V30 6963 N 620.424 -1.31772 6.89623 0
M  V30 6964 H 625.264 0.700238 2.89656 0
M  V30 6965 H 622.801 0.357082 1.427 0
M  V30 6966 H 624.759 -1.58538 3.85903 0
M  V30 6967 H 623.389 -1.72778 2.72667 0
M  V30 6968 H 622.441 0.452353 3.77701 0
M  V30 6969 H 623.753 0.374731 4.9739 0
M  V30 6970 H 622.907 -1.83809 5.78186 0
M  V30 6971 H 621.646 -1.83975 4.51669 0
M  V30 6972 H 620.651 0.24841 5.49239 0
M  V30 6973 H 621.876 0.232188 6.78703 0
M  V30 6974 H 619.822 -1.94991 6.2635 0
M  V30 6975 H 619.739 -0.760779 7.52162 0
M  V30 6976 H 621.007 -1.94967 7.54724 0
M  V30 6977 N 625.236 -1.5273 0.388769 0
M  V30 6978 C 626.647 -1.86505 -0.0853788 0
M  V30 6979 C 626.998 -1.30847 -1.46197 0
M  V30 6980 O 626.123 -0.639609 -2.06732 0
M  V30 6981 C 626.718 -3.38414 -0.161703 0
M  V30 6982 C 625.277 -3.71902 -0.580144 0
M  V30 6983 C 624.424 -2.76095 0.258218 0
M  V30 6984 H 627.375 -1.46647 0.606665 0
M  V30 6985 H 627.396 -3.67638 -0.980936 0
M  V30 6986 H 626.908 -3.78893 0.840333 0
M  V30 6987 H 625.009 -3.36992 -1.58957 0
M  V30 6988 H 625.122 -4.77902 -0.338663 0
M  V30 6989 H 623.486 -2.53195 -0.276432 0
M  V30 6990 H 624.269 -3.19411 1.25822 0
M  V30 6991 N 626.714 -0.118576 -1.57153 0
M  V30 6992 C 627.644 0.828436 -2.1831 0
M  V30 6993 C 628.625 1.27758 -1.12303 0
M  V30 6994 O 629.81 1.34026 -1.40537 0
M  V30 6995 C 626.94 2.07876 -2.78217 0
M  V30 6996 C 625.894 1.76742 -3.89803 0
M  V30 6997 C 625.22 3.08801 -4.36516 0
M  V30 6998 C 626.52 1.03606 -5.11921 0
M  V30 6999 H 628.214 0.318824 -2.97698 0
M  V30 7000 H 625.76 0.151911 -1.43196 0
M  V30 7001 H 627.713 2.74584 -3.19659 0
M  V30 7002 H 626.437 2.61161 -1.96118 0
M  V30 7003 H 625.096 1.12424 -3.48936 0
M  V30 7004 H 624.744 3.6002 -3.51276 0
M  V30 7005 H 624.444 2.88743 -5.11763 0
M  V30 7006 H 625.968 3.76627 -4.80608 0
M  V30 7007 H 627.382 1.60467 -5.50385 0
M  V30 7008 H 625.779 0.936454 -5.92748 0
M  V30 7009 H 626.849 0.0227421 -4.84895 0
M  V30 7010 N 628.193 1.56834 0.155195 0
M  V30 7011 C 629.439 1.83169 0.870467 0
M  V30 7012 C 629.772 0.698929 1.81187 0
M  V30 7013 O 629.047 -0.298035 1.92203 0
M  V30 7014 C 629.33 3.19965 1.65211 0
M  V30 7015 C 629.183 4.43792 0.732744 0
M  V30 7016 C 630.502 3.53885 2.61636 0
M  V30 7017 H 627.621 0.666288 0.315006 0
M  V30 7018 H 630.263 1.89513 0.135988 0
M  V30 7019 H 628.413 3.14687 2.27825 0
M  V30 7020 H 630.085 4.61148 0.118236 0
M  V30 7021 H 628.328 4.3378 0.0417906 0
M  V30 7022 H 628.999 5.36095 1.31552 0
M  V30 7023 H 631.475 3.5972 2.09143 0
M  V30 7024 H 630.351 4.50648 3.13381 0
M  V30 7025 H 630.612 2.79418 3.42605 0
M  V30 7026 N 629.671 -0.424282 1.51781 0
M  V30 7027 C 630.918 -1.1726 1.65095 0
M  V30 7028 C 631.246 -1.90881 0.373477 0
M  V30 7029 O 630.501 -1.84835 -0.642997 0
M  V30 7030 C 630.8 -2.20418 2.81337 0
M  V30 7031 C 630.466 -1.63715 4.20129 0
M  V30 7032 C 629.128 -1.47975 4.57883 0
M  V30 7033 C 631.48 -1.22157 5.06682 0
M  V30 7034 C 628.808 -0.891703 5.79884 0
M  V30 7035 C 631.16 -0.647767 6.29275 0
M  V30 7036 C 629.824 -0.477371 6.65791 0
M  V30 7037 H 629.094 -0.429085 0.604125 0
M  V30 7038 H 631.741 -0.461852 1.85847 0
M  V30 7039 H 630.046 -2.97581 2.54859 0
M  V30 7040 H 631.743 -2.78163 2.88836 0
M  V30 7041 H 628.333 -1.76946 3.90369 0
M  V30 7042 H 632.517 -1.33133 4.7811 0
M  V30 7043 H 627.773 -0.747563 6.06813 0
M  V30 7044 H 631.947 -0.317291 6.95677 0
M  V30 7045 H 629.574 -0.0195936 7.60197 0
M  V30 7046 N 631.149 -1.42148 -0.680565 0
M  V30 7047 C 632.395 -1.42521 -1.44277 0
M  V30 7048 C 632.728 -0.0393718 -1.9416 0
M  V30 7049 O 632.003 0.935425 -1.70529 0
M  V30 7050 C 632.286 -2.44475 -2.64394 0
M  V30 7051 C 632.139 -3.92226 -2.20179 0
M  V30 7052 C 633.458 -2.43491 -3.66606 0
M  V30 7053 H 630.577 -0.518985 -0.523282 0
M  V30 7054 H 633.219 -1.73524 -0.773914 0
M  V30 7055 H 631.369 -2.18168 -3.21458 0
M  V30 7056 H 633.041 -4.29493 -1.68327 0
M  V30 7057 H 631.284 -4.0637 -1.5181 0
M  V30 7058 H 631.955 -4.59133 -3.06433 0
M  V30 7059 H 634.431 -2.66872 -3.19247 0
M  V30 7060 H 633.307 -3.16816 -4.4824 0
M  V30 7061 H 633.568 -1.45881 -4.17338 0
M  V30 7062 N 632.627 0.916307 -1.28225 0
M  V30 7063 C 633.574 2.01841 -1.11932 0
M  V30 7064 C 634.544 1.66091 -0.0171604 0
M  V30 7065 O 635.729 1.89934 -0.181617 0
M  V30 7066 C 632.869 3.36065 -0.784504 0
M  V30 7067 C 631.982 3.847 -1.96544 0
M  V30 7068 C 631.117 5.07423 -1.57149 0
M  V30 7069 C 630.156 5.48384 -2.71922 0
M  V30 7070 N 629.293 6.62298 -2.33037 0
M  V30 7071 H 634.133 2.1511 -2.06232 0
M  V30 7072 H 631.67 1.05366 -1.02647 0
M  V30 7073 H 633.628 4.13272 -0.571148 0
M  V30 7074 H 632.258 3.22571 0.121565 0
M  V30 7075 H 631.31 3.03673 -2.291 0
M  V30 7076 H 632.622 4.1102 -2.82603 0
M  V30 7077 H 631.776 5.92165 -1.32004 0
M  V30 7078 H 630.515 4.82906 -0.682153 0
M  V30 7079 H 629.52 4.62184 -2.97768 0
M  V30 7080 H 630.745 5.7489 -3.61494 0
M  V30 7081 H 628.691 6.39416 -1.4657 0
M  V30 7082 H 628.608 6.8833 -3.12631 0
M  V30 7083 H 629.876 7.50352 -2.11169 0
M  V30 7084 N 634.105 1.10431 1.1244 0
M  V30 7085 C 635.035 0.775143 2.20258 0
M  V30 7086 C 636.016 -0.25186 1.68225 0
M  V30 7087 O 637.201 -0.117637 1.93843 0
M  V30 7088 C 634.331 0.206133 3.46688 0
M  V30 7089 C 633.285 1.16382 4.11873 0
M  V30 7090 C 632.611 0.456014 5.32752 0
M  V30 7091 C 633.911 2.5104 4.58013 0
M  V30 7092 H 635.605 1.67665 2.4805 0
M  V30 7093 H 633.151 0.807595 1.19222 0
M  V30 7094 H 635.104 -0.036291 4.21384 0
M  V30 7095 H 633.828 -0.730614 3.18323 0
M  V30 7096 H 632.487 1.39169 3.39157 0
M  V30 7097 H 632.135 -0.485203 5.00654 0
M  V30 7098 H 631.835 1.09466 5.77314 0
M  V30 7099 H 633.359 0.222135 6.10196 0
M  V30 7100 H 634.773 2.32401 5.24083 0
M  V30 7101 H 633.17 3.10789 5.13352 0
M  V30 7102 H 634.24 3.11039 3.71998 0
M  V30 7103 N 635.583 -1.29855 0.893053 0
M  V30 7104 C 636.546 -2.26183 0.370687 0
M  V30 7105 C 637.546 -1.53108 -0.491385 0
M  V30 7106 O 638.736 -1.71643 -0.297386 0
M  V30 7107 C 635.868 -3.37633 -0.470827 0
M  V30 7108 H 637.061 -2.73903 1.22135 0
M  V30 7109 H 634.614 -1.41183 0.67061 0
M  V30 7110 H 635.349 -2.95241 -1.34175 0
M  V30 7111 H 635.134 -3.91825 0.146784 0
M  V30 7112 H 636.624 -4.09313 -0.827825 0
M  V30 7113 N 637.061 -0.65484 -1.43351 0
M  V30 7114 C 638.472 -0.248506 -1.85039 0
M  V30 7115 C 638.823 1.20526 -1.54816 0
M  V30 7116 O 637.948 1.92016 -0.99794 0
M  V30 7117 C 638.543 -0.444241 -3.35875 0
M  V30 7118 C 637.102 -0.0922108 -3.76287 0
M  V30 7119 C 636.249 -0.746327 -2.67068 0
M  V30 7120 H 639.2 -0.8584 -1.33481 0
M  V30 7121 H 639.221 0.309762 -3.79237 0
M  V30 7122 H 638.733 -1.50239 -3.5784 0
M  V30 7123 H 636.834 0.96328 -3.59933 0
M  V30 7124 H 636.947 -0.518807 -4.76283 0
M  V30 7125 H 635.311 -0.179416 -2.54067 0
M  V30 7126 H 636.094 -1.80754 -2.91861 0
M  V30 7127 N 638.539 1.52521 -0.396863 0
M  V30 7128 C 639.816 1.94112 0.240842 0
M  V30 7129 C 640.196 1.33288 1.637 0
M  V30 7130 O 639.544 0.503901 2.22875 0
M  V30 7131 C 639.754 3.48033 0.259567 0
M  V30 7132 C 641.102 4.21822 0.484866 0
M  V30 7133 O 642.126 3.54579 0.339453 0
M  V30 7134 O 640.985 5.41042 0.770412 0
M  V30 7135 H 638.079 0.812973 0.151671 0
M  V30 7136 H 640.625 1.63572 -0.451918 0
M  V30 7137 H 639.397 3.84655 -0.718078 0
M  V30 7138 H 639.02 3.84899 0.996937 0
M  V30 7139 N 640.017 0.126909 1.57088 0
M  V30 7140 C 640.947 -0.816847 2.18746 0
M  V30 7141 C 641.928 -1.27161 1.12979 0
M  V30 7142 O 643.113 -1.33279 1.41246 0
M  V30 7143 C 640.243 -2.06398 2.79315 0
M  V30 7144 C 639.197 -1.74673 3.90735 0
M  V30 7145 C 638.523 -3.06482 4.38147 0
M  V30 7146 C 639.823 -1.0089 5.12463 0
M  V30 7147 H 641.517 -0.303032 2.97863 0
M  V30 7148 H 639.063 -0.144314 1.43275 0
M  V30 7149 H 641.016 -2.72885 3.2111 0
M  V30 7150 H 639.74 -2.60118 1.975 0
M  V30 7151 H 638.399 -1.10572 3.49527 0
M  V30 7152 H 638.047 -3.58152 3.5318 0
M  V30 7153 H 637.747 -2.86025 5.13287 0
M  V30 7154 H 639.271 -3.74073 4.82599 0
M  V30 7155 H 640.685 -1.57546 5.51228 0
M  V30 7156 H 639.082 -0.905006 5.93237 0
M  V30 7157 H 640.152 0.00297335 4.849 0
M  V30 7158 N 641.495 -1.56914 -0.146875 0
M  V30 7159 C 642.443 -1.99224 -1.20053 0
M  V30 7160 C 643.437 -0.884661 -1.44465 0
M  V30 7161 O 644.643 -1.06984 -1.44756 0
M  V30 7162 H 641.018 -0.634191 -0.404112 0
M  V30 7163 H 642.989 -2.86998 -0.816987 0
M  V30 7164 C 641.738 -2.38899 -2.52632 0
M  V30 7165 H 641.061 -3.23677 -2.34677 0
M  V30 7166 H 642.501 -2.72326 -3.24984 0
M  V30 7167 C 640.96 -1.2417 -3.13183 0
M  V30 7168 O 641.49 -0.542503 -3.9802 0
M  V30 7169 N 639.696 -1.00592 -2.72635 0
M  V30 7170 H 639.243 -1.57627 -2.03744 0
M  V30 7171 H 639.201 -0.240174 -3.13481 0
M  V30 7172 N 642.974 0.416227 -1.52004 0
M  V30 7173 C 643.906 1.52552 -1.71058 0
M  V30 7174 C 644.919 1.51693 -0.59102 0
M  V30 7175 O 646.108 1.56087 -0.865973 0
M  V30 7176 C 643.208 2.91455 -1.72937 0
M  V30 7177 C 642.381 3.16584 -3.01816 0
M  V30 7178 C 641.44 4.35322 -2.95603 0
M  V30 7179 O 640.466 4.32947 -3.6952 0
M  V30 7180 N 641.668 5.40049 -2.12903 0
M  V30 7181 H 644.433 1.36604 -2.66757 0
M  V30 7182 H 641.994 0.60544 -1.50153 0
M  V30 7183 H 643.986 3.68944 -1.66321 0
M  V30 7184 H 642.556 3.00895 -0.847418 0
M  V30 7185 H 641.776 2.27203 -3.22137 0
M  V30 7186 H 643.064 3.30213 -3.87088 0
M  V30 7187 H 642.462 5.44823 -1.52265 0
M  V30 7188 H 641.019 6.16308 -2.1215 0
M  V30 7189 N 644.452 1.42507 0.673017 0
M  V30 7190 C 645.362 1.4853 1.81593 0
M  V30 7191 C 646.378 0.373907 1.69935 0
M  V30 7192 O 647.554 0.625078 1.91454 0
M  V30 7193 C 644.619 1.387 3.17747 0
M  V30 7194 C 643.68 2.60346 3.41348 0
M  V30 7195 C 642.913 2.50975 4.71007 0
M  V30 7196 O 643.136 1.54659 5.49033 0
M  V30 7197 O 642.07 3.41138 4.95892 0
M  V30 7198 H 645.896 2.45001 1.79467 0
M  V30 7199 H 643.481 1.2429 0.82899 0
M  V30 7200 H 645.363 1.35586 3.98992 0
M  V30 7201 H 644.038 0.453555 3.20507 0
M  V30 7202 H 642.945 2.69034 2.59945 0
M  V30 7203 H 644.278 3.52595 3.43421 0
M  V30 7204 N 645.93 -0.909495 1.28709 0
M  V30 7205 C 646.862 -2.01729 1.08804 0
M  V30 7206 C 647.875 -1.62755 0.0384739 0
M  V30 7207 O 649.064 -1.76259 0.281977 0
M  V30 7208 C 646.164 -3.32952 0.63217 0
M  V30 7209 C 645.337 -4.00512 1.75809 0
M  V30 7210 C 644.396 -5.10019 1.29488 0
M  V30 7211 O 643.422 -5.32986 1.99787 0
M  V30 7212 N 644.624 -5.80278 0.1604 0
M  V30 7213 H 647.389 -2.19362 2.04207 0
M  V30 7214 H 644.95 -1.08106 1.20518 0
M  V30 7215 H 646.942 -4.03543 0.305802 0
M  V30 7216 H 645.512 -3.11759 -0.229134 0
M  V30 7217 H 644.732 -3.23413 2.25383 0
M  V30 7218 H 646.02 -4.42395 2.51325 0
M  V30 7219 H 645.418 -5.64094 -0.425937 0
M  V30 7220 H 643.975 -6.51713 -0.106663 0
M  V30 7221 N 647.408 -1.11026 -1.11852 0
M  V30 7222 C 648.355 -0.764662 -2.17765 0
M  V30 7223 C 649.325 0.261854 -1.64023 0
M  V30 7224 O 650.51 0.139748 -1.90288 0
M  V30 7225 C 647.65 -0.209317 -3.44465 0
M  V30 7226 C 646.763 -1.29187 -4.12231 0
M  V30 7227 C 645.898 -0.697523 -5.266 0
M  V30 7228 C 644.937 -1.76023 -5.86244 0
M  V30 7229 N 644.074 -1.18569 -6.92016 0
M  V30 7230 H 648.914 -1.67202 -2.46673 0
M  V30 7231 H 646.451 -0.835065 -1.21099 0
M  V30 7232 H 648.409 0.130599 -4.16996 0
M  V30 7233 H 647.039 0.661251 -3.15955 0
M  V30 7234 H 646.091 -1.74881 -3.37818 0
M  V30 7235 H 647.403 -2.09607 -4.52622 0
M  V30 7236 H 646.557 -0.307412 -6.05921 0
M  V30 7237 H 645.296 0.138044 -4.87505 0
M  V30 7238 H 644.301 -2.1597 -5.05606 0
M  V30 7239 H 645.526 -2.59875 -6.27409 0
M  V30 7240 H 643.472 -0.371695 -6.54946 0
M  V30 7241 H 643.389 -1.92666 -7.31038 0
M  V30 7242 H 644.657 -0.82233 -7.7515 0
M  V30 7243 N 648.886 1.2938 -0.899927 0
M  V30 7244 C 649.833 2.27713 -0.376243 0
M  V30 7245 C 650.803 1.57016 0.541774 0
M  V30 7246 O 651.988 1.84997 0.466966 0
M  V30 7247 C 649.128 3.42889 0.39 0
M  V30 7248 C 648.241 4.28369 -0.558938 0
M  V30 7249 C 647.376 5.30726 0.224379 0
M  V30 7250 C 646.415 6.07862 -0.719068 0
M  V30 7251 N 645.552 7.02094 0.0298569 0
M  V30 7252 H 650.392 2.71888 -1.21988 0
M  V30 7253 H 647.929 1.33724 -0.612879 0
M  V30 7254 H 649.887 4.08443 0.850314 0
M  V30 7255 H 648.517 2.99743 1.19809 0
M  V30 7256 H 647.569 3.62986 -1.13777 0
M  V30 7257 H 648.881 4.82068 -1.2811 0
M  V30 7258 H 648.035 6.02098 0.745881 0
M  V30 7259 H 646.774 4.77759 0.979674 0
M  V30 7260 H 645.779 5.35353 -1.25207 0
M  V30 7261 H 647.004 6.62917 -1.4737 0
M  V30 7262 H 644.95 6.51496 0.767415 0
M  V30 7263 H 644.867 7.5335 -0.632391 0
M  V30 7264 H 646.135 7.77685 0.531615 0
M  V30 7265 N 650.364 0.662433 1.43002 0
M  V30 7266 C 651.274 -0.0239199 2.34588 0
M  V30 7267 C 652.29 -0.802255 1.54402 0
M  V30 7268 O 653.466 -0.747401 1.87018 0
M  V30 7269 C 650.531 -0.972098 3.32793 0
M  V30 7270 C 649.592 -0.189673 4.28881 0
M  V30 7271 C 648.825 -1.09269 5.22395 0
M  V30 7272 O 649.048 -2.33209 5.20547 0
M  V30 7273 O 647.982 -0.560136 5.99288 0
M  V30 7274 H 651.808 0.730171 2.94792 0
M  V30 7275 H 649.393 0.422635 1.43297 0
M  V30 7276 H 651.275 -1.51676 3.93157 0
M  V30 7277 H 649.95 -1.70626 2.75079 0
M  V30 7278 H 648.857 0.398794 3.71968 0
M  V30 7279 H 650.19 0.50511 4.89601 0
M  V30 7280 N 651.842 -1.52309 0.404946 0
M  V30 7281 C 653.091 -2.00952 -0.173529 0
M  V30 7282 C 653.404 -1.29512 -1.46581 0
M  V30 7283 O 654.61 -1.6895 -2.12528 0
M  V30 7284 C 653.066 -3.58097 -0.359801 0
M  V30 7285 C 652.674 -4.38449 0.920138 0
M  V30 7286 C 654.418 -4.14984 -0.893794 0
M  V30 7287 C 652.325 -5.87227 0.701285 0
M  V30 7288 H 651.255 -0.750871 -0.0686244 0
M  V30 7289 H 653.906 -1.75687 0.529749 0
M  V30 7290 H 652.288 -3.79675 -1.12531 0
M  V30 7291 H 653.462 -4.28633 1.69147 0
M  V30 7292 H 651.777 -3.92859 1.38024 0
M  V30 7293 H 654.374 -5.23813 -1.0735 0
M  V30 7294 H 654.717 -3.72072 -1.8673 0
M  V30 7295 H 655.25 -3.97358 -0.187453 0
M  V30 7296 H 651.989 -6.34491 1.64624 0
M  V30 7297 H 651.509 -5.99792 -0.0308288 0
M  V30 7298 H 653.188 -6.46096 0.341846 0
M  V30 7299 N 653.32 -0.135238 -1.57019 0
M  V30 7300 C 654.283 0.794707 -2.14981 0
M  V30 7301 C 655.283 1.18342 -1.08866 0
M  V30 7302 O 656.473 1.10627 -1.34563 0
M  V30 7303 C 653.605 2.07685 -2.70333 0
M  V30 7304 H 654.798 0.290696 -2.98488 0
M  V30 7305 H 652.351 0.114128 -1.55883 0
M  V30 7306 H 653.086 2.6248 -1.9046 0
M  V30 7307 H 652.871 1.80745 -3.47957 0
M  V30 7308 H 654.361 2.74127 -3.1503 0
M  V30 7309 N 654.798 1.5699 0.138552 0
M  V30 7310 C 656.075 1.74741 0.87891 0
M  V30 7311 C 656.455 0.705522 1.98961 0
M  V30 7312 O 655.803 -0.274066 2.2685 0
M  V30 7313 C 656.013 3.1909 1.4136 0
M  V30 7314 C 657.361 3.81023 1.87368 0
M  V30 7315 O 658.385 3.22571 1.51084 0
M  V30 7316 O 657.244 4.83722 2.54312 0
M  V30 7317 H 654.338 0.714781 0.415953 0
M  V30 7318 H 656.884 1.69248 0.123817 0
M  V30 7319 H 655.656 3.86424 0.61579 0
M  V30 7320 H 655.279 3.29043 2.23196 0
M  V30 7321 N 656.276 -0.40816 1.52223 0
M  V30 7322 C 657.522 -1.15673 1.66576 0
M  V30 7323 C 657.855 -1.90141 0.394996 0
M  V30 7324 O 657.13 -1.84798 -0.606613 0
M  V30 7325 C 657.413 -2.15042 2.88841 0
M  V30 7326 C 657.266 -1.44465 4.25969 0
M  V30 7327 C 658.585 -3.15699 3.0663 0
M  V30 7328 H 655.704 -0.41916 0.606196 0
M  V30 7329 H 658.346 -0.442348 1.84779 0
M  V30 7330 H 656.496 -2.75964 2.73452 0
M  V30 7331 H 658.168 -0.866544 4.53088 0
M  V30 7332 H 656.411 -0.746612 4.27327 0
M  V30 7333 H 657.082 -2.16976 5.07568 0
M  V30 7334 H 659.558 -2.64854 3.20923 0
M  V30 7335 H 658.434 -3.82491 3.9369 0
M  V30 7336 H 658.695 -3.83481 2.19987 0
M  V30 7337 N 657.755 -1.42862 -0.66545 0
M  V30 7338 C 658.685 -1.49867 -1.79059 0
M  V30 7339 C 659.666 -0.354394 -1.66367 0
M  V30 7340 O 660.851 -0.569969 -1.85647 0
M  V30 7341 C 657.981 -1.40943 -3.17415 0
M  V30 7342 C 656.935 -2.53495 -3.44854 0
M  V30 7343 C 656.261 -2.29626 -4.82883 0
M  V30 7344 C 657.561 -3.95781 -3.40815 0
M  V30 7345 H 659.255 -2.44037 -1.73453 0
M  V30 7346 H 656.801 -1.17456 -0.833071 0
M  V30 7347 H 658.754 -1.4445 -3.95869 0
M  V30 7348 H 657.478 -0.432716 -3.23721 0
M  V30 7349 H 656.137 -2.4932 -2.68766 0
M  V30 7350 H 655.785 -1.30226 -4.8585 0
M  V30 7351 H 655.485 -3.05065 -5.02204 0
M  V30 7352 H 657.009 -2.34897 -5.63609 0
M  V30 7353 H 658.423 -4.01508 -4.09224 0
M  V30 7354 H 656.82 -4.71148 -3.71672 0
M  V30 7355 H 657.89 -4.21786 -2.39216 0
M  V30 7356 N 659.233 0.902656 -1.29189 0
M  V30 7357 C 660.163 2.02294 -1.16616 0
M  V30 7358 C 661.144 1.6999 -0.0611175 0
M  V30 7359 O 662.329 1.9271 -0.240072 0
M  V30 7360 C 659.459 3.37018 -0.83882 0
M  V30 7361 C 658.413 3.83522 -1.89986 0
M  V30 7362 C 657.739 5.15337 -1.42589 0
M  V30 7363 C 659.039 4.04169 -3.30824 0
M  V30 7364 H 660.733 2.13071 -2.10336 0
M  V30 7365 H 658.279 1.02378 -1.01266 0
M  V30 7366 H 660.232 4.14895 -0.737584 0
M  V30 7367 H 658.956 3.26325 0.134071 0
M  V30 7368 H 657.615 3.07859 -1.99043 0
M  V30 7369 H 657.263 5.01056 -0.441759 0
M  V30 7370 H 656.963 5.47423 -2.13547 0
M  V30 7371 H 658.487 5.95758 -1.3381 0
M  V30 7372 H 659.901 4.72537 -3.24626 0
M  V30 7373 H 658.298 4.47604 -3.99713 0
M  V30 7374 H 659.368 3.08604 -3.74021 0
M  V30 7375 N 660.711 1.11618 1.11262 0
M  V30 7376 C 661.621 0.78898 2.20935 0
M  V30 7377 C 662.637 -0.21867 1.7262 0
M  V30 7378 O 663.813 -0.0543826 2.01327 0
M  V30 7379 C 660.878 0.239014 3.45875 0
M  V30 7380 C 659.939 1.3055 4.08968 0
M  V30 7381 C 659.172 0.781687 5.27944 0
M  V30 7382 O 659.395 -0.387605 5.69082 0
M  V30 7383 O 658.329 1.54734 5.81671 0
M  V30 7384 H 662.155 1.70477 2.51339 0
M  V30 7385 H 659.74 0.892203 1.19834 0
M  V30 7386 H 661.622 -0.0632312 4.21353 0
M  V30 7387 H 660.297 -0.649454 3.17118 0
M  V30 7388 H 659.204 1.66079 3.35214 0
M  V30 7389 H 660.537 2.16743 4.41909 0
M  V30 7390 N 662.189 -1.289 0.906776 0
M  V30 7391 C 663.417 -1.99401 0.551969 0
M  V30 7392 C 663.832 -1.67816 -0.865048 0
M  V30 7393 O 663.189 -0.927078 -1.57199 0
M  V30 7394 C 663.24 -3.53779 0.743152 0
M  V30 7395 O 662.961 -3.84248 2.1044 0
M  V30 7396 C 664.462 -4.41543 0.39424 0
M  V30 7397 H 661.682 -0.636926 0.211106 0
M  V30 7398 H 664.226 -1.64266 1.21807 0
M  V30 7399 H 662.381 -3.87201 0.124143 0
M  V30 7400 H 662.795 -4.78904 2.13895 0
M  V30 7401 H 664.269 -5.48957 0.578814 0
M  V30 7402 H 664.746 -4.34073 -0.669137 0
M  V30 7403 H 665.352 -4.13605 0.990491 0
M  V30 7404 N 663.667 -0.670007 -1.42649 0
M  V30 7405 C 664.615 0.0230106 -2.32589 0
M  V30 7406 C 665.609 0.795585 -1.49555 0
M  V30 7407 O 666.815 0.70409 -1.65658 0
M  V30 7408 H 663.19 0.0262342 -0.751542 0
M  V30 7409 H 665.161 -0.753009 -2.88743 0
M  V30 7410 C 663.91 0.963872 -3.34073 0
M  V30 7411 H 663.233 0.378813 -3.98001 0
M  V30 7412 H 664.673 1.41755 -3.99602 0
M  V30 7413 C 663.132 2.06797 -2.65964 0
M  V30 7414 O 663.662 3.15383 -2.48789 0
M  V30 7415 N 661.868 1.83831 -2.25066 0
M  V30 7416 H 661.415 0.955235 -2.39234 0
M  V30 7417 H 661.373 2.57895 -1.79827 0
M  V30 7418 N 665.145 1.52092 -0.413018 0
M  V30 7419 C 666.394 2.01041 0.16287 0
M  V30 7420 C 666.707 1.30288 1.45892 0
M  V30 7421 O 667.913 1.70075 2.11629 0
M  V30 7422 C 666.369 3.58283 0.340806 0
M  V30 7423 C 665.977 4.37955 -0.943377 0
M  V30 7424 C 667.721 4.15452 0.871774 0
M  V30 7425 C 665.628 5.86847 -0.732417 0
M  V30 7426 H 664.558 0.751224 0.0646414 0
M  V30 7427 H 667.209 1.75404 -0.539059 0
M  V30 7428 H 665.591 3.80266 1.10516 0
M  V30 7429 H 666.765 4.2773 -1.71418 0
M  V30 7430 H 665.08 3.92122 -1.40105 0
M  V30 7431 H 667.677 5.24375 1.0457 0
M  V30 7432 H 668.02 3.73057 1.84755 0
M  V30 7433 H 668.553 3.97452 0.166377 0
M  V30 7434 H 665.292 6.33609 -1.67986 0
M  V30 7435 H 664.812 5.998 -0.000980058 0
M  V30 7436 H 666.491 6.45906 -0.376105 0
M  V30 7437 N 666.623 0.143563 1.56945 0
M  V30 7438 C 667.9 -0.553285 1.87612 0
M  V30 7439 C 668.28 -1.83195 1.04894 0
M  V30 7440 O 667.628 -2.28102 0.134773 0
M  V30 7441 C 667.838 -0.822055 3.3918 0
M  V30 7442 C 669.186 -1.16435 4.08324 0
M  V30 7443 O 670.21 -0.911522 3.4434 0
M  V30 7444 O 669.069 -1.63996 5.21313 0
M  V30 7445 H 666.163 -0.281851 0.777489 0
M  V30 7446 H 668.709 0.179916 1.68744 0
M  V30 7447 H 667.481 0.0830265 3.91212 0
M  V30 7448 H 667.104 -1.60956 3.63564 0
M  V30 7449 N 668.101 -1.57061 -0.130224 0
M  V30 7450 C 669.349 -1.83893 -0.838313 0
M  V30 7451 C 669.67 -0.727046 -1.80939 0
M  V30 7452 O 668.94 0.249927 -1.94299 0
M  V30 7453 H 667.52 -0.67846 -0.312573 0
M  V30 7454 H 670.182 -1.94529 -0.120224 0
M  V30 7455 H 669.278 -2.79419 -1.39038 0
M  V30 7456 N 669.579 0.400081 -1.52437 0
M  V30 7457 C 670.512 1.50929 -1.7116 0
M  V30 7458 C 671.49 1.52679 -0.559275 0
M  V30 7459 O 672.674 1.71251 -0.787735 0
M  V30 7460 C 669.801 2.89433 -1.75915 0
M  V30 7461 C 668.847 3.05556 -2.97553 0
M  V30 7462 S 669.68 2.77919 -4.57735 0
M  V30 7463 C 670.836 4.18636 -4.6529 0
M  V30 7464 H 671.069 1.3482 -2.64973 0
M  V30 7465 H 668.602 0.592245 -1.4259 0
M  V30 7466 H 670.56 3.69253 -1.7934 0
M  V30 7467 H 669.221 3.02877 -0.832137 0
M  V30 7468 H 668.414 4.0691 -2.97388 0
M  V30 7469 H 668.016 2.33615 -2.92062 0
M  V30 7470 H 670.308 5.12406 -4.43223 0
M  V30 7471 H 671.251 4.23821 -5.67258 0
M  V30 7472 H 671.659 4.04029 -3.94234 0
M  V30 7473 N 671.057 1.43213 0.657864 0
M  V30 7474 C 672.306 1.43871 1.41365 0
M  V30 7475 C 672.619 0.064898 1.95492 0
M  V30 7476 O 673.825 -0.0510796 2.71452 0
M  V30 7477 C 672.281 2.53158 2.55811 0
M  V30 7478 C 671.889 3.96624 2.08311 0
M  V30 7479 C 673.633 2.63004 3.3321 0
M  V30 7480 C 671.54 4.97385 3.1994 0
M  V30 7481 H 670.47 0.535174 0.531136 0
M  V30 7482 H 673.121 1.69185 0.710543 0
M  V30 7483 H 671.503 2.21037 3.2857 0
M  V30 7484 H 672.677 4.38182 1.42593 0
M  V30 7485 H 670.992 3.90781 1.43804 0
M  V30 7486 H 673.589 3.3546 4.16378 0
M  V30 7487 H 673.932 1.67918 3.80932 0
M  V30 7488 H 674.465 2.94403 2.67529 0
M  V30 7489 H 671.204 5.94007 2.77192 0
M  V30 7490 H 670.724 4.60444 3.84385 0
M  V30 7491 H 672.403 5.19877 3.85145 0
M  V30 7492 N 672.536 -0.895792 1.29666 0
M  V30 7493 C 673.785 -1.64131 1.17234 0
M  V30 7494 C 674.098 -1.93665 -0.274416 0
M  V30 7495 O 675.304 -2.66472 -0.520105 0
M  V30 7496 C 673.76 -2.95764 2.05065 0
M  V30 7497 C 673.368 -2.7381 3.54587 0
M  V30 7498 C 675.112 -3.737 2.01367 0
M  V30 7499 C 673.019 -4.01194 4.34508 0
M  V30 7500 H 671.949 -0.615742 0.435175 0
M  V30 7501 H 674.6 -0.992626 1.54335 0
M  V30 7502 H 672.982 -3.61867 1.60837 0
M  V30 7503 H 674.156 -2.16277 4.06892 0
M  V30 7504 H 672.471 -2.09265 3.59996 0
M  V30 7505 H 675.068 -4.68152 2.58337 0
M  V30 7506 H 675.411 -4.04245 0.994575 0
M  V30 7507 H 675.944 -3.14444 2.43659 0
M  V30 7508 H 672.683 -3.75813 5.37071 0
M  V30 7509 H 672.203 -4.58272 3.86971 0
M  V30 7510 H 673.882 -4.69307 4.45376 0
M  V30 7511 N 674.014 -1.12206 -1.10668 0
M  V30 7512 C 675.239 -0.898938 -1.86906 0
M  V30 7513 C 675.664 0.546346 -1.79991 0
M  V30 7514 O 675.022 1.38655 -1.1681 0
M  V30 7515 C 675.07 -1.37529 -3.33344 0
M  V30 7516 O 674.174 -0.55218 -4.08687 0
M  V30 7517 H 673.515 -0.323163 -0.580053 0
M  V30 7518 H 676.045 -1.49355 -1.39837 0
M  V30 7519 H 676.055 -1.3733 -3.84193 0
M  V30 7520 H 674.73 -2.42767 -3.37693 0
M  V30 7521 H 673.307 -0.620947 -3.67694 0
M  V30 7522 N 675.492 1.28418 -0.913599 0
M  V30 7523 C 676.44 2.29272 -0.392037 0
M  V30 7524 C 677.434 1.61344 0.516198 0
M  V30 7525 O 678.64 1.75557 0.39746 0
M  V30 7526 H 675.015 0.744178 -0.108178 0
M  V30 7527 H 676.986 2.70691 -1.25574 0
M  V30 7528 C 675.735 3.45905 0.352815 0
M  V30 7529 H 675.058 3.98378 -0.336848 0
M  V30 7530 H 676.498 4.18473 0.682398 0
M  V30 7531 C 674.957 2.98572 1.56065 0
M  V30 7532 O 675.487 3.01033 2.65974 0
M  V30 7533 N 673.693 2.54235 1.40759 0
M  V30 7534 H 673.24 2.52432 0.513403 0
M  V30 7535 H 673.198 2.22925 2.21702 0
M  V30 7536 N 676.97 0.677563 1.42291 0
M  V30 7537 C 678.198 0.209459 2.05837 0
M  V30 7538 C 678.613 -1.13444 1.50917 0
M  V30 7539 O 677.97 -1.70529 0.65008 0
M  V30 7540 C 678.021 0.138819 3.61233 0
M  V30 7541 O 677.742 1.42962 4.14118 0
M  V30 7542 C 679.243 -0.352449 4.41897 0
M  V30 7543 H 676.463 0.101209 0.663323 0
M  V30 7544 H 679.007 0.925077 1.8238 0
M  V30 7545 H 677.162 -0.527505 3.83792 0
M  V30 7546 H 677.576 1.3048 5.08011 0
M  V30 7547 H 679.05 -0.350778 5.50884 0
M  V30 7548 H 679.527 -1.3882 4.16684 0
M  V30 7549 H 680.133 0.282236 4.24362 0
M  V30 7550 N 678.448 -1.51871 0.421078 0
M  V30 7551 C 679.676 -2.06356 -0.14994 0
M  V30 7552 C 680.091 -1.29006 -1.37851 0
M  V30 7553 O 679.448 -0.345139 -1.79207 0
M  V30 7554 C 679.499 -3.58185 -0.488454 0
M  V30 7555 O 679.22 -4.32611 0.691341 0
M  V30 7556 C 680.721 -4.29129 -1.11191 0
M  V30 7557 H 677.941 -0.67083 -0.0151186 0
M  V30 7558 H 680.485 -1.95638 0.595476 0
M  V30 7559 H 678.64 -3.68871 -1.18376 0
M  V30 7560 H 679.054 -5.22927 0.405906 0
M  V30 7561 H 680.528 -5.36501 -1.29889 0
M  V30 7562 H 681.005 -3.86371 -2.0884 0
M  V30 7563 H 681.611 -4.22843 -0.456458 0
M  V30 7564 N 679.926 -0.151884 -1.56866 0
M  V30 7565 C 681.154 0.504813 -2.00647 0
M  V30 7566 C 681.569 1.58098 -1.03201 0
M  V30 7567 O 680.926 1.82476 -0.0297814 0
M  V30 7568 C 680.977 1.10099 -3.44326 0
M  V30 7569 O 680.698 0.0678021 -4.38048 0
M  V30 7570 C 682.199 1.83782 -4.03409 0
M  V30 7571 H 679.419 0.130989 -0.65809 0
M  V30 7572 H 681.963 -0.247903 -2.02992 0
M  V30 7573 H 680.118 1.8043 -3.42817 0
M  V30 7574 H 680.532 0.505237 -5.22061 0
M  V30 7575 H 682.006 2.2078 -5.05925 0
M  V30 7576 H 682.483 2.72557 -3.44397 0
M  V30 7577 H 683.089 1.18138 -4.08563 0
M  V30 7578 N 681.404 1.57128 0.121893 0
M  V30 7579 C 682.336 1.96773 1.17529 0
M  V30 7580 C 683.349 0.866668 1.37814 0
M  V30 7581 O 684.538 1.14497 1.3694 0
M  V30 7582 C 681.638 2.24832 2.53582 0
M  V30 7583 C 680.811 3.56138 2.53939 0
M  V30 7584 C 679.87 3.72443 3.71716 0
M  V30 7585 O 678.896 4.44584 3.55434 0
M  V30 7586 N 680.098 3.10993 4.90167 0
M  V30 7587 H 682.863 2.87743 0.838086 0
M  V30 7588 H 680.424 1.58881 0.311199 0
M  V30 7589 H 682.416 2.32958 3.30927 0
M  V30 7590 H 680.986 1.40002 2.79496 0
M  V30 7591 H 680.206 3.59226 1.62329 0
M  V30 7592 H 681.494 4.42448 2.51231 0
M  V30 7593 H 680.892 2.52345 5.06299 0
M  V30 7594 H 679.449 3.24644 5.65198 0
M  V30 7595 N 682.882 -0.391992 1.52647 0
M  V30 7596 C 684.131 -1.13449 1.6677 0
M  V30 7597 C 684.444 -1.91203 0.412399 0
M  V30 7598 O 685.65 -2.68013 0.433707 0
M  V30 7599 C 684.106 -2.06577 2.9471 0
M  V30 7600 C 683.714 -1.3426 4.27409 0
M  V30 7601 C 685.458 -2.80981 3.18198 0
M  V30 7602 C 683.365 -2.26136 5.46458 0
M  V30 7603 H 682.295 -0.427211 0.621295 0
M  V30 7604 H 684.946 -0.397522 1.79142 0
M  V30 7605 H 683.328 -2.83898 2.76076 0
M  V30 7606 H 684.502 -0.621856 4.56585 0
M  V30 7607 H 682.817 -0.718279 4.10158 0
M  V30 7608 H 685.414 -3.49898 4.04321 0
M  V30 7609 H 685.757 -3.44891 2.33144 0
M  V30 7610 H 686.29 -2.10754 3.37383 0
M  V30 7611 H 683.029 -1.66846 6.33911 0
M  V30 7612 H 682.549 -2.96134 5.21598 0
M  V30 7613 H 684.228 -2.86286 5.80215 0
M  V30 7614 N 684.36 -1.4356 -0.65026 0
M  V30 7615 C 685.308 -1.49219 -1.78427 0
M  V30 7616 C 686.302 -0.365528 -1.65409 0
M  V30 7617 O 687.508 -0.539649 -1.7172 0
M  V30 7618 H 683.883 -0.467858 -0.588738 0
M  V30 7619 H 685.854 -2.44701 -1.70774 0
M  V30 7620 C 684.603 -1.43519 -3.16698 0
M  V30 7621 H 683.926 -2.2952 -3.27354 0
M  V30 7622 H 685.366 -1.5154 -3.95995 0
M  V30 7623 C 683.825 -0.153197 -3.36552 0
M  V30 7624 O 684.355 0.784317 -3.93969 0
M  V30 7625 N 682.561 -0.0624402 -2.90533 0
M  V30 7626 H 682.108 -0.826172 -2.43992 0
M  V30 7627 H 682.066 0.794616 -3.04193 0
M  V30 7628 N 685.838 0.888903 -1.30139 0
M  V30 7629 C 687.115 1.62145 -1.094 0
M  V30 7630 C 687.495 2.08041 0.358091 0
M  V30 7631 O 686.843 1.84438 1.34888 0
M  V30 7632 C 687.053 2.794 -2.09133 0
M  V30 7633 C 688.401 3.49826 -2.40638 0
M  V30 7634 O 689.425 2.89583 -2.07412 0
M  V30 7635 O 688.284 4.58457 -2.97455 0
M  V30 7636 H 685.378 0.712475 -0.41989 0
M  V30 7637 H 687.924 0.936023 -1.41551 0
M  V30 7638 H 686.696 2.42762 -3.06891 0
M  V30 7639 H 686.319 3.55643 -1.77776 0
M  V30 7640 N 687.317 1.12792 1.10072 0
M  V30 7641 C 688.566 0.880232 1.81479 0
M  V30 7642 C 688.879 -0.595575 1.86312 0
M  V30 7643 O 690.085 -0.959979 2.53962 0
M  V30 7644 C 688.541 1.52514 3.25987 0
M  V30 7645 C 688.149 3.036 3.29441 0
M  V30 7646 C 689.893 1.35788 4.02196 0
M  V30 7647 C 687.8 3.61007 4.68431 0
M  V30 7648 H 686.73 0.325654 0.680048 0
M  V30 7649 H 689.381 1.35485 1.23758 0
M  V30 7650 H 687.763 0.978188 3.83728 0
M  V30 7651 H 688.937 3.64819 2.81502 0
M  V30 7652 H 687.252 3.19765 2.66719 0
M  V30 7653 H 689.849 1.76096 5.0487 0
M  V30 7654 H 690.192 0.301972 4.15203 0
M  V30 7655 H 690.725 1.87426 3.50879 0
M  V30 7656 H 687.464 4.66375 4.60625 0
M  V30 7657 H 686.984 3.04564 5.16721 0
M  V30 7658 H 688.663 3.60289 5.37402 0
M  V30 7659 N 688.795 -1.27931 0.920396 0
M  V30 7660 C 689.742 -2.27085 0.412422 0
M  V30 7661 C 690.712 -1.57858 -0.516725 0
M  V30 7662 O 691.897 -1.85717 -0.437475 0
M  V30 7663 C 689.037 -3.43466 -0.335399 0
M  V30 7664 C 688.15 -4.27425 0.627017 0
M  V30 7665 C 687.285 -5.31016 -0.139916 0
M  V30 7666 C 686.324 -6.06641 0.815683 0
M  V30 7667 N 685.461 -7.02052 0.0818439 0
M  V30 7668 H 690.301 -2.69913 1.26298 0
M  V30 7669 H 687.838 -1.32732 0.634076 0
M  V30 7670 H 689.796 -4.09744 -0.785226 0
M  V30 7671 H 688.426 -3.01611 -1.15025 0
M  V30 7672 H 687.478 -3.6113 1.19537 0
M  V30 7673 H 688.79 -4.79969 1.35763 0
M  V30 7674 H 687.944 -6.03208 -0.649998 0
M  V30 7675 H 686.683 -4.79257 -0.903543 0
M  V30 7676 H 685.688 -5.33294 1.33708 0
M  V30 7677 H 686.913 -6.60489 1.57897 0
M  V30 7678 H 684.859 -6.52634 -0.663671 0
M  V30 7679 H 684.776 -7.52249 0.752163 0
M  V30 7680 H 686.044 -7.78432 -0.407825 0
M  V30 7681 N 690.273 -0.685099 -1.4193 0
M  V30 7682 C 691.498 -0.218842 -2.06242 0
M  V30 7683 C 691.923 1.11923 -1.51178 0
M  V30 7684 O 691.281 1.69837 -0.634446 0
M  V30 7685 C 691.329 -0.175592 -3.60172 0
M  V30 7686 O 690.433 0.852776 -4.03487 0
M  V30 7687 H 689.774 -0.109531 -0.654904 0
M  V30 7688 H 692.304 -0.937013 -1.81882 0
M  V30 7689 H 692.314 -0.00291151 -4.08 0
M  V30 7690 H 690.989 -1.15222 -3.99621 0
M  V30 7691 H 689.566 0.650301 -3.67186 0
M  V30 7692 N 691.751 1.51645 -0.429126 0
M  V30 7693 C 692.998 2.02015 0.140079 0
M  V30 7694 C 693.326 1.31374 1.43427 0
M  V30 7695 O 692.581 0.414779 1.91254 0
M  V30 7696 C 692.88 3.54989 0.414472 0
M  V30 7697 C 692.546 4.43874 -0.792911 0
M  V30 7698 C 691.208 4.67887 -1.12404 0
M  V30 7699 C 693.56 4.96074 -1.59875 0
M  V30 7700 C 690.888 5.41348 -2.26184 0
M  V30 7701 C 693.24 5.70782 -2.72747 0
M  V30 7702 C 691.904 5.93062 -3.06324 0
M  V30 7703 H 691.174 0.739225 0.0512585 0
M  V30 7704 H 693.821 1.82675 -0.574641 0
M  V30 7705 H 692.126 3.72615 1.21099 0
M  V30 7706 H 693.823 3.91489 0.868173 0
M  V30 7707 H 690.413 4.25374 -0.524871 0
M  V30 7708 H 694.597 4.77412 -1.35614 0
M  V30 7709 H 689.853 5.56815 -2.52522 0
M  V30 7710 H 694.027 6.10221 -3.35564 0
M  V30 7711 H 691.654 6.49764 -3.94602 0
M  V30 7712 N 693.229 0.160201 1.56784 0
M  V30 7713 C 694.139 -0.787167 2.21 0
M  V30 7714 C 695.155 -1.26167 1.19825 0
M  V30 7715 O 696.331 -1.31611 1.52448 0
M  V30 7716 C 693.396 -2.00364 2.8294 0
M  V30 7717 C 692.457 -1.5771 3.99282 0
M  V30 7718 C 691.69 -2.73558 4.58259 0
M  V30 7719 O 691.913 -3.90129 4.16119 0
M  V30 7720 O 690.847 -2.48271 5.48311 0
M  V30 7721 H 694.673 -0.270462 3.02493 0
M  V30 7722 H 692.258 -0.0674666 1.49248 0
M  V30 7723 H 694.14 -2.71529 3.22257 0
M  V30 7724 H 692.815 -2.50961 2.04451 0
M  V30 7725 H 691.722 -0.835274 3.64656 0
M  V30 7726 H 693.055 -1.11815 4.79331 0
M  V30 7727 N 694.707 -1.5719 -0.113559 0
M  V30 7728 C 695.655 -2.01725 -1.158 0
M  V30 7729 C 696.649 -0.915105 -1.42556 0
M  V30 7730 O 697.855 -1.10031 -1.42454 0
M  V30 7731 H 694.23 -0.64262 -0.390569 0
M  V30 7732 H 696.201 -2.88666 -0.755926 0
M  V30 7733 C 694.95 -2.44203 -2.47507 0
M  V30 7734 H 694.273 -3.28582 -2.27758 0
M  V30 7735 H 695.713 -2.79158 -3.19135 0
M  V30 7736 C 694.172 -1.30785 -3.10478 0
M  V30 7737 O 694.702 -0.626807 -3.9678 0
M  V30 7738 N 692.908 -1.06352 -2.7044 0
M  V30 7739 H 692.455 -1.61913 -2.00355 0
M  V30 7740 H 692.413 -0.306614 -3.12901 0
M  V30 7741 N 696.185 0.383891 -1.52853 0
M  V30 7742 C 697.132 1.46924 -1.77995 0
M  V30 7743 C 698.102 1.53958 -0.623396 0
M  V30 7744 O 699.287 1.70134 -0.863657 0
M  V30 7745 C 696.427 2.84093 -1.95921 0
M  V30 7746 C 695.54 2.86171 -3.23621 0
M  V30 7747 C 694.675 4.14799 -3.31836 0
M  V30 7748 C 693.714 4.10948 -4.53639 0
M  V30 7749 N 692.851 5.31192 -4.59107 0
M  V30 7750 H 697.691 1.24786 -2.70615 0
M  V30 7751 H 695.228 0.605265 -1.34071 0
M  V30 7752 H 697.186 3.63755 -2.04299 0
M  V30 7753 H 695.816 3.04671 -1.06656 0
M  V30 7754 H 694.868 1.9885 -3.24288 0
M  V30 7755 H 696.18 2.79194 -4.13343 0
M  V30 7756 H 695.334 5.02867 -3.39425 0
M  V30 7757 H 694.073 4.24505 -2.40097 0
M  V30 7758 H 693.078 3.21268 -4.46169 0
M  V30 7759 H 694.303 4.0286 -5.467 0
M  V30 7760 H 692.249 5.41518 -3.70262 0
M  V30 7761 H 692.166 5.26311 -5.42708 0
M  V30 7762 H 693.434 6.21143 -4.70958 0
M  V30 7763 N 697.663 1.43903 0.642637 0
M  V30 7764 C 698.61 1.49881 1.75512 0
M  V30 7765 C 699.58 0.347538 1.62423 0
M  V30 7766 O 700.765 0.556177 1.82514 0
M  V30 7767 C 697.905 1.43797 3.13714 0
M  V30 7768 C 697.018 2.6921 3.37861 0
M  V30 7769 C 696.153 2.5504 4.6597 0
M  V30 7770 C 695.192 3.75671 4.83257 0
M  V30 7771 N 694.329 3.60247 6.02633 0
M  V30 7772 H 699.169 2.44935 1.69737 0
M  V30 7773 H 696.706 1.21572 0.828165 0
M  V30 7774 H 698.664 1.38262 3.93624 0
M  V30 7775 H 697.294 0.523173 3.18532 0
M  V30 7776 H 696.346 2.8498 2.51973 0
M  V30 7777 H 697.658 3.58786 3.46517 0
M  V30 7778 H 696.812 2.47273 5.54023 0
M  V30 7779 H 695.551 1.63006 4.59653 0
M  V30 7780 H 694.556 3.83836 3.93637 0
M  V30 7781 H 695.781 4.68728 4.91397 0
M  V30 7782 H 693.727 2.70955 5.97427 0
M  V30 7783 H 693.644 4.43431 6.12295 0
M  V30 7784 H 694.912 3.56351 6.93278 0
M  V30 7785 N 699.141 -0.881989 1.30609 0
M  V30 7786 C 700.389 -1.63082 1.19368 0
M  V30 7787 C 700.71 -1.93376 -0.251147 0
M  V30 7788 O 699.98 -1.5723 -1.16857 0
M  V30 7789 H 698.56 -0.604542 0.438791 0
M  V30 7790 H 701.222 -1.05658 1.63776 0
M  V30 7791 H 700.318 -2.57966 1.7567 0
M  V30 7792 N 700.619 -1.13374 -1.09472 0
M  V30 7793 C 701.867 -0.893422 -1.8128 0
M  V30 7794 C 702.188 0.582029 -1.86111 0
M  V30 7795 O 701.458 1.42305 -1.34633 0
M  V30 7796 H 700.038 -0.327543 -0.67136 0
M  V30 7797 H 702.7 -1.43018 -1.32408 0
M  V30 7798 H 701.796 -1.28374 -2.84476 0
M  V30 7799 N 702.098 1.27442 -0.927168 0
M  V30 7800 C 703.344 1.94679 -0.568164 0
M  V30 7801 C 703.677 1.72697 0.888219 0
M  V30 7802 O 702.952 1.05573 1.63354 0
M  V30 7803 C 703.235 3.4882 -0.894253 0
M  V30 7804 C 703.088 3.80146 -2.40435 0
M  V30 7805 C 704.407 4.38281 -0.399766 0
M  V30 7806 H 701.526 0.707071 -0.207892 0
M  V30 7807 H 704.168 1.50568 -1.15885 0
M  V30 7808 H 702.318 3.86522 -0.391566 0
M  V30 7809 H 703.99 3.52238 -2.97869 0
M  V30 7810 H 702.233 3.26716 -2.85375 0
M  V30 7811 H 702.904 4.87835 -2.58304 0
M  V30 7812 H 705.38 4.07726 -0.83058 0
M  V30 7813 H 704.256 5.44955 -0.656885 0
M  V30 7814 H 704.517 4.36521 0.700153 0
M  V30 7815 N 703.576 0.692616 1.41565 0
M  V30 7816 C 704.801 0.229776 2.06123 0
M  V30 7817 C 705.226 -1.11119 1.5177 0
M  V30 7818 O 704.584 -1.69498 0.643444 0
M  V30 7819 C 704.632 0.19469 3.60074 0
M  V30 7820 O 703.736 -0.831366 4.03933 0
M  V30 7821 H 703.077 0.113002 0.654314 0
M  V30 7822 H 705.607 0.946645 1.81383 0
M  V30 7823 H 705.617 0.0245487 4.07993 0
M  V30 7824 H 704.292 1.17339 3.99004 0
M  V30 7825 H 702.869 -0.630819 3.67526 0
M  V30 7826 N 705.054 -1.51416 0.437162 0
M  V30 7827 C 706.302 -2.01687 -0.129108 0
M  V30 7828 C 706.623 -1.32329 -1.43227 0
M  V30 7829 O 705.893 -0.457796 -1.90476 0
M  V30 7830 H 704.473 -0.745277 -0.0507023 0
M  V30 7831 H 707.135 -1.86075 0.579828 0
M  V30 7832 H 706.231 -3.10605 -0.305141 0
M  V30 7833 N 706.532 -0.168513 -1.56696 0
M  V30 7834 C 707.495 0.748928 -2.16619 0
M  V30 7835 C 708.495 1.16007 -1.11351 0
M  V30 7836 O 709.685 1.07748 -1.3688 0
M  V30 7837 C 706.817 2.01904 -2.74677 0
M  V30 7838 H 708.01 0.227317 -2.99037 0
M  V30 7839 H 705.563 0.0810372 -1.5609 0
M  V30 7840 H 706.298 2.58381 -1.95985 0
M  V30 7841 H 706.083 1.73323 -3.51712 0
M  V30 7842 H 707.573 2.67383 -3.20774 0
M  V30 7843 N 708.01 1.57248 0.105221 0
M  V30 7844 C 708.957 2.01338 1.12835 0
M  V30 7845 C 709.927 0.887897 1.40377 0
M  V30 7846 O 711.112 1.15315 1.5201 0
M  V30 7847 C 708.252 2.43432 2.44611 0
M  V30 7848 C 707.365 3.69457 2.23888 0
M  V30 7849 C 706.5 4.00473 3.48991 0
M  V30 7850 C 705.539 5.19638 3.23485 0
M  V30 7851 N 704.676 5.46457 4.40828 0
M  V30 7852 H 709.516 2.88527 0.745386 0
M  V30 7853 H 707.053 1.42714 0.356535 0
M  V30 7854 H 709.011 2.65879 3.21503 0
M  V30 7855 H 707.641 1.59266 2.80774 0
M  V30 7856 H 706.693 3.54545 1.37847 0
M  V30 7857 H 708.005 4.56497 2.01026 0
M  V30 7858 H 707.159 4.23642 4.34295 0
M  V30 7859 H 705.898 3.11935 3.74897 0
M  V30 7860 H 704.903 4.96299 2.36574 0
M  V30 7861 H 706.128 6.09766 2.98935 0
M  V30 7862 H 704.074 4.60876 4.66829 0
M  V30 7863 H 703.991 6.27849 4.2112 0
M  V30 7864 H 705.259 5.74155 5.27225 0
M  V30 7865 N 709.488 -0.375779 1.53054 0
M  V30 7866 C 710.418 -1.46598 1.81745 0
M  V30 7867 C 711.399 -1.56337 0.670286 0
M  V30 7868 O 712.584 -1.71071 0.919158 0
M  V30 7869 C 709.714 -2.84058 1.99821 0
M  V30 7870 C 708.668 -2.8915 3.15557 0
M  V30 7871 C 707.994 -4.29187 3.18908 0
M  V30 7872 C 709.294 -2.57595 4.54359 0
M  V30 7873 H 710.988 -1.22837 2.73041 0
M  V30 7874 H 708.534 -0.589485 1.31381 0
M  V30 7875 H 710.487 -3.60342 2.18475 0
M  V30 7876 H 709.211 -3.09184 1.05226 0
M  V30 7877 H 707.87 -2.15316 2.96706 0
M  V30 7878 H 707.518 -4.51374 2.2197 0
M  V30 7879 H 707.218 -4.33512 3.96662 0
M  V30 7880 H 708.742 -5.07359 3.39734 0
M  V30 7881 H 710.156 -3.23595 4.73243 0
M  V30 7882 H 708.553 -2.73252 5.34279 0
M  V30 7883 H 709.623 -1.52882 4.60169 0
M  V30 7884 N 710.966 -1.44241 -0.634997 0
M  V30 7885 C 711.913 -1.5081 -1.74714 0
M  V30 7886 C 712.883 -0.356147 -1.62237 0
M  V30 7887 O 714.068 -0.565848 -1.82216 0
M  V30 7888 C 711.208 -1.45458 -3.12947 0
M  V30 7889 C 710.321 -2.70998 -3.36428 0
M  V30 7890 C 709.456 -2.57507 -4.64611 0
M  V30 7891 C 708.495 -3.78229 -4.81258 0
M  V30 7892 N 707.632 -3.63438 -6.00714 0
M  V30 7893 H 712.472 -2.45832 -1.68436 0
M  V30 7894 H 710.009 -1.2201 -0.821706 0
M  V30 7895 H 711.967 -1.40347 -3.92885 0
M  V30 7896 H 710.597 -0.540058 -3.1825 0
M  V30 7897 H 709.649 -2.86312 -2.50458 0
M  V30 7898 H 710.961 -3.60619 -3.44609 0
M  V30 7899 H 710.115 -2.50207 -5.52703 0
M  V30 7900 H 708.854 -1.65441 -4.58782 0
M  V30 7901 H 707.859 -3.85918 -3.91596 0
M  V30 7902 H 709.084 -4.71327 -4.88904 0
M  V30 7903 H 707.03 -2.7412 -5.95982 0
M  V30 7904 H 706.947 -4.46672 -6.09934 0
M  V30 7905 H 708.215 -3.60022 -6.91378 0
M  V30 7906 N 712.444 0.87505 -1.31075 0
M  V30 7907 C 713.721 1.60976 -1.11113 0
M  V30 7908 C 714.101 2.08409 0.336006 0
M  V30 7909 O 713.449 1.85858 1.32924 0
M  V30 7910 C 713.659 2.77166 -2.12085 0
M  V30 7911 C 715.007 3.47254 -2.44335 0
M  V30 7912 O 716.031 2.87367 -2.10472 0
M  V30 7913 O 714.89 4.55276 -3.02301 0
M  V30 7914 H 711.984 0.707982 -0.427424 0
M  V30 7915 H 714.53 0.920957 -1.42536 0
M  V30 7916 H 713.302 2.39494 -3.09449 0
M  V30 7917 H 712.925 3.53737 -1.81538 0
M  V30 7918 N 713.922 1.13953 1.08869 0
M  V30 7919 C 715.171 0.899431 1.80536 0
M  V30 7920 C 715.484 -0.575781 1.86933 0
M  V30 7921 O 716.69 -0.932988 2.54966 0
M  V30 7922 C 715.146 1.55963 3.24351 0
M  V30 7923 C 714.754 3.07077 3.26202 0
M  V30 7924 C 716.498 1.40046 4.00733 0
M  V30 7925 C 714.405 3.65955 4.64576 0
M  V30 7926 H 713.335 0.332849 0.676556 0
M  V30 7927 H 715.986 1.3679 1.22314 0
M  V30 7928 H 714.368 1.01883 3.82669 0
M  V30 7929 H 715.542 3.67785 2.77617 0
M  V30 7930 H 713.857 3.22576 2.63312 0
M  V30 7931 H 716.454 1.81441 5.02974 0
M  V30 7932 H 716.797 0.345993 4.1486 0
M  V30 7933 H 717.33 1.91137 3.48872 0
M  V30 7934 H 714.069 4.71234 4.55652 0
M  V30 7935 H 713.589 3.10027 5.13462 0
M  V30 7936 H 715.268 3.65968 5.33551 0
M  V30 7937 N 715.4 -1.26948 0.933913 0
M  V30 7938 C 716.625 -1.98724 0.593589 0
M  V30 7939 C 717.05 -1.6915 -0.822801 0
M  V30 7940 O 716.408 -0.93533 -1.5531 0
M  V30 7941 C 716.456 -3.50834 0.833542 0
M  V30 7942 O 715.56 -4.12284 -0.0978788 0
M  V30 7943 H 714.901 -0.623683 0.227849 0
M  V30 7944 H 717.431 -1.61599 1.25486 0
M  V30 7945 H 717.441 -4.01018 0.75156 0
M  V30 7946 H 716.116 -3.71691 1.86597 0
M  V30 7947 H 714.693 -3.72884 0.0345443 0
M  V30 7948 N 716.879 -0.700114 -1.41195 0
M  V30 7949 C 718.107 -0.242179 -2.05478 0
M  V30 7950 C 718.522 1.11029 -1.52702 0
M  V30 7951 O 717.879 1.69473 -0.677127 0
M  V30 7952 C 717.93 -0.196271 -3.60967 0
M  V30 7953 O 717.651 -1.49532 -4.11791 0
M  V30 7954 C 719.152 0.282102 -4.42401 0
M  V30 7955 H 716.372 -0.111749 -0.661629 0
M  V30 7956 H 718.916 -0.953975 -1.80885 0
M  V30 7957 H 717.071 0.46638 -3.84582 0
M  V30 7958 H 717.485 -1.38545 -5.05871 0
M  V30 7959 H 718.959 0.263093 -5.51373 0
M  V30 7960 H 719.436 1.32174 -4.1884 0
M  V30 7961 H 720.042 -0.349712 -4.2386 0
M  V30 7962 N 718.357 1.51182 -0.445186 0
M  V30 7963 C 719.304 2.27939 0.362291 0
M  V30 7964 C 720.274 1.31864 1.01 0
M  V30 7965 O 721.459 1.60776 1.02741 0
M  V30 7966 C 718.599 3.13016 1.45311 0
M  V30 7967 C 717.712 4.24093 0.822757 0
M  V30 7968 C 716.847 4.96467 1.88928 0
M  V30 7969 C 715.886 5.99454 1.23778 0
M  V30 7970 N 715.023 6.65206 2.24602 0
M  V30 7971 H 719.863 2.965 -0.29862 0
M  V30 7972 H 717.4 1.46237 -0.15911 0
M  V30 7973 H 719.358 3.60673 2.09692 0
M  V30 7974 H 717.988 2.46553 2.08354 0
M  V30 7975 H 717.04 3.80341 0.0670364 0
M  V30 7976 H 718.352 4.97853 0.307184 0
M  V30 7977 H 717.506 5.47712 2.60953 0
M  V30 7978 H 716.245 4.22355 2.4386 0
M  V30 7979 H 715.25 5.47494 0.503042 0
M  V30 7980 H 716.475 6.75527 0.695694 0
M  V30 7981 H 714.421 5.93901 2.78599 0
M  V30 7982 H 714.338 7.34756 1.77958 0
M  V30 7983 H 715.606 7.21078 2.96085 0
M  V30 7984 N 719.835 0.176821 1.56605 0
M  V30 7985 C 721.082 -0.466715 1.97048 0
M  V30 7986 C 721.41 -1.6288 1.06302 0
M  V30 7987 O 720.665 -1.95453 0.0982571 0
M  V30 7988 C 720.964 -0.986208 3.43524 0
M  V30 7989 C 720.63 0.0605667 4.50859 0
M  V30 7990 C 719.292 0.348242 4.79938 0
M  V30 7991 C 721.644 0.770794 5.15469 0
M  V30 7992 C 718.972 1.35144 5.70923 0
M  V30 7993 C 721.324 1.76301 6.07537 0
M  V30 7994 C 719.988 2.05808 6.3498 0
M  V30 7995 H 719.258 -0.170783 0.721051 0
M  V30 7996 H 721.905 0.269942 1.89588 0
M  V30 7997 H 720.21 -1.80079 3.47964 0
M  V30 7998 H 721.907 -1.49323 3.72161 0
M  V30 7999 H 718.497 -0.173823 4.28247 0
M  V30 8000 H 722.681 0.56176 4.9311 0
M  V30 8001 H 717.937 1.58616 5.90467 0
M  V30 8002 H 722.111 2.31868 6.56666 0
M  V30 8003 H 719.738 2.8369 7.05283 0
M  V30 8004 N 721.313 -1.57302 -0.09688 0
M  V30 8005 C 722.562 -1.85183 -0.799388 0
M  V30 8006 C 722.875 -0.765818 -1.79985 0
M  V30 8007 O 724.081 -0.931696 -2.55013 0
M  V30 8008 C 722.537 -3.28399 -1.47249 0
M  V30 8009 C 722.145 -4.45066 -0.511888 0
M  V30 8010 C 723.889 -3.65506 -2.15883 0
M  V30 8011 C 721.796 -5.79315 -1.18948 0
M  V30 8012 H 720.726 -0.690752 -0.302287 0
M  V30 8013 H 723.377 -1.83425 -0.0523104 0
M  V30 8014 H 721.759 -3.24692 -2.26697 0
M  V30 8015 H 722.933 -4.60116 0.250962 0
M  V30 8016 H 721.248 -4.16343 0.0686576 0
M  V30 8017 H 723.845 -4.63087 -2.67309 0
M  V30 8018 H 724.188 -2.94041 -2.94696 0
M  V30 8019 H 724.721 -3.71094 -1.43298 0
M  V30 8020 H 721.46 -6.54007 -0.442198 0
M  V30 8021 H 720.98 -5.68111 -1.9238 0
M  V30 8022 H 722.659 -6.23816 -1.71646 0
M  V30 8023 N 722.791 0.367657 -1.53252 0
M  V30 8024 C 724.031 1.11923 -1.71034 0
M  V30 8025 C 724.395 1.86618 -0.45143 0
M  V30 8026 O 725.596 2.63996 -0.505915 0
M  V30 8027 C 723.867 2.05461 -2.92439 0
M  V30 8028 S 725.426 2.88167 -3.30916 0
M  V30 8029 H 722.244 0.378549 -0.601848 0
M  V30 8030 H 724.846 0.400757 -1.91348 0
M  V30 8031 H 723.55 1.49346 -3.82262 0
M  V30 8032 H 723.081 2.81784 -2.7452 0
M  V30 8033 H 725.096 4.07746 -2.82767 0
M  V30 8034 N 724.269 1.44576 0.627338 0
M  V30 8035 C 725.179 1.54232 1.76776 0
M  V30 8036 C 726.195 0.427782 1.6866 0
M  V30 8037 O 727.371 0.685671 1.89369 0
M  V30 8038 C 724.436 1.48738 3.13174 0
M  V30 8039 C 723.497 2.71074 3.32893 0
M  V30 8040 C 722.73 2.65832 4.62784 0
M  V30 8041 O 722.953 1.72048 5.43834 0
M  V30 8042 O 721.887 3.56742 4.84787 0
M  V30 8043 H 725.713 2.50586 1.71582 0
M  V30 8044 H 723.298 1.26865 0.789028 0
M  V30 8045 H 725.18 1.48211 3.94476 0
M  V30 8046 H 723.855 0.555292 3.18902 0
M  V30 8047 H 722.762 2.77168 2.51254 0
M  V30 8048 H 724.095 3.63342 3.32029 0
M  V30 8049 N 725.747 -0.868086 1.31537 0
M  V30 8050 C 726.68 -1.97871 1.13676 0
M  V30 8051 C 727.658 -1.62551 0.0397589 0
M  V30 8052 O 728.842 -1.87473 0.196539 0
M  V30 8053 C 725.969 -3.30577 0.73734 0
M  V30 8054 C 725.015 -3.8488 1.83765 0
M  V30 8055 S 725.848 -4.10106 3.44345 0
M  V30 8056 C 727.004 -5.45806 3.06344 0
M  V30 8057 H 727.237 -2.12719 2.07697 0
M  V30 8058 H 724.77 -1.01849 1.16044 0
M  V30 8059 H 726.728 -4.07274 0.513641 0
M  V30 8060 H 725.389 -3.13562 -0.183787 0
M  V30 8061 H 724.582 -4.80821 1.51085 0
M  V30 8062 H 724.184 -3.14981 2.01651 0
M  V30 8063 H 726.476 -6.27535 2.55354 0
M  V30 8064 H 727.419 -5.83437 4.01257 0
M  V30 8065 H 727.827 -5.0917 2.43734 0
M  V30 8066 N 727.225 -1.14528 -1.08264 0
M  V30 8067 C 728.455 -0.936604 -1.8415 0
M  V30 8068 C 728.863 0.518298 -1.81962 0
M  V30 8069 O 728.206 1.37096 -1.22272 0
M  V30 8070 C 728.268 -1.36182 -3.32708 0
M  V30 8071 C 727.932 -2.83257 -3.58629 0
M  V30 8072 C 728.929 -3.81366 -3.5335 0
M  V30 8073 C 726.614 -3.20704 -3.86593 0
M  V30 8074 C 728.608 -5.14929 -3.75668 0
M  V30 8075 C 726.295 -4.54443 -4.08564 0
M  V30 8076 C 727.293 -5.51365 -4.03095 0
M  V30 8077 O 726.981 -6.8269 -4.24488 0
M  V30 8078 H 726.713 -0.333254 -0.588148 0
M  V30 8079 H 729.267 -1.5247 -1.3763 0
M  V30 8080 H 727.497 -0.717063 -3.79994 0
M  V30 8081 H 729.186 -1.12372 -3.90035 0
M  V30 8082 H 729.952 -3.53781 -3.31759 0
M  V30 8083 H 725.831 -2.45857 -3.89969 0
M  V30 8084 H 729.375 -5.90568 -3.71315 0
M  V30 8085 H 725.272 -4.81747 -4.29639 0
M  V30 8086 H 726.04 -6.8897 -4.41886 0
M  V30 8087 N 728.703 1.26451 -0.940633 0
M  V30 8088 C 729.651 2.28389 -0.440581 0
M  V30 8089 C 730.645 1.62402 0.481859 0
M  V30 8090 O 731.851 1.76361 0.360132 0
M  V30 8091 H 728.226 0.741716 -0.123938 0
M  V30 8092 H 730.197 2.67967 -1.31288 0
M  V30 8093 C 728.946 3.46576 0.279364 0
M  V30 8094 H 728.269 3.97574 -0.421274 0
M  V30 8095 H 729.709 4.19826 0.59348 0
M  V30 8096 C 728.168 3.01815 1.49697 0
M  V30 8097 O 728.698 3.06607 2.59529 0
M  V30 8098 N 726.904 2.57163 1.35334 0
M  V30 8099 H 726.451 2.53464 0.459743 0
M  V30 8100 H 726.409 2.27578 2.16923 0
M  V30 8101 N 730.181 0.707592 1.40822 0
M  V30 8102 C 731.411 0.252706 2.05049 0
M  V30 8103 C 731.819 -1.10758 1.53393 0
M  V30 8104 O 731.162 -1.70567 0.682097 0
M  V30 8105 C 731.224 0.146001 3.59203 0
M  V30 8106 C 730.888 1.44027 4.33711 0
M  V30 8107 C 731.885 2.38058 4.62195 0
M  V30 8108 C 729.57 1.69698 4.72766 0
M  V30 8109 C 731.564 3.56013 5.28709 0
M  V30 8110 C 729.251 2.87936 5.39014 0
M  V30 8111 C 730.249 3.80915 5.66915 0
M  V30 8112 O 729.937 4.9708 6.31796 0
M  V30 8113 H 729.669 0.112784 0.666525 0
M  V30 8114 H 732.223 0.96417 1.81364 0
M  V30 8115 H 730.453 -0.621338 3.81676 0
M  V30 8116 H 732.142 -0.273275 4.04979 0
M  V30 8117 H 732.908 2.19487 4.32493 0
M  V30 8118 H 728.787 0.981835 4.50423 0
M  V30 8119 H 732.331 4.28604 5.50404 0
M  V30 8120 H 728.228 3.06419 5.68135 0
M  V30 8121 H 728.996 4.97053 6.50293 0
M  V30 8122 N 731.66 -1.50943 0.453197 0
M  V30 8123 C 732.888 -2.06628 -0.106135 0
M  V30 8124 C 733.303 -1.31901 -1.35084 0
M  V30 8125 O 732.66 -0.383074 -1.78434 0
M  V30 8126 C 732.711 -3.5914 -0.412368 0
M  V30 8127 O 732.432 -4.31047 0.782948 0
M  V30 8128 C 733.933 -4.31391 -1.02064 0
M  V30 8129 H 731.153 -0.670999 -0.000885896 0
M  V30 8130 H 733.697 -1.94331 0.63684 0
M  V30 8131 H 731.852 -3.71299 -1.10526 0
M  V30 8132 H 732.266 -5.21948 0.516736 0
M  V30 8133 H 733.74 -5.39135 -1.1848 0
M  V30 8134 H 734.217 -3.90714 -2.00598 0
M  V30 8135 H 734.823 -4.23716 -0.366664 0
M  V30 8136 N 733.138 -0.185124 -1.56509 0
M  V30 8137 C 734.086 0.756505 -2.19954 0
M  V30 8138 C 735.08 1.22725 -1.16769 0
M  V30 8139 O 736.286 1.1913 -1.34937 0
M  V30 8140 H 732.661 0.262279 -0.704779 0
M  V30 8141 H 734.632 0.197587 -2.97745 0
M  V30 8142 C 733.381 1.96975 -2.86524 0
M  V30 8143 H 732.704 1.61658 -3.65659 0
M  V30 8144 H 734.144 2.60719 -3.34367 0
M  V30 8145 C 732.603 2.80219 -1.87027 0
M  V30 8146 O 733.133 3.77821 -1.36433 0
M  V30 8147 N 731.339 2.4551 -1.55477 0
M  V30 8148 H 730.886 1.66199 -1.96813 0
M  V30 8149 H 730.844 3.01493 -0.891597 0
M  V30 8150 N 734.616 1.57351 0.0885366 0
M  V30 8151 C 735.563 2.02523 1.10693 0
M  V30 8152 C 736.533 0.902736 1.39427 0
M  V30 8153 O 737.718 1.16921 1.50779 0
M  V30 8154 C 734.858 2.46013 2.42016 0
M  V30 8155 C 733.971 3.7181 2.19957 0
M  V30 8156 C 733.106 4.04152 3.44724 0
M  V30 8157 C 732.145 5.2304 3.17956 0
M  V30 8158 N 731.282 5.51102 4.35007 0
M  V30 8159 H 736.122 2.89302 0.714742 0
M  V30 8160 H 733.659 1.43084 0.341378 0
M  V30 8161 H 735.617 2.69274 3.18665 0
M  V30 8162 H 734.247 1.62235 2.79069 0
M  V30 8163 H 733.299 3.55987 1.34079 0
M  V30 8164 H 734.611 4.58604 1.96173 0
M  V30 8165 H 733.765 4.28225 4.29777 0
M  V30 8166 H 732.504 3.15893 3.71568 0
M  V30 8167 H 731.509 4.98781 2.31296 0
M  V30 8168 H 732.734 6.12902 2.92451 0
M  V30 8169 H 730.68 4.65802 4.61914 0
M  V30 8170 H 730.597 6.3228 4.14437 0
M  V30 8171 H 731.865 5.79714 5.21106 0
M  V30 8172 N 736.094 -0.359525 1.53444 0
M  V30 8173 C 737.026 -1.46098 1.76602 0
M  V30 8174 C 738.039 -1.49395 0.646912 0
M  V30 8175 O 739.228 -1.52765 0.923307 0
M  V30 8176 C 736.328 -2.84836 1.83635 0
M  V30 8177 C 735.501 -3.05164 3.13358 0
M  V30 8178 C 734.56 -4.24051 3.11556 0
M  V30 8179 O 733.586 -4.18935 3.85334 0
M  V30 8180 N 734.788 -5.31775 2.328 0
M  V30 8181 H 737.553 -1.2661 2.71643 0
M  V30 8182 H 735.114 -0.549294 1.52297 0
M  V30 8183 H 737.106 -3.62516 1.799 0
M  V30 8184 H 735.676 -2.97542 0.958509 0
M  V30 8185 H 734.896 -2.15091 3.30348 0
M  V30 8186 H 736.184 -3.15619 3.99076 0
M  V30 8187 H 735.582 -5.38796 1.7238 0
M  V30 8188 H 734.139 -6.0801 2.34877 0
M  V30 8189 N 737.572 -1.44907 -0.619662 0
M  V30 8190 C 738.821 -1.47569 -1.37501 0
M  V30 8191 C 739.134 -0.116707 -1.95252 0
M  V30 8192 O 740.34 -0.020909 -2.71492 0
M  V30 8193 C 738.796 -2.59851 -2.49009 0
M  V30 8194 C 738.404 -4.02008 -1.97722 0
M  V30 8195 C 740.148 -2.71746 -3.2612 0
M  V30 8196 C 738.055 -5.05693 -3.0664 0
M  V30 8197 H 736.985 -0.549068 -0.51676 0
M  V30 8198 H 739.636 -1.71009 -0.665437 0
M  V30 8199 H 738.018 -2.29671 -3.22594 0
M  V30 8200 H 739.192 -4.41809 -1.30925 0
M  V30 8201 H 737.507 -3.94456 -1.33392 0
M  V30 8202 H 740.104 -3.46382 -4.07337 0
M  V30 8203 H 740.447 -1.77959 -3.76346 0
M  V30 8204 H 740.98 -3.01392 -2.5963 0
M  V30 8205 H 737.719 -6.01148 -2.61345 0
M  V30 8206 H 737.239 -4.70473 -3.72042 0
M  V30 8207 H 738.918 -5.29906 -3.71226 0
M  V30 8208 N 739.05 0.861098 -1.31996 0
M  V30 8209 C 740.461 1.43065 -1.19955 0
M  V30 8210 C 740.812 1.95273 0.190489 0
M  V30 8211 O 739.937 1.87012 1.08882 0
M  V30 8212 C 740.532 2.60052 -2.1716 0
M  V30 8213 C 739.091 3.13026 -2.09026 0
M  V30 8214 C 738.238 1.85756 -2.05888 0
M  V30 8215 H 741.189 0.668834 -1.43918 0
M  V30 8216 H 741.21 3.37016 -1.76637 0
M  V30 8217 H 740.722 2.22024 -3.18319 0
M  V30 8218 H 738.823 3.55653 -1.11092 0
M  V30 8219 H 738.936 3.74707 -2.98549 0
M  V30 8220 H 737.3 2.05088 -1.51033 0
M  V30 8221 H 738.083 1.49954 -3.08818 0
M  V30 8222 N 740.528 1.15101 1.07655 0
M  V30 8223 C 741.777 0.918528 1.79572 0
M  V30 8224 C 742.09 -0.555922 1.87534 0
M  V30 8225 O 743.296 -0.905893 2.55941 0
M  V30 8226 C 741.752 1.59394 3.22679 0
M  V30 8227 C 741.36 3.1052 3.22927 0
M  V30 8228 C 743.104 1.44289 3.99225 0
M  V30 8229 C 741.011 3.70862 4.60668 0
M  V30 8230 H 739.941 0.340006 0.672987 0
M  V30 8231 H 742.592 1.38079 1.20857 0
M  V30 8232 H 740.974 1.05936 3.81567 0
M  V30 8233 H 742.148 3.70708 2.737 0
M  V30 8234 H 740.463 3.25351 2.59876 0
M  V30 8235 H 743.06 1.86766 5.01022 0
M  V30 8236 H 743.403 0.389975 4.14469 0
M  V30 8237 H 743.936 1.94826 3.46825 0
M  V30 8238 H 740.675 4.7604 4.50628 0
M  V30 8239 H 740.195 3.15456 5.10145 0
M  V30 8240 H 741.874 3.71607 5.29639 0
M  V30 8241 N 742.006 -1.2595 0.947325 0
M  V30 8242 C 743.255 -1.92759 0.593887 0
M  V30 8243 C 743.568 -1.75083 -0.872093 0
M  V30 8244 O 744.774 -2.36401 -1.33518 0
M  V30 8245 C 743.23 -3.45395 1.01144 0
M  V30 8246 C 742.838 -3.71795 2.49946 0
M  V30 8247 C 744.582 -4.18173 0.730185 0
M  V30 8248 C 742.489 -5.17901 2.85539 0
M  V30 8249 H 741.419 -0.721676 0.218403 0
M  V30 8250 H 744.07 -1.4293 1.15079 0
M  V30 8251 H 742.452 -3.94143 0.383007 0
M  V30 8252 H 743.626 -3.33728 3.17746 0
M  V30 8253 H 741.941 -3.12263 2.75465 0
M  V30 8254 H 744.538 -5.25784 0.972367 0
M  V30 8255 H 744.881 -4.14964 -0.333223 0
M  V30 8256 H 745.414 -3.75309 1.31862 0
M  V30 8257 H 742.153 -5.26216 3.90867 0
M  V30 8258 H 741.673 -5.57042 2.22406 0
M  V30 8259 H 743.352 -5.8596 2.74336 0
M  V30 8260 N 743.484 -0.715051 -1.40445 0
M  V30 8261 C 744.447 -0.0708726 -2.2909 0
M  V30 8262 C 745.447 0.687926 -1.45342 0
M  V30 8263 O 746.637 0.519908 -1.66261 0
M  V30 8264 C 743.769 0.909528 -3.28543 0
M  V30 8265 H 744.962 -0.851611 -2.87555 0
M  V30 8266 H 742.515 -0.479674 -1.48758 0
M  V30 8267 H 743.25 1.71734 -2.75096 0
M  V30 8268 H 743.035 0.368318 -3.90366 0
M  V30 8269 H 744.525 1.35744 -3.94922 0
M  V30 8270 N 744.962 1.50701 -0.461195 0
M  V30 8271 C 746.187 2.07171 0.0974773 0
M  V30 8272 C 746.612 1.32391 1.3362 0
M  V30 8273 O 745.97 0.368676 1.77512 0
M  V30 8274 C 746.018 3.58651 0.374409 0
M  V30 8275 O 745.122 3.85816 1.4567 0
M  V30 8276 H 744.463 0.663944 -0.00862047 0
M  V30 8277 H 746.993 1.94021 -0.649394 0
M  V30 8278 H 747.003 4.03295 0.617843 0
M  V30 8279 H 745.678 4.12498 -0.530829 0
M  V30 8280 H 744.255 3.53018 1.20136 0
M  V30 8281 N 746.441 0.193421 1.56409 0
M  V30 8282 C 747.689 -0.444908 1.97142 0
M  V30 8283 C 748.01 -1.62268 1.08139 0
M  V30 8284 O 747.28 -1.95307 0.152326 0
M  V30 8285 H 745.86 -0.16736 0.728011 0
M  V30 8286 H 748.522 0.279763 1.92882 0
M  V30 8287 H 747.618 -0.790159 3.01932 0
M  V30 8288 N 747.919 -1.57396 -0.0801906 0
M  V30 8289 C 749.167 -1.86467 -0.779384 0
M  V30 8290 C 749.488 -0.784243 -1.78535 0
M  V30 8291 O 748.758 0.187986 -1.94996 0
M  V30 8292 H 747.338 -0.68806 -0.29083 0
M  V30 8293 H 750 -1.94813 -0.0582749 0
M  V30 8294 H 749.096 -2.83701 -1.30078 0
M  V30 8295 N 749.397 0.351382 -1.53633 0
M  V30 8296 C 750.646 1.08988 -1.69719 0
M  V30 8297 C 750.959 1.90043 -0.462948 0
M  V30 8298 O 752.165 2.66769 -0.504613 0
M  V30 8299 C 750.621 1.98691 -3.00083 0
M  V30 8300 C 750.229 1.22881 -4.30818 0
M  V30 8301 C 751.973 2.72446 -3.25536 0
M  V30 8302 C 749.88 2.11568 -5.52262 0
M  V30 8303 H 748.81 0.410588 -0.632403 0
M  V30 8304 H 751.461 0.349886 -1.80133 0
M  V30 8305 H 749.843 2.76478 -2.83506 0
M  V30 8306 H 751.017 0.500582 -4.58073 0
M  V30 8307 H 749.332 0.60928 -4.11918 0
M  V30 8308 H 751.929 3.39055 -4.13456 0
M  V30 8309 H 752.272 3.38588 -2.42206 0
M  V30 8310 H 752.805 2.01735 -3.42852 0
M  V30 8311 H 749.544 1.4998 -6.38111 0
M  V30 8312 H 749.064 2.82201 -5.29266 0
M  V30 8313 H 750.743 2.70802 -5.87601 0
M  V30 8314 N 750.875 1.45233 0.611969 0
M  V30 8315 C 752.122 1.49021 1.37109 0
M  V30 8316 C 752.45 0.130227 1.94064 0
M  V30 8317 O 751.705 -0.870551 1.75271 0
M  V30 8318 C 752.004 2.51353 2.54079 0
M  V30 8319 C 751.67 3.96178 2.15299 0
M  V30 8320 C 750.332 4.35614 2.04436 0
M  V30 8321 C 752.684 4.87275 1.84966 0
M  V30 8322 C 750.012 5.64047 1.61456 0
M  V30 8323 C 752.364 6.16115 1.43474 0
M  V30 8324 C 751.028 6.54486 1.31167 0
M  V30 8325 H 750.298 0.545307 0.501719 0
M  V30 8326 H 752.945 1.78555 0.692122 0
M  V30 8327 H 751.25 2.15372 3.27295 0
M  V30 8328 H 752.947 2.51523 3.12309 0
M  V30 8329 H 749.537 3.6499 2.24678 0
M  V30 8330 H 753.721 4.57548 1.92258 0
M  V30 8331 H 748.977 5.92575 1.50547 0
M  V30 8332 H 753.151 6.86149 1.19048 0
M  V30 8333 H 750.778 7.53904 0.97637 0
M  V30 8334 N 752.353 -0.854086 1.3245 0
M  V30 8335 C 753.578 -1.64597 1.26185 0
M  V30 8336 C 754.003 -1.87357 -0.167074 0
M  V30 8337 O 753.361 -1.42675 -1.11864 0
M  V30 8338 C 753.409 -2.98213 2.02734 0
M  V30 8339 O 752.513 -3.88784 1.37554 0
M  V30 8340 H 751.854 -0.50179 0.434859 0
M  V30 8341 H 754.384 -1.06372 1.74775 0
M  V30 8342 H 754.394 -3.4803 2.1293 0
M  V30 8343 H 753.069 -2.80969 3.06642 0
M  V30 8344 H 751.646 -3.4725 1.3591 0
M  V30 8345 N 753.831 -1.1567 -1.07043 0
M  V30 8346 C 755.079 -0.931673 -1.79344 0
M  V30 8347 C 755.4 0.542421 -1.87304 0
M  V30 8348 O 754.67 1.39418 -1.37621 0
M  V30 8349 H 753.25 -0.34171 -0.664262 0
M  V30 8350 H 755.912 -1.45795 -1.29344 0
M  V30 8351 H 755.008 -1.34379 -2.81689 0
M  V30 8352 N 755.309 1.25446 -0.953992 0
M  V30 8353 C 756.239 2.28264 -0.491717 0
M  V30 8354 C 757.22 1.63717 0.461617 0
M  V30 8355 O 758.405 1.90821 0.36071 0
M  V30 8356 C 755.535 3.46525 0.231915 0
M  V30 8357 C 754.489 4.23247 -0.636098 0
M  V30 8358 C 753.815 5.34254 0.218238 0
M  V30 8359 C 755.115 4.85971 -1.91389 0
M  V30 8360 H 756.809 2.67183 -1.35106 0
M  V30 8361 H 754.355 1.2844 -0.651095 0
M  V30 8362 H 756.308 4.17576 0.566439 0
M  V30 8363 H 755.032 3.06594 1.12551 0
M  V30 8364 H 753.691 3.53978 -0.953696 0
M  V30 8365 H 753.339 4.90564 1.11156 0
M  V30 8366 H 753.039 5.86501 -0.359232 0
M  V30 8367 H 754.563 6.08138 0.547743 0
M  V30 8368 H 755.977 5.49168 -1.64581 0
M  V30 8369 H 754.374 5.48391 -2.43696 0
M  V30 8370 H 755.444 4.08192 -2.61738 0
M  V30 8371 N 756.787 0.722489 1.40064 0
M  V30 8372 C 758.064 0.191829 1.94657 0
M  V30 8373 C 758.444 -1.30389 1.66018 0
M  V30 8374 O 757.792 -2.06342 0.981588 0
M  V30 8375 C 758.002 0.511978 3.45224 0
M  V30 8376 C 759.35 0.454426 4.22161 0
M  V30 8377 O 760.374 0.448438 3.53366 0
M  V30 8378 O 759.233 0.437986 5.44742 0
M  V30 8379 H 756.327 0.0307821 0.826427 0
M  V30 8380 H 758.873 0.800493 1.49634 0
M  V30 8381 H 757.645 1.54622 3.59455 0
M  V30 8382 H 757.268 -0.126296 3.97399 0
M  V30 8383 N 758.265 -1.50454 0.469181 0
M  V30 8384 C 759.228 -2.2703 -0.314643 0
M  V30 8385 C 760.228 -1.31734 -0.922111 0
M  V30 8386 O 761.418 -1.55176 -0.791588 0
M  V30 8387 C 758.55 -3.08616 -1.44806 0
M  V30 8388 H 759.743 -2.97769 0.356892 0
M  V30 8389 H 757.296 -1.54698 0.223191 0
M  V30 8390 H 758.031 -2.42369 -2.1547 0
M  V30 8391 H 757.816 -3.78647 -1.01829 0
M  V30 8392 H 759.306 -3.66536 -2.00103 0
M  V30 8393 N 759.743 -0.201713 -1.56304 0
M  V30 8394 C 760.673 0.71155 -2.22394 0
M  V30 8395 C 761.654 1.21625 -1.18917 0
M  V30 8396 O 762.839 1.26388 -1.47444 0
M  V30 8397 C 759.969 1.92837 -2.88845 0
M  V30 8398 C 758.923 1.55831 -3.98623 0
M  V30 8399 C 758.249 2.85228 -4.52271 0
M  V30 8400 C 759.549 0.763249 -5.16693 0
M  V30 8401 H 761.243 0.160573 -2.98969 0
M  V30 8402 H 758.789 0.0757916 -1.438 0
M  V30 8403 H 760.742 2.57253 -3.33764 0
M  V30 8404 H 759.466 2.50398 -2.09686 0
M  V30 8405 H 758.125 0.9377 -3.54405 0
M  V30 8406 H 757.773 3.40893 -3.69866 0
M  V30 8407 H 757.473 2.6121 -5.26349 0
M  V30 8408 H 758.997 3.50622 -4.99897 0
M  V30 8409 H 760.411 1.31066 -5.58117 0
M  V30 8410 H 758.808 0.620935 -5.96879 0
M  V30 8411 H 759.878 -0.234322 -4.84334 0
M  V30 8412 N 761.222 1.57436 0.0718424 0
M  V30 8413 C 762.132 2.07039 1.10326 0
M  V30 8414 C 763.148 0.999918 1.424 0
M  V30 8415 O 764.324 1.31462 1.52577 0
M  V30 8416 C 761.389 2.50439 2.39752 0
M  V30 8417 C 760.45 3.71784 2.14651 0
M  V30 8418 C 759.683 4.13104 3.37906 0
M  V30 8419 O 759.906 3.54298 4.47023 0
M  V30 8420 O 758.84 5.05894 3.26121 0
M  V30 8421 H 762.666 2.95239 0.711872 0
M  V30 8422 H 760.251 1.46638 0.28597 0
M  V30 8423 H 762.133 2.78876 3.15921 0
M  V30 8424 H 760.808 1.65368 2.78271 0
M  V30 8425 H 759.715 3.48431 1.36187 0
M  V30 8426 H 761.048 4.57707 1.81012 0
M  V30 8427 N 762.7 -0.34323 1.53817 0
M  V30 8428 C 763.647 -1.42153 1.81827 0
M  V30 8429 C 764.617 -1.52251 0.663996 0
M  V30 8430 O 765.802 -1.67784 0.908461 0
M  V30 8431 C 762.942 -2.78799 2.03384 0
M  V30 8432 C 762.055 -2.7749 3.31094 0
M  V30 8433 C 761.19 -4.05856 3.42717 0
M  V30 8434 C 760.229 -3.98776 4.64375 0
M  V30 8435 N 759.366 -5.18833 4.73029 0
M  V30 8436 H 764.206 -1.17567 2.73829 0
M  V30 8437 H 761.743 -0.569506 1.35628 0
M  V30 8438 H 763.701 -3.58211 2.13872 0
M  V30 8439 H 762.331 -3.01736 1.14696 0
M  V30 8440 H 761.383 -1.90182 3.29446 0
M  V30 8441 H 762.695 -2.68137 4.206 0
M  V30 8442 H 761.849 -4.93691 3.52638 0
M  V30 8443 H 760.588 -4.1799 2.51267 0
M  V30 8444 H 759.593 -3.09325 4.5453 0
M  V30 8445 H 760.818 -3.88224 5.57189 0
M  V30 8446 H 758.764 -5.31511 3.84489 0
M  V30 8447 H 758.681 -5.11737 5.56472 0
M  V30 8448 H 759.949 -6.08439 4.87261 0
M  V30 8449 N 764.178 -1.45556 -0.604258 0
M  V30 8450 C 765.427 -1.49019 -1.35928 0
M  V30 8451 C 765.74 -0.137409 -1.95117 0
M  V30 8452 O 766.946 -0.0497032 -2.71455 0
M  V30 8453 C 765.402 -2.62477 -2.46239 0
M  V30 8454 C 765.01 -4.04082 -1.93447 0
M  V30 8455 C 766.754 -2.7519 -3.23219 0
M  V30 8456 C 764.661 -5.08917 -3.0126 0
M  V30 8457 H 763.591 -0.554518 -0.510907 0
M  V30 8458 H 766.242 -1.71705 -0.647262 0
M  V30 8459 H 764.624 -2.3308 -3.2014 0
M  V30 8460 H 765.798 -4.43173 -1.26232 0
M  V30 8461 H 764.113 -3.95849 -1.29201 0
M  V30 8462 H 766.71 -3.50683 -4.0364 0
M  V30 8463 H 767.053 -1.81941 -3.74437 0
M  V30 8464 H 767.586 -3.04129 -2.56418 0
M  V30 8465 H 764.325 -6.03886 -2.54955 0
M  V30 8466 H 763.845 -4.74393 -3.67031 0
M  V30 8467 H 765.524 -5.33814 -3.65584 0
M  V30 8468 N 765.656 0.84705 -1.32902 0
M  V30 8469 C 766.566 1.98845 -1.2449 0
M  V30 8470 C 767.582 1.7329 -0.15702 0
M  V30 8471 O 768.758 1.978 -0.379104 0
M  V30 8472 C 765.823 3.32679 -0.975985 0
M  V30 8473 C 764.884 3.71405 -2.15306 0
M  V30 8474 C 764.117 4.98853 -1.89688 0
M  V30 8475 O 764.34 5.64134 -0.843168 0
M  V30 8476 O 763.274 5.34889 -2.76002 0
M  V30 8477 H 767.1 2.0888 -2.2046 0
M  V30 8478 H 764.685 0.978852 -1.12867 0
M  V30 8479 H 766.567 4.12885 -0.842826 0
M  V30 8480 H 765.242 3.23667 -0.0464954 0
M  V30 8481 H 764.149 2.91743 -2.34172 0
M  V30 8482 H 765.482 3.85073 -3.06561 0
M  V30 8483 N 767.134 1.16236 1.06428 0
M  V30 8484 C 768.097 0.870163 2.1204 0
M  V30 8485 C 769.097 -0.134239 1.60239 0
M  V30 8486 O 770.287 0.0964932 1.73933 0
M  V30 8487 C 767.419 0.301033 3.39568 0
M  V30 8488 H 768.612 1.8064 2.39394 0
M  V30 8489 H 766.165 0.971116 1.2247 0
M  V30 8490 H 766.9 -0.642948 3.17863 0
M  V30 8491 H 766.685 1.02475 3.78472 0
M  V30 8492 H 768.175 0.114494 4.17443 0
M  V30 8493 N 768.612 -1.24939 0.960631 0
M  V30 8494 C 769.86 -1.92437 0.617441 0
M  V30 8495 C 770.181 -1.75543 -0.849101 0
M  V30 8496 O 769.451 -1.12269 -1.60538 0
M  V30 8497 H 768.031 -0.712192 0.225371 0
M  V30 8498 H 770.693 -1.5198 1.22017 0
M  V30 8499 H 769.789 -3.00247 0.851933 0
M  V30 8500 N 770.09 -0.729906 -1.39679 0
M  V30 8501 C 771.053 -0.0951668 -2.29002 0
M  V30 8502 C 772.053 0.672471 -1.46063 0
M  V30 8503 O 773.243 0.502245 -1.66803 0
M  V30 8504 C 770.375 0.874631 -3.29489 0
M  V30 8505 H 771.568 -0.882062 -2.86635 0
M  V30 8506 H 769.121 -0.495424 -1.4824 0
M  V30 8507 H 769.856 1.68807 -2.76902 0
M  V30 8508 H 769.641 0.326893 -3.90735 0
M  V30 8509 H 771.131 1.31548 -3.96339 0
M  V30 8510 N 771.568 1.50203 -0.477153 0
M  V30 8511 C 772.793 2.07263 0.0754986 0
M  V30 8512 C 773.218 1.33801 1.32208 0
M  V30 8513 O 772.576 0.387482 1.77111 0
M  V30 8514 C 772.624 3.59028 0.336348 0
M  V30 8515 O 771.728 3.87339 1.4157 0
M  V30 8516 H 771.069 0.663815 -0.015662 0
M  V30 8517 H 773.599 1.93321 -0.669936 0
M  V30 8518 H 773.609 4.03927 0.575034 0
M  V30 8519 H 772.284 4.11912 -0.574551 0
M  V30 8520 H 770.861 3.54272 1.16385 0
M  V30 8521 N 773.046 0.209999 1.56195 0
M  V30 8522 C 774.292 -0.425442 1.98287 0
M  V30 8523 C 774.625 -1.60232 1.09724 0
M  V30 8524 O 773.9 -1.93902 0.152414 0
M  V30 8525 C 774.183 -0.871189 3.49403 0
M  V30 8526 C 774.036 0.308527 4.48741 0
M  V30 8527 C 775.355 -1.73146 4.04609 0
M  V30 8528 H 772.474 -0.153169 0.720908 0
M  V30 8529 H 775.116 0.303916 1.87554 0
M  V30 8530 H 773.266 -1.49266 3.58681 0
M  V30 8531 H 774.938 0.946487 4.51486 0
M  V30 8532 H 773.181 0.957878 4.23092 0
M  V30 8533 H 773.852 -0.0461143 5.51981 0
M  V30 8534 H 776.328 -1.2072 3.98203 0
M  V30 8535 H 775.204 -2.01228 5.10684 0
M  V30 8536 H 775.465 -2.69083 3.5078 0
M  V30 8537 N 774.524 -1.57472 -0.0634922 0
M  V30 8538 C 775.764 -1.89491 -0.766312 0
M  V30 8539 C 776.128 -0.80475 -1.74321 0
M  V30 8540 O 777.329 -1.00825 -2.49174 0
M  V30 8541 C 775.6 -3.26731 -1.44851 0
M  V30 8542 S 777.159 -3.80516 -2.18525 0
M  V30 8543 H 773.977 -0.663832 -0.254653 0
M  V30 8544 H 776.579 -1.95488 -0.0220867 0
M  V30 8545 H 775.283 -4.03967 -0.723824 0
M  V30 8546 H 774.814 -3.23953 -2.232 0
M  V30 8547 H 776.829 -3.5647 -3.45172 0
M  V30 8548 N 776.003 0.335068 -1.53997 0
M  V30 8549 C 776.935 1.4327 -1.78903 0
M  V30 8550 C 777.948 1.48347 -0.670598 0
M  V30 8551 O 779.137 1.51277 -0.947494 0
M  V30 8552 C 776.237 2.81878 -1.88144 0
M  V30 8553 C 775.41 3.00141 -3.18174 0
M  V30 8554 C 774.469 4.19041 -3.18263 0
M  V30 8555 O 773.495 4.12751 -3.9195 0
M  V30 8556 N 774.697 5.28004 -2.41231 0
M  V30 8557 H 777.462 1.22272 -2.73623 0
M  V30 8558 H 775.023 0.524996 -1.53152 0
M  V30 8559 H 777.015 3.59609 -1.85644 0
M  V30 8560 H 775.585 2.9598 -1.00572 0
M  V30 8561 H 774.805 2.09808 -3.33728 0
M  V30 8562 H 776.093 3.0923 -4.04047 0
M  V30 8563 H 775.491 5.35986 -1.8093 0
M  V30 8564 H 774.048 6.04196 -2.44521 0
M  V30 8565 N 777.481 1.45874 0.596531 0
M  V30 8566 C 778.411 1.5824 1.71705 0
M  V30 8567 C 779.392 0.433366 1.64487 0
M  V30 8568 O 780.577 0.657895 1.82717 0
M  V30 8569 C 777.707 1.55927 3.10329 0
M  V30 8570 C 776.661 2.69659 3.32367 0
M  V30 8571 C 775.987 2.52403 4.71377 0
M  V30 8572 C 777.287 4.11591 3.21544 0
M  V30 8573 H 778.981 2.52035 1.61613 0
M  V30 8574 H 776.527 1.21297 0.776082 0
M  V30 8575 H 778.48 1.63173 3.88526 0
M  V30 8576 H 777.204 0.586674 3.21288 0
M  V30 8577 H 775.863 2.61859 2.56564 0
M  V30 8578 H 775.511 1.53258 4.79083 0
M  V30 8579 H 775.211 3.28679 4.87077 0
M  V30 8580 H 776.735 2.6152 5.5176 0
M  V30 8581 H 778.149 4.20576 3.89601 0
M  V30 8582 H 776.546 4.88344 3.4877 0
M  V30 8583 H 777.616 4.32719 2.1882 0
M  V30 8584 N 778.959 -0.83999 1.33349 0
M  V30 8585 C 780.189 -1.62492 1.27593 0
M  V30 8586 C 780.597 -1.88559 -0.155597 0
M  V30 8587 O 779.94 -1.46537 -1.10782 0
M  V30 8588 C 780.002 -2.99984 1.98116 0
M  V30 8589 C 779.666 -2.96892 3.47425 0
M  V30 8590 C 780.663 -2.72688 4.42648 0
M  V30 8591 C 778.348 -3.17063 3.89585 0
M  V30 8592 C 780.342 -2.68681 5.78004 0
M  V30 8593 C 778.029 -3.12682 5.25046 0
M  V30 8594 C 779.027 -2.88522 6.19067 0
M  V30 8595 O 778.715 -2.84042 7.52047 0
M  V30 8596 H 778.447 -0.512358 0.440982 0
M  V30 8597 H 781.001 -1.0545 1.76265 0
M  V30 8598 H 779.231 -3.58875 1.44034 0
M  V30 8599 H 780.92 -3.6084 1.85875 0
M  V30 8600 H 781.686 -2.56856 4.114 0
M  V30 8601 H 777.565 -3.34889 3.16813 0
M  V30 8602 H 781.109 -2.49743 6.51363 0
M  V30 8603 H 777.006 -3.28063 5.55918 0
M  V30 8604 H 777.774 -2.99892 7.61582 0
M  V30 8605 N 780.437 -1.16799 -1.0581 0
M  V30 8606 C 781.662 -0.977402 -1.82925 0
M  V30 8607 C 782.087 0.469514 -1.82146 0
M  V30 8608 O 781.445 1.33576 -1.22585 0
M  V30 8609 C 781.493 -1.51543 -3.27211 0
M  V30 8610 O 780.597 -0.725021 -4.05977 0
M  V30 8611 H 779.938 -0.347474 -0.565825 0
M  V30 8612 H 782.468 -1.55151 -1.33376 0
M  V30 8613 H 782.478 -1.53502 -3.78023 0
M  V30 8614 H 781.153 -2.56872 -3.27093 0
M  V30 8615 H 779.73 -0.77634 -3.64729 0
M  V30 8616 N 781.915 1.24427 -0.967243 0
M  V30 8617 C 783.155 1.9423 -0.636723 0
M  V30 8618 C 783.519 1.73939 0.812971 0
M  V30 8619 O 784.72 2.37773 1.25369 0
M  V30 8620 C 782.991 3.43105 -1.00067 0
M  V30 8621 S 784.55 4.31728 -0.784633 0
M  V30 8622 H 781.368 0.671527 -0.233607 0
M  V30 8623 H 783.97 1.50806 -1.2441 0
M  V30 8624 H 782.674 3.5538 -2.05264 0
M  V30 8625 H 782.205 3.91521 -0.384054 0
M  V30 8626 H 784.22 4.95046 0.338244 0
M  V30 8627 N 783.393 0.737304 1.3929 0
M  V30 8628 C 784.323 0.113988 2.33222 0
M  V30 8629 C 785.304 -0.721695 1.54031 0
M  V30 8630 O 786.489 -0.666206 1.82415 0
M  V30 8631 C 783.619 -0.792319 3.38141 0
M  V30 8632 C 782.573 -0.0606178 4.27957 0
M  V30 8633 C 781.899 -1.08409 5.23595 0
M  V30 8634 C 783.199 1.09817 5.10625 0
M  V30 8635 H 784.893 0.898611 2.85596 0
M  V30 8636 H 782.439 0.433571 1.37318 0
M  V30 8637 H 784.392 -1.23793 4.02807 0
M  V30 8638 H 783.116 -1.60908 2.84211 0
M  V30 8639 H 781.775 0.365393 3.64775 0
M  V30 8640 H 781.423 -1.89449 4.6596 0
M  V30 8641 H 781.123 -0.599269 5.84536 0
M  V30 8642 H 782.647 -1.52936 5.91137 0
M  V30 8643 H 784.061 0.730892 5.68622 0
M  V30 8644 H 782.458 1.51278 5.80719 0
M  V30 8645 H 783.528 1.91878 4.45321 0
M  V30 8646 N 784.871 -1.49948 0.485112 0
M  V30 8647 C 786.117 -2.02695 -0.0651022 0
M  V30 8648 C 786.45 -1.36534 -1.38102 0
M  V30 8649 O 785.725 -0.495677 -1.88078 0
M  V30 8650 C 786.008 -3.59337 -0.234285 0
M  V30 8651 C 785.861 -4.3605 1.10364 0
M  V30 8652 C 787.18 -4.28996 -0.982351 0
M  V30 8653 H 784.299 -0.736666 -0.0221856 0
M  V30 8654 H 786.941 -1.7913 0.633433 0
M  V30 8655 H 785.091 -3.79546 -0.829262 0
M  V30 8656 H 786.763 -4.27377 1.73627 0
M  V30 8657 H 785.006 -3.99236 1.69686 0
M  V30 8658 H 785.677 -5.43959 0.938743 0
M  V30 8659 H 788.153 -4.13346 -0.477904 0
M  V30 8660 H 787.029 -5.38379 -1.06955 0
M  V30 8661 H 787.29 -3.93135 -2.02231 0
M  V30 8662 N 786.349 -0.21828 -1.56081 0
M  V30 8663 C 787.596 0.414307 -1.98216 0
M  V30 8664 C 787.924 1.60005 -1.10584 0
M  V30 8665 O 787.179 1.95124 -0.150043 0
M  V30 8666 C 787.478 0.894782 -3.46018 0
M  V30 8667 C 787.144 -0.180083 -4.5054 0
M  V30 8668 C 785.806 -0.475367 -4.78846 0
M  V30 8669 C 788.158 -0.907191 -5.13244 0
M  V30 8670 C 785.486 -1.50233 -5.67139 0
M  V30 8671 C 787.838 -1.92347 -6.02649 0
M  V30 8672 C 786.502 -2.22571 -6.293 0
M  V30 8673 H 785.772 0.151606 -0.725325 0
M  V30 8674 H 788.419 -0.320113 -1.88806 0
M  V30 8675 H 786.724 1.7079 -3.52616 0
M  V30 8676 H 788.421 1.39403 -3.75989 0
M  V30 8677 H 785.011 0.06022 -4.28558 0
M  V30 8678 H 789.195 -0.692303 -4.91448 0
M  V30 8679 H 784.451 -1.74215 -5.86054 0
M  V30 8680 H 788.625 -2.49197 -6.50288 0
M  V30 8681 H 786.252 -3.0229 -6.97513 0
M  V30 8682 N 787.827 1.57504 0.0551401 0
M  V30 8683 C 788.775 2.05884 1.08233 0
M  V30 8684 C 789.769 0.967383 1.39061 0
M  V30 8685 O 790.975 1.15242 1.38273 0
M  V30 8686 H 787.35 0.656673 0.366449 0
M  V30 8687 H 789.321 2.91273 0.648269 0
M  V30 8688 C 788.07 2.53221 2.38273 0
M  V30 8689 H 787.393 3.36809 2.15406 0
M  V30 8690 H 788.833 2.9081 3.08554 0
M  V30 8691 C 787.292 1.42218 3.05411 0
M  V30 8692 O 787.822 0.773638 3.9418 0
M  V30 8693 N 786.028 1.16316 2.66306 0
M  V30 8694 H 785.575 1.69237 1.94207 0
M  V30 8695 H 785.533 0.422534 3.11548 0
M  V30 8696 N 789.305 -0.326896 1.54172 0
M  V30 8697 C 790.553 -1.06313 1.71878 0
M  V30 8698 C 790.874 -1.88652 0.493498 0
M  V30 8699 O 790.144 -1.89608 -0.492522 0
M  V30 8700 H 788.724 -0.39549 0.633716 0
M  V30 8701 H 791.386 -0.364139 1.91468 0
M  V30 8702 H 790.482 -1.73105 2.59694 0
M  V30 8703 N 790.784 -1.46188 -0.588786 0
M  V30 8704 C 791.717 -1.508 -1.71274 0
M  V30 8705 C 792.695 -0.362635 -1.58505 0
M  V30 8706 O 793.879 -0.565899 -1.79805 0
M  V30 8707 C 791.006 -1.38082 -3.09275 0
M  V30 8708 C 790.052 -2.56723 -3.40581 0
M  V30 8709 S 790.885 -4.1911 -3.33327 0
M  V30 8710 C 792.041 -4.08891 -4.73877 0
M  V30 8711 H 792.274 -2.45895 -1.67102 0
M  V30 8712 H 789.807 -1.34 -0.767025 0
M  V30 8713 H 791.765 -1.31432 -3.88891 0
M  V30 8714 H 790.426 -0.444259 -3.10942 0
M  V30 8715 H 789.619 -2.43801 -4.41109 0
M  V30 8716 H 789.221 -2.60332 -2.68521 0
M  V30 8717 H 791.513 -3.75196 -5.64123 0
M  V30 8718 H 792.456 -5.09395 -4.91856 0
M  V30 8719 H 792.864 -3.40239 -4.50441 0
M  V30 8720 N 792.262 0.832906 -1.33792 0
M  V30 8721 C 793.209 1.94314 -1.24541 0
M  V30 8722 C 794.179 1.65646 -0.122753 0
M  V30 8723 O 795.364 1.88394 -0.30204 0
M  V30 8724 C 792.504 3.30395 -0.996641 0
M  V30 8725 C 791.617 3.71422 -2.20612 0
M  V30 8726 C 790.752 4.96401 -1.89101 0
M  V30 8727 C 789.791 5.2998 -3.06247 0
M  V30 8728 N 788.928 6.46137 -2.74685 0
M  V30 8729 H 793.768 2.01559 -2.19495 0
M  V30 8730 H 791.305 0.986243 -1.09141 0
M  V30 8731 H 793.263 4.08803 -0.832817 0
M  V30 8732 H 791.893 3.22691 -0.0838242 0
M  V30 8733 H 790.945 2.88488 -2.47949 0
M  V30 8734 H 792.257 3.92215 -3.0817 0
M  V30 8735 H 791.411 5.82572 -1.69396 0
M  V30 8736 H 790.15 4.7759 -0.987882 0
M  V30 8737 H 789.155 4.42312 -3.26559 0
M  V30 8738 H 790.38 5.50737 -3.97323 0
M  V30 8739 H 788.326 6.28801 -1.86938 0
M  V30 8740 H 788.243 6.67054 -3.55774 0
M  V30 8741 H 789.511 7.35403 -2.58461 0
M  V30 8742 N 793.74 1.17359 1.05189 0
M  V30 8743 C 794.965 0.98709 1.82404 0
M  V30 8744 C 795.39 -0.459848 1.82392 0
M  V30 8745 O 794.748 -1.32924 1.23292 0
M  V30 8746 C 794.796 1.53276 3.26403 0
M  V30 8747 O 793.9 0.746541 4.05587 0
M  V30 8748 H 793.241 0.35047 0.563974 0
M  V30 8749 H 795.771 1.55856 1.32552 0
M  V30 8750 H 795.781 1.55504 3.77203 0
M  V30 8751 H 794.456 2.58603 3.25726 0
M  V30 8752 H 793.033 0.795671 3.64312 0
M  V30 8753 N 795.218 -1.23913 0.973828 0
M  V30 8754 C 796.181 -2.23367 0.51378 0
M  V30 8755 C 797.181 -1.55923 -0.39302 0
M  V30 8756 O 798.371 -1.73187 -0.187626 0
M  V30 8757 C 795.503 -3.39944 -0.255152 0
M  V30 8758 H 796.696 -2.65581 1.39307 0
M  V30 8759 H 794.249 -1.36632 0.759039 0
M  V30 8760 H 794.984 -3.03177 -1.15127 0
M  V30 8761 H 794.769 -3.90098 0.395673 0
M  V30 8762 H 796.259 -4.13749 -0.565842 0
M  V30 8763 N 796.696 -0.74468 -1.38897 0
M  V30 8764 C 797.942 -0.297324 -2.00609 0
M  V30 8765 C 798.275 1.11547 -1.58968 0
M  V30 8766 O 797.55 1.76227 -0.823057 0
M  V30 8767 C 797.833 -0.410125 -3.57757 0
M  V30 8768 C 797.686 -1.86338 -4.09387 0
M  V30 8769 C 799.005 0.20176 -4.39637 0
M  V30 8770 H 796.124 -0.109509 -0.728819 0
M  V30 8771 H 798.766 -0.942653 -1.64967 0
M  V30 8772 H 796.916 0.139287 -3.8825 0
M  V30 8773 H 798.588 -2.47042 -3.89574 0
M  V30 8774 H 796.831 -2.38146 -3.62586 0
M  V30 8775 H 797.502 -1.89352 -5.18507 0
M  V30 8776 H 799.978 -0.266703 -4.15244 0
M  V30 8777 H 798.854 0.0925415 -5.48822 0
M  V30 8778 H 799.115 1.289 -4.22891 0
M  V30 8779 N 798.174 1.49689 -0.493057 0
M  V30 8780 C 799.106 2.26867 0.326195 0
M  V30 8781 C 800.119 1.33083 0.937697 0
M  V30 8782 O 801.308 1.58427 0.822382 0
M  V30 8783 C 798.408 3.0519 1.4735 0
M  V30 8784 C 797.581 4.26491 0.970767 0
M  V30 8785 C 796.64 4.86926 1.99473 0
M  V30 8786 O 795.666 5.47221 1.56647 0
M  V30 8787 N 796.868 4.75871 3.32456 0
M  V30 8788 H 799.633 2.97816 -0.335547 0
M  V30 8789 H 797.194 1.58602 -0.325129 0
M  V30 8790 H 799.186 3.42496 2.15589 0
M  V30 8791 H 797.756 2.369 2.03954 0
M  V30 8792 H 796.976 3.94036 0.113529 0
M  V30 8793 H 798.264 5.05092 0.613156 0
M  V30 8794 H 797.662 4.2797 3.69944 0
M  V30 8795 H 796.219 5.17383 3.96431 0
M  V30 8796 N 799.652 0.226554 1.55963 0
M  V30 8797 C 800.901 -0.40417 1.97609 0
M  V30 8798 C 801.214 -1.60541 1.1174 0
M  V30 8799 O 802.42 -2.30598 1.43307 0
M  V30 8800 C 800.876 -0.770466 3.51556 0
M  V30 8801 C 800.484 0.408244 4.46136 0
M  V30 8802 C 802.228 -1.36651 4.01904 0
M  V30 8803 C 800.135 0.0192347 5.91397 0
M  V30 8804 H 799.065 -0.15478 0.737943 0
M  V30 8805 H 801.716 0.323558 1.80625 0
M  V30 8806 H 800.098 -1.55575 3.6416 0
M  V30 8807 H 801.272 1.18575 4.45283 0
M  V30 8808 H 799.587 0.917859 4.06158 0
M  V30 8809 H 802.184 -1.67055 5.07934 0
M  V30 8810 H 802.527 -2.28403 3.48049 0
M  V30 8811 H 803.06 -0.644556 3.92543 0
M  V30 8812 H 799.799 0.90336 6.49245 0
M  V30 8813 H 799.319 -0.722485 5.95433 0
M  V30 8814 H 800.998 -0.405711 6.45727 0
M  V30 8815 N 801.13 -1.57531 -0.0467866 0
M  V30 8816 C 802.077 -2.05387 -1.05285 0
M  V30 8817 C 803.047 -0.939385 -1.36985 0
M  V30 8818 O 804.232 -1.20877 -1.47626 0
M  V30 8819 C 801.372 -2.52343 -2.35408 0
M  V30 8820 C 800.485 -3.77512 -2.10022 0
M  V30 8821 C 799.62 -4.1315 -3.33887 0
M  V30 8822 C 798.659 -5.31286 -3.03976 0
M  V30 8823 N 797.796 -5.62441 -4.20243 0
M  V30 8824 H 802.636 -2.91095 -0.637788 0
M  V30 8825 H 800.173 -1.43939 -0.303322 0
M  V30 8826 H 802.131 -2.77628 -3.11413 0
M  V30 8827 H 800.761 -1.69577 -2.7467 0
M  V30 8828 H 799.813 -3.59417 -1.24594 0
M  V30 8829 H 801.125 -4.63644 -1.83945 0
M  V30 8830 H 800.279 -4.39469 -4.18273 0
M  V30 8831 H 799.018 -3.25634 -3.63062 0
M  V30 8832 H 798.023 -5.04738 -2.17991 0
M  V30 8833 H 799.248 -6.20441 -2.76098 0
M  V30 8834 H 797.194 -4.77885 -4.49402 0
M  V30 8835 H 797.111 -6.43046 -3.97528 0
M  V30 8836 H 798.379 -5.93327 -5.05553 0
M  V30 8837 N 802.608 0.318715 -1.54344 0
M  V30 8838 C 804.024 0.663345 -1.45162 0
M  V30 8839 C 804.224 1.9145 -0.62842 0
M  V30 8840 O 803.28 2.5217 -0.129126 0
M  V30 8841 C 804.593 0.832836 -2.88937 0
M  V30 8842 C 806.141 0.929866 -2.98869 0
M  V30 8843 C 806.616 1.13149 -4.43803 0
M  V30 8844 N 808.107 1.19811 -4.47437 0
M  V30 8845 C 808.842 1.37209 -5.56742 0
M  V30 8846 N 808.338 1.51619 -6.76006 0
M  V30 8847 N 810.131 1.39956 -5.44398 0
M  V30 8848 H 802.282 -0.50357 -2.06344 0
M  V30 8849 H 804.545 -0.163528 -0.933789 0
M  V30 8850 H 804.251 -0.0153519 -3.51697 0
M  V30 8851 H 804.125 1.72721 -3.35332 0
M  V30 8852 H 806.512 1.76855 -2.36233 0
M  V30 8853 H 806.593 0.0118561 -2.55797 0
M  V30 8854 H 806.237 0.297636 -5.07027 0
M  V30 8855 H 806.167 2.06345 -4.84489 0
M  V30 8856 H 808.658 1.101 -3.61506 0
M  V30 8857 H 808.971 1.64599 -7.55067 0
M  V30 8858 H 807.316 1.48708 -6.78904 0
M  V30 8859 H 810.507 1.28298 -4.50175 0
M  V30 8860 H 810.68 1.53172 -6.29637 0
M  V30 8861 N 804.086 1.46499 0.581025 0
M  V30 8862 C 804.996 1.59778 1.71779 0
M  V30 8863 C 806.012 0.481223 1.67213 0
M  V30 8864 O 807.188 0.74557 1.87091 0
M  V30 8865 C 804.253 1.58626 3.08283 0
M  V30 8866 C 803.314 2.81527 3.241 0
M  V30 8867 C 802.547 2.80421 4.54092 0
M  V30 8868 O 802.77 1.89262 5.38085 0
M  V30 8869 O 801.704 3.71984 4.73193 0
M  V30 8870 H 805.53 2.55918 1.63523 0
M  V30 8871 H 803.115 1.29311 0.748267 0
M  V30 8872 H 804.997 1.60686 3.89561 0
M  V30 8873 H 803.672 0.656467 3.16973 0
M  V30 8874 H 802.579 2.85021 2.42309 0
M  V30 8875 H 803.912 3.73721 3.20302 0
M  V30 8876 N 805.565 -0.825799 1.34232 0
M  V30 8877 C 806.495 -1.95151 1.28212 0
M  V30 8878 C 807.476 -1.69345 0.160123 0
M  V30 8879 O 808.661 -1.90983 0.352019 0
M  V30 8880 C 805.791 -3.31554 1.03388 0
M  V30 8881 C 804.745 -3.71793 2.12023 0
M  V30 8882 C 804.071 -5.06147 1.72392 0
M  V30 8883 C 805.371 -3.84193 3.53826 0
M  V30 8884 H 807.065 -2.00445 2.22401 0
M  V30 8885 H 804.611 -0.962996 1.07063 0
M  V30 8886 H 806.564 -4.09889 0.978225 0
M  V30 8887 H 805.288 -3.26551 0.0564142 0
M  V30 8888 H 803.947 -2.95731 2.16654 0
M  V30 8889 H 803.595 -4.97628 0.733137 0
M  V30 8890 H 803.295 -5.34041 2.451 0
M  V30 8891 H 804.819 -5.86943 1.68317 0
M  V30 8892 H 806.233 -4.52806 3.51624 0
M  V30 8893 H 804.63 -4.23538 4.2513 0
M  V30 8894 H 805.7 -2.86272 3.91377 0
M  V30 8895 N 807.043 -1.17915 -1.04565 0
M  V30 8896 C 807.991 -0.897919 -2.1457 0
M  V30 8897 C 808.985 0.139883 -1.68821 0
M  V30 8898 O 810.191 -0.00779463 -1.79998 0
M  V30 8899 H 806.566 -0.272867 -0.700748 0
M  V30 8900 H 808.537 -1.83268 -2.3549 0
M  V30 8901 C 807.286 -0.434634 -3.44973 0
M  V30 8902 H 806.609 -1.22469 -3.8058 0
M  V30 8903 H 808.049 -0.276804 -4.23095 0
M  V30 8904 C 806.508 0.848738 -3.26034 0
M  V30 8905 O 807.038 1.9141 -3.53164 0
M  V30 8906 N 805.244 0.799373 -2.79389 0
M  V30 8907 H 804.791 -0.0678192 -2.57511 0
M  V30 8908 H 804.749 1.6585 -2.67098 0
M  V30 8909 N 808.521 1.23394 -0.980386 0
M  V30 8910 C 809.471 2.22634 -0.491747 0
M  V30 8911 C 810.455 1.54958 0.433222 0
M  V30 8912 O 811.647 1.75049 0.262078 0
M  V30 8913 C 808.776 3.4269 0.204531 0
M  V30 8914 C 807.862 4.17594 -0.740007 0
M  V30 8915 N 808.253 4.69458 -1.88263 0
M  V30 8916 C 806.551 4.42554 -0.553335 0
M  V30 8917 C 807.252 5.26446 -2.47446 0
M  V30 8918 N 806.228 5.14377 -1.75834 0
M  V30 8919 H 810.03 2.60363 -1.36339 0
M  V30 8920 H 807.544 1.38924 -0.841059 0
M  V30 8921 H 809.541 4.12959 0.571901 0
M  V30 8922 H 808.201 3.06477 1.07246 0
M  V30 8923 H 809.212 4.65803 -2.26381 0
M  V30 8924 H 805.889 4.16629 0.269573 0
M  V30 8925 H 807.279 5.77195 -3.43941 0
M  V30 8926 N 809.999 0.752036 1.385 0
M  V30 8927 C 810.929 0.138718 2.33088 0
M  V30 8928 C 811.91 -0.705318 1.54788 0
M  V30 8929 O 813.095 -0.646821 1.83112 0
M  V30 8930 C 810.225 -0.75641 3.38963 0
M  V30 8931 C 809.179 -0.0152239 4.27997 0
M  V30 8932 C 808.505 -1.0285 5.24715 0
M  V30 8933 C 809.805 1.15226 5.09431 0
M  V30 8934 H 811.499 0.928852 2.84627 0
M  V30 8935 H 809.045 0.448111 1.3685 0
M  V30 8936 H 810.998 -1.19513 4.04097 0
M  V30 8937 H 809.722 -1.57885 2.85902 0
M  V30 8938 H 808.381 0.404061 3.64366 0
M  V30 8939 H 808.029 -1.84496 4.67943 0
M  V30 8940 H 807.729 -0.537238 5.85139 0
M  V30 8941 H 809.253 -1.46657 5.92726 0
M  V30 8942 H 810.667 0.791161 5.67815 0
M  V30 8943 H 809.064 1.57428 5.79082 0
M  V30 8944 H 810.134 1.9659 4.43261 0
M  V30 8945 N 811.477 -1.49425 0.500989 0
M  V30 8946 C 812.407 -2.31971 -0.266775 0
M  V30 8947 C 813.388 -1.40245 -0.962563 0
M  V30 8948 O 814.573 -1.69154 -0.953968 0
M  V30 8949 C 811.703 -3.20757 -1.33163 0
M  V30 8950 C 810.657 -4.21275 -0.75572 0
M  V30 8951 C 809.983 -4.98997 -1.92109 0
M  V30 8952 C 811.283 -5.21686 0.253213 0
M  V30 8953 H 812.977 -2.96408 0.422237 0
M  V30 8954 H 810.523 -1.4254 0.204505 0
M  V30 8955 H 812.476 -3.77315 -1.87646 0
M  V30 8956 H 811.2 -2.54263 -2.04983 0
M  V30 8957 H 809.859 -3.65861 -0.232637 0
M  V30 8958 H 809.507 -4.28951 -2.62698 0
M  V30 8959 H 809.207 -5.67011 -1.54182 0
M  V30 8960 H 810.731 -5.584 -2.47026 0
M  V30 8961 H 812.145 -5.72939 -0.203483 0
M  V30 8962 H 810.542 -5.9759 0.548322 0
M  V30 8963 H 811.612 -4.70596 1.16909 0
M  V30 8964 N 812.955 -0.234822 -1.55841 0
M  V30 8965 C 814.185 0.397168 -2.02746 0
M  V30 8966 C 814.593 1.52951 -1.11367 0
M  V30 8967 O 813.936 1.8332 -0.118133 0
M  V30 8968 C 813.998 0.977748 -3.45948 0
M  V30 8969 C 813.662 -0.0208193 -4.56995 0
M  V30 8970 C 814.659 -0.826015 -5.13296 0
M  V30 8971 C 812.344 -0.143416 -5.02095 0
M  V30 8972 C 814.338 -1.74038 -6.1318 0
M  V30 8973 C 812.025 -1.0613 -6.01814 0
M  V30 8974 C 813.023 -1.85832 -6.57233 0
M  V30 8975 O 812.711 -2.76075 -7.55008 0
M  V30 8976 H 812.443 0.0999802 -0.668566 0
M  V30 8977 H 814.997 -0.352673 -2.0235 0
M  V30 8978 H 813.227 1.77693 -3.43456 0
M  V30 8979 H 814.916 1.51854 -3.76424 0
M  V30 8980 H 815.682 -0.741822 -4.79293 0
M  V30 8981 H 811.561 0.466857 -4.5863 0
M  V30 8982 H 815.105 -2.36291 -6.56363 0
M  V30 8983 H 811.002 -1.14646 -6.35237 0
M  V30 8984 H 811.77 -2.703 -7.7258 0
M  V30 8985 N 814.433 1.57553 0.0384317 0
M  V30 8986 C 815.365 2.02726 1.06934 0
M  V30 8987 C 816.378 0.938502 1.33026 0
M  V30 8988 O 817.567 1.21595 1.30678 0
M  V30 8989 C 814.667 2.37958 2.41308 0
M  V30 8990 C 813.84 3.69098 2.34703 0
M  V30 8991 C 812.899 3.91623 3.51451 0
M  V30 8992 O 811.925 4.628 3.31368 0
M  V30 8993 N 813.127 3.36538 4.72993 0
M  V30 8994 H 815.892 2.91781 0.684381 0
M  V30 8995 H 813.453 1.60307 0.226542 0
M  V30 8996 H 815.445 2.50172 3.18113 0
M  V30 8997 H 814.015 1.54621 2.71682 0
M  V30 8998 H 813.235 3.67325 1.43059 0
M  V30 8999 H 814.523 4.55144 2.27424 0
M  V30 9000 H 813.921 2.78828 4.92211 0
M  V30 9001 H 812.478 3.54148 5.47195 0
M  V30 9002 N 815.911 -0.310526 1.54511 0
M  V30 9003 C 817.327 -0.655637 1.45511 0
M  V30 9004 C 817.527 -1.91114 0.638564 0
M  V30 9005 O 816.583 -2.52098 0.142497 0
M  V30 9006 C 817.896 -0.817501 2.89374 0
M  V30 9007 C 819.444 -0.914003 2.99358 0
M  V30 9008 C 819.919 -1.10794 4.44397 0
M  V30 9009 N 821.41 -1.17437 4.48066 0
M  V30 9010 C 822.145 -1.34255 5.57461 0
M  V30 9011 N 821.641 -1.48032 6.768 0
M  V30 9012 N 823.434 -1.37067 5.45132 0
M  V30 9013 H 815.585 0.514506 2.06074 0
M  V30 9014 H 817.848 0.168478 0.932909 0
M  V30 9015 H 817.554 0.034003 3.51684 0
M  V30 9016 H 817.428 -1.7094 3.36243 0
M  V30 9017 H 819.815 -1.756 2.37168 0
M  V30 9018 H 819.896 0.00170958 2.558 0
M  V30 9019 H 819.54 -0.270743 5.07178 0
M  V30 9020 H 819.47 -2.03773 4.85576 0
M  V30 9021 H 821.961 -1.08181 3.62084 0
M  V30 9022 H 822.274 -1.60593 7.5593 0
M  V30 9023 H 820.619 -1.45105 6.79683 0
M  V30 9024 H 823.81 -1.25909 4.50849 0
M  V30 9025 H 823.983 -1.49831 6.3044 0
M  V30 9026 N 817.389 -1.46805 -0.573248 0
M  V30 9027 C 818.637 -1.52302 -1.32847 0
M  V30 9028 C 818.958 -0.180159 -1.94166 0
M  V30 9029 O 818.228 0.794291 -1.79075 0
M  V30 9030 H 816.808 -0.56097 -0.493276 0
M  V30 9031 H 819.47 -1.82998 -0.670642 0
M  V30 9032 H 818.566 -2.28089 -2.13031 0
M  V30 9033 N 818.867 0.818669 -1.34668 0
M  V30 9034 C 820.097 1.60441 -1.30162 0
M  V30 9035 C 820.505 1.88783 0.125579 0
M  V30 9036 O 819.848 1.48281 1.08437 0
M  V30 9037 C 819.91 2.96794 -2.02864 0
M  V30 9038 C 819.574 2.91327 -3.52105 0
M  V30 9039 C 820.571 2.65611 -4.4693 0
M  V30 9040 C 818.256 3.10825 -3.9458 0
M  V30 9041 C 820.25 2.59452 -5.82206 0
M  V30 9042 C 817.937 3.0429 -5.29954 0
M  V30 9043 C 818.935 2.78637 -6.23579 0
M  V30 9044 O 818.623 2.72042 -7.56471 0
M  V30 9045 H 818.355 0.505278 -0.449077 0
M  V30 9046 H 820.909 1.02632 -1.77921 0
M  V30 9047 H 819.139 3.56538 -1.49725 0
M  V30 9048 H 820.828 3.57837 -1.91592 0
M  V30 9049 H 821.594 2.50278 -4.15434 0
M  V30 9050 H 817.473 3.29807 -3.221 0
M  V30 9051 H 821.017 2.39349 -6.55254 0
M  V30 9052 H 816.914 3.19177 -5.61067 0
M  V30 9053 H 817.682 2.87738 -7.66257 0
M  V30 9054 N 820.346 1.18468 1.03938 0
M  V30 9055 C 821.576 1.0043 1.80547 0
M  V30 9056 C 821.984 -0.450407 1.83761 0
M  V30 9057 O 821.327 -1.32463 1.27276 0
M  V30 9058 C 821.389 1.48437 3.27424 0
M  V30 9059 C 821.053 2.96372 3.47869 0
M  V30 9060 C 822.05 3.94217 3.38953 0
M  V30 9061 C 819.735 3.34831 3.74424 0
M  V30 9062 C 821.729 5.28517 3.56298 0
M  V30 9063 C 819.416 4.69294 3.91416 0
M  V30 9064 C 820.414 5.65946 3.82354 0
M  V30 9065 O 820.102 6.97974 3.98858 0
M  V30 9066 H 819.834 0.354853 0.575374 0
M  V30 9067 H 822.388 1.57473 1.31876 0
M  V30 9068 H 820.618 0.857601 3.7707 0
M  V30 9069 H 822.307 1.2677 3.85596 0
M  V30 9070 H 823.073 3.6585 3.184 0
M  V30 9071 H 818.952 2.60161 3.80575 0
M  V30 9072 H 822.496 6.03943 3.49141 0
M  V30 9073 H 818.393 4.97361 4.11463 0
M  V30 9074 H 819.161 7.04895 4.1601 0
M  V30 9075 N 821.824 -1.22873 0.986916 0
M  V30 9076 C 822.772 -2.26597 0.525043 0
M  V30 9077 C 823.766 -1.64079 -0.421252 0
M  V30 9078 O 824.972 -1.77576 -0.294429 0
M  V30 9079 H 821.347 -0.736606 0.151381 0
M  V30 9080 H 823.318 -2.62909 1.41142 0
M  V30 9081 C 822.067 -3.47374 -0.150542 0
M  V30 9082 H 821.39 -3.95737 0.568541 0
M  V30 9083 H 822.83 -4.21739 -0.437256 0
M  V30 9084 C 821.289 -3.07163 -1.38392 0
M  V30 9085 O 821.819 -3.16028 -2.47971 0
M  V30 9086 N 820.025 -2.62009 -1.25697 0
M  V30 9087 H 819.572 -2.54996 -0.365355 0
M  V30 9088 H 819.53 -2.35472 -2.08327 0
M  V30 9089 N 823.302 -0.75937 -1.38099 0
M  V30 9090 C 824.232 -0.151077 -2.33011 0
M  V30 9091 C 825.213 0.697099 -1.5516 0
M  V30 9092 O 826.398 0.637101 -1.83452 0
M  V30 9093 C 823.528 0.738423 -3.39359 0
M  V30 9094 C 822.482 -0.0074741 -4.27999 0
M  V30 9095 C 821.808 1.00066 -5.25253 0
M  V30 9096 C 823.108 -1.17926 -5.08813 0
M  V30 9097 H 824.802 -0.943933 -2.84131 0
M  V30 9098 H 822.348 -0.455362 -1.36611 0
M  V30 9099 H 824.301 1.17369 -4.04725 0
M  V30 9100 H 823.025 1.56366 -2.86735 0
M  V30 9101 H 821.684 -0.423379 -3.64147 0
M  V30 9102 H 821.332 1.82012 -4.68914 0
M  V30 9103 H 821.032 0.506199 -5.85416 0
M  V30 9104 H 822.556 1.43512 -5.93495 0
M  V30 9105 H 823.97 -0.821262 -5.67387 0
M  V30 9106 H 822.367 -1.60497 -5.78239 0
M  V30 9107 H 823.437 -1.98938 -4.42212 0
M  V30 9108 N 824.78 1.49157 -0.508906 0
M  V30 9109 C 825.727 2.2927 0.265288 0
M  V30 9110 C 826.697 1.3603 0.953162 0
M  V30 9111 O 827.882 1.64989 0.958291 0
M  V30 9112 C 825.022 3.18897 1.31904 0
M  V30 9113 C 824.135 4.27201 0.642144 0
M  V30 9114 C 823.27 5.04033 1.67701 0
M  V30 9115 C 822.309 6.04165 0.982422 0
M  V30 9116 N 821.446 6.74133 1.96186 0
M  V30 9117 H 826.286 2.94967 -0.424107 0
M  V30 9118 H 823.823 1.45431 -0.220991 0
M  V30 9119 H 825.781 3.69242 1.94206 0
M  V30 9120 H 824.411 2.55168 1.97709 0
M  V30 9121 H 823.463 3.80283 -0.0943395 0
M  V30 9122 H 824.775 4.98708 0.0957507 0
M  V30 9123 H 823.929 5.58287 2.37487 0
M  V30 9124 H 822.668 4.32317 2.25728 0
M  V30 9125 H 821.673 5.49135 0.270378 0
M  V30 9126 H 822.898 6.7787 0.408554 0
M  V30 9127 H 820.844 6.05183 2.53159 0
M  V30 9128 H 820.761 7.41643 1.46634 0
M  V30 9129 H 822.029 7.32987 2.65236 0
M  V30 9130 N 826.258 0.243083 1.55714 0
M  V30 9131 C 827.168 -0.668913 2.24862 0
M  V30 9132 C 828.184 -1.19638 1.26344 0
M  V30 9133 O 829.36 -1.23345 1.5921 0
M  V30 9134 C 826.425 -1.85084 2.93163 0
M  V30 9135 C 825.486 -1.36323 4.07081 0
M  V30 9136 C 824.719 -2.48882 4.72116 0
M  V30 9137 O 824.942 -3.67523 4.36214 0
M  V30 9138 O 823.876 -2.18857 5.60701 0
M  V30 9139 H 827.702 -0.109737 3.03502 0
M  V30 9140 H 825.287 0.0117411 1.49395 0
M  V30 9141 H 827.169 -2.54065 3.36197 0
M  V30 9142 H 825.844 -2.39771 2.17466 0
M  V30 9143 H 824.751 -0.640804 3.68571 0
M  V30 9144 H 826.084 -0.86249 4.84584 0
M  V30 9145 N 827.736 -1.57571 -0.0300757 0
M  V30 9146 C 828.699 -2.05468 -1.01565 0
M  V30 9147 C 829.699 -0.958628 -1.29101 0
M  V30 9148 O 830.889 -1.22228 -1.24121 0
M  V30 9149 C 828.021 -2.47077 -2.34874 0
M  V30 9150 H 829.214 -2.93797 -0.601936 0
M  V30 9151 H 826.767 -1.53828 -0.276878 0
M  V30 9152 H 827.502 -1.61901 -2.80996 0
M  V30 9153 H 827.287 -3.27097 -2.16218 0
M  V30 9154 H 828.777 -2.84564 -3.05635 0
M  V30 9155 N 829.214 0.302327 -1.54673 0
M  V30 9156 C 830.463 1.03533 -1.73101 0
M  V30 9157 C 830.776 1.88473 -0.523174 0
M  V30 9158 O 831.982 2.65029 -0.589229 0
M  V30 9159 C 830.438 1.89043 -3.06252 0
M  V30 9160 C 830.046 1.09112 -4.3451 0
M  V30 9161 C 831.79 2.61951 -3.34039 0
M  V30 9162 C 829.697 1.93891 -5.58713 0
M  V30 9163 H 828.627 0.390261 -0.645145 0
M  V30 9164 H 831.278 0.2924 -1.81155 0
M  V30 9165 H 829.66 2.67319 -2.92159 0
M  V30 9166 H 830.834 0.354596 -4.59434 0
M  V30 9167 H 829.149 0.477923 -4.13648 0
M  V30 9168 H 831.746 3.25729 -4.24033 0
M  V30 9169 H 832.089 3.30711 -2.52855 0
M  V30 9170 H 832.622 1.90725 -3.49097 0
M  V30 9171 H 829.361 1.29604 -6.4256 0
M  V30 9172 H 828.881 2.6522 -5.37976 0
M  V30 9173 H 830.56 2.51971 -5.95919 0
M  V30 9174 N 830.692 1.47107 0.565454 0
M  V30 9175 C 831.94 1.53005 1.32038 0
M  V30 9176 C 832.261 0.190453 1.94068 0
M  V30 9177 O 831.531 -0.784783 1.79494 0
M  V30 9178 H 830.111 0.563578 0.490294 0
M  V30 9179 H 832.773 1.83351 0.660928 0
M  V30 9180 H 831.869 2.29215 2.11818 0
M  V30 9181 N 832.17 -0.811516 1.35101 0
M  V30 9182 C 833.586 -1.10634 1.15031 0
M  V30 9183 C 833.786 -2.01459 -0.0405379 0
M  V30 9184 O 832.842 -2.42235 -0.712635 0
M  V30 9185 C 834.155 -1.74207 2.45097 0
M  V30 9186 C 835.703 -1.8665 2.51258 0
M  V30 9187 C 836.178 -2.53638 3.81355 0
M  V30 9188 N 837.669 -2.61128 3.82579 0
M  V30 9189 C 838.404 -3.13717 4.79968 0
M  V30 9190 N 837.9 -3.66782 5.87744 0
M  V30 9191 N 839.693 -3.12224 4.67411 0
M  V30 9192 H 831.844 -0.207641 2.11383 0
M  V30 9193 H 834.107 -0.154697 0.935293 0
M  V30 9194 H 833.813 -1.14936 3.32389 0
M  V30 9195 H 833.687 -2.73958 2.59281 0
M  V30 9196 H 836.074 -2.45066 1.64398 0
M  V30 9197 H 836.155 -0.857678 2.40993 0
M  V30 9198 H 835.799 -1.95873 4.68611 0
M  V30 9199 H 835.729 -3.55047 3.88907 0
M  V30 9200 H 838.22 -2.23527 3.04703 0
M  V30 9201 H 838.533 -4.05194 6.58056 0
M  V30 9202 H 836.878 -3.64994 5.91443 0
M  V30 9203 H 840.069 -2.70042 3.82354 0
M  V30 9204 H 840.242 -3.52903 5.43474 0
M  V30 9205 N 833.648 -1.19017 -1.03309 0
M  V30 9206 C 834.595 -0.924088 -2.11493 0
M  V30 9207 C 835.565 0.139464 -1.65513 0
M  V30 9208 O 836.75 -0.00178761 -1.908 0
M  V30 9209 C 833.89 -0.464255 -3.41963 0
M  V30 9210 C 833.003 -1.5941 -4.01513 0
M  V30 9211 C 832.138 -1.08622 -5.19976 0
M  V30 9212 C 831.177 -2.19024 -5.71572 0
M  V30 9213 N 830.314 -1.69575 -6.81314 0
M  V30 9214 H 835.154 -1.85039 -2.33591 0
M  V30 9215 H 832.691 -0.922593 -1.14572 0
M  V30 9216 H 834.649 -0.179078 -4.16815 0
M  V30 9217 H 833.279 0.425062 -3.19989 0
M  V30 9218 H 832.331 -1.99458 -3.23915 0
M  V30 9219 H 833.643 -2.42604 -4.35826 0
M  V30 9220 H 832.797 -0.756022 -6.01971 0
M  V30 9221 H 831.536 -0.223955 -4.87186 0
M  V30 9222 H 830.541 -2.5288 -4.88193 0
M  V30 9223 H 831.766 -3.05699 -6.06403 0
M  V30 9224 H 829.712 -0.856494 -6.50385 0
M  V30 9225 H 829.629 -2.46361 -7.14732 0
M  V30 9226 H 830.897 -1.39505 -7.66915 0
M  V30 9227 N 835.127 1.22348 -0.993418 0
M  V30 9228 C 836.077 2.221 -0.515333 0
M  V30 9229 C 837.061 1.55409 0.416762 0
M  V30 9230 O 838.253 1.75317 0.243497 0
M  V30 9231 C 835.382 3.42888 0.168173 0
M  V30 9232 C 834.468 4.16786 -0.784257 0
M  V30 9233 N 834.859 4.67435 -1.93231 0
M  V30 9234 C 833.157 4.41942 -0.600243 0
M  V30 9235 C 833.858 5.23792 -2.53016 0
M  V30 9236 N 832.834 5.12483 -1.8128 0
M  V30 9237 H 836.636 2.58902 -1.39093 0
M  V30 9238 H 834.15 1.38024 -0.855747 0
M  V30 9239 H 836.147 4.13542 0.528069 0
M  V30 9240 H 834.807 3.07598 1.03989 0
M  V30 9241 H 835.818 4.63375 -2.31309 0
M  V30 9242 H 832.495 4.16891 0.225369 0
M  V30 9243 H 833.885 5.73515 -3.50043 0
M  V30 9244 N 836.605 0.766683 1.37694 0
M  V30 9245 C 837.83 0.338715 2.04615 0
M  V30 9246 C 838.255 -1.02918 1.57447 0
M  V30 9247 O 837.613 -1.65849 0.732386 0
M  V30 9248 C 837.661 0.385284 3.58536 0
M  V30 9249 O 836.765 -0.616081 4.07772 0
M  V30 9250 H 836.106 0.147527 0.647404 0
M  V30 9251 H 838.636 1.04146 1.7611 0
M  V30 9252 H 838.646 0.240782 4.07289 0
M  V30 9253 H 837.321 1.38325 3.92223 0
M  V30 9254 H 835.898 -0.435115 3.70353 0
M  V30 9255 N 838.083 -1.48885 0.516809 0
M  V30 9256 C 839.03 -2.29408 -0.253125 0
M  V30 9257 C 840 -1.36533 -0.945935 0
M  V30 9258 O 841.185 -1.65495 -0.949527 0
M  V30 9259 C 838.325 -3.19592 -1.30211 0
M  V30 9260 C 837.438 -4.27535 -0.61948 0
M  V30 9261 C 836.573 -5.04916 -1.65026 0
M  V30 9262 C 835.612 -6.04677 -0.950368 0
M  V30 9263 N 834.749 -6.75164 -1.92608 0
M  V30 9264 H 839.589 -2.94738 0.439744 0
M  V30 9265 H 837.126 -1.45311 0.2287 0
M  V30 9266 H 839.084 -3.70267 -1.92245 0
M  V30 9267 H 837.714 -2.56213 -1.96353 0
M  V30 9268 H 836.766 -3.80228 0.114505 0
M  V30 9269 H 838.078 -4.98752 -0.0693016 0
M  V30 9270 H 837.232 -5.59539 -2.34523 0
M  V30 9271 H 835.971 -4.33508 -2.23432 0
M  V30 9272 H 834.976 -5.4927 -0.241252 0
M  V30 9273 H 836.201 -6.78077 -0.372599 0
M  V30 9274 H 834.147 -6.06517 -2.49946 0
M  V30 9275 H 834.064 -7.4241 -1.42699 0
M  V30 9276 H 835.332 -7.34384 -2.61345 0
M  V30 9277 N 839.561 -0.251338 -1.55583 0
M  V30 9278 C 840.786 0.379136 -2.03905 0
M  V30 9279 C 841.211 1.50428 -1.12929 0
M  V30 9280 O 840.569 1.80882 -0.123114 0
M  V30 9281 C 840.617 0.86009 -3.50193 0
M  V30 9282 O 839.721 1.96932 -3.62342 0
M  V30 9283 H 839.062 0.0820183 -0.658915 0
M  V30 9284 H 841.592 -0.378692 -2.01065 0
M  V30 9285 H 841.602 1.16214 -3.91099 0
M  V30 9286 H 840.277 0.0367559 -4.15884 0
M  V30 9287 H 838.854 1.67163 -3.33333 0
M  V30 9288 O 841.078 1.61082 -0.116113 0
M  V30 9289 H 841.769 1.8758 0.483052 0
M  V30 END ATOM
M  V30 BEGIN BOND
M  V30 END BOND
M  V30 END CTAB
M  END
$$$$
