drugbank_target|Q08288 Cell growth-regulating nucleolar protein (DB09130)
 OpenBabel12092121053D

  0  0  0     0  0            999 V3000
M  V30 BEGIN CTAB
M  V30 COUNTS 6174 6228 0 0 0
M  V30 BEGIN ATOM
M  V30 1 H -0.908 1.98254 -0.117106 0
M  V30 2 N 0 1.576 0 0
M  V30 3 C 0.933 2.03868 1.02534 0
M  V30 4 C 1.911 0.928543 1.3348 0
M  V30 5 O 3.095 1.19667 1.45644 0
M  V30 6 C 0.222 2.43627 2.35294 0
M  V30 7 C -0.732 3.65373 2.2001 0
M  V30 8 S 0.101 5.13292 1.52614 0
M  V30 9 C 1.257 5.56322 2.86805 0
M  V30 10 H 1.49 2.90518 0.631377 0
M  V30 11 H -0.977 1.52953 0.210867 0
M  V30 12 H 0.981 2.67203 3.11629 0
M  V30 13 H -0.358 1.57376 2.7183 0
M  V30 14 H -1.165 3.90944 3.18086 0
M  V30 15 H -1.563 3.418 1.51819 0
M  V30 16 H 0.729 5.58782 3.83104 0
M  V30 17 H 1.672 6.56266 2.65933 0
M  V30 18 H 2.08 4.83886 2.90714 0
M  V30 19 N 1.4781 -0.272755 1.55222 0
M  V30 20 C 2.7241 -1.00581 1.761 0
M  V30 21 C 3.0571 -1.85932 0.560625 0
M  V30 22 O 2.3321 -1.89416 -0.441801 0
M  V30 23 C 2.6151 -1.88816 3.06628 0
M  V30 24 C 2.4681 -1.06457 4.37021 0
M  V30 25 C 3.7871 -2.8752 3.33197 0
M  V30 26 H 0.9061 -0.364244 0.640699 0
M  V30 27 H 3.5481 -0.278189 1.87952 0
M  V30 28 H 1.6981 -2.50856 2.96654 0
M  V30 29 H 3.3701 -0.464863 4.58952 0
M  V30 30 H 1.6131 -0.368043 4.32236 0
M  V30 31 H 2.2841 -1.71514 5.24678 0
M  V30 32 H 4.7601 -2.35615 3.42965 0
M  V30 33 H 3.6361 -3.46399 4.25792 0
M  V30 34 H 3.8971 -3.62657 2.52849 0
M  V30 35 N 2.9562 -1.48159 -0.537278 0
M  V30 36 C 4.2032 -1.55804 -1.29349 0
M  V30 37 C 4.5312 -0.228802 -1.9315 0
M  V30 38 O 3.7862 0.780242 -1.79473 0
M  V30 39 C 4.0852 -2.63956 -2.40961 0
M  V30 40 C 3.7512 -4.0662 -1.94861 0
M  V30 41 C 2.4132 -4.45452 -1.82006 0
M  V30 42 C 4.7652 -4.96055 -1.59933 0
M  V30 43 C 2.0932 -5.71531 -1.32547 0
M  V30 44 C 4.4452 -6.22617 -1.11939 0
M  V30 45 C 3.1092 -6.60312 -0.976951 0
M  V30 46 H 2.3792 -0.570129 -0.473322 0
M  V30 47 H 5.0262 -1.81845 -0.600372 0
M  V30 48 H 3.3312 -2.31747 -3.15912 0
M  V30 49 H 5.0282 -2.67089 -2.99107 0
M  V30 50 H 1.6182 -3.75949 -2.05815 0
M  V30 51 H 5.8022 -4.66738 -1.68728 0
M  V30 52 H 1.0582 -5.99468 -1.202 0
M  V30 53 H 5.2322 -6.91318 -0.839811 0
M  V30 54 H 2.8592 -7.57895 -0.591501 0
M  V30 55 N 4.4343 0.785586 -1.36625 0
M  V30 56 C 5.6813 1.54362 -1.31067 0
M  V30 57 C 6.0093 1.94195 0.10893 0
M  V30 58 O 5.2643 1.63262 1.07908 0
M  V30 59 C 5.5633 2.83007 -2.1827 0
M  V30 60 C 5.2293 2.62294 -3.6676 0
M  V30 61 C 3.8913 2.56353 -4.0723 0
M  V30 62 C 6.2433 2.43371 -4.6089 0
M  V30 63 C 3.5713 2.29461 -5.39967 0
M  V30 64 C 5.9233 2.18005 -5.93849 0
M  V30 65 C 4.5873 2.105 -6.3344 0
M  V30 66 H 3.8573 0.564851 -0.479609 0
M  V30 67 H 6.5043 0.906028 -1.68711 0
M  V30 68 H 4.8093 3.51253 -1.73576 0
M  V30 69 H 6.5063 3.40817 -2.11292 0
M  V30 70 H 3.0963 2.67774 -3.34656 0
M  V30 71 H 7.2803 2.46959 -4.30494 0
M  V30 72 H 2.5363 2.22135 -5.69619 0
M  V30 73 H 6.7103 2.02359 -6.66351 0
M  V30 74 H 4.3373 1.89425 -7.36222 0
M  V30 75 N 5.9124 1.20967 1.01018 0
M  V30 76 C 7.1404 1.04956 1.78303 0
M  V30 77 C 7.5554 -0.400915 1.84494 0
M  V30 78 O 6.9124 -1.27826 1.30257 0
M  V30 79 C 6.9634 1.63403 3.22462 0
M  V30 80 O 6.6844 3.02775 3.16637 0
M  V30 81 C 8.1854 1.52432 4.16268 0
M  V30 82 H 5.4054 0.368858 0.560522 0
M  V30 83 H 7.9494 1.60193 1.27116 0
M  V30 84 H 6.1044 1.1227 3.70775 0
M  V30 85 H 6.5184 3.30626 4.07169 0
M  V30 86 H 7.9924 1.98078 5.15237 0
M  V30 87 H 8.4694 0.477875 4.36592 0
M  V30 88 H 9.0754 2.02787 3.73841 0
M  V30 89 N 7.3905 -1.2043 1.01659 0
M  V30 90 C 8.6305 -1.91507 0.714456 0
M  V30 91 C 8.9945 -1.77073 -0.742237 0
M  V30 92 O 10.1955 -2.42631 -1.15688 0
M  V30 93 C 8.4665 -3.38795 1.13809 0
M  V30 94 S 10.0255 -4.28216 0.957925 0
M  V30 95 H 6.8435 -0.661571 0.260471 0
M  V30 96 H 9.4455 -1.45671 1.30384 0
M  V30 97 H 8.1495 -3.46822 2.19415 0
M  V30 98 H 7.6805 -3.89656 0.541474 0
M  V30 99 H 9.6955 -4.96007 -0.138531 0
M  V30 100 N 8.8686 -0.792821 -1.36206 0
M  V30 101 C 9.8166 -0.181555 -2.3189 0
M  V30 102 C 10.8106 0.661025 -1.55971 0
M  V30 103 O 12.0166 0.555728 -1.71206 0
M  V30 104 H 8.3916 -0.0399382 -0.750939 0
M  V30 105 H 10.3626 -1.00394 -2.81005 0
M  V30 106 C 9.1116 0.666444 -3.41253 0
M  V30 107 H 8.4346 0.0274489 -3.99791 0
M  V30 108 H 9.8746 1.06076 -4.10517 0
M  V30 109 C 8.3336 1.82614 -2.83114 0
M  V30 110 O 8.8636 2.9229 -2.75553 0
M  V30 111 N 7.0696 1.63333 -2.40356 0
M  V30 112 H 6.6166 0.741217 -2.46706 0
M  V30 113 H 6.5746 2.41087 -2.01803 0
M  V30 114 N 10.3467 1.47872 -0.545128 0
M  V30 115 C 11.3097 2.28337 0.198717 0
M  V30 116 C 12.3097 1.36255 0.853888 0
M  V30 117 O 13.4997 1.59003 0.711606 0
M  V30 118 C 10.6317 3.15585 1.28915 0
M  V30 119 H 11.8247 2.95567 -0.507941 0
M  V30 120 H 9.3777 1.53362 -0.301616 0
M  V30 121 H 10.1127 2.53019 2.02859 0
M  V30 122 H 9.8977 3.83337 0.824309 0
M  V30 123 H 11.3877 3.76243 1.81194 0
M  V30 124 N 11.8248 0.280983 1.55075 0
M  V30 125 C 13.0648 -0.335234 2.01632 0
M  V30 126 C 13.4288 -1.5261 1.16508 0
M  V30 127 O 14.6298 -2.21235 1.52672 0
M  V30 128 C 12.9008 -0.702172 3.50434 0
M  V30 129 S 14.4598 -1.30409 4.18974 0
M  V30 130 H 11.2778 -0.103967 0.703358 0
M  V30 131 H 13.8798 0.404187 1.91276 0
M  V30 132 H 12.5838 0.17333 4.10034 0
M  V30 133 H 12.1148 -1.4729 3.64786 0
M  V30 134 H 14.1298 -2.59253 4.23087 0
M  V30 135 N 13.3029 -1.57598 0.00835791 0
M  V30 136 C 14.5509 -1.90551 -0.6734 0
M  V30 137 C 14.8719 -0.883301 -1.73847 0
M  V30 138 O 14.1419 0.0781442 -1.95744 0
M  V30 139 H 12.7219 -0.703312 -0.251717 0
M  V30 140 H 15.3839 -1.94833 0.0512592 0
M  V30 141 H 14.4799 -2.9056 -1.13935 0
M  V30 142 N 14.781 0.264519 -1.55364 0
M  V30 143 C 15.691 1.34902 -1.91934 0
M  V30 144 C 16.707 1.53595 -0.817593 0
M  V30 145 O 17.883 1.67558 -1.11742 0
M  V30 146 C 14.948 2.68676 -2.19121 0
M  V30 147 C 14.009 2.58657 -3.4263 0
M  V30 148 C 13.242 3.86051 -3.68511 0
M  V30 149 O 13.465 4.87126 -2.96757 0
M  V30 150 O 12.399 3.85744 -4.62045 0
M  V30 151 H 16.225 1.06883 -2.8427 0
M  V30 152 H 13.81 0.463775 -1.42019 0
M  V30 153 H 15.692 3.47759 -2.37995 0
M  V30 154 H 14.367 2.96463 -1.29966 0
M  V30 155 H 13.274 1.7792 -3.29082 0
M  V30 156 H 14.607 2.35818 -4.32031 0
M  V30 157 N 16.2591 1.48442 0.529413 0
M  V30 158 C 17.4841 1.60406 1.31471 0
M  V30 159 C 17.9091 0.264738 1.86228 0
M  V30 160 O 17.2671 -0.763668 1.64432 0
M  V30 161 C 17.3151 2.65419 2.44101 0
M  V30 162 O 16.4191 2.22618 3.47153 0
M  V30 163 H 15.7601 0.537863 0.389357 0
M  V30 164 H 18.2901 1.94432 0.636965 0
M  V30 165 H 18.3001 2.86709 2.90279 0
M  V30 166 H 16.9751 3.62652 2.03608 0
M  V30 167 H 15.5521 2.11543 3.0709 0
M  V30 168 N 17.7372 -0.778329 1.37039 0
M  V30 169 C 18.9832 -1.53892 1.32079 0
M  V30 170 C 19.3162 -1.9396 -0.0965386 0
M  V30 171 O 18.5912 -1.63568 -1.05242 0
M  V30 172 C 18.8742 -2.80847 2.25382 0
M  V30 173 C 18.7272 -2.47076 3.75864 0
M  V30 174 C 20.0462 -3.82741 2.1725 0
M  V30 175 H 17.1652 -0.558303 0.48111 0
M  V30 176 H 19.8072 -0.893397 1.67685 0
M  V30 177 H 17.9572 -3.35931 1.95148 0
M  V30 178 H 19.6292 -1.97957 4.16666 0
M  V30 179 H 17.8722 -1.79863 3.94755 0
M  V30 180 H 18.5432 -3.37798 4.36574 0
M  V30 181 H 21.0192 -3.37133 2.43887 0
M  V30 182 H 19.8952 -4.69303 2.84686 0
M  V30 183 H 20.1562 -4.2652 1.16331 0
M  V30 184 N 19.2153 -1.21501 -1.00376 0
M  V30 185 C 20.1623 -0.975387 -2.09177 0
M  V30 186 C 21.1323 0.0990615 -1.65804 0
M  V30 187 O 22.3173 -0.0483147 -1.90739 0
M  V30 188 C 19.4573 -0.547507 -3.40729 0
M  V30 189 C 18.5703 -1.69153 -3.97506 0
M  V30 190 C 17.7053 -1.2127 -5.17172 0
M  V30 191 C 16.7443 -2.32897 -5.66061 0
M  V30 192 N 15.8813 -1.86138 -6.76976 0
M  V30 193 H 20.7213 -1.9068 -2.29009 0
M  V30 194 H 18.2583 -0.950257 -1.12288 0
M  V30 195 H 20.2163 -0.280667 -4.16255 0
M  V30 196 H 18.8463 0.346904 -3.20931 0
M  V30 197 H 17.8983 -2.07298 -3.18954 0
M  V30 198 H 19.2103 -2.5316 -4.29781 0
M  V30 199 H 18.3643 -0.902591 -5.99948 0
M  V30 200 H 17.1033 -0.342692 -4.86495 0
M  V30 201 H 16.1083 -2.64709 -4.81881 0
M  V30 202 H 17.3333 -3.20396 -5.98768 0
M  V30 203 H 15.2793 -1.01484 -6.48103 0
M  V30 204 H 15.1963 -2.63717 -7.08512 0
M  V30 205 H 16.4643 -1.58165 -7.63285 0
M  V30 206 N 20.6934 1.19889 -1.02296 0
M  V30 207 C 21.6404 2.22901 -0.598651 0
M  V30 208 C 22.6104 1.61588 0.384521 0
M  V30 209 O 23.7954 1.88697 0.282522 0
M  V30 210 C 20.9354 3.45063 0.0504476 0
M  V30 211 C 20.0484 4.20783 -0.978053 0
M  V30 212 C 19.1834 5.30356 -0.299338 0
M  V30 213 C 18.2224 5.97826 -1.31416 0
M  V30 214 N 17.3594 6.98975 -0.661667 0
M  V30 215 H 22.1994 2.58554 -1.48169 0
M  V30 216 H 19.7364 1.27039 -0.741584 0
M  V30 217 H 21.6944 4.14831 0.443971 0
M  V30 218 H 20.3244 3.10084 0.897097 0
M  V30 219 H 19.3764 3.50018 -1.48969 0
M  V30 220 H 20.6884 4.67109 -1.74958 0
M  V30 221 H 19.8424 6.06516 0.149347 0
M  V30 222 H 18.5814 4.85084 0.504445 0
M  V30 223 H 17.5864 5.20422 -1.77317 0
M  V30 224 H 18.8114 6.45183 -2.11933 0
M  V30 225 H 16.7574 6.55886 0.122132 0
M  V30 226 H 16.6744 7.43461 -1.37117 0
M  V30 227 H 17.9424 7.7914 -0.236785 0
M  V30 228 N 22.1715 0.800033 1.35784 0
M  V30 229 C 23.4205 0.37387 1.98205 0
M  V30 230 C 23.7335 -1.06302 1.64193 0
M  V30 231 O 24.9395 -1.59198 2.19928 0
M  V30 232 C 23.3955 0.617532 3.54562 0
M  V30 233 C 23.0035 2.06654 3.9749 0
M  V30 234 C 24.7475 0.256401 4.23725 0
M  V30 235 C 22.6545 2.2563 5.46667 0
M  V30 236 H 21.5845 0.136055 0.741623 0
M  V30 237 H 24.2355 0.983166 1.54939 0
M  V30 238 H 22.6175 -0.0616248 3.95952 0
M  V30 239 H 23.7915 2.78296 3.67271 0
M  V30 240 H 22.1065 2.38691 3.41197 0
M  V30 241 H 24.7035 0.376318 5.33374 0
M  V30 242 H 25.0465 -0.796692 4.08606 0
M  V30 243 H 25.5795 0.889214 3.87734 0
M  V30 244 H 22.3185 3.2936 5.66747 0
M  V30 245 H 21.8385 1.58504 5.78478 0
M  V30 246 H 23.5175 2.06861 6.1304 0
M  V30 247 N 23.6496 -1.47581 0.552962 0
M  V30 248 C 24.5816 -2.27997 -0.234533 0
M  V30 249 C 25.5946 -1.36753 -0.883321 0
M  V30 250 O 26.7836 -1.61612 -0.757889 0
M  V30 251 C 23.8836 -3.10879 -1.34935 0
M  V30 252 C 23.0566 -4.30056 -0.798158 0
M  V30 253 C 22.1156 -4.94567 -1.79694 0
M  V30 254 O 21.1416 -5.53087 -1.34474 0
M  V30 255 N 22.3436 -4.88878 -3.13015 0
M  V30 256 H 25.1086 -2.96222 0.455255 0
M  V30 257 H 22.6696 -1.57163 0.388761 0
M  V30 258 H 24.6616 -3.50903 -2.01616 0
M  V30 259 H 23.2316 -2.44924 -1.94244 0
M  V30 260 H 22.4516 -3.94174 0.0453079 0
M  V30 261 H 23.7396 -5.07152 -0.409173 0
M  V30 262 H 23.1376 -4.42526 -3.52402 0
M  V30 263 H 21.6946 -5.32934 -3.75266 0
M  V30 264 N 25.1277 -0.289203 -1.54924 0
M  V30 265 C 26.3737 0.323998 -2.00195 0
M  V30 266 C 26.7067 1.54441 -1.17735 0
M  V30 267 O 25.9817 1.92875 -0.250878 0
M  V30 268 C 26.2647 0.692276 -3.53383 0
M  V30 269 C 26.1177 -0.536457 -4.46589 0
M  V30 270 C 27.4367 1.52335 -4.12895 0
M  V30 271 H 24.5557 0.116289 -0.727768 0
M  V30 272 H 27.1977 -0.398954 -1.85764 0
M  V30 273 H 25.3477 1.30822 -3.65811 0
M  V30 274 H 27.0197 -1.17499 -4.46085 0
M  V30 275 H 25.2627 -1.17192 -4.1767 0
M  V30 276 H 25.9337 -0.234806 -5.515 0
M  V30 277 H 28.4097 1.00302 -4.0383 0
M  V30 278 H 27.2857 1.74982 -5.20262 0
M  V30 279 H 27.5467 2.50886 -3.64018 0
M  V30 280 N 26.6058 1.57591 -0.0167156 0
M  V30 281 C 27.5158 2.1291 0.98521 0
M  V30 282 C 28.5318 1.07834 1.36557 0
M  V30 283 O 29.7078 1.39826 1.44951 0
M  V30 284 C 26.7728 2.63512 2.25305 0
M  V30 285 C 25.8338 3.83256 1.93426 0
M  V30 286 C 25.0668 4.31435 3.14165 0
M  V30 287 O 25.2898 3.78851 4.26413 0
M  V30 288 O 24.2238 5.23416 2.97186 0
M  V30 289 H 28.0498 2.98772 0.544888 0
M  V30 290 H 25.6348 1.48012 0.203141 0
M  V30 291 H 27.5168 2.96183 2.99756 0
M  V30 292 H 26.1918 1.8074 2.68542 0
M  V30 293 H 25.0988 3.55531 1.16398 0
M  V30 294 H 26.4318 4.67153 1.55013 0
M  V30 295 N 28.0839 -0.256276 1.55502 0
M  V30 296 C 29.0309 -1.31714 1.89526 0
M  V30 297 C 30.0009 -1.4828 0.748479 0
M  V30 298 O 31.1859 -1.62416 1.00128 0
M  V30 299 C 28.3259 -2.66933 2.18725 0
M  V30 300 C 27.4389 -2.58452 3.4616 0
M  V30 301 C 26.5739 -3.85961 3.64976 0
M  V30 302 C 25.6129 -3.72059 4.86044 0
M  V30 303 N 24.7499 -4.9144 5.01429 0
M  V30 304 H 29.5899 -1.01998 2.80001 0
M  V30 305 H 27.1269 -0.492413 1.38613 0
M  V30 306 H 29.0849 -3.4563 2.33657 0
M  V30 307 H 27.7149 -2.94816 1.31466 0
M  V30 308 H 26.7669 -1.71374 3.3961 0
M  V30 309 H 28.0789 -2.44085 4.34999 0
M  V30 310 H 27.2329 -4.73101 3.79816 0
M  V30 311 H 25.9719 -4.03215 2.74353 0
M  V30 312 H 24.9769 -2.83302 4.7119 0
M  V30 313 H 26.2019 -3.56309 5.78118 0
M  V30 314 H 24.1479 -5.09072 4.13741 0
M  V30 315 H 24.0649 -4.79668 5.84341 0
M  V30 316 H 25.3329 -5.80104 5.20672 0
M  V30 317 N 29.562 -1.4872 -0.521534 0
M  V30 318 C 30.512 -1.60269 -1.62166 0
M  V30 319 C 31.496 -0.45935 -1.54204 0
M  V30 320 O 32.688 -0.711241 -1.62081 0
M  V30 321 C 29.817 -1.65344 -3.00859 0
M  V30 322 C 28.903 -2.85187 -3.13894 0
M  V30 323 N 29.294 -4.09509 -2.96877 0
M  V30 324 C 27.592 -2.82695 -3.44963 0
M  V30 325 C 28.293 -4.89959 -3.13552 0
M  V30 326 N 27.269 -4.22934 -3.41508 0
M  V30 327 H 31.071 -2.5413 -1.47632 0
M  V30 328 H 28.585 -1.45209 -0.727194 0
M  V30 329 H 30.582 -1.71713 -3.79895 0
M  V30 330 H 29.242 -0.726058 -3.16478 0
M  V30 331 H 30.253 -4.39814 -2.73467 0
M  V30 332 H 26.93 -1.99249 -3.66887 0
M  V30 333 H 28.32 -5.98654 -3.05061 0
M  V30 334 N 31.0401 0.771051 -1.3745 0
M  V30 335 C 32.2861 1.5319 -1.32894 0
M  V30 336 C 32.6191 1.94008 0.0862511 0
M  V30 337 O 31.8941 1.64124 1.04373 0
M  V30 338 C 32.1771 2.79648 -2.26868 0
M  V30 339 C 32.0301 2.45079 -3.77169 0
M  V30 340 C 33.3491 3.81583 -2.19277 0
M  V30 341 H 30.4681 0.555744 -0.484064 0
M  V30 342 H 33.1101 0.884492 -1.68157 0
M  V30 343 H 31.2601 3.34891 -1.96926 0
M  V30 344 H 32.9321 1.95745 -4.1771 0
M  V30 345 H 31.1751 1.77767 -3.95704 0
M  V30 346 H 31.8461 3.35478 -4.38359 0
M  V30 347 H 34.3221 3.35835 -2.45671 0
M  V30 348 H 33.1981 4.67787 -2.87171 0
M  V30 349 H 33.4591 4.25897 -1.18592 0
M  V30 350 N 32.5182 1.22032 0.997298 0
M  V30 351 C 33.7432 1.06921 1.77715 0
M  V30 352 C 34.1682 -0.376226 1.84299 0
M  V30 353 O 33.5262 -1.27165 1.29223 0
M  V30 354 C 33.5742 1.67996 3.19076 0
M  V30 355 O 32.6782 0.930653 4.01762 0
M  V30 356 H 32.0192 0.375814 0.547412 0
M  V30 357 H 34.5492 1.61737 1.25309 0
M  V30 358 H 34.5592 1.72538 3.69723 0
M  V30 359 H 33.2342 2.73182 3.13599 0
M  V30 360 H 31.8112 0.960917 3.60307 0
M  V30 361 N 33.9963 -1.19345 1.0293 0
M  V30 362 C 34.9443 -2.24621 0.604001 0
M  V30 363 C 35.9383 -1.65452 -0.363587 0
M  V30 364 O 37.1443 -1.78497 -0.23212 0
M  V30 365 H 33.5193 -0.730858 0.177061 0
M  V30 366 H 35.4903 -2.5781 1.50255 0
M  V30 367 C 34.2393 -3.47688 -0.0289127 0
M  V30 368 H 33.5623 -3.93505 0.706651 0
M  V30 369 H 35.0023 -4.23011 -0.289432 0
M  V30 370 C 33.4613 -3.11817 -1.2756 0
M  V30 371 O 33.9913 -3.2451 -2.36762 0
M  V30 372 N 32.1973 -2.66246 -1.16453 0
M  V30 373 H 31.7443 -2.56118 -0.275914 0
M  V30 374 H 31.7023 -2.42617 -1.99961 0
M  V30 375 N 35.4744 -0.807222 -1.35358 0
M  V30 376 C 36.7144 -0.393534 -2.00576 0
M  V30 377 C 37.0784 1.0203 -1.62647 0
M  V30 378 O 38.2794 1.53603 -2.20589 0
M  V30 379 C 36.5504 -0.572017 -3.52793 0
M  V30 380 S 38.1094 -0.248845 -4.38094 0
M  V30 381 H 34.9274 -0.149425 -0.695121 0
M  V30 382 H 37.5294 -1.04961 -1.64935 0
M  V30 383 H 36.2334 -1.60097 -3.77885 0
M  V30 384 H 35.7644 0.099359 -3.93275 0
M  V30 385 H 37.7794 0.943253 -4.87152 0
M  V30 386 N 36.9525 1.47285 -0.560781 0
M  V30 387 C 38.3685 1.58065 -0.22081 0
M  V30 388 C 38.5685 1.55892 1.27671 0
M  V30 389 O 37.6245 1.46422 2.0571 0
M  V30 390 C 38.9375 2.88418 -0.850625 0
M  V30 391 C 40.4855 3.02009 -0.822184 0
M  V30 392 C 40.9605 4.35066 -1.43113 0
M  V30 393 N 42.4515 4.41711 -1.39448 0
M  V30 394 C 43.1865 5.43237 -1.83525 0
M  V30 395 N 42.6825 6.51555 -2.35474 0
M  V30 396 N 44.4755 5.34304 -1.74574 0
M  V30 397 H 36.6265 1.46941 -1.53369 0
M  V30 398 H 38.8895 0.699558 -0.639783 0
M  V30 399 H 38.5955 2.95755 -1.9032 0
M  V30 400 H 38.4695 3.75612 -0.345773 0
M  V30 401 H 40.8565 2.94266 0.221714 0
M  V30 402 H 40.9375 2.16347 -1.36483 0
M  V30 403 H 40.5815 4.43565 -2.47412 0
M  V30 404 H 40.5115 5.19465 -0.863899 0
M  V30 405 H 43.0025 3.64027 -1.01452 0
M  V30 406 H 43.3155 7.25203 -2.67021 0
M  V30 407 H 41.6605 6.52435 -2.39487 0
M  V30 408 H 44.8515 4.48581 -1.33763 0
M  V30 409 H 45.0245 6.13288 -2.09242 0
M  V30 410 N 38.4306 0.297415 1.54768 0
M  V30 411 C 39.3786 -0.596051 2.24833 0
M  V30 412 C 40.3726 -1.13992 1.25308 0
M  V30 413 O 41.5786 -1.09098 1.4317 0
M  V30 414 H 37.9536 -0.210814 0.721846 0
M  V30 415 H 39.9246 0.0174667 2.98395 0
M  V30 416 C 38.6736 -1.75818 2.99972 0
M  V30 417 H 37.9966 -1.3489 3.76357 0
M  V30 418 H 39.4366 -2.35949 3.52284 0
M  V30 419 C 37.8956 -2.66014 2.06732 0
M  V30 420 O 38.4256 -3.67009 1.63302 0
M  V30 421 N 36.6316 -2.33669 1.72763 0
M  V30 422 H 36.1786 -1.51586 2.08277 0
M  V30 423 H 36.1366 -2.94285 1.10652 0
M  V30 424 N 39.9087 -1.5758 0.0250728 0
M  V30 425 C 41.1487 -1.93497 -0.65865 0
M  V30 426 C 41.5127 -0.901409 -1.69525 0
M  V30 427 O 42.7137 -1.14664 -2.43116 0
M  V30 428 C 40.9847 -3.34352 -1.26267 0
M  V30 429 S 42.5437 -3.92191 -1.96803 0
M  V30 430 H 39.3617 -0.67709 -0.216958 0
M  V30 431 H 41.9637 -1.95303 0.0877692 0
M  V30 432 H 40.6677 -4.07395 -0.495741 0
M  V30 433 H 40.1987 -3.3598 -2.04648 0
M  V30 434 H 42.2137 -3.75298 -3.24601 0
M  V30 435 N 41.3868 0.248026 -1.55636 0
M  V30 436 C 42.2968 1.32859 -1.93354 0
M  V30 437 C 43.3128 1.52719 -0.833838 0
M  V30 438 O 44.4888 1.66363 -1.13513 0
M  V30 439 C 41.5538 2.66337 -2.21958 0
M  V30 440 C 40.6148 2.55008 -3.45354 0
M  V30 441 C 39.8478 3.82121 -3.72584 0
M  V30 442 O 40.0708 4.83951 -3.01907 0
M  V30 443 O 39.0048 3.80822 -4.6611 0
M  V30 444 H 42.8308 1.03862 -2.85388 0
M  V30 445 H 40.4158 0.448686 -1.42503 0
M  V30 446 H 42.2978 3.45216 -2.4167 0
M  V30 447 H 40.9728 2.95068 -1.33103 0
M  V30 448 H 39.8798 1.7442 -3.30951 0
M  V30 449 H 41.2128 2.31222 -4.34508 0
M  V30 450 N 42.8649 1.48995 0.513639 0
M  V30 451 C 44.1049 1.59452 1.27885 0
M  V30 452 C 44.4689 0.269479 1.90099 0
M  V30 453 O 45.6699 0.249139 2.67643 0
M  V30 454 C 43.9409 2.71277 2.32688 0
M  V30 455 S 45.4999 3.01604 3.18717 0
M  V30 456 H 42.3179 0.562565 0.434789 0
M  V30 457 H 44.9199 1.86595 0.583301 0
M  V30 458 H 43.6239 3.66089 1.8549 0
M  V30 459 H 43.1549 2.46086 3.06929 0
M  V30 460 H 45.1699 2.42155 4.331 0
M  V30 461 N 44.343 -0.763751 1.37857 0
M  V30 462 C 45.273 -1.89103 1.36975 0
M  V30 463 C 46.254 -1.68439 0.237152 0
M  V30 464 O 47.439 -1.8918 0.438713 0
M  V30 465 C 44.569 -3.26496 1.18395 0
M  V30 466 C 43.523 -3.61741 2.28751 0
M  V30 467 C 42.849 -4.97762 1.95286 0
M  V30 468 C 44.149 -3.67665 3.70972 0
M  V30 469 H 45.843 -1.90099 2.31307 0
M  V30 470 H 43.389 -0.91319 1.11341 0
M  V30 471 H 45.342 -4.05003 1.16406 0
M  V30 472 H 44.066 -3.25955 0.205215 0
M  V30 473 H 42.725 -2.85547 2.29909 0
M  V30 474 H 42.373 -4.93769 0.959221 0
M  V30 475 H 42.073 -5.22313 2.69189 0
M  V30 476 H 43.597 -5.7866 1.94898 0
M  V30 477 H 45.011 -4.36307 3.719 0
M  V30 478 H 43.408 -4.03718 4.43995 0
M  V30 479 H 44.478 -2.68134 4.0402 0
M  V30 480 N 45.8211 -1.22559 -0.990812 0
M  V30 481 C 47.0461 -1.07862 -1.77145 0
M  V30 482 C 47.4711 0.366447 -1.84496 0
M  V30 483 O 46.8291 1.26478 -1.29896 0
M  V30 484 C 46.8771 -1.69686 -3.18181 0
M  V30 485 O 45.9811 -0.951946 -4.01263 0
M  V30 486 H 45.3221 -0.378712 -0.545411 0
M  V30 487 H 47.8521 -1.62399 -1.2445 0
M  V30 488 H 47.8621 -1.74496 -3.68802 0
M  V30 489 H 46.5371 -2.74841 -3.12146 0
M  V30 490 H 45.1141 -0.980011 -3.59792 0
M  V30 491 N 47.2992 1.18797 -1.03562 0
M  V30 492 C 48.5392 1.90346 -0.744832 0
M  V30 493 C 48.9032 1.78231 0.713972 0
M  V30 494 O 50.1042 2.44441 1.11813 0
M  V30 495 C 48.3752 3.36942 -1.19184 0
M  V30 496 S 49.9342 4.26638 -1.02593 0
M  V30 497 H 46.7522 0.657343 -0.270963 0
M  V30 498 H 49.3542 1.43579 -1.32685 0
M  V30 499 H 48.0582 3.43287 -2.24905 0
M  V30 500 H 47.5892 3.88745 -0.603397 0
M  V30 501 H 49.6042 4.96164 0.0596033 0
M  V30 502 N 48.7773 0.814389 1.34928 0
M  V30 503 C 50.0263 0.394871 1.97797 0
M  V30 504 C 50.3393 -1.04555 1.65311 0
M  V30 505 O 51.5453 -1.56856 2.21604 0
M  V30 506 C 50.0013 0.655103 3.53888 0
M  V30 507 C 49.6093 2.10858 3.95276 0
M  V30 508 C 51.3533 0.301329 4.23429 0
M  V30 509 C 49.2603 2.31415 5.44244 0
M  V30 510 H 48.1903 0.143913 0.740139 0
M  V30 511 H 50.8413 0.999544 1.53888 0
M  V30 512 H 49.2233 -0.0196253 3.95995 0
M  V30 513 H 50.3973 2.82176 3.64298 0
M  V30 514 H 48.7123 2.42297 3.38646 0
M  V30 515 H 51.3093 0.432869 5.32945 0
M  V30 516 H 51.6523 -0.75331 4.09428 0
M  V30 517 H 52.1853 0.930288 3.86769 0
M  V30 518 H 48.9243 3.35353 5.63222 0
M  V30 519 H 48.4443 1.6463 5.76764 0
M  V30 520 H 50.1233 2.13352 6.10811 0
M  V30 521 N 50.2554 -1.46986 0.568584 0
M  V30 522 C 51.5324 -1.95592 -0.0174074 0
M  V30 523 C 51.9124 -1.51124 -1.47393 0
M  V30 524 O 51.2604 -0.755329 -2.15655 0
M  V30 525 C 51.4704 -3.48719 0.139913 0
M  V30 526 C 52.8184 -4.246 0.000426376 0
M  V30 527 O 53.8424 -3.56135 0.0680316 0
M  V30 528 O 52.7014 -5.46302 -0.146988 0
M  V30 529 H 49.7954 -0.82498 -0.0577599 0
M  V30 530 H 52.3414 -1.57335 0.635909 0
M  V30 531 H 51.1134 -3.73927 1.15301 0
M  V30 532 H 50.7364 -3.93771 -0.550491 0
M  V30 533 N 51.7335 -0.305618 -1.54608 0
M  V30 534 C 52.9735 0.303114 -2.0214 0
M  V30 535 C 53.3375 1.50737 -1.18921 0
M  V30 536 O 54.5385 2.18778 -1.56172 0
M  V30 537 C 52.8095 0.646332 -3.51507 0
M  V30 538 S 54.3685 1.23727 -4.20995 0
M  V30 539 H 51.1865 0.0927643 -0.704923 0
M  V30 540 H 53.7885 -0.434566 -1.90609 0
M  V30 541 H 52.4925 -0.238541 -4.09706 0
M  V30 542 H 52.0235 1.41468 -3.67084 0
M  V30 543 H 54.0385 2.52489 -4.27158 0
M  V30 544 N 53.2116 1.57565 -0.0334293 0
M  V30 545 C 54.4596 1.91598 0.642999 0
M  V30 546 C 54.7806 0.910847 1.7242 0
M  V30 547 O 54.0506 -0.0469931 1.95844 0
M  V30 548 H 52.6306 0.707228 0.240496 0
M  V30 549 H 55.2926 1.94726 -0.0822488 0
M  V30 550 H 54.3886 2.92336 1.09298 0
M  V30 551 N 54.6897 -0.239769 1.55765 0
M  V30 552 C 55.6367 -1.29696 1.90913 0
M  V30 553 C 56.6067 -1.47478 0.764164 0
M  V30 554 O 57.7917 -1.61345 1.01845 0
M  V30 555 C 54.9317 -2.64598 2.21544 0
M  V30 556 C 54.0447 -2.54765 3.48882 0
M  V30 557 C 53.1797 -3.82069 3.69049 0
M  V30 558 C 52.2187 -3.66883 4.89963 0
M  V30 559 N 51.3557 -4.86094 5.06614 0
M  V30 560 H 56.1957 -0.990224 2.81067 0
M  V30 561 H 53.7327 -0.477684 1.39128 0
M  V30 562 H 55.6907 -3.43132 2.3731 0
M  V30 563 H 54.3207 -2.93405 1.34585 0
M  V30 564 H 53.3727 -1.67763 3.41409 0
M  V30 565 H 54.6847 -2.39457 4.37563 0
M  V30 566 H 53.8387 -4.69046 3.84812 0
M  V30 567 H 52.5777 -4.00282 2.78614 0
M  V30 568 H 51.5827 -2.78289 4.74168 0
M  V30 569 H 52.8077 -3.50157 5.81865 0
M  V30 570 H 50.7537 -5.04655 4.19117 0
M  V30 571 H 50.6707 -4.73443 5.89396 0
M  V30 572 H 51.9387 -5.74549 5.26795 0
M  V30 573 N 56.1678 -1.49265 -0.50573 0
M  V30 574 C 57.4448 -1.49012 -1.26707 0
M  V30 575 C 57.8248 -0.215205 -2.1 0
M  V30 576 O 57.1728 0.802547 -2.13943 0
M  V30 577 C 57.3828 -2.7663 -2.12783 0
M  V30 578 C 58.7308 -3.25932 -2.72127 0
M  V30 579 O 59.7548 -2.77715 -2.23054 0
M  V30 580 O 58.6138 -4.09897 -3.61451 0
M  V30 581 H 55.7078 -0.596197 -0.57313 0
M  V30 582 H 58.2538 -1.61524 -0.52039 0
M  V30 583 H 57.0258 -3.60916 -1.5118 0
M  V30 584 H 56.6488 -2.66956 -2.94653 0
M  V30 585 N 57.6459 0.756429 -1.3826 0
M  V30 586 C 58.8929 1.51547 -1.34312 0
M  V30 587 C 59.2209 1.94382 0.0677144 0
M  V30 588 O 58.4759 1.65514 1.04421 0
M  V30 589 C 58.7749 2.78313 -2.24224 0
M  V30 590 C 58.4409 2.54455 -3.72241 0
M  V30 591 C 57.1029 2.47657 -4.12576 0
M  V30 592 C 59.4549 2.3354 -4.65949 0
M  V30 593 C 56.7829 2.17956 -5.44713 0
M  V30 594 C 59.1349 2.05359 -5.9834 0
M  V30 595 C 57.7989 1.97016 -6.37762 0
M  V30 596 H 57.0689 0.55455 -0.491482 0
M  V30 597 H 59.7159 0.870039 -1.70595 0
M  V30 598 H 58.0209 3.47492 -1.80987 0
M  V30 599 H 59.7179 3.36259 -2.18474 0
M  V30 600 H 56.3079 2.60616 -3.40261 0
M  V30 601 H 60.4919 2.37772 -4.35635 0
M  V30 602 H 55.7479 2.10003 -5.74203 0
M  V30 603 H 59.9219 1.88179 -6.70494 0
M  V30 604 H 57.5489 1.73766 -7.40074 0
M  V30 605 N 59.124 1.23083 0.984299 0
M  V30 606 C 60.37 1.07221 1.72845 0
M  V30 607 C 60.725 -0.387453 1.88458 0
M  V30 608 O 60.018 -1.28309 1.42293 0
M  V30 609 C 60.212 1.72673 3.1292 0
M  V30 610 C 60.041 3.24853 3.10967 0
M  V30 611 C 58.811 3.93998 3.16376 0
M  V30 612 C 61.009 4.21674 2.94441 0
M  V30 613 N 58.991 5.33192 3.04268 0
M  V30 614 C 60.362 5.47756 2.90453 0
M  V30 615 C 62.417 4.12457 2.78897 0
M  V30 616 C 61.12 6.6568 2.72512 0
M  V30 617 C 63.146 5.3004 2.62319 0
M  V30 618 C 62.508 6.55046 2.59026 0
M  V30 619 H 58.607 0.44685 0.641755 0
M  V30 620 H 61.191 1.55753 1.16829 0
M  V30 621 H 59.362 1.26679 3.67161 0
M  V30 622 H 61.094 1.49824 3.75945 0
M  V30 623 H 57.849 3.45052 3.24401 0
M  V30 624 H 58.273 6.06157 3.015 0
M  V30 625 H 62.915 3.16588 2.80235 0
M  V30 626 H 60.633 7.61689 2.69919 0
M  V30 627 H 64.219 5.24747 2.5126 0
M  V30 628 H 63.099 7.44498 2.46357 0
M  V30 629 N 60.6021 -1.18246 1.0419 0
M  V30 630 C 61.8501 -1.87886 0.744543 0
M  V30 631 C 62.1711 -1.8082 -0.730006 0
M  V30 632 O 61.4411 -1.22736 -1.52685 0
M  V30 633 H 60.0211 -0.695556 0.272417 0
M  V30 634 H 62.6831 -1.43494 1.31892 0
M  V30 635 H 61.7791 -2.9389 1.05049 0
M  V30 636 N 62.0802 -0.821533 -1.34494 0
M  V30 637 C 63.3572 -0.33159 -1.92769 0
M  V30 638 C 63.7372 1.18088 -1.74981 0
M  V30 639 O 63.0852 1.98733 -1.12772 0
M  V30 640 C 63.2952 -0.759398 -3.40638 0
M  V30 641 C 64.6432 -0.757433 -4.1779 0
M  V30 642 O 65.6672 -0.70189 -3.49216 0
M  V30 643 O 64.5262 -0.829361 -5.4017 0
M  V30 644 H 61.6202 -0.0902502 -0.822061 0
M  V30 645 H 64.1662 -0.906231 -1.43477 0
M  V30 646 H 62.9382 -1.8012 -3.47379 0
M  V30 647 H 62.5612 -0.160378 -3.97276 0
M  V30 648 N 63.5583 1.46682 -0.576371 0
M  V30 649 C 64.8353 1.95599 0.00703437 0
M  V30 650 C 65.2153 1.51904 1.46589 0
M  V30 651 O 64.5633 0.766755 2.15251 0
M  V30 652 C 64.7733 3.4864 -0.158404 0
M  V30 653 C 66.1213 4.24594 -0.0229439 0
M  V30 654 O 67.1453 3.56094 -0.0869173 0
M  V30 655 O 66.0043 5.46373 0.118015 0
M  V30 656 H 63.0983 0.825275 0.053384 0
M  V30 657 H 65.6443 1.56996 -0.644244 0
M  V30 658 H 64.4163 3.7331 -1.17282 0
M  V30 659 H 64.0393 3.94057 0.5296 0
M  V30 660 N 65.0364 0.313813 1.54444 0
M  V30 661 C 66.2664 -0.293491 2.04505 0
M  V30 662 C 66.6744 -1.47086 1.19005 0
M  V30 663 O 66.0174 -1.82481 0.211257 0
M  V30 664 C 66.0794 -0.800455 3.50475 0
M  V30 665 C 65.7434 0.253322 4.56297 0
M  V30 666 C 66.7404 1.08612 5.08428 0
M  V30 667 C 64.4254 0.398708 5.00715 0
M  V30 668 C 66.4194 2.05013 6.0353 0
M  V30 669 C 64.1064 1.36614 5.95634 0
M  V30 670 C 65.1044 2.19033 6.46926 0
M  V30 671 O 64.7924 3.14134 7.39983 0
M  V30 672 H 64.5244 -0.0658325 0.672787 0
M  V30 673 H 67.0784 0.455177 2.00293 0
M  V30 674 H 65.3084 -1.59987 3.52053 0
M  V30 675 H 66.9974 -1.32504 3.83663 0
M  V30 676 H 67.7634 0.984736 4.74898 0
M  V30 677 H 63.6424 -0.23289 4.60411 0
M  V30 678 H 67.1864 2.69382 6.4349 0
M  V30 679 H 63.0834 1.4682 6.28581 0
M  V30 680 H 63.8514 3.0926 7.57826 0
M  V30 681 N 66.5145 -1.57545 0.0417849 0
M  V30 682 C 67.4615 -2.10977 -0.935805 0
M  V30 683 C 68.4315 -1.01486 -1.31491 0
M  V30 684 O 69.6165 -1.2898 -1.40602 0
M  V30 685 C 66.7565 -2.65169 -2.2086 0
M  V30 686 C 65.8695 -3.88714 -1.88482 0
M  V30 687 C 65.0045 -4.31254 -3.1015 0
M  V30 688 C 64.0435 -5.47524 -2.7365 0
M  V30 689 N 63.1805 -5.85162 -3.87982 0
M  V30 690 H 68.0205 -2.94218 -0.473249 0
M  V30 691 H 65.5575 -1.45415 -0.221981 0
M  V30 692 H 67.5155 -2.94685 -2.95325 0
M  V30 693 H 66.1455 -1.8474 -2.64709 0
M  V30 694 H 65.1975 -3.65849 -1.04205 0
M  V30 695 H 66.5095 -4.73245 -1.57608 0
M  V30 696 H 65.6635 -4.62273 -3.92923 0
M  V30 697 H 64.4025 -3.45516 -3.44195 0
M  V30 698 H 63.4075 -5.16187 -1.89291 0
M  V30 699 H 64.6325 -6.34971 -2.40807 0
M  V30 700 H 62.5785 -5.02377 -4.21846 0
M  V30 701 H 62.4955 -6.64362 -3.60775 0
M  V30 702 H 63.7635 -6.20791 -4.71422 0
M  V30 703 N 67.9926 0.231505 -1.5589 0
M  V30 704 C 69.2176 0.978689 -1.82856 0
M  V30 705 C 69.6426 1.77559 -0.620846 0
M  V30 706 O 69.0006 1.76119 0.430305 0
M  V30 707 C 69.0486 1.87997 -3.07716 0
M  V30 708 O 68.1526 2.97393 -2.85712 0
M  V30 709 H 67.4936 0.277663 -0.603158 0
M  V30 710 H 70.0236 0.24783 -2.03093 0
M  V30 711 H 70.0336 2.2917 -3.37558 0
M  V30 712 H 68.7086 1.29417 -3.95252 0
M  V30 713 H 67.2856 2.60238 -2.67078 0
M  V30 714 N 69.4707 1.49531 0.497807 0
M  V30 715 C 70.4207 1.62829 1.59596 0
M  V30 716 C 71.4047 0.483824 1.53453 0
M  V30 717 O 72.5967 0.736937 1.60929 0
M  V30 718 C 69.7257 1.7011 2.98191 0
M  V30 719 C 68.8117 2.90144 3.09317 0
M  V30 720 N 69.2027 4.1418 2.90324 0
M  V30 721 C 67.5007 2.88148 3.40422 0
M  V30 722 C 68.2017 4.94886 3.05717 0
M  V30 723 N 67.1777 4.28314 3.34736 0
M  V30 724 H 70.9797 2.56446 1.4357 0
M  V30 725 H 68.4937 1.46347 0.704001 0
M  V30 726 H 70.4907 1.77735 3.77115 0
M  V30 727 H 69.1507 0.776315 3.15283 0
M  V30 728 H 70.1617 4.44109 2.66436 0
M  V30 729 H 66.8387 2.05061 3.63671 0
M  V30 730 H 68.2287 6.03432 2.95499 0
M  V30 731 N 70.9488 -0.749086 1.3866 0
M  V30 732 C 72.1948 -1.51056 1.35314 0
M  V30 733 C 72.5278 -1.94121 -0.0553751 0
M  V30 734 O 71.8028 -1.65763 -1.01749 0
M  V30 735 C 72.0858 -2.76003 2.31288 0
M  V30 736 C 71.9388 -2.39047 3.8102 0
M  V30 737 C 73.2578 -3.78046 2.2532 0
M  V30 738 H 70.3768 -0.547972 0.492844 0
M  V30 739 H 73.0188 -0.857628 1.69543 0
M  V30 740 H 71.1688 -3.31716 2.02229 0
M  V30 741 H 72.8408 -1.89074 4.20771 0
M  V30 742 H 71.0838 -1.71449 3.98482 0
M  V30 743 H 71.7548 -3.28462 4.4364 0
M  V30 744 H 74.2308 -3.31884 2.50983 0
M  V30 745 H 73.1068 -4.63159 2.94576 0
M  V30 746 H 73.3678 -4.23957 1.25352 0
M  V30 747 N 72.4269 -1.23603 -0.977757 0
M  V30 748 C 73.3739 -1.01954 -2.07061 0
M  V30 749 C 74.3439 0.0638697 -1.65977 0
M  V30 750 O 75.5289 -0.0887624 -1.90593 0
M  V30 751 C 72.6689 -0.619658 -3.39491 0
M  V30 752 C 71.7819 -1.77547 -3.93829 0
M  V30 753 C 70.9169 -1.32212 -5.14484 0
M  V30 754 C 69.9559 -2.44852 -5.60994 0
M  V30 755 N 69.0929 -2.00456 -6.72876 0
M  V30 756 H 73.9329 -1.95495 -2.24913 0
M  V30 757 H 71.4699 -0.973861 -1.10247 0
M  V30 758 H 73.4279 -0.368898 -4.15566 0
M  V30 759 H 72.0579 0.278752 -3.21594 0
M  V30 760 H 71.1099 -2.14016 -3.14486 0
M  V30 761 H 72.4219 -2.62219 -4.24314 0
M  V30 762 H 71.5759 -1.02965 -5.97899 0
M  V30 763 H 70.3149 -0.445808 -4.85658 0
M  V30 764 H 69.3199 -2.74871 -4.76157 0
M  V30 765 H 70.5449 -3.33024 -5.91837 0
M  V30 766 H 68.4909 -1.15208 -6.45804 0
M  V30 767 H 68.4079 -2.78687 -7.02759 0
M  V30 768 H 69.6759 -1.7432 -7.59758 0
M  V30 769 N 73.905 1.17692 -1.04816 0
M  V30 770 C 75.145 1.89545 -0.764979 0
M  V30 771 C 75.509 1.78979 0.695028 0
M  V30 772 O 76.71 2.45613 1.09215 0
M  V30 773 C 74.981 3.35659 -1.22751 0
M  V30 774 S 76.54 4.25526 -1.07112 0
M  V30 775 H 73.358 0.654432 -0.27792 0
M  V30 776 H 75.96 1.42163 -1.34201 0
M  V30 777 H 74.664 3.40882 -2.28533 0
M  V30 778 H 74.195 3.88083 -0.644594 0
M  V30 779 H 76.21 4.962 0.00697508 0
M  V30 780 N 75.3831 0.828654 1.34056 0
M  V30 781 C 76.6321 0.415828 1.97367 0
M  V30 782 C 76.9451 -1.02796 1.6641 0
M  V30 783 O 78.1511 -1.54497 2.23255 0
M  V30 784 C 76.6071 0.692601 3.53173 0
M  V30 785 C 76.2151 2.15038 3.93017 0
M  V30 786 C 77.9591 0.346222 4.23086 0
M  V30 787 C 75.8661 2.37174 5.41758 0
M  V30 788 H 74.7961 0.151755 0.738571 0
M  V30 789 H 77.4471 1.01581 1.52819 0
M  V30 790 H 75.8291 0.0223764 3.95994 0
M  V30 791 H 77.0031 2.86024 3.61285 0
M  V30 792 H 75.3181 2.45875 3.36057 0
M  V30 793 H 77.9151 0.48937 5.32456 0
M  V30 794 H 78.2581 -0.709842 4.10204 0
M  V30 795 H 78.7911 0.971258 3.85761 0
M  V30 796 H 75.5301 3.41308 5.59633 0
M  V30 797 H 75.0501 1.70738 5.74986 0
M  V30 798 H 76.7291 2.19818 6.08514 0
M  V30 799 N 76.8612 -1.46375 0.584142 0
M  V30 800 C 78.0862 -2.07268 0.0740405 0
M  V30 801 C 78.5112 -1.42979 -1.22223 0
M  V30 802 O 77.8692 -0.514092 -1.73859 0
M  V30 803 C 77.9172 -3.60518 -0.0767769 0
M  V30 804 O 77.0212 -3.96533 -1.13292 0
M  V30 805 H 76.3622 -0.660961 0.0634524 0
M  V30 806 H 78.8922 -1.87991 0.807492 0
M  V30 807 H 78.9022 -4.07021 -0.282489 0
M  V30 808 H 77.5772 -4.06702 0.86986 0
M  V30 809 H 76.1542 -3.61738 -0.905553 0
M  V30 810 N 78.3393 -0.321999 -1.54275 0
M  V30 811 C 79.2493 0.553631 -2.27974 0
M  V30 812 C 80.2653 1.13054 -1.32268 0
M  V30 813 O 81.4413 1.15084 -1.6528 0
M  V30 814 C 78.5063 1.69927 -3.02201 0
M  V30 815 C 77.5673 1.15433 -4.1349 0
M  V30 816 C 76.8003 2.24537 -4.84168 0
M  V30 817 O 77.0233 3.44852 -4.5435 0
M  V30 818 O 75.9573 1.90044 -5.7111 0
M  V30 819 H 79.7833 -0.0448345 -3.03667 0
M  V30 820 H 77.3683 -0.0877418 -1.49142 0
M  V30 821 H 79.2503 2.3663 -3.48689 0
M  V30 822 H 77.9253 2.28395 -2.29385 0
M  V30 823 H 76.8323 0.452436 -3.71354 0
M  V30 824 H 78.1653 0.614805 -4.88345 0
M  V30 825 N 79.8174 1.5752 -0.0501392 0
M  V30 826 C 81.0654 1.9227 0.622642 0
M  V30 827 C 81.3864 0.929083 1.71444 0
M  V30 828 O 80.6564 -0.0262186 1.95882 0
M  V30 829 H 79.2364 0.709739 0.232981 0
M  V30 830 H 81.8984 1.94628 -0.102898 0
M  V30 831 H 80.9944 2.93479 1.06191 0
M  V30 832 N 81.2955 -0.223234 1.56011 0
M  V30 833 C 82.2275 -1.30006 1.88762 0
M  V30 834 C 83.2405 -1.43129 0.775746 0
M  V30 835 O 84.4295 -1.44057 1.05403 0
M  V30 836 C 81.5295 -2.67589 2.07965 0
M  V30 837 C 80.7025 -2.76434 3.38973 0
M  V30 838 C 79.7615 -3.95019 3.47629 0
M  V30 839 O 78.7875 -3.83436 4.20672 0
M  V30 840 N 79.9895 -5.09249 2.78649 0
M  V30 841 H 82.7545 -1.02238 2.81722 0
M  V30 842 H 80.3155 -0.413278 1.56536 0
M  V30 843 H 82.3075 -3.45297 2.11073 0
M  V30 844 H 80.8775 -2.87964 1.21638 0
M  V30 845 H 80.0975 -1.85216 3.47978 0
M  V30 846 H 81.3855 -2.79313 4.25278 0
M  V30 847 H 80.7835 -5.21556 2.19081 0
M  V30 848 H 79.3405 -5.85007 2.8742 0
M  V30 849 N 82.7736 -1.49793 -0.48987 0
M  V30 850 C 83.7206 -1.67281 -1.59014 0
M  V30 851 C 84.6906 -0.514177 -1.57941 0
M  V30 852 O 85.8756 -0.742533 -1.75759 0
M  V30 853 C 83.0156 -1.75569 -2.97102 0
M  V30 854 C 82.1286 -3.0281 -3.08107 0
M  V30 855 C 81.2636 -3.02008 -4.36995 0
M  V30 856 C 80.3026 -4.23782 -4.41673 0
M  V30 857 N 79.4396 -4.20826 -5.62005 0
M  V30 858 H 84.2796 -2.61224 -1.43409 0
M  V30 859 H 81.8166 -1.29508 -0.697565 0
M  V30 860 H 83.7746 -1.78354 -3.77155 0
M  V30 861 H 82.4046 -0.850827 -3.11385 0
M  V30 862 H 81.4566 -3.09584 -2.21047 0
M  V30 863 H 82.7686 -3.92801 -3.07423 0
M  V30 864 H 81.9226 -3.03418 -5.25378 0
M  V30 865 H 80.6616 -2.09815 -4.4026 0
M  V30 866 H 79.6666 -4.22604 -3.5169 0
M  V30 867 H 80.8916 -5.17181 -4.40115 0
M  V30 868 H 78.8376 -3.31476 -5.66091 0
M  V30 869 H 78.7546 -5.04564 -5.62984 0
M  V30 870 H 80.0226 -4.26355 -6.52565 0
M  V30 871 N 84.2517 0.741722 -1.39055 0
M  V30 872 C 85.4817 1.52876 -1.3897 0
M  V30 873 C 85.8897 1.8919 0.0193266 0
M  V30 874 O 85.2327 1.54138 0.999356 0
M  V30 875 C 85.2947 2.84929 -2.19216 0
M  V30 876 C 84.9587 2.71086 -3.67915 0
M  V30 877 C 85.9557 2.40084 -4.61146 0
M  V30 878 C 83.6407 2.88168 -4.11418 0
M  V30 879 C 85.6347 2.26335 -5.95862 0
M  V30 880 C 83.3217 2.74037 -5.46211 0
M  V30 881 C 84.3197 2.43166 -6.38247 0
M  V30 882 O 84.0077 2.29115 -7.70559 0
M  V30 883 H 83.7397 0.479252 -0.476753 0
M  V30 884 H 86.2937 0.924751 -1.83405 0
M  V30 885 H 84.5237 3.47564 -1.69518 0
M  V30 886 H 86.2127 3.46509 -2.11392 0
M  V30 887 H 86.9787 2.26545 -4.28838 0
M  V30 888 H 82.8577 3.11191 -3.40119 0
M  V30 889 H 86.4017 2.0216 -6.67665 0
M  V30 890 H 82.2987 2.87153 -5.78112 0
M  V30 891 H 83.0667 2.44237 -7.81211 0
M  V30 892 N 85.7298 1.2412 0.971189 0
M  V30 893 C 86.9778 1.07668 1.71032 0
M  V30 894 C 87.2988 -0.385797 1.91146 0
M  V30 895 O 86.5688 -1.27569 1.4867 0
M  V30 896 H 85.1488 0.395429 0.633755 0
M  V30 897 H 87.8108 1.55984 1.16855 0
M  V30 898 H 86.9068 1.57195 2.69622 0
M  V30 899 N 87.2079 -1.17134 1.05439 0
M  V30 900 C 88.4559 -1.87085 0.764429 0
M  V30 901 C 88.7769 -1.81584 -0.710787 0
M  V30 902 O 88.0469 -1.24349 -1.51374 0
M  V30 903 H 86.6269 -0.692627 0.279779 0
M  V30 904 H 89.2889 -1.42087 1.33406 0
M  V30 905 H 88.3849 -2.92759 1.0816 0
M  V30 906 N 88.686 -0.835752 -1.33615 0
M  V30 907 C 89.633 -0.26473 -2.29277 0
M  V30 908 C 90.603 0.617712 -1.54187 0
M  V30 909 O 91.788 0.556641 -1.825 0
M  V30 910 C 88.928 0.556777 -3.40579 0
M  V30 911 C 88.041 -0.349339 -4.30585 0
M  V30 912 C 87.176 0.482969 -5.29 0
M  V30 913 C 86.215 -0.421732 -6.10645 0
M  V30 914 N 85.352 0.372262 -7.01112 0
M  V30 915 H 90.192 -1.08582 -2.77514 0
M  V30 916 H 87.729 -0.546927 -1.36554 0
M  V30 917 H 89.687 1.04852 -4.03809 0
M  V30 918 H 88.317 1.34286 -2.93542 0
M  V30 919 H 87.369 -0.959372 -3.68104 0
M  V30 920 H 88.681 -1.04445 -4.87742 0
M  V30 921 H 87.835 1.03866 -5.97743 0
M  V30 922 H 86.574 1.21153 -4.72412 0
M  V30 923 H 85.579 -0.989464 -5.40823 0
M  V30 924 H 86.804 -1.14861 -6.69316 0
M  V30 925 H 84.75 1.08426 -6.46977 0
M  V30 926 H 84.667 -0.264198 -7.55538 0
M  V30 927 H 85.935 0.910293 -7.74167 0
M  V30 928 N 90.1641 1.46063 -0.591896 0
M  V30 929 C 91.4121 2.01938 -0.0808391 0
M  V30 930 C 91.7331 1.46475 1.28725 0
M  V30 931 O 91.0031 0.652944 1.84698 0
M  V30 932 H 89.5831 0.746516 -0.0268938 0
M  V30 933 H 92.2451 1.79055 -0.769752 0
M  V30 934 H 91.3411 3.12094 -0.0187578 0
M  V30 935 N 91.6422 0.330177 1.54103 0
M  V30 936 C 92.8722 -0.271784 2.04805 0
M  V30 937 C 93.2802 -1.45816 1.20559 0
M  V30 938 O 92.6232 -1.82247 0.2306 0
M  V30 939 C 92.6852 -0.763238 3.51305 0
M  V30 940 C 92.3492 0.301705 4.56003 0
M  V30 941 C 93.3462 1.13999 5.07248 0
M  V30 942 C 91.0312 0.451793 5.00264 0
M  V30 943 C 93.0252 2.11402 6.01322 0
M  V30 944 C 90.7122 1.42924 5.94151 0
M  V30 945 C 91.7102 2.25882 6.44567 0
M  V30 946 O 91.3982 3.21965 7.3661 0
M  V30 947 H 91.1302 -0.058693 0.673447 0
M  V30 948 H 93.6842 0.476395 1.99799 0
M  V30 949 H 91.9142 -1.56244 3.5373 0
M  V30 950 H 93.6032 -1.28427 3.85047 0
M  V30 951 H 94.3692 1.03505 4.73827 0
M  V30 952 H 90.2482 -0.184044 4.60632 0
M  V30 953 H 93.7922 2.76192 6.40596 0
M  V30 954 H 89.6892 1.53479 6.26988 0
M  V30 955 H 90.4572 3.17281 7.54503 0
M  V30 956 N 93.1203 -1.57491 0.0584922 0
M  V30 957 C 94.0303 -2.15448 -0.928414 0
M  V30 958 C 95.0463 -1.11416 -1.3365 0
M  V30 959 O 96.2223 -1.4362 -1.41193 0
M  V30 960 C 93.2873 -2.69393 -2.18239 0
M  V30 961 C 92.3483 -3.88249 -1.83196 0
M  V30 962 C 91.5813 -4.39613 -3.02616 0
M  V30 963 O 91.8043 -3.90023 -4.16219 0
M  V30 964 O 90.7383 -5.31111 -2.83204 0
M  V30 965 H 94.5643 -3.00112 -0.465483 0
M  V30 966 H 92.1493 -1.48499 -0.163826 0
M  V30 967 H 94.0313 -3.04026 -2.91798 0
M  V30 968 H 92.7063 -1.87796 -2.63656 0
M  V30 969 H 91.6133 -3.58492 -1.06931 0
M  V30 970 H 92.9463 -4.71098 -1.42573 0
M  V30 971 N 94.5984 0.214957 -1.56127 0
M  V30 972 C 95.5614 1.24997 -1.92116 0
M  V30 973 C 96.5614 1.39467 -0.800344 0
M  V30 974 O 97.7514 1.37619 -1.06802 0
M  V30 975 C 94.8834 2.62271 -2.17777 0
M  V30 976 H 96.0764 0.942875 -2.84693 0
M  V30 977 H 93.6294 0.455654 -1.49511 0
M  V30 978 H 94.3644 2.98068 -1.27773 0
M  V30 979 H 94.1494 2.53143 -2.99434 0
M  V30 980 H 95.6394 3.36946 -2.46693 0
M  V30 981 N 96.0765 1.50051 0.48192 0
M  V30 982 C 97.0235 1.68122 1.58125 0
M  V30 983 C 97.9935 0.522545 1.57666 0
M  V30 984 O 99.1785 0.751844 1.75362 0
M  V30 985 C 96.3185 1.77142 2.96167 0
M  V30 986 C 95.4315 3.0444 3.06497 0
M  V30 987 C 94.5665 3.04321 4.35387 0
M  V30 988 C 93.6055 4.26118 4.3942 0
M  V30 989 N 92.7425 4.238 5.59766 0
M  V30 990 H 97.5825 2.6198 1.42022 0
M  V30 991 H 95.1195 1.29877 0.690687 0
M  V30 992 H 97.0775 1.80352 3.76203 0
M  V30 993 H 95.7075 0.867329 3.1093 0
M  V30 994 H 94.7595 3.10752 2.19402 0
M  V30 995 H 96.0715 3.94426 3.05336 0
M  V30 996 H 95.2255 3.062 5.23762 0
M  V30 997 H 93.9645 2.12147 4.39141 0
M  V30 998 H 92.9695 4.24463 3.49444 0
M  V30 999 H 94.1945 5.19507 4.37366 0
M  V30 1000 H 92.1405 3.34474 5.64326 0
M  V30 1001 H 92.0575 5.07542 5.60301 0
M  V30 1002 H 93.3255 4.2981 6.50295 0
M  V30 1003 N 97.5546 -0.734337 1.39446 0
M  V30 1004 C 98.7826 -1.52358 1.39981 0
M  V30 1005 C 99.1976 -1.88799 -0.0054975 0
M  V30 1006 O 98.5546 -1.54146 -0.976998 0
M  V30 1007 C 98.6056 -2.81072 2.27333 0
M  V30 1008 O 98.3266 -2.46178 3.62392 0
M  V30 1009 C 99.8276 -3.75096 2.36259 0
M  V30 1010 H 97.0476 -0.470806 0.478103 0
M  V30 1011 H 99.5916 -0.907339 1.83269 0
M  V30 1012 H 97.7466 -3.39026 1.87457 0
M  V30 1013 H 98.1606 -3.28866 4.08592 0
M  V30 1014 H 99.6346 -4.62305 3.01626 0
M  V30 1015 H 100.112 -4.16892 1.38194 0
M  V30 1016 H 100.718 -3.23061 2.76608 0
M  V30 1017 N 99.0327 -1.24633 -0.964593 0
M  V30 1018 C 99.9827 -1.00841 -2.04487 0
M  V30 1019 C 100.967 0.0512468 -1.60818 0
M  V30 1020 O 102.159 -0.162865 -1.76249 0
M  V30 1021 C 99.2877 -0.618474 -3.37683 0
M  V30 1022 C 98.3737 -1.71437 -3.87905 0
M  V30 1023 N 98.7647 -2.9477 -4.11029 0
M  V30 1024 C 97.0627 -1.5926 -4.16596 0
M  V30 1025 C 97.7637 -3.65834 -4.52261 0
M  V30 1026 N 96.7397 -2.9341 -4.57615 0
M  V30 1027 H 100.542 -1.94487 -2.20345 0
M  V30 1028 H 98.0557 -1.14805 -1.14863 0
M  V30 1029 H 100.053 -0.429247 -4.14684 0
M  V30 1030 H 98.7127 0.310766 -3.23209 0
M  V30 1031 H 99.7237 -3.30917 -3.9839 0
M  V30 1032 H 96.4007 -0.731606 -4.1104 0
M  V30 1033 H 97.7907 -4.71646 -4.78539 0
M  V30 1034 N 100.511 1.16574 -1.06058 0
M  V30 1035 C 101.458 2.20883 -0.669263 0
M  V30 1036 C 102.428 1.62729 0.332918 0
M  V30 1037 O 103.613 1.895 0.222346 0
M  V30 1038 C 100.753 3.45049 -0.0593572 0
M  V30 1039 C 99.8658 4.17458 -1.11143 0
M  V30 1040 C 99.0008 5.29135 -0.467916 0
M  V30 1041 C 98.0398 5.93343 -1.50369 0
M  V30 1042 N 97.1768 6.96516 -0.883706 0
M  V30 1043 H 102.017 2.53709 -1.5632 0
M  V30 1044 H 99.5538 1.24616 -0.781625 0
M  V30 1045 H 101.512 4.16033 0.311771 0
M  V30 1046 H 100.142 3.12781 0.797992 0
M  V30 1047 H 99.1938 3.45101 -1.60029 0
M  V30 1048 H 100.506 4.61307 -1.89731 0
M  V30 1049 H 99.6598 6.06684 -0.0436871 0
M  V30 1050 H 98.3988 4.86443 0.349864 0
M  V30 1051 H 97.4038 5.14517 -1.93784 0
M  V30 1052 H 98.6288 6.38114 -2.32352 0
M  V30 1053 H 96.5748 6.55943 -0.086595 0
M  V30 1054 H 96.4918 7.38723 -1.607 0
M  V30 1055 H 97.7598 7.77993 -0.484543 0
M  V30 1056 N 101.989 0.842826 1.3317 0
M  V30 1057 C 103.237 0.439577 1.97262 0
M  V30 1058 C 103.558 -1.00548 1.67078 0
M  V30 1059 O 102.828 -1.70098 0.971779 0
M  V30 1060 H 101.408 0.159558 0.72976 0
M  V30 1061 H 104.07 1.07665 1.62463 0
M  V30 1062 H 103.166 0.574886 3.0676 0
M  V30 1063 N 103.467 -1.45747 0.599634 0
M  V30 1064 C 104.744 -1.95585 0.0240846 0
M  V30 1065 C 105.124 -1.54217 -1.44154 0
M  V30 1066 O 104.472 -0.800903 -2.14004 0
M  V30 1067 C 104.682 -3.48344 0.21385 0
M  V30 1068 C 106.03 -4.24504 0.0904902 0
M  V30 1069 O 107.054 -3.55911 0.143558 0
M  V30 1070 O 105.913 -5.46491 -0.0310766 0
M  V30 1071 H 103.007 -0.82602 -0.0402478 0
M  V30 1072 H 105.553 -1.55951 0.669139 0
M  V30 1073 H 104.325 -3.71397 1.23206 0
M  V30 1074 H 103.948 -3.9485 -0.466842 0
M  V30 1075 N 104.945 -0.338344 -1.53925 0
M  V30 1076 C 105.908 0.508299 -2.23493 0
M  V30 1077 C 106.908 1.03175 -1.23335 0
M  V30 1078 O 108.098 0.921826 -1.47811 0
M  V30 1079 C 105.23 1.70754 -2.95052 0
M  V30 1080 H 106.423 -0.100058 -2.99733 0
M  V30 1081 H 103.976 -0.0896198 -1.56043 0
M  V30 1082 H 104.711 2.35474 -2.22986 0
M  V30 1083 H 104.496 1.33946 -3.68512 0
M  V30 1084 H 105.986 2.30818 -3.48013 0
M  V30 1085 N 106.423 1.57458 -0.0668435 0
M  V30 1086 C 107.37 2.12439 0.902122 0
M  V30 1087 C 108.34 1.03565 1.2986 0
M  V30 1088 O 109.525 1.312 1.38532 0
M  V30 1089 C 106.665 2.6865 2.16614 0
M  V30 1090 C 105.778 3.91663 1.82274 0
M  V30 1091 C 104.913 4.36134 3.0325 0
M  V30 1092 C 103.952 5.51808 2.64904 0
M  V30 1093 N 103.089 5.9126 3.78624 0
M  V30 1094 H 107.929 2.94934 0.426382 0
M  V30 1095 H 105.466 1.4575 0.198819 0
M  V30 1096 H 107.424 2.99346 2.90599 0
M  V30 1097 H 106.054 1.88928 2.61737 0
M  V30 1098 H 105.106 3.6746 0.983719 0
M  V30 1099 H 106.418 4.75693 1.50059 0
M  V30 1100 H 105.572 4.68465 3.85519 0
M  V30 1101 H 104.311 3.50948 3.38655 0
M  V30 1102 H 103.316 5.19133 1.81055 0
M  V30 1103 H 104.541 6.38722 2.30675 0
M  V30 1104 H 102.487 5.09024 4.138 0
M  V30 1105 H 102.404 6.70018 3.5016 0
M  V30 1106 H 103.672 6.28212 4.61486 0
M  V30 1107 N 107.901 -0.206675 1.56239 0
M  V30 1108 C 108.833 -1.27997 1.9013 0
M  V30 1109 C 109.846 -1.42299 0.790883 0
M  V30 1110 O 111.035 -1.42931 1.06925 0
M  V30 1111 C 108.135 -2.65368 2.10792 0
M  V30 1112 C 107.308 -2.72824 3.41886 0
M  V30 1113 C 106.367 -3.9131 3.51799 0
M  V30 1114 O 105.393 -3.78953 4.24716 0
M  V30 1115 N 106.595 -5.06265 2.84035 0
M  V30 1116 H 109.36 -0.992444 2.82791 0
M  V30 1117 H 106.921 -0.396652 1.56966 0
M  V30 1118 H 108.913 -3.43039 2.14724 0
M  V30 1119 H 107.483 -2.86657 1.24685 0
M  V30 1120 H 106.703 -1.81515 3.49923 0
M  V30 1121 H 107.991 -2.74786 4.28217 0
M  V30 1122 H 107.389 -5.19203 2.246 0
M  V30 1123 H 105.946 -5.81925 2.93609 0
M  V30 1124 N 109.379 -1.50304 -0.473955 0
M  V30 1125 C 110.311 -1.65109 -1.58971 0
M  V30 1126 C 111.324 -0.532676 -1.53839 0
M  V30 1127 O 112.513 -0.805751 -1.59279 0
M  V30 1128 C 109.613 -1.61684 -2.97845 0
M  V30 1129 C 108.786 -2.8951 -3.27876 0
M  V30 1130 C 107.845 -2.78768 -4.4629 0
M  V30 1131 O 106.871 -3.52722 -4.46739 0
M  V30 1132 N 108.073 -1.9213 -5.47783 0
M  V30 1133 H 110.838 -2.61347 -1.46689 0
M  V30 1134 H 108.399 -1.47732 -0.662324 0
M  V30 1135 H 110.391 -1.52114 -3.75024 0
M  V30 1136 H 108.961 -0.731925 -3.03911 0
M  V30 1137 H 108.181 -3.13228 -2.39336 0
M  V30 1138 H 109.469 -3.74199 -3.4475 0
M  V30 1139 H 108.867 -1.31353 -5.50239 0
M  V30 1140 H 107.424 -1.88466 -6.23958 0
M  V30 1141 N 110.857 0.726932 -1.39834 0
M  V30 1142 C 111.82 1.82269 -1.38962 0
M  V30 1143 C 112.82 1.58248 -0.285334 0
M  V30 1144 O 114.01 1.65499 -0.54366 0
M  V30 1145 C 111.142 3.20186 -1.17019 0
M  V30 1146 H 112.335 1.84443 -2.36476 0
M  V30 1147 H 109.888 0.931416 -1.25516 0
M  V30 1148 H 110.623 3.23669 -0.202204 0
M  V30 1149 H 110.408 3.3902 -1.96998 0
M  V30 1150 H 111.898 4.00235 -1.1917 0
M  V30 1151 N 112.336 1.25143 0.95797 0
M  V30 1152 C 113.582 1.10863 1.70531 0
M  V30 1153 C 113.937 -0.347391 1.89238 0
M  V30 1154 O 113.23 -1.25262 1.44983 0
M  V30 1155 C 113.424 1.79272 3.09187 0
M  V30 1156 C 113.253 3.31376 3.04006 0
M  V30 1157 C 112.023 4.0062 3.07948 0
M  V30 1158 C 114.221 4.27825 2.8543 0
M  V30 1159 N 112.203 5.39526 2.9289 0
M  V30 1160 C 113.574 5.53794 2.78769 0
M  V30 1161 C 115.629 4.1828 2.70085 0
M  V30 1162 C 114.332 6.7131 2.58331 0
M  V30 1163 C 116.358 5.35485 2.51017 0
M  V30 1164 C 115.72 6.60393 2.45073 0
M  V30 1165 H 111.819 0.460362 0.632132 0
M  V30 1166 H 114.403 1.58196 1.13499 0
M  V30 1167 H 112.574 1.34439 3.64391 0
M  V30 1168 H 114.306 1.57764 3.72683 0
M  V30 1169 H 111.061 3.51855 3.17009 0
M  V30 1170 H 111.485 6.12416 2.88574 0
M  V30 1171 H 116.127 3.22461 2.73457 0
M  V30 1172 H 113.845 7.67243 2.53701 0
M  V30 1173 H 117.431 5.29959 2.40073 0
M  V30 1174 H 116.311 7.49557 2.30509 0
M  V30 1175 N 113.814 -1.1601 1.06675 0
M  V30 1176 C 115.063 -1.85973 0.780818 0
M  V30 1177 C 115.376 -1.82819 -0.695444 0
M  V30 1178 O 116.582 -2.484 -1.09589 0
M  V30 1179 C 115.038 -3.33757 1.34665 0
M  V30 1180 C 114.646 -3.45374 2.85343 0
M  V30 1181 C 116.39 -4.0895 1.13843 0
M  V30 1182 C 114.297 -4.87266 3.35151 0
M  V30 1183 H 113.227 -0.696661 0.288407 0
M  V30 1184 H 115.878 -1.30903 1.28595 0
M  V30 1185 H 114.26 -3.88456 0.769274 0
M  V30 1186 H 115.434 -3.00816 3.49065 0
M  V30 1187 H 113.749 -2.83619 3.04876 0
M  V30 1188 H 116.346 -5.13654 1.4854 0
M  V30 1189 H 116.689 -4.16229 0.0770282 0
M  V30 1190 H 117.222 -3.605 1.68179 0
M  V30 1191 H 113.961 -4.85168 4.40786 0
M  V30 1192 H 113.481 -5.32433 2.76179 0
M  V30 1193 H 115.16 -5.56097 3.30704 0
M  V30 1194 N 115.292 -0.849877 -1.32721 0
M  V30 1195 C 116.224 -0.248332 -2.27851 0
M  V30 1196 C 117.237 0.577218 -1.52224 0
M  V30 1197 O 118.426 0.402489 -1.73903 0
M  V30 1198 C 115.526 0.668107 -3.32249 0
M  V30 1199 C 114.699 -0.120534 -4.37234 0
M  V30 1200 C 113.758 0.720932 -5.21238 0
M  V30 1201 O 112.784 0.156166 -5.68986 0
M  V30 1202 N 113.986 2.03647 -5.43607 0
M  V30 1203 H 116.751 -1.06575 -2.80111 0
M  V30 1204 H 114.312 -0.709395 -1.45531 0
M  V30 1205 H 116.304 1.23627 -3.85355 0
M  V30 1206 H 114.874 1.38621 -2.80184 0
M  V30 1207 H 114.094 -0.870108 -3.84477 0
M  V30 1208 H 115.382 -0.662406 -5.0447 0
M  V30 1209 H 114.78 2.51871 -5.06535 0
M  V30 1210 H 113.337 2.55287 -5.99727 0
M  V30 1211 N 116.77 1.45427 -0.607355 0
M  V30 1212 C 117.717 2.3053 0.111625 0
M  V30 1213 C 118.687 1.4209 0.860216 0
M  V30 1214 O 119.872 1.71019 0.845998 0
M  V30 1215 C 117.012 3.26992 1.10319 0
M  V30 1216 C 116.125 4.30535 0.355493 0
M  V30 1217 C 115.26 5.14105 1.33676 0
M  V30 1218 C 114.299 6.09376 0.576862 0
M  V30 1219 N 113.436 6.85727 1.5074 0
M  V30 1220 H 118.276 2.91477 -0.620093 0
M  V30 1221 H 115.813 1.43631 -0.317594 0
M  V30 1222 H 117.771 3.81385 1.6912 0
M  V30 1223 H 116.401 2.67799 1.80232 0
M  V30 1224 H 115.453 3.78805 -0.348023 0
M  V30 1225 H 116.765 4.98235 -0.237423 0
M  V30 1226 H 115.919 5.72897 1.99684 0
M  V30 1227 H 114.658 4.46423 1.9636 0
M  V30 1228 H 113.663 5.49715 -0.0968519 0
M  V30 1229 H 114.888 6.79085 -0.0449341 0
M  V30 1230 H 112.834 6.20735 2.12189 0
M  V30 1231 H 112.751 7.49778 0.967913 0
M  V30 1232 H 114.019 7.4906 2.15706 0
M  V30 1233 N 118.248 0.346503 1.53744 0
M  V30 1234 C 119.497 -0.250122 2.00143 0
M  V30 1235 C 119.81 -1.51418 1.23822 0
M  V30 1236 O 121.016 -2.18823 1.60713 0
M  V30 1237 C 119.472 -0.496252 3.56462 0
M  V30 1238 C 119.08 0.752077 4.41642 0
M  V30 1239 C 120.824 -1.05157 4.11269 0
M  V30 1240 C 118.731 0.476583 5.89477 0
M  V30 1241 H 117.661 -0.0972409 0.747703 0
M  V30 1242 H 120.312 0.46229 1.77581 0
M  V30 1243 H 118.694 -1.26944 3.75102 0
M  V30 1244 H 119.868 1.5266 4.34778 0
M  V30 1245 H 118.183 1.22925 3.97842 0
M  V30 1246 H 120.78 -1.27269 5.19333 0
M  V30 1247 H 121.123 -2.00799 3.64672 0
M  V30 1248 H 121.656 -0.339019 3.96353 0
M  V30 1249 H 118.395 1.4028 6.40314 0
M  V30 1250 H 117.915 -0.259794 5.99237 0
M  V30 1251 H 119.594 0.0949315 6.4693 0
M  V30 1252 N 119.726 -1.57421 0.075193 0
M  V30 1253 C 120.674 -2.14124 -0.908508 0
M  V30 1254 C 121.668 -1.07898 -1.30592 0
M  V30 1255 O 122.874 -1.26273 -1.28277 0
M  V30 1256 H 119.249 -0.684707 -0.310935 0
M  V30 1257 H 121.22 -2.95634 -0.405374 0
M  V30 1258 C 119.969 -2.72044 -2.16535 0
M  V30 1259 H 119.292 -3.53456 -1.86839 0
M  V30 1260 H 120.732 -3.15311 -2.83469 0
M  V30 1261 C 119.191 -1.66968 -2.92615 0
M  V30 1262 O 119.721 -1.0967 -3.86439 0
M  V30 1263 N 117.927 -1.37923 -2.55784 0
M  V30 1264 H 117.474 -1.84706 -1.79559 0
M  V30 1265 H 117.432 -0.67852 -3.06991 0
M  V30 1266 N 121.204 0.198386 -1.56346 0
M  V30 1267 C 122.114 1.2664 -1.97483 0
M  V30 1268 C 123.13 1.49989 -0.882002 0
M  V30 1269 O 124.306 1.62668 -1.18748 0
M  V30 1270 C 121.371 2.59141 -2.30319 0
M  V30 1271 C 120.432 2.43892 -3.53292 0
M  V30 1272 C 119.665 3.70074 -3.84553 0
M  V30 1273 O 119.888 4.74101 -3.1715 0
M  V30 1274 O 118.822 3.658 -4.7799 0
M  V30 1275 H 122.648 0.947304 -2.88548 0
M  V30 1276 H 120.233 0.403123 -1.43859 0
M  V30 1277 H 122.115 3.37352 -2.5253 0
M  V30 1278 H 120.79 2.90684 -1.42423 0
M  V30 1279 H 119.697 1.63803 -3.36332 0
M  V30 1280 H 121.03 2.17282 -4.41644 0
M  V30 1281 N 122.682 1.50554 0.465978 0
M  V30 1282 C 123.612 1.72722 1.57128 0
M  V30 1283 C 124.593 0.576294 1.6004 0
M  V30 1284 O 125.778 0.81598 1.76225 0
M  V30 1285 C 122.908 1.82605 2.95419 0
M  V30 1286 C 121.862 2.97835 3.07373 0
M  V30 1287 C 121.188 2.92867 4.47363 0
M  V30 1288 C 122.488 4.38265 2.84114 0
M  V30 1289 H 124.182 2.65267 1.38829 0
M  V30 1290 H 121.728 1.2765 0.666441 0
M  V30 1291 H 123.681 1.96698 3.72677 0
M  V30 1292 H 122.405 0.866858 3.14886 0
M  V30 1293 H 121.064 2.83401 2.3255 0
M  V30 1294 H 120.712 1.94783 4.63755 0
M  V30 1295 H 120.412 3.70227 4.56296 0
M  V30 1296 H 121.936 3.09015 5.26633 0
M  V30 1297 H 123.35 4.53198 3.51118 0
M  V30 1298 H 121.747 5.17115 3.04487 0
M  V30 1299 H 122.817 4.50281 1.7993 0
M  V30 1300 N 124.16 -0.719506 1.40217 0
M  V30 1301 C 125.409 -1.47486 1.37589 0
M  V30 1302 C 125.722 -1.9559 -0.0201568 0
M  V30 1303 O 126.928 -2.70973 -0.169049 0
M  V30 1304 C 125.384 -2.66575 2.41796 0
M  V30 1305 C 124.992 -2.25358 3.87192 0
M  V30 1306 C 126.736 -3.4433 2.48269 0
M  V30 1307 C 124.643 -3.41262 4.83005 0
M  V30 1308 H 123.573 -0.553901 0.511576 0
M  V30 1309 H 126.224 -0.783427 1.65936 0
M  V30 1310 H 124.606 -3.3787 2.06543 0
M  V30 1311 H 125.78 -1.61509 4.31569 0
M  V30 1312 H 124.095 -1.60657 3.84159 0
M  V30 1313 H 126.692 -4.30569 3.17041 0
M  V30 1314 H 127.035 -3.87872 1.51198 0
M  V30 1315 H 127.568 -2.80076 2.82493 0
M  V30 1316 H 124.307 -3.02755 5.81394 0
M  V30 1317 H 123.827 -4.0404 4.43297 0
M  V30 1318 H 125.506 -4.07383 5.02641 0
M  V30 1319 N 125.638 -1.25649 -0.95132 0
M  V30 1320 C 126.585 -1.06323 -2.04851 0
M  V30 1321 C 127.555 0.0286491 -1.66075 0
M  V30 1322 O 128.74 -0.12917 -1.90362 0
M  V30 1323 C 125.88 -0.691529 -3.381 0
M  V30 1324 C 124.993 -1.85861 -3.89974 0
M  V30 1325 C 124.128 -1.43096 -5.11563 0
M  V30 1326 C 123.167 -2.56696 -5.55674 0
M  V30 1327 N 122.304 -2.14684 -6.68472 0
M  V30 1328 H 127.144 -2.00222 -2.20715 0
M  V30 1329 H 124.681 -0.997027 -1.08156 0
M  V30 1330 H 126.639 -0.456963 -4.1469 0
M  V30 1331 H 125.269 0.210474 -3.22113 0
M  V30 1332 H 124.321 -2.20639 -3.09875 0
M  V30 1333 H 125.633 -2.71161 -4.18657 0
M  V30 1334 H 124.787 -1.15624 -5.9558 0
M  V30 1335 H 123.526 -0.548722 -4.84603 0
M  V30 1336 H 122.531 -2.84909 -4.7022 0
M  V30 1337 H 123.756 -3.45503 -5.8464 0
M  V30 1338 H 121.702 -1.28881 -6.43215 0
M  V30 1339 H 121.619 -2.9353 -6.96689 0
M  V30 1340 H 122.887 -1.90397 -7.5589 0
M  V30 1341 N 127.117 1.15442 -1.07289 0
M  V30 1342 C 128.064 2.20161 -0.692653 0
M  V30 1343 C 129.034 1.63073 0.31564 0
M  V30 1344 O 130.219 1.89725 0.202235 0
M  V30 1345 C 127.359 3.44967 -0.0959509 0
M  V30 1346 C 126.472 4.16256 -1.15564 0
M  V30 1347 C 125.607 5.28609 -0.524011 0
M  V30 1348 C 124.646 5.91715 -1.56653 0
M  V30 1349 N 123.783 6.9554 -0.957531 0
M  V30 1350 H 128.623 2.52037 -1.59002 0
M  V30 1351 H 126.16 1.2378 -0.794798 0
M  V30 1352 H 128.118 4.16341 0.267628 0
M  V30 1353 H 126.748 3.1361 0.764772 0
M  V30 1354 H 125.8 3.43385 -1.6368 0
M  V30 1355 H 127.112 4.59268 -1.94613 0
M  V30 1356 H 126.266 6.06604 -0.108032 0
M  V30 1357 H 125.005 4.86787 0.29825 0
M  V30 1358 H 124.01 5.12433 -1.9923 0
M  V30 1359 H 125.235 6.35614 -2.39107 0
M  V30 1360 H 123.181 6.55814 -0.156162 0
M  V30 1361 H 123.098 7.36977 -1.68526 0
M  V30 1362 H 124.366 7.77435 -0.567032 0
M  V30 1363 N 128.595 0.856903 1.32268 0
M  V30 1364 C 130.006 0.515711 1.79436 0
M  V30 1365 C 130.357 -0.966586 1.70738 0
M  V30 1366 O 129.482 -1.75409 1.26731 0
M  V30 1367 C 130.077 0.929335 3.25805 0
M  V30 1368 C 128.636 0.640006 3.70919 0
M  V30 1369 C 127.783 1.12784 2.53328 0
M  V30 1370 H 130.734 1.04389 1.19535 0
M  V30 1371 H 130.755 0.246633 3.797 0
M  V30 1372 H 130.267 2.00821 3.32103 0
M  V30 1373 H 128.368 -0.428051 3.70133 0
M  V30 1374 H 128.481 1.20788 4.63624 0
M  V30 1375 H 126.845 0.548033 2.48734 0
M  V30 1376 H 127.628 2.21387 2.62379 0
M  V30 1377 N 130.073 -1.45103 0.615059 0
M  V30 1378 C 131.021 -2.32331 -0.111791 0
M  V30 1379 C 132.015 -1.46409 -0.852102 0
M  V30 1380 O 133.221 -1.62849 -0.766821 0
M  V30 1381 H 129.596 -0.749993 -0.0549072 0
M  V30 1382 H 131.567 -2.91407 0.642225 0
M  V30 1383 C 130.316 -3.3015 -1.09071 0
M  V30 1384 H 129.639 -3.96265 -0.530485 0
M  V30 1385 H 131.079 -3.93898 -1.56908 0
M  V30 1386 C 129.538 -2.57875 -2.168 0
M  V30 1387 O 130.068 -2.36567 -3.24652 0
M  V30 1388 N 128.274 -2.17884 -1.92289 0
M  V30 1389 H 127.821 -2.35413 -1.04587 0
M  V30 1390 H 127.779 -1.6985 -2.64572 0
M  V30 1391 N 131.551 -0.354651 -1.53558 0
M  V30 1392 C 132.797 0.238797 -2.01389 0
M  V30 1393 C 133.13 1.49309 -1.2418 0
M  V30 1394 O 132.405 1.91638 -0.332457 0
M  V30 1395 C 132.688 0.541771 -3.56001 0
M  V30 1396 C 132.541 -0.725388 -4.43912 0
M  V30 1397 C 133.86 1.34685 -4.18984 0
M  V30 1398 H 130.979 0.0853177 -0.732045 0
M  V30 1399 H 133.621 -0.477384 -1.83905 0
M  V30 1400 H 131.771 1.15189 -3.71031 0
M  V30 1401 H 133.443 -1.36313 -4.407 0
M  V30 1402 H 131.686 -1.34801 -4.12324 0
M  V30 1403 H 132.357 -0.468505 -5.50008 0
M  V30 1404 H 134.833 0.830837 -4.07721 0
M  V30 1405 H 133.709 1.52759 -5.27215 0
M  V30 1406 H 133.97 2.35221 -3.74331 0
M  V30 1407 N 133.029 1.57378 -0.0835403 0
M  V30 1408 C 134.254 1.98682 0.594987 0
M  V30 1409 C 134.679 0.961969 1.61641 0
M  V30 1410 O 134.037 -0.0709989 1.81161 0
M  V30 1411 C 134.085 3.38988 1.2296 0
M  V30 1412 O 133.189 3.39208 2.34546 0
M  V30 1413 H 132.53 0.646368 0.152002 0
M  V30 1414 H 135.06 2.03961 -0.161533 0
M  V30 1415 H 135.07 3.76431 1.57366 0
M  V30 1416 H 133.745 4.13107 0.481228 0
M  V30 1417 H 132.322 3.13548 2.01846 0
M  V30 1418 N 134.507 -0.190092 1.56449 0
M  V30 1419 C 135.918 -0.754312 1.70784 0
M  V30 1420 C 136.269 -1.83631 0.690951 0
M  V30 1421 O 135.394 -2.15868 -0.151604 0
M  V30 1422 C 135.989 -1.37503 3.09642 0
M  V30 1423 C 134.548 -1.88628 3.25725 0
M  V30 1424 C 133.695 -0.758098 2.66736 0
M  V30 1425 H 136.646 0.0350524 1.58661 0
M  V30 1426 H 136.667 -2.2445 3.0725 0
M  V30 1427 H 136.179 -0.587302 3.83631 0
M  V30 1428 H 134.28 -2.70103 2.56661 0
M  V30 1429 H 134.393 -2.04462 4.3328 0
M  V30 1430 H 132.757 -1.17369 2.26046 0
M  V30 1431 H 133.54 0.0174705 3.43296 0
M  V30 1432 N 135.985 -1.50799 -0.457987 0
M  V30 1433 C 136.932 -1.70617 -1.5543 0
M  V30 1434 C 137.902 -0.547562 -1.56815 0
M  V30 1435 O 139.087 -0.779647 -1.74144 0
M  V30 1436 C 136.227 -1.81831 -2.93311 0
M  V30 1437 C 135.34 -3.09278 -3.01615 0
M  V30 1438 C 134.475 -3.11209 -4.30491 0
M  V30 1439 C 133.514 -4.33055 -4.32585 0
M  V30 1440 N 132.651 -4.32652 -5.52952 0
M  V30 1441 H 137.491 -2.64207 -1.37836 0
M  V30 1442 H 135.028 -1.30959 -0.669937 0
M  V30 1443 H 136.986 -1.86314 -3.73287 0
M  V30 1444 H 135.616 -0.916685 -3.0951 0
M  V30 1445 H 134.668 -3.14203 -2.1443 0
M  V30 1446 H 135.98 -3.99233 -2.99022 0
M  V30 1447 H 135.134 -3.14494 -5.18824 0
M  V30 1448 H 133.873 -2.19106 -4.35711 0
M  V30 1449 H 132.878 -4.29969 -3.42647 0
M  V30 1450 H 134.103 -5.264 -4.29046 0
M  V30 1451 H 132.049 -3.43409 -5.58933 0
M  V30 1452 H 131.966 -5.16392 -5.52155 0
M  V30 1453 H 133.234 -4.40101 -6.43375 0
M  V30 1454 N 137.463 0.71206 -1.40597 0
M  V30 1455 C 138.709 1.47416 -1.39271 0
M  V30 1456 C 139.042 1.942 0.00388791 0
M  V30 1457 O 138.317 1.68403 0.973179 0
M  V30 1458 C 138.6 2.69774 -2.38525 0
M  V30 1459 C 138.453 2.28861 -3.87224 0
M  V30 1460 C 139.772 3.71939 -2.35264 0
M  V30 1461 H 136.891 0.534713 -0.5072 0
M  V30 1462 H 139.533 0.812375 -1.71757 0
M  V30 1463 H 137.683 3.26238 -2.10953 0
M  V30 1464 H 139.355 1.77852 -4.25636 0
M  V30 1465 H 137.598 1.60824 -4.02887 0
M  V30 1466 H 138.269 3.16584 -4.52193 0
M  V30 1467 H 140.745 3.25113 -2.59694 0
M  V30 1468 H 139.621 4.55186 -3.06753 0
M  V30 1469 H 139.882 4.20484 -1.36549 0
M  V30 1470 N 138.941 1.26152 0.944643 0
M  V30 1471 C 140.357 1.03189 1.21754 0
M  V30 1472 C 140.557 -0.245112 2.00004 0
M  V30 1473 O 139.613 -0.955176 2.33736 0
M  V30 1474 C 140.926 2.26119 1.98219 0
M  V30 1475 C 142.474 2.30984 2.11224 0
M  V30 1476 C 142.949 3.53597 2.91089 0
M  V30 1477 N 144.44 3.54053 2.98664 0
M  V30 1478 C 145.175 4.45593 3.60881 0
M  V30 1479 N 144.671 5.47416 4.24626 0
M  V30 1480 N 146.464 4.33252 3.58119 0
M  V30 1481 H 138.615 2.08177 0.421437 0
M  V30 1482 H 140.878 0.914723 0.248969 0
M  V30 1483 H 140.584 3.18984 1.48128 0
M  V30 1484 H 140.458 2.3009 2.98895 0
M  V30 1485 H 142.845 1.38635 2.60508 0
M  V30 1486 H 142.926 2.31026 1.09821 0
M  V30 1487 H 142.57 4.46273 2.42493 0
M  V30 1488 H 142.5 3.50802 3.92741 0
M  V30 1489 H 144.991 2.80403 2.53343 0
M  V30 1490 H 145.304 6.13459 4.69987 0
M  V30 1491 H 143.649 5.51278 4.23223 0
M  V30 1492 H 146.84 3.52924 3.0751 0
M  V30 1493 H 147.013 5.04786 4.06319 0
M  V30 1494 N 140.419 -1.14872 1.07899 0
M  V30 1495 C 141.329 -2.2341 0.715915 0
M  V30 1496 C 142.345 -1.71808 -0.275306 0
M  V30 1497 O 143.521 -2.01039 -0.120545 0
M  V30 1498 C 140.586 -3.46474 0.125168 0
M  V30 1499 C 139.647 -4.13039 1.17034 0
M  V30 1500 C 138.88 -5.30229 0.607688 0
M  V30 1501 O 139.103 -5.675 -0.574497 0
M  V30 1502 O 138.037 -5.86444 1.35526 0
M  V30 1503 H 141.863 -2.56808 1.62121 0
M  V30 1504 H 139.448 -1.22702 0.852322 0
M  V30 1505 H 141.33 -4.20917 -0.201729 0
M  V30 1506 H 140.005 -3.14811 -0.753364 0
M  V30 1507 H 138.912 -3.40493 1.54968 0
M  V30 1508 H 140.245 -4.48796 2.02097 0
M  V30 1509 N 141.898 -0.863906 -1.31812 0
M  V30 1510 C 142.828 -0.330843 -2.31144 0
M  V30 1511 C 143.809 0.575005 -1.60087 0
M  V30 1512 O 144.994 0.493304 -1.8783 0
M  V30 1513 C 142.124 0.47374 -3.44054 0
M  V30 1514 C 141.078 -0.338481 -4.26659 0
M  V30 1515 C 140.404 0.591412 -5.31419 0
M  V30 1516 C 141.704 -1.56926 -4.98168 0
M  V30 1517 H 143.398 -1.16086 -2.75979 0
M  V30 1518 H 140.944 -0.559657 -1.32679 0
M  V30 1519 H 142.897 0.857143 -4.12591 0
M  V30 1520 H 141.621 1.33721 -2.9797 0
M  V30 1521 H 140.28 -0.703754 -3.59782 0
M  V30 1522 H 139.928 1.45199 -4.81587 0
M  V30 1523 H 139.628 0.0519022 -5.87577 0
M  V30 1524 H 141.152 0.97179 -6.02817 0
M  V30 1525 H 142.566 -1.25764 -5.59336 0
M  V30 1526 H 140.963 -2.04739 -5.64094 0
M  V30 1527 H 142.033 -2.32544 -4.25501 0
M  V30 1528 N 143.376 1.44774 -0.622745 0
M  V30 1529 C 144.306 2.33382 0.0741861 0
M  V30 1530 C 145.287 1.47719 0.843387 0
M  V30 1531 O 146.472 1.76458 0.810934 0
M  V30 1532 C 143.602 3.30663 1.06204 0
M  V30 1533 C 142.556 4.26079 0.405037 0
M  V30 1534 C 141.882 5.13165 1.5022 0
M  V30 1535 C 143.182 5.1781 -0.683414 0
M  V30 1536 H 144.876 2.91905 -0.665713 0
M  V30 1537 H 142.422 1.40363 -0.321587 0
M  V30 1538 H 144.375 3.9153 1.55827 0
M  V30 1539 H 143.099 2.70331 1.83272 0
M  V30 1540 H 141.758 3.66532 -0.0704683 0
M  V30 1541 H 141.406 4.49191 2.26355 0
M  V30 1542 H 141.106 5.77812 1.06803 0
M  V30 1543 H 142.63 5.76902 2.00041 0
M  V30 1544 H 144.044 5.72661 -0.270631 0
M  V30 1545 H 142.441 5.91015 -1.04023 0
M  V30 1546 H 143.511 4.59326 -1.55395 0
M  V30 1547 N 144.854 0.36279 1.53368 0
M  V30 1548 C 145.786 -0.519668 2.23231 0
M  V30 1549 C 146.799 -1.04844 1.24546 0
M  V30 1550 O 147.988 -0.955296 1.50786 0
M  V30 1551 C 145.088 -1.72995 2.9142 0
M  V30 1552 C 144.261 -1.33316 4.16588 0
M  V30 1553 C 143.32 -2.40521 4.68013 0
M  V30 1554 O 142.346 -2.03027 5.3176 0
M  V30 1555 N 143.548 -3.72065 4.45587 0
M  V30 1556 H 146.313 0.078751 2.99597 0
M  V30 1557 H 143.874 0.187833 1.60807 0
M  V30 1558 H 145.866 -2.44184 3.22733 0
M  V30 1559 H 144.436 -2.2353 2.18525 0
M  V30 1560 H 143.656 -0.451236 3.91609 0
M  V30 1561 H 144.944 -1.04432 4.97967 0
M  V30 1562 H 144.342 -4.05304 3.94646 0
M  V30 1563 H 142.899 -4.39366 4.81457 0
M  V30 1564 N 146.332 -1.57332 0.0918853 0
M  V30 1565 C 147.264 -2.10869 -0.898168 0
M  V30 1566 C 148.277 -1.04521 -1.24817 0
M  V30 1567 O 149.466 -1.31977 -1.20184 0
M  V30 1568 C 146.566 -2.57083 -2.2082 0
M  V30 1569 C 145.739 -3.87229 -2.03402 0
M  V30 1570 C 144.798 -4.19324 -3.17889 0
M  V30 1571 O 143.824 -4.88598 -2.91994 0
M  V30 1572 N 145.026 -3.74471 -4.43567 0
M  V30 1573 H 147.791 -2.96439 -0.440943 0
M  V30 1574 H 145.352 -1.61631 -0.0933064 0
M  V30 1575 H 147.344 -2.75602 -2.96354 0
M  V30 1576 H 145.914 -1.76541 -2.57977 0
M  V30 1577 H 145.134 -3.7789 -1.12218 0
M  V30 1578 H 146.422 -4.72379 -1.89038 0
M  V30 1579 H 145.82 -3.18546 -4.67488 0
M  V30 1580 H 144.377 -3.98151 -5.16061 0
M  V30 1581 N 147.81 0.181792 -1.56548 0
M  V30 1582 C 149.059 0.898348 -1.8059 0
M  V30 1583 C 149.372 1.83862 -0.667379 0
M  V30 1584 O 150.578 2.59678 -0.792446 0
M  V30 1585 C 149.034 1.64791 -3.19956 0
M  V30 1586 C 148.642 0.751789 -4.41647 0
M  V30 1587 C 150.386 2.35331 -3.53298 0
M  V30 1588 C 148.293 1.50098 -5.72035 0
M  V30 1589 H 147.223 0.339194 -0.673397 0
M  V30 1590 H 149.874 0.151413 -1.82874 0
M  V30 1591 H 148.256 2.43921 -3.11959 0
M  V30 1592 H 149.43 -0.0018076 -4.608 0
M  V30 1593 H 147.745 0.156562 -4.16106 0
M  V30 1594 H 150.342 2.91958 -4.47956 0
M  V30 1595 H 150.685 3.10164 -2.77676 0
M  V30 1596 H 151.218 1.63154 -3.62803 0
M  V30 1597 H 147.957 0.795175 -6.50659 0
M  V30 1598 H 147.477 2.22817 -5.56878 0
M  V30 1599 H 149.156 2.05125 -6.13622 0
M  V30 1600 N 149.288 1.51039 0.449983 0
M  V30 1601 C 150.513 1.6715 1.22783 0
M  V30 1602 C 150.938 0.363081 1.84563 0
M  V30 1603 O 150.296 -0.675433 1.68249 0
M  V30 1604 C 150.344 2.77985 2.29689 0
M  V30 1605 O 149.448 2.40707 3.34864 0
M  V30 1606 H 148.789 0.557746 0.360299 0
M  V30 1607 H 151.319 1.97535 0.533005 0
M  V30 1608 H 151.329 3.01693 2.74673 0
M  V30 1609 H 150.004 3.72935 1.84098 0
M  V30 1610 H 148.581 2.27523 2.95445 0
M  V30 1611 N 150.766 -0.704594 1.40972 0
M  V30 1612 C 151.729 -1.80035 1.41845 0
M  V30 1613 C 152.729 -1.57774 0.310474 0
M  V30 1614 O 153.919 -1.64613 0.56992 0
M  V30 1615 C 151.051 -3.18284 1.22098 0
M  V30 1616 H 152.244 -1.80658 2.3938 0
M  V30 1617 H 149.797 -0.911329 1.26982 0
M  V30 1618 H 150.532 -3.23306 0.253672 0
M  V30 1619 H 150.317 -3.35843 2.02366 0
M  V30 1620 H 151.807 -3.98289 1.25522 0
M  V30 1621 N 152.244 -1.26651 -0.937939 0
M  V30 1622 C 153.491 -1.12387 -1.6845 0
M  V30 1623 C 153.819 0.332208 -1.91642 0
M  V30 1624 O 153.074 1.2602 -1.49725 0
M  V30 1625 C 153.373 -1.84168 -3.06295 0
M  V30 1626 C 153.039 -3.34056 -3.02849 0
M  V30 1627 C 151.701 -3.74942 -3.01616 0
M  V30 1628 C 154.053 -4.29741 -2.9491 0
M  V30 1629 C 151.381 -5.09894 -2.90215 0
M  V30 1630 C 153.733 -5.64738 -2.8505 0
M  V30 1631 C 152.397 -6.0493 -2.82162 0
M  V30 1632 H 151.667 -0.411252 -0.616403 0
M  V30 1633 H 154.314 -1.57134 -1.09459 0
M  V30 1634 H 152.619 -1.319 -3.6893 0
M  V30 1635 H 154.316 -1.70569 -3.62915 0
M  V30 1636 H 150.906 -3.01534 -3.0459 0
M  V30 1637 H 155.09 -3.99133 -2.94969 0
M  V30 1638 H 150.346 -5.40194 -2.86358 0
M  V30 1639 H 154.52 -6.38561 -2.77872 0
M  V30 1640 H 152.147 -7.09457 -2.73084 0
M  V30 1641 N 153.722 1.14298 -1.08507 0
M  V30 1642 C 154.999 1.81544 -0.728088 0
M  V30 1643 C 155.379 1.95838 0.78808 0
M  V30 1644 O 154.727 1.51904 1.70697 0
M  V30 1645 C 154.937 3.17169 -1.45619 0
M  V30 1646 C 156.285 3.9265 -1.61591 0
M  V30 1647 O 157.309 3.26762 -1.41793 0
M  V30 1648 O 156.168 5.10807 -1.94263 0
M  V30 1649 H 153.262 0.78491 -0.260471 0
M  V30 1650 H 155.808 1.21307 -1.18671 0
M  V30 1651 H 154.58 3.01934 -2.489 0
M  V30 1652 H 154.203 3.851 -0.989124 0
M  V30 1653 N 155.201 0.870884 1.31352 0
M  V30 1654 C 156.149 0.316445 2.30437 0
M  V30 1655 C 157.143 -0.568965 1.59559 0
M  V30 1656 O 158.349 -0.454964 1.74155 0
M  V30 1657 H 154.724 0.0836521 0.747333 0
M  V30 1658 H 156.695 1.16606 2.74673 0
M  V30 1659 C 155.444 -0.46635 3.44558 0
M  V30 1660 H 154.767 0.205687 3.99271 0
M  V30 1661 H 156.207 -0.819614 4.16003 0
M  V30 1662 C 154.666 -1.65797 2.9328 0
M  V30 1663 O 155.196 -2.75728 2.92125 0
M  V30 1664 N 153.402 -1.49041 2.4947 0
M  V30 1665 H 152.949 -0.59612 2.50608 0
M  V30 1666 H 152.907 -2.28911 2.15516 0
M  V30 1667 N 156.679 -1.44442 0.630414 0
M  V30 1668 C 157.925 -2.02351 0.134816 0
M  V30 1669 C 158.258 -1.4947 -1.23986 0
M  V30 1670 O 157.533 -0.678475 -1.82283 0
M  V30 1671 C 157.816 -3.59898 0.120707 0
M  V30 1672 C 157.669 -4.23063 1.52767 0
M  V30 1673 C 158.988 -4.36585 -0.555127 0
M  V30 1674 H 156.107 -0.73527 0.0504646 0
M  V30 1675 H 158.749 -1.72022 0.806751 0
M  V30 1676 H 156.899 -3.85868 -0.451477 0
M  V30 1677 H 158.571 -4.08202 2.14869 0
M  V30 1678 H 156.814 -3.80586 2.08175 0
M  V30 1679 H 157.485 -5.32071 1.46984 0
M  V30 1680 H 159.961 -4.16044 -0.0685429 0
M  V30 1681 H 158.837 -5.46294 -0.534185 0
M  V30 1682 H 159.098 -4.11138 -1.62535 0
M  V30 1683 N 158.157 -0.370918 -1.53173 0
M  V30 1684 C 159.568 0.107139 -1.86392 0
M  V30 1685 C 159.919 1.47714 -1.29132 0
M  V30 1686 O 159.044 2.07464 -0.615439 0
M  V30 1687 C 159.639 0.201187 -3.38202 0
M  V30 1688 C 158.198 0.623507 -3.712 0
M  V30 1689 C 157.345 -0.225978 -2.76378 0
M  V30 1690 H 160.296 -0.58951 -1.47345 0
M  V30 1691 H 160.317 1.02377 -3.66468 0
M  V30 1692 H 159.829 -0.796058 -3.79848 0
M  V30 1693 H 157.93 1.62879 -3.35114 0
M  V30 1694 H 158.043 0.394414 -4.77474 0
M  V30 1695 H 156.407 0.305962 -2.52856 0
M  V30 1696 H 157.19 -1.22086 -3.20858 0
M  V30 1697 N 159.635 1.57281 -0.100228 0
M  V30 1698 C 161.051 1.57527 0.256416 0
M  V30 1699 C 161.251 1.11173 1.68056 0
M  V30 1700 O 160.307 0.79053 2.39806 0
M  V30 1701 C 161.62 3.00673 0.0401747 0
M  V30 1702 C 163.168 3.12815 0.107528 0
M  V30 1703 C 163.643 4.57929 -0.0807834 0
M  V30 1704 N 165.134 4.63193 -0.0261207 0
M  V30 1705 C 165.869 5.73212 -0.146999 0
M  V30 1706 N 165.365 6.92047 -0.322999 0
M  V30 1707 N 167.158 5.62031 -0.0879044 0
M  V30 1708 H 159.309 1.85718 -1.03065 0
M  V30 1709 H 161.572 0.857446 -0.404339 0
M  V30 1710 H 161.278 3.38804 -0.943649 0
M  V30 1711 H 161.152 3.69042 0.780262 0
M  V30 1712 H 163.539 2.74554 1.08186 0
M  V30 1713 H 163.62 2.47028 -0.664134 0
M  V30 1714 H 163.264 4.96886 -1.05201 0
M  V30 1715 H 163.194 5.21783 0.710635 0
M  V30 1716 H 165.685 3.77748 0.107161 0
M  V30 1717 H 165.998 7.7173 -0.406608 0
M  V30 1718 H 164.343 6.94074 -0.358733 0
M  V30 1719 H 167.534 4.68075 0.048498 0
M  V30 1720 H 167.707 6.47734 -0.185557 0
M  V30 1721 N 161.113 -0.173488 1.56642 0
M  V30 1722 C 162.06 -1.21482 1.96242 0
M  V30 1723 C 163.03 -1.44104 0.826027 0
M  V30 1724 O 164.215 -1.5688 1.08597 0
M  V30 1725 C 161.355 -2.54964 2.32567 0
M  V30 1726 C 160.468 -2.39739 3.59373 0
M  V30 1727 C 159.603 -3.66072 3.84921 0
M  V30 1728 C 158.642 -3.45771 5.05083 0
M  V30 1729 N 157.779 -4.64169 5.26775 0
M  V30 1730 H 162.619 -0.870123 2.85014 0
M  V30 1731 H 160.156 -0.418245 1.41029 0
M  V30 1732 H 162.114 -3.32758 2.5165 0
M  V30 1733 H 160.744 -2.87433 1.46908 0
M  V30 1734 H 159.796 -1.53131 3.48217 0
M  V30 1735 H 161.108 -2.20683 4.47326 0
M  V30 1736 H 160.262 -4.52303 4.0436 0
M  V30 1737 H 159.001 -3.88105 2.9534 0
M  V30 1738 H 158.006 -2.57927 4.85545 0
M  V30 1739 H 159.231 -3.25163 5.96193 0
M  V30 1740 H 157.177 -4.86425 4.40144 0
M  V30 1741 H 157.094 -4.48019 6.08946 0
M  V30 1742 H 158.362 -5.51689 5.5069 0
M  V30 1743 N 162.591 -1.51276 -0.441967 0
M  V30 1744 C 163.538 -1.72256 -1.53612 0
M  V30 1745 C 164.508 -0.564164 -1.56225 0
M  V30 1746 O 165.693 -0.798074 -1.73307 0
M  V30 1747 C 162.833 -1.84932 -2.91366 0
M  V30 1748 C 161.946 -3.12459 -2.98317 0
M  V30 1749 C 161.081 -3.15758 -4.27166 0
M  V30 1750 C 160.12 -4.37619 -4.27967 0
M  V30 1751 N 159.257 -4.38493 -5.48333 0
M  V30 1752 H 164.097 -2.65654 -1.35026 0
M  V30 1753 H 161.634 -1.31662 -0.656009 0
M  V30 1754 H 163.592 -1.90263 -3.7129 0
M  V30 1755 H 162.222 -0.949461 -3.08521 0
M  V30 1756 H 161.274 -3.1646 -2.11086 0
M  V30 1757 H 162.586 -4.02382 -2.94771 0
M  V30 1758 H 161.74 -3.19979 -5.15459 0
M  V30 1759 H 160.479 -2.23715 -4.33362 0
M  V30 1760 H 159.484 -4.33579 -3.38067 0
M  V30 1761 H 160.709 -5.30921 -4.23438 0
M  V30 1762 H 158.655 -3.49318 -5.55259 0
M  V30 1763 H 158.572 -5.22219 -5.46647 0
M  V30 1764 H 159.84 -4.469 -6.38671 0
M  V30 1765 N 164.069 0.697108 -1.41344 0
M  V30 1766 C 165.032 1.79281 -1.42797 0
M  V30 1767 C 166.032 1.57607 -0.318837 0
M  V30 1768 O 167.222 1.64309 -0.578642 0
M  V30 1769 C 164.354 3.17632 -1.23785 0
M  V30 1770 H 165.547 1.79385 -2.40335 0
M  V30 1771 H 163.1 0.904582 -1.27464 0
M  V30 1772 H 163.835 3.23167 -0.270814 0
M  V30 1773 H 163.62 3.34765 -2.04144 0
M  V30 1774 H 165.11 3.97617 -1.27633 0
M  V30 1775 N 165.547 1.27147 0.931209 0
M  V30 1776 C 166.494 1.09568 2.03134 0
M  V30 1777 C 167.464 -0.00222433 1.661 0
M  V30 1778 O 168.649 0.159439 1.90133 0
M  V30 1779 C 165.789 0.745231 3.36957 0
M  V30 1780 C 164.902 1.92041 3.86968 0
M  V30 1781 C 164.037 1.51216 5.09222 0
M  V30 1782 C 163.076 2.65504 5.5152 0
M  V30 1783 N 162.213 2.25291 6.64972 0
M  V30 1784 H 167.053 2.03708 2.17502 0
M  V30 1785 H 164.59 1.01411 1.06556 0
M  V30 1786 H 166.548 0.522878 4.1391 0
M  V30 1787 H 165.178 -0.159202 3.22407 0
M  V30 1788 H 164.23 2.25541 3.06326 0
M  V30 1789 H 165.542 2.77787 4.1429 0
M  V30 1790 H 164.696 1.25084 5.93666 0
M  V30 1791 H 163.435 0.625749 4.83669 0
M  V30 1792 H 162.44 2.92354 4.65628 0
M  V30 1793 H 163.665 3.54761 5.7907 0
M  V30 1794 H 161.611 1.39098 6.41083 0
M  V30 1795 H 161.528 3.04577 6.91931 0
M  V30 1796 H 162.796 2.02398 7.52765 0
M  V30 1797 N 167.025 -1.13721 1.09112 0
M  V30 1798 C 168.272 -1.84924 0.825192 0
M  V30 1799 C 168.6 -1.83347 -0.649151 0
M  V30 1800 O 167.855 -1.26449 -1.49362 0
M  V30 1801 C 168.154 -3.32861 1.30146 0
M  V30 1802 C 167.82 -3.54621 2.78486 0
M  V30 1803 C 166.482 -3.60268 3.18999 0
M  V30 1804 C 168.834 -3.62855 3.74146 0
M  V30 1805 C 166.162 -3.71679 4.53951 0
M  V30 1806 C 168.514 -3.75793 5.08883 0
M  V30 1807 C 167.178 -3.79692 5.4899 0
M  V30 1808 H 166.448 -0.676684 0.301959 0
M  V30 1809 H 169.095 -1.3428 1.36533 0
M  V30 1810 H 167.4 -3.85835 0.681064 0
M  V30 1811 H 169.097 -3.86395 1.07236 0
M  V30 1812 H 165.687 -3.50879 2.46134 0
M  V30 1813 H 169.871 -3.57775 3.43963 0
M  V30 1814 H 165.127 -3.72963 4.84467 0
M  V30 1815 H 169.301 -3.81107 5.82864 0
M  V30 1816 H 166.928 -3.88287 6.53558 0
M  V30 1817 N 168.503 -0.877838 -1.30888 0
M  V30 1818 C 169.435 -0.296607 -2.27273 0
M  V30 1819 C 170.448 0.544799 -1.53414 0
M  V30 1820 O 171.637 0.365511 -1.74718 0
M  V30 1821 C 168.737 0.597481 -3.33592 0
M  V30 1822 C 167.91 -0.213251 -4.3688 0
M  V30 1823 C 166.969 0.610208 -5.2265 0
M  V30 1824 O 165.995 0.035441 -5.69189 0
M  V30 1825 N 167.197 1.92071 -5.47804 0
M  V30 1826 H 169.962 -1.12492 -2.77787 0
M  V30 1827 H 167.523 -0.740105 -1.43993 0
M  V30 1828 H 169.515 1.15425 -3.87891 0
M  V30 1829 H 168.085 1.32647 -2.83061 0
M  V30 1830 H 167.305 -0.951466 -3.82545 0
M  V30 1831 H 168.593 -0.769262 -5.02951 0
M  V30 1832 H 167.991 2.4107 -5.11763 0
M  V30 1833 H 166.548 2.42508 -6.05007 0
M  V30 1834 N 169.982 1.44106 -0.638065 0
M  V30 1835 C 170.93 2.3248 0.0748149 0
M  V30 1836 C 171.924 1.47746 0.828702 0
M  V30 1837 O 173.13 1.64049 0.740816 0
M  V30 1838 H 169.505 0.750771 0.0429686 0
M  V30 1839 H 171.476 2.90348 -0.688504 0
M  V30 1840 C 170.225 3.31843 1.03805 0
M  V30 1841 H 169.548 3.97059 0.467375 0
M  V30 1842 H 170.988 3.96345 1.50622 0
M  V30 1843 C 169.447 2.61291 2.1267 0
M  V30 1844 O 169.977 2.41702 3.20847 0
M  V30 1845 N 168.183 2.20915 1.88798 0
M  V30 1846 H 167.73 2.37047 1.00829 0
M  V30 1847 H 167.688 1.74038 2.61836 0
M  V30 1848 N 171.46 0.379036 1.52974 0
M  V30 1849 C 172.706 -0.199244 2.02422 0
M  V30 1850 C 173.061 -1.4532 1.26095 0
M  V30 1851 O 172.354 -1.88377 0.34996 0
M  V30 1852 C 172.548 -0.53096 3.53434 0
M  V30 1853 C 172.377 0.689298 4.44386 0
M  V30 1854 C 171.147 1.20546 4.9071 0
M  V30 1855 C 173.345 1.55856 4.90116 0
M  V30 1856 N 171.327 2.38434 5.65705 0
M  V30 1857 C 172.698 2.58396 5.63588 0
M  V30 1858 C 174.753 1.57986 4.7217 0
M  V30 1859 C 173.456 3.62939 6.21022 0
M  V30 1860 C 175.482 2.6143 5.30479 0
M  V30 1861 C 174.844 3.62693 6.03849 0
M  V30 1862 H 170.943 -0.0352671 0.781204 0
M  V30 1863 H 173.527 0.526614 1.87443 0
M  V30 1864 H 171.698 -1.22588 3.68547 0
M  V30 1865 H 173.43 -1.0955 3.89591 0
M  V30 1866 H 170.185 0.768022 4.67331 0
M  V30 1867 H 170.609 2.98055 6.07859 0
M  V30 1868 H 175.251 0.810475 4.14959 0
M  V30 1869 H 172.969 4.40751 6.77321 0
M  V30 1870 H 176.555 2.63949 5.18481 0
M  V30 1871 H 175.435 4.41424 6.48163 0
M  V30 1872 N 172.938 -1.57226 0.108567 0
M  V30 1873 C 173.871 -2.10447 -0.882464 0
M  V30 1874 C 174.849 -1.01829 -1.26766 0
M  V30 1875 O 176.033 -1.29415 -1.37054 0
M  V30 1876 C 173.16 -2.59258 -2.17952 0
M  V30 1877 C 172.206 -3.79662 -1.94318 0
M  V30 1878 S 173.039 -5.22586 -1.16892 0
M  V30 1879 C 174.195 -5.74758 -2.47799 0
M  V30 1880 H 174.428 -2.94178 -0.429745 0
M  V30 1881 H 171.961 -1.54043 -0.105 0
M  V30 1882 H 173.919 -2.88036 -2.92482 0
M  V30 1883 H 172.58 -1.75728 -2.60343 0
M  V30 1884 H 171.773 -4.11928 -2.90399 0
M  V30 1885 H 171.375 -3.51446 -1.27913 0
M  V30 1886 H 173.667 -5.83846 -3.43701 0
M  V30 1887 H 174.61 -6.73027 -2.20093 0
M  V30 1888 H 175.018 -5.02763 -2.56689 0
M  V30 1889 N 174.416 0.165178 -1.56732 0
M  V30 1890 C 175.363 1.2044 -1.96883 0
M  V30 1891 C 176.333 1.43664 -0.833657 0
M  V30 1892 O 177.518 1.56302 -1.09427 0
M  V30 1893 C 174.658 2.53727 -2.33916 0
M  V30 1894 C 173.771 2.3783 -3.6064 0
M  V30 1895 C 172.906 3.64026 -3.86857 0
M  V30 1896 C 171.945 3.43088 -5.06909 0
M  V30 1897 N 171.082 4.61369 -5.29229 0
M  V30 1898 H 175.922 0.854996 -2.85471 0
M  V30 1899 H 173.459 0.41076 -1.41249 0
M  V30 1900 H 175.417 3.31419 -2.53411 0
M  V30 1901 H 174.047 2.8665 -1.48431 0
M  V30 1902 H 173.099 1.51282 -3.49024 0
M  V30 1903 H 174.411 2.18308 -4.4849 0
M  V30 1904 H 173.565 4.50152 -4.06753 0
M  V30 1905 H 172.304 3.86533 -2.97394 0
M  V30 1906 H 171.309 2.55349 -4.86906 0
M  V30 1907 H 172.534 3.21997 -5.97909 0
M  V30 1908 H 170.48 4.84084 -4.42718 0
M  V30 1909 H 170.397 4.44783 -6.11313 0
M  V30 1910 H 171.665 5.48761 -5.53608 0
M  V30 1911 N 175.894 1.51508 0.433938 0
M  V30 1912 C 176.842 1.73646 1.54757 0
M  V30 1913 C 177.836 0.602854 1.5831 0
M  V30 1914 O 179.042 0.784318 1.62014 0
M  V30 1915 H 175.417 0.548718 0.51421 0
M  V30 1916 H 177.388 2.66991 1.33261 0
M  V30 1917 C 176.137 1.88172 2.92381 0
M  V30 1918 H 175.46 2.74808 2.90381 0
M  V30 1919 H 176.9 2.07672 3.6966 0
M  V30 1920 C 175.359 0.64239 3.30719 0
M  V30 1921 O 175.889 -0.201362 4.01195 0
M  V30 1922 N 174.095 0.485489 2.86516 0
M  V30 1923 H 173.642 1.17318 2.29334 0
M  V30 1924 H 173.6 -0.342482 3.12529 0
M  V30 1925 N 177.372 -0.689602 1.41712 0
M  V30 1926 C 178.597 -1.48329 1.44959 0
M  V30 1927 C 179.022 -1.8801 0.0581283 0
M  V30 1928 O 178.38 -1.55026 -0.940035 0
M  V30 1929 C 178.428 -2.71835 2.36935 0
M  V30 1930 O 177.532 -3.69549 1.8305 0
M  V30 1931 H 176.873 -0.446199 0.491734 0
M  V30 1932 H 179.403 -0.847127 1.86239 0
M  V30 1933 H 179.413 -3.20076 2.53013 0
M  V30 1934 H 178.088 -2.42291 3.38035 0
M  V30 1935 H 176.665 -3.2851 1.76452 0
M  V30 1936 N 178.85 -1.27639 -0.924453 0
M  V30 1937 C 179.78 -1.13166 -2.04244 0
M  V30 1938 C 180.761 -0.032256 -1.70069 0
M  V30 1939 O 181.946 -0.207328 -1.9309 0
M  V30 1940 C 179.076 -0.781496 -3.38393 0
M  V30 1941 C 178.03 -1.83449 -3.86692 0
M  V30 1942 C 177.356 -1.33822 -5.17683 0
M  V30 1943 C 178.656 -3.23917 -4.09726 0
M  V30 1944 H 180.35 -2.06689 -2.1661 0
M  V30 1945 H 177.896 -0.995136 -1.04082 0
M  V30 1946 H 179.849 -0.667057 -4.16087 0
M  V30 1947 H 178.573 0.189439 -3.2605 0
M  V30 1948 H 177.232 -1.93789 -3.11193 0
M  V30 1949 H 176.88 -0.35665 -5.01734 0
M  V30 1950 H 176.58 -2.04224 -5.50968 0
M  V30 1951 H 178.104 -1.23679 -5.97943 0
M  V30 1952 H 179.518 -3.16559 -4.77978 0
M  V30 1953 H 177.915 -3.92059 -4.54324 0
M  V30 1954 H 178.985 -3.68729 -3.14908 0
M  V30 1955 N 180.328 1.1314 -1.09713 0
M  V30 1956 C 181.275 2.18642 -0.739196 0
M  V30 1957 C 182.245 1.63706 0.280978 0
M  V30 1958 O 183.43 1.90111 0.161946 0
M  V30 1959 C 180.57 3.44685 -0.169102 0
M  V30 1960 C 179.683 4.13711 -1.24367 0
M  V30 1961 C 178.818 5.27379 -0.636019 0
M  V30 1962 C 177.857 5.88259 -1.69169 0
M  V30 1963 N 176.994 6.93352 -1.10485 0
M  V30 1964 H 181.834 2.48607 -1.64312 0
M  V30 1965 H 179.371 1.22066 -0.820875 0
M  V30 1966 H 181.329 4.16815 0.179256 0
M  V30 1967 H 179.959 3.15161 0.698079 0
M  V30 1968 H 179.011 3.39835 -1.70927 0
M  V30 1969 H 180.323 4.55037 -2.04311 0
M  V30 1970 H 179.477 6.06238 -0.236677 0
M  V30 1971 H 178.216 4.8731 0.194928 0
M  V30 1972 H 177.221 5.08092 -2.10055 0
M  V30 1973 H 178.446 6.30399 -2.52536 0
M  V30 1974 H 176.392 6.55335 -0.295234 0
M  V30 1975 H 176.309 7.33236 -1.84121 0
M  V30 1976 H 177.577 7.76057 -0.73181 0
M  V30 1977 N 181.806 0.884767 1.30421 0
M  V30 1978 C 183.052 0.503851 1.96441 0
M  V30 1979 C 183.385 -0.944518 1.69684 0
M  V30 1980 O 182.66 -1.66737 1.00145 0
M  V30 1981 C 182.943 0.779085 3.51571 0
M  V30 1982 C 182.796 2.27807 3.87846 0
M  V30 1983 C 184.115 0.255452 4.39358 0
M  V30 1984 H 181.234 0.184533 0.713524 0
M  V30 1985 H 183.876 1.10872 1.54297 0
M  V30 1986 H 182.026 0.264274 3.876 0
M  V30 1987 H 183.698 2.86127 3.61841 0
M  V30 1988 H 181.941 2.74479 3.35922 0
M  V30 1989 H 182.612 2.42125 4.96064 0
M  V30 1990 H 185.088 0.696079 4.10236 0
M  V30 1991 H 183.964 0.477361 5.4682 0
M  V30 1992 H 184.225 -0.843293 4.33983 0
M  V30 1993 N 183.284 -1.43765 0.645699 0
M  V30 1994 C 184.234 -2.27884 -0.0726442 0
M  V30 1995 C 185.218 -1.39483 -0.802086 0
M  V30 1996 O 186.41 -1.63174 -0.685791 0
M  V30 1997 C 183.539 -3.27055 -1.04356 0
M  V30 1998 C 182.625 -4.22944 -0.312985 0
M  V30 1999 N 183.016 -5.01391 0.666386 0
M  V30 2000 C 181.314 -4.42528 -0.55546 0
M  V30 2001 C 182.015 -5.71217 1.09935 0
M  V30 2002 N 180.991 -5.41856 0.435137 0
M  V30 2003 H 184.793 -2.85949 0.678988 0
M  V30 2004 H 182.307 -1.55378 0.472368 0
M  V30 2005 H 184.304 -3.86089 -1.57292 0
M  V30 2006 H 182.964 -2.70551 -1.79534 0
M  V30 2007 H 183.975 -5.07252 1.04481 0
M  V30 2008 H 180.652 -3.97104 -1.28899 0
M  V30 2009 H 182.042 -6.44202 1.90929 0
M  V30 2010 N 184.763 -0.387143 -1.52771 0
M  V30 2011 C 185.988 0.198407 -2.06449 0
M  V30 2012 C 186.413 1.39918 -1.25716 0
M  V30 2013 O 185.771 1.79099 -0.281657 0
M  V30 2014 C 185.819 0.548893 -3.56398 0
M  V30 2015 O 184.923 1.64315 -3.78252 0
M  V30 2016 H 184.264 0.0237731 -0.663574 0
M  V30 2017 H 186.794 -0.553989 -1.96957 0
M  V30 2018 H 186.804 0.813812 -3.99801 0
M  V30 2019 H 185.479 -0.329005 -4.14597 0
M  V30 2020 H 184.056 1.37211 -3.46738 0
M  V30 2021 N 186.241 1.57166 -0.116904 0
M  V30 2022 C 187.518 1.86645 0.585049 0
M  V30 2023 C 187.898 1.0177 1.84949 0
M  V30 2024 O 187.246 0.0960379 2.28298 0
M  V30 2025 C 187.456 3.37736 0.879507 0
M  V30 2026 C 188.804 4.06289 1.23348 0
M  V30 2027 O 189.828 3.42743 0.969836 0
M  V30 2028 O 188.687 5.18455 1.7282 0
M  V30 2029 H 185.781 0.772593 0.295007 0
M  V30 2030 H 188.327 1.69025 -0.151249 0
M  V30 2031 H 187.099 3.91296 -0.0166136 0
M  V30 2032 H 186.722 3.6078 1.67103 0
M  V30 2033 N 187.719 -0.156864 1.56817 0
M  V30 2034 C 188.944 -0.890331 1.87318 0
M  V30 2035 C 189.369 -1.74394 0.704855 0
M  V30 2036 O 188.727 -1.77972 -0.345786 0
M  V30 2037 C 188.775 -1.73102 3.16336 0
M  V30 2038 O 187.879 -2.83422 2.99576 0
M  V30 2039 H 187.22 -0.24857 0.615718 0
M  V30 2040 H 189.75 -0.150649 2.04045 0
M  V30 2041 H 189.76 -2.12803 3.48107 0
M  V30 2042 H 188.435 -1.10412 4.00976 0
M  V30 2043 H 187.012 -2.47199 2.7919 0
M  V30 2044 N 189.197 -1.51736 -0.425897 0
M  V30 2045 C 190.443 -1.65214 -1.1761 0
M  V30 2046 C 190.776 -0.372778 -1.90589 0
M  V30 2047 O 190.051 0.628139 -1.84078 0
M  V30 2048 C 190.334 -2.86312 -2.18398 0
M  V30 2049 C 190.187 -4.24254 -1.49426 0
M  V30 2050 C 191.506 -3.02925 -3.19256 0
M  V30 2051 H 188.625 -0.601263 -0.426206 0
M  V30 2052 H 191.267 -1.8425 -0.463882 0
M  V30 2053 H 189.417 -2.70213 -2.79137 0
M  V30 2054 H 191.089 -4.52046 -0.919362 0
M  V30 2055 H 189.332 -4.26426 -0.796432 0
M  V30 2056 H 190.003 -5.05001 -2.22885 0
M  V30 2057 H 192.479 -3.1781 -2.68581 0
M  V30 2058 H 191.355 -3.89199 -3.8706 0
M  V30 2059 H 191.616 -2.15497 -3.86023 0
M  V30 2060 N 190.675 0.682077 -1.42076 0
M  V30 2061 C 191.605 1.80796 -1.47767 0
M  V30 2062 C 192.586 1.6677 -0.334954 0
M  V30 2063 O 193.771 1.863 -0.548264 0
M  V30 2064 C 190.901 3.19038 -1.37229 0
M  V30 2065 C 189.855 3.47789 -2.49453 0
M  V30 2066 C 189.181 4.8553 -2.23975 0
M  V30 2067 C 190.481 3.45411 -3.91776 0
M  V30 2068 H 192.175 1.7629 -2.41997 0
M  V30 2069 H 189.721 0.846721 -1.16476 0
M  V30 2070 H 191.674 3.97528 -1.39821 0
M  V30 2071 H 190.398 3.24204 -0.394907 0
M  V30 2072 H 189.057 2.71657 -2.46166 0
M  V30 2073 H 188.705 4.87337 -1.24547 0
M  V30 2074 H 188.405 5.0573 -2.99184 0
M  V30 2075 H 189.929 5.66312 -2.28304 0
M  V30 2076 H 191.343 4.13882 -3.96705 0
M  V30 2077 H 189.74 3.77145 -4.66778 0
M  V30 2078 H 190.81 2.44122 -4.18966 0
M  V30 2079 N 192.153 1.28127 0.917671 0
M  V30 2080 C 193.063 1.13556 2.05286 0
M  V30 2081 C 194.079 0.0630914 1.73886 0
M  V30 2082 O 195.255 0.271598 1.9956 0
M  V30 2083 C 192.32 0.794676 3.3747 0
M  V30 2084 C 191.381 1.94909 3.82504 0
M  V30 2085 C 190.614 1.62437 5.0838 0
M  V30 2086 O 190.837 0.536905 5.67867 0
M  V30 2087 O 189.771 2.46677 5.4903 0
M  V30 2088 H 193.597 2.08844 2.20495 0
M  V30 2089 H 191.182 1.07409 1.03845 0
M  V30 2090 H 193.064 0.618344 4.16839 0
M  V30 2091 H 191.739 -0.128581 3.23445 0
M  V30 2092 H 190.646 2.18055 3.03978 0
M  V30 2093 H 191.979 2.85291 4.01086 0
M  V30 2094 N 193.631 -1.12557 1.10312 0
M  V30 2095 C 194.563 -2.17971 0.708625 0
M  V30 2096 C 195.576 -1.60806 -0.254027 0
M  V30 2097 O 196.765 -1.78458 -0.0386891 0
M  V30 2098 C 193.865 -3.38891 0.0248198 0
M  V30 2099 C 193.038 -4.25548 1.01132 0
M  V30 2100 C 192.097 -5.24972 0.35924 0
M  V30 2101 O 191.123 -5.60174 1.00965 0
M  V30 2102 N 192.325 -5.73747 -0.882847 0
M  V30 2103 H 195.09 -2.52427 1.61557 0
M  V30 2104 H 192.651 -1.27967 0.991771 0
M  V30 2105 H 194.643 -4.02485 -0.422852 0
M  V30 2106 H 193.213 -3.02596 -0.784514 0
M  V30 2107 H 192.433 -3.58589 1.6373 0
M  V30 2108 H 193.721 -4.80294 1.67914 0
M  V30 2109 H 193.119 -5.4731 -1.43065 0
M  V30 2110 H 191.676 -6.39234 -1.27369 0
M  V30 2111 N 195.109 -0.891671 -1.2995 0
M  V30 2112 C 196.355 -0.514261 -1.96171 0
M  V30 2113 C 196.688 0.935506 -1.70182 0
M  V30 2114 O 195.963 1.66204 -1.01028 0
M  V30 2115 C 196.246 -0.797719 -3.51153 0
M  V30 2116 C 196.099 -2.2986 -3.86632 0
M  V30 2117 C 197.418 -0.278749 -4.39216 0
M  V30 2118 H 194.537 -0.188314 -0.712535 0
M  V30 2119 H 197.179 -1.11689 -1.53706 0
M  V30 2120 H 195.329 -0.284826 -3.87455 0
M  V30 2121 H 197.001 -2.88042 -3.60319 0
M  V30 2122 H 195.244 -2.76257 -3.34462 0
M  V30 2123 H 195.915 -2.44753 -4.94773 0
M  V30 2124 H 198.391 -0.717825 -4.09862 0
M  V30 2125 H 197.267 -0.506353 -5.46559 0
M  V30 2126 H 197.528 0.820266 -4.34424 0
M  V30 2127 N 196.587 1.43421 -0.653314 0
M  V30 2128 C 197.833 2.02641 -0.175593 0
M  V30 2129 C 198.188 1.5062 1.19713 0
M  V30 2130 O 197.481 0.689697 1.78756 0
M  V30 2131 C 197.675 3.57176 -0.126623 0
M  V30 2132 C 197.504 4.24191 -1.49306 0
M  V30 2133 C 196.274 4.60257 -2.08547 0
M  V30 2134 C 198.472 4.53193 -2.43148 0
M  V30 2135 N 196.454 5.12345 -3.38194 0
M  V30 2136 C 197.825 5.06601 -3.57429 0
M  V30 2137 C 199.88 4.35161 -2.41949 0
M  V30 2138 C 198.583 5.43875 -4.70736 0
M  V30 2139 C 200.609 4.73498 -3.54336 0
M  V30 2140 C 199.971 5.27039 -4.67343 0
M  V30 2141 H 196.07 0.77441 -0.108686 0
M  V30 2142 H 198.654 1.74596 -0.861638 0
M  V30 2143 H 196.825 3.84784 0.528766 0
M  V30 2144 H 198.557 4.03078 0.36198 0
M  V30 2145 H 195.312 4.45302 -1.61255 0
M  V30 2146 H 195.736 5.42842 -4.04538 0
M  V30 2147 H 200.378 3.9304 -1.55818 0
M  V30 2148 H 198.096 5.8494 -5.57558 0
M  V30 2149 H 201.682 4.61241 -3.5461 0
M  V30 2150 H 200.562 5.56153 -5.52868 0
M  V30 2151 N 198.065 0.39524 1.52563 0
M  V30 2152 C 199.342 -0.242908 1.94086 0
M  V30 2153 C 199.722 -1.63841 1.33114 0
M  V30 2154 O 199.07 -2.22928 0.501529 0
M  V30 2155 C 199.28 -0.26327 3.48006 0
M  V30 2156 C 200.628 -0.489354 4.21771 0
M  V30 2157 O 201.652 -0.343226 3.54543 0
M  V30 2158 O 200.511 -0.776169 5.4096 0
M  V30 2159 H 197.605 -0.152536 0.812811 0
M  V30 2160 H 200.151 0.450178 1.6362 0
M  V30 2161 H 198.923 0.713985 3.84731 0
M  V30 2162 H 198.546 -1.00103 3.84792 0
M  V30 2163 N 199.544 -1.57102 0.125237 0
M  V30 2164 C 200.793 -1.94582 -0.531095 0
M  V30 2165 C 201.106 -1.01126 -1.6743 0
M  V30 2166 O 202.312 -1.28097 -2.39381 0
M  V30 2167 C 200.768 -3.45839 -0.996164 0
M  V30 2168 C 200.376 -4.47842 0.118926 0
M  V30 2169 C 202.12 -3.92227 -1.62352 0
M  V30 2170 C 200.027 -5.90284 -0.363192 0
M  V30 2171 H 198.957 -0.726391 -0.20217 0
M  V30 2172 H 201.608 -1.82339 0.206092 0
M  V30 2173 H 199.99 -3.53338 -1.78796 0
M  V30 2174 H 201.164 -4.52018 0.895358 0
M  V30 2175 H 199.479 -4.11243 0.653324 0
M  V30 2176 H 202.076 -4.96069 -1.99548 0
M  V30 2177 H 202.419 -3.32552 -2.50429 0
M  V30 2178 H 202.952 -3.87554 -0.897019 0
M  V30 2179 H 199.691 -6.53728 0.481679 0
M  V30 2180 H 199.211 -5.89515 -1.10597 0
M  V30 2181 H 200.89 -6.41752 -0.822377 0
M  V30 2182 N 201.022 0.148545 -1.56898 0
M  V30 2183 C 202.269 0.861418 -1.83264 0
M  V30 2184 C 202.597 1.81239 -0.705883 0
M  V30 2185 O 201.852 1.93305 0.305212 0
M  V30 2186 C 202.151 1.67064 -3.1595 0
M  V30 2187 C 201.817 0.866591 -4.42494 0
M  V30 2188 C 200.479 0.644762 -4.76861 0
M  V30 2189 C 202.831 0.30418 -5.20312 0
M  V30 2190 C 200.159 -0.15021 -5.86508 0
M  V30 2191 C 202.511 -0.477824 -6.30793 0
M  V30 2192 C 201.175 -0.710244 -6.63711 0
M  V30 2193 H 200.445 0.315215 -0.670612 0
M  V30 2194 H 203.092 0.125142 -1.91091 0
M  V30 2195 H 201.397 2.47698 -3.03567 0
M  V30 2196 H 203.094 2.22566 -3.33565 0
M  V30 2197 H 199.684 1.04955 -4.15551 0
M  V30 2198 H 203.868 0.462844 -4.94137 0
M  V30 2199 H 199.124 -0.339796 -6.10455 0
M  V30 2200 H 203.298 -0.92076 -6.90286 0
M  V30 2201 H 200.925 -1.3281 -7.48509 0
M  V30 2202 N 202.5 1.5196 0.417844 0
M  V30 2203 C 203.725 1.69717 1.1921 0
M  V30 2204 C 204.15 0.402148 1.83751 0
M  V30 2205 O 203.508 -0.639593 1.69643 0
M  V30 2206 C 203.556 2.82794 2.2374 0
M  V30 2207 O 202.66 2.47756 3.29683 0
M  V30 2208 H 202.001 0.565263 0.348387 0
M  V30 2209 H 204.531 1.98621 0.490985 0
M  V30 2210 H 204.541 3.07452 2.68212 0
M  V30 2211 H 203.216 3.76756 1.76146 0
M  V30 2212 H 201.793 2.33739 2.90552 0
M  V30 2213 N 203.978 -0.674533 1.42435 0
M  V30 2214 C 204.888 -1.81751 1.48337 0
M  V30 2215 C 205.904 -1.69975 0.372099 0
M  V30 2216 O 207.08 -1.91521 0.62304 0
M  V30 2217 C 204.145 -3.17895 1.38361 0
M  V30 2218 C 203.206 -3.41625 2.59982 0
M  V30 2219 C 202.439 -4.71274 2.50473 0
M  V30 2220 O 202.662 -5.49197 1.54075 0
M  V30 2221 O 201.596 -4.96254 3.4061 0
M  V30 2222 H 205.422 -1.79728 2.44809 0
M  V30 2223 H 203.007 -0.830312 1.24202 0
M  V30 2224 H 204.889 -3.99136 1.35161 0
M  V30 2225 H 203.564 -3.20555 0.450144 0
M  V30 2226 H 202.471 -2.60231 2.68757 0
M  V30 2227 H 203.804 -3.43796 3.52229 0
M  V30 2228 N 205.456 -1.28612 -0.910864 0
M  V30 2229 C 206.419 -1.12803 -1.9952 0
M  V30 2230 C 207.419 -0.0668264 -1.60661 0
M  V30 2231 O 208.609 -0.312847 -1.71368 0
M  V30 2232 C 205.741 -0.72254 -3.33155 0
M  V30 2233 H 206.934 -2.09109 -2.14973 0
M  V30 2234 H 204.487 -1.11639 -1.09391 0
M  V30 2235 H 205.222 0.241152 -3.23402 0
M  V30 2236 H 205.007 -1.48916 -3.62721 0
M  V30 2237 H 206.497 -0.634666 -4.12749 0
M  V30 2238 N 206.934 1.1197 -1.10907 0
M  V30 2239 C 208.159 1.87942 -0.877064 0
M  V30 2240 C 208.584 1.79341 0.567314 0
M  V30 2241 O 207.942 1.15184 1.40009 0
M  V30 2242 C 207.99 3.34926 -1.33629 0
M  V30 2243 O 207.094 4.09303 -0.504447 0
M  V30 2244 H 206.435 0.583785 -0.316371 0
M  V30 2245 H 208.965 1.4157 -1.47712 0
M  V30 2246 H 208.975 3.8577 -1.32837 0
M  V30 2247 H 207.65 3.40504 -2.3881 0
M  V30 2248 H 206.227 3.68393 -0.577993 0
M  V30 2249 N 208.412 0.89855 1.29475 0
M  V30 2250 C 209.637 0.538561 2.00285 0
M  V30 2251 C 210.062 -0.869135 1.66816 0
M  V30 2252 O 209.42 -1.57831 0.892145 0
M  V30 2253 C 209.468 0.736475 3.52999 0
M  V30 2254 O 208.572 -0.211537 4.11857 0
M  V30 2255 H 207.913 0.210563 0.62973 0
M  V30 2256 H 210.443 1.20982 1.64998 0
M  V30 2257 H 210.453 0.640685 4.02938 0
M  V30 2258 H 209.128 1.76276 3.76696 0
M  V30 2259 H 207.705 -0.0682991 3.72837 0
M  V30 2260 N 209.89 -1.43072 0.660911 0
M  V30 2261 C 211.115 -2.06584 0.183805 0
M  V30 2262 C 211.54 -1.49257 -1.14472 0
M  V30 2263 O 210.898 -0.605528 -1.70889 0
M  V30 2264 C 210.946 -3.60418 0.114434 0
M  V30 2265 O 210.05 -4.01981 -0.921137 0
M  V30 2266 H 209.391 -0.656669 0.0983994 0
M  V30 2267 H 211.921 -1.83447 0.906006 0
M  V30 2268 H 211.931 -4.07946 -0.0663394 0
M  V30 2269 H 210.606 -4.01519 1.08422 0
M  V30 2270 H 209.183 -3.66029 -0.71253 0
M  V30 2271 N 211.368 -0.403325 -1.52352 0
M  V30 2272 C 212.278 0.432009 -2.30588 0
M  V30 2273 C 213.294 1.05884 -1.38075 0
M  V30 2274 O 214.47 1.06161 -1.71148 0
M  V30 2275 C 211.535 1.53669 -3.10784 0
M  V30 2276 C 210.596 0.933525 -4.19027 0
M  V30 2277 C 209.829 1.98557 -4.9539 0
M  V30 2278 O 210.052 3.20283 -4.71991 0
M  V30 2279 O 208.986 1.59504 -5.80381 0
M  V30 2280 H 212.812 -0.205739 -3.03002 0
M  V30 2281 H 210.397 -0.166675 -1.48467 0
M  V30 2282 H 212.279 2.17814 -3.60742 0
M  V30 2283 H 210.954 2.15915 -2.41169 0
M  V30 2284 H 209.861 0.254954 -3.7323 0
M  V30 2285 H 211.194 0.35508 -4.90918 0
M  V30 2286 N 212.846 1.57033 -0.133567 0
M  V30 2287 C 213.778 2.13176 0.841944 0
M  V30 2288 C 214.791 1.07794 1.22001 0
M  V30 2289 O 215.98 1.35117 1.16643 0
M  V30 2290 C 213.08 2.62847 2.13926 0
M  V30 2291 C 212.253 3.92486 1.93064 0
M  V30 2292 C 211.312 4.27605 3.0666 0
M  V30 2293 O 210.338 4.96168 2.78937 0
M  V30 2294 N 211.54 3.861 4.33483 0
M  V30 2295 H 214.305 2.97503 0.362192 0
M  V30 2296 H 211.866 1.61821 0.05042 0
M  V30 2297 H 213.858 2.83363 2.88942 0
M  V30 2298 H 212.428 1.83319 2.53205 0
M  V30 2299 H 211.648 3.80732 1.02159 0
M  V30 2300 H 212.936 4.77225 1.76447 0
M  V30 2301 H 212.334 3.30828 4.58878 0
M  V30 2302 H 210.891 4.11694 5.05323 0
M  V30 2303 N 214.325 -0.140222 1.56975 0
M  V30 2304 C 215.602 -0.880769 1.74648 0
M  V30 2305 C 215.982 -1.99036 0.703404 0
M  V30 2306 O 215.33 -2.26821 -0.27648 0
M  V30 2307 C 215.54 -1.417 3.18939 0
M  V30 2308 C 216.888 -1.87774 3.80823 0
M  V30 2309 O 217.912 -1.51427 3.2241 0
M  V30 2310 O 216.771 -2.54827 4.83452 0
M  V30 2311 H 213.865 -0.416713 0.714338 0
M  V30 2312 H 216.411 -0.125618 1.69234 0
M  V30 2313 H 215.183 -0.619902 3.86359 0
M  V30 2314 H 214.806 -2.23546 3.28805 0
M  V30 2315 N 215.803 -1.52179 -0.40978 0
M  V30 2316 C 216.735 -1.71703 -1.51825 0
M  V30 2317 C 217.748 -0.597445 -1.51441 0
M  V30 2318 O 218.937 -0.872582 -1.55719 0
M  V30 2319 C 216.037 -1.74171 -2.90719 0
M  V30 2320 C 215.21 -3.03156 -3.15302 0
M  V30 2321 C 214.269 -2.97445 -4.34065 0
M  V30 2322 O 213.295 -3.71352 -4.31377 0
M  V30 2323 N 214.497 -2.15191 -5.39141 0
M  V30 2324 H 217.262 -2.67334 -1.35472 0
M  V30 2325 H 214.823 -1.50409 -0.599069 0
M  V30 2326 H 216.815 -1.67884 -3.68235 0
M  V30 2327 H 215.385 -0.860166 -3.00533 0
M  V30 2328 H 214.605 -3.23097 -2.25836 0
M  V30 2329 H 215.893 -3.88484 -3.28569 0
M  V30 2330 H 215.291 -1.54573 -5.44173 0
M  V30 2331 H 213.848 -2.1476 -6.15403 0
M  V30 2332 N 217.281 0.66697 -1.42791 0
M  V30 2333 C 218.213 1.7925 -1.42836 0
M  V30 2334 C 219.226 1.59496 -0.326333 0
M  V30 2335 O 220.415 1.6847 -0.589916 0
M  V30 2336 C 217.515 3.16476 -1.21229 0
M  V30 2337 C 216.688 3.63011 -2.44013 0
M  V30 2338 C 215.747 4.78993 -2.17834 0
M  V30 2339 O 214.773 4.89137 -2.91091 0
M  V30 2340 N 215.975 5.68248 -1.18635 0
M  V30 2341 H 218.74 1.79695 -2.39854 0
M  V30 2342 H 216.301 0.850338 -1.37771 0
M  V30 2343 H 218.293 3.91734 -1.01621 0
M  V30 2344 H 216.863 3.10884 -0.32706 0
M  V30 2345 H 216.083 2.78346 -2.79137 0
M  V30 2346 H 217.371 3.90845 -3.25757 0
M  V30 2347 H 216.769 5.62712 -0.580615 0
M  V30 2348 H 215.326 6.43285 -1.05013 0
M  V30 2349 N 218.759 1.29093 0.90403 0
M  V30 2350 C 219.691 1.09658 2.01266 0
M  V30 2351 C 220.704 0.0453729 1.62737 0
M  V30 2352 O 221.893 0.289446 1.76138 0
M  V30 2353 C 218.993 0.646278 3.32681 0
M  V30 2354 C 218.166 1.77505 3.99763 0
M  V30 2355 C 217.225 1.31649 5.09465 0
M  V30 2356 O 216.251 2.02045 5.32134 0
M  V30 2357 N 217.453 0.184997 5.80205 0
M  V30 2358 H 220.218 2.05135 2.18494 0
M  V30 2359 H 217.779 1.20975 1.07594 0
M  V30 2360 H 219.771 0.322906 4.0341 0
M  V30 2361 H 218.341 -0.215916 3.11853 0
M  V30 2362 H 217.561 2.26752 3.22455 0
M  V30 2363 H 218.849 2.53198 4.41325 0
M  V30 2364 H 218.247 -0.402021 5.6427 0
M  V30 2365 H 216.804 -0.0790358 6.51752 0
M  V30 2366 N 220.237 -1.11381 1.11499 0
M  V30 2367 C 221.648 -1.6465 0.880191 0
M  V30 2368 C 221.999 -1.87199 -0.587434 0
M  V30 2369 O 221.124 -1.60667 -1.44966 0
M  V30 2370 C 221.719 -2.99105 1.59128 0
M  V30 2371 C 220.278 -3.49279 1.40289 0
M  V30 2372 C 219.425 -2.24077 1.63354 0
M  V30 2373 H 222.376 -0.950123 1.27116 0
M  V30 2374 H 222.397 -3.66107 1.03664 0
M  V30 2375 H 221.909 -2.82661 2.65941 0
M  V30 2376 H 220.01 -3.70887 0.356888 0
M  V30 2377 H 220.123 -4.2803 2.15238 0
M  V30 2378 H 218.487 -2.31733 1.05698 0
M  V30 2379 H 219.27 -2.10175 2.71443 0
M  V30 2380 N 221.715 -0.905404 -1.28997 0
M  V30 2381 C 223.126 -0.581953 -1.77398 0
M  V30 2382 C 223.477 0.902552 -1.74208 0
M  V30 2383 O 222.602 1.70584 -1.33154 0
M  V30 2384 C 223.197 -1.04961 -3.22131 0
M  V30 2385 C 221.756 -0.777229 -3.68288 0
M  V30 2386 C 220.903 -1.22109 -2.48967 0
M  V30 2387 H 223.854 -1.08754 -1.15578 0
M  V30 2388 H 223.875 -0.387387 -3.78523 0
M  V30 2389 H 223.387 -2.13008 -3.24421 0
M  V30 2390 H 221.488 0.290383 -3.71467 0
M  V30 2391 H 221.601 -1.37911 -4.58822 0
M  V30 2392 H 219.965 -0.639971 -2.46529 0
M  V30 2393 H 220.748 -2.30972 -2.53982 0
M  V30 2394 N 223.193 1.4272 -0.668489 0
M  V30 2395 C 224.418 2.06484 -0.194758 0
M  V30 2396 C 224.843 1.49862 1.13679 0
M  V30 2397 O 224.201 0.614582 1.70565 0
M  V30 2398 C 224.249 3.60353 -0.133546 0
M  V30 2399 O 223.353 4.02464 0.899806 0
M  V30 2400 H 222.694 0.656137 -0.10188 0
M  V30 2401 H 225.224 1.82964 -0.915722 0
M  V30 2402 H 225.234 4.07976 0.0447041 0
M  V30 2403 H 223.909 4.00938 -1.1055 0
M  V30 2404 H 222.486 3.66402 0.693109 0
M  V30 2405 N 224.671 0.411399 1.52136 0
M  V30 2406 C 225.621 -0.430376 2.23901 0
M  V30 2407 C 226.605 -1.0116 1.25121 0
M  V30 2408 O 227.797 -0.934044 1.50348 0
M  V30 2409 C 224.926 -1.54527 3.06556 0
M  V30 2410 C 224.012 -0.9747 4.12747 0
M  V30 2411 N 224.403 -0.130991 5.0563 0
M  V30 2412 C 222.701 -1.24497 4.28271 0
M  V30 2413 C 223.402 0.186689 5.814 0
M  V30 2414 N 222.378 -0.42304 5.41951 0
M  V30 2415 H 226.18 0.220509 2.93072 0
M  V30 2416 H 223.694 0.221952 1.60876 0
M  V30 2417 H 225.691 -2.16093 3.56524 0
M  V30 2418 H 224.351 -2.19875 2.38925 0
M  V30 2419 H 225.362 0.23349 5.17373 0
M  V30 2420 H 222.039 -1.89787 3.7187 0
M  V30 2421 H 223.429 0.871673 6.66222 0
M  V30 2422 N 226.149 -1.5696 0.141893 0
M  V30 2423 C 227.377 -2.00322 -0.517579 0
M  V30 2424 C 227.792 -1.02193 -1.58752 0
M  V30 2425 O 227.149 -0.0181619 -1.82491 0
M  V30 2426 C 227.2 -3.43618 -1.12289 0
M  V30 2427 O 226.921 -4.37995 -0.0956929 0
M  V30 2428 C 228.422 -4.02231 -1.86347 0
M  V30 2429 H 225.642 -0.657243 -0.135177 0
M  V30 2430 H 228.186 -2.03146 0.234973 0
M  V30 2431 H 226.341 -3.41662 -1.82609 0
M  V30 2432 H 226.755 -5.21729 -0.538469 0
M  V30 2433 H 228.229 -5.04509 -2.23997 0
M  V30 2434 H 228.706 -3.42655 -2.74744 0
M  V30 2435 H 229.312 -4.07802 -1.20737 0
M  V30 2436 N 227.627 0.131896 -1.57047 0
M  V30 2437 C 228.59 1.14638 -1.98471 0
M  V30 2438 C 229.59 1.35029 -0.873148 0
M  V30 2439 O 230.78 1.31764 -1.13946 0
M  V30 2440 C 227.912 2.50358 -2.31373 0
M  V30 2441 H 229.105 0.79064 -2.8929 0
M  V30 2442 H 226.658 0.375761 -1.51716 0
M  V30 2443 H 227.393 2.90876 -1.43393 0
M  V30 2444 H 227.178 2.36915 -3.12432 0
M  V30 2445 H 228.668 3.23395 -2.64207 0
M  V30 2446 N 229.106 1.52395 0.401703 0
M  V30 2447 C 230.053 1.76268 1.48991 0
M  V30 2448 C 231.023 0.605386 1.54675 0
M  V30 2449 O 232.208 0.843742 1.7113 0
M  V30 2450 C 229.348 1.92592 2.86361 0
M  V30 2451 C 228.461 3.20259 2.89928 0
M  V30 2452 C 227.596 3.26972 4.18644 0
M  V30 2453 C 226.635 4.48812 4.16214 0
M  V30 2454 N 225.772 4.52877 5.36514 0
M  V30 2455 H 230.612 2.6914 1.27935 0
M  V30 2456 H 228.149 1.33355 0.620871 0
M  V30 2457 H 230.107 2.0004 3.66115 0
M  V30 2458 H 228.737 1.03093 3.05895 0
M  V30 2459 H 227.789 3.21945 2.02621 0
M  V30 2460 H 229.101 4.10056 2.83999 0
M  V30 2461 H 228.255 3.33533 5.06794 0
M  V30 2462 H 226.994 2.35126 4.27278 0
M  V30 2463 H 225.999 4.4239 3.26453 0
M  V30 2464 H 227.224 5.41961 4.09213 0
M  V30 2465 H 225.17 3.63917 5.45802 0
M  V30 2466 H 225.087 5.36529 5.32609 0
M  V30 2467 H 226.355 4.63676 6.26597 0
M  V30 2468 N 230.584 -0.659388 1.43143 0
M  V30 2469 C 231.995 -1.24041 1.39537 0
M  V30 2470 C 232.346 -1.95963 0.0963364 0
M  V30 2471 O 231.471 -2.00892 -0.804438 0
M  V30 2472 C 232.066 -2.25601 2.52764 0
M  V30 2473 C 230.625 -2.79195 2.52443 0
M  V30 2474 C 229.772 -1.53743 2.30778 0
M  V30 2475 H 232.723 -0.451792 1.52133 0
M  V30 2476 H 232.744 -3.07651 2.23899 0
M  V30 2477 H 232.256 -1.73226 3.47296 0
M  V30 2478 H 230.357 -3.35649 1.61773 0
M  V30 2479 H 230.47 -3.2716 3.50004 0
M  V30 2480 H 228.834 -1.80869 1.79328 0
M  V30 2481 H 229.617 -1.03312 3.27386 0
M  V30 2482 N 232.062 -1.29571 -0.897171 0
M  V30 2483 C 233.012 -1.11539 -1.98855 0
M  V30 2484 C 233.996 -0.0340716 -1.60864 0
M  V30 2485 O 235.188 -0.256062 -1.75138 0
M  V30 2486 C 232.317 -0.796603 -3.3393 0
M  V30 2487 C 231.403 -1.91758 -3.78272 0
M  V30 2488 N 231.794 -3.16143 -3.94826 0
M  V30 2489 C 230.092 -1.81119 -4.07568 0
M  V30 2490 C 230.793 -3.89293 -4.32233 0
M  V30 2491 N 229.769 -3.17255 -4.41419 0
M  V30 2492 H 233.571 -2.05894 -2.09726 0
M  V30 2493 H 231.085 -1.20732 -1.08616 0
M  V30 2494 H 233.082 -0.648459 -4.11826 0
M  V30 2495 H 231.742 0.139003 -3.24402 0
M  V30 2496 H 232.753 -3.5157 -3.80288 0
M  V30 2497 H 229.43 -0.948461 -4.06584 0
M  V30 2498 H 230.82 -4.9635 -4.52865 0
M  V30 2499 N 233.54 1.10788 -1.12088 0
M  V30 2500 C 234.503 2.15207 -0.788577 0
M  V30 2501 C 235.503 1.59609 0.195317 0
M  V30 2502 O 236.693 1.74174 -0.0300193 0
M  V30 2503 C 233.825 3.4047 -0.171174 0
M  V30 2504 H 235.018 2.46116 -1.71368 0
M  V30 2505 H 232.571 1.26089 -0.923652 0
M  V30 2506 H 233.306 3.15176 0.763832 0
M  V30 2507 H 233.091 3.82109 -0.879514 0
M  V30 2508 H 234.581 4.17576 0.04496 0
M  V30 2509 N 235.018 0.912232 1.28515 0
M  V30 2510 C 235.928 0.404506 2.31086 0
M  V30 2511 C 236.944 -0.50707 1.66448 0
M  V30 2512 O 238.12 -0.393624 1.97516 0
M  V30 2513 C 235.185 -0.348572 3.44943 0
M  V30 2514 C 234.246 0.59604 4.25142 0
M  V30 2515 C 233.479 -0.121194 5.33562 0
M  V30 2516 O 233.702 -1.34317 5.5436 0
M  V30 2517 O 232.636 0.542716 5.99448 0
M  V30 2518 H 236.462 1.25579 2.76521 0
M  V30 2519 H 234.047 0.676998 1.33181 0
M  V30 2520 H 235.929 -0.77395 4.14232 0
M  V30 2521 H 234.604 -1.17571 3.01594 0
M  V30 2522 H 233.511 1.07079 3.58448 0
M  V30 2523 H 234.844 1.38995 4.72167 0
M  V30 2524 N 236.496 -1.42363 0.676048 0
M  V30 2525 C 237.429 -2.28141 -0.0516916 0
M  V30 2526 C 238.407 -1.41135 -0.807439 0
M  V30 2527 O 239.591 -1.70573 -0.802305 0
M  V30 2528 C 236.718 -3.21007 -1.08039 0
M  V30 2529 C 235.764 -4.24426 -0.420076 0
M  V30 2530 S 236.597 -5.29134 0.823246 0
M  V30 2531 C 237.753 -6.25566 -0.204344 0
M  V30 2532 H 237.986 -2.89515 0.675884 0
M  V30 2533 H 235.519 -1.47211 0.465635 0
M  V30 2534 H 237.477 -3.75048 -1.66881 0
M  V30 2535 H 236.138 -2.58766 -1.78042 0
M  V30 2536 H 235.331 -4.89596 -1.19633 0
M  V30 2537 H 234.933 -3.7388 0.0947845 0
M  V30 2538 H 237.225 -6.69098 -1.06369 0
M  V30 2539 H 238.168 -7.06895 0.412915 0
M  V30 2540 H 238.576 -5.61811 -0.55038 0
M  V30 2541 N 237.974 -0.419461 -1.51915 0
M  V30 2542 C 239.385 0.0477853 -1.86639 0
M  V30 2543 C 239.736 1.43531 -1.33766 0
M  V30 2544 O 238.861 2.05401 -0.68113 0
M  V30 2545 C 239.456 0.0934885 -3.38671 0
M  V30 2546 C 238.015 0.505097 -3.72996 0
M  V30 2547 C 237.162 -0.313792 -2.75519 0
M  V30 2548 H 240.113 -0.636088 -1.45395 0
M  V30 2549 H 240.134 0.906667 -3.6954 0
M  V30 2550 H 239.646 -0.916501 -3.77123 0
M  V30 2551 H 237.747 1.52135 -3.40126 0
M  V30 2552 H 237.86 0.242309 -4.78487 0
M  V30 2553 H 236.224 0.225363 -2.53701 0
M  V30 2554 H 237.007 -1.32232 -3.16812 0
M  V30 2555 N 239.452 1.56882 -0.150215 0
M  V30 2556 C 240.701 1.95403 0.500071 0
M  V30 2557 C 241.014 1.03777 1.658 0
M  V30 2558 O 242.22 1.31889 2.37313 0
M  V30 2559 C 240.676 3.4738 0.941018 0
M  V30 2560 C 240.284 4.47596 -0.190158 0
M  V30 2561 C 242.028 3.9476 1.56091 0
M  V30 2562 C 239.935 5.90787 0.269237 0
M  V30 2563 H 238.865 0.729515 0.190588 0
M  V30 2564 H 241.516 1.81988 -0.235074 0
M  V30 2565 H 239.898 3.56138 1.73152 0
M  V30 2566 H 241.072 4.50536 -0.967157 0
M  V30 2567 H 239.387 4.10151 -0.718666 0
M  V30 2568 H 241.984 4.99181 1.9163 0
M  V30 2569 H 242.327 3.36494 2.45107 0
M  V30 2570 H 242.86 3.88932 0.835249 0
M  V30 2571 H 239.599 6.52879 -0.585621 0
M  V30 2572 H 239.119 5.912 1.01204 0
M  V30 2573 H 240.798 6.42979 0.720176 0
M  V30 2574 N 240.93 -0.123565 1.57115 0
M  V30 2575 C 242.158 -0.846461 1.88793 0
M  V30 2576 C 242.573 -1.73652 0.740976 0
M  V30 2577 O 241.93 -1.80207 -0.288393 0
M  V30 2578 C 241.981 -1.6837 3.19897 0
M  V30 2579 O 241.702 -0.829477 4.30176 0
M  V30 2580 C 243.203 -2.51214 3.65248 0
M  V30 2581 H 240.423 -0.243573 0.625231 0
M  V30 2582 H 242.967 -0.109324 2.04208 0
M  V30 2583 H 241.122 -2.37364 3.06165 0
M  V30 2584 H 241.536 -1.40651 5.0529 0
M  V30 2585 H 243.01 -3.05497 4.59756 0
M  V30 2586 H 243.487 -3.28359 2.9168 0
M  V30 2587 H 244.093 -1.8747 3.81752 0
M  V30 2588 N 242.408 -1.52605 -0.393616 0
M  V30 2589 C 243.355 -1.77055 -1.48054 0
M  V30 2590 C 244.325 -0.61358 -1.54352 0
M  V30 2591 O 245.51 -0.852806 -1.70681 0
M  V30 2592 C 242.65 -1.94108 -2.85335 0
M  V30 2593 C 241.763 -3.21792 -2.88226 0
M  V30 2594 C 240.898 -3.29188 -4.16904 0
M  V30 2595 C 239.937 -4.51013 -4.13828 0
M  V30 2596 N 239.074 -4.55716 -5.34105 0
M  V30 2597 H 243.914 -2.69815 -1.26506 0
M  V30 2598 H 241.451 -1.33683 -0.61379 0
M  V30 2599 H 243.409 -2.01979 -3.65049 0
M  V30 2600 H 242.039 -1.04713 -3.05344 0
M  V30 2601 H 241.091 -3.23015 -2.00911 0
M  V30 2602 H 242.403 -4.11557 -2.8182 0
M  V30 2603 H 241.557 -3.36216 -5.05018 0
M  V30 2604 H 240.296 -2.37389 -4.26026 0
M  V30 2605 H 239.301 -4.44115 -3.24102 0
M  V30 2606 H 240.526 -5.44123 -4.06333 0
M  V30 2607 H 238.472 -3.66807 -5.43865 0
M  V30 2608 H 238.389 -5.39346 -5.29756 0
M  V30 2609 H 239.657 -4.66993 -6.2413 0
M  V30 2610 N 243.887 0.651787 -1.4349 0
M  V30 2611 C 245.133 1.41376 -1.45398 0
M  V30 2612 C 245.466 1.94041 -0.0784823 0
M  V30 2613 O 244.741 1.72379 0.900878 0
M  V30 2614 C 245.024 2.59414 -2.49752 0
M  V30 2615 C 244.877 2.12232 -3.96582 0
M  V30 2616 C 246.196 3.61626 -2.50827 0
M  V30 2617 H 243.315 0.512719 -0.529422 0
M  V30 2618 H 245.957 0.738796 -1.75048 0
M  V30 2619 H 244.107 3.16997 -2.246 0
M  V30 2620 H 245.779 1.59639 -4.32797 0
M  V30 2621 H 244.022 1.43592 -4.09346 0
M  V30 2622 H 244.693 2.9712 -4.65214 0
M  V30 2623 H 247.169 3.13805 -2.7325 0
M  V30 2624 H 246.045 4.41766 -3.25783 0
M  V30 2625 H 246.306 4.14314 -1.5426 0
M  V30 2626 N 245.365 1.30045 0.890287 0
M  V30 2627 C 246.776 1.16738 1.45702 0
M  V30 2628 C 247.127 -0.233939 1.948 0
M  V30 2629 O 246.252 -1.13021 1.84541 0
M  V30 2630 C 246.847 2.11313 2.64825 0
M  V30 2631 C 245.406 2.02001 3.17604 0
M  V30 2632 C 244.553 2.01699 1.90296 0
M  V30 2633 H 247.504 1.42392 0.700726 0
M  V30 2634 H 247.525 1.69086 3.40867 0
M  V30 2635 H 247.037 3.13294 2.2906 0
M  V30 2636 H 245.138 1.03142 3.5804 0
M  V30 2637 H 245.251 2.90128 3.81264 0
M  V30 2638 H 243.615 1.46427 2.08402 0
M  V30 2639 H 244.398 3.05402 1.56795 0
M  V30 2640 N 246.843 -1.10192 1.12674 0
M  V30 2641 C 248.068 -1.86523 0.906853 0
M  V30 2642 C 248.493 -1.80221 -0.538711 0
M  V30 2643 O 247.851 -1.17396 -1.38158 0
M  V30 2644 C 247.899 -3.32758 1.3894 0
M  V30 2645 O 247.003 -4.08449 0.5695 0
M  V30 2646 H 246.344 -0.578678 0.325619 0
M  V30 2647 H 248.874 -1.39203 1.49946 0
M  V30 2648 H 248.884 -3.83608 1.38958 0
M  V30 2649 H 247.559 -3.36661 2.44197 0
M  V30 2650 H 246.136 -3.67427 0.636528 0
M  V30 2651 N 248.321 -0.919034 -1.28029 0
M  V30 2652 C 249.284 -0.416182 -2.2539 0
M  V30 2653 C 250.284 0.460438 -1.54067 0
M  V30 2654 O 251.474 0.262744 -1.72207 0
M  V30 2655 C 248.606 0.402707 -3.38513 0
M  V30 2656 H 249.799 -1.27629 -2.71387 0
M  V30 2657 H 247.352 -0.698919 -1.39803 0
M  V30 2658 H 248.087 1.282 -2.97885 0
M  V30 2659 H 247.872 -0.225698 -3.9145 0
M  V30 2660 H 249.362 0.745191 -4.10897 0
M  V30 2661 N 249.799 1.42003 -0.683588 0
M  V30 2662 C 250.746 2.30798 -0.0107309 0
M  V30 2663 C 251.716 1.4645 0.783688 0
M  V30 2664 O 252.901 1.75263 0.754156 0
M  V30 2665 C 250.041 3.3238 0.928306 0
M  V30 2666 C 249.154 4.31814 0.126776 0
M  V30 2667 C 248.289 5.20468 1.06236 0
M  V30 2668 C 247.328 6.11577 0.253035 0
M  V30 2669 N 246.465 6.92754 1.14179 0
M  V30 2670 H 251.305 2.8778 -0.773727 0
M  V30 2671 H 248.842 1.41745 -0.393283 0
M  V30 2672 H 250.8 3.89813 1.48666 0
M  V30 2673 H 249.43 2.76976 1.65783 0
M  V30 2674 H 248.482 3.76427 -0.54833 0
M  V30 2675 H 249.794 4.96276 -0.501192 0
M  V30 2676 H 248.948 5.82677 1.69035 0
M  V30 2677 H 247.687 4.56204 1.7242 0
M  V30 2678 H 246.692 5.48428 -0.388108 0
M  V30 2679 H 247.917 6.77892 -0.404839 0
M  V30 2680 H 245.863 6.3111 1.78987 0
M  V30 2681 H 245.78 7.53855 0.569111 0
M  V30 2682 H 247.048 7.59441 1.75697 0
M  V30 2683 N 251.277 0.427512 1.51691 0
M  V30 2684 C 252.505 -0.141191 2.06418 0
M  V30 2685 C 252.92 -1.37303 1.29589 0
M  V30 2686 O 252.277 -1.79059 0.352732 0
M  V30 2687 C 252.328 -0.473266 3.58389 0
M  V30 2688 O 252.049 0.709673 4.32314 0
M  V30 2689 C 253.55 -1.09371 4.29596 0
M  V30 2690 H 250.77 -0.0122747 0.670888 0
M  V30 2691 H 253.314 0.603764 1.95384 0
M  V30 2692 H 251.469 -1.16812 3.69369 0
M  V30 2693 H 251.883 0.42807 5.2275 0
M  V30 2694 H 253.357 -1.27613 5.37046 0
M  V30 2695 H 253.834 -2.072 3.87253 0
M  V30 2696 H 254.44 -0.43853 4.23033 0
M  V30 2697 N 252.755 -1.56801 0.158532 0
M  V30 2698 C 253.703 -2.18638 -0.793729 0
M  V30 2699 C 254.697 -1.14669 -1.24689 0
M  V30 2700 O 255.903 -1.32895 -1.21403 0
M  V30 2701 H 252.278 -0.700226 -0.274204 0
M  V30 2702 H 254.249 -2.97367 -0.248095 0
M  V30 2703 C 252.998 -2.83139 -2.0181 0
M  V30 2704 H 252.321 -3.62863 -1.67841 0
M  V30 2705 H 253.761 -3.29894 -2.66357 0
M  V30 2706 C 252.22 -1.82244 -2.83353 0
M  V30 2707 O 252.75 -1.3 -3.80083 0
M  V30 2708 N 250.956 -1.51288 -2.48114 0
M  V30 2709 H 250.503 -1.93964 -1.69516 0
M  V30 2710 H 250.461 -0.840296 -3.02963 0
M  V30 2711 N 254.233 0.115231 -1.57178 0
M  V30 2712 C 255.481 0.820727 -1.84685 0
M  V30 2713 C 255.802 1.80237 -0.744279 0
M  V30 2714 O 255.072 1.94529 0.231375 0
M  V30 2715 H 253.652 0.306084 -0.681411 0
M  V30 2716 H 256.314 0.101656 -1.94635 0
M  V30 2717 H 255.41 1.36366 -2.80733 0
M  V30 2718 N 255.711 1.52812 0.385517 0
M  V30 2719 C 256.939 1.71907 1.15133 0
M  V30 2720 C 257.354 0.439004 1.83625 0
M  V30 2721 O 256.711 -0.586765 1.7281 0
M  V30 2722 C 256.762 2.87099 2.19673 0
M  V30 2723 O 256.483 4.10151 1.53973 0
M  V30 2724 C 257.984 3.17902 3.08955 0
M  V30 2725 H 255.204 0.575479 0.345057 0
M  V30 2726 H 257.748 1.99476 0.45052 0
M  V30 2727 H 255.903 2.61982 2.85384 0
M  V30 2728 H 256.317 4.74514 2.23465 0
M  V30 2729 H 257.791 4.01959 3.7833 0
M  V30 2730 H 258.268 2.3243 3.72657 0
M  V30 2731 H 258.874 3.44871 2.48885 0
M  V30 2732 N 257.189 -0.644168 1.43834 0
M  V30 2733 C 258.417 -1.43147 1.49387 0
M  V30 2734 C 258.832 -1.88452 0.114583 0
M  V30 2735 O 258.189 -1.60047 -0.876989 0
M  V30 2736 C 258.24 -2.66046 2.44748 0
M  V30 2737 O 257.961 -2.22633 3.77314 0
M  V30 2738 C 259.462 -3.59311 2.59635 0
M  V30 2739 H 256.682 -0.439447 0.507077 0
M  V30 2740 H 259.226 -0.78895 1.88669 0
M  V30 2741 H 257.381 -3.26418 2.08638 0
M  V30 2742 H 257.795 -3.02216 4.28679 0
M  V30 2743 H 259.269 -4.42187 3.30416 0
M  V30 2744 H 259.746 -4.07259 1.64427 0
M  V30 2745 H 260.352 -3.04816 2.96593 0
M  V30 2746 N 258.668 -1.30515 -0.883378 0
M  V30 2747 C 259.578 -1.18959 -2.02203 0
M  V30 2748 C 260.594 -0.109172 -1.73657 0
M  V30 2749 O 261.77 -0.324413 -1.9877 0
M  V30 2750 C 258.835 -0.883871 -3.35244 0
M  V30 2751 C 257.896 -2.04982 -3.77201 0
M  V30 2752 C 257.129 -1.75859 -5.03894 0
M  V30 2753 O 257.352 -0.687276 -5.66244 0
M  V30 2754 O 256.286 -2.61146 -5.42297 0
M  V30 2755 H 260.112 -2.14616 -2.1488 0
M  V30 2756 H 257.697 -1.10124 -1.0096 0
M  V30 2757 H 259.579 -0.728644 -4.15053 0
M  V30 2758 H 258.254 0.0427798 -3.23672 0
M  V30 2759 H 257.161 -2.26038 -2.9809 0
M  V30 2760 H 258.494 -2.95825 -3.93381 0
M  V30 2761 N 260.146 1.09593 -1.13257 0
M  V30 2762 C 261.056 2.19739 -0.821691 0
M  V30 2763 C 262.072 1.72926 0.19302 0
M  V30 2764 O 263.248 2.01385 0.0244895 0
M  V30 2765 C 260.313 3.45482 -0.290333 0
M  V30 2766 C 259.374 4.06985 -1.36607 0
M  V30 2767 C 258.607 5.26726 -0.859975 0
M  V30 2768 O 258.83 5.69594 0.303082 0
M  V30 2769 O 257.764 5.7931 -1.63351 0
M  V30 2770 H 261.59 2.48781 -1.74189 0
M  V30 2771 H 259.175 1.18496 -0.909894 0
M  V30 2772 H 261.057 4.214 0.000674022 0
M  V30 2773 H 259.732 3.18047 0.602306 0
M  V30 2774 H 258.639 3.32712 -1.71037 0
M  V30 2775 H 259.972 4.38643 -2.23279 0
M  V30 2776 N 261.624 0.925811 1.2754 0
M  V30 2777 C 262.556 0.380753 2.26015 0
M  V30 2778 C 263.569 -0.487485 1.5533 0
M  V30 2779 O 264.758 -0.300413 1.75954 0
M  V30 2780 C 261.858 -0.473259 3.35579 0
M  V30 2781 C 261.031 0.375249 4.35787 0
M  V30 2782 C 260.09 -0.415809 5.24555 0
M  V30 2783 O 259.116 0.175834 5.68928 0
M  V30 2784 N 260.318 -1.71607 5.54555 0
M  V30 2785 H 263.083 1.22725 2.73421 0
M  V30 2786 H 260.644 0.793037 1.41147 0
M  V30 2787 H 262.636 -1.00949 3.91907 0
M  V30 2788 H 261.206 -1.2205 2.87789 0
M  V30 2789 H 260.426 1.09279 3.7875 0
M  V30 2790 H 261.714 0.955399 4.99749 0
M  V30 2791 H 261.112 -2.2191 5.20358 0
M  V30 2792 H 259.669 -2.19887 6.1359 0
M  V30 2793 N 263.102 -1.41638 0.69111 0
M  V30 2794 C 264.33 -2.05628 0.22909 0
M  V30 2795 C 264.745 -1.51992 -1.11999 0
M  V30 2796 O 264.102 -0.666322 -1.69901 0
M  V30 2797 C 264.153 -3.61084 0.173283 0
M  V30 2798 O 263.874 -4.12735 1.46907 0
M  V30 2799 C 265.375 -4.42213 -0.310266 0
M  V30 2800 H 262.595 -0.662327 0.107534 0
M  V30 2801 H 265.139 -1.81489 0.942438 0
M  V30 2802 H 263.294 -3.84278 -0.490858 0
M  V30 2803 H 263.708 -5.06743 1.35322 0
M  V30 2804 H 265.182 -5.51194 -0.298196 0
M  V30 2805 H 265.659 -4.1799 -1.34838 0
M  V30 2806 H 266.265 -4.24074 0.322716 0
M  V30 2807 N 264.58 -0.43555 -1.51462 0
M  V30 2808 C 265.49 0.383001 -2.31453 0
M  V30 2809 C 266.506 1.02931 -1.4029 0
M  V30 2810 O 267.682 1.02507 -1.73362 0
M  V30 2811 C 264.747 1.47043 -3.13973 0
M  V30 2812 C 263.808 0.844433 -4.20913 0
M  V30 2813 C 263.041 1.88004 -4.9949 0
M  V30 2814 O 263.264 3.10199 -4.78678 0
M  V30 2815 O 262.198 1.47157 -5.83634 0
M  V30 2816 H 266.024 -0.269964 -3.02498 0
M  V30 2817 H 263.609 -0.19813 -1.4808 0
M  V30 2818 H 265.491 2.10113 -3.65281 0
M  V30 2819 H 264.166 2.10751 -2.45695 0
M  V30 2820 H 263.073 0.175729 -3.73687 0
M  V30 2821 H 264.406 0.250869 -4.9156 0
M  V30 2822 N 266.058 1.56714 -0.166846 0
M  V30 2823 C 267.021 2.16539 0.751232 0
M  V30 2824 C 268.021 1.11228 1.16125 0
M  V30 2825 O 269.211 1.36765 1.07894 0
M  V30 2826 C 266.343 2.74462 2.02196 0
M  V30 2827 H 267.536 2.99013 0.230499 0
M  V30 2828 H 265.089 1.56081 0.0826982 0
M  V30 2829 H 265.824 1.95709 2.58589 0
M  V30 2830 H 265.609 3.51527 1.73698 0
M  V30 2831 H 267.099 3.20489 2.67725 0
M  V30 2832 N 267.536 -0.106894 1.57237 0
M  V30 2833 C 268.483 -1.13049 2.01217 0
M  V30 2834 C 269.453 -1.40471 0.886403 0
M  V30 2835 O 270.638 -1.52133 1.15153 0
M  V30 2836 C 267.778 -2.4487 2.43172 0
M  V30 2837 C 266.891 -2.24281 3.69218 0
M  V30 2838 C 266.026 -3.49417 4.00101 0
M  V30 2839 C 265.065 -3.24038 5.19294 0
M  V30 2840 N 264.202 -4.41409 5.45988 0
M  V30 2841 H 269.042 -0.748456 2.88448 0
M  V30 2842 H 266.579 -0.358054 1.42676 0
M  V30 2843 H 268.537 -3.21786 2.65537 0
M  V30 2844 H 267.167 -2.80944 1.58967 0
M  V30 2845 H 266.219 -1.38224 3.54398 0
M  V30 2846 H 267.531 -2.01512 4.56283 0
M  V30 2847 H 266.685 -4.34746 4.2318 0
M  V30 2848 H 265.424 -3.75229 3.11535 0
M  V30 2849 H 264.429 -2.37102 4.96047 0
M  V30 2850 H 265.654 -2.99584 6.09447 0
M  V30 2851 H 263.6 -4.67319 4.60379 0
M  V30 2852 H 263.517 -4.21788 6.274 0
M  V30 2853 H 264.785 -5.27836 5.73593 0
M  V30 2854 N 269.014 -1.53014 -0.377408 0
M  V30 2855 C 269.961 -1.78616 -1.46168 0
M  V30 2856 C 270.931 -0.629917 -1.53692 0
M  V30 2857 O 272.116 -0.870861 -1.69766 0
M  V30 2858 C 269.256 -1.97123 -2.8326 0
M  V30 2859 C 268.369 -3.24831 -2.84796 0
M  V30 2860 C 267.504 -3.33591 -4.13389 0
M  V30 2861 C 266.543 -4.55377 -4.09021 0
M  V30 2862 N 265.68 -4.61355 -5.29241 0
M  V30 2863 H 270.52 -2.71142 -1.23637 0
M  V30 2864 H 268.057 -1.34326 -0.599577 0
M  V30 2865 H 270.015 -2.05839 -3.62886 0
M  V30 2866 H 268.645 -1.07946 -3.04216 0
M  V30 2867 H 267.697 -3.25128 -1.97474 0
M  V30 2868 H 269.009 -4.14523 -2.77439 0
M  V30 2869 H 268.163 -3.41554 -5.01424 0
M  V30 2870 H 266.902 -2.41894 -4.23484 0
M  V30 2871 H 265.907 -4.47527 -3.19373 0
M  V30 2872 H 267.132 -5.48402 -4.00539 0
M  V30 2873 H 265.078 -3.72554 -5.39944 0
M  V30 2874 H 264.995 -5.44935 -5.24006 0
M  V30 2875 H 266.263 -4.73586 -6.19141 0
M  V30 2876 N 270.492 0.636531 -1.44174 0
M  V30 2877 C 271.44 1.76995 -1.50915 0
M  V30 2878 C 272.434 1.65053 -0.381295 0
M  V30 2879 O 273.64 1.71197 -0.55601 0
M  V30 2880 H 270.015 0.584247 -0.473455 0
M  V30 2881 H 271.986 1.68432 -2.4632 0
M  V30 2882 C 270.735 3.15314 -1.46534 0
M  V30 2883 H 270.058 3.25149 -2.32633 0
M  V30 2884 H 271.498 3.9453 -1.55312 0
M  V30 2885 C 269.957 3.3639 -0.185305 0
M  V30 2886 O 270.487 3.94699 0.746688 0
M  V30 2887 N 268.693 2.9046 -0.0901606 0
M  V30 2888 H 268.24 2.43193 -0.849416 0
M  V30 2889 H 268.198 3.04937 0.765553 0
M  V30 2890 N 271.97 1.30982 0.876444 0
M  V30 2891 C 272.917 1.18085 1.98304 0
M  V30 2892 C 273.887 0.0682263 1.6596 0
M  V30 2893 O 275.072 0.239937 1.89285 0
M  V30 2894 C 272.212 0.887475 3.33493 0
M  V30 2895 C 271.325 2.08281 3.78475 0
M  V30 2896 C 270.46 1.72678 5.0235 0
M  V30 2897 C 269.499 2.88657 5.39762 0
M  V30 2898 N 268.636 2.53292 6.54819 0
M  V30 2899 H 273.476 2.1275 2.08666 0
M  V30 2900 H 271.013 1.05839 1.02159 0
M  V30 2901 H 272.971 0.697961 4.1132 0
M  V30 2902 H 271.601 -0.022315 3.22792 0
M  V30 2903 H 270.653 2.3833 2.96484 0
M  V30 2904 H 271.965 2.95108 4.02135 0
M  V30 2905 H 271.119 1.50151 5.87826 0
M  V30 2906 H 269.858 0.830327 4.8058 0
M  V30 2907 H 268.863 3.1184 4.52809 0
M  V30 2908 H 270.088 3.79002 5.63502 0
M  V30 2909 H 268.034 1.66163 6.34607 0
M  V30 2910 H 267.951 3.3365 6.7839 0
M  V30 2911 H 269.219 2.34143 7.43503 0
M  V30 2912 N 273.449 -1.08991 1.13837 0
M  V30 2913 C 274.865 -1.33312 0.877506 0
M  V30 2914 C 275.065 -1.95587 -0.48456 0
M  V30 2915 O 274.121 -2.20509 -1.23013 0
M  V30 2916 C 275.434 -2.24045 2.0056 0
M  V30 2917 C 276.982 -2.37542 2.03821 0
M  V30 2918 C 277.457 -3.31614 3.15905 0
M  V30 2919 N 278.948 -3.39189 3.15445 0
M  V30 2920 C 279.683 -4.11992 3.98811 0
M  V30 2921 N 279.179 -4.87553 4.92203 0
M  V30 2922 N 280.972 -4.07762 3.86894 0
M  V30 2923 H 273.123 -0.669456 2.01574 0
M  V30 2924 H 275.386 -0.357482 0.878015 0
M  V30 2925 H 275.092 -1.85521 2.98789 0
M  V30 2926 H 274.966 -3.24466 1.92359 0
M  V30 2927 H 277.353 -2.75327 1.06202 0
M  V30 2928 H 277.434 -1.36884 2.16093 0
M  V30 2929 H 277.078 -2.94551 4.13766 0
M  V30 2930 H 277.008 -4.32186 3.0087 0
M  V30 2931 H 279.499 -2.85314 2.47799 0
M  V30 2932 H 279.812 -5.40549 5.52292 0
M  V30 2933 H 278.157 -4.86627 4.96205 0
M  V30 2934 H 281.348 -3.47833 3.13257 0
M  V30 2935 H 281.521 -4.64238 4.52092 0
M  V30 2936 N 274.927 -0.932562 -1.27047 0
M  V30 2937 C 275.837 -0.441219 -2.30414 0
M  V30 2938 C 276.853 0.480525 -1.67233 0
M  V30 2939 O 278.029 0.362151 -1.98117 0
M  V30 2940 C 275.094 0.293651 -3.45454 0
M  V30 2941 C 274.155 -0.663601 -4.2414 0
M  V30 2942 C 273.388 0.0362932 -5.33688 0
M  V30 2943 O 273.611 1.2548 -5.56427 0
M  V30 2944 O 272.545 -0.638015 -5.98509 0
M  V30 2945 H 276.371 -1.29962 -2.74488 0
M  V30 2946 H 273.956 -0.6981 -1.32087 0
M  V30 2947 H 275.838 0.707951 -4.15411 0
M  V30 2948 H 274.513 1.12758 -3.03426 0
M  V30 2949 H 273.42 -1.12768 -3.56699 0
M  V30 2950 H 274.753 -1.46489 -4.69896 0
M  V30 2951 N 276.405 1.4127 -0.698611 0
M  V30 2952 C 277.821 1.55241 -0.370462 0
M  V30 2953 C 278.021 1.67351 1.12231 0
M  V30 2954 O 277.077 1.65363 1.90818 0
M  V30 2955 C 278.39 2.78997 -1.12165 0
M  V30 2956 C 279.938 2.92797 -1.1063 0
M  V30 2957 C 280.413 4.19445 -1.8393 0
M  V30 2958 N 281.904 4.26409 -1.80914 0
M  V30 2959 C 282.639 5.23271 -2.34467 0
M  V30 2960 N 282.135 6.26145 -2.96504 0
M  V30 2961 N 283.928 5.15232 -2.24706 0
M  V30 2962 H 276.079 1.31654 -1.66676 0
M  V30 2963 H 278.342 0.635393 -0.703548 0
M  V30 2964 H 278.048 2.76268 -2.17644 0
M  V30 2965 H 277.922 3.70606 -0.702209 0
M  V30 2966 H 280.309 2.95039 -0.0597713 0
M  V30 2967 H 280.39 2.02353 -1.56483 0
M  V30 2968 H 280.034 4.17964 -2.88563 0
M  V30 2969 H 279.964 5.08866 -1.35509 0
M  V30 2970 H 282.455 3.527 -1.35687 0
M  V30 2971 H 282.768 6.96451 -3.34927 0
M  V30 2972 H 281.113 6.26638 -3.00583 0
M  V30 2973 H 284.304 4.33789 -1.7591 0
M  V30 2974 H 284.477 5.90552 -2.66745 0
M  V30 2975 N 277.883 0.443576 1.51229 0
M  V30 2976 C 278.83 -0.364716 2.279 0
M  V30 2977 C 279.8 -1.0114 1.31757 0
M  V30 2978 O 280.985 -1.02912 1.60667 0
M  V30 2979 C 278.125 -1.45644 3.12861 0
M  V30 2980 C 277.238 -0.827269 4.24005 0
M  V30 2981 C 276.373 -1.89456 4.96266 0
M  V30 2982 C 275.412 -1.24416 5.99322 0
M  V30 2983 N 274.549 -2.25309 6.64966 0
M  V30 2984 H 279.389 0.295464 2.96532 0
M  V30 2985 H 276.926 0.157554 1.46254 0
M  V30 2986 H 278.884 -2.10076 3.6045 0
M  V30 2987 H 277.514 -2.08616 2.46331 0
M  V30 2988 H 276.566 -0.0710839 3.80334 0
M  V30 2989 H 277.878 -0.312481 4.9782 0
M  V30 2990 H 277.032 -2.61535 5.47434 0
M  V30 2991 H 275.771 -2.4431 4.22095 0
M  V30 2992 H 274.776 -0.508868 5.4744 0
M  V30 2993 H 276.001 -0.702882 6.75453 0
M  V30 2994 H 273.947 -2.79231 5.93604 0
M  V30 2995 H 273.864 -1.78739 7.34567 0
M  V30 2996 H 275.132 -2.96853 7.20763 0
M  V30 2997 N 279.361 -1.56624 0.175154 0
M  V30 2998 C 280.271 -2.21741 -0.766042 0
M  V30 2999 C 281.287 -1.21023 -1.25018 0
M  V30 3000 O 282.463 -1.53697 -1.3015 0
M  V30 3001 C 279.528 -2.84839 -1.97655 0
M  V30 3002 C 278.589 -4.00769 -1.53892 0
M  V30 3003 C 277.822 -4.60849 -2.69173 0
M  V30 3004 O 278.045 -4.19823 -3.86141 0
M  V30 3005 O 276.979 -5.50655 -2.43028 0
M  V30 3006 H 280.805 -3.02738 -0.241585 0
M  V30 3007 H 278.39 -1.49305 -0.053222 0
M  V30 3008 H 280.272 -3.24834 -2.68442 0
M  V30 3009 H 278.947 -2.06836 -2.48999 0
M  V30 3010 H 277.854 -3.65436 -0.80044 0
M  V30 3011 H 279.187 -4.80376 -1.07236 0
M  V30 3012 N 280.839 0.0985539 -1.57292 0
M  V30 3013 C 281.749 1.13824 -2.05137 0
M  V30 3014 C 282.765 1.44076 -0.975604 0
M  V30 3015 O 283.941 1.54786 -1.28853 0
M  V30 3016 C 281.006 2.43969 -2.46333 0
M  V30 3017 C 280.067 2.2093 -3.68087 0
M  V30 3018 C 279.3 3.44869 -4.0731 0
M  V30 3019 O 279.523 4.52972 -3.46659 0
M  V30 3020 O 278.457 3.34661 -5.00285 0
M  V30 3021 H 282.283 0.761881 -2.93988 0
M  V30 3022 H 279.868 0.310818 -1.46131 0
M  V30 3023 H 281.75 3.20609 -2.73473 0
M  V30 3024 H 280.425 2.81038 -1.60621 0
M  V30 3025 H 279.332 1.42081 -3.46069 0
M  V30 3026 H 280.665 1.88755 -4.54568 0
M  V30 3027 N 282.317 1.53212 0.369288 0
M  V30 3028 C 283.733 1.42902 0.710712 0
M  V30 3029 C 283.933 0.565135 1.93413 0
M  V30 3030 O 282.989 0.0461484 2.52458 0
M  V30 3031 C 284.302 2.86042 0.927382 0
M  V30 3032 C 285.85 2.9565 1.02762 0
M  V30 3033 C 286.325 4.39843 1.27679 0
M  V30 3034 N 287.816 4.43256 1.34457 0
M  V30 3035 C 288.551 5.51929 1.55439 0
M  V30 3036 N 288.047 6.70655 1.73762 0
M  V30 3037 N 289.84 5.39502 1.57779 0
M  V30 3038 H 281.991 2.07888 -0.435457 0
M  V30 3039 H 284.254 0.938661 -0.132739 0
M  V30 3040 H 283.96 3.51557 0.100287 0
M  V30 3041 H 283.834 3.29472 1.83653 0
M  V30 3042 H 286.221 2.30291 1.84527 0
M  V30 3043 H 286.302 2.5562 0.0959504 0
M  V30 3044 H 285.946 5.05774 0.464175 0
M  V30 3045 H 285.876 4.77443 2.22162 0
M  V30 3046 H 288.367 3.5769 1.21926 0
M  V30 3047 H 288.68 7.49248 1.89335 0
M  V30 3048 H 287.025 6.73648 1.70948 0
M  V30 3049 H 290.216 4.45713 1.43029 0
M  V30 3050 H 290.389 6.2426 1.7379 0
M  V30 3051 N 283.795 -0.628877 1.44509 0
M  V30 3052 C 284.727 -1.754 1.47538 0
M  V30 3053 C 285.74 -1.58575 0.368506 0
M  V30 3054 O 286.929 -1.66847 0.634376 0
M  V30 3055 C 284.029 -3.1315 1.29577 0
M  V30 3056 C 283.202 -3.56413 2.53551 0
M  V30 3057 C 282.261 -4.7305 2.30457 0
M  V30 3058 O 281.287 -4.81247 3.03957 0
M  V30 3059 N 282.489 -5.64903 1.3366 0
M  V30 3060 H 285.254 -1.73272 2.44534 0
M  V30 3061 H 282.815 -0.813512 1.39977 0
M  V30 3062 H 284.807 -3.88902 1.11971 0
M  V30 3063 H 283.377 -3.09908 0.409371 0
M  V30 3064 H 282.597 -2.70847 2.86419 0
M  V30 3065 H 283.885 -3.82071 3.36005 0
M  V30 3066 H 283.283 -5.60975 0.729604 0
M  V30 3067 H 281.84 -6.40275 1.22032 0
M  V30 3068 N 285.273 -1.31445 -0.869486 0
M  V30 3069 C 286.22 -1.19135 -1.97675 0
M  V30 3070 C 287.19 -0.0770266 -1.65921 0
M  V30 3071 O 288.375 -0.249972 -1.89155 0
M  V30 3072 C 285.515 -0.905149 -3.33018 0
M  V30 3073 C 284.628 -2.10285 -3.77365 0
M  V30 3074 C 283.763 -1.75339 -5.01427 0
M  V30 3075 C 282.802 -2.91515 -5.38224 0
M  V30 3076 N 281.939 -2.56762 -6.53466 0
M  V30 3077 H 286.779 -2.13853 -2.07535 0
M  V30 3078 H 284.316 -1.06379 -1.01597 0
M  V30 3079 H 286.274 -0.719765 -4.10944 0
M  V30 3080 H 284.904 0.00519624 -3.228 0
M  V30 3081 H 283.956 -2.39899 -2.95216 0
M  V30 3082 H 285.268 -2.97237 -4.00564 0
M  V30 3083 H 284.422 -1.53266 -5.87022 0
M  V30 3084 H 283.161 -0.855801 -4.80133 0
M  V30 3085 H 282.166 -3.14237 -4.51149 0
M  V30 3086 H 283.391 -3.81985 -5.61484 0
M  V30 3087 H 281.337 -1.69526 -6.33717 0
M  V30 3088 H 281.254 -3.37243 -6.76612 0
M  V30 3089 H 282.522 -2.38083 -7.42251 0
M  V30 3090 N 286.751 1.08385 -1.14413 0
M  V30 3091 C 287.699 2.17406 -0.826888 0
M  V30 3092 C 288.693 1.6827 0.195312 0
M  V30 3093 O 289.899 1.79927 0.0513892 0
M  V30 3094 H 286.274 0.70934 -0.249681 0
M  V30 3095 H 288.245 2.41388 -1.75426 0
M  V30 3096 C 286.994 3.46215 -0.320979 0
M  V30 3097 H 286.317 3.84401 -1.0989 0
M  V30 3098 H 287.757 4.23777 -0.137549 0
M  V30 3099 C 286.216 3.23067 0.955472 0
M  V30 3100 O 286.746 3.4668 2.02918 0
M  V30 3101 N 284.952 2.7661 0.890798 0
M  V30 3102 H 284.499 2.57594 0.0168815 0
M  V30 3103 H 284.457 2.61501 1.74542 0
M  V30 3104 N 288.23 0.939286 1.26551 0
M  V30 3105 C 289.646 0.641304 1.46149 0
M  V30 3106 C 289.846 -0.805964 1.84679 0
M  V30 3107 O 288.902 -1.58278 1.96734 0
M  V30 3108 C 290.215 1.6011 2.54529 0
M  V30 3109 C 291.763 1.6106 2.68382 0
M  V30 3110 C 292.238 2.55765 3.79932 0
M  V30 3111 N 293.729 2.5404 3.87322 0
M  V30 3112 C 294.464 3.24004 4.73085 0
M  V30 3113 N 293.96 4.03388 5.63249 0
M  V30 3114 N 295.753 3.12965 4.66914 0
M  V30 3115 H 287.904 1.87478 0.998285 0
M  V30 3116 H 290.167 0.805559 0.499779 0
M  V30 3117 H 289.873 2.63412 2.33039 0
M  V30 3118 H 289.747 1.35171 3.52149 0
M  V30 3119 H 292.134 0.584835 2.89247 0
M  V30 3120 H 292.215 1.90053 1.71212 0
M  V30 3121 H 291.859 3.58458 3.5982 0
M  V30 3122 H 291.789 2.24063 4.76554 0
M  V30 3123 H 294.28 1.96396 3.22858 0
M  V30 3124 H 294.593 4.5373 6.25579 0
M  V30 3125 H 292.938 4.07489 5.63008 0
M  V30 3126 H 296.129 2.50432 3.95476 0
M  V30 3127 H 296.302 3.67759 5.33533 0
M  V30 3128 N 289.708 -1.40897 0.706093 0
M  V30 3129 C 290.655 -2.30751 0.0474474 0
M  V30 3130 C 291.625 -1.47678 -0.76029 0
M  V30 3131 O 292.81 -1.76441 -0.726177 0
M  V30 3132 C 289.95 -3.33815 -0.875309 0
M  V30 3133 C 289.063 -4.31961 -0.0580623 0
M  V30 3134 C 288.198 -5.22093 -0.979425 0
M  V30 3135 C 287.237 -6.11902 -0.155706 0
M  V30 3136 N 286.374 -6.94482 -1.03144 0
M  V30 3137 H 291.214 -2.86513 0.819413 0
M  V30 3138 H 288.751 -1.41102 0.415783 0
M  V30 3139 H 290.709 -3.92129 -1.42446 0
M  V30 3140 H 289.339 -2.79579 -1.61356 0
M  V30 3141 H 288.391 -3.75507 0.608147 0
M  V30 3142 H 289.703 -4.95415 0.580082 0
M  V30 3143 H 288.857 -5.85292 -1.59744 0
M  V30 3144 H 287.596 -4.5889 -1.65141 0
M  V30 3145 H 286.601 -5.47742 0.475309 0
M  V30 3146 H 287.826 -6.77162 0.512635 0
M  V30 3147 H 285.772 -6.33877 -1.68924 0
M  V30 3148 H 285.689 -7.54665 -0.449108 0
M  V30 3149 H 286.957 -7.6214 -1.63593 0
M  V30 3150 N 291.186 -0.45159 -1.50991 0
M  V30 3151 C 292.133 0.352625 -2.2809 0
M  V30 3152 C 293.103 1.0044 -1.32291 0
M  V30 3153 O 294.288 1.02058 -1.6121 0
M  V30 3154 C 291.428 1.43983 -3.13629 0
M  V30 3155 C 290.541 0.804772 -4.24438 0
M  V30 3156 C 289.676 1.86822 -4.97263 0
M  V30 3157 C 288.715 1.21236 -5.99973 0
M  V30 3158 N 287.852 2.2178 -6.66152 0
M  V30 3159 H 292.692 -0.311186 -2.96371 0
M  V30 3160 H 290.229 -0.165308 -1.46168 0
M  V30 3161 H 292.187 2.08161 -3.61559 0
M  V30 3162 H 290.817 2.07307 -2.47434 0
M  V30 3163 H 289.869 0.0509129 -3.80366 0
M  V30 3164 H 291.181 0.286076 -4.97979 0
M  V30 3165 H 290.335 2.58628 -5.48813 0
M  V30 3166 H 289.074 2.42068 -4.23385 0
M  V30 3167 H 288.079 0.479828 -5.47702 0
M  V30 3168 H 289.304 0.667051 -6.75816 0
M  V30 3169 H 287.25 2.76079 -5.95077 0
M  V30 3170 H 287.167 1.74841 -7.35504 0
M  V30 3171 H 288.435 2.93026 -7.22327 0
M  V30 3172 N 292.664 1.56529 -0.183458 0
M  V30 3173 C 293.574 2.22144 0.754272 0
M  V30 3174 C 294.59 1.21684 1.24374 0
M  V30 3175 O 295.766 1.54385 1.29333 0
M  V30 3176 C 292.831 2.85884 1.96141 0
M  V30 3177 C 291.892 4.01579 1.51765 0
M  V30 3178 C 291.125 4.6227 2.66725 0
M  V30 3179 O 291.348 4.21865 3.83909 0
M  V30 3180 O 290.282 5.51936 2.40104 0
M  V30 3181 H 294.108 3.02861 0.225527 0
M  V30 3182 H 291.693 1.49331 0.0453032 0
M  V30 3183 H 293.575 3.26253 2.66715 0
M  V30 3184 H 292.25 2.08154 2.47899 0
M  V30 3185 H 291.157 3.65856 0.781049 0
M  V30 3186 H 292.49 4.80938 1.04686 0
M  V30 3187 N 294.142 -0.090211 1.57342 0
M  V30 3188 C 295.089 -1.10909 2.02405 0
M  V30 3189 C 296.059 -1.39523 0.901252 0
M  V30 3190 O 297.244 -1.50903 1.1676 0
M  V30 3191 C 294.384 -2.42277 2.45755 0
M  V30 3192 C 293.497 -2.20352 3.71576 0
M  V30 3193 C 292.632 -3.45154 4.03785 0
M  V30 3194 C 291.671 -3.18512 5.22701 0
M  V30 3195 N 290.808 -4.35593 5.50639 0
M  V30 3196 H 295.648 -0.71782 2.89225 0
M  V30 3197 H 293.185 -0.342901 1.43048 0
M  V30 3198 H 295.143 -3.18951 2.68935 0
M  V30 3199 H 293.773 -2.79242 1.61938 0
M  V30 3200 H 292.825 -1.34458 3.55844 0
M  V30 3201 H 294.137 -1.96661 4.58395 0
M  V30 3202 H 293.291 -4.30233 4.27767 0
M  V30 3203 H 292.03 -3.71904 3.15498 0
M  V30 3204 H 291.035 -2.31827 4.98534 0
M  V30 3205 H 292.26 -2.93103 6.12591 0
M  V30 3206 H 290.206 -4.6241 4.6531 0
M  V30 3207 H 290.123 -4.1511 6.31838 0
M  V30 3208 H 291.391 -5.21723 5.7916 0
M  V30 3209 N 295.62 -1.53406 -0.361157 0
M  V30 3210 C 296.567 -1.80156 -1.44265 0
M  V30 3211 C 297.537 -0.646183 -1.53015 0
M  V30 3212 O 298.722 -0.888818 -1.68833 0
M  V30 3213 C 295.862 -2.00116 -2.81154 0
M  V30 3214 C 294.975 -3.27833 -2.81335 0
M  V30 3215 C 294.11 -3.37957 -4.09828 0
M  V30 3216 C 293.149 -4.59689 -4.04168 0
M  V30 3217 N 292.286 -4.66942 -5.24318 0
M  V30 3218 H 297.126 -2.72438 -1.20754 0
M  V30 3219 H 294.663 -1.34954 -0.585296 0
M  V30 3220 H 296.621 -2.09677 -3.60682 0
M  V30 3221 H 295.251 -1.11167 -3.03054 0
M  V30 3222 H 294.303 -3.27204 -1.94014 0
M  V30 3223 H 295.615 -4.17442 -2.73027 0
M  V30 3224 H 294.769 -3.46853 -4.97773 0
M  V30 3225 H 293.508 -2.46372 -4.20894 0
M  V30 3226 H 292.513 -4.50889 -3.14609 0
M  V30 3227 H 293.738 -5.5262 -3.947 0
M  V30 3228 H 291.684 -3.7826 -5.35962 0
M  V30 3229 H 291.601 -5.50462 -5.18197 0
M  V30 3230 H 292.869 -4.80127 -6.14084 0
M  V30 3231 N 297.098 0.621204 -1.44841 0
M  V30 3232 C 298.008 1.7612 -1.5498 0
M  V30 3233 C 299.024 1.68477 -0.434927 0
M  V30 3234 O 300.2 1.89076 -0.693693 0
M  V30 3235 C 297.265 3.1254 -1.50065 0
M  V30 3236 C 296.326 3.31741 -2.72482 0
M  V30 3237 C 295.559 4.61653 -2.67792 0
M  V30 3238 O 295.782 5.431 -1.74352 0
M  V30 3239 O 294.716 4.83271 -3.58794 0
M  V30 3240 H 298.542 1.70518 -2.51311 0
M  V30 3241 H 296.127 0.783643 -1.27198 0
M  V30 3242 H 298.009 3.93844 -1.49882 0
M  V30 3243 H 296.684 3.18663 -0.568806 0
M  V30 3244 H 295.591 2.50077 -2.7823 0
M  V30 3245 H 296.924 3.30486 -3.64746 0
M  V30 3246 N 298.576 1.31904 0.862503 0
M  V30 3247 C 299.506 1.22782 1.98612 0
M  V30 3248 C 300.487 0.113362 1.69722 0
M  V30 3249 O 301.672 0.299218 1.91881 0
M  V30 3250 C 298.802 0.942058 3.34279 0
M  V30 3251 C 297.756 2.0169 3.77499 0
M  V30 3252 C 297.082 1.58369 5.10709 0
M  V30 3253 C 298.382 3.43096 3.93805 0
M  V30 3254 H 300.076 2.16788 2.06502 0
M  V30 3255 H 297.622 1.04366 0.992154 0
M  V30 3256 H 299.575 0.864818 4.1243 0
M  V30 3257 H 298.299 -0.0336603 3.26583 0
M  V30 3258 H 296.958 2.08416 3.01593 0
M  V30 3259 H 296.606 0.595628 4.99461 0
M  V30 3260 H 296.306 2.30279 5.40597 0
M  V30 3261 H 297.83 1.52067 5.91361 0
M  V30 3262 H 299.244 3.39003 4.62331 0
M  V30 3263 H 297.641 4.13288 4.35101 0
M  V30 3264 H 298.711 3.83334 2.96957 0
M  V30 3265 N 300.054 -1.07777 1.14986 0
M  V30 3266 C 301.001 -2.14867 0.842672 0
M  V30 3267 C 301.971 -1.6486 -0.202552 0
M  V30 3268 O 303.156 -1.90668 -0.0710568 0
M  V30 3269 C 300.296 -3.43486 0.333363 0
M  V30 3270 C 299.409 -4.07306 1.43965 0
M  V30 3271 C 298.544 -5.23744 0.886914 0
M  V30 3272 C 297.583 -5.79517 1.97043 0
M  V30 3273 N 296.72 -6.87291 1.4344 0
M  V30 3274 H 301.56 -2.40485 1.75986 0
M  V30 3275 H 299.097 -1.1801 0.878179 0
M  V30 3276 H 301.055 -4.17195 0.0198163 0
M  V30 3277 H 299.685 -3.18133 -0.546916 0
M  V30 3278 H 298.737 -3.31293 1.86946 0
M  V30 3279 H 300.049 -4.44771 2.25788 0
M  V30 3280 H 299.203 -6.04419 0.525651 0
M  V30 3281 H 297.942 -4.87685 0.0377957 0
M  V30 3282 H 296.947 -4.97491 2.34057 0
M  V30 3283 H 298.172 -6.17632 2.82325 0
M  V30 3284 H 296.118 -6.5318 0.607567 0
M  V30 3285 H 296.035 -7.23617 2.18895 0
M  V30 3286 H 297.303 -7.71682 1.10124 0
M  V30 3287 N 301.532 -0.945985 -1.26051 0
M  V30 3288 C 302.462 -0.477172 -2.28572 0
M  V30 3289 C 303.443 0.472032 -1.63419 0
M  V30 3290 O 304.628 0.372853 -1.90587 0
M  V30 3291 C 301.758 0.253975 -3.4637 0
M  V30 3292 C 300.712 -0.609135 -4.23643 0
M  V30 3293 C 300.038 0.252252 -5.34105 0
M  V30 3294 C 301.338 -1.8829 -4.8718 0
M  V30 3295 H 303.032 -1.33402 -2.68038 0
M  V30 3296 H 300.578 -0.642904 -1.28852 0
M  V30 3297 H 302.531 0.593016 -4.17207 0
M  V30 3298 H 301.255 1.145 -3.05871 0
M  V30 3299 H 299.914 -0.931138 -3.54578 0
M  V30 3300 H 299.562 1.14278 -4.89846 0
M  V30 3301 H 299.262 -0.32188 -5.86718 0
M  V30 3302 H 300.786 0.586454 -6.07777 0
M  V30 3303 H 302.2 -1.61081 -5.50205 0
M  V30 3304 H 300.597 -2.40199 -5.49931 0
M  V30 3305 H 301.667 -2.59134 -4.09851 0
M  V30 3306 N 303.011 1.40521 -0.713556 0
M  V30 3307 C 303.921 2.34522 -0.0606667 0
M  V30 3308 C 304.937 1.57193 0.74607 0
M  V30 3309 O 306.113 1.89591 0.679493 0
M  V30 3310 C 303.178 3.36081 0.851491 0
M  V30 3311 C 302.239 4.29286 0.0349339 0
M  V30 3312 C 301.472 5.25994 0.903649 0
M  V30 3313 O 301.695 5.28616 2.14292 0
M  V30 3314 O 300.629 6.00918 0.343723 0
M  V30 3315 H 304.455 2.91968 -0.835972 0
M  V30 3316 H 302.04 1.41681 -0.47402 0
M  V30 3317 H 303.922 3.98369 1.37404 0
M  V30 3318 H 302.597 2.81052 1.60598 0
M  V30 3319 H 301.504 3.70289 -0.532633 0
M  V30 3320 H 302.837 4.87462 -0.681287 0
M  V30 3321 N 304.489 0.459591 1.5075 0
M  V30 3322 C 305.437 -0.354678 2.2988 0
M  V30 3323 C 306.431 -1.00086 1.36672 0
M  V30 3324 O 307.637 -0.933277 1.53915 0
M  V30 3325 H 304.012 -0.13321 0.740107 0
M  V30 3326 H 305.983 0.333269 2.96533 0
M  V30 3327 C 304.732 -1.43073 3.169 0
M  V30 3328 H 304.055 -0.942882 3.88523 0
M  V30 3329 H 305.495 -1.97328 3.75284 0
M  V30 3330 C 303.954 -2.42633 2.33732 0
M  V30 3331 O 304.484 -3.47658 2.01238 0
M  V30 3332 N 302.69 -2.14066 1.9653 0
M  V30 3333 H 302.237 -1.28685 2.23155 0
M  V30 3334 H 302.195 -2.80917 1.41185 0
M  V30 3335 N 305.967 -1.56429 0.191757 0
M  V30 3336 C 306.917 -2.15548 -0.743184 0
M  V30 3337 C 307.901 -1.09531 -1.17863 0
M  V30 3338 O 309.093 -1.35602 -1.13759 0
M  V30 3339 C 306.222 -2.81577 -1.96391 0
M  V30 3340 C 305.308 -3.9478 -1.54951 0
M  V30 3341 N 305.699 -4.98677 -0.845876 0
M  V30 3342 C 303.997 -4.06319 -1.83905 0
M  V30 3343 C 304.698 -5.78183 -0.638724 0
M  V30 3344 N 303.674 -5.30495 -1.18643 0
M  V30 3345 H 307.476 -2.9324 -0.196839 0
M  V30 3346 H 304.99 -1.62398 -0.0081603 0
M  V30 3347 H 306.987 -3.22321 -2.64415 0
M  V30 3348 H 305.647 -2.05371 -2.51501 0
M  V30 3349 H 306.658 -5.15464 -0.501704 0
M  V30 3350 H 303.335 -3.41238 -2.40548 0
M  V30 3351 H 304.725 -6.71851 -0.0807929 0
M  V30 3352 N 307.445 0.0818655 -1.57387 0
M  V30 3353 C 308.377 1.12484 -1.997 0
M  V30 3354 C 309.39 1.35564 -0.90146 0
M  V30 3355 O 310.579 1.33982 -1.17945 0
M  V30 3356 C 307.679 2.47778 -2.31213 0
M  V30 3357 C 306.852 2.44793 -3.62485 0
M  V30 3358 C 305.911 3.62117 -3.81782 0
M  V30 3359 O 304.937 3.44005 -4.53486 0
M  V30 3360 N 306.139 4.82094 -3.23367 0
M  V30 3361 H 308.904 0.764585 -2.89783 0
M  V30 3362 H 306.465 0.270664 -1.59621 0
M  V30 3363 H 308.457 3.24891 -2.41304 0
M  V30 3364 H 307.027 2.75843 -1.4707 0
M  V30 3365 H 306.247 1.53134 -3.6324 0
M  V30 3366 H 307.535 2.39889 -4.48699 0
M  V30 3367 H 306.933 4.99713 -2.65148 0
M  V30 3368 H 305.49 5.56753 -3.38923 0
M  V30 3369 N 308.923 1.53595 0.353017 0
M  V30 3370 C 309.833 1.83897 1.45667 0
M  V30 3371 C 310.849 0.728334 1.58023 0
M  V30 3372 O 312.025 1.01968 1.73679 0
M  V30 3373 C 309.09 2.03383 2.80778 0
M  V30 3374 C 308.151 3.27262 2.77845 0
M  V30 3375 C 307.384 3.45809 4.06512 0
M  V30 3376 O 307.607 2.68387 5.03314 0
M  V30 3377 O 306.541 4.39207 4.11559 0
M  V30 3378 H 310.367 2.77686 1.2298 0
M  V30 3379 H 307.952 1.39132 0.544308 0
M  V30 3380 H 309.834 2.17698 3.60812 0
M  V30 3381 H 308.509 1.12783 3.03417 0
M  V30 3382 H 307.416 3.18359 1.96465 0
M  V30 3383 H 308.749 4.17824 2.60161 0
M  V30 3384 N 310.401 -0.613514 1.45168 0
M  V30 3385 C 311.349 -1.74572 1.53712 0
M  V30 3386 C 312.343 -1.64426 0.407505 0
M  V30 3387 O 313.549 -1.70291 0.583176 0
M  V30 3388 H 309.924 -0.576641 0.48269 0
M  V30 3389 H 311.895 -1.64492 2.48968 0
M  V30 3390 C 310.644 -3.12943 1.51532 0
M  V30 3391 H 309.967 -3.21407 2.37776 0
M  V30 3392 H 311.407 -3.9201 1.61569 0
M  V30 3393 C 309.866 -3.36053 0.238798 0
M  V30 3394 O 310.396 -3.95837 -0.6838 0
M  V30 3395 N 308.602 -2.9028 0.136359 0
M  V30 3396 H 308.149 -2.41811 0.887999 0
M  V30 3397 H 308.107 -3.06116 -0.716944 0
M  V30 3398 N 311.879 -1.3236 -0.855495 0
M  V30 3399 C 312.809 -1.23833 -1.97958 0
M  V30 3400 C 313.79 -0.122361 -1.69659 0
M  V30 3401 O 314.975 -0.30939 -1.9172 0
M  V30 3402 C 312.105 -0.959772 -3.33775 0
M  V30 3403 C 311.059 -2.03689 -3.76424 0
M  V30 3404 C 310.385 -1.61075 -5.09862 0
M  V30 3405 C 311.685 -3.4518 -3.9198 0
M  V30 3406 H 313.379 -2.1788 -2.0535 0
M  V30 3407 H 310.925 -1.04891 -0.986605 0
M  V30 3408 H 312.878 -0.886678 -4.11966 0
M  V30 3409 H 311.602 0.0163404 -3.26596 0
M  V30 3410 H 310.261 -2.10012 -3.00484 0
M  V30 3411 H 309.909 -0.622107 -4.99138 0
M  V30 3412 H 309.609 -2.33143 -5.39368 0
M  V30 3413 H 311.133 -1.55201 -5.90546 0
M  V30 3414 H 312.547 -3.4145 -4.60526 0
M  V30 3415 H 310.944 -4.1559 -4.32903 0
M  V30 3416 H 312.014 -3.84903 -2.94919 0
M  V30 3417 N 313.357 1.07166 -1.15556 0
M  V30 3418 C 314.773 1.31899 -0.898603 0
M  V30 3419 C 314.973 1.96333 0.453383 0
M  V30 3420 O 314.029 2.22438 1.19489 0
M  V30 3421 C 315.342 2.20826 -2.04099 0
M  V30 3422 C 316.89 2.34269 -2.07574 0
M  V30 3423 C 317.365 3.26546 -3.21141 0
M  V30 3424 N 318.856 3.34127 -3.20801 0
M  V30 3425 C 319.591 4.05595 -4.05315 0
M  V30 3426 N 319.087 4.79661 -4.99897 0
M  V30 3427 N 320.88 4.01555 -3.93332 0
M  V30 3428 H 313.031 0.637302 -2.02613 0
M  V30 3429 H 315.294 0.343468 -0.883591 0
M  V30 3430 H 315 1.80744 -3.01703 0
M  V30 3431 H 314.874 3.21364 -1.97496 0
M  V30 3432 H 317.261 2.73603 -1.10568 0
M  V30 3433 H 317.342 1.33429 -2.18244 0
M  V30 3434 H 316.986 2.87931 -4.184 0
M  V30 3435 H 316.916 4.27345 -3.07708 0
M  V30 3436 H 319.407 2.81336 -2.52306 0
M  V30 3437 H 319.72 5.31694 -5.60822 0
M  V30 3438 H 318.065 4.78671 -5.03884 0
M  V30 3439 H 321.256 3.42806 -3.18751 0
M  V30 3440 H 321.429 4.56987 -4.5942 0
M  V30 3441 N 314.835 0.952656 1.25548 0
M  V30 3442 C 316.083 0.605176 1.92826 0
M  V30 3443 C 316.404 -0.860261 1.74999 0
M  V30 3444 O 315.674 -1.6125 1.11244 0
M  V30 3445 H 314.254 0.220832 0.713612 0
M  V30 3446 H 316.916 1.21047 1.52754 0
M  V30 3447 H 316.012 0.832798 3.00784 0
M  V30 3448 N 316.313 -1.40141 0.720998 0
M  V30 3449 C 317.245 -2.29177 0.0324669 0
M  V30 3450 C 318.258 -1.46105 -0.718126 0
M  V30 3451 O 319.447 -1.69335 -0.564608 0
M  V30 3452 C 316.547 -3.24473 -0.978292 0
M  V30 3453 C 315.72 -4.36423 -0.292115 0
M  V30 3454 C 314.779 -5.12122 -1.20901 0
M  V30 3455 O 313.805 -5.64981 -0.691766 0
M  V30 3456 N 315.007 -5.21992 -2.53978 0
M  V30 3457 H 317.772 -2.88909 0.796984 0
M  V30 3458 H 315.333 -1.51569 0.569068 0
M  V30 3459 H 317.325 -3.71987 -1.59398 0
M  V30 3460 H 315.895 -2.65871 -1.64413 0
M  V30 3461 H 315.115 -3.90967 0.503847 0
M  V30 3462 H 316.403 -5.08467 0.183971 0
M  V30 3463 H 315.801 -4.8054 -2.98493 0
M  V30 3464 H 314.358 -5.72995 -3.10677 0
M  V30 3465 N 317.792 -0.46758 -1.50504 0
M  V30 3466 C 318.739 0.328413 -2.28452 0
M  V30 3467 C 319.709 0.990313 -1.33349 0
M  V30 3468 O 320.894 1.00343 -1.62284 0
M  V30 3469 C 318.034 1.40648 -3.15138 0
M  V30 3470 C 317.147 0.759709 -4.25267 0
M  V30 3471 C 316.282 1.81537 -4.99217 0
M  V30 3472 C 315.321 1.14866 -6.01226 0
M  V30 3473 N 314.458 2.14702 -6.68467 0
M  V30 3474 H 319.298 -0.342603 -2.96024 0
M  V30 3475 H 316.835 -0.180801 -1.45985 0
M  V30 3476 H 318.793 2.04315 -3.63746 0
M  V30 3477 H 317.423 2.04671 -2.49619 0
M  V30 3478 H 316.475 0.0105671 -3.80399 0
M  V30 3479 H 317.787 0.233243 -4.98254 0
M  V30 3480 H 316.941 2.52793 -5.51526 0
M  V30 3481 H 315.68 2.37564 -4.25928 0
M  V30 3482 H 314.685 0.42171 -5.4818 0
M  V30 3483 H 315.91 0.595334 -6.76485 0
M  V30 3484 H 313.856 2.69752 -5.97972 0
M  V30 3485 H 313.773 1.6703 -7.37317 0
M  V30 3486 H 315.041 2.85348 -7.25394 0
M  V30 3487 N 319.27 1.56325 -0.20005 0
M  V30 3488 C 320.681 1.8408 0.31167 0
M  V30 3489 C 321.032 1.12087 1.61031 0
M  V30 3490 O 320.157 0.38332 2.12978 0
M  V30 3491 C 320.752 3.33932 0.57226 0
M  V30 3492 C 319.311 3.6208 1.02834 0
M  V30 3493 C 318.458 2.77186 0.079634 0
M  V30 3494 H 321.409 1.52939 -0.423729 0
M  V30 3495 H 321.43 3.52971 1.42096 0
M  V30 3496 H 320.942 3.86303 -0.37308 0
M  V30 3497 H 319.043 3.15147 1.98778 0
M  V30 3498 H 319.156 4.7023 0.917624 0
M  V30 3499 H 317.52 2.47951 0.582448 0
M  V30 3500 H 318.303 3.32347 -0.860238 0
M  V30 3501 N 320.748 -0.0735177 1.57428 0
M  V30 3502 C 321.695 -1.08756 2.0357 0
M  V30 3503 C 322.665 -1.38559 0.916 0
M  V30 3504 O 323.85 -1.49656 1.18354 0
M  V30 3505 C 320.99 -2.39657 2.48311 0
M  V30 3506 C 320.103 -2.16399 3.73892 0
M  V30 3507 C 319.238 -3.40852 4.07423 0
M  V30 3508 C 318.277 -3.1295 5.2605 0
M  V30 3509 N 317.414 -4.29729 5.55228 0
M  V30 3510 H 322.254 -0.687104 2.8997 0
M  V30 3511 H 319.791 -0.327709 1.43403 0
M  V30 3512 H 321.749 -3.16081 2.72303 0
M  V30 3513 H 320.379 -2.77508 1.64891 0
M  V30 3514 H 319.431 -1.30676 3.57251 0
M  V30 3515 H 320.743 -1.91788 4.60455 0
M  V30 3516 H 319.897 -4.25671 4.32306 0
M  V30 3517 H 318.636 -3.68537 3.19425 0
M  V30 3518 H 317.641 -2.26526 5.00965 0
M  V30 3519 H 318.866 -2.86589 6.15665 0
M  V30 3520 H 316.812 -4.57448 4.70188 0
M  V30 3521 H 316.729 -4.08385 6.36206 0
M  V30 3522 H 317.997 -5.1555 5.84661 0
M  V30 3523 N 322.226 -1.5378 -0.344866 0
M  V30 3524 C 323.173 -1.81676 -1.42346 0
M  V30 3525 C 324.143 -0.662376 -1.52321 0
M  V30 3526 O 325.328 -0.906675 -1.67881 0
M  V30 3527 C 322.468 -2.03087 -2.79015 0
M  V30 3528 C 321.581 -3.30799 -2.77842 0
M  V30 3529 C 320.716 -3.42285 -4.0622 0
M  V30 3530 C 319.755 -4.6395 -3.9927 0
M  V30 3531 N 318.892 -4.72477 -5.19336 0
M  V30 3532 H 323.732 -2.73703 -1.17858 0
M  V30 3533 H 321.269 -1.35568 -0.570949 0
M  V30 3534 H 323.227 -2.1349 -3.58438 0
M  V30 3535 H 321.857 -1.14375 -3.01858 0
M  V30 3536 H 320.909 -3.29244 -1.90533 0
M  V30 3537 H 322.221 -4.20314 -2.68584 0
M  V30 3538 H 321.375 -3.52113 -4.94066 0
M  V30 3539 H 320.114 -2.50823 -4.18258 0
M  V30 3540 H 319.119 -4.54201 -3.09809 0
M  V30 3541 H 320.344 -5.56775 -3.88817 0
M  V30 3542 H 318.29 -3.83924 -5.3192 0
M  V30 3543 H 318.207 -5.55927 -5.12329 0
M  V30 3544 H 319.475 -4.86613 -6.08957 0
M  V30 3545 N 323.704 0.605807 -1.45491 0
M  V30 3546 C 325.12 0.926751 -1.29936 0
M  V30 3547 C 325.32 1.99896 -0.253706 0
M  V30 3548 O 324.376 2.50038 0.351737 0
M  V30 3549 C 325.689 1.36599 -2.67883 0
M  V30 3550 C 327.237 1.4801 -2.75793 0
M  V30 3551 C 327.712 1.95309 -4.14268 0
M  V30 3552 N 329.203 2.0254 -4.16571 0
M  V30 3553 C 329.938 2.40363 -5.20589 0
M  V30 3554 N 329.434 2.77143 -6.34952 0
M  V30 3555 N 331.227 2.40718 -5.07948 0
M  V30 3556 H 323.378 -0.102862 -2.12151 0
M  V30 3557 H 325.641 0.016639 -0.947854 0
M  V30 3558 H 325.347 0.652306 -3.45598 0
M  V30 3559 H 325.221 2.33215 -2.96463 0
M  V30 3560 H 327.608 2.1847 -1.98381 0
M  V30 3561 H 327.689 0.497041 -2.50925 0
M  V30 3562 H 327.333 1.25436 -4.92167 0
M  V30 3563 H 327.263 2.94532 -4.3653 0
M  V30 3564 H 329.754 1.76699 -3.34045 0
M  V30 3565 H 330.067 3.0489 -7.10114 0
M  V30 3566 H 328.412 2.74834 -6.3835 0
M  V30 3567 H 331.603 2.11392 -4.1765 0
M  V30 3568 H 331.776 2.69869 -5.89131 0
M  V30 3569 N 325.182 1.32811 0.848464 0
M  V30 3570 C 326.129 1.22265 1.95755 0
M  V30 3571 C 327.099 0.103413 1.65778 0
M  V30 3572 O 328.284 0.280033 1.88734 0
M  V30 3573 C 325.424 0.958014 3.31536 0
M  V30 3574 C 324.537 2.16262 3.73971 0
M  V30 3575 C 323.672 1.83295 4.98575 0
M  V30 3576 C 322.711 3.00041 5.33518 0
M  V30 3577 N 321.848 2.67125 6.49299 0
M  V30 3578 H 326.688 2.17128 2.04107 0
M  V30 3579 H 324.225 1.07982 0.998913 0
M  V30 3580 H 326.183 0.785052 4.09747 0
M  V30 3581 H 324.813 0.046159 3.22767 0
M  V30 3582 H 323.865 2.44565 2.91362 0
M  V30 3583 H 325.177 3.03572 3.95785 0
M  V30 3584 H 324.331 1.62586 5.84509 0
M  V30 3585 H 323.07 0.932078 4.7871 0
M  V30 3586 H 322.075 3.21374 4.46093 0
M  V30 3587 H 323.3 3.90869 5.55336 0
M  V30 3588 H 321.246 1.79586 6.3094 0
M  V30 3589 H 321.163 3.47965 6.71161 0
M  V30 3590 H 322.431 2.49861 7.3837 0
M  V30 3591 N 326.66 -1.06551 1.16123 0
M  V30 3592 C 327.607 -2.13961 0.865414 0
M  V30 3593 C 328.577 -1.65066 -0.185055 0
M  V30 3594 O 329.762 -1.90732 -0.05083 0
M  V30 3595 C 326.902 -3.43113 0.369776 0
M  V30 3596 C 326.015 -4.05756 1.48276 0
M  V30 3597 C 325.15 -5.22773 0.942414 0
M  V30 3598 C 324.189 -5.77395 2.03179 0
M  V30 3599 N 323.326 -6.85731 1.50721 0
M  V30 3600 H 328.166 -2.38605 1.78527 0
M  V30 3601 H 325.703 -1.17072 0.890646 0
M  V30 3602 H 327.661 -4.17151 0.0640643 0
M  V30 3603 H 326.291 -3.18695 -0.513143 0
M  V30 3604 H 325.343 -3.29292 1.9045 0
M  V30 3605 H 326.655 -4.42351 2.30493 0
M  V30 3606 H 325.809 -6.03827 0.589729 0
M  V30 3607 H 324.548 -4.87618 0.0895191 0
M  V30 3608 H 323.553 -4.94981 2.3932 0
M  V30 3609 H 324.778 -6.14603 2.8886 0
M  V30 3610 H 322.724 -6.52499 0.676811 0
M  V30 3611 H 322.641 -7.21254 2.26557 0
M  V30 3612 H 323.909 -7.7047 1.18303 0
M  V30 3613 N 328.138 -0.959301 -1.25041 0
M  V30 3614 C 329.086 -0.474437 -2.2771 0
M  V30 3615 C 330.08 0.457697 -1.631 0
M  V30 3616 O 331.286 0.333912 -1.76876 0
M  V30 3617 H 327.661 -0.134936 -0.739795 0
M  V30 3618 H 329.632 -1.35251 -2.65988 0
M  V30 3619 C 328.381 0.227884 -3.46952 0
M  V30 3620 H 327.704 -0.480248 -3.96905 0
M  V30 3621 H 329.144 0.531091 -4.20661 0
M  V30 3622 C 327.603 1.452 -3.04004 0
M  V30 3623 O 328.133 2.54949 -3.10426 0
M  V30 3624 N 326.339 1.31502 -2.59144 0
M  V30 3625 H 325.886 0.422065 -2.54119 0
M  V30 3626 H 325.844 2.13521 -2.30773 0
M  V30 3627 N 329.616 1.39756 -0.72842 0
M  V30 3628 C 330.548 2.29157 -0.0446202 0
M  V30 3629 C 331.561 1.46484 0.710367 0
M  V30 3630 O 332.75 1.69632 0.55562 0
M  V30 3631 C 329.85 3.24987 0.961071 0
M  V30 3632 C 329.023 4.36572 0.268967 0
M  V30 3633 C 328.082 5.12756 1.18184 0
M  V30 3634 O 327.108 5.6534 0.661794 0
M  V30 3635 N 328.31 5.23331 2.51206 0
M  V30 3636 H 331.075 2.88482 -0.812295 0
M  V30 3637 H 328.636 1.51265 -0.577098 0
M  V30 3638 H 330.628 3.72827 1.57423 0
M  V30 3639 H 329.198 2.66739 1.63 0
M  V30 3640 H 328.418 3.90694 -0.524574 0
M  V30 3641 H 329.706 5.08363 -0.210934 0
M  V30 3642 H 329.104 4.82116 2.9594 0
M  V30 3643 H 327.661 5.74634 3.07634 0
M  V30 3644 N 331.094 0.475555 1.50254 0
M  V30 3645 C 332.004 -0.321501 2.32387 0
M  V30 3646 C 333.02 -0.991755 1.42969 0
M  V30 3647 O 334.196 -0.978747 1.76018 0
M  V30 3648 C 331.261 -1.38667 3.17762 0
M  V30 3649 C 330.322 -0.732538 4.23004 0
M  V30 3650 C 329.555 -1.74695 5.04299 0
M  V30 3651 O 329.778 -2.97399 4.86734 0
M  V30 3652 O 328.712 -1.31631 5.8733 0
M  V30 3653 H 332.538 0.350071 3.01676 0
M  V30 3654 H 330.123 0.237321 1.47503 0
M  V30 3655 H 332.005 -2.00354 3.70724 0
M  V30 3656 H 330.68 -2.04163 2.51196 0
M  V30 3657 H 329.587 -0.0765902 3.74022 0
M  V30 3658 H 330.92 -0.120452 4.92053 0
M  V30 3659 N 332.573 -1.56217 0.208337 0
M  V30 3660 C 333.536 -2.18455 -0.693557 0
M  V30 3661 C 334.536 -1.14268 -1.13135 0
M  V30 3662 O 335.726 -1.39577 -1.0423 0
M  V30 3663 C 332.858 -2.79727 -1.94848 0
M  V30 3664 H 334.051 -2.99519 -0.15114 0
M  V30 3665 H 331.604 -1.56245 -0.041287 0
M  V30 3666 H 332.339 -2.02497 -2.53309 0
M  V30 3667 H 332.124 -3.56009 -1.64316 0
M  V30 3668 H 333.614 -3.27475 -2.59133 0
M  V30 3669 N 334.051 0.0651679 -1.57465 0
M  V30 3670 C 335.299 0.761555 -1.87202 0
M  V30 3671 C 335.62 1.77778 -0.801243 0
M  V30 3672 O 334.89 1.95166 0.16937 0
M  V30 3673 H 333.47 0.284251 -0.690804 0
M  V30 3674 H 336.132 0.0396827 -1.9486 0
M  V30 3675 H 335.228 1.27365 -2.84929 0
M  V30 3676 N 335.529 1.53961 0.336706 0
M  V30 3677 C 336.479 1.7881 1.41461 0
M  V30 3678 C 337.463 0.643561 1.47469 0
M  V30 3679 O 338.655 0.903166 1.52223 0
M  V30 3680 C 335.784 2.00722 2.78506 0
M  V30 3681 C 334.87 3.2126 2.76862 0
M  V30 3682 N 335.261 4.42588 2.44845 0
M  V30 3683 C 333.559 3.22568 3.08004 0
M  V30 3684 C 334.26 5.2447 2.51607 0
M  V30 3685 N 333.236 4.61344 2.87511 0
M  V30 3686 H 337.038 2.70205 1.15615 0
M  V30 3687 H 334.552 1.52978 0.545112 0
M  V30 3688 H 336.549 2.1666 3.5618 0
M  V30 3689 H 335.209 1.10573 3.05293 0
M  V30 3690 H 336.22 4.69819 2.17922 0
M  V30 3691 H 332.897 2.42409 3.39918 0
M  V30 3692 H 334.287 6.31324 2.29955 0
M  V30 3693 N 337.007 -0.598083 1.45811 0
M  V30 3694 C 337.917 -1.73632 1.57763 0
M  V30 3695 C 338.933 -1.67763 0.461676 0
M  V30 3696 O 340.109 -1.87949 0.723685 0
M  V30 3697 C 337.174 -3.10114 1.55018 0
M  V30 3698 C 336.235 -3.27364 2.77726 0
M  V30 3699 C 335.468 -4.57334 2.75102 0
M  V30 3700 O 335.691 -5.40258 1.8297 0
M  V30 3701 O 334.625 -4.77502 3.66437 0
M  V30 3702 H 338.451 -1.66498 2.53992 0
M  V30 3703 H 336.036 -0.763308 1.28429 0
M  V30 3704 H 337.918 -3.9141 1.56129 0
M  V30 3705 H 336.593 -3.17718 0.619431 0
M  V30 3706 H 335.5 -2.45619 2.82174 0
M  V30 3707 H 336.833 -3.24641 3.69958 0
M  V30 3708 N 338.485 -1.33259 -0.841409 0
M  V30 3709 C 339.448 -1.23221 -1.9326 0
M  V30 3710 C 340.448 -0.151895 -1.60081 0
M  V30 3711 O 341.638 -0.403246 -1.69468 0
M  V30 3712 C 338.77 -0.898123 -3.28856 0
M  V30 3713 H 339.963 -2.2021 -2.03587 0
M  V30 3714 H 337.516 -1.17281 -1.03319 0
M  V30 3715 H 338.251 0.0693841 -3.24226 0
M  V30 3716 H 338.036 -1.67934 -3.54317 0
M  V30 3717 H 339.526 -0.852563 -4.08805 0
M  V30 3718 N 339.963 1.05934 -1.16686 0
M  V30 3719 C 340.926 2.11669 -0.879144 0
M  V30 3720 C 341.926 1.60294 0.127445 0
M  V30 3721 O 343.116 1.7389 -0.103865 0
M  V30 3722 C 340.248 3.39438 -0.315425 0
M  V30 3723 H 341.441 2.38626 -1.81653 0
M  V30 3724 H 338.994 1.22058 -0.976299 0
M  V30 3725 H 339.729 3.18132 0.629468 0
M  V30 3726 H 339.514 3.78034 -1.04079 0
M  V30 3727 H 341.004 4.17391 -0.132189 0
M  V30 3728 N 341.441 0.965919 1.2453 0
M  V30 3729 C 342.689 0.625593 1.92174 0
M  V30 3730 C 343.01 -0.841652 1.75901 0
M  V30 3731 O 342.28 -1.60061 1.12948 0
M  V30 3732 H 340.86 0.228388 0.71123 0
M  V30 3733 H 343.522 1.2266 1.51461 0
M  V30 3734 H 342.618 0.864653 2.99884 0
M  V30 3735 N 342.919 -1.39368 0.735821 0
M  V30 3736 C 343.829 -2.34395 0.0979693 0
M  V30 3737 C 344.845 -1.58361 -0.720968 0
M  V30 3738 O 346.021 -1.90648 -0.649245 0
M  V30 3739 C 343.086 -3.37393 -0.797916 0
M  V30 3740 C 342.147 -4.29287 0.0333662 0
M  V30 3741 C 341.38 -5.27365 -0.819854 0
M  V30 3742 O 341.603 -5.31959 -2.05855 0
M  V30 3743 O 340.537 -6.01389 -0.248079 0
M  V30 3744 H 344.363 -2.90601 0.882315 0
M  V30 3745 H 341.948 -1.40909 0.4965 0
M  V30 3746 H 343.83 -4.00505 -1.31048 0
M  V30 3747 H 342.505 -2.83571 -1.56106 0
M  V30 3748 H 341.412 -3.69395 0.591475 0
M  V30 3749 H 342.745 -4.86317 0.758752 0
M  V30 3750 N 344.397 -0.483516 -1.5 0
M  V30 3751 C 345.307 0.309172 -2.32554 0
M  V30 3752 C 346.323 0.984159 -1.43493 0
M  V30 3753 O 347.499 0.969399 -1.76535 0
M  V30 3754 C 344.564 1.36979 -3.18493 0
M  V30 3755 C 343.625 0.710095 -4.23387 0
M  V30 3756 C 342.858 1.72018 -5.05218 0
M  V30 3757 O 343.081 2.94813 -4.88305 0
M  V30 3758 O 342.015 1.28515 -5.8802 0
M  V30 3759 H 345.841 -0.366064 -3.01486 0
M  V30 3760 H 343.426 -0.24514 -1.47375 0
M  V30 3761 H 345.308 1.98385 -3.71781 0
M  V30 3762 H 343.983 2.02828 -2.52275 0
M  V30 3763 H 342.89 0.0567539 -3.74057 0
M  V30 3764 H 344.223 0.0943557 -4.9211 0
M  V30 3765 N 345.875 1.56104 -0.216619 0
M  V30 3766 C 346.838 2.18819 0.681962 0
M  V30 3767 C 347.838 1.14866 1.12528 0
M  V30 3768 O 349.028 1.40128 1.03488 0
M  V30 3769 C 346.16 2.80756 1.93362 0
M  V30 3770 H 347.353 2.99595 0.135254 0
M  V30 3771 H 344.906 1.56265 0.0330003 0
M  V30 3772 H 345.641 2.03837 2.52232 0
M  V30 3773 H 345.426 3.56876 1.62426 0
M  V30 3774 H 346.916 3.28844 2.57393 0
M  V30 3775 N 347.353 -0.0568162 1.57498 0
M  V30 3776 C 348.316 -1.05038 2.03715 0
M  V30 3777 C 349.316 -1.30709 0.936577 0
M  V30 3778 O 350.506 -1.26178 1.20103 0
M  V30 3779 C 347.638 -2.39034 2.43055 0
M  V30 3780 H 348.831 -0.651715 2.92733 0
M  V30 3781 H 346.384 -0.302947 1.53336 0
M  V30 3782 H 347.119 -2.83703 1.57108 0
M  V30 3783 H 346.904 -2.21739 3.2338 0
M  V30 3784 H 348.394 -3.10421 2.79336 0
M  V30 3785 N 348.832 -1.54138 -0.328536 0
M  V30 3786 C 349.742 -1.86192 -1.42723 0
M  V30 3787 C 350.758 -0.753382 -1.56844 0
M  V30 3788 O 351.934 -1.04718 -1.72035 0
M  V30 3789 C 348.999 -2.07824 -2.77507 0
M  V30 3790 C 348.06 -3.31641 -2.72603 0
M  V30 3791 C 347.293 -3.52232 -4.00959 0
M  V30 3792 O 347.516 -2.7636 -4.9898 0
M  V30 3793 O 346.45 -4.45699 -4.0452 0
M  V30 3794 H 350.276 -2.79608 -1.18547 0
M  V30 3795 H 347.861 -1.3998 -0.522104 0
M  V30 3796 H 349.743 -2.23411 -3.57303 0
M  V30 3797 H 348.418 -1.17596 -3.01584 0
M  V30 3798 H 347.325 -3.21444 -1.91376 0
M  V30 3799 H 348.658 -4.2191 -2.53481 0
M  V30 3800 N 350.31 0.590341 -1.46126 0
M  V30 3801 C 351.273 1.68194 -1.55703 0
M  V30 3802 C 352.273 1.54808 -0.434868 0
M  V30 3803 O 353.463 1.59564 -0.698928 0
M  V30 3804 C 350.595 3.07575 -1.47005 0
M  V30 3805 H 351.788 1.61064 -2.52979 0
M  V30 3806 H 349.341 0.807541 -1.33823 0
M  V30 3807 H 350.076 3.20268 -0.509785 0
M  V30 3808 H 349.861 3.187 -2.28414 0
M  V30 3809 H 351.351 3.87055 -1.56776 0
M  V30 3810 N 351.788 1.33704 0.83433 0
M  V30 3811 C 353.013 1.28615 1.62705 0
M  V30 3812 C 353.438 -0.139242 1.87584 0
M  V30 3813 O 352.796 -1.09734 1.4432 0
M  V30 3814 C 352.844 2.07139 2.95171 0
M  V30 3815 O 351.948 1.4331 3.86699 0
M  V30 3816 H 351.289 0.44226 0.49528 0
M  V30 3817 H 353.819 1.76335 1.03766 0
M  V30 3818 H 353.829 2.18073 3.44831 0
M  V30 3819 H 352.504 3.10779 2.76386 0
M  V30 3820 H 351.081 1.4105 3.45195 0
M  V30 3821 N 353.266 -1.05314 1.17247 0
M  V30 3822 C 354.514 -1.77941 0.958194 0
M  V30 3823 C 354.835 -1.88089 -0.514556 0
M  V30 3824 O 354.105 -1.39676 -1.37359 0
M  V30 3825 H 352.685 -0.659116 0.351533 0
M  V30 3826 H 355.347 -1.27166 1.47699 0
M  V30 3827 H 354.443 -2.79663 1.38546 0
M  V30 3828 N 354.744 -0.972509 -1.24016 0
M  V30 3829 C 356.155 -0.67517 -1.74064 0
M  V30 3830 C 356.506 0.808939 -1.78747 0
M  V30 3831 O 355.631 1.63286 -1.42009 0
M  V30 3832 C 356.226 -1.21889 -3.16115 0
M  V30 3833 C 354.785 -0.971358 -3.6365 0
M  V30 3834 C 353.932 -1.35134 -2.42145 0
M  V30 3835 H 356.883 -1.14727 -1.09651 0
M  V30 3836 H 356.904 -0.587489 -3.75937 0
M  V30 3837 H 356.416 -2.29906 -3.12674 0
M  V30 3838 H 354.517 0.0930686 -3.72484 0
M  V30 3839 H 354.63 -1.62039 -4.50866 0
M  V30 3840 H 352.994 -0.769751 -2.4279 0
M  V30 3841 H 353.777 -2.4411 -2.41381 0
M  V30 3842 N 356.222 1.38976 -0.743202 0
M  V30 3843 C 357.633 1.83123 -0.363732 0
M  V30 3844 C 357.984 1.6205 1.10609 0
M  V30 3845 O 357.109 1.11606 1.854 0
M  V30 3846 C 357.704 3.32439 -0.653408 0
M  V30 3847 C 356.263 3.74974 -0.327338 0
M  V30 3848 C 355.41 2.61878 -0.911875 0
M  V30 3849 H 358.361 1.27852 -0.940191 0
M  V30 3850 H 358.382 3.80432 0.0720031 0
M  V30 3851 H 357.894 3.47745 -1.72323 0
M  V30 3852 H 355.995 3.65252 0.736314 0
M  V30 3853 H 356.108 4.72106 -0.815631 0
M  V30 3854 H 354.472 2.52448 -0.337944 0
M  V30 3855 H 355.255 2.79987 -1.98651 0
M  V30 3856 N 357.7 0.491464 1.49741 0
M  V30 3857 C 358.61 -0.296835 2.32715 0
M  V30 3858 C 359.626 -0.976536 1.44013 0
M  V30 3859 O 360.802 -0.960023 1.77047 0
M  V30 3860 C 357.867 -1.35288 3.19215 0
M  V30 3861 C 356.928 -0.687632 4.23757 0
M  V30 3862 C 356.161 -1.69336 5.06123 0
M  V30 3863 O 356.384 -2.92219 4.89861 0
M  V30 3864 O 355.318 -1.25394 5.88693 0
M  V30 3865 H 359.144 0.382048 3.01287 0
M  V30 3866 H 356.729 0.252953 1.47243 0
M  V30 3867 H 358.611 -1.96411 3.72828 0
M  V30 3868 H 357.286 -2.01487 2.53347 0
M  V30 3869 H 356.193 -0.0369159 3.74082 0
M  V30 3870 H 357.526 -0.0682566 4.92153 0
M  V30 3871 N 359.178 -1.55987 0.224894 0
M  V30 3872 C 360.125 -2.20436 -0.68385 0
M  V30 3873 C 361.095 -1.16102 -1.18783 0
M  V30 3874 O 362.28 -1.4447 -1.24632 0
M  V30 3875 C 359.42 -2.89076 -1.88491 0
M  V30 3876 C 358.533 -4.08012 -1.41951 0
M  V30 3877 C 357.668 -4.64426 -2.5784 0
M  V30 3878 C 356.707 -5.75656 -2.08053 0
M  V30 3879 N 355.844 -6.26347 -3.17227 0
M  V30 3880 H 360.684 -2.97727 -0.12754 0
M  V30 3881 H 358.221 -1.47011 -0.0511978 0
M  V30 3882 H 360.179 -3.27059 -2.59014 0
M  V30 3883 H 358.809 -2.14298 -2.41405 0
M  V30 3884 H 357.861 -3.75492 -0.609095 0
M  V30 3885 H 359.173 -4.88375 -1.01447 0
M  V30 3886 H 358.327 -5.04869 -3.3644 0
M  V30 3887 H 357.066 -3.83233 -3.01635 0
M  V30 3888 H 356.071 -5.34712 -1.27916 0
M  V30 3889 H 357.296 -6.58686 -1.65255 0
M  V30 3890 H 355.242 -5.48067 -3.60497 0
M  V30 3891 H 355.159 -7.01843 -2.80986 0
M  V30 3892 H 356.427 -6.71447 -3.95953 0
M  V30 3893 N 360.656 0.0484629 -1.57525 0
M  V30 3894 C 361.603 1.05504 -2.05275 0
M  V30 3895 C 362.573 1.37084 -0.937927 0
M  V30 3896 O 363.758 1.47754 -1.2072 0
M  V30 3897 C 360.898 2.35676 -2.52093 0
M  V30 3898 C 360.011 2.10423 -3.77288 0
M  V30 3899 C 359.146 3.34327 -4.12794 0
M  V30 3900 C 358.185 3.04542 -5.30962 0
M  V30 3901 N 357.322 4.20841 -5.61994 0
M  V30 3902 H 362.162 0.640885 -2.91027 0
M  V30 3903 H 359.699 0.304854 -1.43906 0
M  V30 3904 H 361.657 3.11709 -2.77297 0
M  V30 3905 H 360.287 2.7485 -1.69285 0
M  V30 3906 H 359.339 1.24976 -3.59284 0
M  V30 3907 H 360.651 1.84438 -4.63448 0
M  V30 3908 H 359.805 4.1874 -4.39024 0
M  V30 3909 H 358.544 3.63408 -3.25247 0
M  V30 3910 H 357.549 2.18528 -5.04505 0
M  V30 3911 H 358.774 2.76758 -6.20146 0
M  V30 3912 H 356.72 4.4991 -4.77406 0
M  V30 3913 H 356.637 3.98212 -6.42622 0
M  V30 3914 H 357.905 5.06184 -5.92789 0
M  V30 3915 N 362.134 1.5431 0.320358 0
M  V30 3916 C 363.081 1.83918 1.39438 0
M  V30 3917 C 364.051 0.686525 1.51248 0
M  V30 3918 O 365.236 0.933269 1.66417 0
M  V30 3919 C 362.376 2.075 2.75749 0
M  V30 3920 C 361.489 3.35177 2.72544 0
M  V30 3921 C 360.624 3.48704 4.00723 0
M  V30 3922 C 359.663 4.70244 3.91838 0
M  V30 3923 N 358.8 4.80679 5.11754 0
M  V30 3924 H 363.64 2.75544 1.13489 0
M  V30 3925 H 361.177 1.36459 0.549309 0
M  V30 3926 H 363.135 2.19166 3.54996 0
M  V30 3927 H 361.765 1.19163 3 0
M  V30 3928 H 360.817 3.32233 1.85271 0
M  V30 3929 H 362.129 4.24534 2.61863 0
M  V30 3930 H 361.283 3.59928 4.88402 0
M  V30 3931 H 360.022 2.57445 4.14214 0
M  V30 3932 H 359.027 4.59072 3.02544 0
M  V30 3933 H 360.252 5.6289 3.7991 0
M  V30 3934 H 358.198 3.92337 5.25745 0
M  V30 3935 H 358.115 5.64007 5.0342 0
M  V30 3936 H 359.383 4.96239 6.01138 0
M  V30 3937 N 363.613 -0.582584 1.46437 0
M  V30 3938 C 364.576 -1.67366 1.56592 0
M  V30 3939 C 365.576 -1.54575 0.443072 0
M  V30 3940 O 366.766 -1.59191 0.707381 0
M  V30 3941 C 363.898 -3.06791 1.48634 0
M  V30 3942 H 365.091 -1.5972 2.5383 0
M  V30 3943 H 362.644 -0.800432 1.34249 0
M  V30 3944 H 363.379 -3.19993 0.526763 0
M  V30 3945 H 363.164 -3.17484 2.30101 0
M  V30 3946 H 364.654 -3.86218 1.58826 0
M  V30 3947 N 365.091 -1.34144 -0.827227 0
M  V30 3948 C 366.023 -1.21206 -1.9453 0
M  V30 3949 C 367.036 -0.140176 -1.62195 0
M  V30 3950 O 368.225 -0.391647 -1.7415 0
M  V30 3951 C 365.325 -0.839141 -3.28347 0
M  V30 3952 C 364.498 -2.0051 -3.88734 0
M  V30 3953 C 363.557 -1.61128 -5.00923 0
M  V30 3954 O 362.583 -2.32726 -5.19449 0
M  V30 3955 N 363.785 -0.522958 -5.7814 0
M  V30 3956 H 366.55 -2.17525 -2.06162 0
M  V30 3957 H 364.111 -1.27043 -1.00358 0
M  V30 3958 H 366.103 -0.557556 -4.00841 0
M  V30 3959 H 364.673 0.0337293 -3.12582 0
M  V30 3960 H 363.893 -2.45166 -3.08686 0
M  V30 3961 H 365.181 -2.78498 -4.25812 0
M  V30 3962 H 364.579 0.0723518 -5.65654 0
M  V30 3963 H 363.136 -0.301089 -6.51104 0
M  V30 3964 N 366.569 1.04691 -1.17803 0
M  V30 3965 C 367.817 1.7743 -0.967617 0
M  V30 3966 C 368.138 1.88359 0.504574 0
M  V30 3967 O 367.408 1.40402 1.36617 0
M  V30 3968 H 365.988 0.657242 -0.355024 0
M  V30 3969 H 368.65 1.2638 -1.48371 0
M  V30 3970 H 367.746 2.78924 -1.40027 0
M  V30 3971 N 368.047 0.979072 1.23499 0
M  V30 3972 C 369.295 0.645941 1.91499 0
M  V30 3973 C 369.616 -0.822948 1.76784 0
M  V30 3974 O 368.886 -1.58854 1.14639 0
M  V30 3975 H 367.466 0.235919 0.708767 0
M  V30 3976 H 370.128 1.2426 1.50152 0
M  V30 3977 H 369.224 0.896411 2.9895 0
M  V30 3978 N 369.525 -1.3858 0.750561 0
M  V30 3979 C 370.457 -2.29057 0.0810714 0
M  V30 3980 C 371.47 -1.47596 -0.686973 0
M  V30 3981 O 372.659 -1.70495 -0.528563 0
M  V30 3982 C 369.759 -3.26475 -0.909247 0
M  V30 3983 C 368.932 -4.36945 -0.199478 0
M  V30 3984 C 367.991 -5.14572 -1.10011 0
M  V30 3985 O 367.017 -5.66321 -0.57177 0
M  V30 3986 N 368.219 -5.27262 -2.42849 0
M  V30 3987 H 370.984 -2.87153 0.858087 0
M  V30 3988 H 368.545 -1.50328 0.60109 0
M  V30 3989 H 370.537 -3.75285 -1.51471 0
M  V30 3990 H 369.107 -2.69298 -1.58736 0
M  V30 3991 H 368.327 -3.8981 0.586664 0
M  V30 3992 H 369.615 -5.07963 0.291783 0
M  V30 3993 H 369.013 -4.86763 -2.88233 0
M  V30 3994 H 367.57 -5.79456 -2.98453 0
M  V30 3995 N 371.003 -0.499398 -1.49478 0
M  V30 3996 C 371.966 0.268838 -2.27618 0
M  V30 3997 C 372.966 0.895383 -1.33565 0
M  V30 3998 O 374.156 0.760164 -1.56739 0
M  V30 3999 C 371.288 1.38559 -3.11471 0
M  V30 4000 H 372.481 -0.416812 -2.96989 0
M  V30 4001 H 370.034 -0.254313 -1.54217 0
M  V30 4002 H 370.769 2.10544 -2.46661 0
M  V30 4003 H 370.554 0.941797 -3.80621 0
M  V30 4004 H 372.044 1.92678 -3.70493 0
M  V30 4005 N 372.481 1.55866 -0.233164 0
M  V30 4006 C 373.706 2.03449 0.402906 0
M  V30 4007 C 374.131 1.11166 1.51736 0
M  V30 4008 O 373.489 0.101996 1.81013 0
M  V30 4009 C 373.537 3.49165 0.9009 0
M  V30 4010 O 372.641 3.60019 2.01147 0
M  V30 4011 H 371.982 0.657913 0.0897025 0
M  V30 4012 H 374.512 2.01493 -0.355201 0
M  V30 4013 H 374.522 3.89716 1.2077 0
M  V30 4014 H 373.197 4.15813 0.0852889 0
M  V30 4015 H 371.774 3.3136 1.71042 0
M  V30 4016 N 373.959 -0.0401083 1.57549 0
M  V30 4017 C 374.869 -1.06133 2.0922 0
M  V30 4018 C 375.885 -1.40356 1.0284 0
M  V30 4019 O 377.061 -1.49897 1.34509 0
M  V30 4020 C 374.126 -2.34658 2.55218 0
M  V30 4021 C 373.187 -2.07117 3.76033 0
M  V30 4022 C 372.42 -3.29514 4.19829 0
M  V30 4023 O 372.643 -4.39794 3.63232 0
M  V30 4024 O 371.577 -3.15863 5.12362 0
M  V30 4025 H 375.403 -0.652244 2.96613 0
M  V30 4026 H 372.988 -0.256368 1.47184 0
M  V30 4027 H 374.87 -3.10239 2.85184 0
M  V30 4028 H 373.545 -2.74883 1.70941 0
M  V30 4029 H 372.452 -1.29139 3.51104 0
M  V30 4030 H 373.785 -1.71754 4.61261 0
M  V30 4031 N 375.437 -1.54477 -0.31217 0
M  V30 4032 C 376.347 -1.87695 -1.4074 0
M  V30 4033 C 377.363 -0.769975 -1.56036 0
M  V30 4034 O 378.539 -1.06537 -1.70915 0
M  V30 4035 C 375.604 -2.10755 -2.75287 0
M  V30 4036 C 374.665 -3.34514 -2.69071 0
M  V30 4037 C 373.898 -3.56465 -3.97201 0
M  V30 4038 O 374.121 -2.81637 -4.96021 0
M  V30 4039 O 373.055 -4.49964 -3.9977 0
M  V30 4040 H 376.881 -2.80849 -1.15574 0
M  V30 4041 H 374.466 -1.40526 -0.507228 0
M  V30 4042 H 376.348 -2.27188 -3.54913 0
M  V30 4043 H 375.023 -1.20788 -3.0032 0
M  V30 4044 H 373.93 -3.23456 -1.87955 0
M  V30 4045 H 375.263 -4.24575 -2.48992 0
M  V30 4046 N 376.915 0.57481 -1.46744 0
M  V30 4047 C 378.163 1.33009 -1.52161 0
M  V30 4048 C 378.484 1.94185 -0.178092 0
M  V30 4049 O 377.754 1.7899 0.796196 0
M  V30 4050 H 376.334 0.493873 -0.560445 0
M  V30 4051 H 378.996 0.672589 -1.82927 0
M  V30 4052 H 378.092 2.13273 -2.27862 0
M  V30 4053 N 378.394 1.34581 0.820102 0
M  V30 4054 C 379.357 1.2628 1.91275 0
M  V30 4055 C 380.357 0.177344 1.59819 0
M  V30 4056 O 381.547 0.430156 1.68806 0
M  V30 4057 C 378.679 0.950327 3.27386 0
M  V30 4058 H 379.872 2.23421 2.00057 0
M  V30 4059 H 377.425 1.1891 1.0144 0
M  V30 4060 H 378.16 -0.0177938 3.24295 0
M  V30 4061 H 377.945 1.73549 3.51601 0
M  V30 4062 H 379.435 0.917492 4.07396 0
M  V30 4063 N 379.872 -1.04064 1.18357 0
M  V30 4064 C 381.149 -1.74252 0.888581 0
M  V30 4065 C 381.529 -2.02138 -0.60856 0
M  V30 4066 O 380.877 -1.66656 -1.56327 0
M  V30 4067 C 381.087 -3.0277 1.73584 0
M  V30 4068 C 382.435 -3.76506 1.96286 0
M  V30 4069 O 383.459 -3.12668 1.70637 0
M  V30 4070 O 382.318 -4.91243 2.39464 0
M  V30 4071 H 379.412 -0.758271 0.330082 0
M  V30 4072 H 381.958 -1.1013 1.2911 0
M  V30 4073 H 380.73 -2.78299 2.75073 0
M  V30 4074 H 380.353 -3.74631 1.33183 0
M  V30 4075 N 381.35 -0.985608 -1.22978 0
M  V30 4076 C 382.766 -0.695104 -1.43668 0
M  V30 4077 C 382.966 0.736866 -1.87543 0
M  V30 4078 O 382.022 1.50868 -2.02473 0
M  V30 4079 C 383.335 -1.69447 -2.48412 0
M  V30 4080 C 384.883 -1.70909 -2.62219 0
M  V30 4081 C 385.358 -2.6969 -3.70178 0
M  V30 4082 N 386.849 -2.6824 -3.77626 0
M  V30 4083 C 387.584 -3.41339 -4.60733 0
M  V30 4084 N 387.08 -4.24015 -5.4789 0
M  V30 4085 N 388.873 -3.30079 -4.54977 0
M  V30 4086 H 381.024 -1.91054 -0.928016 0
M  V30 4087 H 383.287 -0.823553 -0.469536 0
M  V30 4088 H 382.993 -2.7188 -2.23102 0
M  V30 4089 H 382.867 -1.48147 -3.46889 0
M  V30 4090 H 385.254 -0.691785 -2.86877 0
M  V30 4091 H 385.335 -1.96276 -1.6404 0
M  V30 4092 H 384.979 -3.71566 -3.46268 0
M  V30 4093 H 384.909 -2.41595 -4.67909 0
M  V30 4094 H 387.4 -2.08243 -3.15346 0
M  V30 4095 H 387.713 -4.76636 -6.08308 0
M  V30 4096 H 386.058 -4.28104 -5.47496 0
M  V30 4097 H 389.249 -2.64937 -3.85909 0
M  V30 4098 H 389.422 -3.87308 -5.19516 0
M  V30 4099 N 382.828 1.3818 -0.7579 0
M  V30 4100 C 383.776 2.32277 -0.122482 0
M  V30 4101 C 384.77 1.54238 0.700505 0
M  V30 4102 O 385.976 1.69737 0.599119 0
M  V30 4103 H 382.351 0.751712 -0.0208143 0
M  V30 4104 H 384.322 2.83469 -0.932099 0
M  V30 4105 C 383.071 3.39447 0.753076 0
M  V30 4106 H 382.394 3.99591 0.129184 0
M  V30 4107 H 383.834 4.07684 1.16489 0
M  V30 4108 C 382.293 2.78375 1.8976 0
M  V30 4109 O 382.823 2.68025 2.99208 0
M  V30 4110 N 381.029 2.36121 1.69397 0
M  V30 4111 H 380.576 2.4474 0.803762 0
M  V30 4112 H 380.534 1.95602 2.46145 0
M  V30 4113 N 384.306 0.507319 1.49211 0
M  V30 4114 C 385.554 -0.0348839 2.0207 0
M  V30 4115 C 385.875 -1.36898 1.38866 0
M  V30 4116 O 385.145 -1.88133 0.546151 0
M  V30 4117 H 383.725 -0.0158812 0.746831 0
M  V30 4118 H 386.387 0.665998 1.83168 0
M  V30 4119 H 385.483 -0.159917 3.1169 0
M  V30 4120 N 385.784 -1.5574 0.241426 0
M  V30 4121 C 387.032 -1.98417 -0.384075 0
M  V30 4122 C 387.353 -1.13078 -1.58866 0
M  V30 4123 O 386.623 -0.212312 -1.94746 0
M  V30 4124 H 385.203 -0.732813 -0.144894 0
M  V30 4125 H 387.865 -1.9193 0.338943 0
M  V30 4126 H 386.961 -3.04219 -0.696939 0
M  V30 4127 N 387.262 0.0317525 -1.57568 0
M  V30 4128 C 388.673 0.578692 -1.77505 0
M  V30 4129 C 389.024 1.75749 -0.872164 0
M  V30 4130 O 388.149 2.16298 -0.0663106 0
M  V30 4131 C 388.744 1.05658 -3.21904 0
M  V30 4132 C 387.303 1.54906 -3.43047 0
M  V30 4133 C 386.45 0.485939 -2.73009 0
M  V30 4134 H 389.401 -0.194475 -1.57504 0
M  V30 4135 H 389.422 1.92404 -3.28269 0
M  V30 4136 H 388.934 0.198422 -3.87592 0
M  V30 4137 H 387.035 2.42915 -2.82529 0
M  V30 4138 H 387.148 1.59841 -4.5165 0
M  V30 4139 H 385.512 0.940354 -2.36705 0
M  V30 4140 H 386.295 -0.362709 -3.41379 0
M  V30 4141 N 388.74 1.54641 0.303973 0
M  V30 4142 C 389.988 1.73437 1.0375 0
M  V30 4143 C 390.309 0.521449 1.87899 0
M  V30 4144 O 389.579 -0.46432 1.90318 0
M  V30 4145 H 388.159 0.639518 0.386039 0
M  V30 4146 H 390.821 1.91988 0.335675 0
M  V30 4147 H 389.917 2.62235 1.69231 0
M  V30 4148 N 390.218 -0.567019 1.47046 0
M  V30 4149 C 391.128 -1.70247 1.6141 0
M  V30 4150 C 392.144 -1.66746 0.497157 0
M  V30 4151 O 393.32 -1.86371 0.763389 0
M  V30 4152 C 390.385 -3.06756 1.61561 0
M  V30 4153 C 389.446 -3.21399 2.84607 0
M  V30 4154 C 388.679 -4.51396 2.84741 0
M  V30 4155 O 388.902 -5.36255 1.94388 0
M  V30 4156 O 387.836 -4.69621 3.76483 0
M  V30 4157 H 391.662 -1.61073 2.57467 0
M  V30 4158 H 389.247 -0.735894 1.30019 0
M  V30 4159 H 391.129 -3.8801 1.64396 0
M  V30 4160 H 389.804 -3.16333 0.686684 0
M  V30 4161 H 388.711 -2.39579 2.8732 0
M  V30 4162 H 390.044 -3.16721 3.76761 0
M  V30 4163 N 391.696 -1.35014 -0.812953 0
M  V30 4164 C 392.973 -1.18502 -1.55617 0
M  V30 4165 C 393.353 0.238421 -2.09749 0
M  V30 4166 O 392.701 1.2411 -1.91857 0
M  V30 4167 C 392.911 -2.24783 -2.66971 0
M  V30 4168 C 394.259 -2.60268 -3.35478 0
M  V30 4169 O 395.283 -2.23648 -2.77236 0
M  V30 4170 O 394.142 -3.2321 -4.40678 0
M  V30 4171 H 391.236 -0.459984 -0.687272 0
M  V30 4172 H 393.782 -1.46677 -0.853464 0
M  V30 4173 H 392.554 -3.20284 -2.24798 0
M  V30 4174 H 392.177 -1.97841 -3.44884 0
M  V30 4175 N 393.175 1.03435 -1.18907 0
M  V30 4176 C 394.138 2.09756 -0.923844 0
M  V30 4177 C 395.138 1.60528 0.093416 0
M  V30 4178 O 396.328 1.73631 -0.140727 0
M  V30 4179 C 393.46 3.38692 -0.387354 0
M  V30 4180 H 394.653 2.34719 -1.86674 0
M  V30 4181 H 392.206 1.19959 -1.00197 0
M  V30 4182 H 392.941 3.19396 0.561845 0
M  V30 4183 H 392.726 3.75742 -1.12074 0
M  V30 4184 H 394.216 4.17016 -0.220694 0
M  V30 4185 N 394.653 0.992116 1.22453 0
M  V30 4186 C 395.616 0.546883 2.2258 0
M  V30 4187 C 396.616 -0.369829 1.56489 0
M  V30 4188 O 397.806 -0.161896 1.73446 0
M  V30 4189 C 394.938 -0.204659 3.40285 0
M  V30 4190 H 396.131 1.43234 2.63484 0
M  V30 4191 H 393.684 0.779239 1.3549 0
M  V30 4192 H 394.419 -1.10614 3.04853 0
M  V30 4193 H 394.204 0.45354 3.89468 0
M  V30 4194 H 395.694 -0.504358 4.14543 0
M  V30 4195 N 396.131 -1.37776 0.765217 0
M  V30 4196 C 397.041 -2.34135 0.147666 0
M  V30 4197 C 398.057 -1.59854 -0.687215 0
M  V30 4198 O 399.233 -1.91983 -0.608659 0
M  V30 4199 C 396.298 -3.3901 -0.72617 0
M  V30 4200 C 395.359 -4.2912 0.124417 0
M  V30 4201 C 394.592 -5.28986 -0.707807 0
M  V30 4202 O 394.815 -5.36205 -1.94525 0
M  V30 4203 O 393.749 -6.01779 -0.12046 0
M  V30 4204 H 397.575 -2.88664 0.943758 0
M  V30 4205 H 395.16 -1.39824 0.526277 0
M  V30 4206 H 397.042 -4.03195 -1.22524 0
M  V30 4207 H 395.717 -2.86819 -1.50056 0
M  V30 4208 H 394.624 -3.68057 0.669696 0
M  V30 4209 H 395.957 -4.84598 0.861736 0
M  V30 4210 N 397.609 -0.515225 -1.4894 0
M  V30 4211 C 398.857 0.0241671 -2.02086 0
M  V30 4212 C 399.178 1.3616 -1.3959 0
M  V30 4213 O 398.448 1.87841 -0.556121 0
M  V30 4214 H 397.028 0.0119203 -0.746905 0
M  V30 4215 H 399.69 -0.675702 -1.82812 0
M  V30 4216 H 398.786 0.143385 -3.1177 0
M  V30 4217 N 399.087 1.5561 -0.249682 0
M  V30 4218 C 400.019 2.18834 0.681496 0
M  V30 4219 C 401.032 1.16546 1.1367 0
M  V30 4220 O 402.221 1.43397 1.06299 0
M  V30 4221 C 399.321 2.77992 1.9384 0
M  V30 4222 C 398.494 4.05725 1.63419 0
M  V30 4223 C 397.553 4.49174 2.74096 0
M  V30 4224 O 396.579 5.15492 2.41364 0
M  V30 4225 N 397.781 4.17191 4.03649 0
M  V30 4226 H 400.546 2.9937 0.140514 0
M  V30 4227 H 398.107 1.6175 -0.0697541 0
M  V30 4228 H 400.099 3.04015 2.67127 0
M  V30 4229 H 398.669 2.01596 2.38909 0
M  V30 4230 H 397.889 3.87261 0.736358 0
M  V30 4231 H 399.177 4.88999 1.40562 0
M  V30 4232 H 398.575 3.63955 4.33074 0
M  V30 4233 H 397.132 4.48043 4.73393 0
M  V30 4234 N 400.565 -0.0233959 1.57583 0
M  V30 4235 C 401.793 -0.724682 1.93794 0
M  V30 4236 C 402.208 -1.68588 0.849912 0
M  V30 4237 O 401.565 -1.81676 -0.173204 0
M  V30 4238 C 401.616 -1.47684 3.29957 0
M  V30 4239 O 401.337 -0.554222 4.3458 0
M  V30 4240 C 402.838 -2.27477 3.80485 0
M  V30 4241 H 400.058 -0.203317 0.639455 0
M  V30 4242 H 402.602 0.0207653 2.04489 0
M  V30 4243 H 400.757 -2.17412 3.20641 0
M  V30 4244 H 401.171 -1.08232 5.13212 0
M  V30 4245 H 402.645 -2.7564 4.78254 0
M  V30 4246 H 403.122 -3.09144 3.11972 0
M  V30 4247 H 403.728 -1.62813 3.92902 0
M  V30 4248 N 402.043 -1.548 -0.295768 0
M  V30 4249 C 402.99 -1.86113 -1.36494 0
M  V30 4250 C 403.96 -0.7105 -1.50137 0
M  V30 4251 O 405.145 -0.959626 -1.64912 0
M  V30 4252 C 402.285 -2.11861 -2.72413 0
M  V30 4253 C 401.398 -3.39471 -2.67177 0
M  V30 4254 C 400.533 -3.55035 -3.95125 0
M  V30 4255 C 399.572 -4.76418 -3.84308 0
M  V30 4256 N 398.709 -4.8876 -5.04042 0
M  V30 4257 H 403.549 -2.77314 -1.09091 0
M  V30 4258 H 401.086 -1.37315 -0.52753 0
M  V30 4259 H 403.044 -2.24786 -3.51464 0
M  V30 4260 H 401.674 -1.2392 -2.98066 0
M  V30 4261 H 400.726 -3.35139 -1.79962 0
M  V30 4262 H 402.038 -4.28646 -2.55076 0
M  V30 4263 H 401.192 -3.67653 -4.82614 0
M  V30 4264 H 399.931 -2.64002 -4.10066 0
M  V30 4265 H 398.936 -4.63827 -2.95202 0
M  V30 4266 H 400.161 -5.68863 -3.70906 0
M  V30 4267 H 398.107 -4.00652 -5.19436 0
M  V30 4268 H 398.024 -5.71945 -4.94384 0
M  V30 4269 H 399.292 -5.0574 -5.93167 0
M  V30 4270 N 403.521 0.559213 -1.47345 0
M  V30 4271 C 404.749 1.34194 -1.57479 0
M  V30 4272 C 405.164 1.87463 -0.224261 0
M  V30 4273 O 404.521 1.64888 0.782185 0
M  V30 4274 C 404.572 2.51324 -2.59843 0
M  V30 4275 O 404.293 2.00256 -3.89653 0
M  V30 4276 C 405.794 3.43563 -2.80142 0
M  V30 4277 H 403.014 0.409136 -0.531835 0
M  V30 4278 H 405.558 0.677609 -1.92947 0
M  V30 4279 H 403.713 3.13699 -2.27314 0
M  V30 4280 H 404.127 2.76708 -4.4557 0
M  V30 4281 H 405.601 4.2217 -3.55635 0
M  V30 4282 H 406.078 3.9698 -1.87892 0
M  V30 4283 H 406.684 2.87005 -3.1386 0
M  V30 4284 N 404.999 1.35443 0.805782 0
M  V30 4285 C 405.962 1.28301 1.89925 0
M  V30 4286 C 406.962 0.194285 1.59622 0
M  V30 4287 O 408.152 0.448036 1.6834 0
M  V30 4288 C 405.284 0.984997 3.2636 0
M  V30 4289 H 406.477 2.2553 1.97677 0
M  V30 4290 H 404.03 1.19979 1.00173 0
M  V30 4291 H 404.765 0.016603 3.24296 0
M  V30 4292 H 404.55 1.77269 3.4974 0
M  V30 4293 H 406.04 0.960651 4.064 0
M  V30 4294 N 406.477 -1.02803 1.19454 0
M  V30 4295 C 407.44 -2.09264 0.934955 0
M  V30 4296 C 408.44 -1.60576 -0.0849015 0
M  V30 4297 O 409.63 -1.73554 0.149933 0
M  V30 4298 C 406.762 -3.38482 0.40531 0
M  V30 4299 H 407.955 -2.33726 1.87916 0
M  V30 4300 H 405.508 -1.19426 1.00832 0
M  V30 4301 H 406.243 -3.19689 -0.544899 0
M  V30 4302 H 406.028 -3.75142 1.14065 0
M  V30 4303 H 407.518 -4.16894 0.242806 0
M  V30 4304 N 407.956 -0.998596 -1.21925 0
M  V30 4305 C 409.204 -0.676325 -1.90448 0
M  V30 4306 C 409.525 0.794719 -1.78071 0
M  V30 4307 O 408.795 1.5701 -1.17152 0
M  V30 4308 H 407.375 -0.247165 -0.704925 0
M  V30 4309 H 410.037 -1.26633 -1.48156 0
M  V30 4310 H 409.133 -0.943858 -2.97486 0
M  V30 4311 N 409.434 1.37368 -0.772513 0
M  V30 4312 C 410.381 2.30262 -0.157488 0
M  V30 4313 C 411.351 1.51137 0.688965 0
M  V30 4314 O 412.536 1.79704 0.641168 0
M  V30 4315 C 409.676 3.37611 0.715045 0
M  V30 4316 C 408.789 4.31746 -0.148098 0
M  V30 4317 C 407.924 5.26171 0.729213 0
M  V30 4318 C 406.963 6.11948 -0.136418 0
M  V30 4319 N 406.1 6.98613 0.698914 0
M  V30 4320 H 410.94 2.82277 -0.955179 0
M  V30 4321 H 408.477 1.38957 -0.482631 0
M  V30 4322 H 410.435 3.98479 1.23575 0
M  V30 4323 H 409.065 2.86959 1.47833 0
M  V30 4324 H 408.117 3.72178 -0.786613 0
M  V30 4325 H 409.429 4.92084 -0.81579 0
M  V30 4326 H 408.583 5.92247 1.31637 0
M  V30 4327 H 407.322 4.66246 1.43059 0
M  V30 4328 H 406.327 5.4485 -0.736102 0
M  V30 4329 H 407.552 6.73945 -0.835134 0
M  V30 4330 H 405.498 6.41215 1.38489 0
M  V30 4331 H 405.415 7.55948 0.0885358 0
M  V30 4332 H 406.683 7.69077 1.27044 0
M  V30 4333 N 410.912 0.523116 1.48665 0
M  V30 4334 C 412.328 0.180511 1.58576 0
M  V30 4335 C 412.528 -1.31597 1.52592 0
M  V30 4336 O 411.584 -2.0937 1.4114 0
M  V30 4337 C 412.897 0.776949 2.90489 0
M  V30 4338 C 414.445 0.745058 3.04003 0
M  V30 4339 C 414.92 1.31995 4.38567 0
M  V30 4340 N 416.411 1.28162 4.45117 0
M  V30 4341 C 417.146 1.6964 5.47731 0
M  V30 4342 N 416.642 2.18816 6.57337 0
M  V30 4343 N 418.435 1.6092 5.38573 0
M  V30 4344 H 410.586 1.4958 1.50797 0
M  V30 4345 H 412.849 0.621772 0.715614 0
M  V30 4346 H 412.555 1.82732 3.00503 0
M  V30 4347 H 412.429 0.25007 3.7637 0
M  V30 4348 H 414.816 -0.296532 2.93606 0
M  V30 4349 H 414.897 1.30933 2.1975 0
M  V30 4350 H 414.541 2.36043 4.49718 0
M  V30 4351 H 414.471 0.731418 5.21496 0
M  V30 4352 H 416.962 0.92155 3.66491 0
M  V30 4353 H 417.275 2.48478 7.31764 0
M  V30 4354 H 415.62 2.22805 6.58318 0
M  V30 4355 H 418.811 1.22304 4.5184 0
M  V30 4356 H 418.984 1.93567 6.18414 0
M  V30 4357 N 412.39 -1.55475 0.257931 0
M  V30 4358 C 413.337 -2.21837 -0.636939 0
M  V30 4359 C 414.307 -1.18596 -1.16294 0
M  V30 4360 O 415.492 -1.47081 -1.21539 0
M  V30 4361 C 412.632 -2.9301 -1.82317 0
M  V30 4362 C 411.745 -4.10931 -1.33265 0
M  V30 4363 C 410.88 -4.69791 -2.47931 0
M  V30 4364 C 409.919 -5.7994 -1.95796 0
M  V30 4365 N 409.056 -6.32935 -3.0387 0
M  V30 4366 H 413.896 -2.9793 -0.0643591 0
M  V30 4367 H 411.433 -1.47086 -0.0200031 0
M  V30 4368 H 413.391 -3.3248 -2.52018 0
M  V30 4369 H 412.021 -2.1937 -2.36805 0
M  V30 4370 H 411.073 -3.76699 -0.52931 0
M  V30 4371 H 412.385 -4.90417 -0.910654 0
M  V30 4372 H 411.539 -5.11892 -3.25656 0
M  V30 4373 H 410.278 -3.89545 -2.93438 0
M  V30 4374 H 409.283 -5.37305 -1.16546 0
M  V30 4375 H 410.508 -6.62043 -1.51246 0
M  V30 4376 H 408.454 -5.55591 -3.48791 0
M  V30 4377 H 408.371 -7.07645 -2.66035 0
M  V30 4378 H 409.639 -6.79695 -3.81621 0
M  V30 4379 N 413.868 0.0150385 -1.57593 0
M  V30 4380 C 415.284 0.370907 -1.5523 0
M  V30 4381 C 415.484 1.75735 -0.985882 0
M  V30 4382 O 414.54 2.44944 -0.613077 0
M  V30 4383 C 415.853 0.259908 -2.99575 0
M  V30 4384 C 417.401 0.335959 -3.11192 0
M  V30 4385 C 417.876 0.254253 -4.57294 0
M  V30 4386 N 419.367 0.312618 -4.62144 0
M  V30 4387 C 420.102 0.272505 -5.72752 0
M  V30 4388 N 419.598 0.183864 -6.92556 0
M  V30 4389 N 421.391 0.323267 -5.6117 0
M  V30 4390 H 413.542 -0.892104 -1.92757 0
M  V30 4391 H 415.805 -0.340563 -0.884715 0
M  V30 4392 H 415.511 -0.693403 -3.44797 0
M  V30 4393 H 415.385 1.048 -3.62349 0
M  V30 4394 H 417.772 1.27971 -2.65909 0
M  V30 4395 H 417.853 -0.481739 -2.51223 0
M  V30 4396 H 417.497 -0.685887 -5.03247 0
M  V30 4397 H 417.427 1.09024 -5.15191 0
M  V30 4398 H 419.918 0.38307 -3.75953 0
M  V30 4399 H 420.231 0.15874 -7.72637 0
M  V30 4400 H 418.576 0.149708 -6.94839 0
M  V30 4401 H 421.767 0.390607 -4.66467 0
M  V30 4402 H 421.94 0.288539 -6.47357 0
M  V30 4403 N 415.346 1.54954 0.287554 0
M  V30 4404 C 416.757 1.65732 0.859634 0
M  V30 4405 C 417.108 0.574767 1.87592 0
M  V30 4406 O 416.233 -0.286299 2.14498 0
M  V30 4407 C 416.828 3.00438 1.56597 0
M  V30 4408 C 415.387 3.13292 2.08627 0
M  V30 4409 C 414.534 2.61473 0.923416 0
M  V30 4410 H 417.485 1.5857 0.0642338 0
M  V30 4411 H 417.506 2.92613 2.43224 0
M  V30 4412 H 417.018 3.79207 0.826053 0
M  V30 4413 H 415.119 2.39268 2.85625 0
M  V30 4414 H 415.232 4.19647 2.31157 0
M  V30 4415 H 413.596 2.18264 1.31275 0
M  V30 4416 H 414.379 3.42733 0.197241 0
M  V30 4417 N 416.824 -0.551391 1.4764 0
M  V30 4418 C 417.771 -1.65796 1.60563 0
M  V30 4419 C 418.741 -1.59932 0.448428 0
M  V30 4420 O 419.926 -1.78679 0.669222 0
M  V30 4421 C 417.066 -3.04108 1.63133 0
M  V30 4422 C 416.179 -3.20365 2.89811 0
M  V30 4423 C 415.314 -4.49109 2.8368 0
M  V30 4424 C 414.353 -4.58819 4.05156 0
M  V30 4425 N 413.49 -5.78926 3.97227 0
M  V30 4426 H 418.33 -1.54088 2.5507 0
M  V30 4427 H 415.867 -0.75052 1.26513 0
M  V30 4428 H 417.825 -3.84207 1.62606 0
M  V30 4429 H 416.455 -3.14637 0.721341 0
M  V30 4430 H 415.507 -2.33659 3.00179 0
M  V30 4431 H 416.819 -3.23402 3.79753 0
M  V30 4432 H 415.973 -5.37475 2.81434 0
M  V30 4433 H 414.712 -4.4856 1.91431 0
M  V30 4434 H 413.717 -3.68864 4.077 0
M  V30 4435 H 414.942 -4.61124 4.98539 0
M  V30 4436 H 412.888 -5.79314 3.07785 0
M  V30 4437 H 412.805 -5.83367 4.80853 0
M  V30 4438 H 414.073 -6.69637 3.99007 0
M  V30 4439 N 418.302 -1.35869 -0.798587 0
M  V30 4440 C 419.252 -1.25982 -1.90033 0
M  V30 4441 C 420.236 -0.153303 -1.60168 0
M  V30 4442 O 421.428 -0.38527 -1.72756 0
M  V30 4443 C 418.557 -1.04211 -3.27101 0
M  V30 4444 C 417.643 -2.19289 -3.63006 0
M  V30 4445 N 418.034 -3.44559 -3.70287 0
M  V30 4446 C 416.332 -2.10852 -3.93011 0
M  V30 4447 C 417.033 -4.20283 -4.02166 0
M  V30 4448 N 416.009 -3.49124 -4.16669 0
M  V30 4449 H 419.811 -2.20883 -1.93876 0
M  V30 4450 H 417.325 -1.28457 -0.993614 0
M  V30 4451 H 419.322 -0.952155 -4.05881 0
M  V30 4452 H 417.982 -0.102013 -3.2454 0
M  V30 4453 H 418.993 -3.7881 -3.53162 0
M  V30 4454 H 415.67 -1.24744 -3.98428 0
M  V30 4455 H 417.06 -5.28575 -4.14799 0
M  V30 4456 N 419.78 1.02168 -1.19998 0
M  V30 4457 C 421.005 1.79833 -1.03319 0
M  V30 4458 C 421.43 1.83504 0.413281 0
M  V30 4459 O 420.788 1.26635 1.29743 0
M  V30 4460 C 420.836 3.22396 -1.61533 0
M  V30 4461 O 419.94 4.03555 -0.849519 0
M  V30 4462 H 419.281 0.554872 -0.364709 0
M  V30 4463 H 421.811 1.28542 -1.59179 0
M  V30 4464 H 421.821 3.73124 -1.65054 0
M  V30 4465 H 420.496 3.19039 -2.66809 0
M  V30 4466 H 419.073 3.62169 -0.888129 0
M  V30 4467 N 421.258 1.00505 1.21394 0
M  V30 4468 C 422.506 0.686415 1.90086 0
M  V30 4469 C 422.827 -0.785264 1.7849 0
M  V30 4470 O 422.097 -1.56387 1.17983 0
M  V30 4471 H 420.677 0.2509 0.703604 0
M  V30 4472 H 423.339 1.27417 1.47482 0
M  V30 4473 H 422.435 0.959621 2.96981 0
M  V30 4474 N 422.737 -1.36956 0.779787 0
M  V30 4475 C 423.7 -2.2851 0.177662 0
M  V30 4476 C 424.7 -1.48393 -0.619377 0
M  V30 4477 O 425.89 -1.68505 -0.441785 0
M  V30 4478 C 423.022 -3.32428 -0.755279 0
M  V30 4479 H 424.215 -2.83269 0.984823 0
M  V30 4480 H 421.768 -1.46358 0.548544 0
M  V30 4481 H 422.503 -2.82808 -1.58714 0
M  V30 4482 H 422.288 -3.91659 -0.185817 0
M  V30 4483 H 423.778 -4.00824 -1.17174 0
M  V30 4484 N 424.215 -0.530993 -1.48385 0
M  V30 4485 C 425.125 0.23503 -2.3342 0
M  V30 4486 C 426.141 0.93801 -1.46552 0
M  V30 4487 O 427.317 0.912745 -1.7953 0
M  V30 4488 C 424.382 1.26778 -3.22689 0
M  V30 4489 C 423.443 0.575038 -4.25431 0
M  V30 4490 C 422.676 1.55858 -5.10435 0
M  V30 4491 O 422.899 2.79129 -4.97437 0
M  V30 4492 O 421.833 1.09742 -5.91811 0
M  V30 4493 H 425.659 -0.461794 -3.00169 0
M  V30 4494 H 423.244 -0.291903 -1.46521 0
M  V30 4495 H 425.126 1.86457 -3.77904 0
M  V30 4496 H 423.801 1.94699 -2.586 0
M  V30 4497 H 422.708 -0.0622782 -3.74048 0
M  V30 4498 H 424.041 -0.062253 -4.92161 0
M  V30 4499 N 425.693 1.55336 -0.266172 0
M  V30 4500 C 426.918 2.04258 0.359661 0
M  V30 4501 C 427.343 1.14359 1.49344 0
M  V30 4502 O 426.701 0.140369 1.80756 0
M  V30 4503 C 426.749 3.50997 0.826635 0
M  V30 4504 O 425.853 3.64204 1.93466 0
M  V30 4505 H 425.194 0.659668 0.075727 0
M  V30 4506 H 427.724 2.00694 -0.39786 0
M  V30 4507 H 427.734 3.9219 1.12477 0
M  V30 4508 H 426.409 4.159 -0.00293032 0
M  V30 4509 H 424.986 3.34913 1.63974 0
M  V30 4510 N 427.171 -0.0066808 1.57599 0
M  V30 4511 C 428.419 -0.691552 1.899 0
M  V30 4512 C 428.74 -1.74682 0.866672 0
M  V30 4513 O 428.01 -1.95661 -0.0968189 0
M  V30 4514 H 426.59 -0.258416 0.700878 0
M  V30 4515 H 429.252 0.0326655 1.94873 0
M  V30 4516 H 428.348 -1.16702 2.8946 0
M  V30 4517 N 428.649 -1.55105 -0.279332 0
M  V30 4518 C 429.879 -1.7917 -1.02867 0
M  V30 4519 C 430.287 -0.56204 -1.80659 0
M  V30 4520 O 429.63 0.478266 -1.77365 0
M  V30 4521 C 429.692 -2.96061 -2.03932 0
M  V30 4522 C 429.356 -4.33341 -1.45137 0
M  V30 4523 C 430.353 -5.12565 -0.870266 0
M  V30 4524 C 428.038 -4.79987 -1.48048 0
M  V30 4525 C 430.032 -6.36565 -0.326097 0
M  V30 4526 C 427.719 -6.03944 -0.932443 0
M  V30 4527 C 428.717 -6.8207 -0.356247 0
M  V30 4528 O 428.405 -8.03691 0.183412 0
M  V30 4529 H 428.137 -0.600796 -0.309872 0
M  V30 4530 H 430.691 -2.02932 -0.317468 0
M  V30 4531 H 428.921 -2.67975 -2.78794 0
M  V30 4532 H 430.61 -3.07506 -2.64943 0
M  V30 4533 H 431.376 -4.77661 -0.840521 0
M  V30 4534 H 427.255 -4.1919 -1.91835 0
M  V30 4535 H 430.799 -6.97489 0.124286 0
M  V30 4536 H 426.696 -6.3833 -0.959407 0
M  V30 4537 H 427.464 -8.18468 0.0721681 0
M  V30 4538 N 430.127 0.543554 -1.4793 0
M  V30 4539 C 431.074 1.64942 -1.6144 0
M  V30 4540 C 432.044 1.59692 -0.456903 0
M  V30 4541 O 433.229 1.78321 -0.678688 0
M  V30 4542 C 430.369 3.03238 -1.64744 0
M  V30 4543 C 429.482 3.18823 -2.91506 0
M  V30 4544 C 428.617 4.47599 -2.86057 0
M  V30 4545 C 427.656 4.56664 -4.07584 0
M  V30 4546 N 426.793 5.76811 -4.00292 0
M  V30 4547 H 431.633 1.52733 -2.55884 0
M  V30 4548 H 429.17 0.7438 -1.2691 0
M  V30 4549 H 431.128 3.83339 -1.64641 0
M  V30 4550 H 429.758 3.1425 -0.738017 0
M  V30 4551 H 428.81 2.32064 -3.01414 0
M  V30 4552 H 430.122 3.21384 -3.81463 0
M  V30 4553 H 429.276 5.35975 -2.84281 0
M  V30 4554 H 428.015 4.47538 -1.93807 0
M  V30 4555 H 427.02 3.66697 -4.09651 0
M  V30 4556 H 428.245 4.58474 -5.00978 0
M  V30 4557 H 426.191 5.77673 -3.10853 0
M  V30 4558 H 426.108 5.80808 -4.8394 0
M  V30 4559 H 427.376 6.67512 -4.02553 0
M  V30 4560 N 431.605 1.3629 0.791371 0
M  V30 4561 C 432.552 1.30458 1.90393 0
M  V30 4562 C 433.522 0.173632 1.6519 0
M  V30 4563 O 434.707 0.35983 1.87376 0
M  V30 4564 C 431.847 1.09777 3.27174 0
M  V30 4565 C 430.96 2.31929 3.64462 0
M  V30 4566 C 430.095 2.04276 4.90352 0
M  V30 4567 C 429.134 3.224 5.20312 0
M  V30 4568 N 428.271 2.94424 6.37385 0
M  V30 4569 H 433.111 2.25589 1.94714 0
M  V30 4570 H 430.648 1.12122 0.952216 0
M  V30 4571 H 432.606 0.958133 4.06049 0
M  V30 4572 H 431.236 0.183014 3.22281 0
M  V30 4573 H 430.288 2.56703 2.80727 0
M  V30 4574 H 431.6 3.20085 3.82553 0
M  V30 4575 H 430.754 1.87231 5.77087 0
M  V30 4576 H 429.493 1.13428 4.74326 0
M  V30 4577 H 428.498 3.40005 4.32061 0
M  V30 4578 H 429.723 4.14071 5.38258 0
M  V30 4579 H 427.669 2.06185 6.22755 0
M  V30 4580 H 427.586 3.76118 6.55798 0
M  V30 4581 H 428.854 2.80953 7.27108 0
M  V30 4582 N 433.083 -1.0153 1.20538 0
M  V30 4583 C 434.03 -2.10098 0.955383 0
M  V30 4584 C 435 -1.65702 -0.114878 0
M  V30 4585 O 436.185 -1.90776 0.0301118 0
M  V30 4586 C 433.325 -3.41236 0.514969 0
M  V30 4587 C 432.438 -3.99102 1.65353 0
M  V30 4588 C 431.573 -5.18306 1.16329 0
M  V30 4589 C 430.612 -5.68258 2.27485 0
M  V30 4590 N 429.749 -6.78722 1.7967 0
M  V30 4591 H 434.589 -2.30818 1.88486 0
M  V30 4592 H 432.126 -1.13189 0.939499 0
M  V30 4593 H 434.084 -4.16504 0.240935 0
M  V30 4594 H 432.714 -3.20585 -0.377512 0
M  V30 4595 H 431.766 -3.20918 2.04245 0
M  V30 4596 H 433.078 -4.32177 2.49047 0
M  V30 4597 H 432.232 -6.00782 0.845302 0
M  V30 4598 H 430.971 -4.86799 0.296254 0
M  V30 4599 H 429.976 -4.84385 2.60099 0
M  V30 4600 H 431.201 -6.01798 3.14667 0
M  V30 4601 H 429.147 -6.49042 0.95295 0
M  V30 4602 H 429.064 -7.10996 2.56944 0
M  V30 4603 H 430.332 -7.64759 1.50875 0
M  V30 4604 N 434.561 -1.01147 -1.20859 0
M  V30 4605 C 435.508 -0.577354 -2.23462 0
M  V30 4606 C 436.478 0.399922 -1.61214 0
M  V30 4607 O 437.663 0.300515 -1.88419 0
M  V30 4608 C 434.803 0.083372 -3.44999 0
M  V30 4609 C 433.916 -0.937856 -4.21697 0
M  V30 4610 C 433.051 -0.248717 -5.30617 0
M  V30 4611 C 432.09 -1.25705 -5.99053 0
M  V30 4612 N 431.227 -0.594939 -6.99575 0
M  V30 4613 H 436.067 -1.45695 -2.59956 0
M  V30 4614 H 433.604 -0.729428 -1.27741 0
M  V30 4615 H 435.562 0.483535 -4.14388 0
M  V30 4616 H 434.192 0.926645 -3.09214 0
M  V30 4617 H 433.244 -1.45622 -3.51423 0
M  V30 4618 H 434.556 -1.70493 -4.68757 0
M  V30 4619 H 433.71 0.207215 -6.06346 0
M  V30 4620 H 432.449 0.55071 -4.84581 0
M  V30 4621 H 431.454 -1.72343 -5.2209 0
M  V30 4622 H 432.679 -2.05767 -6.47176 0
M  V30 4623 H 430.625 0.184713 -6.5574 0
M  V30 4624 H 430.542 -1.30017 -7.44736 0
M  V30 4625 H 431.81 -0.162427 -7.79331 0
M  V30 4626 N 436.039 1.36541 -0.78704 0
M  V30 4627 C 436.972 2.27831 -0.129765 0
M  V30 4628 C 437.95 1.47105 0.692732 0
M  V30 4629 O 439.134 1.7641 0.664222 0
M  V30 4630 C 436.261 3.28577 0.821883 0
M  V30 4631 C 435.307 4.26422 0.0814771 0
M  V30 4632 S 436.14 5.20919 -1.24112 0
M  V30 4633 C 437.296 6.25212 -0.293409 0
M  V30 4634 H 437.529 2.83229 -0.903811 0
M  V30 4635 H 435.062 1.43046 -0.581144 0
M  V30 4636 H 437.02 3.87123 1.3655 0
M  V30 4637 H 435.681 2.72096 1.56916 0
M  V30 4638 H 434.874 4.97554 0.803485 0
M  V30 4639 H 434.476 3.71944 -0.391589 0
M  V30 4640 H 436.768 6.75435 0.528622 0
M  V30 4641 H 437.711 7.01378 -0.973344 0
M  V30 4642 H 438.119 5.64407 0.102196 0
M  V30 4643 N 437.518 0.538854 1.48102 0
M  V30 4644 C 438.465 -0.219042 2.29758 0
M  V30 4645 C 439.435 -0.925562 1.37922 0
M  V30 4646 O 440.62 -0.924855 1.66886 0
M  V30 4647 C 437.76 -1.25452 3.2149 0
M  V30 4648 C 436.873 -0.555943 4.28408 0
M  V30 4649 C 436.008 -1.57512 5.0731 0
M  V30 4650 C 435.047 -0.860498 6.06021 0
M  V30 4651 N 434.184 -1.82564 6.77949 0
M  V30 4652 H 439.024 0.483449 2.94052 0
M  V30 4653 H 436.561 0.250247 1.44956 0
M  V30 4654 H 438.519 -1.86727 3.7308 0
M  V30 4655 H 437.149 -1.92528 2.591 0
M  V30 4656 H 436.201 0.170938 3.80016 0
M  V30 4657 H 437.513 0.00474616 4.988 0
M  V30 4658 H 436.667 -2.26191 5.62959 0
M  V30 4659 H 435.406 -2.16972 4.36778 0
M  V30 4660 H 434.411 -0.159686 5.49568 0
M  V30 4661 H 435.636 -0.271897 6.78555 0
M  V30 4662 H 433.582 -2.40915 6.10161 0
M  V30 4663 H 433.499 -1.31662 7.44447 0
M  V30 4664 H 434.767 -2.50414 7.38182 0
M  V30 4665 N 438.996 -1.55193 0.274407 0
M  V30 4666 C 439.926 -2.25471 -0.607032 0
M  V30 4667 C 440.907 -1.24461 -1.15946 0
M  V30 4668 O 442.092 -1.53179 -1.19373 0
M  V30 4669 C 439.222 -2.97526 -1.79153 0
M  V30 4670 C 438.176 -4.05459 -1.37067 0
M  V30 4671 C 437.502 -4.65084 -2.6382 0
M  V30 4672 C 438.802 -5.19691 -0.521389 0
M  V30 4673 H 440.496 -2.99393 -0.0209343 0
M  V30 4674 H 438.042 -1.43997 -0.00862866 0
M  V30 4675 H 439.995 -3.45402 -2.41404 0
M  V30 4676 H 438.719 -2.21138 -2.40344 0
M  V30 4677 H 437.378 -3.58393 -0.771355 0
M  V30 4678 H 437.026 -3.85365 -3.23268 0
M  V30 4679 H 436.726 -5.37961 -2.36372 0
M  V30 4680 H 438.25 -5.15708 -3.26921 0
M  V30 4681 H 439.664 -5.63623 -1.04889 0
M  V30 4682 H 438.061 -5.99126 -0.341825 0
M  V30 4683 H 439.131 -4.82713 0.46 0
M  V30 4684 N 440.474 -0.00167713 -1.576 0
M  V30 4685 C 441.885 0.54091 -1.78693 0
M  V30 4686 C 442.236 1.7386 -0.909247 0
M  V30 4687 O 441.361 2.16109 -0.112176 0
M  V30 4688 C 441.956 0.98806 -3.24072 0
M  V30 4689 C 440.515 1.47594 -3.46256 0
M  V30 4690 C 439.662 0.42792 -2.73978 0
M  V30 4691 H 442.613 -0.22784 -1.57056 0
M  V30 4692 H 442.634 1.85398 -3.32277 0
M  V30 4693 H 442.146 0.116164 -3.87926 0
M  V30 4694 H 440.247 2.36868 -2.87618 0
M  V30 4695 H 440.36 1.50225 -4.54939 0
M  V30 4696 H 438.724 0.889934 -2.38647 0
M  V30 4697 H 439.507 -0.435038 -3.40532 0
M  V30 4698 N 441.952 1.55251 0.271103 0
M  V30 4699 C 442.862 1.9136 1.35714 0
M  V30 4700 C 443.878 0.811075 1.5394 0
M  V30 4701 O 445.054 1.11031 1.6803 0
M  V30 4702 C 442.119 2.1798 2.69603 0
M  V30 4703 C 441.18 3.4153 2.60107 0
M  V30 4704 C 440.413 3.66871 3.8761 0
M  V30 4705 O 440.636 2.94689 4.8838 0
M  V30 4706 O 439.57 4.60405 3.87699 0
M  V30 4707 H 443.396 2.83815 1.08088 0
M  V30 4708 H 440.981 1.41821 0.469792 0
M  V30 4709 H 442.863 2.36518 3.48765 0
M  V30 4710 H 441.538 1.28708 2.97012 0
M  V30 4711 H 440.445 3.28325 1.79314 0
M  V30 4712 H 441.778 4.31027 2.37647 0
M  V30 4713 N 443.43 -0.535701 1.48216 0
M  V30 4714 C 444.362 -1.65662 1.58394 0
M  V30 4715 C 445.375 -1.5591 0.468607 0
M  V30 4716 O 446.564 -1.62475 0.7392 0
M  V30 4717 C 443.664 -3.04276 1.4923 0
M  V30 4718 C 442.837 -3.39567 2.75705 0
M  V30 4719 C 441.896 -4.57436 2.60075 0
M  V30 4720 O 440.922 -4.60942 3.33948 0
M  V30 4721 N 442.124 -5.55259 1.69315 0
M  V30 4722 H 444.889 -1.5737 2.55058 0
M  V30 4723 H 442.45 -0.722845 1.44867 0
M  V30 4724 H 444.442 -3.80994 1.36477 0
M  V30 4725 H 443.012 -3.06677 0.605632 0
M  V30 4726 H 442.232 -2.52083 3.03064 0
M  V30 4727 H 443.52 -3.59929 3.59623 0
M  V30 4728 H 442.918 -5.552 1.08489 0
M  V30 4729 H 441.475 -6.31218 1.62504 0
M  V30 4730 N 444.908 -1.36708 -0.784132 0
M  V30 4731 C 446.319 -1.27947 -1.35965 0
M  V30 4732 C 446.67 0.0784013 -1.96043 0
M  V30 4733 O 445.795 0.979989 -1.92938 0
M  V30 4734 C 446.39 -2.31689 -2.47195 0
M  V30 4735 C 444.949 -2.26601 -3.00548 0
M  V30 4736 C 444.096 -2.16184 -1.73666 0
M  V30 4737 H 447.047 -1.4751 -0.585358 0
M  V30 4738 H 447.068 -1.95638 -3.26352 0
M  V30 4739 H 446.58 -3.30506 -2.03439 0
M  V30 4740 H 444.681 -1.31268 -3.48711 0
M  V30 4741 H 444.794 -3.19508 -3.57004 0
M  V30 4742 H 443.158 -1.62524 -1.96107 0
M  V30 4743 H 443.941 -3.16896 -1.32031 0
M  V30 4744 N 446.386 1.0089 -1.21074 0
M  V30 4745 C 447.296 2.13039 -0.982425 0
M  V30 4746 C 448.312 1.73881 0.0642161 0
M  V30 4747 O 449.488 2.01012 -0.12496 0
M  V30 4748 C 446.553 3.42377 -0.545803 0
M  V30 4749 C 445.614 3.95731 -1.6642 0
M  V30 4750 C 444.847 5.18896 -1.24832 0
M  V30 4751 O 445.07 5.70273 -0.120265 0
M  V30 4752 O 444.004 5.65597 -2.05873 0
M  V30 4753 H 447.83 2.35175 -1.92163 0
M  V30 4754 H 445.415 1.1142 -0.995285 0
M  V30 4755 H 447.297 4.20244 -0.311912 0
M  V30 4756 H 445.972 3.21639 0.364727 0
M  V30 4757 H 444.879 3.19108 -1.95246 0
M  V30 4758 H 446.212 4.20872 -2.55201 0
M  V30 4759 N 447.864 1.01787 1.20321 0
M  V30 4760 C 448.774 0.598898 2.26827 0
M  V30 4761 C 449.79 -0.36418 1.70146 0
M  V30 4762 O 450.966 -0.224812 2.00141 0
M  V30 4763 C 448.031 -0.0549769 3.46656 0
M  V30 4764 C 447.092 0.954205 4.18561 0
M  V30 4765 C 446.325 0.331439 5.3267 0
M  V30 4766 O 446.548 -0.86851 5.63749 0
M  V30 4767 O 445.482 1.0488 5.92692 0
M  V30 4768 H 449.308 1.48562 2.64883 0
M  V30 4769 H 446.893 0.787434 1.26964 0
M  V30 4770 H 448.775 -0.420102 4.19301 0
M  V30 4771 H 447.45 -0.915876 3.10473 0
M  V30 4772 H 446.357 1.37072 3.48083 0
M  V30 4773 H 447.69 1.78511 4.58688 0
M  V30 4774 N 449.342 -1.36122 0.79427 0
M  V30 4775 C 450.59 -1.98718 0.368177 0
M  V30 4776 C 450.911 -1.63345 -1.06506 0
M  V30 4777 O 450.181 -0.909825 -1.73491 0
M  V30 4778 H 448.761 -0.735038 0.133146 0
M  V30 4779 H 451.423 -1.66239 1.01739 0
M  V30 4780 H 450.519 -3.08633 0.463923 0
M  V30 4781 N 450.82 -0.546701 -1.47814 0
M  V30 4782 C 451.73 0.21026 -2.33656 0
M  V30 4783 C 452.746 0.922413 -1.47538 0
M  V30 4784 O 453.922 0.893652 -1.80488 0
M  V30 4785 C 450.987 1.23348 -3.24016 0
M  V30 4786 C 450.048 0.529883 -4.26017 0
M  V30 4787 C 449.281 1.50435 -5.12059 0
M  V30 4788 O 449.504 2.73837 -5.00369 0
M  V30 4789 O 448.438 1.03459 -5.92942 0
M  V30 4790 H 452.264 -0.493605 -2.99662 0
M  V30 4791 H 449.849 -0.307427 -1.46203 0
M  V30 4792 H 451.731 1.82438 -3.79861 0
M  V30 4793 H 450.406 1.91945 -2.60651 0
M  V30 4794 H 449.313 -0.101948 -3.73961 0
M  V30 4795 H 450.646 -0.11445 -4.92067 0
M  V30 4796 N 452.299 1.55045 -0.282633 0
M  V30 4797 C 453.262 2.21515 0.588539 0
M  V30 4798 C 454.262 1.19535 1.07554 0
M  V30 4799 O 455.452 1.44391 0.974514 0
M  V30 4800 C 452.584 2.88704 1.8128 0
M  V30 4801 H 453.777 2.99899 0.00806397 0
M  V30 4802 H 451.33 1.56265 -0.0333067 0
M  V30 4803 H 452.065 2.14352 2.43359 0
M  V30 4804 H 451.85 3.63443 1.47144 0
M  V30 4805 H 453.34 3.39465 2.43214 0
M  V30 4806 N 453.777 0.010035 1.57597 0
M  V30 4807 C 454.724 -0.978122 2.09049 0
M  V30 4808 C 455.694 -1.33509 0.988159 0
M  V30 4809 O 456.879 -1.43172 1.26121 0
M  V30 4810 C 454.019 -2.26158 2.60666 0
M  V30 4811 C 453.132 -1.96275 3.84838 0
M  V30 4812 C 452.267 -3.18776 4.24918 0
M  V30 4813 C 451.306 -2.84625 5.41899 0
M  V30 4814 N 450.443 -3.99693 5.77226 0
M  V30 4815 H 455.283 -0.532431 2.93205 0
M  V30 4816 H 452.82 -0.251234 1.44939 0
M  V30 4817 H 454.778 -3.01202 2.88675 0
M  V30 4818 H 453.408 -2.68378 1.79369 0
M  V30 4819 H 452.46 -1.11555 3.63675 0
M  V30 4820 H 453.772 -1.67111 4.69974 0
M  V30 4821 H 452.926 -4.02157 4.54262 0
M  V30 4822 H 451.665 -3.51087 3.38511 0
M  V30 4823 H 450.67 -1.99653 5.12268 0
M  V30 4824 H 451.895 -2.53551 6.29991 0
M  V30 4825 H 449.841 -4.31882 4.93776 0
M  V30 4826 H 449.758 -3.74087 6.56959 0
M  V30 4827 H 451.026 -4.83834 6.11167 0
M  V30 4828 N 455.255 -1.55392 -0.262866 0
M  V30 4829 C 456.532 -1.67204 -1.01499 0
M  V30 4830 C 456.912 -0.545186 -2.03939 0
M  V30 4831 O 456.26 0.453467 -2.23955 0
M  V30 4832 C 456.47 -3.06847 -1.6627 0
M  V30 4833 C 457.818 -3.64928 -2.17054 0
M  V30 4834 O 458.842 -3.09545 -1.76239 0
M  V30 4835 O 457.701 -4.61984 -2.91947 0
M  V30 4836 H 454.795 -0.679467 -0.471438 0
M  V30 4837 H 457.341 -1.67729 -0.257918 0
M  V30 4838 H 456.113 -3.80309 -0.920915 0
M  V30 4839 H 455.736 -3.10266 -2.48638 0
M  V30 4840 N 456.733 0.527833 -1.48498 0
M  V30 4841 C 457.683 1.62844 -1.5958 0
M  V30 4842 C 458.667 1.54397 -0.452809 0
M  V30 4843 O 459.859 1.62381 -0.704364 0
M  V30 4844 C 456.988 3.01557 -1.64067 0
M  V30 4845 C 456.074 3.151 -2.83853 0
M  V30 4846 N 456.465 2.9861 -4.08247 0
M  V30 4847 C 454.763 3.46158 -2.8123 0
M  V30 4848 C 455.464 3.15626 -4.88626 0
M  V30 4849 N 454.44 3.43298 -4.21483 0
M  V30 4850 H 458.242 1.48708 -2.53502 0
M  V30 4851 H 455.756 0.733343 -1.44899 0
M  V30 4852 H 457.753 3.8062 -1.70101 0
M  V30 4853 H 456.413 3.16783 -0.712636 0
M  V30 4854 H 457.424 2.75329 -4.3865 0
M  V30 4855 H 454.101 3.67728 -1.97692 0
M  V30 4856 H 455.491 3.07596 -5.97356 0
M  V30 4857 N 458.211 1.37122 0.776871 0
M  V30 4858 C 459.121 1.34651 1.9211 0
M  V30 4859 C 460.137 0.246824 1.7224 0
M  V30 4860 O 461.313 0.48134 1.95563 0
M  V30 4861 C 458.378 1.14748 3.2716 0
M  V30 4862 C 457.439 2.34308 3.5972 0
M  V30 4863 C 456.672 2.15345 4.88326 0
M  V30 4864 O 456.895 1.13507 5.58992 0
M  V30 4865 O 455.829 3.03414 5.1983 0
M  V30 4866 H 459.655 2.31013 1.97146 0
M  V30 4867 H 457.24 1.17799 0.918901 0
M  V30 4868 H 459.122 1.05616 4.0795 0
M  V30 4869 H 457.797 0.214562 3.22988 0
M  V30 4870 H 456.704 2.49011 2.79185 0
M  V30 4871 H 458.037 3.26149 3.68629 0
M  V30 4872 N 459.689 -1.00246 1.21608 0
M  V30 4873 C 460.652 -2.07233 0.979133 0
M  V30 4874 C 461.652 -1.6072 -0.0508219 0
M  V30 4875 O 462.842 -1.73196 0.186712 0
M  V30 4876 C 459.974 -3.37546 0.477016 0
M  V30 4877 H 461.167 -2.29687 1.92831 0
M  V30 4878 H 458.72 -1.17261 1.03342 0
M  V30 4879 H 459.455 -3.20773 -0.476966 0
M  V30 4880 H 459.24 -3.72638 1.21997 0
M  V30 4881 H 460.73 -4.16285 0.331181 0
M  V30 4882 N 461.167 -1.02423 -1.1978 0
M  V30 4883 C 462.578 -0.748389 -1.71044 0
M  V30 4884 C 462.929 0.732398 -1.82017 0
M  V30 4885 O 462.054 1.57116 -1.48807 0
M  V30 4886 C 462.649 -1.35187 -3.1066 0
M  V30 4887 C 461.208 -1.12472 -3.59203 0
M  V30 4888 C 460.355 -1.45283 -2.36195 0
M  V30 4889 H 463.306 -1.19275 -1.04686 0
M  V30 4890 H 463.327 -0.746408 -3.73107 0
M  V30 4891 H 462.839 -2.4296 -3.02642 0
M  V30 4892 H 460.94 -0.0649983 -3.72543 0
M  V30 4893 H 461.053 -1.81016 -4.43588 0
M  V30 4894 H 459.417 -0.872034 -2.39307 0
M  V30 4895 H 460.2 -2.54129 -2.30811 0
M  V30 4896 N 462.645 1.35699 -0.801477 0
M  V30 4897 C 463.87 2.03687 -0.390678 0
M  V30 4898 C 464.295 1.60015 0.988778 0
M  V30 4899 O 463.653 0.774357 1.63931 0
M  V30 4900 C 463.701 3.57439 -0.476404 0
M  V30 4901 O 462.805 4.09208 0.512106 0
M  V30 4902 H 462.146 0.64344 -0.163956 0
M  V30 4903 H 464.676 1.73403 -1.08594 0
M  V30 4904 H 464.686 4.06544 -0.344357 0
M  V30 4905 H 463.361 3.88576 -1.48262 0
M  V30 4906 H 461.938 3.7134 0.340721 0
M  V30 4907 N 464.123 0.554532 1.47522 0
M  V30 4908 C 465.07 -0.19466 2.29978 0
M  V30 4909 C 466.04 -0.910882 1.38896 0
M  V30 4910 O 467.225 -0.907102 1.67858 0
M  V30 4911 C 464.365 -1.22035 3.22802 0
M  V30 4912 C 463.478 -0.510474 4.28973 0
M  V30 4913 C 462.613 -1.52123 5.08952 0
M  V30 4914 C 461.652 -0.796173 6.069 0
M  V30 4915 N 460.789 -1.75363 6.79847 0
M  V30 4916 H 465.629 0.51461 2.93523 0
M  V30 4917 H 463.166 0.265607 1.44682 0
M  V30 4918 H 465.124 -1.8276 3.7504 0
M  V30 4919 H 463.754 -1.89769 2.61127 0
M  V30 4920 H 462.806 0.211234 3.79813 0
M  V30 4921 H 464.118 0.0576503 4.98767 0
M  V30 4922 H 463.272 -2.20207 5.65326 0
M  V30 4923 H 462.011 -2.12327 4.39054 0
M  V30 4924 H 461.016 -0.101388 5.49707 0
M  V30 4925 H 462.241 -0.199911 6.78806 0
M  V30 4926 H 460.187 -2.3443 6.12682 0
M  V30 4927 H 460.104 -1.23759 7.45801 0
M  V30 4928 H 461.372 -2.4257 7.40797 0
M  V30 4929 N 465.601 -1.54893 0.290851 0
M  V30 4930 C 466.849 -1.99538 -0.320756 0
M  V30 4931 C 467.17 -1.18075 -1.55188 0
M  V30 4932 O 466.44 -0.274162 -1.93972 0
M  V30 4933 H 465.02 -0.737052 -0.121507 0
M  V30 4934 H 467.682 -1.90755 0.399832 0
M  V30 4935 H 466.778 -3.06282 -0.599802 0
M  V30 4936 N 467.08 -0.0183926 -1.57589 0
M  V30 4937 C 468.027 0.967022 -2.09565 0
M  V30 4938 C 468.997 1.32983 -0.995225 0
M  V30 4939 O 470.182 1.42501 -1.26878 0
M  V30 4940 C 467.322 2.24772 -2.61861 0
M  V30 4941 C 466.435 1.94232 -3.85873 0
M  V30 4942 C 465.57 3.16518 -4.26603 0
M  V30 4943 C 464.609 2.81748 -5.43401 0
M  V30 4944 N 463.746 3.96626 -5.79338 0
M  V30 4945 H 468.586 0.516874 -2.93483 0
M  V30 4946 H 466.123 0.243544 -1.4507 0
M  V30 4947 H 468.081 2.99667 -2.90268 0
M  V30 4948 H 466.711 2.67423 -1.8079 0
M  V30 4949 H 465.763 1.09625 -3.64262 0
M  V30 4950 H 467.075 1.64616 -4.70853 0
M  V30 4951 H 466.229 3.99743 -4.56389 0
M  V30 4952 H 464.968 3.49286 -3.40368 0
M  V30 4953 H 463.973 1.96933 -5.1332 0
M  V30 4954 H 465.198 2.50207 -6.31327 0
M  V30 4955 H 463.144 4.29257 -4.96059 0
M  V30 4956 H 463.061 3.70598 -6.58933 0
M  V30 4957 H 464.329 4.80586 -6.13724 0
M  V30 4958 N 468.558 1.5553 0.254621 0
M  V30 4959 C 469.805 1.77 0.983736 0
M  V30 4960 C 470.133 0.58133 1.85609 0
M  V30 4961 O 469.388 -0.435621 1.9079 0
M  V30 4962 C 469.687 3.03891 1.88109 0
M  V30 4963 C 469.353 4.35597 1.16472 0
M  V30 4964 C 468.015 4.7139 0.966714 0
M  V30 4965 C 470.367 5.1705 0.656387 0
M  V30 4966 C 467.695 5.86176 0.247942 0
M  V30 4967 C 470.047 6.32581 -0.0488807 0
M  V30 4968 C 468.711 6.67 -0.258438 0
M  V30 4969 H 467.981 0.647688 0.359974 0
M  V30 4970 H 470.628 1.89802 0.254463 0
M  V30 4971 H 468.933 2.86068 2.67717 0
M  V30 4972 H 470.63 3.17701 2.44677 0
M  V30 4973 H 467.22 4.07475 1.32899 0
M  V30 4974 H 471.404 4.8986 0.796933 0
M  V30 4975 H 466.66 6.11354 0.075035 0
M  V30 4976 H 470.834 6.94942 -0.450444 0
M  V30 4977 H 468.461 7.55793 -0.817358 0
M  V30 4978 N 470.036 -0.519951 1.48776 0
M  V30 4979 C 470.984 -1.64443 1.64503 0
M  V30 4980 C 471.978 -1.61501 0.511248 0
M  V30 4981 O 473.184 -1.66238 0.690294 0
M  V30 4982 H 469.559 -0.544776 0.518385 0
M  V30 4983 H 471.53 -1.48325 2.58925 0
M  V30 4984 C 470.279 -3.02673 1.71127 0
M  V30 4985 H 469.602 -3.05635 2.57735 0
M  V30 4986 H 471.042 -3.80941 1.86172 0
M  V30 4987 C 469.501 -3.33854 0.452032 0
M  V30 4988 O 470.031 -3.99385 -0.430678 0
M  V30 4989 N 468.237 -2.88825 0.32069 0
M  V30 4990 H 467.784 -2.35674 1.03998 0
M  V30 4991 H 467.742 -3.10056 -0.520814 0
M  V30 4992 N 471.514 -1.37532 -0.769588 0
M  V30 4993 C 472.76 -1.34063 -1.52966 0
M  V30 4994 C 473.115 0.0737942 -1.92258 0
M  V30 4995 O 472.408 1.03291 -1.61374 0
M  V30 4996 C 472.602 -2.21558 -2.8044 0
M  V30 4997 C 472.431 -3.71367 -2.53608 0
M  V30 4998 C 471.201 -4.40464 -2.47628 0
M  V30 4999 C 473.399 -4.64177 -2.21459 0
M  V30 5000 N 471.381 -5.758 -2.12902 0
M  V30 5001 C 472.752 -5.87907 -1.9689 0
M  V30 5002 C 474.807 -4.52541 -2.07633 0
M  V30 5003 C 473.51 -7.01304 -1.59892 0
M  V30 5004 C 475.536 -5.65825 -1.72034 0
M  V30 5005 C 474.898 -6.88606 -1.48327 0
M  V30 5006 H 470.997 -0.545856 -0.559969 0
M  V30 5007 H 473.581 -1.72773 -0.897634 0
M  V30 5008 H 471.752 -1.85061 -3.41478 0
M  V30 5009 H 473.484 -2.09332 -3.46356 0
M  V30 5010 H 470.239 -3.93491 -2.63556 0
M  V30 5011 H 470.663 -6.47328 -1.9823 0
M  V30 5012 H 475.305 -3.58183 -2.24643 0
M  V30 5013 H 473.023 -7.95594 -1.4162 0
M  V30 5014 H 476.609 -5.58793 -1.61991 0
M  V30 5015 H 475.489 -7.74779 -1.21189 0
M  V30 5016 N 472.992 0.995999 -1.22138 0
M  V30 5017 C 473.939 2.08551 -0.988687 0
M  V30 5018 C 474.909 1.65864 0.0885021 0
M  V30 5019 O 476.094 1.90704 -0.0604589 0
M  V30 5020 C 473.234 3.40374 -0.569191 0
M  V30 5021 C 472.347 3.96421 -1.71681 0
M  V30 5022 C 471.482 5.1639 -1.2456 0
M  V30 5023 C 470.521 5.64567 -2.36497 0
M  V30 5024 N 469.658 6.75777 -1.90445 0
M  V30 5025 H 474.498 2.2779 -1.92135 0
M  V30 5026 H 472.035 1.1168 -0.957388 0
M  V30 5027 H 473.993 4.16068 -0.307166 0
M  V30 5028 H 472.623 3.21145 0.326462 0
M  V30 5029 H 471.675 3.17628 -2.09324 0
M  V30 5030 H 472.987 4.2816 -2.55891 0
M  V30 5031 H 472.141 5.99362 -0.940774 0
M  V30 5032 H 470.88 4.86266 -0.373662 0
M  V30 5033 H 469.885 4.80185 -2.67772 0
M  V30 5034 H 471.11 5.96716 -3.24202 0
M  V30 5035 H 469.056 6.47443 -1.05609 0
M  V30 5036 H 468.973 7.06818 -2.68223 0
M  V30 5037 H 470.241 7.62262 -1.63022 0
M  V30 5038 N 474.47 1.03057 1.19235 0
M  V30 5039 C 475.718 0.726581 1.88587 0
M  V30 5040 C 476.039 -0.747227 1.80115 0
M  V30 5041 O 475.309 -1.53849 1.21274 0
M  V30 5042 H 473.889 0.265768 0.698124 0
M  V30 5043 H 476.551 1.30516 1.44746 0
M  V30 5044 H 475.647 1.0224 2.94879 0
M  V30 5045 N 475.948 -1.35272 0.808662 0
M  V30 5046 C 477.176 -2.02946 0.402537 0
M  V30 5047 C 477.591 -1.60937 -0.987147 0
M  V30 5048 O 476.948 -0.807917 -1.63643 0
M  V30 5049 C 476.999 -3.58317 0.47868 0
M  V30 5050 O 476.72 -3.98799 1.81358 0
M  V30 5051 C 478.221 -4.43251 0.0656281 0
M  V30 5052 H 475.441 -0.650831 0.163279 0
M  V30 5053 H 477.985 -1.72849 1.09286 0
M  V30 5054 H 476.14 -3.87055 -0.163415 0
M  V30 5055 H 476.554 -4.93451 1.77781 0
M  V30 5056 H 478.028 -5.51738 0.170017 0
M  V30 5057 H 478.505 -4.27913 -0.989278 0
M  V30 5058 H 479.111 -4.19813 0.68096 0
M  V30 5059 N 477.426 -0.562348 -1.47226 0
M  V30 5060 C 478.675 -0.038041 -2.01664 0
M  V30 5061 C 478.988 1.32199 -1.44162 0
M  V30 5062 O 480.194 1.9365 -1.90294 0
M  V30 5063 C 478.65 -0.0174958 -3.59896 0
M  V30 5064 C 478.258 -1.3746 -4.2639 0
M  V30 5065 C 480.002 0.453934 -4.22066 0
M  V30 5066 C 477.909 -1.31289 -5.76643 0
M  V30 5067 H 476.839 -0.0104511 -0.753928 0
M  V30 5068 H 479.49 -0.710966 -1.69167 0
M  V30 5069 H 477.872 0.721182 -3.89378 0
M  V30 5070 H 479.046 -2.1314 -4.08544 0
M  V30 5071 H 477.361 -1.78438 -3.7623 0
M  V30 5072 H 479.958 0.518584 -5.32179 0
M  V30 5073 H 480.301 1.46706 -3.89594 0
M  V30 5074 H 480.834 -0.230044 -3.97134 0
M  V30 5075 H 477.573 -2.30217 -6.13743 0
M  V30 5076 H 477.093 -0.597973 -5.96812 0
M  V30 5077 H 478.772 -1.01713 -6.38955 0
M  V30 5078 N 478.904 1.54736 -0.299062 0
M  V30 5079 C 479.851 2.23448 0.577899 0
M  V30 5080 C 480.821 1.21637 1.13109 0
M  V30 5081 O 482.006 1.50252 1.17597 0
M  V30 5082 C 479.146 2.9774 1.74484 0
M  V30 5083 C 478.259 4.1432 1.22323 0
M  V30 5084 C 477.394 4.76199 2.35388 0
M  V30 5085 C 476.433 5.84927 1.80351 0
M  V30 5086 N 475.57 6.4077 2.86982 0
M  V30 5087 H 480.41 2.97996 -0.0146545 0
M  V30 5088 H 477.947 1.47088 -0.0190013 0
M  V30 5089 H 479.905 3.39045 2.43114 0
M  V30 5090 H 478.535 2.25572 2.30905 0
M  V30 5091 H 477.587 3.7797 0.429249 0
M  V30 5092 H 478.899 4.92659 0.780309 0
M  V30 5093 H 478.053 5.20346 3.11969 0
M  V30 5094 H 476.792 3.97188 2.83006 0
M  V30 5095 H 475.797 5.40207 1.02259 0
M  V30 5096 H 477.022 6.65821 1.3364 0
M  V30 5097 H 474.968 5.64643 3.33938 0
M  V30 5098 H 474.885 7.1445 2.4718 0
M  V30 5099 H 476.153 6.89574 3.63466 0
M  V30 5100 N 480.382 0.0267497 1.57577 0
M  V30 5101 C 481.345 -0.940916 2.08996 0
M  V30 5102 C 482.345 -1.25561 1.00455 0
M  V30 5103 O 483.535 -1.19634 1.26623 0
M  V30 5104 C 480.667 -2.25814 2.55384 0
M  V30 5105 H 481.86 -0.495628 2.95776 0
M  V30 5106 H 479.413 -0.221241 1.54726 0
M  V30 5107 H 480.148 -2.74976 1.71926 0
M  V30 5108 H 479.933 -2.04285 3.34679 0
M  V30 5109 H 481.423 -2.95178 2.95398 0
M  V30 5110 N 481.861 -1.55662 -0.24637 0
M  V30 5111 C 483.107 -1.77782 -0.975779 0
M  V30 5112 C 483.44 -0.592103 -1.84953 0
M  V30 5113 O 482.715 0.409588 -1.90138 0
M  V30 5114 C 482.998 -3.09788 -1.83584 0
M  V30 5115 C 482.851 -4.38764 -0.990241 0
M  V30 5116 C 484.17 -3.38029 -2.81823 0
M  V30 5117 H 481.289 -0.646789 -0.353317 0
M  V30 5118 H 483.931 -1.88398 -0.246248 0
M  V30 5119 H 482.081 -3.00869 -2.45784 0
M  V30 5120 H 483.753 -4.59675 -0.386897 0
M  V30 5121 H 481.996 -4.32798 -0.294626 0
M  V30 5122 H 482.667 -5.27514 -1.62584 0
M  V30 5123 H 485.143 -3.46915 -2.2976 0
M  V30 5124 H 484.019 -4.3161 -3.39122 0
M  V30 5125 H 484.28 -2.58968 -3.58313 0
M  V30 5126 N 483.339 0.512053 -1.4905 0
M  V30 5127 C 484.269 1.62365 -1.67809 0
M  V30 5128 C 485.25 1.61737 -0.526809 0
M  V30 5129 O 486.435 1.78651 -0.761404 0
M  V30 5130 C 483.565 3.00895 -1.73435 0
M  V30 5131 C 482.519 3.16387 -2.88242 0
M  V30 5132 C 481.845 4.56157 -2.78971 0
M  V30 5133 C 483.145 2.97457 -4.29321 0
M  V30 5134 H 484.839 1.46921 -2.60873 0
M  V30 5135 H 482.385 0.705379 -1.2554 0
M  V30 5136 H 484.338 3.78549 -1.85145 0
M  V30 5137 H 483.062 3.17403 -0.769619 0
M  V30 5138 H 481.721 2.41155 -2.76116 0
M  V30 5139 H 481.369 4.69525 -1.8043 0
M  V30 5140 H 481.069 4.67465 -3.5602 0
M  V30 5141 H 482.593 5.35886 -2.92675 0
M  V30 5142 H 484.007 3.64888 -4.42187 0
M  V30 5143 H 482.404 3.20245 -5.07507 0
M  V30 5144 H 483.474 1.93692 -4.44535 0
M  V30 5145 N 484.817 1.37938 0.762283 0
M  V30 5146 C 485.764 1.34467 1.87583 0
M  V30 5147 C 486.734 0.208633 1.64785 0
M  V30 5148 O 487.919 0.399494 1.86571 0
M  V30 5149 C 485.059 1.16692 3.24772 0
M  V30 5150 C 484.172 2.39608 3.59461 0
M  V30 5151 C 483.307 2.14631 4.85908 0
M  V30 5152 C 482.346 3.33364 5.13357 0
M  V30 5153 N 481.483 3.07877 6.30996 0
M  V30 5154 H 486.323 2.29669 1.89885 0
M  V30 5155 H 483.86 1.14116 0.928219 0
M  V30 5156 H 485.818 1.04405 4.03925 0
M  V30 5157 H 484.448 0.251333 3.2182 0
M  V30 5158 H 483.5 2.626 2.75219 0
M  V30 5159 H 484.812 3.28128 3.75678 0
M  V30 5160 H 483.966 1.99429 5.72986 0
M  V30 5161 H 482.705 1.23463 4.71814 0
M  V30 5162 H 481.71 3.49094 4.24751 0
M  V30 5163 H 482.935 4.25395 5.29354 0
M  V30 5164 H 480.881 2.19348 6.18241 0
M  V30 5165 H 480.798 3.89944 6.47673 0
M  V30 5166 H 482.066 2.96313 7.20985 0
M  V30 5167 N 486.295 -0.989507 1.22664 0
M  V30 5168 C 487.227 -2.0824 0.957542 0
M  V30 5169 C 488.24 -1.6267 -0.0651098 0
M  V30 5170 O 489.429 -1.77695 0.169312 0
M  V30 5171 C 486.529 -3.36298 0.419145 0
M  V30 5172 C 485.702 -4.10882 1.49982 0
M  V30 5173 C 484.761 -5.17221 0.967904 0
M  V30 5174 O 483.787 -5.44613 1.65487 0
M  V30 5175 N 484.989 -5.80124 -0.20896 0
M  V30 5176 H 487.754 -2.31904 1.89843 0
M  V30 5177 H 485.315 -1.15552 1.13399 0
M  V30 5178 H 487.307 -4.04671 0.0485451 0
M  V30 5179 H 485.877 -3.09671 -0.426937 0
M  V30 5180 H 485.097 -3.37092 2.04359 0
M  V30 5181 H 486.385 -4.57482 2.22682 0
M  V30 5182 H 485.783 -5.60244 -0.783818 0
M  V30 5183 H 484.34 -6.49715 -0.520913 0
M  V30 5184 N 487.773 -1.03688 -1.18687 0
M  V30 5185 C 488.736 -0.629115 -2.20397 0
M  V30 5186 C 489.736 0.311495 -1.57754 0
M  V30 5187 O 490.926 0.0974107 -1.73927 0
M  V30 5188 C 488.058 0.0782231 -3.4081 0
M  V30 5189 H 489.251 -1.52915 -2.57987 0
M  V30 5190 H 486.804 -0.828988 -1.32505 0
M  V30 5191 H 487.539 0.992233 -3.08748 0
M  V30 5192 H 487.324 -0.597776 -3.87517 0
M  V30 5193 H 488.814 0.350156 -4.16129 0
M  V30 5194 N 489.251 1.34841 -0.815825 0
M  V30 5195 C 490.662 1.80937 -0.46029 0
M  V30 5196 C 491.013 1.67685 1.01863 0
M  V30 5197 O 490.138 1.21277 1.79223 0
M  V30 5198 C 490.733 3.28509 -0.828708 0
M  V30 5199 C 489.292 3.72712 -0.525644 0
M  V30 5200 C 488.439 2.56676 -1.04941 0
M  V30 5201 H 491.39 1.22688 -1.00664 0
M  V30 5202 H 491.411 3.80279 -0.129757 0
M  V30 5203 H 490.923 3.38122 -1.90513 0
M  V30 5204 H 489.024 3.68642 0.541666 0
M  V30 5205 H 489.137 4.67119 -1.06474 0
M  V30 5206 H 487.501 2.50302 -0.471286 0
M  V30 5207 H 488.284 2.69063 -2.13214 0
M  V30 5208 N 490.729 0.570148 1.46925 0
M  V30 5209 C 492.006 -0.0153259 1.95594 0
M  V30 5210 C 492.386 -1.47232 1.51281 0
M  V30 5211 O 491.734 -2.15574 0.757624 0
M  V30 5212 C 491.944 0.143624 3.48704 0
M  V30 5213 C 493.292 0.00494484 4.246 0
M  V30 5214 O 494.316 0.0718214 3.56128 0
M  V30 5215 O 493.175 -0.141175 5.46318 0
M  V30 5216 H 490.269 -0.0568819 0.825041 0
M  V30 5217 H 492.815 0.637583 1.57267 0
M  V30 5218 H 491.587 1.15699 3.73804 0
M  V30 5219 H 491.21 -0.5463 3.93829 0
M  V30 5220 N 492.207 -1.54576 0.307264 0
M  V30 5221 C 493.155 -2.25208 -0.581723 0
M  V30 5222 C 494.149 -1.26031 -1.13192 0
M  V30 5223 O 495.355 -1.43862 -1.08184 0
M  V30 5224 H 491.73 -0.723173 -0.206214 0
M  V30 5225 H 493.701 -2.98378 0.0364663 0
M  V30 5226 C 492.45 -3.01086 -1.73904 0
M  V30 5227 H 491.773 -3.77208 -1.32491 0
M  V30 5228 H 493.213 -3.5378 -2.33701 0
M  V30 5229 C 491.672 -2.08422 -2.64692 0
M  V30 5230 O 492.202 -1.65636 -3.65961 0
M  V30 5231 N 490.408 -1.74247 -2.32564 0
M  V30 5232 H 489.955 -2.09238 -1.50257 0
M  V30 5233 H 489.913 -1.12524 -2.93574 0
M  V30 5234 N 493.685 -0.035106 -1.57561 0
M  V30 5235 C 494.595 0.960295 -2.14046 0
M  V30 5236 C 495.611 1.3529 -1.0942 0
M  V30 5237 O 496.787 1.43309 -1.41508 0
M  V30 5238 C 493.852 2.22214 -2.66124 0
M  V30 5239 C 492.913 1.8894 -3.85487 0
M  V30 5240 C 492.146 3.09109 -4.35072 0
M  V30 5241 O 492.369 4.21963 -3.83802 0
M  V30 5242 O 491.303 2.91058 -5.26848 0
M  V30 5243 H 495.129 0.509983 -2.99387 0
M  V30 5244 H 492.714 0.185853 -1.48239 0
M  V30 5245 H 494.596 2.96279 -2.99661 0
M  V30 5246 H 493.271 2.66414 -1.83862 0
M  V30 5247 H 492.178 1.12241 -3.56865 0
M  V30 5248 H 493.511 1.49551 -4.6893 0
M  V30 5249 N 495.163 1.55791 0.238111 0
M  V30 5250 C 496.412 1.77234 0.962868 0
M  V30 5251 C 496.725 0.600661 1.86149 0
M  V30 5252 O 497.931 0.698315 2.62366 0
M  V30 5253 C 496.387 3.13808 1.76218 0
M  V30 5254 C 495.995 4.3865 0.910518 0
M  V30 5255 C 497.739 3.44585 2.47914 0
M  V30 5256 C 495.646 5.66252 1.70623 0
M  V30 5257 H 494.576 0.660731 0.36325 0
M  V30 5258 H 497.227 1.8221 0.217242 0
M  V30 5259 H 495.609 3.02963 2.55009 0
M  V30 5260 H 496.783 4.60507 0.164316 0
M  V30 5261 H 495.098 4.15271 0.30647 0
M  V30 5262 H 497.695 4.3714 3.07917 0
M  V30 5263 H 498.038 2.66314 3.19973 0
M  V30 5264 H 498.571 3.56685 1.76127 0
M  V30 5265 H 495.31 6.47369 1.02923 0
M  V30 5266 H 494.83 5.48483 2.42748 0
M  V30 5267 H 496.509 6.05829 2.27114 0
M  V30 5268 N 496.642 -0.504142 1.49319 0
M  V30 5269 C 497.867 -1.28729 1.62615 0
M  V30 5270 C 498.292 -1.85752 0.296309 0
M  V30 5271 O 497.65 -1.65704 -0.735649 0
M  V30 5272 C 497.698 -2.39561 2.69524 0
M  V30 5273 O 496.802 -3.43324 2.28478 0
M  V30 5274 H 496.143 -0.380172 0.544395 0
M  V30 5275 H 498.673 -0.603872 1.95485 0
M  V30 5276 H 498.683 -2.8537 2.91595 0
M  V30 5277 H 497.358 -1.97423 3.66056 0
M  V30 5278 H 495.935 -3.03455 2.16725 0
M  V30 5279 N 498.12 -1.38341 -0.754957 0
M  V30 5280 C 499.366 -1.34672 -1.51628 0
M  V30 5281 C 499.699 0.0636036 -1.94096 0
M  V30 5282 O 498.974 1.0245 -1.6533 0
M  V30 5283 C 499.257 -2.30116 -2.76981 0
M  V30 5284 C 499.11 -3.80003 -2.4066 0
M  V30 5285 C 500.429 -2.23715 -3.78998 0
M  V30 5286 H 497.548 -0.490517 -0.550056 0
M  V30 5287 H 500.19 -1.69178 -0.864807 0
M  V30 5288 H 498.34 -2.00821 -3.3257 0
M  V30 5289 H 500.012 -4.19966 -1.90856 0
M  V30 5290 H 498.255 -3.97751 -1.73137 0
M  V30 5291 H 498.926 -4.42244 -3.30339 0
M  V30 5292 H 501.402 -2.49574 -3.32945 0
M  V30 5293 H 500.278 -2.9261 -4.64403 0
M  V30 5294 H 500.539 -1.23554 -4.24484 0
M  V30 5295 N 499.598 0.982988 -1.23187 0
M  V30 5296 C 500.545 2.07491 -1.01075 0
M  V30 5297 C 501.515 1.65949 0.070905 0
M  V30 5298 O 502.7 1.90629 -0.0806822 0
M  V30 5299 C 499.84 3.39751 -0.605261 0
M  V30 5300 C 498.953 3.94578 -1.75876 0
M  V30 5301 C 498.088 5.15039 -1.3003 0
M  V30 5302 C 497.127 5.62027 -2.42472 0
M  V30 5303 N 496.264 6.73719 -1.97602 0
M  V30 5304 H 501.104 2.25739 -1.9454 0
M  V30 5305 H 498.641 1.10659 -0.969179 0
M  V30 5306 H 500.599 4.15719 -0.351279 0
M  V30 5307 H 499.229 3.21473 0.292382 0
M  V30 5308 H 498.281 3.1539 -2.12681 0
M  V30 5309 H 499.593 4.25422 -2.60418 0
M  V30 5310 H 498.747 5.9833 -1.00429 0
M  V30 5311 H 497.486 4.85843 -0.425216 0
M  V30 5312 H 496.491 4.77318 -2.7285 0
M  V30 5313 H 497.716 5.93244 -3.30512 0
M  V30 5314 H 495.662 6.46287 -1.1247 0
M  V30 5315 H 495.579 7.03934 -2.75705 0
M  V30 5316 H 496.847 7.6049 -1.71098 0
M  V30 5317 N 501.076 1.04316 1.18135 0
M  V30 5318 C 502.023 0.636398 2.21853 0
M  V30 5319 C 502.993 -0.357039 1.62217 0
M  V30 5320 O 504.178 -0.250453 1.89149 0
M  V30 5321 C 501.318 0.00812779 3.45099 0
M  V30 5322 C 500.431 1.04933 4.19062 0
M  V30 5323 C 499.566 0.389313 5.29771 0
M  V30 5324 C 498.605 1.41544 5.9551 0
M  V30 5325 N 497.742 0.78021 6.97751 0
M  V30 5326 H 502.582 1.52536 2.56002 0
M  V30 5327 H 500.119 0.76304 1.25762 0
M  V30 5328 H 502.077 -0.373497 4.15525 0
M  V30 5329 H 500.707 -0.844336 3.11562 0
M  V30 5330 H 499.759 1.54888 3.47439 0
M  V30 5331 H 501.071 1.82862 4.64072 0
M  V30 5332 H 500.225 -0.0463805 6.06682 0
M  V30 5333 H 498.964 -0.422038 4.8587 0
M  V30 5334 H 497.969 1.86124 5.17337 0
M  V30 5335 H 499.194 2.22854 6.41493 0
M  V30 5336 H 497.14 -0.0107899 6.55999 0
M  V30 5337 H 497.057 1.49716 7.41027 0
M  V30 5338 H 498.325 0.368996 7.78626 0
M  V30 5339 N 502.554 -1.34406 0.822964 0
M  V30 5340 C 503.484 -2.32052 0.259608 0
M  V30 5341 C 504.465 -1.58243 -0.623961 0
M  V30 5342 O 505.65 -1.86224 -0.55083 0
M  V30 5343 C 502.78 -3.42434 -0.579314 0
M  V30 5344 C 501.734 -4.27499 0.20712 0
M  V30 5345 C 501.06 -5.29349 -0.754547 0
M  V30 5346 C 502.36 -5.02758 1.41533 0
M  V30 5347 H 504.054 -2.79418 1.07545 0
M  V30 5348 H 501.6 -1.34338 0.518593 0
M  V30 5349 H 503.553 -4.0976 -0.983612 0
M  V30 5350 H 502.277 -2.93717 -1.4282 0
M  V30 5351 H 500.936 -3.61776 0.592787 0
M  V30 5352 H 500.584 -4.76895 -1.59939 0
M  V30 5353 H 500.284 -5.8714 -0.232561 0
M  V30 5354 H 501.808 -5.99544 -1.1567 0
M  V30 5355 H 503.222 -5.62938 1.08504 0
M  V30 5356 H 501.619 -5.70123 1.87296 0
M  V30 5357 H 502.689 -4.32451 2.1935 0
M  V30 5358 N 504.032 -0.577932 -1.46621 0
M  V30 5359 C 504.979 0.158048 -2.30258 0
M  V30 5360 C 505.949 0.888669 -1.40328 0
M  V30 5361 O 507.134 0.880283 -1.6928 0
M  V30 5362 C 504.274 1.16884 -3.24703 0
M  V30 5363 C 503.387 0.442163 -4.29731 0
M  V30 5364 C 502.522 1.44007 -5.11308 0
M  V30 5365 C 501.561 0.69952 -6.0809 0
M  V30 5366 N 500.698 1.64525 -6.82551 0
M  V30 5367 H 505.538 -0.561242 -2.92667 0
M  V30 5368 H 503.075 -0.288591 -1.44241 0
M  V30 5369 H 505.033 1.7677 -3.779 0
M  V30 5370 H 503.663 1.85591 -2.64113 0
M  V30 5371 H 502.715 -0.271632 -3.79429 0
M  V30 5372 H 504.027 -0.136992 -4.98612 0
M  V30 5373 H 503.181 2.11186 -5.68758 0
M  V30 5374 H 501.92 2.05315 -4.42377 0
M  V30 5375 H 500.925 0.0139217 -5.49798 0
M  V30 5376 H 502.15 0.091894 -6.79038 0
M  V30 5377 H 500.096 2.24653 -6.16334 0
M  V30 5378 H 500.013 1.11878 -7.47676 0
M  V30 5379 H 501.281 2.30754 -7.44562 0
M  V30 5380 N 505.51 1.54411 -0.315457 0
M  V30 5381 C 506.457 2.24048 0.554166 0
M  V30 5382 C 507.427 1.2283 1.11812 0
M  V30 5383 O 508.612 1.51491 1.15997 0
M  V30 5384 C 505.752 2.99574 1.71316 0
M  V30 5385 C 504.865 4.15594 1.17922 0
M  V30 5386 C 504 4.78669 2.30324 0
M  V30 5387 C 503.039 5.86807 1.74137 0
M  V30 5388 N 502.176 6.43777 2.8017 0
M  V30 5389 H 507.016 2.97964 -0.0462602 0
M  V30 5390 H 504.553 1.47059 -0.0346009 0
M  V30 5391 H 506.511 3.41604 2.39505 0
M  V30 5392 H 505.141 2.28008 2.285 0
M  V30 5393 H 504.193 3.78404 0.389136 0
M  V30 5394 H 505.505 4.93459 0.728012 0
M  V30 5395 H 504.659 5.23626 3.06433 0
M  V30 5396 H 503.398 4.00168 2.78778 0
M  V30 5397 H 502.403 5.41261 0.965236 0
M  V30 5398 H 503.628 6.67201 1.2657 0
M  V30 5399 H 501.574 5.68153 3.2793 0
M  V30 5400 H 501.491 7.17031 2.39588 0
M  V30 5401 H 502.759 6.9339 3.56132 0
M  V30 5402 N 506.988 0.0434614 1.5754 0
M  V30 5403 C 507.935 -0.93356 2.11077 0
M  V30 5404 C 508.905 -1.31383 1.01626 0
M  V30 5405 O 510.09 -1.40465 1.29129 0
M  V30 5406 C 507.23 -2.20578 2.65404 0
M  V30 5407 C 506.343 -1.88068 3.88914 0
M  V30 5408 C 505.478 -3.09691 4.31584 0
M  V30 5409 C 504.517 -2.73067 5.47815 0
M  V30 5410 N 503.654 -3.87359 5.85574 0
M  V30 5411 H 508.494 -0.470118 2.94268 0
M  V30 5412 H 506.031 -0.220434 1.45439 0
M  V30 5413 H 507.989 -2.95011 2.94999 0
M  V30 5414 H 506.619 -2.64513 1.85021 0
M  V30 5415 H 505.671 -1.03816 3.6596 0
M  V30 5416 H 506.983 -1.57104 4.73413 0
M  V30 5417 H 506.137 -3.92431 4.62691 0
M  V30 5418 H 504.876 -3.43827 3.45882 0
M  V30 5419 H 503.881 -1.88742 5.16388 0
M  V30 5420 H 505.106 -2.40131 6.35227 0
M  V30 5421 H 503.052 -4.21311 5.02825 0
M  V30 5422 H 502.969 -3.60068 6.64746 0
M  V30 5423 H 504.237 -4.70761 6.21292 0
M  V30 5424 N 508.466 -1.55915 -0.229846 0
M  V30 5425 C 509.712 -1.78807 -0.956868 0
M  V30 5426 C 510.045 -0.611687 -1.84315 0
M  V30 5427 O 509.32 0.389398 -1.90562 0
M  V30 5428 C 509.603 -3.11718 -1.80288 0
M  V30 5429 C 509.456 -4.3979 -0.943649 0
M  V30 5430 C 510.775 -3.40999 -2.78222 0
M  V30 5431 H 507.894 -0.6505 -0.346437 0
M  V30 5432 H 510.536 -1.88648 -0.226252 0
M  V30 5433 H 508.686 -3.03459 -2.42579 0
M  V30 5434 H 510.358 -4.60059 -0.338121 0
M  V30 5435 H 508.601 -4.33086 -0.248705 0
M  V30 5436 H 509.272 -5.29208 -1.5698 0
M  V30 5437 H 511.748 -3.49332 -2.26067 0
M  V30 5438 H 510.624 -4.35183 -3.34526 0
M  V30 5439 H 510.885 -2.62754 -3.55546 0
M  V30 5440 N 509.944 0.496216 -1.49584 0
M  V30 5441 C 511.193 1.24668 -1.58558 0
M  V30 5442 C 511.506 1.9359 -0.279703 0
M  V30 5443 O 512.712 2.70365 -0.248048 0
M  V30 5444 C 511.168 2.26388 -2.79779 0
M  V30 5445 C 510.776 1.63384 -4.17145 0
M  V30 5446 C 512.52 3.02233 -2.98086 0
M  V30 5447 C 510.427 2.63243 -5.29582 0
M  V30 5448 H 509.357 0.468995 -0.590389 0
M  V30 5449 H 512.008 0.519985 -1.75978 0
M  V30 5450 H 510.39 3.02241 -2.55863 0
M  V30 5451 H 511.564 0.93491 -4.51216 0
M  V30 5452 H 509.879 0.999121 -4.04236 0
M  V30 5453 H 512.476 3.76919 -3.79257 0
M  V30 5454 H 512.819 3.60132 -2.08831 0
M  V30 5455 H 513.352 2.33495 -3.22063 0
M  V30 5456 H 510.091 2.10119 -6.20911 0
M  V30 5457 H 509.611 3.31363 -4.99959 0
M  V30 5458 H 511.29 3.25575 -5.59115 0
M  V30 5459 N 511.423 1.38739 0.74761 0
M  V30 5460 C 512.386 1.36241 1.84312 0
M  V30 5461 C 513.386 0.261811 1.58654 0
M  V30 5462 O 514.576 0.519031 1.66288 0
M  V30 5463 C 511.708 1.12253 3.21888 0
M  V30 5464 H 512.901 2.33712 1.87933 0
M  V30 5465 H 510.454 1.2412 0.949946 0
M  V30 5466 H 511.189 0.154133 3.23934 0
M  V30 5467 H 510.974 1.91943 3.41907 0
M  V30 5468 H 512.464 1.13215 4.0196 0
M  V30 5469 N 512.901 -0.976442 1.23707 0
M  V30 5470 C 513.833 -2.07212 0.979574 0
M  V30 5471 C 514.846 -1.6273 -0.0478528 0
M  V30 5472 O 516.035 -1.77506 0.18815 0
M  V30 5473 C 513.135 -3.35835 0.45479 0
M  V30 5474 C 512.308 -4.09268 1.54331 0
M  V30 5475 C 511.367 -5.16166 1.02271 0
M  V30 5476 O 510.393 -5.42827 1.71254 0
M  V30 5477 N 511.595 -5.80313 -0.147419 0
M  V30 5478 H 514.36 -2.29878 1.92292 0
M  V30 5479 H 511.921 -1.14343 1.14618 0
M  V30 5480 H 513.913 -4.04597 0.0914631 0
M  V30 5481 H 512.483 -3.10106 -0.394068 0
M  V30 5482 H 511.703 -3.34906 2.07923 0
M  V30 5483 H 512.991 -4.55095 2.27522 0
M  V30 5484 H 512.389 -5.61043 -0.724353 0
M  V30 5485 H 510.946 -6.50231 -0.451972 0
M  V30 5486 N 514.379 -1.04941 -1.1758 0
M  V30 5487 C 515.609 -0.777166 -1.91425 0
M  V30 5488 C 516.017 0.670647 -1.76915 0
M  V30 5489 O 515.36 1.46965 -1.10213 0
M  V30 5490 C 515.422 -1.07495 -3.43052 0
M  V30 5491 C 515.086 -2.51844 -3.81345 0
M  V30 5492 C 516.083 -3.50047 -3.844 0
M  V30 5493 C 513.768 -2.86787 -4.12382 0
M  V30 5494 C 515.762 -4.81239 -4.17957 0
M  V30 5495 C 513.449 -4.18182 -4.45608 0
M  V30 5496 C 514.447 -5.15219 -4.48373 0
M  V30 5497 O 514.135 -6.44258 -4.80819 0
M  V30 5498 H 513.867 -0.282209 -0.614275 0
M  V30 5499 H 516.421 -1.40258 -1.50056 0
M  V30 5500 H 514.651 -0.392437 -3.84704 0
M  V30 5501 H 516.34 -0.78912 -3.98155 0
M  V30 5502 H 517.106 -3.24391 -3.60548 0
M  V30 5503 H 512.985 -2.11922 -4.09402 0
M  V30 5504 H 516.529 -5.56974 -4.2003 0
M  V30 5505 H 512.426 -4.43602 -4.68922 0
M  V30 5506 H 513.194 -6.49041 -4.98686 0
M  V30 5507 N 515.857 1.33968 -0.830081 0
M  V30 5508 C 516.807 2.26845 -0.229242 0
M  V30 5509 C 517.791 1.48862 0.610659 0
M  V30 5510 O 518.983 1.70808 0.464067 0
M  V30 5511 C 516.112 3.3798 0.602057 0
M  V30 5512 C 515.198 4.23369 -0.248866 0
M  V30 5513 N 515.589 4.88182 -1.32334 0
M  V30 5514 C 513.887 4.45987 -0.0344077 0
M  V30 5515 C 514.588 5.51671 -1.84482 0
M  V30 5516 N 513.564 5.31348 -1.14762 0
M  V30 5517 H 517.366 2.74464 -1.05104 0
M  V30 5518 H 514.88 1.4777 -0.673623 0
M  V30 5519 H 516.877 4.03494 1.04873 0
M  V30 5520 H 515.537 2.9191 1.42193 0
M  V30 5521 H 516.548 4.88988 -1.70619 0
M  V30 5522 H 513.225 4.10658 0.752727 0
M  V30 5523 H 514.615 6.13308 -2.74413 0
M  V30 5524 N 517.335 0.585699 1.46312 0
M  V30 5525 C 518.298 -0.135673 2.28798 0
M  V30 5526 C 519.298 -0.815988 1.38558 0
M  V30 5527 O 520.488 -0.667487 1.60904 0
M  V30 5528 C 517.62 -1.20163 3.1902 0
M  V30 5529 H 518.813 0.589257 2.94054 0
M  V30 5530 H 516.366 0.343794 1.52472 0
M  V30 5531 H 517.101 -1.95804 2.58517 0
M  V30 5532 H 516.886 -0.718282 3.85465 0
M  V30 5533 H 518.376 -1.70749 3.81096 0
M  V30 5534 N 518.813 -1.54241 0.323641 0
M  V30 5535 C 520.059 -2.00867 -0.279323 0
M  V30 5536 C 520.392 -1.21146 -1.5178 0
M  V30 5537 O 519.667 -0.29378 -1.92269 0
M  V30 5538 C 519.95 -3.54837 -0.613387 0
M  V30 5539 C 519.803 -4.45284 0.635803 0
M  V30 5540 C 521.122 -4.16186 -1.43099 0
M  V30 5541 H 518.241 -0.730177 -0.100049 0
M  V30 5542 H 520.883 -1.84829 0.440235 0
M  V30 5543 H 519.033 -3.68634 -1.22641 0
M  V30 5544 H 520.705 -4.43357 1.27406 0
M  V30 5545 H 518.948 -4.14956 1.26466 0
M  V30 5546 H 519.619 -5.5084 0.357597 0
M  V30 5547 H 522.095 -4.05964 -0.912814 0
M  V30 5548 H 520.971 -5.24031 -1.6335 0
M  V30 5549 H 521.232 -3.69516 -2.42715 0
M  V30 5550 N 520.291 -0.0518155 -1.57515 0
M  V30 5551 C 521.224 0.957758 -2.07129 0
M  V30 5552 C 522.202 1.30355 -0.971927 0
M  V30 5553 O 523.386 1.41631 -1.2439 0
M  V30 5554 C 520.513 2.27157 -2.51232 0
M  V30 5555 C 519.559 2.07879 -3.72409 0
M  V30 5556 S 520.392 1.35656 -5.18033 0
M  V30 5557 C 521.548 2.68359 -5.65451 0
M  V30 5558 H 521.781 0.53552 -2.92437 0
M  V30 5559 H 519.314 0.160465 -1.53564 0
M  V30 5560 H 521.272 3.02676 -2.77304 0
M  V30 5561 H 519.933 2.66509 -1.66228 0
M  V30 5562 H 519.126 3.05061 -4.01191 0
M  V30 5563 H 518.728 1.40499 -3.46606 0
M  V30 5564 H 521.02 3.64526 -5.71076 0
M  V30 5565 H 521.963 2.44213 -6.64654 0
M  V30 5566 H 522.371 2.74647 -4.93183 0
M  V30 5567 N 521.769 1.56035 0.221574 0
M  V30 5568 C 522.717 1.93269 1.29421 0
M  V30 5569 C 523.711 0.814727 1.48521 0
M  V30 5570 O 524.917 0.999559 1.49696 0
M  V30 5571 H 521.292 0.614188 0.43391 0
M  V30 5572 H 523.263 2.82773 0.952987 0
M  V30 5573 C 522.012 2.26573 2.63742 0
M  V30 5574 H 521.335 3.12112 2.49853 0
M  V30 5575 H 522.775 2.5651 3.37607 0
M  V30 5576 C 521.234 1.09086 3.1875 0
M  V30 5577 O 521.764 0.351985 4.00155 0
M  V30 5578 N 519.97 0.874693 2.77124 0
M  V30 5579 H 519.517 1.47726 2.11033 0
M  V30 5580 H 519.475 0.0903349 3.1427 0
M  V30 5581 N 523.247 -0.488276 1.49845 0
M  V30 5582 C 524.524 -1.24959 1.50481 0
M  V30 5583 C 524.904 -2.09735 0.239698 0
M  V30 5584 O 524.252 -2.14865 -0.777524 0
M  V30 5585 C 524.462 -2.0954 2.79095 0
M  V30 5586 C 525.81 -2.68305 3.29086 0
M  V30 5587 O 526.834 -2.19797 2.80299 0
M  V30 5588 O 525.693 -3.56643 4.14087 0
M  V30 5589 H 522.787 -0.566133 0.602845 0
M  V30 5590 H 525.333 -0.501504 1.6212 0
M  V30 5591 H 524.105 -1.46958 3.62656 0
M  V30 5592 H 523.728 -2.91517 2.70377 0
M  V30 5593 N 524.725 -1.39134 -0.740242 0
M  V30 5594 C 525.675 -1.33928 -1.84519 0
M  V30 5595 C 526.659 -0.221097 -1.59374 0
M  V30 5596 O 527.851 -0.458195 -1.70967 0
M  V30 5597 C 524.98 -1.17991 -3.22387 0
M  V30 5598 C 524.066 -2.34488 -3.53378 0
M  V30 5599 N 524.457 -3.59954 -3.5534 0
M  V30 5600 C 522.755 -2.27331 -3.83714 0
M  V30 5601 C 523.456 -4.36962 -3.83978 0
M  V30 5602 N 522.432 -3.66482 -4.01487 0
M  V30 5603 H 526.234 -2.28907 -1.84333 0
M  V30 5604 H 523.748 -1.32555 -0.938237 0
M  V30 5605 H 525.745 -1.12345 -4.01478 0
M  V30 5606 H 524.405 -0.23957 -3.23815 0
M  V30 5607 H 525.416 -3.93448 -3.36778 0
M  V30 5608 H 522.093 -1.41531 -3.92779 0
M  V30 5609 H 523.483 -5.45692 -3.92008 0
M  V30 5610 N 526.204 0.969867 -1.24223 0
M  V30 5611 C 527.154 2.04913 -0.999732 0
M  V30 5612 C 528.138 1.60795 0.0580636 0
M  V30 5613 O 529.33 1.76317 -0.155392 0
M  V30 5614 C 526.459 3.37942 -0.604154 0
M  V30 5615 C 525.545 3.88628 -1.69791 0
M  V30 5616 N 525.936 4.12274 -2.93025 0
M  V30 5617 C 524.234 4.17268 -1.57492 0
M  V30 5618 C 524.935 4.53808 -3.63914 0
M  V30 5619 N 523.911 4.58855 -2.91468 0
M  V30 5620 H 527.713 2.21168 -1.93551 0
M  V30 5621 H 525.227 1.15349 -1.14317 0
M  V30 5622 H 527.224 4.14863 -0.411665 0
M  V30 5623 H 525.884 3.23075 0.324465 0
M  V30 5624 H 526.895 3.99789 -3.29225 0
M  V30 5625 H 523.572 4.11346 -0.714175 0
M  V30 5626 H 524.962 4.80534 -4.69614 0
M  V30 5627 N 527.682 1.05563 1.17022 0
M  V30 5628 C 528.91 0.78845 1.91288 0
M  V30 5629 C 529.325 -0.656318 1.77025 0
M  V30 5630 O 528.682 -1.44869 1.10992 0
M  V30 5631 C 528.733 1.16444 3.42232 0
M  V30 5632 O 528.454 2.5525 3.5606 0
M  V30 5633 C 529.955 0.923937 4.33565 0
M  V30 5634 H 527.175 0.286389 0.606813 0
M  V30 5635 H 529.719 1.4073 1.48375 0
M  V30 5636 H 527.874 0.590266 3.82877 0
M  V30 5637 H 528.288 2.70097 4.49609 0
M  V30 5638 H 529.762 1.23672 5.37968 0
M  V30 5639 H 530.239 -0.140688 4.38975 0
M  V30 5640 H 530.845 1.48214 3.98639 0
M  V30 5641 N 529.16 -1.33526 0.837174 0
M  V30 5642 C 530.385 -2.0258 0.444545 0
M  V30 5643 C 530.81 -1.6258 -0.946006 0
M  V30 5644 O 530.168 -0.817548 -1.6182 0
M  V30 5645 C 530.216 -3.5605 0.571006 0
M  V30 5646 O 529.32 -4.10422 -0.403431 0
M  V30 5647 H 528.661 -0.638866 0.180958 0
M  V30 5648 H 531.191 -1.70462 1.13154 0
M  V30 5649 H 531.201 -4.05488 0.452024 0
M  V30 5650 H 529.876 -3.84509 1.58512 0
M  V30 5651 H 528.453 -3.72113 -0.242147 0
M  V30 5652 N 530.638 -0.59345 -1.46 0
M  V30 5653 C 531.548 0.135817 -2.34207 0
M  V30 5654 C 532.564 0.875008 -1.50398 0
M  V30 5655 O 533.74 0.835778 -1.83239 0
M  V30 5656 C 530.805 1.12977 -3.27776 0
M  V30 5657 C 529.866 0.394081 -4.27487 0
M  V30 5658 C 529.099 1.34068 -5.16586 0
M  V30 5659 O 529.322 2.5778 -5.08828 0
M  V30 5660 O 528.256 0.845426 -5.95933 0
M  V30 5661 H 532.082 -0.588691 -2.9794 0
M  V30 5662 H 529.667 -0.353784 -1.45151 0
M  V30 5663 H 531.549 1.70261 -3.85473 0
M  V30 5664 H 530.224 1.83556 -2.66625 0
M  V30 5665 H 529.131 -0.220869 -3.73447 0
M  V30 5666 H 530.464 -0.270939 -4.91454 0
M  V30 5667 N 532.116 1.54067 -0.331816 0
M  V30 5668 C 533.026 2.28322 0.539104 0
M  V30 5669 C 534.042 1.32985 1.1221 0
M  V30 5670 O 535.218 1.6601 1.1403 0
M  V30 5671 C 532.283 3.03277 1.68 0
M  V30 5672 C 531.344 4.14216 1.12798 0
M  V30 5673 C 530.577 4.85588 2.2145 0
M  V30 5674 O 530.8 4.56536 3.41952 0
M  V30 5675 O 529.734 5.72309 1.86404 0
M  V30 5676 H 533.56 3.03632 -0.0641692 0
M  V30 5677 H 531.145 1.49083 -0.0972365 0
M  V30 5678 H 533.027 3.50189 2.34405 0
M  V30 5679 H 531.702 2.30834 2.2693 0
M  V30 5680 H 530.609 3.71635 0.428782 0
M  V30 5681 H 531.942 4.88727 0.583698 0
M  V30 5682 N 533.594 0.0601682 1.57485 0
M  V30 5683 C 534.504 -0.926121 2.15546 0
M  V30 5684 C 535.52 -1.33532 1.11558 0
M  V30 5685 O 536.696 -1.4104 1.4377 0
M  V30 5686 C 533.761 -2.17952 2.69625 0
M  V30 5687 C 532.822 -1.82783 3.88444 0
M  V30 5688 C 532.055 -3.02148 4.39935 0
M  V30 5689 O 532.278 -4.15803 3.90466 0
M  V30 5690 O 531.212 -2.82639 5.31412 0
M  V30 5691 H 535.038 -0.462289 3.00161 0
M  V30 5692 H 532.623 -0.162246 1.48516 0
M  V30 5693 H 534.505 -2.91474 3.04337 0
M  V30 5694 H 533.18 -2.63456 1.88077 0
M  V30 5695 H 532.087 -1.06549 3.58606 0
M  V30 5696 H 533.42 -1.42072 4.7125 0
M  V30 5697 N 535.072 -1.5615 -0.213296 0
M  V30 5698 C 536.002 -1.96109 -1.26742 0
M  V30 5699 C 536.983 -0.830448 -1.48451 0
M  V30 5700 O 538.168 -1.09339 -1.60495 0
M  V30 5701 C 535.298 -2.28492 -2.61551 0
M  V30 5702 C 534.252 -3.44124 -2.54485 0
M  V30 5703 C 533.578 -3.62134 -3.93399 0
M  V30 5704 C 534.878 -4.78855 -2.08556 0
M  V30 5705 H 536.572 -2.84412 -0.935434 0
M  V30 5706 H 534.118 -1.36836 -0.44854 0
M  V30 5707 H 536.071 -2.55039 -3.3546 0
M  V30 5708 H 534.795 -1.37052 -2.96453 0
M  V30 5709 H 533.454 -3.17639 -1.83033 0
M  V30 5710 H 533.102 -2.68055 -4.25623 0
M  V30 5711 H 532.802 -4.39913 -3.89551 0
M  V30 5712 H 534.326 -3.91038 -4.68958 0
M  V30 5713 H 535.74 -5.04552 -2.72213 0
M  V30 5714 H 534.137 -5.59975 -2.1575 0
M  V30 5715 H 535.207 -4.73657 -1.03811 0
M  V30 5716 N 536.55 0.480323 -1.50102 0
M  V30 5717 C 537.48 1.58769 -1.71215 0
M  V30 5718 C 538.461 1.60583 -0.560997 0
M  V30 5719 O 539.646 1.76996 -0.799127 0
M  V30 5720 C 536.776 2.97148 -1.79778 0
M  V30 5721 C 535.73 3.10201 -2.94888 0
M  V30 5722 C 535.056 4.50137 -2.88584 0
M  V30 5723 C 536.356 2.88283 -4.35534 0
M  V30 5724 H 538.05 1.41354 -2.6393 0
M  V30 5725 H 535.596 0.678591 -1.27008 0
M  V30 5726 H 537.549 3.74536 -1.93133 0
M  V30 5727 H 536.273 3.15699 -0.836772 0
M  V30 5728 H 534.932 2.35244 -2.81169 0
M  V30 5729 H 534.58 4.65593 -1.90349 0
M  V30 5730 H 534.28 4.59808 -3.65856 0
M  V30 5731 H 535.804 5.29558 -3.03976 0
M  V30 5732 H 537.218 3.55427 -4.49827 0
M  V30 5733 H 535.615 3.09408 -5.14186 0
M  V30 5734 H 536.685 1.84219 -4.48544 0
M  V30 5735 N 538.028 1.39524 0.732853 0
M  V30 5736 C 538.991 1.38189 1.82857 0
M  V30 5737 C 539.991 0.278624 1.58368 0
M  V30 5738 O 541.181 0.536639 1.65728 0
M  V30 5739 C 538.313 1.15661 3.2068 0
M  V30 5740 H 539.506 2.35692 1.85444 0
M  V30 5741 H 537.059 1.2512 0.936728 0
M  V30 5742 H 537.794 0.188482 3.23752 0
M  V30 5743 H 537.579 1.95559 3.39852 0
M  V30 5744 H 539.069 1.17472 4.00737 0
M  V30 5745 N 539.506 -0.963266 1.24736 0
M  V30 5746 C 540.755 -1.70115 1.08369 0
M  V30 5747 C 541.068 -1.91939 -0.376688 0
M  V30 5748 O 542.274 -2.6334 -0.660624 0
M  V30 5749 C 540.73 -3.06218 1.89099 0
M  V30 5750 C 540.338 -2.92221 3.39574 0
M  V30 5751 C 542.082 -3.83848 1.81275 0
M  V30 5752 C 539.989 -4.23662 4.12631 0
M  V30 5753 H 538.919 -0.637944 0.401924 0
M  V30 5754 H 541.57 -1.07304 1.48856 0
M  V30 5755 H 539.952 -3.69884 1.41429 0
M  V30 5756 H 541.126 -2.37541 3.94856 0
M  V30 5757 H 539.441 -2.28054 3.48397 0
M  V30 5758 H 542.038 -4.81188 2.33158 0
M  V30 5759 H 542.381 -4.08949 0.778895 0
M  V30 5760 H 542.914 -3.26918 2.26649 0
M  V30 5761 H 539.653 -4.03753 5.16395 0
M  V30 5762 H 539.173 -4.78141 3.62135 0
M  V30 5763 H 540.852 -4.92256 4.19873 0
M  V30 5764 N 540.985 -1.06182 -1.16461 0
M  V30 5765 C 542.232 -0.777863 -1.86964 0
M  V30 5766 C 542.56 0.695602 -1.81636 0
M  V30 5767 O 541.815 1.52532 -1.22607 0
M  V30 5768 C 542.114 -1.21633 -3.36066 0
M  V30 5769 C 541.78 -2.69371 -3.61594 0
M  V30 5770 C 540.442 -3.09727 -3.6827 0
M  V30 5771 C 542.794 -3.64791 -3.7226 0
M  V30 5772 C 540.122 -4.44345 -3.83112 0
M  V30 5773 C 542.474 -4.99155 -3.88623 0
M  V30 5774 C 541.138 -5.39149 -3.93541 0
M  V30 5775 H 540.408 -0.28464 -0.68415 0
M  V30 5776 H 543.055 -1.33071 -1.37711 0
M  V30 5777 H 541.36 -0.582651 -3.87443 0
M  V30 5778 H 543.057 -0.973682 -3.88999 0
M  V30 5779 H 539.647 -2.37124 -3.57029 0
M  V30 5780 H 543.831 -3.34746 -3.66413 0
M  V30 5781 H 539.087 -4.74819 -3.85172 0
M  V30 5782 H 543.261 -5.72976 -3.95817 0
M  V30 5783 H 540.888 -6.43464 -4.04794 0
M  V30 5784 N 542.463 1.3308 -0.844243 0
M  V30 5785 C 543.411 2.31028 -0.269954 0
M  V30 5786 C 544.405 1.58381 0.600997 0
M  V30 5787 O 545.611 1.73203 0.48996 0
M  V30 5788 H 541.986 0.748866 -0.0685782 0
M  V30 5789 H 543.957 2.76967 -1.11049 0
M  V30 5790 C 542.706 3.43549 0.535676 0
M  V30 5791 H 542.029 3.99604 -0.125202 0
M  V30 5792 H 543.469 4.14267 0.903262 0
M  V30 5793 C 541.928 2.8988 1.71672 0
M  V30 5794 O 542.458 2.86511 2.81557 0
M  V30 5795 N 540.664 2.46416 1.54037 0
M  V30 5796 H 540.211 2.49356 0.64649 0
M  V30 5797 H 540.169 2.1086 2.33207 0
M  V30 5798 N 543.941 0.601185 1.45683 0
M  V30 5799 C 545.357 0.264315 1.57396 0
M  V30 5800 C 545.557 -1.23324 1.59353 0
M  V30 5801 O 544.613 -2.01594 1.52039 0
M  V30 5802 C 545.926 0.929839 2.85962 0
M  V30 5803 C 547.474 0.905156 2.99626 0
M  V30 5804 C 547.949 1.55057 4.30954 0
M  V30 5805 N 549.44 1.51576 4.37697 0
M  V30 5806 C 550.175 1.98436 5.37969 0
M  V30 5807 N 549.671 2.53352 6.44813 0
M  V30 5808 N 551.464 1.89242 5.29286 0
M  V30 5809 H 543.615 1.57363 1.42656 0
M  V30 5810 H 545.878 0.658831 0.681649 0
M  V30 5811 H 545.584 1.98404 2.90394 0
M  V30 5812 H 545.458 0.449224 3.74515 0
M  V30 5813 H 547.845 -0.14048 2.94765 0
M  V30 5814 H 547.926 1.42397 2.12501 0
M  V30 5815 H 547.57 2.5955 4.36573 0
M  V30 5816 H 547.5 1.00682 5.16886 0
M  V30 5817 H 549.991 1.11452 3.61091 0
M  V30 5818 H 550.304 2.86918 7.17564 0
M  V30 5819 H 548.649 2.57388 6.45582 0
M  V30 5820 H 551.84 1.46083 4.44722 0
M  V30 5821 H 552.013 2.26075 6.07284 0
M  V30 5822 N 545.419 -1.53889 0.339982 0
M  V30 5823 C 546.366 -2.24902 -0.518452 0
M  V30 5824 C 547.336 -1.24593 -1.09844 0
M  V30 5825 O 548.521 -1.53317 -1.13572 0
M  V30 5826 C 545.661 -3.02262 -1.66529 0
M  V30 5827 C 544.774 -4.17418 -1.11295 0
M  V30 5828 C 543.909 -4.82273 -2.2268 0
M  V30 5829 C 542.948 -5.89503 -1.6478 0
M  V30 5830 N 542.085 -6.48153 -2.69893 0
M  V30 5831 H 546.925 -2.97853 0.0936579 0
M  V30 5832 H 544.462 -1.46986 0.0579924 0
M  V30 5833 H 546.42 -3.45371 -2.3404 0
M  V30 5834 H 545.05 -2.31614 -2.24844 0
M  V30 5835 H 544.102 -3.78976 -0.328886 0
M  V30 5836 H 545.414 -4.94554 -0.649414 0
M  V30 5837 H 544.568 -5.28435 -2.98063 0
M  V30 5838 H 543.307 -4.04552 -2.72376 0
M  V30 5839 H 542.312 -5.42728 -0.879004 0
M  V30 5840 H 543.537 -6.6913 -1.1594 0
M  V30 5841 H 541.483 -5.73298 -3.1885 0
M  V30 5842 H 541.4 -7.20752 -2.28151 0
M  V30 5843 H 542.668 -6.98968 -3.45056 0
M  V30 5844 N 546.897 -0.0685191 -1.57451 0
M  V30 5845 C 548.146 0.600898 -1.92541 0
M  V30 5846 C 548.459 1.70967 -0.950239 0
M  V30 5847 O 549.665 2.43844 -1.19384 0
M  V30 5848 C 548.121 1.12019 -3.42023 0
M  V30 5849 C 547.729 0.0426028 -4.4798 0
M  V30 5850 C 549.473 1.76386 -3.86119 0
M  V30 5851 C 547.38 0.575759 -5.88591 0
M  V30 5852 H 546.31 0.228225 -0.71863 0
M  V30 5853 H 548.961 -0.140223 -1.82963 0
M  V30 5854 H 547.343 1.91418 -3.46663 0
M  V30 5855 H 548.517 -0.73182 -4.54952 0
M  V30 5856 H 546.832 -0.504642 -4.13331 0
M  V30 5857 H 549.429 2.17302 -4.88553 0
M  V30 5858 H 549.772 2.62255 -3.23308 0
M  V30 5859 H 550.305 1.03615 -3.84069 0
M  V30 5860 H 547.044 -0.245691 -6.55039 0
M  V30 5861 H 546.564 1.31778 -5.85145 0
M  V30 5862 H 548.243 1.0532 -6.3837 0
M  V30 5863 N 548.375 1.56261 0.205012 0
M  V30 5864 C 549.6 1.84491 0.947512 0
M  V30 5865 C 550.025 0.650894 1.76479 0
M  V30 5866 O 549.383 -0.40035 1.76824 0
M  V30 5867 C 549.431 3.10863 1.82747 0
M  V30 5868 O 548.535 2.90719 2.925 0
M  V30 5869 H 547.876 0.607783 0.267386 0
M  V30 5870 H 550.406 2.03485 0.213323 0
M  V30 5871 H 550.416 3.41399 2.23407 0
M  V30 5872 H 549.091 3.97392 1.2269 0
M  V30 5873 H 547.668 2.71457 2.55667 0
M  V30 5874 N 549.853 -0.472356 1.50355 0
M  V30 5875 C 551.269 -0.806001 1.37753 0
M  V30 5876 C 551.469 -1.968 0.432649 0
M  V30 5877 O 550.525 -2.52189 -0.12519 0
M  V30 5878 C 551.838 -1.11926 2.79093 0
M  V30 5879 C 553.386 -1.22579 2.87999 0
M  V30 5880 C 553.861 -1.57218 4.3017 0
M  V30 5881 N 555.352 -1.64212 4.33115 0
M  V30 5882 C 556.087 -1.92517 5.40116 0
M  V30 5883 N 555.583 -2.1885 6.57325 0
M  V30 5884 N 557.376 -1.94008 5.27558 0
M  V30 5885 H 549.527 0.293451 2.10363 0
M  V30 5886 H 551.79 0.0687672 0.945503 0
M  V30 5887 H 551.496 -0.338504 3.50067 0
M  V30 5888 H 551.37 -2.05577 3.16256 0
M  V30 5889 H 553.757 -1.99722 2.17245 0
M  V30 5890 H 553.838 -0.269107 2.54381 0
M  V30 5891 H 553.482 -0.806154 5.01461 0
M  V30 5892 H 553.412 -2.54034 4.61275 0
M  V30 5893 H 555.903 -1.45906 3.48597 0
M  V30 5894 H 556.216 -2.39718 7.3468 0
M  V30 5895 H 554.561 -2.16245 6.60502 0
M  V30 5896 H 557.752 -1.72931 4.34986 0
M  V30 5897 H 557.925 -2.15731 6.11035 0
M  V30 5898 N 551.331 -1.39911 -0.725443 0
M  V30 5899 C 552.279 -1.39552 -1.86086 0
M  V30 5900 C 553.273 -0.277334 -1.67114 0
M  V30 5901 O 554.479 -0.447865 -1.74339 0
M  V30 5902 H 550.854 -0.435993 -0.612711 0
M  V30 5903 H 552.825 -2.35305 -1.83505 0
M  V30 5904 C 551.574 -1.26529 -3.2386 0
M  V30 5905 H 550.897 -2.11845 -3.3906 0
M  V30 5906 H 552.337 -1.30336 -4.03471 0
M  V30 5907 C 550.796 0.0254168 -3.3689 0
M  V30 5908 O 551.326 0.992048 -3.89257 0
M  V30 5909 N 549.532 0.0916528 -2.90455 0
M  V30 5910 H 549.079 -0.695675 -2.48028 0
M  V30 5911 H 549.037 0.954745 -2.99553 0
M  V30 5912 N 552.809 0.956637 -1.25245 0
M  V30 5913 C 554.22 1.51569 -1.09012 0
M  V30 5914 C 554.571 1.93322 0.334813 0
M  V30 5915 O 553.696 1.78421 1.22454 0
M  V30 5916 C 554.291 2.75444 -1.97271 0
M  V30 5917 C 552.85 3.27669 -1.8523 0
M  V30 5918 C 551.997 2.00517 -1.91542 0
M  V30 5919 H 554.948 0.773746 -1.3856 0
M  V30 5920 H 554.969 3.4919 -1.51151 0
M  V30 5921 H 554.481 2.45024 -3.00973 0
M  V30 5922 H 552.582 3.62914 -0.844045 0
M  V30 5923 H 552.695 3.9582 -2.69932 0
M  V30 5924 H 551.059 2.15727 -1.35404 0
M  V30 5925 H 551.842 1.72448 -2.96844 0
M  V30 5926 N 554.287 1.06798 1.15896 0
M  V30 5927 C 555.515 0.808694 1.90441 0
M  V30 5928 C 555.93 -0.637506 1.77711 0
M  V30 5929 O 555.287 -1.43684 1.12522 0
M  V30 5930 C 555.338 1.20068 3.40978 0
M  V30 5931 O 555.059 2.59013 3.53333 0
M  V30 5932 C 556.56 0.96987 4.3256 0
M  V30 5933 H 553.78 0.292809 0.603742 0
M  V30 5934 H 556.324 1.42296 1.46874 0
M  V30 5935 H 554.479 0.630842 3.82229 0
M  V30 5936 H 554.893 2.7485 4.46719 0
M  V30 5937 H 556.367 1.29371 5.36626 0
M  V30 5938 H 556.844 -0.0941209 4.39099 0
M  V30 5939 H 557.45 1.52433 3.97044 0
M  V30 5940 N 555.766 -1.3263 0.851289 0
M  V30 5941 C 557.013 -1.97368 0.453023 0
M  V30 5942 C 557.341 -1.67384 -0.990596 0
M  V30 5943 O 556.596 -0.952665 -1.70947 0
M  V30 5944 C 556.895 -3.51713 0.635015 0
M  V30 5945 C 556.561 -4.01676 2.04859 0
M  V30 5946 C 555.223 -4.15031 2.43522 0
M  V30 5947 C 557.575 -4.28206 2.97135 0
M  V30 5948 C 554.903 -4.52257 3.73739 0
M  V30 5949 C 557.255 -4.66889 4.26846 0
M  V30 5950 C 555.919 -4.7845 4.65448 0
M  V30 5951 H 555.189 -0.722219 0.165773 0
M  V30 5952 H 557.836 -1.58092 1.0807 0
M  V30 5953 H 556.141 -3.91726 -0.0759081 0
M  V30 5954 H 557.838 -3.99823 0.306964 0
M  V30 5955 H 554.428 -3.91764 1.73836 0
M  V30 5956 H 558.612 -4.174 2.68498 0
M  V30 5957 H 553.868 -4.59402 4.03435 0
M  V30 5958 H 558.042 -4.86372 4.98413 0
M  V30 5959 H 555.669 -5.07052 5.66395 0
M  V30 5960 N 557.244 -0.608902 -1.45362 0
M  V30 5961 C 558.191 0.109172 -2.30542 0
M  V30 5962 C 559.161 0.858704 -1.42181 0
M  V30 5963 O 560.346 0.844178 -1.71109 0
M  V30 5964 C 557.486 1.09971 -3.27109 0
M  V30 5965 C 556.599 0.350911 -4.30572 0
M  V30 5966 C 555.734 1.33129 -5.14247 0
M  V30 5967 C 554.773 0.570377 -6.09437 0
M  V30 5968 N 553.91 1.5001 -6.85887 0
M  V30 5969 H 558.75 -0.623195 -2.91411 0
M  V30 5970 H 556.287 -0.319122 -1.43597 0
M  V30 5971 H 558.245 1.68714 -3.81564 0
M  V30 5972 H 556.875 1.79947 -2.67991 0
M  V30 5973 H 555.927 -0.352054 -3.78767 0
M  V30 5974 H 557.239 -0.242725 -4.98209 0
M  V30 5975 H 556.393 1.99074 -5.73109 0
M  V30 5976 H 555.132 1.95885 -4.46632 0
M  V30 5977 H 554.137 -0.102702 -5.49704 0
M  V30 5978 H 555.362 -0.0521607 -6.7908 0
M  V30 5979 H 553.308 2.11529 -6.2096 0
M  V30 5980 H 553.225 0.959934 -7.49881 0
M  V30 5981 H 554.493 2.14909 -7.49289 0
M  V30 5982 N 558.722 1.53707 -0.348139 0
M  V30 5983 C 559.968 2.01286 0.247332 0
M  V30 5984 C 560.301 1.23546 1.49834 0
M  V30 5985 O 559.576 0.324331 1.91777 0
M  V30 5986 C 559.859 3.55768 0.556858 0
M  V30 5987 C 559.712 4.44216 -0.706564 0
M  V30 5988 C 561.031 4.1841 1.3646 0
M  V30 5989 H 558.15 0.731677 0.0884201 0
M  V30 5990 H 560.792 1.84106 -0.469584 0
M  V30 5991 H 558.942 3.70539 1.16761 0
M  V30 5992 H 560.614 4.41274 -1.34444 0
M  V30 5993 H 558.857 4.12892 -1.33052 0
M  V30 5994 H 559.528 5.50202 -0.445186 0
M  V30 5995 H 562.004 4.07365 0.848113 0
M  V30 5996 H 560.88 5.26563 1.54992 0
M  V30 5997 H 561.141 3.7333 2.36805 0
M  V30 5998 N 560.2 0.0768682 1.57412 0
M  V30 5999 C 561.13 -0.886026 2.16037 0
M  V30 6000 C 562.111 -1.30691 1.08876 0
M  V30 6001 O 563.296 -1.37705 1.36934 0
M  V30 6002 C 560.426 -2.1518 2.72608 0
M  V30 6003 C 559.38 -1.87015 3.8498 0
M  V30 6004 C 558.706 -3.20266 4.28175 0
M  V30 6005 C 560.006 -1.17143 5.08994 0
M  V30 6006 H 561.7 -0.397642 2.96748 0
M  V30 6007 H 559.246 -0.189823 1.42743 0
M  V30 6008 H 561.199 -2.82962 3.12266 0
M  V30 6009 H 559.923 -2.66269 1.89125 0
M  V30 6010 H 558.582 -1.21636 3.45833 0
M  V30 6011 H 558.23 -3.69207 3.41607 0
M  V30 6012 H 557.93 -3.0221 5.03927 0
M  V30 6013 H 559.454 -3.89237 4.70454 0
M  V30 6014 H 560.868 -1.75003 5.45937 0
M  V30 6015 H 559.265 -1.09328 5.90057 0
M  V30 6016 H 560.335 -0.151295 4.84664 0
M  V30 6017 N 561.678 -1.56367 -0.196722 0
M  V30 6018 C 562.625 -1.94417 -1.24382 0
M  V30 6019 C 563.595 -0.804543 -1.45315 0
M  V30 6020 O 564.78 -1.06256 -1.58475 0
M  V30 6021 C 561.92 -2.28757 -2.58388 0
M  V30 6022 C 561.033 -3.55775 -2.45047 0
M  V30 6023 C 560.168 -3.79445 -3.71746 0
M  V30 6024 C 559.207 -4.99894 -3.53231 0
M  V30 6025 N 558.344 -5.19826 -4.71938 0
M  V30 6026 H 563.184 -2.83691 -0.912338 0
M  V30 6027 H 560.721 -1.40392 -0.439135 0
M  V30 6028 H 562.679 -2.46682 -3.36457 0
M  V30 6029 H 561.309 -1.42625 -2.89582 0
M  V30 6030 H 560.361 -3.45905 -1.58284 0
M  V30 6031 H 561.673 -4.44 -2.27299 0
M  V30 6032 H 560.827 -3.97601 -4.58256 0
M  V30 6033 H 559.566 -2.89546 -3.92446 0
M  V30 6034 H 558.571 -4.81662 -2.65107 0
M  V30 6035 H 559.796 -5.913 -3.33978 0
M  V30 6036 H 557.742 -4.32875 -4.92905 0
M  V30 6037 H 557.659 -6.02228 -4.57009 0
M  V30 6038 H 558.927 -5.42439 -5.59803 0
M  V30 6039 N 563.156 0.464375 -1.50603 0
M  V30 6040 C 564.433 1.22549 -1.5245 0
M  V30 6041 C 564.813 2.09327 -0.273035 0
M  V30 6042 O 564.161 2.16074 0.743242 0
M  V30 6043 C 564.371 2.05074 -2.82393 0
M  V30 6044 C 565.719 2.63036 -3.33313 0
M  V30 6045 O 566.743 2.1531 -2.8376 0
M  V30 6046 O 565.602 3.5001 -4.19709 0
M  V30 6047 H 562.696 0.556471 -0.611775 0
M  V30 6048 H 565.242 0.475648 -1.62898 0
M  V30 6049 H 564.014 1.41169 -3.64948 0
M  V30 6050 H 563.637 2.87179 -2.7498 0
M  V30 6051 N 564.634 1.40294 0.718013 0
M  V30 6052 C 566.05 1.2227 1.02577 0
M  V30 6053 C 566.25 0.0961976 2.0127 0
M  V30 6054 O 565.306 -0.546695 2.46511 0
M  V30 6055 C 566.619 2.56348 1.57182 0
M  V30 6056 C 568.167 2.6334 1.69178 0
M  V30 6057 C 568.642 3.9768 2.27188 0
M  V30 6058 N 570.133 3.99409 2.34578 0
M  V30 6059 C 570.868 5.00141 2.8044 0
M  V30 6060 N 570.364 6.11268 3.26073 0
M  V30 6061 N 572.157 4.87511 2.79802 0
M  V30 6062 H 564.308 2.12304 0.0637899 0
M  V30 6063 H 566.571 0.943632 0.0909036 0
M  V30 6064 H 566.277 3.3942 0.921262 0
M  V30 6065 H 566.151 2.77266 2.55741 0
M  V30 6066 H 568.538 1.80641 2.33351 0
M  V30 6067 H 568.619 2.46255 0.692247 0
M  V30 6068 H 568.263 4.80817 1.63638 0
M  V30 6069 H 568.193 4.12093 3.27852 0
M  V30 6070 H 570.684 3.19162 2.02346 0
M  V30 6071 H 570.997 6.84023 3.59628 0
M  V30 6072 H 569.342 6.14837 3.24038 0
M  V30 6073 H 572.533 3.9979 2.43487 0
M  V30 6074 H 572.706 5.66158 3.15228 0
M  V30 6075 N 566.112 -0.949982 1.2575 0
M  V30 6076 C 567.358 -1.69766 1.10938 0
M  V30 6077 C 567.691 -1.91056 -0.348028 0
M  V30 6078 O 566.966 -1.48488 -1.25625 0
M  V30 6079 C 567.249 -3.07779 1.86933 0
M  V30 6080 C 567.102 -2.9387 3.4053 0
M  V30 6081 C 568.421 -4.07749 1.65616 0
M  V30 6082 H 565.54 -0.616144 0.404396 0
M  V30 6083 H 568.182 -1.10394 1.54639 0
M  V30 6084 H 566.332 -3.58462 1.4979 0
M  V30 6085 H 568.004 -2.50476 3.87375 0
M  V30 6086 H 566.247 -2.29686 3.68004 0
M  V30 6087 H 566.918 -3.91719 3.88922 0
M  V30 6088 H 569.394 -3.65994 1.97959 0
M  V30 6089 H 568.27 -5.02348 2.21218 0
M  V30 6090 H 568.531 -4.38029 0.598595 0
M  V30 6091 N 567.59 -1.07411 -1.15328 0
M  V30 6092 C 568.537 -0.694995 -2.20087 0
M  V30 6093 C 569.507 0.313904 -1.63107 0
M  V30 6094 O 570.692 0.200216 -1.89747 0
M  V30 6095 C 567.832 -0.0996218 -3.44956 0
M  V30 6096 C 566.945 -1.16007 -4.16133 0
M  V30 6097 C 566.08 -0.529636 -5.28553 0
M  V30 6098 C 565.119 -1.57283 -5.91548 0
M  V30 6099 N 564.256 -0.964932 -6.95438 0
M  V30 6100 H 569.096 -1.5927 -2.51867 0
M  V30 6101 H 566.633 -0.796115 -1.23695 0
M  V30 6102 H 568.591 0.263197 -4.16369 0
M  V30 6103 H 567.221 0.761435 -3.13691 0
M  V30 6104 H 566.273 -1.64045 -3.4321 0
M  V30 6105 H 567.585 -1.95101 -4.59061 0
M  V30 6106 H 566.739 -0.114487 -6.06592 0
M  V30 6107 H 565.478 0.29307 -4.86819 0
M  V30 6108 H 564.483 -1.99775 -5.12221 0
M  V30 6109 H 565.708 -2.39783 -6.35359 0
M  V30 6110 H 563.654 -0.16314 -6.55797 0
M  V30 6111 H 563.571 -1.69311 -7.36797 0
M  V30 6112 H 564.839 -0.575305 -7.77374 0
M  V30 6113 N 569.068 1.32177 -0.85831 0
M  V30 6114 C 569.998 2.31282 -0.321041 0
M  V30 6115 C 570.979 1.59841 0.581786 0
M  V30 6116 O 572.164 1.87619 0.501262 0
M  V30 6117 C 569.294 3.4385 0.48832 0
M  V30 6118 C 568.248 4.26799 -0.320391 0
M  V30 6119 C 567.574 5.31164 0.613934 0
M  V30 6120 C 568.874 4.98829 -1.54813 0
M  V30 6121 H 570.568 2.76469 -1.14915 0
M  V30 6122 H 568.114 1.32916 -0.554028 0
M  V30 6123 H 570.067 4.12224 0.874626 0
M  V30 6124 H 568.791 2.97401 1.34983 0
M  V30 6125 H 567.45 3.60077 -0.688497 0
M  V30 6126 H 567.098 4.80967 1.47239 0
M  V30 6127 H 566.798 5.8755 0.0768097 0
M  V30 6128 H 568.322 6.024 0.997336 0
M  V30 6129 H 569.736 5.59864 -1.23392 0
M  V30 6130 H 568.133 5.64957 -2.02346 0
M  V30 6131 H 569.203 4.26483 -2.30739 0
M  V30 6132 N 570.547 0.616602 1.45037 0
M  V30 6133 C 571.477 -0.0840787 2.33349 0
M  V30 6134 C 572.458 -0.849641 1.4736 0
M  V30 6135 O 573.643 -0.818407 1.76113 0
M  V30 6136 C 570.773 -1.07604 3.3021 0
M  V30 6137 C 569.727 -0.423096 4.25904 0
M  V30 6138 C 569.053 -1.52394 5.12523 0
M  V30 6139 C 570.353 0.661457 5.18095 0
M  V30 6140 H 572.047 0.653333 2.92185 0
M  V30 6141 H 569.593 0.315634 1.40498 0
M  V30 6142 H 571.546 -1.57485 3.90866 0
M  V30 6143 H 570.27 -1.84416 2.69552 0
M  V30 6144 H 568.929 0.05493 3.66559 0
M  V30 6145 H 568.577 -2.28257 4.48227 0
M  V30 6146 H 568.277 -1.09251 5.77354 0
M  V30 6147 H 569.801 -2.02485 5.76049 0
M  V30 6148 H 571.215 0.246353 5.7277 0
M  V30 6149 H 569.612 1.01517 5.91451 0
M  V30 6150 H 570.682 1.53446 4.59981 0
M  V30 6151 N 572.025 -1.5352 0.356285 0
M  V30 6152 C 572.972 -2.25439 -0.494569 0
M  V30 6153 C 573.942 -1.25752 -1.08516 0
M  V30 6154 O 575.127 -1.54513 -1.1194 0
M  V30 6155 C 572.267 -3.04011 -1.63313 0
M  V30 6156 C 571.38 -4.18574 -1.06862 0
M  V30 6157 C 570.515 -4.84607 -2.17552 0
M  V30 6158 C 569.554 -5.91218 -1.58518 0
M  V30 6159 N 568.691 -6.50979 -2.63003 0
M  V30 6160 H 573.531 -2.97737 0.125244 0
M  V30 6161 H 571.068 -1.46916 0.0735789 0
M  V30 6162 H 573.026 -3.47834 -2.30363 0
M  V30 6163 H 571.656 -2.33986 -2.22374 0
M  V30 6164 H 570.708 -3.79303 -0.288672 0
M  V30 6165 H 572.02 -4.95215 -0.596924 0
M  V30 6166 H 571.174 -5.31566 -2.92442 0
M  V30 6167 H 569.913 -4.07418 -2.6807 0
M  V30 6168 H 568.918 -5.4363 -0.821391 0
M  V30 6169 H 570.143 -6.70322 -1.08836 0
M  V30 6170 H 568.089 -5.76648 -3.12751 0
M  V30 6171 H 568.006 -7.23131 -2.20493 0
M  V30 6172 H 569.274 -7.02589 -3.37623 0
M  V30 6173 O 573.542 -0.225101 -1.59924 0
M  V30 6174 H 574.233 0.354711 -1.90425 0
M  V30 END ATOM
M  V30 BEGIN BOND
M  V30 END BOND
M  V30 END CTAB
M  END
$$$$
