drugbank_target|Q08462 Adenylate cyclase type 2 (DB02587; DB06843; DB09121)
 OpenBabel12092120373D

  0  0  0     0  0            999 V3000
M  V30 BEGIN CTAB
M  V30 COUNTS 17485 17676 0 0 0
M  V30 BEGIN ATOM
M  V30 1 H -0.908 1.98254 -0.117106 0
M  V30 2 N 0 1.576 0 0
M  V30 3 C 0.933 2.03868 1.02534 0
M  V30 4 C 1.911 0.928543 1.3348 0
M  V30 5 O 3.095 1.19667 1.45644 0
M  V30 6 C 0.222 2.43627 2.35294 0
M  V30 7 C -0.732 3.65373 2.2001 0
M  V30 8 S 0.101 5.13292 1.52614 0
M  V30 9 C 1.257 5.56322 2.86805 0
M  V30 10 H 1.49 2.90518 0.631377 0
M  V30 11 H -0.977 1.52953 0.210867 0
M  V30 12 H 0.981 2.67203 3.11629 0
M  V30 13 H -0.358 1.57376 2.7183 0
M  V30 14 H -1.165 3.90944 3.18086 0
M  V30 15 H -1.563 3.418 1.51819 0
M  V30 16 H 0.729 5.58782 3.83104 0
M  V30 17 H 1.672 6.56266 2.65933 0
M  V30 18 H 2.08 4.83886 2.90714 0
M  V30 19 N 1.4781 -0.272755 1.55222 0
M  V30 20 C 2.7241 -1.00172 1.77023 0
M  V30 21 C 3.0791 -1.83928 0.564633 0
M  V30 22 O 2.3721 -1.86416 -0.442674 0
M  V30 23 C 2.5661 -1.91642 3.01675 0
M  V30 24 C 2.3951 -1.16888 4.34243 0
M  V30 25 C 1.1651 -0.884464 4.97499 0
M  V30 26 C 3.3631 -0.55919 5.11251 0
M  V30 27 N 1.3451 -0.11015 6.13801 0
M  V30 28 C 2.7161 0.0809469 6.19947 0
M  V30 29 C 4.7711 -0.467058 4.95705 0
M  V30 30 C 3.4741 0.804335 7.14789 0
M  V30 31 C 5.5001 0.242739 5.90902 0
M  V30 32 C 4.8621 0.871613 6.98987 0
M  V30 33 H 0.9611 -0.348529 0.700037 0
M  V30 34 H 3.5451 -0.277365 1.92714 0
M  V30 35 H 1.7161 -2.61303 2.87359 0
M  V30 36 H 3.4481 -2.57901 3.1188 0
M  V30 37 H 0.2031 -1.18979 4.58411 0
M  V30 38 H 0.6271 0.264344 6.76484 0
M  V30 39 H 5.2691 -0.93894 4.12242 0
M  V30 40 H 2.9871 1.2879 7.97771 0
M  V30 41 H 6.5731 0.314347 5.8095 0
M  V30 42 H 5.4531 1.4121 7.71381 0
M  V30 43 N 2.9562 -1.48159 -0.537278 0
M  V30 44 C 3.8882 -1.58218 -1.65831 0
M  V30 45 C 4.9012 -0.466948 -1.5596 0
M  V30 46 O 6.0902 -0.73747 -1.62553 0
M  V30 47 C 3.1902 -1.48906 -3.04434 0
M  V30 48 C 2.3632 -2.75343 -3.3986 0
M  V30 49 C 1.4222 -2.59588 -4.57712 0
M  V30 50 O 0.4482 -3.33457 -4.61297 0
M  V30 51 N 1.6502 -1.68724 -5.55439 0
M  V30 52 H 4.4152 -2.54891 -1.57641 0
M  V30 53 H 1.9762 -1.4479 -0.724386 0
M  V30 54 H 3.9682 -1.36072 -3.81139 0
M  V30 55 H 2.5382 -0.602368 -3.06741 0
M  V30 56 H 1.7582 -3.02795 -2.52406 0
M  V30 57 H 3.0462 -3.5924 -3.60311 0
M  V30 58 H 2.4442 -1.07898 -5.55315 0
M  V30 59 H 1.0012 -1.61832 -6.3139 0
M  V30 60 N 4.4343 0.785586 -1.36625 0
M  V30 61 C 5.3443 1.92964 -1.33425 0
M  V30 62 C 6.3603 1.72394 -0.235851 0
M  V30 63 O 7.5363 1.95866 -0.468878 0
M  V30 64 C 4.6013 3.27884 -1.12662 0
M  V30 65 C 3.6623 3.61204 -2.32013 0
M  V30 66 C 2.8953 4.89687 -2.12231 0
M  V30 67 O 3.1183 5.59704 -1.09945 0
M  V30 68 O 2.0523 5.21752 -3.00098 0
M  V30 69 H 5.8783 1.98613 -2.29753 0
M  V30 70 H 3.4633 0.926384 -1.17211 0
M  V30 71 H 5.3453 4.08614 -1.03016 0
M  V30 72 H 4.0203 3.23118 -0.193991 0
M  V30 73 H 2.9273 2.80765 -2.47228 0
M  V30 74 H 4.2603 3.70698 -3.23796 0
M  V30 75 N 5.9124 1.20967 1.01018 0
M  V30 76 C 6.8754 0.965918 2.07853 0
M  V30 77 C 7.8754 -0.0610545 1.60684 0
M  V30 78 O 9.0654 0.175681 1.73312 0
M  V30 79 C 6.1974 0.455513 3.37843 0
M  V30 80 H 7.3904 1.91365 2.3091 0
M  V30 81 H 4.9434 1.02594 1.17916 0
M  V30 82 H 5.6784 -0.497381 3.20463 0
M  V30 83 H 5.4634 1.19622 3.73407 0
M  V30 84 H 6.9534 0.304667 4.16487 0
M  V30 85 N 7.3905 -1.2043 1.01659 0
M  V30 86 C 8.3235 -2.21924 0.531521 0
M  V30 87 C 9.3015 -1.57054 -0.421032 0
M  V30 88 O 10.4855 -1.85389 -0.341035 0
M  V30 89 C 7.6125 -3.37942 -0.226496 0
M  V30 90 C 6.6585 -4.21115 0.67561 0
M  V30 91 S 7.4915 -4.90674 2.14475 0
M  V30 92 C 8.6475 -6.10113 1.3969 0
M  V30 93 H 8.8805 -2.62725 1.3915 0
M  V30 94 H 6.4135 -1.30481 0.825479 0
M  V30 95 H 8.3715 -4.05196 -0.657738 0
M  V30 96 H 7.0325 -2.956 -1.06205 0
M  V30 97 H 6.2255 -5.03918 0.091108 0
M  V30 98 H 5.8275 -3.59115 1.04463 0
M  V30 99 H 8.1195 -6.7411 0.676897 0
M  V30 100 H 9.0625 -6.73022 2.20107 0
M  V30 101 H 9.4705 -5.57283 0.899786 0
M  V30 102 N 8.8686 -0.792821 -1.36206 0
M  V30 103 C 10.2846 -0.474903 -1.52371 0
M  V30 104 C 10.4846 1.00622 -1.74578 0
M  V30 105 O 9.5406 1.79162 -1.77924 0
M  V30 106 C 10.8536 -1.3083 -2.70747 0
M  V30 107 C 12.4016 -1.30234 -2.84619 0
M  V30 108 C 12.8766 -2.11956 -4.06004 0
M  V30 109 N 14.3676 -2.09419 -4.13156 0
M  V30 110 C 15.1026 -2.69419 -5.06163 0
M  V30 111 N 14.5986 -3.3829 -6.04592 0
M  V30 112 N 16.3916 -2.59134 -4.98804 0
M  V30 113 H 8.5426 -1.75222 -1.20046 0
M  V30 114 H 10.8056 -0.745024 -0.586211 0
M  V30 115 H 10.5116 -2.35881 -2.6087 0
M  V30 116 H 10.3856 -0.95196 -3.6499 0
M  V30 117 H 12.7726 -0.259748 -2.93955 0
M  V30 118 H 12.8536 -1.69847 -1.91274 0
M  V30 119 H 12.4976 -3.16248 -3.97429 0
M  V30 120 H 12.4276 -1.69711 -4.98503 0
M  V30 121 H 14.9186 -1.59297 -3.42685 0
M  V30 122 H 15.2316 -3.81394 -6.7213 0
M  V30 123 H 13.5766 -3.42393 -6.04807 0
M  V30 124 H 16.7676 -2.04927 -4.20859 0
M  V30 125 H 16.9406 -3.06185 -5.711 0
M  V30 126 N 10.3467 1.47872 -0.545128 0
M  V30 127 C 11.7627 1.5829 -0.204032 0
M  V30 128 C 11.9627 1.54529 1.29317 0
M  V30 129 O 11.0187 1.44232 2.07252 0
M  V30 130 C 12.3317 2.89304 -0.819987 0
M  V30 131 C 13.8797 3.02864 -0.790105 0
M  V30 132 C 14.3547 4.3656 -1.38491 0
M  V30 133 N 15.8457 4.43165 -1.34755 0
M  V30 134 C 16.5807 5.45153 -1.77753 0
M  V30 135 N 16.0767 6.54016 -2.2855 0
M  V30 136 N 17.8697 5.36125 -1.68897 0
M  V30 137 H 10.0207 1.4856 -1.51802 0
M  V30 138 H 12.2837 0.706305 -0.632327 0
M  V30 139 H 11.9897 2.97757 -1.87173 0
M  V30 140 H 11.8637 3.75957 -0.305915 0
M  V30 141 H 14.2507 2.94014 0.252913 0
M  V30 142 H 14.3317 2.17782 -1.34181 0
M  V30 143 H 13.9757 4.46164 -2.42693 0
M  V30 144 H 13.9057 5.20353 -0.808754 0
M  V30 145 H 16.3967 3.65083 -0.975855 0
M  V30 146 H 16.7097 7.27994 -2.59314 0
M  V30 147 H 15.0547 6.54938 -2.32553 0
M  V30 148 H 18.2457 4.49975 -1.28998 0
M  V30 149 H 18.4187 6.15472 -2.02726 0
M  V30 150 N 11.8248 0.280983 1.55075 0
M  V30 151 C 13.2408 -0.0729964 1.59433 0
M  V30 152 C 13.4408 -1.5411 1.29817 0
M  V30 153 O 12.4968 -2.29086 1.06187 0
M  V30 154 C 13.8098 0.306921 2.9913 0
M  V30 155 C 15.3578 0.254023 3.11968 0
M  V30 156 C 15.8328 0.608467 4.5394 0
M  V30 157 N 17.3238 0.560241 4.59799 0
M  V30 158 C 18.0588 0.80722 5.6769 0
M  V30 159 N 17.5548 1.11912 6.83701 0
M  V30 160 N 19.3478 0.735623 5.57266 0
M  V30 161 H 11.4988 1.238 1.7259 0
M  V30 162 H 13.7618 0.500547 0.805082 0
M  V30 163 H 13.4678 1.32816 3.25657 0
M  V30 164 H 13.3418 -0.349363 3.75579 0
M  V30 165 H 15.7288 -0.75794 2.852 0
M  V30 166 H 15.8098 0.944649 2.37718 0
M  V30 167 H 15.4538 1.61814 4.81434 0
M  V30 168 H 15.3838 -0.104013 5.26497 0
M  V30 169 H 17.8748 0.329288 3.76463 0
M  V30 170 H 18.1878 1.29409 7.61888 0
M  V30 171 H 16.5328 1.15695 6.85303 0
M  V30 172 H 19.7238 0.491752 4.6551 0
M  V30 173 H 19.8968 0.931482 6.4127 0
M  V30 174 N 13.3029 -1.57598 0.00835791 0
M  V30 175 C 14.7189 -1.55764 -0.347822 0
M  V30 176 C 14.9189 -1.01186 -1.74252 0
M  V30 177 O 13.9749 -0.649371 -2.44007 0
M  V30 178 C 15.2879 -2.99927 -0.215407 0
M  V30 179 C 16.8359 -3.11656 -0.289725 0
M  V30 180 C 17.3109 -4.57621 -0.18634 0
M  V30 181 N 18.8019 -4.62557 -0.243978 0
M  V30 182 C 19.5369 -5.73094 -0.18745 0
M  V30 183 N 19.0329 -6.92753 -0.0810331 0
M  V30 184 N 20.8259 -5.61588 -0.239925 0
M  V30 185 H 12.9769 -1.91411 0.92062 0
M  V30 186 H 15.2399 -0.879562 0.353659 0
M  V30 187 H 14.9459 -3.43729 0.744512 0
M  V30 188 H 14.8199 -3.63865 -0.994097 0
M  V30 189 H 17.2069 -2.67779 -1.24009 0
M  V30 190 H 17.2879 -2.5048 0.51898 0
M  V30 191 H 16.9319 -5.02174 0.760519 0
M  V30 192 H 16.8619 -5.16752 -1.01364 0
M  V30 193 H 19.3529 -3.76481 -0.327217 0
M  V30 194 H 19.6659 -7.72787 -0.0440241 0
M  V30 195 H 18.0109 -6.94984 -0.0465419 0
M  V30 196 H 21.2019 -4.66996 -0.321317 0
M  V30 197 H 21.3749 -6.47714 -0.192407 0
M  V30 198 N 14.781 0.264519 -1.55364 0
M  V30 199 C 16.011 1.01153 -1.80143 0
M  V30 200 C 16.419 1.80115 -0.579253 0
M  V30 201 O 15.762 1.77813 0.46132 0
M  V30 202 C 15.824 2.01098 -2.97993 0
M  V30 203 C 15.488 1.40995 -4.34706 0
M  V30 204 C 16.485 0.821316 -5.13372 0
M  V30 205 C 14.17 1.43461 -4.81378 0
M  V30 206 C 16.164 0.265339 -6.36847 0
M  V30 207 C 13.851 0.874771 -6.04807 0
M  V30 208 C 14.849 0.291146 -6.82379 0
M  V30 209 O 14.537 -0.260093 -8.03479 0
M  V30 210 H 14.269 0.304125 -0.603725 0
M  V30 211 H 16.823 0.298089 -2.03225 0
M  V30 212 H 15.053 2.76224 -2.70623 0
M  V30 213 H 16.742 2.61997 -3.1002 0
M  V30 214 H 17.508 0.794903 -4.78442 0
M  V30 215 H 13.387 1.87826 -4.21002 0
M  V30 216 H 16.931 -0.190837 -6.97339 0
M  V30 217 H 12.828 0.898452 -6.39217 0
M  V30 218 H 13.596 -0.150265 -8.18362 0
M  V30 219 N 16.2591 1.48442 0.529413 0
M  V30 220 C 17.1891 1.65902 1.64313 0
M  V30 221 C 18.1701 0.507897 1.6234 0
M  V30 222 O 19.3551 0.740503 1.79528 0
M  V30 223 C 16.4851 1.69911 3.02898 0
M  V30 224 C 15.4391 2.8453 3.19729 0
M  V30 225 C 14.7651 2.73629 4.59381 0
M  V30 226 C 16.0651 4.25821 3.02447 0
M  V30 227 H 17.7591 2.5914 1.49955 0
M  V30 228 H 15.3051 1.24709 0.719982 0
M  V30 229 H 17.2581 1.80715 3.80684 0
M  V30 230 H 15.9821 0.732524 3.18279 0
M  V30 231 H 14.6411 2.73283 2.44361 0
M  V30 232 H 14.2891 1.74938 4.71599 0
M  V30 233 H 13.9891 3.50541 4.71588 0
M  V30 234 H 15.5131 2.86401 5.39265 0
M  V30 235 H 16.9271 4.37898 3.70024 0
M  V30 236 H 15.3241 5.03735 3.26146 0
M  V30 237 H 16.3941 4.42244 1.98867 0
M  V30 238 N 17.7372 -0.778329 1.37039 0
M  V30 239 C 19.1532 -1.07796 1.17695 0
M  V30 240 C 19.3532 -2.01498 0.00860115 0
M  V30 241 O 18.4092 -2.43901 -0.653352 0
M  V30 242 C 19.7222 -1.68178 2.49272 0
M  V30 243 C 21.2702 -1.80467 2.55735 0
M  V30 244 C 21.7452 -2.44263 3.87427 0
M  V30 245 N 23.2362 -2.51721 3.88833 0
M  V30 246 C 23.9712 -3.01919 4.87476 0
M  V30 247 N 23.4672 -3.5234 5.96513 0
M  V30 248 N 25.2602 -3.00733 4.74885 0
M  V30 249 H 17.4112 -0.156032 2.11826 0
M  V30 250 H 19.6742 -0.131844 0.938787 0
M  V30 251 H 19.3802 -1.06796 3.35093 0
M  V30 252 H 19.2542 -2.67554 2.65885 0
M  V30 253 H 21.6412 -2.40984 1.70325 0
M  V30 254 H 21.7222 -0.798656 2.43013 0
M  V30 255 H 21.3662 -1.84388 4.73248 0
M  V30 256 H 21.2962 -3.45458 3.9745 0
M  V30 257 H 23.7872 -2.1603 3.10063 0
M  V30 258 H 24.1002 -3.89027 6.67741 0
M  V30 259 H 22.4452 -3.50462 6.00168 0
M  V30 260 H 25.6362 -2.60638 3.88826 0
M  V30 261 H 25.8092 -3.39545 5.51918 0
M  V30 262 N 19.2153 -1.21501 -1.00376 0
M  V30 263 C 20.4923 -0.941745 -1.71437 0
M  V30 264 C 20.8723 0.546114 -2.03914 0
M  V30 265 O 20.2203 1.51128 -1.71384 0
M  V30 266 C 20.4303 -1.82812 -2.97289 0
M  V30 267 C 21.7783 -2.07771 -3.70292 0
M  V30 268 O 22.8023 -1.80171 -3.07273 0
M  V30 269 O 21.6613 -2.54456 -4.83647 0
M  V30 270 H 18.7553 -0.353243 -0.747762 0
M  V30 271 H 21.3013 -1.32436 -1.06108 0
M  V30 272 H 20.0733 -2.83501 -2.69709 0
M  V30 273 H 19.6963 -1.4464 -3.70358 0
M  V30 274 N 20.6934 1.19889 -1.02296 0
M  V30 275 C 22.1094 1.41462 -0.738954 0
M  V30 276 C 22.3094 1.89721 0.678846 0
M  V30 277 O 21.3654 2.07016 1.4457 0
M  V30 278 C 22.6784 2.43083 -1.77005 0
M  V30 279 C 24.2264 2.5684 -1.78892 0
M  V30 280 C 24.7014 3.61709 -2.80945 0
M  V30 281 N 26.1924 3.69199 -2.79725 0
M  V30 282 C 26.9274 4.50019 -3.55345 0
M  V30 283 N 26.4234 5.34592 -4.40662 0
M  V30 284 N 28.2164 4.44612 -3.43914 0
M  V30 285 H 20.3674 0.868827 -1.93817 0
M  V30 286 H 22.6304 0.44399 -0.837602 0
M  V30 287 H 22.3364 2.14636 -2.78612 0
M  V30 288 H 22.2104 3.4217 -1.58744 0
M  V30 289 H 24.5974 2.84614 -0.779674 0
M  V30 290 H 24.6784 1.57927 -2.01228 0
M  V30 291 H 24.3224 3.34678 -3.82038 0
M  V30 292 H 24.2524 4.60259 -2.5587 0
M  V30 293 H 26.7434 3.08794 -2.17842 0
M  V30 294 H 27.0564 5.93363 -4.95116 0
M  V30 295 H 25.4014 5.34073 -4.44737 0
M  V30 296 H 28.5924 3.7758 -2.76679 0
M  V30 297 H 28.7654 5.0736 -4.031 0
M  V30 298 N 22.1715 0.800033 1.35784 0
M  V30 299 C 23.3965 0.388511 2.03729 0
M  V30 300 C 23.8215 -0.990481 1.5991 0
M  V30 301 O 23.1795 -1.64013 0.772612 0
M  V30 302 C 23.2275 0.4726 3.5749 0
M  V30 303 O 22.3315 -0.51646 4.09153 0
M  V30 304 H 21.6725 0.163271 0.643614 0
M  V30 305 H 24.2025 1.0841 1.73518 0
M  V30 306 H 24.2125 0.34003 4.06581 0
M  V30 307 H 22.8875 1.47848 3.88734 0
M  V30 308 H 21.4645 -0.344673 3.71304 0
M  V30 309 N 23.6496 -1.47581 0.552962 0
M  V30 310 C 24.5596 -2.33743 -0.200353 0
M  V30 311 C 25.5756 -1.47928 -0.916151 0
M  V30 312 O 26.7516 -1.80865 -0.885993 0
M  V30 313 C 23.8166 -3.24536 -1.21973 0
M  V30 314 C 22.8776 -4.26238 -0.511819 0
M  V30 315 C 22.1106 -5.12693 -1.48263 0
M  V30 316 O 22.3336 -5.01525 -2.71714 0
M  V30 317 O 21.2676 -5.93375 -1.00945 0
M  V30 318 H 25.0936 -2.9945 0.506304 0
M  V30 319 H 22.6786 -1.46071 0.313622 0
M  V30 320 H 24.5606 -3.80631 -1.80827 0
M  V30 321 H 23.2356 -2.61462 -1.90839 0
M  V30 322 H 22.1426 -3.73914 0.117799 0
M  V30 323 H 23.4756 -4.92014 0.135308 0
M  V30 324 N 25.1277 -0.289203 -1.54924 0
M  V30 325 C 26.0377 0.601863 -2.26748 0
M  V30 326 C 27.0537 1.15834 -1.2984 0
M  V30 327 O 28.2297 1.18564 -1.62802 0
M  V30 328 C 25.2947 1.76299 -2.98529 0
M  V30 329 C 24.3557 1.24178 -4.10948 0
M  V30 330 C 23.5887 2.34757 -4.79296 0
M  V30 331 O 23.8117 3.54411 -4.46933 0
M  V30 332 O 22.7457 2.02115 -5.66951 0
M  V30 333 H 26.5717 0.0195879 -3.03694 0
M  V30 334 H 24.1567 -0.0560868 -1.49295 0
M  V30 335 H 26.0387 2.43973 -3.43592 0
M  V30 336 H 24.7137 2.33209 -2.24488 0
M  V30 337 H 23.6207 0.531104 -3.70311 0
M  V30 338 H 24.9537 0.718252 -4.86931 0
M  V30 339 N 26.6058 1.57591 -0.0167156 0
M  V30 340 C 27.5688 2.08393 0.954204 0
M  V30 341 C 28.5688 0.996531 1.26198 0
M  V30 342 O 29.7588 1.25858 1.20438 0
M  V30 343 C 26.8908 2.5394 2.27436 0
M  V30 344 H 28.0838 2.95455 0.514451 0
M  V30 345 H 25.6368 1.54582 0.231089 0
M  V30 346 H 26.3718 1.70171 2.76066 0
M  V30 347 H 26.1568 3.33371 2.06412 0
M  V30 348 H 27.6468 2.93512 2.97053 0
M  V30 349 N 28.0839 -0.256276 1.55502 0
M  V30 350 C 29.0469 -1.30047 1.88734 0
M  V30 351 C 30.0469 -1.4154 0.763086 0
M  V30 352 O 31.2369 -1.40403 1.03115 0
M  V30 353 C 28.3689 -2.67953 2.10747 0
M  V30 354 H 29.5619 -1.01802 2.82093 0
M  V30 355 H 27.1149 -0.495134 1.4825 0
M  V30 356 H 27.8499 -3.01351 1.19825 0
M  V30 357 H 27.6349 -2.60993 2.92617 0
M  V30 358 H 29.1249 -3.43368 2.37673 0
M  V30 359 N 29.562 -1.4872 -0.521534 0
M  V30 360 C 30.81 -1.56857 -1.27437 0
M  V30 361 C 31.131 -0.247982 -1.93417 0
M  V30 362 O 30.401 0.731151 -1.81744 0
M  V30 363 H 28.981 -0.577885 -0.473347 0
M  V30 364 H 31.643 -1.85233 -0.606205 0
M  V30 365 H 30.739 -2.35402 -2.0492 0
M  V30 366 N 31.0401 0.771051 -1.3745 0
M  V30 367 C 32.2881 1.52661 -1.32435 0
M  V30 368 C 32.6091 1.9479 0.0905024 0
M  V30 369 O 31.8791 1.66348 1.03466 0
M  V30 370 H 30.4591 0.566218 -0.487244 0
M  V30 371 H 33.1211 0.917636 -1.71946 0
M  V30 372 H 32.2171 2.42568 -1.96385 0
M  V30 373 N 32.5182 1.22032 0.997298 0
M  V30 374 C 33.7662 1.04016 1.73278 0
M  V30 375 C 34.0872 -0.426255 1.90284 0
M  V30 376 O 33.3572 -1.30694 1.45931 0
M  V30 377 H 31.9372 0.381897 0.642 0
M  V30 378 H 34.5992 1.5347 1.20137 0
M  V30 379 H 33.6952 1.51441 2.72896 0
M  V30 380 N 33.9963 -1.19345 1.0293 0
M  V30 381 C 35.2733 -1.84811 0.640642 0
M  V30 382 C 35.6533 -1.91855 -0.88062 0
M  V30 383 O 35.0013 -1.43587 -1.7775 0
M  V30 384 C 35.2113 -3.23755 1.30321 0
M  V30 385 C 36.5593 -3.99912 1.42673 0
M  V30 386 O 37.5833 -3.33155 1.26041 0
M  V30 387 O 36.4423 -5.19494 1.6967 0
M  V30 388 H 33.5363 -0.796443 0.222726 0
M  V30 389 H 36.0823 -1.26831 1.12748 0
M  V30 390 H 34.8543 -3.13466 2.34211 0
M  V30 391 H 34.4773 -3.89381 0.804261 0
M  V30 392 N 35.4744 -0.807222 -1.35358 0
M  V30 393 C 36.7224 -0.387122 -1.98358 0
M  V30 394 C 37.0434 1.04942 -1.64354 0
M  V30 395 O 36.3134 1.72615 -0.926339 0
M  V30 396 H 34.8934 -0.140154 -0.733734 0
M  V30 397 H 37.5554 -1.0332 -1.6526 0
M  V30 398 H 36.6514 -0.493352 -3.08176 0
M  V30 399 N 36.9525 1.47285 -0.560781 0
M  V30 400 C 37.8825 2.32857 0.173105 0
M  V30 401 C 38.8635 1.44009 0.905281 0
M  V30 402 O 40.0485 1.7286 0.885046 0
M  V30 403 C 37.1785 3.25861 1.20133 0
M  V30 404 C 36.1325 4.23978 0.585388 0
M  V30 405 C 35.4585 5.06332 1.7185 0
M  V30 406 C 36.7585 5.20242 -0.463178 0
M  V30 407 H 38.4525 2.94466 -0.541307 0
M  V30 408 H 35.9985 1.41601 -0.261764 0
M  V30 409 H 37.9515 3.84569 1.72293 0
M  V30 410 H 36.6755 2.62315 1.94573 0
M  V30 411 H 35.3345 3.66501 0.085054 0
M  V30 412 H 34.9825 4.39186 2.45203 0
M  V30 413 H 34.6825 5.72762 1.31213 0
M  V30 414 H 36.2065 5.67899 2.24329 0
M  V30 415 H 37.6205 5.73293 -0.027502 0
M  V30 416 H 36.0175 5.94896 -0.788627 0
M  V30 417 H 37.0875 4.65504 -1.35773 0
M  V30 418 N 38.4306 0.297415 1.54768 0
M  V30 419 C 39.8416 -0.195947 1.85669 0
M  V30 420 C 40.1926 -1.53707 1.21937 0
M  V30 421 O 39.3176 -2.10164 0.515754 0
M  V30 422 C 39.9126 -0.362318 3.36857 0
M  V30 423 C 38.4716 -0.799901 3.67802 0
M  V30 424 C 37.6186 0.0938578 2.77141 0
M  V30 425 H 40.5696 0.518538 1.4999 0
M  V30 426 H 40.5906 -1.19745 3.61167 0
M  V30 427 H 40.1026 0.613921 3.83214 0
M  V30 428 H 38.2036 -1.78682 3.26961 0
M  V30 429 H 38.3166 -0.621773 4.75048 0
M  V30 430 H 36.6806 -0.426254 2.51108 0
M  V30 431 H 37.4636 1.06639 3.26318 0
M  V30 432 N 39.9087 -1.5758 0.0250728 0
M  V30 433 C 41.3247 -1.56124 -0.331282 0
M  V30 434 C 41.5247 -1.03029 -1.73169 0
M  V30 435 O 40.5807 -0.675215 -2.43305 0
M  V30 436 C 41.8937 -3.00139 -0.183584 0
M  V30 437 C 43.4417 -3.11946 -0.256654 0
M  V30 438 C 43.9167 -4.57793 -0.137792 0
M  V30 439 N 45.4077 -4.6279 -0.194904 0
M  V30 440 C 46.1427 -5.7326 -0.126655 0
M  V30 441 N 45.6387 -6.928 -0.00755288 0
M  V30 442 N 47.4317 -5.61811 -0.180348 0
M  V30 443 H 39.5827 -1.90424 0.94087 0
M  V30 444 H 41.8457 -0.875761 0.362968 0
M  V30 445 H 41.5517 -3.4292 0.780927 0
M  V30 446 H 41.4257 -3.64899 -0.955448 0
M  V30 447 H 43.8127 -2.69079 -1.21162 0
M  V30 448 H 43.8937 -2.49915 0.545517 0
M  V30 449 H 43.5377 -5.01339 0.813739 0
M  V30 450 H 43.4677 -5.17798 -0.958775 0
M  V30 451 H 45.9587 -3.76807 -0.287267 0
M  V30 452 H 46.2717 -7.72791 0.0379428 0
M  V30 453 H 44.6167 -6.94995 0.0271731 0
M  V30 454 H 47.8077 -4.6731 -0.271767 0
M  V30 455 H 47.9807 -6.47882 -0.123697 0
M  V30 456 N 41.3868 0.248026 -1.55636 0
M  V30 457 C 42.6118 0.998028 -1.81808 0
M  V30 458 C 43.0368 1.78207 -0.601979 0
M  V30 459 O 42.3948 1.75653 0.448961 0
M  V30 460 C 42.4428 1.9125 -3.05705 0
M  V30 461 O 41.5468 3.00406 -2.82542 0
M  V30 462 H 40.8878 0.284045 -0.600179 0
M  V30 463 H 43.4178 0.269357 -2.02819 0
M  V30 464 H 43.4278 2.32737 -3.35108 0
M  V30 465 H 42.1028 1.33602 -3.93857 0
M  V30 466 H 40.6798 2.63056 -2.64303 0
M  V30 467 N 42.8649 1.48995 0.513639 0
M  V30 468 C 44.2809 1.35478 0.843682 0
M  V30 469 C 44.4809 0.378213 1.97919 0
M  V30 470 O 43.5369 -0.194689 2.51748 0
M  V30 471 C 44.8499 2.75901 1.1958 0
M  V30 472 C 46.3979 2.84509 1.30474 0
M  V30 473 C 46.8729 4.25671 1.69021 0
M  V30 474 N 48.3639 4.28422 1.76094 0
M  V30 475 C 49.0989 5.34601 2.07338 0
M  V30 476 N 48.5949 6.5104 2.36894 0
M  V30 477 N 50.3879 5.22007 2.08483 0
M  V30 478 H 42.5389 2.11092 -0.235328 0
M  V30 479 H 44.8019 0.947039 -0.0426669 0
M  V30 480 H 44.5079 3.49001 0.434913 0
M  V30 481 H 44.3819 3.10467 2.1422 0
M  V30 482 H 46.7689 2.11655 2.05637 0
M  V30 483 H 46.8499 2.53542 0.339155 0
M  V30 484 H 46.4939 4.99048 0.944135 0
M  V30 485 H 46.4239 4.54094 2.66658 0
M  V30 486 H 48.9149 3.44441 1.55464 0
M  V30 487 H 49.2279 7.2779 2.59887 0
M  V30 488 H 47.5729 6.54287 2.34378 0
M  V30 489 H 50.7639 4.30051 1.84861 0
M  V30 490 H 50.9369 6.04854 2.325 0
M  V30 491 N 44.343 -0.763751 1.37857 0
M  V30 492 C 45.62 -1.51244 1.24035 0
M  V30 493 C 46 -2.10472 -0.162649 0
M  V30 494 O 45.348 -1.96206 -1.17112 0
M  V30 495 C 45.558 -2.58694 2.34261 0
M  V30 496 C 46.906 -3.25878 2.72193 0
M  V30 497 O 47.93 -2.68993 2.33497 0
M  V30 498 O 46.789 -4.2874 3.38887 0
M  V30 499 H 43.883 -0.670243 0.484462 0
M  V30 500 H 46.429 -0.800031 1.49658 0
M  V30 501 H 45.201 -2.13105 3.2818 0
M  V30 502 H 44.824 -3.37527 2.10146 0
M  V30 503 N 45.8211 -1.22559 -0.990812 0
M  V30 504 C 47.0671 -1.06303 -1.73411 0
M  V30 505 C 47.4221 0.397442 -1.8825 0
M  V30 506 O 46.7151 1.29062 -1.41611 0
M  V30 507 C 46.9091 -1.71011 -3.13831 0
M  V30 508 C 46.7381 -3.232 -3.12685 0
M  V30 509 C 45.5081 -3.92314 -3.18461 0
M  V30 510 C 47.7061 -4.20107 -2.96673 0
M  V30 511 N 45.6881 -5.31571 -3.07091 0
M  V30 512 C 47.0591 -5.46208 -2.93354 0
M  V30 513 C 49.1141 -4.10973 -2.8108 0
M  V30 514 C 47.8171 -6.64225 -2.76039 0
M  V30 515 C 49.8431 -5.28642 -2.65126 0
M  V30 516 C 49.2051 -6.53663 -2.62496 0
M  V30 517 H 45.3041 -0.443441 -0.644115 0
M  V30 518 H 47.8881 -1.55131 -1.17654 0
M  V30 519 H 46.0591 -1.2473 -3.67827 0
M  V30 520 H 47.7911 -1.47828 -3.76735 0
M  V30 521 H 44.5461 -3.43326 -3.26227 0
M  V30 522 H 44.9701 -6.0455 -3.0471 0
M  V30 523 H 49.6121 -3.15098 -2.8191 0
M  V30 524 H 47.3301 -7.60246 -2.73954 0
M  V30 525 H 50.9161 -5.23407 -2.54039 0
M  V30 526 H 49.7961 -7.43182 -2.50302 0
M  V30 527 N 47.2992 1.18797 -1.03562 0
M  V30 528 C 48.2292 2.24472 -0.643019 0
M  V30 529 C 49.2102 1.66433 0.351283 0
M  V30 530 O 50.3952 1.92803 0.232505 0
M  V30 531 C 47.5252 3.473 4.24935e-05 0
M  V30 532 C 46.4792 4.18055 -0.917257 0
M  V30 533 C 45.8052 5.34519 -0.138941 0
M  V30 534 C 47.1052 4.72109 -2.23407 0
M  V30 535 H 48.7992 2.57566 -1.52643 0
M  V30 536 H 46.3452 1.23806 -0.735394 0
M  V30 537 H 48.2982 4.20426 0.286383 0
M  V30 538 H 47.0222 3.13424 0.918299 0
M  V30 539 H 45.6812 3.46821 -1.1879 0
M  V30 540 H 45.3292 4.96891 0.781562 0
M  V30 541 H 45.0292 5.82794 -0.750005 0
M  V30 542 H 46.5532 6.10438 0.1405 0
M  V30 543 H 47.9672 5.36955 -2.00879 0
M  V30 544 H 46.3642 5.30897 -2.79765 0
M  V30 545 H 47.4342 3.89807 -2.88407 0
M  V30 546 N 48.7773 0.814389 1.34928 0
M  V30 547 C 50.0073 0.41054 2.0248 0
M  V30 548 C 50.4153 -0.985625 1.61499 0
M  V30 549 O 49.7583 -1.64781 0.811976 0
M  V30 550 C 49.8203 0.423384 3.56998 0
M  V30 551 C 49.4843 1.77141 4.21272 0
M  V30 552 C 50.4813 2.73093 4.42398 0
M  V30 553 C 48.1663 2.05755 4.58225 0
M  V30 554 C 50.1603 3.95838 4.9959 0
M  V30 555 C 47.8473 3.28762 5.1513 0
M  V30 556 C 48.8453 4.23621 5.35755 0
M  V30 557 O 48.5333 5.44456 5.91458 0
M  V30 558 H 48.2653 0.163997 0.655806 0
M  V30 559 H 50.8193 1.10155 1.73364 0
M  V30 560 H 49.0493 -0.324276 3.85338 0
M  V30 561 H 50.7383 0.0407683 4.0588 0
M  V30 562 H 51.5043 2.5228 4.14222 0
M  V30 563 H 47.3833 1.32727 4.4148 0
M  V30 564 H 50.9273 4.69891 5.15605 0
M  V30 565 H 46.8243 3.49443 5.42734 0
M  V30 566 H 47.5923 5.4586 6.09901 0
M  V30 567 N 50.2554 -1.46986 0.568584 0
M  V30 568 C 51.1654 -2.33942 -0.17555 0
M  V30 569 C 52.1814 -1.48891 -0.90041 0
M  V30 570 O 53.3574 -1.81794 -0.86676 0
M  V30 571 C 50.4224 -3.25811 -1.18524 0
M  V30 572 C 49.4834 -4.26757 -0.466582 0
M  V30 573 C 48.7164 -5.14236 -1.42817 0
M  V30 574 O 48.9394 -5.04379 -2.66379 0
M  V30 575 O 47.8734 -5.94412 -0.946453 0
M  V30 576 H 51.6994 -2.98896 0.538036 0
M  V30 577 H 49.2844 -1.4573 0.329097 0
M  V30 578 H 51.1664 -3.82527 -1.76779 0
M  V30 579 H 49.8414 -2.63471 -1.88055 0
M  V30 580 H 48.7484 -3.73769 0.157451 0
M  V30 581 H 50.0814 -4.91843 0.187485 0
M  V30 582 N 51.7335 -0.305618 -1.54608 0
M  V30 583 C 52.9585 0.307562 -2.05107 0
M  V30 584 C 53.3835 1.46385 -1.18123 0
M  V30 585 O 52.7415 1.8034 -0.186324 0
M  V30 586 C 52.7895 0.73704 -3.52987 0
M  V30 587 O 51.8935 1.84134 -3.6901 0
M  V30 588 H 51.2345 0.0589143 -0.661381 0
M  V30 589 H 53.7645 -0.448807 -1.99617 0
M  V30 590 H 53.7745 1.02459 -3.94925 0
M  V30 591 H 52.4495 -0.108773 -4.15758 0
M  V30 592 H 51.0265 1.55398 -3.38978 0
M  V30 593 N 53.2116 1.57565 -0.0334293 0
M  V30 594 C 54.4416 1.95996 0.653398 0
M  V30 595 C 54.8496 0.908749 1.65947 0
M  V30 596 O 54.1926 -0.117471 1.83324 0
M  V30 597 C 54.2546 3.30589 1.41249 0
M  V30 598 C 53.9186 4.53503 0.564263 0
M  V30 599 C 54.9156 5.19647 -0.16225 0
M  V30 600 C 52.6006 4.99801 0.500398 0
M  V30 601 C 54.5946 6.30412 -0.941255 0
M  V30 602 C 52.2816 6.10448 -0.282308 0
M  V30 603 C 53.2796 6.75612 -1.00184 0
M  V30 604 O 52.9676 7.84134 -1.77171 0
M  V30 605 H 52.6996 0.65027 0.184728 0
M  V30 606 H 55.2536 2.05199 -0.0907841 0
M  V30 607 H 53.4836 3.17888 2.20191 0
M  V30 608 H 55.1726 3.53892 1.98784 0
M  V30 609 H 55.9386 4.84846 -0.12227 0
M  V30 610 H 51.8176 4.48883 1.05002 0
M  V30 611 H 55.3616 6.81208 -1.50339 0
M  V30 612 H 51.2586 6.44686 -0.323989 0
M  V30 613 H 52.0266 8.00822 -1.69194 0
M  V30 614 N 54.6897 -0.239769 1.55765 0
M  V30 615 C 55.9197 -0.982743 1.8173 0
M  V30 616 C 56.3277 -1.7917 0.607835 0
M  V30 617 O 55.6707 -1.78525 -0.432973 0
M  V30 618 C 55.7327 -1.96332 3.01155 0
M  V30 619 C 55.3967 -1.34062 4.36894 0
M  V30 620 C 56.3937 -0.739539 5.14613 0
M  V30 621 C 54.0787 -1.35784 4.83599 0
M  V30 622 C 56.0727 -0.163989 6.37189 0
M  V30 623 C 53.7597 -0.778441 6.06122 0
M  V30 624 C 54.7577 -0.182548 6.82756 0
M  V30 625 O 54.4457 0.387887 8.02964 0
M  V30 626 H 54.1777 -0.294481 0.608487 0
M  V30 627 H 56.7317 -0.26572 2.03674 0
M  V30 628 H 54.9617 -2.71884 2.74984 0
M  V30 629 H 56.6507 -2.57032 3.14149 0
M  V30 630 H 57.4167 -0.718687 4.79646 0
M  V30 631 H 53.2957 -1.81105 4.23936 0
M  V30 632 H 56.8397 0.301753 6.96947 0
M  V30 633 H 52.7367 -0.796645 6.40565 0
M  V30 634 H 53.5047 0.28044 8.18019 0
M  V30 635 N 56.1678 -1.49265 -0.50573 0
M  V30 636 C 57.4078 -1.60128 -1.27038 0
M  V30 637 C 57.7718 -0.279557 -1.89954 0
M  V30 638 O 58.9728 -0.263329 -2.67507 0
M  V30 639 C 57.2438 -2.72507 -2.31246 0
M  V30 640 S 58.8028 -3.0329 -3.17113 0
M  V30 641 H 55.6208 -0.564863 -0.4318 0
M  V30 642 H 58.2228 -1.86902 -0.573397 0
M  V30 643 H 56.9268 -3.67068 -1.83546 0
M  V30 644 H 56.4578 -2.4771 -3.05619 0
M  V30 645 H 58.4728 -2.44448 -4.31809 0
M  V30 646 N 57.6459 0.756429 -1.3826 0
M  V30 647 C 58.5789 1.87802 -1.29637 0
M  V30 648 C 59.5569 1.61667 -0.173939 0
M  V30 649 O 60.7409 1.85208 -0.350775 0
M  V30 650 C 57.8679 3.23354 -1.00797 0
M  V30 651 C 56.9139 3.68379 -2.14939 0
M  V30 652 S 57.7469 3.8025 -3.77054 0
M  V30 653 C 58.9029 5.18626 -3.50396 0
M  V30 654 H 59.1359 1.94829 -2.24564 0
M  V30 655 H 56.6689 0.919117 -1.24063 0
M  V30 656 H 58.6269 4.01637 -0.848413 0
M  V30 657 H 57.2879 3.14008 -0.0759369 0
M  V30 658 H 56.4809 4.66693 -1.90299 0
M  V30 659 H 56.0829 2.97242 -2.26988 0
M  V30 660 H 58.3749 6.04289 -3.06334 0
M  V30 661 H 59.3179 5.48286 -4.48094 0
M  V30 662 H 59.7259 4.87289 -2.84973 0
M  V30 663 N 59.124 1.23083 0.984299 0
M  V30 664 C 60.349 1.088 1.76571 0
M  V30 665 C 60.774 -0.356657 1.84688 0
M  V30 666 O 60.132 -1.25788 1.30565 0
M  V30 667 C 60.18 1.71371 3.17277 0
M  V30 668 O 59.284 0.973213 4.00752 0
M  V30 669 H 58.625 0.381599 0.543395 0
M  V30 670 H 61.155 1.63057 1.23587 0
M  V30 671 H 61.165 1.76449 3.67872 0
M  V30 672 H 59.84 2.76493 3.10684 0
M  V30 673 H 58.417 0.999078 3.59267 0
M  V30 674 N 60.6021 -1.18246 1.0419 0
M  V30 675 C 61.5341 -2.2142 0.592088 0
M  V30 676 C 62.5471 -1.59233 -0.338909 0
M  V30 677 O 63.7361 -1.78002 -0.133231 0
M  V30 678 C 60.8361 -3.38546 -0.154854 0
M  V30 679 C 60.0091 -4.3031 0.784328 0
M  V30 680 C 59.0681 -5.26138 0.0804583 0
M  V30 681 O 58.0941 -5.64738 0.711292 0
M  V30 682 N 59.2961 -5.68261 -1.18574 0
M  V30 683 H 62.0611 -2.60636 1.47949 0
M  V30 684 H 59.6221 -1.33044 0.922544 0
M  V30 685 H 61.6141 -3.99678 -0.635606 0
M  V30 686 H 60.1841 -2.98012 -0.943811 0
M  V30 687 H 59.4041 -3.66764 1.44491 0
M  V30 688 H 60.6921 -4.8852 1.42218 0
M  V30 689 H 60.0901 -5.38957 -1.71876 0
M  V30 690 H 58.6471 -6.31584 -1.61074 0
M  V30 691 N 62.0802 -0.821533 -1.34494 0
M  V30 692 C 63.0122 -0.199946 -2.28326 0
M  V30 693 C 64.0252 0.609377 -1.50965 0
M  V30 694 O 65.2142 0.439285 -1.7301 0
M  V30 695 C 62.3142 0.738431 -3.30757 0
M  V30 696 C 61.4872 -0.0277632 -4.37391 0
M  V30 697 C 60.5462 0.831332 -5.19591 0
M  V30 698 O 59.5722 0.276822 -5.68526 0
M  V30 699 N 60.7742 2.15132 -5.39165 0
M  V30 700 H 63.5392 -1.00609 -2.82308 0
M  V30 701 H 61.1002 -0.678366 -1.47003 0
M  V30 702 H 63.0922 1.31773 -3.82646 0
M  V30 703 H 61.6622 1.44533 -2.7718 0
M  V30 704 H 60.8822 -0.788359 -3.86236 0
M  V30 705 H 62.1702 -0.555251 -5.05761 0
M  V30 706 H 61.5682 2.62559 -5.01078 0
M  V30 707 H 60.1252 2.6795 -5.94177 0
M  V30 708 N 63.5583 1.46682 -0.576371 0
M  V30 709 C 64.5083 2.27278 0.181288 0
M  V30 710 C 65.4923 1.35497 0.867721 0
M  V30 711 O 66.6843 1.59717 0.762863 0
M  V30 712 C 63.8133 3.21703 1.19841 0
M  V30 713 C 62.8993 4.20969 0.51442 0
M  V30 714 N 63.2903 5.03999 -0.426407 0
M  V30 715 C 61.5883 4.39373 0.765963 0
M  V30 716 C 62.2893 5.75812 -0.825565 0
M  V30 717 N 61.2653 5.43315 -0.176116 0
M  V30 718 H 65.0673 2.88863 -0.541785 0
M  V30 719 H 62.5813 1.57455 -0.397697 0
M  V30 720 H 64.5783 3.78145 1.75533 0
M  V30 721 H 63.2383 2.61677 1.92238 0
M  V30 722 H 64.2493 5.11659 -0.8016 0
M  V30 723 H 60.9263 3.90502 1.47698 0
M  V30 724 H 62.3163 6.52577 -1.59976 0
M  V30 725 N 65.0364 0.313813 1.54444 0
M  V30 726 C 66.4474 -0.176243 1.85866 0
M  V30 727 C 66.7984 -1.52405 1.23561 0
M  V30 728 O 65.9234 -2.09605 0.538016 0
M  V30 729 C 66.5184 -0.32657 3.37222 0
M  V30 730 C 65.0774 -0.760846 3.6863 0
M  V30 731 C 64.2244 0.123247 2.77026 0
M  V30 732 H 67.1754 0.534418 1.49431 0
M  V30 733 H 67.1964 -1.15908 3.62416 0
M  V30 734 H 66.7084 0.654531 3.82541 0
M  V30 735 H 64.8094 -1.75204 3.28838 0
M  V30 736 H 64.9224 -0.571353 4.75681 0
M  V30 737 H 63.2864 -0.399597 2.51546 0
M  V30 738 H 64.0694 1.10094 3.25168 0
M  V30 739 N 66.5145 -1.57545 0.0417849 0
M  V30 740 C 67.4445 -2.14009 -0.933929 0
M  V30 741 C 68.4255 -1.05938 -1.33083 0
M  V30 742 O 69.6105 -1.33833 -1.40721 0
M  V30 743 C 66.7405 -2.67747 -2.21199 0
M  V30 744 C 65.6945 -3.80718 -1.95544 0
M  V30 745 C 65.0205 -4.20935 -3.29724 0
M  V30 746 C 66.3205 -5.06258 -1.28452 0
M  V30 747 H 68.0145 -2.95788 -0.463645 0
M  V30 748 H 65.5605 -1.42285 -0.221573 0
M  V30 749 H 67.5135 -3.05886 -2.89848 0
M  V30 750 H 66.2375 -1.83147 -2.70416 0
M  V30 751 H 64.8965 -3.43037 -1.2931 0
M  V30 752 H 64.5445 -3.33298 -3.76724 0
M  V30 753 H 64.2445 -4.9707 -3.13361 0
M  V30 754 H 65.7685 -4.61666 -3.9962 0
M  V30 755 H 67.1825 -5.41903 -1.8712 0
M  V30 756 H 65.5795 -5.87475 -1.22445 0
M  V30 757 H 66.6495 -4.84207 -0.259219 0
M  V30 758 N 67.9926 0.231505 -1.5589 0
M  V30 759 C 69.2416 0.955346 -1.7764 0
M  V30 760 C 69.5546 1.85893 -0.608546 0
M  V30 761 O 70.7606 2.62067 -0.70943 0
M  V30 762 C 69.2166 1.74886 -3.14552 0
M  V30 763 C 68.8246 0.891915 -4.39032 0
M  V30 764 C 70.5686 2.46452 -3.45633 0
M  V30 765 C 68.4756 1.68221 -5.66971 0
M  V30 766 H 67.4056 0.360446 -0.662265 0
M  V30 767 H 70.0566 0.209516 -1.823 0
M  V30 768 H 68.4386 2.53723 -3.04041 0
M  V30 769 H 69.6126 0.144793 -4.60572 0
M  V30 770 H 67.9276 0.288863 -4.15397 0
M  V30 771 H 70.5246 3.06061 -4.38441 0
M  V30 772 H 70.8676 3.18841 -2.67668 0
M  V30 773 H 71.4006 1.74613 -3.57428 0
M  V30 774 H 68.1396 1.00178 -6.478 0
M  V30 775 H 67.6596 2.4042 -5.49507 0
M  V30 776 H 69.3386 2.24544 -6.06786 0
M  V30 777 N 69.4707 1.49531 0.497807 0
M  V30 778 C 70.7167 1.59415 1.25358 0
M  V30 779 C 71.0497 0.281422 1.9215 0
M  V30 780 O 70.3247 -0.715249 1.80871 0
M  V30 781 C 70.6077 2.75566 2.3181 0
M  V30 782 C 70.4607 4.16642 1.69498 0
M  V30 783 C 71.7797 2.87347 3.33346 0
M  V30 784 H 68.8987 0.580244 0.454408 0
M  V30 785 H 71.5407 1.81827 0.551262 0
M  V30 786 H 69.6907 2.56587 2.91711 0
M  V30 787 H 71.3627 4.47145 1.13399 0
M  V30 788 H 69.6057 4.22141 0.998978 0
M  V30 789 H 70.2767 4.93792 2.46725 0
M  V30 790 H 72.7527 3.04634 2.83438 0
M  V30 791 H 71.6287 3.70289 4.05188 0
M  V30 792 H 71.8897 1.96834 3.95865 0
M  V30 793 N 70.9488 -0.749086 1.3866 0
M  V30 794 C 72.1958 -1.50833 1.35114 0
M  V30 795 C 72.5238 -1.94415 -0.0574049 0
M  V30 796 O 71.7788 -1.66065 -1.03541 0
M  V30 797 C 72.0778 -2.7712 2.25697 0
M  V30 798 C 71.7438 -2.52477 3.73585 0
M  V30 799 C 70.4058 -2.45466 4.13884 0
M  V30 800 C 72.7578 -2.31066 4.67181 0
M  V30 801 C 70.0858 -2.15064 5.45861 0
M  V30 802 C 72.4378 -2.02183 5.9942 0
M  V30 803 C 71.1018 -1.93631 6.38798 0
M  V30 804 H 70.3718 -0.551936 0.494416 0
M  V30 805 H 73.0188 -0.860979 1.71054 0
M  V30 806 H 71.3238 -3.46528 1.82827 0
M  V30 807 H 73.0208 -3.35096 2.20254 0
M  V30 808 H 69.6108 -2.58807 3.41638 0
M  V30 809 H 73.7948 -2.35459 4.3689 0
M  V30 810 H 69.0508 -2.06954 5.75308 0
M  V30 811 H 73.2248 -1.8462 6.71482 0
M  V30 812 H 70.8518 -1.69839 7.40985 0
M  V30 813 N 72.4269 -1.23603 -0.977757 0
M  V30 814 C 73.3569 -1.04401 -2.0886 0
M  V30 815 C 74.3379 0.0399052 -1.70053 0
M  V30 816 O 75.5229 -0.125246 -1.93796 0
M  V30 817 C 72.6529 -0.637269 -3.41403 0
M  V30 818 C 71.6069 -1.66883 -3.94124 0
M  V30 819 C 70.9329 -1.11745 -5.22893 0
M  V30 820 C 72.2329 -3.06247 -4.23096 0
M  V30 821 H 73.9269 -1.97316 -2.25182 0
M  V30 822 H 71.4729 -0.950096 -1.08209 0
M  V30 823 H 73.4259 -0.48998 -4.18542 0
M  V30 824 H 72.1499 0.327557 -3.24953 0
M  V30 825 H 70.8089 -1.80416 -3.19133 0
M  V30 826 H 70.4569 -0.143527 -5.02795 0
M  V30 827 H 70.1569 -1.80672 -5.59134 0
M  V30 828 H 71.6809 -0.982067 -6.02651 0
M  V30 829 H 73.0949 -2.96001 -4.90975 0
M  V30 830 H 71.4919 -3.72436 -4.70544 0
M  V30 831 H 72.5619 -3.55041 -3.30263 0
M  V30 832 N 73.905 1.17692 -1.04816 0
M  V30 833 C 74.835 2.23777 -0.666791 0
M  V30 834 C 75.816 1.66796 0.33361 0
M  V30 835 O 77.001 1.93039 0.212042 0
M  V30 836 C 74.131 3.47281 -0.0367933 0
M  V30 837 C 73.085 4.17059 -0.961546 0
M  V30 838 C 72.411 5.34342 -0.195626 0
M  V30 839 C 73.711 4.69713 -2.28402 0
M  V30 840 H 75.405 2.55933 -1.55367 0
M  V30 841 H 72.951 1.23019 -0.748484 0
M  V30 842 H 74.904 4.20706 0.241775 0
M  V30 843 H 73.628 3.14381 0.885004 0
M  V30 844 H 72.287 3.45541 -1.22462 0
M  V30 845 H 71.935 4.97692 0.728816 0
M  V30 846 H 71.635 5.81966 -0.811775 0
M  V30 847 H 73.159 6.10553 0.0757473 0
M  V30 848 H 74.573 5.34794 -2.06563 0
M  V30 849 H 72.97 5.279 -2.8538 0
M  V30 850 H 74.04 3.86726 -2.92525 0
M  V30 851 N 75.3831 0.828654 1.34056 0
M  V30 852 C 76.3131 0.269443 2.3194 0
M  V30 853 C 77.2941 -0.617247 1.58506 0
M  V30 854 O 78.4791 -0.542931 1.86456 0
M  V30 855 C 75.6091 -0.564793 3.42677 0
M  V30 856 C 74.5631 0.225241 4.27407 0
M  V30 857 C 73.8891 -0.7321 5.29664 0
M  V30 858 C 75.1891 1.43663 5.02154 0
M  V30 859 H 76.8831 1.08728 2.7896 0
M  V30 860 H 74.4291 0.524283 1.34117 0
M  V30 861 H 76.3821 -0.966233 4.10173 0
M  V30 862 H 75.1061 -1.41574 2.9432 0
M  V30 863 H 73.7651 0.608117 3.61521 0
M  V30 864 H 73.4131 -1.57916 4.77568 0
M  V30 865 H 73.1131 -0.20767 5.87233 0
M  V30 866 H 74.6371 -1.13128 6.00029 0
M  V30 867 H 76.0511 1.1089 5.62473 0
M  V30 868 H 74.4481 1.89711 5.69324 0
M  V30 869 H 75.5181 2.21181 4.31517 0
M  V30 870 N 76.8612 -1.46375 0.584142 0
M  V30 871 C 78.1102 -2.01585 0.0679741 0
M  V30 872 C 78.4232 -1.46109 -1.30045 0
M  V30 873 O 79.6292 -1.93148 -1.90804 0
M  V30 874 C 78.0852 -3.5983 0.0709207 0
M  V30 875 C 77.6932 -4.24303 1.43775 0
M  V30 876 C 79.4372 -4.22693 -0.391228 0
M  V30 877 C 77.3442 -5.74631 1.39834 0
M  V30 878 H 76.2742 -0.753689 0.0216421 0
M  V30 879 H 78.9252 -1.68093 0.736001 0
M  V30 880 H 77.3072 -3.90405 -0.663299 0
M  V30 881 H 78.4812 -4.05335 2.19181 0
M  V30 882 H 76.7962 -3.73539 1.84004 0
M  V30 883 H 79.3932 -5.3289 -0.439524 0
M  V30 884 H 79.7362 -3.91728 -1.40906 0
M  V30 885 H 80.2692 -3.96749 0.288974 0
M  V30 886 H 77.0082 -6.10258 2.39303 0
M  V30 887 H 76.5282 -5.95858 0.686505 0
M  V30 888 H 78.2072 -6.37375 1.11187 0
M  V30 889 N 78.3393 -0.321999 -1.54275 0
M  V30 890 C 79.5853 0.281461 -2.00837 0
M  V30 891 C 79.9183 1.51909 -1.20985 0
M  V30 892 O 79.1933 1.923 -0.291733 0
M  V30 893 C 79.4763 0.617162 -3.54772 0
M  V30 894 C 79.3293 -0.631064 -4.45351 0
M  V30 895 C 80.6483 1.43542 -4.16033 0
M  V30 896 H 77.7673 0.100826 -0.730071 0
M  V30 897 H 80.4093 -0.438268 -1.84876 0
M  V30 898 H 78.5593 1.23034 -3.68504 0
M  V30 899 H 80.2313 -1.26934 -4.43492 0
M  V30 900 H 78.4743 -1.26025 -4.15091 0
M  V30 901 H 79.1453 -0.351735 -5.50878 0
M  V30 902 H 81.6213 0.917134 -4.05867 0
M  V30 903 H 80.4973 1.63907 -5.23856 0
M  V30 904 H 80.7583 2.43108 -3.69257 0
M  V30 905 N 79.8174 1.5752 -0.0501392 0
M  V30 906 C 80.7504 2.07026 0.959962 0
M  V30 907 C 81.7284 0.970539 1.30458 0
M  V30 908 O 82.9124 1.2424 1.41763 0
M  V30 909 C 80.0394 2.5099 2.27424 0
M  V30 910 C 79.0854 3.72188 2.08275 0
M  V30 911 S 79.9184 5.17888 1.36207 0
M  V30 912 C 81.0744 5.65165 2.6896 0
M  V30 913 H 81.3074 2.9238 0.538631 0
M  V30 914 H 78.8404 1.53547 0.162099 0
M  V30 915 H 80.7984 2.76982 3.02971 0
M  V30 916 H 79.4594 1.65944 2.66686 0
M  V30 917 H 78.6524 4.00866 3.05487 0
M  V30 918 H 78.2544 3.46457 1.40868 0
M  V30 919 H 80.5464 5.70687 3.65133 0
M  V30 920 H 81.4894 6.64394 2.4492 0
M  V30 921 H 81.8974 4.9289 2.75172 0
M  V30 922 N 81.2955 -0.223234 1.56011 0
M  V30 923 C 82.5435 -0.946003 1.78592 0
M  V30 924 C 82.8645 -1.84936 0.618349 0
M  V30 925 O 82.1345 -1.92473 -0.364833 0
M  V30 926 H 80.7145 -0.352298 0.658707 0
M  V30 927 H 83.3765 -0.235494 1.93472 0
M  V30 928 H 82.4725 -1.55381 2.70672 0
M  V30 929 N 82.7736 -1.49793 -0.48987 0
M  V30 930 C 83.9986 -1.63836 -1.27172 0
M  V30 931 C 84.4236 -0.31402 -1.8546 0
M  V30 932 O 83.7816 0.719803 -1.66399 0
M  V30 933 C 83.8296 -2.71797 -2.36978 0
M  V30 934 O 82.9336 -2.31744 -3.41128 0
M  V30 935 H 82.2746 -0.547997 -0.37496 0
M  V30 936 H 84.8046 -1.96053 -0.585191 0
M  V30 937 H 84.8146 -2.94305 -2.82575 0
M  V30 938 H 83.4896 -3.67923 -1.93921 0
M  V30 939 H 82.0666 -2.1961 -3.01373 0
M  V30 940 N 84.2517 0.741722 -1.39055 0
M  V30 941 C 85.4917 1.51385 -1.37338 0
M  V30 942 C 85.8557 1.91972 0.0330513 0
M  V30 943 O 87.0567 2.68229 0.175174 0
M  V30 944 C 85.3277 2.72481 -2.31276 0
M  V30 945 S 86.8867 3.62211 -2.47687 0
M  V30 946 H 83.7047 0.517906 -0.487129 0
M  V30 947 H 86.3067 0.86969 -1.7509 0
M  V30 948 H 85.0107 2.40793 -3.32336 0
M  V30 949 H 84.5417 3.41832 -1.94716 0
M  V30 950 H 86.5567 4.65812 -1.70978 0
M  V30 951 N 85.7298 1.2412 0.971189 0
M  V30 952 C 86.6598 1.05508 2.08304 0
M  V30 953 C 87.6408 -0.0308864 1.70072 0
M  V30 954 O 88.8258 0.135521 1.93727 0
M  V30 955 C 85.9558 0.655365 3.4106 0
M  V30 956 C 84.9098 1.68971 3.93234 0
M  V30 957 C 84.2358 1.14516 5.22293 0
M  V30 958 C 85.5358 3.08487 4.21465 0
M  V30 959 H 87.2298 1.98507 2.24132 0
M  V30 960 H 84.7758 0.955821 1.07704 0
M  V30 961 H 86.7288 0.51217 4.18276 0
M  V30 962 H 85.4528 -0.31032 3.25122 0
M  V30 963 H 84.1118 1.82106 3.18171 0
M  V30 964 H 83.7598 0.170189 5.02712 0
M  V30 965 H 83.4598 1.83635 5.58168 0
M  V30 966 H 84.9838 1.01401 6.02121 0
M  V30 967 H 86.3978 2.98601 4.89398 0
M  V30 968 H 84.7948 3.74926 4.68562 0
M  V30 969 H 85.8648 3.56787 3.28376 0
M  V30 970 N 87.2079 -1.17134 1.05439 0
M  V30 971 C 88.1709 -2.19439 0.661764 0
M  V30 972 C 89.1709 -1.58199 -0.288042 0
M  V30 973 O 90.3609 -1.74053 -0.0715803 0
M  V30 974 C 87.4929 -3.40889 -0.0276209 0
M  V30 975 H 88.6859 -2.55688 1.56728 0
M  V30 976 H 86.2389 -1.31259 0.848567 0
M  V30 977 H 86.9739 -3.10187 -0.94629 0
M  V30 978 H 86.7589 -3.86586 0.655238 0
M  V30 979 H 88.2489 -4.16603 -0.288342 0
M  V30 980 N 88.686 -0.835752 -1.33615 0
M  V30 981 C 89.616 -0.281739 -2.31794 0
M  V30 982 C 90.597 0.608833 -1.58831 0
M  V30 983 O 91.782 0.533035 -1.86741 0
M  V30 984 C 88.912 0.546612 -3.42971 0
M  V30 985 C 87.866 -0.247904 -4.27281 0
M  V30 986 C 87.192 0.704001 -5.30045 0
M  V30 987 C 88.492 -1.46324 -5.01385 0
M  V30 988 H 90.186 -1.10206 -2.78379 0
M  V30 989 H 87.732 -0.531388 -1.33837 0
M  V30 990 H 89.685 0.944467 -4.1068 0
M  V30 991 H 88.409 1.40011 -2.95067 0
M  V30 992 H 87.068 -0.627281 -3.61194 0
M  V30 993 H 86.716 1.55381 -4.78399 0
M  V30 994 H 86.416 0.176524 -5.87335 0
M  V30 995 H 87.94 1.09944 -6.0062 0
M  V30 996 H 89.354 -1.13871 -5.61877 0
M  V30 997 H 87.751 -1.92728 -5.6831 0
M  V30 998 H 88.821 -2.23467 -4.30338 0
M  V30 999 N 90.1641 1.46063 -0.591896 0
M  V30 1000 C 91.0941 2.33172 0.123673 0
M  V30 1001 C 92.0751 1.45897 0.87453 0
M  V30 1002 O 93.2601 1.74698 0.848181 0
M  V30 1003 C 90.3901 3.28336 1.13194 0
M  V30 1004 C 89.3441 4.25124 0.495324 0
M  V30 1005 C 88.6701 5.09863 1.61071 0
M  V30 1006 C 89.9701 5.19143 -0.573425 0
M  V30 1007 H 91.6641 2.93252 -0.603646 0
M  V30 1008 H 89.2101 1.41014 -0.291741 0
M  V30 1009 H 91.1631 3.88137 1.64097 0
M  V30 1010 H 89.8871 2.66383 1.88965 0
M  V30 1011 H 88.5461 3.66599 0.00729452 0
M  V30 1012 H 88.1941 4.44288 2.35832 0
M  V30 1013 H 87.8941 5.75417 1.19035 0
M  V30 1014 H 89.4181 5.72529 2.12233 0
M  V30 1015 H 90.8321 5.73106 -0.1491 0
M  V30 1016 H 89.2291 5.93089 -0.914636 0
M  V30 1017 H 90.2991 4.62519 -1.45617 0
M  V30 1018 N 91.6422 0.330177 1.54103 0
M  V30 1019 C 92.6052 -0.520144 2.2322 0
M  V30 1020 C 93.6052 -1.03828 1.22786 0
M  V30 1021 O 94.7952 -0.929652 1.4732 0
M  V30 1022 C 91.9272 -1.72317 2.94142 0
M  V30 1023 H 93.1202 0.0841605 2.99782 0
M  V30 1024 H 90.6732 0.0813433 1.56088 0
M  V30 1025 H 91.4082 -2.36653 2.21734 0
M  V30 1026 H 91.1932 -1.35898 3.67796 0
M  V30 1027 H 92.6832 -2.3266 3.46784 0
M  V30 1028 N 93.1203 -1.57491 0.0584922 0
M  V30 1029 C 94.3663 -1.93264 -0.614558 0
M  V30 1030 C 94.6993 -0.937717 -1.7006 0
M  V30 1031 O 93.9743 0.0351652 -1.94468 0
M  V30 1032 C 94.2573 -3.3938 -1.20386 0
M  V30 1033 C 94.1103 -4.49625 -0.125375 0
M  V30 1034 C 95.4293 -3.86039 -2.11334 0
M  V30 1035 H 92.5483 -0.702791 -0.221933 0
M  V30 1036 H 95.1903 -1.8961 0.12175 0
M  V30 1037 H 93.3403 -3.42626 -1.83139 0
M  V30 1038 H 95.0123 -4.58506 0.506971 0
M  V30 1039 H 93.2553 -4.30354 0.545672 0
M  V30 1040 H 93.9263 -5.48967 -0.577861 0
M  V30 1041 H 96.4023 -3.84716 -1.58534 0
M  V30 1042 H 95.2783 -4.88914 -2.49507 0
M  V30 1043 H 95.5393 -3.23215 -3.01636 0
M  V30 1044 N 94.5984 0.214957 -1.56127 0
M  V30 1045 C 95.8454 0.938372 -1.79446 0
M  V30 1046 C 96.1734 1.8407 -0.628378 0
M  V30 1047 O 95.4284 1.91837 0.386925 0
M  V30 1048 C 95.7274 1.80314 -3.0858 0
M  V30 1049 C 95.3934 1.05349 -4.3842 0
M  V30 1050 C 94.0554 0.846435 -4.73697 0
M  V30 1051 C 96.4074 0.524588 -5.18553 0
M  V30 1052 C 93.7354 0.098683 -5.86617 0
M  V30 1053 C 96.0874 -0.209853 -6.32252 0
M  V30 1054 C 94.7514 -0.428102 -6.66126 0
M  V30 1055 H 94.0214 0.343375 -0.656639 0
M  V30 1056 H 96.6684 0.206077 -1.90388 0
M  V30 1057 H 94.9734 2.6035 -2.92789 0
M  V30 1058 H 96.6704 2.36513 -3.23825 0
M  V30 1059 H 93.2604 1.22486 -4.10725 0
M  V30 1060 H 97.4444 0.672008 -4.91729 0
M  V30 1061 H 92.7004 -0.0805753 -6.11347 0
M  V30 1062 H 96.8744 -0.627157 -6.9357 0
M  V30 1063 H 94.5014 -1.00944 -7.53468 0
M  V30 1064 N 96.0765 1.50051 0.48192 0
M  V30 1065 C 97.3235 1.60498 1.23477 0
M  V30 1066 C 97.6515 0.300331 1.92167 0
M  V30 1067 O 96.9065 -0.713094 1.82246 0
M  V30 1068 C 97.2055 2.72717 2.30998 0
M  V30 1069 C 96.8715 4.13572 1.79636 0
M  V30 1070 C 95.5335 4.519 1.65348 0
M  V30 1071 C 97.8855 5.01649 1.41412 0
M  V30 1072 C 95.2135 5.76057 1.11244 0
M  V30 1073 C 97.5655 6.26343 0.887538 0
M  V30 1074 C 96.2295 6.63483 0.731207 0
M  V30 1075 H 95.4995 0.587303 0.451836 0
M  V30 1076 H 98.1465 1.83948 0.532468 0
M  V30 1077 H 96.4515 2.43312 3.07094 0
M  V30 1078 H 98.1485 2.78006 2.88988 0
M  V30 1079 H 94.7385 3.83329 1.91721 0
M  V30 1080 H 98.9225 4.72679 1.51289 0
M  V30 1081 H 94.1785 6.03516 0.978686 0
M  V30 1082 H 98.3525 6.93958 0.582654 0
M  V30 1083 H 95.9795 7.59568 0.309806 0
M  V30 1084 N 97.5546 -0.734337 1.39446 0
M  V30 1085 C 98.5176 -1.83004 1.37994 0
M  V30 1086 C 99.5176 -1.58397 0.276938 0
M  V30 1087 O 100.708 -1.65785 0.534875 0
M  V30 1088 C 97.8396 -3.20802 1.1532 0
M  V30 1089 H 99.0326 -1.85694 2.35494 0
M  V30 1090 H 96.5856 -0.938059 1.25021 0
M  V30 1091 H 97.3206 -3.23772 0.185036 0
M  V30 1092 H 97.1056 -3.4006 1.95197 0
M  V30 1093 H 98.5956 -4.00862 1.17046 0
M  V30 1094 N 99.0327 -1.24633 -0.964593 0
M  V30 1095 C 99.9627 -1.06611 -2.07741 0
M  V30 1096 C 100.944 0.0218666 -1.70086 0
M  V30 1097 O 102.129 -0.145793 -1.93652 0
M  V30 1098 C 99.2587 -0.673444 -3.40708 0
M  V30 1099 C 98.2127 -1.71054 -3.92332 0
M  V30 1100 C 97.5387 -1.17285 -5.21678 0
M  V30 1101 C 98.8387 -3.10718 -4.19824 0
M  V30 1102 H 100.533 -1.99693 -2.23076 0
M  V30 1103 H 98.0787 -0.96152 -1.07195 0
M  V30 1104 H 100.032 -0.534345 -4.17998 0
M  V30 1105 H 98.7557 0.293073 -3.25282 0
M  V30 1106 H 97.4147 -1.83791 -3.17201 0
M  V30 1107 H 97.0627 -0.196847 -5.02615 0
M  V30 1108 H 96.7627 -1.86592 -5.57187 0
M  V30 1109 H 98.2867 -1.04593 -6.01575 0
M  V30 1110 H 99.7007 -3.01192 -4.87808 0
M  V30 1111 H 98.0977 -3.77406 -4.66567 0
M  V30 1112 H 99.1677 -3.58524 -3.26479 0
M  V30 1113 N 100.511 1.16574 -1.06058 0
M  V30 1114 C 101.759 1.86677 -0.77434 0
M  V30 1115 C 102.08 1.81959 0.701147 0
M  V30 1116 O 101.35 1.2515 1.50713 0
M  V30 1117 H 99.9298 0.691134 -0.283449 0
M  V30 1118 H 102.592 1.41378 -1.34158 0
M  V30 1119 H 101.688 2.92181 -1.09711 0
M  V30 1120 N 101.989 0.842826 1.3317 0
M  V30 1121 C 102.919 0.294028 2.31641 0
M  V30 1122 C 103.9 -0.600401 1.59151 0
M  V30 1123 O 105.085 -0.523124 1.87022 0
M  V30 1124 C 102.215 -0.528416 3.43257 0
M  V30 1125 C 101.169 0.27056 4.27144 0
M  V30 1126 C 100.495 -0.675881 5.30411 0
M  V30 1127 C 101.795 1.48981 5.00602 0
M  V30 1128 H 103.489 1.11681 2.77791 0
M  V30 1129 H 101.035 0.538478 1.33553 0
M  V30 1130 H 102.988 -0.922674 4.11175 0
M  V30 1131 H 101.712 -1.38445 2.95805 0
M  V30 1132 H 100.371 0.646427 3.60856 0
M  V30 1133 H 100.019 -1.52842 4.79216 0
M  V30 1134 H 99.7189 -0.145374 5.8742 0
M  V30 1135 H 101.243 -1.06757 6.01195 0
M  V30 1136 H 102.657 1.16849 5.61266 0
M  V30 1137 H 101.054 1.95739 5.6728 0
M  V30 1138 H 102.124 2.25746 4.29147 0
M  V30 1139 N 103.467 -1.45747 0.599634 0
M  V30 1140 C 104.377 -2.34262 -0.125888 0
M  V30 1141 C 105.393 -1.50768 -0.868625 0
M  V30 1142 O 106.569 -1.83592 -0.828003 0
M  V30 1143 C 103.634 -3.28252 -1.11587 0
M  V30 1144 C 102.695 -4.27651 -0.375956 0
M  V30 1145 C 101.928 -5.1715 -1.31877 0
M  V30 1146 O 102.151 -5.09916 -2.55621 0
M  V30 1147 O 101.085 -5.96286 -0.820157 0
M  V30 1148 H 104.911 -2.97688 0.601315 0
M  V30 1149 H 102.496 -1.44999 0.359934 0
M  V30 1150 H 104.378 -3.86191 -1.68626 0
M  V30 1151 H 103.053 -2.67401 -1.82424 0
M  V30 1152 H 101.96 -3.7335 0.236698 0
M  V30 1153 H 103.293 -4.91334 0.29177 0
M  V30 1154 N 104.945 -0.338344 -1.53925 0
M  V30 1155 C 106.191 0.260143 -2.01125 0
M  V30 1156 C 106.524 1.50617 -1.22589 0
M  V30 1157 O 105.799 1.91979 -0.312113 0
M  V30 1158 C 106.082 0.579499 -3.55407 0
M  V30 1159 C 105.935 -0.678264 -4.44657 0
M  V30 1160 C 107.254 1.39122 -4.17532 0
M  V30 1161 H 104.373 0.0930772 -0.731099 0
M  V30 1162 H 107.015 -0.457852 -1.84401 0
M  V30 1163 H 105.165 1.19118 -3.69788 0
M  V30 1164 H 106.837 -1.31631 -4.42121 0
M  V30 1165 H 105.08 -1.3042 -4.13731 0
M  V30 1166 H 105.751 -0.410143 -5.50474 0
M  V30 1167 H 108.227 0.874035 -4.06817 0
M  V30 1168 H 107.103 1.58342 -5.25565 0
M  V30 1169 H 107.364 2.39178 -3.71815 0
M  V30 1170 N 106.423 1.57458 -0.0668435 0
M  V30 1171 C 107.333 2.15937 0.916975 0
M  V30 1172 C 108.349 1.12123 1.33058 0
M  V30 1173 O 109.525 1.44366 1.40429 0
M  V30 1174 C 106.59 2.70547 2.16807 0
M  V30 1175 C 105.651 3.89215 1.81135 0
M  V30 1176 C 104.884 4.41211 3.0028 0
M  V30 1177 O 105.107 3.92225 4.14144 0
M  V30 1178 O 104.041 5.32605 2.80384 0
M  V30 1179 H 107.867 3.00354 0.449561 0
M  V30 1180 H 105.452 1.48584 0.155949 0
M  V30 1181 H 107.334 3.0557 2.90181 0
M  V30 1182 H 106.009 1.89192 2.62656 0
M  V30 1183 H 104.916 3.59054 1.05028 0
M  V30 1184 H 106.249 4.71848 1.40073 0
M  V30 1185 N 107.901 -0.206675 1.56239 0
M  V30 1186 C 109.178 -0.954051 1.70755 0
M  V30 1187 C 109.558 -2.01841 0.618353 0
M  V30 1188 O 108.906 -2.25444 -0.372434 0
M  V30 1189 C 109.116 -1.551 3.12642 0
M  V30 1190 C 110.464 -2.03757 3.72516 0
M  V30 1191 O 111.488 -1.64965 3.15698 0
M  V30 1192 O 110.347 -2.75103 4.72208 0
M  V30 1193 H 107.441 -0.446636 0.696021 0
M  V30 1194 H 109.987 -0.197283 1.68549 0
M  V30 1195 H 108.759 -0.783212 3.83382 0
M  V30 1196 H 108.382 -2.37291 3.19028 0
M  V30 1197 N 109.379 -1.50304 -0.473955 0
M  V30 1198 C 110.329 -1.65347 -1.56985 0
M  V30 1199 C 111.313 -0.508176 -1.52664 0
M  V30 1200 O 112.505 -0.762446 -1.59737 0
M  V30 1201 C 109.634 -1.74832 -2.95447 0
M  V30 1202 C 108.72 -2.95028 -3.04662 0
M  V30 1203 N 109.111 -4.18747 -2.83698 0
M  V30 1204 C 107.409 -2.93527 -3.35795 0
M  V30 1205 C 108.11 -4.99687 -2.97805 0
M  V30 1206 N 107.086 -4.33585 -3.2788 0
M  V30 1207 H 110.888 -2.58698 -1.39472 0
M  V30 1208 H 108.402 -1.47449 -0.680629 0
M  V30 1209 H 110.399 -1.83712 -3.7424 0
M  V30 1210 H 109.059 -0.826376 -3.14008 0
M  V30 1211 H 110.07 -4.48291 -2.59337 0
M  V30 1212 H 106.747 -2.10821 -3.60362 0
M  V30 1213 H 108.137 -6.08057 -2.85861 0
M  V30 1214 N 110.857 0.726932 -1.39834 0
M  V30 1215 C 112.103 1.48884 -1.377 0
M  V30 1216 C 112.436 1.94185 0.0244852 0
M  V30 1217 O 111.711 1.67361 0.990986 0
M  V30 1218 C 111.994 2.72288 -2.3565 0
M  V30 1219 C 111.847 2.32956 -3.84775 0
M  V30 1220 C 113.166 3.74414 -2.31306 0
M  V30 1221 H 110.285 0.540062 -0.5015 0
M  V30 1222 H 112.927 0.830547 -1.70886 0
M  V30 1223 H 111.077 3.28457 -2.07481 0
M  V30 1224 H 112.749 1.82356 -4.23726 0
M  V30 1225 H 110.992 1.65088 -4.01159 0
M  V30 1226 H 111.663 3.21362 -4.4881 0
M  V30 1227 H 114.139 3.27849 -2.56231 0
M  V30 1228 H 113.015 4.58414 -3.01907 0
M  V30 1229 H 113.276 4.21909 -1.32081 0
M  V30 1230 N 112.336 1.25143 0.95797 0
M  V30 1231 C 113.299 1.05321 2.03569 0
M  V30 1232 C 114.299 0.007152 1.60798 0
M  V30 1233 O 115.489 0.24903 1.72411 0
M  V30 1234 C 112.621 0.598394 3.35607 0
M  V30 1235 H 113.814 2.00986 2.22586 0
M  V30 1236 H 111.367 1.07502 1.13459 0
M  V30 1237 H 112.102 -0.361014 3.22284 0
M  V30 1238 H 111.887 1.35351 3.67998 0
M  V30 1239 H 113.377 0.48104 4.1482 0
M  V30 1240 N 113.814 -1.1601 1.06675 0
M  V30 1241 C 115.061 -1.86633 0.785781 0
M  V30 1242 C 115.389 -1.81929 -0.687896 0
M  V30 1243 O 114.644 -1.23253 -1.52011 0
M  V30 1244 C 114.943 -3.35547 1.23057 0
M  V30 1245 C 114.609 -3.60448 2.70902 0
M  V30 1246 C 113.271 -3.66954 3.11285 0
M  V30 1247 C 115.623 -3.7071 3.66365 0
M  V30 1248 C 112.951 -3.81225 4.45965 0
M  V30 1249 C 115.303 -3.86503 5.00797 0
M  V30 1250 C 113.967 -3.91252 5.40813 0
M  V30 1251 H 113.237 -0.682937 0.287538 0
M  V30 1252 H 115.884 -1.37146 1.33654 0
M  V30 1253 H 114.189 -3.87193 0.59907 0
M  V30 1254 H 115.886 -3.88583 0.990163 0
M  V30 1255 H 112.476 -3.56021 2.38636 0
M  V30 1256 H 116.66 -3.64991 3.36296 0
M  V30 1257 H 111.916 -3.83155 4.76447 0
M  V30 1258 H 116.09 -3.93385 5.74649 0
M  V30 1259 H 113.717 -4.02062 6.45174 0
M  V30 1260 N 115.292 -0.849877 -1.32721 0
M  V30 1261 C 116.222 -0.306308 -2.31482 0
M  V30 1262 C 117.203 0.591952 -1.59468 0
M  V30 1263 O 118.388 0.513199 -1.87296 0
M  V30 1264 C 115.518 0.510204 -3.43532 0
M  V30 1265 C 114.472 -0.293209 -4.26994 0
M  V30 1266 C 113.798 0.647743 -5.30762 0
M  V30 1267 C 115.098 -1.51634 -4.99804 0
M  V30 1268 H 116.792 -1.13153 -2.77195 0
M  V30 1269 H 114.338 -0.545553 -1.33266 0
M  V30 1270 H 116.291 0.900856 -4.11658 0
M  V30 1271 H 115.015 1.36874 -2.96535 0
M  V30 1272 H 113.674 -0.665555 -3.60508 0
M  V30 1273 H 113.322 1.50299 -4.8002 0
M  V30 1274 H 113.022 0.11422 -5.87489 0
M  V30 1275 H 114.546 1.03567 -6.01753 0
M  V30 1276 H 115.96 -1.19824 -5.60638 0
M  V30 1277 H 114.357 -1.98745 -5.66234 0
M  V30 1278 H 115.427 -2.28018 -4.27943 0
M  V30 1279 N 116.77 1.45427 -0.607355 0
M  V30 1280 C 118.019 2.01452 -0.100036 0
M  V30 1281 C 118.332 1.48159 1.27704 0
M  V30 1282 O 119.538 1.96159 1.87707 0
M  V30 1283 C 117.994 3.59672 -0.128158 0
M  V30 1284 C 117.602 4.21962 -1.50507 0
M  V30 1285 C 119.346 4.23262 0.323932 0
M  V30 1286 C 117.253 5.72333 -1.48959 0
M  V30 1287 H 116.183 0.75325 -0.0336299 0
M  V30 1288 H 118.834 1.66901 -0.76265 0
M  V30 1289 H 117.216 3.91411 0.601105 0
M  V30 1290 H 118.39 4.01796 -2.25602 0
M  V30 1291 H 116.705 3.70565 -1.89923 0
M  V30 1292 H 119.302 5.33522 0.354691 0
M  V30 1293 H 119.645 3.93921 1.34656 0
M  V30 1294 H 120.178 3.96239 -0.352056 0
M  V30 1295 H 116.917 6.06373 -2.48981 0
M  V30 1296 H 116.437 5.94691 -0.781214 0
M  V30 1297 H 118.116 6.35525 -1.21313 0
M  V30 1298 N 118.248 0.346503 1.53744 0
M  V30 1299 C 119.476 -0.25041 2.05379 0
M  V30 1300 C 119.891 -1.43979 1.22129 0
M  V30 1301 O 119.248 -1.80677 0.257321 0
M  V30 1302 C 119.299 -0.662575 3.55376 0
M  V30 1303 O 119.02 0.479515 4.35468 0
M  V30 1304 C 120.521 -1.31989 4.23195 0
M  V30 1305 H 117.741 -0.0478198 0.669294 0
M  V30 1306 H 120.285 0.499346 1.9831 0
M  V30 1307 H 118.44 -1.36227 3.62658 0
M  V30 1308 H 118.854 0.15037 5.24284 0
M  V30 1309 H 120.328 -1.55902 5.29527 0
M  V30 1310 H 120.805 -2.27436 3.75725 0
M  V30 1311 H 121.411 -0.662154 4.20114 0
M  V30 1312 N 119.726 -1.57421 0.075193 0
M  V30 1313 C 120.972 -1.93905 -0.594025 0
M  V30 1314 C 121.305 -0.955701 -1.69056 0
M  V30 1315 O 120.58 0.0145373 -1.94495 0
M  V30 1316 C 120.863 -3.40638 -1.1678 0
M  V30 1317 C 120.716 -4.49733 -0.0776792 0
M  V30 1318 C 122.035 -3.88259 -2.07228 0
M  V30 1319 H 119.154 -0.705105 -0.214466 0
M  V30 1320 H 121.796 -1.8947 0.141854 0
M  V30 1321 H 119.946 -3.44549 -1.79494 0
M  V30 1322 H 121.618 -4.57942 0.555573 0
M  V30 1323 H 119.861 -4.29751 0.591286 0
M  V30 1324 H 120.532 -5.49549 -0.519603 0
M  V30 1325 H 123.008 -3.86376 -1.54445 0
M  V30 1326 H 121.884 -4.91533 -2.44308 0
M  V30 1327 H 122.145 -3.26396 -2.98191 0
M  V30 1328 N 121.204 0.198386 -1.56346 0
M  V30 1329 C 122.615 0.763358 -1.70381 0
M  V30 1330 C 122.966 1.83995 -0.681203 0
M  V30 1331 O 122.091 2.15785 0.16305 0
M  V30 1332 C 122.686 1.39143 -3.08909 0
M  V30 1333 C 121.245 1.90352 -3.2472 0
M  V30 1334 C 120.392 0.772233 -2.6633 0
M  V30 1335 H 123.343 -0.0266377 -1.58678 0
M  V30 1336 H 123.364 2.26076 -3.06055 0
M  V30 1337 H 122.876 0.607638 -3.83314 0
M  V30 1338 H 120.977 2.71461 -2.55225 0
M  V30 1339 H 121.09 2.06757 -4.3219 0
M  V30 1340 H 119.454 1.18566 -2.2542 0
M  V30 1341 H 120.237 0.00073556 -3.433 0
M  V30 1342 N 122.682 1.50554 0.465978 0
M  V30 1343 C 123.91 1.65563 1.24083 0
M  V30 1344 C 124.325 0.341051 1.85694 0
M  V30 1345 O 123.682 -0.677543 1.69457 0
M  V30 1346 C 123.733 2.75051 2.34583 0
M  V30 1347 O 123.454 4.01413 1.75497 0
M  V30 1348 C 124.955 3.01078 3.25372 0
M  V30 1349 H 122.175 0.55638 0.375077 0
M  V30 1350 H 124.719 1.96807 0.555624 0
M  V30 1351 H 122.874 2.46486 2.9887 0
M  V30 1352 H 123.288 4.62002 2.48303 0
M  V30 1353 H 124.762 3.81339 3.99105 0
M  V30 1354 H 125.239 2.12349 3.84453 0
M  V30 1355 H 125.845 3.31194 2.66816 0
M  V30 1356 N 124.16 -0.719506 1.40217 0
M  V30 1357 C 125.123 -1.8153 1.39927 0
M  V30 1358 C 126.123 -1.58095 0.293723 0
M  V30 1359 O 127.313 -1.65209 0.552429 0
M  V30 1360 C 124.445 -3.19561 1.18716 0
M  V30 1361 H 125.638 -1.83186 2.37451 0
M  V30 1362 H 123.191 -0.924746 1.26008 0
M  V30 1363 H 123.926 -3.23557 0.219366 0
M  V30 1364 H 123.711 -3.3797 1.98793 0
M  V30 1365 H 125.201 -3.99598 1.21291 0
M  V30 1366 N 125.638 -1.25649 -0.95132 0
M  V30 1367 C 126.568 -1.08808 -2.06599 0
M  V30 1368 C 127.549 0.00382547 -1.701 0
M  V30 1369 O 128.734 -0.166325 -1.93486 0
M  V30 1370 C 125.864 -0.709542 -3.39975 0
M  V30 1371 C 124.818 -1.75206 -3.90496 0
M  V30 1372 C 124.144 -1.22811 -5.20405 0
M  V30 1373 C 125.444 -3.15153 -4.16504 0
M  V30 1374 H 127.138 -2.02048 -2.20946 0
M  V30 1375 H 124.684 -0.972835 -1.06169 0
M  V30 1376 H 126.637 -0.578649 -4.17408 0
M  V30 1377 H 125.361 0.258556 -3.25575 0
M  V30 1378 H 124.02 -1.87145 -3.15234 0
M  V30 1379 H 123.668 -0.250145 -5.02378 0
M  V30 1380 H 123.368 -1.92492 -5.55176 0
M  V30 1381 H 124.892 -1.10968 -6.00432 0
M  V30 1382 H 126.306 -3.06349 -4.84586 0
M  V30 1383 H 124.703 -3.82333 -4.62538 0
M  V30 1384 H 125.773 -3.61966 -3.22658 0
M  V30 1385 N 127.117 1.15442 -1.07289 0
M  V30 1386 C 128.08 2.18358 -0.696591 0
M  V30 1387 C 129.08 1.58637 0.262837 0
M  V30 1388 O 130.27 1.74145 0.0438809 0
M  V30 1389 C 127.402 3.4089 -0.0266151 0
M  V30 1390 H 128.595 2.53162 -1.60776 0
M  V30 1391 H 126.148 1.29893 -0.869342 0
M  V30 1392 H 126.883 3.11653 0.896822 0
M  V30 1393 H 126.668 3.85495 -0.716657 0
M  V30 1394 H 128.158 4.17009 0.222028 0
M  V30 1395 N 128.595 0.856903 1.32268 0
M  V30 1396 C 129.844 0.457599 1.96441 0
M  V30 1397 C 130.157 -0.992426 1.68553 0
M  V30 1398 O 131.363 -1.49727 2.26482 0
M  V30 1399 C 129.819 0.767358 3.51624 0
M  V30 1400 C 129.427 2.23326 3.88367 0
M  V30 1401 C 131.171 0.435887 4.22256 0
M  V30 1402 C 129.078 2.48613 5.36606 0
M  V30 1403 H 128.008 0.167387 0.735185 0
M  V30 1404 H 130.659 1.048 1.5063 0
M  V30 1405 H 129.041 0.106367 3.95857 0
M  V30 1406 H 130.215 2.93623 3.55137 0
M  V30 1407 H 128.53 2.52948 3.30766 0
M  V30 1408 H 131.127 0.602202 5.31298 0
M  V30 1409 H 131.47 -0.622672 4.11617 0
M  V30 1410 H 132.003 1.05286 3.83614 0
M  V30 1411 H 128.742 3.53101 5.52268 0
M  V30 1412 H 128.262 1.82896 5.71235 0
M  V30 1413 H 129.941 2.32676 6.03714 0
M  V30 1414 N 130.073 -1.45103 0.615059 0
M  V30 1415 C 131.32 -2.02183 0.113179 0
M  V30 1416 C 131.648 -1.48249 -1.25906 0
M  V30 1417 O 130.903 -0.650265 -1.84581 0
M  V30 1418 C 131.202 -3.57386 0.0318797 0
M  V30 1419 C 130.868 -4.30505 1.34077 0
M  V30 1420 C 129.53 -4.50197 1.69929 0
M  V30 1421 C 131.882 -4.72238 2.20546 0
M  V30 1422 C 129.21 -5.08881 2.91988 0
M  V30 1423 C 131.562 -5.32272 3.41861 0
M  V30 1424 C 130.226 -5.50187 3.77956 0
M  V30 1425 H 129.496 -0.739842 0.0414151 0
M  V30 1426 H 132.143 -1.74073 0.798168 0
M  V30 1427 H 130.448 -3.84817 -0.736409 0
M  V30 1428 H 132.145 -3.99264 -0.372712 0
M  V30 1429 H 128.735 -4.15496 1.05173 0
M  V30 1430 H 132.919 -4.56751 1.94146 0
M  V30 1431 H 128.175 -5.20939 3.2005 0
M  V30 1432 H 132.349 -5.63563 4.09109 0
M  V30 1433 H 129.976 -5.95427 4.72622 0
M  V30 1434 N 131.551 -0.354651 -1.53558 0
M  V30 1435 C 132.798 0.238443 -2.01091 0
M  V30 1436 C 133.126 1.49663 -1.24222 0
M  V30 1437 O 132.381 1.93049 -0.321003 0
M  V30 1438 C 132.68 0.587121 -3.52545 0
M  V30 1439 C 132.346 -0.575472 -4.47213 0
M  V30 1440 C 131.008 -0.894497 -4.72813 0
M  V30 1441 C 133.36 -1.35489 -5.03281 0
M  V30 1442 C 130.688 -1.99511 -5.51736 0
M  V30 1443 C 133.04 -2.44583 -5.83405 0
M  V30 1444 C 131.704 -2.77033 -6.07296 0
M  V30 1445 H 130.974 0.0872526 -0.735845 0
M  V30 1446 H 133.621 -0.484859 -1.8526 0
M  V30 1447 H 131.926 1.39129 -3.66265 0
M  V30 1448 H 133.623 1.05809 -3.86789 0
M  V30 1449 H 130.213 -0.316774 -4.27428 0
M  V30 1450 H 134.397 -1.12167 -4.83459 0
M  V30 1451 H 129.653 -2.25063 -5.68469 0
M  V30 1452 H 133.827 -3.05401 -6.25862 0
M  V30 1453 H 131.454 -3.6244 -6.68237 0
M  V30 1454 N 133.029 1.57378 -0.0835403 0
M  V30 1455 C 133.992 2.12252 0.864959 0
M  V30 1456 C 134.992 1.04916 1.21858 0
M  V30 1457 O 136.182 1.30853 1.14991 0
M  V30 1458 C 133.314 2.63358 2.16461 0
M  V30 1459 H 134.507 2.97371 0.388676 0
M  V30 1460 H 132.06 1.55423 0.165317 0
M  V30 1461 H 132.795 1.81727 2.686 0
M  V30 1462 H 132.58 3.41826 1.92087 0
M  V30 1463 H 134.07 3.05847 2.84337 0
M  V30 1464 N 134.507 -0.190092 1.56449 0
M  V30 1465 C 135.756 -0.907912 1.80111 0
M  V30 1466 C 136.069 -1.84214 0.657619 0
M  V30 1467 O 137.275 -2.60094 0.778663 0
M  V30 1468 C 135.731 -1.66485 3.19078 0
M  V30 1469 C 135.339 -0.7752 4.41242 0
M  V30 1470 C 137.083 -2.37201 3.52045 0
M  V30 1471 C 134.99 -1.53129 5.71231 0
M  V30 1472 H 133.92 -0.34276 0.671589 0
M  V30 1473 H 136.571 -0.161109 1.82791 0
M  V30 1474 H 134.953 -2.45572 3.10661 0
M  V30 1475 H 136.127 -0.0226298 4.60794 0
M  V30 1476 H 134.442 -0.178627 4.16017 0
M  V30 1477 H 137.039 -2.94329 4.46402 0
M  V30 1478 H 137.382 -3.11632 2.76028 0
M  V30 1479 H 137.915 -1.65075 3.61932 0
M  V30 1480 H 134.654 -0.82967 6.50228 0
M  V30 1481 H 134.174 -2.25767 5.55688 0
M  V30 1482 H 135.853 -2.08377 6.12526 0
M  V30 1483 N 135.985 -1.50799 -0.457987 0
M  V30 1484 C 137.232 -1.62442 -1.20908 0
M  V30 1485 C 137.56 -0.330865 -1.91665 0
M  V30 1486 O 136.815 0.68401 -1.83357 0
M  V30 1487 C 137.114 -2.76358 -2.2663 0
M  V30 1488 C 136.78 -4.16378 -1.73033 0
M  V30 1489 C 135.442 -4.54473 -1.58138 0
M  V30 1490 C 137.794 -5.03836 -1.33413 0
M  V30 1491 C 135.122 -5.77754 -1.02065 0
M  V30 1492 C 137.474 -6.27676 -0.78778 0
M  V30 1493 C 136.138 -6.64562 -0.625561 0
M  V30 1494 H 135.408 -0.594417 -0.442435 0
M  V30 1495 H 138.055 -1.84772 -0.503136 0
M  V30 1496 H 136.36 -2.48167 -3.03184 0
M  V30 1497 H 138.057 -2.82568 -2.84528 0
M  V30 1498 H 134.647 -3.86331 -1.85598 0
M  V30 1499 H 138.831 -4.75026 -1.4375 0
M  V30 1500 H 134.087 -6.04997 -0.882547 0
M  V30 1501 H 138.261 -6.94797 -0.472177 0
M  V30 1502 H 135.888 -7.59965 -0.188926 0
M  V30 1503 N 137.463 0.71206 -1.40597 0
M  V30 1504 C 138.712 1.46754 -1.38369 0
M  V30 1505 C 139.025 1.95598 0.0097839 0
M  V30 1506 O 140.231 2.71059 0.154677 0
M  V30 1507 C 138.687 2.65289 -2.43207 0
M  V30 1508 C 138.295 2.23301 -3.88382 0
M  V30 1509 C 140.039 3.43008 -2.50091 0
M  V30 1510 C 137.946 3.38696 -4.84808 0
M  V30 1511 H 136.876 0.55118 -0.514506 0
M  V30 1512 H 139.527 0.774616 -1.66349 0
M  V30 1513 H 137.909 3.36769 -2.08332 0
M  V30 1514 H 139.083 1.59218 -4.32419 0
M  V30 1515 H 137.398 1.58618 -3.85006 0
M  V30 1516 H 139.995 4.28881 -3.1932 0
M  V30 1517 H 140.338 3.87065 -1.53253 0
M  V30 1518 H 140.871 2.78574 -2.83974 0
M  V30 1519 H 137.61 2.99668 -5.82992 0
M  V30 1520 H 137.13 4.01683 -4.45433 0
M  V30 1521 H 138.809 4.04712 -5.04794 0
M  V30 1522 N 138.941 1.26152 0.944643 0
M  V30 1523 C 139.871 1.09902 2.06019 0
M  V30 1524 C 140.852 0.00519538 1.70099 0
M  V30 1525 O 142.037 0.176583 1.93396 0
M  V30 1526 C 139.167 0.727562 3.39594 0
M  V30 1527 C 138.121 1.77274 3.89561 0
M  V30 1528 C 137.447 1.25569 5.19747 0
M  V30 1529 C 138.747 3.17357 4.14827 0
M  V30 1530 H 140.441 2.03217 2.19871 0
M  V30 1531 H 137.987 0.978452 1.05652 0
M  V30 1532 H 139.94 0.600777 4.17095 0
M  V30 1533 H 138.664 -0.241287 3.25707 0
M  V30 1534 H 137.323 1.88814 3.14237 0
M  V30 1535 H 136.971 0.276783 5.02238 0
M  V30 1536 H 136.671 1.95433 5.54148 0
M  V30 1537 H 138.195 1.1415 5.99835 0
M  V30 1538 H 139.609 3.08914 4.82954 0
M  V30 1539 H 138.006 3.84781 4.60504 0
M  V30 1540 H 139.076 3.63673 3.20734 0
M  V30 1541 N 140.419 -1.14872 1.07899 0
M  V30 1542 C 141.665 -1.86064 0.806725 0
M  V30 1543 C 141.998 -1.82434 -0.665706 0
M  V30 1544 O 141.273 -1.25138 -1.48899 0
M  V30 1545 C 141.556 -3.34929 1.32267 0
M  V30 1546 C 141.409 -3.47161 2.86006 0
M  V30 1547 C 142.728 -4.29863 0.943717 0
M  V30 1548 H 139.847 -0.675591 0.294526 0
M  V30 1549 H 142.489 -1.34925 1.33773 0
M  V30 1550 H 140.639 -3.78611 0.870974 0
M  V30 1551 H 142.311 -3.12302 3.39507 0
M  V30 1552 H 140.554 -2.88539 3.23925 0
M  V30 1553 H 141.225 -4.51777 3.17177 0
M  V30 1554 H 143.701 -3.9417 1.33302 0
M  V30 1555 H 142.577 -5.32494 1.33198 0
M  V30 1556 H 142.838 -4.41846 -0.149796 0
M  V30 1557 N 141.898 -0.863906 -1.31812 0
M  V30 1558 C 143.138 -0.47825 -1.98726 0
M  V30 1559 C 143.502 0.950397 -1.66828 0
M  V30 1560 O 144.703 1.44109 -2.26905 0
M  V30 1561 C 142.974 -0.721134 -3.50049 0
M  V30 1562 S 144.533 -0.434432 -4.36644 0
M  V30 1563 H 141.351 -0.178773 -0.688158 0
M  V30 1564 H 143.953 -1.11862 -1.60334 0
M  V30 1565 H 142.657 -1.75981 -3.70755 0
M  V30 1566 H 142.188 -0.0675315 -3.93342 0
M  V30 1567 H 144.203 0.735786 -4.90714 0
M  V30 1568 N 143.376 1.44774 -0.622745 0
M  V30 1569 C 144.625 2.01334 -0.121397 0
M  V30 1570 C 144.938 1.49505 1.26125 0
M  V30 1571 O 146.144 1.98139 1.85616 0
M  V30 1572 C 144.6 3.59516 -0.166298 0
M  V30 1573 C 144.208 4.20342 -1.54974 0
M  V30 1574 C 145.952 4.23582 0.279021 0
M  V30 1575 C 143.859 5.70721 -1.55021 0
M  V30 1576 H 142.789 0.752851 -0.0416172 0
M  V30 1577 H 145.44 1.66083 -0.780309 0
M  V30 1578 H 143.822 3.92027 0.559557 0
M  V30 1579 H 144.996 3.99381 -2.29851 0
M  V30 1580 H 143.311 3.68529 -1.93843 0
M  V30 1581 H 145.908 5.33868 0.298083 0
M  V30 1582 H 146.251 3.95327 1.30471 0
M  V30 1583 H 146.784 3.95843 -0.394063 0
M  V30 1584 H 143.523 6.03698 -2.55399 0
M  V30 1585 H 143.043 5.93829 -0.844245 0
M  V30 1586 H 144.722 6.34203 -1.28047 0
M  V30 1587 N 144.854 0.36279 1.53368 0
M  V30 1588 C 145.764 -0.492994 2.29362 0
M  V30 1589 C 146.78 -1.09507 1.35219 0
M  V30 1590 O 147.956 -1.10662 1.68273 0
M  V30 1591 C 145.021 -1.61855 3.066 0
M  V30 1592 C 144.082 -1.04429 4.16405 0
M  V30 1593 C 143.315 -2.11621 4.89951 0
M  V30 1594 O 143.538 -3.32684 4.63333 0
M  V30 1595 O 142.472 -1.74835 5.75948 0
M  V30 1596 H 146.298 0.125331 3.03441 0
M  V30 1597 H 143.883 0.127253 1.48857 0
M  V30 1598 H 145.765 -2.27302 3.54841 0
M  V30 1599 H 144.44 -2.22233 2.3536 0
M  V30 1600 H 143.347 -0.353819 3.72423 0
M  V30 1601 H 144.68 -0.485113 4.89804 0
M  V30 1602 N 146.332 -1.57332 0.0918853 0
M  V30 1603 C 147.557 -1.98995 -0.584442 0
M  V30 1604 C 147.982 -0.970528 -1.61128 0
M  V30 1605 O 147.34 0.0613904 -1.81196 0
M  V30 1606 C 147.388 -3.39636 -1.21161 0
M  V30 1607 O 146.492 -3.40447 -2.32744 0
M  V30 1608 H 145.833 -0.647165 -0.148572 0
M  V30 1609 H 148.363 -2.03873 0.172347 0
M  V30 1610 H 148.373 -3.7726 -1.55367 0
M  V30 1611 H 147.048 -4.13356 -0.459313 0
M  V30 1612 H 145.625 -3.14614 -2.0018 0
M  V30 1613 N 147.81 0.181792 -1.56548 0
M  V30 1614 C 149.056 0.901431 -1.81665 0
M  V30 1615 C 149.389 1.82347 -0.668075 0
M  V30 1616 O 148.664 1.91669 0.330615 0
M  V30 1617 C 148.947 1.70618 -3.17115 0
M  V30 1618 C 148.8 0.807964 -4.42484 0
M  V30 1619 C 150.119 2.67605 -3.49393 0
M  V30 1620 H 147.238 0.32627 -0.660846 0
M  V30 1621 H 149.88 0.168134 -1.89255 0
M  V30 1622 H 148.03 2.33133 -3.10775 0
M  V30 1623 H 149.702 0.19649 -4.60881 0
M  V30 1624 H 147.945 0.115411 -4.33646 0
M  V30 1625 H 148.616 1.40632 -5.33785 0
M  V30 1626 H 151.092 2.15218 -3.56118 0
M  V30 1627 H 149.968 3.20985 -4.45264 0
M  V30 1628 H 150.229 3.47298 -2.73563 0
M  V30 1629 N 149.288 1.51039 0.449983 0
M  V30 1630 C 150.535 1.63081 1.20045 0
M  V30 1631 C 150.863 0.341024 1.91487 0
M  V30 1632 O 150.118 -0.674276 1.83717 0
M  V30 1633 C 150.417 2.77556 2.25161 0
M  V30 1634 C 150.083 4.17289 1.70823 0
M  V30 1635 C 148.745 4.55305 1.55725 0
M  V30 1636 C 151.097 5.04536 1.3074 0
M  V30 1637 C 148.425 5.78287 0.989999 0
M  V30 1638 C 150.777 6.28085 0.754482 0
M  V30 1639 C 149.441 6.64885 0.590308 0
M  V30 1640 H 148.711 0.596755 0.439277 0
M  V30 1641 H 151.358 1.85037 0.49333 0
M  V30 1642 H 149.663 2.49771 3.01863 0
M  V30 1643 H 151.36 2.84073 2.83026 0
M  V30 1644 H 147.95 3.8731 1.83546 0
M  V30 1645 H 152.134 4.75782 1.41229 0
M  V30 1646 H 147.39 6.05456 0.850451 0
M  V30 1647 H 151.564 6.95038 0.435324 0
M  V30 1648 H 149.191 7.60055 0.14862 0
M  V30 1649 N 150.766 -0.704594 1.40972 0
M  V30 1650 C 151.713 -1.81862 1.42109 0
M  V30 1651 C 152.683 -1.63781 0.276593 0
M  V30 1652 O 153.868 -1.84759 0.4763 0
M  V30 1653 C 151.008 -3.19669 1.30022 0
M  V30 1654 C 150.121 -3.49246 2.54267 0
M  V30 1655 C 149.256 -4.76618 2.3454 0
M  V30 1656 C 148.295 -4.99133 3.54306 0
M  V30 1657 N 147.432 -6.17726 3.33706 0
M  V30 1658 H 152.272 -1.80226 2.37324 0
M  V30 1659 H 149.809 -0.880238 1.17857 0
M  V30 1660 H 151.767 -3.99263 1.21018 0
M  V30 1661 H 150.397 -3.20506 0.384192 0
M  V30 1662 H 149.449 -2.64125 2.73756 0
M  V30 1663 H 150.761 -3.61788 3.43381 0
M  V30 1664 H 149.915 -5.64249 2.22952 0
M  V30 1665 H 148.654 -4.66305 1.42867 0
M  V30 1666 H 147.659 -4.09953 3.66359 0
M  V30 1667 H 148.884 -5.11311 4.4692 0
M  V30 1668 H 146.83 -6.08642 2.44725 0
M  V30 1669 H 146.747 -6.30995 4.16391 0
M  V30 1670 H 148.015 -7.08115 3.25873 0
M  V30 1671 N 152.244 -1.26651 -0.937939 0
M  V30 1672 C 153.191 -1.0849 -2.03712 0
M  V30 1673 C 154.161 0.011033 -1.66096 0
M  V30 1674 O 155.346 -0.149353 -1.90215 0
M  V30 1675 C 152.486 -0.72735 -3.37348 0
M  V30 1676 C 151.599 -1.89986 -3.87981 0
M  V30 1677 C 150.734 -1.48513 -5.10017 0
M  V30 1678 C 149.773 -2.62575 -5.5292 0
M  V30 1679 N 148.91 -2.21762 -6.66158 0
M  V30 1680 H 153.75 -2.02551 -2.18579 0
M  V30 1681 H 151.287 -1.00844 -1.07093 0
M  V30 1682 H 153.245 -0.50092 -4.14182 0
M  V30 1683 H 151.875 0.176298 -3.22318 0
M  V30 1684 H 150.927 -2.23913 -3.07518 0
M  V30 1685 H 152.239 -2.75586 -4.15757 0
M  V30 1686 H 151.393 -1.21934 -5.94321 0
M  V30 1687 H 150.132 -0.60009 -4.83994 0
M  V30 1688 H 149.137 -2.8988 -4.67172 0
M  V30 1689 H 150.362 -3.51685 -5.80943 0
M  V30 1690 H 148.308 -1.35696 -6.41812 0
M  V30 1691 H 148.225 -3.00903 -6.93537 0
M  V30 1692 H 149.493 -1.98403 -7.53828 0
M  V30 1693 N 153.722 1.14298 -1.08507 0
M  V30 1694 C 154.652 2.21542 -0.737646 0
M  V30 1695 C 155.633 1.67773 0.280377 0
M  V30 1696 O 156.818 1.93616 0.150521 0
M  V30 1697 C 153.948 3.46988 -0.147259 0
M  V30 1698 C 152.902 4.13789 -1.09374 0
M  V30 1699 C 152.228 5.33449 -0.365524 0
M  V30 1700 C 153.528 4.62208 -2.4323 0
M  V30 1701 H 155.222 2.5086 -1.6343 0
M  V30 1702 H 152.768 1.20576 -0.787243 0
M  V30 1703 H 154.721 4.21262 0.107808 0
M  V30 1704 H 153.445 3.17037 0.784538 0
M  V30 1705 H 152.104 3.4147 -1.33393 0
M  V30 1706 H 151.752 4.99759 0.57011 0
M  V30 1707 H 151.452 5.79088 -0.996512 0
M  V30 1708 H 152.976 6.10485 -0.118534 0
M  V30 1709 H 154.39 5.27952 -2.23472 0
M  V30 1710 H 152.787 5.18553 -3.02031 0
M  V30 1711 H 153.857 3.77224 -3.04681 0
M  V30 1712 N 155.201 0.870884 1.31352 0
M  V30 1713 C 156.131 0.343096 2.30966 0
M  V30 1714 C 157.112 -0.566507 1.60389 0
M  V30 1715 O 158.297 -0.483336 1.88089 0
M  V30 1716 C 155.427 -0.455487 3.443 0
M  V30 1717 C 154.381 0.361103 4.26474 0
M  V30 1718 C 153.707 -0.563221 5.31725 0
M  V30 1719 C 155.007 1.59566 4.97329 0
M  V30 1720 H 156.701 1.17548 2.75359 0
M  V30 1721 H 154.247 0.566686 1.32381 0
M  V30 1722 H 156.2 -0.83525 4.13039 0
M  V30 1723 H 154.924 -1.32139 2.98675 0
M  V30 1724 H 153.583 0.722825 3.59403 0
M  V30 1725 H 153.231 -1.42643 4.82351 0
M  V30 1726 H 152.931 -0.0207409 5.87596 0
M  V30 1727 H 154.455 -0.939808 6.03324 0
M  V30 1728 H 155.869 1.28728 5.58661 0
M  V30 1729 H 154.266 2.07728 5.63 0
M  V30 1730 H 155.336 2.34798 4.24262 0
M  V30 1731 N 156.679 -1.44442 0.630414 0
M  V30 1732 C 158.095 -1.56832 0.295973 0
M  V30 1733 C 158.295 -1.61806 -1.20088 0
M  V30 1734 O 157.351 -1.5607 -1.9849 0
M  V30 1735 C 158.664 -2.84031 0.987264 0
M  V30 1736 C 160.212 -2.97742 0.96534 0
M  V30 1737 C 160.687 -4.27743 1.63708 0
M  V30 1738 N 162.178 -4.34555 1.60364 0
M  V30 1739 C 162.913 -5.33862 2.09234 0
M  V30 1740 N 162.409 -6.39578 2.66292 0
M  V30 1741 N 164.202 -5.25366 1.99867 0
M  V30 1742 H 156.353 -1.39457 1.60205 0
M  V30 1743 H 158.616 -0.668237 0.672431 0
M  V30 1744 H 158.322 -2.86338 2.04215 0
M  V30 1745 H 158.196 -3.73534 0.524588 0
M  V30 1746 H 160.583 -2.94989 -0.0810639 0
M  V30 1747 H 160.664 -2.09589 1.4665 0
M  V30 1748 H 160.308 -4.31255 2.68293 0
M  V30 1749 H 160.238 -5.14752 1.11076 0
M  V30 1750 H 162.729 -3.58772 1.18705 0
M  V30 1751 H 163.042 -7.11637 3.01317 0
M  V30 1752 H 161.387 -6.40265 2.70343 0
M  V30 1753 H 164.578 -4.41688 1.55013 0
M  V30 1754 H 164.751 -6.02606 2.38265 0
M  V30 1755 N 158.157 -0.370918 -1.53173 0
M  V30 1756 C 159.087 0.464847 -2.28826 0
M  V30 1757 C 160.068 1.07936 -1.31468 0
M  V30 1758 O 161.253 1.0956 -1.60344 0
M  V30 1759 C 158.383 1.60196 -3.08147 0
M  V30 1760 C 157.337 1.11443 -4.13237 0
M  V30 1761 C 156.663 2.3422 -4.80672 0
M  V30 1762 C 157.963 0.195384 -5.21934 0
M  V30 1763 H 159.657 -0.166329 -2.98938 0
M  V30 1764 H 157.203 -0.0814359 -1.4377 0
M  V30 1765 H 159.156 2.19332 -3.59822 0
M  V30 1766 H 157.88 2.26045 -2.35735 0
M  V30 1767 H 156.539 0.545727 -3.62515 0
M  V30 1768 H 156.187 2.98537 -4.04827 0
M  V30 1769 H 155.887 2.02269 -5.51689 0
M  V30 1770 H 157.411 2.94032 -5.35143 0
M  V30 1771 H 158.825 0.694375 -5.69079 0
M  V30 1772 H 157.222 -0.0335027 -6.00091 0
M  V30 1773 H 158.292 -0.760961 -4.78892 0
M  V30 1774 N 159.635 1.57281 -0.100228 0
M  V30 1775 C 160.882 1.94537 0.562268 0
M  V30 1776 C 161.21 0.982315 1.67871 0
M  V30 1777 O 160.465 0.00280936 1.957 0
M  V30 1778 C 160.764 3.38305 1.15259 0
M  V30 1779 C 160.43 4.50618 0.159409 0
M  V30 1780 C 159.092 4.81066 -0.113741 0
M  V30 1781 C 161.444 5.18615 -0.518461 0
M  V30 1782 C 158.772 5.76835 -1.07137 0
M  V30 1783 C 161.124 6.15412 -1.46459 0
M  V30 1784 C 159.788 6.44262 -1.74592 0
M  V30 1785 H 159.058 0.711863 0.205748 0
M  V30 1786 H 161.705 1.90679 -0.17715 0
M  V30 1787 H 160.01 3.38766 1.96836 0
M  V30 1788 H 161.707 3.64435 1.67297 0
M  V30 1789 H 158.297 4.2689 0.382491 0
M  V30 1790 H 162.481 4.95264 -0.320581 0
M  V30 1791 H 157.737 5.975 -1.29628 0
M  V30 1792 H 161.911 6.67194 -1.99564 0
M  V30 1793 H 159.538 7.1828 -2.48953 0
M  V30 1794 N 161.113 -0.173488 1.56642 0
M  V30 1795 C 162.338 -0.910149 1.86363 0
M  V30 1796 C 162.763 -1.75132 0.686318 0
M  V30 1797 O 162.121 -1.77595 -0.364643 0
M  V30 1798 C 162.169 -1.76447 3.14482 0
M  V30 1799 O 161.273 -2.86584 2.96553 0
M  V30 1800 H 160.614 -0.255086 0.613047 0
M  V30 1801 H 163.144 -0.172283 2.03873 0
M  V30 1802 H 163.154 -2.16483 3.45831 0
M  V30 1803 H 161.829 -1.14658 3.99783 0
M  V30 1804 H 160.406 -2.50146 2.76553 0
M  V30 1805 N 162.591 -1.51276 -0.441967 0
M  V30 1806 C 163.521 -1.752 -1.54361 0
M  V30 1807 C 164.502 -0.601682 -1.59103 0
M  V30 1808 O 165.687 -0.843913 -1.74905 0
M  V30 1809 C 162.817 -1.87282 -2.92477 0
M  V30 1810 C 161.771 -3.02687 -3.02596 0
M  V30 1811 C 161.097 -2.99947 -4.42647 0
M  V30 1812 C 162.397 -4.4273 -2.77106 0
M  V30 1813 H 164.091 -2.67442 -1.34592 0
M  V30 1814 H 161.637 -1.28694 -0.646048 0
M  V30 1815 H 163.59 -2.02602 -3.695 0
M  V30 1816 H 162.314 -0.916844 -3.13467 0
M  V30 1817 H 160.973 -2.87065 -2.28012 0
M  V30 1818 H 160.621 -2.02136 -4.60597 0
M  V30 1819 H 160.321 -3.77439 -4.50348 0
M  V30 1820 H 161.845 -3.17354 -5.2165 0
M  V30 1821 H 163.259 -4.58727 -3.43864 0
M  V30 1822 H 161.656 -5.21893 -2.96222 0
M  V30 1823 H 162.726 -4.53087 -1.72744 0
M  V30 1824 N 164.069 0.697108 -1.41344 0
M  V30 1825 C 165.315 1.4593 -1.40827 0
M  V30 1826 C 165.648 1.94193 -0.0167098 0
M  V30 1827 O 164.923 1.69425 0.955263 0
M  V30 1828 C 165.206 2.67229 -2.41373 0
M  V30 1829 C 165.059 2.24741 -3.8963 0
M  V30 1830 C 166.378 3.69423 -2.39196 0
M  V30 1831 H 163.497 0.529303 -0.512842 0
M  V30 1832 H 166.139 0.794112 -1.72609 0
M  V30 1833 H 164.289 3.23982 -2.14401 0
M  V30 1834 H 165.961 1.73327 -4.27499 0
M  V30 1835 H 164.204 1.56542 -4.0457 0
M  V30 1836 H 164.875 3.1177 -4.55525 0
M  V30 1837 H 167.351 3.2234 -2.63128 0
M  V30 1838 H 166.227 4.51907 -3.11563 0
M  V30 1839 H 166.488 4.19012 -1.41001 0
M  V30 1840 N 165.547 1.27147 0.931209 0
M  V30 1841 C 166.796 1.12664 1.67302 0
M  V30 1842 C 167.109 -0.327718 1.92835 0
M  V30 1843 O 168.315 -0.593392 2.64936 0
M  V30 1844 C 166.771 1.9683 3.01307 0
M  V30 1845 C 166.379 3.46901 2.83485 0
M  V30 1846 C 168.123 1.90985 3.79111 0
M  V30 1847 C 166.03 4.23279 4.13024 0
M  V30 1848 H 164.96 0.41803 0.627509 0
M  V30 1849 H 167.611 1.51539 1.03481 0
M  V30 1850 H 165.993 1.50797 3.66164 0
M  V30 1851 H 167.167 4.00773 2.27415 0
M  V30 1852 H 165.482 3.54088 2.19113 0
M  V30 1853 H 168.079 2.45328 4.75098 0
M  V30 1854 H 168.422 0.882718 4.06834 0
M  V30 1855 H 168.955 2.34895 3.21044 0
M  V30 1856 H 165.694 5.26503 3.90481 0
M  V30 1857 H 165.214 3.74186 4.6877 0
M  V30 1858 H 166.893 4.32265 4.81411 0
M  V30 1859 N 167.025 -1.13721 1.09112 0
M  V30 1860 C 168.271 -1.85413 0.836283 0
M  V30 1861 C 168.626 -1.8175 -0.631249 0
M  V30 1862 O 167.919 -1.24238 -1.45861 0
M  V30 1863 C 168.113 -3.32861 1.30146 0
M  V30 1864 C 167.942 -3.50882 2.81268 0
M  V30 1865 C 166.712 -3.65312 3.49106 0
M  V30 1866 C 168.91 -3.47196 3.7942 0
M  V30 1867 N 166.892 -3.71563 4.88686 0
M  V30 1868 C 168.263 -3.59777 5.04936 0
M  V30 1869 C 170.318 -3.30577 3.72321 0
M  V30 1870 C 169.021 -3.57455 6.24194 0
M  V30 1871 C 171.047 -3.29562 4.91063 0
M  V30 1872 C 170.409 -3.42691 6.15421 0
M  V30 1873 H 166.508 -0.694812 0.358832 0
M  V30 1874 H 169.092 -1.36246 1.39087 0
M  V30 1875 H 167.263 -3.80602 0.774361 0
M  V30 1876 H 168.995 -3.92346 0.99229 0
M  V30 1877 H 165.75 -3.6685 2.9953 0
M  V30 1878 H 166.174 -3.78387 5.61384 0
M  V30 1879 H 170.816 -3.19332 2.77105 0
M  V30 1880 H 168.534 -3.67475 7.19714 0
M  V30 1881 H 172.12 -3.17905 4.87266 0
M  V30 1882 H 171 -3.41862 7.05762 0
M  V30 1883 N 168.503 -0.877838 -1.30888 0
M  V30 1884 C 169.752 -0.488793 -1.95688 0
M  V30 1885 C 170.065 0.965485 -1.70111 0
M  V30 1886 O 171.271 1.46104 -2.28836 0
M  V30 1887 C 169.727 -0.823201 -3.50359 0
M  V30 1888 C 169.335 -2.29477 -3.84765 0
M  V30 1889 C 171.079 -0.503009 -4.21509 0
M  V30 1890 C 168.986 -2.57118 -5.32583 0
M  V30 1891 H 167.916 -0.179062 -0.732429 0
M  V30 1892 H 170.567 -1.07183 -1.48943 0
M  V30 1893 H 168.949 -0.169331 -3.95638 0
M  V30 1894 H 170.123 -2.99236 -3.5042 0
M  V30 1895 H 168.438 -2.58178 -3.267 0
M  V30 1896 H 171.035 -0.68665 -5.30273 0
M  V30 1897 H 171.378 0.557109 -4.12555 0
M  V30 1898 H 171.911 -1.11376 -3.8189 0
M  V30 1899 H 168.65 -3.61843 -5.4658 0
M  V30 1900 H 168.17 -1.91961 -5.68253 0
M  V30 1901 H 169.849 -2.42251 -5.99936 0
M  V30 1902 N 169.982 1.44106 -0.638065 0
M  V30 1903 C 171.222 2.03858 -0.148733 0
M  V30 1904 C 171.586 1.49153 1.20903 0
M  V30 1905 O 172.787 2.00452 1.79088 0
M  V30 1906 C 171.058 3.57117 -0.142314 0
M  V30 1907 S 172.617 4.37897 0.281385 0
M  V30 1908 H 169.435 0.708069 -0.0644912 0
M  V30 1909 H 172.037 1.7639 -0.843009 0
M  V30 1910 H 170.741 3.94436 -1.13349 0
M  V30 1911 H 170.272 3.89205 0.572988 0
M  V30 1912 H 172.287 4.72218 1.52395 0
M  V30 1913 N 171.46 0.379036 1.52974 0
M  V30 1914 C 172.39 -0.452706 2.29069 0
M  V30 1915 C 173.371 -1.07237 1.32039 0
M  V30 1916 O 174.556 -1.08708 1.60923 0
M  V30 1917 C 171.686 -1.5856 3.08992 0
M  V30 1918 C 170.64 -1.0925 4.13822 0
M  V30 1919 C 169.966 -2.31668 4.81907 0
M  V30 1920 C 171.266 -0.167702 5.22031 0
M  V30 1921 H 172.96 0.182181 2.98845 0
M  V30 1922 H 170.506 0.0890592 1.43724 0
M  V30 1923 H 172.459 -2.1742 3.6098 0
M  V30 1924 H 171.183 -2.24792 2.36931 0
M  V30 1925 H 169.842 -0.526494 3.628 0
M  V30 1926 H 169.49 -2.96386 4.06404 0
M  V30 1927 H 169.19 -1.9934 5.52754 0
M  V30 1928 H 170.714 -2.91189 5.36695 0
M  V30 1929 H 172.128 -0.664186 5.6944 0
M  V30 1930 H 170.525 0.0653265 6.00064 0
M  V30 1931 H 171.595 0.786347 4.78482 0
M  V30 1932 N 172.938 -1.57226 0.108567 0
M  V30 1933 C 174.184 -1.95121 -0.552761 0
M  V30 1934 C 174.517 -0.991345 -1.66991 0
M  V30 1935 O 173.792 -0.0267211 -1.94482 0
M  V30 1936 C 174.075 -3.43039 -1.09528 0
M  V30 1937 C 173.928 -4.49797 0.0177332 0
M  V30 1938 C 175.247 -3.92567 -1.98945 0
M  V30 1939 H 172.366 -0.709496 -0.199461 0
M  V30 1940 H 175.008 -1.89126 0.182011 0
M  V30 1941 H 173.158 -3.48279 -1.72146 0
M  V30 1942 H 174.83 -4.56661 0.652584 0
M  V30 1943 H 173.073 -4.284 0.682309 0
M  V30 1944 H 173.744 -5.50528 -0.402919 0
M  V30 1945 H 176.22 -3.89565 -1.46214 0
M  V30 1946 H 175.096 -4.96605 -2.33827 0
M  V30 1947 H 175.357 -3.32648 -2.91201 0
M  V30 1948 N 174.416 0.165178 -1.56732 0
M  V30 1949 C 175.379 1.18822 -1.95995 0
M  V30 1950 C 176.379 1.3685 -0.84431 0
M  V30 1951 O 177.569 1.34152 -1.11126 0
M  V30 1952 C 174.701 2.5521 -2.26011 0
M  V30 1953 H 175.894 0.851825 -2.87548 0
M  V30 1954 H 173.447 0.407857 -1.50885 0
M  V30 1955 H 174.182 2.93852 -1.37191 0
M  V30 1956 H 173.967 2.43489 -3.07336 0
M  V30 1957 H 175.457 3.28927 -2.57288 0
M  V30 1958 N 175.894 1.51508 0.433938 0
M  V30 1959 C 176.827 1.67756 1.54704 0
M  V30 1960 C 177.805 0.525127 1.53887 0
M  V30 1961 O 178.989 0.749393 1.72963 0
M  V30 1962 C 176.116 1.69424 2.9328 0
M  V30 1963 C 175.162 2.90673 3.12108 0
M  V30 1964 S 175.995 4.51431 2.88046 0
M  V30 1965 C 177.151 4.55849 4.28897 0
M  V30 1966 H 177.384 2.61904 1.40689 0
M  V30 1967 H 174.917 1.41235 0.62386 0
M  V30 1968 H 176.875 1.7107 3.73156 0
M  V30 1969 H 175.536 0.764464 3.04655 0
M  V30 1970 H 174.729 2.88251 4.13434 0
M  V30 1971 H 174.331 2.86786 2.40062 0
M  V30 1972 H 176.623 4.31699 5.22152 0
M  V30 1973 H 177.566 5.57676 4.36351 0
M  V30 1974 H 177.974 3.85137 4.12711 0
M  V30 1975 N 177.372 -0.689602 1.41712 0
M  V30 1976 C 178.62 -1.4468 1.4111 0
M  V30 1977 C 178.941 -1.94986 0.0232196 0
M  V30 1978 O 178.211 -1.72097 -0.935913 0
M  V30 1979 H 176.791 -0.536847 0.519427 0
M  V30 1980 H 179.453 -0.815825 1.77004 0
M  V30 1981 H 178.549 -2.30706 2.10193 0
M  V30 1982 N 178.85 -1.27639 -0.924453 0
M  V30 1983 C 180.08 -1.16819 -1.70402 0
M  V30 1984 C 180.488 0.277191 -1.87158 0
M  V30 1985 O 179.831 1.20025 -1.39067 0
M  V30 1986 C 179.893 -1.78305 -3.12166 0
M  V30 1987 C 179.557 -3.27502 -3.18734 0
M  V30 1988 C 180.554 -4.2409 -3.00738 0
M  V30 1989 C 178.239 -3.68269 -3.4159 0
M  V30 1990 C 180.233 -5.59422 -3.05492 0
M  V30 1991 C 177.92 -5.0373 -3.45977 0
M  V30 1992 C 178.918 -5.99116 -3.27946 0
M  V30 1993 O 178.606 -7.32108 -3.32074 0
M  V30 1994 H 178.338 -0.406931 -0.539799 0
M  V30 1995 H 180.892 -1.69078 -1.16626 0
M  V30 1996 H 179.122 -1.20528 -3.67437 0
M  V30 1997 H 180.811 -1.62154 -3.72103 0
M  V30 1998 H 181.577 -3.93931 -2.82919 0
M  V30 1999 H 177.456 -2.94496 -3.54673 0
M  V30 2000 H 181 -6.33852 -2.91337 0
M  V30 2001 H 176.897 -5.33543 -3.63321 0
M  V30 2002 H 177.665 -7.40598 -3.48507 0
M  V30 2003 N 180.328 1.1314 -1.09713 0
M  V30 2004 C 181.258 2.20748 -0.761102 0
M  V30 2005 C 182.239 1.68061 0.262566 0
M  V30 2006 O 183.424 1.93765 0.129977 0
M  V30 2007 C 180.554 3.46812 -0.184054 0
M  V30 2008 C 179.508 4.12606 -1.13757 0
M  V30 2009 C 178.834 5.33031 -0.422083 0
M  V30 2010 C 180.134 4.59603 -2.48118 0
M  V30 2011 H 181.828 2.49113 -1.66082 0
M  V30 2012 H 179.374 1.19734 -0.799987 0
M  V30 2013 H 181.327 4.21353 0.0631215 0
M  V30 2014 H 180.051 3.17851 0.750868 0
M  V30 2015 H 178.71 3.40036 -1.37007 0
M  V30 2016 H 178.358 5.00335 0.517072 0
M  V30 2017 H 178.058 5.77999 -1.05788 0
M  V30 2018 H 179.582 6.10325 -0.183277 0
M  V30 2019 H 180.996 5.25552 -2.29059 0
M  V30 2020 H 179.393 5.15321 -3.07514 0
M  V30 2021 H 180.463 3.73971 -3.08665 0
M  V30 2022 N 181.806 0.884767 1.30421 0
M  V30 2023 C 183.053 0.503105 1.96151 0
M  V30 2024 C 183.381 -0.947676 1.69851 0
M  V30 2025 O 182.636 -1.68467 0.995861 0
M  V30 2026 C 182.935 0.724318 3.49983 0
M  V30 2027 C 182.601 2.15015 3.96332 0
M  V30 2028 C 181.263 2.54005 4.08699 0
M  V30 2029 C 183.615 3.07936 4.20505 0
M  V30 2030 C 180.943 3.85128 4.42599 0
M  V30 2031 C 183.295 4.3859 4.55874 0
M  V30 2032 C 181.959 4.77474 4.66449 0
M  V30 2033 H 181.229 0.184099 0.717766 0
M  V30 2034 H 183.876 1.12058 1.55291 0
M  V30 2035 H 182.181 0.0238086 3.91793 0
M  V30 2036 H 183.878 0.408617 3.98913 0
M  V30 2037 H 180.468 1.8375 3.87213 0
M  V30 2038 H 184.652 2.79033 4.10431 0
M  V30 2039 H 179.908 4.14996 4.48986 0
M  V30 2040 H 184.082 5.10629 4.7353 0
M  V30 2041 H 181.709 5.79115 4.92473 0
M  V30 2042 N 183.284 -1.43765 0.645699 0
M  V30 2043 C 184.217 -2.2798 -0.100072 0
M  V30 2044 C 185.195 -1.39391 -0.837194 0
M  V30 2045 O 186.379 -1.68833 -0.838306 0
M  V30 2046 C 183.506 -3.18643 -1.14823 0
M  V30 2047 C 182.552 -4.2344 -0.510009 0
M  V30 2048 S 183.385 -5.30761 0.710824 0
M  V30 2049 C 184.541 -6.24992 -0.33699 0
M  V30 2050 H 184.774 -2.90884 0.614322 0
M  V30 2051 H 182.307 -1.48166 0.434304 0
M  V30 2052 H 184.265 -3.71424 -1.74799 0
M  V30 2053 H 182.926 -2.54932 -1.8349 0
M  V30 2054 H 182.119 -4.86948 -1.29991 0
M  V30 2055 H 181.721 -3.73997 0.0154577 0
M  V30 2056 H 184.013 -6.66691 -1.20537 0
M  V30 2057 H 184.956 -7.07612 0.262879 0
M  V30 2058 H 185.364 -5.60517 -0.669425 0
M  V30 2059 N 184.763 -0.387143 -1.52771 0
M  V30 2060 C 186.003 0.195537 -2.03463 0
M  V30 2061 C 186.367 1.44222 -1.26744 0
M  V30 2062 O 187.568 2.10192 -1.67549 0
M  V30 2063 C 185.839 0.459097 -3.54439 0
M  V30 2064 S 187.398 1.01237 -4.26962 0
M  V30 2065 H 184.216 0.0552675 -0.708849 0
M  V30 2066 H 186.818 -0.534992 -1.88037 0
M  V30 2067 H 185.522 -0.455382 -4.07866 0
M  V30 2068 H 185.053 1.21811 -3.74066 0
M  V30 2069 H 187.068 2.29492 -4.39941 0
M  V30 2070 N 186.241 1.57166 -0.116904 0
M  V30 2071 C 187.488 1.95123 0.541603 0
M  V30 2072 C 187.816 1.00006 1.6682 0
M  V30 2073 O 187.071 0.0235658 1.95686 0
M  V30 2074 C 187.37 3.39508 1.11664 0
M  V30 2075 C 187.036 4.50762 0.111606 0
M  V30 2076 C 185.698 4.80918 -0.164758 0
M  V30 2077 C 188.05 5.18036 -0.573438 0
M  V30 2078 C 185.378 5.75666 -1.13249 0
M  V30 2079 C 187.73 6.13824 -1.52978 0
M  V30 2080 C 186.394 6.42374 -1.81415 0
M  V30 2081 H 185.664 0.714005 0.198187 0
M  V30 2082 H 188.311 1.9048 -0.197365 0
M  V30 2083 H 186.616 3.40835 1.93232 0
M  V30 2084 H 188.313 3.66189 1.63422 0
M  V30 2085 H 184.903 4.27272 0.337192 0
M  V30 2086 H 189.087 4.94896 -0.373092 0
M  V30 2087 H 184.343 5.96092 -1.35958 0
M  V30 2088 H 188.517 6.65039 -2.06629 0
M  V30 2089 H 186.144 7.15599 -2.56557 0
M  V30 2090 N 187.719 -0.156864 1.56817 0
M  V30 2091 C 188.967 -0.869404 1.82444 0
M  V30 2092 C 189.288 -1.82147 0.69623 0
M  V30 2093 O 188.558 -1.93847 -0.28287 0
M  V30 2094 H 187.138 -0.324043 0.673056 0
M  V30 2095 H 189.8 -0.153224 1.94297 0
M  V30 2096 H 188.896 -1.43761 2.77019 0
M  V30 2097 N 189.197 -1.51736 -0.425897 0
M  V30 2098 C 190.445 -1.64644 -1.17204 0
M  V30 2099 C 190.766 -0.370486 -1.91448 0
M  V30 2100 O 190.036 0.614088 -1.86026 0
M  V30 2101 H 188.616 -0.606819 -0.435638 0
M  V30 2102 H 191.278 -1.88713 -0.487177 0
M  V30 2103 H 190.374 -2.47958 -1.89534 0
M  V30 2104 N 190.675 0.682077 -1.42076 0
M  V30 2105 C 191.903 1.47057 -1.4554 0
M  V30 2106 C 192.318 1.8869 -0.0645779 0
M  V30 2107 O 191.675 1.57666 0.919115 0
M  V30 2108 C 191.726 2.72442 -2.37609 0
M  V30 2109 O 191.447 2.32559 -3.71279 0
M  V30 2110 C 192.948 3.66069 -2.50017 0
M  V30 2111 H 190.168 0.452737 -0.495248 0
M  V30 2112 H 192.712 0.838695 -1.8651 0
M  V30 2113 H 190.867 3.31835 -1.9991 0
M  V30 2114 H 191.281 3.13475 -4.20516 0
M  V30 2115 H 192.755 4.50792 -3.18576 0
M  V30 2116 H 193.232 4.11476 -1.53572 0
M  V30 2117 H 193.838 3.12572 -2.88407 0
M  V30 2118 N 192.153 1.28127 0.917671 0
M  V30 2119 C 193.399 1.15223 1.66888 0
M  V30 2120 C 193.732 -0.299293 1.9188 0
M  V30 2121 O 193.007 -1.21805 1.51637 0
M  V30 2122 C 193.29 1.94706 3.02922 0
M  V30 2123 C 193.143 3.47898 2.85109 0
M  V30 2124 C 194.462 1.75939 4.03402 0
M  V30 2125 H 191.581 0.419946 0.605652 0
M  V30 2126 H 194.223 1.57398 1.06423 0
M  V30 2127 H 192.373 1.58864 3.54534 0
M  V30 2128 H 194.045 3.93624 2.40537 0
M  V30 2129 H 192.288 3.7373 2.20246 0
M  V30 2130 H 192.959 3.98765 3.81694 0
M  V30 2131 H 195.435 2.07209 3.60837 0
M  V30 2132 H 194.311 2.33931 4.96556 0
M  V30 2133 H 194.572 0.709877 4.36364 0
M  V30 2134 N 193.631 -1.12557 1.10312 0
M  V30 2135 C 194.856 -1.88405 0.867085 0
M  V30 2136 C 195.281 -1.79038 -0.576817 0
M  V30 2137 O 194.639 -1.14439 -1.40618 0
M  V30 2138 C 194.687 -3.3563 1.31851 0
M  V30 2139 O 193.791 -4.09565 0.482734 0
M  V30 2140 H 193.132 -0.585455 0.313271 0
M  V30 2141 H 195.662 -1.42352 1.4696 0
M  V30 2142 H 195.672 -3.86469 1.3079 0
M  V30 2143 H 194.347 -3.41765 2.37001 0
M  V30 2144 H 192.924 -3.68695 0.558448 0
M  V30 2145 N 195.109 -0.891671 -1.2995 0
M  V30 2146 C 196.52 -0.563104 -1.78006 0
M  V30 2147 C 196.871 0.920978 -1.73241 0
M  V30 2148 O 195.996 1.71987 -1.31337 0
M  V30 2149 C 196.591 -1.01539 -3.23226 0
M  V30 2150 C 195.15 -0.738124 -3.69092 0
M  V30 2151 C 194.297 -1.19461 -2.50249 0
M  V30 2152 H 197.248 -1.07522 -1.16725 0
M  V30 2153 H 197.269 -0.347217 -3.78912 0
M  V30 2154 H 196.781 -2.09555 -3.26662 0
M  V30 2155 H 194.882 0.329766 -3.71138 0
M  V30 2156 H 194.995 -1.33037 -4.60259 0
M  V30 2157 H 193.359 -0.613787 -2.47194 0
M  V30 2158 H 194.142 -2.28265 -2.56417 0
M  V30 2159 N 196.587 1.43421 -0.653314 0
M  V30 2160 C 197.833 2.02641 -0.175593 0
M  V30 2161 C 198.188 1.5062 1.19713 0
M  V30 2162 O 197.481 0.689697 1.78756 0
M  V30 2163 C 197.675 3.57176 -0.126623 0
M  V30 2164 C 197.504 4.24191 -1.49306 0
M  V30 2165 C 196.274 4.60257 -2.08547 0
M  V30 2166 C 198.472 4.53193 -2.43148 0
M  V30 2167 N 196.454 5.12345 -3.38194 0
M  V30 2168 C 197.825 5.06601 -3.57429 0
M  V30 2169 C 199.88 4.35161 -2.41949 0
M  V30 2170 C 198.583 5.43875 -4.70736 0
M  V30 2171 C 200.609 4.73498 -3.54336 0
M  V30 2172 C 199.971 5.27039 -4.67343 0
M  V30 2173 H 196.07 0.77441 -0.108686 0
M  V30 2174 H 198.654 1.74596 -0.861638 0
M  V30 2175 H 196.825 3.84784 0.528766 0
M  V30 2176 H 198.557 4.03078 0.36198 0
M  V30 2177 H 195.312 4.45302 -1.61255 0
M  V30 2178 H 195.736 5.42842 -4.04538 0
M  V30 2179 H 200.378 3.9304 -1.55818 0
M  V30 2180 H 198.096 5.8494 -5.57558 0
M  V30 2181 H 201.682 4.61241 -3.5461 0
M  V30 2182 H 200.562 5.56153 -5.52868 0
M  V30 2183 N 198.065 0.39524 1.52563 0
M  V30 2184 C 199.342 -0.242908 1.94086 0
M  V30 2185 C 199.722 -1.63841 1.33114 0
M  V30 2186 O 199.07 -2.22928 0.501529 0
M  V30 2187 C 199.28 -0.26327 3.48006 0
M  V30 2188 C 200.628 -0.489354 4.21771 0
M  V30 2189 O 201.652 -0.343226 3.54543 0
M  V30 2190 O 200.511 -0.776169 5.4096 0
M  V30 2191 H 197.605 -0.152536 0.812811 0
M  V30 2192 H 200.151 0.450178 1.6362 0
M  V30 2193 H 198.923 0.713985 3.84731 0
M  V30 2194 H 198.546 -1.00103 3.84792 0
M  V30 2195 N 199.544 -1.57102 0.125237 0
M  V30 2196 C 200.476 -2.12726 -0.853237 0
M  V30 2197 C 201.489 -1.07145 -1.22571 0
M  V30 2198 O 202.678 -1.34497 -1.17358 0
M  V30 2199 C 199.778 -2.61709 -2.15317 0
M  V30 2200 C 198.951 -3.91456 -1.95143 0
M  V30 2201 C 198.01 -4.25973 -3.08923 0
M  V30 2202 O 197.036 -4.94682 -2.81564 0
M  V30 2203 N 198.238 -3.83795 -4.35524 0
M  V30 2204 H 201.003 -2.97307 -0.377964 0
M  V30 2205 H 198.564 -1.61792 -0.0590011 0
M  V30 2206 H 200.556 -2.81826 -2.90441 0
M  V30 2207 H 199.126 -1.81974 -2.54174 0
M  V30 2208 H 198.346 -3.80185 -1.04177 0
M  V30 2209 H 199.634 -4.76283 -1.78976 0
M  V30 2210 H 199.032 -3.2839 -4.60626 0
M  V30 2211 H 197.589 -4.09008 -5.07499 0
M  V30 2212 N 201.022 0.148545 -1.56898 0
M  V30 2213 C 202.268 0.862694 -1.83536 0
M  V30 2214 C 202.601 1.80889 -0.706604 0
M  V30 2215 O 201.876 1.92328 0.289885 0
M  V30 2216 C 202.159 1.63853 -3.20662 0
M  V30 2217 C 202.012 0.713925 -4.44098 0
M  V30 2218 C 203.331 2.60133 -3.54991 0
M  V30 2219 H 200.45 0.312179 -0.667618 0
M  V30 2220 H 203.092 0.127953 -1.89569 0
M  V30 2221 H 201.242 2.26489 -3.1565 0
M  V30 2222 H 202.914 0.098686 -4.61194 0
M  V30 2223 H 201.157 0.0234019 -4.33794 0
M  V30 2224 H 201.828 1.29278 -5.36648 0
M  V30 2225 H 204.304 2.07616 -3.60603 0
M  V30 2226 H 203.18 3.11468 -4.51972 0
M  V30 2227 H 203.441 3.41417 -2.80868 0
M  V30 2228 N 202.5 1.5196 0.417844 0
M  V30 2229 C 203.725 1.69717 1.1921 0
M  V30 2230 C 204.15 0.402148 1.83751 0
M  V30 2231 O 203.508 -0.639593 1.69643 0
M  V30 2232 C 203.556 2.82794 2.2374 0
M  V30 2233 O 202.66 2.47756 3.29683 0
M  V30 2234 H 202.001 0.565263 0.348387 0
M  V30 2235 H 204.531 1.98621 0.490985 0
M  V30 2236 H 204.541 3.07452 2.68212 0
M  V30 2237 H 203.216 3.76756 1.76146 0
M  V30 2238 H 201.793 2.33739 2.90552 0
M  V30 2239 N 203.978 -0.674533 1.42435 0
M  V30 2240 C 205.225 -1.43459 1.42919 0
M  V30 2241 C 205.553 -1.94446 0.0457312 0
M  V30 2242 O 204.808 -1.7132 -0.94593 0
M  V30 2243 C 205.107 -2.64767 2.40069 0
M  V30 2244 C 204.773 -2.3232 3.86443 0
M  V30 2245 C 203.435 -2.23182 4.26314 0
M  V30 2246 C 205.787 -2.05977 4.78773 0
M  V30 2247 C 203.115 -1.85827 5.56494 0
M  V30 2248 C 205.467 -1.70125 6.09295 0
M  V30 2249 C 204.131 -1.59498 6.48164 0
M  V30 2250 H 203.401 -0.524952 0.522978 0
M  V30 2251 H 206.048 -0.769097 1.75377 0
M  V30 2252 H 204.353 -3.36349 2.00939 0
M  V30 2253 H 206.05 -3.22949 2.37707 0
M  V30 2254 H 202.64 -2.40334 3.54877 0
M  V30 2255 H 206.824 -2.11969 4.48757 0
M  V30 2256 H 202.08 -1.76168 5.8547 0
M  V30 2257 H 206.254 -1.48767 6.80324 0
M  V30 2258 H 203.881 -1.30322 7.48946 0
M  V30 2259 N 205.456 -1.28612 -0.910864 0
M  V30 2260 C 206.703 -1.15934 -1.66029 0
M  V30 2261 C 207.031 0.291483 -1.92303 0
M  V30 2262 O 206.286 1.22816 -1.52364 0
M  V30 2263 C 206.585 -1.90624 -3.0232 0
M  V30 2264 C 206.251 -3.40405 -2.95695 0
M  V30 2265 C 204.913 -3.81255 -2.93595 0
M  V30 2266 C 207.265 -4.359 -2.85728 0
M  V30 2267 C 204.593 -5.15936 -2.79334 0
M  V30 2268 C 206.945 -5.70657 -2.73007 0
M  V30 2269 C 205.609 -6.10779 -2.69267 0
M  V30 2270 H 204.879 -0.424234 -0.607541 0
M  V30 2271 H 207.526 -1.5942 -1.06101 0
M  V30 2272 H 205.831 -1.39696 -3.6605 0
M  V30 2273 H 207.528 -1.78228 -3.59215 0
M  V30 2274 H 204.118 -3.07927 -2.98125 0
M  V30 2275 H 208.302 -4.053 -2.86436 0
M  V30 2276 H 203.558 -5.46146 -2.74835 0
M  V30 2277 H 207.732 -6.44311 -2.64264 0
M  V30 2278 H 205.359 -7.1509 -2.57974 0
M  V30 2279 N 206.934 1.1197 -1.10907 0
M  V30 2280 C 207.864 2.19928 -0.784473 0
M  V30 2281 C 208.845 1.6833 0.244726 0
M  V30 2282 O 210.03 1.93892 0.109418 0
M  V30 2283 C 207.16 3.46597 -0.220827 0
M  V30 2284 C 206.114 4.11376 -1.18127 0
M  V30 2285 C 205.44 5.32554 -0.478594 0
M  V30 2286 C 206.74 4.56945 -2.52979 0
M  V30 2287 H 208.434 2.47337 -1.68715 0
M  V30 2288 H 205.98 1.18879 -0.812642 0
M  V30 2289 H 207.933 4.21396 0.0184278 0
M  V30 2290 H 206.657 3.1863 0.717113 0
M  V30 2291 H 205.316 3.38564 -1.40606 0
M  V30 2292 H 204.964 5.00856 0.463976 0
M  V30 2293 H 204.664 5.76844 -1.11912 0
M  V30 2294 H 206.188 6.10096 -0.248 0
M  V30 2295 H 207.602 5.23093 -2.3462 0
M  V30 2296 H 205.999 5.1203 -3.12962 0
M  V30 2297 H 207.069 3.70676 -3.12614 0
M  V30 2298 N 208.412 0.89855 1.29475 0
M  V30 2299 C 209.659 0.523882 1.95606 0
M  V30 2300 C 209.987 -0.929608 1.70847 0
M  V30 2301 O 209.242 -1.67401 1.01367 0
M  V30 2302 C 209.541 0.761398 3.49195 0
M  V30 2303 C 209.207 2.19207 3.94029 0
M  V30 2304 C 207.869 2.58326 4.05982 0
M  V30 2305 C 210.221 3.12379 4.17216 0
M  V30 2306 C 207.549 3.898 4.38489 0
M  V30 2307 C 209.901 4.43401 4.51197 0
M  V30 2308 C 208.565 4.82394 4.61359 0
M  V30 2309 H 207.835 0.191702 0.715773 0
M  V30 2310 H 210.482 1.13699 1.54094 0
M  V30 2311 H 208.787 0.0653622 3.91745 0
M  V30 2312 H 210.484 0.450904 3.98457 0
M  V30 2313 H 207.074 1.87846 3.85242 0
M  V30 2314 H 211.258 2.83371 4.07449 0
M  V30 2315 H 206.514 4.19734 4.44559 0
M  V30 2316 H 210.688 5.15623 4.68087 0
M  V30 2317 H 208.315 5.84306 4.86303 0
M  V30 2318 N 209.89 -1.43072 0.660911 0
M  V30 2319 C 211.139 -2.00942 0.174735 0
M  V30 2320 C 211.452 -1.52797 -1.22117 0
M  V30 2321 O 212.658 -2.02991 -1.80297 0
M  V30 2322 C 211.114 -3.58948 0.261559 0
M  V30 2323 C 210.722 -4.16085 1.66064 0
M  V30 2324 C 212.466 -4.24173 -0.166617 0
M  V30 2325 C 210.373 -5.6641 1.70098 0
M  V30 2326 H 209.303 -0.751483 0.0615631 0
M  V30 2327 H 211.954 -1.63955 0.824069 0
M  V30 2328 H 210.336 -3.93372 -0.455421 0
M  V30 2329 H 211.51 -3.93147 2.40359 0
M  V30 2330 H 209.825 -3.6326 2.03546 0
M  V30 2331 H 212.422 -5.34471 -0.156433 0
M  V30 2332 H 212.765 -3.98647 -1.19943 0
M  V30 2333 H 213.298 -3.94659 0.498875 0
M  V30 2334 H 210.037 -5.96715 2.71315 0
M  V30 2335 H 209.557 -5.91382 1.00139 0
M  V30 2336 H 211.236 -6.30585 1.44816 0
M  V30 2337 N 211.368 -0.403325 -1.52352 0
M  V30 2338 C 212.617 0.175668 -2.00934 0
M  V30 2339 C 212.93 1.46718 -1.29356 0
M  V30 2340 O 214.136 2.12708 -1.68724 0
M  V30 2341 C 212.592 0.363612 -3.58058 0
M  V30 2342 C 212.2 -0.915472 -4.38547 0
M  V30 2343 C 213.944 0.89821 -4.14888 0
M  V30 2344 C 211.851 -0.695035 -5.87302 0
M  V30 2345 H 210.781 0.0694234 -0.750797 0
M  V30 2346 H 213.432 -0.527879 -1.75743 0
M  V30 2347 H 211.814 1.12935 -3.79555 0
M  V30 2348 H 212.988 -1.68691 -4.28812 0
M  V30 2349 H 211.303 -1.37606 -3.93006 0
M  V30 2350 H 213.9 1.07907 -5.23699 0
M  V30 2351 H 214.243 1.87126 -3.71873 0
M  V30 2352 H 214.776 0.191681 -3.97338 0
M  V30 2353 H 211.515 -1.63948 -6.34666 0
M  V30 2354 H 211.035 0.0372116 -5.99788 0
M  V30 2355 H 212.714 -0.33497 -6.46132 0
M  V30 2356 N 212.846 1.57033 -0.133567 0
M  V30 2357 C 214.093 1.95686 0.520877 0
M  V30 2358 C 214.421 1.0177 1.6575 0
M  V30 2359 O 213.676 0.0443195 1.9565 0
M  V30 2360 C 213.975 3.40674 1.08057 0
M  V30 2361 C 213.641 4.50855 0.0637899 0
M  V30 2362 C 212.303 4.80716 -0.215757 0
M  V30 2363 C 214.655 5.17398 -0.62835 0
M  V30 2364 C 211.983 5.74433 -1.19348 0
M  V30 2365 C 214.335 6.12167 -1.5948 0
M  V30 2366 C 212.999 6.40414 -1.88218 0
M  V30 2367 H 212.269 0.716067 0.190602 0
M  V30 2368 H 214.916 1.9026 -0.217556 0
M  V30 2369 H 213.221 3.42865 1.89606 0
M  V30 2370 H 214.918 3.67902 1.59529 0
M  V30 2371 H 211.508 4.27605 0.291855 0
M  V30 2372 H 215.692 4.94472 -0.425562 0
M  V30 2373 H 210.948 5.94616 -1.42272 0
M  V30 2374 H 215.122 6.6281 -2.13671 0
M  V30 2375 H 212.749 7.12838 -2.64133 0
M  V30 2376 N 214.325 -0.140222 1.56975 0
M  V30 2377 C 215.571 -0.852949 1.83991 0
M  V30 2378 C 215.904 -1.80512 0.716187 0
M  V30 2379 O 215.179 -1.92479 -0.279681 0
M  V30 2380 C 215.462 -1.6215 3.21527 0
M  V30 2381 C 215.315 -0.690363 4.4447 0
M  V30 2382 C 216.634 -2.58247 3.56366 0
M  V30 2383 H 213.753 -0.308634 0.669264 0
M  V30 2384 H 216.395 -0.117898 1.89634 0
M  V30 2385 H 214.545 -2.24812 3.16847 0
M  V30 2386 H 216.217 -0.0742264 4.6124 0
M  V30 2387 H 214.46 -0.000396433 4.338 0
M  V30 2388 H 215.131 -1.2643 5.37326 0
M  V30 2389 H 217.607 -2.05701 3.61699 0
M  V30 2390 H 216.483 -3.09067 4.53617 0
M  V30 2391 H 216.744 -3.39923 2.82674 0
M  V30 2392 N 215.803 -1.52179 -0.40978 0
M  V30 2393 C 217.049 -1.66453 -1.15851 0
M  V30 2394 C 217.382 -0.392972 -1.90182 0
M  V30 2395 O 216.657 0.608579 -1.84734 0
M  V30 2396 C 216.94 -2.88612 -2.15349 0
M  V30 2397 C 216.793 -4.25815 -1.44918 0
M  V30 2398 C 218.112 -3.06294 -3.16026 0
M  V30 2399 H 215.231 -0.60575 -0.419805 0
M  V30 2400 H 217.873 -1.84732 -0.444314 0
M  V30 2401 H 216.023 -2.73158 -2.76255 0
M  V30 2402 H 217.695 -4.52995 -0.871365 0
M  V30 2403 H 215.938 -4.27247 -0.751159 0
M  V30 2404 H 216.609 -5.07337 -2.17516 0
M  V30 2405 H 219.085 -3.20641 -2.65195 0
M  V30 2406 H 217.961 -3.93283 -3.8291 0
M  V30 2407 H 218.222 -2.19579 -3.83715 0
M  V30 2408 N 217.281 0.66697 -1.42791 0
M  V30 2409 C 218.511 1.45294 -1.46878 0
M  V30 2410 C 218.919 1.89027 -0.0809861 0
M  V30 2411 O 218.262 1.59219 0.916246 0
M  V30 2412 C 218.324 2.72908 -2.34012 0
M  V30 2413 C 217.988 2.51203 -3.81767 0
M  V30 2414 C 218.985 2.15302 -4.73224 0
M  V30 2415 C 216.67 2.65954 -4.26115 0
M  V30 2416 C 218.664 1.94431 -6.07022 0
M  V30 2417 C 216.351 2.44699 -5.59969 0
M  V30 2418 C 217.349 2.08992 -6.5024 0
M  V30 2419 O 217.037 1.87948 -7.81621 0
M  V30 2420 H 216.769 0.453306 -0.501487 0
M  V30 2421 H 219.323 0.826232 -1.88049 0
M  V30 2422 H 217.553 3.38089 -1.87703 0
M  V30 2423 H 219.242 3.34816 -2.29462 0
M  V30 2424 H 220.008 2.03495 -4.40244 0
M  V30 2425 H 215.887 2.92724 -3.56137 0
M  V30 2426 H 219.431 1.66484 -6.77443 0
M  V30 2427 H 215.328 2.56105 -5.9252 0
M  V30 2428 H 216.096 2.02483 -7.93059 0
M  V30 2429 N 218.759 1.29093 0.90403 0
M  V30 2430 C 219.987 1.19689 1.68766 0
M  V30 2431 C 220.402 -0.243113 1.87228 0
M  V30 2432 O 219.759 -1.16326 1.40621 0
M  V30 2433 C 219.81 1.90144 3.07453 0
M  V30 2434 O 219.531 3.2852 2.89838 0
M  V30 2435 C 221.032 1.87162 4.01852 0
M  V30 2436 H 218.252 0.415035 0.527244 0
M  V30 2437 H 220.796 1.7039 1.13082 0
M  V30 2438 H 218.951 1.43289 3.59926 0
M  V30 2439 H 219.365 3.63944 3.77684 0
M  V30 2440 H 220.839 2.41032 4.96596 0
M  V30 2441 H 221.316 0.84617 4.30972 0
M  V30 2442 H 221.922 2.33741 3.5531 0
M  V30 2443 N 220.237 -1.11381 1.11499 0
M  V30 2444 C 221.17 -2.16621 0.71769 0
M  V30 2445 C 222.148 -1.60058 -0.286413 0
M  V30 2446 O 223.332 -1.87613 -0.182689 0
M  V30 2447 C 220.459 -3.38646 0.0607265 0
M  V30 2448 C 219.505 -4.13874 1.03008 0
M  V30 2449 S 220.338 -4.70731 2.55289 0
M  V30 2450 C 221.494 -5.96079 1.90895 0
M  V30 2451 H 221.727 -2.49987 1.60915 0
M  V30 2452 H 219.26 -1.23015 0.933092 0
M  V30 2453 H 221.218 -4.09313 -0.311965 0
M  V30 2454 H 219.879 -3.03537 -0.807702 0
M  V30 2455 H 219.072 -5.01333 0.517853 0
M  V30 2456 H 218.674 -3.4897 1.34522 0
M  V30 2457 H 220.966 -6.65948 1.24577 0
M  V30 2458 H 221.909 -6.51946 2.76354 0
M  V30 2459 H 222.317 -5.47652 1.36885 0
M  V30 2460 N 221.715 -0.905404 -1.28997 0
M  V30 2461 C 222.645 -0.404212 -2.29975 0
M  V30 2462 C 223.626 0.523784 -1.61835 0
M  V30 2463 O 224.811 0.433298 -1.89304 0
M  V30 2464 C 221.941 0.364042 -3.45387 0
M  V30 2465 C 220.895 -0.474048 -4.25367 0
M  V30 2466 C 220.221 0.422045 -5.33032 0
M  V30 2467 C 221.521 -1.72696 -4.92923 0
M  V30 2468 H 223.215 -1.24807 -2.72146 0
M  V30 2469 H 220.761 -0.601585 -1.30832 0
M  V30 2470 H 222.714 0.725447 -4.15109 0
M  V30 2471 H 221.438 1.24174 -3.02074 0
M  V30 2472 H 220.097 -0.81786 -3.57361 0
M  V30 2473 H 219.745 1.29804 -4.85963 0
M  V30 2474 H 219.445 -0.135057 -5.87445 0
M  V30 2475 H 220.969 0.779517 -6.05604 0
M  V30 2476 H 222.383 -1.43495 -5.55051 0
M  V30 2477 H 220.78 -2.22582 -5.57295 0
M  V30 2478 H 221.85 -2.45964 -4.17887 0
M  V30 2479 N 223.193 1.4272 -0.668489 0
M  V30 2480 C 224.604 1.84793 -0.266151 0
M  V30 2481 C 224.955 1.55959 1.19043 0
M  V30 2482 O 224.08 1.01622 1.91055 0
M  V30 2483 C 224.675 3.35436 -0.476271 0
M  V30 2484 C 223.234 3.76182 -0.128113 0
M  V30 2485 C 222.381 2.66344 -0.771777 0
M  V30 2486 H 225.332 1.32656 -0.871098 0
M  V30 2487 H 225.353 3.79515 0.273561 0
M  V30 2488 H 224.865 3.5639 -1.53647 0
M  V30 2489 H 222.966 3.60836 0.928891 0
M  V30 2490 H 223.079 4.75766 -0.564231 0
M  V30 2491 H 221.443 2.53885 -0.203652 0
M  V30 2492 H 222.226 2.90123 -1.83531 0
M  V30 2493 N 224.671 0.411399 1.52136 0
M  V30 2494 C 225.918 -0.163645 2.01838 0
M  V30 2495 C 226.246 -1.4495 1.29691 0
M  V30 2496 O 225.501 -1.91725 0.392431 0
M  V30 2497 C 225.8 -0.455872 3.54481 0
M  V30 2498 C 225.466 0.741055 4.44769 0
M  V30 2499 C 224.128 1.06936 4.69167 0
M  V30 2500 C 226.48 1.54075 4.97906 0
M  V30 2501 C 223.808 2.19851 5.43951 0
M  V30 2502 C 226.16 2.66067 5.73926 0
M  V30 2503 C 224.824 2.99381 5.96596 0
M  V30 2504 H 224.094 -0.0598821 0.738576 0
M  V30 2505 H 226.741 0.553283 1.83333 0
M  V30 2506 H 225.046 -1.2544 3.71177 0
M  V30 2507 H 226.743 -0.913802 3.90449 0
M  V30 2508 H 223.333 0.475192 4.25958 0
M  V30 2509 H 227.517 1.30033 4.78963 0
M  V30 2510 H 222.773 2.46006 5.59724 0
M  V30 2511 H 226.947 3.28419 6.14096 0
M  V30 2512 H 224.574 3.86992 6.54325 0
M  V30 2513 N 226.149 -1.5696 0.141893 0
M  V30 2514 C 227.097 -2.17784 -0.816874 0
M  V30 2515 C 228.091 -1.1334 -1.25899 0
M  V30 2516 O 229.297 -1.316 -1.22806 0
M  V30 2517 H 225.672 -0.697278 -0.281615 0
M  V30 2518 H 227.643 -2.97087 -0.279621 0
M  V30 2519 C 226.392 -2.80983 -2.04802 0
M  V30 2520 H 225.715 -3.61062 -1.7168 0
M  V30 2521 H 227.155 -3.2705 -2.69841 0
M  V30 2522 C 225.614 -1.79228 -2.8527 0
M  V30 2523 O 226.144 -1.25962 -3.8144 0
M  V30 2524 N 224.35 -1.48647 -2.49704 0
M  V30 2525 H 223.897 -1.92155 -1.71564 0
M  V30 2526 H 223.855 -0.808115 -3.03837 0
M  V30 2527 N 227.627 0.131896 -1.57047 0
M  V30 2528 C 228.56 1.19236 -1.94571 0
M  V30 2529 C 229.538 1.40782 -0.813576 0
M  V30 2530 O 230.722 1.55148 -1.07058 0
M  V30 2531 C 227.849 2.54858 -2.23081 0
M  V30 2532 C 226.895 2.49817 -3.45679 0
M  V30 2533 S 227.728 1.95036 -4.98719 0
M  V30 2534 C 228.884 3.32357 -5.30367 0
M  V30 2535 H 229.117 0.872297 -2.84215 0
M  V30 2536 H 226.65 0.338134 -1.50652 0
M  V30 2537 H 228.608 3.32898 -2.40185 0
M  V30 2538 H 227.269 2.84047 -1.34074 0
M  V30 2539 H 226.462 3.49688 -3.62952 0
M  V30 2540 H 226.064 1.79892 -3.27895 0
M  V30 2541 H 228.356 4.28525 -5.2476 0
M  V30 2542 H 229.299 3.19923 -6.31708 0
M  V30 2543 H 229.707 3.3019 -4.57859 0
M  V30 2544 N 229.106 1.52395 0.401703 0
M  V30 2545 C 230.522 1.41363 0.740864 0
M  V30 2546 C 230.722 0.523982 1.94568 0
M  V30 2547 O 229.778 -0.00741204 2.52499 0
M  V30 2548 C 231.091 2.84011 0.987847 0
M  V30 2549 C 232.639 2.93404 1.09011 0
M  V30 2550 C 233.114 4.37036 1.3698 0
M  V30 2551 N 234.605 4.40304 1.43829 0
M  V30 2552 C 235.34 5.48508 1.67112 0
M  V30 2553 N 234.836 6.66819 1.87949 0
M  V30 2554 N 236.629 5.36034 1.69187 0
M  V30 2555 H 228.78 2.08765 -0.391262 0
M  V30 2556 H 231.043 0.941265 -0.112798 0
M  V30 2557 H 230.749 3.51265 0.174835 0
M  V30 2558 H 230.623 3.25502 1.906 0
M  V30 2559 H 233.01 2.26325 1.8937 0
M  V30 2560 H 233.091 2.55359 0.15015 0
M  V30 2561 H 232.735 5.04676 0.571353 0
M  V30 2562 H 232.665 4.72623 2.3224 0
M  V30 2563 H 235.156 3.55024 1.29486 0
M  V30 2564 H 235.469 7.45063 2.05185 0
M  V30 2565 H 233.814 6.6987 1.85199 0
M  V30 2566 H 237.005 4.42579 1.52451 0
M  V30 2567 H 237.178 6.20434 1.86993 0
M  V30 2568 N 230.584 -0.659388 1.43143 0
M  V30 2569 C 231.861 -1.41627 1.34912 0
M  V30 2570 C 232.241 -2.11099 -0.00607785 0
M  V30 2571 O 231.589 -2.04353 -1.02236 0
M  V30 2572 C 231.799 -2.40604 2.52805 0
M  V30 2573 C 233.147 -3.04789 2.95616 0
M  V30 2574 O 234.171 -2.50932 2.52807 0
M  V30 2575 O 233.03 -4.02421 3.69756 0
M  V30 2576 H 230.124 -0.63246 0.532844 0
M  V30 2577 H 232.67 -0.686814 1.5518 0
M  V30 2578 H 231.442 -1.88174 3.43083 0
M  V30 2579 H 231.065 -3.21009 2.34604 0
M  V30 2580 N 232.062 -1.29571 -0.897171 0
M  V30 2581 C 233.025 -1.14913 -1.98312 0
M  V30 2582 C 234.025 -0.0838629 -1.60581 0
M  V30 2583 O 235.215 -0.331006 -1.71026 0
M  V30 2584 C 232.347 -0.757835 -3.3237 0
M  V30 2585 H 233.54 -2.11377 -2.12743 0
M  V30 2586 H 231.093 -1.12793 -1.08201 0
M  V30 2587 H 231.828 0.206837 -3.2364 0
M  V30 2588 H 231.613 -1.52755 -3.61121 0
M  V30 2589 H 233.103 -0.678408 -4.12053 0
M  V30 2590 N 233.54 1.10788 -1.12088 0
M  V30 2591 C 234.789 1.82036 -0.868659 0
M  V30 2592 C 235.102 1.85929 0.607426 0
M  V30 2593 O 236.308 2.53346 0.97613 0
M  V30 2594 C 234.764 3.26951 -1.50435 0
M  V30 2595 C 234.372 3.31367 -3.01496 0
M  V30 2596 C 236.116 4.03053 -1.33225 0
M  V30 2597 C 234.023 4.7072 -3.58017 0
M  V30 2598 H 232.953 0.682108 -0.321318 0
M  V30 2599 H 235.604 1.24618 -1.34694 0
M  V30 2600 H 233.986 3.84343 -0.953735 0
M  V30 2601 H 235.16 2.83819 -3.6302 0
M  V30 2602 H 233.475 2.6875 -3.18061 0
M  V30 2603 H 236.072 5.05981 -1.72878 0
M  V30 2604 H 236.415 4.15387 -0.275529 0
M  V30 2605 H 236.948 3.52066 -1.85188 0
M  V30 2606 H 233.687 4.63585 -4.63432 0
M  V30 2607 H 233.207 5.1865 -3.01268 0
M  V30 2608 H 234.886 5.39685 -3.56859 0
M  V30 2609 N 235.018 0.912232 1.28515 0
M  V30 2610 C 236.267 0.540504 1.94323 0
M  V30 2611 C 236.58 -0.920044 1.72611 0
M  V30 2612 O 237.786 -1.39986 2.32629 0
M  V30 2613 C 236.242 0.915803 3.48053 0
M  V30 2614 C 235.85 2.39598 3.78546 0
M  V30 2615 C 237.594 0.614588 4.20027 0
M  V30 2616 C 235.501 2.71148 5.25578 0
M  V30 2617 H 234.431 0.198418 0.727424 0
M  V30 2618 H 237.082 1.11094 1.46049 0
M  V30 2619 H 235.464 0.274168 3.9505 0
M  V30 2620 H 236.638 3.08422 3.42364 0
M  V30 2621 H 234.953 2.66749 3.1974 0
M  V30 2622 H 237.55 0.827002 5.28266 0
M  V30 2623 H 237.893 -0.447531 4.13887 0
M  V30 2624 H 238.426 1.21462 3.78803 0
M  V30 2625 H 235.165 3.76207 5.36794 0
M  V30 2626 H 234.685 2.0696 5.62963 0
M  V30 2627 H 236.364 2.58072 5.93302 0
M  V30 2628 N 236.496 -1.42363 0.676048 0
M  V30 2629 C 237.459 -2.29199 0.00766941 0
M  V30 2630 C 238.459 -1.43389 -0.727745 0
M  V30 2631 O 239.649 -1.64764 -0.56556 0
M  V30 2632 C 236.781 -3.2591 -0.999785 0
M  V30 2633 H 237.974 -2.89794 0.771988 0
M  V30 2634 H 235.527 -1.50024 0.438468 0
M  V30 2635 H 236.262 -2.70256 -1.79255 0
M  V30 2636 H 236.047 -3.89202 -0.475829 0
M  V30 2637 H 237.537 -3.91028 -1.46583 0
M  V30 2638 N 237.974 -0.419461 -1.51915 0
M  V30 2639 C 239.199 0.154572 -2.06823 0
M  V30 2640 C 239.624 1.3722 -1.28656 0
M  V30 2641 O 238.982 1.78461 -0.319583 0
M  V30 2642 C 239.03 0.473172 -3.57482 0
M  V30 2643 O 238.134 1.56255 -3.81652 0
M  V30 2644 H 237.475 0.0096924 -0.663929 0
M  V30 2645 H 240.005 -0.595642 -1.95738 0
M  V30 2646 H 240.015 0.728825 -4.01438 0
M  V30 2647 H 238.69 -0.416873 -4.13805 0
M  V30 2648 H 237.267 1.29825 -3.49571 0
M  V30 2649 N 239.452 1.56882 -0.150215 0
M  V30 2650 C 240.698 1.96518 0.500834 0
M  V30 2651 C 241.031 1.03527 1.64304 0
M  V30 2652 O 240.306 0.0782751 1.94342 0
M  V30 2653 C 240.589 3.45822 1.00395 0
M  V30 2654 C 240.442 4.49591 -0.136983 0
M  V30 2655 C 241.761 3.97704 1.88467 0
M  V30 2656 H 238.88 0.714535 0.18058 0
M  V30 2657 H 241.522 1.88577 -0.232091 0
M  V30 2658 H 239.672 3.5272 1.62851 0
M  V30 2659 H 241.344 4.5477 -0.77343 0
M  V30 2660 H 239.587 4.26441 -0.795652 0
M  V30 2661 H 240.258 5.51402 0.256815 0
M  V30 2662 H 242.734 3.93304 1.35834 0
M  V30 2663 H 241.61 5.0263 2.20578 0
M  V30 2664 H 241.871 3.40252 2.82279 0
M  V30 2665 N 240.93 -0.123565 1.57115 0
M  V30 2666 C 241.86 -1.15309 2.03042 0
M  V30 2667 C 242.841 -1.43454 0.914061 0
M  V30 2668 O 244.026 -1.53973 1.18347 0
M  V30 2669 C 241.156 -2.48043 2.43089 0
M  V30 2670 C 240.11 -2.3437 3.58127 0
M  V30 2671 C 239.436 -3.72026 3.84059 0
M  V30 2672 C 240.736 -1.80804 4.90007 0
M  V30 2673 H 242.43 -0.771102 2.893 0
M  V30 2674 H 239.976 -0.369479 1.39179 0
M  V30 2675 H 241.929 -3.20311 2.73823 0
M  V30 2676 H 240.653 -2.88122 1.53796 0
M  V30 2677 H 239.312 -1.64551 3.27595 0
M  V30 2678 H 238.96 -4.09582 2.91979 0
M  V30 2679 H 238.66 -3.63732 4.6149 0
M  V30 2680 H 240.184 -4.45806 4.1724 0
M  V30 2681 H 241.598 -2.42886 5.19307 0
M  V30 2682 H 239.995 -1.83343 5.71407 0
M  V30 2683 H 241.065 -0.76528 4.78823 0
M  V30 2684 N 242.408 -1.52605 -0.393616 0
M  V30 2685 C 243.636 -1.71294 -1.16043 0
M  V30 2686 C 244.051 -0.429259 -1.83855 0
M  V30 2687 O 243.408 0.595921 -1.72496 0
M  V30 2688 C 243.459 -2.8593 -2.21193 0
M  V30 2689 O 243.18 -4.09329 -1.56146 0
M  V30 2690 C 244.681 -3.16259 -3.10636 0
M  V30 2691 H 241.901 -0.573641 -0.348104 0
M  V30 2692 H 244.445 -1.99234 -0.461092 0
M  V30 2693 H 242.6 -2.60465 -2.86769 0
M  V30 2694 H 243.014 -4.73323 -2.25978 0
M  V30 2695 H 244.488 -3.99946 -3.80456 0
M  V30 2696 H 244.965 -2.3045 -3.73884 0
M  V30 2697 H 245.571 -3.43547 -2.50711 0
M  V30 2698 N 243.887 0.651787 -1.4349 0
M  V30 2699 C 245.112 1.44434 -1.48841 0
M  V30 2700 C 245.537 1.8779 -0.107955 0
M  V30 2701 O 244.895 1.57464 0.898602 0
M  V30 2702 C 244.943 2.65458 -2.44059 0
M  V30 2703 O 244.047 3.64566 -1.92784 0
M  V30 2704 H 243.388 0.433005 -0.503391 0
M  V30 2705 H 245.918 0.797451 -1.88419 0
M  V30 2706 H 245.928 3.13255 -2.6141 0
M  V30 2707 H 244.603 2.33244 -3.4434 0
M  V30 2708 H 243.18 3.23716 -1.851 0
M  V30 2709 N 245.365 1.30045 0.890287 0
M  V30 2710 C 246.59 1.21598 1.68014 0
M  V30 2711 C 247.015 -0.218678 1.86825 0
M  V30 2712 O 246.373 -1.15756 1.39536 0
M  V30 2713 C 246.421 1.94434 3.03691 0
M  V30 2714 O 245.525 1.2678 3.92429 0
M  V30 2715 H 244.866 0.420856 0.513592 0
M  V30 2716 H 247.396 1.71775 1.11151 0
M  V30 2717 H 247.406 2.03251 3.5377 0
M  V30 2718 H 246.081 2.98777 2.89318 0
M  V30 2719 H 244.658 1.26282 3.50866 0
M  V30 2720 N 246.843 -1.10192 1.12674 0
M  V30 2721 C 248.068 -1.86523 0.906853 0
M  V30 2722 C 248.493 -1.80221 -0.538711 0
M  V30 2723 O 247.851 -1.17396 -1.38158 0
M  V30 2724 C 247.899 -3.32758 1.3894 0
M  V30 2725 O 247.003 -4.08449 0.5695 0
M  V30 2726 H 246.344 -0.578678 0.325619 0
M  V30 2727 H 248.874 -1.39203 1.49946 0
M  V30 2728 H 248.884 -3.83608 1.38958 0
M  V30 2729 H 247.559 -3.36661 2.44197 0
M  V30 2730 H 246.136 -3.67427 0.636528 0
M  V30 2731 N 248.321 -0.919034 -1.28029 0
M  V30 2732 C 249.271 -0.382574 -2.24767 0
M  V30 2733 C 250.255 0.508286 -1.52661 0
M  V30 2734 O 251.447 0.347145 -1.73562 0
M  V30 2735 C 248.576 0.371432 -3.41285 0
M  V30 2736 C 247.662 -0.535449 -4.20706 0
M  V30 2737 N 248.053 -1.65141 -4.78082 0
M  V30 2738 C 246.351 -0.336824 -4.44726 0
M  V30 2739 C 247.052 -2.21475 -5.37888 0
M  V30 2740 N 246.028 -1.50537 -5.22341 0
M  V30 2741 H 249.83 -1.23477 -2.66703 0
M  V30 2742 H 247.344 -0.772299 -1.42861 0
M  V30 2743 H 249.341 0.772638 -4.09678 0
M  V30 2744 H 248.001 1.22066 -3.00882 0
M  V30 2745 H 249.012 -2.03392 -4.7629 0
M  V30 2746 H 245.689 0.47246 -4.14818 0
M  V30 2747 H 247.079 -3.15379 -5.93284 0
M  V30 2748 N 249.799 1.42003 -0.683588 0
M  V30 2749 C 251.027 2.05746 -0.218182 0
M  V30 2750 C 251.442 1.51396 1.12804 0
M  V30 2751 O 250.799 0.657303 1.70252 0
M  V30 2752 C 250.85 3.61171 -0.154131 0
M  V30 2753 O 250.571 4.13508 -1.44716 0
M  V30 2754 C 252.072 4.42042 0.333713 0
M  V30 2755 H 249.292 0.662888 -0.10402 0
M  V30 2756 H 251.836 1.81987 -0.9328 0
M  V30 2757 H 249.991 3.84012 0.511231 0
M  V30 2758 H 250.405 5.07453 -1.32632 0
M  V30 2759 H 251.879 5.51028 0.327423 0
M  V30 2760 H 252.356 4.17269 1.37053 0
M  V30 2761 H 252.962 4.24239 -0.300222 0
M  V30 2762 N 251.277 0.427512 1.51691 0
M  V30 2763 C 252.526 -0.143679 2.01188 0
M  V30 2764 C 252.839 -1.44642 1.31674 0
M  V30 2765 O 254.045 -2.09997 1.72086 0
M  V30 2766 C 252.501 -0.306602 3.58592 0
M  V30 2767 C 252.109 0.985125 4.37035 0
M  V30 2768 C 253.853 -0.832091 4.16265 0
M  V30 2769 C 251.76 0.788382 5.86122 0
M  V30 2770 H 250.69 -0.0574701 0.751807 0
M  V30 2771 H 253.341 0.555772 1.74881 0
M  V30 2772 H 251.723 -1.06882 3.81303 0
M  V30 2773 H 252.897 1.75492 4.26074 0
M  V30 2774 H 251.212 1.4384 3.90767 0
M  V30 2775 H 253.809 -0.995617 5.25349 0
M  V30 2776 H 254.152 -1.81186 3.74803 0
M  V30 2777 H 254.685 -0.128444 3.97593 0
M  V30 2778 H 251.424 1.74025 6.31978 0
M  V30 2779 H 250.944 0.0582143 5.99772 0
M  V30 2780 H 252.623 0.437722 6.45518 0
M  V30 2781 N 252.755 -1.56801 0.158532 0
M  V30 2782 C 254.001 -1.96781 -0.490405 0
M  V30 2783 C 254.334 -1.04397 -1.63753 0
M  V30 2784 O 253.609 -0.0885805 -1.94298 0
M  V30 2785 C 253.892 -3.4635 -0.985594 0
M  V30 2786 C 253.745 -4.49512 0.160824 0
M  V30 2787 C 255.064 -3.98697 -1.86355 0
M  V30 2788 H 252.183 -0.715482 -0.176788 0
M  V30 2789 H 254.825 -1.88451 0.242088 0
M  V30 2790 H 252.975 -3.53579 -1.60978 0
M  V30 2791 H 254.647 -4.54353 0.797537 0
M  V30 2792 H 252.89 -4.26013 0.818256 0
M  V30 2793 H 253.561 -5.51531 -0.227569 0
M  V30 2794 H 256.037 -3.94019 -1.33746 0
M  V30 2795 H 254.913 -5.03792 -2.17909 0
M  V30 2796 H 255.174 -3.41744 -2.8047 0
M  V30 2797 N 254.233 0.115231 -1.57178 0
M  V30 2798 C 255.163 1.1423 -2.03651 0
M  V30 2799 C 256.144 1.42967 -0.921655 0
M  V30 2800 O 257.329 1.53343 -1.19162 0
M  V30 2801 C 254.459 2.4675 -2.44401 0
M  V30 2802 C 253.413 2.32467 -3.59365 0
M  V30 2803 C 252.739 3.69984 -3.86026 0
M  V30 2804 C 254.039 1.78203 -4.90959 0
M  V30 2805 H 255.733 0.755749 -2.89705 0
M  V30 2806 H 253.279 0.362093 -1.39373 0
M  V30 2807 H 255.232 3.18854 -2.75517 0
M  V30 2808 H 253.956 2.87302 -1.55322 0
M  V30 2809 H 252.615 1.62811 -3.28463 0
M  V30 2810 H 252.263 4.08028 -2.94147 0
M  V30 2811 H 251.963 3.61279 -4.63412 0
M  V30 2812 H 253.487 4.43587 -4.19599 0
M  V30 2813 H 254.901 2.40128 -5.20587 0
M  V30 2814 H 253.298 1.8031 -5.72371 0
M  V30 2815 H 254.368 0.739876 -4.79222 0
M  V30 2816 N 255.711 1.52812 0.385517 0
M  V30 2817 C 256.936 1.72207 1.15583 0
M  V30 2818 C 257.361 0.441034 1.82857 0
M  V30 2819 O 256.719 -0.603465 1.70962 0
M  V30 2820 C 256.767 2.87476 2.17692 0
M  V30 2821 O 255.871 2.54693 3.24354 0
M  V30 2822 H 255.212 0.572526 0.336319 0
M  V30 2823 H 257.742 1.99618 0.448744 0
M  V30 2824 H 257.752 3.13072 2.6163 0
M  V30 2825 H 256.427 3.80408 1.68115 0
M  V30 2826 H 255.004 2.3985 2.85529 0
M  V30 2827 N 257.189 -0.644168 1.43834 0
M  V30 2828 C 258.435 -1.40603 1.46146 0
M  V30 2829 C 258.768 -1.93997 0.0887717 0
M  V30 2830 O 258.043 -1.72854 -0.891724 0
M  V30 2831 C 258.326 -2.58086 2.51124 0
M  V30 2832 C 258.179 -2.10126 3.97702 0
M  V30 2833 C 259.498 -3.60291 2.52742 0
M  V30 2834 H 256.617 -0.509905 0.532134 0
M  V30 2835 H 259.259 -0.729502 1.75437 0
M  V30 2836 H 257.409 -3.15801 2.26278 0
M  V30 2837 H 259.081 -1.57342 4.33637 0
M  V30 2838 H 257.324 -1.41419 4.10101 0
M  V30 2839 H 257.995 -2.94649 4.66783 0
M  V30 2840 H 260.471 -3.12352 2.7491 0
M  V30 2841 H 259.347 -4.40032 3.28121 0
M  V30 2842 H 259.608 -4.1349 1.56455 0
M  V30 2843 N 258.668 -1.30515 -0.883378 0
M  V30 2844 C 259.908 -1.20716 -1.64946 0
M  V30 2845 C 260.272 0.234072 -1.90568 0
M  V30 2846 O 261.473 0.455335 -2.64915 0
M  V30 2847 C 259.744 -2.01444 -2.9522 0
M  V30 2848 S 261.303 -2.0836 -3.86175 0
M  V30 2849 H 258.121 -0.430165 -0.566109 0
M  V30 2850 H 260.723 -1.65011 -1.04841 0
M  V30 2851 H 259.427 -3.05268 -2.74298 0
M  V30 2852 H 258.958 -1.57817 -3.60357 0
M  V30 2853 H 260.973 -1.21215 -4.81167 0
M  V30 2854 N 260.146 1.09593 -1.13257 0
M  V30 2855 C 261.076 2.18214 -0.830946 0
M  V30 2856 C 262.057 1.68812 0.208966 0
M  V30 2857 O 263.242 1.9408 0.0682666 0
M  V30 2858 C 260.372 3.46051 -0.294296 0
M  V30 2859 C 259.326 4.08778 -1.26826 0
M  V30 2860 C 258.652 5.31419 -0.591449 0
M  V30 2861 C 259.952 4.51476 -2.62615 0
M  V30 2862 H 261.646 2.43703 -1.73923 0
M  V30 2863 H 259.192 1.17128 -0.837675 0
M  V30 2864 H 261.145 4.2134 -0.0709606 0
M  V30 2865 H 259.869 3.20079 0.649366 0
M  V30 2866 H 258.528 3.35505 -1.47756 0
M  V30 2867 H 258.176 5.01727 0.357633 0
M  V30 2868 H 257.876 5.74341 -1.24123 0
M  V30 2869 H 259.4 6.09433 -0.377355 0
M  V30 2870 H 260.814 5.17999 -2.45663 0
M  V30 2871 H 259.211 5.05277 -3.23752 0
M  V30 2872 H 260.281 3.63962 -3.20406 0
M  V30 2873 N 261.624 0.925811 1.2754 0
M  V30 2874 C 262.849 0.580924 1.99098 0
M  V30 2875 C 263.274 -0.833555 1.68622 0
M  V30 2876 O 262.632 -1.55903 0.925422 0
M  V30 2877 C 262.68 0.811186 3.51358 0
M  V30 2878 O 261.784 -0.124129 4.12213 0
M  V30 2879 H 261.125 0.223873 0.625122 0
M  V30 2880 H 263.655 1.24455 1.62395 0
M  V30 2881 H 263.665 0.72601 4.01489 0
M  V30 2882 H 262.34 1.84227 3.72872 0
M  V30 2883 H 260.917 0.0108006 3.72898 0
M  V30 2884 N 263.102 -1.41638 0.69111 0
M  V30 2885 C 264.065 -2.29178 0.0319786 0
M  V30 2886 C 265.065 -1.44153 -0.712496 0
M  V30 2887 O 266.255 -1.65354 -0.548053 0
M  V30 2888 C 263.387 -3.26952 -0.965161 0
M  V30 2889 H 264.58 -2.88959 0.802681 0
M  V30 2890 H 262.133 -1.4955 0.454356 0
M  V30 2891 H 262.868 -2.72142 -1.76378 0
M  V30 2892 H 262.653 -3.89685 -0.434522 0
M  V30 2893 H 264.143 -3.92561 -1.42428 0
M  V30 2894 N 264.58 -0.43555 -1.51462 0
M  V30 2895 C 265.808 0.130242 -2.0649 0
M  V30 2896 C 266.223 1.36614 -1.30315 0
M  V30 2897 O 265.58 1.78869 -0.362223 0
M  V30 2898 C 265.631 0.454253 -3.58635 0
M  V30 2899 O 265.352 -0.73259 -4.31931 0
M  V30 2900 C 266.853 1.07091 -4.3017 0
M  V30 2901 H 264.073 0.00871669 -0.670943 0
M  V30 2902 H 266.617 -0.614117 -1.95061 0
M  V30 2903 H 264.772 1.14851 -3.69984 0
M  V30 2904 H 265.186 -0.455787 -5.22516 0
M  V30 2905 H 266.66 1.24764 -5.37716 0
M  V30 2906 H 267.137 2.05144 -3.88346 0
M  V30 2907 H 267.743 0.416089 -4.2326 0
M  V30 2908 N 266.058 1.56714 -0.166846 0
M  V30 2909 C 267.469 1.83378 0.350646 0
M  V30 2910 C 267.82 1.08646 1.63372 0
M  V30 2911 O 266.945 0.338058 2.13743 0
M  V30 2912 C 267.54 3.32643 0.642963 0
M  V30 2913 C 266.099 3.59818 1.10491 0
M  V30 2914 C 265.246 2.76954 0.138411 0
M  V30 2915 H 268.197 1.53803 -0.391193 0
M  V30 2916 H 268.218 3.49878 1.49551 0
M  V30 2917 H 267.73 3.87007 -0.291055 0
M  V30 2918 H 265.831 3.1086 2.05418 0
M  V30 2919 H 265.944 4.68178 1.01716 0
M  V30 2920 H 264.308 2.4666 0.634911 0
M  V30 2921 H 265.091 3.34097 -0.789549 0
M  V30 2922 N 267.536 -0.106894 1.57237 0
M  V30 2923 C 268.784 -0.810921 1.85117 0
M  V30 2924 C 269.105 -1.7984 0.753827 0
M  V30 2925 O 268.375 -1.94649 -0.221056 0
M  V30 2926 H 266.955 -0.302466 0.683025 0
M  V30 2927 H 269.617 -0.0913324 1.94686 0
M  V30 2928 H 268.713 -1.34875 2.81452 0
M  V30 2929 N 269.014 -1.53014 -0.377408 0
M  V30 2930 C 270.262 -1.6829 -1.11906 0
M  V30 2931 C 270.583 -0.431206 -1.90173 0
M  V30 2932 O 269.853 0.554595 -1.87886 0
M  V30 2933 H 268.433 -0.620371 -0.416112 0
M  V30 2934 H 271.095 -1.90167 -0.426893 0
M  V30 2935 H 270.191 -2.53862 -1.8155 0
M  V30 2936 N 270.492 0.636531 -1.44174 0
M  V30 2937 C 271.439 1.74875 -1.50624 0
M  V30 2938 C 272.409 1.62275 -0.35442 0
M  V30 2939 O 273.594 1.82276 -0.563908 0
M  V30 2940 C 270.734 3.13102 -1.45125 0
M  V30 2941 C 269.847 3.36717 -2.7064 0
M  V30 2942 C 268.982 4.64885 -2.57013 0
M  V30 2943 C 268.021 4.8166 -3.77717 0
M  V30 2944 N 267.158 6.01101 -3.62798 0
M  V30 2945 H 271.998 1.68697 -2.45653 0
M  V30 2946 H 269.535 0.823004 -1.21922 0
M  V30 2947 H 271.493 3.93034 -1.39929 0
M  V30 2948 H 270.123 3.18308 -0.536671 0
M  V30 2949 H 269.175 2.50763 -2.86046 0
M  V30 2950 H 270.487 3.44993 -3.60252 0
M  V30 2951 H 269.641 5.52969 -2.49619 0
M  V30 2952 H 268.38 4.58957 -1.64953 0
M  V30 2953 H 267.385 3.92007 -3.85501 0
M  V30 2954 H 268.61 4.89406 -4.70807 0
M  V30 2955 H 266.556 5.96273 -2.73486 0
M  V30 2956 H 266.473 6.10409 -4.46023 0
M  V30 2957 H 267.741 6.91761 -3.59286 0
M  V30 2958 N 271.97 1.30982 0.876444 0
M  V30 2959 C 272.88 1.2003 2.01569 0
M  V30 2960 C 273.896 0.11838 1.73597 0
M  V30 2961 O 275.072 0.33495 1.98595 0
M  V30 2962 C 272.137 0.901637 3.34771 0
M  V30 2963 C 271.198 2.06979 3.76109 0
M  V30 2964 C 270.431 1.78529 5.02954 0
M  V30 2965 O 270.654 0.717296 5.65872 0
M  V30 2966 O 269.588 2.64019 5.40905 0
M  V30 2967 H 273.414 2.15753 2.13739 0
M  V30 2968 H 270.999 1.10658 1.00375 0
M  V30 2969 H 272.881 0.750645 4.1466 0
M  V30 2970 H 271.556 -0.0256141 3.2369 0
M  V30 2971 H 270.463 2.27616 2.96887 0
M  V30 2972 H 271.796 2.97907 3.91807 0
M  V30 2973 N 273.449 -1.08991 1.13837 0
M  V30 2974 C 274.399 -2.1393 0.788535 0
M  V30 2975 C 275.383 -1.59396 -0.219516 0
M  V30 2976 O 276.575 -1.76985 -0.0227557 0
M  V30 2977 C 273.704 -3.42305 0.261147 0
M  V30 2978 C 272.79 -4.03736 1.29837 0
M  V30 2979 N 273.181 -4.39659 2.50067 0
M  V30 2980 C 271.479 -4.30993 1.1472 0
M  V30 2981 C 272.18 -4.88113 3.16419 0
M  V30 2982 N 271.156 -4.85846 2.43832 0
M  V30 2983 H 274.958 -2.39516 1.70322 0
M  V30 2984 H 272.472 -1.26263 1.02134 0
M  V30 2985 H 274.469 -4.16899 -0.0077405 0
M  V30 2986 H 273.129 -3.18172 -0.647805 0
M  V30 2987 H 274.14 -4.30878 2.8734 0
M  V30 2988 H 270.817 -4.16444 0.296773 0
M  V30 2989 H 272.207 -5.25336 4.18894 0
M  V30 2990 N 274.927 -0.932562 -1.27047 0
M  V30 2991 C 275.857 -0.452902 -2.29066 0
M  V30 2992 C 276.838 0.489338 -1.62909 0
M  V30 2993 O 278.023 0.393046 -1.90181 0
M  V30 2994 C 275.153 0.290698 -3.46081 0
M  V30 2995 C 274.107 -0.564168 -4.24265 0
M  V30 2996 C 273.433 0.308886 -5.33807 0
M  V30 2997 C 274.733 -1.83112 -4.89149 0
M  V30 2998 H 276.427 -1.30552 -2.69437 0
M  V30 2999 H 273.973 -0.629201 -1.29526 0
M  V30 3000 H 275.926 0.637233 -4.16554 0
M  V30 3001 H 274.65 1.17738 -3.0464 0
M  V30 3002 H 273.309 -0.893477 -3.55545 0
M  V30 3003 H 272.957 1.19467 -4.88607 0
M  V30 3004 H 272.657 -0.259633 -5.87026 0
M  V30 3005 H 274.181 0.650884 -6.07121 0
M  V30 3006 H 275.595 -1.55236 -5.51883 0
M  V30 3007 H 273.992 -2.34353 -5.52448 0
M  V30 3008 H 275.062 -2.54772 -4.12576 0
M  V30 3009 N 276.405 1.4127 -0.698611 0
M  V30 3010 C 277.651 2.01478 -0.231207 0
M  V30 3011 C 277.984 1.55215 1.16713 0
M  V30 3012 O 277.259 0.764672 1.78838 0
M  V30 3013 C 277.542 3.58912 -0.292281 0
M  V30 3014 C 277.395 4.15293 -1.72778 0
M  V30 3015 C 278.714 4.38736 0.346194 0
M  V30 3016 H 275.833 0.732025 -0.0854878 0
M  V30 3017 H 278.475 1.67977 -0.887906 0
M  V30 3018 H 276.625 3.87582 0.26686 0
M  V30 3019 H 278.297 3.97486 -2.341 0
M  V30 3020 H 276.54 3.7022 -2.26096 0
M  V30 3021 H 277.211 5.24452 -1.72202 0
M  V30 3022 H 279.687 4.15897 -0.130035 0
M  V30 3023 H 278.563 5.48221 0.272932 0
M  V30 3024 H 278.824 4.18425 1.42734 0
M  V30 3025 N 277.883 0.443576 1.51229 0
M  V30 3026 C 279.129 -0.11321 2.03085 0
M  V30 3027 C 279.484 -1.39841 1.32145 0
M  V30 3028 O 278.777 -1.86723 0.429542 0
M  V30 3029 C 278.971 -0.380579 3.55368 0
M  V30 3030 C 278.8 0.877157 4.41062 0
M  V30 3031 C 277.57 1.4125 4.85156 0
M  V30 3032 C 279.768 1.76503 4.83064 0
M  V30 3033 N 277.75 2.62213 5.55083 0
M  V30 3034 C 279.121 2.82067 5.52122 0
M  V30 3035 C 281.176 1.7787 4.65045 0
M  V30 3036 C 279.879 3.88952 6.05069 0
M  V30 3037 C 281.905 2.83694 5.18914 0
M  V30 3038 C 281.267 3.87978 5.87922 0
M  V30 3039 H 277.366 -0.00210178 0.781997 0
M  V30 3040 H 279.95 0.605641 1.85041 0
M  V30 3041 H 278.121 -1.06847 3.73414 0
M  V30 3042 H 279.853 -0.929274 3.93887 0
M  V30 3043 H 276.608 0.965542 4.63653 0
M  V30 3044 H 277.032 3.23568 5.9467 0
M  V30 3045 H 281.674 0.985744 4.11148 0
M  V30 3046 H 279.392 4.69082 6.58018 0
M  V30 3047 H 282.978 2.85702 5.06819 0
M  V30 3048 H 281.858 4.68517 6.28857 0
M  V30 3049 N 279.361 -1.56624 0.175154 0
M  V30 3050 C 280.293 -2.15333 -0.785128 0
M  V30 3051 C 281.306 -1.1099 -1.19101 0
M  V30 3052 O 282.495 -1.38162 -1.13019 0
M  V30 3053 C 279.595 -2.68427 -2.06882 0
M  V30 3054 C 278.768 -3.97466 -1.8259 0
M  V30 3055 C 277.827 -4.35585 -2.95215 0
M  V30 3056 O 276.853 -5.03389 -2.65684 0
M  V30 3057 N 278.055 -3.97457 -4.23094 0
M  V30 3058 H 280.82 -2.98359 -0.283187 0
M  V30 3059 H 278.381 -1.61898 -0.00749817 0
M  V30 3060 H 280.373 -2.90924 -2.81328 0
M  V30 3061 H 278.943 -1.89968 -2.48256 0
M  V30 3062 H 278.163 -3.83307 -0.920287 0
M  V30 3063 H 279.451 -4.81736 -1.63733 0
M  V30 3064 H 278.849 -3.42878 -4.49945 0
M  V30 3065 H 277.406 -4.24947 -4.9423 0
M  V30 3066 N 280.839 0.0985539 -1.57292 0
M  V30 3067 C 282.088 0.801358 -1.85098 0
M  V30 3068 C 282.401 1.80066 -0.763902 0
M  V30 3069 O 283.607 2.55112 -0.928981 0
M  V30 3070 C 282.063 1.47599 -3.28242 0
M  V30 3071 C 281.671 0.516624 -4.45011 0
M  V30 3072 C 283.415 2.16272 -3.65276 0
M  V30 3073 C 281.322 1.19564 -5.79188 0
M  V30 3074 H 280.252 0.303022 -0.69043 0
M  V30 3075 H 282.903 0.0542623 -1.8342 0
M  V30 3076 H 281.285 2.27042 -3.2445 0
M  V30 3077 H 282.459 -0.246065 -4.60143 0
M  V30 3078 H 280.774 -0.064227 -4.1635 0
M  V30 3079 H 283.371 2.67802 -4.62803 0
M  V30 3080 H 283.714 2.95009 -2.93727 0
M  V30 3081 H 284.247 1.43693 -3.70941 0
M  V30 3082 H 280.986 0.449157 -6.53959 0
M  V30 3083 H 280.506 1.92984 -5.67906 0
M  V30 3084 H 282.185 1.7231 -6.23633 0
M  V30 3085 N 282.317 1.53212 0.369288 0
M  V30 3086 C 283.247 1.82365 1.45826 0
M  V30 3087 C 284.228 0.676907 1.56051 0
M  V30 3088 O 285.413 0.926401 1.70679 0
M  V30 3089 C 282.543 2.01023 2.83208 0
M  V30 3090 C 281.497 3.1678 2.8781 0
M  V30 3091 C 280.823 3.20724 4.27832 0
M  V30 3092 C 282.123 4.55447 2.55667 0
M  V30 3093 H 283.817 2.73559 1.21678 0
M  V30 3094 H 281.363 1.3163 0.583911 0
M  V30 3095 H 283.316 2.20001 3.59413 0
M  V30 3096 H 282.04 1.06536 3.08736 0
M  V30 3097 H 280.699 2.97616 2.14056 0
M  V30 3098 H 280.347 2.23882 4.50429 0
M  V30 3099 H 280.047 3.98496 4.31827 0
M  V30 3100 H 281.571 3.41881 5.05915 0
M  V30 3101 H 282.985 4.74611 3.21586 0
M  V30 3102 H 281.382 5.35432 2.70984 0
M  V30 3103 H 282.452 4.60812 1.5093 0
M  V30 3104 N 283.795 -0.628877 1.44509 0
M  V30 3105 C 284.758 -1.72263 1.51188 0
M  V30 3106 C 285.758 -1.55907 0.39367 0
M  V30 3107 O 286.948 -1.61361 0.656377 0
M  V30 3108 C 284.08 -3.11365 1.38798 0
M  V30 3109 H 285.273 -1.67714 2.4862 0
M  V30 3110 H 282.826 -0.842737 1.31634 0
M  V30 3111 H 283.561 -3.21507 0.424693 0
M  V30 3112 H 283.346 -3.24644 2.19884 0
M  V30 3113 H 284.836 -3.91075 1.46458 0
M  V30 3114 N 285.273 -1.31445 -0.869486 0
M  V30 3115 C 286.221 -1.19067 -1.99814 0
M  V30 3116 C 287.215 -0.0988569 -1.69111 0
M  V30 3117 O 288.421 -0.260781 -1.78101 0
M  V30 3118 H 284.796 -0.368677 -0.655425 0
M  V30 3119 H 286.767 -2.14555 -2.07385 0
M  V30 3120 C 285.516 -0.915323 -3.35436 0
M  V30 3121 H 284.839 -1.74759 -3.59582 0
M  V30 3122 H 286.279 -0.868895 -4.15001 0
M  V30 3123 C 284.738 0.381928 -3.34728 0
M  V30 3124 O 285.268 1.39857 -3.76567 0
M  V30 3125 N 283.474 0.398633 -2.87853 0
M  V30 3126 H 283.021 -0.429186 -2.54 0
M  V30 3127 H 282.979 1.26651 -2.87762 0
M  V30 3128 N 286.751 1.08385 -1.14413 0
M  V30 3129 C 287.997 1.81044 -0.913834 0
M  V30 3130 C 288.33 1.86004 0.558209 0
M  V30 3131 O 287.605 1.33606 1.4135 0
M  V30 3132 C 287.888 3.26648 -1.51569 0
M  V30 3133 C 287.741 3.29895 -3.0576 0
M  V30 3134 C 289.06 4.23629 -1.19273 0
M  V30 3135 H 286.179 0.65727 -0.333414 0
M  V30 3136 H 288.821 1.26896 -1.41412 0
M  V30 3137 H 286.971 3.72889 -1.09023 0
M  V30 3138 H 288.643 2.91977 -3.57137 0
M  V30 3139 H 286.886 2.69163 -3.40197 0
M  V30 3140 H 287.557 4.32516 -3.42977 0
M  V30 3141 H 290.033 3.85727 -1.56057 0
M  V30 3142 H 288.909 5.23822 -1.64017 0
M  V30 3143 H 289.17 4.41968 -0.108068 0
M  V30 3144 N 288.23 0.939286 1.26551 0
M  V30 3145 C 289.479 0.581601 1.93133 0
M  V30 3146 C 289.792 -0.883224 1.74524 0
M  V30 3147 O 290.998 -1.3502 2.35546 0
M  V30 3148 C 289.454 0.989425 3.46032 0
M  V30 3149 C 289.062 2.47573 3.73379 0
M  V30 3150 C 290.806 0.703544 4.18629 0
M  V30 3151 C 288.713 2.82235 5.19709 0
M  V30 3152 H 287.643 0.213803 0.723052 0
M  V30 3153 H 290.294 1.14167 1.4366 0
M  V30 3154 H 288.676 0.357902 3.94379 0
M  V30 3155 H 289.85 3.15614 3.35744 0
M  V30 3156 H 288.165 2.73471 3.1401 0
M  V30 3157 H 290.762 0.938869 5.26393 0
M  V30 3158 H 291.105 -0.359639 4.14744 0
M  V30 3159 H 291.638 1.2947 3.76141 0
M  V30 3160 H 288.377 3.87509 5.28694 0
M  V30 3161 H 287.897 2.18854 5.58447 0
M  V30 3162 H 289.576 2.70599 5.87695 0
M  V30 3163 N 289.708 -1.40897 0.706093 0
M  V30 3164 C 290.957 -2.00284 0.238574 0
M  V30 3165 C 291.27 -1.56604 -1.17194 0
M  V30 3166 O 292.476 -2.08624 -1.73748 0
M  V30 3167 C 290.932 -3.57934 0.375623 0
M  V30 3168 C 290.54 -4.10591 1.79217 0
M  V30 3169 C 292.284 -4.24488 -0.0315857 0
M  V30 3170 C 290.191 -5.60712 1.88032 0
M  V30 3171 H 289.121 -0.749144 0.0854398 0
M  V30 3172 H 291.772 -1.61251 0.875813 0
M  V30 3173 H 290.154 -3.94622 -0.330042 0
M  V30 3174 H 291.328 -3.85301 2.52745 0
M  V30 3175 H 289.643 -3.56601 2.15 0
M  V30 3176 H 292.24 -5.34698 0.0136842 0
M  V30 3177 H 292.583 -4.02261 -1.072 0
M  V30 3178 H 293.116 -3.92873 0.624181 0
M  V30 3179 H 289.855 -5.87781 2.90161 0
M  V30 3180 H 289.375 -5.87896 1.18903 0
M  V30 3181 H 291.054 -6.25658 1.64805 0
M  V30 3182 N 291.186 -0.45159 -1.50991 0
M  V30 3183 C 292.433 0.110074 -2.02201 0
M  V30 3184 C 292.761 1.4146 -1.33489 0
M  V30 3185 O 292.016 1.90617 -0.443125 0
M  V30 3186 C 292.315 0.361728 -3.55565 0
M  V30 3187 C 291.981 -0.858717 -4.42648 0
M  V30 3188 C 290.643 -1.19338 -4.66167 0
M  V30 3189 C 292.995 -1.67221 -4.93646 0
M  V30 3190 C 290.323 -2.34195 -5.37931 0
M  V30 3191 C 292.675 -2.8119 -5.6667 0
M  V30 3192 C 291.339 -3.15094 -5.88449 0
M  V30 3193 H 290.609 0.040279 -0.739904 0
M  V30 3194 H 293.256 -0.601696 -1.81802 0
M  V30 3195 H 291.561 1.15554 -3.74372 0
M  V30 3196 H 293.258 0.80996 -3.92735 0
M  V30 3197 H 289.848 -0.58796 -4.24548 0
M  V30 3198 H 294.032 -1.42686 -4.75347 0
M  V30 3199 H 289.288 -2.6076 -5.53005 0
M  V30 3200 H 293.462 -3.44585 -6.05173 0
M  V30 3201 H 291.089 -4.04204 -6.43835 0
M  V30 3202 N 292.664 1.56529 -0.183458 0
M  V30 3203 C 293.913 1.96419 0.458511 0
M  V30 3204 C 294.226 1.0727 1.63562 0
M  V30 3205 O 295.432 1.36893 2.34462 0
M  V30 3206 C 293.888 3.49298 0.867122 0
M  V30 3207 C 293.496 4.47092 -0.285057 0
M  V30 3208 C 295.24 3.97983 1.47683 0
M  V30 3209 C 293.147 5.91225 0.143862 0
M  V30 3210 H 292.077 0.733394 0.175071 0
M  V30 3211 H 294.728 1.81448 -0.273624 0
M  V30 3212 H 293.11 3.59731 1.65559 0
M  V30 3213 H 294.284 4.48383 -1.0625 0
M  V30 3214 H 292.599 4.08535 -0.805503 0
M  V30 3215 H 295.196 5.03134 1.80999 0
M  V30 3216 H 295.539 3.41618 2.37914 0
M  V30 3217 H 296.072 3.90617 0.752562 0
M  V30 3218 H 292.811 6.5149 -0.723974 0
M  V30 3219 H 292.331 5.93214 0.886413 0
M  V30 3220 H 294.01 6.44362 0.583628 0
M  V30 3221 N 294.142 -0.090211 1.57342 0
M  V30 3222 C 295.382 -0.798365 1.88163 0
M  V30 3223 C 295.746 -1.75662 0.775046 0
M  V30 3224 O 296.947 -2.50849 0.965816 0
M  V30 3225 C 295.218 -1.50376 3.24225 0
M  V30 3226 S 296.777 -2.24952 3.76752 0
M  V30 3227 H 293.595 -0.265883 0.659414 0
M  V30 3228 H 296.197 -0.055264 1.95422 0
M  V30 3229 H 294.901 -0.792286 4.0268 0
M  V30 3230 H 294.432 -2.28666 3.20118 0
M  V30 3231 H 296.447 -3.51173 3.5056 0
M  V30 3232 N 295.62 -1.53406 -0.361157 0
M  V30 3233 C 296.868 -1.69467 -1.10115 0
M  V30 3234 C 297.189 -0.451352 -1.89705 0
M  V30 3235 O 296.459 0.534636 -1.88463 0
M  V30 3236 H 295.039 -0.624749 -0.409508 0
M  V30 3237 H 297.701 -1.90609 -0.406699 0
M  V30 3238 H 296.797 -2.55774 -1.78847 0
M  V30 3239 N 297.098 0.621204 -1.44841 0
M  V30 3240 C 298.046 1.75385 -1.52784 0
M  V30 3241 C 299.04 1.64639 -0.398779 0
M  V30 3242 O 300.246 1.70598 -0.574137 0
M  V30 3243 H 296.621 0.579193 -0.479625 0
M  V30 3244 H 298.592 1.6581 -2.48092 0
M  V30 3245 C 297.341 3.13742 -1.4987 0
M  V30 3246 H 296.664 3.22663 -2.36069 0
M  V30 3247 H 298.104 3.92861 -1.59487 0
M  V30 3248 C 296.563 3.36175 -0.220973 0
M  V30 3249 O 297.093 3.95469 0.704782 0
M  V30 3250 N 295.299 2.90348 -0.120963 0
M  V30 3251 H 294.846 2.42278 -0.875162 0
M  V30 3252 H 294.804 3.05732 0.733168 0
M  V30 3253 N 298.576 1.31904 0.862503 0
M  V30 3254 C 299.506 1.22782 1.98612 0
M  V30 3255 C 300.487 0.113362 1.69722 0
M  V30 3256 O 301.672 0.299218 1.91881 0
M  V30 3257 C 298.802 0.942058 3.34279 0
M  V30 3258 C 297.756 2.0169 3.77499 0
M  V30 3259 C 297.082 1.58369 5.10709 0
M  V30 3260 C 298.382 3.43096 3.93805 0
M  V30 3261 H 300.076 2.16788 2.06502 0
M  V30 3262 H 297.622 1.04366 0.992154 0
M  V30 3263 H 299.575 0.864818 4.1243 0
M  V30 3264 H 298.299 -0.0336603 3.26583 0
M  V30 3265 H 296.958 2.08416 3.01593 0
M  V30 3266 H 296.606 0.595628 4.99461 0
M  V30 3267 H 296.306 2.30279 5.40597 0
M  V30 3268 H 297.83 1.52067 5.91361 0
M  V30 3269 H 299.244 3.39003 4.62331 0
M  V30 3270 H 297.641 4.13288 4.35101 0
M  V30 3271 H 298.711 3.83334 2.96957 0
M  V30 3272 N 300.054 -1.07777 1.14986 0
M  V30 3273 C 301.017 -2.13041 0.845358 0
M  V30 3274 C 302.017 -1.60071 -0.152931 0
M  V30 3275 O 303.207 -1.74033 0.0761879 0
M  V30 3276 C 300.339 -3.39896 0.261383 0
M  V30 3277 H 301.532 -2.41485 1.77834 0
M  V30 3278 H 299.085 -1.23595 0.956757 0
M  V30 3279 H 299.82 -3.17091 -0.68 0
M  V30 3280 H 299.605 -3.79642 0.980514 0
M  V30 3281 H 301.095 -4.17548 0.0657687 0
M  V30 3282 N 301.532 -0.945985 -1.26051 0
M  V30 3283 C 302.78 -0.594941 -1.93145 0
M  V30 3284 C 303.101 0.86953 -1.7454 0
M  V30 3285 O 302.371 1.61838 -1.10387 0
M  V30 3286 H 300.951 -0.217044 -0.714773 0
M  V30 3287 H 303.613 -1.20235 -1.53393 0
M  V30 3288 H 302.709 -0.816835 -3.01221 0
M  V30 3289 N 303.011 1.40521 -0.713556 0
M  V30 3290 C 303.974 2.29098 -0.0684347 0
M  V30 3291 C 304.974 1.45268 0.689472 0
M  V30 3292 O 306.164 1.66205 0.521677 0
M  V30 3293 C 303.296 3.28446 0.913024 0
M  V30 3294 H 304.489 2.87645 -0.84855 0
M  V30 3295 H 302.042 1.48809 -0.47809 0
M  V30 3296 H 302.777 2.74913 1.72027 0
M  V30 3297 H 302.562 3.90327 0.372472 0
M  V30 3298 H 304.052 3.94777 1.36165 0
M  V30 3299 N 304.489 0.459591 1.5075 0
M  V30 3300 C 305.719 -0.0972338 2.06371 0
M  V30 3301 C 306.127 -1.35074 1.32483 0
M  V30 3302 O 305.47 -1.79637 0.384226 0
M  V30 3303 C 305.532 -0.462759 3.56509 0
M  V30 3304 C 305.196 0.687084 4.51805 0
M  V30 3305 C 306.193 1.56578 4.95761 0
M  V30 3306 C 303.878 0.874144 4.94635 0
M  V30 3307 C 305.872 2.61604 5.81242 0
M  V30 3308 C 303.559 1.92765 5.79901 0
M  V30 3309 C 304.557 2.79697 6.23104 0
M  V30 3310 O 304.245 3.83235 7.06673 0
M  V30 3311 H 303.977 -0.00140687 0.675999 0
M  V30 3312 H 306.531 0.644011 1.95043 0
M  V30 3313 H 304.761 -1.25703 3.65699 0
M  V30 3314 H 306.45 -0.953323 3.94546 0
M  V30 3315 H 307.216 1.4329 4.6335 0
M  V30 3316 H 303.095 0.207006 4.60535 0
M  V30 3317 H 306.639 3.29489 6.14884 0
M  V30 3318 H 302.536 2.06064 6.11725 0
M  V30 3319 H 303.304 3.80084 7.24899 0
M  V30 3320 N 305.967 -1.56429 0.191757 0
M  V30 3321 C 306.917 -2.15548 -0.743184 0
M  V30 3322 C 307.901 -1.09531 -1.17863 0
M  V30 3323 O 309.093 -1.35602 -1.13759 0
M  V30 3324 C 306.222 -2.81577 -1.96391 0
M  V30 3325 C 305.308 -3.9478 -1.54951 0
M  V30 3326 N 305.699 -4.98677 -0.845876 0
M  V30 3327 C 303.997 -4.06319 -1.83905 0
M  V30 3328 C 304.698 -5.78183 -0.638724 0
M  V30 3329 N 303.674 -5.30495 -1.18643 0
M  V30 3330 H 307.476 -2.9324 -0.196839 0
M  V30 3331 H 304.99 -1.62398 -0.0081603 0
M  V30 3332 H 306.987 -3.22321 -2.64415 0
M  V30 3333 H 305.647 -2.05371 -2.51501 0
M  V30 3334 H 306.658 -5.15464 -0.501704 0
M  V30 3335 H 303.335 -3.41238 -2.40548 0
M  V30 3336 H 304.725 -6.71851 -0.0807929 0
M  V30 3337 N 307.445 0.0818655 -1.57387 0
M  V30 3338 C 308.392 1.09834 -2.0299 0
M  V30 3339 C 309.362 1.39043 -0.908639 0
M  V30 3340 O 310.547 1.50282 -1.17559 0
M  V30 3341 C 307.687 2.40971 -2.47037 0
M  V30 3342 C 306.8 2.18379 -3.7274 0
M  V30 3343 C 305.935 3.43008 -4.0561 0
M  V30 3344 C 304.974 3.15736 -5.24383 0
M  V30 3345 N 304.111 4.32667 -5.52941 0
M  V30 3346 H 308.951 0.702472 -2.89602 0
M  V30 3347 H 306.488 0.33531 -1.43227 0
M  V30 3348 H 308.446 3.1752 -2.70623 0
M  V30 3349 H 307.076 2.78379 -1.63417 0
M  V30 3350 H 306.128 1.32569 -3.56552 0
M  V30 3351 H 307.44 1.94227 -4.59431 0
M  V30 3352 H 306.594 4.27958 -4.30043 0
M  V30 3353 H 305.333 3.70225 -3.17466 0
M  V30 3354 H 304.338 2.2918 -4.99757 0
M  V30 3355 H 305.563 2.8985 -6.14136 0
M  V30 3356 H 303.509 4.59935 -4.67756 0
M  V30 3357 H 303.426 4.11753 -6.34031 0
M  V30 3358 H 304.694 5.18644 -5.81918 0
M  V30 3359 N 308.923 1.53595 0.353017 0
M  V30 3360 C 309.873 1.77299 1.43349 0
M  V30 3361 C 310.857 0.627884 1.48143 0
M  V30 3362 O 312.049 0.88697 1.53173 0
M  V30 3363 C 309.178 1.97757 2.80619 0
M  V30 3364 C 308.264 3.18305 2.80254 0
M  V30 3365 N 308.655 4.39967 2.49526 0
M  V30 3366 C 306.953 3.19283 3.11407 0
M  V30 3367 C 307.654 5.21772 2.57156 0
M  V30 3368 N 306.63 4.58269 2.92388 0
M  V30 3369 H 310.432 2.68963 1.18474 0
M  V30 3370 H 307.946 1.52391 0.561306 0
M  V30 3371 H 309.943 2.1287 3.58458 0
M  V30 3372 H 308.603 1.07329 3.06448 0
M  V30 3373 H 309.614 4.67482 2.22893 0
M  V30 3374 H 306.291 2.3879 3.4247 0
M  V30 3375 H 307.681 6.2885 2.36638 0
M  V30 3376 N 310.401 -0.613514 1.45168 0
M  V30 3377 C 311.331 -1.7354 1.56225 0
M  V30 3378 C 312.312 -1.64981 0.41414 0
M  V30 3379 O 313.497 -1.83472 0.636526 0
M  V30 3380 C 310.627 -3.12128 1.52295 0
M  V30 3381 C 309.581 -3.35491 2.65762 0
M  V30 3382 C 308.907 -4.74291 2.46885 0
M  V30 3383 C 310.207 -3.26325 4.0781 0
M  V30 3384 H 311.901 -1.64543 2.50132 0
M  V30 3385 H 309.447 -0.790185 1.20383 0
M  V30 3386 H 311.4 -3.90404 1.58628 0
M  V30 3387 H 310.124 -3.2195 0.549139 0
M  V30 3388 H 308.783 -2.59603 2.58847 0
M  V30 3389 H 308.431 -4.80839 1.47657 0
M  V30 3390 H 308.131 -4.9088 3.22972 0
M  V30 3391 H 309.655 -5.54775 2.55063 0
M  V30 3392 H 311.069 -3.94483 4.16 0
M  V30 3393 H 309.466 -3.54445 4.8424 0
M  V30 3394 H 310.536 -2.23855 4.30136 0
M  V30 3395 N 311.879 -1.3236 -0.855495 0
M  V30 3396 C 312.812 -1.15559 -1.96777 0
M  V30 3397 C 313.79 -0.0552681 -1.62506 0
M  V30 3398 O 314.974 -0.214419 -1.87277 0
M  V30 3399 C 312.101 -0.768851 -3.29858 0
M  V30 3400 C 311.147 -1.87429 -3.83109 0
M  V30 3401 S 311.98 -3.48243 -4.06801 0
M  V30 3402 C 313.136 -3.11539 -5.42858 0
M  V30 3403 H 313.369 -2.09717 -2.10727 0
M  V30 3404 H 310.902 -1.17011 -1.00737 0
M  V30 3405 H 312.86 -0.55248 -4.06765 0
M  V30 3406 H 311.521 0.153857 -3.13723 0
M  V30 3407 H 310.714 -1.55667 -4.79358 0
M  V30 3408 H 310.316 -2.04647 -3.13042 0
M  V30 3409 H 312.608 -2.61331 -6.2507 0
M  V30 3410 H 313.551 -4.06806 -5.79582 0
M  V30 3411 H 313.959 -2.48582 -5.06821 0
M  V30 3412 N 313.357 1.07166 -1.15556 0
M  V30 3413 C 314.267 2.17947 -0.868116 0
M  V30 3414 C 315.283 1.73297 0.156297 0
M  V30 3415 O 316.459 2.01392 -0.0182327 0
M  V30 3416 C 313.524 3.44789 -0.36355 0
M  V30 3417 C 312.585 4.03996 -1.45209 0
M  V30 3418 C 311.818 5.24783 -0.971508 0
M  V30 3419 O 312.041 5.70109 0.182194 0
M  V30 3420 O 310.975 5.75715 -1.75603 0
M  V30 3421 H 314.801 2.4503 -1.79427 0
M  V30 3422 H 312.386 1.16539 -0.934824 0
M  V30 3423 H 314.268 4.21307 -0.0887113 0
M  V30 3424 H 312.943 3.19253 0.534708 0
M  V30 3425 H 311.85 3.29009 -1.78056 0
M  V30 3426 H 313.183 4.33808 -2.32533 0
M  V30 3427 N 314.835 0.952656 1.25548 0
M  V30 3428 C 315.765 0.489287 2.28316 0
M  V30 3429 C 316.746 -0.463359 1.63667 0
M  V30 3430 O 317.931 -0.36274 1.90782 0
M  V30 3431 C 315.061 -0.235603 3.465 0
M  V30 3432 C 314.015 0.631593 4.23314 0
M  V30 3433 C 313.341 -0.223923 5.34231 0
M  V30 3434 C 314.641 1.90871 4.86174 0
M  V30 3435 H 316.335 1.34822 2.67326 0
M  V30 3436 H 313.881 0.649728 1.28509 0
M  V30 3437 H 315.834 -0.570882 4.17515 0
M  V30 3438 H 314.558 -1.12877 3.06474 0
M  V30 3439 H 313.217 0.949929 3.54079 0
M  V30 3440 H 312.865 -1.11678 4.90446 0
M  V30 3441 H 312.565 0.35299 5.86539 0
M  V30 3442 H 314.089 -0.554214 6.0808 0
M  V30 3443 H 315.503 1.63997 5.49343 0
M  V30 3444 H 313.9 2.43112 5.4865 0
M  V30 3445 H 314.97 2.61304 4.08471 0
M  V30 3446 N 316.313 -1.40141 0.720998 0
M  V30 3447 C 317.276 -2.29058 0.0805834 0
M  V30 3448 C 318.276 -1.45632 -0.681758 0
M  V30 3449 O 319.466 -1.6648 -0.512856 0
M  V30 3450 C 316.598 -3.28925 -0.895593 0
M  V30 3451 H 317.791 -2.87191 0.863793 0
M  V30 3452 H 315.344 -1.48553 0.485975 0
M  V30 3453 H 316.079 -2.75822 -1.70566 0
M  V30 3454 H 315.864 -3.90519 -0.351766 0
M  V30 3455 H 317.354 -3.95494 -1.34069 0
M  V30 3456 N 317.792 -0.46758 -1.50504 0
M  V30 3457 C 318.722 0.318381 -2.31319 0
M  V30 3458 C 319.703 0.993564 -1.38066 0
M  V30 3459 O 320.888 0.991411 -1.66987 0
M  V30 3460 C 318.018 1.40275 -3.17711 0
M  V30 3461 C 316.972 0.849373 -4.19487 0
M  V30 3462 C 316.298 2.03177 -4.94594 0
M  V30 3463 C 317.598 -0.136942 -5.2212 0
M  V30 3464 H 319.292 -0.356106 -2.97275 0
M  V30 3465 H 316.838 -0.172703 -1.42961 0
M  V30 3466 H 318.791 1.96004 -3.73042 0
M  V30 3467 H 317.515 2.10596 -2.49634 0
M  V30 3468 H 316.174 0.314076 -3.65252 0
M  V30 3469 H 315.822 2.72187 -4.22993 0
M  V30 3470 H 315.522 1.66774 -5.63436 0
M  V30 3471 H 317.046 2.59403 -5.52759 0
M  V30 3472 H 318.46 0.331056 -5.72343 0
M  V30 3473 H 316.857 -0.41507 -5.98663 0
M  V30 3474 H 317.927 -1.06398 -4.73083 0
M  V30 3475 N 319.27 1.56325 -0.20005 0
M  V30 3476 C 320.202 2.16555 0.750771 0
M  V30 3477 C 321.215 1.12871 1.1732 0
M  V30 3478 O 322.404 1.39943 1.10807 0
M  V30 3479 C 319.504 2.71684 2.02586 0
M  V30 3480 C 318.677 4.00321 1.76244 0
M  V30 3481 C 317.736 4.40227 2.88248 0
M  V30 3482 O 316.762 5.07552 2.57642 0
M  V30 3483 N 317.964 4.04138 4.16717 0
M  V30 3484 H 320.729 2.98772 0.235685 0
M  V30 3485 H 318.29 1.6189 -0.0182594 0
M  V30 3486 H 320.282 2.95363 2.76664 0
M  V30 3487 H 318.852 1.93893 2.45202 0
M  V30 3488 H 318.072 3.84723 0.85919 0
M  V30 3489 H 319.36 4.84279 1.56048 0
M  V30 3490 H 318.758 3.49993 4.44434 0
M  V30 3491 H 317.315 4.32756 4.87407 0
M  V30 3492 N 320.748 -0.0735177 1.57428 0
M  V30 3493 C 321.68 -1.11423 2.00294 0
M  V30 3494 C 322.693 -1.35084 0.908637 0
M  V30 3495 O 323.882 -1.33355 1.18654 0
M  V30 3496 C 320.982 -2.46548 2.32523 0
M  V30 3497 C 320.155 -2.42867 3.63778 0
M  V30 3498 C 319.214 -3.60087 3.83697 0
M  V30 3499 O 318.24 -3.41595 4.55304 0
M  V30 3500 N 319.442 -4.80372 3.25919 0
M  V30 3501 H 322.207 -0.749206 2.90184 0
M  V30 3502 H 319.768 -0.262195 1.59763 0
M  V30 3503 H 321.76 -3.23607 2.43024 0
M  V30 3504 H 320.33 -2.75059 1.48531 0
M  V30 3505 H 319.55 -1.51206 3.64047 0
M  V30 3506 H 320.838 -2.37506 4.49965 0
M  V30 3507 H 320.236 -4.983 2.67795 0
M  V30 3508 H 318.793 -5.54948 3.41871 0
M  V30 3509 N 322.226 -1.5378 -0.344866 0
M  V30 3510 C 323.454 -1.74899 -1.10534 0
M  V30 3511 C 323.869 -0.487534 -1.82397 0
M  V30 3512 O 323.226 0.540741 -1.74305 0
M  V30 3513 C 323.277 -2.92822 -2.11984 0
M  V30 3514 O 322.998 -4.14089 -1.43044 0
M  V30 3515 C 324.499 -3.25982 -3.00417 0
M  V30 3516 H 321.719 -0.584426 -0.329678 0
M  V30 3517 H 324.263 -2.006 -0.397474 0
M  V30 3518 H 322.418 -2.69457 -2.78338 0
M  V30 3519 H 322.832 -4.80272 -2.10805 0
M  V30 3520 H 324.306 -4.11848 -3.67539 0
M  V30 3521 H 324.783 -2.42228 -3.66363 0
M  V30 3522 H 325.389 -3.51349 -2.39654 0
M  V30 3523 N 323.704 0.605807 -1.45491 0
M  V30 3524 C 324.934 1.38934 -1.52908 0
M  V30 3525 C 325.342 1.88513 -0.161086 0
M  V30 3526 O 324.685 1.62962 0.847891 0
M  V30 3527 C 324.747 2.62737 -2.45376 0
M  V30 3528 C 324.411 2.34785 -3.92078 0
M  V30 3529 C 325.408 1.95038 -4.8193 0
M  V30 3530 C 323.093 2.47642 -4.37011 0
M  V30 3531 C 325.087 1.68511 -6.14722 0
M  V30 3532 C 322.774 2.20728 -5.69844 0
M  V30 3533 C 323.772 1.81225 -6.58519 0
M  V30 3534 O 323.46 1.54627 -7.88889 0
M  V30 3535 H 323.192 0.431629 -0.520262 0
M  V30 3536 H 325.746 0.74573 -1.91384 0
M  V30 3537 H 323.976 3.29824 -2.01874 0
M  V30 3538 H 325.665 3.24783 -2.43456 0
M  V30 3539 H 326.431 1.84639 -4.48479 0
M  V30 3540 H 322.31 2.77356 -3.68232 0
M  V30 3541 H 325.854 1.37602 -6.83894 0
M  V30 3542 H 321.751 2.30744 -6.02849 0
M  V30 3543 H 322.519 1.68665 -8.00933 0
M  V30 3544 N 325.182 1.32811 0.848464 0
M  V30 3545 C 326.114 1.18095 1.96433 0
M  V30 3546 C 327.127 0.114354 1.62398 0
M  V30 3547 O 328.316 0.363892 1.74751 0
M  V30 3548 C 325.416 0.786798 3.2964 0
M  V30 3549 C 324.589 1.943 3.91875 0
M  V30 3550 C 323.648 1.53138 5.03423 0
M  V30 3551 O 322.674 2.24432 5.23086 0
M  V30 3552 N 323.876 0.430915 5.78898 0
M  V30 3553 H 326.641 2.14218 2.09597 0
M  V30 3554 H 324.202 1.2543 1.02367 0
M  V30 3555 H 326.194 0.493715 4.01677 0
M  V30 3556 H 324.764 -0.0834541 3.12489 0
M  V30 3557 H 323.984 2.40224 3.12547 0
M  V30 3558 H 325.272 2.71689 4.30189 0
M  V30 3559 H 324.67 -0.162333 5.65467 0
M  V30 3560 H 323.227 0.197466 6.51501 0
M  V30 3561 N 326.66 -1.06551 1.16123 0
M  V30 3562 C 327.937 -1.76097 0.85142 0
M  V30 3563 C 328.317 -2.00802 -0.6513 0
M  V30 3564 O 327.665 -1.63302 -1.59827 0
M  V30 3565 C 327.875 -3.06384 1.67122 0
M  V30 3566 C 329.223 -3.80585 1.88255 0
M  V30 3567 O 330.247 -3.16218 1.63966 0
M  V30 3568 O 329.106 -4.96212 2.2899 0
M  V30 3569 H 326.2 -0.765102 0.313923 0
M  V30 3570 H 328.746 -1.12844 1.26745 0
M  V30 3571 H 327.518 -2.84071 2.69108 0
M  V30 3572 H 327.141 -3.77371 1.25206 0
M  V30 3573 N 328.138 -0.959301 -1.25041 0
M  V30 3574 C 329.366 -0.633949 -1.96948 0
M  V30 3575 C 329.781 0.794916 -1.7125 0
M  V30 3576 O 329.138 1.53231 -0.991287 0
M  V30 3577 C 329.189 -0.888805 -3.50403 0
M  V30 3578 O 328.91 -2.26149 -3.75218 0
M  V30 3579 C 330.411 -0.576482 -4.39536 0
M  V30 3580 H 327.631 -0.237263 -0.627652 0
M  V30 3581 H 330.175 -1.28495 -1.59089 0
M  V30 3582 H 328.33 -0.284145 -3.86357 0
M  V30 3583 H 328.744 -2.33514 -4.6965 0
M  V30 3584 H 330.218 -0.805314 -5.46094 0
M  V30 3585 H 330.695 0.489075 -4.36468 0
M  V30 3586 H 331.301 -1.16067 -4.09156 0
M  V30 3587 N 329.616 1.39756 -0.72842 0
M  V30 3588 C 330.856 2.025 -0.278078 0
M  V30 3589 C 331.22 1.5654 1.11173 0
M  V30 3590 O 332.421 2.11435 1.65978 0
M  V30 3591 C 330.692 3.55489 -0.369139 0
M  V30 3592 S 332.251 4.388 0.00232983 0
M  V30 3593 H 329.069 0.702534 -0.109391 0
M  V30 3594 H 331.671 1.70672 -0.95348 0
M  V30 3595 H 330.375 3.86429 -1.38204 0
M  V30 3596 H 329.906 3.92061 0.324308 0
M  V30 3597 H 331.921 4.80954 1.22055 0
M  V30 3598 N 331.094 0.475555 1.50254 0
M  V30 3599 C 332.042 -0.330276 2.30243 0
M  V30 3600 C 333.036 -0.986306 1.37726 0
M  V30 3601 O 334.242 -0.9169 1.54897 0
M  V30 3602 H 330.617 -0.125353 0.741479 0
M  V30 3603 H 332.588 0.364702 2.96163 0
M  V30 3604 C 331.337 -1.39704 3.18399 0
M  V30 3605 H 330.66 -0.901621 3.89501 0
M  V30 3606 H 332.1 -1.93336 3.77355 0
M  V30 3607 C 330.559 -2.4014 2.36293 0
M  V30 3608 O 331.089 -3.45504 2.04914 0
M  V30 3609 N 329.295 -2.1197 1.98789 0
M  V30 3610 H 328.842 -1.2631 2.24507 0
M  V30 3611 H 328.8 -2.79403 1.44157 0
M  V30 3612 N 332.573 -1.56217 0.208337 0
M  V30 3613 C 333.813 -1.99849 -0.428927 0
M  V30 3614 C 334.177 -1.09262 -1.57879 0
M  V30 3615 O 335.378 -1.42185 -2.28116 0
M  V30 3616 C 333.649 -3.46777 -0.864879 0
M  V30 3617 S 335.208 -4.12434 -1.49811 0
M  V30 3618 H 332.026 -0.697742 -0.136665 0
M  V30 3619 H 334.628 -1.92953 0.314519 0
M  V30 3620 H 333.332 -4.10396 -0.0181326 0
M  V30 3621 H 332.863 -3.57518 -1.64147 0
M  V30 3622 H 334.878 -4.10532 -2.78707 0
M  V30 3623 N 334.051 0.0651679 -1.57465 0
M  V30 3624 C 335.3 0.761916 -1.86756 0
M  V30 3625 C 335.613 1.78406 -0.801925 0
M  V30 3626 O 336.819 2.53084 -0.982885 0
M  V30 3627 C 335.275 1.40603 -3.31299 0
M  V30 3628 C 334.883 0.422115 -4.46007 0
M  V30 3629 C 336.627 2.08476 -3.69781 0
M  V30 3630 C 334.534 1.07252 -5.81593 0
M  V30 3631 H 333.464 0.288308 -0.696702 0
M  V30 3632 H 336.115 0.015344 -1.83494 0
M  V30 3633 H 334.497 2.20109 -3.29193 0
M  V30 3634 H 335.671 -0.343613 -4.59517 0
M  V30 3635 H 333.986 -0.152527 -4.16121 0
M  V30 3636 H 336.583 2.57925 -4.68379 0
M  V30 3637 H 336.926 2.88712 -2.99919 0
M  V30 3638 H 337.459 1.35792 -3.73905 0
M  V30 3639 H 334.198 0.310342 -6.54765 0
M  V30 3640 H 333.718 1.80895 -5.71872 0
M  V30 3641 H 335.397 1.59043 -6.27148 0
M  V30 3642 N 335.529 1.53961 0.336706 0
M  V30 3643 C 336.476 1.82428 1.41381 0
M  V30 3644 C 337.446 0.670444 1.51968 0
M  V30 3645 O 338.631 0.915565 1.67398 0
M  V30 3646 C 335.771 2.04564 2.77934 0
M  V30 3647 C 334.884 3.32267 2.76084 0
M  V30 3648 C 334.019 3.44434 4.04399 0
M  V30 3649 C 333.058 4.66061 3.96804 0
M  V30 3650 N 332.195 4.75224 5.16823 0
M  V30 3651 H 337.035 2.74324 1.16405 0
M  V30 3652 H 334.572 1.35869 0.563752 0
M  V30 3653 H 336.53 2.15388 3.57301 0
M  V30 3654 H 335.16 1.15974 3.01247 0
M  V30 3655 H 334.212 3.3025 1.88784 0
M  V30 3656 H 335.524 4.21733 2.66351 0
M  V30 3657 H 334.678 3.54728 4.92192 0
M  V30 3658 H 333.417 2.53037 4.16921 0
M  V30 3659 H 332.422 4.55838 3.07396 0
M  V30 3660 H 333.647 5.58829 3.85858 0
M  V30 3661 H 331.593 3.86739 5.29876 0
M  V30 3662 H 331.51 5.58636 5.09374 0
M  V30 3663 H 332.778 4.89835 6.06367 0
M  V30 3664 N 337.007 -0.598083 1.45811 0
M  V30 3665 C 338.232 -1.3881 1.54099 0
M  V30 3666 C 338.657 -1.8726 0.177578 0
M  V30 3667 O 338.015 -1.6069 -0.839541 0
M  V30 3668 C 338.063 -2.56217 2.53743 0
M  V30 3669 O 337.167 -3.5716 2.06182 0
M  V30 3670 H 336.508 -0.414024 0.519115 0
M  V30 3671 H 339.038 -0.726971 1.91249 0
M  V30 3672 H 339.048 -3.03337 2.72856 0
M  V30 3673 H 337.723 -2.20303 3.5276 0
M  V30 3674 H 336.3 -3.16624 1.96987 0
M  V30 3675 N 338.485 -1.33259 -0.841409 0
M  V30 3676 C 339.901 -1.12538 -1.13169 0
M  V30 3677 C 340.101 0.0854037 -2.01319 0
M  V30 3678 O 339.157 0.766417 -2.40587 0
M  V30 3679 C 340.47 -2.41156 -1.79623 0
M  V30 3680 C 342.018 -2.47038 -1.922 0
M  V30 3681 C 342.493 -3.7561 -2.6207 0
M  V30 3682 N 343.984 -3.76667 -2.69585 0
M  V30 3683 C 344.719 -4.72861 -3.2433 0
M  V30 3684 N 344.215 -5.79428 -3.79783 0
M  V30 3685 N 346.008 -4.6034 -3.22558 0
M  V30 3686 H 338.159 -2.10868 -0.254676 0
M  V30 3687 H 340.422 -0.931615 -0.175493 0
M  V30 3688 H 340.128 -3.29747 -1.22311 0
M  V30 3689 H 340.002 -2.53114 -2.79666 0
M  V30 3690 H 342.389 -1.58898 -2.48667 0
M  V30 3691 H 342.47 -2.39022 -0.911148 0
M  V30 3692 H 342.114 -4.64131 -2.06263 0
M  V30 3693 H 342.044 -3.80902 -3.63622 0
M  V30 3694 H 344.535 -2.99648 -2.30259 0
M  V30 3695 H 344.848 -6.48867 -4.19752 0
M  V30 3696 H 343.193 -5.83166 -3.78078 0
M  V30 3697 H 346.384 -3.76244 -2.78492 0
M  V30 3698 H 346.557 -5.35478 -3.64921 0
M  V30 3699 N 339.963 1.05934 -1.16686 0
M  V30 3700 C 341.212 1.78188 -0.945085 0
M  V30 3701 C 341.525 1.88338 0.528021 0
M  V30 3702 O 342.731 2.57258 0.867799 0
M  V30 3703 C 341.187 3.20277 -1.64167 0
M  V30 3704 C 340.795 3.18281 -3.15279 0
M  V30 3705 C 342.539 3.97039 -1.502 0
M  V30 3706 C 340.446 4.55112 -3.7766 0
M  V30 3707 H 339.376 0.667866 -0.349959 0
M  V30 3708 H 342.027 1.18794 -1.39858 0
M  V30 3709 H 340.409 3.79952 -1.11589 0
M  V30 3710 H 341.583 2.68167 -3.74731 0
M  V30 3711 H 339.898 2.55018 -3.29173 0
M  V30 3712 H 342.495 4.98194 -1.94183 0
M  V30 3713 H 342.838 4.13845 -0.451461 0
M  V30 3714 H 343.371 3.43894 -1.99954 0
M  V30 3715 H 340.11 4.43512 -4.82677 0
M  V30 3716 H 339.63 5.05406 -3.22994 0
M  V30 3717 H 341.309 5.24064 -3.79428 0
M  V30 3718 N 341.441 0.965919 1.2453 0
M  V30 3719 C 342.388 0.49402 2.25451 0
M  V30 3720 C 343.358 -0.45948 1.59618 0
M  V30 3721 O 344.543 -0.370238 1.87173 0
M  V30 3722 C 341.683 -0.211359 3.44452 0
M  V30 3723 C 340.796 0.7807 4.24887 0
M  V30 3724 C 339.931 0.0516105 5.31175 0
M  V30 3725 C 338.97 1.03385 6.03306 0
M  V30 3726 N 338.107 0.334887 7.01301 0
M  V30 3727 H 342.947 1.35946 2.65184 0
M  V30 3728 H 340.484 0.681515 1.3036 0
M  V30 3729 H 342.442 -0.637 4.12308 0
M  V30 3730 H 341.072 -1.04077 3.05562 0
M  V30 3731 H 340.124 1.32479 3.56586 0
M  V30 3732 H 341.436 1.52978 4.74762 0
M  V30 3733 H 340.59 -0.432114 6.05159 0
M  V30 3734 H 339.329 -0.730179 4.82203 0
M  V30 3735 H 338.334 1.52847 5.28127 0
M  V30 3736 H 339.559 1.81606 6.54367 0
M  V30 3737 H 337.505 -0.427959 6.54603 0
M  V30 3738 H 337.422 1.02287 7.49048 0
M  V30 3739 H 338.69 -0.126928 7.79397 0
M  V30 3740 N 342.919 -1.39368 0.735821 0
M  V30 3741 C 343.849 -2.33234 0.111506 0
M  V30 3742 C 344.83 -1.53954 -0.723334 0
M  V30 3743 O 346.015 -1.82344 -0.668147 0
M  V30 3744 C 343.145 -3.38057 -0.795917 0
M  V30 3745 C 342.099 -4.2795 -0.065172 0
M  V30 3746 C 341.425 -5.23479 -1.08967 0
M  V30 3747 C 342.725 -5.10741 1.09273 0
M  V30 3748 H 344.419 -2.85692 0.895571 0
M  V30 3749 H 341.965 -1.37364 0.432109 0
M  V30 3750 H 343.918 -4.02675 -1.24221 0
M  V30 3751 H 342.642 -2.8404 -1.61211 0
M  V30 3752 H 341.301 -3.64813 0.361511 0
M  V30 3753 H 340.949 -4.65758 -1.89944 0
M  V30 3754 H 340.649 -5.84472 -0.605489 0
M  V30 3755 H 342.173 -5.90974 -1.53565 0
M  V30 3756 H 343.587 -5.68699 0.724841 0
M  V30 3757 H 341.984 -5.8088 1.50659 0
M  V30 3758 H 343.054 -4.45525 1.91404 0
M  V30 3759 N 344.397 -0.483516 -1.5 0
M  V30 3760 C 345.307 0.309172 -2.32554 0
M  V30 3761 C 346.323 0.984159 -1.43493 0
M  V30 3762 O 347.499 0.969399 -1.76535 0
M  V30 3763 C 344.564 1.36979 -3.18493 0
M  V30 3764 C 343.625 0.710095 -4.23387 0
M  V30 3765 C 342.858 1.72018 -5.05218 0
M  V30 3766 O 343.081 2.94813 -4.88305 0
M  V30 3767 O 342.015 1.28515 -5.8802 0
M  V30 3768 H 345.841 -0.366064 -3.01486 0
M  V30 3769 H 343.426 -0.24514 -1.47375 0
M  V30 3770 H 345.308 1.98385 -3.71781 0
M  V30 3771 H 343.983 2.02828 -2.52275 0
M  V30 3772 H 342.89 0.0567539 -3.74057 0
M  V30 3773 H 344.223 0.0943557 -4.9211 0
M  V30 3774 N 345.875 1.56104 -0.216619 0
M  V30 3775 C 347.122 1.98172 0.416416 0
M  V30 3776 C 347.45 1.10413 1.60122 0
M  V30 3777 O 346.705 0.147967 1.9514 0
M  V30 3778 C 347.004 3.45923 0.898464 0
M  V30 3779 C 346.67 4.50559 -0.175288 0
M  V30 3780 C 345.332 4.78897 -0.470271 0
M  V30 3781 C 347.684 5.1334 -0.901728 0
M  V30 3782 C 345.012 5.67299 -1.4963 0
M  V30 3783 C 347.364 6.02853 -1.91705 0
M  V30 3784 C 346.028 6.29537 -2.21901 0
M  V30 3785 H 345.298 0.725164 0.152377 0
M  V30 3786 H 347.945 1.88839 -0.318103 0
M  V30 3787 H 346.25 3.52434 1.71165 0
M  V30 3788 H 347.947 3.75841 1.39803 0
M  V30 3789 H 344.537 4.28551 0.0647806 0
M  V30 3790 H 348.721 4.91521 -0.687072 0
M  V30 3791 H 343.977 5.86239 -1.73592 0
M  V30 3792 H 348.151 6.50552 -2.48505 0
M  V30 3793 H 345.778 6.97835 -3.01548 0
M  V30 3794 N 347.353 -0.0568162 1.57498 0
M  V30 3795 C 348.263 -1.08346 2.08083 0
M  V30 3796 C 349.279 -1.41439 1.01346 0
M  V30 3797 O 350.455 -1.51316 1.32912 0
M  V30 3798 C 347.52 -2.37352 2.52715 0
M  V30 3799 C 346.581 -2.11093 3.73816 0
M  V30 3800 C 345.814 -3.33949 4.1631 0
M  V30 3801 O 346.037 -4.43622 3.58547 0
M  V30 3802 O 344.971 -3.21279 5.08983 0
M  V30 3803 H 348.797 -0.683667 2.95905 0
M  V30 3804 H 346.382 -0.271965 1.46904 0
M  V30 3805 H 348.264 -3.13246 2.81877 0
M  V30 3806 H 346.939 -2.76681 1.68016 0
M  V30 3807 H 345.846 -1.32856 3.49714 0
M  V30 3808 H 347.179 -1.76637 4.59413 0
M  V30 3809 N 348.832 -1.54138 -0.328536 0
M  V30 3810 C 349.779 -1.83176 -1.40411 0
M  V30 3811 C 350.749 -0.678494 -1.5161 0
M  V30 3812 O 351.934 -0.92443 -1.6691 0
M  V30 3813 C 349.074 -2.06035 -2.76846 0
M  V30 3814 C 348.187 -3.33727 -2.74318 0
M  V30 3815 C 347.322 -3.46574 -4.02567 0
M  V30 3816 C 346.361 -4.68159 -3.94327 0
M  V30 3817 N 345.498 -4.77959 -5.14296 0
M  V30 3818 H 350.338 -2.74938 -1.14948 0
M  V30 3819 H 347.875 -1.36166 -0.556538 0
M  V30 3820 H 349.833 -2.1728 -3.56153 0
M  V30 3821 H 348.463 -1.1757 -3.00628 0
M  V30 3822 H 347.515 -3.31246 -1.8703 0
M  V30 3823 H 348.827 -4.23139 -2.64111 0
M  V30 3824 H 347.981 -3.57333 -4.90304 0
M  V30 3825 H 346.72 -2.55245 -4.15574 0
M  V30 3826 H 345.725 -4.57461 -3.04974 0
M  V30 3827 H 346.95 -5.60868 -3.82889 0
M  V30 3828 H 344.896 -3.89544 -5.27818 0
M  V30 3829 H 344.813 -5.6133 -5.06404 0
M  V30 3830 H 346.081 -4.93044 -6.03761 0
M  V30 3831 N 350.31 0.590341 -1.46126 0
M  V30 3832 C 351.726 0.912917 -1.30912 0
M  V30 3833 C 351.926 1.99616 -0.274893 0
M  V30 3834 O 350.982 2.50397 0.325197 0
M  V30 3835 C 352.295 1.3375 -2.69317 0
M  V30 3836 C 353.843 1.45077 -2.77348 0
M  V30 3837 C 354.318 1.90904 -4.16317 0
M  V30 3838 N 355.809 1.9811 -4.18696 0
M  V30 3839 C 356.544 2.34828 -5.23109 0
M  V30 3840 N 356.04 2.70393 -6.37856 0
M  V30 3841 N 357.833 2.35317 -5.10473 0
M  V30 3842 H 349.984 -0.125358 -2.1203 0
M  V30 3843 H 352.247 0.00658481 -0.947977 0
M  V30 3844 H 351.953 0.615614 -3.4627 0
M  V30 3845 H 351.827 2.30058 -2.9892 0
M  V30 3846 H 354.214 2.16353 -2.00687 0
M  V30 3847 H 354.295 0.4704 -2.51438 0
M  V30 3848 H 353.939 1.20209 -4.9347 0
M  V30 3849 H 353.869 2.89886 -4.39629 0
M  V30 3850 H 356.36 1.73146 -3.359 0
M  V30 3851 H 356.673 2.97341 -7.13308 0
M  V30 3852 H 355.018 2.68048 -6.41229 0
M  V30 3853 H 358.209 2.0695 -4.19868 0
M  V30 3854 H 358.382 2.63605 -5.9196 0
M  V30 3855 N 351.788 1.33704 0.83433 0
M  V30 3856 C 352.72 1.20172 1.9517 0
M  V30 3857 C 353.733 0.131572 1.62267 0
M  V30 3858 O 354.922 0.382406 1.74356 0
M  V30 3859 C 352.022 0.821716 3.28787 0
M  V30 3860 C 351.195 1.98446 3.89792 0
M  V30 3861 C 350.254 1.58469 5.01771 0
M  V30 3862 O 349.28 2.29968 5.20676 0
M  V30 3863 N 350.482 0.492291 5.78409 0
M  V30 3864 H 353.247 2.16429 2.07313 0
M  V30 3865 H 350.808 1.26509 1.0103 0
M  V30 3866 H 352.8 0.536291 4.01131 0
M  V30 3867 H 351.37 -0.0503058 3.1256 0
M  V30 3868 H 350.59 2.43526 3.09982 0
M  V30 3869 H 351.878 2.76236 4.27283 0
M  V30 3870 H 351.276 -0.102349 5.65607 0
M  V30 3871 H 349.833 0.266555 6.51255 0
M  V30 3872 N 353.266 -1.05314 1.17247 0
M  V30 3873 C 354.198 -2.13023 0.845812 0
M  V30 3874 C 355.211 -1.62096 -0.151246 0
M  V30 3875 O 356.4 -1.78343 0.0748818 0
M  V30 3876 C 353.5 -3.38047 0.240292 0
M  V30 3877 C 352.673 -4.18255 1.27991 0
M  V30 3878 C 351.732 -5.21625 0.692375 0
M  V30 3879 O 350.758 -5.52619 1.36385 0
M  V30 3880 N 351.96 -5.78201 -0.516178 0
M  V30 3881 H 354.725 -2.41642 1.77283 0
M  V30 3882 H 352.286 -1.21401 1.07115 0
M  V30 3883 H 354.278 -4.04359 -0.16603 0
M  V30 3884 H 352.848 -3.06972 -0.590487 0
M  V30 3885 H 352.068 -3.47451 1.86203 0
M  V30 3886 H 353.356 -4.68643 1.98119 0
M  V30 3887 H 352.754 -5.55301 -1.07969 0
M  V30 3888 H 351.311 -6.4604 -0.86458 0
M  V30 3889 N 354.744 -0.972509 -1.24016 0
M  V30 3890 C 355.654 -0.5143 -2.28893 0
M  V30 3891 C 356.67 0.427078 -1.68677 0
M  V30 3892 O 357.846 0.298939 -1.99169 0
M  V30 3893 C 354.911 0.183598 -3.46214 0
M  V30 3894 C 353.972 -0.798202 -4.21814 0
M  V30 3895 C 353.205 -0.133514 -5.33533 0
M  V30 3896 O 353.428 1.07714 -5.60137 0
M  V30 3897 O 352.362 -0.828103 -5.96176 0
M  V30 3898 H 356.188 -1.38629 -2.70214 0
M  V30 3899 H 353.773 -0.739769 -1.29799 0
M  V30 3900 H 355.655 0.575433 -4.17453 0
M  V30 3901 H 354.33 1.03048 -3.0686 0
M  V30 3902 H 353.237 -1.24059 -3.52931 0
M  V30 3903 H 354.57 -1.61364 -4.64997 0
M  V30 3904 N 356.222 1.38976 -0.743202 0
M  V30 3905 C 357.638 1.53984 -0.419664 0
M  V30 3906 C 357.838 1.70837 1.0685 0
M  V30 3907 O 356.894 1.7135 1.8546 0
M  V30 3908 C 358.207 2.75287 -1.20985 0
M  V30 3909 C 359.755 2.89129 -1.19889 0
M  V30 3910 C 360.23 4.13381 -1.97181 0
M  V30 3911 N 361.721 4.20437 -1.94389 0
M  V30 3912 C 362.456 5.15547 -2.50996 0
M  V30 3913 N 361.952 6.16395 -3.16274 0
M  V30 3914 N 363.745 5.07822 -2.40984 0
M  V30 3915 H 355.896 1.26285 -1.7078 0
M  V30 3916 H 358.159 0.612689 -0.723406 0
M  V30 3917 H 357.865 2.69204 -2.26323 0
M  V30 3918 H 357.739 3.68184 -0.819759 0
M  V30 3919 H 360.126 2.947 -0.153606 0
M  V30 3920 H 360.207 1.97272 -1.62841 0
M  V30 3921 H 359.851 4.08572 -3.01714 0
M  V30 3922 H 359.781 5.04298 -1.51629 0
M  V30 3923 H 362.272 3.48205 -1.46839 0
M  V30 3924 H 362.585 6.85443 -3.56915 0
M  V30 3925 H 360.93 6.16758 -3.20367 0
M  V30 3926 H 364.121 4.27973 -1.89622 0
M  V30 3927 H 364.294 5.81767 -2.85397 0
M  V30 3928 N 357.7 0.491464 1.49741 0
M  V30 3929 C 358.63 -0.28154 2.31796 0
M  V30 3930 C 359.611 -0.971473 1.3963 0
M  V30 3931 O 360.796 -0.964719 1.68543 0
M  V30 3932 C 357.926 -1.35203 3.19902 0
M  V30 3933 C 356.88 -0.782529 4.20786 0
M  V30 3934 C 356.206 -1.95283 4.97764 0
M  V30 3935 C 357.506 0.21999 5.21837 0
M  V30 3936 H 359.2 0.403355 2.96671 0
M  V30 3937 H 356.746 0.195425 1.42668 0
M  V30 3938 H 358.699 -1.90045 3.76113 0
M  V30 3939 H 357.423 -2.06598 2.52953 0
M  V30 3940 H 356.082 -0.255928 3.65706 0
M  V30 3941 H 355.73 -2.65423 4.2727 0
M  V30 3942 H 355.43 -1.57789 5.66018 0
M  V30 3943 H 356.954 -2.50577 5.56816 0
M  V30 3944 H 358.368 -0.23996 5.72798 0
M  V30 3945 H 356.765 0.51026 5.97927 0
M  V30 3946 H 357.835 1.13911 4.7133 0
M  V30 3947 N 359.178 -1.55987 0.224894 0
M  V30 3948 C 360.108 -2.23426 -0.678457 0
M  V30 3949 C 361.089 -1.20709 -1.19847 0
M  V30 3950 O 362.274 -1.49304 -1.24186 0
M  V30 3951 C 359.404 -2.91676 -1.88527 0
M  V30 3952 C 358.358 -4.00893 -1.49896 0
M  V30 3953 C 357.684 -4.56455 -2.78483 0
M  V30 3954 C 358.984 -5.17769 -0.686461 0
M  V30 3955 H 360.678 -2.99175 -0.116173 0
M  V30 3956 H 358.224 -1.43897 -0.054436 0
M  V30 3957 H 360.177 -3.37547 -2.5227 0
M  V30 3958 H 358.901 -2.1338 -2.47258 0
M  V30 3959 H 357.56 -3.55758 -0.884985 0
M  V30 3960 H 357.208 -3.74886 -3.35365 0
M  V30 3961 H 356.908 -5.30169 -2.53368 0
M  V30 3962 H 358.432 -5.05047 -3.43162 0
M  V30 3963 H 359.846 -5.60001 -1.22767 0
M  V30 3964 H 358.243 -5.97735 -0.532259 0
M  V30 3965 H 359.313 -4.83932 0.306196 0
M  V30 3966 N 360.656 0.0484629 -1.57525 0
M  V30 3967 C 361.586 1.0549 -2.08313 0
M  V30 3968 C 362.567 1.38929 -0.981463 0
M  V30 3969 O 363.752 1.48151 -1.25558 0
M  V30 3970 C 360.882 2.36162 -2.54646 0
M  V30 3971 C 359.836 2.17016 -3.68901 0
M  V30 3972 C 359.162 3.53278 -4.01371 0
M  V30 3973 C 360.462 1.57219 -4.98076 0
M  V30 3974 H 362.156 0.632195 -2.92649 0
M  V30 3975 H 359.702 0.302654 -1.40784 0
M  V30 3976 H 361.655 3.06882 -2.88793 0
M  V30 3977 H 360.379 2.80456 -1.67368 0
M  V30 3978 H 359.038 1.48733 -3.35073 0
M  V30 3979 H 358.686 3.95185 -3.11188 0
M  V30 3980 H 358.386 3.41299 -4.78318 0
M  V30 3981 H 359.91 4.25391 -4.38035 0
M  V30 3982 H 361.324 2.17832 -5.30304 0
M  V30 3983 H 359.721 1.55871 -5.79503 0
M  V30 3984 H 360.791 0.535956 -4.81929 0
M  V30 3985 N 362.134 1.5431 0.320358 0
M  V30 3986 C 363.359 1.76954 1.08175 0
M  V30 3987 C 363.784 0.518193 1.80821 0
M  V30 3988 O 363.142 -0.530411 1.73368 0
M  V30 3989 C 363.19 2.96451 2.05303 0
M  V30 3990 O 362.294 2.68221 3.13259 0
M  V30 3991 H 361.635 0.586275 0.311733 0
M  V30 3992 H 364.165 2.01342 0.363676 0
M  V30 3993 H 364.175 3.23887 2.48116 0
M  V30 3994 H 362.85 3.87196 1.51829 0
M  V30 3995 H 361.427 2.51744 2.75099 0
M  V30 3996 N 363.613 -0.582584 1.46437 0
M  V30 3997 C 364.543 -1.70187 1.59871 0
M  V30 3998 C 365.524 -1.64066 0.449042 0
M  V30 3999 O 366.709 -1.82081 0.6753 0
M  V30 4000 C 363.839 -3.08827 1.58881 0
M  V30 4001 C 362.793 -3.29779 2.72819 0
M  V30 4002 C 362.119 -4.68947 2.5689 0
M  V30 4003 C 363.419 -3.17601 4.1464 0
M  V30 4004 H 365.113 -1.592 2.53566 0
M  V30 4005 H 362.659 -0.764472 1.22032 0
M  V30 4006 H 364.612 -3.86951 1.66873 0
M  V30 4007 H 363.336 -3.20713 0.617306 0
M  V30 4008 H 361.995 -2.54054 2.64296 0
M  V30 4009 H 361.643 -4.77599 1.57823 0
M  V30 4010 H 361.343 -4.83919 3.33312 0
M  V30 4011 H 362.867 -5.4924 2.66773 0
M  V30 4012 H 364.281 -3.8557 4.24274 0
M  V30 4013 H 362.678 -3.44094 4.9165 0
M  V30 4014 H 363.748 -2.14681 4.34788 0
M  V30 4015 N 365.091 -1.34144 -0.827227 0
M  V30 4016 C 366.021 -1.28005 -1.95287 0
M  V30 4017 C 367.002 -0.158321 -1.69362 0
M  V30 4018 O 368.187 -0.349987 -1.9102 0
M  V30 4019 C 365.317 -1.03036 -3.31664 0
M  V30 4020 C 364.271 -2.11628 -3.72019 0
M  V30 4021 C 363.597 -1.71854 -5.0633 0
M  V30 4022 C 364.897 -3.53417 -3.8457 0
M  V30 4023 H 366.591 -2.22187 -2.00682 0
M  V30 4024 H 364.137 -1.0696 -0.964135 0
M  V30 4025 H 366.09 -0.973863 -4.09993 0
M  V30 4026 H 364.814 -0.0529391 -3.26557 0
M  V30 4027 H 363.473 -2.16339 -2.95961 0
M  V30 4028 H 363.121 -0.727841 -4.97706 0
M  V30 4029 H 362.821 -2.44531 -5.34302 0
M  V30 4030 H 364.345 -1.67692 -5.87122 0
M  V30 4031 H 365.759 -3.51142 -4.5318 0
M  V30 4032 H 364.156 -4.24679 -4.2399 0
M  V30 4033 H 365.226 -3.91072 -2.86689 0
M  V30 4034 N 366.569 1.04691 -1.17803 0
M  V30 4035 C 367.98 1.59238 -0.974689 0
M  V30 4036 C 368.331 1.90306 0.477292 0
M  V30 4037 O 367.456 1.68846 1.35352 0
M  V30 4038 C 368.051 2.89318 -1.76296 0
M  V30 4039 C 366.61 3.40506 -1.60414 0
M  V30 4040 C 365.757 2.14172 -1.76141 0
M  V30 4041 H 368.708 0.874395 -1.32439 0
M  V30 4042 H 368.729 3.5944 -1.24833 0
M  V30 4043 H 368.241 2.66675 -2.81968 0
M  V30 4044 H 366.342 3.68175 -0.572519 0
M  V30 4045 H 366.455 4.14753 -2.39827 0
M  V30 4046 H 364.819 2.25176 -1.19028 0
M  V30 4047 H 365.602 1.93992 -2.83235 0
M  V30 4048 N 368.047 0.979072 1.23499 0
M  V30 4049 C 369.01 0.523244 2.23147 0
M  V30 4050 C 370.01 -0.386406 1.56088 0
M  V30 4051 O 371.2 -0.180283 1.73265 0
M  V30 4052 C 368.332 -0.240739 3.40049 0
M  V30 4053 H 369.525 1.40432 2.64989 0
M  V30 4054 H 367.078 0.764824 1.36309 0
M  V30 4055 H 367.813 -1.13841 3.03662 0
M  V30 4056 H 367.598 0.412207 3.89927 0
M  V30 4057 H 369.088 -0.548297 4.13985 0
M  V30 4058 N 369.525 -1.3858 0.750561 0
M  V30 4059 C 370.475 -2.27795 0.0965949 0
M  V30 4060 C 371.459 -1.45048 -0.696411 0
M  V30 4061 O 372.651 -1.67812 -0.562863 0
M  V30 4062 C 369.78 -3.33894 -0.798085 0
M  V30 4063 C 368.866 -4.241 0.0016067 0
M  V30 4064 N 369.257 -4.95067 1.03647 0
M  V30 4065 C 367.555 -4.45429 -0.225674 0
M  V30 4066 C 368.256 -5.61489 1.52004 0
M  V30 4067 N 367.232 -5.37135 0.835874 0
M  V30 4068 H 371.034 -2.80125 0.889228 0
M  V30 4069 H 368.548 -1.51446 0.586323 0
M  V30 4070 H 370.545 -3.96693 -1.28219 0
M  V30 4071 H 369.205 -2.83123 -1.5897 0
M  V30 4072 H 370.216 -4.98104 1.41819 0
M  V30 4073 H 366.893 -4.05571 -0.990872 0
M  V30 4074 H 368.283 -6.28264 2.38188 0
M  V30 4075 N 371.003 -0.499398 -1.49478 0
M  V30 4076 C 372.252 0.0475259 -2.01644 0
M  V30 4077 C 372.565 1.38195 -1.38425 0
M  V30 4078 O 373.771 2.01547 -1.8191 0
M  V30 4079 C 372.227 0.135164 -3.59646 0
M  V30 4080 C 371.835 -1.19252 -4.31837 0
M  V30 4081 C 373.579 0.632538 -4.19761 0
M  V30 4082 C 371.486 -1.06713 -5.81693 0
M  V30 4083 H 370.416 0.0215349 -0.753692 0
M  V30 4084 H 373.067 -0.638577 -1.7203 0
M  V30 4085 H 371.449 0.885681 -3.85969 0
M  V30 4086 H 372.623 -1.9562 -4.17216 0
M  V30 4087 H 370.938 -1.62321 -3.83459 0
M  V30 4088 H 373.535 0.743833 -5.29501 0
M  V30 4089 H 373.878 1.63098 -3.83021 0
M  V30 4090 H 374.411 -0.0613987 -3.97753 0
M  V30 4091 H 371.15 -2.03979 -6.22955 0
M  V30 4092 H 370.67 -0.344307 -5.98811 0
M  V30 4093 H 372.349 -0.745208 -6.42694 0
M  V30 4094 N 372.481 1.55866 -0.233164 0
M  V30 4095 C 373.444 2.1953 0.658715 0
M  V30 4096 C 374.444 1.16053 1.11303 0
M  V30 4097 O 375.634 1.41218 1.01996 0
M  V30 4098 C 372.766 2.82791 1.90373 0
M  V30 4099 H 373.959 2.99721 0.10347 0
M  V30 4100 H 371.512 1.56291 0.0164245 0
M  V30 4101 H 372.247 2.06501 2.50056 0
M  V30 4102 H 372.032 3.58578 1.58632 0
M  V30 4103 H 373.522 3.31556 2.53891 0
M  V30 4104 N 373.959 -0.0401083 1.57549 0
M  V30 4105 C 374.892 -1.07689 2.01192 0
M  V30 4106 C 375.87 -1.358 0.894273 0
M  V30 4107 O 377.054 -1.48642 1.15921 0
M  V30 4108 C 374.181 -2.41418 2.3756 0
M  V30 4109 C 373.227 -2.29237 3.59656 0
M  V30 4110 S 374.06 -1.65628 5.09242 0
M  V30 4111 C 375.216 -3.0087 5.48843 0
M  V30 4112 H 375.449 -0.705108 2.88817 0
M  V30 4113 H 372.982 -0.249724 1.52367 0
M  V30 4114 H 374.94 -3.18329 2.59186 0
M  V30 4115 H 373.601 -2.75747 1.50407 0
M  V30 4116 H 372.794 -3.27932 3.82722 0
M  V30 4117 H 372.396 -1.60469 3.37825 0
M  V30 4118 H 374.688 -3.97201 5.48851 0
M  V30 4119 H 375.631 -2.82549 6.49286 0
M  V30 4120 H 376.039 -3.02934 4.76331 0
M  V30 4121 N 375.437 -1.54477 -0.31217 0
M  V30 4122 C 376.347 -1.87695 -1.4074 0
M  V30 4123 C 377.363 -0.769975 -1.56036 0
M  V30 4124 O 378.539 -1.06537 -1.70915 0
M  V30 4125 C 375.604 -2.10755 -2.75287 0
M  V30 4126 C 374.665 -3.34514 -2.69071 0
M  V30 4127 C 373.898 -3.56465 -3.97201 0
M  V30 4128 O 374.121 -2.81637 -4.96021 0
M  V30 4129 O 373.055 -4.49964 -3.9977 0
M  V30 4130 H 376.881 -2.80849 -1.15574 0
M  V30 4131 H 374.466 -1.40526 -0.507228 0
M  V30 4132 H 376.348 -2.27188 -3.54913 0
M  V30 4133 H 375.023 -1.20788 -3.0032 0
M  V30 4134 H 373.93 -3.23456 -1.87955 0
M  V30 4135 H 375.263 -4.24575 -2.48992 0
M  V30 4136 N 376.915 0.57481 -1.46744 0
M  V30 4137 C 377.848 1.69827 -1.52427 0
M  V30 4138 C 378.826 1.58151 -0.377744 0
M  V30 4139 O 380.01 1.79257 -0.58303 0
M  V30 4140 C 377.137 3.07943 -1.41027 0
M  V30 4141 C 376.183 3.38116 -2.59961 0
M  V30 4142 S 377.016 3.29313 -4.22272 0
M  V30 4143 C 378.172 4.69953 -4.13394 0
M  V30 4144 H 378.405 1.64748 -2.47478 0
M  V30 4145 H 375.938 0.754203 -1.34726 0
M  V30 4146 H 377.896 3.87619 -1.35137 0
M  V30 4147 H 376.557 3.10504 -0.473909 0
M  V30 4148 H 375.75 4.38762 -2.47999 0
M  V30 4149 H 375.352 2.66024 -2.62882 0
M  V30 4150 H 377.644 5.60517 -3.80562 0
M  V30 4151 H 378.587 4.86972 -5.14066 0
M  V30 4152 H 378.995 4.47174 -3.44522 0
M  V30 4153 N 378.394 1.34581 0.820102 0
M  V30 4154 C 379.341 1.2639 1.93117 0
M  V30 4155 C 380.311 0.138554 1.65521 0
M  V30 4156 O 381.496 0.320004 1.88097 0
M  V30 4157 C 378.636 1.02812 3.29429 0
M  V30 4158 C 377.749 2.24146 3.693 0
M  V30 4159 C 376.884 1.93829 4.94574 0
M  V30 4160 C 375.923 3.1129 5.27034 0
M  V30 4161 N 375.06 2.80838 6.43486 0
M  V30 4162 H 379.9 2.21408 1.99455 0
M  V30 4163 H 377.437 1.10077 0.975784 0
M  V30 4164 H 379.395 0.871788 4.0799 0
M  V30 4165 H 378.025 0.114612 3.22596 0
M  V30 4166 H 377.077 2.50691 2.86109 0
M  V30 4167 H 378.389 3.11899 3.89257 0
M  V30 4168 H 377.543 1.74948 5.80929 0
M  V30 4169 H 376.282 1.03341 4.76626 0
M  V30 4170 H 375.287 3.30764 4.39175 0
M  V30 4171 H 376.512 4.02561 5.4692 0
M  V30 4172 H 374.458 1.92929 6.26988 0
M  V30 4173 H 374.375 3.62123 6.63629 0
M  V30 4174 H 375.643 2.65467 7.32903 0
M  V30 4175 N 379.872 -1.04064 1.18357 0
M  V30 4176 C 380.835 -2.10243 0.912707 0
M  V30 4177 C 381.835 -1.60477 -0.101928 0
M  V30 4178 O 383.025 -1.73703 0.131517 0
M  V30 4179 C 380.157 -3.38893 0.369387 0
M  V30 4180 H 381.35 -2.35706 1.85426 0
M  V30 4181 H 378.903 -1.20489 0.995594 0
M  V30 4182 H 379.638 -3.19094 -0.578776 0
M  V30 4183 H 379.423 -3.76331 1.1008 0
M  V30 4184 H 380.913 -4.17128 0.198575 0
M  V30 4185 N 381.35 -0.985608 -1.22978 0
M  V30 4186 C 382.26 -0.538548 -2.28335 0
M  V30 4187 C 383.276 0.409163 -1.69121 0
M  V30 4188 O 384.452 0.277797 -1.99475 0
M  V30 4189 C 381.517 0.146867 -3.46389 0
M  V30 4190 C 380.578 -0.842896 -4.20944 0
M  V30 4191 C 379.811 -0.190095 -5.33361 0
M  V30 4192 O 380.034 1.01767 -5.61248 0
M  V30 4193 O 378.968 -0.891289 -5.95264 0
M  V30 4194 H 382.794 -1.41487 -2.68729 0
M  V30 4195 H 380.379 -0.753495 -1.29007 0
M  V30 4196 H 382.261 0.531125 -4.1804 0
M  V30 4197 H 380.936 0.997871 -3.07935 0
M  V30 4198 H 379.843 -1.27795 -3.51595 0
M  V30 4199 H 381.176 -1.66287 -4.6326 0
M  V30 4200 N 382.828 1.3818 -0.7579 0
M  V30 4201 C 384.077 1.99261 -0.312744 0
M  V30 4202 C 384.39 1.60846 1.11301 0
M  V30 4203 O 385.596 2.14929 1.65885 0
M  V30 4204 C 384.052 3.56294 -0.50821 0
M  V30 4205 C 383.66 4.03657 -1.94333 0
M  V30 4206 C 385.404 4.24313 -0.125982 0
M  V30 4207 C 383.311 5.53347 -2.08712 0
M  V30 4208 H 382.241 0.745456 -0.113185 0
M  V30 4209 H 384.892 1.57889 -0.935056 0
M  V30 4210 H 383.274 3.95575 0.183353 0
M  V30 4211 H 384.448 3.75655 -2.66871 0
M  V30 4212 H 382.763 3.48376 -2.28086 0
M  V30 4213 H 385.36 5.34279 -0.212125 0
M  V30 4214 H 385.703 4.05962 0.921964 0
M  V30 4215 H 386.236 3.90285 -0.769563 0
M  V30 4216 H 382.975 5.76607 -3.11777 0
M  V30 4217 H 382.495 5.83078 -1.4064 0
M  V30 4218 H 384.174 6.19111 -1.87912 0
M  V30 4219 N 384.306 0.507319 1.49211 0
M  V30 4220 C 385.555 -0.0368315 2.01666 0
M  V30 4221 C 385.868 -1.37459 1.39156 0
M  V30 4222 O 387.074 -2.00579 1.82976 0
M  V30 4223 C 385.53 -0.116089 3.59713 0
M  V30 4224 C 385.138 1.2154 4.31198 0
M  V30 4225 C 386.882 -0.610268 4.2009 0
M  V30 4226 C 384.789 1.09796 5.81119 0
M  V30 4227 H 383.719 -0.0175376 0.753796 0
M  V30 4228 H 386.37 0.647691 1.71689 0
M  V30 4229 H 384.752 -0.8652 3.86433 0
M  V30 4230 H 385.926 1.9783 4.16173 0
M  V30 4231 H 384.241 1.64352 3.82593 0
M  V30 4232 H 386.838 -0.715742 5.29888 0
M  V30 4233 H 387.181 -1.61064 3.8388 0
M  V30 4234 H 387.714 0.0824916 3.97714 0
M  V30 4235 H 384.453 2.0728 6.21864 0
M  V30 4236 H 383.973 0.376058 5.9862 0
M  V30 4237 H 385.652 0.779281 6.4229 0
M  V30 4238 N 385.784 -1.5574 0.241426 0
M  V30 4239 C 386.716 -2.18469 -0.693091 0
M  V30 4240 C 387.729 -1.15942 -1.14286 0
M  V30 4241 O 388.918 -1.42832 -1.07058 0
M  V30 4242 C 386.018 -2.7696 -1.95311 0
M  V30 4243 C 385.191 -4.04853 -1.65568 0
M  V30 4244 C 384.25 -4.47715 -2.76474 0
M  V30 4245 O 383.276 -5.14205 -2.44094 0
M  V30 4246 N 384.478 -4.15044 -4.05855 0
M  V30 4247 H 387.243 -2.99292 -0.156388 0
M  V30 4248 H 384.804 -1.61784 0.0611752 0
M  V30 4249 H 386.796 -3.02594 -2.68736 0
M  V30 4250 H 385.366 -2.00326 -2.39975 0
M  V30 4251 H 384.586 -3.86865 -0.756886 0
M  V30 4252 H 385.874 -4.88246 -1.43153 0
M  V30 4253 H 385.272 -3.61654 -4.34998 0
M  V30 4254 H 383.829 -4.45526 -4.75762 0
M  V30 4255 N 387.262 0.0317525 -1.57568 0
M  V30 4256 C 388.678 0.38735 -1.54828 0
M  V30 4257 C 388.878 1.7677 -0.967187 0
M  V30 4258 O 387.934 2.45581 -0.587063 0
M  V30 4259 C 389.247 0.291667 -2.99282 0
M  V30 4260 C 390.795 0.368946 -3.10818 0
M  V30 4261 C 391.27 0.302741 -4.56998 0
M  V30 4262 N 392.761 0.361617 -4.61786 0
M  V30 4263 C 393.496 0.333238 -5.72431 0
M  V30 4264 N 392.992 0.257308 -6.92322 0
M  V30 4265 N 394.785 0.382769 -5.60795 0
M  V30 4266 H 386.936 -0.871609 -1.93692 0
M  V30 4267 H 389.199 -0.331161 -0.888277 0
M  V30 4268 H 388.905 -0.656794 -3.45513 0
M  V30 4269 H 388.779 1.08638 -3.61217 0
M  V30 4270 H 391.166 1.30784 -2.64536 0
M  V30 4271 H 391.247 -0.455066 -2.5172 0
M  V30 4272 H 390.891 -0.632473 -5.03947 0
M  V30 4273 H 390.821 1.14482 -5.14005 0
M  V30 4274 H 393.312 0.422923 -3.75526 0
M  V30 4275 H 393.625 0.24068 -7.72425 0
M  V30 4276 H 391.97 0.223396 -6.94641 0
M  V30 4277 H 395.161 0.44006 -4.66027 0
M  V30 4278 H 395.334 0.357184 -6.47015 0
M  V30 4279 N 388.74 1.54641 0.303973 0
M  V30 4280 C 389.67 1.88386 1.3796 0
M  V30 4281 C 390.651 0.742485 1.5304 0
M  V30 4282 O 391.836 0.997959 1.66597 0
M  V30 4283 C 388.966 2.12854 2.74427 0
M  V30 4284 C 387.92 3.28702 2.74115 0
M  V30 4285 C 387.246 3.38582 4.13844 0
M  V30 4286 C 388.546 4.65881 2.3612 0
M  V30 4287 H 390.24 2.78474 1.09966 0
M  V30 4288 H 387.786 1.33988 0.527556 0
M  V30 4289 H 389.739 2.35047 3.49758 0
M  V30 4290 H 388.463 1.19535 3.03939 0
M  V30 4291 H 387.122 3.06428 2.0124 0
M  V30 4292 H 386.77 2.42784 4.40528 0
M  V30 4293 H 386.47 4.16453 4.14537 0
M  V30 4294 H 387.994 3.63031 4.90959 0
M  V30 4295 H 389.408 4.87823 3.01167 0
M  V30 4296 H 387.805 5.46444 2.48031 0
M  V30 4297 H 388.875 4.66799 1.3125 0
M  V30 4298 N 390.218 -0.567019 1.47046 0
M  V30 4299 C 391.15 -1.68985 1.54844 0
M  V30 4300 C 392.163 -1.56869 0.435431 0
M  V30 4301 O 393.352 -1.64006 0.70457 0
M  V30 4302 C 390.452 -3.07373 1.42742 0
M  V30 4303 C 389.625 -3.45339 2.6844 0
M  V30 4304 C 388.684 -4.62849 2.50314 0
M  V30 4305 O 387.71 -4.67922 3.24095 0
M  V30 4306 N 388.912 -5.58726 1.57499 0
M  V30 4307 H 391.677 -1.62745 2.51663 0
M  V30 4308 H 389.238 -0.753411 1.43302 0
M  V30 4309 H 391.23 -3.83803 1.28365 0
M  V30 4310 H 389.8 -3.07893 0.540445 0
M  V30 4311 H 389.02 -2.58455 2.97648 0
M  V30 4312 H 390.308 -3.67476 3.51907 0
M  V30 4313 H 389.706 -5.57376 0.966876 0
M  V30 4314 H 388.263 -6.34523 1.49078 0
M  V30 4315 N 391.696 -1.35014 -0.812953 0
M  V30 4316 C 392.944 -1.27678 -1.56661 0
M  V30 4317 C 393.265 0.150359 -1.94419 0
M  V30 4318 O 392.535 1.08532 -1.63088 0
M  V30 4319 H 391.115 -0.469602 -0.580933 0
M  V30 4320 H 393.777 -1.69043 -0.970076 0
M  V30 4321 H 392.873 -1.88833 -2.48492 0
M  V30 4322 N 393.175 1.03435 -1.18907 0
M  V30 4323 C 394.586 1.58195 -0.991523 0
M  V30 4324 C 394.937 1.90801 0.457081 0
M  V30 4325 O 394.062 1.70272 1.33553 0
M  V30 4326 C 394.657 2.87432 -1.79355 0
M  V30 4327 C 393.216 3.38785 -1.64017 0
M  V30 4328 C 392.363 2.12292 -1.78402 0
M  V30 4329 H 395.314 0.860299 -1.33359 0
M  V30 4330 H 395.335 3.58096 -1.28638 0
M  V30 4331 H 394.847 2.63669 -2.84781 0
M  V30 4332 H 392.948 3.67547 -0.611536 0
M  V30 4333 H 393.061 4.12186 -2.44212 0
M  V30 4334 H 391.425 2.23901 -1.2141 0
M  V30 4335 H 392.208 1.90977 -2.85277 0
M  V30 4336 N 394.653 0.992116 1.22453 0
M  V30 4337 C 395.6 0.541731 2.24352 0
M  V30 4338 C 396.57 -0.425519 1.60557 0
M  V30 4339 O 397.755 -0.330453 1.87917 0
M  V30 4340 C 394.895 -0.138248 3.44823 0
M  V30 4341 C 394.008 0.870649 4.23136 0
M  V30 4342 C 393.143 0.164269 5.30946 0
M  V30 4343 C 392.182 1.16159 6.00977 0
M  V30 4344 N 391.319 0.483568 7.00433 0
M  V30 4345 H 396.159 1.41541 2.62241 0
M  V30 4346 H 393.696 0.709013 1.28885 0
M  V30 4347 H 395.654 -0.5494 4.13567 0
M  V30 4348 H 394.284 -0.975721 3.077 0
M  V30 4349 H 393.336 1.40013 3.53696 0
M  V30 4350 H 394.648 1.63014 4.7141 0
M  V30 4351 H 393.802 -0.303653 6.0594 0
M  V30 4352 H 392.541 -0.627733 4.83643 0
M  V30 4353 H 391.546 1.64015 5.24766 0
M  V30 4354 H 392.771 1.95445 6.50368 0
M  V30 4355 H 390.717 -0.289012 6.55363 0
M  V30 4356 H 390.634 1.18152 7.4671 0
M  V30 4357 H 391.902 0.0384219 7.79491 0
M  V30 4358 N 396.131 -1.37776 0.765217 0
M  V30 4359 C 397.094 -2.28686 0.153416 0
M  V30 4360 C 398.094 -1.47727 -0.635081 0
M  V30 4361 O 399.284 -1.68027 -0.459632 0
M  V30 4362 C 396.416 -3.31608 -0.790495 0
M  V30 4363 H 397.609 -2.84297 0.954723 0
M  V30 4364 H 395.162 -1.46932 0.53299 0
M  V30 4365 H 395.897 -2.81109 -1.61705 0
M  V30 4366 H 395.682 -3.9144 -0.227348 0
M  V30 4367 H 397.172 -3.99559 -1.21419 0
M  V30 4368 N 397.609 -0.515225 -1.4894 0
M  V30 4369 C 398.857 0.0241671 -2.02086 0
M  V30 4370 C 399.178 1.3616 -1.3959 0
M  V30 4371 O 398.448 1.87841 -0.556121 0
M  V30 4372 H 397.028 0.0119203 -0.746905 0
M  V30 4373 H 399.69 -0.675702 -1.82812 0
M  V30 4374 H 398.786 0.143385 -3.1177 0
M  V30 4375 N 399.087 1.5561 -0.249682 0
M  V30 4376 C 400.019 2.18834 0.681496 0
M  V30 4377 C 401.032 1.16546 1.1367 0
M  V30 4378 O 402.221 1.43397 1.06299 0
M  V30 4379 C 399.321 2.77992 1.9384 0
M  V30 4380 C 398.494 4.05725 1.63419 0
M  V30 4381 C 397.553 4.49174 2.74096 0
M  V30 4382 O 396.579 5.15492 2.41364 0
M  V30 4383 N 397.781 4.17191 4.03649 0
M  V30 4384 H 400.546 2.9937 0.140514 0
M  V30 4385 H 398.107 1.6175 -0.0697541 0
M  V30 4386 H 400.099 3.04015 2.67127 0
M  V30 4387 H 398.669 2.01596 2.38909 0
M  V30 4388 H 397.889 3.87261 0.736358 0
M  V30 4389 H 399.177 4.88999 1.40562 0
M  V30 4390 H 398.575 3.63955 4.33074 0
M  V30 4391 H 397.132 4.48043 4.73393 0
M  V30 4392 N 400.565 -0.0233959 1.57583 0
M  V30 4393 C 401.498 -1.05549 2.02323 0
M  V30 4394 C 402.476 -1.34843 0.908626 0
M  V30 4395 O 403.66 -1.47404 1.17491 0
M  V30 4396 C 400.787 -2.38885 2.40108 0
M  V30 4397 C 399.833 -2.2541 3.62067 0
M  V30 4398 S 400.666 -1.60217 5.1097 0
M  V30 4399 C 401.822 -2.95032 5.52003 0
M  V30 4400 H 402.055 -0.674435 2.89549 0
M  V30 4401 H 399.588 -0.23355 1.52623 0
M  V30 4402 H 401.546 -3.15562 2.62547 0
M  V30 4403 H 400.207 -2.74137 1.53323 0
M  V30 4404 H 399.4 -3.23854 3.86179 0
M  V30 4405 H 399.002 -1.56876 3.39508 0
M  V30 4406 H 401.294 -3.91357 5.53033 0
M  V30 4407 H 402.237 -2.75646 6.52246 0
M  V30 4408 H 402.645 -2.97865 4.79517 0
M  V30 4409 N 402.043 -1.548 -0.295768 0
M  V30 4410 C 402.953 -1.89177 -1.38742 0
M  V30 4411 C 403.969 -0.786481 -1.55211 0
M  V30 4412 O 405.145 -1.08344 -1.69775 0
M  V30 4413 C 402.21 -2.13663 -2.73036 0
M  V30 4414 C 401.271 -3.37349 -2.65508 0
M  V30 4415 C 400.504 -3.60658 -3.93398 0
M  V30 4416 O 400.727 -2.86882 -4.93006 0
M  V30 4417 O 399.661 -4.54179 -3.94975 0
M  V30 4418 H 403.487 -2.82059 -1.12589 0
M  V30 4419 H 401.072 -1.41056 -0.492295 0
M  V30 4420 H 402.954 -2.3094 -3.52484 0
M  V30 4421 H 401.629 -1.23967 -2.99022 0
M  V30 4422 H 400.536 -3.25431 -1.84514 0
M  V30 4423 H 401.869 -4.27192 -2.44474 0
M  V30 4424 N 403.521 0.559213 -1.47345 0
M  V30 4425 C 404.469 1.68747 -1.60085 0
M  V30 4426 C 405.463 1.628 -0.46825 0
M  V30 4427 O 406.669 1.68009 -0.645977 0
M  V30 4428 H 403.044 0.558329 -0.503759 0
M  V30 4429 H 405.015 1.55138 -2.54902 0
M  V30 4430 C 403.764 3.07103 -1.63042 0
M  V30 4431 H 403.087 3.12361 -2.49541 0
M  V30 4432 H 404.527 3.85743 -1.76006 0
M  V30 4433 C 402.986 3.34935 -0.363357 0
M  V30 4434 O 403.516 3.98102 0.536416 0
M  V30 4435 N 401.722 2.89574 -0.244 0
M  V30 4436 H 401.269 2.38348 -0.977133 0
M  V30 4437 H 401.227 3.08566 0.602836 0
M  V30 4438 N 404.999 1.35443 0.805782 0
M  V30 4439 C 406.227 1.31878 1.59423 0
M  V30 4440 C 406.642 -0.103562 1.88516 0
M  V30 4441 O 405.999 -1.05575 1.48863 0
M  V30 4442 C 406.05 2.12426 2.92502 0
M  V30 4443 O 405.771 3.49115 2.6467 0
M  V30 4444 C 407.272 2.16455 3.86862 0
M  V30 4445 H 404.492 0.453002 0.495005 0
M  V30 4446 H 407.036 1.78309 1.00131 0
M  V30 4447 H 405.191 1.69593 3.48306 0
M  V30 4448 H 405.605 3.90957 3.49647 0
M  V30 4449 H 407.079 2.77204 4.77349 0
M  V30 4450 H 407.556 1.16352 4.23508 0
M  V30 4451 H 408.162 2.59453 3.36993 0
M  V30 4452 N 406.477 -1.02803 1.19454 0
M  V30 4453 C 407.425 -2.13213 0.929673 0
M  V30 4454 C 408.419 -1.69011 -0.114806 0
M  V30 4455 O 409.625 -1.79967 0.0345147 0
M  V30 4456 H 406 -0.69662 0.28324 0
M  V30 4457 H 407.971 -2.32744 1.86743 0
M  V30 4458 C 406.72 -3.4429 0.485797 0
M  V30 4459 H 406.043 -3.7872 1.28105 0
M  V30 4460 H 407.483 -4.22638 0.339582 0
M  V30 4461 C 405.942 -3.27258 -0.800244 0
M  V30 4462 O 406.472 -3.55967 -1.86146 0
M  V30 4463 N 404.678 -2.80545 -0.75781 0
M  V30 4464 H 404.225 -2.57382 0.106039 0
M  V30 4465 H 404.183 -2.6953 -1.61867 0
M  V30 4466 N 407.956 -0.998596 -1.21925 0
M  V30 4467 C 408.904 -0.546641 -2.26085 0
M  V30 4468 C 409.898 0.405576 -1.64473 0
M  V30 4469 O 411.104 0.277471 -1.77849 0
M  V30 4470 H 407.479 -0.158403 -0.735127 0
M  V30 4471 H 409.45 -1.43645 -2.61551 0
M  V30 4472 C 408.199 0.117388 -3.47502 0
M  V30 4473 H 407.522 -0.606277 -3.95176 0
M  V30 4474 H 408.962 0.396993 -4.22137 0
M  V30 4475 C 407.421 1.35455 -3.0847 0
M  V30 4476 O 407.951 2.44944 -3.18379 0
M  V30 4477 N 406.157 1.23191 -2.63196 0
M  V30 4478 H 405.704 0.341006 -2.55333 0
M  V30 4479 H 405.662 2.06071 -2.37449 0
M  V30 4480 N 409.434 1.37368 -0.772513 0
M  V30 4481 C 410.681 1.99673 -0.337182 0
M  V30 4482 C 411.009 1.61324 1.0865 0
M  V30 4483 O 410.264 0.851377 1.7621 0
M  V30 4484 C 410.563 3.54817 -0.428876 0
M  V30 4485 C 410.229 4.12936 -1.81092 0
M  V30 4486 C 408.891 4.28523 -2.1891 0
M  V30 4487 C 411.243 4.44801 -2.71664 0
M  V30 4488 C 408.571 4.73277 -3.46735 0
M  V30 4489 C 410.923 4.90981 -3.98899 0
M  V30 4490 C 409.587 5.04773 -4.36761 0
M  V30 4491 H 408.857 0.730656 -0.123384 0
M  V30 4492 H 411.504 1.64124 -0.986686 0
M  V30 4493 H 409.809 3.90618 0.304167 0
M  V30 4494 H 411.506 4.00933 -0.0733334 0
M  V30 4495 H 408.096 4.01233 -1.50699 0
M  V30 4496 H 412.28 4.32344 -2.43706 0
M  V30 4497 H 407.536 4.82142 -3.75964 0
M  V30 4498 H 411.71 5.14603 -4.69208 0
M  V30 4499 H 409.337 5.39211 -5.35868 0
M  V30 4500 N 410.912 0.523116 1.48665 0
M  V30 4501 C 411.862 -0.263106 2.26477 0
M  V30 4502 C 412.846 -0.916005 1.32281 0
M  V30 4503 O 414.038 -0.819946 1.56863 0
M  V30 4504 C 411.167 -1.31361 3.17174 0
M  V30 4505 C 410.253 -0.665849 4.1884 0
M  V30 4506 N 410.644 0.244434 5.05209 0
M  V30 4507 C 408.942 -0.923863 4.36326 0
M  V30 4508 C 409.643 0.617443 5.78414 0
M  V30 4509 N 408.619 -0.0198686 5.43596 0
M  V30 4510 H 412.421 0.437295 2.90629 0
M  V30 4511 H 409.935 0.340675 1.58787 0
M  V30 4512 H 411.932 -1.89052 3.71571 0
M  V30 4513 H 410.592 -2.01546 2.54576 0
M  V30 4514 H 411.603 0.616621 5.14216 0
M  V30 4515 H 408.28 -1.6168 3.84923 0
M  V30 4516 H 409.67 1.36346 6.57921 0
M  V30 4517 N 412.39 -1.55475 0.257931 0
M  V30 4518 C 413.338 -2.23244 -0.653076 0
M  V30 4519 C 414.332 -1.22366 -1.17144 0
M  V30 4520 O 415.538 -1.40347 -1.12706 0
M  V30 4521 H 411.913 -0.716247 -0.229117 0
M  V30 4522 H 413.884 -2.98343 -0.0584788 0
M  V30 4523 C 412.633 -2.95401 -1.83395 0
M  V30 4524 H 411.956 -3.72802 -1.44424 0
M  V30 4525 H 413.396 -3.46165 -2.44838 0
M  V30 4526 C 411.855 -1.99895 -2.71189 0
M  V30 4527 O 412.385 -1.53909 -3.71046 0
M  V30 4528 N 410.591 -1.6676 -2.3799 0
M  V30 4529 H 410.138 -2.04352 -1.56837 0
M  V30 4530 H 410.096 -1.03127 -2.97005 0
M  V30 4531 N 413.868 0.0150385 -1.57593 0
M  V30 4532 C 414.798 1.01047 -2.10503 0
M  V30 4533 C 415.779 1.36816 -1.01071 0
M  V30 4534 O 416.964 1.45455 -1.28672 0
M  V30 4535 C 414.094 2.30708 -2.59598 0
M  V30 4536 C 413.048 2.09142 -3.73421 0
M  V30 4537 C 412.374 3.44685 -4.08774 0
M  V30 4538 C 413.674 1.46619 -5.01298 0
M  V30 4539 H 415.368 0.569978 -2.93925 0
M  V30 4540 H 412.914 0.272724 -1.41394 0
M  V30 4541 H 414.867 3.00687 -2.95238 0
M  V30 4542 H 413.591 2.76843 -1.73279 0
M  V30 4543 H 412.25 1.41592 -3.38153 0
M  V30 4544 H 411.898 3.88495 -3.195 0
M  V30 4545 H 411.598 3.31077 -4.8545 0
M  V30 4546 H 413.122 4.16004 -4.4696 0
M  V30 4547 H 414.536 2.06535 -5.34805 0
M  V30 4548 H 412.933 1.43544 -5.82679 0
M  V30 4549 H 414.003 0.433611 -4.82957 0
M  V30 4550 N 415.346 1.54954 0.287554 0
M  V30 4551 C 416.576 1.78622 1.03816 0
M  V30 4552 C 416.984 0.552451 1.80955 0
M  V30 4553 O 416.327 -0.487665 1.77109 0
M  V30 4554 C 416.389 2.94975 2.055 0
M  V30 4555 C 416.053 4.32565 1.47433 0
M  V30 4556 C 417.05 5.12096 0.897436 0
M  V30 4557 C 414.735 4.79195 1.50591 0
M  V30 4558 C 416.729 6.36383 0.359851 0
M  V30 4559 C 414.416 6.03441 0.964459 0
M  V30 4560 C 415.414 6.81872 0.392413 0
M  V30 4561 O 415.102 8.03777 -0.140788 0
M  V30 4562 H 414.834 0.599144 0.313053 0
M  V30 4563 H 417.388 2.02761 0.328225 0
M  V30 4564 H 415.618 2.66493 2.80211 0
M  V30 4565 H 417.307 3.06097 2.6657 0
M  V30 4566 H 418.073 4.77209 0.865841 0
M  V30 4567 H 413.952 4.18167 1.94055 0
M  V30 4568 H 417.496 6.97545 -0.0872951 0
M  V30 4569 H 413.393 6.37813 0.993246 0
M  V30 4570 H 414.161 8.18495 -0.0287617 0
M  V30 4571 N 416.824 -0.551391 1.4764 0
M  V30 4572 C 418.07 -1.31024 1.54792 0
M  V30 4573 C 418.403 -1.9304 0.211967 0
M  V30 4574 O 417.678 -1.78175 -0.77999 0
M  V30 4575 C 417.961 -2.41593 2.67029 0
M  V30 4576 C 417.814 -1.84408 4.10261 0
M  V30 4577 C 419.133 -3.43488 2.75143 0
M  V30 4578 H 416.252 -0.475031 0.563485 0
M  V30 4579 H 418.894 -0.616454 1.79722 0
M  V30 4580 H 417.044 -3.00772 2.45904 0
M  V30 4581 H 418.716 -1.29445 4.42766 0
M  V30 4582 H 416.959 -1.15051 4.18265 0
M  V30 4583 H 417.63 -2.64367 4.84576 0
M  V30 4584 H 420.106 -2.94236 2.94218 0
M  V30 4585 H 418.982 -4.18274 3.55441 0
M  V30 4586 H 419.243 -4.02703 1.82435 0
M  V30 4587 N 418.302 -1.35869 -0.798587 0
M  V30 4588 C 419.249 -1.29446 -1.91082 0
M  V30 4589 C 420.219 -0.16487 -1.6528 0
M  V30 4590 O 421.404 -0.349888 -1.87564 0
M  V30 4591 C 418.544 -1.0804 -3.27752 0
M  V30 4592 C 417.657 -2.29993 -3.65687 0
M  V30 4593 C 416.792 -2.01673 -4.91428 0
M  V30 4594 C 415.831 -3.19636 -5.22015 0
M  V30 4595 N 414.968 -2.91039 -6.38937 0
M  V30 4596 H 419.808 -2.24553 -1.95907 0
M  V30 4597 H 417.345 -1.11615 -0.958148 0
M  V30 4598 H 419.303 -0.936586 -4.06551 0
M  V30 4599 H 417.933 -0.16592 -3.22373 0
M  V30 4600 H 416.985 -2.55211 -2.82085 0
M  V30 4601 H 418.297 -3.18052 -3.84245 0
M  V30 4602 H 417.451 -1.84168 -5.78072 0
M  V30 4603 H 416.19 -1.10911 -4.74921 0
M  V30 4604 H 415.195 -3.37709 -4.33858 0
M  V30 4605 H 416.42 -4.11211 -5.40447 0
M  V30 4606 H 414.366 -2.0288 -6.2384 0
M  V30 4607 H 414.283 -3.72635 -6.57784 0
M  V30 4608 H 415.551 -2.77093 -7.28587 0
M  V30 4609 N 419.78 1.02168 -1.19998 0
M  V30 4610 C 421.196 1.27969 -0.953737 0
M  V30 4611 C 421.396 1.98079 0.369703 0
M  V30 4612 O 420.452 2.27306 1.09947 0
M  V30 4613 C 421.765 2.11971 -2.13281 0
M  V30 4614 C 423.313 2.25255 -2.17323 0
M  V30 4615 C 423.788 3.12632 -3.34702 0
M  V30 4616 N 425.279 3.2022 -3.34684 0
M  V30 4617 C 426.014 3.88039 -4.22153 0
M  V30 4618 N 425.51 4.58027 -5.19791 0
M  V30 4619 N 427.303 3.84511 -4.10009 0
M  V30 4620 H 419.454 0.550794 -2.05134 0
M  V30 4621 H 421.717 0.305683 -0.897364 0
M  V30 4622 H 421.423 1.67785 -3.09097 0
M  V30 4623 H 421.297 3.12699 -2.10949 0
M  V30 4624 H 423.684 2.68667 -1.22073 0
M  V30 4625 H 423.765 1.24053 -2.23706 0
M  V30 4626 H 423.409 2.69926 -4.30235 0
M  V30 4627 H 423.339 4.13909 -3.25556 0
M  V30 4628 H 425.83 2.70382 -2.64012 0
M  V30 4629 H 426.143 5.07429 -5.82868 0
M  V30 4630 H 424.488 4.56869 -5.23733 0
M  V30 4631 H 427.679 3.28978 -3.33003 0
M  V30 4632 H 427.852 4.3709 -4.78389 0
M  V30 4633 N 421.258 1.00505 1.21394 0
M  V30 4634 C 422.208 0.536503 2.21598 0
M  V30 4635 C 423.192 -0.401914 1.55799 0
M  V30 4636 O 424.384 -0.226757 1.75541 0
M  V30 4637 C 421.513 -0.135446 3.43033 0
M  V30 4638 C 420.599 0.823992 4.16018 0
M  V30 4639 N 420.99 1.97683 4.6557 0
M  V30 4640 C 419.288 0.642387 4.4135 0
M  V30 4641 C 419.989 2.58003 5.21354 0
M  V30 4642 N 418.965 1.86162 5.1073 0
M  V30 4643 H 422.767 1.41557 2.57563 0
M  V30 4644 H 420.281 0.868878 1.37202 0
M  V30 4645 H 422.278 -0.488584 4.14027 0
M  V30 4646 H 420.938 -1.01049 3.08576 0
M  V30 4647 H 421.949 2.3572 4.61147 0
M  V30 4648 H 418.626 -0.185578 4.17087 0
M  V30 4649 H 420.016 3.555 5.70149 0
M  V30 4650 N 422.737 -1.36956 0.779787 0
M  V30 4651 C 423.965 -2.03755 0.359398 0
M  V30 4652 C 424.38 -1.58807 -1.02106 0
M  V30 4653 O 423.737 -0.773024 -1.6532 0
M  V30 4654 C 423.788 -3.59251 0.402568 0
M  V30 4655 O 423.509 -4.02557 1.72858 0
M  V30 4656 C 425.01 -4.43291 -0.0284068 0
M  V30 4657 H 422.23 -0.654148 0.149437 0
M  V30 4658 H 424.774 -1.75128 1.05595 0
M  V30 4659 H 422.929 -3.86621 -0.245478 0
M  V30 4660 H 423.343 -4.97111 1.67275 0
M  V30 4661 H 424.817 -5.51975 0.0529466 0
M  V30 4662 H 425.294 -4.25719 -1.07982 0
M  V30 4663 H 425.9 -4.21163 0.591758 0
M  V30 4664 N 424.215 -0.530993 -1.48385 0
M  V30 4665 C 425.163 0.244595 -2.3131 0
M  V30 4666 C 426.157 0.93451 -1.41291 0
M  V30 4667 O 427.363 0.85878 -1.58193 0
M  V30 4668 H 423.738 0.0977472 -0.74562 0
M  V30 4669 H 425.709 -0.474369 -2.94605 0
M  V30 4670 C 424.458 1.2779 -3.23365 0
M  V30 4671 H 423.781 0.756439 -3.92579 0
M  V30 4672 H 425.221 1.79198 -3.84271 0
M  V30 4673 C 423.68 2.31205 -2.45042 0
M  V30 4674 O 424.21 3.37661 -2.17596 0
M  V30 4675 N 422.416 2.04446 -2.0652 0
M  V30 4676 H 421.963 1.17891 -2.2904 0
M  V30 4677 H 421.921 2.73861 -1.54427 0
M  V30 4678 N 425.693 1.55336 -0.266172 0
M  V30 4679 C 426.939 1.99692 0.353681 0
M  V30 4680 C 427.272 1.1543 1.56172 0
M  V30 4681 O 426.547 0.222218 1.93226 0
M  V30 4682 C 426.83 3.52316 0.74466 0
M  V30 4683 C 426.683 4.47337 -0.470101 0
M  V30 4684 C 428.002 4.10588 1.58447 0
M  V30 4685 H 425.121 0.725961 0.12708 0
M  V30 4686 H 427.763 1.86336 -0.371333 0
M  V30 4687 H 425.913 3.63829 1.36239 0
M  V30 4688 H 427.585 4.4778 -1.10864 0
M  V30 4689 H 425.828 4.19364 -1.10978 0
M  V30 4690 H 426.499 5.51788 -0.15291 0
M  V30 4691 H 428.975 4.02297 1.06286 0
M  V30 4692 H 427.851 5.17607 1.82686 0
M  V30 4693 H 428.112 3.60253 2.56262 0
M  V30 4694 N 427.171 -0.0066808 1.57599 0
M  V30 4695 C 428.396 -0.707738 1.94951 0
M  V30 4696 C 428.821 -1.66882 0.867868 0
M  V30 4697 O 428.179 -1.80457 -0.17458 0
M  V30 4698 C 428.227 -1.42162 3.31394 0
M  V30 4699 O 427.331 -2.53578 3.25226 0
M  V30 4700 H 426.672 -0.188752 0.636607 0
M  V30 4701 H 429.202 0.0445193 2.04552 0
M  V30 4702 H 429.212 -1.78655 3.66806 0
M  V30 4703 H 427.887 -0.716903 4.09675 0
M  V30 4704 H 426.464 -2.19463 3.01481 0
M  V30 4705 N 428.649 -1.55105 -0.279332 0
M  V30 4706 C 429.898 -1.74618 -1.00952 0
M  V30 4707 C 430.211 -0.551096 -1.87676 0
M  V30 4708 O 431.417 -0.628507 -2.64125 0
M  V30 4709 C 429.873 -3.09025 -1.84476 0
M  V30 4710 C 429.481 -4.36081 -1.0265 0
M  V30 4711 C 431.225 -3.37891 -2.56963 0
M  V30 4712 C 429.132 -5.6153 -1.85576 0
M  V30 4713 H 428.062 -0.650868 -0.38064 0
M  V30 4714 H 430.713 -1.81569 -0.265475 0
M  V30 4715 H 429.095 -2.96095 -2.62952 0
M  V30 4716 H 430.269 -4.59909 -0.286354 0
M  V30 4717 H 428.584 -4.14312 -0.416464 0
M  V30 4718 H 431.181 -4.28822 -3.19399 0
M  V30 4719 H 431.524 -2.57737 -3.26921 0
M  V30 4720 H 432.057 -3.5189 -1.85522 0
M  V30 4721 H 428.796 -6.44413 -1.2005 0
M  V30 4722 H 428.316 -5.41854 -2.57204 0
M  V30 4723 H 429.995 -5.99594 -2.43096 0
M  V30 4724 N 430.127 0.543554 -1.4793 0
M  V30 4725 C 431.057 1.65888 -1.64327 0
M  V30 4726 C 432.038 1.62818 -0.492383 0
M  V30 4727 O 433.223 1.80226 -0.723338 0
M  V30 4728 C 430.353 3.04506 -1.67013 0
M  V30 4729 C 429.307 3.2243 -2.81466 0
M  V30 4730 C 428.633 4.61972 -2.69233 0
M  V30 4731 C 429.933 3.06496 -4.22915 0
M  V30 4732 H 431.627 1.52421 -2.57698 0
M  V30 4733 H 429.173 0.731849 -1.24016 0
M  V30 4734 H 431.126 3.82391 -1.77074 0
M  V30 4735 H 429.85 3.18964 -0.70212 0
M  V30 4736 H 428.509 2.46957 -2.70938 0
M  V30 4737 H 428.157 4.73247 -1.7043 0
M  V30 4738 H 427.857 4.74911 -3.46025 0
M  V30 4739 H 429.381 5.41974 -2.81242 0
M  V30 4740 H 430.795 3.74186 -4.34348 0
M  V30 4741 H 429.192 3.30938 -5.006 0
M  V30 4742 H 430.262 2.03077 -4.40327 0
M  V30 4743 N 431.605 1.3629 0.791371 0
M  V30 4744 C 432.835 1.33368 1.57786 0
M  V30 4745 C 433.243 -0.0875188 1.88997 0
M  V30 4746 O 432.586 -1.05427 1.50435 0
M  V30 4747 C 432.648 2.08802 2.92646 0
M  V30 4748 C 432.312 3.57903 2.84174 0
M  V30 4749 C 433.309 4.52191 2.56553 0
M  V30 4750 C 430.994 4.00762 3.02812 0
M  V30 4751 C 432.988 5.87315 2.47669 0
M  V30 4752 C 430.675 5.35977 2.93551 0
M  V30 4753 C 431.673 6.29066 2.66017 0
M  V30 4754 O 431.361 7.61798 2.56746 0
M  V30 4755 H 431.093 0.459166 0.496128 0
M  V30 4756 H 433.647 1.79952 0.990269 0
M  V30 4757 H 431.877 1.56878 3.53449 0
M  V30 4758 H 433.566 1.98762 3.53904 0
M  V30 4759 H 434.332 4.20393 2.41858 0
M  V30 4760 H 430.211 3.2868 3.2325 0
M  V30 4761 H 433.755 6.59943 2.26099 0
M  V30 4762 H 429.652 5.67384 3.07808 0
M  V30 4763 H 430.42 7.71898 2.72242 0
M  V30 4764 N 433.083 -1.0153 1.20538 0
M  V30 4765 C 434.046 -2.0826 0.957098 0
M  V30 4766 C 435.046 -1.60657 -0.0678655 0
M  V30 4767 O 436.236 -1.73385 0.168332 0
M  V30 4768 C 433.368 -3.38033 0.441188 0
M  V30 4769 H 434.561 -2.31719 1.90384 0
M  V30 4770 H 432.114 -1.1835 1.02093 0
M  V30 4771 H 432.849 -3.20249 -0.510961 0
M  V30 4772 H 432.634 -3.73911 1.18038 0
M  V30 4773 H 434.124 -4.16613 0.287009 0
M  V30 4774 N 434.561 -1.01147 -1.20859 0
M  V30 4775 C 435.838 -0.613136 -1.85742 0
M  V30 4776 C 436.218 0.909004 -1.90526 0
M  V30 4777 O 435.566 1.79862 -1.40932 0
M  V30 4778 C 435.776 -1.255 -3.25654 0
M  V30 4779 C 437.124 -1.3672 -4.01986 0
M  V30 4780 O 438.148 -1.21082 -3.34989 0
M  V30 4781 O 437.007 -1.6194 -5.21956 0
M  V30 4782 H 434.101 -0.210878 -0.799662 0
M  V30 4783 H 436.647 -1.10853 -1.2849 0
M  V30 4784 H 435.419 -2.29532 -3.16908 0
M  V30 4785 H 435.042 -0.746369 -3.90532 0
M  V30 4786 N 436.039 1.36541 -0.78704 0
M  V30 4787 C 437.288 1.98552 -0.35494 0
M  V30 4788 C 437.601 1.63171 1.07864 0
M  V30 4789 O 438.807 2.18399 1.61289 0
M  V30 4790 C 437.263 3.55136 -0.583671 0
M  V30 4791 C 436.871 3.99444 -2.02851 0
M  V30 4792 C 438.615 4.2395 -0.215957 0
M  V30 4793 C 436.522 5.48796 -2.20403 0
M  V30 4794 H 435.452 0.742888 -0.128972 0
M  V30 4795 H 438.103 1.5587 -0.968337 0
M  V30 4796 H 436.485 3.95875 0.0994046 0
M  V30 4797 H 437.659 3.6991 -2.74779 0
M  V30 4798 H 435.974 3.43459 -2.35425 0
M  V30 4799 H 438.571 5.33709 -0.325405 0
M  V30 4800 H 438.914 4.07827 0.835646 0
M  V30 4801 H 439.447 3.88565 -0.852175 0
M  V30 4802 H 436.186 5.69864 -3.23937 0
M  V30 4803 H 435.706 5.79964 -1.52977 0
M  V30 4804 H 437.385 6.14986 -2.01002 0
M  V30 4805 N 437.518 0.538854 1.48102 0
M  V30 4806 C 438.764 0.00801365 2.02798 0
M  V30 4807 C 439.097 -1.3309 1.41424 0
M  V30 4808 O 438.372 -1.86169 0.563158 0
M  V30 4809 C 438.655 -0.104589 3.59948 0
M  V30 4810 C 438.508 1.26012 4.31788 0
M  V30 4811 C 439.827 -0.827055 4.32259 0
M  V30 4812 H 436.946 0.00438624 0.736987 0
M  V30 4813 H 439.588 0.6976 1.7673 0
M  V30 4814 H 437.738 -0.691893 3.82289 0
M  V30 4815 H 439.41 1.88922 4.2084 0
M  V30 4816 H 437.653 1.83968 3.92859 0
M  V30 4817 H 438.324 1.13424 5.40221 0
M  V30 4818 H 440.8 -0.328578 4.14801 0
M  V30 4819 H 439.676 -0.87476 5.41885 0
M  V30 4820 H 439.937 -1.87927 4.0017 0
M  V30 4821 N 438.996 -1.55193 0.274407 0
M  V30 4822 C 440.244 -1.99187 -0.341902 0
M  V30 4823 C 440.565 -1.16422 -1.56431 0
M  V30 4824 O 439.835 -0.253573 -1.94252 0
M  V30 4825 H 438.415 -0.735721 -0.129317 0
M  V30 4826 H 441.077 -1.91168 0.379578 0
M  V30 4827 H 440.173 -3.05629 -0.632253 0
M  V30 4828 N 440.474 -0.00167713 -1.576 0
M  V30 4829 C 441.721 0.68282 -1.90641 0
M  V30 4830 C 442.049 1.73686 -0.875415 0
M  V30 4831 O 441.304 1.95334 0.119575 0
M  V30 4832 C 441.603 1.36189 -3.30435 0
M  V30 4833 C 441.269 0.440887 -4.48739 0
M  V30 4834 C 439.931 0.187312 -4.80835 0
M  V30 4835 C 442.283 -0.193134 -5.20842 0
M  V30 4836 C 439.611 -0.70855 -5.82406 0
M  V30 4837 C 441.963 -1.07688 -6.23367 0
M  V30 4838 C 440.627 -1.33962 -6.53919 0
M  V30 4839 H 439.897 0.249862 -0.697603 0
M  V30 4840 H 442.544 -0.0575642 -1.91413 0
M  V30 4841 H 440.849 2.17636 -3.25794 0
M  V30 4842 H 442.546 1.89759 -3.5326 0
M  V30 4843 H 439.136 0.648694 -4.23663 0
M  V30 4844 H 443.32 -0.0102445 -4.96299 0
M  V30 4845 H 438.576 -0.920097 -6.04437 0
M  V30 4846 H 442.75 -1.57451 -6.78367 0
M  V30 4847 H 440.377 -2.03549 -7.32442 0
M  V30 4848 N 441.952 1.55251 0.271103 0
M  V30 4849 C 443.18 1.79974 1.02064 0
M  V30 4850 C 443.595 0.574003 1.79863 0
M  V30 4851 O 442.952 -0.456962 1.76686 0
M  V30 4852 C 443.003 3.02603 1.97772 0
M  V30 4853 O 442.724 4.20443 1.23124 0
M  V30 4854 C 444.225 3.39944 2.84522 0
M  V30 4855 H 441.445 0.599489 0.301419 0
M  V30 4856 H 443.989 2.02268 0.301313 0
M  V30 4857 H 442.144 2.8243 2.65165 0
M  V30 4858 H 442.558 4.89783 1.87651 0
M  V30 4859 H 444.032 4.28915 3.47471 0
M  V30 4860 H 444.509 2.59432 3.54389 0
M  V30 4861 H 445.115 3.62383 2.22618 0
M  V30 4862 N 443.43 -0.535701 1.48216 0
M  V30 4863 C 444.846 -0.863701 1.3421 0
M  V30 4864 C 445.046 -1.98458 0.34879 0
M  V30 4865 O 444.102 -2.51432 -0.23204 0
M  V30 4866 C 445.415 -1.23662 2.74095 0
M  V30 4867 C 446.963 -1.34683 2.82541 0
M  V30 4868 C 447.438 -1.75322 4.23115 0
M  V30 4869 N 448.929 -1.82434 4.2576 0
M  V30 4870 C 449.664 -2.15252 5.31464 0
M  V30 4871 N 449.16 -2.46533 6.47452 0
M  V30 4872 N 450.953 -2.16209 5.18855 0
M  V30 4873 H 443.104 0.203965 2.11418 0
M  V30 4874 H 445.367 0.0286033 0.947568 0
M  V30 4875 H 445.073 -0.486674 3.48316 0
M  V30 4876 H 444.947 -2.18805 3.07253 0
M  V30 4877 H 447.334 -2.08756 2.08579 0
M  V30 4878 H 447.415 -0.376756 2.5301 0
M  V30 4879 H 447.059 -1.01812 4.97591 0
M  V30 4880 H 446.989 -2.7337 4.50085 0
M  V30 4881 H 449.48 -1.6056 3.42095 0
M  V30 4882 H 449.793 -2.70662 7.23852 0
M  V30 4883 H 448.138 -2.44065 6.50736 0
M  V30 4884 H 451.329 -1.91224 4.2726 0
M  V30 4885 H 451.502 -2.41453 6.01335 0
M  V30 4886 N 444.908 -1.36708 -0.784132 0
M  V30 4887 C 445.838 -1.34153 -1.91116 0
M  V30 4888 C 446.819 -0.212121 -1.68772 0
M  V30 4889 O 448.004 -0.410581 -1.8981 0
M  V30 4890 C 445.134 -1.13535 -3.28218 0
M  V30 4891 C 444.088 -2.23356 -3.65097 0
M  V30 4892 C 443.414 -1.87875 -5.00607 0
M  V30 4893 C 444.714 -3.65473 -3.73131 0
M  V30 4894 H 446.408 -2.28459 -1.93512 0
M  V30 4895 H 443.954 -1.09973 -0.929618 0
M  V30 4896 H 445.907 -1.10381 -4.06687 0
M  V30 4897 H 444.631 -0.156804 -3.26223 0
M  V30 4898 H 443.29 -2.25645 -2.88929 0
M  V30 4899 H 442.938 -0.885814 -4.95139 0
M  V30 4900 H 442.638 -2.61406 -5.26252 0
M  V30 4901 H 444.162 -1.86286 -5.81489 0
M  V30 4902 H 445.576 -3.65382 -4.41779 0
M  V30 4903 H 443.973 -4.37953 -4.10265 0
M  V30 4904 H 445.043 -3.99995 -2.74102 0
M  V30 4905 N 446.386 1.0089 -1.21074 0
M  V30 4906 C 447.349 2.0775 -0.968129 0
M  V30 4907 C 448.349 1.6069 0.0593445 0
M  V30 4908 O 449.539 1.73293 -0.177525 0
M  V30 4909 C 446.671 3.37794 -0.459108 0
M  V30 4910 H 447.864 2.30707 -1.9161 0
M  V30 4911 H 445.417 1.17807 -1.02719 0
M  V30 4912 H 446.152 3.20516 0.49397 0
M  V30 4913 H 445.937 3.7328 -1.20019 0
M  V30 4914 H 447.427 4.16454 -0.309099 0
M  V30 4915 N 447.864 1.01787 1.20321 0
M  V30 4916 C 449.089 0.727009 1.9424 0
M  V30 4917 C 449.514 -0.706179 1.74341 0
M  V30 4918 O 448.872 -1.48609 1.03852 0
M  V30 4919 C 448.92 1.06958 3.44372 0
M  V30 4920 O 448.024 0.181983 4.11998 0
M  V30 4921 H 447.365 0.269626 0.606793 0
M  V30 4922 H 449.895 1.36158 1.52716 0
M  V30 4923 H 449.905 1.02182 3.94997 0
M  V30 4924 H 448.58 2.11378 3.58179 0
M  V30 4925 H 447.157 0.287378 3.71791 0
M  V30 4926 N 449.342 -1.36122 0.79427 0
M  V30 4927 C 450.619 -1.93398 0.292685 0
M  V30 4928 C 450.999 -1.72567 -1.21589 0
M  V30 4929 O 450.347 -1.08745 -2.00965 0
M  V30 4930 C 450.557 -3.42099 0.690614 0
M  V30 4931 C 451.905 -4.19231 0.673105 0
M  V30 4932 O 452.929 -3.50559 0.631389 0
M  V30 4933 O 451.788 -5.41732 0.720362 0
M  V30 4934 H 448.882 -0.823712 0.0736693 0
M  V30 4935 H 451.428 -1.45273 0.87714 0
M  V30 4936 H 450.2 -3.50938 1.73085 0
M  V30 4937 H 449.823 -3.97519 0.0803036 0
M  V30 4938 N 450.82 -0.546701 -1.47814 0
M  V30 4939 C 452.06 -0.0209604 -2.04389 0
M  V30 4940 C 452.424 1.29993 -1.413 0
M  V30 4941 O 453.625 1.91273 -1.8886 0
M  V30 4942 C 451.896 0.0812844 -3.57308 0
M  V30 4943 S 453.455 0.55467 -4.3528 0
M  V30 4944 H 450.273 -0.0200865 -0.710716 0
M  V30 4945 H 452.875 -0.731055 -1.81317 0
M  V30 4946 H 451.579 -0.884616 -4.00753 0
M  V30 4947 H 451.11 0.815253 -3.8486 0
M  V30 4948 H 453.125 1.81627 -4.61764 0
M  V30 4949 N 452.299 1.55045 -0.282633 0
M  V30 4950 C 453.524 2.04628 0.337977 0
M  V30 4951 C 453.949 1.15937 1.48123 0
M  V30 4952 O 453.307 0.159532 1.80597 0
M  V30 4953 C 453.355 3.51854 0.78936 0
M  V30 4954 O 452.459 3.66236 1.89592 0
M  V30 4955 H 451.8 0.660434 0.0687261 0
M  V30 4956 H 454.33 2.00261 -0.419124 0
M  V30 4957 H 454.34 3.93361 1.08311 0
M  V30 4958 H 453.015 4.15873 -0.0470419 0
M  V30 4959 H 451.592 3.36633 1.60413 0
M  V30 4960 N 453.777 0.010035 1.57597 0
M  V30 4961 C 455.188 -0.531426 1.78977 0
M  V30 4962 C 455.539 -1.73375 0.918454 0
M  V30 4963 O 454.664 -2.16047 0.123635 0
M  V30 4964 C 455.259 -0.97086 3.24592 0
M  V30 4965 C 453.818 -1.45756 3.47033 0
M  V30 4966 C 452.965 -0.413384 2.74201 0
M  V30 4967 H 455.916 0.236166 1.56933 0
M  V30 4968 H 455.937 -1.83633 3.33255 0
M  V30 4969 H 455.449 -0.0955893 3.87982 0
M  V30 4970 H 453.55 -2.35339 2.88871 0
M  V30 4971 H 453.663 -1.4781 4.55729 0
M  V30 4972 H 452.027 -0.877266 2.39115 0
M  V30 4973 H 452.81 0.453092 3.40297 0
M  V30 4974 N 455.255 -1.55392 -0.262866 0
M  V30 4975 C 456.503 -1.76127 -0.991147 0
M  V30 4976 C 456.824 -0.571083 -1.8645 0
M  V30 4977 O 456.094 0.413698 -1.91482 0
M  V30 4978 H 454.674 -0.649528 -0.368948 0
M  V30 4979 H 457.336 -1.9281 -0.284655 0
M  V30 4980 H 456.432 -2.6663 -1.62219 0
M  V30 4981 N 456.733 0.527833 -1.48498 0
M  V30 4982 C 457.643 1.65907 -1.65867 0
M  V30 4983 C 458.659 1.6537 -0.541192 0
M  V30 4984 O 459.835 1.84282 -0.812534 0
M  V30 4985 C 456.9 3.02364 -1.69637 0
M  V30 4986 C 455.961 3.1374 -2.93028 0
M  V30 4987 C 455.194 4.43688 -2.96609 0
M  V30 4988 O 455.417 5.30913 -2.08538 0
M  V30 4989 O 454.351 4.59475 -3.88802 0
M  V30 4990 H 458.177 1.5419 -2.61647 0
M  V30 4991 H 455.762 0.701163 -1.31924 0
M  V30 4992 H 457.644 3.83515 -1.74625 0
M  V30 4993 H 456.319 3.14401 -0.770312 0
M  V30 4994 H 455.226 2.31877 -2.93571 0
M  V30 4995 H 456.559 3.06621 -3.85026 0
M  V30 4996 N 458.211 1.37122 0.776871 0
M  V30 4997 C 459.141 1.35164 1.90402 0
M  V30 4998 C 460.122 0.221069 1.68657 0
M  V30 4999 O 461.307 0.420642 1.8959 0
M  V30 5000 C 458.437 1.15274 3.27611 0
M  V30 5001 C 457.391 2.25289 3.63908 0
M  V30 5002 C 456.717 1.90527 4.99603 0
M  V30 5003 C 458.017 3.67446 3.71188 0
M  V30 5004 H 459.711 2.29482 1.92297 0
M  V30 5005 H 457.257 1.10465 0.923773 0
M  V30 5006 H 459.21 1.12536 4.06096 0
M  V30 5007 H 457.934 0.174102 3.26136 0
M  V30 5008 H 456.593 2.27174 2.87728 0
M  V30 5009 H 456.241 0.91206 4.94662 0
M  V30 5010 H 455.941 2.64193 5.24858 0
M  V30 5011 H 457.465 1.89367 5.80493 0
M  V30 5012 H 458.879 3.67719 4.39836 0
M  V30 5013 H 457.276 4.40123 4.07936 0
M  V30 5014 H 458.346 4.01443 2.71977 0
M  V30 5015 N 459.689 -1.00246 1.21608 0
M  V30 5016 C 460.935 -1.74319 1.03638 0
M  V30 5017 C 461.268 -1.89408 -0.428749 0
M  V30 5018 O 460.543 -1.43026 -1.3181 0
M  V30 5019 C 460.826 -3.15431 1.73711 0
M  V30 5020 C 460.679 -3.08049 3.27759 0
M  V30 5021 C 461.998 -4.14407 1.48173 0
M  V30 5022 H 459.117 -0.632741 0.377899 0
M  V30 5023 H 461.759 -1.16853 1.49818 0
M  V30 5024 H 459.909 -3.64493 1.34452 0
M  V30 5025 H 461.581 -2.66681 3.76403 0
M  V30 5026 H 459.824 -2.45088 3.57931 0
M  V30 5027 H 460.495 -4.07862 3.71958 0
M  V30 5028 H 462.971 -3.74061 1.82258 0
M  V30 5029 H 461.847 -5.11279 1.99713 0
M  V30 5030 H 462.108 -4.40174 0.412273 0
M  V30 5031 N 461.167 -1.02423 -1.1978 0
M  V30 5032 C 462.117 -0.571689 -2.20716 0
M  V30 5033 C 463.101 0.377077 -1.56419 0
M  V30 5034 O 464.293 0.198801 -1.7588 0
M  V30 5035 C 461.422 0.0808555 -3.43205 0
M  V30 5036 C 460.508 -0.890073 -4.14655 0
M  V30 5037 N 460.899 -2.05065 -4.62366 0
M  V30 5038 C 459.197 -0.71252 -4.40272 0
M  V30 5039 C 459.898 -2.66264 -5.17183 0
M  V30 5040 N 458.874 -1.94264 -5.07703 0
M  V30 5041 H 462.676 -1.45636 -2.55279 0
M  V30 5042 H 460.19 -0.890596 -1.35802 0
M  V30 5043 H 462.187 0.422654 -4.14752 0
M  V30 5044 H 460.847 0.961274 -3.10144 0
M  V30 5045 H 461.858 -2.43026 -4.57339 0
M  V30 5046 H 458.535 0.119199 -4.1733 0
M  V30 5047 H 459.925 -3.64526 -5.64421 0
M  V30 5048 N 462.645 1.35699 -0.801477 0
M  V30 5049 C 463.578 2.2768 -0.153922 0
M  V30 5050 C 464.556 1.47832 0.67709 0
M  V30 5051 O 465.74 1.77104 0.645474 0
M  V30 5052 C 462.867 3.2943 0.786986 0
M  V30 5053 C 461.913 4.26485 0.0362447 0
M  V30 5054 S 462.746 5.19573 -1.2963 0
M  V30 5055 C 463.902 6.24866 -0.359705 0
M  V30 5056 H 464.135 2.82254 -0.9338 0
M  V30 5057 H 461.668 1.42421 -0.596283 0
M  V30 5058 H 463.626 3.8855 1.32436 0
M  V30 5059 H 462.287 2.73745 1.54021 0
M  V30 5060 H 461.48 4.98378 0.750668 0
M  V30 5061 H 461.082 3.71508 -0.431017 0
M  V30 5062 H 463.374 6.75957 0.456954 0
M  V30 5063 H 464.317 7.00307 -1.04768 0
M  V30 5064 H 464.725 5.64484 0.0423274 0
M  V30 5065 N 464.123 0.554532 1.47522 0
M  V30 5066 C 465.053 -0.182974 2.32782 0
M  V30 5067 C 466.034 -0.911377 1.43624 0
M  V30 5068 O 467.219 -0.892366 1.72483 0
M  V30 5069 C 464.349 -1.21513 3.25349 0
M  V30 5070 C 463.303 -0.603355 4.23726 0
M  V30 5071 C 462.629 -1.73995 5.05598 0
M  V30 5072 C 463.929 0.441121 5.20434 0
M  V30 5073 H 465.623 0.52882 2.94693 0
M  V30 5074 H 463.169 0.255759 1.41711 0
M  V30 5075 H 465.122 -1.73922 3.83835 0
M  V30 5076 H 463.846 -1.95683 2.61487 0
M  V30 5077 H 462.505 -0.10059 3.66462 0
M  V30 5078 H 462.153 -2.47063 4.38143 0
M  V30 5079 H 461.853 -1.3364 5.72201 0
M  V30 5080 H 463.377 -2.26735 5.66942 0
M  V30 5081 H 464.791 0.00319931 5.733 0
M  V30 5082 H 463.188 0.763402 5.95224 0
M  V30 5083 H 464.258 1.33799 4.66075 0
M  V30 5084 N 465.601 -1.54893 0.290851 0
M  V30 5085 C 466.549 -2.24579 -0.605576 0
M  V30 5086 C 467.543 -1.24824 -1.14522 0
M  V30 5087 O 468.749 -1.42706 -1.09704 0
M  V30 5088 H 465.124 -0.720946 -0.213872 0
M  V30 5089 H 467.095 -2.984 0.0048173 0
M  V30 5090 C 465.844 -2.99224 -1.77088 0
M  V30 5091 H 465.167 -3.75782 -1.36484 0
M  V30 5092 H 466.607 -3.51281 -2.3744 0
M  V30 5093 C 465.066 -2.05602 -2.66888 0
M  V30 5094 O 465.596 -1.61745 -3.67698 0
M  V30 5095 N 463.802 -1.71771 -2.34399 0
M  V30 5096 H 463.349 -2.07633 -1.52468 0
M  V30 5097 H 463.307 -1.09403 -2.94751 0
M  V30 5098 N 467.08 -0.0183926 -1.57589 0
M  V30 5099 C 467.99 0.982943 -2.13015 0
M  V30 5100 C 469.006 1.36443 -1.07979 0
M  V30 5101 O 470.182 1.44802 -1.3998 0
M  V30 5102 C 467.247 2.25024 -2.63752 0
M  V30 5103 C 466.308 1.93018 -3.83461 0
M  V30 5104 C 465.541 3.13706 -4.31769 0
M  V30 5105 O 465.764 4.2601 -3.79305 0
M  V30 5106 O 464.698 2.96629 -5.23732 0
M  V30 5107 H 468.524 0.541709 -2.9883 0
M  V30 5108 H 466.109 0.201565 -1.48034 0
M  V30 5109 H 467.991 2.99441 -2.96502 0
M  V30 5110 H 466.666 2.68349 -1.81026 0
M  V30 5111 H 465.573 1.16019 -3.55655 0
M  V30 5112 H 466.906 1.54516 -4.67317 0
M  V30 5113 N 468.558 1.5553 0.254621 0
M  V30 5114 C 469.488 1.9268 1.31897 0
M  V30 5115 C 470.469 0.790797 1.506 0
M  V30 5116 O 471.654 1.05045 1.63337 0
M  V30 5117 C 468.784 2.21477 2.67517 0
M  V30 5118 C 467.738 3.37256 2.63519 0
M  V30 5119 C 467.064 3.51576 4.02862 0
M  V30 5120 C 468.364 4.73157 2.21179 0
M  V30 5121 H 470.058 2.81832 1.01051 0
M  V30 5122 H 467.604 1.35599 0.484662 0
M  V30 5123 H 469.557 2.46055 3.42104 0
M  V30 5124 H 468.281 1.29144 2.99982 0
M  V30 5125 H 466.94 3.12675 1.9139 0
M  V30 5126 H 466.588 2.56676 4.32581 0
M  V30 5127 H 466.288 4.2943 4.01078 0
M  V30 5128 H 467.812 3.78467 4.79161 0
M  V30 5129 H 469.226 4.97158 2.85494 0
M  V30 5130 H 467.623 5.54058 2.30521 0
M  V30 5131 H 468.693 4.70739 1.16332 0
M  V30 5132 N 470.036 -0.519951 1.48776 0
M  V30 5133 C 471.283 -1.27522 1.57303 0
M  V30 5134 C 471.611 -1.92869 0.251328 0
M  V30 5135 O 470.866 -1.80372 -0.759243 0
M  V30 5136 C 471.165 -2.37864 2.6675 0
M  V30 5137 C 470.831 -1.90103 4.08867 0
M  V30 5138 C 469.493 -1.76795 4.47546 0
M  V30 5139 C 471.845 -1.54133 4.97888 0
M  V30 5140 C 469.173 -1.25868 5.73039 0
M  V30 5141 C 471.525 -1.04665 6.23881 0
M  V30 5142 C 470.189 -0.899823 6.61407 0
M  V30 5143 H 469.459 -0.466636 0.575614 0
M  V30 5144 H 472.106 -0.579109 1.82534 0
M  V30 5145 H 470.411 -3.13186 2.35418 0
M  V30 5146 H 472.108 -2.95969 2.70561 0
M  V30 5147 H 468.698 -2.01414 3.78326 0
M  V30 5148 H 472.882 -1.6327 4.68675 0
M  V30 5149 H 468.138 -1.13196 6.0083 0
M  V30 5150 H 472.312 -0.759074 6.92251 0
M  V30 5151 H 469.939 -0.503011 7.58534 0
M  V30 5152 N 471.514 -1.37532 -0.769588 0
M  V30 5153 C 472.762 -1.32597 -1.5252 0
M  V30 5154 C 473.083 0.0884294 -1.94799 0
M  V30 5155 O 472.353 1.03289 -1.66458 0
M  V30 5156 H 470.933 -0.487846 -0.565699 0
M  V30 5157 H 473.595 -1.72044 -0.915806 0
M  V30 5158 H 472.691 -1.96643 -2.42359 0
M  V30 5159 N 472.992 0.995999 -1.22138 0
M  V30 5160 C 473.939 2.08551 -0.988687 0
M  V30 5161 C 474.909 1.65864 0.0885021 0
M  V30 5162 O 476.094 1.90704 -0.0604589 0
M  V30 5163 C 473.234 3.40374 -0.569191 0
M  V30 5164 C 472.347 3.96421 -1.71681 0
M  V30 5165 C 471.482 5.1639 -1.2456 0
M  V30 5166 C 470.521 5.64567 -2.36497 0
M  V30 5167 N 469.658 6.75777 -1.90445 0
M  V30 5168 H 474.498 2.2779 -1.92135 0
M  V30 5169 H 472.035 1.1168 -0.957388 0
M  V30 5170 H 473.993 4.16068 -0.307166 0
M  V30 5171 H 472.623 3.21145 0.326462 0
M  V30 5172 H 471.675 3.17628 -2.09324 0
M  V30 5173 H 472.987 4.2816 -2.55891 0
M  V30 5174 H 472.141 5.99362 -0.940774 0
M  V30 5175 H 470.88 4.86266 -0.373662 0
M  V30 5176 H 469.885 4.80185 -2.67772 0
M  V30 5177 H 471.11 5.96716 -3.24202 0
M  V30 5178 H 469.056 6.47443 -1.05609 0
M  V30 5179 H 468.973 7.06818 -2.68223 0
M  V30 5180 H 470.241 7.62262 -1.63022 0
M  V30 5181 N 474.47 1.03057 1.19235 0
M  V30 5182 C 475.717 0.728019 1.88961 0
M  V30 5183 C 476.045 -0.743515 1.79728 0
M  V30 5184 O 475.3 -1.55729 1.1852 0
M  V30 5185 C 475.599 1.1268 3.39172 0
M  V30 5186 C 475.265 2.5969 3.68608 0
M  V30 5187 C 473.927 2.99854 3.76352 0
M  V30 5188 C 476.279 3.54793 3.81801 0
M  V30 5189 C 473.607 4.34031 3.94758 0
M  V30 5190 C 475.959 4.88675 4.0172 0
M  V30 5191 C 474.623 5.28526 4.07697 0
M  V30 5192 H 473.893 0.266401 0.691456 0
M  V30 5193 H 476.54 1.29373 1.41191 0
M  V30 5194 H 474.845 0.479722 3.88852 0
M  V30 5195 H 476.542 0.870203 3.91444 0
M  V30 5196 H 473.132 2.27575 3.63191 0
M  V30 5197 H 477.316 3.24914 3.7516 0
M  V30 5198 H 472.572 4.6444 3.97625 0
M  V30 5199 H 476.746 5.6228 4.1087 0
M  V30 5200 H 474.373 6.32506 4.21712 0
M  V30 5201 N 475.948 -1.35272 0.808662 0
M  V30 5202 C 477.225 -1.93077 0.313181 0
M  V30 5203 C 477.605 -1.73847 -1.19752 0
M  V30 5204 O 476.953 -1.1087 -1.998 0
M  V30 5205 C 477.163 -3.41347 0.726859 0
M  V30 5206 C 478.511 -4.18493 0.717532 0
M  V30 5207 O 479.535 -3.4987 0.668535 0
M  V30 5208 O 478.394 -5.40937 0.777779 0
M  V30 5209 H 475.488 -0.822885 0.0824018 0
M  V30 5210 H 478.034 -1.44335 0.892499 0
M  V30 5211 H 476.806 -3.49082 1.76797 0
M  V30 5212 H 476.429 -3.97411 0.122461 0
M  V30 5213 N 477.426 -0.562348 -1.47226 0
M  V30 5214 C 478.358 0.220011 -2.28142 0
M  V30 5215 C 479.371 0.874596 -1.37312 0
M  V30 5216 O 480.56 0.747583 -1.62091 0
M  V30 5217 C 477.66 1.32953 -3.11732 0
M  V30 5218 C 476.833 0.770759 -4.30556 0
M  V30 5219 C 475.892 1.76541 -4.95701 0
M  V30 5220 O 474.918 1.3095 -5.53932 0
M  V30 5221 N 476.12 3.09896 -4.90861 0
M  V30 5222 H 478.885 -0.474107 -2.95926 0
M  V30 5223 H 476.446 -0.398761 -1.56912 0
M  V30 5224 H 478.438 1.99378 -3.5218 0
M  V30 5225 H 477.008 1.92681 -2.46156 0
M  V30 5226 H 476.228 -0.0704056 -3.94137 0
M  V30 5227 H 477.516 0.376872 -5.07402 0
M  V30 5228 H 476.914 3.49577 -4.44761 0
M  V30 5229 H 475.471 3.71865 -5.35313 0
M  V30 5230 N 478.904 1.54736 -0.299062 0
M  V30 5231 C 480.153 1.99279 0.311549 0
M  V30 5232 C 480.466 1.19107 1.55154 0
M  V30 5233 O 481.672 1.53908 2.23662 0
M  V30 5234 C 480.128 3.54768 0.605632 0
M  V30 5235 C 479.736 4.43746 -0.615914 0
M  V30 5236 C 481.48 4.07841 1.17754 0
M  V30 5237 C 479.387 5.90663 -0.29509 0
M  V30 5238 H 478.317 0.744359 0.120187 0
M  V30 5239 H 480.968 1.78919 -0.407464 0
M  V30 5240 H 479.35 3.71021 1.38419 0
M  V30 5241 H 480.524 4.39267 -1.39218 0
M  V30 5242 H 478.839 4.01434 -1.10633 0
M  V30 5243 H 481.436 5.15174 1.43179 0
M  V30 5244 H 481.779 3.58324 2.11918 0
M  V30 5245 H 482.312 3.95123 0.460739 0
M  V30 5246 H 479.051 6.44325 -1.20524 0
M  V30 5247 H 478.571 5.98155 0.44394 0
M  V30 5248 H 480.25 6.46916 0.104048 0
M  V30 5249 N 480.382 0.0267497 1.57577 0
M  V30 5250 C 481.345 -0.940916 2.08996 0
M  V30 5251 C 482.345 -1.25561 1.00455 0
M  V30 5252 O 483.535 -1.19634 1.26623 0
M  V30 5253 C 480.667 -2.25814 2.55384 0
M  V30 5254 H 481.86 -0.495628 2.95776 0
M  V30 5255 H 479.413 -0.221241 1.54726 0
M  V30 5256 H 480.148 -2.74976 1.71926 0
M  V30 5257 H 479.933 -2.04285 3.34679 0
M  V30 5258 H 481.423 -2.95178 2.95398 0
M  V30 5259 N 481.861 -1.55662 -0.24637 0
M  V30 5260 C 482.808 -1.90361 -1.30504 0
M  V30 5261 C 483.778 -0.757905 -1.47801 0
M  V30 5262 O 484.963 -1.01161 -1.61775 0
M  V30 5263 C 482.103 -2.2042 -2.65535 0
M  V30 5264 C 481.216 -3.47799 -2.56242 0
M  V30 5265 C 480.351 -3.67426 -3.8363 0
M  V30 5266 C 479.39 -4.88403 -3.68956 0
M  V30 5267 N 478.527 -5.04548 -4.88237 0
M  V30 5268 H 483.367 -2.80645 -1.00213 0
M  V30 5269 H 480.904 -1.38924 -0.483577 0
M  V30 5270 H 482.862 -2.35853 -3.44135 0
M  V30 5271 H 481.492 -1.3334 -2.93973 0
M  V30 5272 H 480.544 -3.40694 -1.69208 0
M  V30 5273 H 481.856 -4.36544 -2.4131 0
M  V30 5274 H 481.01 -3.82821 -4.70673 0
M  V30 5275 H 479.749 -2.76914 -4.01459 0
M  V30 5276 H 478.754 -4.72984 -2.80296 0
M  V30 5277 H 479.979 -5.80375 -3.52621 0
M  V30 5278 H 477.925 -4.16974 -5.06427 0
M  V30 5279 H 477.842 -5.87384 -4.75937 0
M  V30 5280 H 479.11 -5.24355 -5.76777 0
M  V30 5281 N 483.339 0.512053 -1.4905 0
M  V30 5282 C 484.249 1.64139 -1.67617 0
M  V30 5283 C 485.265 1.64786 -0.558701 0
M  V30 5284 O 486.441 1.8341 -0.832034 0
M  V30 5285 C 483.506 3.00548 -1.72835 0
M  V30 5286 C 482.567 3.10615 -2.96339 0
M  V30 5287 C 481.8 4.40517 -3.01298 0
M  V30 5288 O 482.023 5.28671 -2.14157 0
M  V30 5289 O 480.957 4.55325 -3.93653 0
M  V30 5290 H 484.783 1.51407 -2.63267 0
M  V30 5291 H 482.368 0.687131 -1.32661 0
M  V30 5292 H 484.25 3.81641 -1.78683 0
M  V30 5293 H 482.925 3.13566 -0.803616 0
M  V30 5294 H 481.832 2.2875 -2.96014 0
M  V30 5295 H 483.165 3.0252 -3.88256 0
M  V30 5296 N 484.817 1.37938 0.762283 0
M  V30 5297 C 485.765 1.34569 1.89721 0
M  V30 5298 C 486.759 0.232929 1.67791 0
M  V30 5299 O 487.965 0.401485 1.75465 0
M  V30 5300 H 484.34 0.419594 0.624055 0
M  V30 5301 H 486.311 2.30357 1.8968 0
M  V30 5302 C 485.06 1.17898 3.27101 0
M  V30 5303 H 484.383 2.02781 3.44558 0
M  V30 5304 H 485.823 1.19593 4.06784 0
M  V30 5305 C 484.282 -0.114728 3.36705 0
M  V30 5306 O 484.812 -1.0949 3.8649 0
M  V30 5307 N 483.018 -0.16863 2.9011 0
M  V30 5308 H 482.565 0.62967 2.49786 0
M  V30 5309 H 482.523 -1.03383 2.96916 0
M  V30 5310 N 486.295 -0.989507 1.22664 0
M  V30 5311 C 487.205 -2.11449 1.01619 0
M  V30 5312 C 488.221 -1.73962 -0.036545 0
M  V30 5313 O 489.397 -2.00788 0.156924 0
M  V30 5314 C 486.462 -3.41465 0.600204 0
M  V30 5315 C 485.523 -3.93033 1.72695 0
M  V30 5316 C 484.756 -5.16844 1.33071 0
M  V30 5317 O 484.979 -5.7001 0.210975 0
M  V30 5318 O 483.913 -5.6225 2.14845 0
M  V30 5319 H 487.739 -2.32088 1.9588 0
M  V30 5320 H 485.324 -1.09823 1.01289 0
M  V30 5321 H 487.206 -4.19695 0.37873 0
M  V30 5322 H 485.881 -3.22178 -0.313511 0
M  V30 5323 H 484.788 -3.15961 2.00298 0
M  V30 5324 H 486.121 -4.16758 2.61865 0
M  V30 5325 N 487.773 -1.03688 -1.18687 0
M  V30 5326 C 489.013 -0.746858 -1.90267 0
M  V30 5327 C 489.377 0.712075 -1.78307 0
M  V30 5328 O 490.578 1.11553 -2.44559 0
M  V30 5329 C 488.849 -1.19543 -3.36815 0
M  V30 5330 S 490.408 -1.03047 -4.26529 0
M  V30 5331 H 487.226 -0.271663 -0.657054 0
M  V30 5332 H 489.828 -1.32838 -1.43437 0
M  V30 5333 H 488.532 -2.2527 -3.43047 0
M  V30 5334 H 488.063 -0.607533 -3.88681 0
M  V30 5335 H 490.078 0.0543232 -4.9617 0
M  V30 5336 N 489.251 1.34841 -0.815825 0
M  V30 5337 C 490.184 2.27504 -0.178062 0
M  V30 5338 C 491.162 1.48542 0.661373 0
M  V30 5339 O 492.346 1.77779 0.626653 0
M  V30 5340 C 489.473 3.30246 0.752002 0
M  V30 5341 C 488.519 4.26499 -0.00899172 0
M  V30 5342 S 489.352 5.18169 -1.35134 0
M  V30 5343 C 490.508 6.24449 -0.42596 0
M  V30 5344 H 490.741 2.81248 -0.963684 0
M  V30 5345 H 488.274 1.41781 -0.611355 0
M  V30 5346 H 490.232 3.89933 1.28308 0
M  V30 5347 H 488.893 2.75363 1.51109 0
M  V30 5348 H 488.086 4.99146 0.697766 0
M  V30 5349 H 487.688 3.7103 -0.470396 0
M  V30 5350 H 489.98 6.76404 0.385234 0
M  V30 5351 H 490.923 6.99156 -1.1219 0
M  V30 5352 H 491.331 5.64497 -0.0175461 0
M  V30 5353 N 490.729 0.570148 1.46925 0
M  V30 5354 C 492.145 0.23087 1.57921 0
M  V30 5355 C 492.345 -1.26676 1.56702 0
M  V30 5356 O 491.401 -2.04774 1.47729 0
M  V30 5357 C 492.714 0.868973 2.8787 0
M  V30 5358 C 494.262 0.841397 3.01479 0
M  V30 5359 C 494.737 1.45881 4.34146 0
M  V30 5360 N 496.228 1.42258 4.40814 0
M  V30 5361 C 496.963 1.8698 5.42057 0
M  V30 5362 N 496.459 2.39618 6.50042 0
M  V30 5363 N 498.252 1.77972 5.33181 0
M  V30 5364 H 490.403 1.54301 1.45962 0
M  V30 5365 H 492.666 0.644224 0.69547 0
M  V30 5366 H 492.372 1.922 2.94537 0
M  V30 5367 H 492.246 0.369682 3.75384 0
M  V30 5368 H 494.633 -0.202973 2.94401 0
M  V30 5369 H 494.714 1.37858 2.15474 0
M  V30 5370 H 494.358 2.50231 4.4198 0
M  V30 5371 H 494.288 0.896958 5.18905 0
M  V30 5372 H 496.779 1.03768 3.63374 0
M  V30 5373 H 497.092 2.71633 7.23488 0
M  V30 5374 H 495.437 2.43636 6.50897 0
M  V30 5375 H 498.628 1.36617 4.4772 0
M  V30 5376 H 498.801 2.13143 6.11943 0
M  V30 5377 N 492.207 -1.54576 0.307264 0
M  V30 5378 C 493.456 -1.99442 -0.300976 0
M  V30 5379 C 493.769 -1.19928 -1.5452 0
M  V30 5380 O 494.975 -1.55092 -2.22842 0
M  V30 5381 C 493.431 -3.55084 -0.586809 0
M  V30 5382 C 493.039 -4.43413 0.639438 0
M  V30 5383 C 494.783 -4.0846 -1.1559 0
M  V30 5384 C 492.69 -5.90499 0.326411 0
M  V30 5385 H 491.62 -0.744986 -0.116238 0
M  V30 5386 H 494.271 -1.787 0.416947 0
M  V30 5387 H 492.653 -3.71749 -1.36449 0
M  V30 5388 H 493.827 -4.38522 1.41545 0
M  V30 5389 H 492.142 -4.00842 1.1276 0
M  V30 5390 H 494.739 -5.15926 -1.40445 0
M  V30 5391 H 495.082 -3.59443 -2.10015 0
M  V30 5392 H 495.615 -3.95362 -0.439778 0
M  V30 5393 H 492.354 -6.43676 1.23939 0
M  V30 5394 H 491.874 -5.98382 -0.412212 0
M  V30 5395 H 493.553 -6.46962 -0.0697393 0
M  V30 5396 N 493.685 -0.035106 -1.57561 0
M  V30 5397 C 494.632 0.94474 -2.10578 0
M  V30 5398 C 495.602 1.3192 -1.00927 0
M  V30 5399 O 496.787 1.41147 -1.28382 0
M  V30 5400 C 493.927 2.21982 -2.64231 0
M  V30 5401 C 493.04 1.90128 -3.87911 0
M  V30 5402 C 492.175 3.11975 -4.29936 0
M  V30 5403 C 491.214 2.75968 -5.46359 0
M  V30 5404 N 490.351 3.90459 -5.83512 0
M  V30 5405 H 495.191 0.485717 -2.94015 0
M  V30 5406 H 492.728 0.228143 -1.4532 0
M  V30 5407 H 494.686 2.96572 -2.9343 0
M  V30 5408 H 493.316 2.6549 -1.83616 0
M  V30 5409 H 492.368 1.05755 -3.65404 0
M  V30 5410 H 493.68 1.59613 -4.72573 0
M  V30 5411 H 492.834 3.9488 -4.60603 0
M  V30 5412 H 491.573 3.45657 -3.44053 0
M  V30 5413 H 490.578 1.91478 -5.1538 0
M  V30 5414 H 491.803 2.43497 -6.33945 0
M  V30 5415 H 489.749 4.23971 -5.00584 0
M  V30 5416 H 489.666 3.63588 -6.62827 0
M  V30 5417 H 490.934 4.7405 -6.18787 0
M  V30 5418 N 495.163 1.55791 0.238111 0
M  V30 5419 C 496.412 1.77234 0.962868 0
M  V30 5420 C 496.725 0.600661 1.86149 0
M  V30 5421 O 497.931 0.698315 2.62366 0
M  V30 5422 C 496.387 3.13808 1.76218 0
M  V30 5423 C 495.995 4.3865 0.910518 0
M  V30 5424 C 497.739 3.44585 2.47914 0
M  V30 5425 C 495.646 5.66252 1.70623 0
M  V30 5426 H 494.576 0.660731 0.36325 0
M  V30 5427 H 497.227 1.8221 0.217242 0
M  V30 5428 H 495.609 3.02963 2.55009 0
M  V30 5429 H 496.783 4.60507 0.164316 0
M  V30 5430 H 495.098 4.15271 0.30647 0
M  V30 5431 H 497.695 4.3714 3.07917 0
M  V30 5432 H 498.038 2.66314 3.19973 0
M  V30 5433 H 498.571 3.56685 1.76127 0
M  V30 5434 H 495.31 6.47369 1.02923 0
M  V30 5435 H 494.83 5.48483 2.42748 0
M  V30 5436 H 496.509 6.05829 2.27114 0
M  V30 5437 N 496.642 -0.504142 1.49319 0
M  V30 5438 C 497.572 -1.61473 1.68667 0
M  V30 5439 C 498.553 -1.61455 0.535378 0
M  V30 5440 O 499.738 -1.78245 0.770868 0
M  V30 5441 C 496.868 -2.99971 1.75028 0
M  V30 5442 C 495.822 -3.14854 2.89916 0
M  V30 5443 C 495.148 -4.54671 2.81387 0
M  V30 5444 C 496.448 -2.95176 4.30893 0
M  V30 5445 H 498.142 -1.45535 2.61648 0
M  V30 5446 H 495.688 -0.698711 1.25913 0
M  V30 5447 H 497.641 -3.77562 1.8715 0
M  V30 5448 H 496.365 -3.1699 0.786441 0
M  V30 5449 H 495.024 -2.39687 2.77391 0
M  V30 5450 H 494.672 -4.68562 1.82917 0
M  V30 5451 H 494.372 -4.6557 3.58494 0
M  V30 5452 H 495.896 -5.34327 2.95512 0
M  V30 5453 H 497.31 -3.62538 4.44116 0
M  V30 5454 H 495.707 -3.17549 5.09198 0
M  V30 5455 H 496.777 -1.91332 4.45556 0
M  V30 5456 N 498.12 -1.38341 -0.754957 0
M  V30 5457 C 499.368 -1.34208 -1.51105 0
M  V30 5458 C 499.689 0.0677634 -1.94882 0
M  V30 5459 O 498.959 1.01517 -1.67544 0
M  V30 5460 H 497.539 -0.493819 -0.560493 0
M  V30 5461 H 500.201 -1.73005 -0.897507 0
M  V30 5462 H 499.297 -1.99203 -2.4026 0
M  V30 5463 N 499.598 0.982988 -1.23187 0
M  V30 5464 C 500.875 1.69814 -0.970707 0
M  V30 5465 C 501.255 2.04811 0.511424 0
M  V30 5466 O 500.603 1.73924 1.48198 0
M  V30 5467 C 500.813 2.94143 -1.87831 0
M  V30 5468 C 502.161 3.66712 -2.14026 0
M  V30 5469 O 503.185 3.04171 -1.8536 0
M  V30 5470 O 502.044 4.79258 -2.62629 0
M  V30 5471 H 499.138 0.741659 -0.365884 0
M  V30 5472 H 501.684 1.03844 -1.34218 0
M  V30 5473 H 500.456 2.64858 -2.88038 0
M  V30 5474 H 500.079 3.6785 -1.50905 0
M  V30 5475 N 501.076 1.04316 1.18135 0
M  V30 5476 C 502.316 0.756937 1.89868 0
M  V30 5477 C 502.68 -0.702609 1.78682 0
M  V30 5478 O 503.881 -1.10255 2.45148 0
M  V30 5479 C 502.152 1.21327 3.36176 0
M  V30 5480 S 503.711 1.05307 4.25976 0
M  V30 5481 H 500.529 0.275143 0.655604 0
M  V30 5482 H 503.131 1.33597 1.42731 0
M  V30 5483 H 501.835 2.27086 3.41848 0
M  V30 5484 H 501.366 0.628137 3.88353 0
M  V30 5485 H 503.381 -0.0280093 4.96192 0
M  V30 5486 N 502.554 -1.34406 0.822964 0
M  V30 5487 C 503.784 -2.02214 0.423424 0
M  V30 5488 C 504.192 -1.62124 -0.975322 0
M  V30 5489 O 503.535 -0.822452 -1.6426 0
M  V30 5490 C 503.597 -3.56721 0.446107 0
M  V30 5491 C 503.261 -4.20136 1.79819 0
M  V30 5492 C 504.258 -4.4065 2.75904 0
M  V30 5493 C 501.943 -4.56906 2.08669 0
M  V30 5494 C 503.937 -4.9706 3.99012 0
M  V30 5495 C 501.624 -5.13026 3.32036 0
M  V30 5496 C 502.622 -5.33047 4.27024 0
M  V30 5497 O 502.31 -5.87979 5.48211 0
M  V30 5498 H 502.042 -0.654748 0.168169 0
M  V30 5499 H 504.596 -1.72659 1.11257 0
M  V30 5500 H 502.826 -3.85537 -0.299734 0
M  V30 5501 H 504.515 -4.05845 0.0666114 0
M  V30 5502 H 505.281 -4.12607 2.54912 0
M  V30 5503 H 501.16 -4.40626 1.35535 0
M  V30 5504 H 504.704 -5.12603 4.73164 0
M  V30 5505 H 500.601 -5.40498 3.52891 0
M  V30 5506 H 501.369 -6.06413 5.49732 0
M  V30 5507 N 504.032 -0.577932 -1.46621 0
M  V30 5508 C 505.262 -0.0670668 -2.06491 0
M  V30 5509 C 505.67 1.24119 -1.42798 0
M  V30 5510 O 505.013 1.76016 -0.525759 0
M  V30 5511 C 505.075 0.177995 -3.59059 0
M  V30 5512 C 504.739 -1.04394 -4.44917 0
M  V30 5513 C 505.736 -1.95479 -4.81751 0
M  V30 5514 C 503.421 -1.26444 -4.86125 0
M  V30 5515 C 505.415 -3.06965 -5.58615 0
M  V30 5516 C 503.102 -2.38237 -5.62749 0
M  V30 5517 C 504.1 -3.28327 -5.98908 0
M  V30 5518 O 503.788 -4.38179 -6.73984 0
M  V30 5519 H 503.52 -0.0523159 -0.673973 0
M  V30 5520 H 506.074 -0.796966 -1.89308 0
M  V30 5521 H 504.304 0.962451 -3.74531 0
M  V30 5522 H 505.993 0.636782 -4.00874 0
M  V30 5523 H 506.759 -1.79657 -4.50498 0
M  V30 5524 H 502.638 -0.572316 -4.57434 0
M  V30 5525 H 506.182 -3.77309 -5.86757 0
M  V30 5526 H 502.079 -2.54023 -5.93416 0
M  V30 5527 H 502.847 -4.36486 -6.92403 0
M  V30 5528 N 505.51 1.54411 -0.315457 0
M  V30 5529 C 506.75 2.02329 0.290236 0
M  V30 5530 C 507.114 1.19878 1.49977 0
M  V30 5531 O 508.315 1.57562 2.17779 0
M  V30 5532 C 506.586 3.51912 0.623937 0
M  V30 5533 S 508.145 4.21775 1.21044 0
M  V30 5534 H 504.963 0.705499 0.0882739 0
M  V30 5535 H 507.565 1.90328 -0.446694 0
M  V30 5536 H 506.269 4.09546 -0.264624 0
M  V30 5537 H 505.8 3.67977 1.39128 0
M  V30 5538 H 507.815 4.28757 2.49764 0
M  V30 5539 N 506.988 0.0434614 1.5754 0
M  V30 5540 C 508.234 -0.632971 1.92669 0
M  V30 5541 C 508.567 -1.70947 0.921446 0
M  V30 5542 O 507.842 -1.94426 -0.0537202 0
M  V30 5543 C 508.125 -1.23619 3.38216 0
M  V30 5544 C 507.978 -0.168274 4.49485 0
M  V30 5545 C 509.297 -2.15008 3.84005 0
M  V30 5546 H 506.416 -0.228629 0.700641 0
M  V30 5547 H 509.058 0.103651 1.89717 0
M  V30 5548 H 507.208 -1.864 3.40863 0
M  V30 5549 H 508.88 0.463196 4.58969 0
M  V30 5550 H 507.123 0.504581 4.30855 0
M  V30 5551 H 507.794 -0.630218 5.48391 0
M  V30 5552 H 510.27 -1.62198 3.83185 0
M  V30 5553 H 509.146 -2.54161 4.86511 0
M  V30 5554 H 509.407 -3.04707 3.20322 0
M  V30 5555 N 508.466 -1.55915 -0.229846 0
M  V30 5556 C 509.691 -1.8296 -0.976743 0
M  V30 5557 C 510.116 -0.622735 -1.77493 0
M  V30 5558 O 509.474 0.428431 -1.76165 0
M  V30 5559 C 509.522 -3.07916 -1.8767 0
M  V30 5560 O 508.626 -2.86028 -2.97088 0
M  V30 5561 H 507.967 -0.603453 -0.277021 0
M  V30 5562 H 510.497 -2.0312 -0.245669 0
M  V30 5563 H 510.507 -3.37802 -2.2881 0
M  V30 5564 H 509.182 -3.95389 -1.28996 0
M  V30 5565 H 507.759 -2.67355 -2.59954 0
M  V30 5566 N 509.944 0.496216 -1.49584 0
M  V30 5567 C 511.192 1.24756 -1.58998 0
M  V30 5568 C 511.513 1.92968 -0.280775 0
M  V30 5569 O 510.783 1.82959 0.700198 0
M  V30 5570 H 509.363 0.463471 -0.585836 0
M  V30 5571 H 512.025 0.574678 -1.86235 0
M  V30 5572 H 511.121 2.00895 -2.38847 0
M  V30 5573 N 511.423 1.38739 0.74761 0
M  V30 5574 C 512.353 1.39173 1.87492 0
M  V30 5575 C 513.334 0.256794 1.6815 0
M  V30 5576 O 514.519 0.460762 1.88655 0
M  V30 5577 C 511.649 1.22197 3.25093 0
M  V30 5578 C 510.603 2.32957 3.59047 0
M  V30 5579 C 509.929 2.01082 4.95449 0
M  V30 5580 C 511.229 3.75237 3.6331 0
M  V30 5581 H 512.923 2.3351 1.87386 0
M  V30 5582 H 510.469 1.12399 0.900134 0
M  V30 5583 H 512.422 1.21124 4.03617 0
M  V30 5584 H 511.146 0.243241 3.25693 0
M  V30 5585 H 509.805 2.33226 2.82845 0
M  V30 5586 H 509.453 1.01678 4.92616 0
M  V30 5587 H 509.153 2.75267 5.19136 0
M  V30 5588 H 510.677 2.01638 5.76346 0
M  V30 5589 H 512.091 3.76966 4.31937 0
M  V30 5590 H 510.488 4.48677 3.98509 0
M  V30 5591 H 511.558 4.07122 2.634 0
M  V30 5592 N 512.901 -0.976442 1.23707 0
M  V30 5593 C 514.312 -1.53284 1.06587 0
M  V30 5594 C 514.663 -1.92765 -0.365526 0
M  V30 5595 O 513.788 -1.7645 -1.25277 0
M  V30 5596 C 514.383 -2.78548 1.92864 0
M  V30 5597 C 512.942 -3.30574 1.79994 0
M  V30 5598 C 512.089 -2.03538 1.88328 0
M  V30 5599 H 515.04 -0.795692 1.37311 0
M  V30 5600 H 515.061 -3.5155 1.45577 0
M  V30 5601 H 514.573 -2.49782 2.97037 0
M  V30 5602 H 512.674 -3.64211 0.786202 0
M  V30 5603 H 512.787 -4.00065 2.636 0
M  V30 5604 H 511.151 -2.17853 1.31954 0
M  V30 5605 H 511.934 -1.77149 2.94063 0
M  V30 5606 N 514.379 -1.04941 -1.1758 0
M  V30 5607 C 515.628 -0.753124 -1.87112 0
M  V30 5608 C 515.941 0.722507 -1.81767 0
M  V30 5609 O 517.147 1.13265 -2.46746 0
M  V30 5610 C 515.603 -1.29695 -3.35719 0
M  V30 5611 C 515.211 -2.80184 -3.49572 0
M  V30 5612 C 516.955 -1.07759 -4.10595 0
M  V30 5613 C 514.862 -3.2788 -4.92187 0
M  V30 5614 H 513.792 -0.278034 -0.700866 0
M  V30 5615 H 516.443 -1.26637 -1.32798 0
M  V30 5616 H 514.825 -0.711522 -3.89555 0
M  V30 5617 H 515.999 -3.44561 -3.05965 0
M  V30 5618 H 514.314 -3.00632 -2.88113 0
M  V30 5619 H 516.911 -1.40899 -5.15802 0
M  V30 5620 H 517.254 -0.0152302 -4.16297 0
M  V30 5621 H 517.787 -1.62809 -3.62957 0
M  V30 5622 H 514.526 -4.33535 -4.91658 0
M  V30 5623 H 514.046 -2.68245 -5.36475 0
M  V30 5624 H 515.725 -3.22412 -5.60945 0
M  V30 5625 N 515.857 1.33968 -0.830081 0
M  V30 5626 C 517.082 2.02813 -0.433796 0
M  V30 5627 C 517.507 1.62076 0.954614 0
M  V30 5628 O 516.865 0.808955 1.62252 0
M  V30 5629 C 516.913 3.56348 -0.552115 0
M  V30 5630 O 516.017 4.10202 0.425191 0
M  V30 5631 H 515.358 0.639817 -0.177567 0
M  V30 5632 H 517.888 1.7106 -1.12248 0
M  V30 5633 H 517.898 4.05722 -0.430513 0
M  V30 5634 H 516.573 3.85344 -1.56471 0
M  V30 5635 H 515.15 3.71979 0.261878 0
M  V30 5636 N 517.335 0.585699 1.46312 0
M  V30 5637 C 518.265 -0.133556 2.33118 0
M  V30 5638 C 519.246 -0.880707 1.45525 0
M  V30 5639 O 520.431 -0.855579 1.74337 0
M  V30 5640 C 517.561 -1.14585 3.27853 0
M  V30 5641 C 516.515 -0.513341 4.2491 0
M  V30 5642 C 515.841 -1.63231 5.09175 0
M  V30 5643 C 517.141 0.551413 5.19381 0
M  V30 5644 H 518.835 0.59121 2.93505 0
M  V30 5645 H 516.381 0.285761 1.41136 0
M  V30 5646 H 518.334 -1.65741 3.87438 0
M  V30 5647 H 517.058 -1.90093 2.65579 0
M  V30 5648 H 515.717 -0.0228349 3.66593 0
M  V30 5649 H 515.365 -2.37713 4.43285 0
M  V30 5650 H 515.065 -1.21473 5.74907 0
M  V30 5651 H 516.589 -2.14658 5.71624 0
M  V30 5652 H 518.003 0.124804 5.73164 0
M  V30 5653 H 516.4 0.889486 5.93471 0
M  V30 5654 H 517.47 1.43655 4.63132 0
M  V30 5655 N 518.813 -1.54241 0.323641 0
M  V30 5656 C 520.224 -1.85975 -0.164405 0
M  V30 5657 C 520.575 -1.24529 -1.51615 0
M  V30 5658 O 519.7 -0.551351 -2.09258 0
M  V30 5659 C 520.295 -3.37424 -0.305091 0
M  V30 5660 C 518.854 -3.69107 -0.737358 0
M  V30 5661 C 518.001 -2.76942 0.140884 0
M  V30 5662 H 520.952 -1.49088 0.543922 0
M  V30 5663 H 520.973 -3.63147 -1.13598 0
M  V30 5664 H 520.485 -3.82116 0.678876 0
M  V30 5665 H 518.586 -3.29947 -1.73107 0
M  V30 5666 H 518.699 -4.76035 -0.541053 0
M  V30 5667 H 517.063 -2.51795 -0.383572 0
M  V30 5668 H 517.846 -3.24461 1.12162 0
M  V30 5669 N 520.291 -0.0518155 -1.57515 0
M  V30 5670 C 521.239 0.940195 -2.12751 0
M  V30 5671 C 522.233 1.3218 -1.05948 0
M  V30 5672 O 523.439 1.30138 -1.24355 0
M  V30 5673 H 519.814 0.321066 -0.680015 0
M  V30 5674 H 521.785 0.449217 -2.94999 0
M  V30 5675 C 520.534 2.2055 -2.68799 0
M  V30 5676 H 519.857 1.92066 -3.50643 0
M  V30 5677 H 521.297 2.88119 -3.11068 0
M  V30 5678 C 519.756 2.95061 -1.62605 0
M  V30 5679 O 520.286 3.88025 -1.03921 0
M  V30 5680 N 518.492 2.57804 -1.34111 0
M  V30 5681 H 518.039 1.82281 -1.8202 0
M  V30 5682 H 517.997 3.07964 -0.632872 0
M  V30 5683 N 521.769 1.56035 0.221574 0
M  V30 5684 C 522.719 1.8881 1.27807 0
M  V30 5685 C 523.703 0.751177 1.42289 0
M  V30 5686 O 524.895 1.01359 1.45104 0
M  V30 5687 C 522.024 2.20828 2.6285 0
M  V30 5688 C 521.11 3.40912 2.52269 0
M  V30 5689 N 521.501 4.59531 2.1134 0
M  V30 5690 C 519.799 3.44526 2.83228 0
M  V30 5691 C 520.5 5.41689 2.1201 0
M  V30 5692 N 519.476 4.814 2.52497 0
M  V30 5693 H 523.278 2.78036 0.952529 0
M  V30 5694 H 520.792 1.566 0.430134 0
M  V30 5695 H 522.789 2.42483 3.39127 0
M  V30 5696 H 521.449 1.32914 2.9625 0
M  V30 5697 H 522.46 4.8469 1.82472 0
M  V30 5698 H 519.137 2.66956 3.21 0
M  V30 5699 H 520.527 6.46643 1.82491 0
M  V30 5700 N 523.247 -0.488276 1.49845 0
M  V30 5701 C 524.21 -1.57069 1.66919 0
M  V30 5702 C 525.21 -1.51445 0.540479 0
M  V30 5703 O 526.4 -1.5437 0.807188 0
M  V30 5704 C 523.532 -2.96718 1.67844 0
M  V30 5705 H 524.725 -1.43254 2.63474 0
M  V30 5706 H 522.278 -0.713435 1.39068 0
M  V30 5707 H 523.013 -3.15996 0.7292 0
M  V30 5708 H 522.798 -3.02208 2.49826 0
M  V30 5709 H 524.288 -3.75335 1.83066 0
M  V30 5710 N 524.725 -1.39134 -0.740242 0
M  V30 5711 C 525.672 -1.37434 -1.8542 0
M  V30 5712 C 526.642 -0.234822 -1.64432 0
M  V30 5713 O 527.827 -0.429125 -1.85912 0
M  V30 5714 C 524.967 -1.21844 -3.22875 0
M  V30 5715 C 524.08 -2.45296 -3.55603 0
M  V30 5716 C 523.215 -2.22334 -4.82432 0
M  V30 5717 C 522.254 -3.41488 -5.07988 0
M  V30 5718 N 521.391 -3.17877 -6.26018 0
M  V30 5719 H 526.231 -2.3266 -1.86207 0
M  V30 5720 H 523.768 -1.15578 -0.909946 0
M  V30 5721 H 525.726 -1.10818 -4.02213 0
M  V30 5722 H 524.356 -0.3025 -3.21379 0
M  V30 5723 H 523.408 -2.66945 -2.71006 0
M  V30 5724 H 524.72 -3.34063 -3.7041 0
M  V30 5725 H 523.874 -2.0852 -5.69741 0
M  V30 5726 H 522.613 -1.30954 -4.6979 0
M  V30 5727 H 521.618 -3.55807 -4.19144 0
M  V30 5728 H 522.843 -4.33763 -5.22519 0
M  V30 5729 H 520.789 -2.29156 -6.14673 0
M  V30 5730 H 520.706 -4.00198 -6.41387 0
M  V30 5731 H 521.974 -3.07746 -7.16179 0
M  V30 5732 N 526.204 0.969867 -1.24223 0
M  V30 5733 C 527.152 2.08535 -1.03034 0
M  V30 5734 C 528.146 1.69366 0.0340379 0
M  V30 5735 O 529.352 1.79597 -0.12034 0
M  V30 5736 H 525.727 0.682313 -0.316154 0
M  V30 5737 H 527.698 2.23569 -1.97635 0
M  V30 5738 C 526.447 3.4158 -0.649509 0
M  V30 5739 H 525.77 3.72177 -1.46028 0
M  V30 5740 H 527.21 4.20536 -0.540841 0
M  V30 5741 C 525.669 3.30703 0.643194 0
M  V30 5742 O 526.199 3.64443 1.68951 0
M  V30 5743 N 524.405 2.83841 0.623095 0
M  V30 5744 H 523.952 2.56583 -0.228719 0
M  V30 5745 H 523.91 2.76946 1.48823 0
M  V30 5746 N 527.682 1.05563 1.17022 0
M  V30 5747 C 528.922 0.777033 1.89054 0
M  V30 5748 C 529.286 -0.683617 1.79418 0
M  V30 5749 O 530.487 -1.07648 2.46303 0
M  V30 5750 C 528.758 1.24886 3.34871 0
M  V30 5751 S 530.317 1.0982 4.24835 0
M  V30 5752 H 527.135 0.282082 0.652649 0
M  V30 5753 H 529.737 1.35103 1.41306 0
M  V30 5754 H 528.441 2.30699 3.3942 0
M  V30 5755 H 527.972 0.669292 3.87665 0
M  V30 5756 H 529.987 0.02462 4.96194 0
M  V30 5757 N 529.16 -1.33526 0.837174 0
M  V30 5758 C 530.406 -1.9813 0.432704 0
M  V30 5759 C 530.739 -1.66168 -1.00508 0
M  V30 5760 O 530.014 -0.94069 -1.70239 0
M  V30 5761 C 530.297 -3.54151 0.651834 0
M  V30 5762 C 530.15 -3.95806 2.13676 0
M  V30 5763 C 531.469 -4.39993 0.0968937 0
M  V30 5764 H 528.588 -0.719713 0.15869 0
M  V30 5765 H 531.23 -1.58193 1.05237 0
M  V30 5766 H 529.38 -3.88301 0.124369 0
M  V30 5767 H 531.052 -3.71921 2.72896 0
M  V30 5768 H 529.295 -3.45599 2.62191 0
M  V30 5769 H 529.966 -5.0447 2.24084 0
M  V30 5770 H 532.442 -4.12479 0.547733 0
M  V30 5771 H 531.318 -5.48186 0.279917 0
M  V30 5772 H 531.579 -4.3066 -0.9992 0
M  V30 5773 N 530.638 -0.59345 -1.46 0
M  V30 5774 C 531.585 0.133618 -2.30413 0
M  V30 5775 C 532.555 0.873736 -1.41262 0
M  V30 5776 O 533.74 0.862279 -1.70204 0
M  V30 5777 C 530.88 1.13434 -3.25924 0
M  V30 5778 C 529.993 0.39656 -4.30176 0
M  V30 5779 C 529.128 1.38575 -5.12806 0
M  V30 5780 C 528.167 0.634984 -6.08797 0
M  V30 5781 N 527.304 1.57276 -6.84258 0
M  V30 5782 H 532.144 -0.592252 -2.92055 0
M  V30 5783 H 529.681 -0.303874 -1.43927 0
M  V30 5784 H 531.639 1.72752 -3.79753 0
M  V30 5785 H 530.269 1.82779 -2.66067 0
M  V30 5786 H 529.321 -0.311861 -3.79119 0
M  V30 5787 H 530.633 -0.189869 -4.98438 0
M  V30 5788 H 529.787 2.05141 -5.70966 0
M  V30 5789 H 528.526 2.00611 -4.44529 0
M  V30 5790 H 527.531 -0.0443925 -5.49782 0
M  V30 5791 H 528.756 0.0198678 -6.79097 0
M  V30 5792 H 526.702 2.18103 -6.18682 0
M  V30 5793 H 526.619 1.03941 -7.48821 0
M  V30 5794 H 527.887 2.22844 -7.46968 0
M  V30 5795 N 532.116 1.54067 -0.331816 0
M  V30 5796 C 533.049 2.20886 0.573127 0
M  V30 5797 C 534.027 1.18876 1.10938 0
M  V30 5798 O 535.211 1.47649 1.17184 0
M  V30 5799 C 532.338 2.87706 1.78726 0
M  V30 5800 C 531.384 4.03505 1.38152 0
M  V30 5801 S 532.217 5.33919 0.41123 0
M  V30 5802 C 533.373 6.04236 1.63246 0
M  V30 5803 H 533.606 2.97299 0.00555737 0
M  V30 5804 H 531.139 1.53964 -0.115893 0
M  V30 5805 H 533.097 3.26825 2.48386 0
M  V30 5806 H 531.758 2.1108 2.32603 0
M  V30 5807 H 530.951 4.49152 2.28645 0
M  V30 5808 H 530.553 3.66102 0.764524 0
M  V30 5809 H 532.845 6.26917 2.56869 0
M  V30 5810 H 533.788 6.97546 1.218 0
M  V30 5811 H 534.196 5.34247 1.82318 0
M  V30 5812 N 533.594 0.0601682 1.57485 0
M  V30 5813 C 534.842 -0.610386 1.92662 0
M  V30 5814 C 535.163 -1.70849 0.939981 0
M  V30 5815 O 534.433 -1.95895 -0.0137455 0
M  V30 5816 H 533.013 -0.228457 0.711208 0
M  V30 5817 H 535.675 0.115288 1.94559 0
M  V30 5818 H 534.771 -1.0432 2.94149 0
M  V30 5819 N 535.072 -1.5615 -0.213296 0
M  V30 5820 C 536.002 -1.96109 -1.26742 0
M  V30 5821 C 536.983 -0.830448 -1.48451 0
M  V30 5822 O 538.168 -1.09339 -1.60495 0
M  V30 5823 C 535.298 -2.28492 -2.61551 0
M  V30 5824 C 534.252 -3.44124 -2.54485 0
M  V30 5825 C 533.578 -3.62134 -3.93399 0
M  V30 5826 C 534.878 -4.78855 -2.08556 0
M  V30 5827 H 536.572 -2.84412 -0.935434 0
M  V30 5828 H 534.118 -1.36836 -0.44854 0
M  V30 5829 H 536.071 -2.55039 -3.3546 0
M  V30 5830 H 534.795 -1.37052 -2.96453 0
M  V30 5831 H 533.454 -3.17639 -1.83033 0
M  V30 5832 H 533.102 -2.68055 -4.25623 0
M  V30 5833 H 532.802 -4.39913 -3.89551 0
M  V30 5834 H 534.326 -3.91038 -4.68958 0
M  V30 5835 H 535.74 -5.04552 -2.72213 0
M  V30 5836 H 534.137 -5.59975 -2.1575 0
M  V30 5837 H 535.207 -4.73657 -1.03811 0
M  V30 5838 N 536.55 0.480323 -1.50102 0
M  V30 5839 C 537.827 1.24159 -1.51142 0
M  V30 5840 C 538.207 2.09605 -0.250818 0
M  V30 5841 O 537.555 2.15274 0.766118 0
M  V30 5842 C 537.765 2.08057 -2.80202 0
M  V30 5843 C 539.113 2.66556 -3.30504 0
M  V30 5844 O 540.137 2.18308 -2.81461 0
M  V30 5845 O 538.996 3.54442 -4.15973 0
M  V30 5846 H 536.09 0.562928 -0.605839 0
M  V30 5847 H 538.636 0.492899 -1.62384 0
M  V30 5848 H 537.408 1.45032 -3.6343 0
M  V30 5849 H 537.031 2.90079 -2.71919 0
M  V30 5850 N 538.028 1.39524 0.732853 0
M  V30 5851 C 538.961 1.32806 1.85574 0
M  V30 5852 C 539.939 0.201354 1.61348 0
M  V30 5853 O 541.123 0.38216 1.84585 0
M  V30 5854 C 538.25 1.06271 3.21596 0
M  V30 5855 C 537.296 2.21161 3.64678 0
M  V30 5856 S 538.129 3.83454 3.73796 0
M  V30 5857 C 539.285 3.59149 5.12604 0
M  V30 5858 H 539.518 2.27838 1.9099 0
M  V30 5859 H 537.051 1.25605 0.897927 0
M  V30 5860 H 539.009 0.916461 4.00139 0
M  V30 5861 H 537.67 0.129223 3.13834 0
M  V30 5862 H 536.863 1.98193 4.63396 0
M  V30 5863 H 536.465 2.32 2.93346 0
M  V30 5864 H 538.757 3.16547 5.99003 0
M  V30 5865 H 539.7 4.57335 5.40602 0
M  V30 5866 H 540.108 2.93203 4.82382 0
M  V30 5867 N 539.506 -0.963266 1.24736 0
M  V30 5868 C 540.746 -1.72172 1.10165 0
M  V30 5869 C 541.11 -1.88731 -0.352784 0
M  V30 5870 O 542.311 -2.61549 -0.620107 0
M  V30 5871 C 540.582 -3.0724 1.82589 0
M  V30 5872 S 542.141 -3.98449 1.83803 0
M  V30 5873 H 538.959 -0.591901 0.393922 0
M  V30 5874 H 541.561 -1.14955 1.58132 0
M  V30 5875 H 540.265 -2.92851 2.87518 0
M  V30 5876 H 539.796 -3.69521 1.34973 0
M  V30 5877 H 541.811 -4.87805 0.908883 0
M  V30 5878 N 540.985 -1.06182 -1.16461 0
M  V30 5879 C 541.895 -0.682671 -2.24448 0
M  V30 5880 C 542.911 0.30078 -1.71381 0
M  V30 5881 O 544.087 0.150376 -2.00838 0
M  V30 5882 C 541.152 -0.0737202 -3.46622 0
M  V30 5883 C 540.213 -1.10889 -4.14731 0
M  V30 5884 C 539.446 -0.528908 -5.31073 0
M  V30 5885 O 539.669 0.65868 -5.66584 0
M  V30 5886 O 538.603 -1.26805 -5.88391 0
M  V30 5887 H 542.429 -1.58291 -2.59187 0
M  V30 5888 H 540.014 -0.834013 -1.23954 0
M  V30 5889 H 541.896 0.264192 -4.20571 0
M  V30 5890 H 540.571 0.800015 -3.13658 0
M  V30 5891 H 539.478 -1.49896 -3.42756 0
M  V30 5892 H 540.811 -1.95412 -4.51747 0
M  V30 5893 N 542.463 1.3308 -0.844243 0
M  V30 5894 C 543.426 2.27403 -0.286485 0
M  V30 5895 C 544.426 1.51179 0.547872 0
M  V30 5896 O 545.616 1.70421 0.360886 0
M  V30 5897 C 542.748 3.35653 0.595813 0
M  V30 5898 H 543.941 2.78248 -1.11885 0
M  V30 5899 H 541.494 1.43574 -0.617749 0
M  V30 5900 H 542.229 2.90058 1.4504 0
M  V30 5901 H 542.014 3.921 -0.00125994 0
M  V30 5902 H 543.504 4.05958 0.979168 0
M  V30 5903 N 543.941 0.601185 1.45683 0
M  V30 5904 C 545.19 0.0914953 2.01492 0
M  V30 5905 C 545.503 -1.28331 1.47616 0
M  V30 5906 O 546.709 -1.88537 1.95362 0
M  V30 5907 C 545.165 0.11291 3.59723 0
M  V30 5908 C 544.773 1.48717 4.22596 0
M  V30 5909 C 546.517 -0.341871 4.23121 0
M  V30 5910 C 544.424 1.46531 5.7296 0
M  V30 5911 H 543.354 0.0304365 0.753385 0
M  V30 5912 H 546.005 0.755568 1.67223 0
M  V30 5913 H 544.387 -0.617692 3.91153 0
M  V30 5914 H 545.561 2.23897 4.02749 0
M  V30 5915 H 543.876 1.88351 3.71366 0
M  V30 5916 H 546.473 -0.377304 5.33367 0
M  V30 5917 H 546.816 -1.36325 3.93346 0
M  V30 5918 H 547.349 0.335256 3.96385 0
M  V30 5919 H 544.088 2.46408 6.07423 0
M  V30 5920 H 543.608 0.755997 5.95017 0
M  V30 5921 H 545.287 1.18618 6.36034 0
M  V30 5922 N 545.419 -1.53889 0.339982 0
M  V30 5923 C 546.366 -2.24902 -0.518452 0
M  V30 5924 C 547.336 -1.24593 -1.09844 0
M  V30 5925 O 548.521 -1.53317 -1.13572 0
M  V30 5926 C 545.661 -3.02262 -1.66529 0
M  V30 5927 C 544.774 -4.17418 -1.11295 0
M  V30 5928 C 543.909 -4.82273 -2.2268 0
M  V30 5929 C 542.948 -5.89503 -1.6478 0
M  V30 5930 N 542.085 -6.48153 -2.69893 0
M  V30 5931 H 546.925 -2.97853 0.0936579 0
M  V30 5932 H 544.462 -1.46986 0.0579924 0
M  V30 5933 H 546.42 -3.45371 -2.3404 0
M  V30 5934 H 545.05 -2.31614 -2.24844 0
M  V30 5935 H 544.102 -3.78976 -0.328886 0
M  V30 5936 H 545.414 -4.94554 -0.649414 0
M  V30 5937 H 544.568 -5.28435 -2.98063 0
M  V30 5938 H 543.307 -4.04552 -2.72376 0
M  V30 5939 H 542.312 -5.42728 -0.879004 0
M  V30 5940 H 543.537 -6.6913 -1.1594 0
M  V30 5941 H 541.483 -5.73298 -3.1885 0
M  V30 5942 H 541.4 -7.20752 -2.28151 0
M  V30 5943 H 542.668 -6.98968 -3.45056 0
M  V30 5944 N 546.897 -0.0685191 -1.57451 0
M  V30 5945 C 547.844 0.899861 -2.12535 0
M  V30 5946 C 548.814 1.29749 -1.03703 0
M  V30 5947 O 549.999 1.38392 -1.31348 0
M  V30 5948 C 547.139 2.16328 -2.6888 0
M  V30 5949 C 546.252 1.81857 -3.91857 0
M  V30 5950 C 545.387 3.02786 -4.36457 0
M  V30 5951 C 544.426 2.64317 -5.5209 0
M  V30 5952 N 543.563 3.77994 -5.91663 0
M  V30 5953 H 548.403 0.423243 -2.94979 0
M  V30 5954 H 545.94 0.197268 -1.45771 0
M  V30 5955 H 547.898 2.90281 -2.99655 0
M  V30 5956 H 546.528 2.61536 -1.89206 0
M  V30 5957 H 545.58 0.979808 -3.67565 0
M  V30 5958 H 546.892 1.49553 -4.75852 0
M  V30 5959 H 546.046 3.85021 -4.68875 0
M  V30 5960 H 544.785 3.38281 -3.51308 0
M  V30 5961 H 543.79 1.80503 -5.19325 0
M  V30 5962 H 545.015 2.29995 -6.38967 0
M  V30 5963 H 542.961 4.13258 -5.09464 0
M  V30 5964 H 542.878 3.49447 -6.7039 0
M  V30 5965 H 544.146 4.60818 -6.28703 0
M  V30 5966 N 548.375 1.56261 0.205012 0
M  V30 5967 C 549.621 1.80306 0.9283 0
M  V30 5968 C 549.954 0.640932 1.83319 0
M  V30 5969 O 549.229 -0.359032 1.91158 0
M  V30 5970 C 549.512 3.14547 1.75306 0
M  V30 5971 C 549.365 4.41236 0.873562 0
M  V30 5972 C 550.684 3.45382 2.72762 0
M  V30 5973 H 547.803 0.655929 0.336044 0
M  V30 5974 H 550.445 1.88984 0.196211 0
M  V30 5975 H 548.595 3.0728 2.37721 0
M  V30 5976 H 550.267 4.60539 0.264887 0
M  V30 5977 H 548.51 4.33427 0.179773 0
M  V30 5978 H 549.181 5.31639 1.48541 0
M  V30 5979 H 551.657 3.52884 2.20481 0
M  V30 5980 H 550.533 4.40449 3.2756 0
M  V30 5981 H 550.794 2.68377 3.51321 0
M  V30 5982 N 549.853 -0.472356 1.50355 0
M  V30 5983 C 551.269 -0.806001 1.37753 0
M  V30 5984 C 551.469 -1.968 0.432649 0
M  V30 5985 O 550.525 -2.52189 -0.12519 0
M  V30 5986 C 551.838 -1.11926 2.79093 0
M  V30 5987 C 553.386 -1.22579 2.87999 0
M  V30 5988 C 553.861 -1.57218 4.3017 0
M  V30 5989 N 555.352 -1.64212 4.33115 0
M  V30 5990 C 556.087 -1.92517 5.40116 0
M  V30 5991 N 555.583 -2.1885 6.57325 0
M  V30 5992 N 557.376 -1.94008 5.27558 0
M  V30 5993 H 549.527 0.293451 2.10363 0
M  V30 5994 H 551.79 0.0687672 0.945503 0
M  V30 5995 H 551.496 -0.338504 3.50067 0
M  V30 5996 H 551.37 -2.05577 3.16256 0
M  V30 5997 H 553.757 -1.99722 2.17245 0
M  V30 5998 H 553.838 -0.269107 2.54381 0
M  V30 5999 H 553.482 -0.806154 5.01461 0
M  V30 6000 H 553.412 -2.54034 4.61275 0
M  V30 6001 H 555.903 -1.45906 3.48597 0
M  V30 6002 H 556.216 -2.39718 7.3468 0
M  V30 6003 H 554.561 -2.16245 6.60502 0
M  V30 6004 H 557.752 -1.72931 4.34986 0
M  V30 6005 H 557.925 -2.15731 6.11035 0
M  V30 6006 N 551.331 -1.39911 -0.725443 0
M  V30 6007 C 552.608 -1.28158 -1.47766 0
M  V30 6008 C 552.988 0.104545 -2.10841 0
M  V30 6009 O 552.336 1.11657 -1.99361 0
M  V30 6010 C 552.546 -2.41306 -2.52135 0
M  V30 6011 C 553.894 -2.81076 -3.18247 0
M  V30 6012 O 554.918 -2.40827 -2.62452 0
M  V30 6013 O 553.777 -3.50581 -4.19231 0
M  V30 6014 H 550.871 -0.502761 -0.656628 0
M  V30 6015 H 553.417 -1.51808 -0.758456 0
M  V30 6016 H 552.189 -3.33932 -2.03974 0
M  V30 6017 H 551.812 -2.19374 -3.31603 0
M  V30 6018 N 552.809 0.956637 -1.25245 0
M  V30 6019 C 553.772 2.03457 -1.05537 0
M  V30 6020 C 554.772 1.60798 -0.00886317 0
M  V30 6021 O 555.962 1.72384 -0.250865 0
M  V30 6022 C 553.094 3.35543 -0.601965 0
M  V30 6023 H 554.287 2.22372 -2.01223 0
M  V30 6024 H 551.84 1.13344 -1.07623 0
M  V30 6025 H 552.575 3.22323 0.357584 0
M  V30 6026 H 552.36 3.67854 -1.35743 0
M  V30 6027 H 553.85 4.14769 -0.485454 0
M  V30 6028 N 554.287 1.06798 1.15896 0
M  V30 6029 C 555.515 0.808694 1.90441 0
M  V30 6030 C 555.93 -0.637506 1.77711 0
M  V30 6031 O 555.287 -1.43684 1.12522 0
M  V30 6032 C 555.338 1.20068 3.40978 0
M  V30 6033 O 555.059 2.59013 3.53333 0
M  V30 6034 C 556.56 0.96987 4.3256 0
M  V30 6035 H 553.78 0.292809 0.603742 0
M  V30 6036 H 556.324 1.42296 1.46874 0
M  V30 6037 H 554.479 0.630842 3.82229 0
M  V30 6038 H 554.893 2.7485 4.46719 0
M  V30 6039 H 556.367 1.29371 5.36626 0
M  V30 6040 H 556.844 -0.0941209 4.39099 0
M  V30 6041 H 557.45 1.52433 3.97044 0
M  V30 6042 N 555.766 -1.3263 0.851289 0
M  V30 6043 C 557.014 -1.96978 0.452128 0
M  V30 6044 C 557.335 -1.67715 -0.99482 0
M  V30 6045 O 556.605 -0.98259 -1.69476 0
M  V30 6046 H 555.185 -0.72873 0.164202 0
M  V30 6047 H 557.847 -1.61774 1.08698 0
M  V30 6048 H 556.943 -3.06387 0.594407 0
M  V30 6049 N 557.244 -0.608902 -1.45362 0
M  V30 6050 C 558.49 -0.104762 -2.02529 0
M  V30 6051 C 558.823 1.26191 -1.47613 0
M  V30 6052 O 558.098 1.8327 -0.65134 0
M  V30 6053 C 558.381 -0.0672661 -3.60037 0
M  V30 6054 C 558.234 -1.4647 -4.25284 0
M  V30 6055 C 559.553 0.619877 -4.35713 0
M  V30 6056 H 556.672 -0.0395438 -0.735938 0
M  V30 6057 H 559.314 -0.781126 -1.73201 0
M  V30 6058 H 557.464 0.50871 -3.85155 0
M  V30 6059 H 559.136 -2.08785 -4.11347 0
M  V30 6060 H 557.379 -2.02502 -3.83634 0
M  V30 6061 H 558.05 -1.39069 -5.34195 0
M  V30 6062 H 560.526 0.130297 -4.15896 0
M  V30 6063 H 559.402 0.615224 -5.45441 0
M  V30 6064 H 559.663 1.68621 -4.0868 0
M  V30 6065 N 558.722 1.53707 -0.348139 0
M  V30 6066 C 559.999 1.93247 0.302475 0
M  V30 6067 C 560.379 1.28012 1.67857 0
M  V30 6068 O 559.727 0.43274 2.24365 0
M  V30 6069 C 559.937 3.47031 0.370159 0
M  V30 6070 C 561.285 4.20066 0.61882 0
M  V30 6071 O 562.309 3.53319 0.452087 0
M  V30 6072 O 561.168 5.38318 0.94215 0
M  V30 6073 H 558.262 0.807736 0.177458 0
M  V30 6074 H 560.808 1.64927 -0.399651 0
M  V30 6075 H 559.58 3.86745 -0.59534 0
M  V30 6076 H 559.203 3.81532 1.11888 0
M  V30 6077 N 560.2 0.0768682 1.57412 0
M  V30 6078 C 561.449 -0.590679 1.92857 0
M  V30 6079 C 561.762 -1.70461 0.959293 0
M  V30 6080 O 562.968 -2.43207 1.20675 0
M  V30 6081 C 561.424 -1.10204 3.42612 0
M  V30 6082 C 561.032 -0.0188447 4.47996 0
M  V30 6083 C 562.776 -1.74336 3.87049 0
M  V30 6084 C 560.683 -0.544536 5.88888 0
M  V30 6085 H 559.613 -0.224411 0.71983 0
M  V30 6086 H 562.264 0.149924 1.82887 0
M  V30 6087 H 560.646 -1.89577 3.47673 0
M  V30 6088 H 561.82 0.755936 4.54557 0
M  V30 6089 H 560.135 0.526555 4.13057 0
M  V30 6090 H 562.732 -2.14708 4.89699 0
M  V30 6091 H 563.075 -2.60537 3.24694 0
M  V30 6092 H 563.608 -1.01577 3.84613 0
M  V30 6093 H 560.347 0.280426 6.549 0
M  V30 6094 H 559.867 -1.28673 5.85836 0
M  V30 6095 H 561.546 -1.01933 6.3892 0
M  V30 6096 N 561.678 -1.56367 -0.196722 0
M  V30 6097 C 562.626 -1.95304 -1.2633 0
M  V30 6098 C 563.62 -0.838252 -1.47206 0
M  V30 6099 O 564.826 -1.02325 -1.48087 0
M  V30 6100 H 561.201 -0.621013 -0.424083 0
M  V30 6101 H 563.172 -2.84254 -0.907879 0
M  V30 6102 C 561.921 -2.3074 -2.60104 0
M  V30 6103 H 561.244 -3.16047 -2.44856 0
M  V30 6104 H 562.684 -2.61849 -3.33484 0
M  V30 6105 C 561.143 -1.14143 -3.16975 0
M  V30 6106 O 561.673 -0.415602 -3.99544 0
M  V30 6107 N 559.879 -0.91867 -2.75697 0
M  V30 6108 H 559.426 -1.51065 -2.08656 0
M  V30 6109 H 559.384 -0.140321 -3.14087 0
M  V30 6110 N 563.156 0.464375 -1.50603 0
M  V30 6111 C 564.089 1.58052 -1.64605 0
M  V30 6112 C 565.067 1.54914 -0.494016 0
M  V30 6113 O 566.251 1.74438 -0.714393 0
M  V30 6114 C 563.378 2.96634 -1.63481 0
M  V30 6115 C 562.424 3.17901 -2.84325 0
M  V30 6116 S 563.257 2.97083 -4.45536 0
M  V30 6117 C 564.413 4.37994 -4.47115 0
M  V30 6118 H 564.646 1.45937 -2.59017 0
M  V30 6119 H 562.179 0.652189 -1.39949 0
M  V30 6120 H 564.137 3.76527 -1.63517 0
M  V30 6121 H 562.798 3.06134 -0.702928 0
M  V30 6122 H 561.991 4.19158 -2.79862 0
M  V30 6123 H 561.593 2.45792 -2.81891 0
M  V30 6124 H 563.885 5.30743 -4.21091 0
M  V30 6125 H 564.828 4.47499 -5.48772 0
M  V30 6126 H 565.236 4.20386 -3.76743 0
M  V30 6127 N 564.634 1.40294 0.718013 0
M  V30 6128 C 566.05 1.2227 1.02577 0
M  V30 6129 C 566.25 0.0961976 2.0127 0
M  V30 6130 O 565.306 -0.546695 2.46511 0
M  V30 6131 C 566.619 2.56348 1.57182 0
M  V30 6132 C 568.167 2.6334 1.69178 0
M  V30 6133 C 568.642 3.9768 2.27188 0
M  V30 6134 N 570.133 3.99409 2.34578 0
M  V30 6135 C 570.868 5.00141 2.8044 0
M  V30 6136 N 570.364 6.11268 3.26073 0
M  V30 6137 N 572.157 4.87511 2.79802 0
M  V30 6138 H 564.308 2.12304 0.0637899 0
M  V30 6139 H 566.571 0.943632 0.0909036 0
M  V30 6140 H 566.277 3.3942 0.921262 0
M  V30 6141 H 566.151 2.77266 2.55741 0
M  V30 6142 H 568.538 1.80641 2.33351 0
M  V30 6143 H 568.619 2.46255 0.692247 0
M  V30 6144 H 568.263 4.80817 1.63638 0
M  V30 6145 H 568.193 4.12093 3.27852 0
M  V30 6146 H 570.684 3.19162 2.02346 0
M  V30 6147 H 570.997 6.84023 3.59628 0
M  V30 6148 H 569.342 6.14837 3.24038 0
M  V30 6149 H 572.533 3.9979 2.43487 0
M  V30 6150 H 572.706 5.66158 3.15228 0
M  V30 6151 N 566.112 -0.949982 1.2575 0
M  V30 6152 C 567.358 -1.69766 1.10938 0
M  V30 6153 C 567.691 -1.91056 -0.348028 0
M  V30 6154 O 566.966 -1.48488 -1.25625 0
M  V30 6155 C 567.249 -3.07779 1.86933 0
M  V30 6156 C 567.102 -2.9387 3.4053 0
M  V30 6157 C 568.421 -4.07749 1.65616 0
M  V30 6158 H 565.54 -0.616144 0.404396 0
M  V30 6159 H 568.182 -1.10394 1.54639 0
M  V30 6160 H 566.332 -3.58462 1.4979 0
M  V30 6161 H 568.004 -2.50476 3.87375 0
M  V30 6162 H 566.247 -2.29686 3.68004 0
M  V30 6163 H 566.918 -3.91719 3.88922 0
M  V30 6164 H 569.394 -3.65994 1.97959 0
M  V30 6165 H 568.27 -5.02348 2.21218 0
M  V30 6166 H 568.531 -4.38029 0.598595 0
M  V30 6167 N 567.59 -1.07411 -1.15328 0
M  V30 6168 C 568.838 -0.796073 -1.85761 0
M  V30 6169 C 569.159 0.679864 -1.82764 0
M  V30 6170 O 568.429 1.49242 -1.269 0
M  V30 6171 H 567.009 -0.291495 -0.687779 0
M  V30 6172 H 569.671 -1.35799 -1.39802 0
M  V30 6173 H 568.767 -1.13114 -2.90881 0
M  V30 6174 N 569.068 1.32177 -0.85831 0
M  V30 6175 C 570.314 1.97417 -0.46417 0
M  V30 6176 C 570.647 1.67746 0.978514 0
M  V30 6177 O 569.922 0.967654 1.68721 0
M  V30 6178 C 570.205 3.53069 -0.708094 0
M  V30 6179 C 570.058 3.92357 -2.19946 0
M  V30 6180 C 571.377 4.39783 -0.166881 0
M  V30 6181 H 568.496 0.717097 -0.17012 0
M  V30 6182 H 571.138 1.56499 -1.07741 0
M  V30 6183 H 569.288 3.88054 -0.186128 0
M  V30 6184 H 570.96 3.67533 -2.78779 0
M  V30 6185 H 569.203 3.41384 -2.67656 0
M  V30 6186 H 569.874 5.00841 -2.32082 0
M  V30 6187 H 572.35 4.11556 -0.613285 0
M  V30 6188 H 571.226 5.47671 -0.367093 0
M  V30 6189 H 571.487 4.32196 0.930559 0
M  V30 6190 N 570.547 0.616602 1.45037 0
M  V30 6191 C 571.497 -0.118543 2.27692 0
M  V30 6192 C 572.481 -0.830025 1.37838 0
M  V30 6193 O 573.673 -0.718528 1.6176 0
M  V30 6194 C 570.802 -1.10924 3.24886 0
M  V30 6195 C 569.888 -0.398134 4.22227 0
M  V30 6196 N 570.279 0.565233 5.02632 0
M  V30 6197 C 568.577 -0.644506 4.41319 0
M  V30 6198 C 569.278 0.984043 5.73316 0
M  V30 6199 N 568.254 0.325879 5.42622 0
M  V30 6200 H 572.056 0.621239 2.87259 0
M  V30 6201 H 569.57 0.440968 1.56299 0
M  V30 6202 H 571.567 -1.65038 3.82842 0
M  V30 6203 H 570.227 -1.84948 2.66879 0
M  V30 6204 H 571.238 0.942395 5.09254 0
M  V30 6205 H 567.915 -1.36873 3.94426 0
M  V30 6206 H 569.305 1.77911 6.47918 0
M  V30 6207 N 572.025 -1.5352 0.356285 0
M  V30 6208 C 573.25 -2.06007 -0.239961 0
M  V30 6209 C 573.675 -1.22872 -1.42422 0
M  V30 6210 O 573.033 -0.245516 -1.7963 0
M  V30 6211 C 573.081 -3.5522 -0.620587 0
M  V30 6212 O 572.185 -3.74864 -1.71902 0
M  V30 6213 H 571.526 -0.662961 -0.0371377 0
M  V30 6214 H 574.056 -1.98033 0.514194 0
M  V30 6215 H 574.066 -3.98081 -0.894197 0
M  V30 6216 H 572.741 -4.15175 0.245407 0
M  V30 6217 H 571.318 -3.43904 -1.44169 0
M  V30 6218 N 573.503 -0.0852151 -1.57369 0
M  V30 6219 C 574.751 0.579658 -1.93609 0
M  V30 6220 C 575.072 1.69332 -0.967043 0
M  V30 6221 O 574.342 1.95892 -0.0174215 0
M  V30 6222 H 572.922 0.217113 -0.714752 0
M  V30 6223 H 575.584 -0.146226 -1.94351 0
M  V30 6224 H 574.68 0.996276 -2.95771 0
M  V30 6225 N 574.981 1.5647 0.188427 0
M  V30 6226 C 575.929 1.95971 1.25293 0
M  V30 6227 C 576.923 0.846047 1.4676 0
M  V30 6228 O 578.129 1.03109 1.47542 0
M  V30 6229 H 574.504 0.623253 0.420784 0
M  V30 6230 H 576.475 2.84731 0.892792 0
M  V30 6231 C 575.224 2.32116 2.58877 0
M  V30 6232 H 574.547 3.17341 2.43176 0
M  V30 6233 H 575.987 2.63613 3.3209 0
M  V30 6234 C 574.446 1.15823 3.16365 0
M  V30 6235 O 574.976 0.436785 3.99318 0
M  V30 6236 N 573.182 0.933278 2.75206 0
M  V30 6237 H 572.729 1.52169 2.07852 0
M  V30 6238 H 572.687 0.156976 3.14008 0
M  V30 6239 N 576.459 -0.456382 1.50847 0
M  V30 6240 C 577.705 -1.20914 1.62811 0
M  V30 6241 C 578.038 -1.91301 0.334304 0
M  V30 6242 O 577.313 -1.82775 -0.665098 0
M  V30 6243 C 577.596 -2.24122 2.81853 0
M  V30 6244 C 577.449 -1.57944 4.21158 0
M  V30 6245 C 578.768 -3.25295 2.96431 0
M  V30 6246 H 575.887 -0.438233 0.592554 0
M  V30 6247 H 578.529 -0.50091 1.83278 0
M  V30 6248 H 576.679 -2.84524 2.64534 0
M  V30 6249 H 578.351 -1.01025 4.50102 0
M  V30 6250 H 576.594 -0.882185 4.24735 0
M  V30 6251 H 577.265 -2.33014 5.00408 0
M  V30 6252 H 579.741 -2.7493 3.12335 0
M  V30 6253 H 578.617 -3.94822 3.81322 0
M  V30 6254 H 578.878 -3.90286 2.07676 0
M  V30 6255 N 577.937 -1.40673 -0.710563 0
M  V30 6256 C 578.867 -1.44095 -1.83736 0
M  V30 6257 C 579.848 -0.301286 -1.67411 0
M  V30 6258 O 581.033 -0.510618 -1.87367 0
M  V30 6259 C 578.163 -1.30773 -3.21738 0
M  V30 6260 C 577.117 -2.42395 -3.52745 0
M  V30 6261 C 576.443 -2.14147 -4.89944 0
M  V30 6262 C 577.743 -3.84738 -3.53234 0
M  V30 6263 H 579.437 -2.38396 -1.81129 0
M  V30 6264 H 576.983 -1.14746 -0.870017 0
M  V30 6265 H 578.936 -1.31783 -4.00264 0
M  V30 6266 H 577.66 -0.329507 -3.24934 0
M  V30 6267 H 576.319 -2.40643 -2.76562 0
M  V30 6268 H 575.967 -1.14703 -4.89747 0
M  V30 6269 H 575.667 -2.88934 -5.11655 0
M  V30 6270 H 577.191 -2.16848 -5.70797 0
M  V30 6271 H 578.605 -3.88286 -4.2179 0
M  V30 6272 H 577.002 -4.59085 -3.86473 0
M  V30 6273 H 578.072 -4.13962 -2.52514 0
M  V30 6274 N 579.415 0.9433 -1.26252 0
M  V30 6275 C 580.655 1.70397 -1.1289 0
M  V30 6276 C 581.019 1.89268 0.322713 0
M  V30 6277 O 582.22 2.62503 0.578418 0
M  V30 6278 C 580.491 3.04296 -1.87453 0
M  V30 6279 S 582.05 3.95475 -1.90119 0
M  V30 6280 H 578.868 0.585559 -0.403289 0
M  V30 6281 H 581.47 1.12424 -1.59941 0
M  V30 6282 H 580.174 2.8824 -2.9214 0
M  V30 6283 H 579.705 3.67327 -1.40835 0
M  V30 6284 H 581.72 4.86297 -0.986373 0
M  V30 6285 N 580.893 1.08022 1.14757 0
M  V30 6286 C 582.141 0.805913 1.85336 0
M  V30 6287 C 582.462 -0.670162 1.83122 0
M  V30 6288 O 581.732 -1.48567 1.2769 0
M  V30 6289 H 580.312 0.295138 0.686223 0
M  V30 6290 H 582.974 1.36538 1.3908 0
M  V30 6291 H 582.07 1.14655 2.90277 0
M  V30 6292 N 582.371 -1.3172 0.865308 0
M  V30 6293 C 583.617 -1.97168 0.474633 0
M  V30 6294 C 583.95 -1.68263 -0.969604 0
M  V30 6295 O 583.225 -0.976588 -1.68205 0
M  V30 6296 C 583.508 -3.52689 0.726808 0
M  V30 6297 C 583.361 -3.91185 2.22024 0
M  V30 6298 C 584.68 -4.39689 0.190201 0
M  V30 6299 H 581.799 -0.716185 0.17392 0
M  V30 6300 H 584.441 -1.55925 1.08569 0
M  V30 6301 H 582.591 -3.8795 0.206705 0
M  V30 6302 H 584.263 -3.66049 2.80724 0
M  V30 6303 H 582.506 -3.3996 2.69462 0
M  V30 6304 H 583.177 -4.99604 2.34735 0
M  V30 6305 H 585.653 -4.11225 0.635103 0
M  V30 6306 H 584.529 -5.47469 0.396132 0
M  V30 6307 H 584.79 -4.32683 -0.907625 0
M  V30 6308 N 583.85 -0.624285 -1.44708 0
M  V30 6309 C 585.099 -0.123539 -2.01321 0
M  V30 6310 C 585.412 1.25966 -1.49639 0
M  V30 6311 O 586.618 1.85405 -1.98336 0
M  V30 6312 C 585.074 -0.170124 -3.59498 0
M  V30 6313 C 584.682 -1.55421 -4.20176 0
M  V30 6314 C 586.426 0.274513 -4.23611 0
M  V30 6315 C 584.332 -1.55628 -5.70556 0
M  V30 6316 H 583.263 -0.0424183 -0.752806 0
M  V30 6317 H 585.913 -0.782076 -1.65999 0
M  V30 6318 H 584.296 0.555385 -3.92086 0
M  V30 6319 H 585.47 -2.30276 -3.99136 0
M  V30 6320 H 583.784 -1.94235 -3.68323 0
M  V30 6321 H 586.382 0.292402 -5.339 0
M  V30 6322 H 586.725 1.3005 -3.95465 0
M  V30 6323 H 587.258 -0.398275 -3.95801 0
M  V30 6324 H 583.997 -2.56041 -6.03426 0
M  V30 6325 H 583.517 -0.850563 -5.93739 0
M  V30 6326 H 585.196 -1.28721 -6.34066 0
M  V30 6327 N 585.328 1.53329 -0.364422 0
M  V30 6328 C 586.576 2.00842 0.225189 0
M  V30 6329 C 586.897 1.25345 1.49378 0
M  V30 6330 O 586.167 0.366396 1.92443 0
M  V30 6331 H 584.747 0.742009 0.0862027 0
M  V30 6332 H 587.409 1.8863 -0.490389 0
M  V30 6333 H 586.505 3.08795 0.452987 0
M  V30 6334 N 586.806 0.0935595 1.57322 0
M  V30 6335 C 587.736 -0.863062 2.16964 0
M  V30 6336 C 588.717 -1.29528 1.10256 0
M  V30 6337 O 589.902 -1.36245 1.38387 0
M  V30 6338 C 587.032 -2.12276 2.74875 0
M  V30 6339 C 585.986 -1.82921 3.86942 0
M  V30 6340 C 585.312 -3.15707 4.31548 0
M  V30 6341 C 586.612 -1.11737 5.10208 0
M  V30 6342 H 588.306 -0.366145 2.97153 0
M  V30 6343 H 585.852 -0.174673 1.42937 0
M  V30 6344 H 587.805 -2.79634 3.1525 0
M  V30 6345 H 586.529 -2.64248 1.91938 0
M  V30 6346 H 585.188 -1.17961 3.47103 0
M  V30 6347 H 584.836 -3.65563 3.45504 0
M  V30 6348 H 584.536 -2.96849 5.07104 0
M  V30 6349 H 586.06 -3.84226 4.74555 0
M  V30 6350 H 587.474 -1.69203 5.47762 0
M  V30 6351 H 585.871 -1.03064 5.91183 0
M  V30 6352 H 586.941 -0.0998818 4.84797 0
M  V30 6353 N 588.284 -1.56567 -0.180126 0
M  V30 6354 C 589.216 -1.92275 -1.24751 0
M  V30 6355 C 590.229 -0.814922 -1.40936 0
M  V30 6356 O 591.418 -1.09336 -1.41095 0
M  V30 6357 C 588.518 -2.15265 -2.61752 0
M  V30 6358 C 587.691 -3.46467 -2.66981 0
M  V30 6359 C 586.75 -3.58391 -3.85283 0
M  V30 6360 O 585.776 -4.31086 -3.7169 0
M  V30 6361 N 586.978 -2.92587 -5.01371 0
M  V30 6362 H 589.743 -2.84435 -0.944302 0
M  V30 6363 H 587.304 -1.57617 -0.369952 0
M  V30 6364 H 589.296 -2.20515 -3.39345 0
M  V30 6365 H 587.866 -1.29533 -2.845 0
M  V30 6366 H 587.086 -3.52953 -1.75549 0
M  V30 6367 H 588.374 -4.32819 -2.67479 0
M  V30 6368 H 587.772 -2.3338 -5.15316 0
M  V30 6369 H 586.329 -3.03444 -5.76858 0
M  V30 6370 N 589.762 0.448376 -1.51087 0
M  V30 6371 C 590.709 1.54341 -1.71603 0
M  V30 6372 C 591.679 1.56463 -0.557536 0
M  V30 6373 O 592.864 1.73644 -0.79072 0
M  V30 6374 C 590.004 2.92148 -1.83695 0
M  V30 6375 C 589.117 2.99639 -3.11192 0
M  V30 6376 C 588.252 4.285 -3.13944 0
M  V30 6377 C 587.291 4.29819 -4.35801 0
M  V30 6378 N 586.428 5.50186 -4.36164 0
M  V30 6379 H 591.268 1.36151 -2.65079 0
M  V30 6380 H 588.805 0.661585 -1.31383 0
M  V30 6381 H 590.763 3.72093 -1.88687 0
M  V30 6382 H 589.393 3.0892 -0.936374 0
M  V30 6383 H 588.445 2.12425 -3.15562 0
M  V30 6384 H 589.757 2.96474 -4.01129 0
M  V30 6385 H 588.911 5.16811 -3.17791 0
M  V30 6386 H 587.65 4.34307 -2.21876 0
M  V30 6387 H 586.655 3.39902 -4.32142 0
M  V30 6388 H 587.88 4.25685 -5.29121 0
M  V30 6389 H 585.826 5.56735 -3.46961 0
M  V30 6390 H 585.743 5.48856 -5.19897 0
M  V30 6391 H 587.011 6.40559 -4.44189 0
M  V30 6392 N 591.24 1.41047 0.703093 0
M  V30 6393 C 592.486 1.41209 1.46396 0
M  V30 6394 C 592.841 0.0180188 1.92392 0
M  V30 6395 O 592.134 -0.954739 1.66118 0
M  V30 6396 C 592.328 2.34686 2.6955 0
M  V30 6397 C 592.157 3.83044 2.35601 0
M  V30 6398 C 590.927 4.51777 2.26331 0
M  V30 6399 C 593.125 4.74215 1.9906 0
M  V30 6400 N 591.107 5.85302 1.85188 0
M  V30 6401 C 592.478 5.96631 1.68616 0
M  V30 6402 C 594.533 4.61932 1.85805 0
M  V30 6403 C 593.236 7.08134 1.26249 0
M  V30 6404 C 595.262 5.73389 1.44842 0
M  V30 6405 C 594.624 6.94899 1.15304 0
M  V30 6406 H 590.723 0.571951 0.533288 0
M  V30 6407 H 593.307 1.76859 0.814179 0
M  V30 6408 H 591.478 2.01143 3.32259 0
M  V30 6409 H 593.21 2.25618 3.35974 0
M  V30 6410 H 589.965 4.05618 2.44482 0
M  V30 6411 H 590.389 6.56049 1.67119 0
M  V30 6412 H 595.031 3.68494 2.07298 0
M  V30 6413 H 592.749 8.01445 1.035 0
M  V30 6414 H 596.335 5.65886 1.35146 0
M  V30 6415 H 595.215 7.79679 0.840854 0
M  V30 6416 N 592.718 -0.936591 1.26751 0
M  V30 6417 C 593.65 -2.03991 1.045 0
M  V30 6418 C 594.663 -1.628 0.00394261 0
M  V30 6419 O 595.852 -1.76817 0.244526 0
M  V30 6420 C 592.952 -3.34218 0.561403 0
M  V30 6421 C 592.125 -4.04151 1.67274 0
M  V30 6422 C 591.184 -5.12651 1.1864 0
M  V30 6423 O 590.21 -5.37104 1.88437 0
M  V30 6424 N 591.412 -5.80488 0.037278 0
M  V30 6425 H 594.177 -2.23644 1.99508 0
M  V30 6426 H 591.738 -1.10638 1.18198 0
M  V30 6427 H 593.73 -4.04101 0.220136 0
M  V30 6428 H 592.3 -3.11203 -0.295211 0
M  V30 6429 H 591.52 -3.28121 2.18472 0
M  V30 6430 H 592.808 -4.47626 2.41885 0
M  V30 6431 H 592.206 -5.63064 -0.545494 0
M  V30 6432 H 590.763 -6.5134 -0.244877 0
M  V30 6433 N 594.196 -1.08629 -1.14182 0
M  V30 6434 C 595.426 -0.837673 -1.88856 0
M  V30 6435 C 595.834 0.614024 -1.78959 0
M  V30 6436 O 595.177 1.43384 -1.14833 0
M  V30 6437 C 595.239 -1.18355 -3.39459 0
M  V30 6438 C 594.903 -2.63848 -3.73139 0
M  V30 6439 C 595.9 -3.62099 -3.73069 0
M  V30 6440 C 593.585 -2.99761 -4.03049 0
M  V30 6441 C 595.579 -4.94292 -4.02435 0
M  V30 6442 C 593.266 -4.32147 -4.32078 0
M  V30 6443 C 594.264 -5.29223 -4.31755 0
M  V30 6444 O 593.952 -6.59229 -4.60079 0
M  V30 6445 H 593.684 -0.301609 -0.604986 0
M  V30 6446 H 596.238 -1.44961 -1.45518 0
M  V30 6447 H 594.468 -0.514628 -3.8326 0
M  V30 6448 H 596.157 -0.915391 -3.95443 0
M  V30 6449 H 596.923 -3.35698 -3.50046 0
M  V30 6450 H 592.802 -2.2484 -4.02453 0
M  V30 6451 H 596.346 -5.70055 -4.02098 0
M  V30 6452 H 592.243 -4.58296 -4.54571 0
M  V30 6453 H 593.011 -6.64578 -4.77785 0
M  V30 6454 N 595.674 1.31259 -0.872281 0
M  V30 6455 C 596.951 1.91362 -0.404943 0
M  V30 6456 C 597.331 1.79362 1.11321 0
M  V30 6457 O 596.679 1.20277 1.94283 0
M  V30 6458 C 596.889 3.3749 -0.888893 0
M  V30 6459 C 598.237 4.14593 -0.916384 0
M  V30 6460 O 599.261 3.46282 -0.834701 0
M  V30 6461 O 598.12 5.3661 -1.03498 0
M  V30 6462 H 595.214 0.818016 -0.121569 0
M  V30 6463 H 597.76 1.39912 -0.960346 0
M  V30 6464 H 596.532 3.40249 -1.93251 0
M  V30 6465 H 596.155 3.96375 -0.311932 0
M  V30 6466 N 597.152 0.631951 1.44375 0
M  V30 6467 C 598.398 0.13697 2.02337 0
M  V30 6468 C 598.731 -1.23826 1.49602 0
M  V30 6469 O 598.006 -1.8221 0.680415 0
M  V30 6470 C 598.289 0.124536 3.59885 0
M  V30 6471 C 598.142 1.53217 4.229 0
M  V30 6472 C 599.461 -0.550481 4.36644 0
M  V30 6473 H 596.58 0.051247 0.735216 0
M  V30 6474 H 599.222 0.808581 1.71936 0
M  V30 6475 H 597.372 -0.44737 3.85916 0
M  V30 6476 H 599.044 2.15303 4.07973 0
M  V30 6477 H 597.287 2.0858 3.80364 0
M  V30 6478 H 597.958 1.4755 5.31914 0
M  V30 6479 H 600.434 -0.0641154 4.16051 0
M  V30 6480 H 599.31 -0.528371 5.46351 0
M  V30 6481 H 599.571 -1.62097 4.11311 0
M  V30 6482 N 598.631 -1.53133 0.372548 0
M  V30 6483 C 599.877 -2.02336 -0.207823 0
M  V30 6484 C 600.232 -1.25477 -1.45853 0
M  V30 6485 O 599.525 -0.341971 -1.88524 0
M  V30 6486 C 599.719 -3.53206 -0.545938 0
M  V30 6487 C 599.548 -4.44674 0.670454 0
M  V30 6488 C 598.318 -4.91217 1.18465 0
M  V30 6489 C 600.516 -4.90772 1.53777 0
M  V30 6490 N 598.498 -5.66711 2.36034 0
M  V30 6491 C 599.869 -5.64678 2.56004 0
M  V30 6492 C 601.924 -4.72836 1.55983 0
M  V30 6493 C 600.627 -6.22555 3.60303 0
M  V30 6494 C 602.653 -5.31583 2.59179 0
M  V30 6495 C 602.015 -6.05381 3.6013 0
M  V30 6496 H 598.114 -0.781048 -0.0385783 0
M  V30 6497 H 600.698 -1.87665 0.518664 0
M  V30 6498 H 598.869 -3.68024 -1.24149 0
M  V30 6499 H 600.601 -3.89123 -1.112 0
M  V30 6500 H 597.356 -4.67652 0.748205 0
M  V30 6501 H 597.78 -6.09117 2.95475 0
M  V30 6502 H 602.422 -4.15299 0.792877 0
M  V30 6503 H 600.14 -6.79183 4.37876 0
M  V30 6504 H 603.726 -5.19595 2.61749 0
M  V30 6505 H 602.606 -6.50028 4.38672 0
M  V30 6506 N 600.109 -0.101901 -1.5727 0
M  V30 6507 C 601.334 0.571759 -1.99363 0
M  V30 6508 C 601.759 1.60507 -0.980768 0
M  V30 6509 O 601.117 1.81231 0.0498517 0
M  V30 6510 C 601.165 1.18996 -3.404 0
M  V30 6511 O 600.269 2.30572 -3.41922 0
M  V30 6512 H 599.61 0.144449 -0.648098 0
M  V30 6513 H 602.14 -0.185325 -2.03759 0
M  V30 6514 H 602.15 1.52962 -3.78241 0
M  V30 6515 H 600.825 0.432984 -4.1364 0
M  V30 6516 H 599.402 1.98173 -3.15883 0
M  V30 6517 N 601.587 1.56661 0.17182 0
M  V30 6518 C 602.537 1.92781 1.21736 0
M  V30 6519 C 603.521 0.796065 1.39827 0
M  V30 6520 O 604.713 1.05924 1.41806 0
M  V30 6521 C 601.842 2.29079 2.55691 0
M  V30 6522 C 600.928 3.48765 2.41296 0
M  V30 6523 N 601.319 4.66022 1.96614 0
M  V30 6524 C 599.617 3.53362 2.72124 0
M  V30 6525 C 600.318 5.48159 1.94669 0
M  V30 6526 N 599.294 4.89189 2.37054 0
M  V30 6527 H 603.096 2.80926 0.863592 0
M  V30 6528 H 600.61 1.57889 0.380096 0
M  V30 6529 H 602.607 2.5315 3.31241 0
M  V30 6530 H 601.267 1.42272 2.91871 0
M  V30 6531 H 602.278 4.9025 1.66959 0
M  V30 6532 H 598.955 2.77033 3.12345 0
M  V30 6533 H 600.345 6.52121 1.61826 0
M  V30 6534 N 603.065 -0.440357 1.51323 0
M  V30 6535 C 604.342 -1.20109 1.5438 0
M  V30 6536 C 604.722 -2.08866 0.306303 0
M  V30 6537 O 604.07 -2.1723 -0.708773 0
M  V30 6538 C 604.28 -2.00555 2.8562 0
M  V30 6539 C 605.628 -2.577 3.37455 0
M  V30 6540 O 606.652 -2.10769 2.8715 0
M  V30 6541 O 605.511 -3.43289 4.25224 0
M  V30 6542 H 602.605 -0.546668 0.620551 0
M  V30 6543 H 605.151 -0.449672 1.63634 0
M  V30 6544 H 603.923 -1.35346 3.67147 0
M  V30 6545 H 603.546 -2.82768 2.79514 0
M  V30 6546 N 604.543 -1.41418 -0.695603 0
M  V30 6547 C 605.789 -1.40982 -1.4578 0
M  V30 6548 C 606.122 -0.0187763 -1.94191 0
M  V30 6549 O 605.397 0.95346 -1.69527 0
M  V30 6550 C 605.68 -2.41657 -2.66972 0
M  V30 6551 C 605.533 -3.89869 -2.24327 0
M  V30 6552 C 606.852 -2.39589 -3.69168 0
M  V30 6553 H 603.971 -0.513405 -0.528757 0
M  V30 6554 H 606.613 -1.72693 -0.792275 0
M  V30 6555 H 604.763 -2.14746 -3.23754 0
M  V30 6556 H 606.435 -4.27683 -1.72872 0
M  V30 6557 H 604.678 -4.04737 -1.56111 0
M  V30 6558 H 605.349 -4.55857 -3.11285 0
M  V30 6559 H 607.825 -2.63471 -3.2206 0
M  V30 6560 H 606.701 -3.12044 -4.51575 0
M  V30 6561 H 606.962 -1.41447 -4.18862 0
M  V30 6562 N 606.021 0.929856 -1.27246 0
M  V30 6563 C 607.249 1.71144 -1.16265 0
M  V30 6564 C 607.664 1.867 0.280786 0
M  V30 6565 O 607.021 1.38249 1.19136 0
M  V30 6566 C 607.072 3.11222 -1.83911 0
M  V30 6567 O 606.793 2.96398 -3.22614 0
M  V30 6568 C 608.294 4.05541 -1.79028 0
M  V30 6569 H 605.514 0.535499 -0.404328 0
M  V30 6570 H 608.058 1.16492 -1.68077 0
M  V30 6571 H 606.213 3.6274 -1.36009 0
M  V30 6572 H 606.627 3.8494 -3.56261 0
M  V30 6573 H 608.101 5.01351 -2.30978 0
M  V30 6574 H 608.578 4.32589 -0.759168 0
M  V30 6575 H 609.184 3.59947 -2.26535 0
M  V30 6576 N 607.499 1.09233 1.13605 0
M  V30 6577 C 608.429 0.751738 2.21068 0
M  V30 6578 C 609.41 -0.269688 1.67948 0
M  V30 6579 O 610.595 -0.13819 1.93708 0
M  V30 6580 C 607.725 0.16935 3.46887 0
M  V30 6581 C 606.679 1.12007 4.13084 0
M  V30 6582 C 606.005 0.399483 5.33206 0
M  V30 6583 C 607.305 2.46168 4.6065 0
M  V30 6584 H 608.999 1.65024 2.49815 0
M  V30 6585 H 606.545 0.794905 1.20072 0
M  V30 6586 H 608.498 -0.0809824 4.21322 0
M  V30 6587 H 607.222 -0.764335 3.1753 0
M  V30 6588 H 605.881 1.35564 3.40614 0
M  V30 6589 H 605.529 -0.538277 5.00112 0
M  V30 6590 H 605.229 1.03337 5.78442 0
M  V30 6591 H 606.753 0.157403 6.10397 0
M  V30 6592 H 608.167 2.26829 5.26518 0
M  V30 6593 H 606.564 3.05326 5.1662 0
M  V30 6594 H 607.634 3.07076 3.75276 0
M  V30 6595 N 608.977 -1.30795 0.87923 0
M  V30 6596 C 609.94 -2.26563 0.346676 0
M  V30 6597 C 610.94 -1.52578 -0.507597 0
M  V30 6598 O 612.13 -1.71318 -0.315575 0
M  V30 6599 C 609.262 -3.37115 -0.506611 0
M  V30 6600 H 610.455 -2.75183 1.19223 0
M  V30 6601 H 608.008 -1.41886 0.655598 0
M  V30 6602 H 608.743 -2.93802 -1.37299 0
M  V30 6603 H 608.528 -3.91959 0.105218 0
M  V30 6604 H 610.018 -4.08412 -0.871192 0
M  V30 6605 N 610.455 -0.639598 -1.44038 0
M  V30 6606 C 611.403 0.0723409 -2.32487 0
M  V30 6607 C 612.397 0.827129 -1.47834 0
M  V30 6608 O 613.603 0.73907 -1.64127 0
M  V30 6609 H 609.978 0.0421696 -0.750817 0
M  V30 6610 H 611.949 -0.691593 -2.90275 0
M  V30 6611 C 610.698 1.03452 -3.31953 0
M  V30 6612 H 610.021 0.46315 -3.97108 0
M  V30 6613 H 611.461 1.502 -3.96505 0
M  V30 6614 C 609.92 2.12392 -2.61518 0
M  V30 6615 O 610.45 3.2059 -2.42044 0
M  V30 6616 N 608.656 1.88563 -2.21116 0
M  V30 6617 H 608.203 1.00577 -2.37154 0
M  V30 6618 H 608.161 2.61651 -1.74316 0
M  V30 6619 N 611.933 1.52934 -0.380664 0
M  V30 6620 C 612.883 2.22989 0.475399 0
M  V30 6621 C 613.867 1.23058 1.03661 0
M  V30 6622 O 615.059 1.48436 0.964146 0
M  V30 6623 C 612.188 3.0338 1.60671 0
M  V30 6624 C 611.274 4.107 1.05766 0
M  V30 6625 N 611.665 5.05264 0.232837 0
M  V30 6626 C 609.963 4.25676 1.33101 0
M  V30 6627 C 610.664 5.81658 -0.0695134 0
M  V30 6628 N 609.64 5.40989 0.532144 0
M  V30 6629 H 613.442 2.93456 -0.161418 0
M  V30 6630 H 610.956 1.61291 -0.189495 0
M  V30 6631 H 612.953 3.52098 2.23232 0
M  V30 6632 H 611.613 2.34446 2.24644 0
M  V30 6633 H 612.624 5.17739 -0.129204 0
M  V30 6634 H 609.301 3.6797 1.97241 0
M  V30 6635 H 610.691 6.67843 -0.737269 0
M  V30 6636 N 613.412 0.11024 1.57214 0
M  V30 6637 C 614.345 -0.880224 2.1054 0
M  V30 6638 C 615.323 -1.26658 1.01964 0
M  V30 6639 O 616.507 -1.36917 1.29561 0
M  V30 6640 C 613.634 -2.17676 2.59489 0
M  V30 6641 C 612.68 -1.93914 3.79868 0
M  V30 6642 S 613.513 -1.16336 5.2271 0
M  V30 6643 C 614.669 -2.47188 5.75021 0
M  V30 6644 H 614.902 -0.426614 2.94223 0
M  V30 6645 H 612.435 -0.10336 1.54054 0
M  V30 6646 H 614.393 -2.92175 2.88347 0
M  V30 6647 H 613.054 -2.60156 1.76005 0
M  V30 6648 H 612.247 -2.8996 4.12236 0
M  V30 6649 H 611.849 -1.27539 3.51582 0
M  V30 6650 H 614.141 -3.43079 5.84211 0
M  V30 6651 H 615.084 -2.19377 6.7326 0
M  V30 6652 H 615.492 -2.56154 5.03036 0
M  V30 6653 N 614.89 -1.56749 -0.16351 0
M  V30 6654 C 615.8 -2.00255 -1.2221 0
M  V30 6655 C 616.816 -0.915194 -1.47987 0
M  V30 6656 O 617.992 -1.22342 -1.59982 0
M  V30 6657 C 615.057 -2.36035 -2.53946 0
M  V30 6658 C 614.118 -3.58637 -2.35962 0
M  V30 6659 C 613.351 -3.92701 -3.61416 0
M  V30 6660 O 613.574 -3.27632 -4.66919 0
M  V30 6661 O 612.508 -4.86019 -3.55062 0
M  V30 6662 H 616.334 -2.90586 -0.882794 0
M  V30 6663 H 613.919 -1.44721 -0.370978 0
M  V30 6664 H 615.801 -2.59982 -3.31643 0
M  V30 6665 H 614.476 -1.48863 -2.8744 0
M  V30 6666 H 613.383 -3.39898 -1.5627 0
M  V30 6667 H 614.716 -4.46374 -2.0739 0
M  V30 6668 N 616.368 0.432326 -1.51554 0
M  V30 6669 C 617.331 1.50765 -1.72634 0
M  V30 6670 C 618.331 1.49334 -0.596314 0
M  V30 6671 O 619.521 1.51268 -0.863925 0
M  V30 6672 C 616.653 2.90284 -1.7874 0
M  V30 6673 H 617.846 1.33377 -2.68609 0
M  V30 6674 H 615.399 0.661329 -1.4162 0
M  V30 6675 H 616.134 3.13071 -0.845977 0
M  V30 6676 H 615.919 2.92727 -2.6087 0
M  V30 6677 H 617.409 3.68282 -1.96871 0
M  V30 6678 N 617.846 1.41785 0.688094 0
M  V30 6679 C 619.094 1.41264 1.4453 0
M  V30 6680 C 619.415 0.0252946 1.94984 0
M  V30 6681 O 618.685 -0.934081 1.72197 0
M  V30 6682 H 617.265 0.519998 0.536294 0
M  V30 6683 H 619.927 1.7709 0.813941 0
M  V30 6684 H 619.023 2.10439 2.30482 0
M  V30 6685 N 619.324 -0.923095 1.27737 0
M  V30 6686 C 620.572 -1.66797 1.14119 0
M  V30 6687 C 620.893 -1.92479 -0.312541 0
M  V30 6688 O 620.163 -1.53432 -1.218 0
M  V30 6689 H 618.743 -0.618196 0.419336 0
M  V30 6690 H 621.405 -1.10815 1.60331 0
M  V30 6691 H 620.501 -2.63424 1.67374 0
M  V30 6692 N 620.802 -1.09834 -1.13024 0
M  V30 6693 C 622.048 -0.83819 -1.84668 0
M  V30 6694 C 622.381 0.634645 -1.83537 0
M  V30 6695 O 621.656 1.46753 -1.27647 0
M  V30 6696 C 621.939 -1.37933 -3.32636 0
M  V30 6697 C 621.792 -2.91857 -3.42257 0
M  V30 6698 C 623.111 -1.01654 -4.28199 0
M  V30 6699 H 620.23 -0.30595 -0.670495 0
M  V30 6700 H 622.872 -1.36044 -1.32635 0
M  V30 6701 H 621.022 -0.935111 -3.77078 0
M  V30 6702 H 622.694 -3.44759 -3.06495 0
M  V30 6703 H 620.937 -3.28776 -2.83 0
M  V30 6704 H 621.608 -3.24799 -4.46329 0
M  V30 6705 H 624.084 -1.39973 -3.9185 0
M  V30 6706 H 622.96 -1.42217 -5.30156 0
M  V30 6707 H 623.221 0.0747794 -4.42037 0
M  V30 6708 N 622.28 1.30327 -0.886154 0
M  V30 6709 C 623.691 1.78243 -0.555554 0
M  V30 6710 C 624.042 1.72849 0.928314 0
M  V30 6711 O 623.167 1.30607 1.72542 0
M  V30 6712 C 623.762 3.23654 -1.00168 0
M  V30 6713 C 622.321 3.69401 -0.722471 0
M  V30 6714 C 621.468 2.50753 -1.18399 0
M  V30 6715 H 624.419 1.1718 -1.07026 0
M  V30 6716 H 624.44 3.79056 -0.331152 0
M  V30 6717 H 623.952 3.27548 -2.08169 0
M  V30 6718 H 622.053 3.70995 0.345496 0
M  V30 6719 H 622.166 4.60818 -1.31085 0
M  V30 6720 H 620.53 2.47452 -0.603303 0
M  V30 6721 H 621.313 2.57383 -2.27176 0
M  V30 6722 N 623.758 0.647228 1.43697 0
M  V30 6723 C 625.006 0.157876 2.01482 0
M  V30 6724 C 625.327 -1.23039 1.51282 0
M  V30 6725 O 624.597 -1.82071 0.722982 0
M  V30 6726 H 623.177 0.0553745 0.744945 0
M  V30 6727 H 625.839 0.83755 1.75986 0
M  V30 6728 H 624.935 0.137895 3.11795 0
M  V30 6729 N 625.236 -1.5273 0.388769 0
M  V30 6730 C 626.652 -1.59553 0.0387049 0
M  V30 6731 C 626.852 -1.40278 -1.44652 0
M  V30 6732 O 625.908 -1.21951 -2.21098 0
M  V30 6733 C 627.221 -2.9625 0.515409 0
M  V30 6734 C 628.769 -3.09426 0.471621 0
M  V30 6735 C 629.244 -4.48572 0.924505 0
M  V30 6736 N 630.735 -4.54754 0.880496 0
M  V30 6737 C 631.47 -5.60653 1.20234 0
M  V30 6738 N 630.966 -6.74198 1.59463 0
M  V30 6739 N 632.759 -5.50755 1.12363 0
M  V30 6740 H 624.91 -1.63508 1.35569 0
M  V30 6741 H 627.173 -0.768097 0.555636 0
M  V30 6742 H 626.879 -3.15569 1.5527 0
M  V30 6743 H 626.753 -3.77102 -0.085792 0
M  V30 6744 H 629.14 -2.89804 -0.556588 0
M  V30 6745 H 629.221 -2.30528 1.10862 0
M  V30 6746 H 628.865 -4.68936 1.95094 0
M  V30 6747 H 628.795 -5.25935 0.264524 0
M  V30 6748 H 631.286 -3.73237 0.591815 0
M  V30 6749 H 631.599 -7.5097 1.82385 0
M  V30 6750 H 629.944 -6.75531 1.63349 0
M  V30 6751 H 633.135 -4.6093 0.816169 0
M  V30 6752 H 633.308 -6.33184 1.37777 0
M  V30 6753 N 626.714 -0.118576 -1.57153 0
M  V30 6754 C 627.96 0.540326 -1.95469 0
M  V30 6755 C 628.293 1.66356 -1.00196 0
M  V30 6756 O 627.568 1.94461 -0.039104 0
M  V30 6757 C 627.851 1.07342 -3.43729 0
M  V30 6758 C 627.704 -0.0463732 -4.49776 0
M  V30 6759 C 629.023 1.96442 -3.93826 0
M  V30 6760 H 626.142 0.19494 -0.710751 0
M  V30 6761 H 628.784 -0.19405 -1.89006 0
M  V30 6762 H 626.934 1.69925 -3.49368 0
M  V30 6763 H 628.606 -0.681648 -4.56236 0
M  V30 6764 H 626.849 -0.709574 -4.27957 0
M  V30 6765 H 627.52 0.367856 -5.50773 0
M  V30 6766 H 629.996 1.43731 -3.90488 0
M  V30 6767 H 628.872 2.3066 -4.98084 0
M  V30 6768 H 629.133 2.89077 -3.34495 0
M  V30 6769 N 628.193 1.56834 0.155195 0
M  V30 6770 C 629.143 1.94061 1.19684 0
M  V30 6771 C 630.127 0.810851 1.38975 0
M  V30 6772 O 631.319 1.07422 1.40675 0
M  V30 6773 C 628.448 2.31778 2.53247 0
M  V30 6774 C 627.534 3.51305 2.37583 0
M  V30 6775 N 627.925 4.68081 1.9166 0
M  V30 6776 C 626.223 3.56228 2.6836 0
M  V30 6777 C 626.924 5.50193 1.88845 0
M  V30 6778 N 625.9 4.91676 2.31852 0
M  V30 6779 H 629.702 2.81826 0.833747 0
M  V30 6780 H 627.216 1.58284 0.363328 0
M  V30 6781 H 629.213 2.56649 3.28538 0
M  V30 6782 H 627.873 1.4536 2.90346 0
M  V30 6783 H 628.884 4.91993 1.6175 0
M  V30 6784 H 625.561 2.8033 3.09389 0
M  V30 6785 H 626.951 6.53801 1.54901 0
M  V30 6786 N 629.671 -0.424282 1.51781 0
M  V30 6787 C 630.92 -1.16961 1.64326 0
M  V30 6788 C 631.233 -1.92035 0.371749 0
M  V30 6789 O 632.439 -2.68873 0.37676 0
M  V30 6790 C 630.895 -2.12782 2.90262 0
M  V30 6791 C 630.503 -1.43295 4.24465 0
M  V30 6792 C 632.247 -2.87667 3.12166 0
M  V30 6793 C 630.154 -2.37676 5.41538 0
M  V30 6794 H 629.084 -0.440293 0.612093 0
M  V30 6795 H 631.735 -0.435431 1.78259 0
M  V30 6796 H 630.117 -2.8969 2.69992 0
M  V30 6797 H 631.291 -0.718564 4.55163 0
M  V30 6798 H 629.606 -0.805118 4.08542 0
M  V30 6799 H 632.203 -3.58395 3.96808 0
M  V30 6800 H 632.546 -3.49758 2.25776 0
M  V30 6801 H 633.079 -2.17863 3.32837 0
M  V30 6802 H 629.818 -1.80255 6.30229 0
M  V30 6803 H 629.338 -3.07132 5.15199 0
M  V30 6804 H 631.017 -2.98529 5.74012 0
M  V30 6805 N 631.149 -1.42148 -0.680565 0
M  V30 6806 C 632.374 -1.45901 -1.47403 0
M  V30 6807 C 632.799 -0.0700985 -1.87969 0
M  V30 6808 O 632.157 0.930145 -1.55621 0
M  V30 6809 C 632.205 -2.38661 -2.70321 0
M  V30 6810 O 631.309 -1.85399 -3.68376 0
M  V30 6811 H 630.65 -0.494565 -0.443059 0
M  V30 6812 H 633.18 -1.86774 -0.835251 0
M  V30 6813 H 633.19 -2.55046 -3.18458 0
M  V30 6814 H 631.865 -3.39571 -2.40134 0
M  V30 6815 H 630.442 -1.78541 -3.2738 0
M  V30 6816 N 632.627 0.916307 -1.28225 0
M  V30 6817 C 633.852 1.7043 -1.18188 0
M  V30 6818 C 634.277 1.86346 0.256274 0
M  V30 6819 O 633.635 1.37175 1.18544 0
M  V30 6820 C 633.683 3.07546 -1.88275 0
M  V30 6821 O 632.787 3.94904 -1.18848 0
M  V30 6822 H 632.128 0.521967 -0.410423 0
M  V30 6823 H 634.658 1.14589 -1.69501 0
M  V30 6824 H 634.668 3.57793 -1.96082 0
M  V30 6825 H 633.343 2.95279 -2.92887 0
M  V30 6826 H 631.92 3.53339 -1.19187 0
M  V30 6827 N 634.105 1.10431 1.1244 0
M  V30 6828 C 635.351 0.847972 1.84221 0
M  V30 6829 C 635.684 -0.624903 1.83871 0
M  V30 6830 O 634.959 -1.46074 1.28423 0
M  V30 6831 C 635.242 1.39695 3.319 0
M  V30 6832 C 635.095 2.93668 3.40704 0
M  V30 6833 C 636.414 1.03924 4.27654 0
M  V30 6834 H 633.533 0.309502 0.668863 0
M  V30 6835 H 636.175 1.36745 1.31912 0
M  V30 6836 H 634.325 0.955095 3.76577 0
M  V30 6837 H 635.997 3.46379 3.04662 0
M  V30 6838 H 634.24 3.30272 2.81252 0
M  V30 6839 H 634.911 3.27162 4.446 0
M  V30 6840 H 637.387 1.42049 3.91102 0
M  V30 6841 H 636.263 1.45027 5.29394 0
M  V30 6842 H 636.524 -0.051336 4.4207 0
M  V30 6843 N 635.583 -1.29855 0.893053 0
M  V30 6844 C 636.811 -1.99976 0.530788 0
M  V30 6845 C 637.226 -1.66889 -0.882799 0
M  V30 6846 O 636.583 -0.910352 -1.58173 0
M  V30 6847 C 636.634 -3.54547 0.705587 0
M  V30 6848 O 636.355 -3.86458 2.06353 0
M  V30 6849 C 637.856 -4.41937 0.347387 0
M  V30 6850 H 635.076 -0.639129 0.204339 0
M  V30 6851 H 637.62 -1.65549 1.20057 0
M  V30 6852 H 635.775 -3.87311 0.0830685 0
M  V30 6853 H 636.189 -4.81146 2.08803 0
M  V30 6854 H 637.663 -5.4954 0.520557 0
M  V30 6855 H 638.14 -4.33339 -0.715139 0
M  V30 6856 H 638.746 -4.14633 0.946567 0
M  V30 6857 N 637.061 -0.65484 -1.43351 0
M  V30 6858 C 637.991 0.0221809 -2.33489 0
M  V30 6859 C 638.972 0.810272 -1.49561 0
M  V30 6860 O 640.157 0.771426 -1.78221 0
M  V30 6861 C 637.287 0.988117 -3.32947 0
M  V30 6862 C 636.241 0.310026 -4.26876 0
M  V30 6863 C 635.567 1.38752 -5.16384 0
M  V30 6864 C 636.867 -0.798589 -5.16159 0
M  V30 6865 H 638.561 -0.730571 -2.9035 0
M  V30 6866 H 636.107 -0.352773 -1.39612 0
M  V30 6867 H 638.06 1.47067 -3.94904 0
M  V30 6868 H 636.784 1.77205 -2.74346 0
M  V30 6869 H 635.443 -0.152097 -3.66284 0
M  V30 6870 H 635.091 2.16293 -4.54121 0
M  V30 6871 H 634.791 0.939051 -5.80048 0
M  V30 6872 H 636.315 1.87141 -5.81215 0
M  V30 6873 H 637.729 -0.398126 -5.71916 0
M  V30 6874 H 636.126 -1.17163 -5.88552 0
M  V30 6875 H 637.196 -1.65588 -4.55751 0
M  V30 6876 N 638.539 1.52521 -0.396863 0
M  V30 6877 C 639.449 2.30403 0.44178 0
M  V30 6878 C 640.465 1.37625 1.06468 0
M  V30 6879 O 641.641 1.70697 1.06886 0
M  V30 6880 C 638.706 3.1013 1.54986 0
M  V30 6881 C 637.767 4.18628 0.951279 0
M  V30 6882 C 637 4.94543 2.00655 0
M  V30 6883 O 637.223 4.70629 3.22281 0
M  V30 6884 O 636.157 5.797 1.61962 0
M  V30 6885 H 639.983 3.03087 -0.192892 0
M  V30 6886 H 637.568 1.48537 -0.16038 0
M  V30 6887 H 639.45 3.59816 2.19341 0
M  V30 6888 H 638.125 2.40251 2.16935 0
M  V30 6889 H 637.032 3.73119 0.270773 0
M  V30 6890 H 638.365 4.90763 0.375887 0
M  V30 6891 N 640.017 0.126909 1.57088 0
M  V30 6892 C 640.967 -0.831678 2.1229 0
M  V30 6893 C 641.951 -1.22292 1.04564 0
M  V30 6894 O 643.143 -1.19269 1.30782 0
M  V30 6895 C 640.272 -2.07866 2.73215 0
M  V30 6896 C 639.358 -1.71143 3.88035 0
M  V30 6897 N 639.749 -1.05136 4.94753 0
M  V30 6898 C 638.047 -2.00549 3.98367 0
M  V30 6899 C 638.748 -0.877257 5.75047 0
M  V30 6900 N 637.724 -1.40477 5.25135 0
M  V30 6901 H 641.526 -0.317926 2.92175 0
M  V30 6902 H 639.04 -0.0753052 1.62225 0
M  V30 6903 H 641.037 -2.77516 3.11111 0
M  V30 6904 H 639.697 -2.59778 1.94796 0
M  V30 6905 H 640.708 -0.71442 5.12949 0
M  V30 6906 H 637.385 -2.54452 3.30999 0
M  V30 6907 H 638.775 -0.358536 6.70943 0
M  V30 6908 N 641.495 -1.56914 -0.146875 0
M  V30 6909 C 642.425 -2.01308 -1.1831 0
M  V30 6910 C 643.406 -0.892664 -1.44795 0
M  V30 6911 O 644.591 -1.16048 -1.55713 0
M  V30 6912 C 641.721 -2.3938 -2.51624 0
M  V30 6913 C 640.675 -3.54608 -2.3966 0
M  V30 6914 C 640.001 -3.78493 -3.77686 0
M  V30 6915 C 641.301 -4.87269 -1.88058 0
M  V30 6916 H 642.995 -2.88123 -0.813964 0
M  V30 6917 H 640.541 -1.38615 -0.3901 0
M  V30 6918 H 642.494 -2.69037 -3.24341 0
M  V30 6919 H 641.218 -1.49502 -2.90373 0
M  V30 6920 H 639.877 -3.25116 -1.69396 0
M  V30 6921 H 639.525 -2.85866 -4.13871 0
M  V30 6922 H 639.225 -4.56039 -3.70543 0
M  V30 6923 H 640.749 -4.10576 -4.51951 0
M  V30 6924 H 642.163 -5.15644 -2.50568 0
M  V30 6925 H 640.56 -5.68622 -1.91805 0
M  V30 6926 H 641.63 -4.77634 -0.836277 0
M  V30 6927 N 642.974 0.416227 -1.52004 0
M  V30 6928 C 643.922 1.5272 -1.7544 0
M  V30 6929 C 644.916 1.57596 -0.621289 0
M  V30 6930 O 646.122 1.61087 -0.803172 0
M  V30 6931 H 642.497 0.507772 -0.554682 0
M  V30 6932 H 644.468 1.30136 -2.68528 0
M  V30 6933 C 643.217 2.90165 -1.91571 0
M  V30 6934 H 642.54 2.87154 -2.78178 0
M  V30 6935 H 643.98 3.67211 -2.11972 0
M  V30 6936 C 642.439 3.29947 -0.680942 0
M  V30 6937 O 642.969 4.01403 0.154527 0
M  V30 6938 N 641.175 2.8593 -0.518894 0
M  V30 6939 H 640.722 2.2795 -1.19986 0
M  V30 6940 H 640.68 3.12907 0.305985 0
M  V30 6941 N 644.452 1.42507 0.673017 0
M  V30 6942 C 645.7 1.42789 1.43023 0
M  V30 6943 C 646.021 0.0459738 1.94946 0
M  V30 6944 O 645.291 -0.915765 1.73178 0
M  V30 6945 H 643.871 0.525657 0.530748 0
M  V30 6946 H 646.533 1.77944 0.795113 0
M  V30 6947 H 645.629 2.12872 2.28237 0
M  V30 6948 N 645.93 -0.909495 1.28709 0
M  V30 6949 C 646.893 -1.99399 1.13016 0
M  V30 6950 C 647.893 -1.60654 0.068536 0
M  V30 6951 O 649.083 -1.71334 0.314671 0
M  V30 6952 C 646.215 -3.33078 0.726085 0
M  V30 6953 H 647.408 -2.14751 2.09338 0
M  V30 6954 H 644.961 -1.09272 1.11756 0
M  V30 6955 H 645.696 -3.23428 -0.23771 0
M  V30 6956 H 645.481 -3.62562 1.49302 0
M  V30 6957 H 646.971 -4.12681 0.639058 0
M  V30 6958 N 647.408 -1.11026 -1.11852 0
M  V30 6959 C 648.638 -0.877544 -1.87037 0
M  V30 6960 C 649.046 0.575925 -1.80221 0
M  V30 6961 O 648.389 1.40916 -1.17849 0
M  V30 6962 C 648.451 -1.25529 -3.36872 0
M  V30 6963 C 648.115 -2.71704 -3.67459 0
M  V30 6964 C 649.112 -3.69931 -3.65304 0
M  V30 6965 C 646.797 -3.08243 -3.966 0
M  V30 6966 C 648.791 -5.02717 -3.9186 0
M  V30 6967 C 646.478 -4.41215 -4.22815 0
M  V30 6968 C 647.476 -5.38262 -4.20432 0
M  V30 6969 O 647.164 -6.68839 -4.45992 0
M  V30 6970 H 646.896 -0.314374 -0.598452 0
M  V30 6971 H 649.45 -1.48015 -1.42411 0
M  V30 6972 H 647.68 -0.595808 -3.82082 0
M  V30 6973 H 649.369 -0.999064 -3.93413 0
M  V30 6974 H 650.135 -3.43047 -3.42846 0
M  V30 6975 H 646.014 -2.33326 -3.97593 0
M  V30 6976 H 649.558 -5.78456 -3.89916 0
M  V30 6977 H 645.455 -4.67835 -4.44748 0
M  V30 6978 H 646.223 -6.74563 -4.63581 0
M  V30 6979 N 648.886 1.2938 -0.899927 0
M  V30 6980 C 649.833 2.27713 -0.376243 0
M  V30 6981 C 650.803 1.57016 0.541774 0
M  V30 6982 O 651.988 1.84997 0.466966 0
M  V30 6983 C 649.128 3.42889 0.39 0
M  V30 6984 C 648.241 4.28369 -0.558938 0
M  V30 6985 C 647.376 5.30726 0.224379 0
M  V30 6986 C 646.415 6.07862 -0.719068 0
M  V30 6987 N 645.552 7.02094 0.0298569 0
M  V30 6988 H 650.392 2.71888 -1.21988 0
M  V30 6989 H 647.929 1.33724 -0.612879 0
M  V30 6990 H 649.887 4.08443 0.850314 0
M  V30 6991 H 648.517 2.99743 1.19809 0
M  V30 6992 H 647.569 3.62986 -1.13777 0
M  V30 6993 H 648.881 4.82068 -1.2811 0
M  V30 6994 H 648.035 6.02098 0.745881 0
M  V30 6995 H 646.774 4.77759 0.979674 0
M  V30 6996 H 645.779 5.35353 -1.25207 0
M  V30 6997 H 647.004 6.62917 -1.4737 0
M  V30 6998 H 644.95 6.51496 0.767415 0
M  V30 6999 H 644.867 7.5335 -0.632391 0
M  V30 7000 H 646.135 7.77685 0.531615 0
M  V30 7001 N 650.364 0.662433 1.43002 0
M  V30 7002 C 651.61 0.179857 2.02001 0
M  V30 7003 C 651.943 -1.20625 1.52195 0
M  V30 7004 O 651.218 -1.80726 0.718911 0
M  V30 7005 C 651.501 0.200845 3.59539 0
M  V30 7006 C 651.354 1.62153 4.19555 0
M  V30 7007 C 652.673 -0.457738 4.37713 0
M  V30 7008 H 649.792 0.0668305 0.733964 0
M  V30 7009 H 652.434 0.84487 1.70182 0
M  V30 7010 H 650.584 -0.365411 3.86778 0
M  V30 7011 H 652.256 2.23908 4.03315 0
M  V30 7012 H 650.499 2.16601 3.75854 0
M  V30 7013 H 651.17 1.58799 5.28665 0
M  V30 7014 H 653.646 0.0241495 4.16093 0
M  V30 7015 H 652.522 -0.412363 5.47349 0
M  V30 7016 H 652.783 -1.53336 4.14657 0
M  V30 7017 N 651.842 -1.52309 0.404946 0
M  V30 7018 C 652.752 -2.30634 -0.429555 0
M  V30 7019 C 653.768 -1.38187 -1.05737 0
M  V30 7020 O 654.944 -1.71261 -1.05979 0
M  V30 7021 C 652.009 -3.10947 -1.53339 0
M  V30 7022 C 651.07 -4.19126 -0.929065 0
M  V30 7023 C 650.303 -4.95601 -1.9803 0
M  V30 7024 O 650.526 -4.72331 -3.1978 0
M  V30 7025 O 649.46 -5.80551 -1.58886 0
M  V30 7026 H 653.286 -3.0298 0.208963 0
M  V30 7027 H 650.871 -1.4845 0.168255 0
M  V30 7028 H 652.753 -3.60974 -2.1743 0
M  V30 7029 H 651.428 -2.41399 -2.15658 0
M  V30 7030 H 650.335 -3.73257 -0.250982 0
M  V30 7031 H 651.668 -4.90955 -0.349855 0
M  V30 7032 N 653.32 -0.135238 -1.57019 0
M  V30 7033 C 654.23 0.822226 -2.19719 0
M  V30 7034 C 655.246 1.28057 -1.17802 0
M  V30 7035 O 656.422 1.3402 -1.50335 0
M  V30 7036 C 653.487 2.0484 -2.79717 0
M  V30 7037 C 652.548 1.64042 -3.96723 0
M  V30 7038 C 651.781 2.80814 -4.53849 0
M  V30 7039 O 652.004 3.967 -4.0986 0
M  V30 7040 O 650.938 2.56963 -5.44292 0
M  V30 7041 H 654.764 0.318552 -3.02025 0
M  V30 7042 H 652.349 0.0912021 -1.49121 0
M  V30 7043 H 654.231 2.76622 -3.17897 0
M  V30 7044 H 652.906 2.54182 -2.00432 0
M  V30 7045 H 651.813 0.893182 -3.63281 0
M  V30 7046 H 653.146 1.19426 -4.77492 0
M  V30 7047 N 654.798 1.5699 0.138552 0
M  V30 7048 C 656.046 1.83446 0.848053 0
M  V30 7049 C 656.367 0.71744 1.81322 0
M  V30 7050 O 655.637 -0.260228 1.94164 0
M  V30 7051 H 654.217 0.676792 0.316166 0
M  V30 7052 H 656.879 1.94462 0.130538 0
M  V30 7053 H 655.975 2.78677 1.40518 0
M  V30 7054 N 656.276 -0.40816 1.52223 0
M  V30 7055 C 657.553 -1.16807 1.56893 0
M  V30 7056 C 657.933 -2.08169 0.350537 0
M  V30 7057 O 657.281 -2.18684 -0.662536 0
M  V30 7058 C 657.491 -1.94451 2.8981 0
M  V30 7059 C 658.839 -2.50484 3.42845 0
M  V30 7060 O 659.863 -2.0463 2.91556 0
M  V30 7061 O 658.722 -3.34192 4.3241 0
M  V30 7062 H 655.816 -0.533382 0.632007 0
M  V30 7063 H 658.362 -0.414862 1.64551 0
M  V30 7064 H 657.134 -1.27527 3.69936 0
M  V30 7065 H 656.757 -2.76775 2.85449 0
M  V30 7066 N 657.755 -1.42862 -0.66545 0
M  V30 7067 C 659.003 -1.43546 -1.42264 0
M  V30 7068 C 659.324 -0.0563116 -1.94919 0
M  V30 7069 O 658.594 0.906568 -1.73661 0
M  V30 7070 H 657.174 -0.528464 -0.527953 0
M  V30 7071 H 659.836 -1.78363 -0.785665 0
M  V30 7072 H 658.932 -2.14079 -2.27105 0
M  V30 7073 N 659.233 0.902656 -1.29189 0
M  V30 7074 C 660.51 1.63296 -1.07674 0
M  V30 7075 C 660.89 2.07649 0.380137 0
M  V30 7076 O 660.238 1.82997 1.36837 0
M  V30 7077 C 660.448 2.81603 -2.06158 0
M  V30 7078 C 661.796 3.52359 -2.36914 0
M  V30 7079 O 662.82 2.91767 -2.04329 0
M  V30 7080 O 661.679 4.61586 -2.92576 0
M  V30 7081 H 658.773 0.716889 -0.41231 0
M  V30 7082 H 661.319 0.950984 -1.4055 0
M  V30 7083 H 660.091 2.46004 -3.04299 0
M  V30 7084 H 659.714 3.57508 -1.73993 0
M  V30 7085 N 660.711 1.11618 1.11262 0
M  V30 7086 C 661.96 0.860934 1.82403 0
M  V30 7087 C 662.273 -0.615303 1.8567 0
M  V30 7088 O 663.479 -0.986861 2.52929 0
M  V30 7089 C 661.935 1.49048 3.27586 0
M  V30 7090 C 661.543 3.00089 3.32642 0
M  V30 7091 C 663.287 1.31515 4.03614 0
M  V30 7092 C 661.194 3.56019 4.72234 0
M  V30 7093 H 660.124 0.318423 0.683464 0
M  V30 7094 H 662.775 1.34165 1.25188 0
M  V30 7095 H 661.157 0.937434 3.84744 0
M  V30 7096 H 662.331 3.61813 2.85356 0
M  V30 7097 H 660.646 3.16919 2.70096 0
M  V30 7098 H 663.243 1.70732 5.0671 0
M  V30 7099 H 663.586 0.257917 4.155 0
M  V30 7100 H 664.119 1.83694 3.52848 0
M  V30 7101 H 660.858 4.61463 4.65545 0
M  V30 7102 H 660.378 2.99066 5.19923 0
M  V30 7103 H 662.057 3.54568 5.41193 0
M  V30 7104 N 662.189 -1.289 0.906776 0
M  V30 7105 C 663.605 -1.47733 0.603902 0
M  V30 7106 C 663.805 -1.82568 -0.852702 0
M  V30 7107 O 662.861 -1.92642 -1.63234 0
M  V30 7108 C 664.174 -2.58522 1.53581 0
M  V30 7109 C 665.722 -2.72394 1.54177 0
M  V30 7110 C 666.197 -3.86318 2.46013 0
M  V30 7111 N 667.688 -3.93661 2.441 0
M  V30 7112 C 668.423 -4.81177 3.11859 0
M  V30 7113 N 667.919 -5.73333 3.88923 0
M  V30 7114 N 669.712 -4.74728 3.00981 0
M  V30 7115 H 661.863 -1.04567 1.84877 0
M  V30 7116 H 664.126 -0.520118 0.792579 0
M  V30 7117 H 663.832 -2.39667 2.57396 0
M  V30 7118 H 663.706 -3.55475 1.26165 0
M  V30 7119 H 666.093 -2.90641 0.511034 0
M  V30 7120 H 666.174 -1.75993 1.85634 0
M  V30 7121 H 665.818 -3.68826 3.49185 0
M  V30 7122 H 665.748 -4.82102 2.11862 0
M  V30 7123 H 668.239 -3.27751 1.88115 0
M  V30 7124 H 668.552 -6.36923 4.37663 0
M  V30 7125 H 666.897 -5.73196 3.93029 0
M  V30 7126 H 670.088 -4.01722 2.40286 0
M  V30 7127 H 670.261 -5.42719 3.54062 0
M  V30 7128 N 663.667 -0.670007 -1.42649 0
M  V30 7129 C 664.944 -0.119451 -1.95235 0
M  V30 7130 C 665.324 1.36461 -1.61064 0
M  V30 7131 O 664.672 2.09843 -0.904329 0
M  V30 7132 C 664.882 -0.383498 -3.46887 0
M  V30 7133 C 666.23 -0.297431 -4.23557 0
M  V30 7134 O 667.254 -0.31698 -3.54787 0
M  V30 7135 O 666.113 -0.235507 -5.45992 0
M  V30 7136 H 663.207 -8.85474e-05 -0.827 0
M  V30 7137 H 665.753 -0.744406 -1.52501 0
M  V30 7138 H 664.525 -1.41174 -3.64946 0
M  V30 7139 H 664.148 0.273702 -3.96657 0
M  V30 7140 N 665.145 1.52092 -0.413018 0
M  V30 7141 C 666.556 1.86617 0.0556967 0
M  V30 7142 C 666.907 1.33156 1.44097 0
M  V30 7143 O 666.032 0.672417 2.05688 0
M  V30 7144 C 666.627 3.38628 0.107844 0
M  V30 7145 C 665.186 3.72778 0.520904 0
M  V30 7146 C 664.333 2.75649 -0.302109 0
M  V30 7147 H 667.284 1.45663 -0.629919 0
M  V30 7148 H 667.305 3.69152 0.922324 0
M  V30 7149 H 666.817 3.77508 -0.900506 0
M  V30 7150 H 664.918 3.39478 1.53575 0
M  V30 7151 H 665.031 4.7838 0.262591 0
M  V30 7152 H 663.395 2.53603 0.236115 0
M  V30 7153 H 664.178 3.17369 -1.30888 0
M  V30 7154 N 666.623 0.143563 1.56945 0
M  V30 7155 C 667.853 -0.514699 2.00086 0
M  V30 7156 C 668.261 -1.59184 1.0226 0
M  V30 7157 O 667.604 -1.83697 0.0110514 0
M  V30 7158 C 667.666 -1.17778 3.39659 0
M  V30 7159 C 667.33 -0.245657 4.56339 0
M  V30 7160 C 668.327 0.525343 5.17239 0
M  V30 7161 C 666.012 -0.149564 5.02077 0
M  V30 7162 C 668.006 1.37992 6.22284 0
M  V30 7163 C 665.693 0.708621 6.06978 0
M  V30 7164 C 666.691 1.47197 6.6695 0
M  V30 7165 O 666.379 2.31586 7.6982 0
M  V30 7166 H 666.111 -0.138789 0.661599 0
M  V30 7167 H 668.665 0.234098 2.04062 0
M  V30 7168 H 666.895 -1.97415 3.32512 0
M  V30 7169 H 668.584 -1.73542 3.6693 0
M  V30 7170 H 669.35 0.461118 4.82803 0
M  V30 7171 H 665.229 -0.733457 4.55128 0
M  V30 7172 H 668.773 1.97621 6.69023 0
M  V30 7173 H 664.67 0.77415 6.40841 0
M  V30 7174 H 665.438 2.24796 7.87025 0
M  V30 7175 N 668.101 -1.57061 -0.130224 0
M  V30 7176 C 669.031 -2.02552 -1.16168 0
M  V30 7177 C 670.012 -0.907971 -1.4384 0
M  V30 7178 O 671.197 -1.17693 -1.54473 0
M  V30 7179 C 668.327 -2.42035 -2.49071 0
M  V30 7180 C 667.281 -3.5713 -2.35886 0
M  V30 7181 C 666.607 -3.82478 -3.7365 0
M  V30 7182 C 667.907 -4.89236 -1.8288 0
M  V30 7183 H 669.601 -2.8897 -0.783359 0
M  V30 7184 H 667.147 -1.39021 -0.375376 0
M  V30 7185 H 669.1 -2.72462 -3.21469 0
M  V30 7186 H 667.824 -1.52573 -2.88771 0
M  V30 7187 H 666.483 -3.26895 -1.65938 0
M  V30 7188 H 666.131 -2.9024 -4.10816 0
M  V30 7189 H 665.831 -4.59944 -3.65685 0
M  V30 7190 H 667.355 -4.15347 -4.47571 0
M  V30 7191 H 668.769 -5.18272 -2.45085 0
M  V30 7192 H 667.166 -5.70624 -1.85763 0
M  V30 7193 H 668.236 -4.78494 -0.785571 0
M  V30 7194 N 669.579 0.400081 -1.52437 0
M  V30 7195 C 670.526 1.48803 -1.76426 0
M  V30 7196 C 671.496 1.5461 -0.607032 0
M  V30 7197 O 672.681 1.71041 -0.845563 0
M  V30 7198 C 669.821 2.86156 -1.92896 0
M  V30 7199 C 668.934 2.89587 -3.20567 0
M  V30 7200 C 668.069 4.18296 -3.27417 0
M  V30 7201 C 667.108 4.15736 -4.49255 0
M  V30 7202 N 666.245 5.36032 -4.53447 0
M  V30 7203 H 671.085 1.27649 -2.69276 0
M  V30 7204 H 668.622 0.619451 -1.33421 0
M  V30 7205 H 670.58 3.65901 -2.00429 0
M  V30 7206 H 669.21 3.05785 -1.03418 0
M  V30 7207 H 668.262 2.02278 -3.22161 0
M  V30 7208 H 669.574 2.83562 -4.10358 0
M  V30 7209 H 668.728 5.06439 -3.34072 0
M  V30 7210 H 667.467 4.27028 -2.35581 0
M  V30 7211 H 666.472 3.25982 -4.42737 0
M  V30 7212 H 667.697 4.08636 -5.42396 0
M  V30 7213 H 665.643 5.45415 -3.64498 0
M  V30 7214 H 665.56 5.32038 -5.37096 0
M  V30 7215 H 666.828 6.26104 -4.64343 0
M  V30 7216 N 671.057 1.43213 0.657864 0
M  V30 7217 C 671.989 1.43974 1.78337 0
M  V30 7218 C 673.002 0.336482 1.59285 0
M  V30 7219 O 674.191 0.600631 1.68091 0
M  V30 7220 C 671.291 1.23242 3.15697 0
M  V30 7221 C 670.464 2.46319 3.61449 0
M  V30 7222 C 669.523 2.2088 4.77597 0
M  V30 7223 O 668.549 2.942 4.87273 0
M  V30 7224 N 669.751 1.22251 5.67481 0
M  V30 7225 H 672.516 2.40993 1.78164 0
M  V30 7226 H 670.077 1.3831 0.841549 0
M  V30 7227 H 672.069 1.04113 3.91079 0
M  V30 7228 H 670.639 0.346849 3.1067 0
M  V30 7229 H 669.859 2.80904 2.76563 0
M  V30 7230 H 671.147 3.28239 3.88763 0
M  V30 7231 H 670.545 0.616433 5.62331 0
M  V30 7232 H 669.102 1.09107 6.42603 0
M  V30 7233 N 672.536 -0.895792 1.29666 0
M  V30 7234 C 673.486 -1.98736 1.1175 0
M  V30 7235 C 674.47 -1.6086 0.0357834 0
M  V30 7236 O 675.662 -1.75111 0.257926 0
M  V30 7237 C 672.791 -3.33845 0.800156 0
M  V30 7238 C 671.877 -3.78068 1.9216 0
M  V30 7239 N 672.268 -3.94489 3.16563 0
M  V30 7240 C 670.566 -4.07376 1.81552 0
M  V30 7241 C 671.267 -4.31819 3.89753 0
M  V30 7242 N 670.243 -4.41081 3.17724 0
M  V30 7243 H 674.045 -2.09507 2.06117 0
M  V30 7244 H 671.559 -1.08488 1.20848 0
M  V30 7245 H 673.556 -4.11757 0.652841 0
M  V30 7246 H 672.216 -3.24417 -0.135551 0
M  V30 7247 H 673.227 -3.79914 3.51974 0
M  V30 7248 H 669.904 -4.06483 0.952787 0
M  V30 7249 H 671.294 -4.52337 4.96831 0
M  V30 7250 N 674.014 -1.12206 -1.10668 0
M  V30 7251 C 674.944 -0.810086 -2.18997 0
M  V30 7252 C 675.925 0.225065 -1.68604 0
M  V30 7253 O 677.11 0.086783 -1.94006 0
M  V30 7254 C 674.24 -0.261262 -3.46316 0
M  V30 7255 C 673.194 -1.2292 -4.09969 0
M  V30 7256 C 672.52 -0.540713 -5.31959 0
M  V30 7257 C 673.82 -2.58295 -4.53962 0
M  V30 7258 H 675.514 -1.7159 -2.45352 0
M  V30 7259 H 673.06 -0.82646 -1.17922 0
M  V30 7260 H 675.013 -0.0307522 -4.21389 0
M  V30 7261 H 673.737 0.679879 -3.19445 0
M  V30 7262 H 672.396 -1.44548 -3.369 0
M  V30 7263 H 672.044 0.405492 -5.01363 0
M  V30 7264 H 671.744 -1.18637 -5.75499 0
M  V30 7265 H 673.268 -0.319184 -6.09765 0
M  V30 7266 H 674.682 -2.40709 -5.20319 0
M  V30 7267 H 673.079 -3.18916 -5.08343 0
M  V30 7268 H 674.149 -3.16918 -3.67002 0
M  V30 7269 N 675.492 1.28418 -0.913599 0
M  V30 7270 C 676.738 1.9527 -0.547484 0
M  V30 7271 C 677.071 1.71745 0.906486 0
M  V30 7272 O 676.346 1.03834 1.64465 0
M  V30 7273 C 676.629 3.49748 -0.857205 0
M  V30 7274 C 676.482 3.82675 -2.3639 0
M  V30 7275 C 677.801 4.3868 -0.353258 0
M  V30 7276 H 674.92 0.709236 -0.200381 0
M  V30 7277 H 677.562 1.51789 -1.14281 0
M  V30 7278 H 675.712 3.86915 -0.350548 0
M  V30 7279 H 677.384 3.55378 -2.94116 0
M  V30 7280 H 675.627 3.29724 -2.81894 0
M  V30 7281 H 676.298 4.90547 -2.53115 0
M  V30 7282 H 678.774 4.08584 -0.787288 0
M  V30 7283 H 677.65 5.45621 -0.599049 0
M  V30 7284 H 677.911 4.35753 0.746413 0
M  V30 7285 N 676.97 0.677563 1.42291 0
M  V30 7286 C 677.917 0.000947061 2.308 0
M  V30 7287 C 678.887 -0.789889 1.46116 0
M  V30 7288 O 680.072 -0.761578 1.74942 0
M  V30 7289 C 677.212 -0.942387 3.31984 0
M  V30 7290 C 676.325 -0.14508 4.31756 0
M  V30 7291 C 675.46 -1.08442 5.20013 0
M  V30 7292 C 674.499 -0.278958 6.11464 0
M  V30 7293 N 673.636 -1.17115 6.92263 0
M  V30 7294 H 678.476 0.761521 2.88106 0
M  V30 7295 H 676.013 0.38727 1.41911 0
M  V30 7296 H 677.971 -1.50317 3.89179 0
M  V30 7297 H 676.601 -1.66956 2.76271 0
M  V30 7298 H 675.653 0.532368 3.76656 0
M  V30 7299 H 676.965 0.48015 4.96484 0
M  V30 7300 H 676.119 -1.71504 5.81955 0
M  V30 7301 H 674.858 -1.74353 4.55469 0
M  V30 7302 H 673.863 0.364856 5.48588 0
M  V30 7303 H 675.088 0.376099 6.78058 0
M  V30 7304 H 673.034 -1.81661 6.30345 0
M  V30 7305 H 672.951 -0.601063 7.53607 0
M  V30 7306 H 674.219 -1.78915 7.58689 0
M  V30 7307 N 678.448 -1.51871 0.421078 0
M  V30 7308 C 679.676 -2.06356 -0.14994 0
M  V30 7309 C 680.091 -1.29006 -1.37851 0
M  V30 7310 O 679.448 -0.345139 -1.79207 0
M  V30 7311 C 679.499 -3.58185 -0.488454 0
M  V30 7312 O 679.22 -4.32611 0.691341 0
M  V30 7313 C 680.721 -4.29129 -1.11191 0
M  V30 7314 H 677.941 -0.67083 -0.0151186 0
M  V30 7315 H 680.485 -1.95638 0.595476 0
M  V30 7316 H 678.64 -3.68871 -1.18376 0
M  V30 7317 H 679.054 -5.22927 0.405906 0
M  V30 7318 H 680.528 -5.36501 -1.29889 0
M  V30 7319 H 681.005 -3.86371 -2.0884 0
M  V30 7320 H 681.611 -4.22843 -0.456458 0
M  V30 7321 N 679.926 -0.151884 -1.56866 0
M  V30 7322 C 681.156 0.504081 -2.00356 0
M  V30 7323 C 681.564 1.58639 -1.03103 0
M  V30 7324 O 680.907 1.83688 -0.0207931 0
M  V30 7325 C 680.969 1.15975 -3.40279 0
M  V30 7326 C 680.633 0.221453 -4.56463 0
M  V30 7327 C 681.63 -0.552766 -5.16953 0
M  V30 7328 C 679.315 0.122936 -5.0215 0
M  V30 7329 C 681.309 -1.4129 -6.21543 0
M  V30 7330 C 678.996 -0.740801 -6.06593 0
M  V30 7331 C 679.994 -1.50732 -6.6616 0
M  V30 7332 O 679.682 -2.35666 -7.68581 0
M  V30 7333 H 679.414 0.135279 -0.662326 0
M  V30 7334 H 681.968 -0.244916 -2.03935 0
M  V30 7335 H 680.198 1.95649 -3.33554 0
M  V30 7336 H 681.887 1.71594 -3.67846 0
M  V30 7337 H 682.653 -0.486716 -4.82552 0
M  V30 7338 H 678.532 0.70931 -4.5551 0
M  V30 7339 H 682.076 -2.01166 -6.67966 0
M  V30 7340 H 677.973 -0.808125 -6.40421 0
M  V30 7341 H 678.741 -2.28967 -7.85822 0
M  V30 7342 N 681.404 1.57128 0.121893 0
M  V30 7343 C 682.651 1.847 0.830188 0
M  V30 7344 C 682.979 0.736543 1.80015 0
M  V30 7345 O 682.234 -0.272358 1.93796 0
M  V30 7346 C 682.533 3.1874 1.61677 0
M  V30 7347 C 682.199 4.43901 0.791361 0
M  V30 7348 C 680.861 4.77887 0.563731 0
M  V30 7349 C 683.213 5.20753 0.215823 0
M  V30 7350 C 680.541 5.86168 -0.249737 0
M  V30 7351 C 682.893 6.29891 -0.584821 0
M  V30 7352 C 681.557 6.6241 -0.822794 0
M  V30 7353 H 680.827 0.675866 0.303787 0
M  V30 7354 H 683.474 1.91276 0.0926894 0
M  V30 7355 H 681.779 3.07728 2.42509 0
M  V30 7356 H 683.476 3.37295 2.16872 0
M  V30 7357 H 680.066 4.17272 0.978867 0
M  V30 7358 H 684.25 4.94851 0.378907 0
M  V30 7359 H 679.506 6.0979 -0.44336 0
M  V30 7360 H 683.68 6.88624 -1.03779 0
M  V30 7361 H 681.307 7.46147 -1.45496 0
M  V30 7362 N 682.882 -0.391992 1.52647 0
M  V30 7363 C 684.128 -1.139 1.67793 0
M  V30 7364 C 684.461 -1.89711 0.41514 0
M  V30 7365 O 683.736 -1.85431 -0.586979 0
M  V30 7366 C 684.019 -2.11966 2.91105 0
M  V30 7367 C 683.872 -1.39939 4.27478 0
M  V30 7368 C 685.191 -3.1243 3.09961 0
M  V30 7369 H 682.31 -0.412707 0.610608 0
M  V30 7370 H 684.952 -0.422725 1.85238 0
M  V30 7371 H 683.102 -2.73048 2.76364 0
M  V30 7372 H 684.774 -0.818439 4.53982 0
M  V30 7373 H 683.017 -0.701246 4.28095 0
M  V30 7374 H 683.688 -2.1158 5.09841 0
M  V30 7375 H 686.164 -2.61435 3.23714 0
M  V30 7376 H 685.04 -3.78294 3.97725 0
M  V30 7377 H 685.301 -3.81127 2.24042 0
M  V30 7378 N 684.36 -1.4356 -0.65026 0
M  V30 7379 C 685.609 -1.44619 -1.406 0
M  V30 7380 C 685.922 -0.0752645 -1.95455 0
M  V30 7381 O 687.128 0.0366832 -2.71475 0
M  V30 7382 C 685.584 -2.54511 -2.54465 0
M  V30 7383 C 685.192 -3.97723 -2.06204 0
M  V30 7384 C 686.936 -2.64768 -3.31811 0
M  V30 7385 C 684.843 -4.99075 -3.17298 0
M  V30 7386 H 683.773 -0.537983 -0.52829 0
M  V30 7387 H 686.424 -1.69559 -0.701561 0
M  V30 7388 H 684.806 -2.22777 -3.27393 0
M  V30 7389 H 685.98 -4.38932 -1.40267 0
M  V30 7390 H 684.295 -3.91538 -1.41729 0
M  V30 7391 H 686.892 -3.37664 -4.14593 0
M  V30 7392 H 687.235 -1.69936 -3.80036 0
M  V30 7393 H 687.768 -2.95817 -2.65964 0
M  V30 7394 H 684.507 -5.95469 -2.74038 0
M  V30 7395 H 684.027 -4.62476 -3.81937 0
M  V30 7396 H 685.706 -5.21913 -3.82382 0
M  V30 7397 N 685.838 0.888903 -1.30139 0
M  V30 7398 C 686.786 2.0156 -1.16088 0
M  V30 7399 C 687.78 1.69239 -0.0737413 0
M  V30 7400 O 688.986 1.78468 -0.234313 0
M  V30 7401 H 685.361 0.660825 -0.358907 0
M  V30 7402 H 687.332 2.10547 -2.11453 0
M  V30 7403 C 686.081 3.36758 -0.865426 0
M  V30 7404 H 685.404 3.62137 -1.69402 0
M  V30 7405 H 686.844 4.16246 -0.807192 0
M  V30 7406 C 685.303 3.34124 0.431577 0
M  V30 7407 O 685.833 3.7445 1.45431 0
M  V30 7408 N 684.039 2.87229 0.441321 0
M  V30 7409 H 683.586 2.54609 -0.391433 0
M  V30 7410 H 683.544 2.8585 1.30909 0
M  V30 7411 N 687.317 1.12792 1.10072 0
M  V30 7412 C 688.728 0.899346 1.63611 0
M  V30 7413 C 689.079 -0.565547 1.87872 0
M  V30 7414 O 688.204 -1.43081 1.62348 0
M  V30 7415 C 688.799 1.62608 2.97227 0
M  V30 7416 C 687.358 1.44356 3.47618 0
M  V30 7417 C 686.505 1.65958 2.22156 0
M  V30 7418 H 689.456 1.28216 0.935223 0
M  V30 7419 H 689.477 1.0793 3.64872 0
M  V30 7420 H 688.989 2.69221 2.79538 0
M  V30 7421 H 687.09 0.400148 3.70445 0
M  V30 7422 H 687.203 2.20218 4.25489 0
M  V30 7423 H 685.567 1.08395 2.30484 0
M  V30 7424 H 686.35 2.73877 2.06993 0
M  V30 7425 N 688.795 -1.27931 0.920396 0
M  V30 7426 C 689.742 -2.27085 0.412422 0
M  V30 7427 C 690.712 -1.57858 -0.516725 0
M  V30 7428 O 691.897 -1.85717 -0.437475 0
M  V30 7429 C 689.037 -3.43466 -0.335399 0
M  V30 7430 C 688.15 -4.27425 0.627017 0
M  V30 7431 C 687.285 -5.31016 -0.139916 0
M  V30 7432 C 686.324 -6.06641 0.815683 0
M  V30 7433 N 685.461 -7.02052 0.0818439 0
M  V30 7434 H 690.301 -2.69913 1.26298 0
M  V30 7435 H 687.838 -1.32732 0.634076 0
M  V30 7436 H 689.796 -4.09744 -0.785226 0
M  V30 7437 H 688.426 -3.01611 -1.15025 0
M  V30 7438 H 687.478 -3.6113 1.19537 0
M  V30 7439 H 688.79 -4.79969 1.35763 0
M  V30 7440 H 687.944 -6.03208 -0.649998 0
M  V30 7441 H 686.683 -4.79257 -0.903543 0
M  V30 7442 H 685.688 -5.33294 1.33708 0
M  V30 7443 H 686.913 -6.60489 1.57897 0
M  V30 7444 H 684.859 -6.52634 -0.663671 0
M  V30 7445 H 684.776 -7.52249 0.752163 0
M  V30 7446 H 686.044 -7.78432 -0.407825 0
M  V30 7447 N 690.273 -0.685099 -1.4193 0
M  V30 7448 C 691.521 -0.21124 -2.00993 0
M  V30 7449 C 691.842 1.18985 -1.54491 0
M  V30 7450 O 691.112 1.8009 -0.771 0
M  V30 7451 H 689.692 -0.0751059 -0.743215 0
M  V30 7452 H 692.354 -0.883915 -1.73704 0
M  V30 7453 H 691.45 -0.220513 -3.1132 0
M  V30 7454 N 691.751 1.51645 -0.429126 0
M  V30 7455 C 692.661 2.31288 0.392809 0
M  V30 7456 C 693.677 1.39852 1.03525 0
M  V30 7457 O 694.853 1.72926 1.03241 0
M  V30 7458 C 691.918 3.13347 1.48372 0
M  V30 7459 C 690.979 4.20551 0.862268 0
M  V30 7460 C 690.212 4.98688 1.9012 0
M  V30 7461 O 690.435 4.77359 3.12225 0
M  V30 7462 O 689.369 5.83005 1.4963 0
M  V30 7463 H 693.195 3.02609 -0.257138 0
M  V30 7464 H 690.78 1.48163 -0.191851 0
M  V30 7465 H 692.662 3.64387 2.1166 0
M  V30 7466 H 691.337 2.44799 2.1179 0
M  V30 7467 H 690.244 3.73609 0.191568 0
M  V30 7468 H 691.577 4.91449 0.271704 0
M  V30 7469 N 693.229 0.160201 1.56784 0
M  V30 7470 C 694.645 -0.196089 1.58391 0
M  V30 7471 C 694.845 -1.63689 1.17508 0
M  V30 7472 O 693.901 -2.36613 0.881506 0
M  V30 7473 C 695.214 0.0746449 3.00607 0
M  V30 7474 C 696.762 0.0119762 3.12998 0
M  V30 7475 C 697.237 0.255551 4.57286 0
M  V30 7476 N 698.728 0.202938 4.62755 0
M  V30 7477 C 699.463 0.365731 5.72232 0
M  V30 7478 N 698.959 0.586972 6.90309 0
M  V30 7479 N 700.752 0.302411 5.61286 0
M  V30 7480 H 692.903 1.1008 1.81648 0
M  V30 7481 H 695.166 0.436779 0.841384 0
M  V30 7482 H 694.872 1.07231 3.34954 0
M  V30 7483 H 694.746 -0.638802 3.71751 0
M  V30 7484 H 697.133 -0.976254 2.78484 0
M  V30 7485 H 697.214 0.75796 2.44313 0
M  V30 7486 H 696.858 1.24094 4.92507 0
M  V30 7487 H 696.788 -0.510912 5.24116 0
M  V30 7488 H 699.279 0.0371328 3.77882 0
M  V30 7489 H 699.592 0.700941 7.69615 0
M  V30 7490 H 697.937 0.623453 6.92198 0
M  V30 7491 H 701.128 0.130238 4.67919 0
M  V30 7492 H 701.301 0.432712 6.46554 0
M  V30 7493 N 694.707 -1.5719 -0.113559 0
M  V30 7494 C 696.123 -1.52607 -0.467253 0
M  V30 7495 C 696.323 -0.874058 -1.81556 0
M  V30 7496 O 695.379 -0.458703 -2.48299 0
M  V30 7497 C 696.692 -2.97363 -0.446736 0
M  V30 7498 C 698.24 -3.08482 -0.529903 0
M  V30 7499 C 698.715 -4.54809 -0.539721 0
M  V30 7500 N 700.206 -4.59284 -0.601005 0
M  V30 7501 C 700.941 -5.69927 -0.630138 0
M  V30 7502 N 700.437 -6.90051 -0.616589 0
M  V30 7503 N 702.23 -5.5805 -0.673558 0
M  V30 7504 H 694.381 -1.97958 0.769819 0
M  V30 7505 H 696.644 -0.90428 0.284572 0
M  V30 7506 H 696.35 -3.48458 0.47643 0
M  V30 7507 H 696.224 -3.55086 -1.27254 0
M  V30 7508 H 698.611 -2.57386 -1.44349 0
M  V30 7509 H 698.692 -2.53744 0.323695 0
M  V30 7510 H 698.336 -5.06552 0.369843 0
M  V30 7511 H 698.266 -5.07364 -1.41028 0
M  V30 7512 H 700.757 -3.72822 -0.617419 0
M  V30 7513 H 701.07 -7.70132 -0.641592 0
M  V30 7514 H 699.415 -6.92543 -0.583927 0
M  V30 7515 H 702.606 -4.63112 -0.681544 0
M  V30 7516 H 702.779 -6.44286 -0.692794 0
M  V30 7517 N 696.185 0.383891 -1.52853 0
M  V30 7518 C 697.41 1.154 -1.7233 0
M  V30 7519 C 697.835 1.82809 -0.44298 0
M  V30 7520 O 697.193 1.71026 0.601645 0
M  V30 7521 C 697.241 2.17386 -2.87708 0
M  V30 7522 O 696.345 3.24082 -2.55038 0
M  V30 7523 H 695.686 0.335709 -0.572883 0
M  V30 7524 H 698.216 0.44662 -1.99666 0
M  V30 7525 H 698.226 2.61296 -3.1335 0
M  V30 7526 H 696.901 1.6771 -3.80587 0
M  V30 7527 H 695.478 2.85273 -2.40153 0
M  V30 7528 N 697.663 1.43903 0.642637 0
M  V30 7529 C 699.074 1.40975 1.22404 0
M  V30 7530 C 699.425 0.1192 1.95838 0
M  V30 7531 O 698.55 -0.780939 2.01818 0
M  V30 7532 C 699.145 2.5538 2.22636 0
M  V30 7533 C 697.704 2.55684 2.76229 0
M  V30 7534 C 696.851 2.32556 1.51039 0
M  V30 7535 H 699.802 1.5265 0.434006 0
M  V30 7536 H 699.823 2.27474 3.05017 0
M  V30 7537 H 699.335 3.49294 1.69161 0
M  V30 7538 H 697.436 1.65679 3.33738 0
M  V30 7539 H 697.549 3.53799 3.23053 0
M  V30 7540 H 695.913 1.81427 1.78764 0
M  V30 7541 H 696.696 3.28569 0.99484 0
M  V30 7542 N 699.141 -0.881989 1.30609 0
M  V30 7543 C 700.073 -1.99375 1.13058 0
M  V30 7544 C 701.086 -1.62636 0.0729879 0
M  V30 7545 O 702.275 -1.75621 0.319301 0
M  V30 7546 C 699.375 -3.31536 0.702651 0
M  V30 7547 C 698.548 -3.96693 1.84265 0
M  V30 7548 C 697.607 -5.07158 1.40277 0
M  V30 7549 O 696.633 -5.28628 2.11048 0
M  V30 7550 N 697.835 -5.79808 0.283449 0
M  V30 7551 H 700.6 -2.14981 2.08814 0
M  V30 7552 H 698.161 -1.05526 1.22784 0
M  V30 7553 H 700.153 -4.02804 0.391331 0
M  V30 7554 H 698.723 -3.12175 -0.162954 0
M  V30 7555 H 697.943 -3.1856 2.32192 0
M  V30 7556 H 699.231 -4.36964 2.60653 0
M  V30 7557 H 698.629 -5.64871 -0.306189 0
M  V30 7558 H 697.186 -6.51792 0.0315985 0
M  V30 7559 N 700.619 -1.13374 -1.09472 0
M  V30 7560 C 701.569 -0.77946 -2.14263 0
M  V30 7561 C 702.553 0.226271 -1.59301 0
M  V30 7562 O 703.745 0.0302581 -1.76974 0
M  V30 7563 C 700.874 -0.246635 -3.42413 0
M  V30 7564 C 699.96 -1.28124 -4.04283 0
M  V30 7565 N 700.351 -2.48201 -4.40715 0
M  V30 7566 C 698.649 -1.12892 -4.31476 0
M  V30 7567 C 699.35 -3.14347 -4.8945 0
M  V30 7568 N 698.326 -2.41771 -4.86876 0
M  V30 7569 H 702.128 -1.69305 -2.40235 0
M  V30 7570 H 699.642 -1.01598 -1.26695 0
M  V30 7571 H 701.639 0.0254131 -4.16892 0
M  V30 7572 H 700.299 0.661287 -3.17895 0
M  V30 7573 H 701.31 -2.85511 -4.32093 0
M  V30 7574 H 697.987 -0.279117 -4.16566 0
M  V30 7575 H 699.377 -4.16663 -5.27107 0
M  V30 7576 N 702.098 1.27442 -0.927168 0
M  V30 7577 C 703.028 2.29256 -0.443188 0
M  V30 7578 C 704.009 1.62701 0.49624 0
M  V30 7579 O 705.194 1.90013 0.401105 0
M  V30 7580 C 702.324 3.45955 0.305366 0
M  V30 7581 C 701.278 4.24501 -0.546178 0
M  V30 7582 C 700.604 5.33671 0.331512 0
M  V30 7583 C 701.904 4.89921 -1.81037 0
M  V30 7584 H 703.598 2.69988 -1.29409 0
M  V30 7585 H 701.144 1.29792 -0.623705 0
M  V30 7586 H 703.097 4.1628 0.654885 0
M  V30 7587 H 701.821 3.04138 1.19029 0
M  V30 7588 H 700.48 3.55921 -0.878398 0
M  V30 7589 H 700.128 4.88096 1.21537 0
M  V30 7590 H 699.828 5.87131 -0.234746 0
M  V30 7591 H 701.352 6.0684 0.676614 0
M  V30 7592 H 702.766 5.52536 -1.52895 0
M  V30 7593 H 701.163 5.53436 -2.32009 0
M  V30 7594 H 702.233 4.13652 -2.53021 0
M  V30 7595 N 703.576 0.692616 1.41565 0
M  V30 7596 C 704.823 0.222335 2.01276 0
M  V30 7597 C 705.151 -1.17706 1.5484 0
M  V30 7598 O 704.406 -1.80795 0.749118 0
M  V30 7599 C 704.705 0.225073 3.56691 0
M  V30 7600 C 704.371 1.57158 4.22625 0
M  V30 7601 C 703.033 1.94022 4.40351 0
M  V30 7602 C 705.385 2.45758 4.59622 0
M  V30 7603 C 702.713 3.19076 4.92349 0
M  V30 7604 C 705.065 3.70141 5.13009 0
M  V30 7605 C 703.729 4.07152 5.28946 0
M  V30 7606 H 702.999 0.0813581 0.73652 0
M  V30 7607 H 705.646 0.891123 1.69503 0
M  V30 7608 H 703.951 -0.527259 3.88236 0
M  V30 7609 H 705.648 -0.156283 4.00695 0
M  V30 7610 H 702.238 1.27486 4.09201 0
M  V30 7611 H 706.422 2.18558 4.45585 0
M  V30 7612 H 701.678 3.4775 5.02872 0
M  V30 7613 H 705.852 4.38983 5.40617 0
M  V30 7614 H 703.479 5.04125 5.69001 0
M  V30 7615 N 705.054 -1.51416 0.437162 0
M  V30 7616 C 706.47 -1.59349 0.0894459 0
M  V30 7617 C 706.67 -1.44809 -1.40116 0
M  V30 7618 O 705.726 -1.28924 -2.17106 0
M  V30 7619 C 707.039 -2.9446 0.609398 0
M  V30 7620 C 708.587 -3.07769 0.569824 0
M  V30 7621 C 709.062 -4.45404 1.06675 0
M  V30 7622 N 710.553 -4.51723 1.02473 0
M  V30 7623 C 711.288 -5.56544 1.3801 0
M  V30 7624 N 710.784 -6.68784 1.80831 0
M  V30 7625 N 712.577 -5.46901 1.29828 0
M  V30 7626 H 704.728 -1.59112 1.40703 0
M  V30 7627 H 706.991 -0.750031 0.579791 0
M  V30 7628 H 706.697 -3.1047 1.65231 0
M  V30 7629 H 706.571 -3.77184 0.0342236 0
M  V30 7630 H 708.958 -2.91428 -0.464107 0
M  V30 7631 H 709.039 -2.26885 1.1814 0
M  V30 7632 H 708.683 -4.62492 2.09914 0
M  V30 7633 H 708.613 -5.24827 0.431712 0
M  V30 7634 H 711.104 -3.71165 0.710258 0
M  V30 7635 H 711.417 -7.44787 2.06185 0
M  V30 7636 H 709.762 -6.69992 1.84757 0
M  V30 7637 H 712.953 -4.581 0.962397 0
M  V30 7638 H 713.126 -6.2848 1.57851 0
M  V30 7639 N 706.532 -0.168513 -1.56696 0
M  V30 7640 C 707.943 0.348694 -1.83415 0
M  V30 7641 C 708.294 1.63257 -1.0882 0
M  V30 7642 O 707.419 2.13707 -0.340333 0
M  V30 7643 C 708.014 0.639423 -3.32711 0
M  V30 7644 C 706.573 1.10108 -3.59935 0
M  V30 7645 C 705.72 0.135464 -2.76969 0
M  V30 7646 H 708.671 -0.392829 -1.53761 0
M  V30 7647 H 708.692 1.49179 -3.50037 0
M  V30 7648 H 708.204 -0.295173 -3.86976 0
M  V30 7649 H 706.305 2.05088 -3.11079 0
M  V30 7650 H 706.418 1.01218 -4.68286 0
M  V30 7651 H 704.782 0.632286 -2.46727 0
M  V30 7652 H 705.565 -0.793104 -3.34013 0
M  V30 7653 N 708.01 1.57248 0.105221 0
M  V30 7654 C 709.426 1.52853 0.459153 0
M  V30 7655 C 709.626 0.883674 1.8109 0
M  V30 7656 O 708.682 0.471864 2.48052 0
M  V30 7657 C 709.995 2.97596 0.43096 0
M  V30 7658 C 711.543 3.08758 0.513536 0
M  V30 7659 C 712.018 4.55089 0.515593 0
M  V30 7660 N 713.509 4.59597 0.576639 0
M  V30 7661 C 714.244 5.70253 0.599904 0
M  V30 7662 N 713.74 6.90368 0.579985 0
M  V30 7663 N 715.533 5.58399 0.643953 0
M  V30 7664 H 707.684 1.97547 -0.780306 0
M  V30 7665 H 709.947 0.902758 -0.289363 0
M  V30 7666 H 709.653 3.48201 -0.494903 0
M  V30 7667 H 709.527 3.55756 1.2537 0
M  V30 7668 H 711.914 2.58148 1.42982 0
M  V30 7669 H 711.995 2.53568 -0.337148 0
M  V30 7670 H 711.639 5.06348 -0.396701 0
M  V30 7671 H 711.569 5.08105 1.38335 0
M  V30 7672 H 714.06 3.73144 0.597639 0
M  V30 7673 H 714.373 7.70462 0.600741 0
M  V30 7674 H 712.718 6.92843 0.547191 0
M  V30 7675 H 715.909 4.63467 0.656975 0
M  V30 7676 H 716.082 6.44644 0.658616 0
M  V30 7677 N 709.488 -0.375779 1.53054 0
M  V30 7678 C 710.438 -1.45965 1.75152 0
M  V30 7679 C 711.422 -1.49059 0.605823 0
M  V30 7680 O 712.614 -1.54472 0.864133 0
M  V30 7681 C 709.743 -2.83524 1.93569 0
M  V30 7682 C 708.829 -2.84949 3.1411 0
M  V30 7683 N 709.22 -2.56029 4.36214 0
M  V30 7684 C 707.518 -3.16113 3.14625 0
M  V30 7685 C 708.219 -2.64873 5.17897 0
M  V30 7686 N 707.195 -2.99159 4.53878 0
M  V30 7687 H 710.997 -1.22454 2.67175 0
M  V30 7688 H 708.511 -0.583867 1.51541 0
M  V30 7689 H 710.508 -3.61578 2.07525 0
M  V30 7690 H 709.168 -3.08008 1.02768 0
M  V30 7691 H 710.179 -2.29808 4.64121 0
M  V30 7692 H 706.856 -3.45977 2.3368 0
M  V30 7693 H 708.246 -2.45947 6.25268 0
M  V30 7694 N 710.966 -1.44241 -0.634997 0
M  V30 7695 C 712.194 -1.50296 -1.42193 0
M  V30 7696 C 712.609 -0.12658 -1.88375 0
M  V30 7697 O 711.966 0.86678 -1.60603 0
M  V30 7698 C 712.017 -2.46437 -2.64482 0
M  V30 7699 O 711.738 -3.78724 -2.20226 0
M  V30 7700 C 713.239 -2.61918 -3.57651 0
M  V30 7701 H 710.459 -0.509865 -0.43621 0
M  V30 7702 H 713.003 -1.89167 -0.776921 0
M  V30 7703 H 711.158 -2.10712 -3.25083 0
M  V30 7704 H 711.572 -4.30595 -2.9948 0
M  V30 7705 H 713.046 -3.33225 -4.40074 0
M  V30 7706 H 713.523 -1.67017 -4.06204 0
M  V30 7707 H 714.129 -2.98528 -3.02921 0
M  V30 7708 N 712.444 0.87505 -1.31075 0
M  V30 7709 C 713.374 1.99775 -1.20881 0
M  V30 7710 C 714.355 1.69822 -0.0971612 0
M  V30 7711 O 715.54 1.92158 -0.280895 0
M  V30 7712 C 712.67 3.35163 -0.910118 0
M  V30 7713 C 711.624 3.79406 -1.98078 0
M  V30 7714 C 710.95 5.12197 -1.53488 0
M  V30 7715 C 712.25 3.97061 -3.39323 0
M  V30 7716 H 713.944 2.08562 -2.14808 0
M  V30 7717 H 711.49 1.00207 -1.03415 0
M  V30 7718 H 713.443 4.13237 -0.825423 0
M  V30 7719 H 712.167 3.26536 0.064822 0
M  V30 7720 H 710.826 3.03568 -2.05528 0
M  V30 7721 H 710.474 5.00007 -0.547941 0
M  V30 7722 H 710.174 5.4277 -2.2511 0
M  V30 7723 H 711.698 5.92785 -1.46417 0
M  V30 7724 H 713.112 4.65545 -3.34576 0
M  V30 7725 H 711.509 4.39025 -4.09118 0
M  V30 7726 H 712.579 3.00601 -3.80483 0
M  V30 7727 N 713.922 1.13953 1.08869 0
M  V30 7728 C 715.199 0.815768 1.77777 0
M  V30 7729 C 715.579 -0.691624 1.99449 0
M  V30 7730 O 714.927 -1.63085 1.60049 0
M  V30 7731 C 715.137 1.60916 3.09689 0
M  V30 7732 C 716.485 1.80549 3.84301 0
M  V30 7733 O 717.509 1.57562 3.19457 0
M  V30 7734 O 716.368 2.18946 5.00724 0
M  V30 7735 H 713.462 0.298445 0.771271 0
M  V30 7736 H 716.008 1.24446 1.15374 0
M  V30 7737 H 714.78 2.6333 2.89435 0
M  V30 7738 H 714.403 1.17578 3.79817 0
M  V30 7739 N 715.4 -1.26948 0.933913 0
M  V30 7740 C 716.648 -1.93704 0.576484 0
M  V30 7741 C 716.969 -1.73702 -0.886145 0
M  V30 7742 O 716.239 -1.08838 -1.62884 0
M  V30 7743 H 714.819 -0.716812 0.210214 0
M  V30 7744 H 717.481 -1.54534 1.18766 0
M  V30 7745 H 716.577 -3.01987 0.788055 0
M  V30 7746 N 716.879 -0.700114 -1.41195 0
M  V30 7747 C 717.842 -0.0465706 -2.29153 0
M  V30 7748 C 718.842 0.703302 -1.44604 0
M  V30 7749 O 720.032 0.537513 -1.657 0
M  V30 7750 C 717.164 0.944324 -3.2756 0
M  V30 7751 H 718.357 -0.821064 -2.88442 0
M  V30 7752 H 715.91 -0.463869 -1.49258 0
M  V30 7753 H 716.645 1.74642 -2.73259 0
M  V30 7754 H 716.43 0.409701 -3.89954 0
M  V30 7755 H 717.92 1.39925 -3.9346 0
M  V30 7756 N 718.357 1.51182 -0.445186 0
M  V30 7757 C 719.304 2.27939 0.362291 0
M  V30 7758 C 720.274 1.31864 1.01 0
M  V30 7759 O 721.459 1.60776 1.02741 0
M  V30 7760 C 718.599 3.13016 1.45311 0
M  V30 7761 C 717.712 4.24093 0.822757 0
M  V30 7762 C 716.847 4.96467 1.88928 0
M  V30 7763 C 715.886 5.99454 1.23778 0
M  V30 7764 N 715.023 6.65206 2.24602 0
M  V30 7765 H 719.863 2.965 -0.29862 0
M  V30 7766 H 717.4 1.46237 -0.15911 0
M  V30 7767 H 719.358 3.60673 2.09692 0
M  V30 7768 H 717.988 2.46553 2.08354 0
M  V30 7769 H 717.04 3.80341 0.0670364 0
M  V30 7770 H 718.352 4.97853 0.307184 0
M  V30 7771 H 717.506 5.47712 2.60953 0
M  V30 7772 H 716.245 4.22355 2.4386 0
M  V30 7773 H 715.25 5.47494 0.503042 0
M  V30 7774 H 716.475 6.75527 0.695694 0
M  V30 7775 H 714.421 5.93901 2.78599 0
M  V30 7776 H 714.338 7.34756 1.77958 0
M  V30 7777 H 715.606 7.21078 2.96085 0
M  V30 7778 N 719.835 0.176821 1.56605 0
M  V30 7779 C 720.768 -0.790135 2.14084 0
M  V30 7780 C 721.746 -1.22219 1.07244 0
M  V30 7781 O 722.93 -1.31298 1.35252 0
M  V30 7782 C 720.057 -2.06475 2.68488 0
M  V30 7783 C 719.103 -1.77628 3.87751 0
M  V30 7784 S 719.936 -0.940612 5.27174 0
M  V30 7785 C 721.092 -2.22577 5.84988 0
M  V30 7786 H 721.325 -0.30144 2.95768 0
M  V30 7787 H 718.858 -0.0379279 1.54353 0
M  V30 7788 H 720.816 -2.79683 3.00479 0
M  V30 7789 H 719.477 -2.52457 1.8688 0
M  V30 7790 H 718.67 -2.72215 4.24164 0
M  V30 7791 H 718.272 -1.12512 3.56675 0
M  V30 7792 H 720.564 -3.17992 5.98237 0
M  V30 7793 H 721.507 -1.90624 6.81959 0
M  V30 7794 H 721.915 -2.34588 5.13448 0
M  V30 7795 N 721.313 -1.57302 -0.09688 0
M  V30 7796 C 722.729 -1.53094 -0.451041 0
M  V30 7797 C 722.929 -0.893265 -1.80618 0
M  V30 7798 O 721.985 -0.485013 -2.47798 0
M  V30 7799 C 723.298 -2.9782 -0.415172 0
M  V30 7800 C 724.846 -3.09026 -0.497155 0
M  V30 7801 C 725.321 -4.55356 -0.491452 0
M  V30 7802 N 726.812 -4.59896 -0.552258 0
M  V30 7803 C 727.547 -5.70563 -0.569654 0
M  V30 7804 N 727.043 -6.90666 -0.543365 0
M  V30 7805 N 728.836 -5.58733 -0.614331 0
M  V30 7806 H 720.987 -1.97131 0.790771 0
M  V30 7807 H 723.25 -0.901211 0.294147 0
M  V30 7808 H 722.956 -3.47933 0.513362 0
M  V30 7809 H 722.83 -3.56416 -1.23481 0
M  V30 7810 H 725.217 -2.58902 -1.41611 0
M  V30 7811 H 725.298 -2.53386 0.35059 0
M  V30 7812 H 724.942 -5.06131 0.423549 0
M  V30 7813 H 724.872 -5.08832 -1.35639 0
M  V30 7814 H 727.363 -3.73456 -0.577842 0
M  V30 7815 H 727.676 -7.70769 -0.559873 0
M  V30 7816 H 726.021 -6.93123 -0.510441 0
M  V30 7817 H 729.212 -4.63809 -0.632387 0
M  V30 7818 H 729.385 -6.44984 -0.62442 0
M  V30 7819 N 722.791 0.367657 -1.53252 0
M  V30 7820 C 723.754 1.43308 -1.78873 0
M  V30 7821 C 724.754 1.46671 -0.659115 0
M  V30 7822 O 725.944 1.47468 -0.927306 0
M  V30 7823 C 723.076 2.82442 -1.90892 0
M  V30 7824 H 724.269 1.21864 -2.74024 0
M  V30 7825 H 721.822 0.600668 -1.44297 0
M  V30 7826 H 722.557 3.09202 -0.978 0
M  V30 7827 H 722.342 2.81399 -2.73051 0
M  V30 7828 H 723.832 3.59601 -2.12314 0
M  V30 7829 N 724.269 1.44576 0.627338 0
M  V30 7830 C 725.494 1.51271 1.41887 0
M  V30 7831 C 725.919 0.139814 1.8758 0
M  V30 7832 O 725.277 -0.871746 1.58966 0
M  V30 7833 C 725.325 2.48529 2.61277 0
M  V30 7834 O 724.429 1.98944 3.61241 0
M  V30 7835 H 723.77 0.510668 0.424399 0
M  V30 7836 H 726.3 1.89746 0.765356 0
M  V30 7837 H 726.31 2.66689 3.08773 0
M  V30 7838 H 724.985 3.48249 2.27366 0
M  V30 7839 H 723.562 1.90568 3.20528 0
M  V30 7840 N 725.747 -0.868086 1.31537 0
M  V30 7841 C 726.993 -1.62367 1.2151 0
M  V30 7842 C 727.326 -1.92883 -0.225819 0
M  V30 7843 O 726.601 -1.56176 -1.15927 0
M  V30 7844 C 726.884 -2.95268 2.06129 0
M  V30 7845 C 726.737 -2.71619 3.58529 0
M  V30 7846 C 728.056 -3.96391 1.91212 0
M  V30 7847 H 725.175 -0.589178 0.442762 0
M  V30 7848 H 727.817 -1.00336 1.61347 0
M  V30 7849 H 725.967 -3.4821 1.72284 0
M  V30 7850 H 727.639 -2.25334 4.0252 0
M  V30 7851 H 725.882 -2.05817 3.81866 0
M  V30 7852 H 726.553 -3.66192 4.13047 0
M  V30 7853 H 729.029 -3.52663 2.20834 0
M  V30 7854 H 727.905 -4.87263 2.52718 0
M  V30 7855 H 728.166 -4.33335 0.875953 0
M  V30 7856 N 727.225 -1.14528 -1.08264 0
M  V30 7857 C 728.641 -0.885976 -1.3275 0
M  V30 7858 C 728.841 0.472096 -1.95892 0
M  V30 7859 O 727.897 1.21606 -2.21288 0
M  V30 7860 C 729.21 -2.01982 -2.22764 0
M  V30 7861 C 730.758 -2.05329 -2.36239 0
M  V30 7862 C 731.233 -3.1801 -3.29596 0
M  V30 7863 N 732.724 -3.17598 -3.37173 0
M  V30 7864 C 733.459 -4.01426 -4.09444 0
M  V30 7865 N 732.955 -4.95297 -4.8441 0
M  V30 7866 N 734.748 -3.89482 -4.0529 0
M  V30 7867 H 726.899 -2.01996 -0.656607 0
M  V30 7868 H 729.162 -0.880274 -0.351884 0
M  V30 7869 H 728.868 -2.99964 -1.83615 0
M  V30 7870 H 728.742 -1.94421 -3.23234 0
M  V30 7871 H 731.129 -1.07953 -2.74646 0
M  V30 7872 H 731.21 -2.1696 -1.35506 0
M  V30 7873 H 730.854 -4.15633 -2.9191 0
M  V30 7874 H 730.784 -3.03616 -4.30261 0
M  V30 7875 H 733.275 -2.4961 -2.83731 0
M  V30 7876 H 733.588 -5.55723 -5.37021 0
M  V30 7877 H 731.933 -4.99293 -4.83457 0
M  V30 7878 H 735.124 -3.15465 -3.45832 0
M  V30 7879 H 735.297 -4.55039 -4.6135 0
M  V30 7880 N 728.703 1.26451 -0.940633 0
M  V30 7881 C 729.636 2.24771 -0.394094 0
M  V30 7882 C 730.614 1.54169 0.516781 0
M  V30 7883 O 731.798 1.82942 0.454352 0
M  V30 7884 C 728.925 3.3591 0.433807 0
M  V30 7885 C 727.971 4.24472 -0.415464 0
M  V30 7886 S 728.804 5.0293 -1.83907 0
M  V30 7887 C 729.96 6.17546 -1.01921 0
M  V30 7888 H 730.193 2.70782 -1.22737 0
M  V30 7889 H 727.726 1.35308 -0.743709 0
M  V30 7890 H 729.684 4.00387 0.905576 0
M  V30 7891 H 728.345 2.88512 1.24175 0
M  V30 7892 H 727.538 5.03525 0.218833 0
M  V30 7893 H 727.14 3.64857 -0.821897 0
M  V30 7894 H 729.432 6.76996 -0.261227 0
M  V30 7895 H 730.375 6.8528 -1.78318 0
M  V30 7896 H 730.783 5.6176 -0.555511 0
M  V30 7897 N 730.181 0.707592 1.40822 0
M  V30 7898 C 731.409 0.253073 2.05346 0
M  V30 7899 C 731.824 -1.10218 1.53289 0
M  V30 7900 O 731.181 -1.69112 0.686105 0
M  V30 7901 C 731.232 0.215411 3.60858 0
M  V30 7902 O 730.953 1.51714 4.10992 0
M  V30 7903 C 732.454 -0.258636 4.42545 0
M  V30 7904 H 729.674 0.115256 0.661027 0
M  V30 7905 H 732.218 0.963555 1.80377 0
M  V30 7906 H 730.373 -0.445978 3.84824 0
M  V30 7907 H 730.787 1.41226 5.05129 0
M  V30 7908 H 732.261 -0.233849 5.51504 0
M  V30 7909 H 732.738 -1.2995 4.19535 0
M  V30 7910 H 733.344 0.372186 4.23668 0
M  V30 7911 N 731.66 -1.50943 0.453197 0
M  V30 7912 C 733.076 -1.59245 0.106342 0
M  V30 7913 C 733.276 -1.46287 -1.38572 0
M  V30 7914 O 732.332 -1.31219 -2.15726 0
M  V30 7915 C 733.645 -2.93797 0.640595 0
M  V30 7916 C 735.193 -3.07148 0.602435 0
M  V30 7917 C 735.668 -4.44247 1.11393 0
M  V30 7918 N 737.159 -4.50611 1.07258 0
M  V30 7919 C 737.894 -5.55049 1.43905 0
M  V30 7920 N 737.39 -6.66828 1.87914 0
M  V30 7921 N 739.183 -5.45494 1.35621 0
M  V30 7922 H 731.334 -1.5761 1.42382 0
M  V30 7923 H 733.597 -0.74384 0.587713 0
M  V30 7924 H 733.303 -3.087 1.68515 0
M  V30 7925 H 733.177 -3.77127 0.0742272 0
M  V30 7926 H 735.564 -2.91903 -0.433171 0
M  V30 7927 H 735.645 -2.25619 1.20539 0
M  V30 7928 H 735.289 -4.60239 2.14808 0
M  V30 7929 H 735.219 -5.2434 0.487353 0
M  V30 7930 H 737.71 -3.70391 0.749585 0
M  V30 7931 H 738.023 -7.42558 2.14072 0
M  V30 7932 H 736.368 -6.67995 1.91853 0
M  V30 7933 H 739.559 -4.57053 1.01093 0
M  V30 7934 H 739.732 -6.2677 1.64508 0
M  V30 7935 N 733.138 -0.185124 -1.56509 0
M  V30 7936 C 734.368 0.461469 -2.0138 0
M  V30 7937 C 734.776 1.56417 -1.06445 0
M  V30 7938 O 734.119 1.83603 -0.0597515 0
M  V30 7939 C 734.181 1.08731 -3.42663 0
M  V30 7940 C 733.845 0.124581 -4.5683 0
M  V30 7941 C 734.842 -0.662295 -5.15664 0
M  V30 7942 C 732.527 0.0163947 -5.02297 0
M  V30 7943 C 734.521 -1.54442 -6.18406 0
M  V30 7944 C 732.208 -0.869301 -6.04885 0
M  V30 7945 C 733.206 -1.64828 -6.62813 0
M  V30 7946 O 732.894 -2.51915 -7.63409 0
M  V30 7947 H 732.626 0.1212 -0.665046 0
M  V30 7948 H 735.18 -0.288119 -2.03369 0
M  V30 7949 H 733.41 1.8853 -3.37629 0
M  V30 7950 H 735.099 1.63753 -3.71403 0
M  V30 7951 H 735.865 -0.588963 -4.81411 0
M  V30 7952 H 731.744 0.61253 -4.56913 0
M  V30 7953 H 735.288 -2.15289 -6.63548 0
M  V30 7954 H 731.185 -0.943786 -6.38563 0
M  V30 7955 H 731.953 -2.45584 -7.80789 0
M  V30 7956 N 734.616 1.57351 0.0885366 0
M  V30 7957 C 735.546 2.05561 1.10757 0
M  V30 7958 C 736.527 0.945789 1.41382 0
M  V30 7959 O 737.712 1.21747 1.51299 0
M  V30 7960 C 734.842 2.48554 2.42566 0
M  V30 7961 C 733.796 3.63259 2.26334 0
M  V30 7962 C 733.122 3.9225 3.63378 0
M  V30 7963 C 734.422 4.93913 1.69844 0
M  V30 7964 H 736.116 2.90946 0.706468 0
M  V30 7965 H 733.662 1.39968 0.338385 0
M  V30 7966 H 735.615 2.8089 3.14132 0
M  V30 7967 H 734.339 1.60176 2.84625 0
M  V30 7968 H 732.998 3.31179 1.57213 0
M  V30 7969 H 732.646 3.0103 4.02976 0
M  V30 7970 H 732.346 4.69478 3.53362 0
M  V30 7971 H 733.87 4.27067 4.36401 0
M  V30 7972 H 735.284 5.24588 2.31258 0
M  V30 7973 H 733.681 5.75349 1.70569 0
M  V30 7974 H 734.751 4.80409 0.65843 0
M  V30 7975 N 736.094 -0.359525 1.53444 0
M  V30 7976 C 737.004 -1.46445 1.83278 0
M  V30 7977 C 738.02 -1.5833 0.721629 0
M  V30 7978 O 739.196 -1.7411 1.01231 0
M  V30 7979 C 736.261 -2.81638 2.02191 0
M  V30 7980 C 735.322 -2.7923 3.26082 0
M  V30 7981 C 734.555 -4.07974 3.44082 0
M  V30 7982 O 734.778 -5.04447 2.66251 0
M  V30 7983 O 733.712 -4.13417 4.37458 0
M  V30 7984 H 737.538 -1.24156 2.77162 0
M  V30 7985 H 735.123 -0.550201 1.389 0
M  V30 7986 H 737.005 -3.61732 2.16167 0
M  V30 7987 H 735.68 -3.03892 1.11496 0
M  V30 7988 H 734.587 -1.97813 3.17523 0
M  V30 7989 H 735.92 -2.6193 4.16718 0
M  V30 7990 N 737.572 -1.44907 -0.619662 0
M  V30 7991 C 738.797 -1.52021 -1.41083 0
M  V30 7992 C 739.222 -0.14976 -1.87503 0
M  V30 7993 O 738.58 0.863303 -1.59426 0
M  V30 7994 C 738.628 -2.49911 -2.59955 0
M  V30 7995 O 737.732 -2.00857 -3.60181 0
M  V30 7996 H 737.073 -0.512912 -0.421684 0
M  V30 7997 H 739.603 -1.90149 -0.755282 0
M  V30 7998 H 739.613 -2.68323 -3.07354 0
M  V30 7999 H 738.288 -3.4945 -2.25516 0
M  V30 8000 H 736.865 -1.92265 -3.19513 0
M  V30 8001 N 739.05 0.861098 -1.31996 0
M  V30 8002 C 740.296 1.61707 -1.23379 0
M  V30 8003 C 740.651 1.91315 0.204026 0
M  V30 8004 O 739.944 1.53997 1.13998 0
M  V30 8005 C 740.138 2.94822 -2.02027 0
M  V30 8006 C 739.967 2.78212 -3.5331 0
M  V30 8007 C 738.737 2.76933 -4.22654 0
M  V30 8008 C 740.935 2.52432 -4.48088 0
M  V30 8009 N 738.917 2.51466 -5.60034 0
M  V30 8010 C 740.288 2.36312 -5.73198 0
M  V30 8011 C 742.343 2.37848 -4.37416 0
M  V30 8012 C 741.046 2.0709 -6.88844 0
M  V30 8013 C 743.072 2.10016 -5.52854 0
M  V30 8014 C 742.434 1.94691 -6.7696 0
M  V30 8015 H 738.533 0.595703 -0.506618 0
M  V30 8016 H 741.117 1.01275 -1.66287 0
M  V30 8017 H 739.288 3.53243 -1.61474 0
M  V30 8018 H 741.02 3.59756 -1.85358 0
M  V30 8019 H 737.775 2.89638 -3.74709 0
M  V30 8020 H 738.199 2.41679 -6.32392 0
M  V30 8021 H 742.841 2.4842 -3.42122 0
M  V30 8022 H 740.559 1.95256 -7.84156 0
M  V30 8023 H 744.145 1.99519 -5.46519 0
M  V30 8024 H 743.025 1.7346 -7.64775 0
M  V30 8025 N 740.528 1.15101 1.07655 0
M  V30 8026 C 741.776 0.922149 1.79836 0
M  V30 8027 C 742.097 -0.552346 1.87014 0
M  V30 8028 O 741.367 -1.40145 1.3688 0
M  V30 8029 H 739.947 0.338182 0.666064 0
M  V30 8030 H 742.609 1.45107 1.30115 0
M  V30 8031 H 741.705 1.32883 2.82398 0
M  V30 8032 N 742.006 -1.2595 0.947325 0
M  V30 8033 C 742.969 -2.24407 0.466285 0
M  V30 8034 C 743.969 -1.55054 -0.426005 0
M  V30 8035 O 745.159 -1.7275 -0.224319 0
M  V30 8036 C 742.291 -3.39326 -0.327201 0
M  V30 8037 H 743.484 -2.68477 1.33642 0
M  V30 8038 H 741.037 -1.38211 0.729887 0
M  V30 8039 H 741.772 -3.00667 -1.21532 0
M  V30 8040 H 741.557 -3.9085 0.312839 0
M  V30 8041 H 743.047 -4.12455 -0.653477 0
M  V30 8042 N 743.484 -0.715051 -1.40445 0
M  V30 8043 C 744.447 -0.0708726 -2.2909 0
M  V30 8044 C 745.447 0.687926 -1.45342 0
M  V30 8045 O 746.637 0.519908 -1.66261 0
M  V30 8046 C 743.769 0.909528 -3.28543 0
M  V30 8047 H 744.962 -0.851611 -2.87555 0
M  V30 8048 H 742.515 -0.479674 -1.48758 0
M  V30 8049 H 743.25 1.71734 -2.75096 0
M  V30 8050 H 743.035 0.368318 -3.90366 0
M  V30 8051 H 744.525 1.35744 -3.94922 0
M  V30 8052 N 744.962 1.50701 -0.461195 0
M  V30 8053 C 745.909 2.2831 0.338094 0
M  V30 8054 C 746.879 1.32928 0.995957 0
M  V30 8055 O 748.064 1.61857 1.0103 0
M  V30 8056 C 745.204 3.14539 1.41983 0
M  V30 8057 C 744.317 4.24942 0.77773 0
M  V30 8058 C 743.452 4.98443 1.83652 0
M  V30 8059 C 742.491 6.00733 1.17413 0
M  V30 8060 N 741.628 6.6755 2.17533 0
M  V30 8061 H 746.468 2.96167 -0.330051 0
M  V30 8062 H 744.005 1.4606 -0.174611 0
M  V30 8063 H 745.963 3.62877 2.05855 0
M  V30 8064 H 744.593 2.48749 2.05727 0
M  V30 8065 H 743.645 3.80391 0.0266924 0
M  V30 8066 H 744.957 4.98151 0.254362 0
M  V30 8067 H 744.111 5.50449 2.55129 0
M  V30 8068 H 742.85 4.24917 2.39367 0
M  V30 8069 H 741.855 5.47997 0.444944 0
M  V30 8070 H 743.08 6.76227 0.624006 0
M  V30 8071 H 741.026 5.96823 2.72284 0
M  V30 8072 H 740.943 7.36603 1.70154 0
M  V30 8073 H 742.211 7.24178 2.88421 0
M  V30 8074 N 746.441 0.193421 1.56409 0
M  V30 8075 C 747.852 -0.319471 1.83946 0
M  V30 8076 C 748.203 -1.61505 1.11403 0
M  V30 8077 O 747.328 -2.13139 0.374289 0
M  V30 8078 C 747.923 -0.586411 3.33686 0
M  V30 8079 C 746.482 -1.04368 3.61641 0
M  V30 8080 C 745.629 -0.0913834 2.77149 0
M  V30 8081 H 748.58 0.417242 1.53117 0
M  V30 8082 H 748.601 -1.43591 3.52366 0
M  V30 8083 H 748.113 0.356701 3.86457 0
M  V30 8084 H 746.214 -2.00113 3.14302 0
M  V30 8085 H 746.327 -0.937549 4.69837 0
M  V30 8086 H 744.691 -0.592954 2.47702 0
M  V30 8087 H 745.474 0.846142 3.32709 0
M  V30 8088 N 747.919 -1.57396 -0.0801906 0
M  V30 8089 C 749.166 -1.86836 -0.780927 0
M  V30 8090 C 749.494 -0.784012 -1.77999 0
M  V30 8091 O 748.749 0.220881 -1.94449 0
M  V30 8092 C 749.048 -3.22915 -1.53169 0
M  V30 8093 C 748.714 -4.45843 -0.67339 0
M  V30 8094 C 747.376 -4.79213 -0.436829 0
M  V30 8095 C 749.728 -5.21142 -0.0776786 0
M  V30 8096 C 747.056 -5.853 0.405062 0
M  V30 8097 C 749.408 -6.28119 0.751619 0
M  V30 8098 C 748.072 -6.59995 0.998131 0
M  V30 8099 H 747.342 -0.683682 -0.285761 0
M  V30 8100 H 749.989 -1.91454 -0.0419435 0
M  V30 8101 H 748.294 -3.14049 -2.34265 0
M  V30 8102 H 749.991 -3.42926 -2.07853 0
M  V30 8103 H 746.581 -4.19721 -0.867891 0
M  V30 8104 H 750.765 -4.95682 -0.247572 0
M  V30 8105 H 746.021 -6.084 0.60488 0
M  V30 8106 H 750.195 -6.8563 1.22 0
M  V30 8107 H 747.822 -7.42027 1.65227 0
M  V30 8108 N 749.397 0.351382 -1.53633 0
M  V30 8109 C 750.36 1.41403 -1.80383 0
M  V30 8110 C 751.36 1.45963 -0.674635 0
M  V30 8111 O 752.55 1.46476 -0.942895 0
M  V30 8112 C 749.682 2.80401 -1.93876 0
M  V30 8113 H 750.875 1.18951 -2.75301 0
M  V30 8114 H 748.428 0.58533 -1.44926 0
M  V30 8115 H 749.163 3.08147 -1.01074 0
M  V30 8116 H 748.948 2.78488 -2.7602 0
M  V30 8117 H 750.438 3.57329 -2.16116 0
M  V30 8118 N 750.875 1.45233 0.611969 0
M  V30 8119 C 751.825 1.49997 1.71711 0
M  V30 8120 C 752.809 0.363689 1.56736 0
M  V30 8121 O 754.001 0.610261 1.66147 0
M  V30 8122 C 751.13 1.46537 3.10454 0
M  V30 8123 C 750.216 2.65351 3.30831 0
M  V30 8124 N 750.607 3.90485 3.21489 0
M  V30 8125 C 748.905 2.60955 3.61688 0
M  V30 8126 C 749.606 4.69758 3.43078 0
M  V30 8127 N 748.582 4.01141 3.66861 0
M  V30 8128 H 752.384 2.44574 1.62975 0
M  V30 8129 H 749.898 1.40464 0.815082 0
M  V30 8130 H 751.895 1.48035 3.89732 0
M  V30 8131 H 750.555 0.530139 3.20343 0
M  V30 8132 H 751.566 4.22171 2.99987 0
M  V30 8133 H 748.243 1.76319 3.78441 0
M  V30 8134 H 749.633 5.7877 3.41285 0
M  V30 8135 N 752.353 -0.854086 1.3245 0
M  V30 8136 C 753.283 -1.97827 1.24044 0
M  V30 8137 C 754.264 -1.69646 0.124166 0
M  V30 8138 O 755.449 -1.91687 0.31143 0
M  V30 8139 C 752.579 -3.33673 0.963324 0
M  V30 8140 C 751.533 -3.76207 2.04089 0
M  V30 8141 C 750.859 -5.0969 1.61618 0
M  V30 8142 C 752.159 -3.91612 3.45597 0
M  V30 8143 H 753.853 -2.05118 2.18099 0
M  V30 8144 H 751.399 -0.985489 1.04996 0
M  V30 8145 H 753.352 -4.11871 0.891061 0
M  V30 8146 H 752.076 -3.26597 -0.0128649 0
M  V30 8147 H 750.735 -3.0026 2.10332 0
M  V30 8148 H 750.383 -4.99072 0.627418 0
M  V30 8149 H 750.083 -5.3912 2.33717 0
M  V30 8150 H 751.607 -5.90381 1.55829 0
M  V30 8151 H 753.021 -4.60163 3.4194 0
M  V30 8152 H 751.418 -4.3246 4.16051 0
M  V30 8153 H 752.488 -2.9451 3.85217 0
M  V30 8154 N 753.831 -1.1567 -1.07043 0
M  V30 8155 C 754.781 -0.824733 -2.12561 0
M  V30 8156 C 755.765 0.19243 -1.59745 0
M  V30 8157 O 756.957 -0.00728759 -1.76998 0
M  V30 8158 C 754.086 -0.31921 -3.41813 0
M  V30 8159 C 753.172 -1.36671 -4.01475 0
M  V30 8160 N 753.563 -2.57493 -4.35351 0
M  V30 8161 C 751.861 -1.22018 -4.28984 0
M  V30 8162 C 752.562 -3.24658 -4.82672 0
M  V30 8163 N 751.538 -2.52043 -4.81638 0
M  V30 8164 H 755.34 -1.74363 -2.3659 0
M  V30 8165 H 752.854 -1.04262 -1.24511 0
M  V30 8166 H 754.851 -0.0630216 -4.16852 0
M  V30 8167 H 753.511 0.593708 -3.19226 0
M  V30 8168 H 754.522 -2.94612 -4.25939 0
M  V30 8169 H 751.199 -0.367414 -4.1588 0
M  V30 8170 H 752.589 -4.2775 -5.1815 0
M  V30 8171 N 755.309 1.25446 -0.953992 0
M  V30 8172 C 756.259 2.23627 -0.444413 0
M  V30 8173 C 757.243 1.54004 0.465993 0
M  V30 8174 O 758.435 1.74454 0.29915 0
M  V30 8175 C 755.564 3.42179 0.277175 0
M  V30 8176 C 754.65 4.1907 -0.651263 0
M  V30 8177 N 755.041 4.73346 -1.78262 0
M  V30 8178 C 753.339 4.43628 -0.459338 0
M  V30 8179 C 754.04 5.31576 -2.36224 0
M  V30 8180 N 753.016 5.17991 -1.64884 0
M  V30 8181 H 756.818 2.63197 -1.30785 0
M  V30 8182 H 754.332 1.40677 -0.811402 0
M  V30 8183 H 756.329 4.11653 0.659367 0
M  V30 8184 H 754.989 3.04134 1.13723 0
M  V30 8185 H 756 4.705 -2.1645 0
M  V30 8186 H 752.677 4.15963 0.357885 0
M  V30 8187 H 754.067 5.84361 -3.3162 0
M  V30 8188 N 756.787 0.722489 1.40064 0
M  V30 8189 C 758.203 0.396758 1.5459 0
M  V30 8190 C 758.403 -1.09375 1.69232 0
M  V30 8191 O 757.459 -1.87984 1.68578 0
M  V30 8192 C 758.772 1.16885 2.77053 0
M  V30 8193 C 760.32 1.15583 2.90877 0
M  V30 8194 C 760.795 1.91023 4.16262 0
M  V30 8195 N 762.286 1.88126 4.23276 0
M  V30 8196 C 763.021 2.43315 5.19216 0
M  V30 8197 N 762.517 3.07089 6.21022 0
M  V30 8198 N 764.31 2.33418 5.11344 0
M  V30 8199 H 756.461 1.68887 1.28806 0
M  V30 8200 H 758.724 0.714231 0.62336 0
M  V30 8201 H 758.43 2.22301 2.72534 0
M  V30 8202 H 758.304 0.765011 3.69361 0
M  V30 8203 H 760.691 0.10984 2.94896 0
M  V30 8204 H 760.772 1.59895 1.99668 0
M  V30 8205 H 760.416 2.95616 4.13006 0
M  V30 8206 H 760.346 1.44126 5.06493 0
M  V30 8207 H 762.837 1.41654 3.50346 0
M  V30 8208 H 763.15 3.467 6.90666 0
M  V30 8209 H 761.495 3.11175 6.21446 0
M  V30 8210 H 764.686 1.83248 4.30741 0
M  V30 8211 H 764.859 2.7673 5.85939 0
M  V30 8212 N 758.265 -1.50454 0.469181 0
M  V30 8213 C 759.542 -1.9504 -0.147955 0
M  V30 8214 C 759.922 -1.40946 -1.57154 0
M  V30 8215 O 759.27 -0.609663 -2.20217 0
M  V30 8216 C 759.48 -3.48875 -0.0932198 0
M  V30 8217 C 760.828 -4.23655 -0.283056 0
M  V30 8218 O 761.852 -3.55795 -0.169892 0
M  V30 8219 O 760.711 -5.44102 -0.511396 0
M  V30 8220 H 757.805 -0.819283 -0.11271 0
M  V30 8221 H 760.351 -1.6123 0.529446 0
M  V30 8222 H 759.123 -3.80791 0.900784 0
M  V30 8223 H 758.746 -3.89217 -0.812161 0
M  V30 8224 N 759.743 -0.201713 -1.56304 0
M  V30 8225 C 760.968 0.443815 -2.02596 0
M  V30 8226 C 761.393 1.53945 -1.08086 0
M  V30 8227 O 760.751 1.81182 -0.0655056 0
M  V30 8228 C 760.799 0.971066 -3.47279 0
M  V30 8229 O 759.903 2.0836 -3.55893 0
M  V30 8230 H 759.244 0.10294 -0.655972 0
M  V30 8231 H 761.774 -0.314533 -2.02168 0
M  V30 8232 H 761.784 1.28598 -3.87204 0
M  V30 8233 H 760.459 0.169048 -4.15556 0
M  V30 8234 H 759.036 1.77683 -3.27846 0
M  V30 8235 N 761.222 1.57436 0.0718424 0
M  V30 8236 C 762.155 1.98982 1.11721 0
M  V30 8237 C 763.133 0.866731 1.37574 0
M  V30 8238 O 764.317 1.12903 1.50948 0
M  V30 8239 C 761.444 2.32648 2.46155 0
M  V30 8240 C 760.49 3.54964 2.36437 0
M  V30 8241 S 761.323 5.05802 1.75854 0
M  V30 8242 C 762.479 5.42669 3.11867 0
M  V30 8243 H 762.712 2.87338 0.763154 0
M  V30 8244 H 760.245 1.51833 0.280372 0
M  V30 8245 H 762.203 2.52719 3.23486 0
M  V30 8246 H 760.864 1.44821 2.78722 0
M  V30 8247 H 760.057 3.76038 3.35577 0
M  V30 8248 H 759.659 3.34524 1.67242 0
M  V30 8249 H 761.951 5.40737 4.08178 0
M  V30 8250 H 762.894 6.43461 2.95573 0
M  V30 8251 H 763.302 4.70131 3.1247 0
M  V30 8252 N 762.7 -0.34323 1.53817 0
M  V30 8253 C 763.928 -1.10348 1.75017 0
M  V30 8254 C 764.343 -1.82345 0.489475 0
M  V30 8255 O 763.7 -1.74362 -0.538886 0
M  V30 8256 C 763.751 -2.11672 2.93048 0
M  V30 8257 O 763.472 -1.42603 4.14241 0
M  V30 8258 C 764.973 -3.0007 3.26301 0
M  V30 8259 H 762.193 -0.329056 0.584776 0
M  V30 8260 H 764.737 -0.395339 2.00642 0
M  V30 8261 H 762.892 -2.78051 2.69753 0
M  V30 8262 H 763.306 -2.10294 4.80496 0
M  V30 8263 H 764.78 -3.67101 4.12239 0
M  V30 8264 H 765.257 -3.66105 2.42618 0
M  V30 8265 H 765.863 -2.3928 3.51604 0
M  V30 8266 N 764.178 -1.45556 -0.604258 0
M  V30 8267 C 765.406 -1.53278 -1.38973 0
M  V30 8268 C 765.821 -0.166509 -1.88064 0
M  V30 8269 O 765.178 0.832519 -1.62405 0
M  V30 8270 C 765.229 -2.51992 -2.59195 0
M  V30 8271 O 764.95 -3.8331 -2.12143 0
M  V30 8272 C 766.451 -2.69445 -3.52015 0
M  V30 8273 H 763.671 -0.519003 -0.425297 0
M  V30 8274 H 766.215 -1.90773 -0.736621 0
M  V30 8275 H 764.37 -2.17561 -3.2054 0
M  V30 8276 H 764.784 -4.3685 -2.90279 0
M  V30 8277 H 766.258 -3.42485 -4.32907 0
M  V30 8278 H 766.735 -1.75596 -4.0257 0
M  V30 8279 H 767.341 -3.04886 -2.9652 0
M  V30 8280 N 765.656 0.84705 -1.32902 0
M  V30 8281 C 766.566 1.98845 -1.2449 0
M  V30 8282 C 767.582 1.7329 -0.15702 0
M  V30 8283 O 768.758 1.978 -0.379104 0
M  V30 8284 C 765.823 3.32679 -0.975985 0
M  V30 8285 C 764.884 3.71405 -2.15306 0
M  V30 8286 C 764.117 4.98853 -1.89688 0
M  V30 8287 O 764.34 5.64134 -0.843168 0
M  V30 8288 O 763.274 5.34889 -2.76002 0
M  V30 8289 H 767.1 2.0888 -2.2046 0
M  V30 8290 H 764.685 0.978852 -1.12867 0
M  V30 8291 H 766.567 4.12885 -0.842826 0
M  V30 8292 H 765.242 3.23667 -0.0464954 0
M  V30 8293 H 764.149 2.91743 -2.34172 0
M  V30 8294 H 765.482 3.85073 -3.06561 0
M  V30 8295 N 767.134 1.16236 1.06428 0
M  V30 8296 C 768.082 0.863669 2.15971 0
M  V30 8297 C 769.076 -0.166723 1.68578 0
M  V30 8298 O 770.282 -0.0208425 1.79988 0
M  V30 8299 H 766.657 0.261684 0.705 0
M  V30 8300 H 768.628 1.79498 2.38376 0
M  V30 8301 C 767.377 0.379697 3.45621 0
M  V30 8302 H 766.7 1.16399 3.82481 0
M  V30 8303 H 768.14 0.209458 4.23482 0
M  V30 8304 C 766.599 -0.900499 3.24642 0
M  V30 8305 O 767.129 -1.97004 3.50074 0
M  V30 8306 N 765.335 -0.843721 2.78082 0
M  V30 8307 H 764.882 0.0268429 2.57586 0
M  V30 8308 H 764.84 -1.70078 2.64425 0
M  V30 8309 N 768.612 -1.24939 0.960631 0
M  V30 8310 C 769.86 -1.92437 0.617441 0
M  V30 8311 C 770.181 -1.75543 -0.849101 0
M  V30 8312 O 769.451 -1.12269 -1.60538 0
M  V30 8313 H 768.031 -0.712192 0.225371 0
M  V30 8314 H 770.693 -1.5198 1.22017 0
M  V30 8315 H 769.789 -3.00247 0.851933 0
M  V30 8316 N 770.09 -0.729906 -1.39679 0
M  V30 8317 C 771.037 -0.0866063 -2.30637 0
M  V30 8318 C 772.007 0.735115 -1.48947 0
M  V30 8319 O 773.192 0.696125 -1.77648 0
M  V30 8320 C 770.332 0.818524 -3.35252 0
M  V30 8321 C 769.445 -0.0152635 -4.31997 0
M  V30 8322 C 768.58 0.890669 -5.2368 0
M  V30 8323 C 767.619 0.0518246 -6.12078 0
M  V30 8324 N 766.756 0.913411 -6.96133 0
M  V30 8325 H 771.596 -0.867925 -2.85081 0
M  V30 8326 H 769.133 -0.439673 -1.40376 0
M  V30 8327 H 771.091 1.3577 -3.9449 0
M  V30 8328 H 769.721 1.56587 -2.82277 0
M  V30 8329 H 768.773 -0.671794 -3.74421 0
M  V30 8330 H 770.085 -0.664086 -4.9436 0
M  V30 8331 H 769.239 1.49787 -5.87919 0
M  V30 8332 H 767.978 1.57328 -4.61627 0
M  V30 8333 H 766.983 -0.568209 -5.46856 0
M  V30 8334 H 768.208 -0.627497 -6.76195 0
M  V30 8335 H 766.154 1.58141 -6.36653 0
M  V30 8336 H 766.071 0.320952 -7.55318 0
M  V30 8337 H 767.339 1.50633 -7.64807 0
M  V30 8338 N 771.568 1.50203 -0.477153 0
M  V30 8339 C 772.817 2.01551 0.0774548 0
M  V30 8340 C 773.13 1.36359 1.40234 0
M  V30 8341 O 774.336 1.78898 2.04225 0
M  V30 8342 C 772.792 3.59406 0.188539 0
M  V30 8343 C 772.4 4.3356 -1.12828 0
M  V30 8344 C 774.144 4.18776 0.694782 0
M  V30 8345 C 772.051 5.83213 -0.98066 0
M  V30 8346 H 770.981 0.75329 0.0327212 0
M  V30 8347 H 773.632 1.72959 -0.612969 0
M  V30 8348 H 772.014 3.84611 0.942881 0
M  V30 8349 H 773.188 4.20074 -1.89405 0
M  V30 8350 H 771.503 3.85827 -1.5661 0
M  V30 8351 H 774.1 5.28338 0.822356 0
M  V30 8352 H 774.443 3.80557 1.68766 0
M  V30 8353 H 774.976 3.978 -0.00234519 0
M  V30 8354 H 771.715 6.25914 -1.94709 0
M  V30 8355 H 771.235 5.99256 -0.255375 0
M  V30 8356 H 772.914 6.4373 -0.649717 0
M  V30 8357 N 773.046 0.209999 1.56195 0
M  V30 8358 C 774.271 -0.433064 2.02828 0
M  V30 8359 C 774.696 -1.5337 1.08901 0
M  V30 8360 O 774.054 -1.81144 0.0751132 0
M  V30 8361 C 774.102 -0.952635 3.47789 0
M  V30 8362 O 773.206 -2.0647 3.56993 0
M  V30 8363 H 772.547 -0.0994594 0.656509 0
M  V30 8364 H 775.077 0.32525 2.01998 0
M  V30 8365 H 775.087 -1.26542 3.8788 0
M  V30 8366 H 773.762 -0.147007 4.1564 0
M  V30 8367 H 772.339 -1.75942 3.28784 0
M  V30 8368 N 774.524 -1.57472 -0.0634922 0
M  V30 8369 C 775.752 -1.91887 -0.773767 0
M  V30 8370 C 776.167 -0.806733 -1.70696 0
M  V30 8371 O 775.524 0.219383 -1.81177 0
M  V30 8372 C 775.575 -3.26092 -1.56034 0
M  V30 8373 O 775.296 -4.33029 -0.66464 0
M  V30 8374 C 776.797 -3.74573 -2.37087 0
M  V30 8375 H 774.017 -0.634074 -0.219525 0
M  V30 8376 H 776.561 -2.04476 -0.0312828 0
M  V30 8377 H 774.716 -3.15004 -2.25502 0
M  V30 8378 H 775.13 -5.10291 -1.21258 0
M  V30 8379 H 776.604 -4.71084 -2.87722 0
M  V30 8380 H 777.081 -3.04003 -3.16984 0
M  V30 8381 H 777.687 -3.88631 -1.72759 0
M  V30 8382 N 776.003 0.335068 -1.53997 0
M  V30 8383 C 777.231 1.09418 -1.756 0
M  V30 8384 C 777.646 1.82083 -0.499138 0
M  V30 8385 O 777.003 1.74646 0.529631 0
M  V30 8386 C 777.054 2.10115 -2.94166 0
M  V30 8387 O 776.775 1.40404 -4.14992 0
M  V30 8388 C 778.276 2.98336 -3.27888 0
M  V30 8389 H 775.496 0.32595 -0.586513 0
M  V30 8390 H 778.04 0.384693 -2.00849 0
M  V30 8391 H 776.195 2.76616 -2.71224 0
M  V30 8392 H 776.609 2.07743 -4.81605 0
M  V30 8393 H 778.083 3.6491 -4.1418 0
M  V30 8394 H 778.56 3.64814 -2.44556 0
M  V30 8395 H 779.166 2.37412 -3.52868 0
M  V30 8396 N 777.481 1.45874 0.596531 0
M  V30 8397 C 778.758 1.40942 1.35627 0
M  V30 8398 C 779.138 0.0857066 2.10926 0
M  V30 8399 O 778.486 -0.932544 2.08605 0
M  V30 8400 C 778.696 2.63027 2.29386 0
M  V30 8401 C 780.044 3.08588 2.91649 0
M  V30 8402 O 781.068 2.63478 2.39704 0
M  V30 8403 O 779.927 3.86902 3.85965 0
M  V30 8404 H 777.021 0.559838 0.608696 0
M  V30 8405 H 779.567 1.5802 0.618698 0
M  V30 8406 H 778.339 3.5094 1.7308 0
M  V30 8407 H 777.962 2.48338 3.10506 0
M  V30 8408 N 778.959 -0.83999 1.33349 0
M  V30 8409 C 780.205 -1.59753 1.24927 0
M  V30 8410 C 780.538 -1.93318 -0.184855 0
M  V30 8411 O 779.813 -1.586 -1.12589 0
M  V30 8412 C 780.096 -2.90829 2.12345 0
M  V30 8413 C 779.949 -2.63953 3.6421 0
M  V30 8414 C 781.268 -3.92246 1.99577 0
M  V30 8415 H 778.387 -0.579654 0.45516 0
M  V30 8416 H 781.029 -0.968909 1.63439 0
M  V30 8417 H 779.179 -3.44478 1.79631 0
M  V30 8418 H 780.851 -2.16745 4.07209 0
M  V30 8419 H 779.094 -1.97671 3.86146 0
M  V30 8420 H 779.765 -3.57348 4.20721 0
M  V30 8421 H 782.241 -3.479 2.28265 0
M  V30 8422 H 781.117 -4.81793 2.62996 0
M  V30 8423 H 781.378 -4.3138 0.967673 0
M  V30 8424 N 780.437 -1.16799 -1.0581 0
M  V30 8425 C 781.848 -0.95945 -1.60161 0
M  V30 8426 C 782.199 0.49543 -1.89842 0
M  V30 8427 O 781.324 1.36957 -1.67546 0
M  V30 8428 C 781.919 -1.73527 -2.90987 0
M  V30 8429 C 780.478 -1.57158 -3.42021 0
M  V30 8430 C 779.625 -1.74089 -2.15843 0
M  V30 8431 H 782.576 -1.31598 -0.886992 0
M  V30 8432 H 782.597 -1.21397 -3.60615 0
M  V30 8433 H 782.109 -2.79411 -2.69353 0
M  V30 8434 H 780.21 -0.537361 -3.68705 0
M  V30 8435 H 780.323 -2.35858 -4.17022 0
M  V30 8436 H 778.687 -1.16874 -2.26302 0
M  V30 8437 H 779.47 -2.81371 -1.96686 0
M  V30 8438 N 781.915 1.24427 -0.967243 0
M  V30 8439 C 782.848 2.23885 -0.441683 0
M  V30 8440 C 783.826 1.55231 0.483963 0
M  V30 8441 O 785.01 1.83865 0.415445 0
M  V30 8442 C 782.137 3.36755 0.362458 0
M  V30 8443 C 781.183 4.23495 -0.505407 0
M  V30 8444 S 782.016 4.98916 -1.94534 0
M  V30 8445 C 783.172 6.15245 -1.14997 0
M  V30 8446 H 783.405 2.68118 -1.28453 0
M  V30 8447 H 780.938 1.337 -0.772243 0
M  V30 8448 H 782.896 4.02218 0.820445 0
M  V30 8449 H 781.557 2.91081 1.18027 0
M  V30 8450 H 780.75 5.03876 0.111979 0
M  V30 8451 H 780.352 3.63032 -0.899104 0
M  V30 8452 H 782.644 6.7629 -0.404769 0
M  V30 8453 H 783.587 6.81343 -1.92814 0
M  V30 8454 H 783.995 5.60455 -0.674543 0
M  V30 8455 N 783.393 0.737304 1.3929 0
M  V30 8456 C 784.641 0.285691 2.00071 0
M  V30 8457 C 784.962 -1.13169 1.58801 0
M  V30 8458 O 784.232 -1.77104 0.837308 0
M  V30 8459 H 782.812 0.102638 0.739915 0
M  V30 8460 H 785.474 0.947775 1.70303 0
M  V30 8461 H 784.57 0.335906 3.10287 0
M  V30 8462 N 784.871 -1.49948 0.485112 0
M  V30 8463 C 785.803 -2.26691 -0.338222 0
M  V30 8464 C 786.816 -1.32584 -0.944742 0
M  V30 8465 O 788.005 -1.57989 -0.830772 0
M  V30 8466 C 785.105 -3.04405 -1.48966 0
M  V30 8467 C 784.278 -4.25971 -0.993371 0
M  V30 8468 C 783.337 -4.85861 -2.02052 0
M  V30 8469 O 782.363 -5.46382 -1.59547 0
M  V30 8470 N 783.565 -4.74101 -3.34975 0
M  V30 8471 H 786.33 -2.97989 0.319748 0
M  V30 8472 H 783.891 -1.58772 0.316714 0
M  V30 8473 H 785.883 -3.41348 -2.17403 0
M  V30 8474 H 784.453 -2.35815 -2.05207 0
M  V30 8475 H 783.673 -3.93971 -0.134424 0
M  V30 8476 H 784.961 -5.0476 -0.639934 0
M  V30 8477 H 784.359 -4.26002 -3.72208 0
M  V30 8478 H 782.916 -5.15274 -3.9917 0
M  V30 8479 N 786.349 -0.21828 -1.56081 0
M  V30 8480 C 787.299 0.706492 -2.16778 0
M  V30 8481 C 788.283 1.15987 -1.11516 0
M  V30 8482 O 789.475 1.11441 -1.37513 0
M  V30 8483 C 786.604 1.91583 -2.8487 0
M  V30 8484 C 785.69 1.48228 -3.97353 0
M  V30 8485 N 786.081 0.761113 -5.00041 0
M  V30 8486 C 784.379 1.76982 -4.09382 0
M  V30 8487 C 785.08 0.540496 -5.79184 0
M  V30 8488 N 784.056 1.09622 -5.32432 0
M  V30 8489 H 787.858 0.147038 -2.93532 0
M  V30 8490 H 785.372 -0.0194049 -1.62388 0
M  V30 8491 H 787.369 2.58906 -3.26762 0
M  V30 8492 H 786.029 2.47979 -2.09611 0
M  V30 8493 H 787.04 0.414141 -5.16241 0
M  V30 8494 H 783.717 2.34721 -3.45271 0
M  V30 8495 H 785.107 -0.0332531 -6.71892 0
M  V30 8496 N 787.827 1.57504 0.0551401 0
M  V30 8497 C 788.775 2.05884 1.08233 0
M  V30 8498 C 789.769 0.967383 1.39061 0
M  V30 8499 O 790.975 1.15242 1.38273 0
M  V30 8500 H 787.35 0.656673 0.366449 0
M  V30 8501 H 789.321 2.91273 0.648269 0
M  V30 8502 C 788.07 2.53221 2.38273 0
M  V30 8503 H 787.393 3.36809 2.15406 0
M  V30 8504 H 788.833 2.9081 3.08554 0
M  V30 8505 C 787.292 1.42218 3.05411 0
M  V30 8506 O 787.822 0.773638 3.9418 0
M  V30 8507 N 786.028 1.16316 2.66306 0
M  V30 8508 H 785.575 1.69237 1.94207 0
M  V30 8509 H 785.533 0.422534 3.11548 0
M  V30 8510 N 789.305 -0.326896 1.54172 0
M  V30 8511 C 790.552 -1.06523 1.72218 0
M  V30 8512 C 790.88 -1.88119 0.494114 0
M  V30 8513 O 790.135 -1.8855 -0.524147 0
M  V30 8514 C 790.434 -2.0208 2.94785 0
M  V30 8515 C 790.1 -1.36665 4.2969 0
M  V30 8516 C 788.762 -1.18556 4.66367 0
M  V30 8517 C 791.114 -0.896868 5.13425 0
M  V30 8518 C 788.442 -0.521113 5.84381 0
M  V30 8519 C 790.794 -0.246261 6.3212 0
M  V30 8520 C 789.458 -0.052987 6.67479 0
M  V30 8521 H 788.728 -0.389796 0.63019 0
M  V30 8522 H 791.375 -0.342725 1.88408 0
M  V30 8523 H 789.68 -2.8077 2.73268 0
M  V30 8524 H 791.377 -2.59231 3.05941 0
M  V30 8525 H 787.967 -1.51762 4.00832 0
M  V30 8526 H 792.151 -1.02458 4.85609 0
M  V30 8527 H 787.407 -0.36014 6.10338 0
M  V30 8528 H 791.581 0.125775 6.96286 0
M  V30 8529 H 789.208 0.463903 7.58783 0
M  V30 8530 N 790.784 -1.46188 -0.588786 0
M  V30 8531 C 791.716 -1.52319 -1.71265 0
M  V30 8532 C 792.729 -0.412096 -1.57498 0
M  V30 8533 O 793.918 -0.680146 -1.65034 0
M  V30 8534 C 791.018 -1.38164 -3.09458 0
M  V30 8535 C 790.191 -2.63284 -3.49286 0
M  V30 8536 C 789.25 -2.43415 -4.66514 0
M  V30 8537 O 788.276 -3.17113 -4.72682 0
M  V30 8538 N 789.478 -1.49187 -5.61002 0
M  V30 8539 H 792.243 -2.49219 -1.66463 0
M  V30 8540 H 789.804 -1.42167 -0.774601 0
M  V30 8541 H 791.796 -1.22653 -3.85666 0
M  V30 8542 H 790.366 -0.494678 -3.08661 0
M  V30 8543 H 789.586 -2.93779 -2.62845 0
M  V30 8544 H 790.874 -3.46413 -3.7266 0
M  V30 8545 H 790.272 -0.884027 -5.5875 0
M  V30 8546 H 788.829 -1.39642 -6.36666 0
M  V30 8547 N 792.262 0.832906 -1.33792 0
M  V30 8548 C 793.21 1.96455 -1.24532 0
M  V30 8549 C 794.204 1.68774 -0.145455 0
M  V30 8550 O 795.41 1.77314 -0.309797 0
M  V30 8551 H 791.785 0.645008 -0.386611 0
M  V30 8552 H 793.756 2.01389 -2.20193 0
M  V30 8553 C 792.505 3.32784 -1.00748 0
M  V30 8554 H 791.828 3.54626 -1.84609 0
M  V30 8555 H 793.268 4.12447 -0.98301 0
M  V30 8556 C 791.727 3.35654 0.289475 0
M  V30 8557 O 792.257 3.80281 1.29419 0
M  V30 8558 N 790.463 2.88843 0.3191 0
M  V30 8559 H 790.01 2.52719 -0.499069 0
M  V30 8560 H 789.968 2.91145 1.18667 0
M  V30 8561 N 793.74 1.17359 1.05189 0
M  V30 8562 C 795.156 0.920861 1.30355 0
M  V30 8563 C 795.356 -0.419993 1.97074 0
M  V30 8564 O 794.412 -1.15696 2.24434 0
M  V30 8565 C 795.725 2.07818 2.1733 0
M  V30 8566 C 797.273 2.1152 2.30712 0
M  V30 8567 C 797.748 3.26637 3.21048 0
M  V30 8568 N 799.239 3.26426 3.28634 0
M  V30 8569 C 799.974 4.12141 3.98657 0
M  V30 8570 N 799.47 5.07966 4.71107 0
M  V30 8571 N 801.263 4.00091 3.94821 0
M  V30 8572 H 793.414 2.03666 0.602821 0
M  V30 8573 H 795.677 0.889294 0.328421 0
M  V30 8574 H 795.383 3.04727 1.75597 0
M  V30 8575 H 795.257 2.02922 3.17966 0
M  V30 8576 H 797.644 1.15196 2.71687 0
M  V30 8577 H 797.725 2.20477 1.29706 0
M  V30 8578 H 797.369 4.23227 2.80788 0
M  V30 8579 H 797.299 3.14917 4.2206 0
M  V30 8580 H 799.79 2.57045 2.77013 0
M  V30 8581 H 800.103 5.69766 5.22099 0
M  V30 8582 H 798.448 5.11936 4.7005 0
M  V30 8583 H 801.639 3.24523 3.37346 0
M  V30 8584 H 801.812 4.6711 4.49123 0
M  V30 8585 N 795.218 -1.23913 0.973828 0
M  V30 8586 C 796.446 -1.96195 0.656891 0
M  V30 8587 C 796.861 -1.72166 -0.774876 0
M  V30 8588 O 796.218 -1.0091 -1.52064 0
M  V30 8589 C 796.269 -3.49342 0.929638 0
M  V30 8590 O 795.99 -3.72553 2.30512 0
M  V30 8591 C 797.491 -4.38833 0.627739 0
M  V30 8592 H 794.711 -0.624841 0.244572 0
M  V30 8593 H 797.255 -1.57579 1.30343 0
M  V30 8594 H 795.41 -3.85999 0.329216 0
M  V30 8595 H 795.824 -4.66893 2.3898 0
M  V30 8596 H 797.298 -5.45117 0.868991 0
M  V30 8597 H 797.775 -4.37009 -0.438104 0
M  V30 8598 H 798.381 -4.07773 1.20834 0
M  V30 8599 N 796.696 -0.74468 -1.38897 0
M  V30 8600 C 797.626 -0.126355 -2.33158 0
M  V30 8601 C 798.607 0.713517 -1.54412 0
M  V30 8602 O 799.792 0.656523 -1.82766 0
M  V30 8603 C 796.922 0.774375 -3.38557 0
M  V30 8604 C 795.876 0.0379214 -4.27983 0
M  V30 8605 C 795.202 1.05631 -5.24162 0
M  V30 8606 C 796.502 -1.12523 -5.10035 0
M  V30 8607 H 798.196 -0.913744 -2.85116 0
M  V30 8608 H 795.742 -0.440847 -1.37086 0
M  V30 8609 H 797.695 1.21655 -4.03458 0
M  V30 8610 H 796.419 1.59399 -2.85061 0
M  V30 8611 H 795.078 -0.384733 -3.64576 0
M  V30 8612 H 794.726 1.86975 -4.66958 0
M  V30 8613 H 794.426 0.568261 -5.84846 0
M  V30 8614 H 795.95 1.49799 -5.9194 0
M  V30 8615 H 797.364 -0.761037 -5.68226 0
M  V30 8616 H 795.761 -1.54355 -5.79909 0
M  V30 8617 H 796.831 -1.94237 -4.44297 0
M  V30 8618 N 798.174 1.49689 -0.493057 0
M  V30 8619 C 799.59 1.58907 -0.148526 0
M  V30 8620 C 799.79 1.4991 1.34645 0
M  V30 8621 O 798.846 1.36893 2.12171 0
M  V30 8622 C 800.159 2.91996 -0.718265 0
M  V30 8623 C 801.707 3.05443 -0.683658 0
M  V30 8624 C 802.182 4.41138 -1.23132 0
M  V30 8625 N 803.673 4.47608 -1.19167 0
M  V30 8626 C 804.408 5.51038 -1.5857 0
M  V30 8627 N 803.904 6.61612 -2.05528 0
M  V30 8628 N 805.697 5.41706 -1.50036 0
M  V30 8629 H 797.848 1.5378 -1.46511 0
M  V30 8630 H 800.111 0.727996 -0.607228 0
M  V30 8631 H 799.817 3.04123 -1.7664 0
M  V30 8632 H 799.691 3.76798 -0.17419 0
M  V30 8633 H 802.078 2.92949 0.355626 0
M  V30 8634 H 802.159 2.22344 -1.26479 0
M  V30 8635 H 801.803 4.54382 -2.26935 0
M  V30 8636 H 801.733 5.22864 -0.626201 0
M  V30 8637 H 804.224 3.68274 -0.847524 0
M  V30 8638 H 804.537 7.36622 -2.33685 0
M  V30 8639 H 802.882 6.62674 -2.09497 0
M  V30 8640 H 806.073 4.54212 -1.13176 0
M  V30 8641 H 806.246 6.22188 -1.81068 0
M  V30 8642 N 799.652 0.226554 1.55963 0
M  V30 8643 C 800.88 -0.408507 2.02827 0
M  V30 8644 C 801.295 -1.52994 1.10627 0
M  V30 8645 O 800.652 -1.82126 0.116809 0
M  V30 8646 C 800.703 -0.93545 3.49187 0
M  V30 8647 O 800.424 0.141273 4.37872 0
M  V30 8648 C 801.925 -1.64325 4.11719 0
M  V30 8649 H 799.145 -0.099442 0.66359 0
M  V30 8650 H 801.689 0.344471 2.01578 0
M  V30 8651 H 799.844 -1.63868 3.51036 0
M  V30 8652 H 800.258 -0.25558 5.23877 0
M  V30 8653 H 801.732 -1.9639 5.15883 0
M  V30 8654 H 802.209 -2.55815 3.57009 0
M  V30 8655 H 802.815 -0.9851 4.13734 0
M  V30 8656 N 801.13 -1.57531 -0.0467866 0
M  V30 8657 C 802.077 -2.05387 -1.05285 0
M  V30 8658 C 803.047 -0.939385 -1.36985 0
M  V30 8659 O 804.232 -1.20877 -1.47626 0
M  V30 8660 C 801.372 -2.52343 -2.35408 0
M  V30 8661 C 800.485 -3.77512 -2.10022 0
M  V30 8662 C 799.62 -4.1315 -3.33887 0
M  V30 8663 C 798.659 -5.31286 -3.03976 0
M  V30 8664 N 797.796 -5.62441 -4.20243 0
M  V30 8665 H 802.636 -2.91095 -0.637788 0
M  V30 8666 H 800.173 -1.43939 -0.303322 0
M  V30 8667 H 802.131 -2.77628 -3.11413 0
M  V30 8668 H 800.761 -1.69577 -2.7467 0
M  V30 8669 H 799.813 -3.59417 -1.24594 0
M  V30 8670 H 801.125 -4.63644 -1.83945 0
M  V30 8671 H 800.279 -4.39469 -4.18273 0
M  V30 8672 H 799.018 -3.25634 -3.63062 0
M  V30 8673 H 798.023 -5.04738 -2.17991 0
M  V30 8674 H 799.248 -6.20441 -2.76098 0
M  V30 8675 H 797.194 -4.77885 -4.49402 0
M  V30 8676 H 797.111 -6.43046 -3.97528 0
M  V30 8677 H 798.379 -5.93327 -5.05553 0
M  V30 8678 N 802.608 0.318715 -1.54344 0
M  V30 8679 C 803.833 1.07987 -1.77069 0
M  V30 8680 C 804.258 1.80766 -0.520117 0
M  V30 8681 O 803.616 1.73424 0.528566 0
M  V30 8682 C 803.664 2.04987 -2.96669 0
M  V30 8683 O 802.768 3.12974 -2.68554 0
M  V30 8684 H 802.109 0.311109 -0.586606 0
M  V30 8685 H 804.639 0.361533 -2.0138 0
M  V30 8686 H 804.649 2.47771 -3.2415 0
M  V30 8687 H 803.324 1.51417 -3.87357 0
M  V30 8688 H 801.901 2.74831 -2.52037 0
M  V30 8689 N 804.086 1.46499 0.581025 0
M  V30 8690 C 805.018 1.53225 1.70455 0
M  V30 8691 C 806.031 0.420443 1.57277 0
M  V30 8692 O 807.22 0.688888 1.64671 0
M  V30 8693 C 804.32 1.39803 3.08721 0
M  V30 8694 C 803.493 2.65132 3.47884 0
M  V30 8695 C 802.552 2.45886 4.65217 0
M  V30 8696 O 801.578 3.19615 4.70993 0
M  V30 8697 N 802.78 1.5216 5.60203 0
M  V30 8698 H 805.545 2.50098 1.65139 0
M  V30 8699 H 803.106 1.42576 0.76705 0
M  V30 8700 H 805.098 1.24697 3.8501 0
M  V30 8701 H 803.668 0.51104 3.08394 0
M  V30 8702 H 802.888 2.95169 2.61284 0
M  V30 8703 H 804.176 3.48385 3.70817 0
M  V30 8704 H 803.574 0.913646 5.58273 0
M  V30 8705 H 802.131 1.43017 6.35916 0
M  V30 8706 N 805.565 -0.825799 1.34232 0
M  V30 8707 C 806.512 -1.93651 1.2557 0
M  V30 8708 C 807.482 -1.65578 0.131536 0
M  V30 8709 O 808.667 -1.88231 0.312027 0
M  V30 8710 C 805.807 -3.29862 1.01415 0
M  V30 8711 C 804.92 -3.70247 2.22579 0
M  V30 8712 C 804.055 -4.95392 1.91731 0
M  V30 8713 C 803.094 -5.28349 3.09053 0
M  V30 8714 N 802.231 -6.44671 2.78107 0
M  V30 8715 H 807.071 -2.00392 2.20561 0
M  V30 8716 H 804.608 -0.980441 1.09662 0
M  V30 8717 H 806.566 -4.08356 0.854485 0
M  V30 8718 H 805.196 -3.22642 0.100936 0
M  V30 8719 H 804.248 -2.87169 2.49476 0
M  V30 8720 H 805.56 -3.90575 3.10246 0
M  V30 8721 H 804.714 -5.81665 1.72484 0
M  V30 8722 H 803.453 -4.77059 1.0132 0
M  V30 8723 H 802.458 -4.40574 3.289 0
M  V30 8724 H 803.683 -5.48622 4.00239 0
M  V30 8725 H 801.629 -6.278 1.9027 0
M  V30 8726 H 801.546 -6.65158 3.59306 0
M  V30 8727 H 802.814 -7.34022 2.62358 0
M  V30 8728 N 807.043 -1.17915 -1.04565 0
M  V30 8729 C 807.99 -0.901605 -2.12461 0
M  V30 8730 C 808.96 0.157011 -1.65356 0
M  V30 8731 O 810.145 0.0184494 -1.90791 0
M  V30 8732 C 807.285 -0.42796 -3.42436 0
M  V30 8733 C 806.398 -1.55142 -4.03181 0
M  V30 8734 C 805.533 -1.03101 -5.21098 0
M  V30 8735 C 804.572 -2.1295 -5.73863 0
M  V30 8736 N 803.709 -1.62339 -6.83074 0
M  V30 8737 H 808.549 -1.82551 -2.3554 0
M  V30 8738 H 806.086 -0.910389 -1.15544 0
M  V30 8739 H 808.044 -0.134859 -4.16982 0
M  V30 8740 H 806.674 0.458977 -3.1952 0
M  V30 8741 H 805.726 -1.96011 -3.26012 0
M  V30 8742 H 807.038 -2.37968 -4.38375 0
M  V30 8743 H 806.192 -0.692132 -6.02739 0
M  V30 8744 H 804.931 -0.17227 -4.87396 0
M  V30 8745 H 803.936 -2.47687 -4.90847 0
M  V30 8746 H 805.161 -2.9925 -6.09611 0
M  V30 8747 H 803.107 -0.787464 -6.51256 0
M  V30 8748 H 803.024 -2.38767 -7.17305 0
M  V30 8749 H 804.292 -1.31363 -7.68351 0
M  V30 8750 N 808.521 1.23394 -0.980386 0
M  V30 8751 C 809.937 1.43961 -0.689008 0
M  V30 8752 C 810.137 1.87229 0.744809 0
M  V30 8753 O 809.193 2.01831 1.51725 0
M  V30 8754 C 810.506 2.49128 -1.68392 0
M  V30 8755 C 812.054 2.62941 -1.69796 0
M  V30 8756 C 812.529 3.71317 -2.68118 0
M  V30 8757 N 814.02 3.7876 -2.66636 0
M  V30 8758 C 814.755 4.62176 -3.39383 0
M  V30 8759 N 814.251 5.49682 -4.21688 0
M  V30 8760 N 816.044 4.56372 -3.28147 0
M  V30 8761 H 808.195 0.936106 -1.90659 0
M  V30 8762 H 810.458 0.473023 -0.821555 0
M  V30 8763 H 810.164 2.24252 -2.70931 0
M  V30 8764 H 810.038 3.47514 -1.46675 0
M  V30 8765 H 812.425 2.87168 -0.679617 0
M  V30 8766 H 812.506 1.64871 -1.95579 0
M  V30 8767 H 812.15 3.4784 -3.70095 0
M  V30 8768 H 812.08 4.68929 -2.3961 0
M  V30 8769 H 814.571 3.16226 -2.06904 0
M  V30 8770 H 814.884 6.10323 -4.74053 0
M  V30 8771 H 813.229 5.49306 -4.25779 0
M  V30 8772 H 816.42 3.87029 -2.63299 0
M  V30 8773 H 816.593 5.21153 -3.85102 0
M  V30 8774 N 809.999 0.752036 1.385 0
M  V30 8775 C 811.246 0.307503 2.00152 0
M  V30 8776 C 811.574 -1.11033 1.59693 0
M  V30 8777 O 810.829 -1.77455 0.825125 0
M  V30 8778 C 811.128 0.376155 3.55415 0
M  V30 8779 C 810.794 1.74942 4.15579 0
M  V30 8780 C 809.456 2.12525 4.31725 0
M  V30 8781 C 811.808 2.65031 4.48785 0
M  V30 8782 C 809.136 3.39671 4.78373 0
M  V30 8783 C 811.488 3.91567 4.96848 0
M  V30 8784 C 810.152 4.2922 5.11201 0
M  V30 8785 H 809.422 0.112523 0.732407 0
M  V30 8786 H 812.069 0.962213 1.65571 0
M  V30 8787 H 810.374 -0.362121 3.90123 0
M  V30 8788 H 812.071 0.0138065 4.00998 0
M  V30 8789 H 808.661 1.44726 4.03426 0
M  V30 8790 H 812.845 2.3726 4.35914 0
M  V30 8791 H 808.101 3.68765 4.8767 0
M  V30 8792 H 812.275 4.61517 5.21512 0
M  V30 8793 H 809.902 5.27805 5.47107 0
M  V30 8794 N 811.477 -1.49425 0.500989 0
M  V30 8795 C 812.387 -2.32899 -0.282011 0
M  V30 8796 C 813.403 -1.44632 -0.967346 0
M  V30 8797 O 814.579 -1.77654 -0.94873 0
M  V30 8798 C 811.644 -3.20069 -1.33253 0
M  V30 8799 C 810.705 -4.24186 -0.660636 0
M  V30 8800 C 809.938 -5.07191 -1.6611 0
M  V30 8801 O 810.161 -4.91712 -2.89094 0
M  V30 8802 O 809.095 -5.8948 -1.21643 0
M  V30 8803 H 812.921 -3.01038 0.401224 0
M  V30 8804 H 810.506 -1.47079 0.262323 0
M  V30 8805 H 812.388 -3.74071 -1.94033 0
M  V30 8806 H 811.063 -2.54625 -1.9987 0
M  V30 8807 H 809.97 -3.74098 -0.0130959 0
M  V30 8808 H 811.303 -4.92186 -0.0369179 0
M  V30 8809 N 812.955 -0.234822 -1.55841 0
M  V30 8810 C 813.865 0.680828 -2.24504 0
M  V30 8811 C 814.881 1.20306 -1.25708 0
M  V30 8812 O 816.057 1.24188 -1.58554 0
M  V30 8813 C 813.122 1.86636 -2.92178 0
M  V30 8814 C 812.183 1.3848 -4.06352 0
M  V30 8815 C 811.416 2.51382 -4.70789 0
M  V30 8816 O 811.639 3.69831 -4.34259 0
M  V30 8817 O 810.573 2.21828 -5.59532 0
M  V30 8818 H 814.399 0.12583 -3.03439 0
M  V30 8819 H 811.984 -0.00381817 -1.494 0
M  V30 8820 H 813.866 2.55845 -3.34845 0
M  V30 8821 H 812.541 2.40921 -2.16192 0
M  V30 8822 H 811.448 0.660341 -3.68226 0
M  V30 8823 H 812.781 0.888177 -4.8412 0
M  V30 8824 N 814.433 1.57553 0.0384317 0
M  V30 8825 C 815.343 2.09333 1.0591 0
M  V30 8826 C 816.359 1.0299 1.40247 0
M  V30 8827 O 817.535 1.34669 1.49754 0
M  V30 8828 C 814.6 2.55468 2.34386 0
M  V30 8829 C 813.661 3.76254 2.06716 0
M  V30 8830 C 812.894 4.20179 3.29067 0
M  V30 8831 O 813.117 3.637 4.39407 0
M  V30 8832 O 812.051 5.12697 3.15317 0
M  V30 8833 H 815.877 2.96683 0.649087 0
M  V30 8834 H 813.462 1.47211 0.254802 0
M  V30 8835 H 815.344 2.85514 3.09935 0
M  V30 8836 H 814.019 1.71234 2.74701 0
M  V30 8837 H 812.926 3.51241 1.28766 0
M  V30 8838 H 814.259 4.61443 1.71263 0
M  V30 8839 N 815.911 -0.310526 1.54511 0
M  V30 8840 C 816.841 -1.38757 1.878 0
M  V30 8841 C 817.822 -1.53353 0.735991 0
M  V30 8842 O 819.007 -1.67018 0.990887 0
M  V30 8843 C 816.137 -2.75327 2.11689 0
M  V30 8844 C 815.091 -2.75506 3.27537 0
M  V30 8845 C 814.417 -4.15275 3.36824 0
M  V30 8846 C 815.717 -2.38093 4.64875 0
M  V30 8847 H 817.411 -1.11146 2.78005 0
M  V30 8848 H 814.957 -0.533232 1.33763 0
M  V30 8849 H 816.91 -3.50752 2.33562 0
M  V30 8850 H 815.634 -3.04443 1.18245 0
M  V30 8851 H 814.293 -2.02538 3.05572 0
M  V30 8852 H 813.941 -4.41553 2.40915 0
M  V30 8853 H 813.641 -4.16299 4.14692 0
M  V30 8854 H 815.165 -4.92493 3.60947 0
M  V30 8855 H 816.579 -3.03232 4.86542 0
M  V30 8856 H 814.976 -2.50345 5.45387 0
M  V30 8857 H 816.046 -1.33227 4.66239 0
M  V30 8858 N 817.389 -1.46805 -0.573248 0
M  V30 8859 C 818.337 -1.58468 -1.70267 0
M  V30 8860 C 819.331 -0.452694 -1.63239 0
M  V30 8861 O 820.537 -0.629915 -1.68618 0
M  V30 8862 H 816.912 -0.498408 -0.56311 0
M  V30 8863 H 818.883 -2.5341 -1.57563 0
M  V30 8864 C 817.632 -1.60104 -3.08645 0
M  V30 8865 H 816.955 -2.4655 -3.14727 0
M  V30 8866 H 818.395 -1.72318 -3.87405 0
M  V30 8867 C 816.854 -0.33138 -3.35266 0
M  V30 8868 O 817.384 0.57438 -3.97572 0
M  V30 8869 N 815.59 -0.216358 -2.89793 0
M  V30 8870 H 815.137 -0.954345 -2.3927 0
M  V30 8871 H 815.095 0.632253 -3.07977 0
M  V30 8872 N 818.867 0.818669 -1.34668 0
M  V30 8873 C 819.777 1.9616 -1.2868 0
M  V30 8874 C 820.793 1.72918 -0.193742 0
M  V30 8875 O 821.969 1.96951 -0.420975 0
M  V30 8876 C 819.034 3.30534 -1.04633 0
M  V30 8877 C 818.095 3.66755 -2.23136 0
M  V30 8878 C 817.328 4.94717 -2.00227 0
M  V30 8879 O 817.551 5.62218 -0.96264 0
M  V30 8880 O 816.485 5.28915 -2.87286 0
M  V30 8881 H 820.311 2.04157 -2.24842 0
M  V30 8882 H 817.896 0.954691 -1.14917 0
M  V30 8883 H 819.778 4.11005 -0.930216 0
M  V30 8884 H 818.453 3.23495 -0.115139 0
M  V30 8885 H 817.36 2.8671 -2.40308 0
M  V30 8886 H 818.693 3.78484 -3.1466 0
M  V30 8887 N 820.346 1.18468 1.03938 0
M  V30 8888 C 821.762 0.934635 1.29371 0
M  V30 8889 C 821.962 -0.399067 1.97509 0
M  V30 8890 O 821.018 -1.13309 2.25648 0
M  V30 8891 C 822.331 2.10111 2.15114 0
M  V30 8892 C 823.879 2.13955 2.28456 0
M  V30 8893 C 824.354 3.30024 3.17566 0
M  V30 8894 N 825.845 3.29893 3.25153 0
M  V30 8895 C 826.58 4.16346 3.94263 0
M  V30 8896 N 826.076 5.12934 4.65693 0
M  V30 8897 N 827.869 4.04256 3.90556 0
M  V30 8898 H 820.02 2.04294 0.581185 0
M  V30 8899 H 822.283 0.892727 0.318971 0
M  V30 8900 H 821.989 3.06572 1.72355 0
M  V30 8901 H 821.863 2.06283 3.15796 0
M  V30 8902 H 824.25 1.18072 2.7045 0
M  V30 8903 H 824.331 2.2184 1.2736 0
M  V30 8904 H 823.975 4.26181 2.76283 0
M  V30 8905 H 823.905 3.19376 4.18697 0
M  V30 8906 H 826.396 2.59969 2.74271 0
M  V30 8907 H 826.709 5.75271 5.16026 0
M  V30 8908 H 825.054 5.16893 4.64593 0
M  V30 8909 H 828.245 3.28083 3.33885 0
M  V30 8910 H 828.418 4.71848 4.44144 0
M  V30 8911 N 821.824 -1.22873 0.986916 0
M  V30 8912 C 822.757 -2.23154 0.477245 0
M  V30 8913 C 823.735 -1.55981 -0.459206 0
M  V30 8914 O 824.919 -1.84503 -0.386141 0
M  V30 8915 C 822.046 -3.37289 -0.308838 0
M  V30 8916 C 821.092 -4.22637 0.572717 0
M  V30 8917 S 821.925 -4.95758 2.02446 0
M  V30 8918 C 823.081 -6.13338 1.2477 0
M  V30 8919 H 823.314 -2.6604 1.32702 0
M  V30 8920 H 820.847 -1.32455 0.793415 0
M  V30 8921 H 822.805 -4.03472 -0.756351 0
M  V30 8922 H 821.466 -2.92922 -1.13381 0
M  V30 8923 H 820.659 -5.0399 -0.0318024 0
M  V30 8924 H 820.261 -3.61555 0.956746 0
M  V30 8925 H 822.553 -6.7556 0.51231 0
M  V30 8926 H 823.496 -6.78189 2.03629 0
M  V30 8927 H 823.904 -5.59311 0.763622 0
M  V30 8928 N 823.302 -0.75937 -1.38099 0
M  V30 8929 C 824.551 -0.314864 -1.99227 0
M  V30 8930 C 824.864 1.1113 -1.60964 0
M  V30 8931 O 826.07 1.65657 -2.15105 0
M  V30 8932 C 824.526 -0.512001 -3.56239 0
M  V30 8933 C 824.134 -1.94762 -4.0345 0
M  V30 8934 C 825.878 -0.130497 -4.24299 0
M  V30 8935 C 823.785 -2.09301 -5.53125 0
M  V30 8936 H 822.715 -0.113978 -0.745335 0
M  V30 8937 H 825.366 -0.936736 -1.57789 0
M  V30 8938 H 823.748 0.179144 -3.95595 0
M  V30 8939 H 824.922 -2.67271 -3.75371 0
M  V30 8940 H 823.237 -2.28457 -3.48133 0
M  V30 8941 H 825.834 -0.21781 -5.34256 0
M  V30 8942 H 826.177 0.917644 -4.0606 0
M  V30 8943 H 826.71 -0.773716 -3.90203 0
M  V30 8944 H 823.449 -3.1239 -5.76275 0
M  V30 8945 H 822.969 -1.41261 -5.82928 0
M  V30 8946 H 824.648 -1.88571 -6.1891 0
M  V30 8947 N 824.78 1.49157 -0.508906 0
M  V30 8948 C 825.712 2.272 0.302115 0
M  V30 8949 C 826.725 1.3407 0.923529 0
M  V30 8950 O 827.914 1.5929 0.805532 0
M  V30 8951 C 825.014 3.06736 1.44105 0
M  V30 8952 C 824.187 4.27497 0.925477 0
M  V30 8953 C 823.246 4.89014 1.94297 0
M  V30 8954 O 822.272 5.48851 1.50834 0
M  V30 8955 N 823.474 4.7937 3.2739 0
M  V30 8956 H 826.239 2.97443 -0.367115 0
M  V30 8957 H 823.8 1.58248 -0.341933 0
M  V30 8958 H 825.792 3.44763 2.11944 0
M  V30 8959 H 824.362 2.3905 2.0143 0
M  V30 8960 H 823.582 3.94135 0.0717301 0
M  V30 8961 H 824.87 5.05714 0.55955 0
M  V30 8962 H 824.268 4.31869 3.65384 0
M  V30 8963 H 822.825 5.21559 3.90922 0
M  V30 8964 N 826.258 0.243083 1.55714 0
M  V30 8965 C 827.221 -0.644723 2.19945 0
M  V30 8966 C 828.221 -1.10562 1.16759 0
M  V30 8967 O 829.411 -1.01095 1.41865 0
M  V30 8968 C 826.543 -1.88569 2.83997 0
M  V30 8969 H 827.736 -0.0843839 2.99781 0
M  V30 8970 H 825.289 -0.00647246 1.56299 0
M  V30 8971 H 826.024 -2.48736 2.08089 0
M  V30 8972 H 825.809 -1.56345 3.59581 0
M  V30 8973 H 827.299 -2.51774 3.33166 0
M  V30 8974 N 827.736 -1.57571 -0.0300757 0
M  V30 8975 C 828.985 -1.88407 -0.720126 0
M  V30 8976 C 829.298 -0.841466 -1.76575 0
M  V30 8977 O 830.504 -1.03902 -2.50832 0
M  V30 8978 C 828.96 -3.34348 -1.33188 0
M  V30 8979 C 828.568 -4.46837 -0.32266 0
M  V30 8980 C 830.312 -3.74333 -2.00187 0
M  V30 8981 C 828.219 -5.83838 -0.942703 0
M  V30 8982 H 827.149 -0.702952 -0.272718 0
M  V30 8983 H 829.8 -1.83482 0.0255337 0
M  V30 8984 H 828.182 -3.34014 -2.12721 0
M  V30 8985 H 829.356 -4.58638 0.445887 0
M  V30 8986 H 827.671 -4.15678 0.245181 0
M  V30 8987 H 830.268 -4.74008 -2.47428 0
M  V30 8988 H 830.611 -3.06275 -2.81959 0
M  V30 8989 H 831.144 -3.76837 -1.2743 0
M  V30 8990 H 827.883 -6.55294 -0.164413 0
M  V30 8991 H 827.403 -5.75759 -1.68111 0
M  V30 8992 H 829.082 -6.30535 -1.45034 0
M  V30 8993 N 829.214 0.302327 -1.54673 0
M  V30 8994 C 830.491 1.05721 -1.64567 0
M  V30 8995 C 830.871 2.0526 -0.493108 0
M  V30 8996 O 830.219 2.22729 0.510315 0
M  V30 8997 C 830.429 1.74025 -3.02517 0
M  V30 8998 C 831.777 2.26271 -3.59286 0
M  V30 8999 O 832.801 1.8406 -3.0496 0
M  V30 9000 O 831.66 3.0361 -4.54404 0
M  V30 9001 H 828.754 0.488577 -0.667249 0
M  V30 9002 H 831.3 0.300521 -1.67018 0
M  V30 9003 H 830.072 1.0174 -3.77842 0
M  V30 9004 H 829.695 2.56454 -3.03838 0
M  V30 9005 N 830.692 1.47107 0.565454 0
M  V30 9006 C 831.94 1.53005 1.32038 0
M  V30 9007 C 832.261 0.190453 1.94068 0
M  V30 9008 O 831.531 -0.784783 1.79494 0
M  V30 9009 H 830.111 0.563578 0.490294 0
M  V30 9010 H 832.773 1.83351 0.660928 0
M  V30 9011 H 831.869 2.29215 2.11818 0
M  V30 9012 N 832.17 -0.811516 1.35101 0
M  V30 9013 C 833.419 -1.56343 1.27435 0
M  V30 9014 C 833.732 -1.95019 -0.150696 0
M  V30 9015 O 834.938 -2.6924 -0.349586 0
M  V30 9016 C 833.394 -2.82124 2.23459 0
M  V30 9017 C 833.002 -2.50706 3.71283 0
M  V30 9018 C 834.746 -3.60137 2.24726 0
M  V30 9019 C 832.653 -3.72748 4.59143 0
M  V30 9020 H 831.583 -0.58682 0.473453 0
M  V30 9021 H 834.234 -0.892465 1.60335 0
M  V30 9022 H 832.616 -3.50905 1.83525 0
M  V30 9023 H 833.79 -1.89962 4.19823 0
M  V30 9024 H 832.105 -1.85947 3.72576 0
M  V30 9025 H 834.702 -4.50775 2.87587 0
M  V30 9026 H 835.045 -3.97101 1.24965 0
M  V30 9027 H 835.578 -2.98311 2.63164 0
M  V30 9028 H 832.317 -3.40896 5.59884 0
M  V30 9029 H 831.837 -4.32735 4.15332 0
M  V30 9030 H 833.516 -4.40033 4.74321 0
M  V30 9031 N 833.648 -1.19017 -1.03309 0
M  V30 9032 C 834.596 -0.920627 -2.13605 0
M  V30 9033 C 835.59 0.121969 -1.6896 0
M  V30 9034 O 836.796 -0.0268854 -1.7998 0
M  V30 9035 H 833.171 -0.280284 -0.697814 0
M  V30 9036 H 835.142 -1.85755 -2.33533 0
M  V30 9037 C 833.891 -0.471198 -3.44492 0
M  V30 9038 H 833.214 -1.26499 -3.7926 0
M  V30 9039 H 834.654 -0.321663 -4.22778 0
M  V30 9040 C 833.113 0.81411 -3.26916 0
M  V30 9041 O 833.643 1.87654 -3.55175 0
M  V30 9042 N 831.849 0.769695 -2.80221 0
M  V30 9043 H 831.396 -0.0951278 -2.57424 0
M  V30 9044 H 831.354 1.63008 -2.68842 0
M  V30 9045 N 835.127 1.22348 -0.993418 0
M  V30 9046 C 836.09 2.22522 -0.549251 0
M  V30 9047 C 837.09 1.56529 0.368164 0
M  V30 9048 O 838.28 1.73463 0.16005 0
M  V30 9049 C 835.412 3.40307 0.201037 0
M  V30 9050 H 836.605 2.63332 -1.43515 0
M  V30 9051 H 834.158 1.35407 -0.78068 0
M  V30 9052 H 834.893 3.0497 1.10289 0
M  V30 9053 H 834.678 3.8942 -0.457685 0
M  V30 9054 H 836.168 4.14597 0.499946 0
M  V30 9055 N 836.605 0.766683 1.37694 0
M  V30 9056 C 837.537 0.107798 2.28946 0
M  V30 9057 C 838.55 -0.669701 1.48387 0
M  V30 9058 O 839.739 -0.508629 1.711 0
M  V30 9059 C 836.839 -0.871084 3.27514 0
M  V30 9060 C 836.012 -0.148471 4.37148 0
M  V30 9061 C 835.071 -1.03998 5.1582 0
M  V30 9062 O 834.097 -0.505639 5.6695 0
M  V30 9063 N 835.299 -2.36679 5.3006 0
M  V30 9064 H 838.064 0.89154 2.86132 0
M  V30 9065 H 835.625 0.618593 1.49616 0
M  V30 9066 H 837.617 -1.47081 3.77027 0
M  V30 9067 H 836.187 -1.55582 2.71133 0
M  V30 9068 H 835.407 0.632117 3.89099 0
M  V30 9069 H 836.695 0.351045 5.07588 0
M  V30 9070 H 836.093 -2.82532 4.90094 0
M  V30 9071 H 834.65 -2.9167 5.82899 0
M  V30 9072 N 838.083 -1.48885 0.516809 0
M  V30 9073 C 839.03 -2.29408 -0.253125 0
M  V30 9074 C 840 -1.36533 -0.945935 0
M  V30 9075 O 841.185 -1.65495 -0.949527 0
M  V30 9076 C 838.325 -3.19592 -1.30211 0
M  V30 9077 C 837.438 -4.27535 -0.61948 0
M  V30 9078 C 836.573 -5.04916 -1.65026 0
M  V30 9079 C 835.612 -6.04677 -0.950368 0
M  V30 9080 N 834.749 -6.75164 -1.92608 0
M  V30 9081 H 839.589 -2.94738 0.439744 0
M  V30 9082 H 837.126 -1.45311 0.2287 0
M  V30 9083 H 839.084 -3.70267 -1.92245 0
M  V30 9084 H 837.714 -2.56213 -1.96353 0
M  V30 9085 H 836.766 -3.80228 0.114505 0
M  V30 9086 H 838.078 -4.98752 -0.0693016 0
M  V30 9087 H 837.232 -5.59539 -2.34523 0
M  V30 9088 H 835.971 -4.33508 -2.23432 0
M  V30 9089 H 834.976 -5.4927 -0.241252 0
M  V30 9090 H 836.201 -6.78077 -0.372599 0
M  V30 9091 H 834.147 -6.06517 -2.49946 0
M  V30 9092 H 834.064 -7.4241 -1.42699 0
M  V30 9093 H 835.332 -7.34384 -2.61345 0
M  V30 9094 N 839.561 -0.251338 -1.55583 0
M  V30 9095 C 840.493 0.679167 -2.18906 0
M  V30 9096 C 841.506 1.13545 -1.16667 0
M  V30 9097 O 842.695 1.06146 -1.4351 0
M  V30 9098 C 839.795 1.93544 -2.78198 0
M  V30 9099 C 838.968 1.62987 -4.05899 0
M  V30 9100 C 838.027 2.73618 -4.49466 0
M  V30 9101 O 837.053 2.40815 -5.15749 0
M  V30 9102 N 838.255 4.03204 -4.1762 0
M  V30 9103 H 841.02 0.137328 -2.99385 0
M  V30 9104 H 838.581 -0.0714754 -1.61742 0
M  V30 9105 H 840.573 2.66804 -3.04299 0
M  V30 9106 H 839.143 2.38695 -2.0185 0
M  V30 9107 H 838.363 0.732237 -3.8734 0
M  V30 9108 H 839.651 1.40041 -4.89148 0
M  V30 9109 H 839.049 4.32686 -3.64416 0
M  V30 9110 H 837.606 4.72916 -4.48547 0
M  V30 9111 N 841.039 1.57585 0.0217189 0
M  V30 9112 C 842.285 1.90733 0.706582 0
M  V30 9113 C 842.64 0.850732 1.7257 0
M  V30 9114 O 841.933 -0.139715 1.9109 0
M  V30 9115 C 842.127 3.28377 1.41079 0
M  V30 9116 C 841.956 4.47327 0.461395 0
M  V30 9117 C 840.726 5.05237 0.0797404 0
M  V30 9118 C 842.924 5.13626 -0.263302 0
M  V30 9119 N 840.906 6.07702 -0.870139 0
M  V30 9120 C 842.277 6.10722 -1.06859 0
M  V30 9121 C 844.332 4.96809 -0.329461 0
M  V30 9122 C 843.035 6.92813 -1.93397 0
M  V30 9123 C 845.061 5.79468 -1.18199 0
M  V30 9124 C 844.423 6.7614 -1.97519 0
M  V30 9125 H 840.522 0.74666 0.232427 0
M  V30 9126 H 843.106 1.94671 -0.0335228 0
M  V30 9127 H 841.277 3.25354 2.12131 0
M  V30 9128 H 843.009 3.49018 2.04862 0
M  V30 9129 H 839.764 4.71519 0.443498 0
M  V30 9130 H 840.188 6.6361 -1.33981 0
M  V30 9131 H 844.83 4.2194 0.269485 0
M  V30 9132 H 842.548 7.67022 -2.54369 0
M  V30 9133 H 846.134 5.68502 -1.23681 0
M  V30 9134 H 845.014 7.38989 -2.62421 0
M  V30 9135 N 842.517 -0.29412 1.54831 0
M  V30 9136 C 843.447 -1.36757 1.89261 0
M  V30 9137 C 844.428 -1.52564 0.752214 0
M  V30 9138 O 845.613 -1.65958 1.00855 0
M  V30 9139 C 842.743 -2.73066 2.14597 0
M  V30 9140 C 841.697 -2.72017 3.3044 0
M  V30 9141 C 841.023 -4.11679 3.4121 0
M  V30 9142 C 842.323 -2.33149 4.67375 0
M  V30 9143 H 844.017 -1.08191 2.79169 0
M  V30 9144 H 841.563 -0.519014 1.34321 0
M  V30 9145 H 843.516 -3.48255 2.37269 0
M  V30 9146 H 842.24 -3.03172 1.21467 0
M  V30 9147 H 840.899 -1.99285 3.07703 0
M  V30 9148 H 840.547 -4.38973 2.45584 0
M  V30 9149 H 840.247 -4.11877 4.19084 0
M  V30 9150 H 841.771 -4.88637 3.6615 0
M  V30 9151 H 843.185 -2.98054 4.89731 0
M  V30 9152 H 841.582 -2.44546 5.48012 0
M  V30 9153 H 842.652 -1.28275 4.67626 0
M  V30 9154 N 843.995 -1.47404 -0.557645 0
M  V30 9155 C 844.942 -1.59859 -1.66475 0
M  V30 9156 C 845.912 -0.441644 -1.60121 0
M  V30 9157 O 847.097 -0.661641 -1.78961 0
M  V30 9158 C 844.237 -1.61843 -3.04797 0
M  V30 9159 C 843.35 -2.8845 -3.2159 0
M  V30 9160 C 842.485 -2.81773 -4.50308 0
M  V30 9161 C 841.524 -4.03208 -4.60532 0
M  V30 9162 N 840.661 -3.94769 -5.80604 0
M  V30 9163 H 845.501 -2.54415 -1.55168 0
M  V30 9164 H 843.038 -1.26194 -0.755876 0
M  V30 9165 H 844.996 -1.60976 -3.84893 0
M  V30 9166 H 843.626 -0.707997 -3.1494 0
M  V30 9167 H 842.678 -2.99186 -2.34929 0
M  V30 9168 H 843.99 -3.78379 -3.25009 0
M  V30 9169 H 843.144 -2.79153 -5.38663 0
M  V30 9170 H 841.883 -1.89527 -4.49367 0
M  V30 9171 H 840.888 -4.06133 -3.70589 0
M  V30 9172 H 842.113 -4.9658 -4.63233 0
M  V30 9173 H 840.059 -3.05326 -5.80613 0
M  V30 9174 H 839.976 -4.78375 -5.854 0
M  V30 9175 H 841.244 -3.96165 -6.71322 0
M  V30 9176 N 845.473 0.80434 -1.35529 0
M  V30 9177 C 846.698 1.598 -1.32207 0
M  V30 9178 C 847.123 1.87848 0.0974226 0
M  V30 9179 O 846.481 1.46728 1.06492 0
M  V30 9180 C 846.529 2.90483 -2.13663 0
M  V30 9181 O 845.633 3.83411 -1.51888 0
M  V30 9182 H 844.974 0.485305 -0.453183 0
M  V30 9183 H 847.504 0.998119 -1.78602 0
M  V30 9184 H 847.514 3.39888 -2.257 0
M  V30 9185 H 846.189 2.69395 -3.16859 0
M  V30 9186 H 844.766 3.41967 -1.48704 0
M  V30 9187 N 846.951 1.19563 1.02676 0
M  V30 9188 C 847.861 0.950691 2.14474 0
M  V30 9189 C 848.877 -0.0900219 1.73767 0
M  V30 9190 O 850.053 0.0951063 2.01175 0
M  V30 9191 C 847.118 0.494917 3.43149 0
M  V30 9192 C 846.179 1.60527 3.98158 0
M  V30 9193 C 845.412 1.17115 5.20692 0
M  V30 9194 O 845.635 0.0355937 5.70389 0
M  V30 9195 O 844.569 1.97454 5.68591 0
M  V30 9196 H 848.395 1.88651 2.38001 0
M  V30 9197 H 845.98 0.978635 1.12885 0
M  V30 9198 H 847.862 0.249492 4.20661 0
M  V30 9199 H 846.537 -0.412434 3.21062 0
M  V30 9200 H 845.444 1.90487 3.21971 0
M  V30 9201 H 846.777 2.48925 4.24614 0
M  V30 9202 N 848.429 -1.21819 0.999893 0
M  V30 9203 C 849.706 -1.86318 0.595384 0
M  V30 9204 C 850.086 -1.8965 -0.927143 0
M  V30 9205 O 849.434 -1.3921 -1.81199 0
M  V30 9206 C 849.644 -3.26837 1.22387 0
M  V30 9207 C 850.992 -4.03272 1.32878 0
M  V30 9208 O 852.016 -3.36129 1.1788 0
M  V30 9209 O 850.875 -5.23477 1.56952 0
M  V30 9210 H 847.969 -0.801638 0.203238 0
M  V30 9211 H 850.515 -1.29542 1.09622 0
M  V30 9212 H 849.287 -3.19084 2.26497 0
M  V30 9213 H 848.91 -3.91226 0.709069 0
M  V30 9214 N 849.908 -0.773975 -1.37286 0
M  V30 9215 C 851.157 -0.335977 -1.98882 0
M  V30 9216 C 851.47 1.09416 -1.62134 0
M  V30 9217 O 852.676 1.63366 -2.1685 0
M  V30 9218 C 851.132 -0.549756 -3.55676 0
M  V30 9219 C 850.74 -1.9903 -4.01361 0
M  V30 9220 C 852.484 -0.175493 -4.24137 0
M  V30 9221 C 850.391 -2.15156 -5.50874 0
M  V30 9222 H 849.321 -0.121877 -0.744085 0
M  V30 9223 H 851.972 -0.953419 -1.56787 0
M  V30 9224 H 850.354 0.137175 -3.95762 0
M  V30 9225 H 851.528 -2.71237 -3.72515 0
M  V30 9226 H 849.843 -2.32137 -3.4569 0
M  V30 9227 H 852.44 -0.274463 -5.33995 0
M  V30 9228 H 852.783 0.874524 -4.07011 0
M  V30 9229 H 853.316 -0.815058 -3.89361 0
M  V30 9230 H 850.055 -3.18485 -5.72929 0
M  V30 9231 H 849.575 -1.47435 -5.81397 0
M  V30 9232 H 851.254 -1.95124 -6.16876 0
M  V30 9233 N 851.386 1.48609 -0.524698 0
M  V30 9234 C 852.318 2.27508 0.278 0
M  V30 9235 C 853.331 1.35042 0.909258 0
M  V30 9236 O 854.52 1.60136 0.788592 0
M  V30 9237 C 851.62 3.08247 1.40843 0
M  V30 9238 C 850.793 4.28455 0.880083 0
M  V30 9239 C 849.852 4.91048 1.891 0
M  V30 9240 O 848.878 5.5042 1.45005 0
M  V30 9241 N 850.08 4.82816 3.22288 0
M  V30 9242 H 852.845 2.97037 -0.398642 0
M  V30 9243 H 850.406 1.57876 -0.358698 0
M  V30 9244 H 852.398 3.46992 2.08276 0
M  V30 9245 H 850.968 2.41173 1.98883 0
M  V30 9246 H 850.188 3.94189 0.0299228 0
M  V30 9247 H 851.476 5.06279 0.505881 0
M  V30 9248 H 850.874 4.3572 3.60783 0
M  V30 9249 H 849.431 5.25676 3.85368 0
M  V30 9250 N 852.864 0.259585 1.55447 0
M  V30 9251 C 854.28 -0.094961 1.59317 0
M  V30 9252 C 854.48 -1.55884 1.2768 0
M  V30 9253 O 853.536 -2.30528 1.0302 0
M  V30 9254 C 854.849 0.265669 2.99524 0
M  V30 9255 C 856.397 0.211007 3.12288 0
M  V30 9256 C 856.872 0.545851 4.54736 0
M  V30 9257 N 858.363 0.496823 4.60528 0
M  V30 9258 C 859.098 0.728909 5.68748 0
M  V30 9259 N 858.594 1.02479 6.85179 0
M  V30 9260 N 860.387 0.658756 5.58226 0
M  V30 9261 H 852.538 1.2141 1.7428 0
M  V30 9262 H 854.801 0.489404 0.811904 0
M  V30 9263 H 854.507 1.28316 3.27457 0
M  V30 9264 H 854.381 -0.401089 3.75061 0
M  V30 9265 H 856.768 -0.797172 2.84129 0
M  V30 9266 H 856.849 0.911799 2.38998 0
M  V30 9267 H 856.493 1.55164 4.83618 0
M  V30 9268 H 856.423 -0.17656 5.26304 0
M  V30 9269 H 858.914 0.277376 3.76881 0
M  V30 9270 H 859.227 1.18897 7.63599 0
M  V30 9271 H 857.572 1.0624 6.86832 0
M  V30 9272 H 860.763 0.427553 4.66143 0
M  V30 9273 H 860.936 0.84302 6.42493 0
M  V30 9274 N 854.342 -1.57594 -0.0133615 0
M  V30 9275 C 855.591 -1.8916 -0.700103 0
M  V30 9276 C 855.904 -0.860147 -1.75673 0
M  V30 9277 O 857.11 -1.06556 -2.49716 0
M  V30 9278 C 855.566 -3.35742 -1.29635 0
M  V30 9279 C 855.174 -4.47154 -0.275249 0
M  V30 9280 C 856.918 -3.76436 -1.96205 0
M  V30 9281 C 854.825 -5.84805 -0.880726 0
M  V30 9282 H 853.755 -0.705805 -0.265247 0
M  V30 9283 H 856.406 -1.83445 0.044993 0
M  V30 9284 H 854.788 -3.36252 -2.09167 0
M  V30 9285 H 855.962 -4.58139 0.494506 0
M  V30 9286 H 854.277 -4.15394 0.289256 0
M  V30 9287 H 856.874 -4.76606 -2.42386 0
M  V30 9288 H 857.217 -3.09249 -2.78695 0
M  V30 9289 H 857.75 -3.78168 -1.23426 0
M  V30 9290 H 854.489 -6.55431 -0.0949013 0
M  V30 9291 H 854.009 -5.7751 -1.61995 0
M  V30 9292 H 855.688 -6.32038 -1.38338 0
M  V30 9293 N 855.82 0.285905 -1.54985 0
M  V30 9294 C 857.045 1.04207 -1.7932 0
M  V30 9295 C 857.47 1.79622 -0.558343 0
M  V30 9296 O 856.828 1.74506 0.491661 0
M  V30 9297 C 856.876 1.98648 -3.0095 0
M  V30 9298 O 855.98 3.07207 -2.75132 0
M  V30 9299 H 855.321 0.298596 -0.593074 0
M  V30 9300 H 857.851 0.318736 -2.02102 0
M  V30 9301 H 857.861 2.4084 -3.29333 0
M  V30 9302 H 856.536 1.43167 -3.90482 0
M  V30 9303 H 855.113 2.69423 -2.57809 0
M  V30 9304 N 857.298 1.47698 0.54982 0
M  V30 9305 C 858.228 1.63622 1.66583 0
M  V30 9306 C 859.209 0.485477 1.63025 0
M  V30 9307 O 860.394 0.715692 1.80531 0
M  V30 9308 C 857.524 1.65721 3.05211 0
M  V30 9309 C 856.478 2.80097 3.2362 0
M  V30 9310 C 855.804 2.67272 4.63109 0
M  V30 9311 C 857.104 4.21612 3.08286 0
M  V30 9312 H 858.798 2.57049 1.53512 0
M  V30 9313 H 856.344 1.23705 0.737099 0
M  V30 9314 H 858.297 1.75451 3.83138 0
M  V30 9315 H 857.021 0.688593 3.19258 0
M  V30 9316 H 855.68 2.69889 2.48104 0
M  V30 9317 H 855.328 1.68422 4.73965 0
M  V30 9318 H 855.028 3.44008 4.76374 0
M  V30 9319 H 856.552 2.78942 5.43161 0
M  V30 9320 H 857.966 4.32758 3.76024 0
M  V30 9321 H 856.363 4.99193 3.33057 0
M  V30 9322 H 857.433 4.39462 2.04942 0
M  V30 9323 N 858.776 -0.797141 1.35954 0
M  V30 9324 C 859.706 -1.92387 1.32323 0
M  V30 9325 C 860.687 -1.68967 0.196007 0
M  V30 9326 O 861.872 -1.90193 0.39245 0
M  V30 9327 C 859.002 -3.29286 1.10398 0
M  V30 9328 C 857.956 -3.67212 2.19862 0
M  V30 9329 C 857.282 -5.02377 1.8309 0
M  V30 9330 C 858.582 -3.76602 3.61896 0
M  V30 9331 H 860.276 -1.95683 2.26602 0
M  V30 9332 H 857.822 -0.94007 1.09081 0
M  V30 9333 H 859.775 -4.07721 1.06495 0
M  V30 9334 H 858.499 -3.26358 0.125668 0
M  V30 9335 H 857.158 -2.91069 2.22878 0
M  V30 9336 H 856.806 -4.95961 0.838527 0
M  V30 9337 H 856.506 -5.28722 2.56372 0
M  V30 9338 H 858.03 -5.8324 1.80729 0
M  V30 9339 H 859.444 -4.45246 3.6115 0
M  V30 9340 H 857.841 -4.14425 4.34018 0
M  V30 9341 H 858.911 -2.77906 3.97361 0
M  V30 9342 N 860.254 -1.20106 -1.0204 0
M  V30 9343 C 861.501 -1.00889 -1.75578 0
M  V30 9344 C 861.829 0.459415 -1.88996 0
M  V30 9345 O 861.084 1.35735 -1.40977 0
M  V30 9346 C 861.383 -1.63308 -3.17908 0
M  V30 9347 C 861.049 -3.13091 -3.24476 0
M  V30 9348 C 859.711 -3.53968 -3.25976 0
M  V30 9349 C 862.063 -4.09093 -3.22944 0
M  V30 9350 C 859.391 -4.89381 -3.2361 0
M  V30 9351 C 861.743 -5.44447 -3.22119 0
M  V30 9352 C 860.407 -5.84742 -3.2192 0
M  V30 9353 H 859.677 -0.36918 -0.642485 0
M  V30 9354 H 862.324 -1.49475 -1.19706 0
M  V30 9355 H 860.629 -1.06974 -3.76914 0
M  V30 9356 H 862.326 -1.45958 -3.73493 0
M  V30 9357 H 858.916 -2.80526 -3.24042 0
M  V30 9358 H 863.1 -3.78549 -3.20958 0
M  V30 9359 H 858.356 -5.1987 -3.21785 0
M  V30 9360 H 862.53 -6.18584 -3.19885 0
M  V30 9361 H 860.157 -6.89642 -3.19841 0
M  V30 9362 N 861.732 1.21287 -1.00634 0
M  V30 9363 C 862.962 1.94103 -0.70765 0
M  V30 9364 C 863.37 1.74382 0.733991 0
M  V30 9365 O 862.713 1.04843 1.50843 0
M  V30 9366 C 862.775 3.46705 -0.950581 0
M  V30 9367 C 862.439 3.90176 -2.37932 0
M  V30 9368 C 863.436 3.96769 -3.35961 0
M  V30 9369 C 861.121 4.22453 -2.71733 0
M  V30 9370 C 863.115 4.35034 -4.65858 0
M  V30 9371 C 860.802 4.60394 -4.01846 0
M  V30 9372 C 861.8 4.66656 -4.9872 0
M  V30 9373 O 861.488 5.03732 -6.26505 0
M  V30 9374 H 861.22 0.62405 -0.259881 0
M  V30 9375 H 863.774 1.55015 -1.34757 0
M  V30 9376 H 862.004 3.85868 -0.253492 0
M  V30 9377 H 863.693 4.00741 -0.645069 0
M  V30 9378 H 864.459 3.72009 -3.11182 0
M  V30 9379 H 860.338 4.16776 -1.97025 0
M  V30 9380 H 863.882 4.39836 -5.4147 0
M  V30 9381 H 859.779 4.84609 -4.26409 0
M  V30 9382 H 860.547 5.21761 -6.30641 0
M  V30 9383 N 863.21 0.781244 1.36873 0
M  V30 9384 C 864.158 0.161889 2.32036 0
M  V30 9385 C 865.152 -0.674225 1.55405 0
M  V30 9386 O 866.358 -0.570223 1.70729 0
M  V30 9387 H 862.733 0.0335702 0.75125 0
M  V30 9388 H 864.704 0.980078 2.81846 0
M  V30 9389 C 863.453 -0.695352 3.40676 0
M  V30 9390 H 862.776 -0.0613425 3.99753 0
M  V30 9391 H 864.216 -1.09553 4.09602 0
M  V30 9392 C 862.675 -1.85008 2.81556 0
M  V30 9393 O 863.205 -2.94616 2.73065 0
M  V30 9394 N 861.411 -1.65364 2.38962 0
M  V30 9395 H 860.958 -0.762106 2.46068 0
M  V30 9396 H 860.916 -2.42789 1.99752 0
M  V30 9397 N 864.689 -1.48329 0.532571 0
M  V30 9398 C 865.636 -2.29663 -0.228779 0
M  V30 9399 C 866.606 -1.37529 -0.931401 0
M  V30 9400 O 867.791 -1.66493 -0.931921 0
M  V30 9401 C 864.931 -3.20955 -1.26814 0
M  V30 9402 C 864.044 -4.28168 -0.574099 0
M  V30 9403 C 863.179 -5.06638 -1.59661 0
M  V30 9404 C 862.218 -6.05651 -0.88618 0
M  V30 9405 N 861.355 -6.77169 -1.85436 0
M  V30 9406 H 866.195 -2.94255 0.47098 0
M  V30 9407 H 863.732 -1.45061 0.2441 0
M  V30 9408 H 865.69 -3.72285 -1.88307 0
M  V30 9409 H 864.32 -2.58281 -1.93625 0
M  V30 9410 H 863.372 -3.80085 0.154827 0
M  V30 9411 H 864.684 -4.98797 -0.0163984 0
M  V30 9412 H 863.838 -5.61995 -2.28576 0
M  V30 9413 H 862.577 -4.35854 -2.18821 0
M  V30 9414 H 861.582 -5.49495 -0.182981 0
M  V30 9415 H 862.807 -6.78434 -0.300659 0
M  V30 9416 H 860.753 -6.09134 -2.43499 0
M  V30 9417 H 860.67 -7.43882 -1.34816 0
M  V30 9418 H 861.938 -7.37114 -2.53541 0
M  V30 9419 N 866.167 -0.267825 -1.55308 0
M  V30 9420 C 867.413 0.351556 -1.9973 0
M  V30 9421 C 867.746 1.56049 -1.15596 0
M  V30 9422 O 867.021 1.93203 -0.224274 0
M  V30 9423 C 867.304 0.74091 -3.52395 0
M  V30 9424 C 867.157 -0.474861 -4.47286 0
M  V30 9425 C 868.476 1.5801 -4.10756 0
M  V30 9426 H 865.595 0.126308 -0.726096 0
M  V30 9427 H 868.237 -0.373316 -1.86296 0
M  V30 9428 H 866.387 1.35851 -3.63973 0
M  V30 9429 H 868.059 -1.1134 -4.47662 0
M  V30 9430 H 866.302 -1.11425 -4.19246 0
M  V30 9431 H 866.973 -0.158782 -5.51772 0
M  V30 9432 H 869.449 1.05857 -4.0241 0
M  V30 9433 H 868.325 1.82135 -5.17801 0
M  V30 9434 H 868.586 2.55878 -3.60526 0
M  V30 9435 N 867.645 1.57599 0.00500368 0
M  V30 9436 C 868.575 2.11143 0.99705 0
M  V30 9437 C 869.556 1.0194 1.3617 0
M  V30 9438 O 870.741 1.29596 1.44632 0
M  V30 9439 C 867.871 2.61062 2.2905 0
M  V30 9440 C 866.825 3.74745 2.0676 0
M  V30 9441 C 866.151 4.10961 3.42075 0
M  V30 9442 C 867.451 5.02222 1.43424 0
M  V30 9443 H 869.145 2.94281 0.551251 0
M  V30 9444 H 866.691 1.41565 0.263715 0
M  V30 9445 H 868.644 2.97146 2.98801 0
M  V30 9446 H 867.368 1.75038 2.75734 0
M  V30 9447 H 866.027 3.39047 1.39436 0
M  V30 9448 H 865.675 3.21968 3.86453 0
M  V30 9449 H 865.375 4.87549 3.27979 0
M  V30 9450 H 866.899 4.49599 4.1315 0
M  V30 9451 H 868.313 5.36109 2.03125 0
M  V30 9452 H 866.71 5.83581 1.39831 0
M  V30 9453 H 867.78 4.83224 0.40285 0
M  V30 9454 N 869.123 -0.277682 1.55134 0
M  V30 9455 C 870.033 -1.36524 1.90783 0
M  V30 9456 C 871.049 -1.54283 0.804542 0
M  V30 9457 O 872.225 -1.68499 1.10318 0
M  V30 9458 C 869.29 -2.70524 2.16835 0
M  V30 9459 C 868.351 -2.61552 3.40424 0
M  V30 9460 C 867.584 -3.89162 3.65224 0
M  V30 9461 O 867.807 -4.89624 2.92616 0
M  V30 9462 O 866.741 -3.89647 4.58758 0
M  V30 9463 H 870.567 -1.0929 2.83354 0
M  V30 9464 H 868.152 -0.475799 1.41621 0
M  V30 9465 H 870.034 -3.49765 2.35038 0
M  V30 9466 H 868.709 -2.97555 1.27448 0
M  V30 9467 H 867.616 -1.80704 3.27562 0
M  V30 9468 H 868.949 -2.39472 4.30016 0
M  V30 9469 N 870.601 -1.47988 -0.541979 0
M  V30 9470 C 871.548 -1.61615 -1.6477 0
M  V30 9471 C 872.518 -0.458602 -1.59644 0
M  V30 9472 O 873.703 -0.680585 -1.78249 0
M  V30 9473 C 870.843 -1.65066 -3.03063 0
M  V30 9474 C 869.956 -2.91845 -3.18513 0
M  V30 9475 C 869.091 -2.86534 -4.47294 0
M  V30 9476 C 868.13 -4.0807 -4.5623 0
M  V30 9477 N 867.267 -4.00905 -5.76385 0
M  V30 9478 H 872.107 -2.56046 -1.52461 0
M  V30 9479 H 869.644 -1.26989 -0.742449 0
M  V30 9480 H 871.602 -1.65049 -3.83164 0
M  V30 9481 H 870.232 -0.74136 -3.14171 0
M  V30 9482 H 869.284 -3.01661 -2.31743 0
M  V30 9483 H 870.596 -3.81804 -3.20978 0
M  V30 9484 H 869.75 -2.84851 -5.35672 0
M  V30 9485 H 868.489 -1.94283 -4.47332 0
M  V30 9486 H 867.494 -4.10041 -3.66261 0
M  V30 9487 H 868.719 -5.01465 -4.5794 0
M  V30 9488 H 866.665 -3.11467 -5.77342 0
M  V30 9489 H 866.582 -4.84557 -5.80293 0
M  V30 9490 H 867.85 -4.03263 -6.67083 0
M  V30 9491 N 872.079 0.78992 -1.36375 0
M  V30 9492 C 872.989 1.93386 -1.32812 0
M  V30 9493 C 874.005 1.72468 -0.230377 0
M  V30 9494 O 875.181 1.96014 -0.462657 0
M  V30 9495 C 872.246 3.2824 -1.11621 0
M  V30 9496 C 871.307 3.61939 -2.30865 0
M  V30 9497 C 870.54 4.90359 -2.10675 0
M  V30 9498 O 870.763 5.6005 -1.08168 0
M  V30 9499 O 869.697 5.22702 -2.9844 0
M  V30 9500 H 873.523 1.99342 -2.29121 0
M  V30 9501 H 871.108 0.9301 -1.16917 0
M  V30 9502 H 872.99 4.08939 -1.01719 0
M  V30 9503 H 871.665 3.23178 -0.183732 0
M  V30 9504 H 870.572 2.81549 -2.46335 0
M  V30 9505 H 871.905 3.71725 -3.22617 0
M  V30 9506 N 873.557 1.20646 1.01402 0
M  V30 9507 C 874.787 1.04238 1.78376 0
M  V30 9508 C 875.195 -0.411327 1.84675 0
M  V30 9509 O 874.538 -1.29734 1.30057 0
M  V30 9510 C 874.6 1.55349 3.24202 0
M  V30 9511 C 874.264 3.03684 3.41504 0
M  V30 9512 C 875.261 4.01318 3.30514 0
M  V30 9513 C 872.946 3.42698 3.67237 0
M  V30 9514 C 874.94 5.35956 3.45007 0
M  V30 9515 C 872.627 4.77491 3.81373 0
M  V30 9516 C 873.625 5.73929 3.70263 0
M  V30 9517 O 873.313 7.06277 3.83963 0
M  V30 9518 H 873.045 0.366978 0.567718 0
M  V30 9519 H 875.599 1.60235 1.28506 0
M  V30 9520 H 873.829 0.93739 3.75166 0
M  V30 9521 H 875.518 1.34921 3.8282 0
M  V30 9522 H 876.284 3.72522 3.10568 0
M  V30 9523 H 872.163 2.68175 3.74971 0
M  V30 9524 H 875.707 6.11212 3.36252 0
M  V30 9525 H 871.604 5.05977 4.00821 0
M  V30 9526 H 872.372 7.13561 4.00965 0
M  V30 9527 N 875.035 -1.20752 1.01276 0
M  V30 9528 C 876.451 -1.42084 0.726934 0
M  V30 9529 C 876.651 -1.89138 -0.694907 0
M  V30 9530 O 875.707 -2.05783 -1.4632 0
M  V30 9531 C 877.02 -2.44575 1.74938 0
M  V30 9532 C 878.568 -2.58347 1.76708 0
M  V30 9533 C 879.043 -3.64078 2.77869 0
M  V30 9534 N 880.534 -3.71558 2.76585 0
M  V30 9535 C 881.269 -4.53016 3.51517 0
M  V30 9536 N 880.765 -5.38309 4.36114 0
M  V30 9537 N 882.558 -4.47512 3.40132 0
M  V30 9538 H 874.709 -0.885228 1.93074 0
M  V30 9539 H 876.972 -0.451075 0.833808 0
M  V30 9540 H 876.678 -2.1699 2.76782 0
M  V30 9541 H 876.552 -3.43503 1.55838 0
M  V30 9542 H 878.939 -2.85265 0.755516 0
M  V30 9543 H 879.02 -1.59628 1.99882 0
M  V30 9544 H 878.664 -3.37905 3.79187 0
M  V30 9545 H 878.594 -4.62412 2.51958 0
M  V30 9546 H 881.085 -3.10629 2.15216 0
M  V30 9547 H 881.398 -5.9754 4.90068 0
M  V30 9548 H 879.743 -5.37824 4.40194 0
M  V30 9549 H 882.934 -3.79912 2.73467 0
M  V30 9550 H 883.107 -5.10759 3.98784 0
M  V30 9551 N 876.513 -0.788492 -1.36457 0
M  V30 9552 C 877.476 -0.192209 -2.28393 0
M  V30 9553 C 878.476 0.609916 -1.48784 0
M  V30 9554 O 879.666 0.431046 -1.68783 0
M  V30 9555 C 876.798 0.734096 -3.32902 0
M  V30 9556 H 877.991 -1.00284 -2.82636 0
M  V30 9557 H 875.544 -0.557852 -1.46006 0
M  V30 9558 H 876.279 1.5691 -2.83813 0
M  V30 9559 H 876.064 0.160875 -3.9177 0
M  V30 9560 H 877.554 1.1462 -4.01562 0
M  V30 9561 N 877.991 1.48044 -0.54043 0
M  V30 9562 C 879.219 2.06895 -0.0145153 0
M  V30 9563 C 879.634 1.39552 1.27164 0
M  V30 9564 O 878.991 0.486454 1.75897 0
M  V30 9565 C 879.042 3.60934 0.202278 0
M  V30 9566 O 878.763 4.25749 -1.03293 0
M  V30 9567 C 880.264 4.36607 0.767387 0
M  V30 9568 H 877.484 0.66991 -0.0382368 0
M  V30 9569 H 880.028 1.90288 -0.749057 0
M  V30 9570 H 878.183 3.77111 0.886897 0
M  V30 9571 H 878.597 5.18048 -0.820167 0
M  V30 9572 H 880.071 5.45126 0.86845 0
M  V30 9573 H 880.548 4.01745 1.77477 0
M  V30 9574 H 881.154 4.25133 0.119002 0
M  V30 9575 N 879.47 0.276058 1.55163 0
M  V30 9576 C 880.433 -0.597924 2.21263 0
M  V30 9577 C 881.433 -1.0806 1.19078 0
M  V30 9578 O 882.623 -0.980626 1.43977 0
M  V30 9579 C 879.755 -1.82503 2.87933 0
M  V30 9580 H 880.948 -0.0207769 2.99893 0
M  V30 9581 H 878.501 0.0266823 1.56277 0
M  V30 9582 H 879.236 -2.44266 2.13318 0
M  V30 9583 H 879.021 -1.48683 3.62816 0
M  V30 9584 H 880.511 -2.44651 3.38431 0
M  V30 9585 N 880.948 -1.576 0.00335426 0
M  V30 9586 C 881.878 -2.11668 -0.985839 0
M  V30 9587 C 882.859 -1.02661 -1.35627 0
M  V30 9588 O 884.044 -1.30361 -1.43943 0
M  V30 9589 C 881.174 -2.62273 -2.27662 0
M  V30 9590 C 880.128 -3.75837 -2.0477 0
M  V30 9591 C 879.454 -4.12769 -3.39891 0
M  V30 9592 C 880.754 -5.02975 -1.40759 0
M  V30 9593 H 882.448 -2.9457 -0.535637 0
M  V30 9594 H 879.994 -1.41702 -0.256204 0
M  V30 9595 H 881.947 -2.98727 -2.97221 0
M  V30 9596 H 880.671 -1.76498 -2.74802 0
M  V30 9597 H 879.33 -3.39782 -1.37636 0
M  V30 9598 H 878.978 -3.24013 -3.8474 0
M  V30 9599 H 878.678 -4.89281 -3.25389 0
M  V30 9600 H 880.202 -4.51784 -4.1076 0
M  V30 9601 H 881.616 -5.37179 -2.00279 0
M  V30 9602 H 880.013 -5.84315 -1.36734 0
M  V30 9603 H 881.083 -4.83431 -0.377218 0
M  V30 9604 N 882.426 0.269451 -1.5528 0
M  V30 9605 C 883.837 0.840233 -1.66724 0
M  V30 9606 C 884.188 1.86909 -0.596621 0
M  V30 9607 O 883.313 2.14817 0.261246 0
M  V30 9608 C 883.908 1.5308 -3.02245 0
M  V30 9609 C 882.467 2.04957 -3.15705 0
M  V30 9610 C 881.614 0.892838 -2.62533 0
M  V30 9611 H 884.565 0.0457236 -1.58634 0
M  V30 9612 H 884.586 2.39792 -2.95432 0
M  V30 9613 H 884.098 0.781741 -3.80145 0
M  V30 9614 H 882.199 2.82813 -2.42585 0
M  V30 9615 H 882.312 2.26244 -4.22316 0
M  V30 9616 H 880.676 1.28719 -2.19781 0
M  V30 9617 H 881.459 0.157229 -3.4294 0
M  V30 9618 N 883.904 1.48273 0.534124 0
M  V30 9619 C 884.867 1.6201 1.62127 0
M  V30 9620 C 885.867 0.493653 1.53035 0
M  V30 9621 O 887.057 0.759337 1.56779 0
M  V30 9622 C 884.189 1.5864 3.01739 0
M  V30 9623 H 885.382 2.58944 1.51288 0
M  V30 9624 H 882.935 1.36808 0.755861 0
M  V30 9625 H 883.67 0.631685 3.18088 0
M  V30 9626 H 883.455 2.40415 3.09747 0
M  V30 9627 H 884.945 1.71438 3.80787 0
M  V30 9628 N 885.382 -0.782676 1.36792 0
M  V30 9629 C 886.629 -1.54083 1.31395 0
M  V30 9630 C 886.957 -1.94217 -0.104797 0
M  V30 9631 O 886.212 -1.63491 -1.0756 0
M  V30 9632 C 886.511 -2.82542 2.18872 0
M  V30 9633 C 886.177 -2.61512 3.67317 0
M  V30 9634 C 884.839 -2.55486 4.07775 0
M  V30 9635 C 887.191 -2.42389 4.61407 0
M  V30 9636 C 884.519 -2.28311 5.40454 0
M  V30 9637 C 886.871 -2.1674 5.94312 0
M  V30 9638 C 885.535 -2.09151 6.33887 0
M  V30 9639 H 884.805 -0.563829 0.48081 0
M  V30 9640 H 887.452 -0.902436 1.68903 0
M  V30 9641 H 885.757 -3.50883 1.74323 0
M  V30 9642 H 887.454 -3.40367 2.12017 0
M  V30 9643 H 884.044 -2.67062 3.35225 0
M  V30 9644 H 888.228 -2.46043 4.31018 0
M  V30 9645 H 883.484 -2.20922 5.70091 0
M  V30 9646 H 887.658 -2.0094 6.6678 0
M  V30 9647 H 885.285 -1.87857 7.36623 0
M  V30 9648 N 886.86 -1.21182 -1.00761 0
M  V30 9649 C 887.807 -0.968741 -2.09485 0
M  V30 9650 C 888.777 0.104325 -1.65772 0
M  V30 9651 O 889.962 -0.0422587 -1.90753 0
M  V30 9652 C 887.102 -0.536686 -3.40901 0
M  V30 9653 C 886.215 -1.6789 -3.98041 0
M  V30 9654 C 885.35 -1.19627 -5.17555 0
M  V30 9655 C 884.389 -2.31099 -5.66798 0
M  V30 9656 N 883.526 -1.83988 -6.77564 0
M  V30 9657 H 888.366 -1.89952 -2.29613 0
M  V30 9658 H 885.903 -0.946688 -1.12589 0
M  V30 9659 H 887.861 -0.26745 -4.16342 0
M  V30 9660 H 886.491 0.357092 -3.20819 0
M  V30 9661 H 885.543 -2.06284 -3.19611 0
M  V30 9662 H 886.855 -2.51794 -4.30582 0
M  V30 9663 H 886.009 -0.883539 -6.00232 0
M  V30 9664 H 884.748 -0.327244 -4.86601 0
M  V30 9665 H 883.753 -2.63178 -4.82719 0
M  V30 9666 H 884.978 -3.18493 -5.99782 0
M  V30 9667 H 882.924 -0.994257 -6.48422 0
M  V30 9668 H 882.841 -2.61466 -7.09346 0
M  V30 9669 H 884.109 -1.55741 -7.63783 0
M  V30 9670 N 888.338 1.20213 -1.01915 0
M  V30 9671 C 889.568 1.93341 -0.728197 0
M  V30 9672 C 889.976 1.75151 0.715454 0
M  V30 9673 O 889.319 1.06437 1.49722 0
M  V30 9674 C 889.381 3.45677 -0.9873 0
M  V30 9675 C 889.045 3.8763 -2.42057 0
M  V30 9676 C 890.042 3.93184 -3.40151 0
M  V30 9677 C 887.727 4.19547 -2.76199 0
M  V30 9678 C 889.721 4.30069 -4.70446 0
M  V30 9679 C 887.408 4.56106 -4.06707 0
M  V30 9680 C 888.406 4.6134 -5.03641 0
M  V30 9681 O 888.094 4.97059 -6.31813 0
M  V30 9682 H 887.826 0.621258 -0.266485 0
M  V30 9683 H 890.38 1.53577 -1.36393 0
M  V30 9684 H 888.61 3.85578 -0.294405 0
M  V30 9685 H 890.299 4.00035 -0.687536 0
M  V30 9686 H 891.065 3.68687 -3.15111 0
M  V30 9687 H 886.944 4.14663 -2.01434 0
M  V30 9688 H 890.488 4.34069 -5.46105 0
M  V30 9689 H 886.385 4.80059 -4.31525 0
M  V30 9690 H 887.153 5.15043 -6.36139 0
M  V30 9691 N 889.816 0.795718 1.36037 0
M  V30 9692 C 891.046 0.382597 2.03026 0
M  V30 9693 C 891.454 -1.00779 1.60126 0
M  V30 9694 O 890.797 -1.65884 0.78919 0
M  V30 9695 C 890.859 0.374145 3.57548 0
M  V30 9696 C 890.523 1.71318 4.23673 0
M  V30 9697 C 891.52 2.6697 4.4612 0
M  V30 9698 C 889.205 1.99421 4.61017 0
M  V30 9699 C 891.199 3.88916 5.04998 0
M  V30 9700 C 888.886 3.21632 5.19611 0
M  V30 9701 C 889.884 4.16198 5.41542 0
M  V30 9702 O 889.572 5.36254 5.98905 0
M  V30 9703 H 889.304 0.154944 0.658003 0
M  V30 9704 H 891.858 1.07756 1.74865 0
M  V30 9705 H 890.088 -0.377349 3.84854 0
M  V30 9706 H 891.777 -0.01517 4.05897 0
M  V30 9707 H 892.543 2.46548 4.17659 0
M  V30 9708 H 888.422 1.2663 4.43267 0
M  V30 9709 H 891.966 4.6274 5.22032 0
M  V30 9710 H 887.863 3.4193 5.47498 0
M  V30 9711 H 888.631 5.37403 6.17366 0
M  V30 9712 N 891.294 -1.47756 0.548274 0
M  V30 9713 C 892.54 -2.02789 0.0209265 0
M  V30 9714 C 892.873 -1.42268 -1.32187 0
M  V30 9715 O 892.148 -0.575001 -1.85806 0
M  V30 9716 C 892.431 -3.60007 -0.0816674 0
M  V30 9717 C 892.284 -4.30977 1.28759 0
M  V30 9718 C 893.603 -4.32777 -0.799515 0
M  V30 9719 H 890.722 -0.736944 0.00907884 0
M  V30 9720 H 893.364 -1.76282 0.708839 0
M  V30 9721 H 891.514 -3.82722 -0.667537 0
M  V30 9722 H 893.186 -4.19629 1.91597 0
M  V30 9723 H 891.429 -3.9168 1.86466 0
M  V30 9724 H 892.1 -5.39488 1.16861 0
M  V30 9725 H 894.576 -4.15001 -0.30216 0
M  V30 9726 H 893.452 -5.42431 -0.840239 0
M  V30 9727 H 893.713 -4.01358 -1.85375 0
M  V30 9728 N 892.772 -0.284283 -1.55015 0
M  V30 9729 C 894 0.332948 -2.04203 0
M  V30 9730 C 894.415 1.48783 -1.16229 0
M  V30 9731 O 893.772 1.81567 -0.184323 0
M  V30 9732 C 893.823 0.805207 -3.52418 0
M  V30 9733 O 893.544 -0.303689 -4.37046 0
M  V30 9734 C 895.045 1.48931 -4.17534 0
M  V30 9735 H 892.265 0.0747447 -0.666824 0
M  V30 9736 H 894.809 -0.419048 -2.00161 0
M  V30 9737 H 892.964 1.50727 -3.56876 0
M  V30 9738 H 893.378 0.0609703 -5.24465 0
M  V30 9739 H 894.852 1.77108 -5.22816 0
M  V30 9740 H 895.329 2.42389 -3.66257 0
M  V30 9741 H 895.935 0.830867 -4.17105 0
M  V30 9742 N 894.251 1.57596 -0.0117121 0
M  V30 9743 C 895.491 1.92932 0.675031 0
M  V30 9744 C 895.855 0.887004 1.70283 0
M  V30 9745 O 897.056 1.12599 2.4408 0
M  V30 9746 C 895.327 3.3327 1.29098 0
M  V30 9747 S 896.886 3.90509 2.00121 0
M  V30 9748 H 893.704 0.675226 0.22269 0
M  V30 9749 H 896.306 1.9537 -0.071208 0
M  V30 9750 H 895.01 4.0696 0.530262 0
M  V30 9751 H 894.541 3.34233 2.0749 0
M  V30 9752 H 896.556 3.72532 3.27771 0
M  V30 9753 N 895.729 -0.261212 1.5542 0
M  V30 9754 C 896.692 -1.30645 1.8832 0
M  V30 9755 C 897.692 -1.41782 0.758588 0
M  V30 9756 O 898.882 -1.40729 1.02669 0
M  V30 9757 C 896.014 -2.6862 2.09895 0
M  V30 9758 H 897.207 -1.02698 2.81768 0
M  V30 9759 H 894.76 -0.499838 1.48092 0
M  V30 9760 H 895.495 -3.0173 1.18868 0
M  V30 9761 H 895.28 -2.61921 2.91787 0
M  V30 9762 H 896.77 -3.44121 2.36581 0
M  V30 9763 N 897.207 -1.48554 -0.526253 0
M  V30 9764 C 898.447 -1.58362 -1.29232 0
M  V30 9765 C 898.811 -0.253353 -1.90321 0
M  V30 9766 O 900.012 -0.226439 -2.67845 0
M  V30 9767 C 898.283 -2.69294 -2.3498 0
M  V30 9768 S 899.842 -2.98891 -3.21262 0
M  V30 9769 H 896.66 -0.558859 -0.439543 0
M  V30 9770 H 899.262 -1.86094 -0.599099 0
M  V30 9771 H 897.966 -3.64504 -1.88587 0
M  V30 9772 H 897.497 -2.43475 -3.09004 0
M  V30 9773 H 899.512 -2.38475 -4.35137 0
M  V30 9774 N 898.685 0.775411 -1.37205 0
M  V30 9775 C 899.615 1.90258 -1.35367 0
M  V30 9776 C 900.596 1.68634 -0.222864 0
M  V30 9777 O 901.781 1.89545 -0.422659 0
M  V30 9778 C 898.911 3.27488 -1.15623 0
M  V30 9779 C 897.865 3.63668 -2.25676 0
M  V30 9780 C 897.191 4.994 -1.91059 0
M  V30 9781 C 898.491 3.70797 -3.67841 0
M  V30 9782 H 900.185 1.92053 -2.29687 0
M  V30 9783 H 897.731 0.922597 -1.10563 0
M  V30 9784 H 899.684 4.05976 -1.12968 0
M  V30 9785 H 898.408 3.26117 -0.177573 0
M  V30 9786 H 897.067 2.87486 -2.2748 0
M  V30 9787 H 896.715 4.94565 -0.917324 0
M  V30 9788 H 896.415 5.24576 -2.64751 0
M  V30 9789 H 897.939 5.80291 -1.89985 0
M  V30 9790 H 899.353 4.39444 -3.68187 0
M  V30 9791 H 897.75 4.07468 -4.40556 0
M  V30 9792 H 898.82 2.71549 -4.01732 0
M  V30 9793 N 900.163 1.21714 1.00117 0
M  V30 9794 C 901.412 1.03087 1.73367 0
M  V30 9795 C 901.725 -0.435532 1.90689 0
M  V30 9796 O 902.931 -0.741291 2.61184 0
M  V30 9797 C 901.387 1.79593 3.11888 0
M  V30 9798 C 900.995 3.30428 3.02525 0
M  V30 9799 C 902.739 1.69386 3.89241 0
M  V30 9800 C 900.646 3.99408 4.3615 0
M  V30 9801 H 899.576 0.382117 0.650002 0
M  V30 9802 H 902.227 1.45486 1.11831 0
M  V30 9803 H 900.609 1.29988 3.74058 0
M  V30 9804 H 901.783 3.87364 2.49571 0
M  V30 9805 H 900.098 3.4122 2.38659 0
M  V30 9806 H 902.695 2.18251 4.8813 0
M  V30 9807 H 903.038 0.652773 4.1115 0
M  V30 9808 H 903.571 2.16489 3.33733 0
M  V30 9809 H 900.31 5.03735 4.19442 0
M  V30 9810 H 899.83 3.47261 4.8905 0
M  V30 9811 H 901.509 4.04537 5.04934 0
M  V30 9812 N 901.641 -1.19671 1.02551 0
M  V30 9813 C 902.888 -1.89268 0.720002 0
M  V30 9814 C 903.216 -1.79411 -0.751127 0
M  V30 9815 O 902.471 -1.17859 -1.5623 0
M  V30 9816 C 902.77 -3.39647 1.11241 0
M  V30 9817 C 902.436 -3.69706 2.58125 0
M  V30 9818 C 901.098 -3.7762 2.98256 0
M  V30 9819 C 903.45 -3.83301 3.53171 0
M  V30 9820 C 900.778 -3.96594 4.32354 0
M  V30 9821 C 903.13 -4.03788 4.86968 0
M  V30 9822 C 901.794 -4.09934 5.26793 0
M  V30 9823 H 901.064 -0.692579 0.263467 0
M  V30 9824 H 903.711 -1.41738 1.28774 0
M  V30 9825 H 902.016 -3.89052 0.463234 0
M  V30 9826 H 903.713 -3.91809 0.853602 0
M  V30 9827 H 900.303 -3.64152 2.26033 0
M  V30 9828 H 904.487 -3.76534 3.2332 0
M  V30 9829 H 899.743 -3.9959 4.6275 0
M  V30 9830 H 903.917 -4.1325 5.60533 0
M  V30 9831 H 901.544 -4.24389 6.30712 0
M  V30 9832 N 903.119 -0.802921 -1.35613 0
M  V30 9833 C 904.366 -0.381576 -1.98872 0
M  V30 9834 C 904.694 1.0503 -1.63704 0
M  V30 9835 O 903.949 1.7427 -0.890418 0
M  V30 9836 C 904.248 -0.507806 -3.53774 0
M  V30 9837 C 903.914 -1.90245 -4.088 0
M  V30 9838 C 902.576 -2.28401 -4.2354 0
M  V30 9839 C 904.928 -2.81504 -4.3864 0
M  V30 9840 C 902.256 -3.57192 -4.65436 0
M  V30 9841 C 904.608 -4.09737 -4.81973 0
M  V30 9842 C 903.272 -4.47897 -4.94919 0
M  V30 9843 H 902.542 -0.139629 -0.727726 0
M  V30 9844 H 905.189 -1.023 -1.61886 0
M  V30 9845 H 903.494 0.21708 -3.91198 0
M  V30 9846 H 905.191 -0.162625 -4.0067 0
M  V30 9847 H 901.781 -1.596 -3.97776 0
M  V30 9848 H 905.965 -2.53276 -4.26808 0
M  V30 9849 H 901.221 -3.86611 -4.73648 0
M  V30 9850 H 905.395 -4.80555 -5.04024 0
M  V30 9851 H 903.022 -5.47747 -5.27141 0
M  V30 9852 N 904.597 1.47463 -0.556102 0
M  V30 9853 C 905.837 2.04372 -0.0339743 0
M  V30 9854 C 906.201 1.42125 1.29091 0
M  V30 9855 O 907.402 1.90074 1.90066 0
M  V30 9856 C 905.673 3.57352 0.0585316 0
M  V30 9857 S 907.232 4.35625 0.526943 0
M  V30 9858 H 904.05 0.710574 -0.0246115 0
M  V30 9859 H 906.652 1.80848 -0.742585 0
M  V30 9860 H 905.356 4.00181 -0.910116 0
M  V30 9861 H 904.887 3.85371 0.790731 0
M  V30 9862 H 906.902 4.62911 1.78683 0
M  V30 9863 N 906.075 0.2925 1.54862 0
M  V30 9864 C 907.324 -0.319994 1.99146 0
M  V30 9865 C 907.637 -1.55658 1.18448 0
M  V30 9866 O 908.843 -2.24312 1.52959 0
M  V30 9867 C 907.299 -0.620665 3.54508 0
M  V30 9868 C 906.907 0.597098 4.44003 0
M  V30 9869 C 908.651 -1.19482 4.07338 0
M  V30 9870 C 906.558 0.270049 5.90783 0
M  V30 9871 H 905.488 -0.123342 0.743843 0
M  V30 9872 H 908.139 0.399876 1.7909 0
M  V30 9873 H 906.521 -1.3999 3.7043 0
M  V30 9874 H 907.695 1.37354 4.39853 0
M  V30 9875 H 906.01 1.0893 4.019 0
M  V30 9876 H 908.607 -1.45362 5.14562 0
M  V30 9877 H 908.95 -2.13435 3.57423 0
M  V30 9878 H 909.483 -0.477485 3.94924 0
M  V30 9879 H 906.222 1.17791 6.4483 0
M  V30 9880 H 905.742 -0.469292 5.97961 0
M  V30 9881 H 907.421 -0.131471 6.46866 0
M  V30 9882 N 907.553 -1.57587 0.0200696 0
M  V30 9883 C 908.8 -1.91424 -0.660525 0
M  V30 9884 C 909.128 -0.895626 -1.72652 0
M  V30 9885 O 908.383 0.096771 -1.95461 0
M  V30 9886 C 908.682 -3.32002 -1.32323 0
M  V30 9887 C 908.348 -4.49223 -0.388487 0
M  V30 9888 C 907.01 -4.81021 -0.131184 0
M  V30 9889 C 909.362 -5.20581 0.253906 0
M  V30 9890 C 906.69 -5.81539 0.776471 0
M  V30 9891 C 909.042 -6.22067 1.14956 0
M  V30 9892 C 907.706 -6.52311 1.41584 0
M  V30 9893 H 906.976 -0.700472 -0.241703 0
M  V30 9894 H 909.623 -1.91333 0.0798991 0
M  V30 9895 H 907.928 -3.28312 -2.13819 0
M  V30 9896 H 909.625 -3.5545 -1.85623 0
M  V30 9897 H 906.215 -4.24391 -0.599207 0
M  V30 9898 H 910.399 -4.96253 0.068164 0
M  V30 9899 H 905.655 -6.03322 0.990575 0
M  V30 9900 H 909.829 -6.76484 1.65357 0
M  V30 9901 H 907.456 -7.30017 2.12083 0
M  V30 9902 N 909.032 0.252966 -1.55557 0
M  V30 9903 C 910.281 0.979736 -1.76307 0
M  V30 9904 C 910.594 1.86714 -0.582871 0
M  V30 9905 O 911.8 2.6302 -0.673247 0
M  V30 9906 C 910.256 1.79205 -3.12112 0
M  V30 9907 C 909.864 0.952333 -4.37761 0
M  V30 9908 C 911.608 2.51191 -3.42203 0
M  V30 9909 C 909.515 1.76018 -5.64599 0
M  V30 9910 H 908.445 0.369538 -0.657235 0
M  V30 9911 H 911.096 0.234619 -1.81994 0
M  V30 9912 H 909.478 2.57888 -3.00515 0
M  V30 9913 H 910.652 0.208251 -4.60329 0
M  V30 9914 H 908.967 0.346082 -4.14959 0
M  V30 9915 H 911.564 3.12074 -4.34182 0
M  V30 9916 H 911.907 3.22499 -2.63249 0
M  V30 9917 H 912.44 1.79523 -3.54988 0
M  V30 9918 H 909.179 1.09095 -6.46358 0
M  V30 9919 H 908.699 2.4797 -5.46142 0
M  V30 9920 H 910.378 2.32884 -6.03634 0
M  V30 9921 N 910.51 1.48831 0.518367 0
M  V30 9922 C 911.756 1.57672 1.27543 0
M  V30 9923 C 912.089 0.254915 1.9252 0
M  V30 9924 O 911.364 -0.740107 1.79868 0
M  V30 9925 C 911.647 2.72345 2.35585 0
M  V30 9926 C 911.5 4.14267 1.75224 0
M  V30 9927 C 912.819 2.82726 3.37274 0
M  V30 9928 H 909.938 0.573926 0.462361 0
M  V30 9929 H 912.58 1.8105 0.576267 0
M  V30 9930 H 910.73 2.52543 2.95219 0
M  V30 9931 H 912.402 4.45539 1.19551 0
M  V30 9932 H 910.645 4.20724 1.05706 0
M  V30 9933 H 911.316 4.90345 2.53507 0
M  V30 9934 H 913.792 3.00699 2.8761 0
M  V30 9935 H 912.668 3.6467 4.10252 0
M  V30 9936 H 912.929 1.9136 3.9854 0
M  V30 9937 N 911.988 -0.768124 1.37614 0
M  V30 9938 C 912.92 -1.89076 1.29548 0
M  V30 9939 C 913.933 -1.61433 0.21056 0
M  V30 9940 O 915.122 -1.72283 0.466992 0
M  V30 9941 C 912.222 -3.24388 0.981102 0
M  V30 9942 C 911.395 -3.79649 2.17222 0
M  V30 9943 C 910.454 -4.93444 1.82754 0
M  V30 9944 O 909.48 -5.0884 2.5509 0
M  V30 9945 N 910.682 -5.75319 0.773819 0
M  V30 9946 H 913.447 -1.9651 2.26283 0
M  V30 9947 H 911.008 -0.947399 1.31286 0
M  V30 9948 H 913 -3.98038 0.731301 0
M  V30 9949 H 911.57 -3.12433 0.102203 0
M  V30 9950 H 910.79 -2.97735 2.58355 0
M  V30 9951 H 912.078 -4.13302 2.96748 0
M  V30 9952 H 911.476 -5.65433 0.173644 0
M  V30 9953 H 910.033 -6.4918 0.583882 0
M  V30 9954 N 913.466 -1.22244 -0.994698 0
M  V30 9955 C 914.715 -1.04005 -1.72817 0
M  V30 9956 C 915.028 0.425413 -1.90918 0
M  V30 9957 O 916.234 0.727429 -2.61574 0
M  V30 9958 C 914.69 -1.81244 -3.10932 0
M  V30 9959 C 914.298 -3.32028 -3.00768 0
M  V30 9960 C 916.042 -1.71448 -3.88337 0
M  V30 9961 C 913.949 -4.01716 -4.34026 0
M  V30 9962 H 912.879 -0.385559 -0.647966 0
M  V30 9963 H 915.53 -1.46077 -1.11058 0
M  V30 9964 H 913.912 -1.3197 -3.73363 0
M  V30 9965 H 915.086 -3.88682 -2.47513 0
M  V30 9966 H 913.401 -3.4248 -2.36846 0
M  V30 9967 H 915.998 -2.20836 -4.86965 0
M  V30 9968 H 916.341 -0.674568 -4.10798 0
M  V30 9969 H 916.874 -2.18256 -3.3258 0
M  V30 9970 H 913.613 -5.05952 -4.16765 0
M  V30 9971 H 913.133 -3.49849 -4.87202 0
M  V30 9972 H 914.812 -4.0721 -5.02782 0
M  V30 9973 N 914.944 1.19125 -1.03184 0
M  V30 9974 C 915.874 2.24675 -0.635889 0
M  V30 9975 C 916.855 1.66321 0.356565 0
M  V30 9976 O 918.04 1.92728 0.238625 0
M  V30 9977 C 915.17 3.47298 0.011069 0
M  V30 9978 C 914.124 4.18345 -0.903979 0
M  V30 9979 C 913.45 5.34561 -0.12197 0
M  V30 9980 C 914.75 4.72816 -2.21907 0
M  V30 9981 H 916.444 2.5805 -1.51825 0
M  V30 9982 H 913.99 1.24039 -0.73146 0
M  V30 9983 H 915.943 4.20333 0.299729 0
M  V30 9984 H 914.667 3.13131 0.928245 0
M  V30 9985 H 913.326 3.47196 -1.17688 0
M  V30 9986 H 912.974 4.9664 0.797334 0
M  V30 9987 H 912.674 5.83029 -0.731498 0
M  V30 9988 H 914.198 6.10391 0.159881 0
M  V30 9989 H 915.612 5.3759 -1.99173 0
M  V30 9990 H 914.009 5.31782 -2.78078 0
M  V30 9991 H 915.079 3.9072 -2.87168 0
M  V30 9992 N 916.422 0.810101 1.35185 0
M  V30 9993 C 917.668 0.392698 1.98962 0
M  V30 9994 C 918.001 -1.03835 1.64109 0
M  V30 9995 O 917.276 -1.721 0.9062 0
M  V30 9996 C 917.559 0.580349 3.55393 0
M  V30 9997 C 917.412 2.05658 4.00031 0
M  V30 9998 C 918.731 0.00822618 4.40099 0
M  V30 9999 H 915.85 0.144157 0.722764 0
M  V30 10000 H 918.492 1.02029 1.60281 0
M  V30 10001 H 916.642 0.0461106 3.88473 0
M  V30 10002 H 918.314 2.65348 3.77344 0
M  V30 10003 H 916.557 2.55174 3.50811 0
M  V30 10004 H 917.228 2.13875 5.08883 0
M  V30 10005 H 919.704 0.464517 4.13499 0
M  V30 10006 H 918.58 0.169414 5.48638 0
M  V30 10007 H 918.841 -1.08576 4.2856 0
M  V30 10008 N 917.9 -1.47166 0.563914 0
M  V30 10009 C 918.83 -2.32894 -0.168148 0
M  V30 10010 C 919.811 -1.44202 -0.902214 0
M  V30 10011 O 920.996 -1.73048 -0.881365 0
M  V30 10012 C 918.126 -3.26116 -1.19439 0
M  V30 10013 C 917.08 -4.24101 -0.576363 0
M  V30 10014 C 916.406 -5.06696 -1.70772 0
M  V30 10015 C 917.706 -5.20142 0.47425 0
M  V30 10016 H 919.4 -2.9435 0.547573 0
M  V30 10017 H 916.946 -1.41545 0.264778 0
M  V30 10018 H 918.899 -3.84935 -1.71474 0
M  V30 10019 H 917.623 -2.62728 -1.94014 0
M  V30 10020 H 916.282 -3.66519 -0.0772534 0
M  V30 10021 H 915.93 -4.39707 -2.44268 0
M  V30 10022 H 915.63 -5.7304 -1.29994 0
M  V30 10023 H 917.154 -5.68375 -2.2312 0
M  V30 10024 H 918.568 -5.73286 0.0397035 0
M  V30 10025 H 916.965 -5.94726 0.801287 0
M  V30 10026 H 918.035 -4.65214 1.36764 0
M  V30 10027 N 919.378 -0.300708 -1.54705 0
M  V30 10028 C 920.789 0.191995 -1.8571 0
M  V30 10029 C 921.14 1.53447 -1.22264 0
M  V30 10030 O 920.265 2.10054 -0.520226 0
M  V30 10031 C 920.86 0.355148 -3.36933 0
M  V30 10032 C 919.419 0.792071 -3.67972 0
M  V30 10033 C 918.566 -0.099756 -2.77121 0
M  V30 10034 H 921.517 -0.521729 -1.49879 0
M  V30 10035 H 921.538 1.18977 -3.61421 0
M  V30 10036 H 921.05 -0.622075 -3.83082 0
M  V30 10037 H 919.151 1.77986 -3.27341 0
M  V30 10038 H 919.264 0.611661 -4.75179 0
M  V30 10039 H 917.628 0.420909 -2.51198 0
M  V30 10040 H 918.411 -1.07333 -3.2609 0
M  V30 10041 N 920.856 1.57574 -0.0284266 0
M  V30 10042 C 921.803 2.10176 0.953658 0
M  V30 10043 C 922.773 1.00367 1.32347 0
M  V30 10044 O 923.958 1.27783 1.4169 0
M  V30 10045 C 921.098 2.63287 2.231 0
M  V30 10046 C 920.211 3.87102 1.91771 0
M  V30 10047 C 919.346 4.28609 3.13795 0
M  V30 10048 C 918.385 5.45184 2.78282 0
M  V30 10049 N 917.522 5.81851 3.92929 0
M  V30 10050 H 922.362 2.93806 0.498176 0
M  V30 10051 H 919.899 1.45222 0.234302 0
M  V30 10052 H 921.857 2.9217 2.97813 0
M  V30 10053 H 920.487 1.82489 2.66266 0
M  V30 10054 H 919.539 3.64952 1.07303 0
M  V30 10055 H 920.851 4.71892 1.61615 0
M  V30 10056 H 920.005 4.58925 3.96829 0
M  V30 10057 H 918.744 3.42585 3.47112 0
M  V30 10058 H 917.749 5.14563 1.93661 0
M  V30 10059 H 918.974 6.32907 2.46182 0
M  V30 10060 H 916.92 4.98782 4.2609 0
M  V30 10061 H 916.837 6.6128 3.66395 0
M  V30 10062 H 918.105 6.16772 4.76669 0
M  V30 10063 N 922.334 -0.244713 1.55689 0
M  V30 10064 C 923.562 -0.989944 1.8168 0
M  V30 10065 C 923.977 -1.78863 0.604449 0
M  V30 10066 O 923.334 -1.77437 -0.426907 0
M  V30 10067 C 923.385 -1.92607 3.05916 0
M  V30 10068 O 923.106 -1.1597 4.22472 0
M  V30 10069 C 924.607 -2.78711 3.44724 0
M  V30 10070 H 921.827 -0.2912 0.604519 0
M  V30 10071 H 924.371 -0.266938 2.0275 0
M  V30 10072 H 922.526 -2.60333 2.8689 0
M  V30 10073 H 922.94 -1.79311 4.92898 0
M  V30 10074 H 924.414 -3.40141 4.34751 0
M  V30 10075 H 924.891 -3.49935 2.6541 0
M  V30 10076 H 925.497 -2.16435 3.66109 0
M  V30 10077 N 923.813 -1.49104 -0.510467 0
M  V30 10078 C 925.038 -1.62068 -1.29417 0
M  V30 10079 C 925.463 -0.288432 -1.85875 0
M  V30 10080 O 924.821 0.742667 -1.65391 0
M  V30 10081 C 924.869 -2.68506 -2.40701 0
M  V30 10082 O 923.973 -2.27021 -3.4429 0
M  V30 10083 H 923.314 -0.542778 -0.382476 0
M  V30 10084 H 925.844 -1.95228 -0.612154 0
M  V30 10085 H 925.854 -2.90383 -2.86604 0
M  V30 10086 H 924.529 -3.65216 -1.98973 0
M  V30 10087 H 923.106 -2.15436 -3.04371 0
M  V30 10088 N 925.291 0.760815 -1.38019 0
M  V30 10089 C 926.537 1.52198 -1.34028 0
M  V30 10090 C 926.87 1.94067 0.0718309 0
M  V30 10091 O 926.145 1.64895 1.0315 0
M  V30 10092 C 926.428 2.77954 -2.2894 0
M  V30 10093 C 926.281 2.42269 -3.7898 0
M  V30 10094 C 927.6 3.79943 -2.22107 0
M  V30 10095 H 924.719 0.552131 -0.488181 0
M  V30 10096 H 927.361 0.871971 -1.6881 0
M  V30 10097 H 925.511 3.33419 -1.9941 0
M  V30 10098 H 927.183 1.92635 -4.19153 0
M  V30 10099 H 925.426 1.74822 -3.97014 0
M  V30 10100 H 926.097 3.32211 -4.4084 0
M  V30 10101 H 928.573 3.34 -2.4816 0
M  V30 10102 H 927.449 4.6564 -2.90639 0
M  V30 10103 H 927.71 4.25004 -1.21753 0
M  V30 10104 N 926.769 1.22769 0.988202 0
M  V30 10105 C 927.699 1.02627 2.09738 0
M  V30 10106 C 928.68 -0.0543211 1.70013 0
M  V30 10107 O 929.865 0.108811 1.93895 0
M  V30 10108 C 926.995 0.608302 3.41931 0
M  V30 10109 C 925.949 1.63536 3.95525 0
M  V30 10110 C 925.275 1.07308 5.23822 0
M  V30 10111 C 926.575 3.02649 4.25677 0
M  V30 10112 H 928.269 1.954 2.26847 0
M  V30 10113 H 925.815 0.940888 1.09011 0
M  V30 10114 H 927.768 0.454478 4.18942 0
M  V30 10115 H 926.492 -0.355095 3.24664 0
M  V30 10116 H 925.151 1.77704 3.20651 0
M  V30 10117 H 924.799 0.100894 5.02899 0
M  V30 10118 H 924.499 1.75925 5.60646 0
M  V30 10119 H 926.023 0.930938 6.03462 0
M  V30 10120 H 927.437 2.91828 4.93467 0
M  V30 10121 H 925.834 3.68434 4.73684 0
M  V30 10122 H 926.904 3.52228 3.33262 0
M  V30 10123 N 928.247 -1.18576 1.03814 0
M  V30 10124 C 929.495 -1.88121 0.738574 0
M  V30 10125 C 929.816 -1.80587 -0.735744 0
M  V30 10126 O 929.086 -1.22251 -1.53074 0
M  V30 10127 H 927.666 -0.696417 0.270208 0
M  V30 10128 H 930.328 -1.43912 1.31435 0
M  V30 10129 H 929.424 -2.94222 1.04115 0
M  V30 10130 N 929.725 -0.817259 -1.34754 0
M  V30 10131 C 930.974 -0.39908 -1.97713 0
M  V30 10132 C 931.287 1.04203 -1.65533 0
M  V30 10133 O 932.493 1.56384 -2.21937 0
M  V30 10134 C 930.949 -0.662634 -3.53747 0
M  V30 10135 C 930.557 -2.11699 -3.94826 0
M  V30 10136 C 932.301 -0.31034 -4.23364 0
M  V30 10137 C 930.208 -2.32573 -5.4375 0
M  V30 10138 H 929.138 -0.145488 -0.739831 0
M  V30 10139 H 931.789 -1.00282 -1.53674 0
M  V30 10140 H 930.171 0.0111972 -3.95998 0
M  V30 10141 H 931.345 -2.82951 -3.63697 0
M  V30 10142 H 929.66 -2.43017 -3.3813 0
M  V30 10143 H 932.257 -0.44421 -5.32852 0
M  V30 10144 H 932.6 0.744594 -4.09587 0
M  V30 10145 H 933.133 -0.938518 -3.8657 0
M  V30 10146 H 929.872 -3.36551 -5.62507 0
M  V30 10147 H 929.392 -1.65858 -5.76412 0
M  V30 10148 H 931.071 -2.14651 -6.10356 0
M  V30 10149 N 931.203 1.46865 -0.571711 0
M  V30 10150 C 932.428 2.07323 -0.0564655 0
M  V30 10151 C 932.853 1.41938 1.23431 0
M  V30 10152 O 932.211 0.499334 1.74288 0
M  V30 10153 C 932.259 3.6044 0.107339 0
M  V30 10154 O 931.363 3.95558 1.1665 0
M  V30 10155 H 930.704 0.661475 -0.0578465 0
M  V30 10156 H 933.234 1.88669 -0.791524 0
M  V30 10157 H 933.244 4.06767 0.316987 0
M  V30 10158 H 931.919 4.07425 -0.835348 0
M  V30 10159 H 930.496 3.60957 0.936189 0
M  V30 10160 N 932.681 0.308908 1.54543 0
M  V30 10161 C 933.928 -0.298036 2.00295 0
M  V30 10162 C 934.256 -1.53285 1.19724 0
M  V30 10163 O 933.511 -1.93917 0.263551 0
M  V30 10164 C 933.81 -0.691522 3.50646 0
M  V30 10165 C 933.476 0.442454 4.48724 0
M  V30 10166 C 932.138 0.753739 4.7526 0
M  V30 10167 C 934.49 1.20488 5.07082 0
M  V30 10168 C 931.818 1.83044 5.57415 0
M  V30 10169 C 934.17 2.27156 5.90409 0
M  V30 10170 C 932.834 2.58882 6.15253 0
M  V30 10171 H 932.104 -0.109059 0.73293 0
M  V30 10172 H 934.751 0.429647 1.86618 0
M  V30 10173 H 933.056 -1.49941 3.61974 0
M  V30 10174 H 934.753 -1.17244 3.83477 0
M  V30 10175 H 931.343 0.189744 4.2818 0
M  V30 10176 H 935.527 0.977653 4.86575 0
M  V30 10177 H 930.783 2.08088 5.749 0
M  V30 10178 H 934.957 2.86687 6.34652 0
M  V30 10179 H 932.584 3.42443 6.78702 0
M  V30 10180 N 934.159 -1.57557 0.0367827 0
M  V30 10181 C 935.407 -1.91735 -0.63892 0
M  V30 10182 C 935.728 -0.914515 -1.72226 0
M  V30 10183 O 934.998 0.0428248 -1.95853 0
M  V30 10184 H 933.578 -0.707738 -0.23899 0
M  V30 10185 H 936.24 -1.94708 0.0863931 0
M  V30 10186 H 935.336 -2.92568 -1.08676 0
M  V30 10187 N 935.637 0.236453 -1.55816 0
M  V30 10188 C 936.6 1.27633 -1.90375 0
M  V30 10189 C 937.6 1.40557 -0.781048 0
M  V30 10190 O 938.79 1.39078 -1.04895 0
M  V30 10191 C 935.922 2.65247 -2.14142 0
M  V30 10192 H 937.115 0.982019 -2.83366 0
M  V30 10193 H 934.668 0.476215 -1.48869 0
M  V30 10194 H 935.403 2.99801 -1.23653 0
M  V30 10195 H 935.188 2.57246 -2.95917 0
M  V30 10196 H 936.678 3.40313 -2.42026 0
M  V30 10197 N 937.115 1.49373 0.502552 0
M  V30 10198 C 938.078 1.65413 1.58654 0
M  V30 10199 C 939.078 0.526003 1.51953 0
M  V30 10200 O 940.268 0.792421 1.55133 0
M  V30 10201 C 937.4 1.65005 2.98306 0
M  V30 10202 H 938.593 2.62095 1.45762 0
M  V30 10203 H 936.146 1.38381 0.726672 0
M  V30 10204 H 936.881 0.699014 3.16677 0
M  V30 10205 H 936.666 2.46931 3.04578 0
M  V30 10206 H 938.156 1.79477 3.77065 0
M  V30 10207 N 938.594 -0.753485 1.38421 0
M  V30 10208 C 939.841 -1.51261 1.34634 0
M  V30 10209 C 940.169 -1.94396 -0.0635771 0
M  V30 10210 O 939.424 -1.65736 -1.04068 0
M  V30 10211 C 939.723 -2.77836 2.24816 0
M  V30 10212 C 939.389 -2.53662 3.72782 0
M  V30 10213 C 938.051 -2.46779 4.13103 0
M  V30 10214 C 940.403 -2.32548 4.66445 0
M  V30 10215 C 937.731 -2.16796 5.45176 0
M  V30 10216 C 940.083 -2.04085 5.98775 0
M  V30 10217 C 938.747 -1.95658 6.3818 0
M  V30 10218 H 938.017 -0.553503 0.492661 0
M  V30 10219 H 940.664 -0.866406 1.7078 0
M  V30 10220 H 938.969 -3.47106 1.81726 0
M  V30 10221 H 940.666 -3.35793 2.19189 0
M  V30 10222 H 937.256 -2.59891 3.40815 0
M  V30 10223 H 941.44 -2.36845 4.3614 0
M  V30 10224 H 936.696 -2.0878 5.74648 0
M  V30 10225 H 940.87 -1.86751 6.70893 0
M  V30 10226 H 938.497 -1.7219 7.40442 0
M  V30 10227 N 940.072 -1.23292 -0.981677 0
M  V30 10228 C 941.002 -1.03738 -2.09191 0
M  V30 10229 C 941.983 0.0453041 -1.7004 0
M  V30 10230 O 943.168 -0.119092 -1.93834 0
M  V30 10231 C 940.298 -0.626426 -3.41604 0
M  V30 10232 C 939.252 -1.65631 -3.94652 0
M  V30 10233 C 938.578 -1.10084 -5.23245 0
M  V30 10234 C 939.878 -3.04903 -4.24066 0
M  V30 10235 H 941.572 -1.966 -2.25807 0
M  V30 10236 H 939.118 -0.946656 -1.0851 0
M  V30 10237 H 941.071 -0.476689 -4.18695 0
M  V30 10238 H 939.795 0.337873 -3.24848 0
M  V30 10239 H 938.454 -1.79402 -3.19704 0
M  V30 10240 H 938.102 -0.127562 -5.02838 0
M  V30 10241 H 937.802 -1.78896 -5.59705 0
M  V30 10242 H 939.326 -0.962928 -6.02959 0
M  V30 10243 H 940.74 -2.94441 -4.91912 0
M  V30 10244 H 939.137 -3.70941 -4.71724 0
M  V30 10245 H 940.207 -3.53991 -3.31389 0
M  V30 10246 N 941.55 1.18024 -1.04442 0
M  V30 10247 C 942.48 2.23988 -0.659683 0
M  V30 10248 C 943.461 1.6669 0.338904 0
M  V30 10249 O 944.646 1.92971 0.21817 0
M  V30 10250 C 941.776 3.4729 -0.0257672 0
M  V30 10251 C 940.73 4.17362 -0.948299 0
M  V30 10252 C 940.056 5.34401 -0.17866 0
M  V30 10253 C 941.356 4.70435 -2.26909 0
M  V30 10254 H 943.05 2.56425 -1.54553 0
M  V30 10255 H 940.596 1.23256 -0.744575 0
M  V30 10256 H 942.549 4.20627 0.255131 0
M  V30 10257 H 941.273 3.14098 0.894981 0
M  V30 10258 H 939.932 3.45928 -1.21364 0
M  V30 10259 H 939.58 4.97458 0.744614 0
M  V30 10260 H 939.28 5.8222 -0.793294 0
M  V30 10261 H 940.804 6.10526 0.0951315 0
M  V30 10262 H 942.218 5.35447 -2.04864 0
M  V30 10263 H 940.615 5.28803 -2.83703 0
M  V30 10264 H 941.685 3.87653 -2.91296 0
M  V30 10265 N 943.028 0.824394 1.34319 0
M  V30 10266 C 943.958 0.262077 2.32025 0
M  V30 10267 C 944.939 -0.622277 1.58309 0
M  V30 10268 O 946.124 -0.548848 1.86283 0
M  V30 10269 C 943.254 -0.57567 3.42496 0
M  V30 10270 C 942.208 0.21167 4.27476 0
M  V30 10271 C 941.534 -0.748913 5.29429 0
M  V30 10272 C 942.834 1.42068 5.02607 0
M  V30 10273 H 944.528 1.07842 2.79304 0
M  V30 10274 H 942.074 0.520022 1.34282 0
M  V30 10275 H 944.027 -0.979251 4.09864 0
M  V30 10276 H 942.751 -1.42508 2.93869 0
M  V30 10277 H 941.41 0.596636 3.61712 0
M  V30 10278 H 941.058 -1.59432 4.77064 0
M  V30 10279 H 940.758 -0.226313 5.87164 0
M  V30 10280 H 942.282 -1.15032 5.99667 0
M  V30 10281 H 943.696 1.09103 5.62823 0
M  V30 10282 H 942.093 1.87903 5.69923 0
M  V30 10283 H 943.163 2.1981 4.32217 0
M  V30 10284 N 944.506 -1.46559 0.579492 0
M  V30 10285 C 945.469 -2.28739 -0.145371 0
M  V30 10286 C 946.469 -1.38211 -0.821854 0
M  V30 10287 O 947.659 -1.6062 -0.674302 0
M  V30 10288 C 944.791 -3.18507 -1.21515 0
M  V30 10289 H 945.984 -2.94301 0.576786 0
M  V30 10290 H 943.537 -1.52616 0.337327 0
M  V30 10291 H 944.272 -2.57685 -1.96899 0
M  V30 10292 H 944.057 -3.85157 -0.734616 0
M  V30 10293 H 945.547 -3.80369 -1.72363 0
M  V30 10294 N 945.984 -0.3171 -1.54377 0
M  V30 10295 C 947.231 0.28741 -2.0045 0
M  V30 10296 C 947.559 1.52648 -1.20535 0
M  V30 10297 O 946.814 1.93775 -0.273831 0
M  V30 10298 C 947.113 0.672917 -3.51008 0
M  V30 10299 C 946.779 -0.466245 -4.48483 0
M  V30 10300 C 945.441 -0.778933 -4.74854 0
M  V30 10301 C 947.793 -1.23176 -5.06436 0
M  V30 10302 C 945.121 -1.85997 -5.56437 0
M  V30 10303 C 947.473 -2.30284 -5.89196 0
M  V30 10304 C 946.137 -2.62141 -6.13872 0
M  V30 10305 H 945.407 0.105171 -0.733499 0
M  V30 10306 H 948.054 -0.439538 -1.86388 0
M  V30 10307 H 946.359 1.48019 -3.62764 0
M  V30 10308 H 948.056 1.15209 -3.84094 0
M  V30 10309 H 944.646 -0.212449 -4.28073 0
M  V30 10310 H 948.83 -1.00344 -4.8605 0
M  V30 10311 H 944.086 -2.11134 -5.73788 0
M  V30 10312 H 948.26 -2.90048 -6.33123 0
M  V30 10313 H 945.887 -3.46037 -6.76877 0
M  V30 10314 N 947.462 1.57535 -0.0451378 0
M  V30 10315 C 948.711 1.91628 0.629415 0
M  V30 10316 C 949.024 0.924754 1.72359 0
M  V30 10317 O 950.23 1.15751 2.45589 0
M  V30 10318 C 948.686 3.40322 1.17084 0
M  V30 10319 C 948.294 4.47867 0.109101 0
M  V30 10320 C 950.038 3.83458 1.82099 0
M  V30 10321 C 947.945 5.87671 0.663072 0
M  V30 10322 H 946.875 0.715163 0.238868 0
M  V30 10323 H 949.526 1.83151 -0.113046 0
M  V30 10324 H 947.908 3.43783 1.96543 0
M  V30 10325 H 949.082 4.55988 -0.664201 0
M  V30 10326 H 947.397 4.14034 -0.443227 0
M  V30 10327 H 949.994 4.85273 2.2453 0
M  V30 10328 H 950.337 3.19379 2.67026 0
M  V30 10329 H 950.87 3.82488 1.09305 0
M  V30 10330 H 947.609 6.55332 -0.148423 0
M  V30 10331 H 947.129 5.83124 1.4045 0
M  V30 10332 H 948.808 6.36737 1.14785 0
M  V30 10333 N 948.94 -0.228186 1.55939 0
M  V30 10334 C 949.87 -1.28607 1.94891 0
M  V30 10335 C 950.851 -1.49236 0.816245 0
M  V30 10336 O 952.036 -1.61531 1.07803 0
M  V30 10337 C 949.166 -2.63719 2.25986 0
M  V30 10338 C 948.12 -2.57757 3.4168 0
M  V30 10339 C 947.446 -3.96837 3.58364 0
M  V30 10340 C 948.746 -2.13116 4.76843 0
M  V30 10341 H 950.44 -0.962531 2.83506 0
M  V30 10342 H 947.986 -0.461577 1.36402 0
M  V30 10343 H 949.939 -3.37878 2.51826 0
M  V30 10344 H 948.663 -2.97747 1.34217 0
M  V30 10345 H 947.322 -1.86055 3.15878 0
M  V30 10346 H 946.97 -4.28162 2.63982 0
M  V30 10347 H 946.67 -3.93731 4.36176 0
M  V30 10348 H 948.194 -4.72668 3.86545 0
M  V30 10349 H 949.608 -2.77015 5.01932 0
M  V30 10350 H 948.005 -2.21083 5.57891 0
M  V30 10351 H 949.075 -1.08326 4.72645 0
M  V30 10352 N 950.418 -1.49637 -0.494624 0
M  V30 10353 C 951.665 -1.59445 -1.24834 0
M  V30 10354 C 951.993 -0.284028 -1.92415 0
M  V30 10355 O 951.248 0.728519 -1.81634 0
M  V30 10356 C 951.547 -2.70749 -2.33302 0
M  V30 10357 C 951.213 -4.12034 -1.83135 0
M  V30 10358 C 949.875 -4.50482 -1.69173 0
M  V30 10359 C 952.227 -5.00432 -1.4566 0
M  V30 10360 C 949.555 -5.75093 -1.16124 0
M  V30 10361 C 951.907 -6.25568 -0.940608 0
M  V30 10362 C 950.571 -6.62839 -0.787432 0
M  V30 10363 H 949.841 -0.583451 -0.456799 0
M  V30 10364 H 952.488 -1.8349 -0.548044 0
M  V30 10365 H 950.793 -2.407 -3.09145 0
M  V30 10366 H 952.49 -2.75546 -2.91334 0
M  V30 10367 H 949.08 -3.8169 -1.94964 0
M  V30 10368 H 953.264 -4.71379 -1.55291 0
M  V30 10369 H 948.52 -6.02665 -1.02982 0
M  V30 10370 H 952.694 -6.93439 -0.641467 0
M  V30 10371 H 950.321 -7.59279 -0.374191 0
M  V30 10372 N 951.896 0.746133 -1.38819 0
M  V30 10373 C 953.142 1.50768 -1.35635 0
M  V30 10374 C 953.475 1.94132 0.0512435 0
M  V30 10375 O 952.75 1.65979 1.01396 0
M  V30 10376 C 953.033 2.7551 -2.31875 0
M  V30 10377 C 952.886 2.38236 -3.81528 0
M  V30 10378 C 954.205 3.77566 -2.26124 0
M  V30 10379 H 951.324 0.546922 -0.494009 0
M  V30 10380 H 953.966 0.854017 -1.69725 0
M  V30 10381 H 952.116 3.31285 -2.02935 0
M  V30 10382 H 953.788 1.88178 -4.21173 0
M  V30 10383 H 952.031 1.70601 -3.98846 0
M  V30 10384 H 952.702 3.27517 -4.44339 0
M  V30 10385 H 955.178 3.31349 -2.51689 0
M  V30 10386 H 954.054 4.62531 -2.95561 0
M  V30 10387 H 954.315 4.23689 -1.26254 0
M  V30 10388 N 953.375 1.23811 0.975125 0
M  V30 10389 C 954.615 1.08517 1.73215 0
M  V30 10390 C 954.979 -0.370777 1.88386 0
M  V30 10391 O 956.18 -0.645036 2.60946 0
M  V30 10392 C 954.451 1.79649 3.08968 0
M  V30 10393 S 956.01 1.79993 4.00185 0
M  V30 10394 H 952.828 0.388256 0.595633 0
M  V30 10395 H 955.43 1.57028 1.16458 0
M  V30 10396 H 954.134 2.8471 2.95581 0
M  V30 10397 H 953.665 1.31441 3.70792 0
M  V30 10398 H 955.68 0.862294 4.8865 0
M  V30 10399 N 954.853 -1.17469 1.05066 0
M  V30 10400 C 956.1 -1.87698 0.759987 0
M  V30 10401 C 956.428 -1.80964 -0.712902 0
M  V30 10402 O 955.683 -1.21146 -1.53695 0
M  V30 10403 C 955.982 -3.37211 1.18421 0
M  V30 10404 C 955.648 -3.64148 2.65909 0
M  V30 10405 C 954.31 -3.71209 3.06199 0
M  V30 10406 C 956.662 -3.75724 3.61222 0
M  V30 10407 C 953.99 -3.87334 4.40669 0
M  V30 10408 C 956.342 -3.93368 4.95424 0
M  V30 10409 C 955.006 -3.98667 5.3537 0
M  V30 10410 H 954.276 -0.686835 0.278099 0
M  V30 10411 H 956.923 -1.38975 1.31751 0
M  V30 10412 H 955.228 -3.87982 0.545654 0
M  V30 10413 H 956.925 -3.89911 0.936518 0
M  V30 10414 H 953.515 -3.59276 2.33707 0
M  V30 10415 H 957.699 -3.69591 3.31235 0
M  V30 10416 H 952.955 -3.89685 4.71122 0
M  V30 10417 H 957.129 -4.01267 5.69173 0
M  V30 10418 H 954.756 -4.10915 6.39572 0
M  V30 10419 N 956.331 -0.831506 -1.3388 0
M  V30 10420 C 957.294 -0.264773 -2.27666 0
M  V30 10421 C 958.294 0.562273 -1.50649 0
M  V30 10422 O 959.484 0.377131 -1.70069 0
M  V30 10423 C 956.616 0.627814 -3.35069 0
M  V30 10424 H 957.809 -1.09225 -2.79303 0
M  V30 10425 H 955.362 -0.604021 -1.44157 0
M  V30 10426 H 956.097 1.47802 -2.88661 0
M  V30 10427 H 955.882 0.0361552 -3.92083 0
M  V30 10428 H 957.372 1.01786 -4.05005 0
M  V30 10429 N 957.809 1.4625 -0.587256 0
M  V30 10430 C 959.057 2.01963 -0.0744273 0
M  V30 10431 C 959.378 1.46065 1.29189 0
M  V30 10432 O 958.648 0.647077 1.84905 0
M  V30 10433 H 957.228 0.746597 -0.0245236 0
M  V30 10434 H 959.89 1.79299 -0.764063 0
M  V30 10435 H 958.986 3.12099 -0.00884894 0
M  V30 10436 N 959.287 0.325282 1.54207 0
M  V30 10437 C 960.219 -0.57395 2.21897 0
M  V30 10438 C 961.232 -1.0785 1.21952 0
M  V30 10439 O 962.421 -0.991782 1.48411 0
M  V30 10440 C 959.521 -1.8005 2.87115 0
M  V30 10441 C 958.694 -1.43435 4.13213 0
M  V30 10442 C 957.753 -2.51862 4.62009 0
M  V30 10443 O 956.779 -2.15934 5.26651 0
M  V30 10444 N 957.981 -3.8282 4.36382 0
M  V30 10445 H 960.746 0.00566918 2.99699 0
M  V30 10446 H 958.307 0.148563 1.61217 0
M  V30 10447 H 960.299 -2.51981 3.16682 0
M  V30 10448 H 958.869 -2.28792 2.13009 0
M  V30 10449 H 958.089 -0.546598 3.90392 0
M  V30 10450 H 959.377 -1.16544 4.95273 0
M  V30 10451 H 958.775 -4.14807 3.84645 0
M  V30 10452 H 957.332 -4.50976 4.70599 0
M  V30 10453 N 960.765 -1.57509 0.0534917 0
M  V30 10454 C 961.695 -2.14698 -0.917999 0
M  V30 10455 C 962.676 -1.06924 -1.32292 0
M  V30 10456 O 963.861 -1.34875 -1.39723 0
M  V30 10457 C 960.991 -2.69383 -2.19203 0
M  V30 10458 C 959.945 -3.82161 -1.9271 0
M  V30 10459 C 959.271 -4.23373 -3.26587 0
M  V30 10460 C 960.571 -5.07199 -1.24686 0
M  V30 10461 H 962.265 -2.96125 -0.44165 0
M  V30 10462 H 959.811 -1.42446 -0.210993 0
M  V30 10463 H 961.764 -3.08031 -2.87567 0
M  V30 10464 H 960.488 -1.85151 -2.69048 0
M  V30 10465 H 959.147 -3.43989 -1.26757 0
M  V30 10466 H 958.795 -3.36089 -3.74237 0
M  V30 10467 H 958.495 -4.99385 -3.09658 0
M  V30 10468 H 960.019 -4.64623 -3.96178 0
M  V30 10469 H 961.433 -5.43279 -1.83088 0
M  V30 10470 H 959.83 -5.88369 -1.18076 0
M  V30 10471 H 960.9 -4.84386 -0.223227 0
M  V30 10472 N 962.243 0.219913 -1.56058 0
M  V30 10473 C 963.173 1.27572 -1.9557 0
M  V30 10474 C 964.154 1.48801 -0.824148 0
M  V30 10475 O 965.339 1.60957 -1.08658 0
M  V30 10476 C 962.469 2.62517 -2.27381 0
M  V30 10477 C 961.423 2.55941 -3.43042 0
M  V30 10478 C 960.749 3.94931 -3.60463 0
M  V30 10479 C 962.049 2.10584 -4.77966 0
M  V30 10480 H 963.743 0.947482 -2.84013 0
M  V30 10481 H 961.289 0.454337 -1.36645 0
M  V30 10482 H 963.242 3.36538 -2.53615 0
M  V30 10483 H 961.966 2.97031 -1.35794 0
M  V30 10484 H 960.625 1.84377 -3.1686 0
M  V30 10485 H 960.273 4.26756 -2.66249 0
M  V30 10486 H 959.973 3.91413 -4.38258 0
M  V30 10487 H 961.497 4.70611 -3.89046 0
M  V30 10488 H 962.911 2.74349 -5.03394 0
M  V30 10489 H 961.308 2.18122 -5.59055 0
M  V30 10490 H 962.378 1.05818 -4.73213 0
M  V30 10491 N 963.721 1.49897 0.486681 0
M  V30 10492 C 964.653 1.63755 1.60365 0
M  V30 10493 C 965.666 0.519614 1.54285 0
M  V30 10494 O 966.855 0.792219 1.59957 0
M  V30 10495 C 963.955 1.59153 2.99205 0
M  V30 10496 C 963.128 2.8672 3.30319 0
M  V30 10497 C 962.187 2.74974 4.48638 0
M  V30 10498 O 961.213 3.48922 4.49714 0
M  V30 10499 N 962.415 1.87479 5.49392 0
M  V30 10500 H 965.18 2.60094 1.48899 0
M  V30 10501 H 962.741 1.47166 0.674825 0
M  V30 10502 H 964.733 1.4893 3.76301 0
M  V30 10503 H 963.303 0.706133 3.0452 0
M  V30 10504 H 962.523 3.11188 2.41983 0
M  V30 10505 H 963.811 3.71262 3.47911 0
M  V30 10506 H 963.209 1.26684 5.51333 0
M  V30 10507 H 961.766 1.83169 6.25534 0
M  V30 10508 N 965.199 -0.738761 1.39212 0
M  V30 10509 C 966.439 -1.51093 1.3766 0
M  V30 10510 C 966.803 -1.91978 -0.0289655 0
M  V30 10511 O 968.004 -2.68265 -0.169465 0
M  V30 10512 C 966.275 -2.71988 2.31856 0
M  V30 10513 S 967.834 -3.61683 2.48458 0
M  V30 10514 H 964.652 -0.516868 0.48823 0
M  V30 10515 H 967.254 -0.865961 1.75275 0
M  V30 10516 H 965.958 -2.40085 3.32847 0
M  V30 10517 H 965.489 -3.41417 1.95443 0
M  V30 10518 H 967.504 -4.65447 1.71969 0
M  V30 10519 N 966.677 -1.24326 -0.968545 0
M  V30 10520 C 967.902 -1.1104 -1.75171 0
M  V30 10521 C 968.327 0.333109 -1.85127 0
M  V30 10522 O 967.685 1.24115 -1.32156 0
M  V30 10523 C 967.733 -1.75397 -3.15068 0
M  V30 10524 O 966.837 -1.02417 -3.9948 0
M  V30 10525 H 966.178 -0.388488 -0.538491 0
M  V30 10526 H 968.708 -1.64617 -1.215 0
M  V30 10527 H 968.718 -1.8112 -3.65595 0
M  V30 10528 H 967.393 -2.80427 -3.07138 0
M  V30 10529 H 965.97 -1.04475 -3.57966 0
M  V30 10530 N 968.156 1.1691 -1.05688 0
M  V30 10531 C 969.103 2.21095 -0.662246 0
M  V30 10532 C 970.073 1.62623 0.338083 0
M  V30 10533 O 971.258 1.89428 0.228362 0
M  V30 10534 C 968.398 3.45066 -0.0484018 0
M  V30 10535 C 967.511 4.17809 -1.09817 0
M  V30 10536 C 966.646 5.29281 -0.451114 0
M  V30 10537 C 965.685 5.93817 -1.48484 0
M  V30 10538 N 964.822 6.96793 -0.861588 0
M  V30 10539 H 969.662 2.54204 -1.55513 0
M  V30 10540 H 967.199 1.24863 -0.777665 0
M  V30 10541 H 969.157 4.15932 0.324978 0
M  V30 10542 H 967.787 3.12526 0.807918 0
M  V30 10543 H 966.839 3.45608 -1.58932 0
M  V30 10544 H 968.151 4.61907 -1.88265 0
M  V30 10545 H 967.305 6.06695 -0.0244251 0
M  V30 10546 H 966.044 4.8633 0.365306 0
M  V30 10547 H 965.049 5.1513 -1.92149 0
M  V30 10548 H 966.274 6.38848 -2.30325 0
M  V30 10549 H 964.22 6.55967 -0.0657688 0
M  V30 10550 H 964.137 7.39229 -1.58354 0
M  V30 10551 H 965.405 7.78142 -0.45984 0
M  V30 10552 N 969.634 0.838594 1.33437 0
M  V30 10553 C 970.581 0.269609 2.2922 0
M  V30 10554 C 971.551 -0.614429 1.54318 0
M  V30 10555 O 972.736 -0.552756 1.82618 0
M  V30 10556 C 969.876 -0.549527 3.40697 0
M  V30 10557 C 968.989 0.358502 4.3051 0
M  V30 10558 C 968.124 -0.471709 5.29101 0
M  V30 10559 C 967.163 0.434728 6.10554 0
M  V30 10560 N 966.3 -0.357339 7.0119 0
M  V30 10561 H 971.14 1.09172 2.77282 0
M  V30 10562 H 968.677 0.549832 1.36438 0
M  V30 10563 H 970.635 -1.03992 4.04032 0
M  V30 10564 H 969.265 -1.33661 2.93828 0
M  V30 10565 H 968.317 0.967204 3.67899 0
M  V30 10566 H 969.629 1.05483 4.87519 0
M  V30 10567 H 968.783 -1.02594 5.97963 0
M  V30 10568 H 967.522 -1.20147 4.72669 0
M  V30 10569 H 966.527 1.00097 5.40611 0
M  V30 10570 H 967.752 1.16285 6.6907 0
M  V30 10571 H 965.698 -1.07049 6.47207 0
M  V30 10572 H 965.615 0.280277 7.5548 0
M  V30 10573 H 966.883 -0.893814 7.74359 0
M  V30 10574 N 971.112 -1.45937 0.595003 0
M  V30 10575 C 972.075 -2.2888 -0.121102 0
M  V30 10576 C 973.075 -1.39075 -0.807149 0
M  V30 10577 O 974.265 -1.61326 -0.657228 0
M  V30 10578 C 971.397 -3.19778 -1.1813 0
M  V30 10579 H 972.59 -2.93673 0.607968 0
M  V30 10580 H 970.143 -1.5225 0.353495 0
M  V30 10581 H 970.878 -2.59759 -1.94154 0
M  V30 10582 H 970.663 -3.85914 -0.693724 0
M  V30 10583 H 972.153 -3.82176 -1.68319 0
M  V30 10584 N 972.59 -0.333456 -1.54032 0
M  V30 10585 C 973.815 0.270517 -2.05628 0
M  V30 10586 C 974.24 1.44231 -1.20744 0
M  V30 10587 O 973.598 1.79975 -0.218822 0
M  V30 10588 C 973.646 0.673251 -3.54259 0
M  V30 10589 O 972.75 1.77448 -3.72271 0
M  V30 10590 H 972.091 0.0469753 -0.662336 0
M  V30 10591 H 974.621 -0.484739 -1.98775 0
M  V30 10592 H 974.631 0.953194 -3.96709 0
M  V30 10593 H 973.306 -0.183747 -4.15494 0
M  V30 10594 H 971.883 1.49259 -3.41725 0
M  V30 10595 N 974.068 1.57479 -0.061844 0
M  V30 10596 C 975.479 1.80627 0.472295 0
M  V30 10597 C 975.83 0.97496 1.70261 0
M  V30 10598 O 974.955 0.1946 2.15523 0
M  V30 10599 C 975.55 3.27608 0.863616 0
M  V30 10600 C 974.109 3.51638 1.34267 0
M  V30 10601 C 973.256 2.75412 0.323009 0
M  V30 10602 H 976.207 1.56072 -0.287634 0
M  V30 10603 H 976.228 3.39113 1.72577 0
M  V30 10604 H 975.74 3.88087 -0.0320226 0
M  V30 10605 H 973.841 2.96452 2.25714 0
M  V30 10606 H 973.954 4.60342 1.32747 0
M  V30 10607 H 972.318 2.4187 0.798175 0
M  V30 10608 H 973.101 3.38623 -0.564729 0
M  V30 10609 N 975.546 -0.211634 1.56173 0
M  V30 10610 C 976.476 -1.26533 1.96244 0
M  V30 10611 C 977.457 -1.48362 0.832028 0
M  V30 10612 O 978.642 -1.60378 1.0951 0
M  V30 10613 C 975.772 -2.61307 2.2877 0
M  V30 10614 C 974.726 -2.54119 3.44395 0
M  V30 10615 C 974.052 -3.93014 3.62552 0
M  V30 10616 C 975.352 -2.08046 4.79076 0
M  V30 10617 H 977.046 -0.932407 2.84511 0
M  V30 10618 H 974.592 -0.447084 1.36884 0
M  V30 10619 H 976.545 -3.35188 2.55396 0
M  V30 10620 H 975.269 -2.96307 1.37367 0
M  V30 10621 H 973.928 -1.82694 3.17834 0
M  V30 10622 H 973.576 -4.25338 2.68508 0
M  V30 10623 H 973.276 -3.89083 4.40327 0
M  V30 10624 H 974.8 -4.68542 3.91537 0
M  V30 10625 H 976.214 -2.71676 5.04842 0
M  V30 10626 H 974.611 -2.15154 5.60204 0
M  V30 10627 H 975.681 -1.03306 4.73768 0
M  V30 10628 N 977.024 -1.50153 -0.478725 0
M  V30 10629 C 977.954 -1.71384 -1.58587 0
M  V30 10630 C 978.935 -0.562705 -1.60523 0
M  V30 10631 O 980.12 -0.80101 -1.76911 0
M  V30 10632 C 977.25 -1.80094 -2.96957 0
M  V30 10633 C 976.204 -2.95218 -3.09888 0
M  V30 10634 C 975.53 -2.89063 -4.49829 0
M  V30 10635 C 976.83 -4.35841 -2.8782 0
M  V30 10636 H 978.524 -2.64081 -1.41073 0
M  V30 10637 H 976.07 -1.27081 -0.677239 0
M  V30 10638 H 978.023 -1.93531 -3.74331 0
M  V30 10639 H 976.747 -0.840131 -3.1561 0
M  V30 10640 H 975.406 -2.81419 -2.34944 0
M  V30 10641 H 975.054 -1.90844 -4.6539 0
M  V30 10642 H 974.754 -3.66345 -4.59418 0
M  V30 10643 H 976.278 -3.04539 -5.29234 0
M  V30 10644 H 977.692 -4.50205 -3.54948 0
M  V30 10645 H 976.089 -5.14515 -3.0886 0
M  V30 10646 H 977.159 -4.48739 -1.83742 0
M  V30 10647 N 978.502 0.731368 -1.39602 0
M  V30 10648 C 979.435 1.85433 -1.33004 0
M  V30 10649 C 980.413 1.61327 -0.20307 0
M  V30 10650 O 981.597 1.84545 -0.384124 0
M  V30 10651 C 978.724 3.21483 -1.06613 0
M  V30 10652 C 977.77 3.64443 -2.21549 0
M  V30 10653 S 978.603 3.73387 -3.83852 0
M  V30 10654 C 979.759 5.12222 -3.59694 0
M  V30 10655 H 979.992 1.90747 -2.28041 0
M  V30 10656 H 977.525 0.89659 -1.25701 0
M  V30 10657 H 979.483 4.00041 -0.920719 0
M  V30 10658 H 978.144 3.1382 -0.132563 0
M  V30 10659 H 977.337 4.63185 -1.98686 0
M  V30 10660 H 976.939 2.93099 -2.32312 0
M  V30 10661 H 979.231 5.98666 -3.17184 0
M  V30 10662 H 980.174 5.40115 -4.5791 0
M  V30 10663 H 980.582 4.8207 -2.93716 0
M  V30 10664 N 979.98 1.24838 0.961938 0
M  V30 10665 C 981.226 1.10321 1.70883 0
M  V30 10666 C 981.581 -0.353397 1.89127 0
M  V30 10667 O 980.874 -1.25721 1.44584 0
M  V30 10668 C 981.068 1.78289 3.09754 0
M  V30 10669 C 980.897 3.30409 3.05057 0
M  V30 10670 C 979.667 3.9964 3.09218 0
M  V30 10671 C 981.865 4.26916 2.86787 0
M  V30 10672 N 979.847 5.38594 2.94601 0
M  V30 10673 C 981.218 5.52906 2.80526 0
M  V30 10674 C 983.273 4.17421 2.71412 0
M  V30 10675 C 981.976 6.70487 2.60461 0
M  V30 10676 C 984.002 5.34686 2.52715 0
M  V30 10677 C 983.364 6.59611 2.47168 0
M  V30 10678 H 979.463 0.458353 0.63359 0
M  V30 10679 H 982.047 1.57835 1.14001 0
M  V30 10680 H 980.218 1.33281 3.64816 0
M  V30 10681 H 981.95 1.5658 3.73182 0
M  V30 10682 H 978.705 3.50847 3.18125 0
M  V30 10683 H 979.129 6.11497 2.90517 0
M  V30 10684 H 983.771 3.21592 2.74479 0
M  V30 10685 H 981.489 7.66433 2.56136 0
M  V30 10686 H 985.075 5.29194 2.41754 0
M  V30 10687 H 983.955 7.48821 2.32888 0
M  V30 10688 N 981.458 -1.16348 1.06306 0
M  V30 10689 C 982.388 -2.2291 0.695234 0
M  V30 10690 C 983.369 -1.67208 -0.312343 0
M  V30 10691 O 984.554 -1.93293 -0.187442 0
M  V30 10692 C 981.684 -3.47205 0.0810149 0
M  V30 10693 C 980.638 -4.15801 1.01458 0
M  V30 10694 C 979.964 -5.3405 0.263656 0
M  V30 10695 C 981.264 -4.66766 2.34365 0
M  V30 10696 H 982.958 -2.53934 1.58613 0
M  V30 10697 H 980.504 -1.22056 0.76409 0
M  V30 10698 H 982.457 -4.2098 -0.18818 0
M  V30 10699 H 981.181 -3.15482 -0.844897 0
M  V30 10700 H 979.84 -3.43954 1.26852 0
M  V30 10701 H 979.488 -4.9858 -0.665378 0
M  V30 10702 H 979.188 -5.80885 0.88582 0
M  V30 10703 H 980.712 -6.106 0.00200994 0
M  V30 10704 H 982.126 -5.3212 2.13356 0
M  V30 10705 H 980.523 -5.24223 2.9208 0
M  V30 10706 H 981.593 -3.82969 2.97426 0
M  V30 10707 N 982.937 -0.845659 -1.3299 0
M  V30 10708 C 983.867 -0.298957 -2.31578 0
M  V30 10709 C 984.848 0.597012 -1.59279 0
M  V30 10710 O 986.033 0.519142 -1.87132 0
M  V30 10711 C 983.163 0.521109 -3.43368 0
M  V30 10712 C 982.117 -0.279651 -4.27085 0
M  V30 10713 C 981.443 0.664591 -5.30554 0
M  V30 10714 C 982.743 -1.50046 -5.00283 0
M  V30 10715 H 984.437 -1.12272 -2.77552 0
M  V30 10716 H 981.983 -0.54132 -1.33438 0
M  V30 10717 H 983.936 0.913921 -4.1137 0
M  V30 10718 H 982.66 1.37815 -2.96099 0
M  V30 10719 H 981.319 -0.654106 -3.60717 0
M  V30 10720 H 980.967 1.51822 -4.79541 0
M  V30 10721 H 980.667 0.132871 -5.8745 0
M  V30 10722 H 982.191 1.05477 -6.01421 0
M  V30 10723 H 983.605 -1.18044 -5.61016 0
M  V30 10724 H 982.002 -1.96946 -5.66862 0
M  V30 10725 H 983.072 -2.26659 -4.28665 0
M  V30 10726 N 984.415 1.45619 -0.602734 0
M  V30 10727 C 985.362 2.30493 0.118944 0
M  V30 10728 C 986.332 1.41816 0.864723 0
M  V30 10729 O 987.517 1.7075 0.851424 0
M  V30 10730 C 984.657 3.2664 1.11356 0
M  V30 10731 C 983.77 4.3042 0.369161 0
M  V30 10732 C 982.905 5.13678 1.35307 0
M  V30 10733 C 981.944 6.09189 0.596207 0
M  V30 10734 N 981.081 6.85245 1.52916 0
M  V30 10735 H 985.921 2.91672 -0.610836 0
M  V30 10736 H 983.458 1.43731 -0.313032 0
M  V30 10737 H 985.416 3.80846 1.7033 0
M  V30 10738 H 984.046 2.67225 1.81081 0
M  V30 10739 H 983.098 3.78913 -0.335994 0
M  V30 10740 H 984.41 4.98307 -0.221603 0
M  V30 10741 H 983.564 5.7226 2.01502 0
M  V30 10742 H 982.303 4.45798 1.97777 0
M  V30 10743 H 981.308 5.49743 -0.0793984 0
M  V30 10744 H 982.533 6.79096 -0.0233734 0
M  V30 10745 H 980.479 6.20058 2.14159 0
M  V30 10746 H 980.396 7.49467 0.991713 0
M  V30 10747 H 981.664 7.48371 2.18083 0
M  V30 10748 N 985.893 0.34162 1.53853 0
M  V30 10749 C 987.118 -0.259608 2.05769 0
M  V30 10750 C 987.543 -1.43588 1.21507 0
M  V30 10751 O 986.901 -1.79856 0.228364 0
M  V30 10752 C 986.949 -0.654455 3.54611 0
M  V30 10753 O 986.053 -1.75472 3.73207 0
M  V30 10754 H 985.394 -0.0434621 0.662576 0
M  V30 10755 H 987.924 0.495274 1.98515 0
M  V30 10756 H 987.934 -0.932142 3.97209 0
M  V30 10757 H 986.609 0.205779 4.15391 0
M  V30 10758 H 985.186 -1.47444 3.42512 0
M  V30 10759 N 987.371 -1.57444 0.0701946 0
M  V30 10760 C 988.596 -1.98171 -0.61181 0
M  V30 10761 C 989.021 -0.94823 -1.62451 0
M  V30 10762 O 988.379 0.0863553 -1.81094 0
M  V30 10763 C 988.427 -3.37934 -1.2583 0
M  V30 10764 O 987.531 -3.37207 -2.37414 0
M  V30 10765 H 986.872 -0.645056 -0.157477 0
M  V30 10766 H 989.402 -2.04091 0.144235 0
M  V30 10767 H 989.412 -3.75083 -1.60552 0
M  V30 10768 H 988.087 -4.12684 -0.516234 0
M  V30 10769 H 986.664 -3.11826 -2.04497 0
M  V30 10770 N 988.849 0.203349 -1.56283 0
M  V30 10771 C 990.097 0.923183 -1.79782 0
M  V30 10772 C 990.418 1.84134 -0.64185 0
M  V30 10773 O 989.688 1.92922 0.340292 0
M  V30 10774 H 988.268 0.343881 -0.66314 0
M  V30 10775 H 990.93 0.210837 -1.93756 0
M  V30 10776 H 990.026 1.51921 -2.72629 0
M  V30 10777 N 990.327 1.50405 0.470755 0
M  V30 10778 C 991.576 1.60652 1.21959 0
M  V30 10779 C 991.889 0.312521 1.93087 0
M  V30 10780 O 993.095 0.293901 2.69905 0
M  V30 10781 C 991.551 2.83581 2.21607 0
M  V30 10782 C 991.159 4.19858 1.5628 0
M  V30 10783 C 992.903 3.03173 2.9713 0
M  V30 10784 C 990.81 5.33974 2.54217 0
M  V30 10785 H 989.74 0.598264 0.458907 0
M  V30 10786 H 992.391 1.76836 0.490041 0
M  V30 10787 H 990.773 2.60957 2.97855 0
M  V30 10788 H 991.947 4.52738 0.85819 0
M  V30 10789 H 990.262 4.05873 0.930366 0
M  V30 10790 H 992.859 3.856 3.70428 0
M  V30 10791 H 993.202 2.14914 3.56536 0
M  V30 10792 H 993.735 3.2598 2.27995 0
M  V30 10793 H 990.474 6.24388 1.99549 0
M  V30 10794 H 989.994 5.05511 3.22829 0
M  V30 10795 H 991.673 5.64561 3.16039 0
M  V30 10796 N 991.805 -0.723954 1.39988 0
M  V30 10797 C 993.054 -1.47922 1.3712 0
M  V30 10798 C 993.367 -1.95582 -0.0263665 0
M  V30 10799 O 994.573 -2.70918 -0.177652 0
M  V30 10800 C 993.029 -2.67342 2.40949 0
M  V30 10801 C 992.637 -2.26586 3.86475 0
M  V30 10802 C 994.381 -3.45116 2.47174 0
M  V30 10803 C 992.288 -3.42794 4.81919 0
M  V30 10804 H 991.218 -0.555522 0.509815 0
M  V30 10805 H 993.869 -0.788692 1.65686 0
M  V30 10806 H 992.251 -3.38524 2.0547 0
M  V30 10807 H 993.425 -1.62878 4.31054 0
M  V30 10808 H 991.74 -1.61876 3.83647 0
M  V30 10809 H 994.337 -4.31573 3.15672 0
M  V30 10810 H 994.68 -3.8835 1.49966 0
M  V30 10811 H 995.213 -2.80971 2.81602 0
M  V30 10812 H 991.952 -3.046 5.8043 0
M  V30 10813 H 991.472 -4.05445 4.42012 0
M  V30 10814 H 993.151 -4.08977 5.01345 0
M  V30 10815 N 993.283 -1.25346 -0.955304 0
M  V30 10816 C 994.246 -1.05754 -2.03344 0
M  V30 10817 C 995.246 -0.0105743 -1.60797 0
M  V30 10818 O 996.436 -0.252699 -1.72357 0
M  V30 10819 C 993.568 -0.605536 -3.35479 0
M  V30 10820 H 994.761 -2.01459 -2.22158 0
M  V30 10821 H 992.314 -1.07744 -1.1323 0
M  V30 10822 H 993.049 0.354154 -3.2236 0
M  V30 10823 H 992.834 -1.36134 -3.67709 0
M  V30 10824 H 994.324 -0.489867 -4.14717 0
M  V30 10825 N 994.761 1.15782 -1.06922 0
M  V30 10826 C 995.709 2.22441 -0.679893 0
M  V30 10827 C 996.703 1.66591 0.307221 0
M  V30 10828 O 997.909 1.79182 0.171402 0
M  V30 10829 H 994.284 0.724427 -0.201765 0
M  V30 10830 H 996.255 2.52562 -1.58918 0
M  V30 10831 C 995.004 3.47586 -0.0891142 0
M  V30 10832 H 994.327 3.9088 -0.839805 0
M  V30 10833 H 995.767 4.2375 0.14569 0
M  V30 10834 C 994.226 3.15967 1.16903 0
M  V30 10835 O 994.756 3.32359 2.25611 0
M  V30 10836 N 992.962 2.70046 1.07349 0
M  V30 10837 H 992.509 2.56907 0.188825 0
M  V30 10838 H 992.467 2.49264 1.91611 0
M  V30 10839 N 996.239 0.8527 1.3254 0
M  V30 10840 C 997.655 0.542298 1.50104 0
M  V30 10841 C 997.855 -0.927465 1.78886 0
M  V30 10842 O 996.911 -1.7106 1.85728 0
M  V30 10843 C 998.224 1.4276 2.64651 0
M  V30 10844 C 999.772 1.42782 2.78536 0
M  V30 10845 C 1000.25 2.29828 3.9616 0
M  V30 10846 N 1001.74 2.27613 4.03418 0
M  V30 10847 C 1002.47 2.91696 4.93661 0
M  V30 10848 N 1001.97 3.64883 5.88925 0
M  V30 10849 N 1003.76 2.81094 4.86768 0
M  V30 10850 H 995.913 1.80395 1.12123 0
M  V30 10851 H 998.176 0.770394 0.552446 0
M  V30 10852 H 997.882 2.47266 2.50105 0
M  V30 10853 H 997.756 1.11358 3.60388 0
M  V30 10854 H 1000.14 0.390417 2.92506 0
M  V30 10855 H 1000.22 1.78198 1.83519 0
M  V30 10856 H 999.868 3.33635 3.82949 0
M  V30 10857 H 999.798 1.91746 4.9045 0
M  V30 10858 H 1002.29 1.74402 3.3525 0
M  V30 10859 H 1002.6 4.10952 6.54476 0
M  V30 10860 H 1000.95 3.68991 5.88957 0
M  V30 10861 H 1004.14 2.23469 4.11314 0
M  V30 10862 H 1004.31 3.31318 5.56895 0
M  V30 10863 N 997.718 -1.45297 0.610449 0
M  V30 10864 C 999.129 -1.85715 0.191488 0
M  V30 10865 C 999.48 -1.51036 -1.25229 0
M  V30 10866 O 998.605 -0.938422 -1.94994 0
M  V30 10867 C 999.2 -3.37082 0.340747 0
M  V30 10868 C 997.759 -3.76393 -0.0235433 0
M  V30 10869 C 996.906 -2.69237 0.663849 0
M  V30 10870 H 999.857 -1.36058 0.816948 0
M  V30 10871 H 999.878 -3.78105 -0.426233 0
M  V30 10872 H 999.39 -3.62291 1.39164 0
M  V30 10873 H 997.491 -3.56801 -1.07351 0
M  V30 10874 H 997.604 -4.77653 0.372102 0
M  V30 10875 H 995.968 -2.54499 0.101204 0
M  V30 10876 H 996.751 -2.97281 1.71694 0
M  V30 10877 N 999.196 -0.349774 -1.5367 0
M  V30 10878 C 1000.44 0.237837 -2.02005 0
M  V30 10879 C 1000.8 1.477 -1.23298 0
M  V30 10880 O 1000.09 1.8901 -0.313947 0
M  V30 10881 C 1000.28 0.598311 -3.52356 0
M  V30 10882 C 1000.11 -0.604368 -4.4562 0
M  V30 10883 C 998.883 -1.1116 -4.92922 0
M  V30 10884 C 1001.08 -1.46474 -4.93001 0
M  V30 10885 N 999.063 -2.27595 -5.70152 0
M  V30 10886 C 1000.43 -2.47593 -5.68417 0
M  V30 10887 C 1002.49 -1.48947 -4.75099 0
M  V30 10888 C 1001.19 -3.51021 -6.27835 0
M  V30 10889 C 1003.22 -2.51259 -5.35372 0
M  V30 10890 C 1002.58 -3.51103 -6.1066 0
M  V30 10891 H 998.679 0.0501688 -0.780389 0
M  V30 10892 H 1001.26 -0.490748 -1.88414 0
M  V30 10893 H 999.434 1.29599 -3.6614 0
M  V30 10894 H 1001.17 1.16965 -3.87429 0
M  V30 10895 H 997.921 -0.678699 -4.68712 0
M  V30 10896 H 998.345 -2.864 -6.13436 0
M  V30 10897 H 1002.99 -0.731138 -4.1643 0
M  V30 10898 H 1000.7 -4.27745 -6.85609 0
M  V30 10899 H 1004.29 -2.54006 -5.23423 0
M  V30 10900 H 1003.17 -4.28974 -6.56469 0
M  V30 10901 N 1000.67 1.57404 -0.0785433 0
M  V30 10902 C 1002.08 1.81118 0.45311 0
M  V30 10903 C 1002.44 0.992963 1.69218 0
M  V30 10904 O 1001.56 0.217448 2.15305 0
M  V30 10905 C 1002.16 3.28506 0.82882 0
M  V30 10906 C 1000.71 3.53042 1.3053 0
M  V30 10907 C 999.862 2.75739 0.29378 0
M  V30 10908 H 1002.81 1.55758 -0.304171 0
M  V30 10909 H 1002.83 3.40924 1.68971 0
M  V30 10910 H 1002.35 3.88031 -0.0731826 0
M  V30 10911 H 1000.45 2.98829 2.22558 0
M  V30 10912 H 1000.56 4.61724 1.27857 0
M  V30 10913 H 998.924 2.42703 0.772477 0
M  V30 10914 H 999.707 3.38005 -0.600613 0
M  V30 10915 N 1002.15 -0.195058 1.56388 0
M  V30 10916 C 1003.57 -0.545894 1.49974 0
M  V30 10917 C 1003.77 -1.85851 0.778568 0
M  V30 10918 O 1002.82 -2.50346 0.329105 0
M  V30 10919 C 1004.14 -0.600599 2.94641 0
M  V30 10920 C 1005.68 -0.689429 3.05313 0
M  V30 10921 C 1006.16 -0.775243 4.51391 0
M  V30 10922 N 1007.65 -0.838769 4.55542 0
M  V30 10923 C 1008.39 -0.925337 5.65884 0
M  V30 10924 N 1007.88 -0.974204 6.85916 0
M  V30 10925 N 1009.67 -0.962528 5.53798 0
M  V30 10926 H 1001.83 0.66595 2.0169 0
M  V30 10927 H 1004.09 0.237215 0.917842 0
M  V30 10928 H 1003.79 0.29478 3.50462 0
M  V30 10929 H 1003.67 -1.45528 3.47996 0
M  V30 10930 H 1006.06 -1.57524 2.4954 0
M  V30 10931 H 1006.14 0.191451 2.55083 0
M  V30 10932 H 1005.78 0.106215 5.07789 0
M  V30 10933 H 1005.71 -1.67193 4.99354 0
M  V30 10934 H 1008.2 -0.810249 3.69112 0
M  V30 10935 H 1008.51 -1.04077 7.6576 0
M  V30 10936 H 1006.86 -0.942881 6.88574 0
M  V30 10937 H 1010.05 -0.921188 4.58946 0
M  V30 10938 H 1010.22 -1.02653 6.39817 0
M  V30 10939 N 1003.63 -1.50653 -0.462772 0
M  V30 10940 C 1004.88 -1.61296 -1.21105 0
M  V30 10941 C 1005.19 -0.322757 -1.92919 0
M  V30 10942 O 1006.4 -0.308211 -2.69745 0
M  V30 10943 C 1004.85 -2.84752 -2.201 0
M  V30 10944 C 1004.46 -4.20681 -1.54051 0
M  V30 10945 C 1006.21 -3.04744 -2.95518 0
M  V30 10946 C 1004.11 -5.35314 -2.51381 0
M  V30 10947 H 1003.04 -0.60069 -0.455728 0
M  V30 10948 H 1005.69 -1.77093 -0.480656 0
M  V30 10949 H 1004.08 -2.62532 -2.96467 0
M  V30 10950 H 1005.25 -4.53187 -0.834168 0
M  V30 10951 H 1003.56 -4.06361 -0.908828 0
M  V30 10952 H 1006.16 -3.87559 -3.68378 0
M  V30 10953 H 1006.5 -2.16802 -3.55391 0
M  V30 10954 H 1007.04 -3.27185 -2.26263 0
M  V30 10955 H 1003.78 -6.25437 -1.96235 0
M  V30 10956 H 1003.3 -5.07216 -3.20144 0
M  V30 10957 H 1004.98 -5.66229 -3.1304 0
M  V30 10958 N 1005.11 0.71652 -1.4037 0
M  V30 10959 C 1006.33 1.51069 -1.42102 0
M  V30 10960 C 1006.76 1.88087 -0.0222387 0
M  V30 10961 O 1006.12 1.53204 0.969448 0
M  V30 10962 C 1006.16 2.76307 -2.31704 0
M  V30 10963 O 1005.27 3.72975 -1.75964 0
M  V30 10964 H 1004.61 0.455502 -0.483129 0
M  V30 10965 H 1007.14 0.882514 -1.84588 0
M  V30 10966 H 1007.15 3.24846 -2.46859 0
M  V30 10967 H 1005.82 2.48698 -3.3335 0
M  V30 10968 H 1004.4 3.31818 -1.70151 0
M  V30 10969 N 1006.59 1.25851 0.948643 0
M  V30 10970 C 1007.52 1.09248 2.06367 0
M  V30 10971 C 1008.5 -0.000205168 1.701 0
M  V30 10972 O 1009.68 0.170442 1.93451 0
M  V30 10973 C 1006.81 0.716777 3.39823 0
M  V30 10974 C 1005.77 1.76036 3.90122 0
M  V30 10975 C 1005.09 1.23918 5.20143 0
M  V30 10976 C 1006.39 3.16039 4.15833 0
M  V30 10977 H 1008.09 2.02518 2.20515 0
M  V30 10978 H 1005.63 0.975093 1.05962 0
M  V30 10979 H 1007.59 0.587531 4.17284 0
M  V30 10980 H 1006.31 -0.251626 3.25629 0
M  V30 10981 H 1004.97 1.87815 3.14835 0
M  V30 10982 H 1004.62 0.260836 5.02323 0
M  V30 10983 H 1004.32 1.93673 5.54765 0
M  V30 10984 H 1005.84 1.12245 6.00194 0
M  V30 10985 H 1007.25 3.0738 4.83933 0
M  V30 10986 H 1005.65 3.83317 4.61723 0
M  V30 10987 H 1006.72 3.62652 3.21887 0
M  V30 10988 N 1008.06 -1.15214 1.07534 0
M  V30 10989 C 1009.29 -1.89922 0.820804 0
M  V30 10990 C 1009.71 -1.78114 -0.626177 0
M  V30 10991 O 1009.06 -1.13435 -1.42964 0
M  V30 10992 C 1009.12 -3.40207 1.22236 0
M  V30 10993 O 1008.84 -3.51676 2.61257 0
M  V30 10994 C 1010.34 -4.31934 0.997393 0
M  V30 10995 H 1007.56 -0.601865 0.296647 0
M  V30 10996 H 1010.1 -1.45965 1.43229 0
M  V30 10997 H 1008.26 -3.8182 0.655167 0
M  V30 10998 H 1008.67 -4.44959 2.77689 0
M  V30 10999 H 1010.14 -5.35791 1.32785 0
M  V30 11000 H 1010.62 -4.3915 -0.0661599 0
M  V30 11001 H 1011.23 -3.96066 1.54958 0
M  V30 11002 N 1009.54 -0.859717 -1.32086 0
M  V30 11003 C 1010.79 -0.461779 -1.96343 0
M  V30 11004 C 1011.1 0.988837 -1.68764 0
M  V30 11005 O 1012.31 1.49244 -2.268 0
M  V30 11006 C 1010.77 -0.77484 -3.5146 0
M  V30 11007 C 1010.37 -2.24153 -3.87891 0
M  V30 11008 C 1012.12 -0.444873 -4.22162 0
M  V30 11009 C 1010.03 -2.49754 -5.36075 0
M  V30 11010 H 1008.96 -0.168951 -0.734828 0
M  V30 11011 H 1011.61 -1.0512 -1.50406 0
M  V30 11012 H 1009.99 -0.114792 -3.95834 0
M  V30 11013 H 1011.16 -2.94378 -3.54511 0
M  V30 11014 H 1009.48 -2.53651 -3.30227 0
M  V30 11015 H 1012.07 -0.613508 -5.31169 0
M  V30 11016 H 1012.42 0.61391 -4.11749 0
M  V30 11017 H 1012.95 -1.06103 -3.83389 0
M  V30 11018 H 1009.69 -3.54276 -5.51515 0
M  V30 11019 H 1009.21 -1.84112 -5.70844 0
M  V30 11020 H 1010.89 -2.3396 -6.03218 0
M  V30 11021 N 1011.02 1.44971 -0.618145 0
M  V30 11022 C 1012.27 2.01372 -0.115004 0
M  V30 11023 C 1012.58 1.49104 1.26599 0
M  V30 11024 O 1013.79 1.97549 1.86244 0
M  V30 11025 C 1012.24 3.59567 -0.154883 0
M  V30 11026 C 1011.85 4.20832 -1.53639 0
M  V30 11027 C 1013.6 4.23491 0.292468 0
M  V30 11028 C 1011.5 5.7121 -1.53208 0
M  V30 11029 H 1010.43 0.752979 -0.0392267 0
M  V30 11030 H 1013.08 1.66329 -0.775032 0
M  V30 11031 H 1011.47 3.91847 0.572001 0
M  V30 11032 H 1012.64 4.00109 -2.28582 0
M  V30 11033 H 1010.96 3.69143 -1.92672 0
M  V30 11034 H 1013.55 5.33771 0.315032 0
M  V30 11035 H 1013.9 3.9491 1.31725 0
M  V30 11036 H 1014.43 3.95967 -0.381493 0
M  V30 11037 H 1011.17 6.04506 -2.53481 0
M  V30 11038 H 1010.69 5.94094 -0.825387 0
M  V30 11039 H 1012.37 6.34606 -1.26032 0
M  V30 11040 N 1012.5 0.357919 1.53482 0
M  V30 11041 C 1013.73 -0.23514 2.05559 0
M  V30 11042 C 1014.14 -1.43068 1.23195 0
M  V30 11043 O 1013.5 -1.80481 0.270741 0
M  V30 11044 C 1013.55 -0.636147 3.55859 0
M  V30 11045 O 1013.27 0.511864 4.35099 0
M  V30 11046 C 1014.77 -1.28841 4.24164 0
M  V30 11047 H 1011.99 -0.0428446 0.669631 0
M  V30 11048 H 1014.54 0.51407 1.97933 0
M  V30 11049 H 1012.69 -1.33528 3.63661 0
M  V30 11050 H 1013.1 0.189328 5.24158 0
M  V30 11051 H 1014.58 -1.51962 5.30671 0
M  V30 11052 H 1015.06 -2.24638 3.77405 0
M  V30 11053 H 1015.66 -0.630914 4.20594 0
M  V30 11054 N 1013.98 -1.5736 0.0868897 0
M  V30 11055 C 1015.2 -1.98388 -0.587349 0
M  V30 11056 C 1015.62 -0.965757 -1.6223 0
M  V30 11057 O 1014.98 0.0456981 -1.82443 0
M  V30 11058 C 1015.03 -3.39479 -1.24242 0
M  V30 11059 O 1014.75 -4.37393 -0.248878 0
M  V30 11060 C 1016.25 -3.95465 -2.00305 0
M  V30 11061 H 1013.47 -0.652111 -0.15809 0
M  V30 11062 H 1016.01 -2.03843 0.163754 0
M  V30 11063 H 1014.17 -3.35063 -1.94451 0
M  V30 11064 H 1014.58 -5.19525 -0.720678 0
M  V30 11065 H 1016.06 -4.96363 -2.41511 0
M  V30 11066 H 1016.53 -3.32832 -2.86565 0
M  V30 11067 H 1017.14 -4.03328 -1.34931 0
M  V30 11068 N 1015.45 0.186762 -1.56489 0
M  V30 11069 C 1016.42 1.21511 -1.94339 0
M  V30 11070 C 1017.42 1.38001 -0.82537 0
M  V30 11071 O 1018.61 1.3567 -1.09266 0
M  V30 11072 C 1015.74 2.583 -2.22472 0
M  V30 11073 H 1016.93 0.891371 -2.86347 0
M  V30 11074 H 1014.49 0.428612 -1.50308 0
M  V30 11075 H 1015.22 2.95715 -1.33129 0
M  V30 11076 H 1015.01 2.47701 -3.03951 0
M  V30 11077 H 1016.5 3.32441 -2.5273 0
M  V30 11078 N 1016.93 1.50896 0.454776 0
M  V30 11079 C 1018.18 1.61936 1.20248 0
M  V30 11080 C 1018.49 0.332983 1.92745 0
M  V30 11081 O 1019.7 0.322512 2.69578 0
M  V30 11082 C 1018.16 2.85916 2.18587 0
M  V30 11083 C 1017.76 4.21492 1.51818 0
M  V30 11084 C 1019.51 3.06307 2.93898 0
M  V30 11085 C 1017.42 5.3664 2.48539 0
M  V30 11086 H 1016.35 0.603098 0.452536 0
M  V30 11087 H 1019 1.77345 0.471257 0
M  V30 11088 H 1017.38 2.64101 2.95071 0
M  V30 11089 H 1018.55 4.53623 0.810123 0
M  V30 11090 H 1016.87 4.06837 0.887265 0
M  V30 11091 H 1019.46 3.89507 3.66317 0
M  V30 11092 H 1019.81 2.18683 3.54236 0
M  V30 11093 H 1020.34 3.2838 2.24525 0
M  V30 11094 H 1017.08 6.26469 1.92916 0
M  V30 11095 H 1016.6 5.08907 3.17449 0
M  V30 11096 H 1018.28 5.67881 3.10033 0
M  V30 11097 N 1018.41 -0.709066 1.40748 0
M  V30 11098 C 1019.66 -1.4646 1.38681 0
M  V30 11099 C 1019.97 -1.95599 -0.0056209 0
M  V30 11100 O 1021.18 -2.71091 -0.148907 0
M  V30 11101 C 1019.63 -2.64771 2.43771 0
M  V30 11102 C 1019.24 -2.22474 3.88856 0
M  V30 11103 C 1020.99 -3.42475 2.50821 0
M  V30 11104 C 1018.89 -3.37663 4.85528 0
M  V30 11105 H 1017.82 -0.550084 0.515678 0
M  V30 11106 H 1020.47 -0.771074 1.66513 0
M  V30 11107 H 1018.86 -3.36325 2.09048 0
M  V30 11108 H 1020.03 -1.58297 4.32757 0
M  V30 11109 H 1018.35 -1.57798 3.85342 0
M  V30 11110 H 1020.94 -4.28201 3.20232 0
M  V30 11111 H 1021.29 -3.86738 1.54076 0
M  V30 11112 H 1021.82 -2.77969 2.84567 0
M  V30 11113 H 1018.56 -2.98426 5.83628 0
M  V30 11114 H 1018.08 -4.00734 4.46287 0
M  V30 11115 H 1019.76 -4.03636 5.05655 0
M  V30 11116 N 1019.89 -1.26353 -0.941956 0
M  V30 11117 C 1020.82 -1.10341 -2.05784 0
M  V30 11118 C 1021.8 -0.00881565 -1.70098 0
M  V30 11119 O 1022.99 -0.180699 -1.93357 0
M  V30 11120 C 1020.12 -0.734788 -3.39438 0
M  V30 11121 C 1019.07 -1.78103 -3.89183 0
M  V30 11122 C 1018.4 -1.26675 -5.19478 0
M  V30 11123 C 1019.7 -3.1824 -4.14151 0
M  V30 11124 H 1021.39 -2.03684 -2.19438 0
M  V30 11125 H 1018.94 -0.980698 -1.05443 0
M  V30 11126 H 1020.89 -0.609653 -4.16967 0
M  V30 11127 H 1019.61 0.234354 -3.25758 0
M  V30 11128 H 1018.27 -1.89482 -3.13835 0
M  V30 11129 H 1017.92 -0.287472 -5.02178 0
M  V30 11130 H 1017.62 -1.96612 -5.53731 0
M  V30 11131 H 1019.14 -1.15427 -5.99591 0
M  V30 11132 H 1020.56 -3.09942 -4.82296 0
M  V30 11133 H 1018.95 -3.8576 -4.59684 0
M  V30 11134 H 1020.02 -3.64354 -3.19959 0
M  V30 11135 N 1021.37 1.14642 -1.08144 0
M  V30 11136 C 1022.3 2.18656 -0.653066 0
M  V30 11137 C 1023.28 1.59137 0.333803 0
M  V30 11138 O 1024.46 1.86988 0.238305 0
M  V30 11139 C 1021.59 3.38677 0.0398337 0
M  V30 11140 C 1020.64 4.1675 -0.906755 0
M  V30 11141 S 1021.47 4.78103 -2.41201 0
M  V30 11142 C 1022.62 6.01483 -1.73115 0
M  V30 11143 H 1022.86 2.54654 -1.53423 0
M  V30 11144 H 1020.39 1.25731 -0.896162 0
M  V30 11145 H 1022.35 4.08206 0.43334 0
M  V30 11146 H 1021.01 3.01006 0.897457 0
M  V30 11147 H 1020.2 5.02649 -0.368795 0
M  V30 11148 H 1019.8 3.52809 -1.24103 0
M  V30 11149 H 1022.1 6.69353 -1.04752 0
M  V30 11150 H 1023.04 6.59863 -2.56878 0
M  V30 11151 H 1023.45 5.51474 -1.20566 0
M  V30 11152 N 1022.85 0.866709 1.31628 0
M  V30 11153 C 1023.78 0.264788 2.26659 0
M  V30 11154 C 1024.76 -0.604181 1.50958 0
M  V30 11155 O 1025.94 -0.558324 1.80042 0
M  V30 11156 C 1023.07 -0.625373 3.32877 0
M  V30 11157 C 1022.11 0.171813 4.26154 0
M  V30 11158 S 1022.95 1.54818 5.12632 0
M  V30 11159 C 1024.1 0.66405 6.22367 0
M  V30 11160 H 1024.34 1.07036 2.77364 0
M  V30 11161 H 1021.87 0.665038 1.39343 0
M  V30 11162 H 1023.83 -1.13327 3.94547 0
M  V30 11163 H 1022.49 -1.40486 2.80932 0
M  V30 11164 H 1021.68 -0.506694 5.01447 0
M  V30 11165 H 1021.28 0.611704 3.68964 0
M  V30 11166 H 1023.57 -0.126717 6.77381 0
M  V30 11167 H 1024.52 1.388 6.94363 0
M  V30 11168 H 1024.93 0.233046 5.64019 0
M  V30 11169 N 1024.32 -1.44642 0.625825 0
M  V30 11170 C 1025.29 -2.29085 -0.072526 0
M  V30 11171 C 1026.29 -1.40755 -0.777467 0
M  V30 11172 O 1027.48 -1.62684 -0.622861 0
M  V30 11173 C 1024.61 -3.22212 -1.1132 0
M  V30 11174 H 1025.8 -2.92317 0.670124 0
M  V30 11175 H 1023.35 -1.51466 0.38571 0
M  V30 11176 H 1024.09 -2.63819 -1.88601 0
M  V30 11177 H 1023.87 -3.87299 -0.611709 0
M  V30 11178 H 1025.36 -3.8566 -1.60175 0
M  V30 11179 N 1025.8 -0.366053 -1.5329 0
M  V30 11180 C 1027.05 0.223824 -2.01561 0
M  V30 11181 C 1027.38 1.48382 -1.25286 0
M  V30 11182 O 1026.66 1.91385 -0.34669 0
M  V30 11183 C 1026.94 0.5153 -3.56394 0
M  V30 11184 C 1026.79 -0.758357 -4.43361 0
M  V30 11185 C 1028.11 1.31568 -4.19974 0
M  V30 11186 H 1025.23 0.0798751 -0.732659 0
M  V30 11187 H 1027.87 -0.491038 -1.83545 0
M  V30 11188 H 1026.02 1.12429 -3.71876 0
M  V30 11189 H 1027.69 -1.39584 -4.39675 0
M  V30 11190 H 1025.94 -1.37862 -4.11311 0
M  V30 11191 H 1026.61 -0.509366 -5.49645 0
M  V30 11192 H 1029.08 0.800514 -4.08327 0
M  V30 11193 H 1027.96 1.48837 -5.28336 0
M  V30 11194 H 1028.22 2.32432 -3.76069 0
M  V30 11195 N 1027.28 1.57312 -0.0952337 0
M  V30 11196 C 1028.53 1.94358 0.568442 0
M  V30 11197 C 1028.85 0.97698 1.68182 0
M  V30 11198 O 1028.11 -0.00340398 1.957 0
M  V30 11199 C 1028.41 3.37937 1.16332 0
M  V30 11200 C 1028.07 4.50565 0.173715 0
M  V30 11201 C 1026.74 4.81099 -0.0984673 0
M  V30 11202 C 1029.09 5.18777 -0.501992 0
M  V30 11203 C 1026.42 5.77172 -1.05305 0
M  V30 11204 C 1028.77 6.15874 -1.44505 0
M  V30 11205 C 1027.43 6.44813 -1.72546 0
M  V30 11206 H 1026.7 0.711206 0.208007 0
M  V30 11207 H 1029.35 1.90734 -0.171096 0
M  V30 11208 H 1027.65 3.3814 1.97911 0
M  V30 11209 H 1029.35 3.63902 1.68453 0
M  V30 11210 H 1025.94 4.26766 0.396042 0
M  V30 11211 H 1030.13 4.95363 -0.304855 0
M  V30 11212 H 1025.38 5.97909 -1.2773 0
M  V30 11213 H 1029.56 6.67824 -1.97444 0
M  V30 11214 H 1027.18 7.19067 -2.46671 0
M  V30 11215 N 1028.76 -0.17846 1.56586 0
M  V30 11216 C 1029.71 -1.24042 1.96765 0
M  V30 11217 C 1030.7 -1.46218 0.855375 0
M  V30 11218 O 1031.91 -1.46882 1.04046 0
M  V30 11219 H 1028.28 -0.416807 0.62592 0
M  V30 11220 H 1030.25 -0.874644 2.85294 0
M  V30 11221 C 1029 -2.57394 2.3376 0
M  V30 11222 H 1028.32 -2.41151 3.18883 0
M  V30 11223 H 1029.76 -3.30405 2.65723 0
M  V30 11224 C 1028.22 -3.15621 1.17835 0
M  V30 11225 O 1028.75 -3.99032 0.462202 0
M  V30 11226 N 1026.96 -2.74606 0.950783 0
M  V30 11227 H 1026.51 -2.06878 1.5349 0
M  V30 11228 H 1026.46 -3.13902 0.176967 0
M  V30 11229 N 1030.24 -1.51135 -0.446768 0
M  V30 11230 C 1031.17 -1.66438 -1.56121 0
M  V30 11231 C 1032.15 -0.512061 -1.54327 0
M  V30 11232 O 1033.33 -0.734702 -1.73593 0
M  V30 11233 C 1030.46 -1.66932 -2.94706 0
M  V30 11234 C 1029.5 -2.88016 -3.14562 0
M  V30 11235 S 1030.34 -4.48973 -2.91863 0
M  V30 11236 C 1031.49 -4.52196 -4.32746 0
M  V30 11237 H 1031.73 -2.60702 -1.42904 0
M  V30 11238 H 1029.26 -1.40701 -0.635812 0
M  V30 11239 H 1031.22 -1.679 -3.74593 0
M  V30 11240 H 1029.88 -0.738607 -3.05292 0
M  V30 11241 H 1029.07 -2.84735 -4.15863 0
M  V30 11242 H 1028.67 -2.8474 -2.42485 0
M  V30 11243 H 1030.96 -4.27256 -5.25793 0
M  V30 11244 H 1031.91 -5.53957 -4.41064 0
M  V30 11245 H 1032.32 -3.81624 -4.15961 0
M  V30 11246 N 1031.71 0.701592 -1.41122 0
M  V30 11247 C 1032.96 1.4616 -1.40155 0
M  V30 11248 C 1033.29 1.94498 -0.00861553 0
M  V30 11249 O 1032.54 1.69484 0.978452 0
M  V30 11250 C 1032.84 2.693 -2.34973 0
M  V30 11251 C 1032.51 2.39652 -3.81939 0
M  V30 11252 C 1031.17 2.31277 -4.21977 0
M  V30 11253 C 1033.52 2.15076 -4.74755 0
M  V30 11254 C 1030.85 1.96413 -5.52846 0
M  V30 11255 C 1033.2 1.81722 -6.05937 0
M  V30 11256 C 1031.87 1.71838 -6.45002 0
M  V30 11257 H 1031.14 0.534837 -0.512865 0
M  V30 11258 H 1033.78 0.802425 -1.73878 0
M  V30 11259 H 1032.09 3.40123 -1.94484 0
M  V30 11260 H 1033.79 3.27427 -2.31501 0
M  V30 11261 H 1030.38 2.47063 -3.50226 0
M  V30 11262 H 1034.56 2.20495 -4.4463 0
M  V30 11263 H 1029.82 1.87308 -5.82001 0
M  V30 11264 H 1033.99 1.61723 -6.77362 0
M  V30 11265 H 1031.62 1.44591 -7.46323 0
M  V30 11266 N 1033.19 1.2685 0.935242 0
M  V30 11267 C 1034.44 1.12745 1.68211 0
M  V30 11268 C 1034.77 -0.328128 1.91712 0
M  V30 11269 O 1034.02 -1.25701 1.49993 0
M  V30 11270 C 1034.32 1.8482 3.05903 0
M  V30 11271 C 1033.99 3.347 3.02137 0
M  V30 11272 C 1032.65 3.75583 3.00817 0
M  V30 11273 C 1035 4.30368 2.93995 0
M  V30 11274 C 1032.33 5.10511 2.89129 0
M  V30 11275 C 1034.68 5.65343 2.83848 0
M  V30 11276 C 1033.34 6.0553 2.80874 0
M  V30 11277 H 1032.61 0.412563 0.615527 0
M  V30 11278 H 1035.26 1.57366 1.09124 0
M  V30 11279 H 1033.57 1.32685 3.68649 0
M  V30 11280 H 1035.26 1.71341 3.62551 0
M  V30 11281 H 1031.85 3.02182 3.03947 0
M  V30 11282 H 1036.04 3.9976 2.94118 0
M  V30 11283 H 1031.29 5.40802 2.85208 0
M  V30 11284 H 1035.47 6.39151 2.76512 0
M  V30 11285 H 1033.09 7.10037 2.71573 0
M  V30 11286 N 1034.67 -1.14067 1.0875 0
M  V30 11287 C 1035.6 -2.21385 0.74236 0
M  V30 11288 C 1036.58 -1.67833 -0.276805 0
M  V30 11289 O 1037.77 -1.93647 -0.1464 0
M  V30 11290 C 1034.9 -3.46956 0.154644 0
M  V30 11291 C 1033.85 -4.13555 1.10255 0
M  V30 11292 C 1033.18 -5.3337 0.376877 0
M  V30 11293 C 1034.48 -4.6169 2.44213 0
M  V30 11294 H 1036.17 -2.50512 1.63964 0
M  V30 11295 H 1033.72 -1.20408 0.789807 0
M  V30 11296 H 1035.67 -4.21284 -0.0988419 0
M  V30 11297 H 1034.39 -3.17203 -0.777789 0
M  V30 11298 H 1033.05 -3.41186 1.34119 0
M  V30 11299 H 1032.7 -4.99879 -0.559472 0
M  V30 11300 H 1032.4 -5.78875 1.00884 0
M  V30 11301 H 1033.92 -6.10458 0.131527 0
M  V30 11302 H 1035.34 -5.27475 2.24595 0
M  V30 11303 H 1033.74 -5.17909 3.03134 0
M  V30 11304 H 1034.81 -3.76574 3.05483 0
M  V30 11305 N 1036.15 -0.873678 -1.31166 0
M  V30 11306 C 1037.37 -0.500242 -2.01277 0
M  V30 11307 C 1037.8 0.900811 -1.65127 0
M  V30 11308 O 1037.16 1.59504 -0.861862 0
M  V30 11309 C 1037.2 -0.668976 -3.5434 0
M  V30 11310 O 1036.31 0.290096 -4.11378 0
M  V30 11311 H 1035.65 -0.198507 -0.633633 0
M  V30 11312 H 1038.18 -1.17811 -1.67277 0
M  V30 11313 H 1038.19 -0.563673 -4.04088 0
M  V30 11314 H 1036.86 -1.69055 -3.79991 0
M  V30 11315 H 1035.44 0.139437 -3.72639 0
M  V30 11316 N 1037.63 1.44308 -0.633487 0
M  V30 11317 C 1038.9 1.95476 -0.0697262 0
M  V30 11318 C 1039.28 1.57539 1.40516 0
M  V30 11319 O 1038.63 0.850632 2.12077 0
M  V30 11320 C 1038.84 3.4775 -0.295093 0
M  V30 11321 C 1040.19 4.24177 -0.189542 0
M  V30 11322 O 1041.21 3.55479 -0.226586 0
M  V30 11323 O 1040.07 5.46415 -0.096479 0
M  V30 11324 H 1037.17 0.826734 0.0209582 0
M  V30 11325 H 1039.71 1.54347 -0.705354 0
M  V30 11326 H 1038.48 3.6842 -1.31841 0
M  V30 11327 H 1038.11 3.95832 0.37456 0
M  V30 11328 N 1039.1 0.374177 1.53094 0
M  V30 11329 C 1040.33 -0.215903 2.06273 0
M  V30 11330 C 1040.75 -1.40979 1.24526 0
M  V30 11331 O 1040.11 -1.79331 0.266462 0
M  V30 11332 C 1040.16 -0.579089 3.5592 0
M  V30 11333 O 1039.26 -1.67516 3.76845 0
M  V30 11334 H 1038.61 -0.0293981 0.663349 0
M  V30 11335 H 1041.14 0.537271 1.9742 0
M  V30 11336 H 1041.15 -0.847678 3.99097 0
M  V30 11337 H 1039.82 0.293843 4.14861 0
M  V30 11338 H 1038.4 -1.40146 3.45563 0
M  V30 11339 N 1040.58 -1.57259 0.103575 0
M  V30 11340 C 1041.49 -2.18018 -0.866327 0
M  V30 11341 C 1042.51 -1.15198 -1.30404 0
M  V30 11342 O 1043.68 -1.47605 -1.37021 0
M  V30 11343 C 1040.75 -2.75533 -2.10434 0
M  V30 11344 C 1039.81 -3.93337 -1.72002 0
M  V30 11345 C 1039.04 -4.481 -2.89901 0
M  V30 11346 O 1039.27 -4.01784 -4.04877 0
M  V30 11347 O 1038.2 -5.39004 -2.67877 0
M  V30 11348 H 1042.03 -3.01322 -0.379338 0
M  V30 11349 H 1039.61 -1.48907 -0.121228 0
M  V30 11350 H 1041.49 -3.12259 -2.8297 0
M  V30 11351 H 1040.17 -1.9527 -2.58169 0
M  V30 11352 H 1039.08 -3.61408 -0.966193 0
M  V30 11353 H 1040.41 -4.74989 -1.29022 0
M  V30 11354 N 1042.06 0.170153 -1.56679 0
M  V30 11355 C 1042.97 1.23057 -1.99735 0
M  V30 11356 C 1043.99 1.48374 -0.908912 0
M  V30 11357 O 1045.16 1.60499 -1.21663 0
M  V30 11358 C 1042.23 2.54944 -2.34956 0
M  V30 11359 C 1041.29 2.3748 -3.57634 0
M  V30 11360 C 1040.52 3.63078 -3.91165 0
M  V30 11361 O 1040.74 4.68304 -3.2565 0
M  V30 11362 O 1039.68 3.57119 -4.8451 0
M  V30 11363 H 1043.5 0.895104 -2.9021 0
M  V30 11364 H 1041.09 0.377109 -1.44562 0
M  V30 11365 H 1042.97 3.32742 -2.58574 0
M  V30 11366 H 1041.65 2.88068 -1.47643 0
M  V30 11367 H 1040.55 1.57709 -3.39232 0
M  V30 11368 H 1041.89 2.0928 -4.45491 0
M  V30 11369 N 1043.54 1.5137 0.438746 0
M  V30 11370 C 1044.77 1.67774 1.21077 0
M  V30 11371 C 1045.18 0.374489 1.85049 0
M  V30 11372 O 1044.54 -0.646867 1.70651 0
M  V30 11373 C 1044.59 2.79238 2.29584 0
M  V30 11374 O 1044.31 4.04513 1.68228 0
M  V30 11375 C 1045.81 3.06898 3.19888 0
M  V30 11376 H 1043.03 0.563054 0.364981 0
M  V30 11377 H 1045.58 1.97777 0.520035 0
M  V30 11378 H 1043.73 2.51837 2.94375 0
M  V30 11379 H 1044.14 4.66405 2.3993 0
M  V30 11380 H 1045.62 3.88476 3.92162 0
M  V30 11381 H 1046.1 2.19249 3.80561 0
M  V30 11382 H 1046.7 3.35952 2.60799 0
M  V30 11383 N 1045.02 -0.694098 1.41492 0
M  V30 11384 C 1046.27 -1.4498 1.40227 0
M  V30 11385 C 1046.58 -1.95594 0.0151253 0
M  V30 11386 O 1047.78 -2.71234 -0.120146 0
M  V30 11387 C 1046.24 -2.62171 2.46565 0
M  V30 11388 C 1045.85 -2.18337 3.91194 0
M  V30 11389 C 1047.59 -3.39796 2.54439 0
M  V30 11390 C 1045.5 -3.32495 4.89082 0
M  V30 11391 H 1044.43 -0.544584 0.521483 0
M  V30 11392 H 1047.08 -0.75337 1.67322 0
M  V30 11393 H 1045.46 -3.34089 2.12604 0
M  V30 11394 H 1046.64 -1.53698 4.34412 0
M  V30 11395 H 1044.95 -1.53702 3.86994 0
M  V30 11396 H 1047.55 -4.2478 3.24755 0
M  V30 11397 H 1047.89 -3.85082 1.5817 0
M  V30 11398 H 1048.42 -2.74935 2.87499 0
M  V30 11399 H 1045.16 -2.92219 5.86761 0
M  V30 11400 H 1044.68 -3.95978 4.50512 0
M  V30 11401 H 1046.36 -3.98251 5.09907 0
M  V30 11402 N 1046.49 -1.27344 -0.928501 0
M  V30 11403 C 1047.91 -1.12361 -1.49103 0
M  V30 11404 C 1048.26 0.291667 -1.9402 0
M  V30 11405 O 1047.38 1.18449 -1.81104 0
M  V30 11406 C 1047.98 -2.03358 -2.70981 0
M  V30 11407 C 1046.54 -1.92483 -3.23461 0
M  V30 11408 C 1045.68 -1.95961 -1.962 0
M  V30 11409 H 1048.63 -1.40249 -0.742689 0
M  V30 11410 H 1048.65 -1.58892 -3.45736 0
M  V30 11411 H 1048.17 -3.06356 -2.38259 0
M  V30 11412 H 1046.27 -0.924676 -3.60944 0
M  V30 11413 H 1046.38 -2.78682 -3.89709 0
M  V30 11414 H 1044.74 -1.40175 -2.12657 0
M  V30 11415 H 1045.53 -3.00612 -1.65793 0
M  V30 11416 N 1047.97 1.13488 -1.09353 0
M  V30 11417 C 1049.38 1.66299 -0.848609 0
M  V30 11418 C 1049.73 1.86044 0.623051 0
M  V30 11419 O 1048.86 1.57871 1.48005 0
M  V30 11420 C 1049.45 3.02087 -1.53391 0
M  V30 11421 C 1048.01 3.51893 -1.33598 0
M  V30 11422 C 1047.16 2.27154 -1.59048 0
M  V30 11423 H 1050.11 0.974208 -1.25279 0
M  V30 11424 H 1050.13 3.68018 -0.966587 0
M  V30 11425 H 1049.64 2.87684 -2.60498 0
M  V30 11426 H 1047.75 3.715 -0.286045 0
M  V30 11427 H 1047.86 4.32059 -2.0703 0
M  V30 11428 H 1046.22 2.33708 -1.01256 0
M  V30 11429 H 1047.01 2.15317 -2.67383 0
M  V30 11430 N 1049.45 0.880621 1.30701 0
M  V30 11431 C 1050.68 0.511682 2.00473 0
M  V30 11432 C 1051.09 -0.898684 1.6604 0
M  V30 11433 O 1050.45 -1.59035 0.895218 0
M  V30 11434 C 1050.5 0.671723 3.55204 0
M  V30 11435 O 1050.22 2.02656 3.8841 0
M  V30 11436 C 1051.72 0.3052 4.42248 0
M  V30 11437 H 1048.94 0.198231 0.64105 0
M  V30 11438 H 1051.49 1.18472 1.66687 0
M  V30 11439 H 1049.64 0.0461066 3.87373 0
M  V30 11440 H 1050.06 2.04202 4.83117 0
M  V30 11441 H 1051.53 0.468095 5.50012 0
M  V30 11442 H 1052.01 -0.756456 4.32637 0
M  V30 11443 H 1052.61 0.906959 4.15517 0
M  V30 11444 N 1050.93 -1.4397 0.641131 0
M  V30 11445 C 1051.89 -2.29149 -0.0482243 0
M  V30 11446 C 1052.89 -1.41572 -0.762495 0
M  V30 11447 O 1054.08 -1.63335 -0.605571 0
M  V30 11448 C 1051.21 -3.23375 -1.07896 0
M  V30 11449 H 1052.41 -2.9159 0.70109 0
M  V30 11450 H 1049.96 -1.51048 0.401754 0
M  V30 11451 H 1050.7 -2.65804 -1.85792 0
M  V30 11452 H 1050.48 -3.87926 -0.570597 0
M  V30 11453 H 1051.97 -3.87337 -1.56075 0
M  V30 11454 N 1052.41 -0.382291 -1.52893 0
M  V30 11455 C 1053.36 0.471187 -2.27778 0
M  V30 11456 C 1054.35 1.0691 -1.31402 0
M  V30 11457 O 1055.56 1.01038 -1.48967 0
M  V30 11458 H 1051.93 0.170696 -0.732371 0
M  V30 11459 H 1053.9 -0.181954 -2.97845 0
M  V30 11460 C 1052.65 1.59012 -3.09209 0
M  V30 11461 H 1051.97 1.13935 -3.83222 0
M  V30 11462 H 1053.41 2.16167 -3.64757 0
M  V30 11463 C 1051.87 2.54212 -2.21084 0
M  V30 11464 O 1052.4 3.57447 -1.83288 0
M  V30 11465 N 1050.61 2.23789 -1.85383 0
M  V30 11466 H 1050.16 1.39872 -2.16318 0
M  V30 11467 H 1050.11 2.87737 -1.26708 0
M  V30 11468 N 1053.89 1.57202 -0.111913 0
M  V30 11469 C 1055.11 1.99297 0.555713 0
M  V30 11470 C 1055.53 0.991444 1.60673 0
M  V30 11471 O 1054.89 -0.0166672 1.82492 0
M  V30 11472 C 1054.94 3.41413 1.18826 0
M  V30 11473 O 1054.66 4.37733 0.179261 0
M  V30 11474 C 1056.16 3.98602 1.93989 0
M  V30 11475 H 1053.38 0.654543 0.147695 0
M  V30 11476 H 1055.92 2.03557 -0.196163 0
M  V30 11477 H 1054.08 3.38115 1.89096 0
M  V30 11478 H 1054.49 5.20606 0.637935 0
M  V30 11479 H 1055.97 5.00143 2.33584 0
M  V30 11480 H 1056.44 3.37349 2.81233 0
M  V30 11481 H 1057.05 4.05424 1.28497 0
M  V30 11482 N 1055.36 -0.161842 1.56767 0
M  V30 11483 C 1056.59 -0.892247 1.86672 0
M  V30 11484 C 1057.01 -1.75407 0.69841 0
M  V30 11485 O 1056.36 -1.7945 -0.332251 0
M  V30 11486 C 1056.41 -1.7612 3.15696 0
M  V30 11487 O 1056.14 -0.934131 4.28025 0
M  V30 11488 C 1057.64 -2.60046 3.59014 0
M  V30 11489 H 1054.86 -0.258747 0.619105 0
M  V30 11490 H 1057.4 -0.159089 2.0388 0
M  V30 11491 H 1055.56 -2.44759 3.00286 0
M  V30 11492 H 1055.97 -1.52931 5.01709 0
M  V30 11493 H 1057.44 -3.16618 4.5217 0
M  V30 11494 H 1057.92 -3.35374 2.83586 0
M  V30 11495 H 1058.53 -1.96724 3.77067 0
M  V30 11496 N 1056.84 -1.516 -0.430713 0
M  V30 11497 C 1057.79 -1.73975 -1.54387 0
M  V30 11498 C 1058.78 -0.606222 -1.58181 0
M  V30 11499 O 1059.99 -0.787764 -1.61846 0
M  V30 11500 H 1056.36 -0.549811 -0.513041 0
M  V30 11501 H 1058.34 -2.67274 -1.32692 0
M  V30 11502 C 1057.08 -1.88794 -2.9198 0
M  V30 11503 H 1056.41 -2.75425 -2.89795 0
M  V30 11504 H 1057.85 -2.08458 -3.69217 0
M  V30 11505 C 1056.31 -0.649427 -3.30581 0
M  V30 11506 O 1056.84 0.192823 -4.01237 0
M  V30 11507 N 1055.04 -0.491586 -2.86412 0
M  V30 11508 H 1054.59 -1.17806 -2.29084 0
M  V30 11509 H 1054.55 0.33583 -3.12601 0
M  V30 11510 N 1058.32 0.686584 -1.41858 0
M  V30 11511 C 1059.55 1.47519 -1.45072 0
M  V30 11512 C 1059.96 1.88709 -0.0585868 0
M  V30 11513 O 1059.32 1.57373 0.924116 0
M  V30 11514 C 1059.37 2.73195 -2.36742 0
M  V30 11515 O 1059.09 2.33736 -3.70539 0
M  V30 11516 C 1060.59 3.66861 -2.48854 0
M  V30 11517 H 1057.81 0.454307 -0.493808 0
M  V30 11518 H 1060.36 0.844612 -1.86243 0
M  V30 11519 H 1058.51 3.32468 -1.98856 0
M  V30 11520 H 1058.93 3.14809 -4.19518 0
M  V30 11521 H 1060.4 4.51801 -3.17143 0
M  V30 11522 H 1060.88 4.11961 -1.52265 0
M  V30 11523 H 1061.48 3.13486 -2.87414 0
M  V30 11524 N 1059.8 1.27835 0.921735 0
M  V30 11525 C 1061.02 1.17465 1.70929 0
M  V30 11526 C 1061.45 -0.264171 1.86236 0
M  V30 11527 O 1060.81 -1.19124 1.36671 0
M  V30 11528 C 1060.85 1.8697 3.08342 0
M  V30 11529 O 1059.96 1.17173 3.95404 0
M  V30 11530 H 1059.3 0.408206 0.523702 0
M  V30 11531 H 1061.83 1.69013 1.15307 0
M  V30 11532 H 1061.84 1.94564 3.58621 0
M  V30 11533 H 1060.51 2.91633 2.96518 0
M  V30 11534 H 1059.09 1.17688 3.53842 0
M  V30 11535 N 1061.28 -1.12907 1.09954 0
M  V30 11536 C 1062.52 -1.84306 0.838912 0
M  V30 11537 C 1062.85 -1.83825 -0.635508 0
M  V30 11538 O 1062.11 -1.27556 -1.48418 0
M  V30 11539 C 1062.4 -3.31885 1.32616 0
M  V30 11540 C 1062.07 -3.52542 2.81114 0
M  V30 11541 C 1060.73 -3.57888 3.21667 0
M  V30 11542 C 1063.08 -3.60065 3.76833 0
M  V30 11543 C 1060.41 -3.68296 4.567 0
M  V30 11544 C 1062.76 -3.72001 5.11662 0
M  V30 11545 C 1061.43 -3.75602 5.51797 0
M  V30 11546 H 1060.7 -0.674422 0.30698 0
M  V30 11547 H 1063.35 -1.33261 1.37527 0
M  V30 11548 H 1061.65 -3.85318 0.709719 0
M  V30 11549 H 1063.35 -3.85588 1.10105 0
M  V30 11550 H 1059.94 -3.4904 2.48735 0
M  V30 11551 H 1064.12 -3.55209 3.46612 0
M  V30 11552 H 1059.38 -3.69352 4.87226 0
M  V30 11553 H 1063.55 -3.76765 5.8568 0
M  V30 11554 H 1061.18 -3.83419 6.56425 0
M  V30 11555 N 1062.75 -0.88754 -1.30232 0
M  V30 11556 C 1063.98 -0.521562 -2.00735 0
M  V30 11557 C 1064.4 0.883247 -1.66073 0
M  V30 11558 O 1063.76 1.58581 -0.878731 0
M  V30 11559 C 1063.81 -0.706521 -3.53611 0
M  V30 11560 O 1062.91 0.246447 -4.11663 0
M  V30 11561 H 1062.25 -0.205216 -0.631492 0
M  V30 11562 H 1064.78 -1.19579 -1.66018 0
M  V30 11563 H 1064.79 -0.606501 -4.03467 0
M  V30 11564 H 1063.47 -1.73076 -3.78177 0
M  V30 11565 H 1062.05 0.0999062 -3.72766 0
M  V30 11566 N 1064.23 1.43628 -0.648757 0
M  V30 11567 C 1065.2 2.29172 0.0360713 0
M  V30 11568 C 1066.2 1.41974 0.754976 0
M  V30 11569 O 1067.39 1.63654 0.5969 0
M  V30 11570 C 1064.52 3.23942 1.0618 0
M  V30 11571 H 1065.71 2.91214 -0.716544 0
M  V30 11572 H 1063.26 1.50833 -0.409759 0
M  V30 11573 H 1064 2.66786 1.8438 0
M  V30 11574 H 1063.78 3.88223 0.550016 0
M  V30 11575 H 1065.27 3.8816 1.54019 0
M  V30 11576 N 1065.71 0.390394 1.52688 0
M  V30 11577 C 1066.94 -0.194013 2.06491 0
M  V30 11578 C 1067.36 -1.3965 1.26014 0
M  V30 11579 O 1066.72 -1.79038 0.285468 0
M  V30 11580 C 1066.77 -0.541306 3.56514 0
M  V30 11581 O 1065.87 -1.63509 3.78601 0
M  V30 11582 H 1065.21 -0.0223608 0.663623 0
M  V30 11583 H 1067.74 0.558179 1.96839 0
M  V30 11584 H 1067.75 -0.805301 3.99974 0
M  V30 11585 H 1066.43 0.337828 4.14526 0
M  V30 11586 H 1065 -1.36473 3.4703 0
M  V30 11587 N 1067.19 -1.57141 0.120249 0
M  V30 11588 C 1068.14 -2.16638 -0.846809 0
M  V30 11589 C 1069.13 -1.11594 -1.27449 0
M  V30 11590 O 1070.34 -1.29895 -1.24608 0
M  V30 11591 H 1066.71 -0.693331 -0.291197 0
M  V30 11592 H 1068.68 -2.96673 -0.320536 0
M  V30 11593 C 1067.43 -2.78134 -2.08655 0
M  V30 11594 H 1066.75 -3.58662 -1.76639 0
M  V30 11595 H 1068.19 -3.23301 -2.74322 0
M  V30 11596 C 1066.65 -1.7528 -2.87713 0
M  V30 11597 O 1067.18 -1.20693 -3.8314 0
M  V30 11598 N 1065.39 -1.45192 -2.51729 0
M  V30 11599 H 1064.94 -1.89773 -1.74195 0
M  V30 11600 H 1064.89 -0.766166 -3.04922 0
M  V30 11601 N 1068.67 0.153526 -1.5685 0
M  V30 11602 C 1069.61 1.20896 -1.98713 0
M  V30 11603 C 1070.61 1.44839 -0.878529 0
M  V30 11604 O 1071.81 1.45208 -1.0637 0
M  V30 11605 H 1068.19 0.406797 -0.632472 0
M  V30 11606 H 1070.16 0.829145 -2.86649 0
M  V30 11607 C 1068.91 2.53642 -2.37825 0
M  V30 11608 H 1068.23 2.36047 -3.22679 0
M  V30 11609 H 1069.67 3.26136 -2.70946 0
M  V30 11610 C 1068.13 3.13706 -1.22841 0
M  V30 11611 O 1068.66 3.98246 -0.525626 0
M  V30 11612 N 1066.87 2.73059 -0.99435 0
M  V30 11613 H 1066.41 2.0441 -1.56761 0
M  V30 11614 H 1066.37 3.1358 -0.226883 0
M  V30 11615 N 1070.14 1.51827 0.422667 0
M  V30 11616 C 1071.08 1.70409 1.53275 0
M  V30 11617 C 1072.09 0.584584 1.51942 0
M  V30 11618 O 1073.28 0.859349 1.56453 0
M  V30 11619 C 1070.38 1.717 2.92185 0
M  V30 11620 C 1069.55 3.00472 3.17861 0
M  V30 11621 C 1068.61 2.93755 4.36571 0
M  V30 11622 O 1067.64 3.67682 4.3451 0
M  V30 11623 N 1068.84 2.10612 5.40946 0
M  V30 11624 H 1071.6 2.66176 1.37734 0
M  V30 11625 H 1069.16 1.49895 0.611799 0
M  V30 11626 H 1071.16 1.64756 3.69645 0
M  V30 11627 H 1069.73 0.834655 3.01251 0
M  V30 11628 H 1068.95 3.21171 2.28567 0
M  V30 11629 H 1070.23 3.85684 3.31851 0
M  V30 11630 H 1069.63 1.49954 5.45463 0
M  V30 11631 H 1068.19 2.09535 6.17202 0
M  V30 11632 N 1071.62 -0.679052 1.4222 0
M  V30 11633 C 1072.87 -1.44125 1.42674 0
M  V30 11634 C 1073.2 -1.94156 0.041438 0
M  V30 11635 O 1072.48 -1.70628 -0.93361 0
M  V30 11636 C 1072.76 -2.64133 2.44756 0
M  V30 11637 C 1072.61 -2.19761 3.9246 0
M  V30 11638 C 1073.93 -3.66347 2.43881 0
M  V30 11639 H 1071.05 -0.522729 0.519541 0
M  V30 11640 H 1073.69 -0.772067 1.73606 0
M  V30 11641 H 1071.84 -3.21225 2.1851 0
M  V30 11642 H 1073.51 -1.67869 4.29671 0
M  V30 11643 H 1071.76 -1.51377 4.06531 0
M  V30 11644 H 1072.43 -3.05944 4.59459 0
M  V30 11645 H 1074.9 -3.18963 2.67211 0
M  V30 11646 H 1073.78 -4.47902 3.17293 0
M  V30 11647 H 1074.04 -4.17183 1.46325 0
M  V30 11648 N 1073.1 -1.28322 -0.914942 0
M  V30 11649 C 1074.06 -1.12169 -1.99877 0
M  V30 11650 C 1075.06 -0.0617252 -1.60681 0
M  V30 11651 O 1076.25 -0.307405 -1.71466 0
M  V30 11652 C 1073.39 -0.711959 -3.33383 0
M  V30 11653 H 1074.58 -2.08425 -2.15636 0
M  V30 11654 H 1072.13 -1.11291 -1.09745 0
M  V30 11655 H 1072.87 0.251418 -3.23324 0
M  V30 11656 H 1072.65 -1.47764 -3.63192 0
M  V30 11657 H 1074.14 -0.621558 -4.12948 0
M  V30 11658 N 1074.58 1.12322 -1.10551 0
M  V30 11659 C 1075.83 1.83216 -0.84349 0
M  V30 11660 C 1076.14 1.85075 0.632992 0
M  V30 11661 O 1077.35 2.51976 1.01095 0
M  V30 11662 C 1075.8 3.28994 -1.45915 0
M  V30 11663 C 1075.41 3.3549 -2.96901 0
M  V30 11664 C 1077.15 4.0485 -1.27657 0
M  V30 11665 C 1075.06 4.7561 -3.51496 0
M  V30 11666 H 1073.99 0.686471 -0.311887 0
M  V30 11667 H 1076.64 1.26463 -1.32964 0
M  V30 11668 H 1075.02 3.85621 -0.900678 0
M  V30 11669 H 1076.2 2.88795 -3.59074 0
M  V30 11670 H 1074.51 2.73107 -3.14327 0
M  V30 11671 H 1077.11 5.08316 -1.65889 0
M  V30 11672 H 1077.45 4.15727 -0.218258 0
M  V30 11673 H 1077.99 3.54584 -1.80318 0
M  V30 11674 H 1074.73 4.69927 -4.56999 0
M  V30 11675 H 1074.25 5.22753 -2.94091 0
M  V30 11676 H 1075.92 5.44552 -3.49388 0
M  V30 11677 N 1076.06 0.894434 1.2976 0
M  V30 11678 C 1076.99 0.3847 2.30309 0
M  V30 11679 C 1077.97 -0.537486 1.61385 0
M  V30 11680 O 1079.15 -0.449332 1.8893 0
M  V30 11681 C 1076.28 -0.393311 3.45066 0
M  V30 11682 C 1075.24 0.437968 4.25753 0
M  V30 11683 C 1074.56 -0.467221 5.32655 0
M  V30 11684 C 1075.86 1.6851 4.9437 0
M  V30 11685 H 1077.56 1.22496 2.73194 0
M  V30 11686 H 1075.1 0.590471 1.31337 0
M  V30 11687 H 1077.06 -0.760614 4.14479 0
M  V30 11688 H 1075.78 -1.2673 3.0101 0
M  V30 11689 H 1074.44 0.787533 3.58041 0
M  V30 11690 H 1074.09 -1.33919 4.84845 0
M  V30 11691 H 1073.79 0.0852482 5.87538 0
M  V30 11692 H 1075.31 -0.830833 6.04921 0
M  V30 11693 H 1076.72 1.38784 5.56248 0
M  V30 11694 H 1075.12 2.17849 5.59162 0
M  V30 11695 H 1076.19 2.42412 4.19958 0
M  V30 11696 N 1077.53 -1.43282 0.656365 0
M  V30 11697 C 1078.95 -1.56272 0.324213 0
M  V30 11698 C 1079.15 -1.63946 -1.1715 0
M  V30 11699 O 1078.21 -1.59625 -1.95643 0
M  V30 11700 C 1079.52 -2.82204 1.03833 0
M  V30 11701 C 1081.07 -2.95952 1.01889 0
M  V30 11702 C 1081.54 -4.2472 1.71397 0
M  V30 11703 N 1083.03 -4.31591 1.68176 0
M  V30 11704 C 1083.77 -5.30001 2.1883 0
M  V30 11705 N 1083.26 -6.34671 2.77785 0
M  V30 11706 N 1085.06 -5.21676 2.09311 0
M  V30 11707 H 1077.21 -1.36544 1.62694 0
M  V30 11708 H 1079.47 -0.655999 0.684375 0
M  V30 11709 H 1079.18 -2.82608 2.09346 0
M  V30 11710 H 1079.05 -3.72527 0.591878 0
M  V30 11711 H 1081.44 -2.95087 -0.0278431 0
M  V30 11712 H 1081.52 -2.0691 1.50406 0
M  V30 11713 H 1081.16 -4.26346 2.76028 0
M  V30 11714 H 1081.09 -5.12665 1.20342 0
M  V30 11715 H 1083.58 -3.56573 1.25157 0
M  V30 11716 H 1083.9 -7.06087 3.14104 0
M  V30 11717 H 1082.24 -6.35285 2.81847 0
M  V30 11718 H 1085.43 -4.3882 1.62955 0
M  V30 11719 H 1085.61 -5.9821 2.49095 0
M  V30 11720 N 1079.01 -0.398486 -1.52479 0
M  V30 11721 C 1079.98 0.420206 -2.25315 0
M  V30 11722 C 1080.98 0.982559 -1.27289 0
M  V30 11723 O 1082.17 0.863113 -1.51314 0
M  V30 11724 C 1079.3 1.59045 -3.01525 0
M  V30 11725 H 1080.49 -0.217599 -2.9911 0
M  V30 11726 H 1078.04 -0.150784 -1.55571 0
M  V30 11727 H 1078.78 2.26542 -2.32054 0
M  V30 11728 H 1078.56 1.19382 -3.73484 0
M  V30 11729 H 1080.05 2.16984 -3.56802 0
M  V30 11730 N 1080.49 1.57075 -0.12858 0
M  V30 11731 C 1081.42 2.12907 0.848708 0
M  V30 11732 C 1082.44 1.07406 1.22343 0
M  V30 11733 O 1083.63 1.34746 1.17071 0
M  V30 11734 C 1080.73 2.62167 2.1476 0
M  V30 11735 C 1079.9 3.91871 1.94309 0
M  V30 11736 C 1078.96 4.26629 3.08016 0
M  V30 11737 O 1077.98 4.9528 2.80511 0
M  V30 11738 N 1079.19 3.84721 4.34706 0
M  V30 11739 H 1081.95 2.97387 0.371636 0
M  V30 11740 H 1079.51 1.61805 0.0555574 0
M  V30 11741 H 1081.5 2.82444 2.89841 0
M  V30 11742 H 1080.07 1.82514 2.53786 0
M  V30 11743 H 1079.29 3.80406 1.03367 0
M  V30 11744 H 1080.58 4.76662 1.77962 0
M  V30 11745 H 1079.98 3.2937 4.59926 0
M  V30 11746 H 1078.54 4.10087 5.06628 0
M  V30 11747 N 1081.97 -0.145205 1.5693 0
M  V30 11748 C 1082.92 -1.19841 1.99351 0
M  V30 11749 C 1083.91 -1.44371 0.886197 0
M  V30 11750 O 1085.12 -1.44642 1.07138 0
M  V30 11751 H 1081.49 -0.403437 0.63462 0
M  V30 11752 H 1083.46 -0.813932 2.87085 0
M  V30 11753 C 1082.21 -2.52377 2.39167 0
M  V30 11754 H 1081.54 -2.34332 3.23927 0
M  V30 11755 H 1082.98 -3.24694 2.72671 0
M  V30 11756 C 1081.43 -3.1305 1.24503 0
M  V30 11757 O 1081.96 -3.97962 0.546739 0
M  V30 11758 N 1080.17 -2.72528 1.00882 0
M  V30 11759 H 1079.72 -2.03576 1.57843 0
M  V30 11760 H 1079.68 -3.13456 0.24351 0
M  V30 11761 N 1083.45 -1.52049 -0.414609 0
M  V30 11762 C 1084.38 -1.77956 -1.51175 0
M  V30 11763 C 1085.36 -0.630282 -1.57992 0
M  V30 11764 O 1086.54 -0.875324 -1.73354 0
M  V30 11765 C 1083.67 -1.92527 -2.89051 0
M  V30 11766 C 1082.63 -3.08096 -2.97087 0
M  V30 11767 C 1081.95 -3.07882 -4.37164 0
M  V30 11768 C 1083.25 -4.47656 -2.69075 0
M  V30 11769 H 1084.95 -2.69827 -1.29746 0
M  V30 11770 H 1082.49 -1.29839 -0.62273 0
M  V30 11771 H 1084.45 -2.09234 -3.65786 0
M  V30 11772 H 1083.17 -0.973235 -3.11762 0
M  V30 11773 H 1081.83 -2.91131 -2.22797 0
M  V30 11774 H 1081.48 -2.10411 -4.56877 0
M  V30 11775 H 1081.18 -3.85501 -4.43467 0
M  V30 11776 H 1082.7 -3.26712 -5.15841 0
M  V30 11777 H 1084.12 -4.64855 -3.35534 0
M  V30 11778 H 1082.51 -5.27151 -2.8676 0
M  V30 11779 H 1083.58 -4.56129 -1.64544 0
M  V30 11780 N 1084.93 0.6715 -1.42579 0
M  V30 11781 C 1086.17 1.43154 -1.43224 0
M  V30 11782 C 1086.5 1.94436 -0.0498695 0
M  V30 11783 O 1085.76 1.71521 0.942282 0
M  V30 11784 C 1086.05 2.64256 -2.40632 0
M  V30 11785 C 1085.72 2.31497 -3.86937 0
M  V30 11786 C 1084.38 2.22274 -4.26788 0
M  V30 11787 C 1086.73 2.04957 -4.7921 0
M  V30 11788 C 1084.06 1.84642 -5.56888 0
M  V30 11789 C 1086.41 1.68828 -6.09656 0
M  V30 11790 C 1085.08 1.58118 -6.48502 0
M  V30 11791 H 1084.35 0.523838 -0.524094 0
M  V30 11792 H 1087 0.765363 -1.7554 0
M  V30 11793 H 1085.3 3.35921 -2.01654 0
M  V30 11794 H 1087 3.22443 -2.38394 0
M  V30 11795 H 1083.59 2.39578 -3.55387 0
M  V30 11796 H 1087.77 2.11014 -4.49207 0
M  V30 11797 H 1083.03 1.74921 -5.85843 0
M  V30 11798 H 1087.2 1.47319 -6.8064 0
M  V30 11799 H 1084.83 1.28728 -7.49222 0
M  V30 11800 N 1086.4 1.28806 0.908124 0
M  V30 11801 C 1087.65 1.16287 1.65781 0
M  V30 11802 C 1087.98 -0.287389 1.92365 0
M  V30 11803 O 1087.23 -1.22491 1.52625 0
M  V30 11804 C 1087.53 1.91267 3.01914 0
M  V30 11805 C 1087.2 3.41033 2.9497 0
M  V30 11806 C 1085.86 3.81879 2.92783 0
M  V30 11807 C 1088.21 4.36507 2.848 0
M  V30 11808 C 1085.54 5.16529 2.78235 0
M  V30 11809 C 1087.89 5.71237 2.71792 0
M  V30 11810 C 1086.56 6.11351 2.67967 0
M  V30 11811 H 1085.83 0.425526 0.606637 0
M  V30 11812 H 1088.47 1.59646 1.05762 0
M  V30 11813 H 1086.78 1.40474 3.65752 0
M  V30 11814 H 1088.48 1.78992 3.58835 0
M  V30 11815 H 1085.07 3.08561 2.97469 0
M  V30 11816 H 1089.25 4.05909 2.85573 0
M  V30 11817 H 1084.51 5.4673 2.73672 0
M  V30 11818 H 1088.68 6.44872 2.62892 0
M  V30 11819 H 1086.31 7.15637 2.56451 0
M  V30 11820 N 1087.88 -1.11734 1.11145 0
M  V30 11821 C 1088.81 -2.1976 0.789152 0
M  V30 11822 C 1089.79 -1.68382 -0.241143 0
M  V30 11823 O 1090.98 -1.93914 -0.105292 0
M  V30 11824 C 1088.11 -3.46549 0.228204 0
M  V30 11825 C 1087.06 -4.11123 1.19002 0
M  V30 11826 C 1086.39 -5.32451 0.489928 0
M  V30 11827 C 1087.69 -4.56406 2.53951 0
M  V30 11828 H 1089.38 -2.46978 1.69241 0
M  V30 11829 H 1086.93 -1.18705 0.81517 0
M  V30 11830 H 1088.88 -4.21399 -0.00945908 0
M  V30 11831 H 1087.6 -3.18782 -0.71033 0
M  V30 11832 H 1086.26 -3.38264 1.41326 0
M  V30 11833 H 1085.91 -5.00953 -0.453315 0
M  V30 11834 H 1085.61 -5.76605 1.1314 0
M  V30 11835 H 1087.14 -6.10042 0.260984 0
M  V30 11836 H 1088.55 -5.22592 2.35733 0
M  V30 11837 H 1086.95 -5.11363 3.14051 0
M  V30 11838 H 1088.02 -3.7001 3.13402 0
M  V30 11839 N 1089.36 -0.901303 -1.29284 0
M  V30 11840 C 1090.77 -0.576317 -1.77582 0
M  V30 11841 C 1091.12 0.908078 -1.73921 0
M  V30 11842 O 1090.25 1.71006 -1.32611 0
M  V30 11843 C 1090.84 -1.03938 -3.22463 0
M  V30 11844 C 1089.4 -0.765533 -3.68533 0
M  V30 11845 C 1088.55 -1.21318 -2.49354 0
M  V30 11846 H 1091.5 -1.08386 -1.15923 0
M  V30 11847 H 1091.52 -0.375367 -3.78644 0
M  V30 11848 H 1091.03 -2.11977 -3.25096 0
M  V30 11849 H 1089.13 0.302176 -3.71373 0
M  V30 11850 H 1089.25 -1.36454 -4.59257 0
M  V30 11851 H 1087.61 -0.632141 -2.46731 0
M  V30 11852 H 1088.39 -2.30165 -2.54714 0
M  V30 11853 N 1090.84 1.42931 -0.663954 0
M  V30 11854 C 1092.07 2.05729 -0.189532 0
M  V30 11855 C 1092.48 1.49914 1.15423 0
M  V30 11856 O 1091.82 0.629324 1.72584 0
M  V30 11857 C 1091.88 3.59482 -0.0354748 0
M  V30 11858 C 1091.54 4.37935 -1.30622 0
M  V30 11859 C 1092.54 4.69297 -2.23733 0
M  V30 11860 C 1090.23 4.77761 -1.5508 0
M  V30 11861 C 1092.22 5.39407 -3.39586 0
M  V30 11862 C 1089.91 5.47613 -2.71224 0
M  V30 11863 C 1090.91 5.7836 -3.63302 0
M  V30 11864 O 1090.59 6.46783 -4.77417 0
M  V30 11865 H 1090.33 0.669678 -0.0922342 0
M  V30 11866 H 1092.88 1.84243 -0.907943 0
M  V30 11867 H 1091.11 3.79584 0.738412 0
M  V30 11868 H 1092.8 4.03947 0.397679 0
M  V30 11869 H 1093.56 4.39038 -2.06084 0
M  V30 11870 H 1089.44 4.53229 -0.842863 0
M  V30 11871 H 1092.99 5.63323 -4.11476 0
M  V30 11872 H 1088.88 5.77289 -2.88804 0
M  V30 11873 H 1089.65 6.6527 -4.76821 0
M  V30 11874 N 1092.32 0.406567 1.52266 0
M  V30 11875 C 1093.56 -0.170053 2.01785 0
M  V30 11876 C 1093.89 -1.45361 1.2923 0
M  V30 11877 O 1093.15 -1.91849 0.386342 0
M  V30 11878 C 1093.44 -0.467124 3.54334 0
M  V30 11879 C 1093.11 0.72693 4.45002 0
M  V30 11880 C 1091.77 1.05446 4.69505 0
M  V30 11881 C 1094.12 1.52493 4.98393 0
M  V30 11882 C 1091.45 2.18123 5.44646 0
M  V30 11883 C 1093.8 2.64244 5.74768 0
M  V30 11884 C 1092.47 2.97486 5.97544 0
M  V30 11885 H 1091.74 -0.0622267 0.738383 0
M  V30 11886 H 1094.39 0.54746 1.83508 0
M  V30 11887 H 1092.69 -1.26617 3.70777 0
M  V30 11888 H 1094.39 -0.926194 3.90157 0
M  V30 11889 H 1090.98 0.461666 4.26106 0
M  V30 11890 H 1095.16 1.28512 4.79373 0
M  V30 11891 H 1090.42 2.44228 5.60502 0
M  V30 11892 H 1094.59 3.26468 6.15136 0
M  V30 11893 H 1092.22 3.84913 6.5555 0
M  V30 11894 N 1093.79 -1.57004 0.136909 0
M  V30 11895 C 1095.04 -1.94972 -0.51662 0
M  V30 11896 C 1095.36 -1.02367 -1.66674 0
M  V30 11897 O 1096.56 -1.29873 -2.38423 0
M  V30 11898 C 1095.02 -3.4657 -0.970435 0
M  V30 11899 C 1094.63 -4.47741 0.152204 0
M  V30 11900 C 1096.37 -3.93423 -1.59432 0
M  V30 11901 C 1094.28 -5.90537 -0.319315 0
M  V30 11902 H 1093.21 -0.727873 -0.196766 0
M  V30 11903 H 1095.86 -1.82181 0.219637 0
M  V30 11904 H 1094.24 -3.54657 -1.76165 0
M  V30 11905 H 1095.41 -4.5134 0.928925 0
M  V30 11906 H 1093.73 -4.10746 0.683867 0
M  V30 11907 H 1096.33 -4.97539 -1.95856 0
M  V30 11908 H 1096.67 -3.34404 -2.47951 0
M  V30 11909 H 1097.2 -3.8821 -0.868193 0
M  V30 11910 H 1093.94 -6.53352 0.530248 0
M  V30 11911 H 1093.46 -5.90321 -1.06213 0
M  V30 11912 H 1095.14 -6.42346 -0.774662 0
M  V30 11913 N 1095.27 0.136881 -1.57004 0
M  V30 11914 C 1096.5 0.861186 -1.87796 0
M  V30 11915 C 1096.91 1.74788 -0.724272 0
M  V30 11916 O 1096.25 1.80984 0.31471 0
M  V30 11917 C 1096.32 1.76115 -3.13407 0
M  V30 11918 C 1095.98 1.05059 -4.4476 0
M  V30 11919 C 1096.98 0.399736 -5.18361 0
M  V30 11920 C 1094.66 1.03709 -4.91477 0
M  V30 11921 C 1096.66 -0.255127 -6.36889 0
M  V30 11922 C 1094.34 0.378414 -6.09927 0
M  V30 11923 C 1095.34 -0.266555 -6.8248 0
M  V30 11924 O 1095.03 -0.914757 -7.98679 0
M  V30 11925 H 1094.76 0.253855 -0.626525 0
M  V30 11926 H 1097.31 0.131291 -2.0498 0
M  V30 11927 H 1095.54 2.53224 -2.92257 0
M  V30 11928 H 1097.23 2.3583 -3.30362 0
M  V30 11929 H 1098 0.401909 -4.83332 0
M  V30 11930 H 1093.88 1.52852 -4.34922 0
M  V30 11931 H 1097.42 -0.759135 -6.93457 0
M  V30 11932 H 1093.32 0.373942 -6.44416 0
M  V30 11933 H 1094.09 -0.817437 -8.14408 0
M  V30 11934 N 1096.75 1.52266 0.40654 0
M  V30 11935 C 1097.98 1.70598 1.17945 0
M  V30 11936 C 1098.4 0.415793 1.83447 0
M  V30 11937 O 1097.76 -0.626968 1.70114 0
M  V30 11938 C 1097.81 2.84449 2.21633 0
M  V30 11939 O 1096.91 2.50199 3.27833 0
M  V30 11940 H 1096.25 0.567837 0.344177 0
M  V30 11941 H 1098.78 1.98981 0.476211 0
M  V30 11942 H 1098.79 3.09436 2.65919 0
M  V30 11943 H 1097.47 3.78055 1.73341 0
M  V30 11944 H 1096.04 2.35892 2.88807 0
M  V30 11945 N 1098.23 -0.663929 1.42933 0
M  V30 11946 C 1099.47 -1.43583 1.45476 0
M  V30 11947 C 1099.83 -1.91862 0.0728387 0
M  V30 11948 O 1101.03 -2.68786 -0.0270249 0
M  V30 11949 C 1099.3 -2.59316 2.45947 0
M  V30 11950 S 1100.86 -3.48004 2.6728 0
M  V30 11951 H 1097.68 -0.490261 0.514942 0
M  V30 11952 H 1100.28 -0.771834 1.79619 0
M  V30 11953 H 1098.99 -2.22104 3.45106 0
M  V30 11954 H 1098.52 -3.30577 2.13266 0
M  V30 11955 H 1100.53 -4.55677 1.96399 0
M  V30 11956 N 1099.71 -1.29285 -0.901281 0
M  V30 11957 C 1100.96 -1.16538 -1.64626 0
M  V30 11958 C 1101.27 0.282623 -1.93547 0
M  V30 11959 O 1102.47 0.531396 -2.66249 0
M  V30 11960 C 1100.93 -2.03809 -2.96631 0
M  V30 11961 C 1100.54 -3.53423 -2.75311 0
M  V30 11962 C 1102.28 -1.99782 -3.7455 0
M  V30 11963 C 1100.19 -4.32804 -4.03032 0
M  V30 11964 H 1099.12 -0.432561 -0.617581 0
M  V30 11965 H 1101.77 -1.53912 -0.999159 0
M  V30 11966 H 1100.15 -1.59302 -3.62545 0
M  V30 11967 H 1101.33 -4.05971 -2.18 0
M  V30 11968 H 1099.64 -3.59106 -2.10789 0
M  V30 11969 H 1102.24 -2.5635 -4.69243 0
M  V30 11970 H 1102.58 -0.97743 -4.04663 0
M  V30 11971 H 1103.11 -2.42324 -3.15474 0
M  V30 11972 H 1099.85 -5.35473 -3.78086 0
M  V30 11973 H 1099.37 -3.85025 -4.59909 0
M  V30 11974 H 1101.05 -4.43383 -4.71191 0
M  V30 11975 N 1101.18 1.11143 -1.11736 0
M  V30 11976 C 1102.11 2.19339 -0.800795 0
M  V30 11977 C 1103.1 1.68508 0.23221 0
M  V30 11978 O 1104.28 1.93967 0.0950063 0
M  V30 11979 C 1101.41 3.46424 -0.246579 0
M  V30 11980 C 1100.36 4.10487 -1.21181 0
M  V30 11981 C 1099.69 5.32183 -0.518158 0
M  V30 11982 C 1100.99 4.55052 -2.56368 0
M  V30 11983 H 1102.68 2.46077 -1.70548 0
M  V30 11984 H 1100.23 1.18271 -0.821454 0
M  V30 11985 H 1102.18 4.21398 -0.0128889 0
M  V30 11986 H 1100.91 3.19154 0.693415 0
M  V30 11987 H 1099.57 3.3751 -1.43118 0
M  V30 11988 H 1099.21 5.01187 0.426742 0
M  V30 11989 H 1098.91 5.75997 -1.16196 0
M  V30 11990 H 1100.44 6.09895 -0.293333 0
M  V30 11991 H 1101.85 5.21335 -2.38501 0
M  V30 11992 H 1100.25 5.0969 -3.16758 0
M  V30 11993 H 1101.32 3.68343 -3.1536 0
M  V30 11994 N 1102.66 0.908147 1.28804 0
M  V30 11995 C 1103.91 0.53734 1.94826 0
M  V30 11996 C 1104.23 -0.920962 1.71882 0
M  V30 11997 O 1103.5 -1.65043 1.05534 0
M  V30 11998 H 1102.08 0.195729 0.720902 0
M  V30 11999 H 1104.74 1.15628 1.56895 0
M  V30 12000 H 1103.84 0.727052 3.03513 0
M  V30 12001 N 1104.14 -1.42577 0.671525 0
M  V30 12002 C 1105.07 -2.33499 0.00506984 0
M  V30 12003 C 1106.05 -1.50497 -0.792763 0
M  V30 12004 O 1107.24 -1.79109 -0.750574 0
M  V30 12005 C 1104.37 -3.34077 -0.949194 0
M  V30 12006 C 1103.32 -4.27208 -0.260187 0
M  V30 12007 C 1102.65 -5.17968 -1.32716 0
M  V30 12008 C 1103.95 -5.15192 0.858772 0
M  V30 12009 H 1105.64 -2.89477 0.764407 0
M  V30 12010 H 1103.19 -1.39191 0.369043 0
M  V30 12011 H 1105.14 -3.96594 -1.42448 0
M  V30 12012 H 1103.86 -2.76396 -1.73991 0
M  V30 12013 H 1102.52 -3.66082 0.194834 0
M  V30 12014 H 1102.17 -4.56615 -2.10979 0
M  V30 12015 H 1101.87 -5.81104 -0.871293 0
M  V30 12016 H 1103.39 -5.83359 -1.80345 0
M  V30 12017 H 1104.81 -5.71412 0.464844 0
M  V30 12018 H 1103.21 -5.87144 1.24023 0
M  V30 12019 H 1104.28 -4.53787 1.70895 0
M  V30 12020 N 1105.62 -0.414636 -1.52048 0
M  V30 12021 C 1106.87 0.16073 -2.01059 0
M  V30 12022 C 1107.18 1.45753 -1.30443 0
M  V30 12023 O 1108.39 2.11448 -1.703 0
M  V30 12024 C 1106.84 0.336993 -3.58319 0
M  V30 12025 C 1106.45 -0.948037 -4.37854 0
M  V30 12026 C 1108.19 0.867353 -4.15545 0
M  V30 12027 C 1106.1 -0.738662 -5.86769 0
M  V30 12028 H 1105.03 0.0638419 -0.751292 0
M  V30 12029 H 1107.68 -0.540925 -1.75346 0
M  V30 12030 H 1106.06 1.10111 -3.80383 0
M  V30 12031 H 1107.24 -1.71873 -4.27547 0
M  V30 12032 H 1105.55 -1.40522 -3.91972 0
M  V30 12033 H 1108.15 1.04012 -5.24486 0
M  V30 12034 H 1108.49 1.84358 -3.73253 0
M  V30 12035 H 1109.03 0.162148 -3.97469 0
M  V30 12036 H 1105.77 -1.6866 -6.3343 0
M  V30 12037 H 1105.29 -0.00736294 -5.998 0
M  V30 12038 H 1106.96 -0.382978 -6.45866 0
M  V30 12039 N 1107.1 1.56929 -0.145233 0
M  V30 12040 C 1108.32 2.00864 0.516564 0
M  V30 12041 C 1108.75 1.02466 1.57741 0
M  V30 12042 O 1108.1 0.000145439 1.813 0
M  V30 12043 C 1108.15 3.43552 1.09563 0
M  V30 12044 O 1107.26 3.4815 2.21055 0
M  V30 12045 H 1106.6 0.651835 0.126521 0
M  V30 12046 H 1109.13 2.0317 -0.241445 0
M  V30 12047 H 1109.14 3.82316 1.42473 0
M  V30 12048 H 1107.81 4.14677 0.318749 0
M  V30 12049 H 1106.39 3.21228 1.89387 0
M  V30 12050 N 1108.58 -0.128553 1.57075 0
M  V30 12051 C 1109.82 -0.844012 1.86161 0
M  V30 12052 C 1110.18 -1.77499 0.73198 0
M  V30 12053 O 1111.38 -2.5313 0.904357 0
M  V30 12054 C 1109.65 -1.58238 3.20462 0
M  V30 12055 S 1111.21 -2.34073 3.71154 0
M  V30 12056 H 1108.03 -0.281884 0.652734 0
M  V30 12057 H 1110.63 -0.102902 1.95229 0
M  V30 12058 H 1109.33 -0.890246 4.00628 0
M  V30 12059 H 1108.87 -2.36404 3.14446 0
M  V30 12060 H 1110.88 -3.59617 3.41892 0
M  V30 12061 N 1110.05 -1.5248 -0.398459 0
M  V30 12062 C 1111.28 -1.71221 -1.17039 0
M  V30 12063 C 1111.7 -0.425515 -1.83224 0
M  V30 12064 O 1111.06 0.617938 -1.70444 0
M  V30 12065 C 1111.11 -2.8562 -2.20121 0
M  V30 12066 O 1110.21 -2.51934 -3.26501 0
M  V30 12067 H 1109.55 -0.569654 -0.34116 0
M  V30 12068 H 1112.08 -1.99231 -0.465652 0
M  V30 12069 H 1112.09 -3.10842 -2.64275 0
M  V30 12070 H 1110.77 -3.78969 -1.71334 0
M  V30 12071 H 1109.35 -2.3742 -2.87552 0
M  V30 12072 N 1111.53 0.65634 -1.43283 0
M  V30 12073 C 1112.78 1.41837 -1.44949 0
M  V30 12074 C 1113.11 1.94065 -0.0723212 0
M  V30 12075 O 1112.39 1.72092 0.906346 0
M  V30 12076 C 1112.67 2.60206 -2.48927 0
M  V30 12077 C 1112.52 2.1349 -3.95907 0
M  V30 12078 C 1113.84 3.62421 -2.49678 0
M  V30 12079 H 1110.96 0.514398 -0.527792 0
M  V30 12080 H 1113.6 0.74435 -1.74813 0
M  V30 12081 H 1111.75 3.17708 -2.23592 0
M  V30 12082 H 1113.42 1.61012 -4.32288 0
M  V30 12083 H 1111.67 1.4489 -4.08888 0
M  V30 12084 H 1112.34 2.98596 -4.64268 0
M  V30 12085 H 1114.81 3.14671 -2.72252 0
M  V30 12086 H 1113.69 4.42798 -3.24378 0
M  V30 12087 H 1113.95 4.14802 -1.52944 0
M  V30 12088 N 1113.01 1.29761 0.894412 0
M  V30 12089 C 1114.26 1.18039 1.64539 0
M  V30 12090 C 1114.58 -0.26697 1.92659 0
M  V30 12091 O 1113.84 -1.20865 1.53916 0
M  V30 12092 C 1114.14 1.94458 2.99868 0
M  V30 12093 C 1113.8 3.44143 2.91336 0
M  V30 12094 C 1112.47 3.84963 2.88716 0
M  V30 12095 C 1114.82 4.39503 2.80154 0
M  V30 12096 C 1112.15 5.19451 2.72741 0
M  V30 12097 C 1114.5 5.74088 2.65718 0
M  V30 12098 C 1113.16 6.14159 2.61467 0
M  V30 12099 H 1112.43 0.431936 0.60209 0
M  V30 12100 H 1115.08 1.60758 1.04063 0
M  V30 12101 H 1113.38 1.44346 3.64241 0
M  V30 12102 H 1115.08 1.82788 3.56917 0
M  V30 12103 H 1111.67 3.11699 2.9418 0
M  V30 12104 H 1115.86 4.08915 2.81251 0
M  V30 12105 H 1111.11 5.49602 2.67858 0
M  V30 12106 H 1115.29 6.47625 2.56038 0
M  V30 12107 H 1112.91 7.18317 2.48847 0
M  V30 12108 N 1114.49 -1.10549 1.12324 0
M  V30 12109 C 1115.42 -2.18911 0.812416 0
M  V30 12110 C 1116.4 -1.68628 -0.22327 0
M  V30 12111 O 1117.58 -1.94015 -0.0847184 0
M  V30 12112 C 1114.71 -3.46288 0.264947 0
M  V30 12113 C 1113.67 -4.09838 1.23356 0
M  V30 12114 C 1112.99 -5.31901 0.546374 0
M  V30 12115 C 1114.29 -4.53686 2.58778 0
M  V30 12116 H 1115.99 -2.45169 1.71851 0
M  V30 12117 H 1113.53 -1.17834 0.827715 0
M  V30 12118 H 1115.49 -4.21385 0.0352364 0
M  V30 12119 H 1114.21 -3.19517 -0.676479 0
M  V30 12120 H 1112.87 -3.36746 1.44906 0
M  V30 12121 H 1112.52 -5.01406 -0.400157 0
M  V30 12122 H 1112.22 -5.75372 1.19249 0
M  V30 12123 H 1113.74 -6.09731 0.325673 0
M  V30 12124 H 1115.16 -5.20063 2.41263 0
M  V30 12125 H 1113.55 -5.08003 3.19457 0
M  V30 12126 H 1114.62 -3.66665 3.17309 0
M  V30 12127 N 1115.97 -0.914965 -1.28321 0
M  V30 12128 C 1117.38 -0.613297 -1.47346 0
M  V30 12129 C 1117.58 0.84106 -1.83108 0
M  V30 12130 O 1116.64 1.62004 -1.93678 0
M  V30 12131 C 1117.95 -1.55224 -2.57538 0
M  V30 12132 C 1119.5 -1.55909 -2.71407 0
M  V30 12133 C 1119.97 -2.48468 -3.84744 0
M  V30 12134 N 1121.46 -2.46602 -3.92099 0
M  V30 12135 C 1122.2 -3.14917 -4.79182 0
M  V30 12136 N 1121.7 -3.92566 -5.70845 0
M  V30 12137 N 1123.49 -3.03998 -4.72802 0
M  V30 12138 H 1115.64 -1.85539 -1.03388 0
M  V30 12139 H 1117.9 -0.795875 -0.515061 0
M  V30 12140 H 1117.61 -2.58917 -2.38023 0
M  V30 12141 H 1117.48 -1.28426 -3.54664 0
M  V30 12142 H 1119.87 -0.52953 -2.9031 0
M  V30 12143 H 1119.95 -1.86751 -1.74808 0
M  V30 12144 H 1119.59 -3.51526 -3.66595 0
M  V30 12145 H 1119.52 -2.14928 -4.80743 0
M  V30 12146 H 1122.02 -1.90199 -3.26547 0
M  V30 12147 H 1122.33 -4.41709 -6.34123 0
M  V30 12148 H 1120.67 -3.96671 -5.70681 0
M  V30 12149 H 1123.86 -2.42839 -4.00184 0
M  V30 12150 H 1124.04 -3.57511 -5.40454 0
M  V30 12151 N 1117.44 1.42219 -0.679077 0
M  V30 12152 C 1118.69 2.01777 -0.20342 0
M  V30 12153 C 1119.02 1.53592 1.18841 0
M  V30 12154 O 1118.3 0.739954 1.79875 0
M  V30 12155 C 1118.58 3.59281 -0.242791 0
M  V30 12156 C 1118.43 4.17634 -1.67038 0
M  V30 12157 C 1119.75 4.38218 0.406624 0
M  V30 12158 H 1116.87 0.733134 -0.0753916 0
M  V30 12159 H 1119.51 1.69185 -0.864673 0
M  V30 12160 H 1117.66 3.87178 0.320248 0
M  V30 12161 H 1119.34 4.00674 -2.286 0
M  V30 12162 H 1117.58 3.73301 -2.20973 0
M  V30 12163 H 1118.25 5.26776 -1.64958 0
M  V30 12164 H 1120.73 4.16036 -0.0727077 0
M  V30 12165 H 1119.6 5.47793 0.348457 0
M  V30 12166 H 1119.86 4.16418 1.48487 0
M  V30 12167 N 1118.92 0.422693 1.51826 0
M  V30 12168 C 1119.87 -0.41063 2.28947 0
M  V30 12169 C 1120.86 -1.03389 1.34191 0
M  V30 12170 O 1122.07 -0.970533 1.51594 0
M  V30 12171 H 1118.44 -0.151219 0.736639 0
M  V30 12172 H 1120.42 0.260859 2.97258 0
M  V30 12173 C 1119.16 -1.50758 3.13317 0
M  V30 12174 H 1118.49 -1.03734 3.86108 0
M  V30 12175 H 1119.93 -2.0642 3.7036 0
M  V30 12176 C 1118.39 -2.48261 2.27746 0
M  V30 12177 O 1118.92 -3.52462 1.92701 0
M  V30 12178 N 1117.12 -2.18795 1.91251 0
M  V30 12179 H 1116.67 -1.34088 2.1995 0
M  V30 12180 H 1116.63 -2.84276 1.34293 0
M  V30 12181 N 1120.4 -1.5685 0.153553 0
M  V30 12182 C 1121.63 -2.0041 -0.501949 0
M  V30 12183 C 1122.04 -1.03272 -1.58529 0
M  V30 12184 O 1121.38 -0.0227479 -1.83686 0
M  V30 12185 C 1121.44 -3.40402 -1.15613 0
M  V30 12186 C 1121.11 -4.56486 -0.216596 0
M  V30 12187 C 1122.1 -5.16894 0.558267 0
M  V30 12188 C 1119.79 -5.02162 -0.117592 0
M  V30 12189 C 1121.78 -6.21392 1.41951 0
M  V30 12190 C 1119.47 -6.06514 0.747255 0
M  V30 12191 C 1120.47 -6.65999 1.51441 0
M  V30 12192 O 1120.16 -7.6833 2.36483 0
M  V30 12193 H 1119.89 -0.66247 -0.134574 0
M  V30 12194 H 1122.44 -2.03908 0.247086 0
M  V30 12195 H 1120.67 -3.33762 -1.95294 0
M  V30 12196 H 1122.36 -3.68028 -1.71202 0
M  V30 12197 H 1123.13 -4.825 0.491851 0
M  V30 12198 H 1119.01 -4.55586 -0.704462 0
M  V30 12199 H 1122.55 -6.67751 2.01877 0
M  V30 12200 H 1118.45 -6.40335 0.81494 0
M  V30 12201 H 1119.21 -7.85578 2.29803 0
M  V30 12202 N 1121.88 0.120221 -1.57141 0
M  V30 12203 C 1122.79 1.16641 -2.03549 0
M  V30 12204 C 1123.8 1.45407 -0.955656 0
M  V30 12205 O 1124.98 1.56547 -1.26708 0
M  V30 12206 C 1122.04 2.4734 -2.42948 0
M  V30 12207 C 1121.11 2.25982 -3.65008 0
M  V30 12208 C 1120.34 3.50449 -4.02518 0
M  V30 12209 O 1120.56 4.57706 -3.40384 0
M  V30 12210 O 1119.5 3.41524 -4.95626 0
M  V30 12211 H 1123.32 0.802323 -2.9291 0
M  V30 12212 H 1120.91 0.330927 -1.45689 0
M  V30 12213 H 1122.79 3.24348 -2.69029 0
M  V30 12214 H 1121.46 2.83225 -1.56733 0
M  V30 12215 H 1120.37 1.46837 -3.44078 0
M  V30 12216 H 1121.7 1.95002 -4.51924 0
M  V30 12217 N 1123.36 1.52689 0.390367 0
M  V30 12218 C 1124.29 1.80338 1.48325 0
M  V30 12219 C 1125.27 0.655338 1.56969 0
M  V30 12220 O 1126.45 0.902792 1.7194 0
M  V30 12221 C 1123.58 1.97101 2.85952 0
M  V30 12222 C 1122.54 3.12783 2.92148 0
M  V30 12223 C 1121.86 3.14798 4.32211 0
M  V30 12224 C 1123.16 4.5188 2.61919 0
M  V30 12225 H 1124.86 2.71857 1.25437 0
M  V30 12226 H 1122.4 1.30813 0.601995 0
M  V30 12227 H 1124.36 2.15027 3.62411 0
M  V30 12228 H 1123.08 1.02271 3.10174 0
M  V30 12229 H 1121.74 2.94638 2.18137 0
M  V30 12230 H 1121.39 2.17653 4.53471 0
M  V30 12231 H 1121.09 3.92507 4.37278 0
M  V30 12232 H 1122.61 3.34877 5.10578 0
M  V30 12233 H 1124.02 4.70134 3.28096 0
M  V30 12234 H 1122.42 5.31647 2.78337 0
M  V30 12235 H 1123.49 4.58689 1.57266 0
M  V30 12236 N 1124.83 -0.648732 1.43629 0
M  V30 12237 C 1125.78 -1.76145 1.49136 0
M  V30 12238 C 1126.75 -1.62569 0.340649 0
M  V30 12239 O 1127.94 -1.82748 0.548435 0
M  V30 12240 C 1125.08 -3.14321 1.42466 0
M  V30 12241 C 1124.19 -3.38999 2.67776 0
M  V30 12242 C 1123.32 -4.67047 2.53062 0
M  V30 12243 C 1122.36 -4.84845 3.7362 0
M  V30 12244 N 1121.5 -6.04155 3.57689 0
M  V30 12245 H 1126.34 -1.70774 2.44213 0
M  V30 12246 H 1123.88 -0.833311 1.2122 0
M  V30 12247 H 1125.84 -3.94206 1.36592 0
M  V30 12248 H 1124.47 -3.18751 0.509666 0
M  V30 12249 H 1123.52 -2.53179 2.83909 0
M  V30 12250 H 1124.83 -3.48035 3.57314 0
M  V30 12251 H 1123.98 -5.55066 2.44922 0
M  V30 12252 H 1122.72 -4.60339 1.61056 0
M  V30 12253 H 1121.73 -3.95261 3.82163 0
M  V30 12254 H 1122.95 -4.9338 4.6664 0
M  V30 12255 H 1120.9 -5.9857 2.6842 0
M  V30 12256 H 1120.82 -6.14169 4.40832 0
M  V30 12257 H 1122.08 -6.94782 3.53409 0
M  V30 12258 N 1126.31 -1.30234 -0.887518 0
M  V30 12259 C 1127.25 -1.10726 -1.99537 0
M  V30 12260 C 1128.22 -0.0156237 -1.62592 0
M  V30 12261 O 1129.41 -0.168687 -1.87744 0
M  V30 12262 C 1126.53 -0.688185 -3.31635 0
M  V30 12263 C 1125.58 -1.78031 -3.87566 0
M  V30 12264 S 1126.41 -3.38219 -4.15172 0
M  V30 12265 C 1127.57 -2.98208 -5.50293 0
M  V30 12266 H 1127.8 -2.04516 -2.15778 0
M  V30 12267 H 1125.34 -1.14519 -1.0356 0
M  V30 12268 H 1127.29 -0.453124 -4.07991 0
M  V30 12269 H 1125.95 0.230315 -3.13254 0
M  V30 12270 H 1125.15 -1.43931 -4.83011 0
M  V30 12271 H 1124.75 -1.96952 -3.1794 0
M  V30 12272 H 1127.04 -2.4601 -6.31257 0
M  V30 12273 H 1127.98 -3.92551 -5.89329 0
M  V30 12274 H 1128.39 -2.36149 -5.12732 0
M  V30 12275 N 1127.79 1.09952 -1.12909 0
M  V30 12276 C 1128.72 2.18477 -0.824014 0
M  V30 12277 C 1129.7 1.68744 0.214324 0
M  V30 12278 O 1130.89 1.94057 0.0744281 0
M  V30 12279 C 1128.02 3.46143 -0.283308 0
M  V30 12280 C 1126.97 4.09178 -1.25528 0
M  V30 12281 C 1126.3 5.31604 -0.574574 0
M  V30 12282 C 1127.6 4.52308 -2.6118 0
M  V30 12283 H 1129.29 2.44254 -1.73148 0
M  V30 12284 H 1126.84 1.17394 -0.833952 0
M  V30 12285 H 1128.79 4.21361 -0.057583 0
M  V30 12286 H 1127.51 3.19872 0.659525 0
M  V30 12287 H 1126.17 3.35973 -1.4669 0
M  V30 12288 H 1125.82 5.01611 0.37356 0
M  V30 12289 H 1125.52 5.74732 -1.22299 0
M  V30 12290 H 1127.04 6.0955 -0.358004 0
M  V30 12291 H 1128.46 5.18776 -2.44017 0
M  V30 12292 H 1126.86 5.06302 -3.22147 0
M  V30 12293 H 1127.93 3.64977 -3.19249 0
M  V30 12294 N 1129.27 0.921757 1.27833 0
M  V30 12295 C 1130.52 0.55493 1.93916 0
M  V30 12296 C 1130.83 -0.907191 1.7329 0
M  V30 12297 O 1132.04 -1.38253 2.33663 0
M  V30 12298 C 1130.49 0.941644 3.47363 0
M  V30 12299 C 1130.1 2.42404 3.76755 0
M  V30 12300 C 1131.84 0.645785 4.19559 0
M  V30 12301 C 1129.75 2.75046 5.23549 0
M  V30 12302 H 1128.68 0.203818 0.72593 0
M  V30 12303 H 1131.33 1.12176 1.4522 0
M  V30 12304 H 1129.71 0.303519 3.94835 0
M  V30 12305 H 1130.89 3.10957 3.40062 0
M  V30 12306 H 1129.2 2.69118 3.17749 0
M  V30 12307 H 1131.8 0.866237 5.27637 0
M  V30 12308 H 1132.14 -0.41676 4.14209 0
M  V30 12309 H 1132.68 1.24274 3.7789 0
M  V30 12310 H 1129.42 3.80186 5.33984 0
M  V30 12311 H 1128.94 2.11138 5.6141 0
M  V30 12312 H 1130.61 2.62474 5.91368 0
M  V30 12313 N 1130.75 -1.41857 0.686609 0
M  V30 12314 C 1131.68 -2.28174 -0.0347358 0
M  V30 12315 C 1132.66 -1.41732 -0.796928 0
M  V30 12316 O 1133.84 -1.71165 -0.789607 0
M  V30 12317 C 1130.97 -3.21801 -1.0565 0
M  V30 12318 C 1130.01 -4.24727 -0.388523 0
M  V30 12319 S 1130.85 -5.28508 0.862546 0
M  V30 12320 C 1132 -6.25701 -0.157849 0
M  V30 12321 H 1132.24 -2.89005 0.697381 0
M  V30 12322 H 1129.77 -1.46861 0.476562 0
M  V30 12323 H 1131.73 -3.76278 -1.64089 0
M  V30 12324 H 1130.39 -2.60082 -1.76114 0
M  V30 12325 H 1129.58 -4.90471 -1.15991 0
M  V30 12326 H 1129.18 -3.73799 0.122567 0
M  V30 12327 H 1131.48 -6.6987 -1.01393 0
M  V30 12328 H 1132.42 -7.06569 0.465437 0
M  V30 12329 H 1132.83 -5.62204 -0.508614 0
M  V30 12330 N 1132.22 -0.430739 -1.51599 0
M  V30 12331 C 1133.16 0.429107 -2.24129 0
M  V30 12332 C 1134.14 1.03019 -1.25801 0
M  V30 12333 O 1135.32 1.07392 -1.54917 0
M  V30 12334 C 1132.45 1.59749 -2.9866 0
M  V30 12335 C 1131.49 1.11773 -4.11593 0
M  V30 12336 S 1132.33 0.0651468 -5.3546 0
M  V30 12337 C 1133.48 1.23835 -6.13527 0
M  V30 12338 H 1133.71 -0.186683 -2.96713 0
M  V30 12339 H 1131.25 -0.215201 -1.52893 0
M  V30 12340 H 1133.21 2.26735 -3.42201 0
M  V30 12341 H 1131.87 2.18468 -2.25678 0
M  V30 12342 H 1131.06 1.99125 -4.62996 0
M  V30 12343 H 1130.66 0.526209 -3.7028 0
M  V30 12344 H 1132.95 2.15796 -6.42214 0
M  V30 12345 H 1133.9 0.76443 -7.03962 0
M  V30 12346 H 1134.3 1.47393 -5.44918 0
M  V30 12347 N 1133.7 1.56767 -0.161869 0
M  V30 12348 C 1134.95 1.96885 0.486215 0
M  V30 12349 C 1135.28 1.04745 1.6353 0
M  V30 12350 O 1134.56 0.0927156 1.94279 0
M  V30 12351 C 1134.84 3.46559 0.97822 0
M  V30 12352 C 1134.69 4.49477 -0.17039 0
M  V30 12353 C 1136.01 3.99093 1.85506 0
M  V30 12354 H 1133.13 0.715857 0.175265 0
M  V30 12355 H 1135.77 1.88399 -0.246098 0
M  V30 12356 H 1133.92 3.53921 1.60225 0
M  V30 12357 H 1135.59 4.54183 -0.807205 0
M  V30 12358 H 1133.84 4.25838 -0.827322 0
M  V30 12359 H 1134.51 5.51578 0.21583 0
M  V30 12360 H 1136.98 3.94303 1.32908 0
M  V30 12361 H 1135.86 5.04255 2.16837 0
M  V30 12362 H 1136.12 3.4234 2.79742 0
M  V30 12363 N 1135.18 -0.111886 1.57202 0
M  V30 12364 C 1136.14 -1.12101 1.99915 0
M  V30 12365 C 1137.14 -1.33906 0.890272 0
M  V30 12366 O 1138.33 -1.30303 1.15615 0
M  V30 12367 C 1135.47 -2.47392 2.34543 0
M  V30 12368 H 1136.66 -0.753736 2.90274 0
M  V30 12369 H 1134.21 -0.35641 1.52182 0
M  V30 12370 H 1134.95 -2.89026 1.47086 0
M  V30 12371 H 1134.73 -2.32917 3.15423 0
M  V30 12372 H 1136.22 -3.20004 2.68304 0
M  V30 12373 N 1136.66 -1.52894 -0.382264 0
M  V30 12374 C 1137.59 -1.81122 -1.47367 0
M  V30 12375 C 1138.57 -0.663653 -1.56619 0
M  V30 12376 O 1139.75 -0.911898 -1.71459 0
M  V30 12377 C 1136.88 -1.98615 -2.84902 0
M  V30 12378 C 1135.84 -3.14328 -2.90485 0
M  V30 12379 C 1135.16 -3.17086 -4.30535 0
M  V30 12380 C 1136.46 -4.53263 -2.59519 0
M  V30 12381 H 1138.16 -2.72518 -1.23993 0
M  V30 12382 H 1135.7 -1.3113 -0.595049 0
M  V30 12383 H 1137.66 -2.16946 -3.61265 0
M  V30 12384 H 1136.38 -1.03915 -3.09628 0
M  V30 12385 H 1135.04 -2.95791 -2.16572 0
M  V30 12386 H 1134.69 -2.20055 -4.52311 0
M  V30 12387 H 1134.39 -3.94821 -4.3519 0
M  V30 12388 H 1135.91 -3.3758 -5.08795 0
M  V30 12389 H 1137.33 -4.71867 -3.25598 0
M  V30 12390 H 1135.72 -5.33115 -2.75514 0
M  V30 12391 H 1136.79 -4.59516 -1.54831 0
M  V30 12392 N 1138.14 0.641106 -1.43971 0
M  V30 12393 C 1139.38 1.40291 -1.46445 0
M  V30 12394 C 1139.72 1.93978 -0.0929004 0
M  V30 12395 O 1138.99 1.73043 0.888043 0
M  V30 12396 C 1139.27 2.57551 -2.51673 0
M  V30 12397 C 1139.13 2.09279 -3.98149 0
M  V30 12398 C 1140.45 3.59752 -2.53508 0
M  V30 12399 H 1137.57 0.508771 -0.533218 0
M  V30 12400 H 1140.21 0.725767 -1.75592 0
M  V30 12401 H 1138.36 3.15319 -2.2695 0
M  V30 12402 H 1140.03 1.56418 -4.33971 0
M  V30 12403 H 1138.27 1.40545 -4.10402 0
M  V30 12404 H 1138.94 2.93655 -4.67409 0
M  V30 12405 H 1141.42 3.11766 -2.75574 0
M  V30 12406 H 1140.3 4.39332 -3.29057 0
M  V30 12407 H 1140.56 4.13156 -1.57335 0
M  V30 12408 N 1139.62 1.30703 0.880598 0
M  V30 12409 C 1140.86 1.19541 1.62955 0
M  V30 12410 C 1141.18 -0.249089 1.93403 0
M  V30 12411 O 1140.45 -1.1669 1.57354 0
M  V30 12412 H 1139.03 0.439434 0.604075 0
M  V30 12413 H 1141.7 1.63888 1.05483 0
M  V30 12414 H 1140.79 1.75945 2.57779 0
M  V30 12415 N 1141.09 -1.09351 1.1349 0
M  V30 12416 C 1142.32 -1.85036 0.918989 0
M  V30 12417 C 1142.73 -1.8146 -0.535638 0
M  V30 12418 O 1142.07 -1.20958 -1.38256 0
M  V30 12419 C 1142.14 -3.33992 1.33001 0
M  V30 12420 C 1141.8 -3.61315 2.79822 0
M  V30 12421 C 1142.8 -3.56973 3.77976 0
M  V30 12422 C 1140.48 -3.89636 3.17001 0
M  V30 12423 C 1142.48 -3.80564 5.11321 0
M  V30 12424 C 1140.16 -4.12882 4.50524 0
M  V30 12425 C 1141.16 -4.08338 5.47494 0
M  V30 12426 O 1140.85 -4.30983 6.78608 0
M  V30 12427 H 1140.58 -0.591301 0.327627 0
M  V30 12428 H 1143.14 -1.39078 1.5115 0
M  V30 12429 H 1141.37 -3.8066 0.68077 0
M  V30 12430 H 1143.05 -3.9109 1.08645 0
M  V30 12431 H 1143.82 -3.3512 3.50599 0
M  V30 12432 H 1139.7 -3.92297 2.42124 0
M  V30 12433 H 1143.24 -3.76933 5.86998 0
M  V30 12434 H 1139.14 -4.34216 4.77626 0
M  V30 12435 H 1139.91 -4.4844 6.84722 0
M  V30 12436 N 1142.57 -0.928524 -1.27343 0
M  V30 12437 C 1143.52 -0.418768 -2.28799 0
M  V30 12438 C 1144.51 0.497334 -1.61935 0
M  V30 12439 O 1145.72 0.376945 -1.76009 0
M  V30 12440 H 1142.09 -0.116855 -0.742865 0
M  V30 12441 H 1144.07 -1.28725 -2.69207 0
M  V30 12442 C 1142.81 0.312422 -3.46294 0
M  V30 12443 H 1142.14 -0.383317 -3.97958 0
M  V30 12444 H 1143.58 0.633514 -4.19241 0
M  V30 12445 C 1142.04 1.5257 -3.00373 0
M  V30 12446 O 1142.57 2.62443 -3.04116 0
M  V30 12447 N 1140.77 1.37782 -2.5586 0
M  V30 12448 H 1140.32 0.483908 -2.53014 0
M  V30 12449 H 1140.28 2.19085 -2.25498 0
M  V30 12450 N 1144.05 1.41491 -0.694123 0
M  V30 12451 C 1145.28 2.05579 -0.233466 0
M  V30 12452 C 1145.69 1.5223 1.11675 0
M  V30 12453 O 1145.05 0.669937 1.69759 0
M  V30 12454 C 1145.1 3.61047 -0.180967 0
M  V30 12455 O 1144.82 4.12421 -1.47785 0
M  V30 12456 C 1146.32 4.42278 0.300853 0
M  V30 12457 H 1143.54 0.662097 -0.108943 0
M  V30 12458 H 1146.09 1.81288 -0.946299 0
M  V30 12459 H 1144.24 3.84381 0.482678 0
M  V30 12460 H 1144.66 5.06454 -1.364 0
M  V30 12461 H 1146.13 5.51256 0.286464 0
M  V30 12462 H 1146.61 4.18276 1.33948 0
M  V30 12463 H 1147.21 4.24004 -0.331741 0
M  V30 12464 N 1145.53 0.438773 1.51369 0
M  V30 12465 C 1146.78 -0.128723 2.01289 0
M  V30 12466 C 1147.09 -1.43659 1.32745 0
M  V30 12467 O 1148.3 -2.08712 1.73642 0
M  V30 12468 C 1146.75 -0.279945 3.5881 0
M  V30 12469 C 1146.36 1.01758 4.3629 0
M  V30 12470 C 1148.1 -0.801133 4.16872 0
M  V30 12471 C 1146.01 0.831918 5.85519 0
M  V30 12472 H 1144.94 -0.0518814 0.752213 0
M  V30 12473 H 1147.59 0.568753 1.74463 0
M  V30 12474 H 1145.97 -1.04046 3.82087 0
M  V30 12475 H 1147.15 1.78653 4.24758 0
M  V30 12476 H 1145.46 1.46741 3.89687 0
M  V30 12477 H 1148.06 -0.956548 5.26074 0
M  V30 12478 H 1148.4 -1.78396 3.76139 0
M  V30 12479 H 1148.94 -0.0988934 3.97677 0
M  V30 12480 H 1145.67 1.78716 6.30667 0
M  V30 12481 H 1145.19 0.102785 5.99712 0
M  V30 12482 H 1146.87 0.485681 6.45174 0
M  V30 12483 N 1147.01 -1.56678 0.170181 0
M  V30 12484 C 1147.94 -2.20916 -0.756213 0
M  V30 12485 C 1148.92 -1.16442 -1.23997 0
M  V30 12486 O 1150.1 -1.44867 -1.29333 0
M  V30 12487 C 1147.23 -2.84901 -1.98617 0
M  V30 12488 C 1146.19 -3.95403 -1.63831 0
M  V30 12489 C 1145.51 -4.46432 -2.94282 0
M  V30 12490 C 1146.81 -5.15051 -0.867195 0
M  V30 12491 H 1148.51 -2.98585 -0.220776 0
M  V30 12492 H 1146.05 -1.43619 -0.104748 0
M  V30 12493 H 1148 -3.28514 -2.63926 0
M  V30 12494 H 1146.73 -2.04598 -2.54572 0
M  V30 12495 H 1145.39 -3.52444 -1.00891 0
M  V30 12496 H 1145.04 -3.62923 -3.48276 0
M  V30 12497 H 1144.74 -5.20979 -2.71762 0
M  V30 12498 H 1146.26 -4.92731 -3.60622 0
M  V30 12499 H 1147.67 -5.55363 -1.42285 0
M  V30 12500 H 1146.07 -5.95507 -0.741065 0
M  V30 12501 H 1147.14 -4.84707 0.136693 0
M  V30 12502 N 1148.48 0.103547 -1.57259 0
M  V30 12503 C 1149.41 1.12714 -2.04494 0
M  V30 12504 C 1150.39 1.42278 -0.932255 0
M  V30 12505 O 1151.58 1.52453 -1.20298 0
M  V30 12506 C 1148.71 2.44927 -2.46228 0
M  V30 12507 C 1147.66 2.2979 -3.61082 0
M  V30 12508 C 1146.99 3.67105 -3.88765 0
M  V30 12509 C 1148.29 1.7455 -4.9227 0
M  V30 12510 H 1149.98 0.734198 -2.90258 0
M  V30 12511 H 1147.53 0.351725 -1.39638 0
M  V30 12512 H 1149.48 3.16798 -2.77879 0
M  V30 12513 H 1148.21 2.8614 -1.57453 0
M  V30 12514 H 1146.87 1.60366 -3.29664 0
M  V30 12515 H 1146.51 4.05831 -2.97171 0
M  V30 12516 H 1146.21 3.57825 -4.66084 0
M  V30 12517 H 1147.74 4.40456 -4.22884 0
M  V30 12518 H 1149.15 2.36253 -5.22358 0
M  V30 12519 H 1147.55 1.76051 -5.73695 0
M  V30 12520 H 1148.62 0.704242 -4.79759 0
M  V30 12521 N 1149.96 1.53094 0.37415 0
M  V30 12522 C 1150.91 1.75307 1.45779 0
M  V30 12523 C 1151.9 0.607409 1.48994 0
M  V30 12524 O 1153.09 0.865777 1.5438 0
M  V30 12525 C 1150.22 1.93871 2.83318 0
M  V30 12526 C 1149.3 3.14413 2.84614 0
M  V30 12527 N 1149.69 4.36486 2.55565 0
M  V30 12528 C 1147.99 3.14961 3.15778 0
M  V30 12529 C 1148.69 5.18178 2.64322 0
M  V30 12530 N 1147.67 4.54196 2.98675 0
M  V30 12531 H 1151.47 2.67305 1.22169 0
M  V30 12532 H 1148.98 1.51603 0.582254 0
M  V30 12533 H 1150.98 2.0791 3.61357 0
M  V30 12534 H 1149.64 1.03096 3.07898 0
M  V30 12535 H 1150.65 4.64366 2.29314 0
M  V30 12536 H 1147.33 2.34048 3.45728 0
M  V30 12537 H 1148.72 6.25529 2.45282 0
M  V30 12538 N 1151.44 -0.633461 1.44309 0
M  V30 12539 C 1152.67 -1.42033 1.50447 0
M  V30 12540 C 1153.08 -1.88362 0.128585 0
M  V30 12541 O 1152.44 -1.60695 -0.865071 0
M  V30 12542 C 1152.49 -2.6422 2.46719 0
M  V30 12543 O 1152.21 -2.19823 3.78958 0
M  V30 12544 C 1153.71 -3.57372 2.62298 0
M  V30 12545 H 1150.93 -0.435667 0.510329 0
M  V30 12546 H 1153.48 -0.774907 1.8925 0
M  V30 12547 H 1151.63 -3.24859 2.11058 0
M  V30 12548 H 1152.05 -2.99022 4.30913 0
M  V30 12549 H 1153.52 -4.39719 3.33693 0
M  V30 12550 H 1154 -4.06026 1.67449 0
M  V30 12551 H 1154.6 -3.02603 2.9885 0
M  V30 12552 N 1152.92 -1.31168 -0.873655 0
M  V30 12553 C 1153.87 -1.15107 -1.9681 0
M  V30 12554 C 1154.85 -0.0630813 -1.60776 0
M  V30 12555 O 1156.04 -0.28761 -1.74648 0
M  V30 12556 C 1153.17 -0.856705 -3.32439 0
M  V30 12557 C 1152.26 -1.9855 -3.74752 0
M  V30 12558 N 1152.65 -3.23213 -3.89059 0
M  V30 12559 C 1150.95 -1.8844 -4.04235 0
M  V30 12560 C 1151.65 -3.97026 -4.25141 0
M  V30 12561 N 1150.63 -3.25165 -4.35624 0
M  V30 12562 H 1154.43 -2.09643 -2.05978 0
M  V30 12563 H 1151.94 -1.22672 -1.06421 0
M  V30 12564 H 1153.94 -0.722635 -4.10589 0
M  V30 12565 H 1152.6 0.0804676 -3.246 0
M  V30 12566 H 1153.61 -3.58372 -3.73885 0
M  V30 12567 H 1150.29 -1.02164 -4.04807 0
M  V30 12568 H 1151.68 -5.04437 -4.43839 0
M  V30 12569 N 1154.4 1.08748 -1.14068 0
M  V30 12570 C 1155.36 2.1375 -0.827266 0
M  V30 12571 C 1156.36 1.59936 0.166496 0
M  V30 12572 O 1157.55 1.74092 -0.0614305 0
M  V30 12573 C 1154.68 3.40106 -0.232557 0
M  V30 12574 H 1155.87 2.42985 -1.7578 0
M  V30 12575 H 1153.43 1.24402 -0.946244 0
M  V30 12576 H 1154.16 3.16503 0.706859 0
M  V30 12577 H 1153.95 3.8046 -0.948293 0
M  V30 12578 H 1155.44 4.17589 -0.0303662 0
M  V30 12579 N 1155.87 0.935264 1.26849 0
M  V30 12580 C 1156.82 0.411166 2.24262 0
M  V30 12581 C 1157.81 -0.488804 1.53296 0
M  V30 12582 O 1159 -0.325015 1.7399 0
M  V30 12583 C 1156.13 -0.327941 3.4173 0
M  V30 12584 C 1155.22 0.58898 4.1999 0
M  V30 12585 N 1155.61 1.71216 4.7594 0
M  V30 12586 C 1153.9 0.393431 4.44261 0
M  V30 12587 C 1154.61 2.28306 5.35024 0
M  V30 12588 N 1153.58 1.57176 5.20381 0
M  V30 12589 H 1157.38 1.26864 2.65109 0
M  V30 12590 H 1154.9 0.790429 1.41866 0
M  V30 12591 H 1156.89 -0.720404 4.10629 0
M  V30 12592 H 1155.55 -1.18225 3.02412 0
M  V30 12593 H 1156.57 2.09441 4.73661 0
M  V30 12594 H 1153.24 -0.419596 4.15386 0
M  V30 12595 H 1154.63 3.22909 5.89219 0
M  V30 12596 N 1157.35 -1.41121 0.701616 0
M  V30 12597 C 1158.6 -2.01428 0.235495 0
M  V30 12598 C 1158.93 -1.55463 -1.16382 0
M  V30 12599 O 1158.21 -0.768477 -1.78675 0
M  V30 12600 C 1158.49 -3.58849 0.299919 0
M  V30 12601 C 1158.34 -4.14924 1.73661 0
M  V30 12602 C 1159.66 -4.38809 -0.336856 0
M  V30 12603 H 1156.78 -0.731842 0.0870456 0
M  V30 12604 H 1159.42 -1.67787 0.891479 0
M  V30 12605 H 1157.57 -3.87638 -0.258611 0
M  V30 12606 H 1159.24 -3.96987 2.34945 0
M  V30 12607 H 1157.49 -3.69738 2.26884 0
M  V30 12608 H 1158.16 -5.24085 1.73318 0
M  V30 12609 H 1160.63 -4.15868 0.138886 0
M  V30 12610 H 1159.51 -5.48278 -0.261264 0
M  V30 12611 H 1159.77 -4.18728 -1.41843 0
M  V30 12612 N 1158.83 -0.446794 -1.51134 0
M  V30 12613 C 1159.76 0.350229 -2.30858 0
M  V30 12614 C 1160.74 1.0125 -1.36684 0
M  V30 12615 O 1161.93 1.01433 -1.65605 0
M  V30 12616 C 1159.06 1.4464 -3.15748 0
M  V30 12617 C 1158.01 0.907102 -4.18277 0
M  V30 12618 C 1157.34 2.09974 -4.91747 0
M  V30 12619 C 1158.64 -0.0649758 -5.2226 0
M  V30 12620 H 1160.33 -0.315105 -2.97737 0
M  V30 12621 H 1157.88 -0.152985 -1.43185 0
M  V30 12622 H 1159.83 2.01127 -3.70305 0
M  V30 12623 H 1158.55 2.14016 -2.46708 0
M  V30 12624 H 1157.21 0.364382 -3.64785 0
M  V30 12625 H 1156.86 2.77991 -4.19202 0
M  V30 12626 H 1156.56 1.74523 -5.61084 0
M  V30 12627 H 1158.08 2.66996 -5.49131 0
M  V30 12628 H 1159.5 0.4099 -5.71833 0
M  V30 12629 H 1157.9 -0.332529 -5.99178 0
M  V30 12630 H 1158.97 -0.998681 -4.74504 0
M  V30 12631 N 1160.31 1.56586 -0.178487 0
M  V30 12632 C 1161.56 1.96709 0.4637 0
M  V30 12633 C 1161.88 1.06586 1.63292 0
M  V30 12634 O 1161.15 0.133683 1.95443 0
M  V30 12635 H 1159.73 0.726381 0.174299 0
M  V30 12636 H 1162.39 1.9314 -0.261345 0
M  V30 12637 H 1161.49 3.01164 0.818934 0
M  V30 12638 N 1161.79 -0.095206 1.57312 0
M  V30 12639 C 1163.06 -0.830388 1.77099 0
M  V30 12640 C 1163.44 -1.9694 0.760121 0
M  V30 12641 O 1162.79 -2.2752 -0.211403 0
M  V30 12642 C 1163 -1.32507 3.22867 0
M  V30 12643 C 1164.35 -1.7679 3.86045 0
M  V30 12644 O 1165.37 -1.42131 3.26615 0
M  V30 12645 O 1164.23 -2.40876 4.90552 0
M  V30 12646 H 1161.33 -0.396083 0.72598 0
M  V30 12647 H 1163.87 -0.0770965 1.69525 0
M  V30 12648 H 1162.64 -0.508992 3.87975 0
M  V30 12649 H 1162.27 -2.14037 3.35073 0
M  V30 12650 N 1163.26 -1.53291 -0.366026 0
M  V30 12651 C 1164.49 -1.73108 -1.1277 0
M  V30 12652 C 1164.9 -0.459662 -1.83531 0
M  V30 12653 O 1164.25 0.577151 -1.74398 0
M  V30 12654 C 1164.31 -2.84137 -2.20242 0
M  V30 12655 C 1163.97 -4.24503 -1.69252 0
M  V30 12656 C 1164.97 -5.06866 -1.15684 0
M  V30 12657 C 1162.65 -4.70912 -1.74778 0
M  V30 12658 C 1164.65 -6.33728 -0.683191 0
M  V30 12659 C 1162.33 -5.97752 -1.27025 0
M  V30 12660 C 1163.33 -6.78992 -0.738858 0
M  V30 12661 O 1163.02 -8.03452 -0.268375 0
M  V30 12662 H 1162.75 -0.582439 -0.343134 0
M  V30 12663 H 1165.31 -2.00828 -0.430969 0
M  V30 12664 H 1163.54 -2.5189 -2.93408 0
M  V30 12665 H 1165.23 -2.92136 -2.818 0
M  V30 12666 H 1165.99 -4.72185 -1.10753 0
M  V30 12667 H 1161.87 -4.07751 -2.15081 0
M  V30 12668 H 1165.41 -6.97086 -0.267746 0
M  V30 12669 H 1161.31 -6.31933 -1.31649 0
M  V30 12670 H 1162.08 -8.17581 -0.387745 0
M  V30 12671 N 1164.74 0.6258 -1.44643 0
M  V30 12672 C 1165.97 1.41726 -1.51422 0
M  V30 12673 C 1166.39 1.87565 -0.14181 0
M  V30 12674 O 1165.75 1.59059 0.870054 0
M  V30 12675 C 1165.8 2.61012 -2.48807 0
M  V30 12676 O 1164.9 3.61029 -1.99328 0
M  V30 12677 H 1164.24 0.423855 -0.511119 0
M  V30 12678 H 1166.77 0.763336 -1.89827 0
M  V30 12679 H 1166.78 3.08489 -2.67018 0
M  V30 12680 H 1165.46 2.26995 -3.48491 0
M  V30 12681 H 1164.04 3.20325 -1.90909 0
M  V30 12682 N 1166.22 1.31629 0.866686 0
M  V30 12683 C 1167.15 1.15377 1.98042 0
M  V30 12684 C 1168.17 0.0919633 1.6254 0
M  V30 12685 O 1169.35 0.339775 1.75236 0
M  V30 12686 C 1166.45 0.741295 3.30693 0
M  V30 12687 C 1165.63 1.88882 3.94516 0
M  V30 12688 C 1164.69 1.46186 5.05486 0
M  V30 12689 O 1163.71 2.17202 5.26129 0
M  V30 12690 N 1164.91 0.351096 5.79437 0
M  V30 12691 H 1167.68 2.11309 2.12529 0
M  V30 12692 H 1165.24 1.24007 1.04085 0
M  V30 12693 H 1167.23 0.438313 4.02319 0
M  V30 12694 H 1165.8 -0.12651 3.12344 0
M  V30 12695 H 1165.02 2.35894 3.15828 0
M  V30 12696 H 1166.31 2.65734 4.33892 0
M  V30 12697 H 1165.71 -0.240245 5.6519 0
M  V30 12698 H 1164.27 0.107663 6.51711 0
M  V30 12699 N 1167.7 -1.08142 1.14644 0
M  V30 12700 C 1168.95 -1.80849 0.917685 0
M  V30 12701 C 1169.28 -1.86123 -0.554249 0
M  V30 12702 O 1168.55 -1.33907 -1.41065 0
M  V30 12703 C 1168.84 -3.26325 1.52264 0
M  V30 12704 C 1168.69 -3.29244 3.06461 0
M  V30 12705 C 1170.01 -4.23375 1.20175 0
M  V30 12706 H 1167.13 -0.656559 0.334812 0
M  V30 12707 H 1169.77 -1.26595 1.41682 0
M  V30 12708 H 1167.92 -3.72656 1.09817 0
M  V30 12709 H 1169.59 -2.91216 3.57758 0
M  V30 12710 H 1167.83 -2.68438 3.40769 0
M  V30 12711 H 1168.51 -4.31785 3.43897 0
M  V30 12712 H 1170.98 -3.85394 1.56877 0
M  V30 12713 H 1169.86 -5.23472 1.65132 0
M  V30 12714 H 1170.12 -4.41944 0.117474 0
M  V30 12715 N 1169.18 -0.941978 -1.26351 0
M  V30 12716 C 1170.11 -0.469913 -2.28723 0
M  V30 12717 C 1171.09 0.477218 -1.63269 0
M  V30 12718 O 1172.27 0.378902 -1.90468 0
M  V30 12719 C 1169.4 0.264971 -3.46288 0
M  V30 12720 C 1168.36 -0.595682 -4.23834 0
M  V30 12721 C 1167.68 0.269208 -5.34022 0
M  V30 12722 C 1168.98 -1.86743 -4.87775 0
M  V30 12723 H 1170.68 -1.32551 -2.6846 0
M  V30 12724 H 1168.22 -0.638809 -1.29055 0
M  V30 12725 H 1170.18 0.606259 -4.17016 0
M  V30 12726 H 1168.9 1.15471 -3.05506 0
M  V30 12727 H 1167.56 -0.919875 -3.54872 0
M  V30 12728 H 1167.21 1.15832 -4.89481 0
M  V30 12729 H 1166.91 -0.30325 -5.86817 0
M  V30 12730 H 1168.43 0.605748 -6.07588 0
M  V30 12731 H 1169.85 -1.59333 -5.50714 0
M  V30 12732 H 1168.24 -2.38452 -5.50691 0
M  V30 12733 H 1169.31 -2.57831 -4.10671 0
M  V30 12734 N 1170.66 1.40747 -0.709091 0
M  V30 12735 C 1171.9 2.01003 -0.24581 0
M  V30 12736 C 1172.23 1.56203 1.15891 0
M  V30 12737 O 1171.49 0.770166 1.79908 0
M  V30 12738 C 1171.78 3.56404 -0.266685 0
M  V30 12739 C 1171.45 4.20762 -1.6208 0
M  V30 12740 C 1170.11 4.38056 -1.99148 0
M  V30 12741 C 1172.46 4.56723 -2.51105 0
M  V30 12742 C 1169.79 4.88591 -3.248 0
M  V30 12743 C 1172.14 5.08654 -3.76103 0
M  V30 12744 C 1170.81 5.24158 -4.13297 0
M  V30 12745 H 1170.08 0.73552 -0.0899481 0
M  V30 12746 H 1172.73 1.68451 -0.910844 0
M  V30 12747 H 1171.03 3.88825 0.481915 0
M  V30 12748 H 1172.73 4.0085 0.109509 0
M  V30 12749 H 1169.32 4.07685 -1.32252 0
M  V30 12750 H 1173.5 4.43004 -2.23744 0
M  V30 12751 H 1168.76 4.98779 -3.53595 0
M  V30 12752 H 1172.93 5.35457 -4.45262 0
M  V30 12753 H 1170.56 5.63079 -5.10731 0
M  V30 12754 N 1172.13 0.454803 1.50895 0
M  V30 12755 C 1173.04 -0.353495 2.31921 0
M  V30 12756 C 1174.06 -1.01136 1.41589 0
M  V30 12757 O 1175.24 -1.00291 1.74653 0
M  V30 12758 C 1172.3 -1.43032 3.15821 0
M  V30 12759 C 1171.36 -0.790763 4.21954 0
M  V30 12760 C 1170.59 -1.81628 5.01843 0
M  V30 12761 O 1170.82 -3.04078 4.8259 0
M  V30 12762 O 1169.75 -1.39713 5.8546 0
M  V30 12763 H 1173.58 0.308463 3.02129 0
M  V30 12764 H 1171.16 0.216971 1.47816 0
M  V30 12765 H 1173.04 -2.05444 3.67927 0
M  V30 12766 H 1171.72 -2.07605 2.48358 0
M  V30 12767 H 1170.63 -0.128127 3.73881 0
M  V30 12768 H 1171.96 -0.188251 4.9184 0
M  V30 12769 N 1173.61 -1.56489 0.186789 0
M  V30 12770 C 1175.03 -1.58701 -0.169176 0
M  V30 12771 C 1175.23 -1.2027 -1.61671 0
M  V30 12772 O 1174.28 -0.92154 -2.35083 0
M  V30 12773 C 1175.6 -3.00437 0.125657 0
M  V30 12774 C 1177.14 -3.12932 0.0651 0
M  V30 12775 C 1177.62 -4.56787 0.333131 0
M  V30 12776 N 1179.11 -4.62344 0.281453 0
M  V30 12777 C 1179.85 -5.71529 0.462805 0
M  V30 12778 N 1179.34 -6.89213 0.704054 0
M  V30 12779 N 1181.13 -5.60692 0.397636 0
M  V30 12780 H 1173.29 -1.79754 1.13148 0
M  V30 12781 H 1175.55 -0.83385 0.450997 0
M  V30 12782 H 1175.25 -3.33086 1.12901 0
M  V30 12783 H 1175.13 -3.72782 -0.575612 0
M  V30 12784 H 1177.52 -2.80101 -0.928845 0
M  V30 12785 H 1177.6 -2.42991 0.799318 0
M  V30 12786 H 1177.24 -4.9033 1.32436 0
M  V30 12787 H 1177.17 -5.24907 -0.421879 0
M  V30 12788 H 1179.66 -3.77764 0.101266 0
M  V30 12789 H 1179.97 -7.68314 0.831468 0
M  V30 12790 H 1178.32 -6.9104 0.740851 0
M  V30 12791 H 1181.51 -4.6763 0.20964 0
M  V30 12792 H 1181.68 -6.45726 0.54239 0
M  V30 12793 N 1175.09 0.086862 -1.5736 0
M  V30 12794 C 1176.5 0.640442 -1.75372 0
M  V30 12795 C 1176.85 1.78693 -0.81014 0
M  V30 12796 O 1175.98 2.16398 0.00940712 0
M  V30 12797 C 1176.57 1.16856 -3.1801 0
M  V30 12798 C 1175.13 1.66813 -3.37417 0
M  V30 12799 C 1174.28 0.58116 -2.71142 0
M  V30 12800 H 1177.23 -0.139249 -1.58088 0
M  V30 12801 H 1177.25 2.03772 -3.21337 0
M  V30 12802 H 1176.76 0.333909 -3.86661 0
M  V30 12803 H 1174.86 2.52652 -2.73858 0
M  V30 12804 H 1174.98 1.75545 -4.45781 0
M  V30 12805 H 1173.34 1.0226 -2.3327 0
M  V30 12806 H 1174.12 -0.243047 -3.42439 0
M  V30 12807 N 1176.57 1.53483 0.357892 0
M  V30 12808 C 1177.82 1.69701 1.09754 0
M  V30 12809 C 1178.14 0.455389 1.89608 0
M  V30 12810 O 1177.41 -0.530623 1.88577 0
M  V30 12811 H 1175.99 0.62562 0.408178 0
M  V30 12812 H 1178.65 1.90696 0.402641 0
M  V30 12813 H 1177.74 2.56154 1.78302 0
M  V30 12814 N 1178.05 -0.61812 1.44973 0
M  V30 12815 C 1179.29 -1.37343 1.47715 0
M  V30 12816 C 1179.61 -1.95239 0.118784 0
M  V30 12817 O 1180.81 -2.7149 0.0237981 0
M  V30 12818 C 1179.27 -2.48732 2.60116 0
M  V30 12819 C 1178.88 -1.97294 4.02218 0
M  V30 12820 C 1180.62 -3.25831 2.72093 0
M  V30 12821 C 1178.53 -3.06102 5.06019 0
M  V30 12822 H 1177.46 -0.516175 0.549617 0
M  V30 12823 H 1180.11 -0.663617 1.7108 0
M  V30 12824 H 1178.49 -3.2235 2.30014 0
M  V30 12825 H 1179.67 -1.30455 4.41948 0
M  V30 12826 H 1177.98 -1.32972 3.94598 0
M  V30 12827 H 1180.58 -4.06968 3.46815 0
M  V30 12828 H 1180.92 -3.76156 1.7836 0
M  V30 12829 H 1181.45 -2.59309 3.01668 0
M  V30 12830 H 1178.19 -2.60706 6.01426 0
M  V30 12831 H 1177.71 -3.71541 4.70869 0
M  V30 12832 H 1179.39 -3.70662 5.30301 0
M  V30 12833 N 1179.52 -1.32087 -0.859693 0
M  V30 12834 C 1180.77 -1.23551 -1.61575 0
M  V30 12835 C 1181.12 0.20199 -1.91337 0
M  V30 12836 O 1180.42 1.13834 -1.54118 0
M  V30 12837 C 1180.61 -2.0234 -2.94607 0
M  V30 12838 C 1180.44 -3.53606 -2.77836 0
M  V30 12839 C 1179.21 -4.22948 -2.76483 0
M  V30 12840 C 1181.41 -4.48356 -2.51955 0
M  V30 12841 N 1179.39 -5.60301 -2.5087 0
M  V30 12842 C 1180.76 -5.7345 -2.35702 0
M  V30 12843 C 1182.82 -4.37669 -2.37383 0
M  V30 12844 C 1181.52 -6.89064 -2.06357 0
M  V30 12845 C 1183.55 -5.53077 -2.09427 0
M  V30 12846 C 1182.91 -6.77167 -1.93971 0
M  V30 12847 H 1179.01 -0.507252 -0.595164 0
M  V30 12848 H 1181.59 -1.66395 -1.01098 0
M  V30 12849 H 1179.76 -1.6185 -3.53071 0
M  V30 12850 H 1181.49 -1.8574 -3.59559 0
M  V30 12851 H 1178.25 -3.75017 -2.89239 0
M  V30 12852 H 1178.67 -6.32649 -2.41006 0
M  V30 12853 H 1183.31 -3.42386 -2.48056 0
M  V30 12854 H 1181.03 -7.84363 -1.94421 0
M  V30 12855 H 1184.62 -5.46731 -1.98937 0
M  V30 12856 H 1183.5 -7.64959 -1.72646 0
M  V30 12857 N 1181 1.07532 -1.15215 0
M  V30 12858 C 1181.95 2.14687 -0.847243 0
M  V30 12859 C 1182.92 1.64903 0.199043 0
M  V30 12860 O 1184.1 1.90682 0.0669986 0
M  V30 12861 C 1181.24 3.43414 -0.340673 0
M  V30 12862 C 1180.36 4.06999 -1.44831 0
M  V30 12863 C 1179.49 5.23554 -0.898059 0
M  V30 12864 C 1178.53 5.79097 -1.98276 0
M  V30 12865 N 1177.67 6.86985 -1.44902 0
M  V30 12866 H 1182.51 2.4011 -1.76498 0
M  V30 12867 H 1180.04 1.17823 -0.880689 0
M  V30 12868 H 1182 4.1719 -0.0286956 0
M  V30 12869 H 1180.63 3.18249 0.540144 0
M  V30 12870 H 1179.68 3.30895 -1.87651 0
M  V30 12871 H 1181 4.44289 -2.26735 0
M  V30 12872 H 1180.15 6.04305 -0.538514 0
M  V30 12873 H 1178.89 4.87676 -0.0481752 0
M  V30 12874 H 1177.89 4.96992 -2.35115 0
M  V30 12875 H 1179.12 6.1703 -2.83639 0
M  V30 12876 H 1177.07 6.5305 -0.621468 0
M  V30 12877 H 1176.98 7.23149 -2.20434 0
M  V30 12878 H 1178.25 7.71446 -1.11767 0
M  V30 12879 N 1182.48 0.948665 1.2585 0
M  V30 12880 C 1183.76 0.517832 1.88621 0
M  V30 12881 C 1184.14 -1.00477 1.85654 0
M  V30 12882 O 1183.49 -1.868 1.31598 0
M  V30 12883 C 1183.7 1.08768 3.31618 0
M  V30 12884 C 1185.04 1.16089 4.08422 0
M  V30 12885 O 1186.07 1.0388 3.40716 0
M  V30 12886 O 1184.93 1.35172 5.29519 0
M  V30 12887 H 1182.02 0.169916 0.809356 0
M  V30 12888 H 1184.57 1.04171 1.33964 0
M  V30 12889 H 1183.34 2.13109 3.28177 0
M  V30 12890 H 1182.96 0.54669 3.93824 0
M  V30 12891 N 1183.96 -1.40369 0.716545 0
M  V30 12892 C 1184.89 -2.33365 0.0793533 0
M  V30 12893 C 1185.87 -1.52943 -0.744482 0
M  V30 12894 O 1187.05 -1.81406 -0.693212 0
M  V30 12895 C 1184.18 -3.36928 -0.842429 0
M  V30 12896 C 1183.14 -4.2782 -0.124142 0
M  V30 12897 C 1182.46 -5.21928 -1.1617 0
M  V30 12898 C 1183.76 -5.12199 1.02224 0
M  V30 12899 H 1185.46 -2.86899 0.856115 0
M  V30 12900 H 1183 -1.37946 0.413138 0
M  V30 12901 H 1184.96 -4.00925 -1.29759 0
M  V30 12902 H 1183.68 -2.81791 -1.6511 0
M  V30 12903 H 1182.34 -3.65277 0.311201 0
M  V30 12904 H 1181.99 -4.63096 -1.96345 0
M  V30 12905 H 1181.69 -5.83582 -0.685978 0
M  V30 12906 H 1183.21 -5.88802 -1.61694 0
M  V30 12907 H 1184.63 -5.69644 0.646399 0
M  V30 12908 H 1183.02 -5.82901 1.4264 0
M  V30 12909 H 1184.09 -4.4812 1.85246 0
M  V30 12910 N 1185.44 -0.462799 -1.50652 0
M  V30 12911 C 1186.38 0.335664 -2.28346 0
M  V30 12912 C 1187.35 0.994541 -1.33034 0
M  V30 12913 O 1188.54 1.00857 -1.61964 0
M  V30 12914 C 1185.68 1.41648 -3.1469 0
M  V30 12915 C 1184.79 0.773207 -4.25024 0
M  V30 12916 C 1183.93 1.83121 -4.98638 0
M  V30 12917 C 1182.97 1.16774 -6.00858 0
M  V30 12918 N 1182.1 2.16823 -6.67782 0
M  V30 12919 H 1186.94 -0.333202 -2.96131 0
M  V30 12920 H 1184.48 -0.176166 -1.46041 0
M  V30 12921 H 1186.44 2.05468 -3.63096 0
M  V30 12922 H 1185.07 2.05462 -2.48968 0
M  V30 12923 H 1184.12 0.0226444 -3.80393 0
M  V30 12924 H 1185.43 0.249061 -4.98178 0
M  V30 12925 H 1184.59 2.54543 -5.5072 0
M  V30 12926 H 1183.32 2.38915 -4.25172 0
M  V30 12927 H 1182.33 0.439112 -5.48044 0
M  V30 12928 H 1183.55 0.616809 -6.76293 0
M  V30 12929 H 1181.5 2.71649 -5.97112 0
M  V30 12930 H 1181.42 1.69371 -7.36783 0
M  V30 12931 H 1182.69 2.8765 -7.24484 0
M  V30 12932 N 1186.91 1.56388 -0.195085 0
M  V30 12933 C 1188.14 2.01963 0.449289 0
M  V30 12934 C 1188.56 1.07522 1.55192 0
M  V30 12935 O 1187.91 0.0800915 1.82324 0
M  V30 12936 C 1187.97 3.47231 1.00561 0
M  V30 12937 O 1187.69 4.38068 -0.0530241 0
M  V30 12938 C 1189.19 4.08324 1.72587 0
M  V30 12939 H 1186.41 0.661452 0.112792 0
M  V30 12940 H 1188.95 2.02231 -0.303788 0
M  V30 12941 H 1187.11 3.47663 1.70907 0
M  V30 12942 H 1187.52 5.23256 0.361076 0
M  V30 12943 H 1188.99 5.11821 2.06744 0
M  V30 12944 H 1189.47 3.51782 2.62956 0
M  V30 12945 H 1190.08 4.11665 1.06826 0
M  V30 12946 N 1188.39 -0.0785156 1.57404 0
M  V30 12947 C 1189.33 -1.12563 1.98506 0
M  V30 12948 C 1190.3 -1.3794 0.860891 0
M  V30 12949 O 1191.49 -1.51425 1.12262 0
M  V30 12950 C 1188.61 -2.47139 2.31603 0
M  V30 12951 C 1187.66 -2.3794 3.53959 0
M  V30 12952 S 1188.49 -1.77997 5.05052 0
M  V30 12953 C 1189.65 -3.14164 5.41342 0
M  V30 12954 H 1189.88 -0.775328 2.87012 0
M  V30 12955 H 1187.42 -0.286806 1.51713 0
M  V30 12956 H 1189.37 -3.24554 2.51346 0
M  V30 12957 H 1188.03 -2.79333 1.43638 0
M  V30 12958 H 1187.23 -3.37168 3.74612 0
M  V30 12959 H 1186.83 -1.68659 3.33812 0
M  V30 12960 H 1189.12 -4.10467 5.39002 0
M  V30 12961 H 1190.06 -2.98298 6.42202 0
M  V30 12962 H 1190.47 -3.1446 4.68802 0
M  V30 12963 N 1189.87 -1.5367 -0.349747 0
M  V30 12964 C 1191.12 -1.70281 -1.08853 0
M  V30 12965 C 1191.44 -0.465438 -1.89364 0
M  V30 12966 O 1190.71 0.520615 -1.88856 0
M  V30 12967 H 1189.29 -0.627775 -0.404854 0
M  V30 12968 H 1191.95 -1.90906 -0.392523 0
M  V30 12969 H 1191.05 -2.57096 -1.76941 0
M  V30 12970 N 1191.35 0.610423 -1.45298 0
M  V30 12971 C 1192.57 1.40112 -1.52917 0
M  V30 12972 C 1193 1.87404 -0.161696 0
M  V30 12973 O 1192.36 1.59973 0.853135 0
M  V30 12974 C 1192.4 2.58359 -2.51561 0
M  V30 12975 O 1191.51 3.58895 -2.03146 0
M  V30 12976 H 1190.85 0.41841 -0.515586 0
M  V30 12977 H 1193.38 0.743159 -1.90626 0
M  V30 12978 H 1193.39 3.0564 -2.70275 0
M  V30 12979 H 1192.06 2.23286 -3.50879 0
M  V30 12980 H 1190.64 3.18282 -1.94296 0
M  V30 12981 N 1192.83 1.32541 0.852676 0
M  V30 12982 C 1194.07 1.23397 1.60938 0
M  V30 12983 C 1194.41 -0.203294 1.93133 0
M  V30 12984 O 1193.68 -1.14097 1.57519 0
M  V30 12985 C 1193.96 2.0956 2.92842 0
M  V30 12986 C 1193.82 3.61675 2.67416 0
M  V30 12987 C 1195.14 1.95825 3.94133 0
M  V30 12988 H 1192.25 0.449608 0.583971 0
M  V30 12989 H 1194.9 1.62507 0.98446 0
M  V30 12990 H 1193.05 1.76336 3.46176 0
M  V30 12991 H 1194.72 4.05122 2.20621 0
M  V30 12992 H 1192.96 3.84242 2.01347 0
M  V30 12993 H 1193.63 4.17292 3.61347 0
M  V30 12994 H 1196.11 2.24935 3.50062 0
M  V30 12995 H 1194.98 2.58387 4.8428 0
M  V30 12996 H 1195.25 0.926466 4.32284 0
M  V30 12997 N 1194.3 -1.0692 1.15784 0
M  V30 12998 C 1195.53 -1.83849 0.959903 0
M  V30 12999 C 1195.95 -1.8169 -0.486873 0
M  V30 13000 O 1195.31 -1.21305 -1.34739 0
M  V30 13001 C 1195.36 -3.28642 1.48414 0
M  V30 13002 O 1194.46 -4.0665 0.686249 0
M  V30 13003 H 1193.81 -0.569115 0.342059 0
M  V30 13004 H 1196.34 -1.34851 1.53871 0
M  V30 13005 H 1196.35 -3.7947 1.49888 0
M  V30 13006 H 1195.02 -3.29529 2.53739 0
M  V30 13007 H 1193.6 -3.65453 0.741501 0
M  V30 13008 N 1195.78 -0.955326 -1.25345 0
M  V30 13009 C 1196.71 -0.494145 -2.28211 0
M  V30 13010 C 1197.69 0.459875 -1.63766 0
M  V30 13011 O 1198.88 0.358679 -1.90859 0
M  V30 13012 C 1196.01 0.228228 -3.46549 0
M  V30 13013 C 1194.96 -0.640601 -4.23179 0
M  V30 13014 C 1194.29 0.212553 -5.34277 0
M  V30 13015 C 1195.59 -1.91906 -4.85767 0
M  V30 13016 H 1197.28 -1.35391 -2.67039 0
M  V30 13017 H 1194.83 -0.652462 -1.2837 0
M  V30 13018 H 1196.78 0.561995 -4.17636 0
M  V30 13019 H 1195.51 1.12224 -3.06714 0
M  V30 13020 H 1194.16 -0.957462 -3.53876 0
M  V30 13021 H 1193.81 1.10634 -4.90682 0
M  V30 13022 H 1193.51 -0.365473 -5.86462 0
M  V30 13023 H 1195.04 0.541271 -6.08196 0
M  V30 13024 H 1196.45 -1.65165 -5.48993 0
M  V30 13025 H 1194.85 -2.44279 -5.48131 0
M  V30 13026 H 1195.92 -2.62173 -4.07914 0
M  V30 13027 N 1197.26 1.39987 -0.723979 0
M  V30 13028 C 1198.49 2.0556 -0.275634 0
M  V30 13029 C 1198.91 1.54207 1.07711 0
M  V30 13030 O 1198.27 0.681041 1.68022 0
M  V30 13031 C 1198.32 3.59551 -0.27485 0
M  V30 13032 O 1197.42 4.05685 0.741182 0
M  V30 13033 H 1196.76 0.651634 -0.12755 0
M  V30 13034 H 1199.29 1.79229 -0.986814 0
M  V30 13035 H 1199.3 4.07837 -0.115425 0
M  V30 13036 H 1197.98 3.96291 -1.26198 0
M  V30 13037 H 1196.55 3.6884 0.548795 0
M  V30 13038 N 1198.74 0.470782 1.50404 0
M  V30 13039 C 1199.99 -0.0859981 2.01517 0
M  V30 13040 C 1200.3 -1.40811 1.35763 0
M  V30 13041 O 1201.51 -2.04982 1.7803 0
M  V30 13042 C 1199.96 -0.203773 3.59323 0
M  V30 13043 C 1199.57 1.10989 4.34034 0
M  V30 13044 C 1201.32 -0.712528 4.18477 0
M  V30 13045 C 1199.22 0.955928 5.83623 0
M  V30 13046 H 1198.15 -0.0359142 0.753144 0
M  V30 13047 H 1200.8 0.605631 1.73218 0
M  V30 13048 H 1199.19 -0.959177 3.84208 0
M  V30 13049 H 1200.36 1.87623 4.20873 0
M  V30 13050 H 1198.67 1.54973 3.86487 0
M  V30 13051 H 1201.27 -0.844745 5.27985 0
M  V30 13052 H 1201.61 -1.70377 3.79838 0
M  V30 13053 H 1202.15 -0.0145179 3.97797 0
M  V30 13054 H 1198.89 1.92054 6.26734 0
M  V30 13055 H 1198.41 0.22997 5.99359 0
M  V30 13056 H 1200.09 0.622423 6.43999 0
M  V30 13057 N 1200.22 -1.56282 0.203376 0
M  V30 13058 C 1201.46 -1.97812 -0.433202 0
M  V30 13059 C 1201.79 -1.09052 -1.61053 0
M  V30 13060 O 1201.05 -0.131417 -1.95258 0
M  V30 13061 C 1201.35 -3.45148 -0.927759 0
M  V30 13062 C 1201.01 -4.50692 0.137083 0
M  V30 13063 C 1199.67 -4.79278 0.429652 0
M  V30 13064 C 1202.03 -5.14086 0.858174 0
M  V30 13065 C 1199.35 -5.68547 1.44815 0
M  V30 13066 C 1201.71 -6.04457 1.86588 0
M  V30 13067 C 1200.37 -6.31395 2.16556 0
M  V30 13068 H 1199.64 -0.723846 -0.15852 0
M  V30 13069 H 1202.29 -1.89102 0.302082 0
M  V30 13070 H 1200.59 -3.5097 -1.74147 0
M  V30 13071 H 1202.29 -3.74642 -1.42984 0
M  V30 13072 H 1198.88 -4.28481 -0.101111 0
M  V30 13073 H 1203.06 -4.92086 0.645376 0
M  V30 13074 H 1198.32 -5.87689 1.68615 0
M  V30 13075 H 1202.49 -6.52636 2.4298 0
M  V30 13076 H 1200.12 -7.00366 2.9562 0
M  V30 13077 N 1201.7 0.070167 -1.57444 0
M  V30 13078 C 1202.94 0.769014 -1.8733 0
M  V30 13079 C 1203.27 1.77496 -0.79533 0
M  V30 13080 O 1202.53 1.94586 0.208495 0
M  V30 13081 C 1202.82 1.5111 -3.23883 0
M  V30 13082 C 1202.49 0.644988 -4.46263 0
M  V30 13083 C 1201.15 0.406307 -4.79482 0
M  V30 13084 C 1203.5 0.0444938 -5.21181 0
M  V30 13085 C 1200.83 -0.442322 -5.8503 0
M  V30 13086 C 1203.18 -0.791599 -6.27628 0
M  V30 13087 C 1201.85 -1.04014 -6.59346 0
M  V30 13088 H 1201.12 0.281402 -0.685488 0
M  V30 13089 H 1203.77 0.029752 -1.91477 0
M  V30 13090 H 1202.07 2.32261 -3.15535 0
M  V30 13091 H 1203.77 2.05665 -3.44242 0
M  V30 13092 H 1200.36 0.841148 -4.20265 0
M  V30 13093 H 1204.54 0.216005 -4.9583 0
M  V30 13094 H 1199.8 -0.643607 -6.08003 0
M  V30 13095 H 1203.97 -1.26363 -6.8484 0
M  V30 13096 H 1201.6 -1.69949 -7.4096 0
M  V30 13097 N 1203.17 1.53854 0.341593 0
M  V30 13098 C 1204.42 1.7041 1.07905 0
M  V30 13099 C 1204.74 0.475039 1.89744 0
M  V30 13100 O 1205.94 0.521589 2.66443 0
M  V30 13101 C 1204.4 3.01342 1.96776 0
M  V30 13102 C 1204.01 4.31592 1.20135 0
M  V30 13103 C 1205.75 3.27264 2.70367 0
M  V30 13104 C 1203.66 5.53598 2.08047 0
M  V30 13105 H 1202.59 0.635005 0.406553 0
M  V30 13106 H 1205.24 1.80353 0.338409 0
M  V30 13107 H 1203.62 2.85261 2.74667 0
M  V30 13108 H 1204.79 4.58382 0.471404 0
M  V30 13109 H 1203.11 4.12298 0.583039 0
M  V30 13110 H 1205.71 4.15607 3.36415 0
M  V30 13111 H 1206.05 2.44357 3.37039 0
M  V30 13112 H 1206.58 3.4413 1.99548 0
M  V30 13113 H 1203.32 6.39053 1.45914 0
M  V30 13114 H 1202.84 5.31052 2.78825 0
M  V30 13115 H 1204.52 5.89314 2.67055 0
M  V30 13116 N 1204.65 -0.602709 1.4562 0
M  V30 13117 C 1205.88 -1.3881 1.53426 0
M  V30 13118 C 1206.29 -1.88046 0.16851 0
M  V30 13119 O 1205.65 -1.62493 -0.830791 0
M  V30 13120 C 1205.7 -2.58927 2.52268 0
M  V30 13121 O 1205.42 -2.11735 3.83536 0
M  V30 13122 C 1206.92 -3.51728 2.69819 0
M  V30 13123 H 1204.14 -0.424744 0.519455 0
M  V30 13124 H 1206.69 -0.73459 1.90851 0
M  V30 13125 H 1204.84 -3.20309 2.17902 0
M  V30 13126 H 1205.26 -2.89814 4.37159 0
M  V30 13127 H 1206.73 -4.32542 3.42945 0
M  V30 13128 H 1207.21 -4.02383 1.76024 0
M  V30 13129 H 1207.81 -2.96196 3.05202 0
M  V30 13130 N 1206.13 -1.32992 -0.845635 0
M  V30 13131 C 1207.06 -1.25301 -1.97033 0
M  V30 13132 C 1208.04 -0.134966 -1.69564 0
M  V30 13133 O 1209.23 -0.323629 -1.91484 0
M  V30 13134 C 1206.36 -0.984551 -3.33052 0
M  V30 13135 C 1205.31 -2.06481 -3.749 0
M  V30 13136 C 1204.64 -1.6486 -5.08651 0
M  V30 13137 C 1205.94 -3.48083 -3.89404 0
M  V30 13138 H 1207.63 -2.194 -2.03725 0
M  V30 13139 H 1205.18 -1.05621 -0.978783 0
M  V30 13140 H 1207.13 -0.917269 -4.11296 0
M  V30 13141 H 1205.85 -0.00793116 -3.26599 0
M  V30 13142 H 1204.51 -2.1224 -2.98915 0
M  V30 13143 H 1204.16 -0.659183 -4.98662 0
M  V30 13144 H 1203.86 -2.37145 -5.37621 0
M  V30 13145 H 1205.38 -1.59585 -5.89377 0
M  V30 13146 H 1206.8 -3.44863 -4.57976 0
M  V30 13147 H 1205.19 -4.18796 -4.29802 0
M  V30 13148 H 1206.26 -3.87084 -2.92051 0
M  V30 13149 N 1207.61 1.06304 -1.1635 0
M  V30 13150 C 1208.54 2.15745 -0.893103 0
M  V30 13151 C 1209.52 1.69341 0.160531 0
M  V30 13152 O 1210.7 1.94196 0.0126526 0
M  V30 13153 C 1207.83 3.45066 -0.393287 0
M  V30 13154 C 1206.79 4.04978 -1.38482 0
M  V30 13155 C 1206.11 5.29507 -0.743409 0
M  V30 13156 C 1207.41 4.4377 -2.75438 0
M  V30 13157 H 1209.11 2.38622 -1.80831 0
M  V30 13158 H 1206.65 1.14681 -0.870878 0
M  V30 13159 H 1208.61 4.20964 -0.191607 0
M  V30 13160 H 1207.33 3.21808 0.557426 0
M  V30 13161 H 1205.99 3.31136 -1.57304 0
M  V30 13162 H 1205.64 5.02545 0.213787 0
M  V30 13163 H 1205.34 5.7055 -1.40521 0
M  V30 13164 H 1206.86 6.08102 -0.551746 0
M  V30 13165 H 1208.28 5.1075 -2.60398 0
M  V30 13166 H 1206.67 4.95797 -3.38091 0
M  V30 13167 H 1207.74 3.54636 -3.30699 0
M  V30 13168 N 1209.09 0.96196 1.24836 0
M  V30 13169 C 1210.33 0.621634 1.93038 0
M  V30 13170 C 1210.66 -0.840257 1.75081 0
M  V30 13171 O 1209.94 -1.60381 1.10038 0
M  V30 13172 C 1210.22 0.990107 3.46221 0
M  V30 13173 C 1210.08 2.50827 3.73371 0
M  V30 13174 C 1211.39 0.520478 4.37011 0
M  V30 13175 H 1208.51 0.227312 0.701069 0
M  V30 13176 H 1211.16 1.19993 1.47315 0
M  V30 13177 H 1209.31 0.498008 3.85295 0
M  V30 13178 H 1210.98 3.07469 3.4389 0
M  V30 13179 H 1209.22 2.94277 3.18722 0
M  V30 13180 H 1209.89 2.71659 4.80526 0
M  V30 13181 H 1212.37 0.942703 4.05281 0
M  V30 13182 H 1211.24 0.806918 5.42937 0
M  V30 13183 H 1211.5 -0.579507 4.38285 0
M  V30 13184 N 1210.56 -1.39601 0.731392 0
M  V30 13185 C 1211.49 -2.33268 0.1041 0
M  V30 13186 C 1212.47 -1.53724 -0.728219 0
M  V30 13187 O 1213.66 -1.82131 -0.673933 0
M  V30 13188 C 1210.79 -3.37802 -0.806646 0
M  V30 13189 C 1209.74 -4.27928 -0.0787588 0
M  V30 13190 C 1209.07 -5.23131 -1.10628 0
M  V30 13191 C 1210.37 -5.11086 1.07651 0
M  V30 13192 H 1212.06 -2.85975 0.886496 0
M  V30 13193 H 1209.61 -1.375 0.427746 0
M  V30 13194 H 1211.56 -4.02278 -1.25499 0
M  V30 13195 H 1210.29 -2.83527 -1.62112 0
M  V30 13196 H 1208.95 -3.64926 0.349926 0
M  V30 13197 H 1208.59 -4.65152 -1.91422 0
M  V30 13198 H 1208.29 -5.84277 -0.624043 0
M  V30 13199 H 1209.82 -5.90483 -1.5544 0
M  V30 13200 H 1211.23 -5.68927 0.706781 0
M  V30 13201 H 1209.63 -5.81356 1.48814 0
M  V30 13202 H 1210.7 -4.46131 1.89988 0
M  V30 13203 N 1212.04 -0.478751 -1.50152 0
M  V30 13204 C 1213.29 0.0734397 -2.01967 0
M  V30 13205 C 1213.61 1.39523 -1.36229 0
M  V30 13206 O 1212.88 1.89141 -0.510149 0
M  V30 13207 H 1211.46 0.0301305 -0.746392 0
M  V30 13208 H 1214.12 -0.630921 -1.84406 0
M  V30 13209 H 1213.22 0.21937 -3.11328 0
M  V30 13210 N 1213.52 1.56172 -0.211661 0
M  V30 13211 C 1214.94 1.5895 0.143907 0
M  V30 13212 C 1215.14 1.22826 1.59737 0
M  V30 13213 O 1214.19 0.958823 2.33587 0
M  V30 13214 C 1215.51 3.00199 -0.173438 0
M  V30 13215 C 1217.05 3.12789 -0.114877 0
M  V30 13216 C 1217.53 4.56199 -0.405759 0
M  V30 13217 N 1219.02 4.61838 -0.354973 0
M  V30 13218 C 1219.75 5.70721 -0.553671 0
M  V30 13219 N 1219.25 6.88006 -0.813613 0
M  V30 13220 N 1221.04 5.59988 -0.486787 0
M  V30 13221 H 1213.19 1.77931 -1.15993 0
M  V30 13222 H 1215.46 0.826569 -0.464206 0
M  V30 13223 H 1215.16 3.31248 -1.18186 0
M  V30 13224 H 1215.04 3.73651 0.516232 0
M  V30 13225 H 1217.42 2.81543 0.884166 0
M  V30 13226 H 1217.51 2.41688 -0.837875 0
M  V30 13227 H 1217.15 4.88161 -1.40219 0
M  V30 13228 H 1217.08 5.25512 0.338318 0
M  V30 13229 H 1219.57 3.77555 -0.161352 0
M  V30 13230 H 1219.88 7.66894 -0.953594 0
M  V30 13231 H 1218.23 6.89774 -0.850696 0
M  V30 13232 H 1221.42 4.67238 -0.284009 0
M  V30 13233 H 1221.59 6.44781 -0.645051 0
M  V30 13234 N 1215 -0.0618163 1.57479 0
M  V30 13235 C 1215.93 -1.09931 2.01116 0
M  V30 13236 C 1216.94 -1.34405 0.91865 0
M  V30 13237 O 1218.13 -1.32469 1.19642 0
M  V30 13238 C 1215.23 -2.44814 2.34349 0
M  V30 13239 C 1214.41 -2.40157 3.65573 0
M  V30 13240 C 1213.46 -3.57226 3.86363 0
M  V30 13241 O 1212.49 -3.38202 4.5783 0
M  V30 13242 N 1213.69 -4.77937 3.2948 0
M  V30 13243 H 1216.46 -0.727621 2.90733 0
M  V30 13244 H 1214.02 -0.250315 1.59953 0
M  V30 13245 H 1216.01 -3.21792 2.45422 0
M  V30 13246 H 1214.58 -2.73947 1.50571 0
M  V30 13247 H 1213.8 -1.48496 3.65161 0
M  V30 13248 H 1215.09 -2.34156 4.51717 0
M  V30 13249 H 1214.49 -4.96296 2.7149 0
M  V30 13250 H 1213.04 -5.52392 3.45986 0
M  V30 13251 N 1216.48 -1.54033 -0.333429 0
M  V30 13252 C 1217.42 -1.83441 -1.43011 0
M  V30 13253 C 1218.42 -0.705592 -1.54006 0
M  V30 13254 O 1219.62 -0.889098 -1.56509 0
M  V30 13255 H 1216 -0.581326 -0.477037 0
M  V30 13256 H 1217.97 -2.75172 -1.15426 0
M  V30 13257 C 1216.72 -2.0698 -2.79382 0
M  V30 13258 H 1216.04 -2.93297 -2.71692 0
M  V30 13259 H 1217.48 -2.31517 -3.55212 0
M  V30 13260 C 1215.94 -0.85835 -3.25782 0
M  V30 13261 O 1216.47 -0.062739 -4.01651 0
M  V30 13262 N 1214.68 -0.672738 -2.82706 0
M  V30 13263 H 1214.22 -1.32136 -2.21128 0
M  V30 13264 H 1214.18 0.136347 -3.14104 0
M  V30 13265 N 1217.95 0.594978 -1.45938 0
M  V30 13266 C 1218.86 1.73296 -1.58132 0
M  V30 13267 C 1219.88 1.67665 -0.465245 0
M  V30 13268 O 1221.06 1.87794 -0.727684 0
M  V30 13269 C 1218.12 3.09783 -1.55677 0
M  V30 13270 C 1217.18 3.26772 -2.78422 0
M  V30 13271 C 1216.42 4.56748 -2.76075 0
M  V30 13272 O 1216.64 5.39867 -1.84119 0
M  V30 13273 O 1215.57 4.76721 -3.67452 0
M  V30 13274 H 1219.4 1.65957 -2.54346 0
M  V30 13275 H 1216.98 0.760572 -1.28591 0
M  V30 13276 H 1218.87 3.91077 -1.56961 0
M  V30 13277 H 1217.54 3.17585 -0.626191 0
M  V30 13278 H 1216.45 2.45018 -2.82696 0
M  V30 13279 H 1217.78 3.23853 -3.70648 0
M  V30 13280 N 1219.43 1.33438 0.838571 0
M  V30 13281 C 1220.66 1.27766 1.62356 0
M  V30 13282 C 1221.07 -0.15359 1.88576 0
M  V30 13283 O 1220.41 -1.10626 1.46654 0
M  V30 13284 C 1220.48 1.98435 2.99773 0
M  V30 13285 C 1220.14 3.47741 2.96522 0
M  V30 13286 C 1221.14 4.42938 2.72217 0
M  V30 13287 C 1218.82 3.89922 3.16648 0
M  V30 13288 C 1220.82 5.7829 2.68066 0
M  V30 13289 C 1218.5 5.25378 3.12123 0
M  V30 13290 C 1219.5 6.19374 2.87863 0
M  V30 13291 O 1219.19 7.52349 2.83242 0
M  V30 13292 H 1218.92 0.441527 0.511889 0
M  V30 13293 H 1221.47 1.76377 1.05262 0
M  V30 13294 H 1219.7 1.44415 3.58721 0
M  V30 13295 H 1221.39 1.86258 3.60642 0
M  V30 13296 H 1222.16 4.11673 2.56418 0
M  V30 13297 H 1218.04 3.17169 3.34552 0
M  V30 13298 H 1221.58 6.51629 2.4905 0
M  V30 13299 H 1217.48 5.56267 3.27471 0
M  V30 13300 H 1218.25 7.61901 2.99082 0
M  V30 13301 N 1220.91 -1.05686 1.16912 0
M  V30 13302 C 1222.14 -1.82018 0.977392 0
M  V30 13303 C 1222.55 -1.83072 -0.477636 0
M  V30 13304 O 1221.89 -1.25296 -1.34338 0
M  V30 13305 C 1221.95 -3.29592 1.4356 0
M  V30 13306 C 1221.62 -3.5223 2.91175 0
M  V30 13307 C 1222.61 -3.44767 3.89142 0
M  V30 13308 C 1220.3 -3.79353 3.29236 0
M  V30 13309 C 1222.29 -3.64104 5.2317 0
M  V30 13310 C 1219.98 -3.98339 4.63432 0
M  V30 13311 C 1220.98 -3.90713 5.60207 0
M  V30 13312 O 1220.67 -4.09175 6.91976 0
M  V30 13313 H 1220.4 -0.580578 0.346273 0
M  V30 13314 H 1222.95 -1.34199 1.55498 0
M  V30 13315 H 1221.18 -3.78302 0.80153 0
M  V30 13316 H 1222.87 -3.87435 1.21032 0
M  V30 13317 H 1223.64 -3.23796 3.61083 0
M  V30 13318 H 1219.52 -3.84395 2.54482 0
M  V30 13319 H 1223.06 -3.58068 5.98693 0
M  V30 13320 H 1218.96 -4.18801 4.91198 0
M  V30 13321 H 1219.73 -4.26429 6.98642 0
M  V30 13322 N 1222.39 -0.968567 -1.24324 0
M  V30 13323 C 1223.63 -0.63879 -1.94162 0
M  V30 13324 C 1223.99 0.81112 -1.74025 0
M  V30 13325 O 1225.19 1.25116 -2.37906 0
M  V30 13326 C 1223.46 -1.00432 -3.42999 0
M  V30 13327 S 1225.02 -0.789227 -4.31644 0
M  V30 13328 H 1221.84 -0.234322 -0.671278 0
M  V30 13329 H 1224.44 -1.2457 -1.50673 0
M  V30 13330 H 1223.15 -2.05643 -3.55161 0
M  V30 13331 H 1222.68 -0.388221 -3.9148 0
M  V30 13332 H 1224.69 0.332976 -4.95082 0
M  V30 13333 N 1223.87 1.39211 -0.738786 0
M  V30 13334 C 1225.28 1.54116 -0.414773 0
M  V30 13335 C 1225.48 1.70497 1.07392 0
M  V30 13336 O 1224.54 1.7076 1.86003 0
M  V30 13337 C 1225.85 2.7567 -1.2011 0
M  V30 13338 C 1227.4 2.89508 -1.1897 0
M  V30 13339 C 1227.87 4.14005 -1.95868 0
M  V30 13340 N 1229.37 4.21052 -1.93053 0
M  V30 13341 C 1230.1 5.16341 -2.49358 0
M  V30 13342 N 1229.6 6.17396 -3.14316 0
M  V30 13343 N 1231.39 5.08585 -2.3937 0
M  V30 13344 H 1223.54 1.26827 -1.70378 0
M  V30 13345 H 1225.8 0.614983 -0.721457 0
M  V30 13346 H 1225.51 2.69922 -2.25467 0
M  V30 13347 H 1225.38 3.68443 -0.808065 0
M  V30 13348 H 1227.77 2.94747 -0.144248 0
M  V30 13349 H 1227.85 1.97788 -1.62214 0
M  V30 13350 H 1227.5 4.09527 -3.00416 0
M  V30 13351 H 1227.43 5.04776 -1.50028 0
M  V30 13352 H 1229.92 3.48669 -1.45733 0
M  V30 13353 H 1230.23 6.86572 -3.54737 0
M  V30 13354 H 1228.57 6.17772 -3.18407 0
M  V30 13355 H 1231.77 4.28573 -1.88262 0
M  V30 13356 H 1231.94 5.8267 -2.83549 0
M  V30 13357 N 1225.34 0.486708 1.49896 0
M  V30 13358 C 1226.27 -0.288898 2.31706 0
M  V30 13359 C 1227.26 -0.975901 1.3932 0
M  V30 13360 O 1228.44 -0.970065 1.68236 0
M  V30 13361 C 1225.57 -1.36218 3.19471 0
M  V30 13362 C 1224.52 -0.795884 4.20535 0
M  V30 13363 C 1223.85 -1.96862 4.97141 0
M  V30 13364 C 1225.15 0.203421 5.21904 0
M  V30 13365 H 1226.84 0.393934 2.96797 0
M  V30 13366 H 1224.39 0.190894 1.42729 0
M  V30 13367 H 1226.34 -1.91238 3.75508 0
M  V30 13368 H 1225.07 -2.074 2.52295 0
M  V30 13369 H 1223.73 -0.267538 3.65622 0
M  V30 13370 H 1223.37 -2.66779 4.26425 0
M  V30 13371 H 1223.07 -1.59585 5.65514 0
M  V30 13372 H 1224.6 -2.52343 5.56017 0
M  V30 13373 H 1226.01 -0.258144 5.72719 0
M  V30 13374 H 1224.41 0.491273 5.98086 0
M  V30 13375 H 1225.48 1.12414 4.7169 0
M  V30 13376 N 1226.82 -1.56058 0.219941 0
M  V30 13377 C 1228.1 -1.90087 -0.46112 0
M  V30 13378 C 1228.48 -1.13705 -1.77861 0
M  V30 13379 O 1227.83 -0.245868 -2.27173 0
M  V30 13380 C 1228.04 -3.42786 -0.655644 0
M  V30 13381 C 1229.39 -4.13517 -0.963803 0
M  V30 13382 O 1230.41 -3.48376 -0.742488 0
M  V30 13383 O 1229.27 -5.28692 -1.38374 0
M  V30 13384 H 1226.36 -0.790311 -0.243595 0
M  V30 13385 H 1228.91 -1.67665 0.262005 0
M  V30 13386 H 1227.68 -3.90341 0.273738 0
M  V30 13387 H 1227.3 -3.70982 -1.43032 0
M  V30 13388 N 1228.3 0.053464 -1.57509 0
M  V30 13389 C 1229.55 0.749102 -1.88135 0
M  V30 13390 C 1229.88 1.76642 -0.814111 0
M  V30 13391 O 1229.13 1.94796 0.187845 0
M  V30 13392 C 1229.43 1.47666 -3.25468 0
M  V30 13393 C 1229.1 0.597619 -4.46922 0
M  V30 13394 C 1227.76 0.355429 -4.79886 0
M  V30 13395 C 1230.11 -0.0107869 -5.21199 0
M  V30 13396 C 1227.44 -0.504347 -5.84528 0
M  V30 13397 C 1229.79 -0.858123 -6.26753 0
M  V30 13398 C 1228.45 -1.11001 -6.58206 0
M  V30 13399 H 1227.72 0.274116 -0.688434 0
M  V30 13400 H 1230.37 0.00944162 -1.91498 0
M  V30 13401 H 1228.68 2.28901 -3.1798 0
M  V30 13402 H 1230.37 2.02002 -3.46404 0
M  V30 13403 H 1226.96 0.796526 -4.21134 0
M  V30 13404 H 1231.15 0.163404 -4.96031 0
M  V30 13405 H 1226.4 -0.708057 -6.07286 0
M  V30 13406 H 1230.58 -1.3362 -6.83461 0
M  V30 13407 H 1228.2 -1.77798 -7.39116 0
M  V30 13408 N 1229.78 1.54207 0.325255 0
M  V30 13409 C 1230.71 1.86467 1.40543 0
M  V30 13410 C 1231.69 0.721324 1.54048 0
M  V30 13411 O 1232.88 0.974905 1.67956 0
M  V30 13412 C 1230.01 2.09052 2.77335 0
M  V30 13413 C 1228.96 3.24893 2.78619 0
M  V30 13414 C 1228.29 3.32846 4.1847 0
M  V30 13415 C 1229.59 4.62582 2.42518 0
M  V30 13416 H 1231.28 2.76932 1.13794 0
M  V30 13417 H 1228.83 1.33248 0.545971 0
M  V30 13418 H 1230.78 2.30204 3.52964 0
M  V30 13419 H 1229.5 1.15335 3.05558 0
M  V30 13420 H 1228.16 3.03625 2.05444 0
M  V30 13421 H 1227.81 2.3669 4.43832 0
M  V30 13422 H 1227.51 4.10701 4.20237 0
M  V30 13423 H 1229.03 3.56231 4.95915 0
M  V30 13424 H 1230.45 4.83627 3.07861 0
M  V30 13425 H 1228.84 5.42974 2.55538 0
M  V30 13426 H 1229.91 4.64946 1.3767 0
M  V30 13427 N 1231.26 -0.58723 1.46251 0
M  V30 13428 C 1232.5 -1.34549 1.52539 0
M  V30 13429 C 1232.86 -1.91622 0.172885 0
M  V30 13430 O 1232.15 -1.73267 -0.81787 0
M  V30 13431 C 1232.35 -2.49776 2.5563 0
M  V30 13432 C 1232.17 -2.03991 4.00772 0
M  V30 13433 C 1230.94 -1.89216 4.68535 0
M  V30 13434 C 1233.14 -1.60227 4.88704 0
M  V30 13435 N 1231.12 -1.37454 5.98314 0
M  V30 13436 C 1232.5 -1.20024 6.08271 0
M  V30 13437 C 1234.55 -1.48004 4.75394 0
M  V30 13438 C 1233.25 -0.688163 7.16001 0
M  V30 13439 C 1235.28 -0.981991 5.8319 0
M  V30 13440 C 1234.64 -0.589721 7.01927 0
M  V30 13441 H 1230.74 -0.485499 0.613037 0
M  V30 13442 H 1233.32 -0.669117 1.82841 0
M  V30 13443 H 1231.5 -3.14983 2.27245 0
M  V30 13444 H 1233.23 -3.16715 2.5194 0
M  V30 13445 H 1229.98 -2.11025 4.23988 0
M  V30 13446 H 1230.41 -1.13748 6.67376 0
M  V30 13447 H 1235.05 -1.76951 3.8399 0
M  V30 13448 H 1232.77 -0.386268 8.07176 0
M  V30 13449 H 1236.35 -0.891387 5.74931 0
M  V30 13450 H 1235.23 -0.210279 7.83918 0
M  V30 13451 N 1232.74 -1.33881 -0.831482 0
M  V30 13452 C 1233.68 -1.24748 -1.94182 0
M  V30 13453 C 1234.65 -0.124516 -1.65633 0
M  V30 13454 O 1235.84 -0.304045 -1.88362 0
M  V30 13455 C 1232.98 -1.00016 -3.30289 0
M  V30 13456 C 1232.09 -2.21007 -3.71187 0
M  V30 13457 C 1231.23 -1.89629 -4.962 0
M  V30 13458 C 1230.26 -3.06811 -5.29654 0
M  V30 13459 N 1229.4 -2.75372 -6.45844 0
M  V30 13460 H 1234.24 -2.19709 -2.01325 0
M  V30 13461 H 1231.78 -1.09245 -0.985081 0
M  V30 13462 H 1233.74 -0.837167 -4.08714 0
M  V30 13463 H 1232.37 -0.0872582 -3.22682 0
M  V30 13464 H 1231.42 -2.48256 -2.88224 0
M  V30 13465 H 1232.73 -3.08587 -3.91887 0
M  V30 13466 H 1231.88 -1.70016 -5.82391 0
M  V30 13467 H 1230.62 -0.992964 -4.77485 0
M  V30 13468 H 1229.63 -3.27029 -4.41964 0
M  V30 13469 H 1230.85 -3.97909 -5.50314 0
M  V30 13470 H 1228.8 -1.87607 -6.28601 0
M  V30 13471 H 1228.72 -3.56483 -6.66675 0
M  V30 13472 H 1229.98 -2.59244 -7.35128 0
M  V30 13473 N 1234.21 1.05064 -1.1747 0
M  V30 13474 C 1235.16 2.14948 -0.888815 0
M  V30 13475 C 1236.16 1.68761 0.147038 0
M  V30 13476 O 1237.36 1.8 -0.000164278 0
M  V30 13477 H 1233.74 0.701898 -0.269894 0
M  V30 13478 H 1235.71 2.36265 -1.82268 0
M  V30 13479 C 1234.46 3.45154 -0.420006 0
M  V30 13480 H 1233.78 3.81096 -1.20854 0
M  V30 13481 H 1235.22 4.23209 -0.258866 0
M  V30 13482 C 1233.68 3.25671 0.862551 0
M  V30 13483 O 1234.21 3.5235 1.92906 0
M  V30 13484 N 1232.41 2.79048 0.81121 0
M  V30 13485 H 1231.96 2.57537 -0.0569025 0
M  V30 13486 H 1231.92 2.66392 1.66981 0
M  V30 13487 N 1235.69 0.975146 1.23809 0
M  V30 13488 C 1236.64 0.510761 2.25077 0
M  V30 13489 C 1237.61 -0.447605 1.59955 0
M  V30 13490 O 1238.79 -0.356318 1.87443 0
M  V30 13491 C 1235.93 -0.185755 3.446 0
M  V30 13492 C 1235.05 0.812254 4.24295 0
M  V30 13493 C 1234.18 0.0910835 5.31122 0
M  V30 13494 C 1233.22 1.07866 6.02521 0
M  V30 13495 N 1232.36 0.386995 7.01033 0
M  V30 13496 H 1237.2 1.37913 2.64166 0
M  V30 13497 H 1234.73 0.691184 1.2985 0
M  V30 13498 H 1236.69 -0.606341 4.1277 0
M  V30 13499 H 1235.32 -1.01803 3.06327 0
M  V30 13500 H 1234.37 1.35125 3.55592 0
M  V30 13501 H 1235.69 1.56502 4.73612 0
M  V30 13502 H 1234.84 -0.387129 6.05464 0
M  V30 13503 H 1233.58 -0.694324 4.82732 0
M  V30 13504 H 1232.58 1.56767 5.26976 0
M  V30 13505 H 1233.81 1.86464 6.52999 0
M  V30 13506 H 1231.76 -0.3793 6.54903 0
M  V30 13507 H 1231.67 1.0785 7.48268 0
M  V30 13508 H 1232.94 -0.0690036 7.79469 0
M  V30 13509 N 1237.17 -1.38817 0.746158 0
M  V30 13510 C 1238.42 -2.0028 0.299016 0
M  V30 13511 C 1238.74 -1.59221 -1.11709 0
M  V30 13512 O 1238 -0.817595 -1.77803 0
M  V30 13513 C 1238.3 -3.55571 0.361086 0
M  V30 13514 C 1237.96 -4.16317 1.73179 0
M  V30 13515 C 1236.63 -4.32622 2.10693 0
M  V30 13516 C 1238.98 -4.49905 2.63126 0
M  V30 13517 C 1236.31 -4.79808 3.3764 0
M  V30 13518 C 1238.66 -4.98504 3.89457 0
M  V30 13519 C 1237.32 -5.13016 4.27049 0
M  V30 13520 H 1236.59 -0.732877 0.109418 0
M  V30 13521 H 1239.24 -1.65977 0.955186 0
M  V30 13522 H 1237.54 -3.89966 -0.378655 0
M  V30 13523 H 1239.24 -4.01 -0.00319228 0
M  V30 13524 H 1235.83 -4.04035 1.43015 0
M  V30 13525 H 1240.02 -4.36916 2.3541 0
M  V30 13526 H 1235.27 -4.89229 3.66695 0
M  V30 13527 H 1239.45 -5.23464 4.59302 0
M  V30 13528 H 1237.07 -5.4934 5.25481 0
M  V30 13529 N 1238.65 -0.49465 -1.49636 0
M  V30 13530 C 1239.59 0.287153 -2.29007 0
M  V30 13531 C 1240.56 0.966099 -1.35114 0
M  V30 13532 O 1241.75 0.973991 -1.64067 0
M  V30 13533 C 1238.89 1.34941 -3.17624 0
M  V30 13534 C 1238 0.682879 -4.26569 0
M  V30 13535 C 1237.14 1.72503 -5.0241 0
M  V30 13536 C 1236.18 1.04003 -6.032 0
M  V30 13537 N 1235.31 2.0261 -6.7223 0
M  V30 13538 H 1240.15 -0.395941 -2.95358 0
M  V30 13539 H 1237.69 -0.207103 -1.45635 0
M  V30 13540 H 1239.65 1.9772 -3.67372 0
M  V30 13541 H 1238.28 2.00135 -2.5327 0
M  V30 13542 H 1237.33 -0.0580477 -3.80356 0
M  V30 13543 H 1238.64 0.143334 -4.98594 0
M  V30 13544 H 1237.8 2.42804 -5.55996 0
M  V30 13545 H 1236.54 2.29843 -4.30144 0
M  V30 13546 H 1235.54 0.322765 -5.48852 0
M  V30 13547 H 1236.77 0.473219 -6.77449 0
M  V30 13548 H 1234.71 2.58922 -6.0274 0
M  V30 13549 H 1234.63 1.53704 -7.4021 0
M  V30 13550 H 1235.9 2.72218 -7.30423 0
M  V30 13551 N 1240.13 1.55939 -0.228214 0
M  V30 13552 C 1241.07 2.20581 0.679157 0
M  V30 13553 C 1242.04 1.16355 1.18536 0
M  V30 13554 O 1243.23 1.44735 1.24324 0
M  V30 13555 C 1240.37 2.89477 1.87875 0
M  V30 13556 C 1239.48 4.08313 1.41083 0
M  V30 13557 C 1238.62 4.64974 2.56851 0
M  V30 13558 C 1237.65 5.76098 2.06828 0
M  V30 13559 N 1236.79 6.27021 3.15894 0
M  V30 13560 H 1241.63 2.97753 0.121203 0
M  V30 13561 H 1239.17 1.47021 0.0480688 0
M  V30 13562 H 1241.13 3.2761 2.58317 0
M  V30 13563 H 1239.76 2.14811 2.40948 0
M  V30 13564 H 1238.81 3.75621 0.601102 0
M  V30 13565 H 1240.12 4.8859 1.00408 0
M  V30 13566 H 1239.27 5.05584 3.35365 0
M  V30 13567 H 1238.01 3.83875 3.00818 0
M  V30 13568 H 1237.02 5.34984 1.26778 0
M  V30 13569 H 1238.24 6.59037 1.63852 0
M  V30 13570 H 1236.19 5.48833 3.5933 0
M  V30 13571 H 1236.11 7.02439 2.79491 0
M  V30 13572 H 1237.37 6.72289 3.94523 0
M  V30 13573 N 1241.6 -0.0451101 1.57535 0
M  V30 13574 C 1242.51 -1.06796 2.08882 0
M  V30 13575 C 1243.53 -1.40682 1.02394 0
M  V30 13576 O 1244.71 -1.50324 1.34033 0
M  V30 13577 C 1241.77 -2.35467 2.54472 0
M  V30 13578 C 1240.83 -2.0831 3.75374 0
M  V30 13579 C 1240.07 -3.30846 4.1878 0
M  V30 13580 O 1240.29 -4.40945 3.61834 0
M  V30 13581 O 1239.22 -3.17488 5.11356 0
M  V30 13582 H 1243.05 -0.661658 2.96405 0
M  V30 13583 H 1240.63 -0.26104 1.47102 0
M  V30 13584 H 1242.52 -3.11143 2.84198 0
M  V30 13585 H 1241.19 -2.75425 1.70068 0
M  V30 13586 H 1240.1 -1.30254 3.50692 0
M  V30 13587 H 1241.43 -1.73218 4.60713 0
M  V30 13588 N 1243.08 -1.54377 -0.317073 0
M  V30 13589 C 1244.5 -1.45232 -0.6618 0
M  V30 13590 C 1244.7 -0.630457 -1.91383 0
M  V30 13591 O 1243.75 -0.13181 -2.52156 0
M  V30 13592 C 1245.07 -2.89025 -0.829761 0
M  V30 13593 C 1246.62 -2.98967 -0.926685 0
M  V30 13594 C 1247.09 -4.43923 -1.12677 0
M  V30 13595 N 1248.58 -4.47564 -1.19335 0
M  V30 13596 C 1249.32 -5.56887 -1.36617 0
M  V30 13597 N 1248.81 -6.76167 -1.50899 0
M  V30 13598 N 1250.61 -5.44546 -1.39377 0
M  V30 13599 H 1242.76 -2.0629 0.505766 0
M  V30 13600 H 1245.02 -0.933615 0.164522 0
M  V30 13601 H 1244.73 -3.51695 0.0190945 0
M  V30 13602 H 1244.6 -3.35515 -1.72364 0
M  V30 13603 H 1246.99 -2.36421 -1.76604 0
M  V30 13604 H 1247.07 -2.55798 -0.00913402 0
M  V30 13605 H 1246.71 -5.07059 -0.29224 0
M  V30 13606 H 1246.64 -4.84708 -2.05829 0
M  V30 13607 H 1249.13 -3.61623 -1.09715 0
M  V30 13608 H 1249.45 -7.55242 -1.63796 0
M  V30 13609 H 1247.79 -6.79062 -1.47985 0
M  V30 13610 H 1250.98 -4.50311 -1.27819 0
M  V30 13611 H 1251.15 -6.29799 -1.52502 0
M  V30 13612 N 1244.56 0.579466 -1.4656 0
M  V30 13613 C 1245.47 1.71609 -1.59961 0
M  V30 13614 C 1246.49 1.67162 -0.483002 0
M  V30 13615 O 1247.66 1.87012 -0.747561 0
M  V30 13616 C 1244.73 3.08114 -1.58954 0
M  V30 13617 C 1243.79 3.238 -2.81872 0
M  V30 13618 C 1243.02 4.53794 -2.80904 0
M  V30 13619 O 1243.24 5.37884 -1.89835 0
M  V30 13620 O 1242.18 4.72796 -3.72488 0
M  V30 13621 H 1246 1.6325 -2.56092 0
M  V30 13622 H 1243.59 0.746891 -1.2939 0
M  V30 13623 H 1245.47 3.8939 -1.611 0
M  V30 13624 H 1244.15 3.16903 -0.65984 0
M  V30 13625 H 1243.05 2.42006 -2.85279 0
M  V30 13626 H 1244.39 3.19904 -3.74062 0
M  V30 13627 N 1246.04 1.3432 0.824371 0
M  V30 13628 C 1246.95 1.27847 1.96704 0
M  V30 13629 C 1247.96 0.18641 1.72999 0
M  V30 13630 O 1249.14 0.412623 1.97128 0
M  V30 13631 C 1246.21 1.03231 3.30975 0
M  V30 13632 C 1245.27 2.21579 3.67697 0
M  V30 13633 C 1244.5 1.98128 4.95561 0
M  V30 13634 O 1244.72 0.938798 5.62621 0
M  V30 13635 O 1243.66 2.85041 5.30128 0
M  V30 13636 H 1247.48 2.23974 2.05108 0
M  V30 13637 H 1245.07 1.14512 0.959554 0
M  V30 13638 H 1246.95 0.912784 4.11395 0
M  V30 13639 H 1245.62 0.101425 3.23541 0
M  V30 13640 H 1244.53 2.3909 2.87727 0
M  V30 13641 H 1245.86 3.13052 3.79815 0
M  V30 13642 N 1247.52 -1.0444 1.18026 0
M  V30 13643 C 1248.77 -1.7697 0.9677 0
M  V30 13644 C 1249.08 -1.88995 -0.503994 0
M  V30 13645 O 1250.28 -2.58342 -0.834968 0
M  V30 13646 C 1248.74 -3.1816 1.68232 0
M  V30 13647 C 1248.35 -3.14241 3.19307 0
M  V30 13648 C 1250.09 -3.95095 1.55244 0
M  V30 13649 C 1248 -4.50266 3.83425 0
M  V30 13650 H 1246.93 -0.663355 0.358436 0
M  V30 13651 H 1249.58 -1.17003 1.4136 0
M  V30 13652 H 1247.96 -3.78501 1.16418 0
M  V30 13653 H 1249.14 -2.63373 3.78115 0
M  V30 13654 H 1247.45 -2.50805 3.32394 0
M  V30 13655 H 1250.05 -4.95681 2.00511 0
M  V30 13656 H 1250.39 -4.13236 0.504125 0
M  V30 13657 H 1250.92 -3.4132 2.04317 0
M  V30 13658 H 1247.66 -4.37329 4.88286 0
M  V30 13659 H 1247.18 -5.01251 3.29404 0
M  V30 13660 H 1248.86 -5.1919 3.86071 0
M  V30 13661 N 1248.99 -0.981699 -1.2329 0
M  V30 13662 C 1249.9 -0.531296 -2.28505 0
M  V30 13663 C 1250.92 0.414531 -1.6899 0
M  V30 13664 O 1252.1 0.284129 -1.99386 0
M  V30 13665 C 1249.16 0.157864 -3.4634 0
M  V30 13666 C 1248.22 -0.829527 -4.21209 0
M  V30 13667 C 1247.46 -0.17316 -5.33419 0
M  V30 13668 O 1247.68 1.03549 -5.60922 0
M  V30 13669 O 1246.61 -0.872385 -5.95544 0
M  V30 13670 H 1250.44 -1.40633 -2.69177 0
M  V30 13671 H 1248.02 -0.749395 -1.29246 0
M  V30 13672 H 1249.91 0.544394 -4.17869 0
M  V30 13673 H 1248.58 1.00764 -3.07617 0
M  V30 13674 H 1247.49 -1.26678 -3.51999 0
M  V30 13675 H 1248.82 -1.64815 -4.63785 0
M  V30 13676 N 1250.47 1.3842 -0.753509 0
M  V30 13677 C 1251.7 2.04403 -0.320449 0
M  V30 13678 C 1252.12 1.5683 1.05118 0
M  V30 13679 O 1251.47 0.741335 1.66765 0
M  V30 13680 C 1251.52 3.59954 -0.333937 0
M  V30 13681 O 1251.24 4.05782 -1.65144 0
M  V30 13682 C 1252.75 4.43156 0.112997 0
M  V30 13683 H 1249.97 0.656881 -0.136927 0
M  V30 13684 H 1252.51 1.77112 -1.02234 0
M  V30 13685 H 1250.66 3.86083 0.319215 0
M  V30 13686 H 1251.08 5.00213 -1.57757 0
M  V30 13687 H 1252.55 5.51975 0.0523995 0
M  V30 13688 H 1253.03 4.23581 1.16087 0
M  V30 13689 H 1253.64 4.22216 -0.511278 0
M  V30 13690 N 1251.95 0.502579 1.49372 0
M  V30 13691 C 1252.88 -0.321683 2.25921 0
M  V30 13692 C 1253.86 -0.968999 1.30572 0
M  V30 13693 O 1255.05 -0.998788 1.59864 0
M  V30 13694 C 1252.17 -1.45318 3.05942 0
M  V30 13695 C 1251.22 -0.920076 4.16457 0
M  V30 13696 S 1252.05 0.190402 5.35161 0
M  V30 13697 C 1253.21 -0.944222 6.18737 0
M  V30 13698 H 1253.44 0.328036 2.95485 0
M  V30 13699 H 1250.97 0.287903 1.51692 0
M  V30 13700 H 1252.93 -2.1015 3.52629 0
M  V30 13701 H 1251.59 -2.07452 2.35844 0
M  V30 13702 H 1250.79 -1.76808 4.71969 0
M  V30 13703 H 1250.39 -0.348944 3.72369 0
M  V30 13704 H 1252.68 -1.8491 6.51778 0
M  V30 13705 H 1253.62 -0.42769 7.06807 0
M  V30 13706 H 1254.03 -1.21227 5.5133 0
M  V30 13707 N 1253.43 -1.55816 0.23648 0
M  V30 13708 C 1254.34 -2.24576 -0.678439 0
M  V30 13709 C 1255.35 -1.25836 -1.20172 0
M  V30 13710 O 1256.53 -1.58686 -1.24019 0
M  V30 13711 C 1253.6 -2.92376 -1.86325 0
M  V30 13712 C 1252.66 -4.06499 -1.38047 0
M  V30 13713 C 1251.89 -4.71057 -2.50881 0
M  V30 13714 O 1252.11 -4.34652 -3.69369 0
M  V30 13715 O 1251.05 -5.59768 -2.21232 0
M  V30 13716 H 1254.87 -3.03452 -0.122601 0
M  V30 13717 H 1252.46 -1.49399 0.00540803 0
M  V30 13718 H 1254.34 -3.35117 -2.55488 0
M  V30 13719 H 1253.01 -2.16448 -2.40691 0
M  V30 13720 H 1251.92 -3.68296 -0.656422 0
M  V30 13721 H 1253.25 -4.84214 -0.883024 0
M  V30 13722 N 1254.91 0.036755 -1.57557 0
M  V30 13723 C 1255.85 1.05823 -2.07133 0
M  V30 13724 C 1256.85 1.37923 -0.983546 0
M  V30 13725 O 1258.05 1.36918 -1.16848 0
M  V30 13726 H 1254.43 0.358761 -0.660905 0
M  V30 13727 H 1256.4 0.614232 -2.9201 0
M  V30 13728 C 1255.15 2.35302 -2.55985 0
M  V30 13729 H 1254.47 2.11461 -3.393 0
M  V30 13730 H 1255.91 3.05139 -2.94391 0
M  V30 13731 C 1254.37 3.0373 -1.45773 0
M  V30 13732 O 1254.9 3.9325 -0.819587 0
M  V30 13733 N 1253.11 2.64931 -1.19416 0
M  V30 13734 H 1252.65 1.92219 -1.71492 0
M  V30 13735 H 1252.61 3.11033 -0.458865 0
M  V30 13736 N 1256.39 1.54543 0.308881 0
M  V30 13737 C 1257.32 1.87947 1.38557 0
M  V30 13738 C 1258.3 0.737622 1.53275 0
M  V30 13739 O 1259.48 0.992664 1.66913 0
M  V30 13740 C 1256.61 2.11982 2.75102 0
M  V30 13741 C 1255.57 3.2783 2.75158 0
M  V30 13742 C 1254.89 3.37266 4.14917 0
M  V30 13743 C 1256.19 4.65129 2.37598 0
M  V30 13744 H 1257.89 2.78123 1.1085 0
M  V30 13745 H 1255.43 1.3382 0.531808 0
M  V30 13746 H 1257.38 2.33935 3.50503 0
M  V30 13747 H 1256.11 1.18569 3.04317 0
M  V30 13748 H 1254.77 3.05787 2.02212 0
M  V30 13749 H 1254.42 2.41384 4.41296 0
M  V30 13750 H 1254.12 4.15135 4.15857 0
M  V30 13751 H 1255.64 3.61471 4.92109 0
M  V30 13752 H 1257.05 4.86865 3.02714 0
M  V30 13753 H 1255.45 5.45653 2.49765 0
M  V30 13754 H 1256.52 4.6638 1.32731 0
M  V30 13755 N 1257.86 -0.571685 1.46866 0
M  V30 13756 C 1258.81 -1.70098 1.58649 0
M  V30 13757 C 1259.81 -1.63191 0.45443 0
M  V30 13758 O 1261.01 -1.68551 0.63171 0
M  V30 13759 H 1257.39 -0.56258 0.499007 0
M  V30 13760 H 1259.36 -1.57293 2.53577 0
M  V30 13761 C 1258.11 -3.08475 1.60433 0
M  V30 13762 H 1257.43 -3.14465 2.46884 0
M  V30 13763 H 1258.87 -3.87221 1.7273 0
M  V30 13764 C 1257.33 -3.35231 0.334948 0
M  V30 13765 O 1257.86 -3.97633 -0.570149 0
M  V30 13766 N 1256.06 -2.8977 0.219441 0
M  V30 13767 H 1255.61 -2.39168 0.956891 0
M  V30 13768 H 1255.57 -3.08044 -0.628975 0
M  V30 13769 N 1259.34 -1.34755 -0.817236 0
M  V30 13770 C 1260.76 -1.14561 -1.11121 0
M  V30 13771 C 1260.96 0.0490776 -2.0144 0
M  V30 13772 O 1260.01 0.722897 -2.41931 0
M  V30 13773 C 1261.33 -2.44356 -1.75244 0
M  V30 13774 C 1262.87 -2.50465 -1.87713 0
M  V30 13775 C 1263.35 -3.80276 -2.55253 0
M  V30 13776 N 1264.84 -3.81468 -2.62747 0
M  V30 13777 C 1265.58 -4.78634 -3.15749 0
M  V30 13778 N 1265.07 -5.86184 -3.6927 0
M  V30 13779 N 1266.86 -4.66083 -3.14203 0
M  V30 13780 H 1259.02 -2.11293 -0.2166 0
M  V30 13781 H 1261.28 -0.934629 -0.158661 0
M  V30 13782 H 1260.98 -3.31899 -1.16344 0
M  V30 13783 H 1260.86 -2.58117 -2.75055 0
M  V30 13784 H 1263.25 -1.63358 -2.45761 0
M  V30 13785 H 1263.33 -2.40627 -0.867887 0
M  V30 13786 H 1262.97 -4.67776 -1.97858 0
M  V30 13787 H 1262.9 -3.87399 -3.56693 0
M  V30 13788 H 1265.39 -3.03753 -2.24817 0
M  V30 13789 H 1265.7 -6.56332 -4.0798 0
M  V30 13790 H 1264.05 -5.8989 -3.67498 0
M  V30 13791 H 1267.24 -3.81206 -2.7166 0
M  V30 13792 H 1267.41 -5.41973 -3.55203 0
M  V30 13793 N 1260.82 1.03812 -1.18578 0
M  V30 13794 C 1262.07 1.77319 -0.984173 0
M  V30 13795 C 1262.4 1.88052 0.484789 0
M  V30 13796 O 1261.67 1.3905 1.35998 0
M  V30 13797 C 1261.96 3.20448 -1.6427 0
M  V30 13798 C 1261.81 3.17643 -3.1847 0
M  V30 13799 C 1263.13 4.18623 -1.35805 0
M  V30 13800 H 1260.25 0.643681 -0.358949 0
M  V30 13801 H 1262.89 1.21249 -1.46283 0
M  V30 13802 H 1261.04 3.68324 -1.23572 0
M  V30 13803 H 1262.71 2.77738 -3.6832 0
M  V30 13804 H 1260.95 2.55606 -3.50497 0
M  V30 13805 H 1261.63 4.18724 -3.59686 0
M  V30 13806 H 1264.1 3.79306 -1.71073 0
M  V30 13807 H 1262.98 5.16982 -1.84446 0
M  V30 13808 H 1263.24 4.41203 -0.281418 0
M  V30 13809 N 1262.3 0.988223 1.22768 0
M  V30 13810 C 1263.23 0.554478 2.26821 0
M  V30 13811 C 1264.21 -0.416293 1.64927 0
M  V30 13812 O 1265.39 -0.30795 1.91743 0
M  V30 13813 C 1262.52 -0.136266 3.47033 0
M  V30 13814 C 1261.48 0.752575 4.21332 0
M  V30 13815 C 1260.8 -0.0708236 5.34653 0
M  V30 13816 C 1262.1 2.04717 4.80508 0
M  V30 13817 H 1263.8 1.42423 2.63355 0
M  V30 13818 H 1261.34 0.686267 1.26595 0
M  V30 13819 H 1263.3 -0.451068 4.18979 0
M  V30 13820 H 1262.02 -1.04053 3.09581 0
M  V30 13821 H 1260.68 1.05095 3.51213 0
M  V30 13822 H 1260.33 -0.975859 4.93443 0
M  V30 13823 H 1260.03 0.520835 5.85287 0
M  V30 13824 H 1261.55 -0.379828 6.09417 0
M  V30 13825 H 1262.97 1.79663 5.44421 0
M  V30 13826 H 1261.36 2.58726 5.41462 0
M  V30 13827 H 1262.43 2.72896 4.00819 0
M  V30 13828 N 1263.78 -1.38018 0.760839 0
M  V30 13829 C 1264.71 -2.32995 0.153557 0
M  V30 13830 C 1265.69 -1.55234 -0.695448 0
M  V30 13831 O 1266.87 -1.8352 -0.635148 0
M  V30 13832 C 1264 -3.39437 -0.734811 0
M  V30 13833 C 1262.96 -4.27998 0.0120287 0
M  V30 13834 C 1262.28 -5.25359 -0.995067 0
M  V30 13835 C 1263.58 -5.08687 1.18468 0
M  V30 13836 H 1265.28 -2.8403 0.946956 0
M  V30 13837 H 1262.82 -1.36562 0.456816 0
M  V30 13838 H 1264.77 -4.0485 -1.16938 0
M  V30 13839 H 1263.5 -2.86901 -1.56061 0
M  V30 13840 H 1262.16 -3.64102 0.427254 0
M  V30 13841 H 1261.81 -4.69108 -1.81512 0
M  V30 13842 H 1261.51 -5.85469 -0.499969 0
M  V30 13843 H 1263.03 -5.93648 -1.4288 0
M  V30 13844 H 1264.44 -5.67299 0.8273 0
M  V30 13845 H 1262.84 -5.78068 1.61112 0
M  V30 13846 H 1263.91 -4.42 1.99409 0
M  V30 13847 N 1265.25 -0.510493 -1.49103 0
M  V30 13848 C 1266.16 0.267176 -2.33074 0
M  V30 13849 C 1267.18 0.958117 -1.45245 0
M  V30 13850 O 1268.36 0.937399 -1.78255 0
M  V30 13851 C 1265.42 1.31212 -3.20911 0
M  V30 13852 C 1264.48 0.633613 -4.24598 0
M  V30 13853 C 1263.71 1.62878 -5.08239 0
M  V30 13854 O 1263.94 2.85958 -4.93543 0
M  V30 13855 O 1262.87 1.17887 -5.90242 0
M  V30 13856 H 1266.7 -0.420384 -3.00776 0
M  V30 13857 H 1264.28 -0.271683 -1.46909 0
M  V30 13858 H 1266.16 1.91647 -3.75299 0
M  V30 13859 H 1264.84 1.98244 -2.55892 0
M  V30 13860 H 1263.75 -0.0107246 -3.74098 0
M  V30 13861 H 1265.08 0.0055777 -4.922 0
M  V30 13862 N 1266.73 1.55688 -0.24474 0
M  V30 13863 C 1267.68 2.22682 0.67198 0
M  V30 13864 C 1268.67 1.21369 1.18178 0
M  V30 13865 O 1269.88 1.39387 1.13892 0
M  V30 13866 H 1266.25 0.714279 0.235181 0
M  V30 13867 H 1268.23 2.98282 0.0837704 0
M  V30 13868 C 1266.97 2.93835 1.85893 0
M  V30 13869 H 1266.3 3.71565 1.4758 0
M  V30 13870 H 1267.74 3.44077 2.47764 0
M  V30 13871 C 1266.2 1.97589 2.72874 0
M  V30 13872 O 1266.73 1.50758 3.72337 0
M  V30 13873 N 1264.93 1.64737 2.39395 0
M  V30 13874 H 1264.48 2.03015 1.58564 0
M  V30 13875 H 1264.44 1.00605 2.97869 0
M  V30 13876 N 1268.21 -0.0283989 1.57574 0
M  V30 13877 C 1269.46 -0.720142 1.89583 0
M  V30 13878 C 1269.79 -1.7497 0.842562 0
M  V30 13879 O 1269.06 -1.93979 -0.142294 0
M  V30 13880 C 1269.35 -1.38909 3.32229 0
M  V30 13881 C 1269.2 -0.372998 4.48251 0
M  V30 13882 C 1270.52 -2.32289 3.73804 0
M  V30 13883 H 1267.64 -0.26033 0.689491 0
M  V30 13884 H 1270.28 0.0170607 1.89992 0
M  V30 13885 H 1268.43 -2.01744 3.32011 0
M  V30 13886 H 1270.1 0.253492 4.60603 0
M  V30 13887 H 1268.34 0.30765 4.32708 0
M  V30 13888 H 1269.02 -0.879549 5.44948 0
M  V30 13889 H 1271.49 -1.79497 3.75393 0
M  V30 13890 H 1270.37 -2.76075 4.74419 0
M  V30 13891 H 1270.63 -3.18992 3.06099 0
M  V30 13892 N 1269.69 -1.54705 -0.300681 0
M  V30 13893 C 1270.62 -1.88679 -1.37559 0
M  V30 13894 C 1271.6 -0.74574 -1.52881 0
M  V30 13895 O 1272.78 -1.0015 -1.66384 0
M  V30 13896 C 1269.91 -2.13438 -2.73974 0
M  V30 13897 C 1268.87 -3.29284 -2.73415 0
M  V30 13898 C 1268.19 -3.39462 -4.13122 0
M  V30 13899 C 1269.49 -4.66382 -2.35128 0
M  V30 13900 H 1271.19 -2.78707 -1.09373 0
M  V30 13901 H 1268.73 -1.341 -0.524704 0
M  V30 13902 H 1270.69 -2.35791 -3.49257 0
M  V30 13903 H 1269.41 -1.20181 -3.03684 0
M  V30 13904 H 1268.07 -3.06855 -2.00588 0
M  V30 13905 H 1267.72 -2.43721 -4.4001 0
M  V30 13906 H 1267.42 -4.17334 -4.1365 0
M  V30 13907 H 1268.94 -3.64075 -4.90185 0
M  V30 13908 H 1270.36 -4.88463 -3.00128 0
M  V30 13909 H 1268.75 -5.4697 -2.46867 0
M  V30 13910 H 1269.82 -4.67078 -1.30256 0
M  V30 13911 N 1271.17 0.563888 -1.47167 0
M  V30 13912 C 1272.58 1.14603 -1.47388 0
M  V30 13913 C 1272.93 1.94907 -0.224916 0
M  V30 13914 O 1272.05 2.05745 0.670672 0
M  V30 13915 C 1272.65 2.08501 -2.67044 0
M  V30 13916 C 1271.21 2.62 -2.70246 0
M  V30 13917 C 1270.35 1.38244 -2.40383 0
M  V30 13918 H 1273.31 0.350833 -1.54774 0
M  V30 13919 H 1273.33 2.92272 -2.43634 0
M  V30 13920 H 1272.84 1.50027 -3.57929 0
M  V30 13921 H 1270.94 3.24292 -1.83482 0
M  V30 13922 H 1271.05 3.0345 -3.70749 0
M  V30 13923 H 1269.42 1.68692 -1.90827 0
M  V30 13924 H 1270.2 0.815726 -3.33468 0
M  V30 13925 N 1272.64 1.35187 0.810078 0
M  V30 13926 C 1273.61 1.27698 1.90331 0
M  V30 13927 C 1274.61 0.189216 1.59683 0
M  V30 13928 O 1275.8 0.442689 1.68481 0
M  V30 13929 C 1272.93 0.974631 3.26671 0
M  V30 13930 H 1274.12 2.24902 1.98392 0
M  V30 13931 H 1271.68 1.1966 1.00554 0
M  V30 13932 H 1272.41 0.0063068 3.24299 0
M  V30 13933 H 1272.2 1.76158 3.50301 0
M  V30 13934 H 1273.69 0.947743 4.06703 0
M  V30 13935 N 1274.12 -1.03182 1.19127 0
M  V30 13936 C 1275.07 -2.09735 0.894172 0
M  V30 13937 C 1276.06 -1.60291 -0.139805 0
M  V30 13938 O 1277.25 -1.76879 0.065477 0
M  V30 13939 C 1274.38 -3.40578 0.431418 0
M  V30 13940 C 1273.46 -3.96764 1.49797 0
M  V30 13941 N 1273.85 -4.2665 2.71668 0
M  V30 13942 C 1272.15 -4.24741 1.36057 0
M  V30 13943 C 1272.85 -4.71737 3.40352 0
M  V30 13944 N 1271.83 -4.73091 2.67742 0
M  V30 13945 H 1275.63 -2.3073 1.82047 0
M  V30 13946 H 1273.15 -1.21016 1.083 0
M  V30 13947 H 1275.14 -4.1642 0.20004 0
M  V30 13948 H 1273.8 -3.21005 -0.488432 0
M  V30 13949 H 1274.81 -4.16023 3.08457 0
M  V30 13950 H 1271.49 -4.14447 0.503948 0
M  V30 13951 H 1272.88 -5.03806 4.44555 0
M  V30 13952 N 1275.6 -0.99472 -1.22242 0
M  V30 13953 C 1276.85 -0.672596 -1.91322 0
M  V30 13954 C 1277.18 0.793542 -1.77247 0
M  V30 13955 O 1276.45 1.57407 -1.14251 0
M  V30 13956 C 1276.74 -1.08155 -3.43474 0
M  V30 13957 C 1276.59 -2.60638 -3.6659 0
M  V30 13958 C 1277.91 -0.636161 -4.35478 0
M  V30 13959 H 1275.03 -0.24582 -0.694796 0
M  V30 13960 H 1277.67 -1.23857 -1.44082 0
M  V30 13961 H 1275.82 -0.599987 -3.83839 0
M  V30 13962 H 1277.49 -3.16479 -3.35617 0
M  V30 13963 H 1275.74 -3.02624 -3.10808 0
M  V30 13964 H 1276.41 -2.84304 -4.73155 0
M  V30 13965 H 1278.88 -1.04982 -4.02639 0
M  V30 13966 H 1277.76 -0.950584 -5.40606 0
M  V30 13967 H 1278.02 0.4631 -4.39668 0
M  V30 13968 N 1277.08 1.37613 -0.768148 0
M  V30 13969 C 1278.04 2.28653 -0.158283 0
M  V30 13970 C 1279.04 1.47862 0.631936 0
M  V30 13971 O 1280.23 1.68124 0.456055 0
M  V30 13972 C 1277.36 3.31776 0.783435 0
M  V30 13973 H 1278.56 2.84094 -0.960772 0
M  V30 13974 H 1276.11 1.46818 -0.536116 0
M  V30 13975 H 1276.84 2.81452 1.61106 0
M  V30 13976 H 1276.63 3.91488 0.219016 0
M  V30 13977 H 1278.12 3.99816 1.20568 0
M  V30 13978 N 1278.56 0.518393 1.4883 0
M  V30 13979 C 1279.47 -0.254811 2.33212 0
M  V30 13980 C 1280.48 -0.950401 1.45751 0
M  V30 13981 O 1281.66 -0.927932 1.78749 0
M  V30 13982 C 1278.72 -1.29509 3.21603 0
M  V30 13983 C 1277.78 -0.611086 4.24928 0
M  V30 13984 C 1277.02 -1.6018 5.09095 0
M  V30 13985 O 1277.24 -2.83336 4.95052 0
M  V30 13986 O 1276.17 -1.14756 5.90859 0
M  V30 13987 H 1280 0.436329 3.00549 0
M  V30 13988 H 1277.59 0.27947 1.46763 0
M  V30 13989 H 1279.47 -1.89654 3.7631 0
M  V30 13990 H 1278.14 -1.96884 2.5694 0
M  V30 13991 H 1277.05 0.0305638 3.74088 0
M  V30 13992 H 1278.38 0.0205249 4.92196 0
M  V30 13993 N 1280.03 -1.55556 0.252993 0
M  V30 13994 C 1280.98 -2.18298 -0.658028 0
M  V30 13995 C 1281.97 -1.14072 -1.13474 0
M  V30 13996 O 1283.16 -1.39962 -1.0835 0
M  V30 13997 C 1280.29 -2.89067 -1.8519 0
M  V30 13998 C 1279.38 -4.00556 -1.3934 0
M  V30 13999 N 1279.77 -5.01612 -0.649538 0
M  V30 14000 C 1278.06 -4.13222 -1.67819 0
M  V30 14001 C 1278.77 -5.80244 -0.411347 0
M  V30 14002 N 1277.74 -5.34742 -0.977342 0
M  V30 14003 H 1281.54 -2.93787 -0.0816162 0
M  V30 14004 H 1279.06 -1.62305 0.0555728 0
M  V30 14005 H 1281.05 -3.32448 -2.51563 0
M  V30 14006 H 1279.71 -2.15082 -2.43248 0
M  V30 14007 H 1280.73 -5.17036 -0.299043 0
M  V30 14008 H 1277.4 -3.50414 -2.26972 0
M  V30 14009 H 1278.79 -6.71651 0.182911 0
M  V30 14010 N 1281.51 0.0200419 -1.57587 0
M  V30 14011 C 1282.76 0.709027 -1.89681 0
M  V30 14012 C 1283.09 1.74876 -0.851396 0
M  V30 14013 O 1282.34 1.95151 0.146483 0
M  V30 14014 C 1282.64 1.40729 -3.28527 0
M  V30 14015 C 1282.31 0.502686 -4.48089 0
M  V30 14016 C 1280.97 0.253558 -4.80532 0
M  V30 14017 C 1283.32 -0.121338 -5.21059 0
M  V30 14018 C 1280.65 -0.628221 -5.83327 0
M  V30 14019 C 1283 -0.990873 -6.24792 0
M  V30 14020 C 1281.67 -1.24937 -6.55703 0
M  V30 14021 H 1280.94 0.259451 -0.694094 0
M  V30 14022 H 1283.58 -0.03118 -1.91475 0
M  V30 14023 H 1281.89 2.22105 -3.22764 0
M  V30 14024 H 1283.58 1.94609 -3.50611 0
M  V30 14025 H 1280.17 0.707018 -4.22728 0
M  V30 14026 H 1284.36 0.0581516 -4.96266 0
M  V30 14027 H 1279.61 -0.836712 -6.05648 0
M  V30 14028 H 1283.79 -1.48087 -6.80473 0
M  V30 14029 H 1281.42 -1.93436 -7.35178 0
M  V30 14030 N 1282.99 1.54862 0.292472 0
M  V30 14031 C 1283.92 1.89406 1.36556 0
M  V30 14032 C 1284.9 0.753838 1.52484 0
M  V30 14033 O 1286.09 1.01031 1.6585 0
M  V30 14034 C 1283.22 2.14888 2.72838 0
M  V30 14035 C 1282.17 3.3073 2.71665 0
M  V30 14036 C 1281.5 3.41648 4.11316 0
M  V30 14037 C 1282.8 4.67622 2.32651 0
M  V30 14038 H 1284.49 2.79284 1.07894 0
M  V30 14039 H 1282.04 1.34377 0.517585 0
M  V30 14040 H 1283.99 2.3764 3.48002 0
M  V30 14041 H 1282.71 1.2179 3.03042 0
M  V30 14042 H 1281.37 3.07915 1.98958 0
M  V30 14043 H 1281.02 2.46051 4.38711 0
M  V30 14044 H 1280.72 4.19522 4.11431 0
M  V30 14045 H 1282.24 3.6667 4.88248 0
M  V30 14046 H 1283.66 4.90048 2.97533 0
M  V30 14047 H 1282.06 5.48272 2.43963 0
M  V30 14048 H 1283.13 4.67762 1.27777 0
M  V30 14049 N 1284.47 -0.556076 1.47464 0
M  V30 14050 C 1285.43 -1.64515 1.59586 0
M  V30 14051 C 1286.43 -1.53751 0.470881 0
M  V30 14052 O 1287.62 -1.57889 0.735979 0
M  V30 14053 C 1284.75 -3.0406 1.54143 0
M  V30 14054 H 1285.95 -1.55116 2.56669 0
M  V30 14055 H 1283.5 -0.776087 1.35671 0
M  V30 14056 H 1284.23 -3.18991 0.584395 0
M  V30 14057 H 1284.02 -3.13282 2.3579 0
M  V30 14058 H 1285.51 -3.8329 1.65766 0
M  V30 14059 N 1285.95 -1.35615 -0.802897 0
M  V30 14060 C 1287.36 -1.15733 -1.099 0
M  V30 14061 C 1287.56 0.0277094 -2.01481 0
M  V30 14062 O 1286.62 0.697196 -2.42684 0
M  V30 14063 C 1287.93 -2.46201 -1.72643 0
M  V30 14064 C 1289.48 -2.52442 -1.85046 0
M  V30 14065 C 1289.96 -3.82962 -2.51205 0
M  V30 14066 N 1291.45 -3.84234 -2.58686 0
M  V30 14067 C 1292.18 -4.81956 -3.10654 0
M  V30 14068 N 1291.68 -5.90068 -3.63032 0
M  V30 14069 N 1293.47 -4.69389 -3.09241 0
M  V30 14070 H 1285.62 -2.11511 -0.194177 0
M  V30 14071 H 1287.88 -0.936259 -0.148739 0
M  V30 14072 H 1287.59 -3.33114 -1.12817 0
M  V30 14073 H 1287.46 -2.6102 -2.72302 0
M  V30 14074 H 1289.85 -1.65955 -2.44014 0
M  V30 14075 H 1289.93 -2.41534 -0.842316 0
M  V30 14076 H 1289.58 -4.69848 -1.92885 0
M  V30 14077 H 1289.51 -3.9116 -3.52564 0
M  V30 14078 H 1292 -3.0612 -2.21582 0
M  V30 14079 H 1292.31 -6.60623 -4.00996 0
M  V30 14080 H 1290.66 -5.93755 -3.6122 0
M  V30 14081 H 1293.85 -3.84066 -2.67602 0
M  V30 14082 H 1294.02 -5.4571 -3.49435 0
M  V30 14083 N 1287.43 1.02549 -1.19673 0
M  V30 14084 C 1288.65 1.8016 -1.02748 0
M  V30 14085 C 1289.08 1.83372 0.419105 0
M  V30 14086 O 1288.43 1.26222 1.30144 0
M  V30 14087 C 1288.48 3.22907 -1.60509 0
M  V30 14088 O 1287.59 4.03823 -0.836702 0
M  V30 14089 H 1286.93 0.556027 -0.362946 0
M  V30 14090 H 1289.46 1.29047 -1.5877 0
M  V30 14091 H 1289.47 3.73646 -1.63868 0
M  V30 14092 H 1288.14 3.19885 -2.65794 0
M  V30 14093 H 1286.72 3.6245 -0.876626 0
M  V30 14094 N 1288.9 1.00119 1.21713 0
M  V30 14095 C 1289.83 0.578504 2.2622 0
M  V30 14096 C 1290.81 -0.398777 1.6536 0
M  V30 14097 O 1292 -0.287596 1.92059 0
M  V30 14098 C 1289.13 -0.0994508 3.47158 0
M  V30 14099 C 1288.08 0.79722 4.2051 0
M  V30 14100 C 1287.41 -0.0141125 5.34698 0
M  V30 14101 C 1288.71 2.09802 4.7831 0
M  V30 14102 H 1290.4 1.45208 2.6183 0
M  V30 14103 H 1287.95 0.699656 1.2586 0
M  V30 14104 H 1289.9 -0.406605 4.19434 0
M  V30 14105 H 1288.63 -1.00763 3.10667 0
M  V30 14106 H 1287.29 1.08814 3.50079 0
M  V30 14107 H 1286.93 -0.923468 4.9445 0
M  V30 14108 H 1286.63 0.582883 5.84702 0
M  V30 14109 H 1288.16 -0.31517 6.09786 0
M  V30 14110 H 1289.57 1.85427 5.42485 0
M  V30 14111 H 1287.97 2.64455 5.38687 0
M  V30 14112 H 1289.04 2.77132 3.97902 0
M  V30 14113 N 1290.38 -1.37203 0.775435 0
M  V30 14114 C 1291.33 -2.30228 0.162388 0
M  V30 14115 C 1292.3 -1.51284 -0.685747 0
M  V30 14116 O 1293.48 -1.7984 -0.637342 0
M  V30 14117 C 1290.62 -3.37762 -0.707858 0
M  V30 14118 C 1289.74 -4.31714 0.157287 0
M  V30 14119 C 1288.87 -5.26325 -0.718012 0
M  V30 14120 C 1287.91 -6.11918 0.149442 0
M  V30 14121 N 1287.05 -6.9876 -0.684043 0
M  V30 14122 H 1291.89 -2.82073 0.961184 0
M  V30 14123 H 1289.42 -1.38854 0.485587 0
M  V30 14124 H 1291.38 -3.98741 -1.22726 0
M  V30 14125 H 1290.01 -2.87273 -1.47222 0
M  V30 14126 H 1289.06 -3.7201 0.794533 0
M  V30 14127 H 1290.38 -4.91909 0.826262 0
M  V30 14128 H 1289.53 -5.92526 -1.30376 0
M  V30 14129 H 1288.27 -4.6655 -1.42066 0
M  V30 14130 H 1287.27 -5.44692 0.747697 0
M  V30 14131 H 1288.5 -6.73766 0.849476 0
M  V30 14132 H 1286.45 -6.41508 -1.37124 0
M  V30 14133 H 1286.36 -7.55965 -0.0724464 0
M  V30 14134 H 1287.63 -7.69346 -1.25407 0
M  V30 14135 N 1291.86 -0.526279 -1.48553 0
M  V30 14136 C 1292.81 0.251938 -2.31232 0
M  V30 14137 C 1293.8 0.938991 -1.40994 0
M  V30 14138 O 1295.01 0.863798 -1.57919 0
M  V30 14139 H 1291.38 0.100114 -0.745306 0
M  V30 14140 H 1293.35 -0.465013 -2.94754 0
M  V30 14141 C 1292.1 1.28816 -3.22958 0
M  V30 14142 H 1291.43 0.768899 -3.92337 0
M  V30 14143 H 1292.87 1.80417 -3.837 0
M  V30 14144 C 1291.32 2.31982 -2.44307 0
M  V30 14145 O 1291.85 3.3835 -2.16523 0
M  V30 14146 N 1290.06 2.051 -2.05869 0
M  V30 14147 H 1289.61 1.18618 -2.28665 0
M  V30 14148 H 1289.57 2.74349 -1.53557 0
M  V30 14149 N 1293.34 1.5542 -0.261239 0
M  V30 14150 C 1294.25 2.25627 0.642625 0
M  V30 14151 C 1295.26 1.27732 1.18155 0
M  V30 14152 O 1296.44 1.60639 1.21479 0
M  V30 14153 C 1293.5 2.95303 1.8165 0
M  V30 14154 C 1292.57 4.08644 1.31563 0
M  V30 14155 C 1291.8 4.74988 2.43355 0
M  V30 14156 O 1292.02 4.40474 3.62407 0
M  V30 14157 O 1290.96 5.63217 2.12299 0
M  V30 14158 H 1294.78 3.03609 0.0743091 0
M  V30 14159 H 1292.37 1.49372 -0.0291754 0
M  V30 14160 H 1294.25 3.3914 2.50125 0
M  V30 14161 H 1292.92 2.2025 2.37217 0
M  V30 14162 H 1291.83 3.69294 0.597746 0
M  V30 14163 H 1293.16 4.85558 0.805878 0
M  V30 14164 N 1294.82 -0.0116844 1.57596 0
M  V30 14165 C 1295.73 -1.02342 2.111 0
M  V30 14166 C 1296.74 -1.38478 1.05355 0
M  V30 14167 O 1297.92 -1.47447 1.37191 0
M  V30 14168 C 1294.98 -2.30016 2.5941 0
M  V30 14169 C 1294.04 -2.003 3.79708 0
M  V30 14170 C 1293.28 -3.21888 4.25704 0
M  V30 14171 O 1293.5 -4.33171 3.71106 0
M  V30 14172 O 1292.43 -3.0657 5.17975 0
M  V30 14173 H 1296.26 -0.598637 2.97742 0
M  V30 14174 H 1293.84 -0.229779 1.47622 0
M  V30 14175 H 1295.73 -3.05044 2.90733 0
M  V30 14176 H 1294.4 -2.71755 1.75871 0
M  V30 14177 H 1293.31 -1.22785 3.53376 0
M  V30 14178 H 1294.64 -1.63406 4.64284 0
M  V30 14179 N 1296.29 -1.55015 -0.284256 0
M  V30 14180 C 1297.22 -1.90128 -1.3555 0
M  V30 14181 C 1298.2 -0.761914 -1.52082 0
M  V30 14182 O 1299.39 -1.01909 -1.65312 0
M  V30 14183 C 1296.52 -2.16332 -2.71695 0
M  V30 14184 C 1295.47 -3.32166 -2.69907 0
M  V30 14185 C 1294.8 -3.43824 -4.09498 0
M  V30 14186 C 1296.1 -4.6885 -2.30168 0
M  V30 14187 H 1297.79 -2.79852 -1.06411 0
M  V30 14188 H 1295.34 -1.34649 -0.510451 0
M  V30 14189 H 1297.29 -2.39482 -3.46737 0
M  V30 14190 H 1296.02 -1.23395 -3.02392 0
M  V30 14191 H 1294.68 -3.08965 -1.97322 0
M  V30 14192 H 1294.32 -2.48375 -4.374 0
M  V30 14193 H 1294.02 -4.21698 -4.092 0
M  V30 14194 H 1295.55 -3.69254 -4.86296 0
M  V30 14195 H 1296.96 -4.91619 -2.9493 0
M  V30 14196 H 1295.36 -5.49558 -2.41052 0
M  V30 14197 H 1296.43 -4.68433 -1.25294 0
M  V30 14198 N 1297.77 0.548248 -1.47757 0
M  V30 14199 C 1299 1.32827 -1.58242 0
M  V30 14200 C 1299.41 1.87736 -0.234936 0
M  V30 14201 O 1298.75 1.66163 0.78329 0
M  V30 14202 C 1298.81 2.52906 -2.55497 0
M  V30 14203 C 1298.48 2.19218 -4.00989 0
M  V30 14204 C 1299.48 1.75976 -4.89212 0
M  V30 14205 C 1297.16 2.30302 -4.46392 0
M  V30 14206 C 1299.15 1.44258 -6.20861 0
M  V30 14207 C 1296.84 1.98197 -5.78067 0
M  V30 14208 C 1297.84 1.55244 -6.65123 0
M  V30 14209 O 1297.53 1.23551 -7.94349 0
M  V30 14210 H 1297.26 0.41088 -0.536799 0
M  V30 14211 H 1299.81 0.670055 -1.94163 0
M  V30 14212 H 1298.04 3.21648 -2.14661 0
M  V30 14213 H 1299.73 3.14979 -2.56014 0
M  V30 14214 H 1300.5 1.66898 -4.55379 0
M  V30 14215 H 1296.38 2.62693 -3.78832 0
M  V30 14216 H 1299.92 1.10659 -6.88767 0
M  V30 14217 H 1295.82 2.0691 -6.1144 0
M  V30 14218 H 1296.59 1.37105 -8.06935 0
M  V30 14219 N 1299.25 1.36039 0.795694 0
M  V30 14220 C 1300.2 1.26386 1.89765 0
M  V30 14221 C 1301.18 0.156711 1.60135 0
M  V30 14222 O 1302.38 0.388946 1.72674 0
M  V30 14223 C 1299.5 1.04907 3.26878 0
M  V30 14224 C 1298.59 2.20061 3.62538 0
M  V30 14225 N 1298.98 3.45347 3.69553 0
M  V30 14226 C 1297.28 2.11688 3.92561 0
M  V30 14227 C 1297.98 4.21138 4.0127 0
M  V30 14228 N 1296.96 3.5001 4.15925 0
M  V30 14229 H 1300.76 2.21295 1.93405 0
M  V30 14230 H 1298.27 1.28668 0.990877 0
M  V30 14231 H 1300.27 0.960791 4.05678 0
M  V30 14232 H 1298.93 0.108921 3.24517 0
M  V30 14233 H 1299.94 3.79561 3.52355 0
M  V30 14234 H 1296.62 1.25592 3.98162 0
M  V30 14235 H 1298.01 5.29456 4.13673 0
M  V30 14236 N 1300.73 -1.01913 1.20215 0
M  V30 14237 C 1301.66 -2.10513 0.906476 0
M  V30 14238 C 1302.67 -1.62463 -0.104758 0
M  V30 14239 O 1303.86 -1.78055 0.12593 0
M  V30 14240 C 1300.96 -3.3722 0.337012 0
M  V30 14241 C 1300.14 -4.14417 1.39917 0
M  V30 14242 C 1299.19 -5.19428 0.841489 0
M  V30 14243 O 1298.22 -5.48486 1.52157 0
M  V30 14244 N 1299.42 -5.79442 -0.350365 0
M  V30 14245 H 1302.19 -2.36465 1.84132 0
M  V30 14246 H 1299.75 -1.18283 1.10548 0
M  V30 14247 H 1301.74 -4.04669 -0.0501507 0
M  V30 14248 H 1300.31 -3.08538 -0.502325 0
M  V30 14249 H 1299.53 -3.41975 1.96078 0
M  V30 14250 H 1300.82 -4.62777 2.1146 0
M  V30 14251 H 1300.22 -5.58166 -0.920204 0
M  V30 14252 H 1298.77 -6.48252 -0.679194 0
M  V30 14253 N 1302.21 -1.00763 -1.2118 0
M  V30 14254 C 1303.43 -0.710515 -1.9485 0
M  V30 14255 C 1303.86 0.720934 -1.73736 0
M  V30 14256 O 1303.21 1.49484 -1.02588 0
M  V30 14257 C 1303.26 -1.04035 -3.45267 0
M  V30 14258 O 1302.37 -0.147047 -4.12138 0
M  V30 14259 H 1301.71 -0.264472 -0.609057 0
M  V30 14260 H 1304.24 -1.34858 -1.53865 0
M  V30 14261 H 1304.25 -0.9883 -3.95849 0
M  V30 14262 H 1302.92 -2.08334 -3.59958 0
M  V30 14263 H 1301.5 -0.255847 -3.72021 0
M  V30 14264 N 1303.68 1.3679 -0.7827 0
M  V30 14265 C 1304.91 2.03382 -0.363207 0
M  V30 14266 C 1305.32 1.59157 1.02302 0
M  V30 14267 O 1304.67 0.773325 1.66629 0
M  V30 14268 C 1304.73 3.57889 -0.34001 0
M  V30 14269 C 1304.39 4.25289 -1.67268 0
M  V30 14270 C 1305.39 4.48647 -2.62701 0
M  V30 14271 C 1303.07 4.62899 -1.95013 0
M  V30 14272 C 1305.07 5.08686 -3.8408 0
M  V30 14273 C 1302.75 5.22657 -3.16659 0
M  V30 14274 C 1303.75 5.45489 -4.11012 0
M  V30 14275 O 1303.44 6.03995 -5.30515 0
M  V30 14276 H 1303.17 0.659452 -0.148658 0
M  V30 14277 H 1305.73 1.75885 -1.06082 0
M  V30 14278 H 1303.96 3.84477 0.414055 0
M  V30 14279 H 1305.65 4.05864 0.0539009 0
M  V30 14280 H 1306.41 4.19993 -2.42551 0
M  V30 14281 H 1302.29 4.44455 -1.22395 0
M  V30 14282 H 1305.83 5.26423 -4.57738 0
M  V30 14283 H 1301.73 5.50736 -3.3669 0
M  V30 14284 H 1302.5 6.22466 -5.31487 0
M  V30 14285 N 1305.16 0.53415 1.48272 0
M  V30 14286 C 1306.44 -0.0630181 1.95498 0
M  V30 14287 C 1306.82 -1.50877 1.47646 0
M  V30 14288 O 1306.17 -2.17358 0.704829 0
M  V30 14289 C 1306.38 0.0585475 3.48951 0
M  V30 14290 C 1307.73 -0.0985978 4.24486 0
M  V30 14291 O 1308.75 -0.0150438 3.56197 0
M  V30 14292 O 1307.61 -0.274356 5.45811 0
M  V30 14293 H 1304.7 -0.0769841 0.823409 0
M  V30 14294 H 1307.25 0.599043 1.58775 0
M  V30 14295 H 1306.02 1.06549 3.76514 0
M  V30 14296 H 1305.64 -0.642175 3.9238 0
M  V30 14297 N 1306.64 -1.55279 0.269478 0
M  V30 14298 C 1307.88 -2.01378 -0.350174 0
M  V30 14299 C 1308.24 -1.15373 -1.5347 0
M  V30 14300 O 1309.45 -1.51027 -2.22361 0
M  V30 14301 C 1307.72 -3.49904 -0.728134 0
M  V30 14302 S 1309.28 -4.17995 -1.33512 0
M  V30 14303 H 1306.09 -0.702567 -0.109179 0
M  V30 14304 H 1308.7 -1.91571 0.389994 0
M  V30 14305 H 1307.4 -4.10151 0.142925 0
M  V30 14306 H 1306.93 -3.63684 -1.49991 0
M  V30 14307 H 1308.95 -4.21153 -2.62383 0
M  V30 14308 N 1308.12 0.00332656 -1.576 0
M  V30 14309 C 1309.36 0.68989 -1.90705 0
M  V30 14310 C 1309.7 1.73608 -0.870291 0
M  V30 14311 O 1308.97 1.94181 0.111416 0
M  V30 14312 C 1309.26 1.33605 -3.34397 0
M  V30 14313 C 1309.11 0.301638 -4.48787 0
M  V30 14314 C 1310.43 2.26313 -3.77453 0
M  V30 14315 H 1307.55 0.249328 -0.693545 0
M  V30 14316 H 1310.19 -0.0472847 -1.89941 0
M  V30 14317 H 1308.34 1.96437 -3.35179 0
M  V30 14318 H 1310.01 -0.326738 -4.60141 0
M  V30 14319 H 1308.25 -0.376451 -4.32163 0
M  V30 14320 H 1308.92 0.792741 -5.46278 0
M  V30 14321 H 1311.4 1.73502 -3.78201 0
M  V30 14322 H 1310.28 2.68492 -4.78752 0
M  V30 14323 H 1310.54 3.14082 -3.11135 0
M  V30 14324 N 1309.6 1.55164 0.276031 0
M  V30 14325 C 1310.84 1.77377 1.01572 0
M  V30 14326 C 1311.2 0.56142 1.83608 0
M  V30 14327 O 1312.4 0.661745 2.60527 0
M  V30 14328 C 1310.67 3.0412 1.87738 0
M  V30 14329 S 1312.23 3.4744 2.68013 0
M  V30 14330 H 1309.05 0.62326 0.342153 0
M  V30 14331 H 1311.65 1.9339 0.286456 0
M  V30 14332 H 1310.36 3.90453 1.26389 0
M  V30 14333 H 1309.89 2.90764 2.6499 0
M  V30 14334 H 1311.9 3.06474 3.90241 0
M  V30 14335 N 1311.07 -0.540404 1.48045 0
M  V30 14336 C 1312.32 -1.2987 1.55762 0
M  V30 14337 C 1312.65 -1.92877 0.226307 0
M  V30 14338 O 1311.93 -1.7875 -0.766727 0
M  V30 14339 C 1312.21 -2.39602 2.68817 0
M  V30 14340 C 1312.06 -1.81354 4.1162 0
M  V30 14341 C 1313.38 -3.41434 2.77688 0
M  V30 14342 H 1310.5 -0.47083 0.566999 0
M  V30 14343 H 1313.14 -0.603081 1.80175 0
M  V30 14344 H 1311.29 -2.98936 2.48132 0
M  V30 14345 H 1312.97 -1.26151 4.43716 0
M  V30 14346 H 1311.21 -1.1194 4.19108 0
M  V30 14347 H 1311.88 -2.60758 4.86528 0
M  V30 14348 H 1314.36 -2.92042 2.96396 0
M  V30 14349 H 1313.23 -4.15621 3.5854 0
M  V30 14350 H 1313.49 -4.01336 1.85422 0
M  V30 14351 N 1312.55 -1.36459 -0.788468 0
M  V30 14352 C 1313.49 -1.25222 -1.90774 0
M  V30 14353 C 1314.46 -0.136188 -1.62029 0
M  V30 14354 O 1315.65 -0.307486 -1.85975 0
M  V30 14355 C 1312.77 -0.932287 -3.25616 0
M  V30 14356 C 1311.82 -2.0629 -3.73292 0
M  V30 14357 S 1312.65 -3.68084 -3.8894 0
M  V30 14358 C 1313.81 -3.38206 -5.26657 0
M  V30 14359 H 1314.04 -2.19959 -2.00013 0
M  V30 14360 H 1311.58 -1.21886 -0.947801 0
M  V30 14361 H 1313.53 -0.754514 -4.03506 0
M  V30 14362 H 1312.19 -0.00268413 -3.141 0
M  V30 14363 H 1311.39 -1.79363 -4.71004 0
M  V30 14364 H 1310.99 -2.19994 -3.02454 0
M  V30 14365 H 1313.28 -2.92158 -6.11269 0
M  V30 14366 H 1314.22 -4.35185 -5.58587 0
M  V30 14367 H 1314.63 -2.73531 -4.93802 0
M  V30 14368 N 1314.03 1.01274 -1.20754 0
M  V30 14369 C 1315.28 1.74932 -1.02005 0
M  V30 14370 C 1315.61 1.89285 0.447372 0
M  V30 14371 O 1314.86 1.41838 1.34835 0
M  V30 14372 C 1315.16 3.16862 -1.65329 0
M  V30 14373 C 1314.83 3.22476 -3.15151 0
M  V30 14374 C 1313.49 3.23715 -3.56036 0
M  V30 14375 C 1315.84 3.20332 -4.11141 0
M  V30 14376 C 1313.17 3.20487 -4.91431 0
M  V30 14377 C 1315.52 3.18646 -5.46487 0
M  V30 14378 C 1314.18 3.18191 -5.8678 0
M  V30 14379 H 1313.45 0.640121 -0.373264 0
M  V30 14380 H 1316.1 1.18751 -1.50234 0
M  V30 14381 H 1314.41 3.76225 -1.09372 0
M  V30 14382 H 1316.1 3.72556 -1.48333 0
M  V30 14383 H 1312.69 3.22249 -2.82584 0
M  V30 14384 H 1316.88 3.18541 -3.80585 0
M  V30 14385 H 1312.13 3.18468 -5.21908 0
M  V30 14386 H 1316.31 3.1594 -6.20609 0
M  V30 14387 H 1313.93 3.15443 -6.91664 0
M  V30 14388 N 1315.51 1.01404 1.20644 0
M  V30 14389 C 1316.47 0.586941 2.21557 0
M  V30 14390 C 1317.47 -0.341543 1.57131 0
M  V30 14391 O 1318.66 -0.130585 1.7371 0
M  V30 14392 C 1315.79 -0.143248 3.40599 0
M  V30 14393 H 1316.99 1.47964 2.60858 0
M  V30 14394 H 1314.54 0.803551 1.34063 0
M  V30 14395 H 1315.28 -1.05097 3.06798 0
M  V30 14396 H 1315.06 0.523716 3.88587 0
M  V30 14397 H 1316.55 -0.429504 4.15385 0
M  V30 14398 N 1316.99 -1.36373 0.789944 0
M  V30 14399 C 1318.21 -2.04011 0.373396 0
M  V30 14400 C 1318.64 -1.59171 -1.00231 0
M  V30 14401 O 1318 -0.760431 -1.64582 0
M  V30 14402 C 1318.04 -3.5783 0.446083 0
M  V30 14403 O 1317.15 -4.08759 -0.54678 0
M  V30 14404 H 1316.49 -0.644807 0.158495 0
M  V30 14405 H 1319.02 -1.74317 1.0712 0
M  V30 14406 H 1319.03 -4.06822 0.309877 0
M  V30 14407 H 1317.7 -3.89819 1.44962 0
M  V30 14408 H 1316.28 -3.71038 -0.372192 0
M  V30 14409 N 1318.47 -0.542005 -1.47987 0
M  V30 14410 C 1319.71 -0.010246 -2.01697 0
M  V30 14411 C 1320.03 1.34173 -1.42327 0
M  V30 14412 O 1321.23 1.96254 -1.87607 0
M  V30 14413 C 1319.69 0.0321032 -3.59886 0
M  V30 14414 C 1319.3 -1.31571 -4.28244 0
M  V30 14415 C 1321.04 0.512056 -4.214 0
M  V30 14416 C 1318.95 -1.23329 -5.78398 0
M  V30 14417 H 1317.88 -6.02097e-05 -0.754 0
M  V30 14418 H 1320.53 -0.687586 -1.70131 0
M  V30 14419 H 1318.91 0.774774 -3.88347 0
M  V30 14420 H 1320.09 -2.07489 -4.11442 0
M  V30 14421 H 1318.4 -1.73237 -3.78653 0
M  V30 14422 H 1321 0.591875 -5.31414 0
M  V30 14423 H 1321.34 1.52061 -3.87535 0
M  V30 14424 H 1321.87 -0.175293 -3.97414 0
M  V30 14425 H 1318.61 -2.21737 -6.16857 0
M  V30 14426 H 1318.13 -0.51567 -5.97579 0
M  V30 14427 H 1319.81 -0.928975 -6.40296 0
M  V30 14428 N 1319.94 1.55134 -0.277709 0
M  V30 14429 C 1321.35 1.85405 0.219543 0
M  V30 14430 C 1321.71 1.19973 1.55245 0
M  V30 14431 O 1320.83 0.488986 2.10803 0
M  V30 14432 C 1321.43 3.36369 0.405127 0
M  V30 14433 C 1319.98 3.66755 0.846609 0
M  V30 14434 C 1319.13 2.77238 -0.0586063 0
M  V30 14435 H 1322.08 1.50637 -0.499422 0
M  V30 14436 H 1322.1 3.59615 1.24329 0
M  V30 14437 H 1321.62 3.83963 -0.565138 0
M  V30 14438 H 1319.72 3.24662 1.82825 0
M  V30 14439 H 1319.83 4.74219 0.682135 0
M  V30 14440 H 1318.19 2.50546 0.458153 0
M  V30 14441 H 1318.98 3.27647 -1.0248 0
M  V30 14442 N 1321.42 0.00503138 1.57599 0
M  V30 14443 C 1322.7 -0.716079 1.82021 0
M  V30 14444 C 1323.08 -1.91707 0.883829 0
M  V30 14445 O 1322.43 -2.28404 -0.0662812 0
M  V30 14446 C 1322.64 -1.11706 3.3064 0
M  V30 14447 C 1323.98 -1.51881 3.96506 0
M  V30 14448 O 1325.01 -1.21071 3.34993 0
M  V30 14449 O 1323.87 -2.09191 5.04877 0
M  V30 14450 H 1320.96 -0.349112 0.7497 0
M  V30 14451 H 1323.51 0.030871 1.69672 0
M  V30 14452 H 1322.28 -0.261223 3.90427 0
M  V30 14453 H 1321.9 -1.92295 3.48006 0
M  V30 14454 N 1322.9 -1.55308 -0.267798 0
M  V30 14455 C 1324.15 -1.76159 -0.998707 0
M  V30 14456 C 1324.47 -0.565573 -1.86095 0
M  V30 14457 O 1323.73 0.45178 -1.90414 0
M  V30 14458 C 1324.03 -3.02286 -1.90678 0
M  V30 14459 C 1323.69 -4.34594 -1.20161 0
M  V30 14460 C 1322.36 -4.70553 -1.00664 0
M  V30 14461 C 1324.71 -5.16475 -0.7002 0
M  V30 14462 C 1322.04 -5.85945 -0.297629 0
M  V30 14463 C 1324.39 -6.326 -0.00475187 0
M  V30 14464 C 1323.05 -6.67195 0.20188 0
M  V30 14465 H 1322.32 -0.644613 -0.365453 0
M  V30 14466 H 1324.97 -1.89579 -0.270545 0
M  V30 14467 H 1323.27 -2.83788 -2.70133 0
M  V30 14468 H 1324.97 -3.15615 -2.47362 0
M  V30 14469 H 1321.56 -4.06334 -1.36348 0
M  V30 14470 H 1325.75 -4.89167 -0.838435 0
M  V30 14471 H 1321 -6.11268 -0.126864 0
M  V30 14472 H 1325.18 -6.95299 0.39151 0
M  V30 14473 H 1322.8 -7.56459 0.753252 0
M  V30 14474 N 1324.38 0.532545 -1.4833 0
M  V30 14475 C 1325.32 1.63737 -1.62661 0
M  V30 14476 C 1326.29 1.59348 -0.468758 0
M  V30 14477 O 1327.48 1.77812 -0.691921 0
M  V30 14478 C 1324.62 3.02006 -1.66993 0
M  V30 14479 C 1323.73 3.16648 -2.93867 0
M  V30 14480 C 1322.87 4.4546 -2.89376 0
M  V30 14481 C 1321.91 4.53622 -4.10966 0
M  V30 14482 N 1321.04 5.7382 -4.04567 0
M  V30 14483 H 1325.88 1.50828 -2.57012 0
M  V30 14484 H 1323.42 0.734348 -1.27459 0
M  V30 14485 H 1325.38 3.82105 -1.67486 0
M  V30 14486 H 1324.01 3.13693 -0.76135 0
M  V30 14487 H 1323.06 2.29817 -3.0313 0
M  V30 14488 H 1324.37 3.1854 -3.8384 0
M  V30 14489 H 1323.53 5.33848 -2.88256 0
M  V30 14490 H 1322.27 4.46085 -1.97127 0
M  V30 14491 H 1321.27 3.63642 -4.12364 0
M  V30 14492 H 1322.5 4.54738 -5.04371 0
M  V30 14493 H 1320.44 5.75347 -3.15137 0
M  V30 14494 H 1320.36 5.77196 -4.88243 0
M  V30 14495 H 1321.63 6.64502 -4.07502 0
M  V30 14496 N 1325.86 1.36875 0.78122 0
M  V30 14497 C 1326.77 1.3404 1.92537 0
M  V30 14498 C 1327.78 0.241354 1.72318 0
M  V30 14499 O 1328.96 0.475128 1.95715 0
M  V30 14500 C 1326.02 1.13708 3.27523 0
M  V30 14501 C 1325.08 2.33165 3.60462 0
M  V30 14502 C 1324.32 2.13793 4.89007 0
M  V30 14503 O 1324.54 1.11732 5.5935 0
M  V30 14504 O 1323.47 3.01762 5.20791 0
M  V30 14505 H 1327.3 2.30386 1.97879 0
M  V30 14506 H 1324.88 1.17506 0.922637 0
M  V30 14507 H 1326.77 1.0432 4.08283 0
M  V30 14508 H 1325.44 0.204306 3.23055 0
M  V30 14509 H 1324.35 2.48123 2.79974 0
M  V30 14510 H 1325.68 3.24977 3.69663 0
M  V30 14511 N 1327.33 -1.00632 1.21289 0
M  V30 14512 C 1328.58 -1.74388 1.02932 0
M  V30 14513 C 1328.91 -1.8952 -0.437327 0
M  V30 14514 O 1328.16 -1.42551 -1.3408 0
M  V30 14515 C 1328.46 -3.1598 1.67007 0
M  V30 14516 C 1328.13 -3.208 3.16857 0
M  V30 14517 C 1326.79 -3.21823 3.57748 0
M  V30 14518 C 1329.14 -3.18147 4.12834 0
M  V30 14519 C 1326.47 -3.17877 4.93124 0
M  V30 14520 C 1328.82 -3.15743 5.48169 0
M  V30 14521 C 1327.49 -3.15074 5.88459 0
M  V30 14522 H 1326.76 -0.638133 0.376653 0
M  V30 14523 H 1329.4 -1.17953 1.50862 0
M  V30 14524 H 1327.71 -3.75639 1.11365 0
M  V30 14525 H 1329.41 -3.71764 1.50307 0
M  V30 14526 H 1326 -3.20746 2.84289 0
M  V30 14527 H 1330.18 -3.16519 3.82269 0
M  V30 14528 H 1325.44 -3.15696 5.2359 0
M  V30 14529 H 1329.61 -3.12644 6.22275 0
M  V30 14530 H 1327.24 -3.11771 6.93327 0
M  V30 14531 N 1328.81 -1.02043 -1.20104 0
M  V30 14532 C 1330.04 -0.730255 -1.93264 0
M  V30 14533 C 1330.45 0.71359 -1.75227 0
M  V30 14534 O 1329.79 1.49609 -1.06597 0
M  V30 14535 C 1329.85 -0.990978 -3.45572 0
M  V30 14536 C 1329.52 -2.4247 -3.87373 0
M  V30 14537 C 1330.52 -3.40569 -3.92822 0
M  V30 14538 C 1328.2 -2.76645 -4.19253 0
M  V30 14539 C 1330.19 -4.70904 -4.29568 0
M  V30 14540 C 1327.88 -4.07192 -4.55673 0
M  V30 14541 C 1328.88 -5.04132 -4.60804 0
M  V30 14542 O 1328.57 -6.32341 -4.96386 0
M  V30 14543 H 1328.3 -0.267146 -0.620974 0
M  V30 14544 H 1330.85 -1.36557 -1.53432 0
M  V30 14545 H 1329.08 -0.298508 -3.85546 0
M  V30 14546 H 1330.77 -0.691793 -3.99961 0
M  V30 14547 H 1331.54 -3.15503 -3.68352 0
M  V30 14548 H 1327.42 -2.01876 -4.14448 0
M  V30 14549 H 1330.96 -5.46566 -4.33487 0
M  V30 14550 H 1326.86 -4.32035 -4.796 0
M  V30 14551 H 1327.63 -6.36687 -5.14365 0
M  V30 14552 N 1330.29 1.35952 -0.797165 0
M  V30 14553 C 1331.52 2.0328 -0.385316 0
M  V30 14554 C 1331.93 1.60095 1.00076 0
M  V30 14555 O 1331.29 0.794014 1.64322 0
M  V30 14556 C 1331.34 3.5871 -0.448284 0
M  V30 14557 O 1331.06 4.00323 -1.7797 0
M  V30 14558 C 1332.56 4.43291 -0.0280465 0
M  V30 14559 H 1329.78 0.652192 -0.157756 0
M  V30 14560 H 1332.33 1.73769 -1.07817 0
M  V30 14561 H 1330.48 3.86903 0.196224 0
M  V30 14562 H 1330.9 4.94941 -1.73592 0
M  V30 14563 H 1332.37 5.51862 -0.123234 0
M  V30 14564 H 1332.85 4.27059 1.02552 0
M  V30 14565 H 1333.45 4.20375 -0.645343 0
M  V30 14566 N 1331.77 0.549846 1.47697 0
M  V30 14567 C 1332.68 -0.205286 2.337 0
M  V30 14568 C 1333.69 -0.919271 1.47734 0
M  V30 14569 O 1334.87 -0.889808 1.80678 0
M  V30 14570 C 1331.94 -1.22658 3.24278 0
M  V30 14571 C 1331 -0.520815 4.26129 0
M  V30 14572 C 1330.23 -1.49345 5.12378 0
M  V30 14573 O 1330.45 -2.72772 5.00951 0
M  V30 14574 O 1329.39 -1.02197 5.93161 0
M  V30 14575 H 1333.21 0.499982 2.99556 0
M  V30 14576 H 1330.8 0.310538 1.46137 0
M  V30 14577 H 1332.68 -1.8163 3.80248 0
M  V30 14578 H 1331.35 -1.9139 2.61059 0
M  V30 14579 H 1330.26 0.109906 3.73939 0
M  V30 14580 H 1331.59 0.124922 4.92041 0
M  V30 14581 N 1333.25 -1.54984 0.285932 0
M  V30 14582 C 1334.47 -2.04699 -0.333621 0
M  V30 14583 C 1334.9 -1.16252 -1.47875 0
M  V30 14584 O 1334.25 -0.163376 -1.80562 0
M  V30 14585 C 1334.3 -3.52022 -0.78187 0
M  V30 14586 O 1333.41 -3.66639 -1.88812 0
M  V30 14587 H 1332.75 -0.660579 -0.0673203 0
M  V30 14588 H 1335.28 -2.00171 0.423386 0
M  V30 14589 H 1335.29 -3.93591 -1.07473 0
M  V30 14590 H 1333.96 -4.15862 0.055893 0
M  V30 14591 H 1332.54 -3.36974 -1.59696 0
M  V30 14592 N 1334.72 -0.0133892 -1.57594 0
M  V30 14593 C 1336 0.706416 -1.82398 0
M  V30 14594 C 1336.38 1.91236 -0.893983 0
M  V30 14595 O 1335.73 2.28436 0.0541675 0
M  V30 14596 C 1335.94 1.09951 -3.31228 0
M  V30 14597 C 1337.29 1.49776 -3.97306 0
M  V30 14598 O 1338.31 1.19293 -3.3563 0
M  V30 14599 O 1337.17 2.06511 -5.0598 0
M  V30 14600 H 1334.26 0.345131 -0.751541 0
M  V30 14601 H 1336.81 -0.0398687 -1.69653 0
M  V30 14602 H 1335.58 0.240514 -3.9056 0
M  V30 14603 H 1335.21 1.90447 -3.49021 0
M  V30 14604 N 1336.2 1.55448 0.259558 0
M  V30 14605 C 1337.45 1.76948 0.990816 0
M  V30 14606 C 1337.78 0.576401 1.85449 0
M  V30 14607 O 1337.06 -0.425693 1.89784 0
M  V30 14608 C 1337.34 3.08221 1.86204 0
M  V30 14609 C 1337.19 4.37909 1.0274 0
M  V30 14610 C 1338.51 3.35627 2.84679 0
M  V30 14611 H 1335.63 0.64377 0.358788 0
M  V30 14612 H 1338.27 1.88182 0.262211 0
M  V30 14613 H 1336.42 2.98775 2.48326 0
M  V30 14614 H 1338.09 4.5933 0.425855 0
M  V30 14615 H 1336.34 4.32533 0.331308 0
M  V30 14616 H 1337.01 5.26116 1.6705 0
M  V30 14617 H 1339.48 3.44954 2.32693 0
M  V30 14618 H 1338.36 4.28719 3.42769 0
M  V30 14619 H 1338.62 2.55921 3.60496 0
M  V30 14620 N 1337.68 -0.524672 1.4861 0
M  V30 14621 C 1338.63 -1.64965 1.6398 0
M  V30 14622 C 1339.62 -1.61663 0.506118 0
M  V30 14623 O 1340.83 -1.66456 0.685013 0
M  V30 14624 H 1337.2 -0.546419 0.516653 0
M  V30 14625 H 1339.17 -1.49146 2.58453 0
M  V30 14626 C 1337.92 -3.03215 1.70165 0
M  V30 14627 H 1337.25 -3.06451 2.56764 0
M  V30 14628 H 1338.69 -3.8153 1.84962 0
M  V30 14629 C 1337.15 -3.33996 0.44143 0
M  V30 14630 O 1337.68 -3.99246 -0.443356 0
M  V30 14631 N 1335.88 -2.88925 0.311518 0
M  V30 14632 H 1335.43 -2.36003 1.0325 0
M  V30 14633 H 1335.39 -3.09889 -0.530655 0
M  V30 14634 N 1339.16 -1.37287 -0.77395 0
M  V30 14635 C 1340.11 -1.32872 -1.88716 0
M  V30 14636 C 1341.08 -0.194655 -1.64955 0
M  V30 14637 O 1342.26 -0.383662 -1.86903 0
M  V30 14638 C 1339.4 -1.13934 -3.2575 0
M  V30 14639 C 1338.51 -2.36552 -3.61479 0
M  V30 14640 C 1337.65 -2.10504 -4.87711 0
M  V30 14641 C 1336.69 -3.28999 -5.16165 0
M  V30 14642 N 1335.82 -3.02517 -6.33584 0
M  V30 14643 H 1340.66 -2.28051 -1.91825 0
M  V30 14644 H 1338.2 -1.13325 -0.93786 0
M  V30 14645 H 1340.16 -1.00976 -4.04796 0
M  V30 14646 H 1338.79 -0.22404 -3.22022 0
M  V30 14647 H 1337.84 -2.60257 -2.77435 0
M  V30 14648 H 1339.15 -3.24931 -3.78446 0
M  V30 14649 H 1338.31 -1.94564 -5.74656 0
M  V30 14650 H 1337.05 -1.19459 -4.72843 0
M  V30 14651 H 1336.05 -3.4548 -4.27696 0
M  V30 14652 H 1337.28 -4.20892 -5.32942 0
M  V30 14653 H 1335.22 -2.14099 -6.20079 0
M  V30 14654 H 1335.14 -3.84439 -6.50955 0
M  V30 14655 H 1336.41 -2.9019 -7.23471 0
M  V30 14656 N 1340.64 0.999871 -1.21821 0
M  V30 14657 C 1341.55 2.12303 -0.99823 0
M  V30 14658 C 1342.56 1.73924 0.0512923 0
M  V30 14659 O 1343.74 2.00914 -0.139895 0
M  V30 14660 C 1340.8 3.41962 -0.571232 0
M  V30 14661 C 1339.86 3.94483 -1.69356 0
M  V30 14662 C 1339.1 5.17954 -1.28685 0
M  V30 14663 O 1339.32 5.70168 -0.162641 0
M  V30 14664 O 1338.25 5.64051 -2.10071 0
M  V30 14665 H 1342.08 2.3374 -1.93905 0
M  V30 14666 H 1339.67 1.10677 -1.00354 0
M  V30 14667 H 1341.55 4.20001 -0.343134 0
M  V30 14668 H 1340.22 3.21901 0.340814 0
M  V30 14669 H 1339.13 3.17648 -1.97612 0
M  V30 14670 H 1340.46 4.18964 -2.58322 0
M  V30 14671 N 1342.11 1.02678 1.19562 0
M  V30 14672 C 1343.36 0.72059 1.88817 0
M  V30 14673 C 1343.68 -0.752942 1.79877 0
M  V30 14674 O 1342.95 -1.54233 1.20785 0
M  V30 14675 H 1341.53 0.26355 0.698964 0
M  V30 14676 H 1344.2 1.30056 1.4516 0
M  V30 14677 H 1343.29 1.01303 2.95202 0
M  V30 14678 N 1343.59 -1.35528 0.804364 0
M  V30 14679 C 1344.52 -2.32388 0.227604 0
M  V30 14680 C 1345.5 -1.57368 -0.645709 0
M  V30 14681 O 1346.69 -1.85448 -0.576441 0
M  V30 14682 C 1343.82 -3.41603 -0.62645 0
M  V30 14683 C 1342.77 -4.27743 0.148187 0
M  V30 14684 C 1342.1 -5.28259 -0.827425 0
M  V30 14685 C 1343.4 -5.04661 1.34591 0
M  V30 14686 H 1345.09 -2.80874 1.03684 0
M  V30 14687 H 1342.64 -1.3504 0.500031 0
M  V30 14688 H 1344.59 -4.08365 -1.03999 0
M  V30 14689 H 1343.32 -2.91721 -1.46855 0
M  V30 14690 H 1341.97 -3.62558 0.542874 0
M  V30 14691 H 1341.62 -4.74645 -1.66496 0
M  V30 14692 H 1341.32 -5.86763 -0.313453 0
M  V30 14693 H 1342.85 -5.97893 -1.23921 0
M  V30 14694 H 1344.26 -5.6438 1.00736 0
M  V30 14695 H 1342.66 -5.7265 1.79422 0
M  V30 14696 H 1343.73 -4.35432 2.1337 0
M  V30 14697 N 1345.07 -0.557671 -1.47404 0
M  V30 14698 C 1345.98 0.19289 -2.33806 0
M  V30 14699 C 1347 0.911424 -1.4822 0
M  V30 14700 O 1348.17 0.880214 -1.81147 0
M  V30 14701 C 1345.24 1.20937 -3.24923 0
M  V30 14702 C 1344.3 0.498209 -4.26399 0
M  V30 14703 C 1343.53 1.46626 -5.13163 0
M  V30 14704 O 1343.76 2.70111 -5.0239 0
M  V30 14705 O 1342.69 0.990497 -5.93694 0
M  V30 14706 H 1346.52 -0.515861 -2.99287 0
M  V30 14707 H 1344.1 -0.318283 -1.4597 0
M  V30 14708 H 1345.98 1.7961 -3.81206 0
M  V30 14709 H 1344.66 1.90003 -2.6207 0
M  V30 14710 H 1343.56 -0.129736 -3.73875 0
M  V30 14711 H 1344.9 -0.151015 -4.91968 0
M  V30 14712 N 1346.55 1.54831 -0.294147 0
M  V30 14713 C 1347.79 2.0191 0.318092 0
M  V30 14714 C 1348.15 1.178 1.51615 0
M  V30 14715 O 1349.35 1.54546 2.1993 0
M  V30 14716 C 1347.63 3.51018 0.672375 0
M  V30 14717 S 1349.18 4.20066 1.26845 0
M  V30 14718 H 1346 0.704215 0.0979881 0
M  V30 14719 H 1348.6 1.90926 -0.420422 0
M  V30 14720 H 1347.31 4.09872 -0.208159 0
M  V30 14721 H 1346.84 3.66025 1.44186 0
M  V30 14722 H 1348.85 4.25274 2.55649 0
M  V30 14723 N 1348.03 0.0217466 1.57585 0
M  V30 14724 C 1348.96 -0.961069 2.12804 0
M  V30 14725 C 1349.94 -1.3442 1.04237 0
M  V30 14726 O 1351.12 -1.42412 1.32032 0
M  V30 14727 C 1348.25 -2.24586 2.64912 0
M  V30 14728 C 1347.21 -2.0037 3.78201 0
M  V30 14729 C 1346.53 -3.35051 4.16708 0
M  V30 14730 C 1347.83 -1.34879 5.04584 0
M  V30 14731 H 1349.53 -0.501222 2.95175 0
M  V30 14732 H 1347.07 -0.239649 1.41992 0
M  V30 14733 H 1349.03 -2.93715 3.02175 0
M  V30 14734 H 1347.75 -2.72723 1.79693 0
M  V30 14735 H 1346.41 -1.33662 3.41365 0
M  V30 14736 H 1346.06 -3.80932 3.28481 0
M  V30 14737 H 1345.76 -3.19656 4.93045 0
M  V30 14738 H 1347.28 -4.05459 4.56547 0
M  V30 14739 H 1348.7 -1.93997 5.3948 0
M  V30 14740 H 1347.09 -1.29906 5.85871 0
M  V30 14741 H 1348.16 -0.320774 4.83838 0
M  V30 14742 N 1349.51 -1.55583 -0.251311 0
M  V30 14743 C 1350.92 -1.47908 -0.599606 0
M  V30 14744 C 1351.12 -0.711061 -1.88537 0
M  V30 14745 O 1350.18 -0.238639 -2.5137 0
M  V30 14746 C 1351.49 -2.92284 -0.706429 0
M  V30 14747 C 1353.04 -3.02629 -0.799049 0
M  V30 14748 C 1353.51 -4.48303 -0.93747 0
M  V30 14749 N 1355 -4.52222 -1.00245 0
M  V30 14750 C 1355.74 -5.62181 -1.12874 0
M  V30 14751 N 1355.24 -6.81958 -1.22085 0
M  V30 14752 N 1357.03 -5.49968 -1.16155 0
M  V30 14753 H 1349.18 -2.0396 0.592806 0
M  V30 14754 H 1351.44 -0.925797 0.203971 0
M  V30 14755 H 1351.15 -3.51297 0.168243 0
M  V30 14756 H 1351.02 -3.42524 -1.57979 0
M  V30 14757 H 1353.41 -2.43699 -1.66418 0
M  V30 14758 H 1353.49 -2.55607 0.099367 0
M  V30 14759 H 1353.13 -5.07842 -0.0769166 0
M  V30 14760 H 1353.06 -4.93002 -1.85086 0
M  V30 14761 H 1355.56 -3.65951 -0.94279 0
M  V30 14762 H 1355.87 -7.6151 -1.31616 0
M  V30 14763 H 1354.21 -6.84728 -1.1905 0
M  V30 14764 H 1357.4 -4.55327 -1.08604 0
M  V30 14765 H 1357.58 -6.35701 -1.25653 0
M  V30 14766 N 1350.98 0.516783 -1.48886 0
M  V30 14767 C 1351.91 1.62897 -1.67292 0
M  V30 14768 C 1352.89 1.61903 -0.521671 0
M  V30 14769 O 1354.08 1.78892 -0.755728 0
M  V30 14770 C 1351.21 3.01444 -1.72478 0
M  V30 14771 C 1350.16 3.173 -2.87236 0
M  V30 14772 C 1349.49 4.5704 -2.77522 0
M  V30 14773 C 1350.79 2.98818 -4.28375 0
M  V30 14774 H 1352.48 1.47748 -2.60405 0
M  V30 14775 H 1350.03 0.709361 -1.25316 0
M  V30 14776 H 1351.98 3.79135 -1.83942 0
M  V30 14777 H 1350.71 3.17645 -0.759538 0
M  V30 14778 H 1349.37 2.4203 -2.75349 0
M  V30 14779 H 1349.01 4.70096 -1.78938 0
M  V30 14780 H 1348.71 4.68593 -3.54534 0
M  V30 14781 H 1350.24 5.36813 -2.90972 0
M  V30 14782 H 1351.65 3.66291 -4.41026 0
M  V30 14783 H 1350.05 3.21854 -5.06488 0
M  V30 14784 H 1351.12 1.95102 -4.43918 0
M  V30 14785 N 1352.46 1.37696 0.766659 0
M  V30 14786 C 1353.39 1.36576 1.89392 0
M  V30 14787 C 1354.37 0.233597 1.68488 0
M  V30 14788 O 1355.56 0.434719 1.89272 0
M  V30 14789 C 1352.69 1.17705 3.26746 0
M  V30 14790 C 1351.64 2.27987 3.62224 0
M  V30 14791 C 1350.97 1.94235 4.98174 0
M  V30 14792 C 1352.27 3.70195 3.68447 0
M  V30 14793 H 1353.96 2.30905 1.90587 0
M  V30 14794 H 1351.51 1.11148 0.915538 0
M  V30 14795 H 1353.46 1.15551 4.05248 0
M  V30 14796 H 1352.18 0.198334 3.25997 0
M  V30 14797 H 1350.84 2.29306 2.86032 0
M  V30 14798 H 1350.49 0.948796 4.93971 0
M  V30 14799 H 1350.19 2.68086 5.2288 0
M  V30 14800 H 1351.72 1.93676 5.7907 0
M  V30 14801 H 1353.13 3.70978 4.37091 0
M  V30 14802 H 1351.53 4.43142 4.04654 0
M  V30 14803 H 1352.6 4.03453 2.68986 0
M  V30 14804 N 1353.94 -0.993397 1.22349 0
M  V30 14805 C 1354.89 -2.10463 0.990358 0
M  V30 14806 C 1355.88 -1.6927 -0.0663528 0
M  V30 14807 O 1357.09 -1.79794 0.0860444 0
M  V30 14808 H 1353.46 -0.688222 0.303075 0
M  V30 14809 H 1355.43 -2.273 1.93333 0
M  V30 14810 C 1354.18 -3.42757 0.584205 0
M  V30 14811 H 1353.51 -3.74896 1.38899 0
M  V30 14812 H 1354.95 -4.21492 0.46049 0
M  V30 14813 C 1353.4 -3.29416 -0.706187 0
M  V30 14814 O 1353.93 -3.61152 -1.75875 0
M  V30 14815 N 1352.14 -2.82601 -0.677148 0
M  V30 14816 H 1351.69 -2.56972 0.179712 0
M  V30 14817 H 1351.65 -2.74056 -1.54081 0
M  V30 14818 N 1355.42 -1.03311 -1.19015 0
M  V30 14819 C 1356.33 -0.627735 -2.26046 0
M  V30 14820 C 1357.34 0.342483 -1.70596 0
M  V30 14821 O 1358.52 0.199307 -2.00411 0
M  V30 14822 C 1355.58 0.0108274 -3.46698 0
M  V30 14823 C 1354.65 -1.00743 -4.17312 0
M  V30 14824 C 1353.88 -0.399245 -5.32205 0
M  V30 14825 O 1354.1 0.796649 -5.64809 0
M  V30 14826 O 1353.04 -1.12419 -5.91308 0
M  V30 14827 H 1356.86 -1.51923 -2.6297 0
M  V30 14828 H 1354.45 -0.803538 -1.25951 0
M  V30 14829 H 1356.33 0.366672 -4.19802 0
M  V30 14830 H 1355 0.876265 -3.11614 0
M  V30 14831 H 1353.91 -1.41494 -3.4631 0
M  V30 14832 H 1355.24 -1.84338 -4.56377 0
M  V30 14833 N 1356.9 1.35099 -0.81154 0
M  V30 14834 C 1358.14 1.9788 -0.390695 0
M  V30 14835 C 1358.46 1.6509 1.04903 0
M  V30 14836 O 1359.66 2.21273 1.57324 0
M  V30 14837 C 1358.12 3.54025 -0.647632 0
M  V30 14838 C 1357.73 3.9572 -2.10023 0
M  V30 14839 C 1359.47 4.23492 -0.29239 0
M  V30 14840 C 1357.38 5.44731 -2.30266 0
M  V30 14841 H 1356.31 0.740441 -0.14235 0
M  V30 14842 H 1358.96 1.54098 -0.996294 0
M  V30 14843 H 1357.34 3.9599 0.0279838 0
M  V30 14844 H 1358.52 3.64893 -2.81407 0
M  V30 14845 H 1356.83 3.39157 -2.41581 0
M  V30 14846 H 1359.43 5.33035 -0.421618 0
M  V30 14847 H 1359.77 4.09268 0.76195 0
M  V30 14848 H 1360.3 3.86965 -0.922122 0
M  V30 14849 H 1357.04 5.63928 -3.34163 0
M  V30 14850 H 1356.56 5.7711 -1.63413 0
M  V30 14851 H 1358.24 6.1126 -2.12062 0
M  V30 14852 N 1358.37 0.56548 1.47106 0
M  V30 14853 C 1359.62 0.042333 2.01656 0
M  V30 14854 C 1359.94 -1.31892 1.44443 0
M  V30 14855 O 1361.14 -1.93245 1.90706 0
M  V30 14856 C 1359.6 0.0251556 3.59891 0
M  V30 14857 C 1359.21 1.38367 4.26097 0
M  V30 14858 C 1360.95 -0.44495 4.22162 0
M  V30 14859 C 1358.86 1.32516 5.76362 0
M  V30 14860 H 1357.79 0.0120557 0.753904 0
M  V30 14861 H 1360.44 0.714565 1.69015 0
M  V30 14862 H 1358.82 -0.712893 3.8953 0
M  V30 14863 H 1359.99 2.14009 4.08089 0
M  V30 14864 H 1358.31 1.79239 3.75849 0
M  V30 14865 H 1360.91 -0.507256 5.32288 0
M  V30 14866 H 1361.25 -1.45876 3.89905 0
M  V30 14867 H 1361.78 0.238496 3.97084 0
M  V30 14868 H 1358.52 2.31523 6.13252 0
M  V30 14869 H 1358.04 0.610674 5.96683 0
M  V30 14870 H 1359.72 1.03072 6.38737 0
M  V30 14871 N 1359.85 -1.54672 0.302354 0
M  V30 14872 C 1360.82 -2.22246 -0.560283 0
M  V30 14873 C 1361.82 -1.20895 -1.06023 0
M  V30 14874 O 1363.01 -1.45621 -0.956047 0
M  V30 14875 C 1360.14 -2.9099 -1.77589 0
M  V30 14876 H 1361.33 -2.99885 0.0301274 0
M  V30 14877 H 1358.88 -1.56209 0.0532036 0
M  V30 14878 H 1359.62 -2.17433 -2.4061 0
M  V30 14879 H 1359.4 -3.65288 -1.42503 0
M  V30 14880 H 1360.89 -3.42535 -2.38871 0
M  V30 14881 N 1361.33 -0.0301034 -1.57571 0
M  V30 14882 C 1362.61 0.68703 -1.83137 0
M  V30 14883 C 1362.99 1.90277 -0.914216 0
M  V30 14884 O 1362.34 2.2848 0.0299358 0
M  V30 14885 C 1362.55 1.06431 -3.32375 0
M  V30 14886 C 1363.89 1.45554 -3.98873 0
M  V30 14887 O 1364.92 1.15727 -3.36877 0
M  V30 14888 O 1363.78 2.01133 -5.08142 0
M  V30 14889 H 1360.87 0.337141 -0.755159 0
M  V30 14890 H 1363.42 -0.0578604 -1.69601 0
M  V30 14891 H 1362.19 0.199077 -3.90793 0
M  V30 14892 H 1361.81 1.86734 -3.51022 0
M  V30 14893 N 1362.81 1.55714 0.243056 0
M  V30 14894 C 1364.06 1.77726 0.970555 0
M  V30 14895 C 1364.38 0.595108 1.85172 0
M  V30 14896 O 1363.64 -0.42143 1.91108 0
M  V30 14897 C 1363.94 3.05281 1.85845 0
M  V30 14898 C 1363.6 4.36451 1.13232 0
M  V30 14899 C 1362.27 4.72095 0.931656 0
M  V30 14900 C 1364.62 5.17524 0.617944 0
M  V30 14901 C 1361.95 5.86344 0.204373 0
M  V30 14902 C 1364.3 6.32527 -0.0958899 0
M  V30 14903 C 1362.96 6.66789 -0.308 0
M  V30 14904 H 1362.23 0.650345 0.355151 0
M  V30 14905 H 1364.88 1.89986 0.240351 0
M  V30 14906 H 1363.18 2.8805 2.65584 0
M  V30 14907 H 1364.88 3.19511 2.4231 0
M  V30 14908 H 1361.47 4.08451 1.29867 0
M  V30 14909 H 1365.65 4.90439 0.760507 0
M  V30 14910 H 1360.91 6.11393 0.0296 0
M  V30 14911 H 1365.08 6.94588 -0.502077 0
M  V30 14912 H 1362.71 7.55165 -0.873502 0
M  V30 14913 N 1364.29 -0.50888 1.49158 0
M  V30 14914 C 1365.56 -1.27021 1.48745 0
M  V30 14915 C 1365.94 -2.10045 0.210772 0
M  V30 14916 O 1365.29 -2.13773 -0.807061 0
M  V30 14917 C 1365.5 -2.13367 2.76181 0
M  V30 14918 C 1366.85 -2.72815 3.25357 0
M  V30 14919 O 1367.87 -2.23639 2.77243 0
M  V30 14920 O 1366.73 -3.62316 4.09133 0
M  V30 14921 H 1363.83 -0.574387 0.594986 0
M  V30 14922 H 1366.37 -0.523798 1.61414 0
M  V30 14923 H 1365.14 -1.51941 3.60596 0
M  V30 14924 H 1364.77 -2.95215 2.66334 0
M  V30 14925 N 1365.76 -1.381 -0.759346 0
M  V30 14926 C 1367.04 -1.24517 -1.50847 0
M  V30 14927 C 1367.42 0.155929 -2.10523 0
M  V30 14928 O 1366.77 1.16485 -1.96579 0
M  V30 14929 C 1366.98 -2.35086 -2.57945 0
M  V30 14930 C 1368.33 -2.73232 -3.25007 0
M  V30 14931 O 1369.35 -2.34355 -2.68247 0
M  V30 14932 O 1368.21 -3.40254 -4.27656 0
M  V30 14933 H 1365.3 -0.486599 -0.668693 0
M  V30 14934 H 1367.85 -1.49913 -0.795249 0
M  V30 14935 H 1366.62 -3.28858 -2.12056 0
M  V30 14936 H 1366.25 -2.11222 -3.36854 0
M  V30 14937 N 1367.24 0.986894 -1.22875 0
M  V30 14938 C 1368.17 2.09628 -1.0285 0
M  V30 14939 C 1369.15 1.70019 0.0525118 0
M  V30 14940 O 1370.34 1.93883 -0.110874 0
M  V30 14941 C 1367.47 3.41866 -0.61194 0
M  V30 14942 C 1366.42 3.95351 -1.63956 0
M  V30 14943 C 1365.75 5.23707 -1.07865 0
M  V30 14944 C 1367.05 4.25354 -3.03102 0
M  V30 14945 H 1368.74 2.26639 -1.95641 0
M  V30 14946 H 1366.29 1.0891 -0.942048 0
M  V30 14947 H 1368.24 4.18893 -0.458936 0
M  V30 14948 H 1366.97 3.24701 0.35164 0
M  V30 14949 H 1365.62 3.20462 -1.78045 0
M  V30 14950 H 1365.27 5.02888 -0.106246 0
M  V30 14951 H 1364.97 5.60459 -1.76522 0
M  V30 14952 H 1366.5 6.03362 -0.937359 0
M  V30 14953 H 1367.91 4.93156 -2.92353 0
M  V30 14954 H 1366.31 4.73292 -3.68938 0
M  V30 14955 H 1367.38 3.32887 -3.52583 0
M  V30 14956 N 1368.72 1.0394 1.18466 0
M  V30 14957 C 1369.65 0.650182 2.24265 0
M  V30 14958 C 1370.63 -0.345968 1.66545 0
M  V30 14959 O 1371.82 -0.226348 1.92876 0
M  V30 14960 C 1368.95 0.0110451 3.47298 0
M  V30 14961 C 1367.9 0.930599 4.17761 0
M  V30 14962 C 1367.23 0.156005 5.34472 0
M  V30 14963 C 1368.53 2.24913 4.71393 0
M  V30 14964 H 1370.22 1.53465 2.57078 0
M  V30 14965 H 1367.77 0.739343 1.23571 0
M  V30 14966 H 1369.72 -0.272959 4.20515 0
M  V30 14967 H 1368.44 -0.908288 3.13716 0
M  V30 14968 H 1367.1 1.19897 3.4644 0
M  V30 14969 H 1366.75 -0.765695 4.97138 0
M  V30 14970 H 1366.45 0.768606 5.82551 0
M  V30 14971 H 1367.97 -0.121011 6.1048 0
M  V30 14972 H 1369.39 2.02592 5.36311 0
M  V30 14973 H 1367.79 2.81459 5.30001 0
M  V30 14974 H 1368.86 2.8965 3.88884 0
M  V30 14975 N 1370.2 -1.34667 0.818693 0
M  V30 14976 C 1371.42 -2.03173 0.416585 0
M  V30 14977 C 1371.85 -1.61261 -0.968321 0
M  V30 14978 O 1371.21 -0.79517 -1.62932 0
M  V30 14979 C 1371.25 -3.56803 0.521884 0
M  V30 14980 O 1370.36 -4.09827 -0.459953 0
M  V30 14981 H 1369.7 -0.6413 0.172136 0
M  V30 14982 H 1372.23 -1.72006 1.10794 0
M  V30 14983 H 1372.24 -4.06073 0.3961 0
M  V30 14984 H 1370.91 -3.86656 1.53198 0
M  V30 14985 H 1369.49 -3.71744 -0.293405 0
M  V30 14986 N 1371.68 -0.573274 -1.46804 0
M  V30 14987 C 1372.62 0.165358 -2.30207 0
M  V30 14988 C 1373.59 0.89312 -1.40045 0
M  V30 14989 O 1374.78 0.885653 -1.68999 0
M  V30 14990 C 1371.92 1.17915 -3.2433 0
M  V30 14991 C 1371.03 0.455805 -4.29589 0
M  V30 14992 C 1370.17 1.45629 -5.10848 0
M  V30 14993 C 1369.21 0.718822 -6.07865 0
M  V30 14994 N 1368.34 1.66691 -6.82025 0
M  V30 14995 H 1373.18 -0.551947 -2.92844 0
M  V30 14996 H 1370.72 -0.28401 -1.44332 0
M  V30 14997 H 1372.68 1.77969 -3.77337 0
M  V30 14998 H 1371.31 1.86429 -2.63523 0
M  V30 14999 H 1370.36 -0.259584 -3.79513 0
M  V30 15000 H 1371.67 -0.121161 -4.98653 0
M  V30 15001 H 1370.83 2.1299 -5.68084 0
M  V30 15002 H 1369.56 2.06718 -4.41723 0
M  V30 15003 H 1368.57 0.0313773 -5.49791 0
M  V30 15004 H 1369.79 0.113452 -6.79005 0
M  V30 15005 H 1367.74 2.26608 -6.15617 0
M  V30 15006 H 1367.66 1.14251 -7.47317 0
M  V30 15007 H 1368.93 2.33117 -7.43826 0
M  V30 15008 N 1373.15 1.5451 -0.310553 0
M  V30 15009 C 1374.57 1.85829 0.180166 0
M  V30 15010 C 1374.92 1.23239 1.52665 0
M  V30 15011 O 1374.04 0.53359 2.09718 0
M  V30 15012 C 1374.64 3.37153 0.333687 0
M  V30 15013 C 1373.2 3.68469 0.768625 0
M  V30 15014 C 1372.34 2.77051 -0.117399 0
M  V30 15015 H 1375.29 1.49544 -0.531262 0
M  V30 15016 H 1375.31 3.62171 1.16673 0
M  V30 15017 H 1374.83 3.82678 -0.646455 0
M  V30 15018 H 1372.93 3.28467 1.75898 0
M  V30 15019 H 1373.04 4.75559 0.581392 0
M  V30 15020 H 1371.4 2.51461 0.404905 0
M  V30 15021 H 1372.19 3.254 -1.09407 0
M  V30 15022 N 1374.63 0.0384594 1.57553 0
M  V30 15023 C 1375.58 -0.940256 2.10779 0
M  V30 15024 C 1376.55 -1.31705 1.01208 0
M  V30 15025 O 1377.74 -1.40874 1.28683 0
M  V30 15026 C 1374.88 -2.21419 2.64703 0
M  V30 15027 C 1373.99 -1.89302 3.88315 0
M  V30 15028 C 1373.12 -3.1106 4.30599 0
M  V30 15029 C 1372.16 -2.74805 5.46945 0
M  V30 15030 N 1371.3 -3.89217 5.84341 0
M  V30 15031 H 1376.14 -0.479458 2.94118 0
M  V30 15032 H 1373.68 -0.22505 1.45368 0
M  V30 15033 H 1375.63 -2.95946 2.94061 0
M  V30 15034 H 1374.26 -2.65099 1.84181 0
M  V30 15035 H 1373.32 -1.04977 3.65628 0
M  V30 15036 H 1374.63 -1.58607 4.72912 0
M  V30 15037 H 1373.78 -3.93898 4.61442 0
M  V30 15038 H 1372.52 -3.44924 3.44788 0
M  V30 15039 H 1371.53 -1.9038 5.15786 0
M  V30 15040 H 1372.75 -2.42147 6.34462 0
M  V30 15041 H 1370.7 -4.22905 5.01485 0
M  V30 15042 H 1370.61 -3.62177 6.63599 0
M  V30 15043 H 1371.88 -4.72732 6.19794 0
M  V30 15044 N 1376.11 -1.55841 -0.234795 0
M  V30 15045 C 1377.36 -1.78238 -0.961116 0
M  V30 15046 C 1377.69 -0.604919 -1.84854 0
M  V30 15047 O 1376.94 0.411289 -1.91329 0
M  V30 15048 C 1377.24 -3.06262 -1.84223 0
M  V30 15049 C 1376.91 -4.37045 -1.10916 0
M  V30 15050 C 1375.57 -4.72582 -0.906606 0
M  V30 15051 C 1377.92 -5.17844 -0.59049 0
M  V30 15052 C 1375.25 -5.86444 -0.173275 0
M  V30 15053 C 1377.6 -6.32468 0.129433 0
M  V30 15054 C 1376.26 -6.66616 0.343357 0
M  V30 15055 H 1375.53 -0.652219 -0.351697 0
M  V30 15056 H 1378.18 -1.9011 -0.230272 0
M  V30 15057 H 1376.49 -2.89454 -2.64052 0
M  V30 15058 H 1378.18 -3.20791 -2.40612 0
M  V30 15059 H 1374.77 -4.09134 -1.27699 0
M  V30 15060 H 1378.96 -4.90835 -0.734487 0
M  V30 15061 H 1374.21 -6.114 0.00282409 0
M  V30 15062 H 1378.39 -6.94312 0.538905 0
M  V30 15063 H 1376.01 -7.54691 0.913538 0
M  V30 15064 N 1377.59 0.500963 -1.49426 0
M  V30 15065 C 1378.81 1.28383 -1.62888 0
M  V30 15066 C 1379.24 1.85688 -0.300262 0
M  V30 15067 O 1378.6 1.6586 0.73212 0
M  V30 15068 C 1378.65 2.38987 -2.70033 0
M  V30 15069 O 1377.75 3.42837 -2.29208 0
M  V30 15070 H 1377.09 0.379012 -0.545202 0
M  V30 15071 H 1379.62 0.59971 -1.95613 0
M  V30 15072 H 1379.63 2.84749 -2.92202 0
M  V30 15073 H 1378.31 1.96643 -3.66475 0
M  V30 15074 H 1376.88 3.02993 -2.1737 0
M  V30 15075 N 1379.07 1.38501 0.752011 0
M  V30 15076 C 1380.32 1.34529 1.50819 0
M  V30 15077 C 1380.64 -0.0636155 1.94896 0
M  V30 15078 O 1379.91 -1.01161 1.6776 0
M  V30 15079 H 1378.49 0.49501 0.559441 0
M  V30 15080 H 1381.15 1.73196 0.893822 0
M  V30 15081 H 1380.24 1.99713 2.39835 0
M  V30 15082 N 1380.55 -0.980364 1.23396 0
M  V30 15083 C 1381.79 -1.72421 1.06765 0
M  V30 15084 C 1382.12 -1.90151 -0.394515 0
M  V30 15085 O 1381.4 -1.4538 -1.29209 0
M  V30 15086 C 1381.68 -3.12246 1.79372 0
M  V30 15087 C 1381.54 -3.02087 3.33262 0
M  V30 15088 C 1382.85 -4.11667 1.55624 0
M  V30 15089 H 1379.97 -0.625822 0.389251 0
M  V30 15090 H 1382.62 -1.14132 1.51901 0
M  V30 15091 H 1380.77 -3.62008 1.41004 0
M  V30 15092 H 1382.44 -2.59848 3.81152 0
M  V30 15093 H 1380.68 -2.38592 3.62293 0
M  V30 15094 H 1381.35 -4.01087 3.79254 0
M  V30 15095 H 1383.83 -3.70712 1.88975 0
M  V30 15096 H 1382.7 -5.07593 2.08902 0
M  V30 15097 H 1382.96 -4.39358 0.491601 0
M  V30 15098 N 1382.02 -1.04567 -1.17913 0
M  V30 15099 C 1382.93 -0.651674 -2.25367 0
M  V30 15100 C 1383.95 0.32437 -1.7095 0
M  V30 15101 O 1385.13 0.178039 -2.00612 0
M  V30 15102 C 1382.19 -0.0259452 -3.4669 0
M  V30 15103 C 1381.25 -1.05163 -4.1622 0
M  V30 15104 C 1380.48 -0.45567 -5.31751 0
M  V30 15105 O 1380.71 0.736698 -5.65623 0
M  V30 15106 O 1379.64 -1.18684 -5.90083 0
M  V30 15107 H 1383.47 -1.54704 -2.61344 0
M  V30 15108 H 1381.05 -0.816852 -1.25092 0
M  V30 15109 H 1382.93 0.322126 -4.20167 0
M  V30 15110 H 1381.61 0.843165 -3.12526 0
M  V30 15111 H 1380.52 -1.45159 -3.44789 0
M  V30 15112 H 1381.85 -1.89168 -4.54397 0
M  V30 15113 N 1383.5 1.34231 -0.825823 0
M  V30 15114 C 1384.45 2.29467 -0.247724 0
M  V30 15115 C 1385.42 1.53724 0.629127 0
M  V30 15116 O 1386.6 1.82082 0.570156 0
M  V30 15117 C 1383.74 3.40157 0.582012 0
M  V30 15118 C 1382.86 4.30832 -0.317406 0
M  V30 15119 C 1381.99 5.28627 0.522176 0
M  V30 15120 C 1381.03 6.10941 -0.376448 0
M  V30 15121 N 1380.17 7.00817 0.424232 0
M  V30 15122 H 1385.01 2.78311 -1.06521 0
M  V30 15123 H 1382.54 1.36956 -0.536788 0
M  V30 15124 H 1384.5 4.03021 1.07843 0
M  V30 15125 H 1383.13 2.92539 1.36459 0
M  V30 15126 H 1382.18 3.68805 -0.932054 0
M  V30 15127 H 1383.5 4.88503 -1.00826 0
M  V30 15128 H 1382.65 5.96957 1.08295 0
M  V30 15129 H 1381.39 4.71501 1.24652 0
M  V30 15130 H 1380.39 5.41542 -0.94934 0
M  V30 15131 H 1381.62 6.70149 -1.09895 0
M  V30 15132 H 1379.57 6.46156 1.1322 0
M  V30 15133 H 1379.48 7.55713 -0.208175 0
M  V30 15134 H 1380.75 7.7347 0.967664 0
M  V30 15135 N 1384.98 0.581051 1.46498 0
M  V30 15136 C 1386.23 0.0637189 2.01599 0
M  V30 15137 C 1386.54 -1.30353 1.45834 0
M  V30 15138 O 1387.75 -1.91211 1.92745 0
M  V30 15139 C 1386.2 0.0633254 3.59844 0
M  V30 15140 C 1385.81 1.42879 4.24605 0
M  V30 15141 C 1387.56 -0.400149 4.2261 0
M  V30 15142 C 1385.46 1.38621 5.74924 0
M  V30 15143 H 1384.39 0.0200512 0.753733 0
M  V30 15144 H 1387.04 0.732451 1.68248 0
M  V30 15145 H 1385.43 -0.671538 3.90264 0
M  V30 15146 H 1386.6 2.18325 4.05796 0
M  V30 15147 H 1384.91 1.83215 3.73927 0
M  V30 15148 H 1387.51 -0.450771 5.32797 0
M  V30 15149 H 1387.85 -1.41733 3.9143 0
M  V30 15150 H 1388.39 0.280598 3.96809 0
M  V30 15151 H 1385.13 2.38014 6.10761 0
M  V30 15152 H 1384.65 0.673926 5.96002 0
M  V30 15153 H 1386.33 1.09841 6.37608 0
M  V30 15154 N 1386.46 -1.54343 0.318742 0
M  V30 15155 C 1387.4 -2.24166 -0.549397 0
M  V30 15156 C 1388.37 -1.23068 -1.1155 0
M  V30 15157 O 1389.56 -1.51737 -1.15674 0
M  V30 15158 C 1386.7 -2.99938 -1.70678 0
M  V30 15159 C 1385.81 -4.15844 -1.17037 0
M  V30 15160 C 1384.95 -4.79158 -2.29305 0
M  V30 15161 C 1383.99 -5.87176 -1.72888 0
M  V30 15162 N 1383.12 -6.44372 -2.78799 0
M  V30 15163 H 1387.96 -2.97954 0.0526018 0
M  V30 15164 H 1385.5 -1.47052 0.0377307 0
M  V30 15165 H 1387.46 -3.42113 -2.38777 0
M  V30 15166 H 1386.09 -2.28494 -2.28014 0
M  V30 15167 H 1385.14 -3.78486 -0.381082 0
M  V30 15168 H 1386.45 -4.93612 -0.717507 0
M  V30 15169 H 1385.61 -5.24277 -3.05317 0
M  V30 15170 H 1384.35 -4.0076 -2.77926 0
M  V30 15171 H 1383.35 -5.41465 -0.953714 0
M  V30 15172 H 1384.58 -6.67469 -1.2515 0
M  V30 15173 H 1382.52 -5.6885 -3.2672 0
M  V30 15174 H 1382.44 -7.17539 -2.38062 0
M  V30 15175 H 1383.71 -6.94147 -3.54655 0
M  V30 15176 N 1387.94 -0.0468143 -1.5753 0
M  V30 15177 C 1389.16 0.637648 -1.96829 0
M  V30 15178 C 1389.58 1.64635 -0.924158 0
M  V30 15179 O 1388.94 1.82267 0.0921139 0
M  V30 15180 C 1388.99 1.32842 -3.36207 0
M  V30 15181 O 1388.71 0.360111 -4.36617 0
M  V30 15182 C 1390.21 2.10305 -3.90239 0
M  V30 15183 H 1387.43 0.174634 -0.647876 0
M  V30 15184 H 1389.97 -0.111824 -2.04194 0
M  V30 15185 H 1388.13 2.02915 -3.30006 0
M  V30 15186 H 1388.54 0.852661 -5.17523 0
M  V30 15187 H 1390.02 2.54065 -4.90056 0
M  V30 15188 H 1390.49 2.94942 -3.25432 0
M  V30 15189 H 1391.1 1.45152 -3.99764 0
M  V30 15190 N 1389.41 1.55964 0.226527 0
M  V30 15191 C 1390.66 1.77944 0.94967 0
M  V30 15192 C 1390.98 0.614478 1.85697 0
M  V30 15193 O 1392.18 0.717793 2.6184 0
M  V30 15194 C 1390.64 3.15108 1.73881 0
M  V30 15195 C 1390.25 4.39314 0.877894 0
M  V30 15196 C 1391.99 3.46418 2.45347 0
M  V30 15197 C 1389.9 5.67505 1.6641 0
M  V30 15198 H 1388.83 0.663412 0.35833 0
M  V30 15199 H 1391.48 1.82366 0.203695 0
M  V30 15200 H 1389.86 3.04849 2.52751 0
M  V30 15201 H 1391.03 4.60616 0.130089 0
M  V30 15202 H 1389.35 4.15487 0.2756 0
M  V30 15203 H 1391.95 4.39416 3.0466 0
M  V30 15204 H 1392.29 2.68685 3.17985 0
M  V30 15205 H 1392.82 3.57984 1.73471 0
M  V30 15206 H 1389.56 6.48116 0.981089 0
M  V30 15207 H 1389.08 5.50272 2.38665 0
M  V30 15208 H 1390.76 6.075 2.22605 0
M  V30 15209 N 1390.89 -0.493031 1.4969 0
M  V30 15210 C 1392.14 -1.24418 1.59263 0
M  V30 15211 C 1392.46 -1.92908 0.284882 0
M  V30 15212 O 1391.73 -1.83108 -0.696302 0
M  V30 15213 H 1390.31 -0.462223 0.586821 0
M  V30 15214 H 1392.97 -0.570713 1.86357 0
M  V30 15215 H 1392.07 -2.00386 2.39274 0
M  V30 15216 N 1392.37 -1.38898 -0.744656 0
M  V30 15217 C 1393.6 -1.3903 -1.53901 0
M  V30 15218 C 1394.02 0.0156607 -1.88093 0
M  V30 15219 O 1393.38 1.00012 -1.51219 0
M  V30 15220 C 1393.43 -2.2609 -2.80919 0
M  V30 15221 O 1392.53 -1.68414 -3.76444 0
M  V30 15222 H 1391.87 -0.473854 -0.465144 0
M  V30 15223 H 1394.4 -1.82773 -0.919525 0
M  V30 15224 H 1394.41 -2.40264 -3.29754 0
M  V30 15225 H 1393.09 -3.28271 -2.55364 0
M  V30 15226 H 1391.66 -1.63431 -3.35179 0
M  V30 15227 N 1393.85 0.973806 -1.23914 0
M  V30 15228 C 1395.08 1.75107 -1.10206 0
M  V30 15229 C 1395.49 1.85604 0.345935 0
M  V30 15230 O 1394.85 1.33996 1.239 0
M  V30 15231 C 1394.9 3.17466 -1.72909 0
M  V30 15232 O 1394.62 3.07504 -3.12047 0
M  V30 15233 C 1396.12 4.11557 -1.6473 0
M  V30 15234 H 1393.34 0.549318 -0.385345 0
M  V30 15235 H 1395.89 1.22301 -1.63898 0
M  V30 15236 H 1394.04 3.67277 -1.23234 0
M  V30 15237 H 1394.45 3.97169 -3.42575 0
M  V30 15238 H 1395.93 5.09126 -2.13295 0
M  V30 15239 H 1396.41 4.3498 -0.607352 0
M  V30 15240 H 1397.01 3.67653 -2.13802 0
M  V30 15241 N 1395.33 1.05191 1.17357 0
M  V30 15242 C 1396.56 0.781238 1.9126 0
M  V30 15243 C 1396.96 -0.66688 1.77057 0
M  V30 15244 O 1396.31 -1.4673 1.10526 0
M  V30 15245 C 1396.37 1.08225 3.42823 0
M  V30 15246 C 1396.03 2.52655 3.80808 0
M  V30 15247 C 1397.03 3.50864 3.83654 0
M  V30 15248 C 1394.72 2.87664 4.11771 0
M  V30 15249 C 1396.71 4.82127 4.16932 0
M  V30 15250 C 1394.4 4.1913 4.44717 0
M  V30 15251 C 1395.39 5.16172 4.47276 0
M  V30 15252 O 1395.08 6.4528 4.79447 0
M  V30 15253 H 1394.81 0.283516 0.613673 0
M  V30 15254 H 1397.37 1.40577 1.49758 0
M  V30 15255 H 1395.6 0.400623 3.84619 0
M  V30 15256 H 1397.29 0.797593 3.97987 0
M  V30 15257 H 1398.05 3.25158 3.59857 0
M  V30 15258 H 1393.93 2.12793 4.0895 0
M  V30 15259 H 1397.48 5.57867 4.18844 0
M  V30 15260 H 1393.37 4.44599 4.67976 0
M  V30 15261 H 1394.14 6.50101 4.97304 0
M  V30 15262 N 1396.8 -1.33791 0.83293 0
M  V30 15263 C 1397.74 -2.27259 0.207019 0
M  V30 15264 C 1398.72 -1.49372 -0.642403 0
M  V30 15265 O 1399.9 -1.78562 -0.603963 0
M  V30 15266 C 1397.03 -3.31177 -0.709885 0
M  V30 15267 C 1396.07 -4.26453 0.0633036 0
M  V30 15268 S 1396.91 -5.16406 1.41721 0
M  V30 15269 C 1398.06 -6.23856 0.505446 0
M  V30 15270 H 1398.29 -2.79998 0.999422 0
M  V30 15271 H 1395.83 -1.40991 0.629361 0
M  V30 15272 H 1397.79 -3.91535 -1.23332 0
M  V30 15273 H 1396.45 -2.77265 -1.4759 0
M  V30 15274 H 1395.64 -4.99995 -0.634145 0
M  V30 15275 H 1395.24 -3.70401 0.517607 0
M  V30 15276 H 1397.53 -6.7684 -0.299066 0
M  V30 15277 H 1398.48 -6.97671 1.21084 0
M  V30 15278 H 1398.88 -5.64429 0.0894308 0
M  V30 15279 N 1398.28 -0.588812 -1.46187 0
M  V30 15280 C 1399.25 0.130803 -2.28826 0
M  V30 15281 C 1400.25 0.813037 -1.38731 0
M  V30 15282 O 1401.44 0.664061 -1.61046 0
M  V30 15283 C 1398.57 1.19484 -3.19275 0
M  V30 15284 H 1399.76 -0.595514 -2.93928 0
M  V30 15285 H 1397.31 -0.347038 -1.52399 0
M  V30 15286 H 1398.05 1.95254 -2.58933 0
M  V30 15287 H 1397.83 0.710077 -3.85617 0
M  V30 15288 H 1399.32 1.69938 -3.81459 0
M  V30 15289 N 1399.76 1.54172 -0.326923 0
M  V30 15290 C 1400.72 2.2311 0.524855 0
M  V30 15291 C 1401.72 1.22567 1.04087 0
M  V30 15292 O 1402.91 1.47123 0.932759 0
M  V30 15293 C 1400.05 2.93778 1.72937 0
M  V30 15294 H 1401.24 2.99799 -0.0778327 0
M  V30 15295 H 1398.79 1.56105 -0.0780484 0
M  V30 15296 H 1399.53 2.21234 2.3712 0
M  V30 15297 H 1399.31 3.67509 1.36674 0
M  V30 15298 H 1400.8 3.46292 2.33392 0
M  V30 15299 N 1401.24 0.0551678 1.57503 0
M  V30 15300 C 1402.47 -0.6272 1.97164 0
M  V30 15301 C 1402.88 -1.64143 0.932876 0
M  V30 15302 O 1402.24 -1.82314 -0.0824465 0
M  V30 15303 C 1402.29 -1.31057 3.36907 0
M  V30 15304 O 1402.01 -0.336951 4.36802 0
M  V30 15305 C 1403.51 -2.08232 3.91349 0
M  V30 15306 H 1400.73 -0.171196 0.648793 0
M  V30 15307 H 1403.28 0.122651 2.04132 0
M  V30 15308 H 1401.43 -2.01162 3.31078 0
M  V30 15309 H 1401.84 -0.825204 5.17968 0
M  V30 15310 H 1403.32 -2.51463 4.91397 0
M  V30 15311 H 1403.8 -2.93212 3.26991 0
M  V30 15312 H 1404.4 -1.43029 4.00528 0
M  V30 15313 N 1402.72 -1.56081 -0.218252 0
M  V30 15314 C 1403.96 -1.78893 -0.940296 0
M  V30 15315 C 1404.29 -0.62425 -1.84738 0
M  V30 15316 O 1403.56 0.358686 -1.92588 0
M  V30 15317 H 1402.14 -0.659828 -0.350193 0
M  V30 15318 H 1404.8 -1.93546 -0.229316 0
M  V30 15319 H 1403.89 -2.71167 -1.54516 0
M  V30 15320 N 1404.2 0.485086 -1.49949 0
M  V30 15321 C 1405.13 1.59312 -1.7071 0
M  V30 15322 C 1406.11 1.6076 -0.555896 0
M  V30 15323 O 1407.29 1.77249 -0.793504 0
M  V30 15324 C 1404.42 2.97718 -1.78834 0
M  V30 15325 C 1403.38 3.11136 -2.93902 0
M  V30 15326 C 1402.7 4.51051 -2.87154 0
M  V30 15327 C 1404 2.89665 -4.34617 0
M  V30 15328 H 1405.7 1.42192 -2.6348 0
M  V30 15329 H 1403.24 0.68262 -1.26792 0
M  V30 15330 H 1405.19 3.75148 -1.91943 0
M  V30 15331 H 1403.92 3.15963 -0.826744 0
M  V30 15332 H 1402.58 2.36135 -2.80421 0
M  V30 15333 H 1402.23 4.66195 -1.88869 0
M  V30 15334 H 1401.93 4.60967 -3.64394 0
M  V30 15335 H 1403.45 5.3052 -3.02293 0
M  V30 15336 H 1404.86 3.56853 -4.48697 0
M  V30 15337 H 1403.26 3.11039 -5.13201 0
M  V30 15338 H 1404.33 1.85642 -4.47956 0
M  V30 15339 N 1405.67 1.39291 0.737279 0
M  V30 15340 C 1406.9 1.39844 1.53162 0
M  V30 15341 C 1407.32 -0.00568546 1.88099 0
M  V30 15342 O 1406.68 -0.992085 1.51748 0
M  V30 15343 C 1406.73 2.27577 2.79716 0
M  V30 15344 O 1405.83 1.70408 3.75546 0
M  V30 15345 H 1405.17 0.476314 0.462624 0
M  V30 15346 H 1407.7 1.83258 0.909819 0
M  V30 15347 H 1407.71 2.42009 3.28475 0
M  V30 15348 H 1406.39 3.29621 2.53619 0
M  V30 15349 H 1404.97 1.65206 3.34307 0
M  V30 15350 N 1407.15 -0.967221 1.24429 0
M  V30 15351 C 1408.11 -2.04344 1.03808 0
M  V30 15352 C 1409.11 -1.60799 -0.00476972 0
M  V30 15353 O 1410.3 -1.72591 0.236241 0
M  V30 15354 C 1407.44 -3.36041 0.573496 0
M  V30 15355 H 1408.63 -2.2407 1.9933 0
M  V30 15356 H 1406.18 -1.14253 1.06658 0
M  V30 15357 H 1406.92 -3.22008 -0.384898 0
M  V30 15358 H 1406.7 -3.68991 1.32619 0
M  V30 15359 H 1408.19 -4.15165 0.450272 0
M  V30 15360 N 1408.63 -1.05812 -1.16797 0
M  V30 15361 C 1409.88 -0.773066 -1.87487 0
M  V30 15362 C 1410.21 0.698471 -1.81204 0
M  V30 15363 O 1409.48 1.51129 -1.22434 0
M  V30 15364 C 1409.77 -1.2621 -3.37258 0
M  V30 15365 C 1409.62 -2.79704 -3.52258 0
M  V30 15366 C 1410.94 -0.866104 -4.31494 0
M  V30 15367 H 1408.06 -0.282304 -0.680789 0
M  V30 15368 H 1410.7 -1.3132 -1.37314 0
M  V30 15369 H 1408.85 -0.802608 -3.80119 0
M  V30 15370 H 1410.52 -3.33824 -3.1837 0
M  V30 15371 H 1408.76 -3.18673 -2.94329 0
M  V30 15372 H 1409.44 -3.08985 -4.57419 0
M  V30 15373 H 1411.91 -1.26178 -3.96508 0
M  V30 15374 H 1410.79 -1.23581 -5.34807 0
M  V30 15375 H 1411.05 0.229391 -4.41504 0
M  V30 15376 N 1410.11 1.33347 -0.840014 0
M  V30 15377 C 1411.52 1.80077 -0.492851 0
M  V30 15378 C 1411.87 1.69495 0.988221 0
M  V30 15379 O 1410.99 1.2449 1.77006 0
M  V30 15380 C 1411.59 3.2696 -0.887827 0
M  V30 15381 C 1410.15 3.71703 -0.592785 0
M  V30 15382 C 1409.3 2.54742 -1.09554 0
M  V30 15383 H 1412.25 1.20853 -1.02861 0
M  V30 15384 H 1412.27 3.79983 -0.198327 0
M  V30 15385 H 1411.78 3.3463 -1.96581 0
M  V30 15386 H 1409.88 3.69559 0.475086 0
M  V30 15387 H 1409.99 4.65123 -1.14882 0
M  V30 15388 H 1408.36 2.49411 -0.516357 0
M  V30 15389 H 1409.14 2.65173 -2.18032 0
M  V30 15390 N 1411.59 0.596556 1.45873 0
M  V30 15391 C 1412.81 0.0916466 2.07197 0
M  V30 15392 C 1413.24 -1.21004 1.44012 0
M  V30 15393 O 1412.59 -1.73415 0.528844 0
M  V30 15394 C 1412.64 -0.0461457 3.6057 0
M  V30 15395 O 1411.75 -1.09919 3.97481 0
M  V30 15396 H 1411.09 0.0690655 0.660398 0
M  V30 15397 H 1413.62 0.823434 1.87299 0
M  V30 15398 H 1413.63 -0.2479 4.07246 0
M  V30 15399 H 1412.3 0.904381 4.05948 0
M  V30 15400 H 1410.88 -0.874788 3.62494 0
M  V30 15401 N 1413.06 -1.53996 0.335095 0
M  V30 15402 C 1414 -2.22258 -0.559809 0
M  V30 15403 C 1415.01 -1.22636 -1.07071 0
M  V30 15404 O 1416.2 -1.4904 -0.982312 0
M  V30 15405 C 1413.3 -2.88256 -1.78218 0
M  V30 15406 C 1412.47 -4.14118 -1.40801 0
M  V30 15407 C 1411.53 -4.63603 -2.48915 0
M  V30 15408 O 1410.56 -5.28015 -2.12576 0
M  V30 15409 N 1411.76 -4.3881 -3.80034 0
M  V30 15410 H 1414.52 -2.9969 0.0247521 0
M  V30 15411 H 1412.08 -1.61119 0.158826 0
M  V30 15412 H 1414.08 -3.1828 -2.4996 0
M  V30 15413 H 1412.65 -2.14461 -2.27431 0
M  V30 15414 H 1411.87 -3.90732 -0.521729 0
M  V30 15415 H 1413.15 -4.96005 -1.13388 0
M  V30 15416 H 1412.55 -3.87278 -4.12349 0
M  V30 15417 H 1411.11 -4.73461 -4.47971 0
M  V30 15418 N 1414.54 -0.0635198 -1.57472 0
M  V30 15419 C 1415.45 0.921531 -2.15743 0
M  V30 15420 C 1416.47 1.33294 -1.11842 0
M  V30 15421 O 1417.64 1.40733 -1.4407 0
M  V30 15422 C 1414.71 2.17378 -2.70088 0
M  V30 15423 C 1413.77 1.81956 -3.88832 0
M  V30 15424 C 1413 3.01211 -4.40577 0
M  V30 15425 O 1413.23 4.14971 -3.9135 0
M  V30 15426 O 1412.16 2.81507 -5.32012 0
M  V30 15427 H 1415.99 0.455899 -3.00259 0
M  V30 15428 H 1413.57 0.159085 -1.48551 0
M  V30 15429 H 1415.45 2.90826 -3.04956 0
M  V30 15430 H 1414.13 2.63055 -1.88637 0
M  V30 15431 H 1413.03 1.05786 -3.58832 0
M  V30 15432 H 1414.37 1.41069 -4.71551 0
M  V30 15433 N 1416.02 1.56195 0.209972 0
M  V30 15434 C 1416.97 1.89755 1.26401 0
M  V30 15435 C 1417.95 0.761731 1.41727 0
M  V30 15436 O 1419.15 1.02435 1.44347 0
M  V30 15437 C 1416.27 2.22775 2.61201 0
M  V30 15438 C 1415.36 3.42777 2.49729 0
M  V30 15439 N 1415.75 4.61089 2.0792 0
M  V30 15440 C 1414.05 3.46621 2.8066 0
M  V30 15441 C 1414.75 5.43249 2.07979 0
M  V30 15442 N 1413.73 4.83263 2.48913 0
M  V30 15443 H 1417.53 2.78736 0.93184 0
M  V30 15444 H 1415.04 1.56915 0.418485 0
M  V30 15445 H 1417.04 2.44997 3.37316 0
M  V30 15446 H 1415.7 1.35112 2.95254 0
M  V30 15447 H 1416.71 4.86033 1.78865 0
M  V30 15448 H 1413.39 2.69334 3.19007 0
M  V30 15449 H 1414.78 6.47981 1.77681 0
M  V30 15450 N 1417.5 -0.477127 1.50204 0
M  V30 15451 C 1418.72 -1.25775 1.6491 0
M  V30 15452 C 1419.15 -1.85187 0.329765 0
M  V30 15453 O 1418.51 -1.67004 -0.705641 0
M  V30 15454 C 1418.55 -2.3466 2.73801 0
M  V30 15455 O 1417.66 -3.39147 2.34634 0
M  V30 15456 H 1417 -0.370291 0.551163 0
M  V30 15457 H 1419.53 -0.568514 1.96543 0
M  V30 15458 H 1419.54 -2.80065 2.96695 0
M  V30 15459 H 1418.21 -1.90788 3.69557 0
M  V30 15460 H 1416.79 -2.99496 2.22163 0
M  V30 15461 N 1418.98 -1.3968 -0.729882 0
M  V30 15462 C 1419.91 -1.34713 -1.85432 0
M  V30 15463 C 1420.92 -0.254999 -1.60791 0
M  V30 15464 O 1422.11 -0.514324 -1.7093 0
M  V30 15465 C 1419.21 -1.07019 -3.21559 0
M  V30 15466 C 1418.38 -2.27609 -3.73515 0
M  V30 15467 C 1417.44 -1.96292 -4.88217 0
M  V30 15468 O 1416.47 -2.69025 -5.01612 0
M  V30 15469 N 1417.67 -0.932181 -5.72967 0
M  V30 15470 H 1420.44 -2.31616 -1.90195 0
M  V30 15471 H 1418 -1.33849 -0.910834 0
M  V30 15472 H 1419.99 -0.84079 -3.9587 0
M  V30 15473 H 1418.56 -0.188323 -3.12032 0
M  V30 15474 H 1417.78 -2.66468 -2.90497 0
M  V30 15475 H 1419.07 -3.08033 -4.04961 0
M  V30 15476 H 1418.46 -0.329507 -5.6474 0
M  V30 15477 H 1417.02 -0.762684 -6.47322 0
M  V30 15478 N 1420.45 0.960609 -1.2494 0
M  V30 15479 C 1421.36 2.0902 -1.06527 0
M  V30 15480 C 1422.38 1.74 -0.00406641 0
M  V30 15481 O 1423.56 2.00367 -0.203744 0
M  V30 15482 C 1420.62 3.39971 -0.679736 0
M  V30 15483 C 1419.68 3.88895 -1.81821 0
M  V30 15484 C 1418.92 5.13597 -1.45098 0
M  V30 15485 O 1419.14 5.69362 -0.343954 0
M  V30 15486 O 1418.07 5.57083 -2.27909 0
M  V30 15487 H 1421.9 2.27453 -2.01243 0
M  V30 15488 H 1419.48 1.07429 -1.03824 0
M  V30 15489 H 1421.37 4.18696 -0.47658 0
M  V30 15490 H 1420.04 3.22822 0.238231 0
M  V30 15491 H 1418.95 3.11201 -2.07617 0
M  V30 15492 H 1420.28 4.10533 -2.7152 0
M  V30 15493 N 1421.93 1.0643 1.16234 0
M  V30 15494 C 1423.34 0.806012 1.68405 0
M  V30 15495 C 1423.69 -0.670197 1.84398 0
M  V30 15496 O 1422.82 -1.51975 1.54054 0
M  V30 15497 C 1423.41 1.45654 3.05893 0
M  V30 15498 C 1421.97 1.24599 3.55179 0
M  V30 15499 C 1421.12 1.53216 2.31128 0
M  V30 15500 H 1424.07 1.22759 1.00578 0
M  V30 15501 H 1424.09 0.872616 3.70359 0
M  V30 15502 H 1423.6 2.53092 2.94221 0
M  V30 15503 H 1421.71 0.191407 3.72108 0
M  V30 15504 H 1421.82 1.95967 4.37188 0
M  V30 15505 H 1420.18 0.952755 2.36209 0
M  V30 15506 H 1420.97 2.61816 2.22052 0
M  V30 15507 N 1423.41 -1.329 0.847073 0
M  V30 15508 C 1424.32 -2.32815 0.288878 0
M  V30 15509 C 1425.34 -1.63715 -0.589363 0
M  V30 15510 O 1426.51 -1.9531 -0.491537 0
M  V30 15511 C 1423.58 -3.42778 -0.519988 0
M  V30 15512 C 1422.64 -4.27584 0.383496 0
M  V30 15513 C 1421.87 -5.32296 -0.386862 0
M  V30 15514 O 1422.09 -5.4698 -1.61768 0
M  V30 15515 O 1421.03 -6.01408 0.2434 0
M  V30 15516 H 1424.85 -2.82434 1.11647 0
M  V30 15517 H 1422.44 -1.36388 0.609807 0
M  V30 15518 H 1424.32 -4.09862 -0.979357 0
M  V30 15519 H 1423 -2.95362 -1.3245 0
M  V30 15520 H 1421.9 -3.63338 0.890879 0
M  V30 15521 H 1423.24 -4.78505 1.15299 0
M  V30 15522 N 1424.89 -0.604284 -1.45555 0
M  V30 15523 C 1426.3 -0.267665 -1.57339 0
M  V30 15524 C 1426.5 1.22984 -1.59616 0
M  V30 15525 O 1425.56 2.0127 -1.52468 0
M  V30 15526 C 1426.87 -0.935923 -2.85764 0
M  V30 15527 C 1428.42 -0.911531 -2.99433 0
M  V30 15528 C 1428.9 -1.55974 -4.30623 0
M  V30 15529 N 1430.39 -1.52507 -4.37374 0
M  V30 15530 C 1431.12 -1.9958 -5.37546 0
M  V30 15531 N 1430.62 -2.54724 -6.44273 0
M  V30 15532 N 1432.41 -1.90368 -5.28882 0
M  V30 15533 H 1424.56 -1.57666 -1.42321 0
M  V30 15534 H 1426.83 -0.66028 -0.680245 0
M  V30 15535 H 1426.53 -1.99022 -2.89971 0
M  V30 15536 H 1426.41 -0.457194 -3.74419 0
M  V30 15537 H 1428.79 0.134206 -2.94795 0
M  V30 15538 H 1428.87 -1.42849 -2.12197 0
M  V30 15539 H 1428.52 -2.60479 -4.3602 0
M  V30 15540 H 1428.45 -1.01782 -5.1667 0
M  V30 15541 H 1430.94 -1.12221 -3.60853 0
M  V30 15542 H 1431.25 -2.88445 -7.16951 0
M  V30 15543 H 1429.6 -2.58761 -6.45033 0
M  V30 15544 H 1432.79 -1.47029 -4.4441 0
M  V30 15545 H 1432.96 -2.27367 -6.06802 0
M  V30 15546 N 1426.37 1.53816 -0.343257 0
M  V30 15547 C 1427.3 2.22552 0.548015 0
M  V30 15548 C 1428.31 1.23202 1.06419 0
M  V30 15549 O 1429.5 1.49559 0.974394 0
M  V30 15550 C 1426.6 2.89197 1.76687 0
M  V30 15551 C 1425.77 4.14859 1.38603 0
M  V30 15552 C 1424.83 4.64917 2.46453 0
M  V30 15553 O 1423.86 5.29135 2.09773 0
M  V30 15554 N 1425.06 4.4082 3.77701 0
M  V30 15555 H 1427.83 2.99672 -0.040645 0
M  V30 15556 H 1425.39 1.61033 -0.167368 0
M  V30 15557 H 1427.38 3.19601 2.48268 0
M  V30 15558 H 1425.95 2.15664 2.26291 0
M  V30 15559 H 1425.17 3.91003 0.501001 0
M  V30 15560 H 1426.46 4.96599 1.10756 0
M  V30 15561 H 1425.85 3.8946 4.1029 0
M  V30 15562 H 1424.41 4.7583 4.45453 0
M  V30 15563 N 1427.84 0.0718701 1.57436 0
M  V30 15564 C 1429.07 -0.605374 1.97532 0
M  V30 15565 C 1429.48 -1.6368 0.948974 0
M  V30 15566 O 1428.83 -1.83556 -0.0726987 0
M  V30 15567 C 1428.89 -1.33139 3.33937 0
M  V30 15568 C 1428.55 -0.453426 4.54745 0
M  V30 15569 C 1429.55 0.289012 5.19096 0
M  V30 15570 C 1427.23 -0.378282 5.00874 0
M  V30 15571 C 1429.23 1.09482 6.27927 0
M  V30 15572 C 1426.91 0.431192 6.09577 0
M  V30 15573 C 1427.91 1.16641 6.72966 0
M  V30 15574 O 1427.6 1.96253 7.79577 0
M  V30 15575 H 1427.33 -0.168804 0.654585 0
M  V30 15576 H 1429.89 0.140832 2.04917 0
M  V30 15577 H 1428.12 -2.12367 3.23167 0
M  V30 15578 H 1429.81 -1.90089 3.58638 0
M  V30 15579 H 1430.57 0.240552 4.84403 0
M  V30 15580 H 1426.45 -0.940166 4.51311 0
M  V30 15581 H 1429.99 1.66918 6.77336 0
M  V30 15582 H 1425.89 0.481217 6.43704 0
M  V30 15583 H 1426.66 1.88686 7.96455 0
M  V30 15584 N 1429.32 -1.56304 -0.201686 0
M  V30 15585 C 1430.26 -1.8907 -1.27781 0
M  V30 15586 C 1431.23 -0.75009 -1.44265 0
M  V30 15587 O 1432.42 -1.00044 -1.59761 0
M  V30 15588 C 1429.54 -2.11513 -2.64537 0
M  V30 15589 C 1428.59 -3.34214 -2.64959 0
M  V30 15590 S 1429.42 -4.89541 -2.17047 0
M  V30 15591 C 1430.58 -5.15044 -3.55641 0
M  V30 15592 H 1430.81 -2.8005 -0.997971 0
M  V30 15593 H 1428.35 -1.48997 -0.404872 0
M  V30 15594 H 1430.3 -2.25126 -3.43262 0
M  V30 15595 H 1428.96 -1.21295 -2.89735 0
M  V30 15596 H 1428.16 -3.47023 -3.65501 0
M  V30 15597 H 1427.76 -3.1956 -1.94312 0
M  V30 15598 H 1430.05 -5.05161 -4.51463 0
M  V30 15599 H 1430.99 -6.16838 -3.47731 0
M  V30 15600 H 1431.4 -4.42704 -3.50248 0
M  V30 15601 N 1430.8 0.469154 -1.50455 0
M  V30 15602 C 1431.75 1.56456 -1.65848 0
M  V30 15603 C 1432.73 1.52501 -0.513048 0
M  V30 15604 O 1433.93 1.59492 -0.767542 0
M  V30 15605 C 1431.06 2.94887 -1.75774 0
M  V30 15606 C 1430.14 3.03719 -2.96 0
M  V30 15607 N 1430.53 2.8236 -4.1965 0
M  V30 15608 C 1428.83 3.34856 -2.94597 0
M  V30 15609 C 1429.53 2.96208 -5.00635 0
M  V30 15610 N 1428.51 3.26494 -4.3463 0
M  V30 15611 H 1432.31 1.38646 -2.59142 0
M  V30 15612 H 1429.82 0.675918 -1.47666 0
M  V30 15613 H 1431.82 3.73652 -1.84905 0
M  V30 15614 H 1430.48 3.13743 -0.836396 0
M  V30 15615 H 1431.49 2.57904 -4.49117 0
M  V30 15616 H 1428.17 3.59687 -2.1197 0
M  V30 15617 H 1429.56 2.83918 -6.08966 0
M  V30 15618 N 1432.28 1.40065 0.722464 0
M  V30 15619 C 1433.53 1.37277 1.47776 0
M  V30 15620 C 1433.84 -0.0242852 1.95585 0
M  V30 15621 O 1435.05 -0.174769 2.70937 0
M  V30 15622 C 1433.5 2.41233 2.67085 0
M  V30 15623 C 1433.11 3.86716 2.26174 0
M  V30 15624 C 1434.85 2.47541 3.44853 0
M  V30 15625 C 1432.76 4.82284 3.42281 0
M  V30 15626 H 1431.69 0.510405 0.55498 0
M  V30 15627 H 1434.34 1.6577 0.786928 0
M  V30 15628 H 1432.72 2.0583 3.38305 0
M  V30 15629 H 1433.9 4.31227 1.6242 0
M  V30 15630 H 1432.21 3.83819 1.61468 0
M  V30 15631 H 1434.81 3.16131 4.31237 0
M  V30 15632 H 1435.15 1.50379 3.8819 0
M  V30 15633 H 1435.69 2.81901 2.80672 0
M  V30 15634 H 1432.43 5.80754 3.03982 0
M  V30 15635 H 1431.95 4.42443 4.04975 0
M  V30 15636 H 1433.62 5.0178 4.08443 0
M  V30 15637 N 1433.76 -0.95397 1.25448 0
M  V30 15638 C 1435.01 -1.6953 1.10018 0
M  V30 15639 C 1435.33 -1.9166 -0.359385 0
M  V30 15640 O 1434.6 -1.50417 -1.25506 0
M  V30 15641 H 1433.18 -0.628238 0.404136 0
M  V30 15642 H 1435.84 -1.14691 1.57581 0
M  V30 15643 H 1434.93 -2.67427 1.60901 0
M  V30 15644 N 1435.24 -1.07045 -1.15668 0
M  V30 15645 C 1436.46 -0.812746 -1.90268 0
M  V30 15646 C 1436.88 0.633722 -1.77847 0
M  V30 15647 O 1436.24 1.43444 -1.12828 0
M  V30 15648 C 1436.29 -1.20793 -3.40722 0
M  V30 15649 O 1436.01 -2.59764 -3.52781 0
M  V30 15650 C 1437.51 -0.979074 -4.32353 0
M  V30 15651 H 1434.73 -0.294093 -0.603117 0
M  V30 15652 H 1437.27 -1.42609 -1.46571 0
M  V30 15653 H 1435.43 -0.638975 -3.82094 0
M  V30 15654 H 1435.84 -2.75801 -4.46133 0
M  V30 15655 H 1437.32 -1.30513 -5.36349 0
M  V30 15656 H 1437.79 0.0847752 -4.39118 0
M  V30 15657 H 1438.4 -1.53278 -3.96719 0
M  V30 15658 N 1436.71 1.32449 -0.85411 0
M  V30 15659 C 1437.65 2.26901 -0.243148 0
M  V30 15660 C 1438.62 1.50375 0.618558 0
M  V30 15661 O 1439.81 1.79501 0.575479 0
M  V30 15662 C 1436.94 3.32265 0.657108 0
M  V30 15663 C 1435.98 4.26298 -0.131141 0
M  V30 15664 S 1436.81 5.14086 -1.49919 0
M  V30 15665 C 1437.97 6.22973 -0.604632 0
M  V30 15666 H 1438.2 2.78373 -1.04384 0
M  V30 15667 H 1435.74 1.39972 -0.651712 0
M  V30 15668 H 1437.69 3.93447 1.17087 0
M  V30 15669 H 1436.36 2.79578 1.4316 0
M  V30 15670 H 1435.55 5.0094 0.55452 0
M  V30 15671 H 1435.15 3.69531 -0.576469 0
M  V30 15672 H 1437.44 6.7723 0.191348 0
M  V30 15673 H 1438.39 6.95656 -1.32168 0
M  V30 15674 H 1438.79 5.64215 -0.179215 0
M  V30 15675 N 1438.19 0.611994 1.45232 0
M  V30 15676 C 1439.44 0.109073 2.02506 0
M  V30 15677 C 1439.77 -1.25876 1.47881 0
M  V30 15678 O 1439.05 -1.83131 0.65524 0
M  V30 15679 C 1439.33 0.0749288 3.60022 0
M  V30 15680 C 1439.18 1.47374 4.24972 0
M  V30 15681 C 1440.5 -0.610602 4.35844 0
M  V30 15682 H 1437.62 0.0411101 0.735853 0
M  V30 15683 H 1440.26 0.78481 1.73034 0
M  V30 15684 H 1438.41 -0.500511 3.85262 0
M  V30 15685 H 1440.08 2.0966 4.10902 0
M  V30 15686 H 1438.33 2.03319 3.83202 0
M  V30 15687 H 1439 1.40206 5.33897 0
M  V30 15688 H 1441.47 -0.121445 4.15923 0
M  V30 15689 H 1440.35 -0.603614 5.45571 0
M  V30 15690 H 1440.61 -1.6775 4.09038 0
M  V30 15691 N 1439.67 -1.53632 0.351409 0
M  V30 15692 C 1440.58 -2.2899 -0.509985 0
M  V30 15693 C 1441.6 -1.34403 -1.10507 0
M  V30 15694 O 1442.77 -1.67448 -1.11906 0
M  V30 15695 C 1439.84 -3.05392 -1.64124 0
M  V30 15696 C 1438.9 -4.15619 -1.07514 0
M  V30 15697 C 1438.13 -4.88369 -2.15248 0
M  V30 15698 O 1438.35 -4.60854 -3.3611 0
M  V30 15699 O 1437.29 -5.74636 -1.79101 0
M  V30 15700 H 1441.11 -3.03526 0.10283 0
M  V30 15701 H 1438.7 -1.48947 0.116214 0
M  V30 15702 H 1440.58 -3.53146 -2.29926 0
M  V30 15703 H 1439.26 -2.33705 -2.23972 0
M  V30 15704 H 1438.16 -3.7215 -0.381421 0
M  V30 15705 H 1439.5 -4.8943 -0.521413 0
M  V30 15706 N 1441.15 -0.0802183 -1.57396 0
M  V30 15707 C 1442.39 0.586962 -1.93807 0
M  V30 15708 C 1442.72 1.69107 -0.960887 0
M  V30 15709 O 1441.98 1.95688 0.0220779 0
M  V30 15710 C 1442.28 1.19551 -3.36812 0
M  V30 15711 C 1441.94 0.216701 -4.50379 0
M  V30 15712 C 1440.6 -0.0525552 -4.81171 0
M  V30 15713 C 1442.96 -0.452467 -5.19232 0
M  V30 15714 C 1440.28 -0.997923 -5.78151 0
M  V30 15715 C 1442.64 -1.38621 -6.17225 0
M  V30 15716 C 1441.3 -1.66385 -6.4643 0
M  V30 15717 H 1440.57 0.214785 -0.709189 0
M  V30 15718 H 1443.22 -0.152888 -1.90889 0
M  V30 15719 H 1441.52 2.01129 -3.36236 0
M  V30 15720 H 1443.22 1.71918 -3.62278 0
M  V30 15721 H 1439.81 0.436747 -4.26369 0
M  V30 15722 H 1443.99 -0.257573 -4.95631 0
M  V30 15723 H 1439.25 -1.22019 -5.991 0
M  V30 15724 H 1443.42 -1.91063 -6.69677 0
M  V30 15725 H 1441.05 -2.39799 -7.21388 0
M  V30 15726 N 1442.63 1.56409 0.193394 0
M  V30 15727 C 1443.59 1.93822 1.22334 0
M  V30 15728 C 1444.59 0.819513 1.3835 0
M  V30 15729 O 1445.78 1.0869 1.36132 0
M  V30 15730 C 1442.91 2.21375 2.59241 0
M  V30 15731 H 1444.1 2.85967 0.903502 0
M  V30 15732 H 1441.66 1.50125 0.43498 0
M  V30 15733 H 1442.39 1.31874 2.96277 0
M  V30 15734 H 1442.18 3.02899 2.48988 0
M  V30 15735 H 1443.67 2.51319 3.33509 0
M  V30 15736 N 1444.1 -0.461169 1.50702 0
M  V30 15737 C 1445.35 -1.21251 1.62186 0
M  V30 15738 C 1445.68 -1.91735 0.326818 0
M  V30 15739 O 1444.93 -1.83212 -0.687879 0
M  V30 15740 C 1445.23 -2.27213 2.75879 0
M  V30 15741 C 1444.9 -1.73912 4.16011 0
M  V30 15742 C 1443.56 -1.59097 4.54138 0
M  V30 15743 C 1445.91 -1.34477 5.03553 0
M  V30 15744 C 1443.24 -1.03285 5.77537 0
M  V30 15745 C 1445.59 -0.801027 6.27508 0
M  V30 15746 C 1444.26 -0.639586 6.64429 0
M  V30 15747 H 1443.53 -0.443689 0.593482 0
M  V30 15748 H 1446.17 -0.507035 1.84666 0
M  V30 15749 H 1444.48 -3.03707 2.47526 0
M  V30 15750 H 1446.18 -2.85124 2.81967 0
M  V30 15751 H 1442.77 -1.86413 3.85938 0
M  V30 15752 H 1446.95 -1.44753 4.74721 0
M  V30 15753 H 1442.21 -0.895316 6.04809 0
M  V30 15754 H 1446.38 -0.486842 6.94696 0
M  V30 15755 H 1444.01 -0.204966 7.59924 0
M  V30 15756 N 1445.58 -1.40446 -0.715026 0
M  V30 15757 C 1446.54 -1.40506 -1.81082 0
M  V30 15758 C 1447.54 -0.298768 -1.58 0
M  V30 15759 O 1448.73 -0.5577 -1.65031 0
M  V30 15760 C 1445.87 -1.19735 -3.19181 0
M  V30 15761 H 1447.06 -2.38034 -1.82427 0
M  V30 15762 H 1444.61 -1.26303 -0.920718 0
M  V30 15763 H 1445.35 -0.229695 -3.23486 0
M  V30 15764 H 1445.13 -1.99871 -3.37334 0
M  V30 15765 H 1446.62 -1.22566 -3.99208 0
M  V30 15766 N 1447.06 0.947303 -1.25952 0
M  V30 15767 C 1447.99 2.0625 -1.09467 0
M  V30 15768 C 1448.97 1.701 -0.00160498 0
M  V30 15769 O 1450.16 1.93432 -0.172501 0
M  V30 15770 C 1447.29 3.39746 -0.720392 0
M  V30 15771 C 1446.24 3.89935 -1.76451 0
M  V30 15772 C 1445.57 5.2001 -1.24472 0
M  V30 15773 C 1446.87 4.15496 -3.16481 0
M  V30 15774 H 1448.56 2.203 -2.02752 0
M  V30 15775 H 1446.11 1.05858 -0.97622 0
M  V30 15776 H 1448.06 4.17221 -0.591972 0
M  V30 15777 H 1446.78 3.25656 0.248161 0
M  V30 15778 H 1445.44 3.14635 -1.8815 0
M  V30 15779 H 1445.09 5.02295 -0.266182 0
M  V30 15780 H 1444.79 5.54559 -1.94263 0
M  V30 15781 H 1446.31 6.00075 -1.12884 0
M  V30 15782 H 1447.73 4.83605 -3.07894 0
M  V30 15783 H 1446.12 4.61315 -3.83808 0
M  V30 15784 H 1447.19 3.21501 -3.62995 0
M  V30 15785 N 1448.54 1.07657 1.15099 0
M  V30 15786 C 1449.78 0.802796 1.86234 0
M  V30 15787 C 1450.12 -0.669555 1.82293 0
M  V30 15788 O 1449.39 -1.49162 1.24823 0
M  V30 15789 C 1449.68 1.3156 3.35208 0
M  V30 15790 C 1449.53 2.85272 3.47764 0
M  V30 15791 C 1450.85 0.934641 4.30061 0
M  V30 15792 H 1447.97 0.293099 0.676212 0
M  V30 15793 H 1450.61 1.33488 1.35207 0
M  V30 15794 H 1448.76 0.86298 3.78794 0
M  V30 15795 H 1450.43 3.38847 3.13018 0
M  V30 15796 H 1448.67 3.23316 2.89222 0
M  V30 15797 H 1449.34 3.16223 4.52446 0
M  V30 15798 H 1451.82 1.3247 3.9445 0
M  V30 15799 H 1450.7 1.32074 5.32774 0
M  V30 15800 H 1450.96 -0.159122 4.41814 0
M  V30 15801 N 1450.02 -1.31994 0.861122 0
M  V30 15802 C 1451.26 -1.96636 0.466754 0
M  V30 15803 C 1451.59 -1.6845 -0.982328 0
M  V30 15804 O 1450.86 -0.995157 -1.68741 0
M  V30 15805 H 1449.44 -0.727489 0.169613 0
M  V30 15806 H 1452.1 -1.60962 1.09897 0
M  V30 15807 H 1451.19 -3.05937 0.61716 0
M  V30 15808 N 1451.49 -0.619688 -1.44906 0
M  V30 15809 C 1452.44 0.0920359 -2.30616 0
M  V30 15810 C 1453.41 0.848114 -1.42815 0
M  V30 15811 O 1454.6 0.831439 -1.71732 0
M  V30 15812 C 1451.74 1.07537 -3.27917 0
M  V30 15813 C 1450.85 0.318904 -4.30821 0
M  V30 15814 C 1449.98 1.29303 -5.15222 0
M  V30 15815 C 1449.02 0.525071 -6.09844 0
M  V30 15816 N 1448.16 1.44909 -6.86983 0
M  V30 15817 H 1453 -0.644834 -2.9094 0
M  V30 15818 H 1450.54 -0.329785 -1.43356 0
M  V30 15819 H 1452.5 1.65874 -3.82808 0
M  V30 15820 H 1451.13 1.7795 -2.6932 0
M  V30 15821 H 1450.18 -0.380192 -3.78495 0
M  V30 15822 H 1451.49 -0.279742 -4.98015 0
M  V30 15823 H 1450.64 1.94809 -5.74573 0
M  V30 15824 H 1449.38 1.92561 -4.48076 0
M  V30 15825 H 1448.39 -0.14355 -5.49613 0
M  V30 15826 H 1449.61 -0.102625 -6.79022 0
M  V30 15827 H 1447.56 2.06908 -6.22515 0
M  V30 15828 H 1447.48 0.90418 -7.50574 0
M  V30 15829 H 1448.74 2.09335 -7.50866 0
M  V30 15830 N 1452.97 1.53444 -0.359552 0
M  V30 15831 C 1453.9 2.28475 0.4818 0
M  V30 15832 C 1454.88 1.30664 1.08908 0
M  V30 15833 O 1456.07 1.59527 1.10746 0
M  V30 15834 C 1453.2 3.06951 1.62477 0
M  V30 15835 C 1452.15 4.12399 1.14504 0
M  V30 15836 C 1451.48 4.78922 2.37777 0
M  V30 15837 C 1452.78 5.21775 0.234075 0
M  V30 15838 H 1454.47 2.99053 -0.144162 0
M  V30 15839 H 1452.02 1.43826 -0.0707746 0
M  V30 15840 H 1453.97 3.58186 2.21993 0
M  V30 15841 H 1452.7 2.34053 2.27787 0
M  V30 15842 H 1451.35 3.62101 0.572589 0
M  V30 15843 H 1451 4.02602 3.0153 0
M  V30 15844 H 1450.7 5.50175 2.06353 0
M  V30 15845 H 1452.23 5.32948 2.97991 0
M  V30 15846 H 1453.64 5.68549 0.736548 0
M  V30 15847 H 1452.04 6.00099 0.0109887 0
M  V30 15848 H 1453.11 4.79443 -0.725435 0
M  V30 15849 N 1454.45 0.0885642 1.57351 0
M  V30 15850 C 1455.73 -0.618587 1.85561 0
M  V30 15851 C 1456.11 -1.86753 0.984206 0
M  V30 15852 O 1455.46 -2.28434 0.0548839 0
M  V30 15853 C 1455.67 -0.940222 3.36096 0
M  V30 15854 C 1457.01 -1.30649 4.04 0
M  V30 15855 O 1458.04 -1.03144 3.4094 0
M  V30 15856 O 1456.9 -1.82135 5.15256 0
M  V30 15857 H 1453.99 -0.308881 0.767152 0
M  V30 15858 H 1456.54 0.120767 1.6927 0
M  V30 15859 H 1455.31 -0.0538991 3.91263 0
M  V30 15860 H 1454.93 -1.73577 3.5771 0
M  V30 15861 N 1455.93 -1.56509 -0.185096 0
M  V30 15862 C 1456.89 -1.94468 -1.21305 0
M  V30 15863 C 1457.89 -0.826838 -1.37913 0
M  V30 15864 O 1459.08 -1.09411 -1.35554 0
M  V30 15865 C 1456.21 -2.22747 -2.58063 0
M  V30 15866 H 1457.41 -2.86442 -0.888323 0
M  V30 15867 H 1454.96 -1.50354 -0.427012 0
M  V30 15868 H 1455.69 -1.33443 -2.95573 0
M  V30 15869 H 1455.48 -3.04215 -2.47378 0
M  V30 15870 H 1456.97 -2.53084 -3.32172 0
M  V30 15871 N 1457.41 0.45317 -1.50944 0
M  V30 15872 C 1458.66 1.20076 -1.62064 0
M  V30 15873 C 1458.97 1.92709 -0.335034 0
M  V30 15874 O 1460.17 2.69543 -0.32538 0
M  V30 15875 C 1458.63 2.18283 -2.86148 0
M  V30 15876 C 1458.24 1.5137 -4.21653 0
M  V30 15877 C 1459.98 2.93572 -3.0662 0
M  V30 15878 C 1457.89 2.47968 -5.36904 0
M  V30 15879 H 1456.82 0.451894 -0.603579 0
M  V30 15880 H 1459.47 0.46937 -1.77396 0
M  V30 15881 H 1457.85 2.94789 -2.64415 0
M  V30 15882 H 1459.03 0.805295 -4.53709 0
M  V30 15883 H 1457.34 0.882935 -4.06931 0
M  V30 15884 H 1459.94 3.65903 -3.89897 0
M  V30 15885 H 1460.28 3.54003 -2.1906 0
M  V30 15886 H 1460.81 2.24175 -3.28619 0
M  V30 15887 H 1457.55 1.92249 -6.26674 0
M  V30 15888 H 1457.07 3.16907 -5.09244 0
M  V30 15889 H 1458.75 3.09428 -5.6821 0
M  V30 15890 N 1458.88 1.40823 0.707568 0
M  V30 15891 C 1459.83 1.4191 1.84294 0
M  V30 15892 C 1460.83 0.298592 1.66748 0
M  V30 15893 O 1462.03 0.47003 1.73755 0
M  V30 15894 H 1458.41 0.44376 0.607109 0
M  V30 15895 H 1460.38 2.37623 1.80494 0
M  V30 15896 C 1459.13 1.30643 3.22223 0
M  V30 15897 H 1458.45 2.16145 3.36335 0
M  V30 15898 H 1459.89 1.35463 4.01778 0
M  V30 15899 C 1458.35 0.0174867 3.36895 0
M  V30 15900 O 1458.88 -0.942398 3.90489 0
M  V30 15901 N 1457.09 -0.0546572 2.90549 0
M  V30 15902 H 1456.63 0.727204 2.47122 0
M  V30 15903 H 1456.59 -0.916521 3.00744 0
M  V30 15904 N 1460.36 -0.94061 1.26453 0
M  V30 15905 C 1461.31 -2.03941 1.08059 0
M  V30 15906 C 1462.28 -1.66094 -0.0145388 0
M  V30 15907 O 1463.46 -1.90246 0.145338 0
M  V30 15908 C 1460.6 -3.37501 0.720228 0
M  V30 15909 C 1459.72 -3.88381 1.89167 0
M  V30 15910 C 1458.85 -5.10329 1.47437 0
M  V30 15911 C 1457.89 -5.53473 2.61408 0
M  V30 15912 N 1457.03 -6.66624 2.20355 0
M  V30 15913 H 1461.87 -2.19006 2.0209 0
M  V30 15914 H 1459.41 -1.07305 1.00618 0
M  V30 15915 H 1461.36 -4.14287 0.492177 0
M  V30 15916 H 1459.99 -3.2228 -0.183101 0
M  V30 15917 H 1459.05 -3.0799 2.23264 0
M  V30 15918 H 1460.36 -4.16338 2.74708 0
M  V30 15919 H 1459.51 -5.94577 1.20679 0
M  V30 15920 H 1458.25 -4.8412 0.589873 0
M  V30 15921 H 1457.26 -4.67782 2.88894 0
M  V30 15922 H 1458.48 -5.81684 3.50458 0
M  V30 15923 H 1456.43 -6.42097 1.34341 0
M  V30 15924 H 1456.34 -6.9417 2.99439 0
M  V30 15925 H 1457.61 -7.54245 1.96811 0
M  V30 15926 N 1461.84 -1.08266 -1.14527 0
M  V30 15927 C 1462.79 -0.680977 -2.17593 0
M  V30 15928 C 1463.77 0.298653 -1.58104 0
M  V30 15929 O 1464.97 0.110901 -1.76652 0
M  V30 15930 C 1462.1 -0.0902883 -3.43181 0
M  V30 15931 C 1461.18 -1.09562 -4.09704 0
M  V30 15932 N 1461.57 -2.27853 -4.51571 0
M  V30 15933 C 1459.87 -0.931053 -4.36174 0
M  V30 15934 C 1460.57 -2.91708 -5.03271 0
M  V30 15935 N 1459.55 -2.19325 -4.97391 0
M  V30 15936 H 1463.35 -1.58178 -2.47703 0
M  V30 15937 H 1460.86 -0.957169 -1.31195 0
M  V30 15938 H 1462.86 0.215428 -4.16343 0
M  V30 15939 H 1461.52 0.805513 -3.1455 0
M  V30 15940 H 1462.53 -2.65517 -4.44659 0
M  V30 15941 H 1459.21 -0.0889339 -4.17405 0
M  V30 15942 H 1460.6 -3.92202 -5.45552 0
M  V30 15943 N 1463.32 1.31536 -0.86811 0
M  V30 15944 C 1464.54 2.01487 -0.491705 0
M  V30 15945 C 1464.97 1.64744 0.907803 0
M  V30 15946 O 1464.33 0.855093 1.59868 0
M  V30 15947 C 1464.38 3.54621 -0.65395 0
M  V30 15948 O 1463.48 4.11252 0.307532 0
M  V30 15949 H 1462.82 0.634469 -0.195819 0
M  V30 15950 H 1465.35 1.67775 -1.17101 0
M  V30 15951 H 1465.36 4.04323 -0.546539 0
M  V30 15952 H 1464.04 3.80704 -1.67443 0
M  V30 15953 H 1462.61 3.72577 0.155233 0
M  V30 15954 N 1464.8 0.627364 1.44575 0
M  V30 15955 C 1466.04 0.130352 2.0208 0
M  V30 15956 C 1466.37 -1.24642 1.49314 0
M  V30 15957 O 1465.63 -1.84022 0.665923 0
M  V30 15958 C 1465.93 0.0622409 3.57346 0
M  V30 15959 C 1465.59 1.37729 4.2935 0
M  V30 15960 C 1464.25 1.73747 4.48737 0
M  V30 15961 C 1466.61 2.2455 4.70347 0
M  V30 15962 C 1463.93 2.96301 5.06382 0
M  V30 15963 C 1466.29 3.46371 5.29349 0
M  V30 15964 C 1464.95 3.82616 5.46956 0
M  V30 15965 H 1464.22 0.0476991 0.739463 0
M  V30 15966 H 1466.87 0.812928 1.73389 0
M  V30 15967 H 1465.17 -0.70369 3.85429 0
M  V30 15968 H 1466.87 -0.338778 3.99566 0
M  V30 15969 H 1463.46 1.08699 4.14587 0
M  V30 15970 H 1467.64 1.98019 4.55085 0
M  V30 15971 H 1462.9 3.24465 5.18201 0
M  V30 15972 H 1467.07 4.13882 5.60067 0
M  V30 15973 H 1464.7 4.77663 5.9139 0
M  V30 15974 N 1466.28 -1.53251 0.367684 0
M  V30 15975 C 1467.22 -2.27318 -0.4929 0
M  V30 15976 C 1468.22 -1.30376 -1.08159 0
M  V30 15977 O 1469.42 -1.47996 -1.02455 0
M  V30 15978 H 1465.8 -0.730709 -0.177677 0
M  V30 15979 H 1467.77 -2.98005 0.153525 0
M  V30 15980 C 1466.52 -3.07678 -1.61955 0
M  V30 15981 H 1465.84 -3.82117 -1.17587 0
M  V30 15982 H 1467.28 -3.62678 -2.19638 0
M  V30 15983 C 1465.74 -2.18648 -2.5631 0
M  V30 15984 O 1466.27 -1.79869 -3.5918 0
M  V30 15985 N 1464.48 -1.83239 -2.25548 0
M  V30 15986 H 1464.02 -2.14973 -1.4193 0
M  V30 15987 H 1463.98 -1.23957 -2.88933 0
M  V30 15988 N 1467.75 -0.0969077 -1.57302 0
M  V30 15989 C 1469.03 0.608737 -1.85886 0
M  V30 15990 C 1469.41 1.86228 -0.994096 0
M  V30 15991 O 1468.76 2.28402 -0.0669975 0
M  V30 15992 C 1468.97 0.922385 -3.3659 0
M  V30 15993 C 1470.32 1.28505 -4.04687 0
M  V30 15994 O 1471.34 1.01334 -3.41482 0
M  V30 15995 O 1470.2 1.794 -5.16215 0
M  V30 15996 H 1467.29 0.304808 -0.768779 0
M  V30 15997 H 1469.84 -0.129742 -1.69203 0
M  V30 15998 H 1468.61 0.0331488 -3.91286 0
M  V30 15999 H 1468.23 1.71678 -3.58626 0
M  V30 16000 N 1469.23 1.56605 0.176793 0
M  V30 16001 C 1470.48 1.81682 0.894302 0
M  V30 16002 C 1470.81 0.67311 1.82481 0
M  V30 16003 O 1470.06 -0.339995 1.92724 0
M  V30 16004 C 1470.36 3.12888 1.7273 0
M  V30 16005 C 1470.03 4.40861 0.946186 0
M  V30 16006 C 1468.69 4.75622 0.730586 0
M  V30 16007 C 1471.04 5.19679 0.397889 0
M  V30 16008 C 1468.37 5.86683 -0.0444995 0
M  V30 16009 C 1470.72 6.31551 -0.36408 0
M  V30 16010 C 1469.38 6.64883 -0.59053 0
M  V30 16011 H 1468.65 0.664823 0.327248 0
M  V30 16012 H 1471.3 1.90834 0.159555 0
M  V30 16013 H 1469.61 2.99055 2.53128 0
M  V30 16014 H 1471.3 3.295 2.2854 0
M  V30 16015 H 1467.89 4.13592 1.12426 0
M  V30 16016 H 1472.08 4.93223 0.55181 0
M  V30 16017 H 1467.33 6.10968 -0.229739 0
M  V30 16018 H 1471.51 6.91833 -0.796223 0
M  V30 16019 H 1469.13 7.50781 -1.19301 0
M  V30 16020 N 1470.71 -0.445159 1.51182 0
M  V30 16021 C 1471.66 -1.53975 1.71931 0
M  V30 16022 C 1472.63 -1.56344 0.560865 0
M  V30 16023 O 1473.81 -1.73475 0.794414 0
M  V30 16024 C 1470.95 -2.91756 1.84316 0
M  V30 16025 C 1470.06 -2.98976 3.11829 0
M  V30 16026 C 1469.2 -4.27831 3.14855 0
M  V30 16027 C 1468.24 -4.2889 4.36715 0
M  V30 16028 N 1467.38 -5.49257 4.37334 0
M  V30 16029 H 1472.22 -1.35586 2.65368 0
M  V30 16030 H 1469.75 -0.658787 1.31523 0
M  V30 16031 H 1471.71 -3.7169 1.89479 0
M  V30 16032 H 1470.34 -3.08721 0.942947 0
M  V30 16033 H 1469.39 -2.11753 3.16014 0
M  V30 16034 H 1470.7 -2.95619 4.01759 0
M  V30 16035 H 1469.86 -5.16134 3.1889 0
M  V30 16036 H 1468.6 -4.33833 2.228 0
M  V30 16037 H 1467.6 -3.38982 4.32864 0
M  V30 16038 H 1468.83 -4.24558 5.30026 0
M  V30 16039 H 1466.77 -5.55995 3.48145 0
M  V30 16040 H 1466.69 -5.47748 5.21064 0
M  V30 16041 H 1467.96 -6.39613 4.45551 0
M  V30 16042 N 1472.19 -1.41197 -0.700089 0
M  V30 16043 C 1473.12 -1.45456 -1.8266 0
M  V30 16044 C 1474.1 -0.313719 -1.67182 0
M  V30 16045 O 1475.28 -0.524528 -1.86982 0
M  V30 16046 C 1472.41 -1.33161 -3.20758 0
M  V30 16047 C 1471.37 -2.4501 -3.50933 0
M  V30 16048 C 1470.69 -2.17782 -4.88339 0
M  V30 16049 C 1471.99 -3.87352 -3.50365 0
M  V30 16050 H 1473.69 -2.39735 -1.79353 0
M  V30 16051 H 1471.23 -1.1539 -0.861465 0
M  V30 16052 H 1473.19 -1.34754 -3.99274 0
M  V30 16053 H 1471.91 -0.353646 -3.2468 0
M  V30 16054 H 1470.57 -2.42692 -2.74766 0
M  V30 16055 H 1470.22 -1.1834 -4.88881 0
M  V30 16056 H 1469.92 -2.92728 -5.09494 0
M  V30 16057 H 1471.44 -2.21083 -5.6917 0
M  V30 16058 H 1472.86 -3.9141 -4.18893 0
M  V30 16059 H 1471.25 -4.61944 -3.83051 0
M  V30 16060 H 1472.32 -4.15827 -2.4943 0
M  V30 16061 N 1473.67 0.933891 -1.2695 0
M  V30 16062 C 1475.08 1.20873 -1.0422 0
M  V30 16063 C 1475.28 2.00205 0.228112 0
M  V30 16064 O 1474.34 2.34539 0.935284 0
M  V30 16065 C 1475.65 1.9629 -2.27795 0
M  V30 16066 C 1477.2 2.09254 -2.3277 0
M  V30 16067 C 1477.67 2.88075 -3.56057 0
M  V30 16068 N 1479.16 2.95646 -3.56578 0
M  V30 16069 C 1479.9 3.57082 -4.48642 0
M  V30 16070 N 1479.4 4.1996 -5.51004 0
M  V30 16071 N 1481.19 3.54425 -4.36279 0
M  V30 16072 H 1473.34 0.403735 -2.08528 0
M  V30 16073 H 1475.6 0.241189 -0.916805 0
M  V30 16074 H 1475.31 1.45412 -3.20231 0
M  V30 16075 H 1475.18 2.9693 -2.32621 0
M  V30 16076 H 1477.57 2.5932 -1.40844 0
M  V30 16077 H 1477.65 1.07854 -2.31951 0
M  V30 16078 H 1477.29 2.38693 -4.48317 0
M  V30 16079 H 1477.22 3.89746 -3.54126 0
M  V30 16080 H 1479.72 2.50951 -2.82545 0
M  V30 16081 H 1480.03 4.64758 -6.1743 0
M  V30 16082 H 1478.37 4.18525 -5.54853 0
M  V30 16083 H 1481.56 3.045 -3.55524 0
M  V30 16084 H 1481.74 4.02016 -5.0822 0
M  V30 16085 N 1475.14 1.08871 1.13951 0
M  V30 16086 C 1476.39 0.822504 1.85372 0
M  V30 16087 C 1476.72 -0.650183 1.82993 0
M  V30 16088 O 1476 -1.4783 1.26398 0
M  V30 16089 C 1476.28 1.35107 3.33793 0
M  V30 16090 C 1476.13 2.88945 3.44719 0
M  V30 16091 C 1477.45 0.980203 4.29045 0
M  V30 16092 H 1474.57 0.300255 0.673065 0
M  V30 16093 H 1477.21 1.34914 1.33784 0
M  V30 16094 H 1475.36 0.903108 3.77857 0
M  V30 16095 H 1477.04 3.42148 3.09407 0
M  V30 16096 H 1475.28 3.26365 2.85777 0
M  V30 16097 H 1475.95 3.21004 4.49066 0
M  V30 16098 H 1478.43 1.36646 3.93023 0
M  V30 16099 H 1477.3 1.37717 5.31343 0
M  V30 16100 H 1477.56 -0.112253 4.41957 0
M  V30 16101 N 1476.62 -1.31073 0.875073 0
M  V30 16102 C 1477.87 -1.9613 0.487584 0
M  V30 16103 C 1478.19 -1.69482 -0.964407 0
M  V30 16104 O 1477.46 -1.013 -1.67676 0
M  V30 16105 H 1476.04 -0.725649 0.177319 0
M  V30 16106 H 1478.7 -1.59787 1.11598 0
M  V30 16107 H 1477.8 -3.05265 0.649574 0
M  V30 16108 N 1478.1 -0.635022 -1.4424 0
M  V30 16109 C 1479.35 -0.138497 -2.01224 0
M  V30 16110 C 1479.66 1.2485 -1.50571 0
M  V30 16111 O 1480.87 1.83926 -1.99709 0
M  V30 16112 C 1479.32 -0.196836 -3.59361 0
M  V30 16113 C 1478.93 -1.58539 -4.1901 0
M  V30 16114 C 1480.68 0.243025 -4.23804 0
M  V30 16115 C 1478.58 -1.59864 -5.69384 0
M  V30 16116 H 1477.51 -0.0480117 -0.75247 0
M  V30 16117 H 1480.16 -0.794391 -1.65414 0
M  V30 16118 H 1478.55 0.526231 -3.92488 0
M  V30 16119 H 1479.72 -2.33236 -3.97414 0
M  V30 16120 H 1478.04 -1.96967 -3.66869 0
M  V30 16121 H 1480.63 0.252717 -5.34102 0
M  V30 16122 H 1480.98 1.27107 -3.96421 0
M  V30 16123 H 1481.51 -0.427678 -3.95494 0
M  V30 16124 H 1478.25 -2.60518 -6.01507 0
M  V30 16125 H 1477.77 -0.894664 -5.9309 0
M  V30 16126 H 1479.45 -1.3343 -6.33092 0
M  V30 16127 N 1479.58 1.53054 -0.375806 0
M  V30 16128 C 1480.53 2.27576 0.480838 0
M  V30 16129 C 1481.52 1.30948 1.07466 0
M  V30 16130 O 1482.73 1.48538 1.01669 0
M  V30 16131 H 1479.1 0.731641 0.173799 0
M  V30 16132 H 1481.07 2.97919 -0.169327 0
M  V30 16133 C 1479.82 3.08533 1.60321 0
M  V30 16134 H 1479.14 3.82735 1.15558 0
M  V30 16135 H 1480.58 3.63837 2.17712 0
M  V30 16136 C 1479.04 2.20004 2.55147 0
M  V30 16137 O 1479.57 1.81771 3.58221 0
M  V30 16138 N 1477.78 1.84433 2.24573 0
M  V30 16139 H 1477.33 2.15723 1.40788 0
M  V30 16140 H 1477.28 1.25488 2.88271 0
M  V30 16141 N 1481.06 0.105248 1.57248 0
M  V30 16142 C 1482.01 -0.860855 2.11124 0
M  V30 16143 C 1482.99 -1.23721 1.02868 0
M  V30 16144 O 1484.18 -1.2106 1.29126 0
M  V30 16145 C 1481.31 -2.11612 2.70325 0
M  V30 16146 C 1480.4 -1.76474 3.85639 0
M  V30 16147 N 1480.79 -1.11944 4.93257 0
M  V30 16148 C 1479.09 -2.0602 3.95565 0
M  V30 16149 C 1479.79 -0.956421 5.73783 0
M  V30 16150 N 1478.76 -1.47701 5.23149 0
M  V30 16151 H 1482.57 -0.35816 2.91709 0
M  V30 16152 H 1480.08 -0.0976543 1.62106 0
M  V30 16153 H 1482.08 -2.81778 3.07257 0
M  V30 16154 H 1480.74 -2.62438 1.91198 0
M  V30 16155 H 1481.75 -0.785042 5.11916 0
M  V30 16156 H 1478.42 -2.58989 3.27461 0
M  V30 16157 H 1479.81 -0.450964 6.70385 0
M  V30 16158 N 1482.53 -1.56697 -0.168486 0
M  V30 16159 C 1483.78 -1.81794 -0.882907 0
M  V30 16160 C 1484.1 -0.682707 -1.82658 0
M  V30 16161 O 1483.37 0.297234 -1.93632 0
M  V30 16162 H 1481.95 -0.670636 -0.329024 0
M  V30 16163 H 1484.62 -1.94178 -0.167625 0
M  V30 16164 H 1483.71 -2.75945 -1.45811 0
M  V30 16165 N 1484.01 0.437135 -1.51416 0
M  V30 16166 C 1485.42 1.01699 -1.5657 0
M  V30 16167 C 1485.77 1.92299 -0.389291 0
M  V30 16168 O 1484.9 2.10689 0.49389 0
M  V30 16169 C 1485.49 1.85119 -2.83754 0
M  V30 16170 C 1484.05 2.38154 -2.91478 0
M  V30 16171 C 1483.2 1.17374 -2.51234 0
M  V30 16172 H 1486.15 0.218399 -1.5719 0
M  V30 16173 H 1486.17 2.70572 -2.67528 0
M  V30 16174 H 1485.68 1.19153 -3.69357 0
M  V30 16175 H 1483.79 3.07575 -2.10306 0
M  V30 16176 H 1483.9 2.70937 -3.95133 0
M  V30 16177 H 1482.26 1.51913 -2.04437 0
M  V30 16178 H 1483.05 0.530176 -3.39181 0
M  V30 16179 N 1485.49 1.41566 0.692592 0
M  V30 16180 C 1486.74 1.41292 1.4548 0
M  V30 16181 C 1487.07 0.0229093 1.94186 0
M  V30 16182 O 1486.34 -0.949849 1.6973 0
M  V30 16183 C 1486.63 2.42225 2.66457 0
M  V30 16184 C 1486.48 3.90345 2.23496 0
M  V30 16185 C 1487.8 2.40374 3.68658 0
M  V30 16186 H 1484.92 0.51453 0.527663 0
M  V30 16187 H 1487.56 1.72862 0.788598 0
M  V30 16188 H 1485.71 2.15435 3.23296 0
M  V30 16189 H 1487.38 4.2805 1.71962 0
M  V30 16190 H 1485.63 4.05068 1.55249 0
M  V30 16191 H 1486.3 4.56518 3.10314 0
M  V30 16192 H 1488.77 2.64156 3.21498 0
M  V30 16193 H 1487.65 3.13004 4.5091 0
M  V30 16194 H 1487.91 1.42338 4.1856 0
M  V30 16195 N 1486.97 -0.927146 1.27443 0
M  V30 16196 C 1488.22 -1.66941 1.13197 0
M  V30 16197 C 1488.53 -1.92939 -0.32156 0
M  V30 16198 O 1489.74 -2.65124 -0.584931 0
M  V30 16199 C 1488.19 -3.00677 1.97791 0
M  V30 16200 C 1487.8 -2.82376 3.47805 0
M  V30 16201 C 1489.54 -3.78499 1.92195 0
M  V30 16202 C 1487.45 -4.1167 4.24596 0
M  V30 16203 H 1486.38 -0.626171 0.420031 0
M  V30 16204 H 1489.03 -1.02997 1.51868 0
M  V30 16205 H 1487.41 -3.65681 1.51965 0
M  V30 16206 H 1488.59 -2.26135 4.01497 0
M  V30 16207 H 1486.9 -2.17982 3.54786 0
M  V30 16208 H 1489.5 -4.74312 2.46844 0
M  V30 16209 H 1489.84 -4.0655 0.895702 0
M  V30 16210 H 1490.38 -3.20292 2.35919 0
M  V30 16211 H 1487.12 -3.88798 5.27747 0
M  V30 16212 H 1486.64 -4.67573 3.75681 0
M  V30 16213 H 1488.31 -4.80028 4.338 0
M  V30 16214 N 1488.45 -1.09474 -1.13372 0
M  V30 16215 C 1489.41 -0.738173 -2.16988 0
M  V30 16216 C 1490.41 0.232488 -1.5911 0
M  V30 16217 O 1491.6 0.0106093 -1.74197 0
M  V30 16218 C 1488.73 -0.091724 -3.40777 0
M  V30 16219 H 1489.92 -1.65582 -2.50045 0
M  V30 16220 H 1487.48 -0.893994 -1.28209 0
M  V30 16221 H 1488.21 0.837129 -3.13309 0
M  V30 16222 H 1488 -0.790161 -3.84056 0
M  V30 16223 H 1489.49 0.142334 -4.17357 0
M  V30 16224 N 1489.92 1.30607 -0.882012 0
M  V30 16225 C 1491.17 1.95869 -0.497978 0
M  V30 16226 C 1491.49 1.69991 0.955405 0
M  V30 16227 O 1490.76 1.02188 1.67136 0
M  V30 16228 H 1489.34 0.724699 -0.181165 0
M  V30 16229 H 1492.01 1.59193 -1.12444 0
M  V30 16230 H 1491.1 3.04917 -0.665754 0
M  V30 16231 N 1491.4 0.642663 1.43901 0
M  V30 16232 C 1492.65 0.152003 2.0223 0
M  V30 16233 C 1492.98 -1.22711 1.50518 0
M  V30 16234 O 1492.26 -1.817 0.693937 0
M  V30 16235 C 1492.54 0.151278 3.59782 0
M  V30 16236 C 1492.39 1.56356 4.2175 0
M  V30 16237 C 1493.71 -0.518016 4.37041 0
M  V30 16238 H 1490.83 0.0567094 0.734815 0
M  V30 16239 H 1493.47 0.821337 1.7133 0
M  V30 16240 H 1491.62 -0.418679 3.86237 0
M  V30 16241 H 1493.29 2.18329 4.06362 0
M  V30 16242 H 1491.54 2.11401 3.78803 0
M  V30 16243 H 1492.21 1.51499 5.30803 0
M  V30 16244 H 1494.68 -0.0331947 4.16087 0
M  V30 16245 H 1493.56 -0.487754 5.46729 0
M  V30 16246 H 1493.82 -1.59036 4.12504 0
M  V30 16247 N 1492.88 -1.52852 0.383918 0
M  V30 16248 C 1494.13 -2.00694 -0.201206 0
M  V30 16249 C 1494.44 -1.2748 -1.48352 0
M  V30 16250 O 1495.65 -1.66005 -2.14836 0
M  V30 16251 C 1494.11 -3.57567 -0.409117 0
M  V30 16252 C 1493.71 -4.39675 0.859628 0
M  V30 16253 C 1495.46 -4.13713 -0.950899 0
M  V30 16254 C 1493.36 -5.88138 0.620292 0
M  V30 16255 H 1492.29 -0.749854 -0.0789656 0
M  V30 16256 H 1494.95 -1.764 0.505488 0
M  V30 16257 H 1493.33 -3.78088 -1.17753 0
M  V30 16258 H 1494.5 -4.30923 1.63224 0
M  V30 16259 H 1492.82 -3.94724 1.32597 0
M  V30 16260 H 1495.41 -5.22284 -1.14558 0
M  V30 16261 H 1495.76 -3.69463 -1.9184 0
M  V30 16262 H 1496.29 -3.97062 -0.242195 0
M  V30 16263 H 1493.03 -6.367 1.55864 0
M  V30 16264 H 1492.55 -5.99693 -0.113483 0
M  V30 16265 H 1494.23 -6.46506 0.252775 0
M  V30 16266 N 1494.36 -0.113586 -1.5719 0
M  V30 16267 C 1495.61 0.544642 -1.94623 0
M  V30 16268 C 1495.93 1.6756 -0.997428 0
M  V30 16269 O 1495.2 1.95829 -0.0527521 0
M  V30 16270 H 1493.78 0.204186 -0.718552 0
M  V30 16271 H 1496.44 -0.181258 -1.94055 0
M  V30 16272 H 1495.54 0.942765 -2.9752 0
M  V30 16273 N 1495.84 1.56784 0.160173 0
M  V30 16274 C 1496.8 1.96373 1.18195 0
M  V30 16275 C 1497.8 0.848674 1.3658 0
M  V30 16276 O 1498.99 1.11553 1.33796 0
M  V30 16277 C 1496.12 2.26824 2.54487 0
M  V30 16278 H 1497.32 2.87819 0.842641 0
M  V30 16279 H 1494.87 1.51014 0.403038 0
M  V30 16280 H 1495.6 1.38129 2.93413 0
M  V30 16281 H 1495.39 3.08112 2.42507 0
M  V30 16282 H 1496.88 2.58337 3.28104 0
M  V30 16283 N 1497.32 -0.429099 1.51646 0
M  V30 16284 C 1498.25 -1.53996 1.69758 0
M  V30 16285 C 1499.26 -1.52189 0.578138 0
M  V30 16286 O 1500.45 -1.56816 0.852709 0
M  V30 16287 C 1497.55 -2.9291 1.7046 0
M  V30 16288 C 1496.72 -3.19132 2.99122 0
M  V30 16289 C 1495.78 -4.37813 2.91901 0
M  V30 16290 O 1494.81 -4.36065 3.65836 0
M  V30 16291 N 1496.01 -5.41834 2.08317 0
M  V30 16292 H 1498.77 -1.38861 2.65589 0
M  V30 16293 H 1496.34 -0.618148 1.49635 0
M  V30 16294 H 1498.33 -3.7034 1.63187 0
M  V30 16295 H 1496.9 -3.01602 0.821877 0
M  V30 16296 H 1496.12 -2.29926 3.20199 0
M  V30 16297 H 1497.41 -3.33483 3.84274 0
M  V30 16298 H 1496.8 -5.46094 1.4764 0
M  V30 16299 H 1495.36 -6.18085 2.06917 0
M  V30 16300 N 1498.79 -1.41931 -0.685074 0
M  V30 16301 C 1499.74 -1.44604 -1.79884 0
M  V30 16302 C 1500.71 -0.299166 -1.63384 0
M  V30 16303 O 1501.9 -0.501749 -1.84085 0
M  V30 16304 C 1499.04 -1.3442 -3.17845 0
M  V30 16305 C 1498.15 -2.59061 -3.45704 0
M  V30 16306 C 1497.28 -2.41094 -4.73336 0
M  V30 16307 C 1496.32 -3.61159 -4.94197 0
M  V30 16308 N 1495.46 -3.42198 -6.13062 0
M  V30 16309 H 1500.3 -2.39788 -1.76934 0
M  V30 16310 H 1497.84 -1.1906 -0.863891 0
M  V30 16311 H 1499.79 -1.26515 -3.97555 0
M  V30 16312 H 1498.42 -0.42838 -3.19945 0
M  V30 16313 H 1497.48 -2.77374 -2.60322 0
M  V30 16314 H 1498.79 -3.48341 -3.57016 0
M  V30 16315 H 1497.94 -2.30717 -5.61119 0
M  V30 16316 H 1496.68 -1.49288 -4.64289 0
M  V30 16317 H 1495.69 -3.7198 -4.04859 0
M  V30 16318 H 1496.91 -4.53933 -5.05096 0
M  V30 16319 H 1494.86 -2.531 -6.05208 0
M  V30 16320 H 1494.77 -4.25059 -6.25189 0
M  V30 16321 H 1496.04 -3.35612 -7.03551 0
M  V30 16322 N 1500.27 0.920374 -1.27933 0
M  V30 16323 C 1501.68 1.48385 -1.13309 0
M  V30 16324 C 1502.03 1.94202 0.279307 0
M  V30 16325 O 1501.16 1.81855 1.17294 0
M  V30 16326 C 1501.75 2.69681 -2.05079 0
M  V30 16327 C 1500.31 3.22229 -1.94539 0
M  V30 16328 C 1499.46 1.94948 -1.97207 0
M  V30 16329 H 1502.41 0.733744 -1.40719 0
M  V30 16330 H 1502.43 3.44717 -1.6109 0
M  V30 16331 H 1501.94 2.36304 -3.07867 0
M  V30 16332 H 1500.04 3.60348 -0.94764 0
M  V30 16333 H 1500.16 3.87927 -2.81157 0
M  V30 16334 H 1498.52 2.1176 -1.41527 0
M  V30 16335 H 1499.3 1.63875 -3.01662 0
M  V30 16336 N 1501.75 1.10074 1.1279 0
M  V30 16337 C 1502.68 0.704023 2.1812 0
M  V30 16338 C 1503.69 -0.25742 1.60752 0
M  V30 16339 O 1504.88 -0.0424559 1.7845 0
M  V30 16340 C 1501.98 0.0176666 3.38895 0
M  V30 16341 C 1501.16 1.00234 4.2576 0
M  V30 16342 C 1500.22 0.348158 5.25047 0
M  V30 16343 O 1499.24 0.997821 5.60386 0
M  V30 16344 N 1500.44 -0.894955 5.7356 0
M  V30 16345 H 1503.21 1.61024 2.52767 0
M  V30 16346 H 1500.77 0.989068 1.28176 0
M  V30 16347 H 1502.76 -0.431346 4.02395 0
M  V30 16348 H 1501.33 -0.7909 3.02429 0
M  V30 16349 H 1500.55 1.62972 3.58934 0
M  V30 16350 H 1501.84 1.669 4.80647 0
M  V30 16351 H 1501.24 -1.4422 5.47007 0
M  V30 16352 H 1499.79 -1.28718 6.38964 0
M  V30 16353 N 1503.23 -1.30138 0.888926 0
M  V30 16354 C 1504.46 -1.99853 0.523676 0
M  V30 16355 C 1504.87 -1.66783 -0.893312 0
M  V30 16356 O 1504.21 -0.903292 -1.59957 0
M  V30 16357 C 1504.27 -3.54055 0.623332 0
M  V30 16358 C 1503.93 -4.10652 2.00534 0
M  V30 16359 C 1504.93 -4.26353 2.97522 0
M  V30 16360 C 1502.62 -4.45938 2.3118 0
M  V30 16361 C 1504.61 -4.76557 4.23288 0
M  V30 16362 C 1502.3 -4.95841 3.57191 0
M  V30 16363 C 1503.3 -5.11103 4.53059 0
M  V30 16364 O 1502.98 -5.59927 5.76833 0
M  V30 16365 H 1502.72 -0.645553 0.200591 0
M  V30 16366 H 1505.27 -1.66899 1.19724 0
M  V30 16367 H 1503.5 -3.86551 -0.107221 0
M  V30 16368 H 1505.19 -4.05009 0.26879 0
M  V30 16369 H 1505.95 -3.9939 2.75159 0
M  V30 16370 H 1501.83 -4.33324 1.57326 0
M  V30 16371 H 1505.38 -4.88385 4.98123 0
M  V30 16372 H 1501.27 -5.22239 3.7939 0
M  V30 16373 H 1502.04 -5.78263 5.79271 0
M  V30 16374 N 1504.71 -0.650285 -1.43559 0
M  V30 16375 C 1505.98 -0.0925343 -1.95381 0
M  V30 16376 C 1506.36 1.38668 -1.59168 0
M  V30 16377 O 1505.71 2.11069 -0.875324 0
M  V30 16378 C 1505.92 -0.335657 -3.47382 0
M  V30 16379 C 1507.27 -0.239032 -4.23927 0
M  V30 16380 O 1508.29 -0.268056 -3.5519 0
M  V30 16381 O 1507.15 -0.160241 -5.46265 0
M  V30 16382 H 1504.25 0.0113084 -0.826923 0
M  V30 16383 H 1506.79 -0.723319 -1.53513 0
M  V30 16384 H 1505.56 -1.36132 -3.66857 0
M  V30 16385 H 1505.19 0.328339 -3.96242 0
M  V30 16386 N 1506.18 1.52647 -0.392018 0
M  V30 16387 C 1507.43 2.00798 0.19056 0
M  V30 16388 C 1507.75 1.28265 1.47673 0
M  V30 16389 O 1508.95 1.67142 2.13953 0
M  V30 16390 C 1507.41 3.57779 0.390148 0
M  V30 16391 C 1507.02 4.39213 -0.882933 0
M  V30 16392 C 1508.76 4.14211 0.928945 0
M  V30 16393 C 1506.67 5.87801 -0.651474 0
M  V30 16394 H 1505.6 0.750262 0.0749879 0
M  V30 16395 H 1508.25 1.7613 -0.514835 0
M  V30 16396 H 1506.63 3.78707 1.15746 0
M  V30 16397 H 1507.8 4.30051 -1.65507 0
M  V30 16398 H 1506.12 3.94015 -1.34688 0
M  V30 16399 H 1508.72 5.22884 1.11787 0
M  V30 16400 H 1509.06 3.70475 1.89878 0
M  V30 16401 H 1509.59 3.97185 0.221135 0
M  V30 16402 H 1506.33 6.35864 -1.59239 0
M  V30 16403 H 1505.85 5.99744 0.0816786 0
M  V30 16404 H 1507.53 6.46363 -0.287057 0
M  V30 16405 N 1507.66 0.121921 1.57128 0
M  V30 16406 C 1508.91 -0.5299 1.96376 0
M  V30 16407 C 1509.26 -1.64103 1.00439 0
M  V30 16408 O 1508.56 -1.91568 0.0349355 0
M  V30 16409 C 1508.75 -1.10579 3.39863 0
M  V30 16410 C 1508.58 -0.051992 4.4967 0
M  V30 16411 C 1507.35 0.380828 5.03863 0
M  V30 16412 C 1509.55 0.730085 5.09092 0
M  V30 16413 N 1507.53 1.4201 5.97249 0
M  V30 16414 C 1508.9 1.62048 5.98448 0
M  V30 16415 C 1510.96 0.780651 4.91742 0
M  V30 16416 C 1509.66 2.55704 6.72315 0
M  V30 16417 C 1511.68 1.70493 5.66291 0
M  V30 16418 C 1511.05 2.5829 6.55336 0
M  V30 16419 H 1507.15 -0.163445 0.764728 0
M  V30 16420 H 1509.73 0.210716 1.93556 0
M  V30 16421 H 1507.9 -1.81612 3.43325 0
M  V30 16422 H 1509.63 -1.72217 3.66229 0
M  V30 16423 H 1506.39 -0.0121324 4.73598 0
M  V30 16424 H 1506.81 1.93874 6.48646 0
M  V30 16425 H 1511.45 0.115994 4.22641 0
M  V30 16426 H 1509.17 3.23182 7.40661 0
M  V30 16427 H 1512.76 1.74954 5.54872 0
M  V30 16428 H 1511.64 3.28647 7.12012 0
M  V30 16429 N 1509.14 -1.56867 -0.151857 0
M  V30 16430 C 1510.39 -1.82721 -0.863575 0
M  V30 16431 C 1510.71 -0.702042 -1.81924 0
M  V30 16432 O 1509.98 0.27668 -1.93936 0
M  V30 16433 H 1508.56 -0.674088 -0.321893 0
M  V30 16434 H 1511.22 -1.94345 -0.14702 0
M  V30 16435 H 1510.32 -2.77476 -1.42876 0
M  V30 16436 N 1510.62 0.421051 -1.51871 0
M  V30 16437 C 1511.57 1.53277 -1.74954 0
M  V30 16438 C 1512.56 1.57792 -0.616282 0
M  V30 16439 O 1513.77 1.61342 -0.798054 0
M  V30 16440 H 1510.14 0.50953 -0.553067 0
M  V30 16441 H 1512.11 1.30988 -2.68113 0
M  V30 16442 C 1510.86 2.90772 -1.90649 0
M  V30 16443 H 1510.18 2.88035 -2.77265 0
M  V30 16444 H 1511.62 3.67882 -2.10805 0
M  V30 16445 C 1510.08 3.30161 -0.670463 0
M  V30 16446 O 1510.61 4.01352 0.167271 0
M  V30 16447 N 1508.82 2.86093 -0.509813 0
M  V30 16448 H 1508.37 2.28329 -1.19262 0
M  V30 16449 H 1508.32 3.12809 0.315918 0
M  V30 16450 N 1512.1 1.42293 0.677538 0
M  V30 16451 C 1513.32 1.46008 1.46592 0
M  V30 16452 C 1513.74 0.0706015 1.88668 0
M  V30 16453 O 1513.1 -0.914076 1.57959 0
M  V30 16454 C 1513.15 2.38477 2.71682 0
M  V30 16455 O 1512.87 3.72019 2.31372 0
M  V30 16456 C 1514.37 2.51185 3.65269 0
M  V30 16457 H 1511.59 0.49669 0.451154 0
M  V30 16458 H 1514.13 1.86777 0.832736 0
M  V30 16459 H 1512.29 2.00969 3.31195 0
M  V30 16460 H 1512.7 4.21514 3.12131 0
M  V30 16461 H 1514.18 3.20014 4.49772 0
M  V30 16462 H 1514.65 1.54885 4.10983 0
M  V30 16463 H 1515.26 2.89404 3.1165 0
M  V30 16464 N 1513.57 -0.913576 1.28419 0
M  V30 16465 C 1514.82 -1.66519 1.15755 0
M  V30 16466 C 1515.15 -1.91974 -0.293166 0
M  V30 16467 O 1514.43 -1.52025 -1.21321 0
M  V30 16468 C 1514.71 -3.02299 1.95672 0
M  V30 16469 C 1514.56 -2.83996 3.48807 0
M  V30 16470 C 1515.88 -4.02838 1.77226 0
M  V30 16471 H 1513 -0.604309 0.421877 0
M  V30 16472 H 1515.64 -1.05919 1.57737 0
M  V30 16473 H 1513.79 -3.54025 1.59995 0
M  V30 16474 H 1515.47 -2.39279 3.9439 0
M  V30 16475 H 1513.71 -2.19052 3.74431 0
M  V30 16476 H 1514.38 -3.80419 3.99982 0
M  V30 16477 H 1516.86 -3.60174 2.0836 0
M  V30 16478 H 1515.73 -4.95806 2.35515 0
M  V30 16479 H 1515.99 -4.36135 0.723804 0
M  V30 16480 N 1515.05 -1.1067 -1.12204 0
M  V30 16481 C 1516 -0.752659 -2.20086 0
M  V30 16482 C 1516.99 0.252284 -1.67511 0
M  V30 16483 O 1518.2 0.112398 -1.79649 0
M  V30 16484 H 1514.58 -0.225473 -0.717402 0
M  V30 16485 H 1516.55 -1.67136 -2.472 0
M  V30 16486 C 1515.3 -0.203345 -3.47105 0
M  V30 16487 H 1514.62 -0.967864 -3.87908 0
M  V30 16488 H 1516.06 0.00629123 -4.24 0
M  V30 16489 C 1514.52 1.06452 -3.1964 0
M  V30 16490 O 1515.05 2.14562 -3.39597 0
M  V30 16491 N 1513.25 0.984122 -2.73429 0
M  V30 16492 H 1512.8 0.104258 -2.57389 0
M  V30 16493 H 1512.76 1.83312 -2.55429 0
M  V30 16494 N 1516.53 1.29665 -0.895815 0
M  V30 16495 C 1517.78 1.96006 -0.520522 0
M  V30 16496 C 1518.11 1.7048 0.930068 0
M  V30 16497 O 1517.38 1.01558 1.6588 0
M  V30 16498 C 1517.67 3.50897 -0.808925 0
M  V30 16499 C 1517.52 3.85896 -2.31093 0
M  V30 16500 C 1518.84 4.39125 -0.292769 0
M  V30 16501 H 1515.96 0.711931 -0.190588 0
M  V30 16502 H 1518.6 1.53349 -1.12179 0
M  V30 16503 H 1516.75 3.87362 -0.297194 0
M  V30 16504 H 1518.42 3.59397 -2.89191 0
M  V30 16505 H 1516.67 3.33578 -2.77323 0
M  V30 16506 H 1517.34 4.93989 -2.46331 0
M  V30 16507 H 1519.81 4.0963 -0.730906 0
M  V30 16508 H 1518.69 5.46395 -0.523799 0
M  V30 16509 H 1518.95 4.34683 0.806393 0
M  V30 16510 N 1518.01 0.657889 1.43212 0
M  V30 16511 C 1518.97 -0.0214783 2.2919 0
M  V30 16512 C 1519.97 -0.745921 1.42452 0
M  V30 16513 O 1521.16 -0.586468 1.64031 0
M  V30 16514 C 1518.29 -1.04115 3.24612 0
M  V30 16515 H 1519.49 0.735072 2.90752 0
M  V30 16516 H 1517.04 0.419354 1.50569 0
M  V30 16517 H 1517.77 -1.82677 2.67954 0
M  V30 16518 H 1517.56 -0.525285 3.88566 0
M  V30 16519 H 1519.05 -1.51544 3.89132 0
M  V30 16520 N 1519.49 -1.52437 0.400108 0
M  V30 16521 C 1520.71 -2.0661 -0.180861 0
M  V30 16522 C 1521.14 -1.269 -1.38845 0
M  V30 16523 O 1520.49 -0.296862 -1.78853 0
M  V30 16524 C 1520.54 -3.56851 -0.518595 0
M  V30 16525 O 1519.65 -3.79634 -1.61095 0
M  V30 16526 H 1518.99 -0.663752 -0.0181348 0
M  V30 16527 H 1521.52 -1.96479 0.570702 0
M  V30 16528 H 1521.53 -4.00478 -0.779817 0
M  V30 16529 H 1520.2 -4.14302 0.364216 0
M  V30 16530 H 1518.78 -3.47892 -1.3426 0
M  V30 16531 N 1520.96 -0.130252 -1.57061 0
M  V30 16532 C 1522.38 0.226279 -1.57988 0
M  V30 16533 C 1522.58 1.65902 -1.14363 0
M  V30 16534 O 1521.64 2.38252 -0.836191 0
M  V30 16535 C 1522.95 -0.0172647 -3.00695 0
M  V30 16536 C 1524.5 0.0477572 -3.12964 0
M  V30 16537 C 1524.97 -0.168238 -4.57691 0
M  V30 16538 N 1526.46 -0.114591 -4.63058 0
M  V30 16539 C 1527.2 -0.256462 -5.72826 0
M  V30 16540 N 1526.69 -0.455129 -6.91303 0
M  V30 16541 N 1528.49 -0.195243 -5.61761 0
M  V30 16542 H 1520.64 -1.06594 -1.83716 0
M  V30 16543 H 1522.9 -0.420643 -0.849567 0
M  V30 16544 H 1522.61 -1.00819 -3.3694 0
M  V30 16545 H 1522.48 0.709629 -3.70465 0
M  V30 16546 H 1524.87 1.02922 -2.7657 0
M  V30 16547 H 1524.95 -0.711198 -2.45714 0
M  V30 16548 H 1524.59 -1.14673 -4.94785 0
M  V30 16549 H 1524.52 0.610839 -5.23045 0
M  V30 16550 H 1527.01 0.0349873 -3.77884 0
M  V30 16551 H 1527.33 -0.553943 -7.70812 0
M  V30 16552 H 1525.67 -0.491244 -6.93262 0
M  V30 16553 H 1528.86 -0.0409186 -4.68082 0
M  V30 16554 H 1529.04 -0.309248 -6.47262 0
M  V30 16555 N 1522.44 1.56945 0.143535 0
M  V30 16556 C 1523.38 1.93682 1.20675 0
M  V30 16557 C 1524.35 0.803117 1.41382 0
M  V30 16558 O 1525.54 1.05905 1.55937 0
M  V30 16559 C 1522.67 2.21185 2.56505 0
M  V30 16560 C 1521.71 3.43817 2.52372 0
M  V30 16561 S 1522.54 4.9726 1.98728 0
M  V30 16562 C 1523.7 5.27889 3.3628 0
M  V30 16563 H 1523.93 2.83561 0.893345 0
M  V30 16564 H 1521.47 1.50397 0.349294 0
M  V30 16565 H 1523.42 2.3771 3.3467 0
M  V30 16566 H 1522.09 1.31964 2.85034 0
M  V30 16567 H 1521.28 3.60349 3.5237 0
M  V30 16568 H 1520.88 3.26552 1.82318 0
M  V30 16569 H 1523.17 5.21568 4.32404 0
M  V30 16570 H 1524.12 6.29318 3.24598 0
M  V30 16571 H 1524.52 4.55398 3.33576 0
M  V30 16572 N 1523.92 -0.412991 1.52093 0
M  V30 16573 C 1525.2 -1.17304 1.56522 0
M  V30 16574 C 1525.58 -2.0828 0.343926 0
M  V30 16575 O 1524.93 -2.18473 -0.669475 0
M  V30 16576 C 1525.14 -1.95371 2.89191 0
M  V30 16577 C 1526.48 -2.51571 3.42048 0
M  V30 16578 O 1527.51 -2.05555 2.90905 0
M  V30 16579 O 1526.37 -3.35563 4.31347 0
M  V30 16580 H 1523.46 -0.535386 0.63031 0
M  V30 16581 H 1526.01 -0.420084 1.64418 0
M  V30 16582 H 1524.78 -1.28701 3.69529 0
M  V30 16583 H 1524.4 -2.7768 2.84569 0
M  V30 16584 N 1525.4 -1.4265 -0.669982 0
M  V30 16585 C 1526.62 -1.46992 -1.46315 0
M  V30 16586 C 1527.05 -0.0840655 -1.87912 0
M  V30 16587 O 1526.41 0.918554 -1.56308 0
M  V30 16588 C 1526.46 -2.40663 -2.6854 0
M  V30 16589 O 1525.56 -1.88132 -3.66988 0
M  V30 16590 H 1524.9 -0.497844 -0.439372 0
M  V30 16591 H 1527.43 -1.8739 -0.821348 0
M  V30 16592 H 1527.44 -2.57405 -3.16554 0
M  V30 16593 H 1526.12 -3.41346 -2.37604 0
M  V30 16594 H 1524.69 -1.80969 -3.26044 0
M  V30 16595 N 1526.88 0.906753 -1.28902 0
M  V30 16596 C 1528.11 1.69019 -1.19333 0
M  V30 16597 C 1528.52 1.87176 0.247065 0
M  V30 16598 O 1527.88 1.40376 1.16623 0
M  V30 16599 C 1527.93 3.07854 -1.89495 0
M  V30 16600 O 1527.65 2.90531 -3.27908 0
M  V30 16601 C 1529.15 4.02246 -1.86314 0
M  V30 16602 H 1526.37 0.528119 -0.413922 0
M  V30 16603 H 1528.91 1.13441 -1.70151 0
M  V30 16604 H 1527.07 3.60228 -1.42529 0
M  V30 16605 H 1527.48 3.78451 -3.63146 0
M  V30 16606 H 1528.96 4.97104 -2.39983 0
M  V30 16607 H 1529.43 4.31149 -0.837071 0
M  V30 16608 H 1530.04 3.55803 -2.3299 0
M  V30 16609 N 1528.36 1.11264 1.11616 0
M  V30 16610 C 1529.6 0.858664 1.82952 0
M  V30 16611 C 1529.92 -0.617439 1.84967 0
M  V30 16612 O 1529.19 -1.44849 1.31893 0
M  V30 16613 H 1527.77 0.314671 0.677489 0
M  V30 16614 H 1530.44 1.40466 1.35113 0
M  V30 16615 H 1529.53 1.22921 2.86874 0
M  V30 16616 N 1529.83 -1.29188 0.902679 0
M  V30 16617 C 1531.08 -1.95727 0.530909 0
M  V30 16618 C 1531.41 -1.70971 -0.921014 0
M  V30 16619 O 1530.69 -1.02436 -1.65339 0
M  V30 16620 C 1530.97 -3.50463 0.827523 0
M  V30 16621 C 1530.82 -3.84665 2.33137 0
M  V30 16622 C 1532.14 -4.38964 0.316053 0
M  V30 16623 H 1529.26 -0.71091 0.194361 0
M  V30 16624 H 1531.9 -1.52752 1.1299 0
M  V30 16625 H 1530.05 -3.87199 0.317732 0
M  V30 16626 H 1531.73 -3.57859 2.91093 0
M  V30 16627 H 1529.97 -3.32102 2.79088 0
M  V30 16628 H 1530.64 -4.92676 2.48947 0
M  V30 16629 H 1533.12 -4.09237 0.75262 0
M  V30 16630 H 1531.99 -5.4611 0.552769 0
M  V30 16631 H 1532.25 -4.35105 -0.783329 0
M  V30 16632 N 1531.31 -0.665475 -1.42861 0
M  V30 16633 C 1532.24 0.00482845 -2.335 0
M  V30 16634 C 1533.22 0.799135 -1.50159 0
M  V30 16635 O 1534.41 0.75816 -1.78789 0
M  V30 16636 C 1531.54 0.963347 -3.33672 0
M  V30 16637 C 1530.49 0.278294 -4.27094 0
M  V30 16638 C 1529.82 1.34911 -5.174 0
M  V30 16639 C 1531.12 -0.836925 -5.15551 0
M  V30 16640 H 1532.81 -0.752129 -2.89799 0
M  V30 16641 H 1530.36 -0.363139 -1.39346 0
M  V30 16642 H 1532.31 1.44128 -3.95986 0
M  V30 16643 H 1531.03 1.75161 -2.75656 0
M  V30 16644 H 1529.69 -0.179314 -3.66161 0
M  V30 16645 H 1529.34 2.12912 -4.55716 0
M  V30 16646 H 1529.04 0.895919 -5.8073 0
M  V30 16647 H 1530.57 1.82816 -5.8259 0
M  V30 16648 H 1531.98 -0.440617 -5.71604 0
M  V30 16649 H 1530.38 -1.21533 -5.87665 0
M  V30 16650 H 1531.45 -1.6897 -4.54507 0
M  V30 16651 N 1532.79 1.52222 -0.408187 0
M  V30 16652 C 1534.07 1.94285 0.22641 0
M  V30 16653 C 1534.45 1.34501 1.62705 0
M  V30 16654 O 1533.79 0.52045 2.22494 0
M  V30 16655 C 1534 3.48217 0.233695 0
M  V30 16656 C 1535.35 4.22171 0.453504 0
M  V30 16657 O 1536.38 3.54821 0.313093 0
M  V30 16658 O 1535.24 5.416 0.730183 0
M  V30 16659 H 1532.33 0.814078 0.145625 0
M  V30 16660 H 1534.88 1.63232 -0.464062 0
M  V30 16661 H 1533.65 3.84111 -0.746644 0
M  V30 16662 H 1533.27 3.85629 0.968305 0
M  V30 16663 N 1534.27 0.138579 1.5699 0
M  V30 16664 C 1535.21 -0.804305 2.16332 0
M  V30 16665 C 1536.18 -1.25002 1.09379 0
M  V30 16666 O 1537.37 -1.32405 1.37381 0
M  V30 16667 C 1534.51 -2.04137 2.78248 0
M  V30 16668 C 1533.62 -1.64223 3.99568 0
M  V30 16669 C 1532.76 -2.83046 4.49509 0
M  V30 16670 C 1531.8 -2.39465 5.63314 0
M  V30 16671 N 1530.93 -3.51267 6.07911 0
M  V30 16672 H 1535.77 -0.29144 2.96571 0
M  V30 16673 H 1533.31 -0.132146 1.46505 0
M  V30 16674 H 1535.27 -2.76646 3.12286 0
M  V30 16675 H 1533.9 -2.52849 2.00667 0
M  V30 16676 H 1532.95 -0.815123 3.71564 0
M  V30 16677 H 1534.26 -1.2821 4.82041 0
M  V30 16678 H 1533.42 -3.63755 4.85559 0
M  V30 16679 H 1532.16 -3.22298 3.66026 0
M  V30 16680 H 1531.16 -1.57193 5.2685 0
M  V30 16681 H 1532.39 -2.01307 6.48577 0
M  V30 16682 H 1530.33 -3.90156 5.27365 0
M  V30 16683 H 1530.25 -3.19241 6.85289 0
M  V30 16684 H 1531.52 -4.32358 6.48604 0
M  V30 16685 N 1535.75 -1.57019 -0.13521 0
M  V30 16686 C 1536.99 -1.83178 -0.844308 0
M  V30 16687 C 1537.31 -0.7217 -1.81799 0
M  V30 16688 O 1538.51 -0.869232 -2.57209 0
M  V30 16689 C 1536.97 -3.2471 -1.55214 0
M  V30 16690 C 1536.58 -4.43685 -0.620268 0
M  V30 16691 C 1538.32 -3.60133 -2.24732 0
M  V30 16692 C 1536.23 -5.76242 -1.3304 0
M  V30 16693 H 1535.16 -0.683175 -0.319041 0
M  V30 16694 H 1537.81 -1.83243 -0.0970242 0
M  V30 16695 H 1536.19 -3.19067 -2.34547 0
M  V30 16696 H 1537.37 -4.60591 0.138685 0
M  V30 16697 H 1535.68 -4.16387 -0.0328906 0
M  V30 16698 H 1538.28 -4.56431 -2.78522 0
M  V30 16699 H 1538.62 -2.86767 -3.01779 0
M  V30 16700 H 1539.15 -3.67489 -1.52305 0
M  V30 16701 H 1535.89 -6.52734 -0.60155 0
M  V30 16702 H 1535.41 -5.63251 -2.06176 0
M  V30 16703 H 1537.09 -6.19445 -1.86808 0
M  V30 16704 N 1537.22 0.404919 -1.52309 0
M  V30 16705 C 1538.16 1.51276 -1.72186 0
M  V30 16706 C 1539.17 1.5125 -0.602276 0
M  V30 16707 O 1540.36 1.55439 -0.877549 0
M  V30 16708 C 1537.46 2.90162 -1.75099 0
M  V30 16709 C 1536.63 3.14333 -3.04161 0
M  V30 16710 C 1535.69 4.33113 -2.9883 0
M  V30 16711 O 1534.72 4.30189 -3.72728 0
M  V30 16712 N 1535.92 5.38451 -2.16911 0
M  V30 16713 H 1538.68 1.34618 -2.67765 0
M  V30 16714 H 1536.24 0.594264 -1.50599 0
M  V30 16715 H 1538.24 3.67697 -1.69058 0
M  V30 16716 H 1536.81 3.00257 -0.869756 0
M  V30 16717 H 1536.03 2.24803 -3.23817 0
M  V30 16718 H 1537.31 3.27327 -3.89531 0
M  V30 16719 H 1536.71 5.43676 -1.56309 0
M  V30 16720 H 1535.27 6.14715 -2.16724 0
M  V30 16721 N 1538.7 1.43003 0.662408 0
M  V30 16722 C 1539.95 1.44346 1.4245 0
M  V30 16723 C 1540.28 0.064094 1.94094 0
M  V30 16724 O 1539.56 -0.913633 1.71706 0
M  V30 16725 C 1539.84 2.47822 2.61259 0
M  V30 16726 C 1539.69 3.94998 2.15166 0
M  V30 16727 C 1541.01 2.48139 3.63476 0
M  V30 16728 H 1538.13 0.525606 0.51663 0
M  V30 16729 H 1540.77 1.74495 0.751754 0
M  V30 16730 H 1538.92 2.22244 3.18653 0
M  V30 16731 H 1540.59 4.31601 1.62843 0
M  V30 16732 H 1538.84 4.0827 1.46622 0
M  V30 16733 H 1539.51 4.62998 3.00561 0
M  V30 16734 H 1541.98 2.70916 3.15823 0
M  V30 16735 H 1540.86 3.22498 4.44169 0
M  V30 16736 H 1541.12 1.51184 4.15447 0
M  V30 16737 N 1540.18 -0.899904 1.29381 0
M  V30 16738 C 1541.41 -1.68383 1.20227 0
M  V30 16739 C 1541.82 -1.87305 -0.237135 0
M  V30 16740 O 1541.18 -1.40992 -1.15877 0
M  V30 16741 C 1541.23 -3.06845 1.91124 0
M  V30 16742 O 1540.95 -2.88787 3.29444 0
M  V30 16743 C 1542.45 -4.01253 1.88444 0
M  V30 16744 H 1539.67 -0.525917 0.416717 0
M  V30 16745 H 1542.22 -1.12537 1.7075 0
M  V30 16746 H 1540.37 -3.59467 1.44438 0
M  V30 16747 H 1540.79 -3.7652 3.65148 0
M  V30 16748 H 1542.26 -4.95824 2.42616 0
M  V30 16749 H 1542.74 -4.30699 0.859925 0
M  V30 16750 H 1543.34 -3.54562 2.34874 0
M  V30 16751 N 1541.66 -1.11854 -1.11024 0
M  V30 16752 C 1542.57 -0.79368 -2.20767 0
M  V30 16753 C 1543.58 0.214996 -1.72667 0
M  V30 16754 O 1544.76 0.0500976 -2.01338 0
M  V30 16755 C 1541.83 -0.246375 -3.45823 0
M  V30 16756 C 1540.89 -1.31421 -4.0869 0
M  V30 16757 C 1540.12 -0.792922 -5.27777 0
M  V30 16758 O 1540.34 0.375492 -5.69163 0
M  V30 16759 O 1539.28 -1.55971 -5.8134 0
M  V30 16760 H 1543.1 -1.71011 -2.50976 0
M  V30 16761 H 1540.69 -0.894752 -1.19643 0
M  V30 16762 H 1542.57 0.0542632 -4.21365 0
M  V30 16763 H 1541.24 0.642703 -3.17255 0
M  V30 16764 H 1540.15 -1.66792 -3.3486 0
M  V30 16765 H 1541.48 -2.17683 -4.41446 0
M  V30 16766 N 1543.14 1.28707 -0.909517 0
M  V30 16767 C 1544.05 2.31171 -0.399628 0
M  V30 16768 C 1545.06 1.6634 0.510582 0
M  V30 16769 O 1546.24 1.97432 0.397792 0
M  V30 16770 C 1543.3 3.44869 0.355852 0
M  V30 16771 C 1542.36 4.25267 -0.587065 0
M  V30 16772 C 1541.6 5.33536 0.132456 0
M  V30 16773 O 1541.82 5.54075 1.35486 0
M  V30 16774 O 1540.75 5.99561 -0.530062 0
M  V30 16775 H 1544.58 2.76785 -1.24995 0
M  V30 16776 H 1542.17 1.33323 -0.674186 0
M  V30 16777 H 1544.05 4.14068 0.782692 0
M  V30 16778 H 1542.72 3.01345 1.18207 0
M  V30 16779 H 1541.63 3.58673 -1.06322 0
M  V30 16780 H 1542.96 4.72459 -1.37998 0
M  V30 16781 N 1544.61 0.673042 1.42506 0
M  V30 16782 C 1545.84 0.202922 2.05902 0
M  V30 16783 C 1546.26 -1.13923 1.50556 0
M  V30 16784 O 1545.61 -1.70735 0.644662 0
M  V30 16785 C 1545.67 0.12735 3.61276 0
M  V30 16786 O 1545.39 1.41646 4.1457 0
M  V30 16787 C 1546.89 -0.366477 4.41783 0
M  V30 16788 H 1544.11 0.0991021 0.663641 0
M  V30 16789 H 1546.65 0.919282 1.82673 0
M  V30 16790 H 1544.81 -0.539687 3.83622 0
M  V30 16791 H 1545.22 1.28866 5.08423 0
M  V30 16792 H 1546.69 -0.368267 5.5077 0
M  V30 16793 H 1547.17 -1.40142 4.16241 0
M  V30 16794 H 1547.78 0.268761 4.2445 0
M  V30 16795 N 1546.09 -1.52004 0.416254 0
M  V30 16796 C 1547.32 -2.0679 -0.158937 0
M  V30 16797 C 1547.74 -1.28366 -1.37491 0
M  V30 16798 O 1547.1 -0.315815 -1.78528 0
M  V30 16799 C 1547.15 -3.57381 -0.480717 0
M  V30 16800 O 1546.25 -3.81321 -1.5706 0
M  V30 16801 H 1545.59 -0.663907 -0.0110938 0
M  V30 16802 H 1548.12 -1.95863 0.591509 0
M  V30 16803 H 1548.13 -4.01283 -0.737297 0
M  V30 16804 H 1546.81 -4.13893 0.408137 0
M  V30 16805 H 1545.39 -3.49296 -1.30563 0
M  V30 16806 N 1547.57 -0.146903 -1.56914 0
M  V30 16807 C 1548.5 0.788924 -2.19769 0
M  V30 16808 C 1549.48 1.25712 -1.14589 0
M  V30 16809 O 1550.67 1.3147 -1.42931 0
M  V30 16810 C 1547.8 2.02824 -2.81921 0
M  V30 16811 C 1546.75 1.69683 -3.92927 0
M  V30 16812 C 1546.08 3.00877 -4.42015 0
M  V30 16813 C 1547.38 0.943559 -5.13706 0
M  V30 16814 H 1549.07 0.265076 -2.98224 0
M  V30 16815 H 1546.62 0.126057 -1.43447 0
M  V30 16816 H 1548.57 2.68773 -3.2456 0
M  V30 16817 H 1547.29 2.57581 -2.00797 0
M  V30 16818 H 1545.95 1.06112 -3.50907 0
M  V30 16819 H 1545.6 3.53625 -3.57713 0
M  V30 16820 H 1545.3 2.79466 -5.16888 0
M  V30 16821 H 1546.82 3.67897 -4.87323 0
M  V30 16822 H 1548.24 1.50513 -5.5319 0
M  V30 16823 H 1546.64 0.829387 -5.94341 0
M  V30 16824 H 1547.71 -0.0647228 -4.84857 0
M  V30 16825 N 1549.05 1.57088 0.126881 0
M  V30 16826 C 1550.29 1.84709 0.837287 0
M  V30 16827 C 1550.63 0.731496 1.79897 0
M  V30 16828 O 1549.9 -0.263319 1.92709 0
M  V30 16829 C 1550.19 3.22893 1.59412 0
M  V30 16830 C 1550.04 4.45041 0.652578 0
M  V30 16831 C 1551.36 3.58547 2.5521 0
M  V30 16832 H 1548.48 0.671862 0.302937 0
M  V30 16833 H 1551.12 1.89727 0.101783 0
M  V30 16834 H 1549.27 3.18746 2.22112 0
M  V30 16835 H 1550.94 4.61287 0.0350382 0
M  V30 16836 H 1549.18 4.33785 -0.0364578 0
M  V30 16837 H 1549.85 5.38381 1.21861 0
M  V30 16838 H 1552.33 3.63434 2.0262 0
M  V30 16839 H 1551.21 4.56227 3.05202 0
M  V30 16840 H 1551.47 2.85552 3.37509 0
M  V30 16841 N 1550.53 -0.396836 1.52522 0
M  V30 16842 C 1551.46 -1.49088 1.79708 0
M  V30 16843 C 1552.44 -1.57246 0.648678 0
M  V30 16844 O 1553.62 -1.72321 0.895495 0
M  V30 16845 C 1550.75 -2.86785 1.95887 0
M  V30 16846 C 1549.71 -2.93472 3.11542 0
M  V30 16847 C 1549.03 -4.33542 3.12963 0
M  V30 16848 C 1550.33 -2.63832 4.50766 0
M  V30 16849 H 1552.03 -1.26588 2.71322 0
M  V30 16850 H 1549.57 -0.607535 1.30557 0
M  V30 16851 H 1551.53 -3.63319 2.13489 0
M  V30 16852 H 1550.25 -3.10605 1.00955 0
M  V30 16853 H 1548.91 -2.19384 2.93711 0
M  V30 16854 H 1548.56 -4.5439 2.15729 0
M  V30 16855 H 1548.26 -4.38938 3.9065 0
M  V30 16856 H 1549.78 -5.11993 3.32709 0
M  V30 16857 H 1551.19 -3.30086 4.68739 0
M  V30 16858 H 1549.59 -2.80589 5.30462 0
M  V30 16859 H 1550.66 -1.59209 4.58018 0
M  V30 16860 N 1552.01 -1.43353 -0.654814 0
M  V30 16861 C 1552.94 -1.44353 -1.7803 0
M  V30 16862 C 1553.95 -0.339872 -1.59213 0
M  V30 16863 O 1555.14 -0.604207 -1.67963 0
M  V30 16864 C 1552.24 -1.23913 -3.15434 0
M  V30 16865 C 1551.41 -2.47088 -3.60924 0
M  V30 16866 C 1550.47 -2.21896 -4.77126 0
M  V30 16867 O 1549.5 -2.95236 -4.86646 0
M  V30 16868 N 1550.7 -1.23459 -5.6722 0
M  V30 16869 H 1553.46 -2.41372 -1.77651 0
M  V30 16870 H 1551.03 -1.38488 -0.838603 0
M  V30 16871 H 1553.02 -1.04945 -3.90856 0
M  V30 16872 H 1551.59 -0.35346 -3.10595 0
M  V30 16873 H 1550.81 -2.81492 -2.75964 0
M  V30 16874 H 1552.1 -3.29066 -3.88064 0
M  V30 16875 H 1551.49 -0.6284 -5.62199 0
M  V30 16876 H 1550.05 -1.10474 -6.4237 0
M  V30 16877 N 1553.48 0.89303 -1.29857 0
M  V30 16878 C 1554.71 1.67744 -1.21119 0
M  V30 16879 C 1555.13 1.87428 0.227198 0
M  V30 16880 O 1554.48 1.41605 1.15128 0
M  V30 16881 C 1554.53 3.05827 -1.92749 0
M  V30 16882 O 1554.26 2.87036 -3.30971 0
M  V30 16883 C 1555.76 4.00248 -1.9057 0
M  V30 16884 H 1552.98 0.523699 -0.4195 0
M  V30 16885 H 1555.52 1.1163 -1.71344 0
M  V30 16886 H 1553.68 3.58696 -1.46342 0
M  V30 16887 H 1554.09 3.74578 -3.6714 0
M  V30 16888 H 1555.56 4.9453 -2.45242 0
M  V30 16889 H 1556.04 4.30237 -0.882753 0
M  V30 16890 H 1556.65 3.53312 -2.36751 0
M  V30 16891 N 1554.96 1.12442 1.10429 0
M  V30 16892 C 1555.89 0.814745 2.18824 0
M  V30 16893 C 1556.87 -0.221476 1.68652 0
M  V30 16894 O 1558.06 -0.0826537 1.94024 0
M  V30 16895 C 1555.19 0.268632 3.4626 0
M  V30 16896 C 1554.14 1.23792 4.09707 0
M  V30 16897 C 1553.47 0.552034 5.31843 0
M  V30 16898 C 1554.77 2.5926 4.53411 0
M  V30 16899 H 1556.46 1.72111 2.44986 0
M  V30 16900 H 1554.01 0.828968 1.17746 0
M  V30 16901 H 1555.96 0.0397207 4.21381 0
M  V30 16902 H 1554.68 -0.673079 3.19589 0
M  V30 16903 H 1553.34 1.45264 3.36592 0
M  V30 16904 H 1552.99 -0.394821 5.01448 0
M  V30 16905 H 1552.69 1.19861 5.75245 0
M  V30 16906 H 1554.22 0.332161 6.09696 0
M  V30 16907 H 1555.63 2.41816 5.19806 0
M  V30 16908 H 1554.03 3.19997 5.07663 0
M  V30 16909 H 1555.1 3.17699 3.66327 0
M  V30 16910 N 1556.44 -1.28223 0.91633 0
M  V30 16911 C 1557.69 -1.9448 0.549734 0
M  V30 16912 C 1558.01 -1.72465 -0.909999 0
M  V30 16913 O 1557.28 -1.06583 -1.64368 0
M  V30 16914 H 1555.86 -0.719641 0.200315 0
M  V30 16915 H 1558.52 -1.56156 1.16625 0
M  V30 16916 H 1557.62 -3.03044 0.746363 0
M  V30 16917 N 1557.92 -0.68059 -1.42147 0
M  V30 16918 C 1559.15 -0.213529 -2.05494 0
M  V30 16919 C 1559.56 1.13665 -1.51251 0
M  V30 16920 O 1558.9 1.71838 -0.649422 0
M  V30 16921 C 1558.96 -0.0774256 -3.59417 0
M  V30 16922 C 1558.62 -1.35724 -4.3638 0
M  V30 16923 C 1559.62 -2.29195 -4.66654 0
M  V30 16924 C 1557.31 -1.60645 -4.75918 0
M  V30 16925 C 1559.3 -3.45858 -5.35407 0
M  V30 16926 C 1556.99 -2.77597 -5.44411 0
M  V30 16927 C 1557.99 -3.70027 -5.74081 0
M  V30 16928 O 1557.67 -4.84933 -6.41167 0
M  V30 16929 H 1557.41 -0.100043 -0.668556 0
M  V30 16930 H 1559.96 -0.929384 -1.83171 0
M  V30 16931 H 1558.19 0.694062 -3.8042 0
M  V30 16932 H 1559.88 0.350509 -4.04384 0
M  V30 16933 H 1560.64 -2.11194 -4.36603 0
M  V30 16934 H 1556.52 -0.8957 -4.52215 0
M  V30 16935 H 1560.07 -4.18023 -5.58483 0
M  V30 16936 H 1555.96 -2.95521 -5.73879 0
M  V30 16937 H 1556.73 -4.84552 -6.5966 0
M  V30 16938 N 1559.4 1.51781 -0.424309 0
M  V30 16939 C 1560.62 2.06387 0.145548 0
M  V30 16940 C 1561.04 1.29299 1.37576 0
M  V30 16941 O 1560.4 0.348952 1.79133 0
M  V30 16942 C 1560.45 3.58288 0.48083 0
M  V30 16943 O 1560.17 4.32463 -0.700546 0
M  V30 16944 C 1561.67 4.29364 1.10278 0
M  V30 16945 H 1558.89 0.67086 0.0136908 0
M  V30 16946 H 1561.43 1.95511 -0.599639 0
M  V30 16947 H 1559.59 3.69122 1.17591 0
M  V30 16948 H 1560 5.22839 -0.417035 0
M  V30 16949 H 1561.48 5.36776 1.28747 0
M  V30 16950 H 1561.95 3.86815 2.08017 0
M  V30 16951 H 1562.56 4.2294 0.447458 0
M  V30 16952 N 1560.87 0.155222 1.56834 0
M  V30 16953 C 1562.11 -0.496476 1.98279 0
M  V30 16954 C 1562.48 -1.61495 1.03843 0
M  V30 16955 O 1563.68 -2.32808 1.34365 0
M  V30 16956 C 1561.95 -0.982022 3.43644 0
M  V30 16957 S 1563.51 -1.63717 4.07115 0
M  V30 16958 H 1560.33 -0.160256 0.692704 0
M  V30 16959 H 1562.93 0.248881 1.93909 0
M  V30 16960 H 1561.63 -0.157344 4.10098 0
M  V30 16961 H 1561.16 -1.7618 3.51744 0
M  V30 16962 H 1563.18 -2.92473 4.00841 0
M  V30 16963 N 1562.35 -1.57153 -0.118549 0
M  V30 16964 C 1563.58 -1.89062 -0.840429 0
M  V30 16965 C 1563.99 -0.746516 -1.73414 0
M  V30 16966 O 1563.35 0.282638 -1.80298 0
M  V30 16967 C 1563.4 -3.20433 -1.67347 0
M  V30 16968 O 1563.12 -4.30439 -0.815739 0
M  V30 16969 C 1564.62 -3.66048 -2.50047 0
M  V30 16970 H 1561.84 -0.626005 -0.241575 0
M  V30 16971 H 1564.39 -2.04241 -0.102804 0
M  V30 16972 H 1562.54 -3.06922 -2.36385 0
M  V30 16973 H 1562.96 -5.05736 -1.39037 0
M  V30 16974 H 1564.43 -4.60729 -3.04028 0
M  V30 16975 H 1564.91 -2.92727 -3.27426 0
M  V30 16976 H 1565.51 -3.82349 -1.86251 0
M  V30 16977 N 1563.83 0.388742 -1.5273 0
M  V30 16978 C 1565.07 1.14269 -1.69475 0
M  V30 16979 C 1565.43 1.87222 -0.425669 0
M  V30 16980 O 1566.63 2.64668 -0.469486 0
M  V30 16981 C 1564.91 2.09472 -2.8958 0
M  V30 16982 S 1566.46 2.927 -3.26913 0
M  V30 16983 H 1563.28 0.386807 -0.596574 0
M  V30 16984 H 1565.88 0.427089 -1.90778 0
M  V30 16985 H 1564.59 1.54599 -3.80167 0
M  V30 16986 H 1564.12 2.8554 -2.70611 0
M  V30 16987 H 1566.13 4.11605 -2.77121 0
M  V30 16988 N 1565.31 1.43698 0.647203 0
M  V30 16989 C 1566.72 1.27231 0.963563 0
M  V30 16990 C 1566.92 0.196385 2.00541 0
M  V30 16991 O 1565.98 -0.423162 2.48929 0
M  V30 16992 C 1567.29 2.63863 1.44211 0
M  V30 16993 C 1568.84 2.71444 1.55844 0
M  V30 16994 C 1569.32 4.08508 2.07087 0
M  V30 16995 N 1570.81 4.10603 2.14381 0
M  V30 16996 C 1571.54 5.13496 2.55166 0
M  V30 16997 N 1571.04 6.26759 2.95203 0
M  V30 16998 N 1572.83 5.0085 2.55158 0
M  V30 16999 H 1564.98 2.12358 -0.0420956 0
M  V30 17000 H 1567.24 0.946989 0.0437628 0
M  V30 17001 H 1566.95 3.43589 0.75096 0
M  V30 17002 H 1566.82 2.89666 2.41605 0
M  V30 17003 H 1569.21 1.92046 2.24058 0
M  V30 17004 H 1569.29 2.49399 0.56866 0
M  V30 17005 H 1568.94 4.88375 1.39472 0
M  V30 17006 H 1568.87 4.2792 3.06907 0
M  V30 17007 H 1571.36 3.2885 1.86188 0
M  V30 17008 H 1571.67 7.01096 3.25091 0
M  V30 17009 H 1570.02 6.30222 2.92993 0
M  V30 17010 H 1573.21 4.11428 2.2326 0
M  V30 17011 H 1573.38 5.81165 2.86621 0
M  V30 17012 N 1566.79 -0.886131 1.30328 0
M  V30 17013 C 1568.03 -1.6346 1.18849 0
M  V30 17014 C 1568.36 -1.93295 -0.257285 0
M  V30 17015 O 1567.63 -1.56858 -1.17356 0
M  V30 17016 H 1566.21 -0.605932 0.43687 0
M  V30 17017 H 1568.87 -1.06177 1.63439 0
M  V30 17018 H 1567.96 -2.58522 1.7485 0
M  V30 17019 N 1568.26 -1.13026 -1.09832 0
M  V30 17020 C 1569.51 -0.884093 -1.81292 0
M  V30 17021 C 1569.83 0.591608 -1.86439 0
M  V30 17022 O 1571.03 0.954571 -2.54166 0
M  V30 17023 C 1569.49 -1.53207 -3.25662 0
M  V30 17024 C 1569.1 -3.043 -3.28794 0
M  V30 17025 C 1570.84 -1.36644 -4.01906 0
M  V30 17026 C 1568.75 -3.62003 -4.67662 0
M  V30 17027 H 1567.68 -0.327101 -0.679353 0
M  V30 17028 H 1570.33 -1.35748 -1.2347 0
M  V30 17029 H 1568.71 -0.986353 -3.83519 0
M  V30 17030 H 1569.88 -3.65418 -2.80725 0
M  V30 17031 H 1568.2 -3.20332 -2.66038 0
M  V30 17032 H 1570.8 -1.7717 -5.04495 0
M  V30 17033 H 1571.14 -0.310809 -4.15138 0
M  V30 17034 H 1571.67 -1.88172 -3.5048 0
M  V30 17035 H 1568.41 -4.67354 -4.59631 0
M  V30 17036 H 1567.93 -3.05663 -5.16072 0
M  V30 17037 H 1569.61 -3.61432 -5.36634 0
M  V30 17038 N 1569.74 1.27735 -0.923117 0
M  V30 17039 C 1570.99 1.93857 -0.556994 0
M  V30 17040 C 1571.3 1.73386 0.905346 0
M  V30 17041 O 1572.51 2.3381 1.38005 0
M  V30 17042 C 1570.97 3.47263 -0.94534 0
M  V30 17043 C 1570.57 3.76497 -2.42805 0
M  V30 17044 C 1572.32 4.1949 -0.65025 0
M  V30 17045 C 1570.23 5.23256 -2.75603 0
M  V30 17046 H 1569.16 0.725712 -0.204591 0
M  V30 17047 H 1571.81 1.451 -1.12331 0
M  V30 17048 H 1570.19 3.94803 -0.307721 0
M  V30 17049 H 1571.36 3.39731 -3.11319 0
M  V30 17050 H 1569.68 3.17463 -2.69456 0
M  V30 17051 H 1572.27 5.27544 -0.871851 0
M  V30 17052 H 1572.62 4.14253 0.412352 0
M  V30 17053 H 1573.15 3.77758 -1.24676 0
M  V30 17054 H 1569.89 5.33579 -3.80754 0
M  V30 17055 H 1569.41 5.61185 -2.11735 0
M  V30 17056 H 1571.09 5.91088 -2.63103 0
M  V30 17057 N 1571.22 0.688118 1.41784 0
M  V30 17058 C 1572.17 0.00661035 2.32599 0
M  V30 17059 C 1573.16 -0.776475 1.50556 0
M  V30 17060 O 1574.37 -0.682937 1.66541 0
M  V30 17061 H 1570.74 -0.0166615 0.751815 0
M  V30 17062 H 1572.71 0.789718 2.8776 0
M  V30 17063 C 1571.46 -0.921251 3.35273 0
M  V30 17064 H 1570.79 -0.328099 3.98451 0
M  V30 17065 H 1572.23 -1.36655 4.01374 0
M  V30 17066 C 1570.69 -2.03393 2.68576 0
M  V30 17067 O 1571.22 -3.1219 2.52785 0
M  V30 17068 N 1569.42 -1.8095 2.27389 0
M  V30 17069 H 1568.97 -0.924692 2.40431 0
M  V30 17070 H 1568.93 -2.55584 1.83096 0
M  V30 17071 N 1572.7 -1.51554 0.432352 0
M  V30 17072 C 1573.94 -2.02344 -0.13598 0
M  V30 17073 C 1574.28 -1.31619 -1.42794 0
M  V30 17074 O 1573.55 -0.42957 -1.89697 0
M  V30 17075 C 1573.84 -3.58297 -0.359865 0
M  V30 17076 C 1573.69 -4.39645 0.950399 0
M  V30 17077 C 1575.01 -4.25297 -1.13184 0
M  V30 17078 H 1572.13 -0.735439 -0.0479461 0
M  V30 17079 H 1574.77 -1.81237 0.570373 0
M  V30 17080 H 1572.92 -3.76413 -0.961547 0
M  V30 17081 H 1574.59 -4.3319 1.58568 0
M  V30 17082 H 1572.83 -4.04928 1.55614 0
M  V30 17083 H 1573.5 -5.46911 0.747852 0
M  V30 17084 H 1575.98 -4.11421 -0.622231 0
M  V30 17085 H 1574.86 -5.34307 -1.25726 0
M  V30 17086 H 1575.12 -3.85818 -2.15862 0
M  V30 17087 N 1574.18 -0.163538 -1.56749 0
M  V30 17088 C 1575.12 0.769787 -2.17584 0
M  V30 17089 C 1576.09 1.23246 -1.11354 0
M  V30 17090 O 1577.28 1.30203 -1.3947 0
M  V30 17091 C 1574.42 1.99685 -2.81461 0
M  V30 17092 C 1573.53 1.57846 -4.0213 0
M  V30 17093 C 1572.67 2.75858 -4.53955 0
M  V30 17094 C 1571.71 2.30473 -5.67053 0
M  V30 17095 N 1570.84 3.41551 -6.13423 0
M  V30 17096 H 1575.68 0.244221 -2.96998 0
M  V30 17097 H 1573.22 0.108821 -1.46697 0
M  V30 17098 H 1575.18 2.71643 -3.16648 0
M  V30 17099 H 1573.81 2.49624 -2.04664 0
M  V30 17100 H 1572.86 0.755907 -3.72814 0
M  V30 17101 H 1574.17 1.20525 -4.8402 0
M  V30 17102 H 1573.33 3.55984 -4.91284 0
M  V30 17103 H 1572.06 3.16434 -3.71107 0
M  V30 17104 H 1571.07 1.48791 -5.29284 0
M  V30 17105 H 1572.29 1.90964 -6.51698 0
M  V30 17106 H 1570.24 3.81717 -5.33506 0
M  V30 17107 H 1570.16 3.08298 -6.90281 0
M  V30 17108 H 1571.43 4.21985 -6.554 0
M  V30 17109 N 1575.65 1.57214 0.110213 0
M  V30 17110 C 1576.9 1.84946 0.814827 0
M  V30 17111 C 1577.22 0.750029 1.79999 0
M  V30 17112 O 1576.49 -0.225164 1.94602 0
M  V30 17113 H 1575.07 0.682385 0.303907 0
M  V30 17114 H 1577.74 1.94666 0.0954415 0
M  V30 17115 H 1576.83 2.81167 1.35469 0
M  V30 17116 N 1577.13 -0.380637 1.52934 0
M  V30 17117 C 1578.08 -1.46544 1.78307 0
M  V30 17118 C 1579.05 -1.53825 0.626671 0
M  V30 17119 O 1580.23 -1.6995 0.867276 0
M  V30 17120 C 1577.37 -2.83676 1.96525 0
M  V30 17121 C 1576.49 -2.85481 3.24229 0
M  V30 17122 C 1575.62 -4.14092 3.32718 0
M  V30 17123 C 1574.66 -4.09982 4.54512 0
M  V30 17124 N 1573.8 -5.30214 4.60237 0
M  V30 17125 H 1578.64 -1.24209 2.7088 0
M  V30 17126 H 1576.18 -0.60241 1.34199 0
M  V30 17127 H 1578.13 -3.63319 2.05073 0
M  V30 17128 H 1576.76 -3.04443 1.07304 0
M  V30 17129 H 1575.82 -1.98159 3.24711 0
M  V30 17130 H 1577.13 -2.78313 4.13936 0
M  V30 17131 H 1576.28 -5.02144 3.40494 0
M  V30 17132 H 1575.02 -4.23993 2.41 0
M  V30 17133 H 1574.03 -3.20317 4.46852 0
M  V30 17134 H 1575.25 -4.01696 5.47556 0
M  V30 17135 H 1573.2 -5.40729 3.71414 0
M  V30 17136 H 1573.11 -5.25155 5.43827 0
M  V30 17137 H 1574.38 -6.2014 4.72279 0
M  V30 17138 N 1578.61 -1.44039 -0.639573 0
M  V30 17139 C 1579.86 -1.46088 -1.39652 0
M  V30 17140 C 1580.18 -0.0914602 -1.94785 0
M  V30 17141 O 1579.45 0.875097 -1.75268 0
M  V30 17142 H 1578.03 -0.537901 -0.518335 0
M  V30 17143 H 1580.69 -1.79751 -0.753365 0
M  V30 17144 H 1579.79 -2.1814 -2.23207 0
M  V30 17145 N 1580.09 0.879207 -1.30796 0
M  V30 17146 C 1581.37 1.61328 -1.10602 0
M  V30 17147 C 1581.75 2.08301 0.342621 0
M  V30 17148 O 1581.09 1.85436 1.33514 0
M  V30 17149 C 1581.3 2.77838 -2.11203 0
M  V30 17150 C 1582.65 3.48028 -2.43231 0
M  V30 17151 O 1583.68 2.88034 -2.09559 0
M  V30 17152 O 1582.53 4.56233 -3.00854 0
M  V30 17153 H 1579.63 0.709335 -0.425174 0
M  V30 17154 H 1582.17 0.925478 -1.42243 0
M  V30 17155 H 1580.95 2.40475 -3.08687 0
M  V30 17156 H 1580.57 3.54312 -1.80414 0
M  V30 17157 N 1581.57 1.13606 1.09231 0
M  V30 17158 C 1582.5 0.837908 2.17948 0
M  V30 17159 C 1583.48 -0.203575 1.68877 0
M  V30 17160 O 1584.66 -0.0620702 1.94101 0
M  V30 17161 C 1581.79 0.305342 3.45955 0
M  V30 17162 C 1580.75 1.2813 4.08371 0
M  V30 17163 C 1580.07 0.608412 5.31227 0
M  V30 17164 C 1581.37 2.64055 4.50636 0
M  V30 17165 H 1583.07 1.747 2.43147 0
M  V30 17166 H 1580.61 0.84141 1.1686 0
M  V30 17167 H 1582.57 0.0844116 4.21315 0
M  V30 17168 H 1581.29 -0.639144 3.20285 0
M  V30 17169 H 1579.95 1.48826 3.35032 0
M  V30 17170 H 1579.6 -0.341613 5.01839 0
M  V30 17171 H 1579.3 1.25956 5.73942 0
M  V30 17172 H 1580.82 0.396809 6.09309 0
M  V30 17173 H 1582.24 2.47316 5.17212 0
M  V30 17174 H 1580.63 3.25364 5.0424 0
M  V30 17175 H 1581.7 3.21566 3.62937 0
M  V30 17176 N 1583.05 -1.27244 0.929878 0
M  V30 17177 C 1583.99 -2.26773 0.429287 0
M  V30 17178 C 1584.96 -1.58238 -0.50498 0
M  V30 17179 O 1586.15 -1.86037 -0.423661 0
M  V30 17180 C 1583.29 -3.43706 -0.309865 0
M  V30 17181 C 1582.4 -4.26948 0.658764 0
M  V30 17182 C 1581.54 -5.31105 -0.10045 0
M  V30 17183 C 1580.57 -6.06018 0.860743 0
M  V30 17184 N 1579.71 -7.01972 0.134015 0
M  V30 17185 H 1584.55 -2.68967 1.283 0
M  V30 17186 H 1582.09 -1.32257 0.643923 0
M  V30 17187 H 1584.05 -4.10316 -0.754754 0
M  V30 17188 H 1582.68 -3.02457 -1.1278 0
M  V30 17189 H 1581.73 -3.60232 1.22218 0
M  V30 17190 H 1583.04 -4.78946 1.39326 0
M  V30 17191 H 1582.19 -6.03674 -0.605153 0
M  V30 17192 H 1580.93 -4.79915 -0.867902 0
M  V30 17193 H 1579.94 -5.32285 1.37668 0
M  V30 17194 H 1581.16 -6.59297 1.62801 0
M  V30 17195 H 1579.11 -6.53109 -0.615152 0
M  V30 17196 H 1579.03 -7.51669 0.808045 0
M  V30 17197 H 1580.29 -7.78714 -0.349964 0
M  V30 17198 N 1584.52 -0.695628 -1.41417 0
M  V30 17199 C 1585.75 -0.235654 -2.05554 0
M  V30 17200 C 1586.17 1.11513 -1.52349 0
M  V30 17201 O 1585.52 1.69688 -0.671743 0
M  V30 17202 C 1585.57 -0.184809 -3.61027 0
M  V30 17203 O 1585.3 -1.48224 -4.12264 0
M  V30 17204 C 1586.8 0.296147 -4.4231 0
M  V30 17205 H 1584.02 -0.109648 -0.661981 0
M  V30 17206 H 1586.56 -0.948227 -1.81187 0
M  V30 17207 H 1584.72 0.478588 -3.84432 0
M  V30 17208 H 1585.13 -1.36939 -5.06308 0
M  V30 17209 H 1586.6 0.280597 -5.51286 0
M  V30 17210 H 1587.08 1.33503 -4.18418 0
M  V30 17211 H 1587.69 -0.336253 -4.23969 0
M  V30 17212 N 1586 1.51322 -0.440383 0
M  V30 17213 C 1587.23 2.06231 0.12347 0
M  V30 17214 C 1587.64 1.30754 1.36748 0
M  V30 17215 O 1586.98 0.36135 1.80111 0
M  V30 17216 C 1587.04 3.55892 0.508059 0
M  V30 17217 C 1586.71 4.52643 -0.629572 0
M  V30 17218 C 1587.71 4.97712 -1.50261 0
M  V30 17219 C 1585.39 4.95707 -0.81117 0
M  V30 17220 C 1587.38 5.84522 -2.54191 0
M  V30 17221 C 1585.07 5.82305 -1.85374 0
M  V30 17222 C 1586.07 6.26611 -2.7175 0
M  V30 17223 O 1585.76 7.11489 -3.74217 0
M  V30 17224 H 1585.49 0.675926 0.0100034 0
M  V30 17225 H 1588.04 1.95846 -0.619156 0
M  V30 17226 H 1586.27 3.64071 1.30343 0
M  V30 17227 H 1587.96 3.93302 1.00342 0
M  V30 17228 H 1588.73 4.65135 -1.37386 0
M  V30 17229 H 1584.61 4.60761 -0.148423 0
M  V30 17230 H 1588.15 6.19025 -3.21643 0
M  V30 17231 H 1584.05 6.14296 -1.98268 0
M  V30 17232 H 1584.82 7.29674 -3.70834 0
M  V30 17233 N 1587.48 0.171848 1.5666 0
M  V30 17234 C 1588.73 -0.472968 1.96899 0
M  V30 17235 C 1589.05 -1.63217 1.05785 0
M  V30 17236 O 1588.31 -1.95483 0.0920511 0
M  V30 17237 C 1588.61 -0.99711 3.43209 0
M  V30 17238 C 1588.27 0.0462519 4.50876 0
M  V30 17239 C 1586.94 0.333002 4.80046 0
M  V30 17240 C 1589.29 0.754424 5.15711 0
M  V30 17241 C 1586.62 1.3333 5.71349 0
M  V30 17242 C 1588.97 1.74371 6.08093 0
M  V30 17243 C 1587.63 2.03791 6.3563 0
M  V30 17244 H 1586.9 -0.173071 0.720505 0
M  V30 17245 H 1589.55 0.263921 1.89673 0
M  V30 17246 H 1587.85 -1.81183 3.4739 0
M  V30 17247 H 1589.55 -1.50503 3.71685 0
M  V30 17248 H 1586.14 -0.187419 4.2819 0
M  V30 17249 H 1590.33 0.546102 4.93286 0
M  V30 17250 H 1585.58 1.56741 5.90967 0
M  V30 17251 H 1589.76 2.29782 6.57399 0
M  V30 17252 H 1587.38 2.8145 7.0618 0
M  V30 17253 N 1588.96 -1.5727 -0.101874 0
M  V30 17254 C 1590.2 -1.86017 -0.807795 0
M  V30 17255 C 1590.54 -0.760024 -1.7871 0
M  V30 17256 O 1589.81 0.232627 -1.93104 0
M  V30 17257 C 1590.09 -3.25388 -1.54255 0
M  V30 17258 C 1589.95 -4.46023 -0.581693 0
M  V30 17259 C 1591.27 -3.62561 -2.49474 0
M  V30 17260 H 1588.39 -0.676596 -0.29221 0
M  V30 17261 H 1591.03 -1.89865 -0.0715861 0
M  V30 17262 H 1589.18 -3.22239 -2.17013 0
M  V30 17263 H 1590.85 -4.61284 0.0383529 0
M  V30 17264 H 1589.09 -4.33672 0.105465 0
M  V30 17265 H 1589.76 -5.40251 -1.1328 0
M  V30 17266 H 1592.24 -3.66611 -1.96813 0
M  V30 17267 H 1591.12 -4.61025 -2.97905 0
M  V30 17268 H 1591.38 -2.90885 -3.32924 0
M  V30 17269 N 1590.44 0.372521 -1.53134 0
M  V30 17270 C 1591.38 1.47633 -1.79742 0
M  V30 17271 C 1592.38 1.55752 -0.66617 0
M  V30 17272 O 1593.58 1.58721 -0.848979 0
M  V30 17273 H 1589.96 0.491677 -0.568997 0
M  V30 17274 H 1591.93 1.22392 -2.72145 0
M  V30 17275 C 1590.68 2.84559 -1.99803 0
M  V30 17276 H 1590 2.79069 -2.86288 0
M  V30 17277 H 1591.44 3.60989 -2.22402 0
M  V30 17278 C 1589.9 3.27861 -0.775162 0
M  V30 17279 O 1590.43 4.01681 0.0394991 0
M  V30 17280 N 1588.64 2.84326 -0.600573 0
M  V30 17281 H 1588.18 2.2442 -1.26466 0
M  V30 17282 H 1588.14 3.13655 0.216241 0
M  V30 17283 N 1591.91 1.44376 0.631925 0
M  V30 17284 C 1593.14 1.50598 1.41873 0
M  V30 17285 C 1593.56 0.130589 1.88348 0
M  V30 17286 O 1592.91 -0.86336 1.60787 0
M  V30 17287 C 1592.96 2.47 2.63957 0
M  V30 17288 O 1592.69 3.79192 2.1942 0
M  V30 17289 C 1594.19 2.62678 3.57092 0
M  V30 17290 H 1591.41 0.510792 0.435124 0
M  V30 17291 H 1593.95 1.89332 0.772893 0
M  V30 17292 H 1592.11 2.11404 3.24634 0
M  V30 17293 H 1592.52 4.31231 2.98563 0
M  V30 17294 H 1593.99 3.34161 4.39364 0
M  V30 17295 H 1594.47 1.67881 4.05848 0
M  V30 17296 H 1595.08 2.99172 3.02285 0
M  V30 17297 N 1593.39 -0.872258 1.31261 0
M  V30 17298 C 1594.3 -2.01185 1.20673 0
M  V30 17299 C 1595.32 -1.73558 0.123921 0
M  V30 17300 O 1596.49 -1.98487 0.341288 0
M  V30 17301 C 1593.56 -3.34481 0.91232 0
M  V30 17302 C 1592.62 -3.75446 2.08179 0
M  V30 17303 C 1591.85 -5.02382 1.80134 0
M  V30 17304 O 1592.08 -5.6564 0.735358 0
M  V30 17305 O 1591.01 -5.40059 2.65744 0
M  V30 17306 H 1594.84 -2.13049 2.16434 0
M  V30 17307 H 1592.42 -1.00021 1.10978 0
M  V30 17308 H 1594.3 -4.14419 0.763879 0
M  V30 17309 H 1592.98 -3.23696 -0.0152802 0
M  V30 17310 H 1591.88 -2.96159 2.28562 0
M  V30 17311 H 1593.22 -3.90853 2.99156 0
M  V30 17312 N 1594.87 -1.14184 -1.08627 0
M  V30 17313 C 1595.8 -0.770338 -2.14805 0
M  V30 17314 C 1596.78 0.247269 -1.60709 0
M  V30 17315 O 1597.96 0.136851 -1.88003 0
M  V30 17316 C 1595.09 -0.143349 -3.38397 0
M  V30 17317 C 1594.14 -1.13077 -4.11237 0
M  V30 17318 S 1594.97 -2.667 -4.64361 0
M  V30 17319 C 1596.13 -2.05384 -5.91243 0
M  V30 17320 H 1596.36 -1.66968 -2.45986 0
M  V30 17321 H 1593.89 -0.962834 -1.20702 0
M  V30 17322 H 1595.85 0.211987 -4.09952 0
M  V30 17323 H 1594.51 0.733388 -3.05418 0
M  V30 17324 H 1593.7 -0.64004 -4.99919 0
M  V30 17325 H 1593.31 -1.42998 -3.45583 0
M  V30 17326 H 1595.6 -1.40791 -6.6271 0
M  V30 17327 H 1596.54 -2.92181 -6.45008 0
M  V30 17328 H 1596.95 -1.50209 -5.44149 0
M  V30 17329 N 1596.35 1.26749 -0.936613 0
M  V30 17330 C 1597.57 1.98597 -0.597817 0
M  V30 17331 C 1598 1.69324 0.8192 0
M  V30 17332 O 1597.36 0.938634 1.55111 0
M  V30 17333 C 1597.4 3.50656 -0.841007 0
M  V30 17334 O 1596.51 4.12304 0.0891038 0
M  V30 17335 H 1595.85 0.623197 -0.229176 0
M  V30 17336 H 1598.38 1.61332 -1.2583 0
M  V30 17337 H 1598.39 4.00857 -0.760093 0
M  V30 17338 H 1597.06 3.71293 -1.87388 0
M  V30 17339 H 1595.64 3.72876 -0.0424804 0
M  V30 17340 N 1597.83 0.703118 1.41046 0
M  V30 17341 C 1599.24 0.375417 1.55122 0
M  V30 17342 C 1599.44 -1.11696 1.67709 0
M  V30 17343 O 1598.5 -1.90289 1.65971 0
M  V30 17344 C 1599.81 1.13056 2.78638 0
M  V30 17345 C 1601.36 1.11564 2.92442 0
M  V30 17346 C 1601.83 1.85268 4.18855 0
M  V30 17347 N 1603.33 1.82275 4.25829 0
M  V30 17348 C 1604.06 2.36137 5.2252 0
M  V30 17349 N 1603.56 2.98502 6.25195 0
M  V30 17350 N 1605.35 2.26349 5.14512 0
M  V30 17351 H 1597.5 1.67096 1.31121 0
M  V30 17352 H 1599.76 0.705573 0.633144 0
M  V30 17353 H 1599.47 2.18524 2.75572 0
M  V30 17354 H 1599.34 0.714037 3.7038 0
M  V30 17355 H 1601.73 0.0691901 2.95019 0
M  V30 17356 H 1601.81 1.57128 2.01853 0
M  V30 17357 H 1601.46 2.89896 4.1704 0
M  V30 17358 H 1601.39 1.37133 5.08431 0
M  V30 17359 H 1603.88 1.36812 3.52265 0
M  V30 17360 H 1604.19 3.37149 6.95378 0
M  V30 17361 H 1602.53 3.02582 6.25675 0
M  V30 17362 H 1605.73 1.77294 4.33226 0
M  V30 17363 H 1605.9 2.68629 5.89697 0
M  V30 17364 N 1599.3 -1.51086 0.448402 0
M  V30 17365 C 1600.53 -2.07081 -0.115038 0
M  V30 17366 C 1600.95 -1.31253 -1.34737 0
M  V30 17367 O 1600.31 -0.353613 -1.77818 0
M  V30 17368 C 1600.36 -3.58321 -0.404803 0
M  V30 17369 O 1599.46 -3.84567 -1.48936 0
M  V30 17370 H 1598.81 -0.663993 0.00299118 0
M  V30 17371 H 1601.34 -1.94564 0.632921 0
M  V30 17372 H 1601.35 -4.02756 -0.652013 0
M  V30 17373 H 1600.02 -4.12934 0.495838 0
M  V30 17374 H 1598.6 -3.51987 -1.23124 0
M  V30 17375 N 1600.78 -0.180154 -1.56567 0
M  V30 17376 C 1601.71 0.742131 -2.21393 0
M  V30 17377 C 1602.69 1.23253 -1.1723 0
M  V30 17378 O 1603.88 1.28408 -1.45688 0
M  V30 17379 C 1601.01 1.96799 -2.8616 0
M  V30 17380 C 1599.96 1.6131 -3.96438 0
M  V30 17381 C 1599.29 2.91434 -4.48297 0
M  V30 17382 C 1600.59 0.834382 -5.15592 0
M  V30 17383 H 1602.28 0.201759 -2.98719 0
M  V30 17384 H 1599.83 0.0956016 -1.43682 0
M  V30 17385 H 1601.78 2.61828 -3.30188 0
M  V30 17386 H 1600.51 2.53264 -2.06215 0
M  V30 17387 H 1599.16 0.986451 -3.53079 0
M  V30 17388 H 1598.81 3.45958 -3.65133 0
M  V30 17389 H 1598.51 2.68439 -5.22699 0
M  V30 17390 H 1600.04 3.57478 -4.95017 0
M  V30 17391 H 1601.45 1.38745 -5.56258 0
M  V30 17392 H 1599.85 0.703132 -5.95966 0
M  V30 17393 H 1600.92 -0.167554 -4.8461 0
M  V30 17394 N 1602.26 1.57322 0.0935319 0
M  V30 17395 C 1603.49 1.90754 0.814111 0
M  V30 17396 C 1603.91 0.774571 1.71412 0
M  V30 17397 O 1603.27 -0.273775 1.79221 0
M  V30 17398 C 1603.32 3.23055 1.60211 0
M  V30 17399 O 1602.42 3.10755 2.71118 0
M  V30 17400 H 1601.76 0.625237 0.223552 0
M  V30 17401 H 1604.29 2.04486 0.068288 0
M  V30 17402 H 1604.3 3.56401 1.986 0
M  V30 17403 H 1602.98 4.05101 0.941607 0
M  V30 17404 H 1601.55 2.88926 2.35745 0
M  V30 17405 N 1603.74 -0.364395 1.53329 0
M  V30 17406 C 1604.67 -1.46658 1.76137 0
M  V30 17407 C 1605.68 -1.496 0.642166 0
M  V30 17408 O 1606.87 -1.53058 0.918452 0
M  V30 17409 C 1603.97 -2.85417 1.8273 0
M  V30 17410 C 1603.15 -3.06158 3.12388 0
M  V30 17411 C 1602.2 -4.25038 3.10208 0
M  V30 17412 O 1601.23 -4.20156 3.84002 0
M  V30 17413 N 1602.43 -5.32511 2.31111 0
M  V30 17414 H 1605.2 -1.27471 2.7124 0
M  V30 17415 H 1602.76 -0.554127 1.52122 0
M  V30 17416 H 1604.75 -3.63086 1.78748 0
M  V30 17417 H 1603.32 -2.97845 0.949058 0
M  V30 17418 H 1602.54 -2.16139 3.29663 0
M  V30 17419 H 1603.83 -3.16885 3.98072 0
M  V30 17420 H 1603.23 -5.39341 1.70669 0
M  V30 17421 H 1601.78 -6.08752 2.32946 0
M  V30 17422 N 1605.22 -1.44709 -0.62426 0
M  V30 17423 C 1606.44 -1.51573 -1.41564 0
M  V30 17424 C 1606.87 -0.143806 -1.87549 0
M  V30 17425 O 1606.22 0.868361 -1.59151 0
M  V30 17426 C 1606.27 -2.49085 -2.60747 0
M  V30 17427 O 1605.38 -1.99712 -3.60817 0
M  V30 17428 H 1604.72 -0.51157 -0.423311 0
M  V30 17429 H 1607.25 -1.89908 -0.761316 0
M  V30 17430 H 1607.26 -2.67346 -3.08205 0
M  V30 17431 H 1605.93 -3.48733 -2.26624 0
M  V30 17432 H 1604.51 -1.9125 -3.20122 0
M  V30 17433 N 1606.69 0.865285 -1.31722 0
M  V30 17434 C 1607.64 1.99433 -1.19704 0
M  V30 17435 C 1608.64 1.69079 -0.104255 0
M  V30 17436 O 1609.84 1.78017 -0.266466 0
M  V30 17437 H 1606.22 0.654244 -0.370768 0
M  V30 17438 H 1608.19 2.06699 -2.15216 0
M  V30 17439 C 1606.94 3.35142 -0.926027 0
M  V30 17440 H 1606.26 3.59022 -1.75906 0
M  V30 17441 H 1607.7 4.14722 -0.88214 0
M  V30 17442 C 1606.16 3.34848 0.37124 0
M  V30 17443 O 1606.69 3.77012 1.38654 0
M  V30 17444 N 1604.9 2.87979 0.389441 0
M  V30 17445 H 1604.44 2.53861 -0.437293 0
M  V30 17446 H 1604.4 2.88165 1.25731 0
M  V30 17447 N 1608.17 1.14759 1.0802 0
M  V30 17448 C 1609.42 0.919609 1.80751 0
M  V30 17449 C 1609.75 -0.552268 1.86182 0
M  V30 17450 O 1609.03 -1.40922 1.34057 0
M  V30 17451 C 1609.31 1.52611 3.26162 0
M  V30 17452 C 1609.16 3.06811 3.28918 0
M  V30 17453 C 1610.48 1.20625 4.23246 0
M  V30 17454 H 1607.6 0.33551 0.656203 0
M  V30 17455 H 1610.24 1.41816 1.26444 0
M  V30 17456 H 1608.39 1.10213 3.72539 0
M  V30 17457 H 1610.06 3.58068 2.90835 0
M  V30 17458 H 1608.31 3.41055 2.68075 0
M  V30 17459 H 1608.98 3.44357 4.31419 0
M  V30 17460 H 1611.45 1.57287 3.85227 0
M  V30 17461 H 1610.33 1.65689 5.23296 0
M  V30 17462 H 1610.59 0.122177 4.41931 0
M  V30 17463 N 1609.65 -1.26251 0.943322 0
M  V30 17464 C 1610.61 -2.24554 0.459158 0
M  V30 17465 C 1611.61 -1.54918 -0.430926 0
M  V30 17466 O 1612.8 -1.72678 -0.229803 0
M  V30 17467 C 1609.94 -3.39221 -0.337973 0
M  V30 17468 H 1611.13 -2.689 1.32789 0
M  V30 17469 H 1608.68 -1.38442 0.725495 0
M  V30 17470 H 1609.42 -3.00279 -1.22486 0
M  V30 17471 H 1609.2 -3.90947 0.300428 0
M  V30 17472 H 1610.69 -4.12246 -0.666568 0
M  V30 17473 N 1611.13 -0.710588 -1.40671 0
M  V30 17474 C 1612.35 -0.256007 -2.05814 0
M  V30 17475 C 1612.78 1.09178 -1.53173 0
M  V30 17476 O 1612.14 1.68665 -0.664977 0
M  V30 17477 C 1612.19 -0.240528 -3.59797 0
M  V30 17478 O 1611.29 0.779859 -4.04959 0
M  V30 17479 H 1610.63 -0.121326 -0.652822 0
M  V30 17480 H 1613.16 -0.969667 -1.80163 0
M  V30 17481 H 1613.17 -0.0765027 -4.07928 0
M  V30 17482 H 1611.85 -1.22411 -3.97478 0
M  V30 17483 H 1610.42 0.583965 -3.68299 0
M  V30 17484 O 1612.65 1.50006 -0.598359 0
M  V30 17485 H 1613.34 1.93401 -0.107541 0
M  V30 END ATOM
M  V30 BEGIN BOND
M  V30 END BOND
M  V30 END CTAB
M  END
$$$$
