drugbank_target|Q0P8G4 DUTPase (DB03641)
 OpenBabel12092120283D

  0  0  0     0  0            999 V3000
M  V30 BEGIN CTAB
M  V30 COUNTS 3776 3815 0 0 0
M  V30 BEGIN ATOM
M  V30 1 H -0.908 1.98254 -0.117106 0
M  V30 2 N 0 1.576 0 0
M  V30 3 C 0.933 2.03868 1.02534 0
M  V30 4 C 1.911 0.928543 1.3348 0
M  V30 5 O 3.095 1.19667 1.45644 0
M  V30 6 C 0.222 2.43627 2.35294 0
M  V30 7 C -0.732 3.65373 2.2001 0
M  V30 8 S 0.101 5.13292 1.52614 0
M  V30 9 C 1.257 5.56322 2.86805 0
M  V30 10 H 1.49 2.90518 0.631377 0
M  V30 11 H -0.977 1.52953 0.210867 0
M  V30 12 H 0.981 2.67203 3.11629 0
M  V30 13 H -0.358 1.57376 2.7183 0
M  V30 14 H -1.165 3.90944 3.18086 0
M  V30 15 H -1.563 3.418 1.51819 0
M  V30 16 H 0.729 5.58782 3.83104 0
M  V30 17 H 1.672 6.56266 2.65933 0
M  V30 18 H 2.08 4.83886 2.90714 0
M  V30 19 N 1.4781 -0.272755 1.55222 0
M  V30 20 C 2.7061 -1.02255 1.79865 0
M  V30 21 C 3.1211 -1.79924 0.572088 0
M  V30 22 O 2.4781 -1.76638 -0.458842 0
M  V30 23 C 2.5291 -1.98094 3.02392 0
M  V30 24 O 2.2501 -1.23572 4.20311 0
M  V30 25 C 3.7511 -2.84884 3.39641 0
M  V30 26 H 0.9711 -0.302057 0.599168 0
M  V30 27 H 3.5151 -0.303465 2.02236 0
M  V30 28 H 1.6701 -2.65465 2.82147 0
M  V30 29 H 2.0841 -1.88172 4.89583 0
M  V30 30 H 3.5581 -3.47927 4.28545 0
M  V30 31 H 4.0351 -3.54665 2.59055 0
M  V30 32 H 4.6411 -2.23003 3.62146 0
M  V30 33 N 2.9562 -1.48159 -0.537278 0
M  V30 34 C 3.9042 -1.62573 -1.66352 0
M  V30 35 C 4.8982 -0.492366 -1.62087 0
M  V30 36 O 6.1042 -0.670847 -1.67032 0
M  V30 37 H 2.4792 -0.511992 -0.550789 0
M  V30 38 H 4.4502 -2.57176 -1.51337 0
M  V30 39 C 3.1992 -1.67583 -3.04649 0
M  V30 40 H 2.5222 -2.54151 -3.08622 0
M  V30 41 H 3.9622 -1.81713 -3.83088 0
M  V30 42 C 2.4212 -0.413039 -3.34358 0
M  V30 43 O 2.9512 0.477259 -3.98855 0
M  V30 44 N 1.1572 -0.286961 -2.8918 0
M  V30 45 H 0.7042 -1.01241 -2.36871 0
M  V30 46 H 0.6622 0.556963 -3.09427 0
M  V30 47 N 4.4343 0.785586 -1.36625 0
M  V30 48 C 5.6833 1.53883 -1.30396 0
M  V30 49 C 5.9963 1.95271 0.113452 0
M  V30 50 O 7.2023 2.69858 0.298142 0
M  V30 51 C 5.6583 2.77808 -2.28802 0
M  V30 52 C 5.2663 2.43574 -3.75999 0
M  V30 53 C 7.0103 3.55783 -2.31558 0
M  V30 54 C 4.9173 3.63919 -4.66173 0
M  V30 55 H 3.8473 0.577678 -0.484566 0
M  V30 56 H 6.4983 0.861705 -1.62009 0
M  V30 57 H 4.8803 3.47339 -1.90188 0
M  V30 58 H 6.0543 1.81916 -4.23371 0
M  V30 59 H 4.3693 1.78803 -3.76056 0
M  V30 60 H 6.9663 4.45205 -2.96137 0
M  V30 61 H 7.3093 3.94644 -1.3252 0
M  V30 62 H 7.8423 2.93235 -2.68809 0
M  V30 63 H 4.5813 3.3015 -5.66287 0
M  V30 64 H 4.1013 4.2473 -4.23515 0
M  V30 65 H 5.7803 4.30901 -4.82632 0
M  V30 66 N 5.9124 1.20967 1.01018 0
M  V30 67 C 6.8224 0.980157 2.13143 0
M  V30 68 C 7.8384 -0.0660665 1.73875 0
M  V30 69 O 9.0144 0.122821 2.01025 0
M  V30 70 C 6.0794 0.54216 3.42435 0
M  V30 71 C 5.1404 1.65999 3.95908 0
M  V30 72 C 4.3734 1.2428 5.19028 0
M  V30 73 O 4.5964 0.114196 5.70286 0
M  V30 74 O 3.5304 2.05271 5.65816 0
M  V30 75 H 7.3564 1.91913 2.35379 0
M  V30 76 H 4.9414 0.994099 1.11526 0
M  V30 77 H 6.8234 0.30744 4.20277 0
M  V30 78 H 5.4984 -0.36815 3.216 0
M  V30 79 H 4.4054 1.94906 3.19316 0
M  V30 80 H 5.7384 2.54753 4.21143 0
M  V30 81 N 7.3905 -1.2043 1.01659 0
M  V30 82 C 8.6395 -1.89118 0.701237 0
M  V30 83 C 8.9525 -1.79705 -0.772358 0
M  V30 84 O 10.1585 -2.43528 -1.20026 0
M  V30 85 C 8.6145 -3.39168 1.20388 0
M  V30 86 C 8.2225 -3.57166 2.70438 0
M  V30 87 C 9.9665 -4.1341 0.963953 0
M  V30 88 C 7.8735 -5.01042 3.14183 0
M  V30 89 H 6.8035 -0.708267 0.2586 0
M  V30 90 H 9.4545 -1.36239 1.22927 0
M  V30 91 H 7.8365 -3.91369 0.603824 0
M  V30 92 H 9.0105 -3.15351 3.35992 0
M  V30 93 H 7.3255 -2.96294 2.92572 0
M  V30 94 H 9.9225 -5.19491 1.26621 0
M  V30 95 H 10.2655 -4.16181 -0.099578 0
M  V30 96 H 10.7985 -3.67309 1.52738 0
M  V30 97 H 7.5375 -5.03426 4.19812 0
M  V30 98 H 7.0575 -5.43668 2.53348 0
M  V30 99 H 8.7365 -5.69623 3.0682 0
M  V30 100 N 8.8686 -0.792821 -1.36206 0
M  V30 101 C 9.7986 -0.207853 -2.32573 0
M  V30 102 C 10.7796 0.659055 -1.56813 0
M  V30 103 O 11.9646 0.592176 -1.84951 0
M  V30 104 C 9.0946 0.655449 -3.41059 0
M  V30 105 C 8.0486 -0.111842 -4.27854 0
M  V30 106 C 7.3746 0.872274 -5.27537 0
M  V30 107 C 8.6746 -1.30299 -5.05786 0
M  V30 108 H 10.3686 -1.01294 -2.81744 0
M  V30 109 H 7.9146 -0.48854 -1.3546 0
M  V30 110 H 9.8676 1.07464 -4.07467 0
M  V30 111 H 8.5916 1.49328 -2.90463 0
M  V30 112 H 7.2506 -0.512053 -3.63006 0
M  V30 113 H 6.8986 1.70523 -4.73214 0
M  V30 114 H 6.5986 0.363291 -5.86476 0
M  V30 115 H 8.1226 1.28996 -5.96818 0
M  V30 116 H 9.5366 -0.959379 -5.65216 0
M  V30 117 H 7.9336 -1.7455 -5.74154 0
M  V30 118 H 9.0036 -2.09663 -4.37229 0
M  V30 119 N 10.3467 1.47872 -0.545128 0
M  V30 120 C 11.2567 2.33633 0.212746 0
M  V30 121 C 12.2727 1.4744 0.923983 0
M  V30 122 O 13.4487 1.80393 0.895572 0
M  V30 123 C 10.5137 3.23884 1.23693 0
M  V30 124 C 9.5747 4.25961 0.534417 0
M  V30 125 C 8.8077 5.11899 1.5098 0
M  V30 126 O 9.0307 5.00077 2.7437 0
M  V30 127 O 7.9647 5.92831 1.0409 0
M  V30 128 H 11.7907 2.99714 -0.490416 0
M  V30 129 H 9.3757 1.46235 -0.305871 0
M  V30 130 H 11.2577 3.79666 1.82843 0
M  V30 131 H 9.9327 2.60446 1.92222 0
M  V30 132 H 8.8397 3.73972 -0.0979679 0
M  V30 133 H 10.1727 4.92079 -0.109213 0
M  V30 134 N 11.8248 0.280983 1.55075 0
M  V30 135 C 12.7728 -0.619864 2.24188 0
M  V30 136 C 13.7668 -1.15315 1.24092 0
M  V30 137 O 14.9728 -1.1061 1.42005 0
M  V30 138 H 11.3478 -0.218459 0.719569 0
M  V30 139 H 13.3188 -0.0141831 2.98397 0
M  V30 140 C 12.0678 -1.7899 2.98091 0
M  V30 141 H 11.3908 -1.38874 3.74905 0
M  V30 142 H 12.8308 -2.39672 3.49762 0
M  V30 143 C 11.2898 -2.68192 2.03899 0
M  V30 144 O 11.8198 -3.6872 1.594 0
M  V30 145 N 10.0258 -2.35488 1.70275 0
M  V30 146 H 9.5728 -1.53787 2.06658 0
M  V30 147 H 9.5308 -2.95442 1.07524 0
M  V30 148 N 13.3029 -1.57598 0.00835791 0
M  V30 149 C 14.2359 -2.04409 -1.01451 0
M  V30 150 C 15.2139 -0.935609 -1.32985 0
M  V30 151 O 16.3979 -1.20437 -1.45007 0
M  V30 152 C 13.5249 -2.44872 -2.33999 0
M  V30 153 C 12.5709 -3.66535 -2.18069 0
M  V30 154 S 13.4039 -5.14095 -1.4989 0
M  V30 155 C 14.5599 -5.57835 -2.8385 0
M  V30 156 H 14.7929 -2.90849 -0.615961 0
M  V30 157 H 12.3259 -1.53063 -0.202752 0
M  V30 158 H 14.2839 -2.68852 -3.10208 0
M  V30 159 H 12.9449 -1.58815 -2.70992 0
M  V30 160 H 12.1379 -3.92626 -3.16008 0
M  V30 161 H 11.7399 -3.426 -1.50004 0
M  V30 162 H 14.0319 -5.60806 -3.80136 0
M  V30 163 H 14.9749 -6.57667 -2.62449 0
M  V30 164 H 15.3829 -4.85421 -2.88144 0
M  V30 165 N 14.781 0.264519 -1.55364 0
M  V30 166 C 15.711 1.33121 -1.91836 0
M  V30 167 C 16.692 1.51101 -0.781192 0
M  V30 168 O 17.877 1.64003 -1.04003 0
M  V30 169 C 15.007 2.68921 -2.19769 0
M  V30 170 C 13.961 2.65661 -3.35571 0
M  V30 171 C 13.287 4.05093 -3.49004 0
M  V30 172 C 14.587 2.24187 -4.71739 0
M  V30 173 H 16.281 1.02844 -2.81182 0
M  V30 174 H 13.827 0.493286 -1.35287 0
M  V30 175 H 15.78 3.43663 -2.43872 0
M  V30 176 H 14.504 3.00799 -1.27231 0
M  V30 177 H 13.163 1.93377 -3.1145 0
M  V30 178 H 12.811 4.34206 -2.53917 0
M  V30 179 H 12.511 4.03804 -4.26868 0
M  V30 180 H 14.035 4.81561 -3.75408 0
M  V30 181 H 15.449 2.88654 -4.9533 0
M  V30 182 H 13.846 2.34044 -5.52579 0
M  V30 183 H 14.916 1.19327 -4.69988 0
M  V30 184 N 16.2591 1.48442 0.529413 0
M  V30 185 C 17.2061 1.63007 1.63394 0
M  V30 186 C 18.1761 0.47212 1.59249 0
M  V30 187 O 19.3611 0.695673 1.77666 0
M  V30 188 C 16.5011 1.6763 3.01653 0
M  V30 189 C 15.6141 2.94535 3.16027 0
M  V30 190 C 14.7491 2.90316 4.44849 0
M  V30 191 C 13.7881 4.11923 4.52754 0
M  V30 192 N 12.9251 4.05777 5.72965 0
M  V30 193 H 17.7651 2.5733 1.50285 0
M  V30 194 H 15.3021 1.27613 0.731656 0
M  V30 195 H 17.2601 1.68292 3.81751 0
M  V30 196 H 15.8901 0.76797 3.13532 0
M  V30 197 H 14.9421 3.03615 2.29177 0
M  V30 198 H 16.2541 3.84512 3.17729 0
M  V30 199 H 15.4081 2.89382 5.33238 0
M  V30 200 H 14.1471 1.98068 4.45668 0
M  V30 201 H 13.1521 4.13131 3.62771 0
M  V30 202 H 14.3771 5.0533 4.53672 0
M  V30 203 H 12.3231 3.16351 5.74681 0
M  V30 204 H 12.2401 4.8946 5.76164 0
M  V30 205 H 13.5081 4.08904 6.6364 0
M  V30 206 N 17.7372 -0.778329 1.37039 0
M  V30 207 C 18.6672 -1.90546 1.34962 0
M  V30 208 C 19.6482 -1.68681 0.219274 0
M  V30 209 O 20.8332 -1.89634 0.418624 0
M  V30 210 C 17.9632 -3.27734 1.14925 0
M  V30 211 C 16.9172 -3.64147 2.24902 0
M  V30 212 C 16.2432 -4.99806 1.89996 0
M  V30 213 C 17.5432 -3.71579 3.67051 0
M  V30 214 H 19.2372 -1.92541 2.29277 0
M  V30 215 H 16.7832 -0.924948 1.10366 0
M  V30 216 H 18.7362 -4.06215 1.12104 0
M  V30 217 H 17.4602 -3.26154 0.170631 0
M  V30 218 H 16.1192 -2.8797 2.26868 0
M  V30 219 H 15.7672 -4.94759 0.906796 0
M  V30 220 H 15.4672 -5.25139 2.63634 0
M  V30 221 H 16.9912 -5.80694 1.88749 0
M  V30 222 H 18.4052 -4.40227 3.67251 0
M  V30 223 H 16.8022 -4.08405 4.39688 0
M  V30 224 H 17.8722 -2.72404 4.01154 0
M  V30 225 N 19.2153 -1.21501 -1.00376 0
M  V30 226 C 20.1473 -0.933174 -2.09343 0
M  V30 227 C 21.1603 0.0840896 -1.62583 0
M  V30 228 O 22.3493 -0.148563 -1.77881 0
M  V30 229 C 19.4493 -0.379869 -3.36764 0
M  V30 230 C 18.6223 -1.45176 -4.12605 0
M  V30 231 C 17.6813 -0.907476 -5.18316 0
M  V30 232 O 16.7073 -1.5912 -5.46507 0
M  V30 233 N 17.9093 0.276649 -5.7984 0
M  V30 234 H 20.6743 -1.87124 -2.34104 0
M  V30 235 H 18.2353 -1.12043 -1.16867 0
M  V30 236 H 20.2273 -0.00131488 -4.047 0
M  V30 237 H 18.7973 0.463048 -3.09151 0
M  V30 238 H 18.0173 -2.00411 -3.39454 0
M  V30 239 H 19.3053 -2.17328 -4.6005 0
M  V30 240 H 18.7033 0.849147 -5.59291 0
M  V30 241 H 17.2603 0.596702 -6.49063 0
M  V30 242 N 20.6934 1.19889 -1.02296 0
M  V30 243 C 21.6254 2.22334 -0.556787 0
M  V30 244 C 22.6384 1.58674 0.364199 0
M  V30 245 O 23.8274 1.77768 0.161533 0
M  V30 246 C 20.9274 3.38257 0.208694 0
M  V30 247 C 20.1004 4.31504 -0.71577 0
M  V30 248 C 19.1594 5.262 0.00325597 0
M  V30 249 O 18.1854 5.65798 -0.621357 0
M  V30 250 N 19.3874 5.66303 1.27599 0
M  V30 251 H 22.1524 2.62957 -1.43784 0
M  V30 252 H 19.7134 1.34495 -0.901261 0
M  V30 253 H 21.7054 3.98616 0.699111 0
M  V30 254 H 20.2754 2.96472 0.991102 0
M  V30 255 H 19.4954 3.69016 -1.38638 0
M  V30 256 H 20.7834 4.9072 -1.34428 0
M  V30 257 H 20.1814 5.36155 1.80429 0
M  V30 258 H 18.7384 6.28942 1.71102 0
M  V30 259 N 22.1715 0.800033 1.35784 0
M  V30 260 C 23.1185 0.203848 2.29898 0
M  V30 261 C 24.0885 -0.658375 1.52495 0
M  V30 262 O 25.2735 -0.604832 1.8096 0
M  V30 263 C 22.4135 -0.64688 3.38983 0
M  V30 264 C 21.5265 0.235054 4.3136 0
M  V30 265 C 20.6615 -0.623054 5.27533 0
M  V30 266 C 19.7005 0.259682 6.11549 0
M  V30 267 N 18.8375 -0.558019 6.99879 0
M  V30 268 H 23.6775 1.01186 2.80295 0
M  V30 269 H 21.2145 0.51053 1.37957 0
M  V30 270 H 23.1725 -1.15521 4.00887 0
M  V30 271 H 21.8025 -1.42021 2.89879 0
M  V30 272 H 20.8545 0.861438 3.70518 0
M  V30 273 H 22.1665 0.914768 4.9034 0
M  V30 274 H 21.3205 -1.19678 5.94779 0
M  V30 275 H 20.0595 -1.33636 4.69034 0
M  V30 276 H 19.0645 0.845726 5.43256 0
M  V30 277 H 20.2895 0.970748 6.72126 0
M  V30 278 H 18.2355 -1.25542 6.43875 0
M  V30 279 H 18.1525 0.0637872 7.55973 0
M  V30 280 H 19.4205 -1.11523 7.71481 0
M  V30 281 N 23.6496 -1.47581 0.552962 0
M  V30 282 C 24.5796 -2.32762 -0.185451 0
M  V30 283 C 25.5606 -1.43527 -0.912905 0
M  V30 284 O 26.7456 -1.72388 -0.894201 0
M  V30 285 C 23.8756 -3.25219 -1.21859 0
M  V30 286 C 22.8296 -4.23661 -0.607864 0
M  V30 287 C 22.1556 -5.05413 -1.74533 0
M  V30 288 C 23.4556 -5.20481 0.435582 0
M  V30 289 H 25.1496 -2.94749 0.525684 0
M  V30 290 H 22.6956 -1.41738 0.254251 0
M  V30 291 H 24.6486 -3.8365 -1.7433 0
M  V30 292 H 23.3726 -2.61279 -1.95961 0
M  V30 293 H 22.0316 -3.66451 -0.104489 0
M  V30 294 H 21.6796 -4.3788 -2.47529 0
M  V30 295 H 21.3796 -5.72059 -1.34249 0
M  V30 296 H 22.9036 -5.66701 -2.27338 0
M  V30 297 H 24.3176 -5.733 -0.00290157 0
M  V30 298 H 22.7146 -5.95305 0.757067 0
M  V30 299 H 23.7846 -4.66217 1.33303 0
M  V30 300 N 25.1277 -0.289203 -1.54924 0
M  V30 301 C 26.0757 0.607966 -2.24514 0
M  V30 302 C 27.0697 1.14655 -1.24702 0
M  V30 303 O 28.2757 1.09856 -1.4259 0
M  V30 304 H 24.6507 0.21464 -0.720718 0
M  V30 305 H 26.6217 -0.00164182 -2.984 0
M  V30 306 C 25.3707 1.77406 -2.99036 0
M  V30 307 H 24.6937 1.36884 -3.75637 0
M  V30 308 H 26.1337 2.37814 -3.51028 0
M  V30 309 C 24.5927 2.67107 -2.05318 0
M  V30 310 O 25.1227 3.6787 -1.61353 0
M  V30 311 N 23.3287 2.34582 -1.71521 0
M  V30 312 H 22.8757 1.52688 -2.07471 0
M  V30 313 H 22.8337 2.94867 -1.0909 0
M  V30 314 N 26.6058 1.57591 -0.0167156 0
M  V30 315 C 27.8828 1.82547 0.702564 0
M  V30 316 C 28.2628 0.898018 1.91047 0
M  V30 317 O 27.6108 -0.0493456 2.28447 0
M  V30 318 C 27.8208 3.31459 1.09251 0
M  V30 319 C 29.1688 3.97622 1.48937 0
M  V30 320 O 30.1928 3.35881 1.18584 0
M  V30 321 O 29.0518 5.06415 2.05442 0
M  V30 322 H 26.1458 0.752268 0.343544 0
M  V30 323 H 28.6918 1.69644 -0.0434495 0
M  V30 324 H 27.4638 3.9061 0.23227 0
M  V30 325 H 27.0868 3.49422 1.89709 0
M  V30 326 N 28.0839 -0.256276 1.55502 0
M  V30 327 C 28.9939 -1.33882 1.92647 0
M  V30 328 C 30.0099 -1.53159 0.825727 0
M  V30 329 O 31.1859 -1.66963 1.12629 0
M  V30 330 C 28.2509 -2.6751 2.20543 0
M  V30 331 C 27.3119 -2.56836 3.43997 0
M  V30 332 C 26.5449 -3.84092 3.70553 0
M  V30 333 O 26.7679 -4.85545 2.99336 0
M  V30 334 O 25.7019 -3.83288 4.64084 0
M  V30 335 H 29.5279 -1.05374 2.84833 0
M  V30 336 H 27.1129 -0.456237 1.42263 0
M  V30 337 H 28.9949 -3.46492 2.39835 0
M  V30 338 H 27.6699 -2.9577 1.31536 0
M  V30 339 H 26.5769 -1.76172 3.30021 0
M  V30 340 H 27.9099 -2.33523 4.33275 0
M  V30 341 N 29.562 -1.4872 -0.521534 0
M  V30 342 C 30.79 -1.60843 -1.30142 0
M  V30 343 C 31.205 -0.271897 -1.86832 0
M  V30 344 O 30.562 0.739969 -1.66825 0
M  V30 345 C 30.613 -2.66155 -2.4463 0
M  V30 346 O 30.334 -3.94623 -1.90275 0
M  V30 347 C 31.835 -2.88795 -3.36322 0
M  V30 348 H 29.055 -0.542075 -0.395468 0
M  V30 349 H 31.599 -1.94609 -0.628285 0
M  V30 350 H 29.754 -2.35224 -3.07812 0
M  V30 351 H 30.168 -4.52468 -2.65279 0
M  V30 352 H 31.642 -3.66264 -4.12983 0
M  V30 353 H 32.119 -1.97934 -3.9207 0
M  V30 354 H 32.725 -3.21063 -2.78924 0
M  V30 355 N 31.0401 0.771051 -1.3745 0
M  V30 356 C 31.9881 1.90574 -1.33358 0
M  V30 357 C 32.9821 1.67936 -0.22224 0
M  V30 358 O 34.1881 1.75717 -0.390304 0
M  V30 359 H 30.5631 0.626714 -0.415612 0
M  V30 360 H 32.5341 1.91142 -2.29144 0
M  V30 361 C 31.2831 3.27845 -1.15813 0
M  V30 362 H 30.6061 3.45842 -2.00583 0
M  V30 363 H 32.0461 4.07538 -1.17 0
M  V30 364 C 30.5051 3.36625 0.136165 0
M  V30 365 O 31.0351 3.85785 1.11949 0
M  V30 366 N 29.2411 2.89997 0.187099 0
M  V30 367 H 28.7881 2.50182 -0.613753 0
M  V30 368 H 28.7461 2.96252 1.05272 0
M  V30 369 N 32.5182 1.22032 0.997298 0
M  V30 370 C 33.7662 1.04016 1.73278 0
M  V30 371 C 34.0872 -0.426255 1.90284 0
M  V30 372 O 33.3572 -1.30694 1.45931 0
M  V30 373 H 31.9372 0.381897 0.642 0
M  V30 374 H 34.5992 1.5347 1.20137 0
M  V30 375 H 33.6952 1.51441 2.72896 0
M  V30 376 N 33.9963 -1.19345 1.0293 0
M  V30 377 C 34.9263 -2.2481 0.631105 0
M  V30 378 C 35.9073 -1.66245 -0.360104 0
M  V30 379 O 37.0923 -1.92677 -0.242726 0
M  V30 380 C 34.2223 -3.47295 -0.0184607 0
M  V30 381 C 33.1763 -4.18536 0.895073 0
M  V30 382 C 32.5023 -5.34586 0.110592 0
M  V30 383 C 33.8023 -4.73287 2.209 0
M  V30 384 H 35.4963 -2.58372 1.51275 0
M  V30 385 H 33.0423 -1.24194 0.728818 0
M  V30 386 H 34.9953 -4.20268 -0.308675 0
M  V30 387 H 33.7193 -3.12933 -0.934907 0
M  V30 388 H 32.3783 -3.47446 1.16949 0
M  V30 389 H 32.0263 -4.96469 -0.807902 0
M  V30 390 H 31.7263 -5.83183 0.719087 0
M  V30 391 H 33.2503 -6.10355 -0.172871 0
M  V30 392 H 34.6643 -5.38013 1.98028 0
M  V30 393 H 33.0613 -5.32373 2.76946 0
M  V30 394 H 34.1313 -3.91331 2.86336 0
M  V30 395 N 35.4744 -0.807222 -1.35358 0
M  V30 396 C 36.4224 -0.20614 -2.31685 0
M  V30 397 C 37.4164 0.644445 -1.56663 0
M  V30 398 O 38.6224 0.537538 -1.71786 0
M  V30 399 H 34.9974 -0.0479006 -0.750473 0
M  V30 400 H 36.9684 -1.03369 -2.79924 0
M  V30 401 C 35.7174 0.630212 -3.41941 0
M  V30 402 H 35.0404 -0.0149558 -3.99797 0
M  V30 403 H 36.4804 1.01716 -4.11619 0
M  V30 404 C 34.9394 1.79601 -2.85035 0
M  V30 405 O 35.4694 2.89351 -2.78637 0
M  V30 406 N 33.6754 1.60774 -2.42074 0
M  V30 407 H 33.2224 0.715009 -2.47478 0
M  V30 408 H 33.1804 2.38933 -2.04349 0
M  V30 409 N 36.9525 1.47285 -0.560781 0
M  V30 410 C 38.1985 2.03347 -0.0463654 0
M  V30 411 C 38.5535 1.42702 1.2905 0
M  V30 412 O 37.8465 0.574619 1.8278 0
M  V30 413 C 38.0405 3.57258 0.100784 0
M  V30 414 C 37.8695 4.32827 -1.22027 0
M  V30 415 C 36.6395 4.72588 -1.78854 0
M  V30 416 C 38.8375 4.67739 -2.13834 0
M  V30 417 N 36.8195 5.32816 -3.04927 0
M  V30 418 C 38.1905 5.28307 -3.24487 0
M  V30 419 C 40.2455 4.49667 -2.13784 0
M  V30 420 C 38.9485 5.72711 -4.35194 0
M  V30 421 C 40.9745 4.95073 -3.23506 0
M  V30 422 C 40.3365 5.55693 -4.32879 0
M  V30 423 H 36.4355 0.779755 -0.0592166 0
M  V30 424 H 39.0195 1.79723 -0.748857 0
M  V30 425 H 37.1905 3.80642 0.772404 0
M  V30 426 H 38.9225 3.9996 0.617589 0
M  V30 427 H 35.6775 4.54656 -1.32609 0
M  V30 428 H 36.1015 5.67471 -3.69197 0
M  V30 429 H 40.7435 4.02154 -1.30507 0
M  V30 430 H 38.4615 6.19214 -5.1923 0
M  V30 431 H 42.0475 4.82859 -3.24559 0
M  V30 432 H 40.9275 5.90188 -5.1638 0
M  V30 433 N 38.4306 0.297415 1.54768 0
M  V30 434 C 39.3406 -0.58983 2.27064 0
M  V30 435 C 40.3566 -1.15144 1.30453 0
M  V30 436 O 41.5326 -1.17699 1.63428 0
M  V30 437 C 38.5976 -1.74714 2.9946 0
M  V30 438 C 37.6586 -1.21997 4.11601 0
M  V30 439 C 36.8916 -2.32212 4.80535 0
M  V30 440 O 37.1146 -3.52036 4.48806 0
M  V30 441 O 36.0486 -1.99106 5.68014 0
M  V30 442 H 39.8746 -0.00348199 3.037 0
M  V30 443 H 37.4596 0.0640035 1.49263 0
M  V30 444 H 39.3416 -2.42147 3.44881 0
M  V30 445 H 38.0166 -2.32016 2.25722 0
M  V30 446 H 36.9236 -0.511458 3.70587 0
M  V30 447 H 38.2566 -0.692419 4.87305 0
M  V30 448 N 39.9087 -1.5758 0.0250728 0
M  V30 449 C 40.8567 -2.11125 -0.97617 0
M  V30 450 C 41.8507 -1.03689 -1.33959 0
M  V30 451 O 43.0567 -1.22128 -1.3223 0
M  V30 452 H 39.4317 -0.674468 -0.332561 0
M  V30 453 H 41.4027 -2.94194 -0.499223 0
M  V30 454 C 40.1517 -2.65017 -2.2508 0
M  V30 455 H 39.4747 -3.47333 -1.9799 0
M  V30 456 H 40.9147 -3.06133 -2.93357 0
M  V30 457 C 39.3737 -1.57574 -2.97779 0
M  V30 458 O 39.9037 -0.973203 -3.89733 0
M  V30 459 N 38.1097 -1.29716 -2.60043 0
M  V30 460 H 37.6567 -1.789 -1.85345 0
M  V30 461 H 37.6147 -0.58051 -3.08994 0
M  V30 462 N 41.3868 0.248026 -1.55636 0
M  V30 463 C 42.6348 0.974295 -1.77065 0
M  V30 464 C 42.9558 1.85897 -0.588849 0
M  V30 465 O 42.2258 1.91868 0.395407 0
M  V30 466 H 40.8058 0.362733 -0.653019 0
M  V30 467 H 43.4678 0.266244 -1.93073 0
M  V30 468 H 42.5638 1.59667 -2.68166 0
M  V30 469 N 42.8649 1.48995 0.513639 0
M  V30 470 C 44.0949 1.61297 1.291 0
M  V30 471 C 44.5029 0.278656 1.87137 0
M  V30 472 O 43.8459 -0.744325 1.67945 0
M  V30 473 C 43.9079 2.61326 2.46879 0
M  V30 474 C 43.5719 4.05993 2.09807 0
M  V30 475 C 44.5689 4.93183 1.64519 0
M  V30 476 C 42.2539 4.51642 2.19829 0
M  V30 477 C 44.2479 6.24056 1.2974 0
M  V30 478 C 41.9349 5.82532 1.84662 0
M  V30 479 C 42.9329 6.68562 1.3969 0
M  V30 480 O 42.6209 7.97014 1.04992 0
M  V30 481 H 42.3529 0.546236 0.39825 0
M  V30 482 H 44.9069 1.95673 0.62459 0
M  V30 483 H 43.1369 2.22104 3.16554 0
M  V30 484 H 44.8259 2.6329 3.08923 0
M  V30 485 H 45.5919 4.59147 1.56233 0
M  V30 486 H 41.4709 3.84855 2.53786 0
M  V30 487 H 45.0149 6.91161 0.945659 0
M  V30 488 H 40.9119 6.16099 1.92594 0
M  V30 489 H 41.6799 8.09913 1.18249 0
M  V30 490 N 44.343 -0.763751 1.37857 0
M  V30 491 C 45.571 -1.55293 1.36718 0
M  V30 492 C 45.986 -1.88745 -0.0455434 0
M  V30 493 O 45.343 -1.52039 -1.00947 0
M  V30 494 C 45.394 -2.85831 2.2132 0
M  V30 495 O 45.115 -2.5381 3.57089 0
M  V30 496 C 46.616 -3.80023 2.28249 0
M  V30 497 H 43.836 -0.480841 0.468009 0
M  V30 498 H 46.38 -0.946009 1.81303 0
M  V30 499 H 44.535 -3.42926 1.80223 0
M  V30 500 H 44.949 -3.37459 4.01524 0
M  V30 501 H 46.423 -4.68599 2.91752 0
M  V30 502 H 46.9 -4.1973 1.2932 0
M  V30 503 H 47.506 -3.28855 2.69693 0
M  V30 504 N 45.8211 -1.22559 -0.990812 0
M  V30 505 C 46.7681 -0.997519 -2.0813 0
M  V30 506 C 47.7381 0.0814702 -1.659 0
M  V30 507 O 48.9231 -0.0685424 -1.90677 0
M  V30 508 C 46.0631 -0.583615 -3.40129 0
M  V30 509 C 45.1761 -1.7336 -3.9569 0
M  V30 510 C 44.3111 -1.26748 -5.15857 0
M  V30 511 C 43.3501 -2.38888 -5.63559 0
M  V30 512 N 42.4871 -1.93308 -6.74964 0
M  V30 513 H 47.3271 -1.93099 -2.26973 0
M  V30 514 H 44.8641 -0.962114 -1.11273 0
M  V30 515 H 46.8221 -0.324801 -4.15934 0
M  V30 516 H 45.4521 0.312845 -3.2128 0
M  V30 517 H 44.5041 -2.10669 -3.16738 0
M  V30 518 H 45.8161 -2.57704 -4.27071 0
M  V30 519 H 44.9701 -0.966173 -5.98957 0
M  V30 520 H 43.7091 -0.394272 -4.86104 0
M  V30 521 H 42.7141 -2.69805 -4.79046 0
M  V30 522 H 43.9391 -3.26728 -5.95336 0
M  V30 523 H 41.8851 -1.08352 -6.4699 0
M  V30 524 H 41.8021 -2.71217 -7.05675 0
M  V30 525 H 43.0701 -1.66252 -7.61564 0
M  V30 526 N 47.2992 1.18797 -1.03562 0
M  V30 527 C 48.2092 2.25913 -0.632505 0
M  V30 528 C 49.2252 1.70668 0.338882 0
M  V30 529 O 50.4012 2.00453 0.195076 0
M  V30 530 C 47.4662 3.467 0.00350942 0
M  V30 531 C 46.5272 4.17098 -1.01624 0
M  V30 532 C 45.7602 5.32119 -0.410478 0
M  V30 533 O 45.9832 5.64976 0.784725 0
M  V30 534 O 44.9172 5.9107 -1.13667 0
M  V30 535 H 48.7432 2.62648 -1.52478 0
M  V30 536 H 46.3282 1.25781 -0.806195 0
M  V30 537 H 48.2102 4.19878 0.35781 0
M  V30 538 H 46.8852 3.11798 0.869686 0
M  V30 539 H 45.7922 3.4601 -1.42224 0
M  V30 540 H 47.1252 4.55987 -1.85301 0
M  V30 541 N 48.7773 0.814389 1.34928 0
M  V30 542 C 50.0253 0.397636 1.9815 0
M  V30 543 C 50.3463 -1.04069 1.64908 0
M  V30 544 O 49.6163 -1.72121 0.93548 0
M  V30 545 H 48.1963 0.144043 0.732981 0
M  V30 546 H 50.8583 1.04195 1.6471 0
M  V30 547 H 49.9543 0.509688 3.0791 0
M  V30 548 N 50.2554 -1.46986 0.568584 0
M  V30 549 C 51.2024 -2.30153 -0.172707 0
M  V30 550 C 52.1724 -1.39759 -0.897586 0
M  V30 551 O 53.3574 -1.68716 -0.891044 0
M  V30 552 C 50.4974 -3.23952 -1.1895 0
M  V30 553 C 49.6104 -4.29441 -0.469517 0
M  V30 554 C 48.7454 -5.1038 -1.47259 0
M  V30 555 C 47.7844 -6.07632 -0.738225 0
M  V30 556 N 46.9214 -6.8149 -1.68868 0
M  V30 557 H 51.7614 -2.93019 0.542596 0
M  V30 558 H 49.2984 -1.44422 0.279401 0
M  V30 559 H 51.2564 -3.76767 -1.79173 0
M  V30 560 H 49.8864 -2.62926 -1.87269 0
M  V30 561 H 48.9384 -3.79594 0.247467 0
M  V30 562 H 50.2504 -4.98689 0.105241 0
M  V30 563 H 49.4044 -5.67402 -2.14803 0
M  V30 564 H 48.1434 -4.4106 -2.08128 0
M  V30 565 H 47.1484 -5.49778 -0.0489293 0
M  V30 566 H 48.3734 -6.78966 -0.135129 0
M  V30 567 H 46.3194 -6.14891 -2.28573 0
M  V30 568 H 46.2364 -7.46948 -1.16636 0
M  V30 569 H 47.5044 -7.43078 -2.3549 0
M  V30 570 N 51.7335 -0.305618 -1.54608 0
M  V30 571 C 52.6635 0.561482 -2.26649 0
M  V30 572 C 53.6445 1.13415 -1.26772 0
M  V30 573 O 54.8295 1.16262 -1.55553 0
M  V30 574 C 51.9595 1.73122 -3.01075 0
M  V30 575 C 50.9135 1.2887 -4.08138 0
M  V30 576 C 50.2395 2.54396 -4.70305 0
M  V30 577 C 51.5395 0.416578 -5.20636 0
M  V30 578 H 53.2335 -0.0393902 -2.99374 0
M  V30 579 H 50.7795 -0.020385 -1.43986 0
M  V30 580 H 52.7325 2.34396 -3.50195 0
M  V30 581 H 51.4565 2.3584 -2.25936 0
M  V30 582 H 50.1155 0.698991 -3.59875 0
M  V30 583 H 49.7635 3.15439 -3.918 0
M  V30 584 H 49.4635 2.25486 -5.42614 0
M  V30 585 H 50.9875 3.16464 -5.2219 0
M  V30 586 H 52.4015 0.935116 -5.65622 0
M  V30 587 H 50.7985 0.221046 -5.99693 0
M  V30 588 H 51.8685 -0.557162 -4.81688 0
M  V30 589 N 53.2116 1.57565 -0.0334293 0
M  V30 590 C 54.4606 1.91155 0.643639 0
M  V30 591 C 54.7736 0.91192 1.73042 0
M  V30 592 O 55.9796 1.13923 2.46442 0
M  V30 593 C 54.4356 3.39443 1.1961 0
M  V30 594 C 54.0436 4.47774 0.142381 0
M  V30 595 C 55.7876 3.82094 1.84944 0
M  V30 596 C 53.6946 5.87162 0.706727 0
M  V30 597 H 52.6246 0.713368 0.244176 0
M  V30 598 H 55.2756 1.8323 -0.0994323 0
M  V30 599 H 53.6576 3.42313 1.99092 0
M  V30 600 H 54.8316 4.56469 -0.630296 0
M  V30 601 H 53.1466 4.14352 -0.412446 0
M  V30 602 H 55.7436 4.83591 2.2813 0
M  V30 603 H 56.0866 3.17386 2.69392 0
M  V30 604 H 56.6196 3.81665 1.12145 0
M  V30 605 H 53.3586 6.55424 -0.0997178 0
M  V30 606 H 52.8786 5.82064 1.44779 0
M  V30 607 H 54.5576 6.35866 1.19514 0
M  V30 608 N 54.6897 -0.239769 1.55765 0
M  V30 609 C 55.9147 -0.988373 1.82335 0
M  V30 610 C 56.3397 -1.77886 0.611421 0
M  V30 611 O 55.6977 -1.75889 -0.439639 0
M  V30 612 C 55.7457 -1.89627 3.06715 0
M  V30 613 O 54.8497 -2.98904 2.84131 0
M  V30 614 H 54.1907 -0.280858 0.601677 0
M  V30 615 H 56.7207 -0.258597 2.02959 0
M  V30 616 H 56.7307 -2.30957 3.36338 0
M  V30 617 H 55.4057 -1.31511 3.9456 0
M  V30 618 H 53.9827 -2.61651 2.65694 0
M  V30 619 N 56.1678 -1.49265 -0.50573 0
M  V30 620 C 57.4138 -1.59723 -1.25937 0
M  V30 621 C 57.7688 -0.278236 -1.90378 0
M  V30 622 O 57.0618 0.72113 -1.77511 0
M  V30 623 C 57.2558 -2.69008 -2.35308 0
M  V30 624 C 57.0848 -4.11405 -1.81592 0
M  V30 625 C 55.8548 -4.78252 -1.63105 0
M  V30 626 C 58.0528 -4.96792 -1.33048 0
M  V30 627 N 56.0348 -6.0498 -1.04269 0
M  V30 628 C 57.4058 -6.13962 -0.863168 0
M  V30 629 C 59.4608 -4.82828 -1.21577 0
M  V30 630 C 58.1638 -7.18705 -0.292489 0
M  V30 631 C 60.1898 -5.87716 -0.65907 0
M  V30 632 C 59.5518 -7.0411 -0.201954 0
M  V30 633 H 55.6508 -0.638864 -0.450973 0
M  V30 634 H 58.2348 -1.86251 -0.567326 0
M  V30 635 H 56.4058 -2.4426 -3.01979 0
M  V30 636 H 58.1378 -2.69013 -3.02348 0
M  V30 637 H 54.8928 -4.34974 -1.87336 0
M  V30 638 H 55.3168 -6.72631 -0.767919 0
M  V30 639 H 59.9588 -3.93159 -1.55518 0
M  V30 640 H 57.6768 -8.08078 0.0591987 0
M  V30 641 H 61.2628 -5.7897 -0.573156 0
M  V30 642 H 60.1428 -7.83885 0.222101 0
M  V30 643 N 57.6459 0.756429 -1.3826 0
M  V30 644 C 59.0619 1.0591 -1.19395 0
M  V30 645 C 59.2619 2.01459 -0.0406567 0
M  V30 646 O 58.3179 2.44909 0.614467 0
M  V30 647 C 59.6309 1.64191 -2.51916 0
M  V30 648 C 61.1789 1.76376 -2.58574 0
M  V30 649 C 61.6539 2.38069 -3.91264 0
M  V30 650 N 63.1449 2.45503 -3.92788 0
M  V30 651 C 63.8799 2.94126 -4.92217 0
M  V30 652 N 63.3759 3.42805 -6.02043 0
M  V30 653 N 65.1689 2.9314 -4.7961 0
M  V30 654 H 57.3199 0.122313 -2.12048 0
M  V30 655 H 59.5829 0.116892 -0.940766 0
M  V30 656 H 59.2889 1.01451 -3.3675 0
M  V30 657 H 59.1629 2.6329 -2.70108 0
M  V30 658 H 61.5499 2.38244 -1.74137 0
M  V30 659 H 61.6309 0.759894 -2.44252 0
M  V30 660 H 61.2749 1.76835 -4.76121 0
M  V30 661 H 61.2049 3.39091 -4.02895 0
M  V30 662 H 63.6959 2.1107 -3.13461 0
M  V30 663 H 64.0089 3.78354 -6.73846 0
M  V30 664 H 62.3539 3.4087 -6.05667 0
M  V30 665 H 65.5449 2.54419 -3.92923 0
M  V30 666 H 65.7179 3.30721 -5.5725 0
M  V30 667 N 59.124 1.23083 0.984299 0
M  V30 668 C 60.54 0.992637 1.24975 0
M  V30 669 C 60.74 -0.308618 1.99123 0
M  V30 670 O 59.796 -1.02905 2.30579 0
M  V30 671 C 61.109 2.19698 2.05312 0
M  V30 672 C 62.657 2.24147 2.18465 0
M  V30 673 C 63.132 3.44157 3.02192 0
M  V30 674 N 64.623 3.44372 3.09777 0
M  V30 675 C 65.358 4.33886 3.74874 0
M  V30 676 N 64.854 5.3363 4.41827 0
M  V30 677 N 66.647 4.21639 3.71721 0
M  V30 678 H 58.798 2.06731 0.487453 0
M  V30 679 H 61.061 0.906339 0.277944 0
M  V30 680 H 60.767 3.1411 1.58201 0
M  V30 681 H 60.641 2.20465 3.06064 0
M  V30 682 H 63.028 1.30277 2.64786 0
M  V30 683 H 63.109 2.27415 1.17115 0
M  V30 684 H 62.753 4.38332 2.56568 0
M  V30 685 H 62.683 3.3813 4.03702 0
M  V30 686 H 65.174 2.72201 2.62135 0
M  V30 687 H 65.487 5.98196 4.89266 0
M  V30 688 H 63.832 5.37534 4.40548 0
M  V30 689 H 67.023 3.42962 3.18582 0
M  V30 690 H 67.196 4.91604 4.22173 0
M  V30 691 N 60.6021 -1.18246 1.0419 0
M  V30 692 C 61.8421 -1.89948 0.754916 0
M  V30 693 C 62.2061 -1.78608 -0.70451 0
M  V30 694 O 63.4071 -2.4503 -1.10516 0
M  V30 695 C 61.6781 -3.36305 1.20969 0
M  V30 696 S 63.2371 -4.26088 1.04854 0
M  V30 697 H 60.0551 -0.655897 0.274446 0
M  V30 698 H 62.6571 -1.42873 1.33445 0
M  V30 699 H 61.3611 -3.42089 2.26722 0
M  V30 700 H 60.8921 -3.8842 0.624004 0
M  V30 701 H 62.9071 -4.96189 -0.0332896 0
M  V30 702 N 62.0802 -0.821533 -1.34494 0
M  V30 703 C 63.3292 -0.405355 -1.97585 0
M  V30 704 C 63.6422 1.03677 -1.65863 0
M  V30 705 O 64.8482 1.55679 -2.22433 0
M  V30 706 C 63.3042 -0.673861 -3.53535 0
M  V30 707 C 62.9122 -2.12951 -3.94152 0
M  V30 708 C 64.6562 -0.32378 -4.23263 0
M  V30 709 C 62.5632 -2.34298 -5.43009 0
M  V30 710 H 61.4932 -0.147836 -0.739365 0
M  V30 711 H 64.1442 -1.00769 -1.53355 0
M  V30 712 H 62.5262 -0.00137554 -3.96 0
M  V30 713 H 63.7002 -2.84104 -3.62797 0
M  V30 714 H 62.0152 -2.44089 -3.37356 0
M  V30 715 H 64.6122 -0.461126 -5.32708 0
M  V30 716 H 64.9552 0.731586 -4.09821 0
M  V30 717 H 65.4882 -0.950786 -3.8627 0
M  V30 718 H 62.2272 -3.38335 -5.61435 0
M  V30 719 H 61.7472 -1.67687 -5.75883 0
M  V30 720 H 63.4262 -2.16588 -6.09671 0
M  V30 721 N 63.5583 1.46682 -0.576371 0
M  V30 722 C 64.7883 2.06498 -0.0648694 0
M  V30 723 C 65.1963 1.42665 1.24271 0
M  V30 724 O 64.5393 0.523886 1.76071 0
M  V30 725 C 64.6013 3.5904 0.181816 0
M  V30 726 C 64.2653 4.45028 -1.0392 0
M  V30 727 C 65.2623 4.81959 -1.94966 0
M  V30 728 C 62.9473 4.86259 -1.25927 0
M  V30 729 C 64.9413 5.58942 -3.06371 0
M  V30 730 C 62.6283 5.63002 -2.37638 0
M  V30 731 C 63.6263 5.99257 -3.2769 0
M  V30 732 O 63.3143 6.7445 -4.37461 0
M  V30 733 H 63.0463 0.674028 -0.0515987 0
M  V30 734 H 65.6003 1.89393 -0.794951 0
M  V30 735 H 63.8303 3.74429 0.966436 0
M  V30 736 H 65.5193 4.00806 0.641047 0
M  V30 737 H 66.2853 4.50689 -1.79177 0
M  V30 738 H 62.1643 4.57494 -0.567448 0
M  V30 739 H 65.7083 5.87158 -3.76684 0
M  V30 740 H 61.6053 5.93686 -2.53392 0
M  V30 741 H 62.3733 6.92867 -4.35749 0
M  V30 742 N 65.0364 0.313813 1.54444 0
M  V30 743 C 65.9694 -0.598866 2.20202 0
M  V30 744 C 66.9474 -1.12318 1.17573 0
M  V30 745 O 68.1314 -1.18899 1.46271 0
M  V30 746 C 65.2584 -1.82071 2.85601 0
M  V30 747 C 64.3044 -1.42851 4.01865 0
M  V30 748 S 65.1374 -0.473512 5.33402 0
M  V30 749 C 66.2934 -1.70286 6.0229 0
M  V30 750 H 66.5264 -0.0402532 2.97273 0
M  V30 751 H 64.0594 0.0979165 1.54089 0
M  V30 752 H 66.0174 -2.52184 3.23904 0
M  V30 753 H 64.6784 -2.3505 2.08351 0
M  V30 754 H 63.8714 -2.33871 4.46453 0
M  V30 755 H 63.4734 -0.807198 3.65185 0
M  V30 756 H 65.7654 -2.64168 6.23876 0
M  V30 757 H 66.7084 -1.29932 6.96077 0
M  V30 758 H 67.1164 -1.88541 5.32083 0
M  V30 759 N 66.5145 -1.57545 0.0417849 0
M  V30 760 C 67.4245 -2.14451 -0.951213 0
M  V30 761 C 68.4405 -1.09992 -1.34825 0
M  V30 762 O 69.6165 -1.42114 -1.42708 0
M  V30 763 C 66.6815 -2.67063 -2.21084 0
M  V30 764 C 65.7425 -3.86284 -1.87304 0
M  V30 765 C 64.9755 -4.36378 -3.07261 0
M  V30 766 O 65.1985 -3.85587 -4.20332 0
M  V30 767 O 64.1325 -5.28077 -2.88822 0
M  V30 768 H 67.9585 -2.99601 -0.497287 0
M  V30 769 H 65.5435 -1.48317 -0.179567 0
M  V30 770 H 67.4255 -3.00914 -2.95006 0
M  V30 771 H 66.1005 -1.84989 -2.65633 0
M  V30 772 H 65.0075 -3.57338 -1.10727 0
M  V30 773 H 66.3405 -4.6956 -1.47562 0
M  V30 774 N 67.9926 0.231505 -1.5589 0
M  V30 775 C 69.2326 0.964533 -1.80211 0
M  V30 776 C 69.5966 1.81926 -0.613744 0
M  V30 777 O 70.7976 2.58526 -0.736045 0
M  V30 778 C 69.0686 1.78956 -3.09369 0
M  V30 779 S 70.6276 2.57959 -3.54969 0
M  V30 780 H 67.4456 0.324173 -0.632798 0
M  V30 781 H 70.0476 0.230985 -1.94131 0
M  V30 782 H 68.7516 1.15161 -3.93911 0
M  V30 783 H 68.2826 2.56559 -2.9823 0
M  V30 784 H 70.2976 3.81309 -3.17519 0
M  V30 785 N 69.4707 1.49531 0.497807 0
M  V30 786 C 70.4337 1.65916 1.58128 0
M  V30 787 C 71.4337 0.530825 1.51786 0
M  V30 788 O 72.6237 0.797342 1.54881 0
M  V30 789 C 69.7557 1.65951 2.9778 0
M  V30 790 H 70.9487 2.62556 1.44929 0
M  V30 791 H 68.5017 1.38611 0.722275 0
M  V30 792 H 69.2367 0.709065 3.16453 0
M  V30 793 H 69.0217 2.47897 3.03792 0
M  V30 794 H 70.5117 1.80673 3.76493 0
M  V30 795 N 70.9488 -0.749086 1.3866 0
M  V30 796 C 71.8588 -1.89358 1.38494 0
M  V30 797 C 72.8748 -1.71708 0.281476 0
M  V30 798 O 74.0508 -1.94554 0.520643 0
M  V30 799 C 71.1158 -3.24782 1.21316 0
M  V30 800 C 70.1768 -3.54926 2.41508 0
M  V30 801 C 69.4098 -4.83888 2.2514 0
M  V30 802 O 69.6328 -5.56592 1.24746 0
M  V30 803 O 68.5668 -5.13612 3.13826 0
M  V30 804 H 72.3928 -1.92452 2.34938 0
M  V30 805 H 69.9778 -0.894981 1.19626 0
M  V30 806 H 71.8598 -4.05739 1.13814 0
M  V30 807 H 70.5348 -3.2249 0.279592 0
M  V30 808 H 69.4418 -2.74112 2.54585 0
M  V30 809 H 70.7748 -3.61983 3.3351 0
M  V30 810 N 72.4269 -1.23603 -0.977757 0
M  V30 811 C 73.3569 -1.04401 -2.0886 0
M  V30 812 C 74.3379 0.0399052 -1.70053 0
M  V30 813 O 75.5229 -0.125246 -1.93796 0
M  V30 814 C 72.6529 -0.637269 -3.41403 0
M  V30 815 C 71.6069 -1.66883 -3.94124 0
M  V30 816 C 70.9329 -1.11745 -5.22893 0
M  V30 817 C 72.2329 -3.06247 -4.23096 0
M  V30 818 H 73.9269 -1.97316 -2.25182 0
M  V30 819 H 71.4729 -0.950096 -1.08209 0
M  V30 820 H 73.4259 -0.48998 -4.18542 0
M  V30 821 H 72.1499 0.327557 -3.24953 0
M  V30 822 H 70.8089 -1.80416 -3.19133 0
M  V30 823 H 70.4569 -0.143527 -5.02795 0
M  V30 824 H 70.1569 -1.80672 -5.59134 0
M  V30 825 H 71.6809 -0.982067 -6.02651 0
M  V30 826 H 73.0949 -2.96001 -4.90975 0
M  V30 827 H 71.4919 -3.72436 -4.70544 0
M  V30 828 H 72.5619 -3.55041 -3.30263 0
M  V30 829 N 73.905 1.17692 -1.04816 0
M  V30 830 C 75.154 1.87192 -0.751132 0
M  V30 831 C 75.467 1.8169 0.724441 0
M  V30 832 O 76.673 2.46625 1.13527 0
M  V30 833 C 75.129 3.35857 -1.29338 0
M  V30 834 C 74.737 3.4987 -2.79812 0
M  V30 835 C 76.481 4.10709 -1.07322 0
M  V30 836 C 74.388 4.92536 -3.27356 0
M  V30 837 H 73.318 0.701162 -0.277288 0
M  V30 838 H 75.969 1.32932 -1.26496 0
M  V30 839 H 74.351 3.89631 -0.707376 0
M  V30 840 H 75.525 3.06332 -3.44235 0
M  V30 841 H 73.84 2.88433 -3.00325 0
M  V30 842 H 76.437 5.15952 -1.4035 0
M  V30 843 H 76.78 4.16299 -0.0108001 0
M  V30 844 H 77.313 3.6313 -1.62423 0
M  V30 845 H 74.052 4.92119 -4.33012 0
M  V30 846 H 73.572 5.3676 -2.67673 0
M  V30 847 H 75.251 5.61288 -3.21815 0
M  V30 848 N 75.3831 0.828654 1.34056 0
M  V30 849 C 76.6601 0.341809 1.9259 0
M  V30 850 C 77.0401 -1.17158 1.75605 0
M  V30 851 O 76.3881 -1.98132 1.13824 0
M  V30 852 C 76.5981 0.777453 3.4023 0
M  V30 853 C 77.9461 0.779579 4.17382 0
M  V30 854 O 78.9701 0.7204 3.48839 0
M  V30 855 O 77.8291 0.857996 5.39723 0
M  V30 856 H 74.9231 0.0946085 0.821571 0
M  V30 857 H 77.4691 0.913827 1.42994 0
M  V30 858 H 76.2411 1.8196 3.46419 0
M  V30 859 H 75.8641 0.181444 3.97186 0
M  V30 860 N 76.8612 -1.46375 0.584142 0
M  V30 861 C 78.0862 -2.07268 0.0740405 0
M  V30 862 C 78.5112 -1.42979 -1.22223 0
M  V30 863 O 77.8692 -0.514092 -1.73859 0
M  V30 864 C 77.9172 -3.60518 -0.0767769 0
M  V30 865 O 77.0212 -3.96533 -1.13292 0
M  V30 866 H 76.3622 -0.660961 0.0634524 0
M  V30 867 H 78.8922 -1.87991 0.807492 0
M  V30 868 H 78.9022 -4.07021 -0.282489 0
M  V30 869 H 77.5772 -4.06702 0.86986 0
M  V30 870 H 76.1542 -3.61738 -0.905553 0
M  V30 871 N 78.3393 -0.321999 -1.54275 0
M  V30 872 C 79.5863 0.281044 -2.0054 0
M  V30 873 C 79.9143 1.52265 -1.21019 0
M  V30 874 O 79.1693 1.93687 -0.279982 0
M  V30 875 C 79.4683 0.661769 -3.5122 0
M  V30 876 C 79.1343 -0.480482 -4.48333 0
M  V30 877 C 77.7963 -0.794005 -4.74604 0
M  V30 878 C 80.1483 -1.24783 -5.06042 0
M  V30 879 C 77.4763 -1.87763 -5.55844 0
M  V30 880 C 79.8283 -2.32153 -5.88462 0
M  V30 881 C 78.4923 -2.64089 -6.13036 0
M  V30 882 H 77.7623 0.102841 -0.733829 0
M  V30 883 H 80.4093 -0.445453 -1.86247 0
M  V30 884 H 78.7143 1.46867 -3.63232 0
M  V30 885 H 80.4113 1.13989 -3.84457 0
M  V30 886 H 77.0013 -0.226039 -4.28004 0
M  V30 887 H 81.1853 -1.01887 -4.85729 0
M  V30 888 H 76.4413 -2.12954 -5.73115 0
M  V30 889 H 80.6153 -2.92057 -6.32199 0
M  V30 890 H 78.2423 -3.48185 -6.75775 0
M  V30 891 N 79.8174 1.5752 -0.0501392 0
M  V30 892 C 81.0454 1.96963 0.633492 0
M  V30 893 C 81.4604 0.927631 1.6444 0
M  V30 894 O 80.8174 -0.0882665 1.82286 0
M  V30 895 C 80.8684 3.36487 1.32132 0
M  V30 896 O 80.5894 4.36693 0.350894 0
M  V30 897 C 82.0904 3.90682 2.09481 0
M  V30 898 H 79.3104 0.648244 0.173266 0
M  V30 899 H 81.8544 2.0417 -0.116134 0
M  V30 900 H 80.0094 3.30434 2.02218 0
M  V30 901 H 80.4234 5.17702 0.841735 0
M  V30 902 H 81.8974 4.90591 2.5303 0
M  V30 903 H 82.3744 3.26053 2.94255 0
M  V30 904 H 82.9804 4.00069 1.44307 0
M  V30 905 N 81.2955 -0.223234 1.56011 0
M  V30 906 C 82.5415 -0.944891 1.8012 0
M  V30 907 C 82.8965 -1.82039 0.622862 0
M  V30 908 O 82.1895 -1.8773 -0.383143 0
M  V30 909 C 82.3835 -1.81948 3.0762 0
M  V30 910 C 82.2125 -1.03014 4.37742 0
M  V30 911 C 80.9825 -0.72574 5.00061 0
M  V30 912 C 83.1805 -0.396256 5.12771 0
M  V30 913 N 81.1625 0.0851816 6.13841 0
M  V30 914 C 82.5335 0.278137 6.19376 0
M  V30 915 C 84.5885 -0.309117 4.9694 0
M  V30 916 C 83.2915 1.03133 7.11868 0
M  V30 917 C 85.3175 0.430607 5.8983 0
M  V30 918 C 84.6795 1.09355 6.9586 0
M  V30 919 H 80.7785 -0.326081 0.710771 0
M  V30 920 H 83.3625 -0.215914 1.93499 0
M  V30 921 H 81.5335 -2.52029 2.95527 0
M  V30 922 H 83.2655 -2.47848 3.19927 0
M  V30 923 H 80.0205 -1.04335 4.61964 0
M  V30 924 H 80.4445 0.479428 6.753 0
M  V30 925 H 85.0865 -0.807313 4.15021 0
M  V30 926 H 82.8045 1.54105 7.9327 0
M  V30 927 H 86.3905 0.499012 5.79656 0
M  V30 928 H 85.2705 1.65679 7.66499 0
M  V30 929 N 82.7736 -1.49793 -0.48987 0
M  V30 930 C 83.7206 -1.67281 -1.59014 0
M  V30 931 C 84.6906 -0.514177 -1.57941 0
M  V30 932 O 85.8756 -0.742533 -1.75759 0
M  V30 933 C 83.0156 -1.75569 -2.97102 0
M  V30 934 C 82.1286 -3.0281 -3.08107 0
M  V30 935 C 81.2636 -3.02008 -4.36995 0
M  V30 936 C 80.3026 -4.23782 -4.41673 0
M  V30 937 N 79.4396 -4.20826 -5.62005 0
M  V30 938 H 84.2796 -2.61224 -1.43409 0
M  V30 939 H 81.8166 -1.29508 -0.697565 0
M  V30 940 H 83.7746 -1.78354 -3.77155 0
M  V30 941 H 82.4046 -0.850827 -3.11385 0
M  V30 942 H 81.4566 -3.09584 -2.21047 0
M  V30 943 H 82.7686 -3.92801 -3.07423 0
M  V30 944 H 81.9226 -3.03418 -5.25378 0
M  V30 945 H 80.6616 -2.09815 -4.4026 0
M  V30 946 H 79.6666 -4.22604 -3.5169 0
M  V30 947 H 80.8916 -5.17181 -4.40115 0
M  V30 948 H 78.8376 -3.31476 -5.66091 0
M  V30 949 H 78.7546 -5.04564 -5.62984 0
M  V30 950 H 80.0226 -4.26355 -6.52565 0
M  V30 951 N 84.2517 0.741722 -1.39055 0
M  V30 952 C 85.2017 1.84661 -1.33732 0
M  V30 953 C 86.1857 1.59397 -0.219401 0
M  V30 954 O 87.3777 1.71015 -0.456375 0
M  V30 955 C 84.5067 3.22512 -1.17647 0
M  V30 956 C 83.5927 3.53628 -2.34112 0
M  V30 957 N 83.9837 3.55723 -3.59576 0
M  V30 958 C 82.2817 3.83956 -2.26923 0
M  V30 959 C 82.9827 3.84443 -4.36553 0
M  V30 960 N 81.9587 4.01877 -3.66055 0
M  V30 961 H 85.7607 1.84576 -2.28711 0
M  V30 962 H 83.2747 0.939647 -1.32455 0
M  V30 963 H 85.2717 4.01597 -1.11917 0
M  V30 964 H 83.9317 3.2384 -0.236124 0
M  V30 965 H 84.9427 3.37196 -3.93089 0
M  V30 966 H 81.6197 3.92929 -1.41113 0
M  V30 967 H 83.0097 3.92588 -5.45274 0
M  V30 968 N 85.7298 1.2412 0.971189 0
M  V30 969 C 86.9758 1.09048 1.71698 0
M  V30 970 C 87.3308 -0.367442 1.88859 0
M  V30 971 O 86.6238 -1.26792 1.43646 0
M  V30 972 C 86.8178 1.75983 3.11071 0
M  V30 973 C 86.6468 3.28133 3.07504 0
M  V30 974 C 85.4168 3.97331 3.1218 0
M  V30 975 C 87.6148 4.24773 2.89952 0
M  V30 976 N 85.5968 5.3639 2.98596 0
M  V30 977 C 86.9678 5.50806 2.84627 0
M  V30 978 C 89.0228 4.15392 2.74506 0
M  V30 979 C 87.7258 6.68533 2.65437 0
M  V30 980 C 89.7518 5.32793 2.56682 0
M  V30 981 C 89.1138 6.57756 2.52063 0
M  V30 982 H 85.2128 0.453632 0.636979 0
M  V30 983 H 87.7968 1.56983 1.15171 0
M  V30 984 H 85.9678 1.30566 3.65796 0
M  V30 985 H 87.6998 1.53803 3.74335 0
M  V30 986 H 84.4548 3.48473 3.20724 0
M  V30 987 H 84.8788 6.09321 2.95054 0
M  V30 988 H 89.5208 3.19543 2.76861 0
M  V30 989 H 87.2388 7.64509 2.61825 0
M  V30 990 H 90.8248 5.27383 2.4568 0
M  V30 991 H 89.7048 7.4707 2.38446 0
M  V30 992 N 87.2079 -1.17134 1.05439 0
M  V30 993 C 88.1549 -2.21235 0.657539 0
M  V30 994 C 89.1249 -1.62551 -0.341543 0
M  V30 995 O 90.3099 -1.89379 -0.232393 0
M  V30 996 C 87.4499 -3.45076 0.0410575 0
M  V30 997 C 86.5629 -4.18042 1.08927 0
M  V30 998 C 85.6979 -5.29376 0.439848 0
M  V30 999 C 84.7369 -5.94132 1.4722 0
M  V30 1000 N 83.8739 -6.96975 0.846756 0
M  V30 1001 H 88.7139 -2.54534 1.54972 0
M  V30 1002 H 86.2509 -1.25028 0.775006 0
M  V30 1003 H 88.2089 -4.15862 -0.33383 0
M  V30 1004 H 86.8389 -3.12353 -0.814568 0
M  V30 1005 H 85.8909 -3.45945 1.58196 0
M  V30 1006 H 87.2029 -4.62306 1.87282 0
M  V30 1007 H 86.3569 -6.06699 0.0115125 0
M  V30 1008 H 85.0959 -4.86251 -0.375656 0
M  V30 1009 H 84.1009 -5.15538 1.91052 0
M  V30 1010 H 85.3259 -6.39337 2.28965 0
M  V30 1011 H 83.2719 -6.5598 0.0518075 0
M  V30 1012 H 83.1889 -7.39565 1.5678 0
M  V30 1013 H 84.4569 -7.78239 0.443277 0
M  V30 1014 N 88.686 -0.835752 -1.33615 0
M  V30 1015 C 89.634 -0.255238 -2.31195 0
M  V30 1016 C 90.628 0.61107 -1.57995 0
M  V30 1017 O 91.834 0.500979 -1.72888 0
M  V30 1018 H 88.209 -0.0638085 -0.749288 0
M  V30 1019 H 90.18 -1.09283 -2.77669 0
M  V30 1020 C 88.929 0.55754 -3.43201 0
M  V30 1021 H 88.252 -0.0997553 -3.99676 0
M  V30 1022 H 89.692 0.929622 -4.13683 0
M  V30 1023 C 88.151 1.73515 -2.88781 0
M  V30 1024 O 88.681 2.83376 -2.84712 0
M  V30 1025 N 86.887 1.55603 -2.4543 0
M  V30 1026 H 86.434 0.662354 -2.48939 0
M  V30 1027 H 86.392 2.34545 -2.09371 0
M  V30 1028 N 90.1641 1.46063 -0.591896 0
M  V30 1029 C 91.4131 2.01547 -0.0786637 0
M  V30 1030 C 91.7261 1.46796 1.29268 0
M  V30 1031 O 92.9321 1.94157 1.89777 0
M  V30 1032 C 91.3881 3.59787 -0.0900024 0
M  V30 1033 C 90.9961 4.23534 -1.46023 0
M  V30 1034 C 92.7401 4.22895 0.368806 0
M  V30 1035 C 90.6471 5.73881 -1.4288 0
M  V30 1036 H 89.5771 0.753564 -0.0256388 0
M  V30 1037 H 92.2281 1.677 -0.744905 0
M  V30 1038 H 90.6101 3.90752 0.642586 0
M  V30 1039 H 91.7841 4.04167 -2.21328 0
M  V30 1040 H 90.0991 3.72558 -1.85982 0
M  V30 1041 H 92.6961 5.33116 0.411258 0
M  V30 1042 H 93.0391 3.9247 1.38827 0
M  V30 1043 H 93.5721 3.9659 -0.31001 0
M  V30 1044 H 90.3111 6.0898 -2.42536 0
M  V30 1045 H 89.8311 5.95486 -0.718095 0
M  V30 1046 H 91.5101 6.36776 -1.14565 0
M  V30 1047 N 91.6422 0.330177 1.54103 0
M  V30 1048 C 92.8672 -0.274893 2.0557 0
M  V30 1049 C 93.2922 -1.44487 1.20437 0
M  V30 1050 O 92.6502 -1.80021 0.214991 0
M  V30 1051 C 92.6982 -0.68079 3.54115 0
M  V30 1052 O 91.8022 -1.7824 3.71893 0
M  V30 1053 H 91.1432 -0.0483849 0.662235 0
M  V30 1054 H 93.6732 0.480508 1.98878 0
M  V30 1055 H 93.6832 -0.961635 3.96505 0
M  V30 1056 H 92.3582 0.174903 4.15532 0
M  V30 1057 H 90.9352 -1.49985 3.41407 0
M  V30 1058 N 93.1203 -1.57491 0.0584922 0
M  V30 1059 C 94.3453 -1.97711 -0.62652 0
M  V30 1060 C 94.7703 -0.936132 -1.63151 0
M  V30 1061 O 94.1283 0.099811 -1.81025 0
M  V30 1062 C 94.1763 -3.36989 -1.28338 0
M  V30 1063 O 93.2803 -3.35433 -2.39913 0
M  V30 1064 H 92.6213 -0.643868 -0.162266 0
M  V30 1065 H 95.1513 -2.04193 0.129064 0
M  V30 1066 H 95.1613 -3.73879 -1.63335 0
M  V30 1067 H 93.8363 -4.12289 -0.546889 0
M  V30 1068 H 92.4133 -3.10298 -2.06809 0
M  V30 1069 N 94.5984 0.214957 -1.56127 0
M  V30 1070 C 95.5284 1.2695 -1.95974 0
M  V30 1071 C 96.5094 1.48539 -0.828868 0
M  V30 1072 O 97.6944 1.60611 -1.09168 0
M  V30 1073 C 94.8244 2.61794 -2.28214 0
M  V30 1074 C 93.7784 2.54851 -3.43853 0
M  V30 1075 C 93.1044 3.93785 -3.61715 0
M  V30 1076 C 94.4044 2.09065 -4.78632 0
M  V30 1077 H 96.0984 0.93846 -2.84312 0
M  V30 1078 H 93.6444 0.449996 -1.36788 0
M  V30 1079 H 95.5974 3.35731 -2.54682 0
M  V30 1080 H 94.3214 2.96599 -1.36736 0
M  V30 1081 H 92.9804 1.8337 -3.17444 0
M  V30 1082 H 92.6284 4.25908 -2.67602 0
M  V30 1083 H 92.3284 3.90019 -4.39498 0
M  V30 1084 H 93.8524 4.69374 -3.90539 0
M  V30 1085 H 95.2664 2.7275 -5.04262 0
M  V30 1086 H 93.6634 2.16346 -5.59745 0
M  V30 1087 H 94.7334 1.04315 -4.73547 0
M  V30 1088 N 96.0765 1.50051 0.48192 0
M  V30 1089 C 97.3045 1.64237 1.25832 0
M  V30 1090 C 97.7195 0.321336 1.86045 0
M  V30 1091 O 97.0765 -0.695478 1.68729 0
M  V30 1092 C 97.1275 2.72548 2.37487 0
M  V30 1093 O 96.8485 3.99529 1.79745 0
M  V30 1094 C 98.3495 2.9761 3.28547 0
M  V30 1095 H 95.5695 0.55237 0.380957 0
M  V30 1096 H 98.1135 1.96207 0.576467 0
M  V30 1097 H 96.2685 2.43303 3.01467 0
M  V30 1098 H 96.6825 4.59342 2.5319 0
M  V30 1099 H 98.1565 3.77084 4.03127 0
M  V30 1100 H 98.6335 2.0826 3.86684 0
M  V30 1101 H 99.2395 3.28345 2.70314 0
M  V30 1102 N 97.5546 -0.734337 1.39446 0
M  V30 1103 C 98.5026 -1.86971 1.38364 0
M  V30 1104 C 99.4966 -1.67288 0.266687 0
M  V30 1105 O 100.703 -1.74621 0.436755 0
M  V30 1106 H 97.0776 -0.615474 0.432082 0
M  V30 1107 H 99.0486 -1.85 2.34132 0
M  V30 1108 C 97.7976 -3.2466 1.24465 0
M  V30 1109 H 97.1206 -3.40402 2.09682 0
M  V30 1110 H 98.5606 -4.04292 1.27764 0
M  V30 1111 C 97.0196 -3.36867 -0.0468674 0
M  V30 1112 O 97.5496 -3.88618 -1.01681 0
M  V30 1113 N 95.7556 -2.90391 -0.110145 0
M  V30 1114 H 95.3026 -2.48466 0.679868 0
M  V30 1115 H 95.2606 -2.98939 -0.973799 0
M  V30 1116 N 99.0327 -1.24633 -0.964593 0
M  V30 1117 C 100.279 -1.09957 -1.71117 0
M  V30 1118 C 100.634 0.357422 -1.89051 0
M  V30 1119 O 99.9267 1.26029 -1.44317 0
M  V30 1120 C 100.121 -1.7763 -3.10133 0
M  V30 1121 C 99.9497 -3.29759 -3.05759 0
M  V30 1122 C 98.7197 -3.98981 -3.10068 0
M  V30 1123 C 100.918 -4.26305 -2.87695 0
M  V30 1124 N 98.8997 -5.37966 -2.95747 0
M  V30 1125 C 100.271 -5.52308 -2.81702 0
M  V30 1126 C 102.326 -4.16842 -2.72299 0
M  V30 1127 C 101.029 -6.69931 -2.61887 0
M  V30 1128 C 103.055 -5.34147 -2.53853 0
M  V30 1129 C 102.417 -6.59084 -2.48572 0
M  V30 1130 H 98.5157 -0.457003 -0.634564 0
M  V30 1131 H 101.1 -1.57592 -1.14337 0
M  V30 1132 H 99.2707 -1.32504 -3.65099 0
M  V30 1133 H 101.003 -1.55786 -3.73514 0
M  V30 1134 H 97.7577 -3.50169 -3.18871 0
M  V30 1135 H 98.1817 -6.10877 -2.91818 0
M  V30 1136 H 102.824 -3.21007 -2.75163 0
M  V30 1137 H 100.542 -7.65886 -2.57767 0
M  V30 1138 H 104.128 -5.28678 -2.4288 0
M  V30 1139 H 103.008 -7.48324 -2.34481 0
M  V30 1140 N 100.511 1.16574 -1.06058 0
M  V30 1141 C 101.421 2.2452 -0.680282 0
M  V30 1142 C 102.437 1.71348 0.302604 0
M  V30 1143 O 103.613 2.00822 0.152513 0
M  V30 1144 C 100.678 3.46629 -0.0700315 0
M  V30 1145 C 99.7388 4.14849 -1.10448 0
M  V30 1146 C 98.9718 5.31129 -0.523256 0
M  V30 1147 O 99.1948 5.66514 0.664709 0
M  V30 1148 O 98.1288 5.88526 -1.26179 0
M  V30 1149 H 101.955 2.59355 -1.58015 0
M  V30 1150 H 99.5398 1.24043 -0.832694 0
M  V30 1151 H 101.422 4.20543 0.268667 0
M  V30 1152 H 100.097 3.13573 0.803353 0
M  V30 1153 H 99.0038 3.42916 -1.49532 0
M  V30 1154 H 100.337 4.51954 -1.94931 0
M  V30 1155 N 101.989 0.842826 1.3317 0
M  V30 1156 C 102.937 0.267495 2.31057 0
M  V30 1157 C 103.931 -0.602682 1.58316 0
M  V30 1158 O 105.137 -0.491803 1.73151 0
M  V30 1159 H 101.512 0.0677813 0.748939 0
M  V30 1160 H 103.483 1.10754 2.77085 0
M  V30 1161 C 102.232 -0.539331 3.43492 0
M  V30 1162 H 101.555 0.12095 3.99617 0
M  V30 1163 H 102.995 -0.90767 4.14171 0
M  V30 1164 C 101.454 -1.71981 2.89697 0
M  V30 1165 O 101.984 -2.81862 2.86211 0
M  V30 1166 N 100.19 -1.54299 2.46252 0
M  V30 1167 H 99.7369 -0.649143 2.49287 0
M  V30 1168 H 99.6949 -2.33431 2.10612 0
M  V30 1169 N 103.467 -1.45747 0.599634 0
M  V30 1170 C 104.713 -2.02592 0.0918643 0
M  V30 1171 C 105.046 -1.46806 -1.27128 0
M  V30 1172 O 104.321 -0.639658 -1.83681 0
M  V30 1173 C 104.604 -3.60073 0.0443398 0
M  V30 1174 C 104.457 -4.26208 1.43759 0
M  V30 1175 C 105.776 -4.35309 -0.647608 0
M  V30 1176 H 102.895 -0.736175 0.034857 0
M  V30 1177 H 105.537 -1.73694 0.770081 0
M  V30 1178 H 103.687 -3.84823 -0.533224 0
M  V30 1179 H 105.359 -4.12668 2.06162 0
M  V30 1180 H 103.602 -3.84916 2.00056 0
M  V30 1181 H 104.273 -5.35069 1.35665 0
M  V30 1182 H 106.749 -4.15805 -0.156776 0
M  V30 1183 H 105.625 -5.45038 -0.649942 0
M  V30 1184 H 105.886 -4.07598 -1.71219 0
M  V30 1185 N 104.945 -0.338344 -1.53925 0
M  V30 1186 C 106.361 0.0137736 -1.59594 0
M  V30 1187 C 106.561 1.49186 -1.35447 0
M  V30 1188 O 105.617 2.24987 -1.14616 0
M  V30 1189 C 106.93 -0.41773 -2.97784 0
M  V30 1190 C 108.478 -0.369633 -3.1081 0
M  V30 1191 C 108.953 -0.776524 -4.51369 0
M  V30 1192 N 110.444 -0.730506 -4.57403 0
M  V30 1193 C 111.179 -1.01736 -5.64303 0
M  V30 1194 N 110.675 -1.3721 -6.79077 0
M  V30 1195 N 112.468 -0.941942 -5.54151 0
M  V30 1196 H 104.619 -1.3012 -1.67876 0
M  V30 1197 H 106.882 -0.530082 -0.78595 0
M  V30 1198 H 106.588 -1.44811 -3.20504 0
M  V30 1199 H 106.462 0.209729 -3.76616 0
M  V30 1200 H 108.849 0.651568 -2.87817 0
M  V30 1201 H 108.93 -1.03223 -2.34049 0
M  V30 1202 H 108.574 -1.79571 -4.75096 0
M  V30 1203 H 108.504 -0.0914649 -5.26521 0
M  V30 1204 H 110.995 -0.468783 -3.74981 0
M  V30 1205 H 111.308 -1.57597 -7.5656 0
M  V30 1206 H 109.653 -1.4105 -6.80536 0
M  V30 1207 H 112.844 -0.664184 -4.63364 0
M  V30 1208 H 113.017 -1.16884 -6.37371 0
M  V30 1209 N 106.423 1.57458 -0.0668435 0
M  V30 1210 C 107.672 1.92477 0.602947 0
M  V30 1211 C 107.985 0.948419 1.71068 0
M  V30 1212 O 109.191 1.19124 2.43971 0
M  V30 1213 C 107.647 3.41903 1.12383 0
M  V30 1214 C 107.255 4.47975 0.04737 0
M  V30 1215 C 108.999 3.85931 1.76797 0
M  V30 1216 C 106.906 5.88529 0.582022 0
M  V30 1217 H 105.836 0.718387 0.22899 0
M  V30 1218 H 108.487 1.82978 -0.138276 0
M  V30 1219 H 106.869 3.46459 1.91787 0
M  V30 1220 H 108.043 4.55029 -0.726978 0
M  V30 1221 H 106.358 4.13384 -0.500243 0
M  V30 1222 H 108.955 4.88322 2.17821 0
M  V30 1223 H 109.298 3.23029 2.62599 0
M  V30 1224 H 109.831 3.83958 1.04024 0
M  V30 1225 H 106.57 6.55065 -0.238721 0
M  V30 1226 H 106.09 5.85004 1.324 0
M  V30 1227 H 107.769 6.38258 1.05999 0
M  V30 1228 N 107.901 -0.206675 1.56239 0
M  V30 1229 C 108.811 -1.27686 1.96808 0
M  V30 1230 C 109.827 -1.50455 0.874035 0
M  V30 1231 O 111.003 -1.63295 1.17884 0
M  V30 1232 C 108.068 -2.60358 2.28942 0
M  V30 1233 C 107.129 -2.45762 3.51994 0
M  V30 1234 C 106.362 -3.72108 3.82585 0
M  V30 1235 O 106.585 -4.75776 3.14631 0
M  V30 1236 O 105.519 -3.6833 4.76043 0
M  V30 1237 H 109.345 -0.962593 2.88041 0
M  V30 1238 H 106.93 -0.410746 1.43643 0
M  V30 1239 H 108.812 -3.38687 2.50737 0
M  V30 1240 H 107.487 -2.91435 1.4088 0
M  V30 1241 H 106.394 -1.65584 3.35459 0
M  V30 1242 H 107.727 -2.19621 4.40486 0
M  V30 1243 N 109.379 -1.50304 -0.473955 0
M  V30 1244 C 110.628 -1.60392 -1.22301 0
M  V30 1245 C 110.941 -0.308411 -1.93153 0
M  V30 1246 O 112.147 -0.288156 -2.69966 0
M  V30 1247 C 110.603 -2.83109 -2.2221 0
M  V30 1248 C 110.211 -4.19524 -1.57173 0
M  V30 1249 C 111.955 -3.0254 -2.97775 0
M  V30 1250 C 109.862 -5.33431 -2.55353 0
M  V30 1251 H 108.792 -0.597286 -0.460179 0
M  V30 1252 H 111.443 -1.76731 -0.493803 0
M  V30 1253 H 109.825 -2.60322 -2.9841 0
M  V30 1254 H 110.999 -4.52554 -0.867824 0
M  V30 1255 H 109.314 -4.05674 -0.939002 0
M  V30 1256 H 111.911 -3.84811 -3.71248 0
M  V30 1257 H 112.254 -2.14154 -3.56992 0
M  V30 1258 H 112.787 -3.25494 -2.28688 0
M  V30 1259 H 109.526 -6.23962 -2.00878 0
M  V30 1260 H 109.046 -5.04823 -3.23904 0
M  V30 1261 H 110.725 -5.63887 -3.17239 0
M  V30 1262 N 110.857 0.726932 -1.39834 0
M  V30 1263 C 112.103 1.48884 -1.377 0
M  V30 1264 C 112.436 1.94185 0.0244852 0
M  V30 1265 O 111.711 1.67361 0.990986 0
M  V30 1266 C 111.994 2.72288 -2.3565 0
M  V30 1267 C 111.847 2.32956 -3.84775 0
M  V30 1268 C 113.166 3.74414 -2.31306 0
M  V30 1269 H 110.285 0.540062 -0.5015 0
M  V30 1270 H 112.927 0.830547 -1.70886 0
M  V30 1271 H 111.077 3.28457 -2.07481 0
M  V30 1272 H 112.749 1.82356 -4.23726 0
M  V30 1273 H 110.992 1.65088 -4.01159 0
M  V30 1274 H 111.663 3.21362 -4.4881 0
M  V30 1275 H 114.139 3.27849 -2.56231 0
M  V30 1276 H 113.015 4.58414 -3.01907 0
M  V30 1277 H 113.276 4.21909 -1.32081 0
M  V30 1278 N 112.336 1.25143 0.95797 0
M  V30 1279 C 113.613 1.00472 1.67823 0
M  V30 1280 C 113.993 -0.470056 2.058 0
M  V30 1281 O 113.341 -1.44663 1.76875 0
M  V30 1282 C 113.551 1.9372 2.90299 0
M  V30 1283 C 114.899 2.21371 3.62326 0
M  V30 1284 O 115.923 1.91451 3.00375 0
M  V30 1285 O 114.782 2.72231 4.7387 0
M  V30 1286 H 111.876 0.380752 0.734137 0
M  V30 1287 H 114.422 1.36283 1.01119 0
M  V30 1288 H 113.194 2.93316 2.59001 0
M  V30 1289 H 112.817 1.58286 3.64735 0
M  V30 1290 N 113.814 -1.1601 1.06675 0
M  V30 1291 C 115.063 -1.85973 0.780818 0
M  V30 1292 C 115.376 -1.82819 -0.695444 0
M  V30 1293 O 116.582 -2.484 -1.09589 0
M  V30 1294 C 115.038 -3.33757 1.34665 0
M  V30 1295 C 114.646 -3.45374 2.85343 0
M  V30 1296 C 116.39 -4.0895 1.13843 0
M  V30 1297 C 114.297 -4.87266 3.35151 0
M  V30 1298 H 113.227 -0.696661 0.288407 0
M  V30 1299 H 115.878 -1.30903 1.28595 0
M  V30 1300 H 114.26 -3.88456 0.769274 0
M  V30 1301 H 115.434 -3.00816 3.49065 0
M  V30 1302 H 113.749 -2.83619 3.04876 0
M  V30 1303 H 116.346 -5.13654 1.4854 0
M  V30 1304 H 116.689 -4.16229 0.0770282 0
M  V30 1305 H 117.222 -3.605 1.68179 0
M  V30 1306 H 113.961 -4.85168 4.40786 0
M  V30 1307 H 113.481 -5.32433 2.76179 0
M  V30 1308 H 115.16 -5.56097 3.30704 0
M  V30 1309 N 115.292 -0.849877 -1.32721 0
M  V30 1310 C 116.538 -0.460855 -1.9811 0
M  V30 1311 C 116.893 0.971716 -1.66059 0
M  V30 1312 O 116.186 1.67184 -0.935944 0
M  V30 1313 C 116.38 -0.631272 -3.51781 0
M  V30 1314 C 116.209 -2.07886 -3.98765 0
M  V30 1315 C 114.979 -2.71637 -4.26077 0
M  V30 1316 C 117.177 -3.04889 -4.14182 0
M  V30 1317 N 115.159 -4.07356 -4.59276 0
M  V30 1318 C 116.53 -4.25583 -4.50865 0
M  V30 1319 C 118.585 -3.01148 -3.96503 0
M  V30 1320 C 117.288 -5.43027 -4.71714 0
M  V30 1321 C 119.314 -4.17832 -4.18533 0
M  V30 1322 C 118.676 -5.37284 -4.55528 0
M  V30 1323 H 114.775 -0.217283 -0.751207 0
M  V30 1324 H 117.359 -1.10026 -1.60631 0
M  V30 1325 H 115.53 -0.0215966 -3.88394 0
M  V30 1326 H 117.262 -0.212614 -4.04141 0
M  V30 1327 H 114.017 -2.22705 -4.17971 0
M  V30 1328 H 114.441 -4.77351 -4.80068 0
M  V30 1329 H 119.083 -2.0992 -3.67006 0
M  V30 1330 H 116.801 -6.34791 -5.00066 0
M  V30 1331 H 120.387 -4.16368 -4.06361 0
M  V30 1332 H 119.267 -6.26071 -4.72234 0
M  V30 1333 N 116.77 1.45427 -0.607355 0
M  V30 1334 C 117.72 2.27612 0.133038 0
M  V30 1335 C 118.704 1.37307 0.838785 0
M  V30 1336 O 119.896 1.61299 0.728813 0
M  V30 1337 C 117.025 3.24173 1.12991 0
M  V30 1338 C 116.111 4.21965 0.425011 0
M  V30 1339 N 116.502 5.02982 -0.533217 0
M  V30 1340 C 114.8 4.40899 0.672593 0
M  V30 1341 C 115.501 5.73931 -0.947518 0
M  V30 1342 N 114.477 5.42819 -0.291321 0
M  V30 1343 H 118.279 2.87649 -0.602935 0
M  V30 1344 H 115.793 1.56576 -0.431006 0
M  V30 1345 H 117.79 3.81783 1.67473 0
M  V30 1346 H 116.45 2.65696 1.86644 0
M  V30 1347 H 117.461 5.09843 -0.90995 0
M  V30 1348 H 114.138 3.93547 1.39382 0
M  V30 1349 H 115.528 6.49037 -1.73782 0
M  V30 1350 N 118.248 0.346503 1.53744 0
M  V30 1351 C 119.495 -0.249104 2.00962 0
M  V30 1352 C 119.823 -1.5032 1.23426 0
M  V30 1353 O 119.078 -1.93217 0.310761 0
M  V30 1354 C 119.377 -0.605809 3.52228 0
M  V30 1355 C 119.043 0.551747 4.47512 0
M  V30 1356 C 117.705 0.86941 4.73281 0
M  V30 1357 C 120.057 1.32818 5.03993 0
M  V30 1358 C 117.385 1.96582 5.52786 0
M  V30 1359 C 119.737 2.41486 5.84694 0
M  V30 1360 C 118.401 2.73808 6.08757 0
M  V30 1361 H 117.671 -0.0911538 0.735372 0
M  V30 1362 H 120.318 0.475027 1.85515 0
M  V30 1363 H 118.623 -1.4107 3.65522 0
M  V30 1364 H 120.32 -1.07858 3.86222 0
M  V30 1365 H 116.91 0.294102 4.2759 0
M  V30 1366 H 121.094 1.09602 4.84047 0
M  V30 1367 H 116.35 2.22045 5.69654 0
M  V30 1368 H 120.524 3.02078 6.27473 0
M  V30 1369 H 118.151 3.58892 6.7015 0
M  V30 1370 N 119.726 -1.57421 0.075193 0
M  V30 1371 C 120.975 -1.92794 -0.592731 0
M  V30 1372 C 121.288 -0.957478 -1.70563 0
M  V30 1373 O 122.494 -1.20417 -2.43335 0
M  V30 1374 C 120.95 -3.42495 -1.10569 0
M  V30 1375 C 120.558 -4.47994 -0.0236121 0
M  V30 1376 C 122.302 -3.86864 -1.74748 0
M  V30 1377 C 120.209 -5.88829 -0.550803 0
M  V30 1378 H 119.139 -0.719591 -0.225177 0
M  V30 1379 H 121.79 -1.82902 0.147978 0
M  V30 1380 H 120.172 -3.47471 -1.89947 0
M  V30 1381 H 121.346 -4.54637 0.751099 0
M  V30 1382 H 119.661 -4.13113 0.522159 0
M  V30 1383 H 122.258 -4.8947 -2.15229 0
M  V30 1384 H 122.601 -3.24417 -2.60882 0
M  V30 1385 H 123.134 -3.84504 -1.01986 0
M  V30 1386 H 119.873 -6.54929 0.273457 0
M  V30 1387 H 119.393 -5.85698 -1.29296 0
M  V30 1388 H 121.072 -6.38811 -1.02613 0
M  V30 1389 N 121.204 0.198386 -1.56346 0
M  V30 1390 C 122.134 1.24865 -1.9731 0
M  V30 1391 C 123.115 1.47651 -0.844576 0
M  V30 1392 O 124.3 1.59444 -1.10866 0
M  V30 1393 C 121.43 2.59358 -2.30977 0
M  V30 1394 C 120.384 2.5119 -3.46537 0
M  V30 1395 C 119.71 3.89926 -3.65871 0
M  V30 1396 C 121.01 2.03977 -4.80823 0
M  V30 1397 H 122.704 0.908252 -2.85291 0
M  V30 1398 H 120.25 0.435462 -1.37258 0
M  V30 1399 H 122.203 3.33011 -2.58228 0
M  V30 1400 H 120.927 2.95132 -1.39874 0
M  V30 1401 H 119.586 1.79993 -3.19371 0
M  V30 1402 H 119.234 4.23046 -2.72105 0
M  V30 1403 H 118.934 3.85336 -4.4361 0
M  V30 1404 H 120.458 4.65205 -3.95495 0
M  V30 1405 H 121.872 2.67386 -5.07127 0
M  V30 1406 H 120.269 2.10397 -5.62008 0
M  V30 1407 H 121.339 0.992861 -4.74626 0
M  V30 1408 N 122.682 1.50554 0.465978 0
M  V30 1409 C 123.907 1.65838 1.24549 0
M  V30 1410 C 124.332 0.343486 1.84937 0
M  V30 1411 O 123.69 -0.69324 1.67523 0
M  V30 1412 C 123.738 2.75533 2.32624 0
M  V30 1413 O 122.842 2.37142 3.37398 0
M  V30 1414 H 122.183 0.553893 0.366194 0
M  V30 1415 H 124.713 1.96959 0.553927 0
M  V30 1416 H 124.723 2.98763 2.77857 0
M  V30 1417 H 123.398 3.70962 1.88043 0
M  V30 1418 H 121.975 2.24377 2.97841 0
M  V30 1419 N 124.16 -0.719506 1.40217 0
M  V30 1420 C 125.09 -1.8465 1.42922 0
M  V30 1421 C 126.071 -1.67599 0.29062 0
M  V30 1422 O 127.256 -1.87688 0.498677 0
M  V30 1423 C 124.386 -3.22565 1.28722 0
M  V30 1424 C 123.34 -3.54281 2.40144 0
M  V30 1425 C 122.666 -4.91298 2.11023 0
M  V30 1426 C 123.966 -3.55676 3.82481 0
M  V30 1427 H 125.66 -1.82644 2.37237 0
M  V30 1428 H 123.206 -0.877305 1.1419 0
M  V30 1429 H 125.159 -4.01095 1.29232 0
M  V30 1430 H 123.883 -3.25137 0.308811 0
M  V30 1431 H 122.542 -2.78088 2.38877 0
M  V30 1432 H 122.19 -4.90468 1.11582 0
M  V30 1433 H 121.89 -5.13485 2.8567 0
M  V30 1434 H 123.414 -5.72166 2.13209 0
M  V30 1435 H 124.828 -4.24254 3.85592 0
M  V30 1436 H 123.225 -3.89388 4.56614 0
M  V30 1437 H 124.295 -2.55144 4.12346 0
M  V30 1438 N 125.638 -1.25649 -0.95132 0
M  V30 1439 C 126.568 -1.08808 -2.06599 0
M  V30 1440 C 127.549 0.00382547 -1.701 0
M  V30 1441 O 128.734 -0.166325 -1.93486 0
M  V30 1442 C 125.864 -0.709542 -3.39975 0
M  V30 1443 C 124.818 -1.75206 -3.90496 0
M  V30 1444 C 124.144 -1.22811 -5.20405 0
M  V30 1445 C 125.444 -3.15153 -4.16504 0
M  V30 1446 H 127.138 -2.02048 -2.20946 0
M  V30 1447 H 124.684 -0.972835 -1.06169 0
M  V30 1448 H 126.637 -0.578649 -4.17408 0
M  V30 1449 H 125.361 0.258556 -3.25575 0
M  V30 1450 H 124.02 -1.87145 -3.15234 0
M  V30 1451 H 123.668 -0.250145 -5.02378 0
M  V30 1452 H 123.368 -1.92492 -5.55176 0
M  V30 1453 H 124.892 -1.10968 -6.00432 0
M  V30 1454 H 126.306 -3.06349 -4.84586 0
M  V30 1455 H 124.703 -3.82333 -4.62538 0
M  V30 1456 H 125.773 -3.61966 -3.22658 0
M  V30 1457 N 127.117 1.15442 -1.07289 0
M  V30 1458 C 128.047 2.22312 -0.714107 0
M  V30 1459 C 129.028 1.67467 0.298155 0
M  V30 1460 O 130.213 1.93445 0.171048 0
M  V30 1461 C 127.343 3.47124 -0.110448 0
M  V30 1462 C 126.297 4.14926 -1.04979 0
M  V30 1463 C 125.623 5.33807 -0.308924 0
M  V30 1464 C 126.923 4.64762 -2.38314 0
M  V30 1465 H 128.617 2.5258 -1.6076 0
M  V30 1466 H 126.163 1.21404 -0.77441 0
M  V30 1467 H 128.116 4.21124 0.152482 0
M  V30 1468 H 126.84 3.16187 0.81812 0
M  V30 1469 H 125.499 3.42866 -1.29764 0
M  V30 1470 H 125.147 4.99126 0.623084 0
M  V30 1471 H 124.847 5.80113 -0.935036 0
M  V30 1472 H 126.371 6.10576 -0.0537771 0
M  V30 1473 H 127.785 5.30292 -2.1786 0
M  V30 1474 H 126.182 5.21728 -2.96514 0
M  V30 1475 H 127.252 3.80434 -3.00663 0
M  V30 1476 N 128.595 0.856903 1.32268 0
M  V30 1477 C 129.505 0.306131 2.32594 0
M  V30 1478 C 130.521 -0.577209 1.64147 0
M  V30 1479 O 131.697 -0.477043 1.95669 0
M  V30 1480 C 128.762 -0.494561 3.43154 0
M  V30 1481 C 127.823 0.415186 4.27288 0
M  V30 1482 C 127.056 -0.347387 5.32568 0
M  V30 1483 O 127.279 -1.57708 5.48165 0
M  V30 1484 O 126.213 0.287982 6.01211 0
M  V30 1485 H 130.039 1.13737 2.81598 0
M  V30 1486 H 127.624 0.619902 1.35932 0
M  V30 1487 H 129.506 -0.948944 4.10576 0
M  V30 1488 H 128.181 -1.30257 2.96336 0
M  V30 1489 H 127.088 0.917793 3.62667 0
M  V30 1490 H 128.421 1.18844 4.77637 0
M  V30 1491 N 130.073 -1.45103 0.615059 0
M  V30 1492 C 130.983 -2.34382 -0.101034 0
M  V30 1493 C 131.999 -1.51681 -0.852585 0
M  V30 1494 O 133.175 -1.8446 -0.808484 0
M  V30 1495 C 130.24 -3.29417 -1.08099 0
M  V30 1496 C 129.301 -4.28025 -0.330577 0
M  V30 1497 C 128.534 -5.1852 -1.26385 0
M  V30 1498 O 128.757 -5.12598 -2.50198 0
M  V30 1499 O 127.691 -5.97122 -0.756866 0
M  V30 1500 H 131.517 -2.97033 0.632855 0
M  V30 1501 H 129.102 -1.4461 0.375293 0
M  V30 1502 H 130.984 -3.87958 -1.6452 0
M  V30 1503 H 129.659 -2.69321 -1.79577 0
M  V30 1504 H 128.566 -3.73078 0.276283 0
M  V30 1505 H 129.899 -4.90997 0.343866 0
M  V30 1506 N 131.551 -0.354651 -1.53558 0
M  V30 1507 C 132.781 0.239167 -2.05211 0
M  V30 1508 C 133.189 1.43879 -1.22863 0
M  V30 1509 O 132.532 1.81857 -0.259565 0
M  V30 1510 C 132.594 0.707251 -3.52474 0
M  V30 1511 C 132.258 -0.374212 -4.55465 0
M  V30 1512 C 133.255 -1.22054 -5.0537 0
M  V30 1513 C 130.94 -0.531323 -4.99482 0
M  V30 1514 C 132.934 -2.20942 -5.97882 0
M  V30 1515 C 130.621 -1.52358 -5.91802 0
M  V30 1516 C 131.619 -2.36108 -6.40892 0
M  V30 1517 O 131.307 -3.33643 -7.31394 0
M  V30 1518 H 131.039 0.0479716 -0.674296 0
M  V30 1519 H 133.593 -0.508121 -1.99016 0
M  V30 1520 H 131.823 1.50596 -3.56171 0
M  V30 1521 H 133.512 1.22285 -3.87042 0
M  V30 1522 H 134.278 -1.1103 -4.7212 0
M  V30 1523 H 130.157 0.110738 -4.60867 0
M  V30 1524 H 133.701 -2.86348 -6.36121 0
M  V30 1525 H 129.598 -1.63434 -6.24467 0
M  V30 1526 H 130.366 -3.29244 -7.4936 0
M  V30 1527 N 133.029 1.57378 -0.0835403 0
M  V30 1528 C 134.445 1.57246 0.273109 0
M  V30 1529 C 134.645 1.09385 1.69225 0
M  V30 1530 O 133.701 0.765051 2.40631 0
M  V30 1531 C 135.014 3.00614 0.0720628 0
M  V30 1532 C 136.562 3.12684 0.1407 0
M  V30 1533 C 137.037 4.57989 -0.0322094 0
M  V30 1534 N 138.528 4.63194 0.0230085 0
M  V30 1535 C 139.263 5.73335 -0.0861941 0
M  V30 1536 N 138.759 6.9235 -0.24958 0
M  V30 1537 N 140.552 5.62093 -0.0282886 0
M  V30 1538 H 132.703 1.86801 -1.0109 0
M  V30 1539 H 134.966 0.861687 -0.395222 0
M  V30 1540 H 134.672 3.39786 -0.907662 0
M  V30 1541 H 134.546 3.68193 0.81936 0
M  V30 1542 H 136.933 2.73391 1.11092 0
M  V30 1543 H 137.014 2.47719 -0.637896 0
M  V30 1544 H 136.658 4.97973 -0.999247 0
M  V30 1545 H 136.588 5.21 0.765937 0
M  V30 1546 H 139.079 3.77613 0.14722 0
M  V30 1547 H 139.392 7.72117 -0.324733 0
M  V30 1548 H 137.737 6.94415 -0.285097 0
M  V30 1549 H 140.928 4.67997 0.0981408 0
M  V30 1550 H 141.101 6.47895 -0.116845 0
M  V30 1551 N 134.507 -0.190092 1.56449 0
M  V30 1552 C 135.784 -0.935886 1.71757 0
M  V30 1553 C 136.164 -2.01173 0.639726 0
M  V30 1554 O 135.512 -2.25827 -0.348502 0
M  V30 1555 C 135.722 -1.51775 3.1427 0
M  V30 1556 C 137.07 -1.99794 3.74656 0
M  V30 1557 O 138.094 -1.61607 3.1743 0
M  V30 1558 O 136.953 -2.70079 4.751 0
M  V30 1559 H 134.047 -0.439229 0.700719 0
M  V30 1560 H 136.593 -0.179395 1.68749 0
M  V30 1561 H 135.365 -0.742505 3.84191 0
M  V30 1562 H 134.988 -2.33894 3.21527 0
M  V30 1563 N 135.985 -1.50799 -0.457987 0
M  V30 1564 C 136.932 -1.70617 -1.5543 0
M  V30 1565 C 137.902 -0.547562 -1.56815 0
M  V30 1566 O 139.087 -0.779647 -1.74144 0
M  V30 1567 C 136.227 -1.81831 -2.93311 0
M  V30 1568 C 135.34 -3.09278 -3.01615 0
M  V30 1569 C 134.475 -3.11209 -4.30491 0
M  V30 1570 C 133.514 -4.33055 -4.32585 0
M  V30 1571 N 132.651 -4.32652 -5.52952 0
M  V30 1572 H 137.491 -2.64207 -1.37836 0
M  V30 1573 H 135.028 -1.30959 -0.669937 0
M  V30 1574 H 136.986 -1.86314 -3.73287 0
M  V30 1575 H 135.616 -0.916685 -3.0951 0
M  V30 1576 H 134.668 -3.14203 -2.1443 0
M  V30 1577 H 135.98 -3.99233 -2.99022 0
M  V30 1578 H 135.134 -3.14494 -5.18824 0
M  V30 1579 H 133.873 -2.19106 -4.35711 0
M  V30 1580 H 132.878 -4.29969 -3.42647 0
M  V30 1581 H 134.103 -5.264 -4.29046 0
M  V30 1582 H 132.049 -3.43409 -5.58933 0
M  V30 1583 H 131.966 -5.16392 -5.52155 0
M  V30 1584 H 133.234 -4.40101 -6.43375 0
M  V30 1585 N 137.463 0.71206 -1.40597 0
M  V30 1586 C 138.411 1.84746 -1.41321 0
M  V30 1587 C 139.405 1.66842 -0.293268 0
M  V30 1588 O 140.611 1.73904 -0.464481 0
M  V30 1589 H 136.986 0.608522 -0.441819 0
M  V30 1590 H 138.957 1.81252 -2.37045 0
M  V30 1591 C 137.706 3.22638 -1.29614 0
M  V30 1592 H 137.029 3.37023 -2.15071 0
M  V30 1593 H 138.469 4.02209 -1.3418 0
M  V30 1594 C 136.928 3.36899 -0.00673121 0
M  V30 1595 O 137.458 3.90186 0.954859 0
M  V30 1596 N 135.664 2.9053 0.0639327 0
M  V30 1597 H 135.211 2.47353 -0.719311 0
M  V30 1598 H 135.169 3.0045 0.926118 0
M  V30 1599 N 138.941 1.26152 0.944643 0
M  V30 1600 C 139.889 1.07215 2.06417 0
M  V30 1601 C 140.883 9.2007e-05 1.694 0
M  V30 1602 O 142.089 0.1565 1.79318 0
M  V30 1603 H 138.464 0.329837 0.675805 0
M  V30 1604 H 140.435 2.02099 2.19541 0
M  V30 1605 C 139.184 0.718197 3.40202 0
M  V30 1606 H 138.507 1.53497 3.69159 0
M  V30 1607 H 139.947 0.625459 4.19361 0
M  V30 1608 C 138.406 -0.576435 3.31932 0
M  V30 1609 O 138.936 -1.61574 3.67773 0
M  V30 1610 N 137.142 -0.565781 2.85039 0
M  V30 1611 H 136.689 0.280367 2.5607 0
M  V30 1612 H 136.647 -1.43213 2.79888 0
M  V30 1613 N 140.419 -1.14872 1.07899 0
M  V30 1614 C 141.366 -2.19791 0.704319 0
M  V30 1615 C 142.336 -1.63238 -0.306987 0
M  V30 1616 O 143.521 -1.8983 -0.192171 0
M  V30 1617 C 140.661 -3.44911 0.114244 0
M  V30 1618 C 139.774 -4.15637 1.1777 0
M  V30 1619 C 138.909 -5.28324 0.552037 0
M  V30 1620 C 137.948 -5.90875 1.59789 0
M  V30 1621 N 137.085 -6.95022 0.994404 0
M  V30 1622 H 141.925 -2.5119 1.60336 0
M  V30 1623 H 139.462 -1.23356 0.801352 0
M  V30 1624 H 141.42 -4.16477 -0.245544 0
M  V30 1625 H 140.05 -3.14011 -0.74813 0
M  V30 1626 H 139.102 -3.42512 1.65499 0
M  V30 1627 H 140.414 -4.5823 1.97046 0
M  V30 1628 H 139.568 -6.06538 0.1402 0
M  V30 1629 H 138.307 -4.86939 -0.272431 0
M  V30 1630 H 137.312 -5.11369 2.01945 0
M  V30 1631 H 138.537 -6.34337 2.42474 0
M  V30 1632 H 136.483 -6.55722 0.190939 0
M  V30 1633 H 136.4 -7.36073 1.72432 0
M  V30 1634 H 137.668 -7.77123 0.608253 0
M  V30 1635 N 141.898 -0.863906 -1.31812 0
M  V30 1636 C 143.175 -0.39275 -1.91616 0
M  V30 1637 C 143.555 1.12461 -1.7865 0
M  V30 1638 O 142.903 1.95045 -1.19037 0
M  V30 1639 C 143.113 -0.867385 -3.38049 0
M  V30 1640 C 144.461 -0.889966 -4.15168 0
M  V30 1641 O 145.485 -0.812635 -3.46806 0
M  V30 1642 O 144.344 -1.00079 -5.37258 0
M  V30 1643 H 141.438 -0.116358 -0.818773 0
M  V30 1644 H 143.984 -0.951418 -1.40521 0
M  V30 1645 H 142.756 -1.91081 -3.41473 0
M  V30 1646 H 142.379 -0.286687 -3.96565 0
M  V30 1647 N 143.376 1.44774 -0.622745 0
M  V30 1648 C 144.623 2.02121 -0.1239 0
M  V30 1649 C 144.951 1.48915 1.25118 0
M  V30 1650 O 144.206 0.660045 1.84233 0
M  V30 1651 C 144.505 3.57364 -0.0508323 0
M  V30 1652 C 144.171 4.29787 -1.36358 0
M  V30 1653 C 142.833 4.4929 -1.72314 0
M  V30 1654 C 145.185 4.71062 -2.23048 0
M  V30 1655 C 142.513 5.07325 -2.94682 0
M  V30 1656 C 144.865 5.30452 -3.44679 0
M  V30 1657 C 143.529 5.48175 -3.80868 0
M  V30 1658 H 142.799 0.739612 -0.0453381 0
M  V30 1659 H 145.446 1.73648 -0.807389 0
M  V30 1660 H 143.751 3.85202 0.715991 0
M  V30 1661 H 145.448 3.99456 0.351533 0
M  V30 1662 H 142.038 4.14932 -1.07375 0
M  V30 1663 H 146.222 4.55715 -1.96565 0
M  V30 1664 H 141.478 5.19235 -3.22809 0
M  V30 1665 H 145.652 5.61385 -4.12092 0
M  V30 1666 H 143.279 5.92912 -4.75773 0
M  V30 1667 N 144.854 0.36279 1.53368 0
M  V30 1668 C 145.801 -0.485008 2.25646 0
M  V30 1669 C 146.771 -1.07982 1.2621 0
M  V30 1670 O 147.956 -1.11284 1.54986 0
M  V30 1671 C 145.096 -1.62023 3.04701 0
M  V30 1672 C 144.209 -1.05086 4.19024 0
M  V30 1673 C 143.344 -2.15496 4.85525 0
M  V30 1674 C 142.383 -1.5601 5.91884 0
M  V30 1675 N 141.52 -2.60241 6.52088 0
M  V30 1676 H 146.36 0.137864 2.97681 0
M  V30 1677 H 143.897 0.0798061 1.46883 0
M  V30 1678 H 145.855 -2.28887 3.48807 0
M  V30 1679 H 144.485 -2.2138 2.34927 0
M  V30 1680 H 143.537 -0.27259 3.79422 0
M  V30 1681 H 144.849 -0.575926 4.95464 0
M  V30 1682 H 144.003 -2.90186 5.32801 0
M  V30 1683 H 142.742 -2.66341 4.08551 0
M  V30 1684 H 141.747 -0.798338 5.43973 0
M  V30 1685 H 142.972 -1.05994 6.70777 0
M  V30 1686 H 140.918 -3.10304 5.77968 0
M  V30 1687 H 140.835 -2.17426 7.24059 0
M  V30 1688 H 142.103 -3.34641 7.04014 0
M  V30 1689 N 146.332 -1.57332 0.0918853 0
M  V30 1690 C 147.295 -2.12708 -0.85369 0
M  V30 1691 C 148.295 -1.05561 -1.213 0
M  V30 1692 O 149.485 -1.31461 -1.14296 0
M  V30 1693 C 146.617 -2.64503 -2.15061 0
M  V30 1694 H 147.81 -2.97573 -0.3729 0
M  V30 1695 H 145.363 -1.55509 -0.157072 0
M  V30 1696 H 146.098 -1.83149 -2.67632 0
M  V30 1697 H 145.883 -3.4284 -1.90272 0
M  V30 1698 H 147.373 -3.07351 -2.82711 0
M  V30 1699 N 147.81 0.181792 -1.56548 0
M  V30 1700 C 149.059 0.898348 -1.8059 0
M  V30 1701 C 149.372 1.83862 -0.667379 0
M  V30 1702 O 150.578 2.59678 -0.792446 0
M  V30 1703 C 149.034 1.64791 -3.19956 0
M  V30 1704 C 148.642 0.751789 -4.41647 0
M  V30 1705 C 150.386 2.35331 -3.53298 0
M  V30 1706 C 148.293 1.50098 -5.72035 0
M  V30 1707 H 147.223 0.339194 -0.673397 0
M  V30 1708 H 149.874 0.151413 -1.82874 0
M  V30 1709 H 148.256 2.43921 -3.11959 0
M  V30 1710 H 149.43 -0.0018076 -4.608 0
M  V30 1711 H 147.745 0.156562 -4.16106 0
M  V30 1712 H 150.342 2.91958 -4.47956 0
M  V30 1713 H 150.685 3.10164 -2.77676 0
M  V30 1714 H 151.218 1.63154 -3.62803 0
M  V30 1715 H 147.957 0.795175 -6.50659 0
M  V30 1716 H 147.477 2.22817 -5.56878 0
M  V30 1717 H 149.156 2.05125 -6.13622 0
M  V30 1718 N 149.288 1.51039 0.449983 0
M  V30 1719 C 150.251 1.70863 1.5277 0
M  V30 1720 C 151.251 0.578846 1.5002 0
M  V30 1721 O 152.441 0.846213 1.52266 0
M  V30 1722 C 149.573 1.75341 2.9235 0
M  V30 1723 H 150.766 2.67034 1.36502 0
M  V30 1724 H 148.319 1.40838 0.677812 0
M  V30 1725 H 149.054 0.809383 3.14037 0
M  V30 1726 H 148.839 2.57436 2.95752 0
M  V30 1727 H 150.329 1.92559 3.70555 0
M  V30 1728 N 150.766 -0.704594 1.40972 0
M  V30 1729 C 151.994 -1.49354 1.43182 0
M  V30 1730 C 152.409 -1.88768 0.0345508 0
M  V30 1731 O 151.766 -1.56184 -0.944081 0
M  V30 1732 C 151.817 -2.76187 2.33244 0
M  V30 1733 O 151.538 -2.38436 3.67532 0
M  V30 1734 C 153.039 -3.7 2.44162 0
M  V30 1735 H 150.259 -0.460559 0.487982 0
M  V30 1736 H 152.803 -0.868261 1.85153 0
M  V30 1737 H 150.958 -3.34974 1.94606 0
M  V30 1738 H 151.372 -3.20126 4.15475 0
M  V30 1739 H 152.846 -4.55803 3.11364 0
M  V30 1740 H 153.323 -4.13867 1.47006 0
M  V30 1741 H 153.929 -3.17121 2.83398 0
M  V30 1742 N 152.244 -1.26651 -0.937939 0
M  V30 1743 C 153.154 -1.10276 -2.07066 0
M  V30 1744 C 154.17 -0.0354197 -1.73964 0
M  V30 1745 O 155.346 -0.239816 -1.99967 0
M  V30 1746 C 152.411 -0.740887 -3.38691 0
M  V30 1747 C 151.472 -1.88799 -3.85556 0
M  V30 1748 C 150.705 -1.54329 -5.10899 0
M  V30 1749 O 150.928 -0.446494 -5.6865 0
M  V30 1750 O 149.862 -2.37911 -5.52885 0
M  V30 1751 H 153.688 -2.05309 -2.23789 0
M  V30 1752 H 151.273 -1.05743 -1.0554 0
M  V30 1753 H 153.155 -0.55195 -4.1777 0
M  V30 1754 H 151.83 0.180022 -3.23199 0
M  V30 1755 H 150.737 -2.13191 -3.07409 0
M  V30 1756 H 152.07 -2.78874 -4.05574 0
M  V30 1757 N 153.722 1.14298 -1.08507 0
M  V30 1758 C 154.968 1.85633 -0.816581 0
M  V30 1759 C 155.301 1.82784 0.656021 0
M  V30 1760 O 154.576 1.25926 1.48233 0
M  V30 1761 C 154.859 3.34223 -1.34041 0
M  V30 1762 C 154.712 3.45639 -2.87843 0
M  V30 1763 C 156.031 4.29356 -0.9665 0
M  V30 1764 H 153.15 0.67402 -0.298104 0
M  V30 1765 H 155.792 1.34214 -1.34487 0
M  V30 1766 H 153.942 3.78144 -0.89104 0
M  V30 1767 H 155.614 3.10498 -3.41158 0
M  V30 1768 H 153.857 2.86817 -3.25451 0
M  V30 1769 H 154.528 4.50089 -3.19569 0
M  V30 1770 H 157.004 3.93457 -1.35391 0
M  V30 1771 H 155.88 5.3178 -1.3602 0
M  V30 1772 H 156.141 4.41919 0.126362 0
M  V30 1773 N 155.201 0.870884 1.31352 0
M  V30 1774 C 156.149 0.316445 2.30437 0
M  V30 1775 C 157.143 -0.568965 1.59559 0
M  V30 1776 O 158.349 -0.454964 1.74155 0
M  V30 1777 H 154.724 0.0836521 0.747333 0
M  V30 1778 H 156.695 1.16606 2.74673 0
M  V30 1779 C 155.444 -0.46635 3.44558 0
M  V30 1780 H 154.767 0.205687 3.99271 0
M  V30 1781 H 156.207 -0.819614 4.16003 0
M  V30 1782 C 154.666 -1.65797 2.9328 0
M  V30 1783 O 155.196 -2.75728 2.92125 0
M  V30 1784 N 153.402 -1.49041 2.4947 0
M  V30 1785 H 152.949 -0.59612 2.50608 0
M  V30 1786 H 152.907 -2.28911 2.15516 0
M  V30 1787 N 156.679 -1.44442 0.630414 0
M  V30 1788 C 157.642 -2.29107 -0.0652523 0
M  V30 1789 C 158.642 -1.41002 -0.772995 0
M  V30 1790 O 159.832 -1.62881 -0.617692 0
M  V30 1791 C 156.964 -3.22564 -1.10296 0
M  V30 1792 H 158.157 -2.92103 0.679401 0
M  V30 1793 H 155.71 -1.51343 0.390517 0
M  V30 1794 H 156.445 -2.64416 -1.87762 0
M  V30 1795 H 156.23 -3.87491 -0.59941 0
M  V30 1796 H 157.72 -3.86167 -1.5895 0
M  V30 1797 N 158.157 -0.370918 -1.53173 0
M  V30 1798 C 159.403 0.217423 -2.01631 0
M  V30 1799 C 159.736 1.47983 -1.25756 0
M  V30 1800 O 159.011 1.91274 -0.352764 0
M  V30 1801 C 159.294 0.503982 -3.56556 0
M  V30 1802 C 159.147 -0.77243 -4.43118 0
M  V30 1803 C 160.466 1.30234 -4.20389 0
M  V30 1804 H 157.585 0.0775486 -0.732909 0
M  V30 1805 H 160.227 -0.496863 -1.83388 0
M  V30 1806 H 158.377 1.11248 -3.72231 0
M  V30 1807 H 160.049 -1.4098 -4.39229 0
M  V30 1808 H 158.292 -1.39167 -4.10871 0
M  V30 1809 H 158.963 -0.526815 -5.4948 0
M  V30 1810 H 161.439 0.787546 -4.08579 0
M  V30 1811 H 160.315 1.47158 -5.28806 0
M  V30 1812 H 160.576 2.31237 -3.76805 0
M  V30 1813 N 159.635 1.57281 -0.100228 0
M  V30 1814 C 160.86 1.99302 0.573881 0
M  V30 1815 C 161.285 0.979059 1.60611 0
M  V30 1816 O 160.643 -0.0517803 1.81226 0
M  V30 1817 C 160.691 3.40274 1.19358 0
M  V30 1818 O 159.795 3.41676 2.30935 0
M  V30 1819 H 159.136 0.647944 0.145138 0
M  V30 1820 H 161.666 2.03779 -0.183156 0
M  V30 1821 H 161.676 3.78078 1.53365 0
M  V30 1822 H 160.351 4.13594 0.437385 0
M  V30 1823 H 158.928 3.15672 1.98509 0
M  V30 1824 N 161.113 -0.173488 1.56642 0
M  V30 1825 C 162.359 -0.891784 1.8214 0
M  V30 1826 C 162.692 -1.8199 0.677736 0
M  V30 1827 O 161.967 -1.91842 -0.320446 0
M  V30 1828 C 162.25 -1.68933 3.18015 0
M  V30 1829 C 162.103 -0.784487 4.42906 0
M  V30 1830 C 163.422 -2.65748 3.50808 0
M  V30 1831 H 160.541 -0.322761 0.662567 0
M  V30 1832 H 163.183 -0.158095 1.89341 0
M  V30 1833 H 161.333 -2.31482 3.12007 0
M  V30 1834 H 163.005 -0.172046 4.60979 0
M  V30 1835 H 161.248 -0.0924117 4.33702 0
M  V30 1836 H 161.919 -1.37799 5.34524 0
M  V30 1837 H 164.395 -2.13327 3.57255 0
M  V30 1838 H 163.271 -3.18619 4.4696 0
M  V30 1839 H 163.532 -3.45842 2.75401 0
M  V30 1840 N 162.591 -1.51276 -0.441967 0
M  V30 1841 C 163.838 -1.63715 -1.19179 0
M  V30 1842 C 164.166 -0.351175 -1.91303 0
M  V30 1843 O 163.421 0.664524 -1.84072 0
M  V30 1844 C 163.72 -2.78746 -2.23686 0
M  V30 1845 C 163.386 -4.18189 -1.68607 0
M  V30 1846 C 162.048 -4.56125 -1.53308 0
M  V30 1847 C 164.4 -5.05222 -1.28062 0
M  V30 1848 C 161.728 -5.78804 -0.959317 0
M  V30 1849 C 164.08 -6.28476 -0.721162 0
M  V30 1850 C 162.744 -6.65188 -0.55504 0
M  V30 1851 H 162.014 -0.599076 -0.436106 0
M  V30 1852 H 164.661 -1.85296 -0.48351 0
M  V30 1853 H 162.966 -2.51369 -3.00535 0
M  V30 1854 H 164.663 -2.8557 -2.81515 0
M  V30 1855 H 161.253 -3.88277 -1.8149 0
M  V30 1856 H 165.437 -4.76524 -1.38704 0
M  V30 1857 H 160.693 -6.05899 -0.81833 0
M  V30 1858 H 164.867 -6.95259 -0.398458 0
M  V30 1859 H 162.494 -7.60123 -0.108311 0
M  V30 1860 N 164.069 0.697108 -1.41344 0
M  V30 1861 C 165.001 1.8224 -1.39001 0
M  V30 1862 C 166.014 1.60152 -0.292428 0
M  V30 1863 O 167.203 1.69684 -0.554048 0
M  V30 1864 C 164.303 3.18976 -1.14489 0
M  V30 1865 C 163.476 3.68105 -2.36258 0
M  V30 1866 C 162.535 4.83506 -2.07625 0
M  V30 1867 O 161.561 4.95201 -2.8065 0
M  V30 1868 N 162.763 5.70637 -1.06555 0
M  V30 1869 H 165.528 1.84742 -2.35988 0
M  V30 1870 H 163.089 0.87937 -1.35936 0
M  V30 1871 H 165.081 3.93801 -0.932885 0
M  V30 1872 H 163.651 3.11508 -0.261043 0
M  V30 1873 H 162.871 2.84204 -2.7317 0
M  V30 1874 H 164.159 3.97667 -3.17393 0
M  V30 1875 H 163.557 5.63817 -0.461125 0
M  V30 1876 H 162.114 6.45368 -0.913444 0
M  V30 1877 N 165.547 1.27147 0.931209 0
M  V30 1878 C 166.824 1.0401 1.65654 0
M  V30 1879 C 167.204 -0.426297 2.06751 0
M  V30 1880 O 166.552 -1.40879 1.79904 0
M  V30 1881 C 166.762 1.99834 2.86125 0
M  V30 1882 C 168.11 2.29007 3.57549 0
M  V30 1883 O 169.134 1.97779 2.96246 0
M  V30 1884 O 167.993 2.82222 4.67989 0
M  V30 1885 H 165.087 0.396239 0.725895 0
M  V30 1886 H 167.633 1.38397 0.982056 0
M  V30 1887 H 166.405 2.98744 2.52721 0
M  V30 1888 H 166.028 1.65987 3.61295 0
M  V30 1889 N 167.025 -1.13721 1.09112 0
M  V30 1890 C 168.272 -1.84924 0.825192 0
M  V30 1891 C 168.6 -1.83347 -0.649151 0
M  V30 1892 O 167.855 -1.26449 -1.49362 0
M  V30 1893 C 168.154 -3.32861 1.30146 0
M  V30 1894 C 167.82 -3.54621 2.78486 0
M  V30 1895 C 166.482 -3.60268 3.18999 0
M  V30 1896 C 168.834 -3.62855 3.74146 0
M  V30 1897 C 166.162 -3.71679 4.53951 0
M  V30 1898 C 168.514 -3.75793 5.08883 0
M  V30 1899 C 167.178 -3.79692 5.4899 0
M  V30 1900 H 166.448 -0.676684 0.301959 0
M  V30 1901 H 169.095 -1.3428 1.36533 0
M  V30 1902 H 167.4 -3.85835 0.681064 0
M  V30 1903 H 169.097 -3.86395 1.07236 0
M  V30 1904 H 165.687 -3.50879 2.46134 0
M  V30 1905 H 169.871 -3.57775 3.43963 0
M  V30 1906 H 165.127 -3.72963 4.84467 0
M  V30 1907 H 169.301 -3.81107 5.82864 0
M  V30 1908 H 166.928 -3.88287 6.53558 0
M  V30 1909 N 168.503 -0.877838 -1.30888 0
M  V30 1910 C 169.743 -0.499301 -1.98208 0
M  V30 1911 C 170.107 0.932649 -1.67826 0
M  V30 1912 O 171.308 1.41694 -2.28421 0
M  V30 1913 C 169.579 -0.758221 -3.49265 0
M  V30 1914 S 171.138 -0.480719 -4.36159 0
M  V30 1915 H 167.956 -0.186062 -0.686223 0
M  V30 1916 H 170.558 -1.13556 -1.59139 0
M  V30 1917 H 169.262 -1.79903 -3.68867 0
M  V30 1918 H 168.793 -0.109247 -3.93248 0
M  V30 1919 H 170.808 0.683698 -4.91467 0
M  V30 1920 N 169.982 1.44106 -0.638065 0
M  V30 1921 C 170.929 2.30715 0.062701 0
M  V30 1922 C 171.899 1.43882 0.829883 0
M  V30 1923 O 173.084 1.72775 0.809532 0
M  V30 1924 C 170.224 3.29258 1.03358 0
M  V30 1925 C 169.337 4.31192 0.26409 0
M  V30 1926 C 168.472 5.16825 1.22741 0
M  V30 1927 C 167.511 6.10462 0.447475 0
M  V30 1928 N 166.648 6.8877 1.36161 0
M  V30 1929 H 171.488 2.90096 -0.681781 0
M  V30 1930 H 169.025 1.42925 -0.347988 0
M  V30 1931 H 170.983 3.84886 1.60992 0
M  V30 1932 H 169.613 2.71562 1.74511 0
M  V30 1933 H 168.665 3.77981 -0.428295 0
M  V30 1934 H 169.977 4.97619 -0.343052 0
M  V30 1935 H 169.131 5.77004 1.87487 0
M  V30 1936 H 167.87 4.50488 1.86847 0
M  V30 1937 H 166.875 5.49386 -0.213433 0
M  V30 1938 H 168.1 6.78837 -0.188968 0
M  V30 1939 H 166.046 6.25096 1.98975 0
M  V30 1940 H 165.963 7.51663 0.808656 0
M  V30 1941 H 167.231 7.53467 1.99769 0
M  V30 1942 N 171.46 0.379036 1.52974 0
M  V30 1943 C 172.37 -0.468639 2.29872 0
M  V30 1944 C 173.386 -1.08067 1.36373 0
M  V30 1945 O 174.562 -1.08871 1.69438 0
M  V30 1946 C 171.627 -1.58594 3.083 0
M  V30 1947 C 170.688 -1.00007 4.17489 0
M  V30 1948 C 169.921 -2.06413 4.92168 0
M  V30 1949 O 170.144 -3.27751 4.66835 0
M  V30 1950 O 169.078 -1.68717 5.7777 0
M  V30 1951 H 172.904 0.157508 3.03291 0
M  V30 1952 H 170.489 0.143035 1.48714 0
M  V30 1953 H 172.371 -2.23525 3.57232 0
M  V30 1954 H 171.046 -2.19724 2.37703 0
M  V30 1955 H 169.953 -0.314299 3.72777 0
M  V30 1956 H 171.286 -0.433135 4.90291 0
M  V30 1957 N 172.938 -1.57226 0.108567 0
M  V30 1958 C 173.848 -2.18292 -0.859401 0
M  V30 1959 C 174.864 -1.15612 -1.30038 0
M  V30 1960 O 176.04 -1.48039 -1.36552 0
M  V30 1961 C 173.105 -2.762 -2.09558 0
M  V30 1962 C 172.166 -3.93881 -1.70752 0
M  V30 1963 C 171.399 -4.49018 -2.88477 0
M  V30 1964 O 171.622 -4.03068 -4.036 0
M  V30 1965 O 170.556 -5.39852 -2.66164 0
M  V30 1966 H 174.382 -3.01441 -0.369769 0
M  V30 1967 H 171.967 -1.48945 -0.1165 0
M  V30 1968 H 173.849 -3.13156 -2.81978 0
M  V30 1969 H 172.524 -1.96089 -2.57548 0
M  V30 1970 H 171.431 -3.61713 -0.954714 0
M  V30 1971 H 172.764 -4.75396 -1.27513 0
M  V30 1972 N 174.416 0.165178 -1.56732 0
M  V30 1973 C 175.326 1.22423 -2.00125 0
M  V30 1974 C 176.342 1.48084 -0.913619 0
M  V30 1975 O 177.518 1.60112 -1.22172 0
M  V30 1976 C 174.583 2.54197 -2.35764 0
M  V30 1977 C 173.644 2.36343 -3.58386 0
M  V30 1978 C 172.877 3.61834 -3.92316 0
M  V30 1979 O 173.1 4.67267 -3.27135 0
M  V30 1980 O 172.034 3.55579 -4.85641 0
M  V30 1981 H 175.86 0.885886 -2.90492 0
M  V30 1982 H 173.445 0.372518 -1.44681 0
M  V30 1983 H 175.327 3.3192 -2.59629 0
M  V30 1984 H 174.002 2.87598 -1.48557 0
M  V30 1985 H 172.909 1.56632 -3.39731 0
M  V30 1986 H 174.242 2.07865 -4.46154 0
M  V30 1987 N 175.894 1.51508 0.433938 0
M  V30 1988 C 177.124 1.67914 1.20369 0
M  V30 1989 C 177.532 0.377461 1.85397 0
M  V30 1990 O 176.875 -0.654255 1.71654 0
M  V30 1991 C 176.937 2.74045 2.32679 0
M  V30 1992 C 176.601 4.16543 1.87991 0
M  V30 1993 C 177.598 5.01211 1.38145 0
M  V30 1994 C 175.283 4.6266 1.95579 0
M  V30 1995 C 177.277 6.30056 0.964774 0
M  V30 1996 C 174.964 5.91501 1.53523 0
M  V30 1997 C 175.962 6.75027 1.04055 0
M  V30 1998 O 175.65 8.01459 0.625964 0
M  V30 1999 H 175.382 0.566578 0.368735 0
M  V30 2000 H 177.936 1.98709 0.51999 0
M  V30 2001 H 176.166 2.38572 3.04336 0
M  V30 2002 H 177.855 2.79295 2.94532 0
M  V30 2003 H 178.621 4.66783 1.31675 0
M  V30 2004 H 174.5 3.97767 2.33029 0
M  V30 2005 H 178.044 6.95202 0.57796 0
M  V30 2006 H 173.941 6.25442 1.59665 0
M  V30 2007 H 174.709 8.15043 0.751509 0
M  V30 2008 N 177.372 -0.689602 1.41712 0
M  V30 2009 C 178.783 -1.26973 1.36875 0
M  V30 2010 C 179.134 -1.96124 0.054748 0
M  V30 2011 O 178.259 -1.99141 -0.84687 0
M  V30 2012 C 178.854 -2.30912 2.47922 0
M  V30 2013 C 177.413 -2.84486 2.46464 0
M  V30 2014 C 176.56 -1.58603 2.27465 0
M  V30 2015 H 179.511 -0.48396 1.51141 0
M  V30 2016 H 179.532 -3.12331 2.17323 0
M  V30 2017 H 179.044 -1.80554 3.43543 0
M  V30 2018 H 177.145 -3.39005 1.54617 0
M  V30 2019 H 177.258 -3.34511 3.42986 0
M  V30 2020 H 175.622 -1.84632 1.75451 0
M  V30 2021 H 176.405 -1.10233 3.25121 0
M  V30 2022 N 178.85 -1.27639 -0.924453 0
M  V30 2023 C 179.798 -1.10485 -2.04685 0
M  V30 2024 C 180.792 -0.0270421 -1.69378 0
M  V30 2025 O 181.998 -0.185008 -1.79047 0
M  V30 2026 H 178.373 -0.340546 -0.670472 0
M  V30 2027 H 180.344 -2.05566 -2.16298 0
M  V30 2028 C 179.093 -0.772229 -3.39016 0
M  V30 2029 H 178.416 -1.59351 -3.66671 0
M  V30 2030 H 179.856 -0.692097 -4.18313 0
M  V30 2031 C 178.315 0.523554 -3.32807 0
M  V30 2032 O 178.845 1.55702 -3.70297 0
M  V30 2033 N 177.051 0.520363 -2.85903 0
M  V30 2034 H 176.598 -0.32107 -2.55591 0
M  V30 2035 H 176.556 1.38742 -2.82131 0
M  V30 2036 N 180.328 1.1314 -1.09713 0
M  V30 2037 C 181.238 2.22242 -0.751367 0
M  V30 2038 C 182.254 1.72224 0.247938 0
M  V30 2039 O 183.43 2.01205 0.0885463 0
M  V30 2040 C 180.495 3.46231 -0.180274 0
M  V30 2041 C 179.556 4.11125 -1.2359 0
M  V30 2042 C 178.789 5.29195 -0.691966 0
M  V30 2043 O 179.012 5.68342 0.48414 0
M  V30 2044 O 177.946 5.84214 -1.44838 0
M  V30 2045 H 181.772 2.54197 -1.66186 0
M  V30 2046 H 179.357 1.21331 -0.871735 0
M  V30 2047 H 181.239 4.21185 0.134739 0
M  V30 2048 H 179.914 3.1597 0.703185 0
M  V30 2049 H 178.821 3.37985 -1.60366 0
M  V30 2050 H 180.154 4.45524 -2.09211 0
M  V30 2051 N 181.806 0.884767 1.30421 0
M  V30 2052 C 183.054 0.502112 1.95763 0
M  V30 2053 C 183.375 -0.951815 1.70192 0
M  V30 2054 O 182.645 -1.6692 1.0254 0
M  V30 2055 H 181.225 0.182694 0.724315 0
M  V30 2056 H 183.887 1.1278 1.58955 0
M  V30 2057 H 182.983 0.672188 3.04775 0
M  V30 2058 N 183.284 -1.43765 0.645699 0
M  V30 2059 C 184.561 -1.9541 0.0862963 0
M  V30 2060 C 184.941 -1.58725 -1.39175 0
M  V30 2061 O 184.289 -0.868581 -2.11348 0
M  V30 2062 C 184.499 -3.47488 0.324565 0
M  V30 2063 C 185.847 -4.24001 0.225497 0
M  V30 2064 O 186.871 -3.55274 0.256715 0
M  V30 2065 O 185.73 -5.46313 0.142801 0
M  V30 2066 H 182.824 -0.826882 -0.0139483 0
M  V30 2067 H 185.37 -1.53743 0.718415 0
M  V30 2068 H 184.142 -3.67289 1.3496 0
M  V30 2069 H 183.765 -3.96135 -0.340987 0
M  V30 2070 N 184.763 -0.387143 -1.52771 0
M  V30 2071 C 186.012 0.19697 -2.00736 0
M  V30 2072 C 186.325 1.48082 -1.27793 0
M  V30 2073 O 187.531 2.14485 -1.66458 0
M  V30 2074 C 185.987 0.401568 -3.57653 0
M  V30 2075 C 185.595 -0.868907 -4.39493 0
M  V30 2076 C 187.339 0.942164 -4.13912 0
M  V30 2077 C 185.246 -0.632705 -5.88006 0
M  V30 2078 H 184.176 0.0773827 -0.750019 0
M  V30 2079 H 186.827 -0.50921 -1.76293 0
M  V30 2080 H 185.209 1.16954 -3.78335 0
M  V30 2081 H 186.383 -1.64133 -4.30577 0
M  V30 2082 H 184.698 -1.33429 -3.94443 0
M  V30 2083 H 187.295 1.13455 -5.22525 0
M  V30 2084 H 187.638 1.9106 -3.69867 0
M  V30 2085 H 188.171 0.233814 -3.97112 0
M  V30 2086 H 184.91 -1.57208 -6.36369 0
M  V30 2087 H 184.43 0.100825 -5.99715 0
M  V30 2088 H 186.109 -0.26642 -6.46451 0
M  V30 2089 N 186.241 1.57166 -0.116904 0
M  V30 2090 C 187.471 1.99184 0.548586 0
M  V30 2091 C 187.879 0.995436 1.60897 0
M  V30 2092 O 187.222 -0.0201293 1.83689 0
M  V30 2093 C 187.284 3.37611 1.23526 0
M  V30 2094 C 186.948 4.55857 0.323077 0
M  V30 2095 C 187.945 5.18056 -0.437476 0
M  V30 2096 C 185.63 5.01751 0.234761 0
M  V30 2097 C 187.624 6.24536 -1.2741 0
M  V30 2098 C 185.311 6.08093 -0.605496 0
M  V30 2099 C 186.309 6.69352 -1.35856 0
M  V30 2100 O 185.997 7.7364 -2.18487 0
M  V30 2101 H 185.729 0.659148 0.149999 0
M  V30 2102 H 188.283 2.0443 -0.199428 0
M  V30 2103 H 186.513 3.29113 2.0303 0
M  V30 2104 H 188.202 3.63932 1.79745 0
M  V30 2105 H 188.968 4.83516 -0.379105 0
M  V30 2106 H 184.847 4.53817 0.810601 0
M  V30 2107 H 188.391 6.72281 -1.86237 0
M  V30 2108 H 184.288 6.42063 -0.665268 0
M  V30 2109 H 185.056 7.90727 -2.11406 0
M  V30 2110 N 187.719 -0.156864 1.56817 0
M  V30 2111 C 188.967 -0.869404 1.82444 0
M  V30 2112 C 189.288 -1.82147 0.69623 0
M  V30 2113 O 188.558 -1.93847 -0.28287 0
M  V30 2114 H 187.138 -0.324043 0.673056 0
M  V30 2115 H 189.8 -0.153224 1.94297 0
M  V30 2116 H 188.896 -1.43761 2.77019 0
M  V30 2117 N 189.197 -1.51736 -0.425897 0
M  V30 2118 C 190.446 -1.64201 -1.17136 0
M  V30 2119 C 190.759 -0.369705 -1.92074 0
M  V30 2120 O 191.965 -0.373898 -2.68913 0
M  V30 2121 C 190.421 -2.90035 -2.13091 0
M  V30 2122 C 190.029 -4.24312 -1.43747 0
M  V30 2123 C 191.773 -3.1186 -2.87999 0
M  V30 2124 C 189.68 -5.41285 -2.38253 0
M  V30 2125 H 188.61 -0.611624 -0.440944 0
M  V30 2126 H 191.261 -1.78212 -0.437328 0
M  V30 2127 H 189.643 -2.69684 -2.89977 0
M  V30 2128 H 190.817 -4.55086 -0.723408 0
M  V30 2129 H 189.132 -4.08456 -0.809465 0
M  V30 2130 H 191.729 -3.96427 -3.58817 0
M  V30 2131 H 192.072 -2.25403 -3.49999 0
M  V30 2132 H 192.605 -3.32605 -2.18217 0
M  V30 2133 H 189.344 -6.30037 -1.80925 0
M  V30 2134 H 188.864 -5.14872 -3.0768 0
M  V30 2135 H 190.543 -5.73694 -2.99139 0
M  V30 2136 N 190.675 0.682077 -1.42076 0
M  V30 2137 C 191.605 1.80796 -1.47767 0
M  V30 2138 C 192.586 1.6677 -0.334954 0
M  V30 2139 O 193.771 1.863 -0.548264 0
M  V30 2140 C 190.901 3.19038 -1.37229 0
M  V30 2141 C 189.855 3.47789 -2.49453 0
M  V30 2142 C 189.181 4.8553 -2.23975 0
M  V30 2143 C 190.481 3.45411 -3.91776 0
M  V30 2144 H 192.175 1.7629 -2.41997 0
M  V30 2145 H 189.721 0.846721 -1.16476 0
M  V30 2146 H 191.674 3.97528 -1.39821 0
M  V30 2147 H 190.398 3.24204 -0.394907 0
M  V30 2148 H 189.057 2.71657 -2.46166 0
M  V30 2149 H 188.705 4.87337 -1.24547 0
M  V30 2150 H 188.405 5.0573 -2.99184 0
M  V30 2151 H 189.929 5.66312 -2.28304 0
M  V30 2152 H 191.343 4.13882 -3.96705 0
M  V30 2153 H 189.74 3.77145 -4.66778 0
M  V30 2154 H 190.81 2.44122 -4.18966 0
M  V30 2155 N 192.153 1.28127 0.917671 0
M  V30 2156 C 193.101 1.11569 2.04096 0
M  V30 2157 C 194.095 0.0360242 1.69362 0
M  V30 2158 O 195.301 0.194501 1.78946 0
M  V30 2159 H 191.676 0.344097 0.668656 0
M  V30 2160 H 193.647 2.06711 2.15205 0
M  V30 2161 C 192.396 0.790197 3.38602 0
M  V30 2162 H 191.719 1.61293 3.6582 0
M  V30 2163 H 193.159 0.714271 4.1794 0
M  V30 2164 C 191.618 -0.505897 3.3308 0
M  V30 2165 O 192.148 -1.53736 3.71117 0
M  V30 2166 N 190.354 -0.505193 2.86175 0
M  V30 2167 H 189.901 0.334621 2.55417 0
M  V30 2168 H 189.859 -1.37243 2.82863 0
M  V30 2169 N 193.631 -1.12557 1.10312 0
M  V30 2170 C 194.908 -1.80363 0.756878 0
M  V30 2171 C 195.288 -1.97067 -0.756824 0
M  V30 2172 O 194.636 -1.54601 -1.68259 0
M  V30 2173 C 194.846 -3.14812 1.50647 0
M  V30 2174 C 196.194 -3.90029 1.67817 0
M  V30 2175 O 197.218 -3.24464 1.46974 0
M  V30 2176 O 196.077 -5.07652 2.02365 0
M  V30 2177 H 193.171 -0.780667 0.272926 0
M  V30 2178 H 195.717 -1.19404 1.20586 0
M  V30 2179 H 194.489 -2.97936 2.53672 0
M  V30 2180 H 194.112 -3.83478 1.05026 0
M  V30 2181 N 195.109 -0.891671 -1.2995 0
M  V30 2182 C 196.358 -0.509521 -1.95158 0
M  V30 2183 C 196.671 0.947388 -1.71125 0
M  V30 2184 O 197.877 1.43669 -2.30372 0
M  V30 2185 C 196.333 -0.860315 -3.49466 0
M  V30 2186 C 195.941 -2.33545 -3.8231 0
M  V30 2187 C 197.685 -0.547687 -4.20952 0
M  V30 2188 C 195.592 -2.62752 -5.29826 0
M  V30 2189 H 194.522 -0.18682 -0.730489 0
M  V30 2190 H 197.173 -1.08756 -1.47798 0
M  V30 2191 H 195.555 -0.211285 -3.95436 0
M  V30 2192 H 196.729 -3.02936 -3.47227 0
M  V30 2193 H 195.044 -2.61629 -3.23944 0
M  V30 2194 H 197.641 -0.742854 -5.29515 0
M  V30 2195 H 197.984 0.51332 -4.13123 0
M  V30 2196 H 198.517 -1.1542 -3.80688 0
M  V30 2197 H 195.256 -3.6762 -5.42712 0
M  V30 2198 H 194.776 -1.97977 -5.66185 0
M  V30 2199 H 196.455 -2.48601 -5.97333 0
M  V30 2200 N 196.587 1.43421 -0.653314 0
M  V30 2201 C 197.497 2.34568 0.0388565 0
M  V30 2202 C 198.513 1.53888 0.81207 0
M  V30 2203 O 199.689 1.86539 0.759294 0
M  V30 2204 C 196.754 3.32167 0.993269 0
M  V30 2205 C 195.815 4.28751 0.216977 0
M  V30 2206 C 195.048 5.21688 1.12593 0
M  V30 2207 O 195.271 5.19052 2.36519 0
M  V30 2208 O 194.205 5.98919 0.598284 0
M  V30 2209 H 198.031 2.95251 -0.711386 0
M  V30 2210 H 195.616 1.43564 -0.413502 0
M  V30 2211 H 197.498 3.92183 1.54176 0
M  V30 2212 H 196.173 2.73987 1.72374 0
M  V30 2213 H 195.08 3.72215 -0.375101 0
M  V30 2214 H 196.413 4.89913 -0.473924 0
M  V30 2215 N 198.065 0.39524 1.52563 0
M  V30 2216 C 198.995 -0.428384 2.29537 0
M  V30 2217 C 199.976 -1.05831 1.33169 0
M  V30 2218 O 201.161 -1.06995 1.62067 0
M  V30 2219 C 198.291 -1.55274 3.10656 0
M  V30 2220 C 197.245 -1.04855 4.14957 0
M  V30 2221 C 196.571 -2.26543 4.84337 0
M  V30 2222 C 197.871 -0.112324 5.22179 0
M  V30 2223 H 199.565 0.213867 2.98635 0
M  V30 2224 H 197.111 0.104298 1.43622 0
M  V30 2225 H 199.064 -2.1358 3.63265 0
M  V30 2226 H 197.788 -2.22266 2.39302 0
M  V30 2227 H 196.447 -0.487985 3.63338 0
M  V30 2228 H 196.095 -2.92059 4.09525 0
M  V30 2229 H 195.795 -1.93466 5.54837 0
M  V30 2230 H 197.319 -2.85481 5.39753 0
M  V30 2231 H 198.733 -0.603752 5.70112 0
M  V30 2232 H 197.13 0.128968 5.99961 0
M  V30 2233 H 198.2 0.837052 4.77621 0
M  V30 2234 N 199.544 -1.57102 0.125237 0
M  V30 2235 C 200.793 -1.94582 -0.531095 0
M  V30 2236 C 201.106 -1.01126 -1.6743 0
M  V30 2237 O 202.312 -1.28097 -2.39381 0
M  V30 2238 C 200.768 -3.45839 -0.996164 0
M  V30 2239 C 200.376 -4.47842 0.118926 0
M  V30 2240 C 202.12 -3.92227 -1.62352 0
M  V30 2241 C 200.027 -5.90284 -0.363192 0
M  V30 2242 H 198.957 -0.726391 -0.20217 0
M  V30 2243 H 201.608 -1.82339 0.206092 0
M  V30 2244 H 199.99 -3.53338 -1.78796 0
M  V30 2245 H 201.164 -4.52018 0.895358 0
M  V30 2246 H 199.479 -4.11243 0.653324 0
M  V30 2247 H 202.076 -4.96069 -1.99548 0
M  V30 2248 H 202.419 -3.32552 -2.50429 0
M  V30 2249 H 202.952 -3.87554 -0.897019 0
M  V30 2250 H 199.691 -6.53728 0.481679 0
M  V30 2251 H 199.211 -5.89515 -1.10597 0
M  V30 2252 H 200.89 -6.41752 -0.822377 0
M  V30 2253 N 201.022 0.148545 -1.56898 0
M  V30 2254 C 202.271 0.85984 -1.82454 0
M  V30 2255 C 202.584 1.82406 -0.706229 0
M  V30 2256 O 203.79 2.57938 -0.847349 0
M  V30 2257 C 202.246 1.57967 -3.2338 0
M  V30 2258 C 201.854 0.65794 -4.43142 0
M  V30 2259 C 203.598 2.27784 -3.58211 0
M  V30 2260 C 201.505 1.3793 -5.75091 0
M  V30 2261 H 200.435 0.324834 -0.68044 0
M  V30 2262 H 203.086 0.112588 -1.83154 0
M  V30 2263 H 201.468 2.37249 -3.17063 0
M  V30 2264 H 202.642 -0.0995497 -4.60692 0
M  V30 2265 H 200.957 0.0682643 -4.16344 0
M  V30 2266 H 203.554 2.8239 -4.54048 0
M  V30 2267 H 203.897 3.04204 -2.84193 0
M  V30 2268 H 204.43 1.55421 -3.66182 0
M  V30 2269 H 201.169 0.656982 -6.52199 0
M  V30 2270 H 200.689 2.10954 -5.61479 0
M  V30 2271 H 202.368 1.92063 -6.17835 0
M  V30 2272 N 202.5 1.5196 0.417844 0
M  V30 2273 C 203.45 1.7106 1.5074 0
M  V30 2274 C 204.434 0.564487 1.50673 0
M  V30 2275 O 205.626 0.821206 1.56797 0
M  V30 2276 C 202.755 1.85677 2.88754 0
M  V30 2277 C 201.841 3.06133 2.93502 0
M  V30 2278 N 202.232 4.28987 2.67962 0
M  V30 2279 C 200.53 3.05787 3.24669 0
M  V30 2280 C 201.231 5.10395 2.79055 0
M  V30 2281 N 200.207 4.45455 3.11561 0
M  V30 2282 H 204.009 2.63696 1.29775 0
M  V30 2283 H 201.523 1.49873 0.625436 0
M  V30 2284 H 203.52 1.97475 3.67164 0
M  V30 2285 H 202.18 0.942348 3.10725 0
M  V30 2286 H 203.191 4.57607 2.4252 0
M  V30 2287 H 199.868 2.2405 3.52289 0
M  V30 2288 H 201.258 6.18247 2.63097 0
M  V30 2289 N 203.978 -0.674533 1.42435 0
M  V30 2290 C 204.925 -1.78807 1.45934 0
M  V30 2291 C 205.895 -1.63157 0.311271 0
M  V30 2292 O 207.08 -1.83707 0.515383 0
M  V30 2293 C 204.22 -3.16839 1.36773 0
M  V30 2294 C 203.333 -3.43774 2.61617 0
M  V30 2295 C 202.468 -4.71536 2.44597 0
M  V30 2296 C 201.507 -4.91505 3.64814 0
M  V30 2297 N 200.644 -6.10508 3.46734 0
M  V30 2298 H 205.484 -1.75151 2.41093 0
M  V30 2299 H 203.021 -0.85504 1.19697 0
M  V30 2300 H 204.979 -3.96606 1.29459 0
M  V30 2301 H 203.609 -3.19619 0.452089 0
M  V30 2302 H 202.661 -2.58259 2.79297 0
M  V30 2303 H 203.973 -3.54423 3.50978 0
M  V30 2304 H 203.127 -5.59393 2.3487 0
M  V30 2305 H 201.866 -4.6317 1.52726 0
M  V30 2306 H 200.871 -4.0209 3.74972 0
M  V30 2307 H 202.096 -5.01716 4.57665 0
M  V30 2308 H 200.042 -6.03315 2.5758 0
M  V30 2309 H 199.959 -6.2202 4.29682 0
M  V30 2310 H 201.227 -7.01044 3.40819 0
M  V30 2311 N 205.456 -1.28612 -0.910864 0
M  V30 2312 C 206.696 -1.1719 -1.67469 0
M  V30 2313 C 207.06 0.274441 -1.90028 0
M  V30 2314 O 208.261 0.511425 -2.6389 0
M  V30 2315 C 206.532 -1.95137 -2.99427 0
M  V30 2316 S 208.091 -2.00122 -3.90508 0
M  V30 2317 H 204.909 -0.41806 -0.575106 0
M  V30 2318 H 207.511 -1.6275 -1.08317 0
M  V30 2319 H 206.215 -2.99381 -2.80712 0
M  V30 2320 H 205.746 -1.50137 -3.63624 0
M  V30 2321 H 207.761 -1.10981 -4.8363 0
M  V30 2322 N 206.934 1.1197 -1.10907 0
M  V30 2323 C 208.159 1.87942 -0.877064 0
M  V30 2324 C 208.584 1.79341 0.567314 0
M  V30 2325 O 207.942 1.15184 1.40009 0
M  V30 2326 C 207.99 3.34926 -1.33629 0
M  V30 2327 O 207.094 4.09303 -0.504447 0
M  V30 2328 H 206.435 0.583785 -0.316371 0
M  V30 2329 H 208.965 1.4157 -1.47712 0
M  V30 2330 H 208.975 3.8577 -1.32837 0
M  V30 2331 H 207.65 3.40504 -2.3881 0
M  V30 2332 H 206.227 3.68393 -0.577993 0
M  V30 2333 N 208.412 0.89855 1.29475 0
M  V30 2334 C 209.66 0.522847 1.9522 0
M  V30 2335 C 209.981 -0.93371 1.71192 0
M  V30 2336 O 209.251 -1.65823 1.04305 0
M  V30 2337 H 207.831 0.190366 0.722336 0
M  V30 2338 H 210.493 1.14459 1.5775 0
M  V30 2339 H 209.589 0.704476 3.04045 0
M  V30 2340 N 209.89 -1.43072 0.660911 0
M  V30 2341 C 211.137 -2.01721 0.177445 0
M  V30 2342 C 211.465 -1.5218 -1.21126 0
M  V30 2343 O 210.72 -0.708659 -1.82419 0
M  V30 2344 C 211.019 -3.57103 0.145563 0
M  V30 2345 C 210.685 -4.26021 1.47705 0
M  V30 2346 C 209.347 -4.44563 1.84165 0
M  V30 2347 C 211.699 -4.64983 2.35458 0
M  V30 2348 C 209.027 -4.99334 3.0803 0
M  V30 2349 C 211.379 -5.21127 3.58622 0
M  V30 2350 C 210.043 -5.37884 3.95268 0
M  V30 2351 H 209.313 -0.73815 0.0649317 0
M  V30 2352 H 211.96 -1.71446 0.853144 0
M  V30 2353 H 210.265 -3.86965 -0.61361 0
M  V30 2354 H 211.962 -4.00248 -0.2455 0
M  V30 2355 H 208.552 -4.11939 1.18339 0
M  V30 2356 H 212.736 -4.50343 2.08579 0
M  V30 2357 H 207.992 -5.10493 3.36462 0
M  V30 2358 H 212.166 -5.50262 4.26831 0
M  V30 2359 H 209.793 -5.80089 4.91325 0
M  V30 2360 N 211.368 -0.403325 -1.52352 0
M  V30 2361 C 212.616 0.174003 -2.0135 0
M  V30 2362 C 212.937 1.46139 -1.29106 0
M  V30 2363 O 212.207 1.91448 -0.415253 0
M  V30 2364 H 210.787 0.0672911 -0.743963 0
M  V30 2365 H 213.449 -0.538235 -1.87321 0
M  V30 2366 H 212.545 0.374254 -3.09848 0
M  V30 2367 N 212.846 1.57033 -0.133567 0
M  V30 2368 C 214.093 1.95686 0.520877 0
M  V30 2369 C 214.421 1.0177 1.6575 0
M  V30 2370 O 213.676 0.0443195 1.9565 0
M  V30 2371 C 213.975 3.40674 1.08057 0
M  V30 2372 C 213.641 4.50855 0.0637899 0
M  V30 2373 C 212.303 4.80716 -0.215757 0
M  V30 2374 C 214.655 5.17398 -0.62835 0
M  V30 2375 C 211.983 5.74433 -1.19348 0
M  V30 2376 C 214.335 6.12167 -1.5948 0
M  V30 2377 C 212.999 6.40414 -1.88218 0
M  V30 2378 H 212.269 0.716067 0.190602 0
M  V30 2379 H 214.916 1.9026 -0.217556 0
M  V30 2380 H 213.221 3.42865 1.89606 0
M  V30 2381 H 214.918 3.67902 1.59529 0
M  V30 2382 H 211.508 4.27605 0.291855 0
M  V30 2383 H 215.692 4.94472 -0.425562 0
M  V30 2384 H 210.948 5.94616 -1.42272 0
M  V30 2385 H 215.122 6.6281 -2.13671 0
M  V30 2386 H 212.749 7.12838 -2.64133 0
M  V30 2387 N 214.325 -0.140222 1.56975 0
M  V30 2388 C 215.273 -1.19207 1.99731 0
M  V30 2389 C 216.267 -1.44089 0.890777 0
M  V30 2390 O 217.473 -1.44301 1.07597 0
M  V30 2391 H 213.848 -0.40142 0.635898 0
M  V30 2392 H 215.819 -0.804813 2.87342 0
M  V30 2393 C 214.568 -2.51617 2.39967 0
M  V30 2394 H 213.891 -2.33303 3.24669 0
M  V30 2395 H 215.331 -3.23827 2.73701 0
M  V30 2396 C 213.79 -3.12654 1.25496 0
M  V30 2397 O 214.32 -3.97786 0.559371 0
M  V30 2398 N 212.526 -2.72206 1.01746 0
M  V30 2399 H 212.073 -2.03074 1.58489 0
M  V30 2400 H 212.031 -3.13377 0.253461 0
M  V30 2401 N 215.803 -1.52179 -0.40978 0
M  V30 2402 C 216.733 -1.78435 -1.5061 0
M  V30 2403 C 217.714 -0.635295 -1.57791 0
M  V30 2404 O 218.899 -0.880823 -1.73076 0
M  V30 2405 C 216.029 -1.93444 -2.88439 0
M  V30 2406 C 214.983 -3.09038 -2.96108 0
M  V30 2407 C 214.309 -3.09268 -4.36185 0
M  V30 2408 C 215.609 -4.48508 -2.67652 0
M  V30 2409 H 217.303 -2.70237 -1.28889 0
M  V30 2410 H 214.849 -1.30036 -0.618605 0
M  V30 2411 H 216.802 -2.10394 -3.65119 0
M  V30 2412 H 215.526 -0.983129 -3.11452 0
M  V30 2413 H 214.185 -2.91837 -2.21872 0
M  V30 2414 H 213.833 -2.11861 -4.56206 0
M  V30 2415 H 213.533 -3.86907 -4.42241 0
M  V30 2416 H 215.057 -3.28348 -5.14801 0
M  V30 2417 H 216.471 -4.65918 -3.34056 0
M  V30 2418 H 214.868 -5.28059 -2.85085 0
M  V30 2419 H 215.938 -4.56649 -1.63095 0
M  V30 2420 N 217.281 0.66697 -1.42791 0
M  V30 2421 C 218.529 1.42417 -1.43394 0
M  V30 2422 C 218.85 1.94925 -0.0542373 0
M  V30 2423 O 218.12 1.73564 0.908415 0
M  V30 2424 H 216.7 0.528515 -0.527902 0
M  V30 2425 H 219.362 0.787562 -1.78279 0
M  V30 2426 H 218.458 2.27333 -2.13837 0
M  V30 2427 N 218.759 1.29093 0.90403 0
M  V30 2428 C 219.669 1.15727 2.0407 0
M  V30 2429 C 220.685 0.0815308 1.73809 0
M  V30 2430 O 221.861 0.292749 1.99261 0
M  V30 2431 C 218.926 0.830424 3.36608 0
M  V30 2432 C 217.987 1.98955 3.80415 0
M  V30 2433 C 217.22 1.6782 5.06628 0
M  V30 2434 O 217.443 0.597105 5.67266 0
M  V30 2435 O 216.377 2.52486 5.46383 0
M  V30 2436 H 220.203 2.11171 2.18267 0
M  V30 2437 H 217.788 1.08504 1.027 0
M  V30 2438 H 219.67 0.662521 4.16159 0
M  V30 2439 H 218.345 -0.0942678 3.23563 0
M  V30 2440 H 217.252 2.21267 3.01648 0
M  V30 2441 H 218.585 2.89529 3.98037 0
M  V30 2442 N 220.237 -1.11381 1.11499 0
M  V30 2443 C 221.167 -2.19509 0.796125 0
M  V30 2444 C 222.148 -1.68458 -0.235796 0
M  V30 2445 O 223.333 -1.93947 -0.0991344 0
M  V30 2446 C 220.463 -3.46475 0.239205 0
M  V30 2447 C 219.417 -4.10744 1.20307 0
M  V30 2448 C 218.743 -5.32293 0.50683 0
M  V30 2449 C 220.043 -4.55597 2.55399 0
M  V30 2450 H 221.737 -2.46439 1.70024 0
M  V30 2451 H 219.283 -1.18446 0.818935 0
M  V30 2452 H 221.236 -4.214 0.00392006 0
M  V30 2453 H 219.96 -3.19006 -0.700206 0
M  V30 2454 H 218.619 -3.37813 1.42399 0
M  V30 2455 H 218.267 -5.01095 -0.437408 0
M  V30 2456 H 217.967 -5.76243 1.1497 0
M  V30 2457 H 219.491 -6.09956 0.280351 0
M  V30 2458 H 220.905 -5.21841 2.37391 0
M  V30 2459 H 219.302 -5.10363 3.15673 0
M  V30 2460 H 220.372 -3.69013 3.14575 0
M  V30 2461 N 221.715 -0.905404 -1.28997 0
M  V30 2462 C 222.645 -0.404212 -2.29975 0
M  V30 2463 C 223.626 0.523784 -1.61835 0
M  V30 2464 O 224.811 0.433298 -1.89304 0
M  V30 2465 C 221.941 0.364042 -3.45387 0
M  V30 2466 C 220.895 -0.474048 -4.25367 0
M  V30 2467 C 220.221 0.422045 -5.33032 0
M  V30 2468 C 221.521 -1.72696 -4.92923 0
M  V30 2469 H 223.215 -1.24807 -2.72146 0
M  V30 2470 H 220.761 -0.601585 -1.30832 0
M  V30 2471 H 222.714 0.725447 -4.15109 0
M  V30 2472 H 221.438 1.24174 -3.02074 0
M  V30 2473 H 220.097 -0.81786 -3.57361 0
M  V30 2474 H 219.745 1.29804 -4.85963 0
M  V30 2475 H 219.445 -0.135057 -5.87445 0
M  V30 2476 H 220.969 0.779517 -6.05604 0
M  V30 2477 H 222.383 -1.43495 -5.55051 0
M  V30 2478 H 220.78 -2.22582 -5.57295 0
M  V30 2479 H 221.85 -2.45964 -4.17887 0
M  V30 2480 N 223.193 1.4272 -0.668489 0
M  V30 2481 C 224.418 2.06484 -0.194758 0
M  V30 2482 C 224.843 1.49862 1.13679 0
M  V30 2483 O 224.201 0.614582 1.70565 0
M  V30 2484 C 224.249 3.60353 -0.133546 0
M  V30 2485 O 223.353 4.02464 0.899806 0
M  V30 2486 H 222.694 0.656137 -0.10188 0
M  V30 2487 H 225.224 1.82964 -0.915722 0
M  V30 2488 H 225.234 4.07976 0.0447041 0
M  V30 2489 H 223.909 4.00938 -1.1055 0
M  V30 2490 H 222.486 3.66402 0.693109 0
M  V30 2491 N 224.671 0.411399 1.52136 0
M  V30 2492 C 225.899 -0.163076 2.06256 0
M  V30 2493 C 226.314 -1.3867 1.28125 0
M  V30 2494 O 225.671 -1.79423 0.333721 0
M  V30 2495 C 225.722 -0.511252 3.57867 0
M  V30 2496 O 225.443 0.66378 4.33042 0
M  V30 2497 C 226.944 -1.13921 4.28412 0
M  V30 2498 H 224.164 -0.0193897 0.67072 0
M  V30 2499 H 226.708 0.583007 1.96013 0
M  V30 2500 H 224.863 -1.20723 3.6811 0
M  V30 2501 H 225.277 0.372601 5.23175 0
M  V30 2502 H 226.751 -1.33302 5.35663 0
M  V30 2503 H 227.228 -2.11296 3.85033 0
M  V30 2504 H 227.834 -0.483373 4.22544 0
M  V30 2505 N 226.149 -1.5696 0.141893 0
M  V30 2506 C 227.379 -2.00031 -0.516828 0
M  V30 2507 C 227.787 -1.02091 -1.59293 0
M  V30 2508 O 227.13 -0.00909657 -1.83698 0
M  V30 2509 C 227.192 -3.39534 -1.1814 0
M  V30 2510 C 226.856 -4.56313 -0.250513 0
M  V30 2511 C 227.853 -5.17295 0.519839 0
M  V30 2512 C 225.538 -5.02061 -0.154907 0
M  V30 2513 C 227.532 -6.2243 1.3733 0
M  V30 2514 C 225.219 -6.07053 0.702161 0
M  V30 2515 C 226.217 -6.67106 1.46487 0
M  V30 2516 O 225.905 -7.70066 2.30767 0
M  V30 2517 H 225.637 -0.661451 -0.139493 0
M  V30 2518 H 228.191 -2.04086 0.231926 0
M  V30 2519 H 226.421 -3.32302 -1.97769 0
M  V30 2520 H 228.11 -3.66745 -1.73933 0
M  V30 2521 H 228.876 -4.82852 0.45598 0
M  V30 2522 H 224.755 -4.5505 -0.7383 0
M  V30 2523 H 228.299 -6.69233 1.96909 0
M  V30 2524 H 224.196 -6.40923 0.76733 0
M  V30 2525 H 224.964 -7.87264 2.23959 0
M  V30 2526 N 227.627 0.131896 -1.57047 0
M  V30 2527 C 228.874 0.841932 -1.84168 0
M  V30 2528 C 229.202 1.8048 -0.725066 0
M  V30 2529 O 228.457 1.93618 0.284692 0
M  V30 2530 C 228.756 1.63703 -3.17704 0
M  V30 2531 C 228.422 0.81961 -4.43388 0
M  V30 2532 C 227.084 0.594148 -4.77518 0
M  V30 2533 C 229.436 0.248977 -5.20605 0
M  V30 2534 C 226.764 -0.212409 -5.86315 0
M  V30 2535 C 229.116 -0.544701 -6.30251 0
M  V30 2536 C 227.78 -0.780599 -6.6292 0
M  V30 2537 H 227.05 0.308085 -0.673917 0
M  V30 2538 H 229.697 0.104867 -1.91213 0
M  V30 2539 H 228.002 2.44464 -3.06177 0
M  V30 2540 H 229.699 2.19015 -3.35907 0
M  V30 2541 H 226.289 1.00542 -4.16641 0
M  V30 2542 H 230.473 0.410408 -4.946 0
M  V30 2543 H 225.729 -0.404524 -6.1006 0
M  V30 2544 H 229.903 -0.993922 -6.89271 0
M  V30 2545 H 227.53 -1.40742 -7.47058 0
M  V30 2546 N 229.106 1.52395 0.401703 0
M  V30 2547 C 230.334 1.70676 1.16949 0
M  V30 2548 C 230.749 0.419503 1.8408 0
M  V30 2549 O 230.106 -0.605061 1.72178 0
M  V30 2550 C 230.157 2.84753 2.22706 0
M  V30 2551 O 229.878 4.08495 1.58314 0
M  V30 2552 C 231.379 3.14608 3.12309 0
M  V30 2553 H 228.599 0.571787 0.351142 0
M  V30 2554 H 231.143 1.98987 0.471652 0
M  V30 2555 H 229.298 2.58941 2.88147 0
M  V30 2556 H 229.712 4.72117 2.28485 0
M  V30 2557 H 231.186 3.97923 3.82572 0
M  V30 2558 H 231.663 2.28464 3.75101 0
M  V30 2559 H 232.269 3.42212 2.52529 0
M  V30 2560 N 230.584 -0.659388 1.43143 0
M  V30 2561 C 231.514 -1.78422 1.50625 0
M  V30 2562 C 232.495 -1.66216 0.361443 0
M  V30 2563 O 233.68 -1.85404 0.577834 0
M  V30 2564 C 230.81 -3.16815 1.42287 0
M  V30 2565 C 229.764 -3.43777 2.54954 0
M  V30 2566 C 229.09 -4.81905 2.31671 0
M  V30 2567 C 230.39 -3.39134 3.97222 0
M  V30 2568 H 232.084 -1.72417 2.44771 0
M  V30 2569 H 229.63 -0.828084 1.17808 0
M  V30 2570 H 231.583 -3.95253 1.46127 0
M  V30 2571 H 230.307 -3.23534 0.446435 0
M  V30 2572 H 228.966 -2.67707 2.50457 0
M  V30 2573 H 228.614 -4.85294 1.32284 0
M  V30 2574 H 228.314 -5.00906 3.07192 0
M  V30 2575 H 229.838 -5.62609 2.37284 0
M  V30 2576 H 231.252 -4.07518 4.03239 0
M  V30 2577 H 229.649 -3.69671 4.72719 0
M  V30 2578 H 230.719 -2.37426 4.22797 0
M  V30 2579 N 232.062 -1.29571 -0.897171 0
M  V30 2580 C 233.025 -1.14913 -1.98312 0
M  V30 2581 C 234.025 -0.0838629 -1.60581 0
M  V30 2582 O 235.215 -0.331006 -1.71026 0
M  V30 2583 C 232.347 -0.757835 -3.3237 0
M  V30 2584 H 233.54 -2.11377 -2.12743 0
M  V30 2585 H 231.093 -1.12793 -1.08201 0
M  V30 2586 H 231.828 0.206837 -3.2364 0
M  V30 2587 H 231.613 -1.52755 -3.61121 0
M  V30 2588 H 233.103 -0.678408 -4.12053 0
M  V30 2589 N 233.54 1.10788 -1.12088 0
M  V30 2590 C 234.789 1.82036 -0.868659 0
M  V30 2591 C 235.102 1.85929 0.607426 0
M  V30 2592 O 236.308 2.53346 0.97613 0
M  V30 2593 C 234.764 3.26951 -1.50435 0
M  V30 2594 C 234.372 3.31367 -3.01496 0
M  V30 2595 C 236.116 4.03053 -1.33225 0
M  V30 2596 C 234.023 4.7072 -3.58017 0
M  V30 2597 H 232.953 0.682108 -0.321318 0
M  V30 2598 H 235.604 1.24618 -1.34694 0
M  V30 2599 H 233.986 3.84343 -0.953735 0
M  V30 2600 H 235.16 2.83819 -3.6302 0
M  V30 2601 H 233.475 2.6875 -3.18061 0
M  V30 2602 H 236.072 5.05981 -1.72878 0
M  V30 2603 H 236.415 4.15387 -0.275529 0
M  V30 2604 H 236.948 3.52066 -1.85188 0
M  V30 2605 H 233.687 4.63585 -4.63432 0
M  V30 2606 H 233.207 5.1865 -3.01268 0
M  V30 2607 H 234.886 5.39685 -3.56859 0
M  V30 2608 N 235.018 0.912232 1.28515 0
M  V30 2609 C 235.965 0.397954 2.27343 0
M  V30 2610 C 236.935 -0.526766 1.57526 0
M  V30 2611 O 238.12 -0.449292 1.85435 0
M  V30 2612 C 235.26 -0.357263 3.43246 0
M  V30 2613 C 234.373 0.599788 4.27816 0
M  V30 2614 C 233.508 -0.173725 5.30916 0
M  V30 2615 C 232.547 0.777039 6.07148 0
M  V30 2616 N 231.684 0.0371398 7.0209 0
M  V30 2617 H 236.524 1.24577 2.70711 0
M  V30 2618 H 234.061 0.625612 1.33133 0
M  V30 2619 H 236.019 -0.8113 4.09236 0
M  V30 2620 H 234.649 -1.16943 3.00872 0
M  V30 2621 H 233.701 1.17235 3.61884 0
M  V30 2622 H 235.013 1.32704 4.80823 0
M  V30 2623 H 234.167 -0.688394 6.02782 0
M  V30 2624 H 232.906 -0.934041 4.78672 0
M  V30 2625 H 231.911 1.3031 5.34134 0
M  V30 2626 H 233.136 1.53689 6.61481 0
M  V30 2627 H 231.082 -0.705213 6.52198 0
M  V30 2628 H 230.999 0.704249 7.52713 0
M  V30 2629 H 232.267 -0.457383 7.78157 0
M  V30 2630 N 236.496 -1.42363 0.676048 0
M  V30 2631 C 237.736 -2.03392 0.20273 0
M  V30 2632 C 238.1 -1.52306 -1.16906 0
M  V30 2633 O 239.301 -2.05129 -1.73711 0
M  V30 2634 C 237.572 -3.56614 0.236947 0
M  V30 2635 S 239.131 -4.38489 -0.165186 0
M  V30 2636 H 235.949 -0.70611 0.0832418 0
M  V30 2637 H 238.551 -1.74093 0.88948 0
M  V30 2638 H 237.255 -3.91293 1.23767 0
M  V30 2639 H 236.786 -3.90587 -0.469596 0
M  V30 2640 H 238.801 -4.76093 -1.39822 0
M  V30 2641 N 237.974 -0.419461 -1.51915 0
M  V30 2642 C 239.222 0.152637 -2.01523 0
M  V30 2643 C 239.543 1.44762 -1.30649 0
M  V30 2644 O 238.813 1.90997 -0.435535 0
M  V30 2645 H 237.393 0.0593966 -0.744635 0
M  V30 2646 H 240.055 -0.558073 -1.86739 0
M  V30 2647 H 239.151 0.341369 -3.10227 0
M  V30 2648 N 239.452 1.56882 -0.150215 0
M  V30 2649 C 240.382 2.19935 0.784284 0
M  V30 2650 C 241.363 1.14854 1.25469 0
M  V30 2651 O 242.548 1.43209 1.31168 0
M  V30 2652 C 239.678 2.82349 2.02229 0
M  V30 2653 C 238.632 3.93285 1.68853 0
M  V30 2654 C 237.958 4.42649 2.99944 0
M  V30 2655 C 239.258 5.13904 0.932714 0
M  V30 2656 H 240.952 2.9828 0.258781 0
M  V30 2657 H 238.498 1.43473 0.123029 0
M  V30 2658 H 240.451 3.25126 2.68088 0
M  V30 2659 H 239.175 2.0134 2.57157 0
M  V30 2660 H 237.834 3.5113 1.05371 0
M  V30 2661 H 237.482 3.58458 3.52869 0
M  V30 2662 H 237.182 5.17476 2.78374 0
M  V30 2663 H 238.706 4.88099 3.66868 0
M  V30 2664 H 240.12 5.53506 1.49345 0
M  V30 2665 H 238.517 5.94515 0.81684 0
M  V30 2666 H 239.587 4.84842 -0.0749568 0
M  V30 2667 N 240.93 -0.123565 1.57115 0
M  V30 2668 C 241.878 -1.17082 2.00984 0
M  V30 2669 C 242.872 -1.43136 0.906009 0
M  V30 2670 O 244.078 -1.43152 1.09121 0
M  V30 2671 H 240.453 -0.394653 0.64012 0
M  V30 2672 H 242.424 -0.774292 2.88179 0
M  V30 2673 C 241.173 -2.49057 2.42623 0
M  V30 2674 H 240.496 -2.29846 3.27125 0
M  V30 2675 H 241.936 -3.20906 2.7712 0
M  V30 2676 C 240.395 -3.11305 1.28805 0
M  V30 2677 O 240.925 -3.97171 0.60153 0
M  V30 2678 N 239.131 -2.71111 1.04628 0
M  V30 2679 H 238.678 -2.01382 1.60634 0
M  V30 2680 H 238.636 -3.1309 0.286685 0
M  V30 2681 N 242.408 -1.52605 -0.393616 0
M  V30 2682 C 243.338 -1.80022 -1.48709 0
M  V30 2683 C 244.319 -0.651995 -1.57108 0
M  V30 2684 O 245.504 -0.89913 -1.72132 0
M  V30 2685 C 242.634 -1.96492 -2.86371 0
M  V30 2686 C 241.588 -3.12161 -2.92813 0
M  V30 2687 C 240.914 -3.13877 -4.3288 0
M  V30 2688 C 242.214 -4.51322 -2.6288 0
M  V30 2689 H 243.908 -2.71589 -1.26015 0
M  V30 2690 H 241.454 -1.30684 -0.604778 0
M  V30 2691 H 243.407 -2.14255 -3.62867 0
M  V30 2692 H 242.131 -1.01611 -3.10391 0
M  V30 2693 H 240.79 -2.94173 -2.18764 0
M  V30 2694 H 240.438 -2.16687 -4.53933 0
M  V30 2695 H 240.138 -3.91576 -4.38112 0
M  V30 2696 H 241.662 -3.33789 -5.1129 0
M  V30 2697 H 243.076 -4.69435 -3.29096 0
M  V30 2698 H 241.473 -5.31053 -2.79468 0
M  V30 2699 H 242.543 -4.58353 -1.58242 0
M  V30 2700 N 243.887 0.651787 -1.4349 0
M  V30 2701 C 244.797 1.79368 -1.5121 0
M  V30 2702 C 245.813 1.69361 -0.399093 0
M  V30 2703 O 246.989 1.90505 -0.653431 0
M  V30 2704 C 244.054 3.15653 -1.43401 0
M  V30 2705 C 243.115 3.37446 -2.65384 0
M  V30 2706 C 242.348 4.67229 -2.57939 0
M  V30 2707 O 242.571 5.46676 -1.62792 0
M  V30 2708 O 241.505 4.90773 -3.48462 0
M  V30 2709 H 245.331 1.7581 -2.47638 0
M  V30 2710 H 242.916 0.810447 -1.25507 0
M  V30 2711 H 244.798 3.96935 -1.41494 0
M  V30 2712 H 243.473 3.19798 -0.501085 0
M  V30 2713 H 242.38 2.55923 -2.72863 0
M  V30 2714 H 243.713 3.38148 -3.57654 0
M  V30 2715 N 245.365 1.30045 0.890287 0
M  V30 2716 C 246.614 1.17929 1.63633 0
M  V30 2717 C 246.927 -0.266204 1.9378 0
M  V30 2718 O 248.133 -0.508804 2.6669 0
M  V30 2719 C 246.589 2.06317 2.94892 0
M  V30 2720 C 246.197 3.55745 2.72305 0
M  V30 2721 C 247.941 2.0295 3.72843 0
M  V30 2722 C 245.848 4.36205 3.99348 0
M  V30 2723 H 244.778 0.437782 0.613892 0
M  V30 2724 H 247.429 1.54754 0.986075 0
M  V30 2725 H 245.811 1.6237 3.61182 0
M  V30 2726 H 246.985 4.07805 2.1455 0
M  V30 2727 H 245.3 3.6088 2.07737 0
M  V30 2728 H 247.897 2.60319 4.67053 0
M  V30 2729 H 248.24 1.0117 4.0382 0
M  V30 2730 H 248.773 2.4499 3.13408 0
M  V30 2731 H 245.512 5.38659 3.73533 0
M  V30 2732 H 245.032 3.8891 4.56628 0
M  V30 2733 H 246.711 4.47362 4.67415 0
M  V30 2734 N 246.843 -1.10192 1.12674 0
M  V30 2735 C 247.773 -2.18652 0.819362 0
M  V30 2736 C 248.754 -1.68698 -0.217915 0
M  V30 2737 O 249.939 -1.94041 -0.0785581 0
M  V30 2738 C 247.069 -3.46202 0.27594 0
M  V30 2739 C 246.023 -4.09444 1.24656 0
M  V30 2740 C 245.349 -5.31725 0.563258 0
M  V30 2741 C 246.649 -4.52863 2.60217 0
M  V30 2742 H 248.343 -2.44622 1.72628 0
M  V30 2743 H 245.889 -1.17571 0.831451 0
M  V30 2744 H 247.842 -4.21372 0.0486149 0
M  V30 2745 H 246.566 -3.1973 -0.666331 0
M  V30 2746 H 245.225 -3.36284 1.45974 0
M  V30 2747 H 244.873 -5.0153 -0.384235 0
M  V30 2748 H 244.573 -5.74991 1.21075 0
M  V30 2749 H 246.097 -6.09624 0.34503 0
M  V30 2750 H 247.511 -5.19294 2.42913 0
M  V30 2751 H 245.908 -5.06986 3.21068 0
M  V30 2752 H 246.978 -3.65656 3.18471 0
M  V30 2753 N 248.321 -0.919034 -1.28029 0
M  V30 2754 C 249.551 -0.570143 -1.98577 0
M  V30 2755 C 249.959 0.854172 -1.68821 0
M  V30 2756 O 249.302 1.57807 -0.940351 0
M  V30 2757 C 249.364 -0.705734 -3.52505 0
M  V30 2758 C 249.028 -2.10057 -4.05863 0
M  V30 2759 C 250.025 -3.07385 -4.19298 0
M  V30 2760 C 247.71 -2.41517 -4.40426 0
M  V30 2761 C 249.704 -4.34287 -4.66555 0
M  V30 2762 C 247.391 -3.68657 -4.87376 0
M  V30 2763 C 248.389 -4.64856 -5.00398 0
M  V30 2764 O 248.077 -5.89735 -5.46322 0
M  V30 2765 H 247.809 -0.215592 -0.6407 0
M  V30 2766 H 250.363 -1.23583 -1.64062 0
M  V30 2767 H 248.593 0.0170414 -3.86696 0
M  V30 2768 H 250.282 -0.363172 -4.04272 0
M  V30 2769 H 251.048 -2.84398 -3.92865 0
M  V30 2770 H 246.927 -1.67389 -4.29537 0
M  V30 2771 H 250.471 -5.09377 -4.76635 0
M  V30 2772 H 246.368 -3.91466 -5.13249 0
M  V30 2773 H 247.136 -5.92599 -5.64596 0
M  V30 2774 N 249.799 1.42003 -0.683588 0
M  V30 2775 C 250.746 2.30798 -0.0107309 0
M  V30 2776 C 251.716 1.4645 0.783688 0
M  V30 2777 O 252.901 1.75263 0.754156 0
M  V30 2778 C 250.041 3.3238 0.928306 0
M  V30 2779 C 249.154 4.31814 0.126776 0
M  V30 2780 C 248.289 5.20468 1.06236 0
M  V30 2781 C 247.328 6.11577 0.253035 0
M  V30 2782 N 246.465 6.92754 1.14179 0
M  V30 2783 H 251.305 2.8778 -0.773727 0
M  V30 2784 H 248.842 1.41745 -0.393283 0
M  V30 2785 H 250.8 3.89813 1.48666 0
M  V30 2786 H 249.43 2.76976 1.65783 0
M  V30 2787 H 248.482 3.76427 -0.54833 0
M  V30 2788 H 249.794 4.96276 -0.501192 0
M  V30 2789 H 248.948 5.82677 1.69035 0
M  V30 2790 H 247.687 4.56204 1.7242 0
M  V30 2791 H 246.692 5.48428 -0.388108 0
M  V30 2792 H 247.917 6.77892 -0.404839 0
M  V30 2793 H 245.863 6.3111 1.78987 0
M  V30 2794 H 245.78 7.53855 0.569111 0
M  V30 2795 H 247.048 7.59441 1.75697 0
M  V30 2796 N 251.277 0.427512 1.51691 0
M  V30 2797 C 252.505 -0.141191 2.06418 0
M  V30 2798 C 252.92 -1.37303 1.29589 0
M  V30 2799 O 252.277 -1.79059 0.352732 0
M  V30 2800 C 252.328 -0.473266 3.58389 0
M  V30 2801 O 252.049 0.709673 4.32314 0
M  V30 2802 C 253.55 -1.09371 4.29596 0
M  V30 2803 H 250.77 -0.0122747 0.670888 0
M  V30 2804 H 253.314 0.603764 1.95384 0
M  V30 2805 H 251.469 -1.16812 3.69369 0
M  V30 2806 H 251.883 0.42807 5.2275 0
M  V30 2807 H 253.357 -1.27613 5.37046 0
M  V30 2808 H 253.834 -2.072 3.87253 0
M  V30 2809 H 254.44 -0.43853 4.23033 0
M  V30 2810 N 252.755 -1.56801 0.158532 0
M  V30 2811 C 253.985 -2.00568 -0.495583 0
M  V30 2812 C 254.393 -1.03774 -1.58201 0
M  V30 2813 O 253.736 -0.0285797 -1.83678 0
M  V30 2814 C 253.798 -3.40768 -1.14532 0
M  V30 2815 C 253.462 -4.56553 -0.202101 0
M  V30 2816 C 254.459 -5.16714 0.574675 0
M  V30 2817 C 252.144 -5.02197 -0.101648 0
M  V30 2818 C 254.138 -6.20939 1.43924 0
M  V30 2819 C 251.825 -6.06274 0.766508 0
M  V30 2820 C 252.823 -6.65515 1.53555 0
M  V30 2821 O 252.511 -7.67575 2.38922 0
M  V30 2822 H 252.243 -0.662893 -0.13247 0
M  V30 2823 H 254.797 -2.03829 0.253559 0
M  V30 2824 H 253.027 -3.34381 -1.94233 0
M  V30 2825 H 254.716 -3.6857 -1.70033 0
M  V30 2826 H 255.482 -4.82341 0.507167 0
M  V30 2827 H 251.361 -4.55807 -0.689994 0
M  V30 2828 H 254.905 -6.67107 2.03996 0
M  V30 2829 H 250.802 -6.40073 0.835266 0
M  V30 2830 H 251.57 -7.84844 2.32296 0
M  V30 2831 N 254.233 0.115231 -1.57178 0
M  V30 2832 C 255.482 0.820945 -1.84237 0
M  V30 2833 C 255.795 1.80866 -0.744761 0
M  V30 2834 O 257.001 2.56083 -0.901871 0
M  V30 2835 C 255.457 1.51072 -3.26658 0
M  V30 2836 C 255.065 0.563795 -4.44438 0
M  V30 2837 C 256.809 2.20134 -3.62962 0
M  V30 2838 C 254.716 1.25701 -5.77887 0
M  V30 2839 H 253.646 0.310328 -0.687177 0
M  V30 2840 H 256.297 0.0737134 -1.83352 0
M  V30 2841 H 254.679 2.30471 -3.22024 0
M  V30 2842 H 255.853 -0.197247 -4.60378 0
M  V30 2843 H 254.168 -0.0200638 -4.16395 0
M  V30 2844 H 256.765 2.72696 -4.59936 0
M  V30 2845 H 257.108 2.98107 -2.90582 0
M  V30 2846 H 257.641 1.47619 -3.69396 0
M  V30 2847 H 254.38 0.518493 -6.53446 0
M  V30 2848 H 253.9 1.98997 -5.65827 0
M  V30 2849 H 255.579 1.78915 -6.2177 0
M  V30 2850 N 255.711 1.52812 0.385517 0
M  V30 2851 C 256.959 1.67694 1.12797 0
M  V30 2852 C 257.28 0.421115 1.90399 0
M  V30 2853 O 256.55 -0.564551 1.87589 0
M  V30 2854 H 255.13 0.618155 0.419396 0
M  V30 2855 H 257.792 1.89938 0.436972 0
M  V30 2856 H 256.888 2.52896 1.82894 0
M  V30 2857 N 257.189 -0.644168 1.43834 0
M  V30 2858 C 258.136 -1.75671 1.49694 0
M  V30 2859 C 259.106 -1.6246 0.345809 0
M  V30 2860 O 260.291 -1.82573 0.554234 0
M  V30 2861 C 257.431 -3.13867 1.43463 0
M  V30 2862 C 256.544 -3.38147 2.6885 0
M  V30 2863 C 255.679 -4.66241 2.54544 0
M  V30 2864 C 254.718 -4.83657 3.75157 0
M  V30 2865 N 253.855 -6.03016 3.59605 0
M  V30 2866 H 258.695 -1.69998 2.44754 0
M  V30 2867 H 256.232 -0.829458 1.21484 0
M  V30 2868 H 258.19 -3.9377 1.37843 0
M  V30 2869 H 256.82 -3.18588 0.519783 0
M  V30 2870 H 255.872 -2.52276 2.84712 0
M  V30 2871 H 257.184 -3.46899 3.58417 0
M  V30 2872 H 256.338 -5.54285 2.46683 0
M  V30 2873 H 255.077 -4.59826 1.62516 0
M  V30 2874 H 254.082 -3.94046 3.83416 0
M  V30 2875 H 255.307 -4.91896 4.68204 0
M  V30 2876 H 253.253 -5.97715 2.7032 0
M  V30 2877 H 253.17 -6.12766 4.42779 0
M  V30 2878 H 254.438 -6.93657 3.55613 0
M  V30 2879 N 258.668 -1.30515 -0.883378 0
M  V30 2880 C 259.616 -1.16941 -2.01066 0
M  V30 2881 C 260.61 -0.0809148 -1.69207 0
M  V30 2882 O 261.816 -0.241877 -1.78367 0
M  V30 2883 H 258.191 -0.361705 -0.659298 0
M  V30 2884 H 260.162 -2.12344 -2.09649 0
M  V30 2885 C 258.911 -0.879694 -3.36388 0
M  V30 2886 H 258.234 -1.70936 -3.61415 0
M  V30 2887 H 259.674 -0.82483 -4.159 0
M  V30 2888 C 258.133 0.417409 -3.34304 0
M  V30 2889 O 258.663 1.43843 -3.75063 0
M  V30 2890 N 256.869 0.429141 -2.87414 0
M  V30 2891 H 256.416 -0.402222 -2.5444 0
M  V30 2892 H 256.374 1.29696 -2.86403 0
M  V30 2893 N 260.146 1.09593 -1.13257 0
M  V30 2894 C 261.392 1.82003 -0.89458 0
M  V30 2895 C 261.725 1.85402 0.577906 0
M  V30 2896 O 261 1.32099 1.42759 0
M  V30 2897 C 261.283 3.28237 -1.48096 0
M  V30 2898 C 261.136 3.3312 -3.02244 0
M  V30 2899 C 262.455 4.24871 -1.14774 0
M  V30 2900 H 259.574 0.66077 -0.326424 0
M  V30 2901 H 262.216 1.28389 -1.40058 0
M  V30 2902 H 260.366 3.74024 -1.05062 0
M  V30 2903 H 262.038 2.95748 -3.54021 0
M  V30 2904 H 260.281 2.72756 -3.37323 0
M  V30 2905 H 260.952 4.3613 -3.38371 0
M  V30 2906 H 263.428 3.87361 -1.51957 0
M  V30 2907 H 262.304 5.25532 -1.58452 0
M  V30 2908 H 262.565 4.42058 -0.0611849 0
M  V30 2909 N 261.624 0.925811 1.2754 0
M  V30 2910 C 262.554 0.440748 2.29303 0
M  V30 2911 C 263.535 -0.497971 1.62648 0
M  V30 2912 O 264.72 -0.403126 1.8997 0
M  V30 2913 C 261.85 -0.309048 3.45922 0
M  V30 2914 C 260.804 0.54166 4.24559 0
M  V30 2915 C 260.13 -0.337191 5.33636 0
M  V30 2916 C 261.43 1.80516 4.90114 0
M  V30 2917 H 263.124 1.29121 2.70126 0
M  V30 2918 H 260.67 0.622323 1.29858 0
M  V30 2919 H 262.623 -0.659315 4.1621 0
M  V30 2920 H 261.347 -1.19352 3.04011 0
M  V30 2921 H 260.006 0.874609 3.56014 0
M  V30 2922 H 259.654 -1.22056 4.87966 0
M  V30 2923 H 259.354 0.228497 5.87156 0
M  V30 2924 H 260.878 -0.683072 6.06767 0
M  V30 2925 H 262.292 1.52307 5.52698 0
M  V30 2926 H 260.689 2.3142 5.53683 0
M  V30 2927 H 261.759 2.52581 4.13921 0
M  V30 2928 N 263.102 -1.41638 0.69111 0
M  V30 2929 C 264.05 -2.32597 0.0115199 0
M  V30 2930 C 265.044 -1.5072 -0.773296 0
M  V30 2931 O 266.25 -1.66685 -0.67942 0
M  V30 2932 H 262.625 -0.751849 -0.0150746 0
M  V30 2933 H 264.596 -2.87593 0.795791 0
M  V30 2934 C 263.345 -3.35467 -0.914172 0
M  V30 2935 H 262.668 -3.9852 -0.319687 0
M  V30 2936 H 264.108 -4.01662 -1.35808 0
M  V30 2937 C 262.567 -2.69004 -2.02826 0
M  V30 2938 O 263.097 -2.53444 -3.11655 0
M  V30 2939 N 261.303 -2.2777 -1.80469 0
M  V30 2940 H 260.85 -2.40626 -0.919615 0
M  V30 2941 H 260.808 -1.83635 -2.55197 0
M  V30 2942 N 264.58 -0.43555 -1.51462 0
M  V30 2943 C 265.829 0.133007 -2.01261 0
M  V30 2944 C 266.142 1.43942 -1.32439 0
M  V30 2945 O 267.348 2.09081 -1.73198 0
M  V30 2946 C 265.804 0.287581 -3.58749 0
M  V30 2947 C 265.412 -1.00829 -4.36506 0
M  V30 2948 C 267.156 0.810004 -4.167 0
M  V30 2949 C 265.063 -0.819454 -5.85695 0
M  V30 2950 H 263.993 0.0534822 -0.752101 0
M  V30 2951 H 266.644 -0.565038 -1.74584 0
M  V30 2952 H 265.026 1.04859 -3.81865 0
M  V30 2953 H 266.2 -1.77749 -4.25138 0
M  V30 2954 H 264.515 -1.45911 -3.89999 0
M  V30 2955 H 267.112 0.967743 -5.2587 0
M  V30 2956 H 267.455 1.79196 -3.75758 0
M  V30 2957 H 267.988 0.107357 -3.97655 0
M  V30 2958 H 264.727 -1.77374 -6.31046 0
M  V30 2959 H 264.247 -0.0900208 -5.99732 0
M  V30 2960 H 265.926 -0.471949 -6.45276 0
M  V30 2961 N 266.058 1.56714 -0.166846 0
M  V30 2962 C 267.305 1.96747 0.479252 0
M  V30 2963 C 267.633 1.05263 1.63554 0
M  V30 2964 O 266.888 0.0858098 1.95512 0
M  V30 2965 C 267.187 3.42889 1.00806 0
M  V30 2966 C 266.853 4.50889 -0.0318574 0
M  V30 2967 C 265.515 4.8015 -0.317675 0
M  V30 2968 C 267.867 5.15949 -0.737956 0
M  V30 2969 C 265.195 5.71772 -1.31506 0
M  V30 2970 C 267.547 6.08647 -1.72429 0
M  V30 2971 C 266.211 6.36277 -2.0176 0
M  V30 2972 H 265.481 0.719949 0.175371 0
M  V30 2973 H 268.128 1.89756 -0.257864 0
M  V30 2974 H 266.433 3.4681 1.82291 0
M  V30 2975 H 268.13 3.71203 1.51689 0
M  V30 2976 H 264.72 4.28128 0.201088 0
M  V30 2977 H 268.904 4.93458 -0.530351 0
M  V30 2978 H 264.16 5.91465 -1.54853 0
M  V30 2979 H 268.334 6.58129 -2.27682 0
M  V30 2980 H 265.961 7.07075 -2.79194 0
M  V30 2981 N 267.536 -0.106894 1.57237 0
M  V30 2982 C 268.952 -0.46078 1.52804 0
M  V30 2983 C 269.152 -1.81184 0.881746 0
M  V30 2984 O 268.208 -2.48102 0.469224 0
M  V30 2985 C 269.521 -0.434127 2.9755 0
M  V30 2986 C 271.069 -0.516821 3.08704 0
M  V30 2987 C 271.544 -0.520436 4.55033 0
M  V30 2988 N 273.035 -0.58153 4.59535 0
M  V30 2989 C 273.77 -0.605973 5.70189 0
M  V30 2990 N 273.266 -0.587331 6.90306 0
M  V30 2991 N 275.059 -0.649895 5.5833 0
M  V30 2992 H 267.21 0.778203 1.9763 0
M  V30 2993 H 269.473 0.288403 0.903066 0
M  V30 2994 H 269.179 0.491197 3.48253 0
M  V30 2995 H 269.053 -1.25748 3.55622 0
M  V30 2996 H 271.44 -1.43256 2.57995 0
M  V30 2997 H 271.521 0.334449 2.53604 0
M  V30 2998 H 271.165 0.391313 5.0639 0
M  V30 2999 H 271.095 -1.38876 5.07958 0
M  V30 3000 H 273.586 -0.60161 3.73081 0
M  V30 3001 H 273.899 -0.60894 7.70397 0
M  V30 3002 H 272.244 -0.554564 6.92784 0
M  V30 3003 H 275.435 -0.661907 4.63397 0
M  V30 3004 H 275.608 -0.665476 6.44574 0
M  V30 3005 N 269.014 -1.53014 -0.377408 0
M  V30 3006 C 269.946 -1.74884 -1.48149 0
M  V30 3007 C 270.959 -0.629433 -1.5014 0
M  V30 3008 O 272.148 -0.905416 -1.53833 0
M  V30 3009 C 269.248 -1.80299 -2.86959 0
M  V30 3010 C 268.421 -3.09776 -3.08801 0
M  V30 3011 C 267.48 -3.06586 -4.27658 0
M  V30 3012 O 266.506 -3.80419 -4.23403 0
M  V30 3013 N 267.708 -2.26578 -5.34455 0
M  V30 3014 H 270.473 -2.70147 -1.29771 0
M  V30 3015 H 268.034 -1.51646 -0.56703 0
M  V30 3016 H 270.026 -1.75657 -3.64591 0
M  V30 3017 H 268.596 -0.92372 -2.98641 0
M  V30 3018 H 267.816 -3.27815 -2.18931 0
M  V30 3019 H 269.104 -3.95366 -3.20255 0
M  V30 3020 H 268.502 -1.66081 -5.40771 0
M  V30 3021 H 267.059 -2.27766 -6.10709 0
M  V30 3022 N 270.492 0.636531 -1.44174 0
M  V30 3023 C 271.44 1.76995 -1.50915 0
M  V30 3024 C 272.434 1.65053 -0.381295 0
M  V30 3025 O 273.64 1.71197 -0.55601 0
M  V30 3026 H 270.015 0.584247 -0.473455 0
M  V30 3027 H 271.986 1.68432 -2.4632 0
M  V30 3028 C 270.735 3.15314 -1.46534 0
M  V30 3029 H 270.058 3.25149 -2.32633 0
M  V30 3030 H 271.498 3.9453 -1.55312 0
M  V30 3031 C 269.957 3.3639 -0.185305 0
M  V30 3032 O 270.487 3.94699 0.746688 0
M  V30 3033 N 268.693 2.9046 -0.0901606 0
M  V30 3034 H 268.24 2.43193 -0.849416 0
M  V30 3035 H 268.198 3.04937 0.765553 0
M  V30 3036 N 271.97 1.30982 0.876444 0
M  V30 3037 C 272.918 1.18006 2.00443 0
M  V30 3038 C 273.912 0.0898871 1.69161 0
M  V30 3039 O 275.118 0.251333 1.78237 0
M  V30 3040 H 271.493 0.365196 0.65737 0
M  V30 3041 H 273.464 2.13453 2.0852 0
M  V30 3042 C 272.213 0.897521 3.35916 0
M  V30 3043 H 271.536 1.7285 3.60504 0
M  V30 3044 H 272.976 0.846874 4.15456 0
M  V30 3045 C 271.435 -0.399674 3.34521 0
M  V30 3046 O 271.965 -1.41852 3.7582 0
M  V30 3047 N 270.171 -0.413893 2.87637 0
M  V30 3048 H 269.718 0.41571 2.54224 0
M  V30 3049 H 269.676 -1.28175 2.87086 0
M  V30 3050 N 273.449 -1.08991 1.13837 0
M  V30 3051 C 274.697 -1.80899 0.901098 0
M  V30 3052 C 275.018 -1.86356 -0.574134 0
M  V30 3053 O 274.288 -1.35235 -1.41733 0
M  V30 3054 H 272.868 -0.669966 0.330386 0
M  V30 3055 H 275.53 -1.318 1.43578 0
M  V30 3056 H 274.626 -2.83929 1.29578 0
M  V30 3057 N 274.927 -0.932562 -1.27047 0
M  V30 3058 C 276.157 -0.591173 -1.97961 0
M  V30 3059 C 276.565 0.836219 -1.69717 0
M  V30 3060 O 275.908 1.56801 -0.957036 0
M  V30 3061 C 275.97 -0.743082 -3.51736 0
M  V30 3062 C 275.634 -2.1435 -4.03613 0
M  V30 3063 C 276.631 -3.11815 -4.16014 0
M  V30 3064 C 274.316 -2.46175 -4.37839 0
M  V30 3065 C 276.31 -4.39211 -4.61923 0
M  V30 3066 C 273.997 -3.73806 -4.83438 0
M  V30 3067 C 274.995 -4.70137 -4.95439 0
M  V30 3068 O 274.683 -5.95496 -5.40037 0
M  V30 3069 H 274.415 -0.222375 -0.638377 0
M  V30 3070 H 276.969 -1.25317 -1.62742 0
M  V30 3071 H 275.199 -0.0239739 -3.86693 0
M  V30 3072 H 276.888 -0.40603 -4.03864 0
M  V30 3073 H 277.654 -2.88549 -3.89826 0
M  V30 3074 H 273.533 -1.71936 -4.27737 0
M  V30 3075 H 277.077 -5.14404 -4.71205 0
M  V30 3076 H 272.974 -3.96888 -5.09068 0
M  V30 3077 H 273.742 -5.98554 -5.58279 0
M  V30 3078 N 276.405 1.4127 -0.698611 0
M  V30 3079 C 277.352 2.30773 -0.0352094 0
M  V30 3080 C 278.322 1.47273 0.768111 0
M  V30 3081 O 279.507 1.76053 0.735524 0
M  V30 3082 C 276.647 3.33346 0.893 0
M  V30 3083 C 275.76 4.31924 0.0809695 0
M  V30 3084 C 274.895 5.21566 1.0071 0
M  V30 3085 C 273.934 6.11811 0.188155 0
M  V30 3086 N 273.071 6.93926 1.06825 0
M  V30 3087 H 277.911 2.86943 -0.804207 0
M  V30 3088 H 275.448 1.4132 -0.408294 0
M  V30 3089 H 277.406 3.91368 1.44523 0
M  V30 3090 H 276.036 2.78719 1.62836 0
M  V30 3091 H 275.088 3.75825 -0.588224 0
M  V30 3092 H 276.4 4.95716 -0.553801 0
M  V30 3093 H 275.554 5.84437 1.62845 0
M  V30 3094 H 274.293 4.58008 1.67572 0
M  V30 3095 H 273.298 5.47986 -0.446254 0
M  V30 3096 H 274.523 6.77425 -0.476716 0
M  V30 3097 H 272.469 6.32973 1.72283 0
M  V30 3098 H 272.386 7.54416 0.489123 0
M  V30 3099 H 273.654 7.61262 1.67632 0
M  V30 3100 N 277.883 0.443576 1.51229 0
M  V30 3101 C 279.16 -0.181038 1.9476 0
M  V30 3102 C 279.54 -1.59523 1.38259 0
M  V30 3103 O 278.888 -2.2122 0.572198 0
M  V30 3104 C 279.098 -0.152422 3.48667 0
M  V30 3105 C 280.446 -0.354923 4.23114 0
M  V30 3106 O 281.47 -0.230257 3.55455 0
M  V30 3107 O 280.329 -0.603674 5.43156 0
M  V30 3108 H 277.423 -0.1266 0.817252 0
M  V30 3109 H 279.969 0.502004 1.62105 0
M  V30 3110 H 278.741 0.836022 3.82265 0
M  V30 3111 H 278.364 -0.878107 3.87782 0
M  V30 3112 N 279.361 -1.56624 0.175154 0
M  V30 3113 C 280.609 -1.96609 -0.467885 0
M  V30 3114 C 280.93 -1.06238 -1.63519 0
M  V30 3115 O 280.2 -0.129523 -1.95471 0
M  V30 3116 H 278.78 -0.726008 -0.175845 0
M  V30 3117 H 281.442 -1.93195 0.257234 0
M  V30 3118 H 280.538 -3.00989 -0.825342 0
M  V30 3119 N 280.839 0.0985539 -1.57292 0
M  V30 3120 C 282.064 0.820196 -1.90493 0
M  V30 3121 C 282.489 1.71658 -0.769094 0
M  V30 3122 O 281.847 1.79133 0.279495 0
M  V30 3123 C 281.895 1.61242 -3.22542 0
M  V30 3124 O 280.999 2.72108 -3.09888 0
M  V30 3125 H 280.34 0.225547 -0.62452 0
M  V30 3126 H 282.87 0.0748159 -2.04463 0
M  V30 3127 H 282.88 1.99737 -3.55766 0
M  V30 3128 H 281.555 0.954535 -4.04798 0
M  V30 3129 H 280.132 2.36667 -2.88172 0
M  V30 3130 N 282.317 1.53212 0.369288 0
M  V30 3131 C 283.547 1.72868 1.13139 0
M  V30 3132 C 283.955 0.455754 1.83629 0
M  V30 3133 O 283.298 -0.580861 1.74275 0
M  V30 3134 C 283.36 2.83667 2.20847 0
M  V30 3135 C 283.024 4.24142 1.70155 0
M  V30 3136 C 284.021 5.06619 1.16763 0
M  V30 3137 C 281.706 4.70539 1.7578 0
M  V30 3138 C 283.7 6.33581 0.696678 0
M  V30 3139 C 281.387 5.97481 1.28297 0
M  V30 3140 C 282.385 6.78833 0.753307 0
M  V30 3141 O 282.073 8.03393 0.285475 0
M  V30 3142 H 281.805 0.581707 0.344373 0
M  V30 3143 H 284.359 2.00736 0.435243 0
M  V30 3144 H 282.589 2.51265 2.93944 0
M  V30 3145 H 284.278 2.91536 2.82421 0
M  V30 3146 H 285.044 4.71948 1.11758 0
M  V30 3147 H 280.923 4.07293 2.15949 0
M  V30 3148 H 284.467 6.97027 0.282581 0
M  V30 3149 H 280.364 6.31651 1.32994 0
M  V30 3150 H 281.132 8.17497 0.405145 0
M  V30 3151 N 283.795 -0.628877 1.44509 0
M  V30 3152 C 284.742 -1.74074 1.51549 0
M  V30 3153 C 285.712 -1.62084 0.363021 0
M  V30 3154 O 286.897 -1.81975 0.573567 0
M  V30 3155 C 284.037 -3.12328 1.46784 0
M  V30 3156 C 283.15 -3.35277 2.72422 0
M  V30 3157 C 282.285 -4.63515 2.59475 0
M  V30 3158 C 281.324 -4.7965 3.80266 0
M  V30 3159 N 280.461 -5.99168 3.65981 0
M  V30 3160 H 285.301 -1.67392 2.46544 0
M  V30 3161 H 282.838 -0.816527 1.22357 0
M  V30 3162 H 284.796 -3.92286 1.42012 0
M  V30 3163 H 283.426 -3.18018 0.553544 0
M  V30 3164 H 282.478 -2.49242 2.87372 0
M  V30 3165 H 283.79 -3.43078 3.62076 0
M  V30 3166 H 282.944 -5.51638 2.52548 0
M  V30 3167 H 281.683 -4.58076 1.67384 0
M  V30 3168 H 280.688 -3.89957 3.87574 0
M  V30 3169 H 281.913 -4.86902 4.73395 0
M  V30 3170 H 279.859 -5.94814 2.76644 0
M  V30 3171 H 279.776 -6.08035 4.49254 0
M  V30 3172 H 281.044 -6.89846 3.6295 0
M  V30 3173 N 285.273 -1.31445 -0.869486 0
M  V30 3174 C 286.22 -1.19135 -1.97675 0
M  V30 3175 C 287.19 -0.0770266 -1.65921 0
M  V30 3176 O 288.375 -0.249972 -1.89155 0
M  V30 3177 C 285.515 -0.905149 -3.33018 0
M  V30 3178 C 284.628 -2.10285 -3.77365 0
M  V30 3179 C 283.763 -1.75339 -5.01427 0
M  V30 3180 C 282.802 -2.91515 -5.38224 0
M  V30 3181 N 281.939 -2.56762 -6.53466 0
M  V30 3182 H 286.779 -2.13853 -2.07535 0
M  V30 3183 H 284.316 -1.06379 -1.01597 0
M  V30 3184 H 286.274 -0.719765 -4.10944 0
M  V30 3185 H 284.904 0.00519624 -3.228 0
M  V30 3186 H 283.956 -2.39899 -2.95216 0
M  V30 3187 H 285.268 -2.97237 -4.00564 0
M  V30 3188 H 284.422 -1.53266 -5.87022 0
M  V30 3189 H 283.161 -0.855801 -4.80133 0
M  V30 3190 H 282.166 -3.14237 -4.51149 0
M  V30 3191 H 283.391 -3.81985 -5.61484 0
M  V30 3192 H 281.337 -1.69526 -6.33717 0
M  V30 3193 H 281.254 -3.37243 -6.76612 0
M  V30 3194 H 282.522 -2.38083 -7.42251 0
M  V30 3195 N 286.751 1.08385 -1.14413 0
M  V30 3196 C 287.979 1.84517 -0.936001 0
M  V30 3197 C 288.394 1.81626 0.515503 0
M  V30 3198 O 287.751 1.22008 1.35721 0
M  V30 3199 C 287.802 3.32049 -1.42918 0
M  V30 3200 O 287.523 3.34951 -2.82381 0
M  V30 3201 C 289.024 4.24986 -1.26103 0
M  V30 3202 H 286.244 0.582491 -0.333084 0
M  V30 3203 H 288.788 1.36885 -1.5193 0
M  V30 3204 H 286.943 3.7707 -0.888641 0
M  V30 3205 H 287.357 4.27048 -3.04517 0
M  V30 3206 H 288.831 5.26615 -1.6547 0
M  V30 3207 H 289.308 4.38726 -0.20392 0
M  V30 3208 H 289.914 3.85791 -1.79012 0
M  V30 3209 N 288.23 0.939286 1.26551 0
M  V30 3210 C 289.476 0.596234 1.94465 0
M  V30 3211 C 289.831 -0.855013 1.72358 0
M  V30 3212 O 289.124 -1.6034 1.04889 0
M  V30 3213 C 289.318 0.872106 3.46596 0
M  V30 3214 C 289.147 2.34862 3.83497 0
M  V30 3215 C 287.917 3.00344 4.06352 0
M  V30 3216 C 290.115 3.32697 3.92195 0
M  V30 3217 N 288.097 4.38027 4.30123 0
M  V30 3218 C 289.468 4.55631 4.20476 0
M  V30 3219 C 291.523 3.27747 3.74815 0
M  V30 3220 C 290.226 5.74233 4.33185 0
M  V30 3221 C 292.252 4.45672 3.88755 0
M  V30 3222 C 291.614 5.67388 4.17433 0
M  V30 3223 H 287.713 0.268515 0.734455 0
M  V30 3224 H 290.297 1.2083 1.5267 0
M  V30 3225 H 288.468 0.289102 3.87323 0
M  V30 3226 H 290.2 0.490513 4.01716 0
M  V30 3227 H 286.955 2.50969 4.01636 0
M  V30 3228 H 287.379 5.09288 4.46044 0
M  V30 3229 H 292.021 2.34703 3.51673 0
M  V30 3230 H 289.739 6.67731 4.55149 0
M  V30 3231 H 293.325 4.43372 3.76713 0
M  V30 3232 H 292.205 6.57115 4.27983 0
M  V30 3233 N 289.708 -1.40897 0.706093 0
M  V30 3234 C 290.656 -2.32572 0.0361893 0
M  V30 3235 C 291.65 -1.51532 -0.757266 0
M  V30 3236 O 292.856 -1.67396 -0.661703 0
M  V30 3237 H 289.231 -0.751966 -0.00709935 0
M  V30 3238 H 291.202 -2.86733 0.826249 0
M  V30 3239 C 289.951 -3.36418 -0.87854 0
M  V30 3240 H 289.274 -3.98836 -0.277401 0
M  V30 3241 H 290.714 -4.0308 -1.3154 0
M  V30 3242 C 289.173 -2.71141 -1.99961 0
M  V30 3243 O 289.703 -2.56735 -3.0895 0
M  V30 3244 N 287.909 -2.29671 -1.78043 0
M  V30 3245 H 287.456 -2.41588 -0.894042 0
M  V30 3246 H 287.414 -1.86332 -2.53235 0
M  V30 3247 N 291.186 -0.45159 -1.50991 0
M  V30 3248 C 292.434 0.109857 -2.01801 0
M  V30 3249 C 292.755 1.41958 -1.3369 0
M  V30 3250 O 292.025 1.9003 -0.475951 0
M  V30 3251 H 290.605 0.0435884 -0.745727 0
M  V30 3252 H 293.267 -0.597557 -1.85514 0
M  V30 3253 H 292.363 0.275489 -3.10882 0
M  V30 3254 N 292.664 1.56529 -0.183458 0
M  V30 3255 C 293.611 2.18546 0.742055 0
M  V30 3256 C 294.581 1.12912 1.2182 0
M  V30 3257 O 295.766 1.41115 1.28418 0
M  V30 3258 C 292.906 2.83977 1.96089 0
M  V30 3259 C 292.019 4.04105 1.52719 0
M  V30 3260 C 291.154 4.57427 2.70063 0
M  V30 3261 C 290.193 5.69938 2.23243 0
M  V30 3262 N 289.33 6.17717 3.33722 0
M  V30 3263 H 294.17 2.97284 0.206432 0
M  V30 3264 H 291.707 1.46823 0.0901571 0
M  V30 3265 H 293.665 3.20077 2.67594 0
M  V30 3266 H 292.295 2.07822 2.47002 0
M  V30 3267 H 291.347 3.73745 0.708436 0
M  V30 3268 H 292.659 4.85513 1.1436 0
M  V30 3269 H 291.813 4.95772 3.49708 0
M  V30 3270 H 290.552 3.75101 3.11689 0
M  V30 3271 H 289.557 5.31133 1.42048 0
M  V30 3272 H 290.782 6.54073 1.82661 0
M  V30 3273 H 288.728 5.38317 3.74902 0
M  V30 3274 H 288.645 6.94146 2.99495 0
M  V30 3275 H 289.913 6.60713 4.13616 0
M  V30 3276 N 294.142 -0.090211 1.57342 0
M  V30 3277 C 295.052 -1.12735 2.05738 0
M  V30 3278 C 296.068 -1.43557 0.983231 0
M  V30 3279 O 297.244 -1.54101 1.29672 0
M  V30 3280 C 294.309 -2.42659 2.47624 0
M  V30 3281 C 293.37 -2.18975 3.69254 0
M  V30 3282 C 292.603 -3.42704 4.09133 0
M  V30 3283 O 292.826 -4.51127 3.49057 0
M  V30 3284 O 291.76 -3.32003 5.02053 0
M  V30 3285 H 295.586 -0.746279 2.94388 0
M  V30 3286 H 293.171 -0.303064 1.46294 0
M  V30 3287 H 295.053 -3.19155 2.7517 0
M  V30 3288 H 293.728 -2.80182 1.62109 0
M  V30 3289 H 292.635 -1.40244 3.46818 0
M  V30 3290 H 293.968 -1.86342 4.55563 0
M  V30 3291 N 295.62 -1.53406 -0.361157 0
M  V30 3292 C 296.897 -1.60411 -1.11927 0
M  V30 3293 C 297.277 -0.414385 -2.06993 0
M  V30 3294 O 296.625 0.594976 -2.20618 0
M  V30 3295 C 296.835 -2.95652 -1.85448 0
M  V30 3296 C 298.183 -3.50386 -2.39823 0
M  V30 3297 O 299.207 -2.97711 -1.95568 0
M  V30 3298 O 298.066 -4.42482 -3.20737 0
M  V30 3299 H 295.16 -0.64811 -0.513695 0
M  V30 3300 H 297.706 -1.65749 -0.364065 0
M  V30 3301 H 296.478 -3.73682 -1.16091 0
M  V30 3302 H 296.101 -2.93825 -2.67866 0
M  V30 3303 N 297.098 0.621204 -1.44841 0
M  V30 3304 C 298.046 1.75385 -1.52784 0
M  V30 3305 C 299.04 1.64639 -0.398779 0
M  V30 3306 O 300.246 1.70598 -0.574137 0
M  V30 3307 H 296.621 0.579193 -0.479625 0
M  V30 3308 H 298.592 1.6581 -2.48092 0
M  V30 3309 C 297.341 3.13742 -1.4987 0
M  V30 3310 H 296.664 3.22663 -2.36069 0
M  V30 3311 H 298.104 3.92861 -1.59487 0
M  V30 3312 C 296.563 3.36175 -0.220973 0
M  V30 3313 O 297.093 3.95469 0.704782 0
M  V30 3314 N 295.299 2.90348 -0.120963 0
M  V30 3315 H 294.846 2.42278 -0.875162 0
M  V30 3316 H 294.804 3.05732 0.733168 0
M  V30 3317 N 298.576 1.31904 0.862503 0
M  V30 3318 C 299.486 1.22161 2.00285 0
M  V30 3319 C 300.502 0.136785 1.73462 0
M  V30 3320 O 301.678 0.355994 1.98229 0
M  V30 3321 C 298.743 0.937093 3.33796 0
M  V30 3322 C 297.804 2.10957 3.73893 0
M  V30 3323 C 297.037 1.83853 5.01033 0
M  V30 3324 O 297.26 0.777274 5.65079 0
M  V30 3325 O 296.194 2.69741 5.38074 0
M  V30 3326 H 300.02 2.18008 2.11439 0
M  V30 3327 H 297.605 1.11716 0.991957 0
M  V30 3328 H 299.487 0.794583 4.13841 0
M  V30 3329 H 298.162 0.00871894 3.23699 0
M  V30 3330 H 297.069 2.30752 2.94456 0
M  V30 3331 H 298.402 3.02046 3.88625 0
M  V30 3332 N 300.054 -1.07777 1.14986 0
M  V30 3333 C 301.3 -1.80557 0.923422 0
M  V30 3334 C 301.633 -1.86298 -0.548337 0
M  V30 3335 O 300.908 -1.34354 -1.40639 0
M  V30 3336 C 301.191 -3.25839 1.53299 0
M  V30 3337 C 301.044 -3.28269 3.07505 0
M  V30 3338 C 302.363 -4.22991 1.21518 0
M  V30 3339 H 299.482 -0.655493 0.336894 0
M  V30 3340 H 302.124 -1.26144 1.42083 0
M  V30 3341 H 300.274 -3.72306 1.10999 0
M  V30 3342 H 301.946 -2.90079 3.58681 0
M  V30 3343 H 300.189 -2.67355 3.4162 0
M  V30 3344 H 300.86 -4.30691 3.45266 0
M  V30 3345 H 303.336 -3.84894 1.581 0
M  V30 3346 H 302.212 -5.22945 1.66793 0
M  V30 3347 H 302.473 -4.41904 0.131505 0
M  V30 3348 N 301.532 -0.945985 -1.26051 0
M  V30 3349 C 302.462 -0.477172 -2.28572 0
M  V30 3350 C 303.443 0.472032 -1.63419 0
M  V30 3351 O 304.628 0.372853 -1.90587 0
M  V30 3352 C 301.758 0.253975 -3.4637 0
M  V30 3353 C 300.712 -0.609135 -4.23643 0
M  V30 3354 C 300.038 0.252252 -5.34105 0
M  V30 3355 C 301.338 -1.8829 -4.8718 0
M  V30 3356 H 303.032 -1.33402 -2.68038 0
M  V30 3357 H 300.578 -0.642904 -1.28852 0
M  V30 3358 H 302.531 0.593016 -4.17207 0
M  V30 3359 H 301.255 1.145 -3.05871 0
M  V30 3360 H 299.914 -0.931138 -3.54578 0
M  V30 3361 H 299.562 1.14278 -4.89846 0
M  V30 3362 H 299.262 -0.32188 -5.86718 0
M  V30 3363 H 300.786 0.586454 -6.07777 0
M  V30 3364 H 302.2 -1.61081 -5.50205 0
M  V30 3365 H 300.597 -2.40199 -5.49931 0
M  V30 3366 H 301.667 -2.59134 -4.09851 0
M  V30 3367 N 303.011 1.40521 -0.713556 0
M  V30 3368 C 303.974 2.29098 -0.0684347 0
M  V30 3369 C 304.974 1.45268 0.689472 0
M  V30 3370 O 306.164 1.66205 0.521677 0
M  V30 3371 C 303.296 3.28446 0.913024 0
M  V30 3372 H 304.489 2.87645 -0.84855 0
M  V30 3373 H 302.042 1.48809 -0.47809 0
M  V30 3374 H 302.777 2.74913 1.72027 0
M  V30 3375 H 302.562 3.90327 0.372472 0
M  V30 3376 H 304.052 3.94777 1.36165 0
M  V30 3377 N 304.489 0.459591 1.5075 0
M  V30 3378 C 305.421 -0.37665 2.26084 0
M  V30 3379 C 306.434 -0.967109 1.30961 0
M  V30 3380 O 307.623 -0.857468 1.56556 0
M  V30 3381 C 304.723 -1.54112 3.01832 0
M  V30 3382 C 303.896 -1.06553 4.24223 0
M  V30 3383 C 302.955 -2.1027 4.82362 0
M  V30 3384 O 301.981 -1.68798 5.43595 0
M  V30 3385 N 303.183 -3.42974 4.68347 0
M  V30 3386 H 305.948 0.269124 2.98489 0
M  V30 3387 H 303.509 0.28972 1.59287 0
M  V30 3388 H 305.501 -2.23165 3.37608 0
M  V30 3389 H 304.071 -2.0918 2.32298 0
M  V30 3390 H 303.291 -0.201274 3.93686 0
M  V30 3391 H 304.579 -0.725516 5.03601 0
M  V30 3392 H 303.977 -3.79385 4.19623 0
M  V30 3393 H 302.534 -4.07858 5.08424 0
M  V30 3394 N 305.967 -1.56429 0.191757 0
M  V30 3395 C 307.216 -1.9666 -0.448088 0
M  V30 3396 C 307.529 -1.08136 -1.62991 0
M  V30 3397 O 308.735 -1.38135 -2.33733 0
M  V30 3398 C 307.191 -3.49753 -0.848585 0
M  V30 3399 C 306.799 -4.46935 0.308764 0
M  V30 3400 C 308.543 -3.9876 -1.4557 0
M  V30 3401 C 306.45 -5.91293 -0.112506 0
M  V30 3402 H 305.38 -0.734312 -0.171179 0
M  V30 3403 H 308.031 -1.81301 0.283242 0
M  V30 3404 H 306.413 -3.60604 -1.63649 0
M  V30 3405 H 307.587 -4.47813 1.08627 0
M  V30 3406 H 305.902 -4.08102 0.827158 0
M  V30 3407 H 308.499 -5.04086 -1.78328 0
M  V30 3408 H 308.842 -3.42875 -2.36099 0
M  V30 3409 H 309.375 -3.9101 -0.731836 0
M  V30 3410 H 306.114 -6.51097 0.758514 0
M  V30 3411 H 305.634 -5.93676 -0.854941 0
M  V30 3412 H 307.313 -6.44663 -0.549448 0
M  V30 3413 N 307.445 0.0818655 -1.57387 0
M  V30 3414 C 308.375 1.09885 -2.06028 0
M  V30 3415 C 309.356 1.4098 -0.951774 0
M  V30 3416 O 310.541 1.50781 -1.22387 0
M  V30 3417 C 307.671 2.4151 -2.4958 0
M  V30 3418 C 306.625 2.24792 -3.64215 0
M  V30 3419 C 305.951 3.61712 -3.93787 0
M  V30 3420 C 307.251 1.67749 -4.94629 0
M  V30 3421 H 308.945 0.694128 -2.91243 0
M  V30 3422 H 306.491 0.332448 -1.4011 0
M  V30 3423 H 308.444 3.12939 -2.82219 0
M  V30 3424 H 307.168 2.83943 -1.61381 0
M  V30 3425 H 305.827 1.55807 -3.31843 0
M  V30 3426 H 305.475 4.01697 -3.02735 0
M  V30 3427 H 305.175 3.51368 -4.70971 0
M  V30 3428 H 306.699 4.34587 -4.28913 0
M  V30 3429 H 308.113 2.29032 -5.25564 0
M  V30 3430 H 306.51 1.68128 -5.76067 0
M  V30 3431 H 307.58 0.638059 -4.80684 0
M  V30 3432 N 308.923 1.53595 0.353017 0
M  V30 3433 C 309.833 1.83897 1.45667 0
M  V30 3434 C 310.849 0.728334 1.58023 0
M  V30 3435 O 312.025 1.01968 1.73679 0
M  V30 3436 C 309.09 2.03383 2.80778 0
M  V30 3437 C 308.151 3.27262 2.77845 0
M  V30 3438 C 307.384 3.45809 4.06512 0
M  V30 3439 O 307.607 2.68387 5.03314 0
M  V30 3440 O 306.541 4.39207 4.11559 0
M  V30 3441 H 310.367 2.77686 1.2298 0
M  V30 3442 H 307.952 1.39132 0.544308 0
M  V30 3443 H 309.834 2.17698 3.60812 0
M  V30 3444 H 308.509 1.12783 3.03417 0
M  V30 3445 H 307.416 3.18359 1.96465 0
M  V30 3446 H 308.749 4.17824 2.60161 0
M  V30 3447 N 310.401 -0.613514 1.45168 0
M  V30 3448 C 311.333 -1.73825 1.4939 0
M  V30 3449 C 312.346 -1.58175 0.385304 0
M  V30 3450 O 313.535 -1.66165 0.652036 0
M  V30 3451 C 310.635 -3.11758 1.32891 0
M  V30 3452 C 309.808 -3.53704 2.57317 0
M  V30 3453 C 308.867 -4.70579 2.35462 0
M  V30 3454 O 307.893 -4.77996 3.09044 0
M  V30 3455 N 309.095 -5.63454 1.39644 0
M  V30 3456 H 311.86 -1.70669 2.46358 0
M  V30 3457 H 309.421 -0.79862 1.40832 0
M  V30 3458 H 311.413 -3.87692 1.1609 0
M  V30 3459 H 309.983 -3.09456 0.442218 0
M  V30 3460 H 309.203 -2.67794 2.89275 0
M  V30 3461 H 310.491 -3.78486 3.40038 0
M  V30 3462 H 309.889 -5.6017 0.789062 0
M  V30 3463 H 308.446 -6.38944 1.28816 0
M  V30 3464 N 311.879 -1.3236 -0.855495 0
M  V30 3465 C 312.789 -1.23221 -1.99634 0
M  V30 3466 C 313.805 -0.145983 -1.73387 0
M  V30 3467 O 314.981 -0.366502 -1.98037 0
M  V30 3468 C 312.046 -0.954782 -3.33294 0
M  V30 3469 C 311.107 -2.12937 -3.72769 0
M  V30 3470 C 310.34 -1.86508 -5.00051 0
M  V30 3471 O 310.563 -0.807231 -5.64659 0
M  V30 3472 O 309.497 -2.72591 -5.36636 0
M  V30 3473 H 313.323 -2.19126 -2.1028 0
M  V30 3474 H 310.908 -1.12241 -0.986018 0
M  V30 3475 H 312.79 -0.816519 -4.13414 0
M  V30 3476 H 311.465 -0.0258854 -3.2369 0
M  V30 3477 H 310.372 -2.3231 -2.93228 0
M  V30 3478 H 311.705 -3.04102 -3.87018 0
M  V30 3479 N 313.357 1.07166 -1.15556 0
M  V30 3480 C 314.287 2.16403 -0.877046 0
M  V30 3481 C 315.268 1.69217 0.173111 0
M  V30 3482 O 316.453 1.94181 0.027084 0
M  V30 3483 C 313.583 3.45349 -0.367632 0
M  V30 3484 C 312.537 4.05995 -1.35468 0
M  V30 3485 C 311.863 5.30045 -0.704038 0
M  V30 3486 C 313.163 4.45804 -2.72132 0
M  V30 3487 H 314.857 2.39959 -1.79053 0
M  V30 3488 H 312.403 1.15325 -0.862331 0
M  V30 3489 H 314.356 4.21095 -0.160317 0
M  V30 3490 H 313.08 3.21385 0.581326 0
M  V30 3491 H 311.739 3.32296 -1.54839 0
M  V30 3492 H 311.387 5.02373 0.251128 0
M  V30 3493 H 311.087 5.71579 -1.36277 0
M  V30 3494 H 312.611 6.08495 -0.50654 0
M  V30 3495 H 314.025 5.12671 -2.56595 0
M  V30 3496 H 312.422 4.98296 -3.34397 0
M  V30 3497 H 313.492 3.57083 -3.28054 0
M  V30 3498 N 314.835 0.952656 1.25548 0
M  V30 3499 C 316.112 0.523818 1.88456 0
M  V30 3500 C 316.492 -0.998871 1.85973 0
M  V30 3501 O 315.84 -1.86381 1.3219 0
M  V30 3502 C 316.05 1.0982 3.31271 0
M  V30 3503 C 317.398 1.17385 4.08051 0
M  V30 3504 O 318.422 1.04961 3.40384 0
M  V30 3505 O 317.281 1.36852 5.29088 0
M  V30 3506 H 314.375 0.172485 0.808813 0
M  V30 3507 H 316.921 1.04596 1.33633 0
M  V30 3508 H 315.693 2.1415 3.27499 0
M  V30 3509 H 315.316 0.559191 3.93648 0
M  V30 3510 N 316.313 -1.40141 0.720998 0
M  V30 3511 C 317.56 -2.00787 0.262842 0
M  V30 3512 C 317.888 -1.5718 -1.14563 0
M  V30 3513 O 317.143 -0.785391 -1.79249 0
M  V30 3514 C 317.442 -3.56165 0.296892 0
M  V30 3515 C 317.108 -4.19373 1.65641 0
M  V30 3516 C 315.77 -4.36352 2.02855 0
M  V30 3517 C 318.122 -4.54578 2.54968 0
M  V30 3518 C 315.45 -4.8582 3.28931 0
M  V30 3519 C 317.802 -5.05447 3.80402 0
M  V30 3520 C 316.466 -5.20635 4.17726 0
M  V30 3521 H 315.736 -0.734731 0.0961807 0
M  V30 3522 H 318.383 -1.67673 0.925093 0
M  V30 3523 H 316.688 -3.8922 -0.448932 0
M  V30 3524 H 318.385 -4.00929 -0.0755208 0
M  V30 3525 H 314.975 -4.06549 1.35704 0
M  V30 3526 H 319.159 -4.41091 2.27491 0
M  V30 3527 H 314.415 -4.95764 3.57811 0
M  V30 3528 H 318.589 -5.31663 4.49786 0
M  V30 3529 H 316.216 -5.58728 5.15487 0
M  V30 3530 N 317.792 -0.46758 -1.50504 0
M  V30 3531 C 319.069 0.15003 -1.95024 0
M  V30 3532 C 319.449 1.57304 -1.40779 0
M  V30 3533 O 318.797 2.20281 -0.607319 0
M  V30 3534 C 319.007 0.0969324 -3.48865 0
M  V30 3535 C 320.355 0.287565 -4.23625 0
M  V30 3536 O 321.379 0.173678 -3.55776 0
M  V30 3537 O 320.238 0.517186 -5.44047 0
M  V30 3538 H 317.332 0.113582 -0.819163 0
M  V30 3539 H 319.878 -0.52773 -1.61286 0
M  V30 3540 H 318.65 -0.896732 -3.80886 0
M  V30 3541 H 318.273 0.816303 -3.8913 0
M  V30 3542 N 319.27 1.56325 -0.20005 0
M  V30 3543 C 320.498 2.02105 0.442874 0
M  V30 3544 C 320.913 1.08014 1.5485 0
M  V30 3545 O 320.27 0.0858797 1.82298 0
M  V30 3546 C 320.321 3.47549 0.994583 0
M  V30 3547 O 320.042 4.38049 -0.0669322 0
M  V30 3548 C 321.543 4.0887 1.7129 0
M  V30 3549 H 318.763 0.661807 0.110691 0
M  V30 3550 H 321.307 2.02134 -0.310207 0
M  V30 3551 H 319.462 3.48204 1.69803 0
M  V30 3552 H 319.876 5.23368 0.344462 0
M  V30 3553 H 321.35 5.12475 2.05118 0
M  V30 3554 H 321.827 3.52615 2.61838 0
M  V30 3555 H 322.433 4.12002 1.05518 0
M  V30 3556 N 320.748 -0.0735177 1.57428 0
M  V30 3557 C 321.997 -0.771809 1.86349 0
M  V30 3558 C 322.31 -1.78828 0.792452 0
M  V30 3559 O 323.516 -2.53602 0.96945 0
M  V30 3560 C 321.972 -1.42358 3.30548 0
M  V30 3561 C 321.58 -0.445761 4.45777 0
M  V30 3562 C 323.324 -2.10434 3.6867 0
M  V30 3563 C 321.231 -1.10335 5.81016 0
M  V30 3564 H 320.161 -0.291999 0.695164 0
M  V30 3565 H 322.812 -0.0250749 1.83483 0
M  V30 3566 H 321.194 -2.21852 3.28021 0
M  V30 3567 H 322.368 0.319239 4.59693 0
M  V30 3568 H 320.683 0.130457 4.16196 0
M  V30 3569 H 323.28 -2.60405 4.67004 0
M  V30 3570 H 323.623 -2.90298 2.98383 0
M  V30 3571 H 324.156 -1.37773 3.7318 0
M  V30 3572 H 320.895 -0.345061 6.54591 0
M  V30 3573 H 320.415 -1.83925 5.70904 0
M  V30 3574 H 322.094 -1.62367 6.26295 0
M  V30 3575 N 322.226 -1.5378 -0.344866 0
M  V30 3576 C 323.456 -1.74646 -1.10374 0
M  V30 3577 C 323.864 -0.48491 -1.8288 0
M  V30 3578 O 323.207 0.553062 -1.75177 0
M  V30 3579 C 323.269 -2.87145 -2.16306 0
M  V30 3580 C 322.933 -4.26795 -1.63386 0
M  V30 3581 C 323.93 -5.08412 -1.08688 0
M  V30 3582 C 321.615 -4.73276 -1.68272 0
M  V30 3583 C 323.609 -6.34609 -0.595792 0
M  V30 3584 C 321.296 -5.99446 -1.18776 0
M  V30 3585 C 322.294 -6.79946 -0.645215 0
M  V30 3586 O 321.982 -8.03745 -0.157626 0
M  V30 3587 H 321.714 -0.587112 -0.335075 0
M  V30 3588 H 324.268 -2.01403 -0.403252 0
M  V30 3589 H 322.498 -2.55909 -2.89909 0
M  V30 3590 H 324.187 -2.95992 -2.77747 0
M  V30 3591 H 324.953 -4.73666 -1.04236 0
M  V30 3592 H 320.832 -4.10677 -2.09442 0
M  V30 3593 H 324.376 -6.97389 -0.171654 0
M  V30 3594 H 320.273 -6.33687 -1.22928 0
M  V30 3595 H 321.041 -8.18038 -0.275037 0
M  V30 3596 N 323.704 0.605807 -1.45491 0
M  V30 3597 C 324.651 1.7164 -1.54299 0
M  V30 3598 C 325.621 1.61486 -0.388761 0
M  V30 3599 O 326.806 1.81039 -0.602445 0
M  V30 3600 C 323.946 3.09953 -1.51734 0
M  V30 3601 C 323.059 3.309 -2.77721 0
M  V30 3602 C 322.194 4.59329 -2.66816 0
M  V30 3603 C 321.233 4.7354 -3.87848 0
M  V30 3604 N 320.37 5.9327 -3.75467 0
M  V30 3605 H 325.21 1.63449 -2.49176 0
M  V30 3606 H 322.747 0.796957 -1.23641 0
M  V30 3607 H 324.705 3.89977 -1.48235 0
M  V30 3608 H 323.335 3.17098 -0.604068 0
M  V30 3609 H 322.387 2.44639 -2.913 0
M  V30 3610 H 323.699 3.37274 -3.67488 0
M  V30 3611 H 322.853 5.4755 -2.61292 0
M  V30 3612 H 321.592 4.55355 -1.74651 0
M  V30 3613 H 320.597 3.83741 -3.93729 0
M  V30 3614 H 321.822 4.79309 -4.81082 0
M  V30 3615 H 319.768 5.90338 -2.86072 0
M  V30 3616 H 319.685 6.00811 -4.5887 0
M  V30 3617 H 320.953 6.83984 -3.73879 0
M  V30 3618 N 325.182 1.32811 0.848464 0
M  V30 3619 C 326.129 1.22265 1.95755 0
M  V30 3620 C 327.099 0.103413 1.65778 0
M  V30 3621 O 328.284 0.280033 1.88734 0
M  V30 3622 C 325.424 0.958014 3.31536 0
M  V30 3623 C 324.537 2.16262 3.73971 0
M  V30 3624 C 323.672 1.83295 4.98575 0
M  V30 3625 C 322.711 3.00041 5.33518 0
M  V30 3626 N 321.848 2.67125 6.49299 0
M  V30 3627 H 326.688 2.17128 2.04107 0
M  V30 3628 H 324.225 1.07982 0.998913 0
M  V30 3629 H 326.183 0.785052 4.09747 0
M  V30 3630 H 324.813 0.046159 3.22767 0
M  V30 3631 H 323.865 2.44565 2.91362 0
M  V30 3632 H 325.177 3.03572 3.95785 0
M  V30 3633 H 324.331 1.62586 5.84509 0
M  V30 3634 H 323.07 0.932078 4.7871 0
M  V30 3635 H 322.075 3.21374 4.46093 0
M  V30 3636 H 323.3 3.90869 5.55336 0
M  V30 3637 H 321.246 1.79586 6.3094 0
M  V30 3638 H 321.163 3.47965 6.71161 0
M  V30 3639 H 322.431 2.49861 7.3837 0
M  V30 3640 N 326.66 -1.06551 1.16123 0
M  V30 3641 C 327.59 -2.15935 0.88851 0
M  V30 3642 C 328.571 -1.69306 -0.164135 0
M  V30 3643 O 329.756 -1.94193 -0.0167857 0
M  V30 3644 C 326.886 -3.45149 0.385942 0
M  V30 3645 C 325.84 -4.05271 1.3762 0
M  V30 3646 C 325.166 -5.29664 0.732137 0
M  V30 3647 C 326.466 -4.44355 2.74493 0
M  V30 3648 H 328.16 -2.39006 1.80323 0
M  V30 3649 H 325.706 -1.14866 0.868435 0
M  V30 3650 H 327.659 -4.21004 0.182647 0
M  V30 3651 H 326.383 -3.21689 -0.564274 0
M  V30 3652 H 325.042 -3.3147 1.56599 0
M  V30 3653 H 324.69 -5.02499 -0.224483 0
M  V30 3654 H 324.39 -5.70848 1.39307 0
M  V30 3655 H 325.914 -6.08218 0.538802 0
M  V30 3656 H 327.328 -5.11303 2.59311 0
M  V30 3657 H 325.725 -4.96515 3.37035 0
M  V30 3658 H 326.795 -3.55339 3.29943 0
M  V30 3659 N 328.138 -0.959301 -1.25041 0
M  V30 3660 C 329.048 -0.489994 -2.29426 0
M  V30 3661 C 330.064 0.444944 -1.68215 0
M  V30 3662 O 331.24 0.320046 -1.98841 0
M  V30 3663 C 328.305 0.220309 -3.45999 0
M  V30 3664 C 327.366 -0.753418 -4.22637 0
M  V30 3665 C 326.599 -0.076918 -5.33645 0
M  V30 3666 O 326.822 1.13649 -5.58963 0
M  V30 3667 O 325.756 -0.764824 -5.97021 0
M  V30 3668 H 329.582 -1.35755 -2.71669 0
M  V30 3669 H 327.167 -0.725961 -1.30576 0
M  V30 3670 H 329.049 0.619677 -4.16819 0
M  V30 3671 H 327.724 1.06296 -3.0575 0
M  V30 3672 H 326.631 -1.20308 -3.54227 0
M  V30 3673 H 327.964 -1.56423 -4.66683 0
M  V30 3674 N 329.616 1.39756 -0.72842 0
M  V30 3675 C 330.526 2.34444 -0.0855374 0
M  V30 3676 C 331.542 1.57976 0.729356 0
M  V30 3677 O 332.718 1.90301 0.659346 0
M  V30 3678 C 329.783 3.36965 0.815798 0
M  V30 3679 C 328.844 4.29299 -0.0105996 0
M  V30 3680 C 328.077 5.26923 0.84781 0
M  V30 3681 O 328.3 5.30859 2.08673 0
M  V30 3682 O 327.234 6.01249 0.279969 0
M  V30 3683 H 331.06 2.91065 -0.866892 0
M  V30 3684 H 328.645 1.4117 -0.48902 0
M  V30 3685 H 330.527 3.99804 1.33171 0
M  V30 3686 H 329.202 2.82739 1.57608 0
M  V30 3687 H 328.109 3.69703 -0.571877 0
M  V30 3688 H 329.442 4.86712 -0.73295 0
M  V30 3689 N 331.094 0.475555 1.50254 0
M  V30 3690 C 332.334 -0.0765802 2.04256 0
M  V30 3691 C 332.698 -1.36587 1.34937 0
M  V30 3692 O 333.899 -2.00066 1.79519 0
M  V30 3693 C 332.17 -0.251668 3.56513 0
M  V30 3694 S 333.729 -0.761716 4.32138 0
M  V30 3695 H 330.547 -0.0138456 0.710865 0
M  V30 3696 H 333.149 0.643714 1.84598 0
M  V30 3697 H 331.853 0.692404 4.04517 0
M  V30 3698 H 331.384 -0.997946 3.80532 0
M  V30 3699 H 333.399 -2.03451 4.52573 0
M  V30 3700 N 332.573 -1.56217 0.208337 0
M  V30 3701 C 333.803 -2.02043 -0.431523 0
M  V30 3702 C 334.211 -1.08755 -1.54819 0
M  V30 3703 O 333.554 -0.0870009 -1.83494 0
M  V30 3704 C 333.616 -3.44239 -1.03633 0
M  V30 3705 C 333.28 -4.56965 -0.0567502 0
M  V30 3706 C 334.277 -5.14624 0.738773 0
M  V30 3707 C 331.962 -5.02266 0.0581736 0
M  V30 3708 C 333.956 -6.16045 1.63605 0
M  V30 3709 C 331.643 -6.03528 0.959001 0
M  V30 3710 C 332.641 -6.60293 1.7465 0
M  V30 3711 O 332.329 -7.59586 2.6322 0
M  V30 3712 H 332.061 -0.666772 -0.111313 0
M  V30 3713 H 334.615 -2.02919 0.318277 0
M  V30 3714 H 332.845 -3.40391 -1.83497 0
M  V30 3715 H 334.534 -3.73793 -1.58221 0
M  V30 3716 H 335.3 -4.80483 0.660364 0
M  V30 3717 H 331.179 -4.57771 -0.544633 0
M  V30 3718 H 334.723 -6.60279 2.25116 0
M  V30 3719 H 330.62 -6.37092 1.03848 0
M  V30 3720 H 331.388 -7.77057 2.57148 0
M  V30 3721 N 334.051 0.0651679 -1.57465 0
M  V30 3722 C 334.998 1.07675 -2.04144 0
M  V30 3723 C 335.968 1.38071 -0.923335 0
M  V30 3724 O 337.153 1.49026 -1.19146 0
M  V30 3725 C 334.293 2.38337 -2.49579 0
M  V30 3726 C 333.406 2.14413 -3.75035 0
M  V30 3727 C 332.541 3.38686 -4.09225 0
M  V30 3728 C 331.58 3.10156 -5.27702 0
M  V30 3729 N 330.717 4.26778 -5.57499 0
M  V30 3730 H 335.557 0.671716 -2.90331 0
M  V30 3731 H 333.094 0.3201 -1.43575 0
M  V30 3732 H 335.052 3.14632 -2.73975 0
M  V30 3733 H 333.682 2.7663 -1.6636 0
M  V30 3734 H 332.734 1.2878 -3.57939 0
M  V30 3735 H 334.046 1.89344 -4.61466 0
M  V30 3736 H 333.2 4.23373 -4.34558 0
M  V30 3737 H 331.939 3.66837 -3.21374 0
M  V30 3738 H 330.944 2.23866 -5.02159 0
M  V30 3739 H 332.169 2.8332 -6.17176 0
M  V30 3740 H 330.115 4.54948 -4.72608 0
M  V30 3741 H 330.032 4.05005 -6.38362 0
M  V30 3742 H 331.3 5.12443 -5.87386 0
M  V30 3743 N 335.529 1.53961 0.336706 0
M  V30 3744 C 336.476 1.82428 1.41381 0
M  V30 3745 C 337.446 0.670444 1.51968 0
M  V30 3746 O 338.631 0.915565 1.67398 0
M  V30 3747 C 335.771 2.04564 2.77934 0
M  V30 3748 C 334.884 3.32267 2.76084 0
M  V30 3749 C 334.019 3.44434 4.04399 0
M  V30 3750 C 333.058 4.66061 3.96804 0
M  V30 3751 N 332.195 4.75224 5.16823 0
M  V30 3752 H 337.035 2.74324 1.16405 0
M  V30 3753 H 334.572 1.35869 0.563752 0
M  V30 3754 H 336.53 2.15388 3.57301 0
M  V30 3755 H 335.16 1.15974 3.01247 0
M  V30 3756 H 334.212 3.3025 1.88784 0
M  V30 3757 H 335.524 4.21733 2.66351 0
M  V30 3758 H 334.678 3.54728 4.92192 0
M  V30 3759 H 333.417 2.53037 4.16921 0
M  V30 3760 H 332.422 4.55838 3.07396 0
M  V30 3761 H 333.647 5.58829 3.85858 0
M  V30 3762 H 331.593 3.86739 5.29876 0
M  V30 3763 H 331.51 5.58636 5.09374 0
M  V30 3764 H 332.778 4.89835 6.06367 0
M  V30 3765 N 337.007 -0.598083 1.45811 0
M  V30 3766 C 337.97 -1.69018 1.54808 0
M  V30 3767 C 338.97 -1.55037 0.426652 0
M  V30 3768 O 340.16 -1.59932 0.690456 0
M  V30 3769 C 337.292 -3.0835 1.45371 0
M  V30 3770 H 338.485 -1.62403 2.52121 0
M  V30 3771 H 336.038 -0.814626 1.33392 0
M  V30 3772 H 336.773 -3.20534 0.492793 0
M  V30 3773 H 336.558 -3.19907 2.26721 0
M  V30 3774 H 338.048 -3.8788 1.54721 0
M  V30 3775 O 338.524 -1.43439 -0.742122 0
M  V30 3776 H 339.215 -1.3475 -1.39148 0
M  V30 END ATOM
M  V30 BEGIN BOND
M  V30 END BOND
M  V30 END CTAB
M  END
$$$$
