drugbank_target|Q0S9X1 Catechol 2,3-dioxygenase (DB07914)
 OpenBabel12092120473D

  0  0  0     0  0            999 V3000
M  V30 BEGIN CTAB
M  V30 COUNTS 5534 5614 0 0 0
M  V30 BEGIN ATOM
M  V30 1 H -0.908 1.98254 -0.117106 0
M  V30 2 N 0 1.576 0 0
M  V30 3 C 0.933 2.03868 1.02534 0
M  V30 4 C 1.911 0.928543 1.3348 0
M  V30 5 O 3.095 1.19667 1.45644 0
M  V30 6 C 0.222 2.43627 2.35294 0
M  V30 7 C -0.732 3.65373 2.2001 0
M  V30 8 S 0.101 5.13292 1.52614 0
M  V30 9 C 1.257 5.56322 2.86805 0
M  V30 10 H 1.49 2.90518 0.631377 0
M  V30 11 H -0.977 1.52953 0.210867 0
M  V30 12 H 0.981 2.67203 3.11629 0
M  V30 13 H -0.358 1.57376 2.7183 0
M  V30 14 H -1.165 3.90944 3.18086 0
M  V30 15 H -1.563 3.418 1.51819 0
M  V30 16 H 0.729 5.58782 3.83104 0
M  V30 17 H 1.672 6.56266 2.65933 0
M  V30 18 H 2.08 4.83886 2.90714 0
M  V30 19 N 1.4781 -0.272755 1.55222 0
M  V30 20 C 2.7031 -1.02683 1.80197 0
M  V30 21 C 3.1281 -1.79142 0.573551 0
M  V30 22 O 2.4861 -1.74917 -0.476849 0
M  V30 23 C 2.5341 -1.9609 3.02624 0
M  V30 24 O 1.6381 -3.04863 2.77727 0
M  V30 25 H 0.9791 -0.293557 0.595584 0
M  V30 26 H 3.5091 -0.30159 2.02365 0
M  V30 27 H 3.5191 -2.38039 3.31363 0
M  V30 28 H 2.1941 -1.39851 3.91682 0
M  V30 29 H 0.7711 -2.67228 2.60084 0
M  V30 30 N 2.9562 -1.48159 -0.537278 0
M  V30 31 C 4.2332 -1.46291 -1.29839 0
M  V30 32 C 4.6132 -0.170613 -2.10409 0
M  V30 33 O 3.9612 0.847746 -2.12192 0
M  V30 34 C 4.1712 -2.72055 -2.18603 0
M  V30 35 C 5.5192 -3.20087 -2.7898 0
M  V30 36 O 6.5432 -2.72921 -2.28894 0
M  V30 37 O 5.4022 -4.02138 -3.70064 0
M  V30 38 H 2.4962 -0.583906 -0.585647 0
M  V30 39 H 5.0422 -1.60384 -0.554534 0
M  V30 40 H 3.8142 -3.57628 -1.58801 0
M  V30 41 H 3.4372 -2.60646 -3.00249 0
M  V30 42 N 4.4343 0.785586 -1.36625 0
M  V30 43 C 5.3973 1.87999 -1.31107 0
M  V30 44 C 6.3973 1.59316 -0.217959 0
M  V30 45 O 7.5873 1.67656 -0.472977 0
M  V30 46 C 4.7193 3.24861 -1.03334 0
M  V30 47 H 5.9123 1.94307 -2.2844 0
M  V30 48 H 3.4653 0.983813 -1.21453 0
M  V30 49 H 4.2003 3.24235 -0.0647432 0
M  V30 50 H 3.9853 3.4707 -1.82441 0
M  V30 51 H 5.4753 4.04929 -1.02088 0
M  V30 52 N 5.9124 1.20967 1.01018 0
M  V30 53 C 7.3284 0.965905 1.27053 0
M  V30 54 C 7.5284 -0.350785 1.98423 0
M  V30 55 O 6.5844 -1.07773 2.28344 0
M  V30 56 C 7.8974 2.15294 2.09926 0
M  V30 57 C 9.4454 2.19463 2.23171 0
M  V30 58 C 9.9204 3.3767 3.09424 0
M  V30 59 N 11.4114 3.37724 3.17012 0
M  V30 60 C 12.1464 4.25837 3.83993 0
M  V30 61 N 11.6424 5.24138 4.53047 0
M  V30 62 N 13.4354 4.1366 3.80581 0
M  V30 63 H 5.5864 2.0565 0.531194 0
M  V30 64 H 7.8494 0.90024 0.297106 0
M  V30 65 H 7.5554 3.10684 1.64828 0
M  V30 66 H 7.4294 2.13923 3.10672 0
M  V30 67 H 9.8164 1.24632 2.6749 0
M  V30 68 H 9.8974 2.2488 1.21912 0
M  V30 69 H 9.5414 4.32791 2.65808 0
M  V30 70 H 9.4714 3.29491 4.10784 0
M  V30 71 H 11.9624 2.6658 2.6785 0
M  V30 72 H 12.2754 5.87684 5.01844 0
M  V30 73 H 10.6204 5.28068 4.5185 0
M  V30 74 H 13.8114 3.36127 3.25785 0
M  V30 75 H 13.9844 4.82538 4.32505 0
M  V30 76 N 7.3905 -1.2043 1.01659 0
M  V30 77 C 8.6375 -1.89797 0.705917 0
M  V30 78 C 8.9655 -1.78848 -0.764439 0
M  V30 79 O 8.2205 -1.16694 -1.57102 0
M  V30 80 C 8.5195 -3.40464 1.08714 0
M  V30 81 C 8.1855 -3.71614 2.5537 0
M  V30 82 C 6.8475 -3.79826 2.95441 0
M  V30 83 C 9.1995 -3.85915 3.50313 0
M  V30 84 C 6.5275 -3.99797 4.29394 0
M  V30 85 C 8.8795 -4.07396 4.83954 0
M  V30 86 C 7.5435 -4.13837 5.23732 0
M  V30 87 H 6.8135 -0.694518 0.258313 0
M  V30 88 H 9.4605 -1.42691 1.27717 0
M  V30 89 H 7.7655 -3.89385 0.434309 0
M  V30 90 H 9.4625 -3.92433 0.824461 0
M  V30 91 H 6.0525 -3.65822 2.23321 0
M  V30 92 H 10.2365 -3.78926 3.20513 0
M  V30 93 H 5.4925 -4.03018 4.59768 0
M  V30 94 H 9.6665 -4.17404 5.57447 0
M  V30 95 H 7.2935 -4.29064 6.27541 0
M  V30 96 N 8.8686 -0.792821 -1.36206 0
M  V30 97 C 10.1456 -0.290627 -1.93429 0
M  V30 98 C 10.5256 1.21773 -1.72437 0
M  V30 99 O 9.8736 2.0108 -1.08531 0
M  V30 100 C 10.0836 -0.686973 -3.42172 0
M  V30 101 C 11.4316 -0.668643 -4.19302 0
M  V30 102 O 12.4556 -0.627658 -3.50626 0
M  V30 103 O 11.3146 -0.714597 -5.41808 0
M  V30 104 H 8.4086 -0.0727927 -0.82379 0
M  V30 105 H 10.9546 -0.875593 -1.45367 0
M  V30 106 H 9.7266 -1.72711 -3.51122 0
M  V30 107 H 9.3496 -0.0760733 -3.97527 0
M  V30 108 N 10.3467 1.47872 -0.545128 0
M  V30 109 C 11.5957 2.01695 -0.0145033 0
M  V30 110 C 11.9087 1.42609 1.33873 0
M  V30 111 O 13.1147 1.88021 1.95858 0
M  V30 112 C 11.5707 3.59892 0.0245068 0
M  V30 113 C 11.1787 4.27966 -1.32475 0
M  V30 114 C 12.9227 4.21507 0.50316 0
M  V30 115 C 10.8297 5.78136 -1.2455 0
M  V30 116 H 9.7597 0.753998 -0.00165172 0
M  V30 117 H 12.4107 1.69985 -0.691175 0
M  V30 118 H 10.7927 3.88509 0.766575 0
M  V30 119 H 11.9667 4.11003 -2.08357 0
M  V30 120 H 10.2817 3.78286 -1.74036 0
M  V30 121 H 12.8787 5.31538 0.580656 0
M  V30 122 H 13.2217 3.87855 1.51243 0
M  V30 123 H 13.7547 3.97376 -0.183681 0
M  V30 124 H 10.4937 6.16388 -2.23039 0
M  V30 125 H 10.0137 5.97469 -0.528282 0
M  V30 126 H 11.6927 6.40099 -0.942488 0
M  V30 127 N 11.8248 0.280983 1.55075 0
M  V30 128 C 12.7878 -0.590896 2.21452 0
M  V30 129 C 13.7878 -1.07682 1.19421 0
M  V30 130 O 14.9778 -0.97605 1.44288 0
M  V30 131 C 12.1098 -1.81587 2.88511 0
M  V30 132 H 13.3028 -0.0112554 2.99898 0
M  V30 133 H 10.8558 0.0316438 1.56268 0
M  V30 134 H 11.5908 -2.43587 2.14093 0
M  V30 135 H 11.3758 -1.4753 3.63287 0
M  V30 136 H 12.8658 -2.43575 3.39206 0
M  V30 137 N 13.3029 -1.57598 0.00835791 0
M  V30 138 C 14.2529 -2.05431 -0.989045 0
M  V30 139 C 15.2369 -0.950662 -1.29812 0
M  V30 140 O 16.4289 -1.21438 -1.28771 0
M  V30 141 C 13.5579 -2.56801 -2.27833 0
M  V30 142 C 12.6439 -3.74058 -1.99853 0
M  V30 143 N 13.0349 -4.8544 -1.42062 0
M  V30 144 C 11.3329 -3.82148 -2.29953 0
M  V30 145 C 12.0339 -5.66817 -1.30743 0
M  V30 146 N 11.0099 -5.13077 -1.7959 0
M  V30 147 H 14.8119 -2.88955 -0.536853 0
M  V30 148 H 12.3259 -1.61199 -0.197148 0
M  V30 149 H 14.3229 -2.89349 -3.00137 0
M  V30 150 H 12.9829 -1.74699 -2.73698 0
M  V30 151 H 13.9939 -5.0612 -1.09833 0
M  V30 152 H 10.6709 -3.10916 -2.78635 0
M  V30 153 H 12.0609 -6.66343 -0.862328 0
M  V30 154 N 14.781 0.264519 -1.55364 0
M  V30 155 C 15.711 1.33121 -1.91836 0
M  V30 156 C 16.692 1.51101 -0.781192 0
M  V30 157 O 17.877 1.64003 -1.04003 0
M  V30 158 C 15.007 2.68921 -2.19769 0
M  V30 159 C 13.961 2.65661 -3.35571 0
M  V30 160 C 13.287 4.05093 -3.49004 0
M  V30 161 C 14.587 2.24187 -4.71739 0
M  V30 162 H 16.281 1.02844 -2.81182 0
M  V30 163 H 13.827 0.493286 -1.35287 0
M  V30 164 H 15.78 3.43663 -2.43872 0
M  V30 165 H 14.504 3.00799 -1.27231 0
M  V30 166 H 13.163 1.93377 -3.1145 0
M  V30 167 H 12.811 4.34206 -2.53917 0
M  V30 168 H 12.511 4.03804 -4.26868 0
M  V30 169 H 14.035 4.81561 -3.75408 0
M  V30 170 H 15.449 2.88654 -4.9533 0
M  V30 171 H 13.846 2.34044 -5.52579 0
M  V30 172 H 14.916 1.19327 -4.69988 0
M  V30 173 N 16.2591 1.48442 0.529413 0
M  V30 174 C 17.2221 1.62524 1.61612 0
M  V30 175 C 18.2221 0.498509 1.52877 0
M  V30 176 O 19.4121 0.76431 1.56537 0
M  V30 177 C 16.5441 1.59597 3.01233 0
M  V30 178 H 17.7371 2.59423 1.50465 0
M  V30 179 H 15.2901 1.37047 0.751514 0
M  V30 180 H 16.0251 0.641781 3.17886 0
M  V30 181 H 15.8101 2.41397 3.08982 0
M  V30 182 H 17.3001 1.72646 3.80241 0
M  V30 183 N 17.7372 -0.778329 1.37039 0
M  V30 184 C 19.1532 -1.07796 1.17695 0
M  V30 185 C 19.3532 -2.01498 0.00860115 0
M  V30 186 O 18.4092 -2.43901 -0.653352 0
M  V30 187 C 19.7222 -1.68178 2.49272 0
M  V30 188 C 21.2702 -1.80467 2.55735 0
M  V30 189 C 21.7452 -2.44263 3.87427 0
M  V30 190 N 23.2362 -2.51721 3.88833 0
M  V30 191 C 23.9712 -3.01919 4.87476 0
M  V30 192 N 23.4672 -3.5234 5.96513 0
M  V30 193 N 25.2602 -3.00733 4.74885 0
M  V30 194 H 17.4112 -0.156032 2.11826 0
M  V30 195 H 19.6742 -0.131844 0.938787 0
M  V30 196 H 19.3802 -1.06796 3.35093 0
M  V30 197 H 19.2542 -2.67554 2.65885 0
M  V30 198 H 21.6412 -2.40984 1.70325 0
M  V30 199 H 21.7222 -0.798656 2.43013 0
M  V30 200 H 21.3662 -1.84388 4.73248 0
M  V30 201 H 21.2962 -3.45458 3.9745 0
M  V30 202 H 23.7872 -2.1603 3.10063 0
M  V30 203 H 24.1002 -3.89027 6.67741 0
M  V30 204 H 22.4452 -3.50462 6.00168 0
M  V30 205 H 25.6362 -2.60638 3.88826 0
M  V30 206 H 25.8092 -3.39545 5.51918 0
M  V30 207 N 19.2153 -1.21501 -1.00376 0
M  V30 208 C 20.1783 -0.976927 -2.07337 0
M  V30 209 C 21.1783 0.0525322 -1.60714 0
M  V30 210 O 22.3683 -0.184869 -1.73216 0
M  V30 211 C 19.5003 -0.473423 -3.37597 0
M  V30 212 H 20.6933 -1.92587 -2.29892 0
M  V30 213 H 18.2463 -1.03217 -1.17371 0
M  V30 214 H 18.9813 0.480379 -3.20722 0
M  V30 215 H 18.7663 -1.216 -3.72768 0
M  V30 216 H 20.2563 -0.32675 -4.1632 0
M  V30 217 N 20.6934 1.19889 -1.02296 0
M  V30 218 C 21.6034 2.26571 -0.608508 0
M  V30 219 C 22.6194 1.70299 0.356964 0
M  V30 220 O 23.7954 2.00235 0.216326 0
M  V30 221 C 20.8604 3.46677 0.0402814 0
M  V30 222 C 19.9214 4.18153 -0.97194 0
M  V30 223 C 19.1544 5.32525 -0.354016 0
M  V30 224 O 19.3774 5.64112 0.844604 0
M  V30 225 O 18.3114 5.92242 -1.07391 0
M  V30 226 H 22.1374 2.64251 -1.49684 0
M  V30 227 H 19.7224 1.26629 -0.792809 0
M  V30 228 H 21.6044 4.19475 0.402324 0
M  V30 229 H 20.2794 3.10858 0.902707 0
M  V30 230 H 19.1864 3.47499 -1.38546 0
M  V30 231 H 20.5194 4.57927 -1.80454 0
M  V30 232 N 22.1715 0.800033 1.35784 0
M  V30 233 C 23.1015 0.220184 2.3246 0
M  V30 234 C 24.0825 -0.65073 1.57161 0
M  V30 235 O 25.2675 -0.582359 1.85263 0
M  V30 236 C 22.3975 -0.637353 3.41402 0
M  V30 237 C 21.3515 0.134531 4.27789 0
M  V30 238 C 20.6775 -0.844285 5.27992 0
M  V30 239 C 21.9775 1.32979 5.05088 0
M  V30 240 H 23.6715 1.02787 2.81203 0
M  V30 241 H 21.2175 0.495717 1.35199 0
M  V30 242 H 23.1705 -1.05302 4.08031 0
M  V30 243 H 21.8945 -1.47785 2.91251 0
M  V30 244 H 20.5535 0.531296 3.6273 0
M  V30 245 H 20.2015 -1.68011 4.74111 0
M  V30 246 H 19.9015 -0.332184 5.8666 0
M  V30 247 H 21.4255 -1.2583 5.97494 0
M  V30 248 H 22.8395 0.98934 5.64699 0
M  V30 249 H 21.2365 1.77593 5.7322 0
M  V30 250 H 22.3065 2.11978 4.36111 0
M  V30 251 N 23.6496 -1.47581 0.552962 0
M  V30 252 C 24.8966 -2.02482 0.0273243 0
M  V30 253 C 25.2246 -1.42776 -1.32081 0
M  V30 254 O 24.4796 -0.571393 -1.87173 0
M  V30 255 C 24.7786 -3.57199 -0.119728 0
M  V30 256 C 24.4446 -4.35804 1.15697 0
M  V30 257 C 23.1066 -4.57 1.50681 0
M  V30 258 C 25.4586 -4.81167 2.00319 0
M  V30 259 C 22.7866 -5.20807 2.70142 0
M  V30 260 C 25.1386 -5.46293 3.18978 0
M  V30 261 C 23.8026 -5.65722 3.54281 0
M  V30 262 H 23.0726 -0.740933 0.00999866 0
M  V30 263 H 25.7196 -1.77302 0.72362 0
M  V30 264 H 24.0246 -3.81348 -0.89896 0
M  V30 265 H 25.7216 -3.97324 -0.541718 0
M  V30 266 H 22.3116 -4.19582 0.874561 0
M  V30 267 H 26.4956 -4.64574 1.74599 0
M  V30 268 H 21.7516 -5.34045 2.97668 0
M  V30 269 H 25.9256 -5.80407 3.84838 0
M  V30 270 H 23.5526 -6.14936 4.46942 0
M  V30 271 N 25.1277 -0.289203 -1.54924 0
M  V30 272 C 26.3527 0.329299 -2.04769 0
M  V30 273 C 26.7777 1.4763 -1.16564 0
M  V30 274 O 26.1357 1.80527 -0.167186 0
M  V30 275 C 26.1837 0.774438 -3.52186 0
M  V30 276 O 25.2877 1.88038 -3.67036 0
M  V30 277 H 24.6287 0.0659259 -0.660719 0
M  V30 278 H 27.1587 -0.42761 -2.00082 0
M  V30 279 H 27.1687 1.06642 -3.93816 0
M  V30 280 H 25.8437 -0.0646707 -4.1585 0
M  V30 281 H 24.4207 1.58985 -3.3731 0
M  V30 282 N 26.6058 1.57591 -0.0167156 0
M  V30 283 C 28.0168 1.79201 0.523834 0
M  V30 284 C 28.3678 0.925796 1.72984 0
M  V30 285 O 27.4928 0.132792 2.15992 0
M  V30 286 C 28.0878 3.25 0.957091 0
M  V30 287 C 26.6468 3.47648 1.44283 0
M  V30 288 C 25.7938 2.74374 0.401757 0
M  V30 289 H 28.7448 1.56831 -0.242816 0
M  V30 290 H 28.7658 3.34031 1.82219 0
M  V30 291 H 28.2778 3.88019 0.0791415 0
M  V30 292 H 26.3788 2.89866 2.34113 0
M  V30 293 H 26.4918 4.56352 1.45877 0
M  V30 294 H 24.8558 2.39485 0.867121 0
M  V30 295 H 25.6388 3.40102 -0.467513 0
M  V30 296 N 28.0839 -0.256276 1.55502 0
M  V30 297 C 29.0309 -1.31714 1.89526 0
M  V30 298 C 30.0009 -1.4828 0.748479 0
M  V30 299 O 31.1859 -1.62416 1.00128 0
M  V30 300 C 28.3259 -2.66933 2.18725 0
M  V30 301 C 27.4389 -2.58452 3.4616 0
M  V30 302 C 26.5739 -3.85961 3.64976 0
M  V30 303 C 25.6129 -3.72059 4.86044 0
M  V30 304 N 24.7499 -4.9144 5.01429 0
M  V30 305 H 29.5899 -1.01998 2.80001 0
M  V30 306 H 27.1269 -0.492413 1.38613 0
M  V30 307 H 29.0849 -3.4563 2.33657 0
M  V30 308 H 27.7149 -2.94816 1.31466 0
M  V30 309 H 26.7669 -1.71374 3.3961 0
M  V30 310 H 28.0789 -2.44085 4.34999 0
M  V30 311 H 27.2329 -4.73101 3.79816 0
M  V30 312 H 25.9719 -4.03215 2.74353 0
M  V30 313 H 24.9769 -2.83302 4.7119 0
M  V30 314 H 26.2019 -3.56309 5.78118 0
M  V30 315 H 24.1479 -5.09072 4.13741 0
M  V30 316 H 24.0649 -4.79668 5.84341 0
M  V30 317 H 25.3329 -5.80104 5.20672 0
M  V30 318 N 29.562 -1.4872 -0.521534 0
M  V30 319 C 30.973 -1.50607 -1.10337 0
M  V30 320 C 31.324 -0.280612 -1.94183 0
M  V30 321 O 30.449 0.611507 -2.0758 0
M  V30 322 C 31.044 -2.72903 -2.00772 0
M  V30 323 C 29.603 -2.77634 -2.54158 0
M  V30 324 C 28.75 -2.44241 -1.31307 0
M  V30 325 H 31.701 -1.55714 -0.306388 0
M  V30 326 H 31.722 -2.519 -2.85178 0
M  V30 327 H 31.234 -3.62077 -1.39721 0
M  V30 328 H 29.335 -1.92689 -3.18907 0
M  V30 329 H 29.448 -3.79283 -2.92714 0
M  V30 330 H 27.812 -1.95577 -1.63161 0
M  V30 331 H 28.595 -3.35666 -0.719943 0
M  V30 332 N 31.0401 0.771051 -1.3745 0
M  V30 333 C 31.9721 1.89352 -1.29146 0
M  V30 334 C 32.9851 1.61477 -0.207124 0
M  V30 335 O 34.1741 1.72382 -0.463324 0
M  V30 336 C 31.2741 3.24596 -0.974195 0
M  V30 337 C 30.4471 3.80111 -2.16413 0
M  V30 338 C 29.5061 4.93832 -1.81703 0
M  V30 339 O 28.5321 5.09382 -2.54006 0
M  V30 340 N 29.7341 5.75483 -0.761573 0
M  V30 341 H 32.4991 1.96991 -2.25864 0
M  V30 342 H 30.0601 0.950191 -1.31084 0
M  V30 343 H 32.0521 3.98193 -0.722828 0
M  V30 344 H 30.6221 3.12454 -0.0955527 0
M  V30 345 H 29.8421 2.98284 -2.57721 0
M  V30 346 H 31.1301 4.13932 -2.95867 0
M  V30 347 H 30.5281 5.65469 -0.161609 0
M  V30 348 H 29.0851 6.49302 -0.570064 0
M  V30 349 N 32.5182 1.22032 0.997298 0
M  V30 350 C 33.4282 1.00271 2.12092 0
M  V30 351 C 34.4442 -0.047621 1.73935 0
M  V30 352 O 35.6202 0.144136 2.00884 0
M  V30 353 C 32.6852 0.578449 3.4184 0
M  V30 354 C 31.7462 1.70189 3.94125 0
M  V30 355 C 30.9792 1.29778 5.17681 0
M  V30 356 O 31.2022 0.174676 5.70132 0
M  V30 357 O 30.1362 2.11261 5.63607 0
M  V30 358 H 33.9622 1.94398 2.3333 0
M  V30 359 H 31.5472 1.00587 1.10465 0
M  V30 360 H 33.4292 0.351998 4.19927 0
M  V30 361 H 32.1042 -0.334019 3.21972 0
M  V30 362 H 31.0112 1.98282 3.1723 0
M  V30 363 H 32.3442 2.59206 4.18417 0
M  V30 364 N 33.9963 -1.19345 1.0293 0
M  V30 365 C 35.2243 -1.92997 0.745644 0
M  V30 366 C 35.6393 -1.75519 -0.695589 0
M  V30 367 O 34.9963 -1.07737 -1.47306 0
M  V30 368 C 35.0473 -3.44741 1.08792 0
M  V30 369 O 34.7683 -3.61658 2.47256 0
M  V30 370 C 36.2693 -4.35515 0.827129 0
M  V30 371 H 33.4893 -0.613042 0.272801 0
M  V30 372 H 36.0333 -1.51473 1.3739 0
M  V30 373 H 34.1883 -3.84097 0.504832 0
M  V30 374 H 34.6023 -4.55514 2.60015 0
M  V30 375 H 36.0763 -5.40589 1.11658 0
M  V30 376 H 36.5533 -4.38552 -0.238436 0
M  V30 377 H 37.1593 -4.01841 1.39297 0
M  V30 378 N 35.4744 -0.807222 -1.35358 0
M  V30 379 C 36.4044 -0.232509 -2.3234 0
M  V30 380 C 37.3854 0.642386 -1.57504 0
M  V30 381 O 38.5704 0.572526 -1.85569 0
M  V30 382 C 35.7004 0.619238 -3.41735 0
M  V30 383 C 34.6544 -0.157215 -4.27711 0
M  V30 384 C 33.9804 0.816273 -5.28433 0
M  V30 385 C 35.2804 -1.35656 -5.04376 0
M  V30 386 H 36.9744 -1.04276 -2.80654 0
M  V30 387 H 34.5204 -0.50288 -1.34934 0
M  V30 388 H 36.4734 1.03137 -4.08584 0
M  V30 389 H 35.1974 1.46239 -2.92031 0
M  V30 390 H 33.8564 -0.550525 -3.62443 0
M  V30 391 H 33.5044 1.65494 -4.74996 0
M  V30 392 H 33.2044 0.301067 -5.86828 0
M  V30 393 H 34.7284 1.22659 -5.98153 0
M  V30 394 H 36.1424 -1.01927 -5.64166 0
M  V30 395 H 34.5394 -1.8063 -5.7227 0
M  V30 396 H 35.6094 -2.14288 -4.34981 0
M  V30 397 N 36.9525 1.47285 -0.560781 0
M  V30 398 C 38.2295 1.9558 0.0277798 0
M  V30 399 C 38.6095 1.5034 1.48192 0
M  V30 400 O 37.9575 0.743882 2.16052 0
M  V30 401 C 38.1675 3.48789 -0.121418 0
M  V30 402 C 39.5155 4.24594 0.0220912 0
M  V30 403 O 40.5395 3.56166 -0.0491439 0
M  V30 404 O 39.3985 5.46217 0.175958 0
M  V30 405 H 36.4925 0.824663 0.0621342 0
M  V30 406 H 39.0385 1.5767 -0.627556 0
M  V30 407 H 37.8105 3.74533 -1.13316 0
M  V30 408 H 37.4335 3.93473 0.571366 0
M  V30 409 N 38.4306 0.297415 1.54768 0
M  V30 410 C 39.6776 -0.312913 2.00068 0
M  V30 411 C 40.0056 -1.54171 1.18582 0
M  V30 412 O 39.2606 -1.94108 0.249133 0
M  V30 413 C 39.5596 -0.717561 3.50123 0
M  V30 414 C 39.2256 0.409095 4.4904 0
M  V30 415 C 37.8876 0.718399 4.75807 0
M  V30 416 C 40.2396 1.16717 5.07963 0
M  V30 417 C 37.5676 1.78896 5.5876 0
M  V30 418 C 39.9196 2.22762 5.92081 0
M  V30 419 C 38.5836 2.54303 6.1716 0
M  V30 420 H 37.8536 -0.114503 0.7321 0
M  V30 421 H 40.5006 0.415767 1.86932 0
M  V30 422 H 38.8056 -1.52627 3.60849 0
M  V30 423 H 40.5026 -1.20091 3.82595 0
M  V30 424 H 37.0926 0.157918 4.28309 0
M  V30 425 H 41.2766 0.941466 4.87289 0
M  V30 426 H 36.5326 2.0381 5.7643 0
M  V30 427 H 40.7066 2.81962 6.36765 0
M  V30 428 H 38.3336 3.3739 6.81229 0
M  V30 429 N 39.9087 -1.5758 0.0250728 0
M  V30 430 C 41.1557 -1.91633 -0.654444 0
M  V30 431 C 41.4837 -0.901103 -1.72367 0
M  V30 432 O 40.7387 0.0905647 -1.9549 0
M  V30 433 C 41.0377 -3.32421 -1.31268 0
M  V30 434 C 40.7037 -4.49344 -0.374223 0
M  V30 435 C 39.3657 -4.8106 -0.115911 0
M  V30 436 C 41.7177 -5.20498 0.270432 0
M  V30 437 C 39.0457 -5.8129 0.79493 0
M  V30 438 C 41.3977 -6.21699 1.1693 0
M  V30 439 C 40.0617 -6.51859 1.43655 0
M  V30 440 H 39.3317 -0.701236 -0.239478 0
M  V30 441 H 41.9787 -1.91307 0.0859734 0
M  V30 442 H 40.2837 -3.28989 -2.12775 0
M  V30 443 H 41.9807 -3.56038 -1.84494 0
M  V30 444 H 38.5707 -4.24579 -0.58573 0
M  V30 445 H 42.7547 -4.96229 0.0839194 0
M  V30 446 H 38.0107 -6.03005 1.00973 0
M  V30 447 H 42.1847 -6.75955 1.67504 0
M  V30 448 H 39.8117 -7.2934 2.144 0
M  V30 449 N 41.3868 0.248026 -1.55636 0
M  V30 450 C 42.6148 0.993808 -1.81469 0
M  V30 451 C 43.0298 1.78991 -0.60064 0
M  V30 452 O 42.3868 1.77345 0.430682 0
M  V30 453 C 42.4378 1.93258 -3.05506 0
M  V30 454 O 42.1588 1.16869 -4.22224 0
M  V30 455 C 43.6598 2.79444 -3.4413 0
M  V30 456 H 40.8798 0.292486 -0.603898 0
M  V30 457 H 43.4238 0.271253 -2.02693 0
M  V30 458 H 41.5788 2.60943 -2.86335 0
M  V30 459 H 41.9928 1.80359 -4.92515 0
M  V30 460 H 43.4668 3.41066 -4.34026 0
M  V30 461 H 43.9438 3.50499 -2.64665 0
M  V30 462 H 44.5498 2.17214 -3.65648 0
M  V30 463 N 42.8649 1.48995 0.513639 0
M  V30 464 C 43.8119 1.6473 1.61656 0
M  V30 465 C 44.7819 0.488984 1.58739 0
M  V30 466 O 45.9669 0.714478 1.76918 0
M  V30 467 C 43.1069 1.7082 2.99858 0
M  V30 468 C 42.2199 2.9787 3.12885 0
M  V30 469 C 41.3549 2.95017 4.41744 0
M  V30 470 C 40.3939 4.16702 4.48359 0
M  V30 471 N 39.5309 4.11832 5.68629 0
M  V30 472 H 44.3709 2.58909 1.47547 0
M  V30 473 H 41.9079 1.28382 0.71808 0
M  V30 474 H 43.8659 1.72331 3.79944 0
M  V30 475 H 42.4959 0.801181 3.12699 0
M  V30 476 H 41.5479 3.06029 2.25944 0
M  V30 477 H 42.8599 3.8786 3.13633 0
M  V30 478 H 42.0139 2.95021 5.30139 0
M  V30 479 H 40.7529 2.02784 4.43542 0
M  V30 480 H 39.7579 4.16955 3.58369 0
M  V30 481 H 40.9829 5.10113 4.48287 0
M  V30 482 H 38.9289 3.22428 5.71293 0
M  V30 483 H 38.8459 4.95543 5.7094 0
M  V30 484 H 40.1139 4.1592 6.59266 0
M  V30 485 N 44.343 -0.763751 1.37857 0
M  V30 486 C 45.59 -1.52257 1.33506 0
M  V30 487 C 45.918 -1.94343 -0.078022 0
M  V30 488 O 45.173 -1.64958 -1.05297 0
M  V30 489 C 45.472 -2.79499 2.22745 0
M  V30 490 C 45.138 -2.56426 3.70886 0
M  V30 491 C 43.8 -2.49842 4.11257 0
M  V30 492 C 46.152 -2.36008 4.64704 0
M  V30 493 C 43.48 -2.20841 5.43549 0
M  V30 494 C 45.832 -2.0853 5.97242 0
M  V30 495 C 44.496 -2.00396 6.36709 0
M  V30 496 H 43.766 -0.557149 0.488534 0
M  V30 497 H 46.413 -0.879073 1.70131 0
M  V30 498 H 44.718 -3.48447 1.79142 0
M  V30 499 H 46.415 -3.37413 2.16688 0
M  V30 500 H 43.005 -2.62416 3.38874 0
M  V30 501 H 47.189 -2.40079 4.34368 0
M  V30 502 H 42.445 -2.13045 5.73081 0
M  V30 503 H 46.619 -1.91732 6.69486 0
M  V30 504 H 44.246 -1.77688 7.39142 0
M  V30 505 N 45.8211 -1.22559 -0.990812 0
M  V30 506 C 46.7511 -1.0218 -2.09956 0
M  V30 507 C 47.7321 0.0579394 -1.70001 0
M  V30 508 O 48.9171 -0.104684 -1.93918 0
M  V30 509 C 46.0471 -0.601023 -3.4206 0
M  V30 510 C 45.0011 -1.62694 -3.95872 0
M  V30 511 C 44.3271 -1.06193 -5.24049 0
M  V30 512 C 45.6271 -3.01743 -4.2632 0
M  V30 513 H 47.3211 -1.94916 -2.27262 0
M  V30 514 H 44.8671 -0.938566 -1.09211 0
M  V30 515 H 46.8201 -0.445561 -4.19038 0
M  V30 516 H 45.5441 0.362005 -3.24588 0
M  V30 517 H 44.2031 -1.77021 -3.21028 0
M  V30 518 H 43.8511 -0.0901903 -5.02919 0
M  V30 519 H 43.5511 -1.74732 -5.61019 0
M  V30 520 H 45.0751 -0.918092 -6.03658 0
M  V30 521 H 46.4891 -2.90777 -4.94087 0
M  V30 522 H 44.8861 -3.67425 -4.74467 0
M  V30 523 H 45.9561 -3.51518 -3.34011 0
M  V30 524 N 47.2992 1.18797 -1.03562 0
M  V30 525 C 48.5472 1.88278 -0.734569 0
M  V30 526 C 48.8682 1.8043 0.739586 0
M  V30 527 O 48.1382 1.21925 1.53333 0
M  V30 528 H 46.7182 0.696991 -0.268725 0
M  V30 529 H 49.3802 1.44192 -1.31129 0
M  V30 530 H 48.4762 2.94443 -1.03489 0
M  V30 531 N 48.7773 0.814389 1.34928 0
M  V30 532 C 49.7103 0.175641 2.27523 0
M  V30 533 C 50.6883 -0.662953 1.48471 0
M  V30 534 O 51.8723 -0.628545 1.77712 0
M  V30 535 C 48.9993 -0.755516 3.30166 0
M  V30 536 C 48.0453 0.00445305 4.265 0
M  V30 537 S 48.8783 1.34582 5.18313 0
M  V30 538 C 50.0343 0.419315 6.24494 0
M  V30 539 H 50.2673 0.960691 2.8135 0
M  V30 540 H 47.8003 0.609846 1.41846 0
M  V30 541 H 49.7583 -1.28723 3.89796 0
M  V30 542 H 48.4193 -1.51402 2.75202 0
M  V30 543 H 47.6123 -0.703077 4.99072 0
M  V30 544 H 47.2143 0.466447 3.7108 0
M  V30 545 H 49.5063 -0.392432 6.76362 0
M  V30 546 H 50.4493 1.11446 6.99275 0
M  V30 547 H 50.8573 0.0115389 5.64499 0
M  V30 548 N 50.2554 -1.46986 0.568584 0
M  V30 549 C 51.4854 -2.0653 0.0539173 0
M  V30 550 C 51.8934 -1.42004 -1.25026 0
M  V30 551 O 51.2364 -0.514541 -1.76347 0
M  V30 552 C 51.2984 -3.58938 -0.200854 0
M  V30 553 C 50.9624 -4.45572 1.01559 0
M  V30 554 C 51.9594 -4.82986 1.92407 0
M  V30 555 C 49.6444 -4.8692 1.23346 0
M  V30 556 C 51.6384 -5.60559 3.03402 0
M  V30 557 C 49.3254 -5.64255 2.34649 0
M  V30 558 C 50.3234 -6.00986 3.24507 0
M  V30 559 O 50.0114 -6.76761 4.33878 0
M  V30 560 H 49.7434 -0.674292 0.0480234 0
M  V30 561 H 52.2974 -1.89812 0.784896 0
M  V30 562 H 50.5274 -3.73911 -0.986279 0
M  V30 563 H 52.2164 -4.0046 -0.662294 0
M  V30 564 H 52.9824 -4.51633 1.76785 0
M  V30 565 H 48.8614 -4.57789 0.543178 0
M  V30 566 H 52.4054 -5.89147 3.73565 0
M  V30 567 H 48.3024 -5.95021 2.5024 0
M  V30 568 H 49.0704 -6.95168 4.32068 0
M  V30 569 N 51.7335 -0.305618 -1.54608 0
M  V30 570 C 52.9795 0.302746 -2.00528 0
M  V30 571 C 53.3125 1.53184 -1.19367 0
M  V30 572 O 52.5875 1.92598 -0.271321 0
M  V30 573 C 52.8705 0.654756 -3.54097 0
M  V30 574 C 52.7235 -0.583793 -4.45995 0
M  V30 575 C 54.0425 1.47947 -4.14487 0
M  V30 576 H 51.1615 0.108564 -0.72896 0
M  V30 577 H 53.8035 -0.418634 -1.85331 0
M  V30 578 H 51.9535 1.26935 -3.67178 0
M  V30 579 H 53.6255 -1.22224 -4.44814 0
M  V30 580 H 51.8685 -1.21615 -4.16404 0
M  V30 581 H 52.5395 -0.293287 -5.5122 0
M  V30 582 H 55.0155 0.96013 -4.04871 0
M  V30 583 H 53.8915 1.69454 -5.22088 0
M  V30 584 H 54.1525 2.47011 -3.66658 0
M  V30 585 N 53.2116 1.57565 -0.0334293 0
M  V30 586 C 54.4396 1.9628 0.654347 0
M  V30 587 C 54.8546 0.910138 1.65414 0
M  V30 588 O 54.2116 -0.107595 1.82183 0
M  V30 589 C 54.2626 3.35067 1.35693 0
M  V30 590 O 53.9836 4.36296 0.397191 0
M  V30 591 C 55.4846 3.88439 2.13613 0
M  V30 592 H 52.7046 0.646369 0.180132 0
M  V30 593 H 55.2486 2.04282 -0.0944721 0
M  V30 594 H 53.4036 3.2827 2.05712 0
M  V30 595 H 53.8176 5.1678 0.896597 0
M  V30 596 H 55.2916 4.8788 2.58219 0
M  V30 597 H 55.7686 3.22914 2.97696 0
M  V30 598 H 56.3746 3.98516 1.48543 0
M  V30 599 N 54.6897 -0.239769 1.55765 0
M  V30 600 C 55.6397 -1.30002 1.87306 0
M  V30 601 C 56.6237 -1.43156 0.73452 0
M  V30 602 O 57.8157 -1.46277 0.99659 0
M  V30 603 C 54.9447 -2.65409 2.17745 0
M  V30 604 C 54.0307 -2.56231 3.37945 0
M  V30 605 N 54.4217 -2.16689 4.57033 0
M  V30 606 C 52.7197 -2.87229 3.41197 0
M  V30 607 C 53.4207 -2.18318 5.39177 0
M  V30 608 N 52.3967 -2.58098 4.78421 0
M  V30 609 H 56.1987 -0.984912 2.76906 0
M  V30 610 H 53.7127 -0.448381 1.56087 0
M  V30 611 H 55.7097 -3.41934 2.38509 0
M  V30 612 H 54.3697 -2.97781 1.29448 0
M  V30 613 H 55.3807 -1.88116 4.82528 0
M  V30 614 H 52.0577 -3.24094 2.63191 0
M  V30 615 H 53.4477 -1.90025 6.44469 0
M  V30 616 N 56.1678 -1.49265 -0.50573 0
M  V30 617 C 57.5838 -1.35923 -0.836486 0
M  V30 618 C 57.7838 -0.388704 -1.97715 0
M  V30 619 O 56.8398 0.181336 -2.51848 0
M  V30 620 C 58.1528 -2.76531 -1.18115 0
M  V30 621 C 59.7008 -2.85197 -1.28964 0
M  V30 622 C 60.1758 -4.26561 -1.66761 0
M  V30 623 N 61.6668 -4.2935 -1.73819 0
M  V30 624 C 62.4018 -5.35693 -2.045 0
M  V30 625 N 61.8978 -6.52287 -2.33438 0
M  V30 626 N 63.6908 -5.23105 -2.05711 0
M  V30 627 H 55.8418 -2.10965 0.246519 0
M  V30 628 H 58.1048 -0.9468 0.0476887 0
M  V30 629 H 57.8108 -3.49226 -0.416398 0
M  V30 630 H 57.6848 -3.11599 -2.1257 0
M  V30 631 H 60.0718 -2.12742 -2.04511 0
M  V30 632 H 60.1528 -2.53718 -0.325704 0
M  V30 633 H 59.7968 -4.99541 -0.917656 0
M  V30 634 H 59.7268 -4.55502 -2.64246 0
M  V30 635 H 62.2178 -3.4526 -1.53635 0
M  V30 636 H 62.5308 -7.29158 -2.56024 0
M  V30 637 H 60.8758 -6.55521 -2.30905 0
M  V30 638 H 64.0668 -4.31026 -1.82577 0
M  V30 639 H 64.2398 -6.06078 -2.29289 0
M  V30 640 N 57.6459 0.756429 -1.3826 0
M  V30 641 C 58.5559 1.9009 -1.37488 0
M  V30 642 C 59.5719 1.71855 -0.272366 0
M  V30 643 O 60.7479 1.94827 -0.510318 0
M  V30 644 C 57.8129 3.25421 -1.19592 0
M  V30 645 C 56.8739 3.56202 -2.39622 0
M  V30 646 C 56.1069 4.85075 -2.2257 0
M  V30 647 O 56.3299 5.57246 -1.21793 0
M  V30 648 O 55.2639 5.15269 -3.11098 0
M  V30 649 H 59.0899 1.93695 -2.33914 0
M  V30 650 H 56.6749 0.901313 -1.1915 0
M  V30 651 H 58.5569 4.06337 -1.11661 0
M  V30 652 H 57.2319 3.22634 -0.262486 0
M  V30 653 H 56.1389 2.75458 -2.53128 0
M  V30 654 H 57.4719 3.63747 -3.31586 0
M  V30 655 N 59.124 1.23083 0.984299 0
M  V30 656 C 60.372 1.05848 1.72165 0
M  V30 657 C 60.693 -0.406049 1.90726 0
M  V30 658 O 59.963 -1.29139 1.47309 0
M  V30 659 H 58.543 0.388685 0.637913 0
M  V30 660 H 61.205 1.54736 1.18503 0
M  V30 661 H 60.301 1.54327 2.71274 0
M  V30 662 N 60.6021 -1.18246 1.0419 0
M  V30 663 C 61.5341 -2.2142 0.592088 0
M  V30 664 C 62.5471 -1.59233 -0.338909 0
M  V30 665 O 63.7361 -1.78002 -0.133231 0
M  V30 666 C 60.8361 -3.38546 -0.154854 0
M  V30 667 C 60.0091 -4.3031 0.784328 0
M  V30 668 C 59.0681 -5.26138 0.0804583 0
M  V30 669 O 58.0941 -5.64738 0.711292 0
M  V30 670 N 59.2961 -5.68261 -1.18574 0
M  V30 671 H 62.0611 -2.60636 1.47949 0
M  V30 672 H 59.6221 -1.33044 0.922544 0
M  V30 673 H 61.6141 -3.99678 -0.635606 0
M  V30 674 H 60.1841 -2.98012 -0.943811 0
M  V30 675 H 59.4041 -3.66764 1.44491 0
M  V30 676 H 60.6921 -4.8852 1.42218 0
M  V30 677 H 60.0901 -5.38957 -1.71876 0
M  V30 678 H 58.6471 -6.31584 -1.61074 0
M  V30 679 N 62.0802 -0.821533 -1.34494 0
M  V30 680 C 63.3052 -0.420873 -2.03085 0
M  V30 681 C 63.7302 0.964915 -1.61465 0
M  V30 682 O 63.0882 1.62763 -0.798607 0
M  V30 683 C 63.1362 -0.529414 -3.56693 0
M  V30 684 O 62.2402 0.451302 -4.09923 0
M  V30 685 H 61.5812 -0.173489 -0.640935 0
M  V30 686 H 64.1112 -1.11157 -1.71771 0
M  V30 687 H 64.1212 -0.404671 -4.05988 0
M  V30 688 H 62.7962 -1.54014 -3.86332 0
M  V30 689 H 61.3732 0.285558 -3.71805 0
M  V30 690 N 63.5583 1.46682 -0.576371 0
M  V30 691 C 64.8043 2.02712 -0.0596221 0
M  V30 692 C 65.1373 1.44765 1.29448 0
M  V30 693 O 64.4123 0.610355 1.84675 0
M  V30 694 C 64.6953 3.60098 0.0129503 0
M  V30 695 C 64.5483 4.28441 -1.3696 0
M  V30 696 C 65.8673 4.34224 0.71678 0
M  V30 697 H 62.9863 0.736637 -0.0231407 0
M  V30 698 H 65.6283 1.74898 -0.742351 0
M  V30 699 H 63.7783 3.83926 0.594378 0
M  V30 700 H 65.4503 4.15896 -1.9957 0
M  V30 701 H 63.6933 3.8805 -1.93907 0
M  V30 702 H 64.3643 5.3716 -1.27135 0
M  V30 703 H 66.8403 4.15503 0.222908 0
M  V30 704 H 65.7163 5.43936 0.73657 0
M  V30 705 H 65.9773 4.04823 1.77682 0
M  V30 706 N 65.0364 0.313813 1.54444 0
M  V30 707 C 66.2664 -0.293491 2.04505 0
M  V30 708 C 66.6744 -1.47086 1.19005 0
M  V30 709 O 66.0174 -1.82481 0.211257 0
M  V30 710 C 66.0794 -0.800455 3.50475 0
M  V30 711 C 65.7434 0.253322 4.56297 0
M  V30 712 C 66.7404 1.08612 5.08428 0
M  V30 713 C 64.4254 0.398708 5.00715 0
M  V30 714 C 66.4194 2.05013 6.0353 0
M  V30 715 C 64.1064 1.36614 5.95634 0
M  V30 716 C 65.1044 2.19033 6.46926 0
M  V30 717 O 64.7924 3.14134 7.39983 0
M  V30 718 H 64.5244 -0.0658325 0.672787 0
M  V30 719 H 67.0784 0.455177 2.00293 0
M  V30 720 H 65.3084 -1.59987 3.52053 0
M  V30 721 H 66.9974 -1.32504 3.83663 0
M  V30 722 H 67.7634 0.984736 4.74898 0
M  V30 723 H 63.6424 -0.23289 4.60411 0
M  V30 724 H 67.1864 2.69382 6.4349 0
M  V30 725 H 63.0834 1.4682 6.28581 0
M  V30 726 H 63.8514 3.0926 7.57826 0
M  V30 727 N 66.5145 -1.57545 0.0417849 0
M  V30 728 C 67.4445 -2.14009 -0.933929 0
M  V30 729 C 68.4255 -1.05938 -1.33083 0
M  V30 730 O 69.6105 -1.33833 -1.40721 0
M  V30 731 C 66.7405 -2.67747 -2.21199 0
M  V30 732 C 65.6945 -3.80718 -1.95544 0
M  V30 733 C 65.0205 -4.20935 -3.29724 0
M  V30 734 C 66.3205 -5.06258 -1.28452 0
M  V30 735 H 68.0145 -2.95788 -0.463645 0
M  V30 736 H 65.5605 -1.42285 -0.221573 0
M  V30 737 H 67.5135 -3.05886 -2.89848 0
M  V30 738 H 66.2375 -1.83147 -2.70416 0
M  V30 739 H 64.8965 -3.43037 -1.2931 0
M  V30 740 H 64.5445 -3.33298 -3.76724 0
M  V30 741 H 64.2445 -4.9707 -3.13361 0
M  V30 742 H 65.7685 -4.61666 -3.9962 0
M  V30 743 H 67.1825 -5.41903 -1.8712 0
M  V30 744 H 65.5795 -5.87475 -1.22445 0
M  V30 745 H 66.6495 -4.84207 -0.259219 0
M  V30 746 N 67.9926 0.231505 -1.5589 0
M  V30 747 C 69.4086 0.580748 -1.48659 0
M  V30 748 C 69.6086 1.87617 -0.73498 0
M  V30 749 O 68.6646 2.51046 -0.270586 0
M  V30 750 C 69.9776 0.669202 -2.93159 0
M  V30 751 C 71.5256 0.760499 -3.03621 0
M  V30 752 C 72.0006 0.880383 -4.49459 0
M  V30 753 N 73.4916 0.944861 -4.53461 0
M  V30 754 C 74.2266 1.05716 -5.63571 0
M  V30 755 N 73.7226 1.13403 -6.83456 0
M  V30 756 N 75.5156 1.09152 -5.514 0
M  V30 757 H 67.6666 -0.618695 -2.03189 0
M  V30 758 H 69.9296 -0.215728 -0.923128 0
M  V30 759 H 69.6356 -0.212904 -3.51055 0
M  V30 760 H 69.5096 1.5361 -3.44505 0
M  V30 761 H 71.8966 1.63305 -2.45796 0
M  V30 762 H 71.9776 -0.131864 -2.5546 0
M  V30 763 H 71.6216 0.0123284 -5.07899 0
M  V30 764 H 71.5516 1.78802 -4.95316 0
M  V30 765 H 74.0426 0.896176 -3.6712 0
M  V30 766 H 74.3556 1.21921 -7.63122 0
M  V30 767 H 72.7006 1.10333 -6.86186 0
M  V30 768 H 75.8916 1.02805 -4.56671 0
M  V30 769 H 76.0646 1.17558 -6.37247 0
M  V30 770 N 69.4707 1.49531 0.497807 0
M  V30 771 C 70.7187 1.58865 1.24926 0
M  V30 772 C 71.0397 0.278721 1.92998 0
M  V30 773 O 70.3097 -0.702144 1.82885 0
M  V30 774 H 68.8897 0.585343 0.464094 0
M  V30 775 H 71.5517 1.86174 0.57666 0
M  V30 776 H 70.6477 2.38633 2.01149 0
M  V30 777 N 70.9488 -0.749086 1.3866 0
M  V30 778 C 72.1788 -1.53611 1.38157 0
M  V30 779 C 72.5868 -1.89177 -0.0293595 0
M  V30 780 O 71.9298 -1.53606 -1.00752 0
M  V30 781 C 71.9918 -2.86087 2.17702 0
M  V30 782 C 71.6558 -2.73034 3.66472 0
M  V30 783 C 72.6528 -2.42526 4.59866 0
M  V30 784 C 70.3378 -2.90345 4.09884 0
M  V30 785 C 72.3318 -2.29492 5.94653 0
M  V30 786 C 70.0188 -2.7693 5.4475 0
M  V30 787 C 71.0168 -2.46547 6.36949 0
M  V30 788 O 70.7048 -2.33199 7.69333 0
M  V30 789 H 70.4368 -0.481773 0.474205 0
M  V30 790 H 72.9908 -0.934465 1.82912 0
M  V30 791 H 71.2208 -3.48458 1.67672 0
M  V30 792 H 72.9098 -3.47625 2.09551 0
M  V30 793 H 73.6758 -2.28816 4.27631 0
M  V30 794 H 69.5548 -3.1299 3.38464 0
M  V30 795 H 73.0988 -2.05698 6.66584 0
M  V30 796 H 68.9958 -2.90215 5.76581 0
M  V30 797 H 69.7638 -2.48376 7.79905 0
M  V30 798 N 72.4269 -1.23603 -0.977757 0
M  V30 799 C 73.3369 -1.03632 -2.1047 0
M  V30 800 C 74.3529 0.0199435 -1.73989 0
M  V30 801 O 75.5289 -0.176076 -2.00629 0
M  V30 802 C 72.5939 -0.63276 -3.40877 0
M  V30 803 C 71.6549 -1.76437 -3.91367 0
M  V30 804 C 70.8879 -1.37997 -5.15551 0
M  V30 805 O 71.1109 -0.265357 -5.69782 0
M  V30 806 O 70.0449 -2.20201 -5.60174 0
M  V30 807 H 73.8709 -1.98086 -2.30208 0
M  V30 808 H 71.4559 -1.02332 -1.08851 0
M  V30 809 H 73.3379 -0.418761 -4.19314 0
M  V30 810 H 72.0129 0.282754 -3.22463 0
M  V30 811 H 70.9199 -2.03304 -3.14036 0
M  V30 812 H 72.2529 -2.6583 -4.14241 0
M  V30 813 N 73.905 1.17692 -1.04816 0
M  V30 814 C 75.182 1.83768 -0.669963 0
M  V30 815 C 75.562 1.93232 0.849986 0
M  V30 816 O 74.91 1.46397 1.75443 0
M  V30 817 C 75.12 3.21641 -1.35455 0
M  V30 818 C 76.468 3.97592 -1.49017 0
M  V30 819 O 77.492 3.31107 -1.31326 0
M  V30 820 O 76.351 5.16729 -1.77914 0
M  V30 821 H 73.445 0.792799 -0.235368 0
M  V30 822 H 75.991 1.25021 -1.14751 0
M  V30 823 H 74.763 3.097 -2.39168 0
M  V30 824 H 74.386 3.88052 -0.866107 0
M  V30 825 N 75.3831 0.828654 1.34056 0
M  V30 826 C 76.7941 0.477534 1.8049 0
M  V30 827 C 77.1451 -1.00258 1.6865 0
M  V30 828 O 76.2701 -1.78057 1.22982 0
M  V30 829 C 76.8651 0.860018 3.27703 0
M  V30 830 C 75.4241 0.561185 3.72193 0
M  V30 831 C 74.5711 1.07385 2.55663 0
M  V30 832 H 77.5221 1.0183 1.21722 0
M  V30 833 H 77.5431 0.166038 3.80138 0
M  V30 834 H 77.0551 1.93731 3.36288 0
M  V30 835 H 75.1561 -0.506465 3.69142 0
M  V30 836 H 75.2691 1.10926 4.66082 0
M  V30 837 H 73.6331 0.495149 2.49841 0
M  V30 838 H 74.4161 2.15771 2.67016 0
M  V30 839 N 76.8612 -1.46375 0.584142 0
M  V30 840 C 78.0912 -2.06461 0.0758195 0
M  V30 841 C 78.4992 -1.43322 -1.23512 0
M  V30 842 O 77.8422 -0.533216 -1.75791 0
M  V30 843 C 77.9042 -3.59131 -0.162773 0
M  V30 844 C 77.5682 -4.4447 1.06279 0
M  V30 845 C 78.5652 -4.80918 1.97519 0
M  V30 846 C 76.2502 -4.85584 1.28504 0
M  V30 847 C 78.2442 -5.57309 3.09331 0
M  V30 848 C 75.9312 -5.61734 2.4062 0
M  V30 849 C 76.9292 -5.9751 3.30863 0
M  V30 850 O 76.6172 -6.72121 4.41032 0
M  V30 851 H 76.3492 -0.673745 0.0551725 0
M  V30 852 H 78.9032 -1.88969 0.804984 0
M  V30 853 H 77.1332 -3.74936 -0.946565 0
M  V30 854 H 78.8222 -4.0114 -0.619782 0
M  V30 855 H 79.5882 -4.49732 1.81565 0
M  V30 856 H 75.4672 -4.57187 0.591702 0
M  V30 857 H 79.0112 -5.85152 3.79793 0
M  V30 858 H 74.9082 -5.92334 2.56537 0
M  V30 859 H 75.6762 -6.90547 4.39417 0
M  V30 860 N 78.3393 -0.321999 -1.54275 0
M  V30 861 C 79.7503 0.166384 -1.85957 0
M  V30 862 C 80.1013 1.51747 -1.24367 0
M  V30 863 O 79.2263 2.09317 -0.549124 0
M  V30 864 C 79.8213 0.308681 -3.37391 0
M  V30 865 C 78.3803 0.741286 -3.69028 0
M  V30 866 C 77.5273 -0.137937 -2.76957 0
M  V30 867 H 80.4783 -0.542335 -1.49146 0
M  V30 868 H 80.4993 1.13984 -3.63026 0
M  V30 869 H 80.0113 -0.674809 -3.82188 0
M  V30 870 H 78.1123 1.73458 -3.29762 0
M  V30 871 H 78.2253 0.546118 -4.75977 0
M  V30 872 H 76.5893 0.386251 -2.51754 0
M  V30 873 H 77.3723 -1.11816 -3.2458 0
M  V30 874 N 79.8174 1.5752 -0.0501392 0
M  V30 875 C 81.0634 1.93755 0.618901 0
M  V30 876 C 81.4184 0.928514 1.68512 0
M  V30 877 O 80.7114 -0.0524613 1.91528 0
M  V30 878 C 80.9054 3.34467 1.25963 0
M  V30 879 C 80.7344 4.48965 0.257 0
M  V30 880 C 79.5044 5.05075 -0.150656 0
M  V30 881 C 81.7024 5.11891 -0.497166 0
M  V30 882 N 79.6844 6.03104 -1.14626 0
M  V30 883 C 81.0554 6.05216 -1.34588 0
M  V30 884 C 83.1104 4.9479 -0.55559 0
M  V30 885 C 81.8134 6.83277 -2.24778 0
M  V30 886 C 83.8394 5.73477 -1.44492 0
M  V30 887 C 83.2014 6.66433 -2.28136 0
M  V30 888 H 79.3004 0.756479 0.198149 0
M  V30 889 H 81.8844 1.94316 -0.122229 0
M  V30 890 H 80.0554 3.34685 1.97079 0
M  V30 891 H 81.7874 3.57994 1.88739 0
M  V30 892 H 78.5424 4.7305 0.228094 0
M  V30 893 H 78.9664 6.56813 -1.64092 0
M  V30 894 H 83.6084 4.2273 0.0768625 0
M  V30 895 H 81.3264 7.54629 -2.89069 0
M  V30 896 H 84.9124 5.62273 -1.49468 0
M  V30 897 H 83.7924 7.26258 -2.95835 0
M  V30 898 N 81.2955 -0.223234 1.56011 0
M  V30 899 C 82.5205 -0.968978 1.83373 0
M  V30 900 C 82.9455 -1.77227 0.630254 0
M  V30 901 O 82.3035 -1.76345 -0.420959 0
M  V30 902 C 82.3515 -1.86363 3.08709 0
M  V30 903 O 81.4555 -2.95873 2.87285 0
M  V30 904 H 80.7965 -0.274461 0.604622 0
M  V30 905 H 83.3265 -0.237056 2.03222 0
M  V30 906 H 83.3365 -2.27376 3.38768 0
M  V30 907 H 82.0115 -1.27319 3.95933 0
M  V30 908 H 80.5885 -2.58818 2.68454 0
M  V30 909 N 82.7736 -1.49793 -0.48987 0
M  V30 910 C 83.7036 -1.70201 -1.59856 0
M  V30 911 C 84.6846 -0.55076 -1.60937 0
M  V30 912 O 85.8696 -0.787841 -1.77501 0
M  V30 913 C 82.9996 -1.77882 -2.98287 0
M  V30 914 C 81.9536 -2.92907 -3.12073 0
M  V30 915 C 81.2796 -2.85712 -4.51965 0
M  V30 916 C 82.5796 -4.3369 -2.91051 0
M  V30 917 H 84.2736 -2.63025 -1.43032 0
M  V30 918 H 81.8196 -1.26574 -0.686664 0
M  V30 919 H 83.7726 -1.90744 -3.75759 0
M  V30 920 H 82.4966 -0.816653 -3.16225 0
M  V30 921 H 81.1556 -2.79665 -2.37029 0
M  V30 922 H 80.8036 -1.8738 -4.66795 0
M  V30 923 H 80.5036 -3.62921 -4.62128 0
M  V30 924 H 82.0276 -3.00598 -5.31482 0
M  V30 925 H 83.4416 -4.47555 -3.58284 0
M  V30 926 H 81.8386 -5.12205 -3.12675 0
M  V30 927 H 82.9086 -4.47362 -1.87071 0
M  V30 928 N 84.2517 0.741722 -1.39055 0
M  V30 929 C 85.1987 1.85566 -1.37237 0
M  V30 930 C 86.1687 1.64457 -0.233072 0
M  V30 931 O 87.3537 1.85957 -0.427147 0
M  V30 932 C 84.4937 3.23004 -1.215 0
M  V30 933 C 83.6067 3.55864 -2.44918 0
M  V30 934 C 82.7417 4.82669 -2.21821 0
M  V30 935 C 81.7807 5.08351 -3.40948 0
M  V30 936 N 80.9177 6.26356 -3.17211 0
M  V30 937 H 85.7577 1.86455 -2.32462 0
M  V30 938 H 83.2947 0.911176 -1.15482 0
M  V30 939 H 85.2527 4.02331 -1.10389 0
M  V30 940 H 83.8827 3.21411 -0.29908 0
M  V30 941 H 82.9347 2.7129 -2.66657 0
M  V30 942 H 84.2467 3.70765 -3.33668 0
M  V30 943 H 83.4007 5.69962 -2.07914 0
M  V30 944 H 82.1397 4.69929 -1.30454 0
M  V30 945 H 81.1447 4.19522 -3.55361 0
M  V30 946 H 82.3697 5.22981 -4.33207 0
M  V30 947 H 80.3157 6.14917 -2.28502 0
M  V30 948 H 80.2327 6.41813 -3.99515 0
M  V30 949 H 81.5007 7.16506 -3.06984 0
M  V30 950 N 85.7298 1.2412 0.971189 0
M  V30 951 C 86.9788 1.07284 1.70801 0
M  V30 952 C 87.2918 -0.388902 1.91695 0
M  V30 953 O 88.4978 -0.677379 2.62914 0
M  V30 954 C 86.9538 1.87145 3.07416 0
M  V30 955 C 86.5618 3.37707 2.94377 0
M  V30 956 C 88.3058 1.78828 3.84995 0
M  V30 957 C 86.2128 4.09925 4.26281 0
M  V30 958 H 85.1428 0.397854 0.64049 0
M  V30 959 H 87.7938 1.4817 1.0825 0
M  V30 960 H 86.1758 1.39071 3.70777 0
M  V30 961 H 87.3498 3.93335 2.4005 0
M  V30 962 H 85.6648 3.46938 2.30267 0
M  V30 963 H 88.2618 2.30089 4.82662 0
M  V30 964 H 88.6048 0.75284 4.09436 0
M  V30 965 H 89.1378 2.24563 3.28354 0
M  V30 966 H 85.8768 5.13813 4.07033 0
M  V30 967 H 85.3968 3.59083 4.80437 0
M  V30 968 H 87.0758 4.1673 4.94919 0
M  V30 969 N 87.2079 -1.17134 1.05439 0
M  V30 970 C 88.4359 -1.91372 0.786414 0
M  V30 971 C 88.8509 -1.76955 -0.658202 0
M  V30 972 O 88.2079 -1.10838 -1.44987 0
M  V30 973 C 88.2589 -3.42356 1.1608 0
M  V30 974 O 87.9799 -3.56332 2.54871 0
M  V30 975 C 89.4809 -4.33663 0.919322 0
M  V30 976 H 86.7009 -0.607118 0.285743 0
M  V30 977 H 89.2449 -1.48525 1.40572 0
M  V30 978 H 87.3999 -3.82939 0.586191 0
M  V30 979 H 87.8139 -4.49896 2.69618 0
M  V30 980 H 89.2879 -5.38099 1.231 0
M  V30 981 H 89.7649 -4.38959 -0.145359 0
M  V30 982 H 90.3709 -3.98796 1.47789 0
M  V30 983 N 88.686 -0.835752 -1.33615 0
M  V30 984 C 89.596 -0.269088 -2.33052 0
M  V30 985 C 90.612 0.603251 -1.63208 0
M  V30 986 O 91.788 0.508112 -1.94885 0
M  V30 987 C 88.853 0.549091 -3.42324 0
M  V30 988 C 87.914 -0.347156 -4.27894 0
M  V30 989 C 87.147 0.43207 -5.31948 0
M  V30 990 O 87.37 1.66409 -5.45586 0
M  V30 991 O 86.304 -0.192298 -6.01593 0
M  V30 992 H 90.13 -1.09243 -2.83372 0
M  V30 993 H 87.715 -0.598198 -1.36901 0
M  V30 994 H 89.597 1.01414 -4.09015 0
M  V30 995 H 88.272 1.34955 -2.94226 0
M  V30 996 H 87.179 -0.859979 -3.64081 0
M  V30 997 H 88.512 -1.1123 -4.79467 0
M  V30 998 N 90.1641 1.46063 -0.591896 0
M  V30 999 C 91.1271 2.28854 0.125973 0
M  V30 1000 C 92.1271 1.38903 0.810107 0
M  V30 1001 O 93.3171 1.61186 0.66066 0
M  V30 1002 C 90.4491 3.19526 1.1881 0
M  V30 1003 H 91.6421 2.93802 -0.601717 0
M  V30 1004 H 89.1951 1.52325 -0.350254 0
M  V30 1005 H 89.9301 2.59345 1.94707 0
M  V30 1006 H 89.7151 3.85766 0.701936 0
M  V30 1007 H 91.2051 3.81817 1.69132 0
M  V30 1008 N 91.6422 0.330177 1.54103 0
M  V30 1009 C 93.0532 -0.15652 1.86043 0
M  V30 1010 C 93.4042 -1.51086 1.2517 0
M  V30 1011 O 92.5292 -2.09023 0.560217 0
M  V30 1012 C 93.1242 -0.290784 3.3755 0
M  V30 1013 C 91.6832 -0.721705 3.69416 0
M  V30 1014 C 90.8302 0.152622 2.7688 0
M  V30 1015 H 93.7812 0.550237 1.48856 0
M  V30 1016 H 93.8022 -1.12058 3.63625 0
M  V30 1017 H 93.3142 0.695068 3.81825 0
M  V30 1018 H 91.4152 -1.71706 3.30678 0
M  V30 1019 H 91.5282 -0.520869 4.7626 0
M  V30 1020 H 89.8922 -0.372894 2.51956 0
M  V30 1021 H 90.6752 1.13536 3.23982 0
M  V30 1022 N 93.1203 -1.57491 0.0584922 0
M  V30 1023 C 94.0303 -2.15448 -0.928414 0
M  V30 1024 C 95.0463 -1.11416 -1.3365 0
M  V30 1025 O 96.2223 -1.4362 -1.41193 0
M  V30 1026 C 93.2873 -2.69393 -2.18239 0
M  V30 1027 C 92.3483 -3.88249 -1.83196 0
M  V30 1028 C 91.5813 -4.39613 -3.02616 0
M  V30 1029 O 91.8043 -3.90023 -4.16219 0
M  V30 1030 O 90.7383 -5.31111 -2.83204 0
M  V30 1031 H 94.5643 -3.00112 -0.465483 0
M  V30 1032 H 92.1493 -1.48499 -0.163826 0
M  V30 1033 H 94.0313 -3.04026 -2.91798 0
M  V30 1034 H 92.7063 -1.87796 -2.63656 0
M  V30 1035 H 91.6133 -3.58492 -1.06931 0
M  V30 1036 H 92.9463 -4.71098 -1.42573 0
M  V30 1037 N 94.5984 0.214957 -1.56127 0
M  V30 1038 C 95.5614 1.24997 -1.92116 0
M  V30 1039 C 96.5614 1.39467 -0.800344 0
M  V30 1040 O 97.7514 1.37619 -1.06802 0
M  V30 1041 C 94.8834 2.62271 -2.17777 0
M  V30 1042 H 96.0764 0.942875 -2.84693 0
M  V30 1043 H 93.6294 0.455654 -1.49511 0
M  V30 1044 H 94.3644 2.98068 -1.27773 0
M  V30 1045 H 94.1494 2.53143 -2.99434 0
M  V30 1046 H 95.6394 3.36946 -2.46693 0
M  V30 1047 N 96.0765 1.50051 0.48192 0
M  V30 1048 C 97.3245 1.60181 1.23234 0
M  V30 1049 C 97.6455 0.299176 1.92691 0
M  V30 1050 O 96.9155 -0.682708 1.83619 0
M  V30 1051 H 95.4955 0.590232 0.457859 0
M  V30 1052 H 98.1575 1.86775 0.556881 0
M  V30 1053 H 97.2535 2.40753 1.98607 0
M  V30 1054 N 97.5546 -0.734337 1.39446 0
M  V30 1055 C 98.4876 -1.85715 1.32609 0
M  V30 1056 C 99.4656 -1.6137 0.199636 0
M  V30 1057 O 100.65 -1.84626 0.380195 0
M  V30 1058 C 97.7766 -3.21709 1.05929 0
M  V30 1059 C 96.8226 -3.64913 2.20773 0
M  V30 1060 S 97.6556 -3.74203 3.83056 0
M  V30 1061 C 98.8116 -5.12986 3.58603 0
M  V30 1062 H 99.0446 -1.91232 2.27635 0
M  V30 1063 H 96.5776 -0.899263 1.25509 0
M  V30 1064 H 98.5356 -4.00236 0.912203 0
M  V30 1065 H 97.1966 -3.13848 0.125883 0
M  V30 1066 H 96.3896 -4.63606 1.97699 0
M  V30 1067 H 95.9916 -2.93593 2.31688 0
M  V30 1068 H 98.2836 -5.99339 3.15909 0
M  V30 1069 H 99.2266 -5.41088 4.5676 0
M  V30 1070 H 99.6346 -4.82694 2.9269 0
M  V30 1071 N 99.0327 -1.24633 -0.964593 0
M  V30 1072 C 100.281 -1.08573 -1.70459 0
M  V30 1073 C 100.602 0.375655 -1.91347 0
M  V30 1074 O 99.8717 1.26779 -1.49345 0
M  V30 1075 H 98.4517 -0.398784 -0.631649 0
M  V30 1076 H 101.114 -1.56601 -1.16026 0
M  V30 1077 H 100.21 -1.58623 -2.68785 0
M  V30 1078 N 100.511 1.16574 -1.06058 0
M  V30 1079 C 101.461 2.18854 -0.63929 0
M  V30 1080 C 102.445 1.57505 0.328798 0
M  V30 1081 O 103.637 1.76408 0.144623 0
M  V30 1082 C 100.766 3.43291 -0.0247203 0
M  V30 1083 C 99.8518 4.11722 -1.01716 0
M  V30 1084 N 100.243 4.55841 -2.19186 0
M  V30 1085 C 98.5408 4.37872 -0.847569 0
M  V30 1086 C 99.2418 5.08751 -2.82042 0
M  V30 1087 N 98.2178 5.01489 -2.09784 0
M  V30 1088 H 102.02 2.5068 -1.53417 0
M  V30 1089 H 99.5338 1.32999 -0.931935 0
M  V30 1090 H 101.531 4.15856 0.294915 0
M  V30 1091 H 100.191 3.12954 0.865448 0
M  V30 1092 H 101.202 4.49649 -2.56975 0
M  V30 1093 H 97.8788 4.17499 -0.00918848 0
M  V30 1094 H 99.2688 5.52944 -3.81709 0
M  V30 1095 N 101.989 0.842826 1.3317 0
M  V30 1096 C 102.952 0.284065 2.27433 0
M  V30 1097 C 103.952 -0.54948 1.5112 0
M  V30 1098 O 105.142 -0.362699 1.70382 0
M  V30 1099 C 102.274 -0.599384 3.35589 0
M  V30 1100 H 103.467 1.11589 2.78366 0
M  V30 1101 H 101.02 0.616221 1.4364 0
M  V30 1102 H 101.755 -1.45349 2.89904 0
M  V30 1103 H 101.54 -0.00291266 3.921 0
M  V30 1104 H 103.03 -0.983488 4.05854 0
M  V30 1105 N 103.467 -1.45747 0.599634 0
M  V30 1106 C 104.43 -2.28917 -0.113835 0
M  V30 1107 C 105.43 -1.3933 -0.802729 0
M  V30 1108 O 106.62 -1.61534 -0.652103 0
M  V30 1109 C 103.752 -3.20152 -1.17114 0
M  V30 1110 H 104.945 -2.93478 0.617289 0
M  V30 1111 H 102.498 -1.52137 0.358327 0
M  V30 1112 H 103.233 -2.60374 -1.93329 0
M  V30 1113 H 103.018 -3.86133 -0.681468 0
M  V30 1114 H 104.508 -3.82708 -1.67105 0
M  V30 1115 N 104.945 -0.338344 -1.53925 0
M  V30 1116 C 105.878 0.563758 -2.21127 0
M  V30 1117 C 106.856 1.10433 -1.19345 0
M  V30 1118 O 108.04 1.16557 -1.48144 0
M  V30 1119 C 105.167 1.77505 -2.88461 0
M  V30 1120 C 104.213 1.3644 -4.04087 0
M  V30 1121 S 105.046 0.388593 -5.34088 0
M  V30 1122 C 106.202 1.60683 -6.04923 0
M  V30 1123 H 106.435 -0.00704546 -2.97299 0
M  V30 1124 H 103.968 -0.122418 -1.53914 0
M  V30 1125 H 105.926 2.46999 -3.27875 0
M  V30 1126 H 104.587 2.31706 -2.12064 0
M  V30 1127 H 103.78 2.26739 -4.50117 0
M  V30 1128 H 103.382 0.748998 -3.66423 0
M  V30 1129 H 105.674 2.54209 -6.28 0
M  V30 1130 H 106.617 1.18842 -6.98056 0
M  V30 1131 H 107.025 1.80052 -5.35015 0
M  V30 1132 N 106.423 1.57458 -0.0668435 0
M  V30 1133 C 107.839 1.56947 0.289772 0
M  V30 1134 C 108.039 1.07584 1.70376 0
M  V30 1135 O 107.095 0.739486 2.41429 0
M  V30 1136 C 108.408 3.0052 0.103943 0
M  V30 1137 C 109.956 3.12517 0.173857 0
M  V30 1138 C 110.431 4.57997 0.0163682 0
M  V30 1139 N 111.922 4.63144 0.0721352 0
M  V30 1140 C 112.657 5.73394 -0.0253794 0
M  V30 1141 N 112.153 6.92576 -0.176133 0
M  V30 1142 N 113.946 5.62091 0.0313305 0
M  V30 1143 H 106.097 1.87863 -0.991027 0
M  V30 1144 H 108.36 0.86583 -0.38606 0
M  V30 1145 H 108.066 3.40729 -0.871572 0
M  V30 1146 H 107.94 3.67304 0.858366 0
M  V30 1147 H 110.327 2.72197 1.13985 0
M  V30 1148 H 110.408 2.48381 -0.611586 0
M  V30 1149 H 110.052 4.99005 -0.946374 0
M  V30 1150 H 109.982 5.20158 0.821153 0
M  V30 1151 H 112.473 3.77436 0.187263 0
M  V30 1152 H 112.786 7.72418 -0.242821 0
M  V30 1153 H 111.131 6.94678 -0.211429 0
M  V30 1154 H 114.322 4.67867 0.147773 0
M  V30 1155 H 114.495 6.47982 -0.048121 0
M  V30 1156 N 107.901 -0.206675 1.56239 0
M  V30 1157 C 109.129 -0.945345 1.8404 0
M  V30 1158 C 109.544 -1.77336 0.647885 0
M  V30 1159 O 108.901 -1.78425 -0.383511 0
M  V30 1160 C 108.952 -1.8509 3.10522 0
M  V30 1161 O 108.673 -1.05634 4.25174 0
M  V30 1162 C 110.174 -2.70222 3.51418 0
M  V30 1163 H 107.394 -0.276372 0.61144 0
M  V30 1164 H 109.938 -0.217417 2.03341 0
M  V30 1165 H 108.093 -2.53259 2.93153 0
M  V30 1166 H 108.507 -1.67238 4.97124 0
M  V30 1167 H 109.981 -3.29438 4.42916 0
M  V30 1168 H 110.458 -3.43358 2.73864 0
M  V30 1169 H 111.064 -2.07443 3.71278 0
M  V30 1170 N 109.379 -1.50304 -0.473955 0
M  V30 1171 C 110.604 -1.65175 -1.25427 0
M  V30 1172 C 111.029 -0.333673 -1.85117 0
M  V30 1173 O 110.387 0.702114 -1.67153 0
M  V30 1174 C 110.435 -2.74295 -2.34082 0
M  V30 1175 O 109.539 -2.35349 -3.38651 0
M  V30 1176 H 108.88 -0.551944 -0.369126 0
M  V30 1177 H 111.41 -1.96662 -0.564364 0
M  V30 1178 H 111.42 -2.97285 -2.79438 0
M  V30 1179 H 110.095 -3.69959 -1.90008 0
M  V30 1180 H 108.672 -2.22794 -2.99027 0
M  V30 1181 N 110.857 0.726932 -1.39834 0
M  V30 1182 C 112.082 1.52121 -1.40976 0
M  V30 1183 C 112.507 1.88098 -0.00826029 0
M  V30 1184 O 111.865 1.52479 0.980807 0
M  V30 1185 C 111.913 2.78021 -2.29644 0
M  V30 1186 O 111.017 3.74272 -1.73188 0
M  V30 1187 H 110.358 0.45908 -0.479731 0
M  V30 1188 H 112.888 0.896207 -1.83927 0
M  V30 1189 H 112.898 3.26671 -2.44438 0
M  V30 1190 H 111.573 2.51169 -3.31492 0
M  V30 1191 H 110.15 3.33073 -1.6768 0
M  V30 1192 N 112.336 1.25143 0.95797 0
M  V30 1193 C 113.747 1.08851 1.51685 0
M  V30 1194 C 114.098 -0.33687 1.93286 0
M  V30 1195 O 113.223 -1.22644 1.7829 0
M  V30 1196 C 113.818 1.96978 2.75654 0
M  V30 1197 C 112.377 1.84881 3.27866 0
M  V30 1198 C 111.524 1.91329 2.0072 0
M  V30 1199 H 114.475 1.38478 0.77522 0
M  V30 1200 H 114.496 1.5078 3.4935 0
M  V30 1201 H 114.008 3.00712 2.45345 0
M  V30 1202 H 112.109 0.840182 3.63004 0
M  V30 1203 H 112.222 2.6951 3.96107 0
M  V30 1204 H 110.586 1.35174 2.15871 0
M  V30 1205 H 111.369 2.96661 1.72764 0
M  V30 1206 N 113.814 -1.1601 1.06675 0
M  V30 1207 C 114.724 -2.24156 0.692179 0
M  V30 1208 C 115.74 -1.71507 -0.293513 0
M  V30 1209 O 116.916 -2.009 -0.141861 0
M  V30 1210 C 113.981 -3.46587 0.0884131 0
M  V30 1211 C 113.042 -4.14257 1.12646 0
M  V30 1212 C 112.275 -5.30844 0.551416 0
M  V30 1213 O 112.498 -5.66858 -0.634656 0
M  V30 1214 O 111.432 -5.87848 1.29298 0
M  V30 1215 H 115.258 -2.58513 1.59388 0
M  V30 1216 H 112.843 -1.23599 0.83926 0
M  V30 1217 H 114.725 -4.20679 -0.246361 0
M  V30 1218 H 113.4 -3.13994 -0.786712 0
M  V30 1219 H 112.307 -3.42118 1.51348 0
M  V30 1220 H 113.64 -4.50914 1.97325 0
M  V30 1221 N 115.292 -0.849877 -1.32721 0
M  V30 1222 C 116.255 -0.296122 -2.27279 0
M  V30 1223 C 117.255 0.541458 -1.5141 0
M  V30 1224 O 118.445 0.353658 -1.70572 0
M  V30 1225 C 115.577 0.581579 -3.35902 0
M  V30 1226 H 116.77 -1.13064 -2.77771 0
M  V30 1227 H 114.323 -0.62383 -1.43311 0
M  V30 1228 H 115.058 1.43809 -2.9067 0
M  V30 1229 H 114.843 -0.0178814 -3.92096 0
M  V30 1230 H 116.333 0.961951 -4.0637 0
M  V30 1231 N 116.77 1.45427 -0.607355 0
M  V30 1232 C 117.7 2.3329 0.0989352 0
M  V30 1233 C 118.681 1.46816 0.859007 0
M  V30 1234 O 119.866 1.75588 0.829604 0
M  V30 1235 C 116.996 3.29518 1.09705 0
M  V30 1236 C 115.95 4.25626 0.450206 0
M  V30 1237 C 115.276 5.11542 1.55655 0
M  V30 1238 C 116.576 5.18505 -0.628455 0
M  V30 1239 H 118.27 2.92595 -0.634716 0
M  V30 1240 H 115.816 1.40696 -0.306681 0
M  V30 1241 H 117.769 3.89855 1.59971 0
M  V30 1242 H 116.493 2.68372 1.86129 0
M  V30 1243 H 115.152 3.66586 -0.0315886 0
M  V30 1244 H 114.8 4.46765 2.31107 0
M  V30 1245 H 114.5 5.76647 1.12925 0
M  V30 1246 H 116.024 5.74748 2.06148 0
M  V30 1247 H 117.438 5.72916 -0.209877 0
M  V30 1248 H 115.835 5.92085 -0.977489 0
M  V30 1249 H 116.905 4.60948 -1.50514 0
M  V30 1250 N 118.248 0.346503 1.53744 0
M  V30 1251 C 119.158 -0.517293 2.28826 0
M  V30 1252 C 120.174 -1.10935 1.3405 0
M  V30 1253 O 121.35 -1.1244 1.6709 0
M  V30 1254 C 118.415 -1.65098 3.04866 0
M  V30 1255 C 117.476 -1.0884 4.15274 0
M  V30 1256 C 116.709 -2.16806 4.87679 0
M  V30 1257 O 116.932 -3.3758 4.59778 0
M  V30 1258 O 115.866 -1.80934 5.74061 0
M  V30 1259 H 119.692 0.0931396 3.03557 0
M  V30 1260 H 117.277 0.111458 1.48984 0
M  V30 1261 H 119.159 -2.31053 3.5241 0
M  V30 1262 H 117.834 -2.24717 2.32989 0
M  V30 1263 H 116.741 -0.3933 3.72027 0
M  V30 1264 H 118.074 -0.537036 4.89261 0
M  V30 1265 N 119.726 -1.57421 0.075193 0
M  V30 1266 C 121.142 -1.57099 -0.281444 0
M  V30 1267 C 121.342 -1.08486 -1.69803 0
M  V30 1268 O 120.398 -0.752279 -2.41033 0
M  V30 1269 C 121.711 -3.00571 -0.0880041 0
M  V30 1270 C 123.259 -3.12605 -0.157281 0
M  V30 1271 C 123.734 -4.57999 0.0079207 0
M  V30 1272 N 125.225 -4.63176 -0.0475725 0
M  V30 1273 C 125.96 -5.73373 0.0557876 0
M  V30 1274 N 125.456 -6.92473 0.21286 0
M  V30 1275 N 127.249 -5.621 -0.00152098 0
M  V30 1276 H 119.4 -1.87335 1.00098 0
M  V30 1277 H 121.663 -0.86377 0.390646 0
M  V30 1278 H 121.369 -3.40262 0.889629 0
M  V30 1279 H 121.243 -3.67754 -0.838875 0
M  V30 1280 H 123.63 -2.72798 -1.1254 0
M  V30 1281 H 123.711 -2.48053 0.62475 0
M  V30 1282 H 123.355 -4.98496 0.972824 0
M  V30 1283 H 123.285 -5.20586 -0.793556 0
M  V30 1284 H 125.776 -3.7753 -0.167244 0
M  V30 1285 H 126.089 -7.72279 0.283781 0
M  V30 1286 H 124.434 -6.94556 0.248267 0
M  V30 1287 H 127.625 -4.67938 -0.122958 0
M  V30 1288 H 127.798 -6.47948 0.0824844 0
M  V30 1289 N 121.204 0.198386 -1.56346 0
M  V30 1290 C 122.62 0.549085 -1.49857 0
M  V30 1291 C 122.82 1.86016 -0.774611 0
M  V30 1292 O 121.876 2.50416 -0.323776 0
M  V30 1293 C 123.189 0.606868 -2.94512 0
M  V30 1294 C 124.737 0.695925 -3.05165 0
M  V30 1295 C 125.212 0.784848 -4.51225 0
M  V30 1296 N 126.703 0.848463 -4.55363 0
M  V30 1297 C 127.438 0.937378 -5.65686 0
M  V30 1298 N 126.934 0.9888 -6.85707 0
M  V30 1299 N 128.727 0.974312 -5.53592 0
M  V30 1300 H 120.878 -0.661655 -2.01831 0
M  V30 1301 H 123.141 -0.235261 -0.918344 0
M  V30 1302 H 122.847 -0.28732 -3.50524 0
M  V30 1303 H 122.721 1.46268 -3.47686 0
M  V30 1304 H 125.108 1.58055 -2.49204 0
M  V30 1305 H 125.189 -0.186022 -2.55123 0
M  V30 1306 H 124.833 -0.0954072 -5.0781 0
M  V30 1307 H 124.763 1.68255 -4.98997 0
M  V30 1308 H 127.254 0.818103 -3.68938 0
M  V30 1309 H 127.567 1.05707 -7.65536 0
M  V30 1310 H 125.912 0.957534 -6.88372 0
M  V30 1311 H 129.103 0.930954 -4.58749 0
M  V30 1312 H 129.276 1.04015 -6.39597 0
M  V30 1313 N 122.682 1.50554 0.465978 0
M  V30 1314 C 123.645 1.69233 1.54574 0
M  V30 1315 C 124.645 0.562901 1.50626 0
M  V30 1316 O 125.835 0.830016 1.53155 0
M  V30 1317 C 122.967 1.7223 2.94193 0
M  V30 1318 H 124.16 2.65571 1.39327 0
M  V30 1319 H 121.713 1.40111 0.692711 0
M  V30 1320 H 122.448 0.77603 3.14878 0
M  V30 1321 H 122.233 2.54285 2.98466 0
M  V30 1322 H 123.723 1.88618 3.72576 0
M  V30 1323 N 124.16 -0.719506 1.40217 0
M  V30 1324 C 125.107 -1.83359 1.40172 0
M  V30 1325 C 126.077 -1.64065 0.259206 0
M  V30 1326 O 127.262 -1.85254 0.456677 0
M  V30 1327 C 124.402 -3.2103 1.26624 0
M  V30 1328 C 123.515 -3.51923 2.50548 0
M  V30 1329 C 122.65 -4.79079 2.29471 0
M  V30 1330 C 121.689 -5.02863 3.48992 0
M  V30 1331 N 120.826 -6.2123 3.27135 0
M  V30 1332 H 125.666 -1.82733 2.35399 0
M  V30 1333 H 123.203 -0.892688 1.16917 0
M  V30 1334 H 125.161 -4.00524 1.16776 0
M  V30 1335 H 123.791 -3.20895 0.350176 0
M  V30 1336 H 122.843 -2.67014 2.70939 0
M  V30 1337 H 124.155 -3.6541 3.39525 0
M  V30 1338 H 123.309 -5.66582 2.16955 0
M  V30 1339 H 122.048 -4.67794 1.37913 0
M  V30 1340 H 121.053 -4.13816 3.6199 0
M  V30 1341 H 122.278 -5.16023 4.41472 0
M  V30 1342 H 120.224 -6.11204 2.38256 0
M  V30 1343 H 120.141 -6.35375 4.09675 0
M  V30 1344 H 121.409 -7.11532 3.18344 0
M  V30 1345 N 125.638 -1.25649 -0.95132 0
M  V30 1346 C 126.863 -1.13443 -1.73624 0
M  V30 1347 C 127.288 0.307565 -1.85568 0
M  V30 1348 O 126.646 1.22282 -1.33854 0
M  V30 1349 C 126.694 -1.79723 -3.12621 0
M  V30 1350 O 125.798 -1.07912 -3.98031 0
M  V30 1351 H 125.139 -0.395872 -0.533086 0
M  V30 1352 H 127.669 -1.66276 -1.1922 0
M  V30 1353 H 127.679 -1.86141 -3.63064 0
M  V30 1354 H 126.354 -2.84633 -3.03244 0
M  V30 1355 H 124.931 -1.09398 -3.56492 0
M  V30 1356 N 127.117 1.15442 -1.07289 0
M  V30 1357 C 128.047 2.22312 -0.714107 0
M  V30 1358 C 129.028 1.67467 0.298155 0
M  V30 1359 O 130.213 1.93445 0.171048 0
M  V30 1360 C 127.343 3.47124 -0.110448 0
M  V30 1361 C 126.297 4.14926 -1.04979 0
M  V30 1362 C 125.623 5.33807 -0.308924 0
M  V30 1363 C 126.923 4.64762 -2.38314 0
M  V30 1364 H 128.617 2.5258 -1.6076 0
M  V30 1365 H 126.163 1.21404 -0.77441 0
M  V30 1366 H 128.116 4.21124 0.152482 0
M  V30 1367 H 126.84 3.16187 0.81812 0
M  V30 1368 H 125.499 3.42866 -1.29764 0
M  V30 1369 H 125.147 4.99126 0.623084 0
M  V30 1370 H 124.847 5.80113 -0.935036 0
M  V30 1371 H 126.371 6.10576 -0.0537771 0
M  V30 1372 H 127.785 5.30292 -2.1786 0
M  V30 1373 H 126.182 5.21728 -2.96514 0
M  V30 1374 H 127.252 3.80434 -3.00663 0
M  V30 1375 N 128.595 0.856903 1.32268 0
M  V30 1376 C 129.823 0.475439 2.01363 0
M  V30 1377 C 130.238 -0.928486 1.64392 0
M  V30 1378 O 129.595 -1.60624 0.866387 0
M  V30 1379 C 129.646 0.607545 3.56358 0
M  V30 1380 O 129.367 1.95617 3.92002 0
M  V30 1381 C 130.868 0.225382 4.42727 0
M  V30 1382 H 128.088 0.186636 0.644521 0
M  V30 1383 H 130.632 1.15446 1.68797 0
M  V30 1384 H 128.787 -0.0237719 3.87393 0
M  V30 1385 H 129.201 1.95455 4.86721 0
M  V30 1386 H 130.675 0.368813 5.50767 0
M  V30 1387 H 131.152 -0.834369 4.31202 0
M  V30 1388 H 131.758 0.831864 4.17085 0
M  V30 1389 N 130.073 -1.45103 0.615059 0
M  V30 1390 C 131.35 -1.95549 0.0448276 0
M  V30 1391 C 131.73 -1.55737 -1.4251 0
M  V30 1392 O 131.078 -0.823556 -2.13143 0
M  V30 1393 C 131.288 -3.48098 0.250785 0
M  V30 1394 C 132.636 -4.24384 0.135509 0
M  V30 1395 O 133.66 -3.55738 0.181299 0
M  V30 1396 O 132.519 -5.46493 0.0268878 0
M  V30 1397 H 129.613 -0.8264 -0.0314845 0
M  V30 1398 H 132.159 -1.55232 0.685642 0
M  V30 1399 H 130.931 -3.7007 1.27139 0
M  V30 1400 H 130.554 -3.95323 -0.424937 0
M  V30 1401 N 131.551 -0.354651 -1.53558 0
M  V30 1402 C 132.799 0.237972 -2.00694 0
M  V30 1403 C 133.12 1.50173 -1.24391 0
M  V30 1404 O 132.39 1.92673 -0.354135 0
M  V30 1405 H 130.97 0.0909256 -0.741446 0
M  V30 1406 H 133.632 -0.478368 -1.88938 0
M  V30 1407 H 132.728 0.47264 -3.085 0
M  V30 1408 N 133.029 1.57378 -0.0835403 0
M  V30 1409 C 133.977 2.14602 0.89714 0
M  V30 1410 C 134.971 1.08589 1.30018 0
M  V30 1411 O 136.177 1.26952 1.27606 0
M  V30 1412 H 132.552 0.686346 0.3073 0
M  V30 1413 H 134.523 2.95845 0.38969 0
M  V30 1414 C 133.272 2.73188 2.15089 0
M  V30 1415 H 132.595 3.54442 1.84962 0
M  V30 1416 H 134.035 3.1681 2.81793 0
M  V30 1417 C 132.494 1.68517 2.91725 0
M  V30 1418 O 133.024 1.11718 3.85852 0
M  V30 1419 N 131.23 1.39277 2.55049 0
M  V30 1420 H 130.777 1.85655 1.78577 0
M  V30 1421 H 130.735 0.694791 3.06627 0
M  V30 1422 N 134.507 -0.190092 1.56449 0
M  V30 1423 C 135.753 -0.911052 1.81184 0
M  V30 1424 C 136.086 -1.82699 0.658396 0
M  V30 1425 O 135.361 -1.91491 -0.340775 0
M  V30 1426 C 135.644 -1.72297 3.16205 0
M  V30 1427 C 135.497 -0.831419 4.42049 0
M  V30 1428 C 136.816 -2.69454 3.47969 0
M  V30 1429 H 133.935 -0.32977 0.659106 0
M  V30 1430 H 136.577 -0.178169 1.89163 0
M  V30 1431 H 134.727 -2.34778 3.09534 0
M  V30 1432 H 136.399 -0.220929 4.60771 0
M  V30 1433 H 134.642 -0.138406 4.33579 0
M  V30 1434 H 135.313 -1.43461 5.33032 0
M  V30 1435 H 137.789 -2.17104 3.54972 0
M  V30 1436 H 136.665 -3.23342 4.43555 0
M  V30 1437 H 136.926 -3.48744 2.71717 0
M  V30 1438 N 135.985 -1.50799 -0.457987 0
M  V30 1439 C 137.262 -1.52968 -1.21902 0
M  V30 1440 C 137.642 -0.281906 -2.09209 0
M  V30 1441 O 136.99 0.734076 -2.16388 0
M  V30 1442 C 137.2 -2.8326 -2.03875 0
M  V30 1443 C 138.548 -3.34425 -2.6162 0
M  V30 1444 O 139.572 -2.8467 -2.14106 0
M  V30 1445 O 138.431 -4.21188 -3.48228 0
M  V30 1446 H 135.525 -0.614129 -0.553873 0
M  V30 1447 H 138.071 -1.63098 -0.468739 0
M  V30 1448 H 136.843 -3.65543 -1.39621 0
M  V30 1449 H 136.466 -2.76195 -2.8601 0
M  V30 1450 N 137.463 0.71206 -1.40597 0
M  V30 1451 C 138.711 1.46907 -1.38791 0
M  V30 1452 C 139.032 1.94998 0.00780391 0
M  V30 1453 O 138.302 1.70587 0.963174 0
M  V30 1454 H 136.882 0.545043 -0.51082 0
M  V30 1455 H 139.544 0.843882 -1.75683 0
M  V30 1456 H 138.64 2.34021 -2.06496 0
M  V30 1457 N 138.941 1.26152 0.944643 0
M  V30 1458 C 140.169 1.14259 1.72489 0
M  V30 1459 C 140.584 -0.302555 1.8636 0
M  V30 1460 O 139.941 -1.20741 1.36849 0
M  V30 1461 C 139.992 1.80266 3.13347 0
M  V30 1462 O 139.713 3.19133 3.00143 0
M  V30 1463 C 141.214 1.74283 4.07603 0
M  V30 1464 H 138.434 0.398051 0.540181 0
M  V30 1465 H 140.978 1.66706 1.18446 0
M  V30 1466 H 139.133 1.31766 3.64303 0
M  V30 1467 H 139.547 3.51744 3.89071 0
M  V30 1468 H 141.021 2.25111 5.04013 0
M  V30 1469 H 141.498 0.708631 4.33446 0
M  V30 1470 H 142.104 2.22319 3.62567 0
M  V30 1471 N 140.419 -1.14872 1.07899 0
M  V30 1472 C 141.665 -1.86289 0.81657 0
M  V30 1473 C 142.02 -1.8107 -0.65049 0
M  V30 1474 O 141.313 -1.22684 -1.47171 0
M  V30 1475 C 141.507 -3.34223 1.26609 0
M  V30 1476 C 141.336 -3.53846 2.77531 0
M  V30 1477 C 140.106 -3.68995 3.45212 0
M  V30 1478 C 142.304 -3.51201 3.75716 0
M  V30 1479 N 140.286 -3.76725 4.84718 0
M  V30 1480 C 141.657 -3.65112 5.01092 0
M  V30 1481 C 143.712 -3.34507 3.68794 0
M  V30 1482 C 142.415 -3.64056 6.20368 0
M  V30 1483 C 144.441 -3.34752 4.8754 0
M  V30 1484 C 143.803 -3.49199 6.11751 0
M  V30 1485 H 139.902 -0.698579 0.351443 0
M  V30 1486 H 142.486 -1.37713 1.37634 0
M  V30 1487 H 140.657 -3.81402 0.73395 0
M  V30 1488 H 142.389 -3.93377 0.95062 0
M  V30 1489 H 139.144 -3.70006 2.95622 0
M  V30 1490 H 139.568 -3.8432 5.5734 0
M  V30 1491 H 144.21 -3.22253 2.73702 0
M  V30 1492 H 141.928 -3.75087 7.15776 0
M  V30 1493 H 145.514 -3.23055 4.83866 0
M  V30 1494 H 144.394 -3.49328 7.02097 0
M  V30 1495 N 141.898 -0.863906 -1.31812 0
M  V30 1496 C 143.123 -0.48527 -2.01643 0
M  V30 1497 C 143.548 0.913058 -1.64453 0
M  V30 1498 O 142.906 1.6014 -0.849985 0
M  V30 1499 C 142.954 -0.642625 -3.54828 0
M  V30 1500 O 142.058 0.320659 -4.11151 0
M  V30 1501 H 141.399 -0.193793 -0.635091 0
M  V30 1502 H 143.929 -1.16565 -1.68148 0
M  V30 1503 H 143.939 -0.533628 -4.04495 0
M  V30 1504 H 142.614 -1.66227 -3.81237 0
M  V30 1505 H 141.191 0.167126 -3.72525 0
M  V30 1506 N 143.376 1.44774 -0.622745 0
M  V30 1507 C 144.286 2.34433 0.0886031 0
M  V30 1508 C 145.302 1.52131 0.844529 0
M  V30 1509 O 146.478 1.84886 0.798691 0
M  V30 1510 C 143.543 3.29986 1.0635 0
M  V30 1511 C 142.604 4.28195 0.307873 0
M  V30 1512 C 141.837 5.19183 1.23633 0
M  V30 1513 O 142.06 5.13918 2.47476 0
M  V30 1514 O 140.994 5.97515 0.725189 0
M  V30 1515 H 144.82 2.96693 -0.648599 0
M  V30 1516 H 142.405 1.44408 -0.382957 0
M  V30 1517 H 144.287 3.88825 1.6246 0
M  V30 1518 H 142.962 2.70269 1.78146 0
M  V30 1519 H 141.869 3.72927 -0.296064 0
M  V30 1520 H 143.202 4.90808 -0.3699 0
M  V30 1521 N 144.854 0.36279 1.53368 0
M  V30 1522 C 146.131 -0.284021 1.93527 0
M  V30 1523 C 146.511 -1.66628 1.29608 0
M  V30 1524 O 145.859 -2.23942 0.45413 0
M  V30 1525 C 146.069 -0.337028 3.47369 0
M  V30 1526 C 147.417 -0.578708 4.20638 0
M  V30 1527 O 148.441 -0.418352 3.53735 0
M  V30 1528 O 147.3 -0.89074 5.39192 0
M  V30 1529 H 144.394 -0.169743 0.809393 0
M  V30 1530 H 146.94 0.41537 1.64538 0
M  V30 1531 H 145.712 0.632217 3.86159 0
M  V30 1532 H 145.335 -1.08243 3.82582 0
M  V30 1533 N 146.332 -1.57332 0.0918853 0
M  V30 1534 C 147.264 -2.10869 -0.898168 0
M  V30 1535 C 148.277 -1.04521 -1.24817 0
M  V30 1536 O 149.466 -1.31977 -1.20184 0
M  V30 1537 C 146.566 -2.57083 -2.2082 0
M  V30 1538 C 145.739 -3.87229 -2.03402 0
M  V30 1539 C 144.798 -4.19324 -3.17889 0
M  V30 1540 O 143.824 -4.88598 -2.91994 0
M  V30 1541 N 145.026 -3.74471 -4.43567 0
M  V30 1542 H 147.791 -2.96439 -0.440943 0
M  V30 1543 H 145.352 -1.61631 -0.0933064 0
M  V30 1544 H 147.344 -2.75602 -2.96354 0
M  V30 1545 H 145.914 -1.76541 -2.57977 0
M  V30 1546 H 145.134 -3.7789 -1.12218 0
M  V30 1547 H 146.422 -4.72379 -1.89038 0
M  V30 1548 H 145.82 -3.18546 -4.67488 0
M  V30 1549 H 144.377 -3.98151 -5.16061 0
M  V30 1550 N 147.81 0.181792 -1.56548 0
M  V30 1551 C 149.057 0.900097 -1.81396 0
M  V30 1552 C 149.385 1.82695 -0.667281 0
M  V30 1553 O 148.64 1.92614 0.346146 0
M  V30 1554 C 148.939 1.73728 -3.12335 0
M  V30 1555 C 148.605 0.960255 -4.40556 0
M  V30 1556 C 147.267 0.745766 -4.75386 0
M  V30 1557 C 149.619 0.414477 -5.19549 0
M  V30 1558 C 146.947 -0.0257694 -5.86694 0
M  V30 1559 C 149.299 -0.343916 -6.31664 0
M  V30 1560 C 147.963 -0.569301 -6.65068 0
M  V30 1561 H 147.233 0.329369 -0.663775 0
M  V30 1562 H 149.88 0.165647 -1.90782 0
M  V30 1563 H 148.185 2.54081 -2.98245 0
M  V30 1564 H 149.882 2.29591 -3.28769 0
M  V30 1565 H 146.472 1.13746 -4.13231 0
M  V30 1566 H 150.656 0.567554 -4.93044 0
M  V30 1567 H 145.912 -0.210233 -6.11038 0
M  V30 1568 H 150.086 -0.774133 -6.92084 0
M  V30 1569 H 147.713 -1.16903 -7.51158 0
M  V30 1570 N 149.288 1.51039 0.449983 0
M  V30 1571 C 150.536 1.62759 1.19808 0
M  V30 1572 C 150.857 0.339981 1.92013 0
M  V30 1573 O 150.127 -0.643606 1.85026 0
M  V30 1574 H 148.707 0.599811 0.445237 0
M  V30 1575 H 151.369 1.87914 0.517138 0
M  V30 1576 H 150.465 2.44911 1.93455 0
M  V30 1577 N 150.766 -0.704594 1.40972 0
M  V30 1578 C 151.996 -1.49138 1.42974 0
M  V30 1579 C 152.404 -1.89175 0.0308406 0
M  V30 1580 O 151.747 -1.56734 -0.958138 0
M  V30 1581 C 151.809 -2.79016 2.26694 0
M  V30 1582 C 151.473 -2.61236 3.74973 0
M  V30 1583 C 152.47 -2.27773 4.67349 0
M  V30 1584 C 150.155 -2.77158 4.18914 0
M  V30 1585 C 152.149 -2.10457 6.01653 0
M  V30 1586 C 149.836 -2.59459 5.53285 0
M  V30 1587 C 150.834 -2.26158 6.4447 0
M  V30 1588 O 150.522 -2.08605 7.76363 0
M  V30 1589 H 150.254 -0.466443 0.489292 0
M  V30 1590 H 152.808 -0.8758 1.85793 0
M  V30 1591 H 151.038 -3.42947 1.78673 0
M  V30 1592 H 152.727 -3.40782 2.20504 0
M  V30 1593 H 153.493 -2.15095 4.34694 0
M  V30 1594 H 149.372 -3.02064 3.48251 0
M  V30 1595 H 152.916 -1.84387 6.72791 0
M  V30 1596 H 148.813 -2.71725 5.85522 0
M  V30 1597 H 149.581 -2.23439 7.87412 0
M  V30 1598 N 152.244 -1.26651 -0.937939 0
M  V30 1599 C 153.492 -1.12165 -1.68118 0
M  V30 1600 C 153.813 0.334983 -1.92101 0
M  V30 1601 O 153.083 1.23583 -1.52 0
M  V30 1602 H 151.663 -0.412093 -0.623048 0
M  V30 1603 H 154.325 -1.59027 -1.12678 0
M  V30 1604 H 153.421 -1.64289 -2.6536 0
M  V30 1605 N 153.722 1.14298 -1.08507 0
M  V30 1606 C 154.669 2.19414 -0.715965 0
M  V30 1607 C 155.639 1.63399 0.298326 0
M  V30 1608 O 156.824 1.89929 0.182101 0
M  V30 1609 C 153.964 3.44845 -0.132534 0
M  V30 1610 C 153.077 4.15007 -1.19973 0
M  V30 1611 C 152.212 5.28024 -0.580048 0
M  V30 1612 C 151.251 5.9002 -1.62921 0
M  V30 1613 N 150.388 6.94485 -1.03125 0
M  V30 1614 H 155.228 2.50336 -1.61666 0
M  V30 1615 H 152.765 1.2293 -0.807882 0
M  V30 1616 H 154.723 4.16601 0.223454 0
M  V30 1617 H 153.353 3.14403 0.731467 0
M  V30 1618 H 152.405 3.41629 -1.67313 0
M  V30 1619 H 153.717 4.57178 -1.99473 0
M  V30 1620 H 152.871 6.06455 -0.172364 0
M  V30 1621 H 151.61 4.87076 0.246603 0
M  V30 1622 H 150.615 5.10291 -2.04654 0
M  V30 1623 H 151.84 6.33042 -2.45835 0
M  V30 1624 H 149.786 6.55612 -0.225711 0
M  V30 1625 H 149.703 7.35148 -1.76334 0
M  V30 1626 H 150.971 7.7679 -0.649458 0
M  V30 1627 N 155.201 0.870884 1.31352 0
M  V30 1628 C 156.429 0.49677 2.00848 0
M  V30 1629 C 156.844 -0.910998 1.65367 0
M  V30 1630 O 156.201 -1.59696 0.883374 0
M  V30 1631 C 156.252 0.645308 3.55694 0
M  V30 1632 O 155.973 1.99764 3.89905 0
M  V30 1633 C 157.474 0.272326 4.42463 0
M  V30 1634 H 154.694 0.193462 0.642506 0
M  V30 1635 H 157.238 1.1723 1.67563 0
M  V30 1636 H 155.393 0.0173176 3.87396 0
M  V30 1637 H 155.807 2.00607 4.84621 0
M  V30 1638 H 157.281 0.427208 5.50344 0
M  V30 1639 H 157.758 -0.788587 4.32062 0
M  V30 1640 H 158.364 0.876054 4.1618 0
M  V30 1641 N 156.679 -1.44442 0.630414 0
M  V30 1642 C 157.926 -2.02052 0.134617 0
M  V30 1643 C 158.254 -1.49576 -1.24327 0
M  V30 1644 O 157.509 -0.669806 -1.83881 0
M  V30 1645 C 157.808 -3.57332 0.0697835 0
M  V30 1646 C 157.474 -4.29058 1.38635 0
M  V30 1647 C 156.136 -4.4837 1.74694 0
M  V30 1648 C 158.488 -4.69872 2.25543 0
M  V30 1649 C 155.816 -5.05756 2.97369 0
M  V30 1650 C 158.168 -5.28616 3.47487 0
M  V30 1651 C 156.832 -5.46147 3.8377 0
M  V30 1652 H 156.102 -0.739361 0.0492598 0
M  V30 1653 H 158.749 -1.73217 0.816586 0
M  V30 1654 H 157.054 -3.85577 -0.695553 0
M  V30 1655 H 158.751 -3.99637 -0.330344 0
M  V30 1656 H 155.341 -4.14357 1.09574 0
M  V30 1657 H 159.525 -4.54666 1.98979 0
M  V30 1658 H 154.781 -5.17515 3.25558 0
M  V30 1659 H 158.955 -5.59192 4.15063 0
M  V30 1660 H 156.582 -5.9038 4.7891 0
M  V30 1661 N 158.157 -0.370918 -1.53173 0
M  V30 1662 C 159.067 0.480823 -2.2962 0
M  V30 1663 C 160.083 1.08789 -1.35798 0
M  V30 1664 O 161.259 1.09768 -1.68858 0
M  V30 1665 C 158.324 1.60227 -3.07454 0
M  V30 1666 C 157.385 1.0222 -4.16953 0
M  V30 1667 C 156.618 2.0902 -4.91066 0
M  V30 1668 O 156.841 3.30222 -4.65091 0
M  V30 1669 O 155.775 1.71778 -5.76867 0
M  V30 1670 H 159.601 -0.141421 -3.03371 0
M  V30 1671 H 157.186 -0.135146 -1.48787 0
M  V30 1672 H 159.068 2.25417 -3.56041 0
M  V30 1673 H 157.743 2.20982 -2.36535 0
M  V30 1674 H 156.65 0.334064 -3.72605 0
M  V30 1675 H 157.983 0.459131 -4.90054 0
M  V30 1676 N 159.635 1.57281 -0.100228 0
M  V30 1677 C 160.865 1.98591 0.569681 0
M  V30 1678 C 161.273 0.978315 1.61943 0
M  V30 1679 O 160.616 -0.0396108 1.83657 0
M  V30 1680 C 160.678 3.36282 1.271 0
M  V30 1681 C 160.342 4.55488 0.371409 0
M  V30 1682 C 161.339 5.18491 -0.382504 0
M  V30 1683 C 159.024 5.01474 0.287965 0
M  V30 1684 C 161.018 6.25852 -1.20779 0
M  V30 1685 C 158.705 6.08701 -0.540965 0
M  V30 1686 C 159.703 6.70755 -1.28749 0
M  V30 1687 O 159.391 7.75914 -2.10269 0
M  V30 1688 H 159.123 0.65752 0.156982 0
M  V30 1689 H 161.677 2.0463 -0.177734 0
M  V30 1690 H 159.907 3.26941 2.0651 0
M  V30 1691 H 161.596 3.62005 1.83595 0
M  V30 1692 H 162.362 4.83891 -0.3278 0
M  V30 1693 H 158.241 4.52932 0.858689 0
M  V30 1694 H 161.785 6.74218 -1.79096 0
M  V30 1695 H 157.682 6.42732 -0.597131 0
M  V30 1696 H 158.45 7.92925 -2.03007 0
M  V30 1697 N 161.113 -0.173488 1.56642 0
M  V30 1698 C 162.045 -1.23935 1.92802 0
M  V30 1699 C 163.058 -1.40589 0.820889 0
M  V30 1700 O 164.247 -1.40631 1.09933 0
M  V30 1701 C 161.347 -2.60837 2.16373 0
M  V30 1702 C 160.52 -2.6551 3.47596 0
M  V30 1703 C 159.579 -3.8376 3.60021 0
M  V30 1704 O 158.605 -3.69859 4.32658 0
M  V30 1705 N 159.807 -5.00127 2.94709 0
M  V30 1706 H 162.572 -0.932236 2.84832 0
M  V30 1707 H 160.133 -0.363268 1.57772 0
M  V30 1708 H 162.125 -3.38407 2.21952 0
M  V30 1709 H 160.695 -2.83948 1.30738 0
M  V30 1710 H 159.915 -1.74052 3.53694 0
M  V30 1711 H 161.203 -2.65641 4.33949 0
M  V30 1712 H 160.601 -5.14322 2.35563 0
M  V30 1713 H 159.158 -5.75567 3.05886 0
M  V30 1714 N 162.591 -1.51276 -0.441967 0
M  V30 1715 C 163.816 -1.67799 -1.21895 0
M  V30 1716 C 164.241 -0.372864 -1.84367 0
M  V30 1717 O 163.599 0.666501 -1.68604 0
M  V30 1718 C 163.647 -2.79199 -2.28211 0
M  V30 1719 O 162.751 -2.42479 -3.33583 0
M  V30 1720 H 162.092 -0.559649 -0.357336 0
M  V30 1721 H 164.622 -1.97815 -0.522522 0
M  V30 1722 H 164.632 -3.03146 -2.73069 0
M  V30 1723 H 163.307 -3.73906 -1.82118 0
M  V30 1724 H 161.884 -2.29087 -2.94234 0
M  V30 1725 N 164.069 0.697108 -1.41344 0
M  V30 1726 C 165.48 1.27697 -1.36199 0
M  V30 1727 C 165.831 1.9615 -0.0443463 0
M  V30 1728 O 164.956 1.98689 0.857419 0
M  V30 1729 C 165.551 2.32223 -2.46694 0
M  V30 1730 C 164.11 2.8579 -2.44952 0
M  V30 1731 C 163.257 1.59807 -2.26621 0
M  V30 1732 H 166.208 0.491968 -1.50882 0
M  V30 1733 H 166.229 3.1348 -2.15664 0
M  V30 1734 H 165.741 1.82373 -3.42581 0
M  V30 1735 H 163.842 3.3982 -1.52817 0
M  V30 1736 H 163.955 3.36325 -3.41207 0
M  V30 1737 H 162.319 1.8556 -1.7447 0
M  V30 1738 H 163.102 1.11956 -3.24532 0
M  V30 1739 N 165.547 1.27147 0.931209 0
M  V30 1740 C 166.824 1.0401 1.65654 0
M  V30 1741 C 167.204 -0.426297 2.06751 0
M  V30 1742 O 166.552 -1.40879 1.79904 0
M  V30 1743 C 166.762 1.99834 2.86125 0
M  V30 1744 C 168.11 2.29007 3.57549 0
M  V30 1745 O 169.134 1.97779 2.96246 0
M  V30 1746 O 167.993 2.82222 4.67989 0
M  V30 1747 H 165.087 0.396239 0.725895 0
M  V30 1748 H 167.633 1.38397 0.982056 0
M  V30 1749 H 166.405 2.98744 2.52721 0
M  V30 1750 H 166.028 1.65987 3.61295 0
M  V30 1751 N 167.025 -1.13721 1.09112 0
M  V30 1752 C 168.273 -1.84559 0.823562 0
M  V30 1753 C 168.594 -1.83754 -0.652658 0
M  V30 1754 O 167.864 -1.29102 -1.47342 0
M  V30 1755 H 166.444 -0.683376 0.301673 0
M  V30 1756 H 169.106 -1.37771 1.37859 0
M  V30 1757 H 168.202 -2.8917 1.17419 0
M  V30 1758 N 168.503 -0.877838 -1.30888 0
M  V30 1759 C 169.453 -0.310872 -2.25871 0
M  V30 1760 C 170.437 0.556596 -1.50966 0
M  V30 1761 O 171.629 0.402187 -1.7237 0
M  V30 1762 C 168.758 0.479821 -3.3993 0
M  V30 1763 C 167.844 -0.401333 -4.22197 0
M  V30 1764 N 168.235 -1.49848 -4.83093 0
M  V30 1765 C 166.533 -0.195167 -4.45573 0
M  V30 1766 C 167.234 -2.0425 -5.44662 0
M  V30 1767 N 166.21 -1.33843 -5.26865 0
M  V30 1768 H 170.012 -1.1493 -2.70496 0
M  V30 1769 H 167.526 -0.726458 -1.45246 0
M  V30 1770 H 169.523 0.902582 -4.07012 0
M  V30 1771 H 168.183 1.31577 -2.96846 0
M  V30 1772 H 169.194 -1.88137 -4.82519 0
M  V30 1773 H 165.871 0.604192 -4.13105 0
M  V30 1774 H 167.261 -2.96345 -6.03017 0
M  V30 1775 N 169.982 1.44106 -0.638065 0
M  V30 1776 C 170.93 2.3248 0.0748149 0
M  V30 1777 C 171.924 1.47746 0.828702 0
M  V30 1778 O 173.13 1.64049 0.740816 0
M  V30 1779 H 169.505 0.750771 0.0429686 0
M  V30 1780 H 171.476 2.90348 -0.688504 0
M  V30 1781 C 170.225 3.31843 1.03805 0
M  V30 1782 H 169.548 3.97059 0.467375 0
M  V30 1783 H 170.988 3.96345 1.50622 0
M  V30 1784 C 169.447 2.61291 2.1267 0
M  V30 1785 O 169.977 2.41702 3.20847 0
M  V30 1786 N 168.183 2.20915 1.88798 0
M  V30 1787 H 167.73 2.37047 1.00829 0
M  V30 1788 H 167.688 1.74038 2.61836 0
M  V30 1789 N 171.46 0.379036 1.52974 0
M  V30 1790 C 172.39 -0.452706 2.29069 0
M  V30 1791 C 173.371 -1.07237 1.32039 0
M  V30 1792 O 174.556 -1.08708 1.60923 0
M  V30 1793 C 171.686 -1.5856 3.08992 0
M  V30 1794 C 170.64 -1.0925 4.13822 0
M  V30 1795 C 169.966 -2.31668 4.81907 0
M  V30 1796 C 171.266 -0.167702 5.22031 0
M  V30 1797 H 172.96 0.182181 2.98845 0
M  V30 1798 H 170.506 0.0890592 1.43724 0
M  V30 1799 H 172.459 -2.1742 3.6098 0
M  V30 1800 H 171.183 -2.24792 2.36931 0
M  V30 1801 H 169.842 -0.526494 3.628 0
M  V30 1802 H 169.49 -2.96386 4.06404 0
M  V30 1803 H 169.19 -1.9934 5.52754 0
M  V30 1804 H 170.714 -2.91189 5.36695 0
M  V30 1805 H 172.128 -0.664186 5.6944 0
M  V30 1806 H 170.525 0.0653265 6.00064 0
M  V30 1807 H 171.595 0.786347 4.78482 0
M  V30 1808 N 172.938 -1.57226 0.108567 0
M  V30 1809 C 173.87 -2.11809 -0.875752 0
M  V30 1810 C 174.883 -1.05839 -1.23701 0
M  V30 1811 O 176.072 -1.33245 -1.18778 0
M  V30 1812 C 173.172 -2.59411 -2.18081 0
M  V30 1813 C 172.345 -3.89364 -1.99284 0
M  V30 1814 C 171.404 -4.22672 -3.13424 0
M  V30 1815 O 170.43 -4.91668 -2.86795 0
M  V30 1816 N 171.632 -3.79154 -4.3957 0
M  V30 1817 H 174.397 -2.9689 -0.409477 0
M  V30 1818 H 171.958 -1.61721 -0.076158 0
M  V30 1819 H 173.95 -2.7873 -2.93414 0
M  V30 1820 H 172.52 -1.79268 -2.5609 0
M  V30 1821 H 171.74 -3.79059 -1.08203 0
M  V30 1822 H 173.028 -4.74358 -1.84017 0
M  V30 1823 H 172.426 -3.23486 -4.64083 0
M  V30 1824 H 170.983 -4.03602 -5.11809 0
M  V30 1825 N 174.416 0.165178 -1.56732 0
M  V30 1826 C 175.346 1.20651 -1.99914 0
M  V30 1827 C 176.327 1.45827 -0.875705 0
M  V30 1828 O 177.512 1.57057 -1.14223 0
M  V30 1829 C 174.642 2.54401 -2.36427 0
M  V30 1830 C 173.596 2.43782 -3.51787 0
M  V30 1831 C 172.922 3.82078 -3.7406 0
M  V30 1832 C 174.222 1.93732 -4.85041 0
M  V30 1833 H 175.916 0.847534 -2.87154 0
M  V30 1834 H 173.462 0.40625 -1.38151 0
M  V30 1835 H 175.415 3.27458 -2.65234 0
M  V30 1836 H 174.139 2.92098 -1.46103 0
M  V30 1837 H 172.798 1.73178 -3.23117 0
M  V30 1838 H 172.446 4.17179 -2.81017 0
M  V30 1839 H 172.146 3.7584 -4.51684 0
M  V30 1840 H 173.67 4.56712 -4.05274 0
M  V30 1841 H 175.084 2.56569 -5.12684 0
M  V30 1842 H 173.481 1.98428 -5.66345 0
M  V30 1843 H 174.551 0.891962 -4.76626 0
M  V30 1844 N 175.894 1.51508 0.433938 0
M  V30 1845 C 176.824 1.76016 1.53429 0
M  V30 1846 C 177.805 0.610112 1.58782 0
M  V30 1847 O 178.99 0.853177 1.74455 0
M  V30 1848 C 176.12 1.88831 2.9148 0
M  V30 1849 C 175.074 3.04288 3.00987 0
M  V30 1850 C 174.4 3.0229 4.4105 0
M  V30 1851 C 175.7 4.44193 2.74754 0
M  V30 1852 H 177.394 2.68152 1.33171 0
M  V30 1853 H 174.94 1.29035 0.639214 0
M  V30 1854 H 176.893 2.04559 3.6842 0
M  V30 1855 H 175.617 0.933455 3.12976 0
M  V30 1856 H 174.276 2.8827 2.26486 0
M  V30 1857 H 173.924 2.04576 4.59519 0
M  V30 1858 H 173.624 3.79822 4.4834 0
M  V30 1859 H 175.148 3.20116 5.1996 0
M  V30 1860 H 176.562 4.60544 3.41426 0
M  V30 1861 H 174.959 5.23457 2.9345 0
M  V30 1862 H 176.029 4.53996 1.70339 0
M  V30 1863 N 177.372 -0.689602 1.41712 0
M  V30 1864 C 178.618 -1.45041 1.42599 0
M  V30 1865 C 178.973 -1.92366 0.0363764 0
M  V30 1866 O 178.266 -1.67022 -0.938844 0
M  V30 1867 C 178.46 -2.67298 2.37247 0
M  V30 1868 C 178.289 -2.31935 3.85274 0
M  V30 1869 C 177.059 -2.2201 4.53916 0
M  V30 1870 C 179.257 -1.94526 4.76093 0
M  V30 1871 N 177.239 -1.79594 5.87043 0
M  V30 1872 C 178.61 -1.62915 5.98213 0
M  V30 1873 C 180.665 -1.81388 4.63684 0
M  V30 1874 C 179.368 -1.19486 7.09306 0
M  V30 1875 C 181.394 -1.39364 5.74745 0
M  V30 1876 C 180.756 -1.08668 6.95967 0
M  V30 1877 H 176.855 -0.527806 0.577014 0
M  V30 1878 H 179.439 -0.797266 1.77628 0
M  V30 1879 H 177.61 -3.30325 2.04304 0
M  V30 1880 H 179.342 -3.33806 2.28814 0
M  V30 1881 H 176.097 -2.406 4.07932 0
M  V30 1882 H 176.521 -1.60851 6.57614 0
M  V30 1883 H 181.163 -2.03772 3.70455 0
M  V30 1884 H 178.881 -0.958477 8.02396 0
M  V30 1885 H 182.467 -1.2974 5.6715 0
M  V30 1886 H 181.347 -0.766417 7.80446 0
M  V30 1887 N 178.85 -1.27639 -0.924453 0
M  V30 1888 C 179.76 -1.12466 -2.05885 0
M  V30 1889 C 180.776 -0.053869 -1.73917 0
M  V30 1890 O 181.952 -0.261012 -1.99702 0
M  V30 1891 C 179.017 -0.776768 -3.37886 0
M  V30 1892 C 178.078 -1.92878 -3.83532 0
M  V30 1893 C 177.311 -1.59739 -5.09234 0
M  V30 1894 O 177.534 -0.506782 -5.68144 0
M  V30 1895 O 176.468 -2.43761 -5.50331 0
M  V30 1896 H 180.294 -2.07671 -2.21599 0
M  V30 1897 H 177.879 -1.06857 -1.04413 0
M  V30 1898 H 179.761 -0.596229 -4.17161 0
M  V30 1899 H 178.436 0.145732 -3.23372 0
M  V30 1900 H 177.343 -2.1644 -3.0513 0
M  V30 1901 H 178.676 -2.8316 -4.02593 0
M  V30 1902 N 180.328 1.1314 -1.09713 0
M  V30 1903 C 181.291 2.16831 -0.742751 0
M  V30 1904 C 182.291 1.59159 0.229129 0
M  V30 1905 O 183.481 1.74199 0.00693237 0
M  V30 1906 C 180.613 3.40756 -0.0989168 0
M  V30 1907 H 181.806 2.49695 -1.66109 0
M  V30 1908 H 179.359 1.2802 -0.896699 0
M  V30 1909 H 180.094 3.13485 0.830514 0
M  V30 1910 H 179.879 3.83888 -0.798265 0
M  V30 1911 H 181.369 4.17386 0.133524 0
M  V30 1912 N 181.806 0.884767 1.30421 0
M  V30 1913 C 182.716 0.355398 2.31892 0
M  V30 1914 C 183.732 -0.542261 1.65335 0
M  V30 1915 O 184.908 -0.435432 1.96637 0
M  V30 1916 C 181.973 -0.421661 3.44126 0
M  V30 1917 C 181.034 0.505727 4.26311 0
M  V30 1918 C 180.267 -0.234343 5.33185 0
M  V30 1919 O 180.49 -1.46045 5.51386 0
M  V30 1920 O 179.424 0.415443 6.00465 0
M  V30 1921 H 183.25 1.19685 2.79122 0
M  V30 1922 H 180.835 0.648596 1.34587 0
M  V30 1923 H 182.717 -0.861641 4.12497 0
M  V30 1924 H 181.392 -1.23942 2.99032 0
M  V30 1925 H 180.299 0.994513 3.60639 0
M  V30 1926 H 181.632 1.28948 4.75009 0
M  V30 1927 N 183.284 -1.43765 0.645699 0
M  V30 1928 C 184.231 -2.30745 -0.0504648 0
M  V30 1929 C 185.201 -1.4432 -0.822241 0
M  V30 1930 O 186.386 -1.73202 -0.800358 0
M  V30 1931 C 183.526 -3.29802 -1.0161 0
M  V30 1932 C 182.639 -4.31326 -0.241219 0
M  V30 1933 C 181.774 -5.17469 -1.19998 0
M  V30 1934 C 180.813 -6.10691 -0.415094 0
M  V30 1935 N 179.95 -6.89483 -1.32506 0
M  V30 1936 H 184.79 -2.8973 0.697155 0
M  V30 1937 H 182.327 -1.42738 0.355563 0
M  V30 1938 H 184.285 -3.85734 -1.58949 0
M  V30 1939 H 182.915 -2.72483 -1.73069 0
M  V30 1940 H 181.967 -3.77749 0.448334 0
M  V30 1941 H 183.279 -4.9743 0.369437 0
M  V30 1942 H 182.433 -5.7799 -1.84424 0
M  V30 1943 H 181.172 -4.51473 -1.84455 0
M  V30 1944 H 180.177 -5.49265 0.242565 0
M  V30 1945 H 181.402 -6.78727 0.224966 0
M  V30 1946 H 179.348 -6.26142 -1.95657 0
M  V30 1947 H 179.265 -7.52081 -0.768783 0
M  V30 1948 H 180.533 -7.54516 -1.9577 0
M  V30 1949 N 184.763 -0.387143 -1.52771 0
M  V30 1950 C 185.993 0.195585 -2.05672 0
M  V30 1951 C 186.401 1.41241 -1.25887 0
M  V30 1952 O 185.744 1.81265 -0.298081 0
M  V30 1953 C 185.806 0.632327 -3.53895 0
M  V30 1954 C 185.47 -0.470739 -4.54569 0
M  V30 1955 C 186.467 -1.32746 -5.02667 0
M  V30 1956 C 184.152 -0.637151 -4.98243 0
M  V30 1957 C 186.146 -2.33574 -5.93061 0
M  V30 1958 C 183.833 -1.64877 -5.88438 0
M  V30 1959 C 184.831 -2.49649 -6.35739 0
M  V30 1960 O 184.519 -3.49082 -7.24153 0
M  V30 1961 H 184.251 0.033658 -0.675162 0
M  V30 1962 H 186.805 -0.550221 -1.97893 0
M  V30 1963 H 185.035 1.43008 -3.59285 0
M  V30 1964 H 186.724 1.14048 -3.89548 0
M  V30 1965 H 187.49 -1.21019 -4.69659 0
M  V30 1966 H 183.369 0.0129567 -4.60998 0
M  V30 1967 H 186.913 -2.99777 -6.29904 0
M  V30 1968 H 182.81 -1.76643 -6.2086 0
M  V30 1969 H 183.578 -3.45065 -7.42208 0
M  V30 1970 N 186.241 1.57166 -0.116904 0
M  V30 1971 C 187.487 1.95412 0.542405 0
M  V30 1972 C 187.82 1.00019 1.66463 0
M  V30 1973 O 187.095 0.0370346 1.94465 0
M  V30 1974 C 187.378 3.43615 1.07708 0
M  V30 1975 C 187.231 4.49781 -0.0415868 0
M  V30 1976 C 188.55 3.93616 1.96861 0
M  V30 1977 H 185.669 0.710543 0.195696 0
M  V30 1978 H 188.311 1.89027 -0.192038 0
M  V30 1979 H 186.461 3.49187 1.70296 0
M  V30 1980 H 188.133 4.56308 -0.676793 0
M  V30 1981 H 186.376 4.28033 -0.705019 0
M  V30 1982 H 187.047 5.50733 0.373717 0
M  V30 1983 H 189.523 3.90335 1.44146 0
M  V30 1984 H 188.399 4.97838 2.3119 0
M  V30 1985 H 188.66 3.34188 2.89432 0
M  V30 1986 N 187.719 -0.156864 1.56817 0
M  V30 1987 C 188.682 -1.17781 1.96622 0
M  V30 1988 C 189.682 -1.36401 0.851555 0
M  V30 1989 O 190.872 -1.33561 1.11836 0
M  V30 1990 C 188.004 -2.54008 2.27361 0
M  V30 1991 H 189.197 -0.836564 2.87996 0
M  V30 1992 H 186.75 -0.39985 1.51099 0
M  V30 1993 H 187.485 -2.9312 1.38748 0
M  V30 1994 H 187.27 -2.41856 3.08623 0
M  V30 1995 H 188.76 -3.27558 2.59029 0
M  V30 1996 N 189.197 -1.51736 -0.425897 0
M  V30 1997 C 190.608 -1.5732 -1.00536 0
M  V30 1998 C 190.959 -0.403537 -1.92005 0
M  V30 1999 O 190.084 0.478256 -2.11049 0
M  V30 2000 C 190.679 -2.85119 -1.8301 0
M  V30 2001 C 189.238 -2.93236 -2.35987 0
M  V30 2002 C 188.385 -2.52098 -1.15508 0
M  V30 2003 H 191.336 -1.57348 -0.206739 0
M  V30 2004 H 191.357 -2.69526 -2.68581 0
M  V30 2005 H 190.869 -3.7023 -1.16411 0
M  V30 2006 H 188.97 -2.12581 -3.06007 0
M  V30 2007 H 189.083 -3.9713 -2.68001 0
M  V30 2008 H 187.447 -2.05558 -1.50393 0
M  V30 2009 H 188.23 -3.39565 -0.505014 0
M  V30 2010 N 190.675 0.682077 -1.42076 0
M  V30 2011 C 192.086 1.26246 -1.37546 0
M  V30 2012 C 192.437 1.96092 -0.0651481 0
M  V30 2013 O 191.562 1.99587 0.836297 0
M  V30 2014 C 192.157 2.29594 -2.49143 0
M  V30 2015 C 190.716 2.83175 -2.47969 0
M  V30 2016 C 189.863 1.57395 -2.28303 0
M  V30 2017 H 192.814 0.475937 -1.51395 0
M  V30 2018 H 192.835 3.11175 -2.18976 0
M  V30 2019 H 192.347 1.78729 -3.44496 0
M  V30 2020 H 190.448 3.3818 -1.56413 0
M  V30 2021 H 190.561 3.32687 -3.44755 0
M  V30 2022 H 188.925 1.83699 -1.76428 0
M  V30 2023 H 189.708 1.08507 -3.25701 0
M  V30 2024 N 192.153 1.28127 0.917671 0
M  V30 2025 C 193.063 1.13556 2.05286 0
M  V30 2026 C 194.079 0.0630914 1.73886 0
M  V30 2027 O 195.255 0.271598 1.9956 0
M  V30 2028 C 192.32 0.794676 3.3747 0
M  V30 2029 C 191.381 1.94909 3.82504 0
M  V30 2030 C 190.614 1.62437 5.0838 0
M  V30 2031 O 190.837 0.536905 5.67867 0
M  V30 2032 O 189.771 2.46677 5.4903 0
M  V30 2033 H 193.597 2.08844 2.20495 0
M  V30 2034 H 191.182 1.07409 1.03845 0
M  V30 2035 H 193.064 0.618344 4.16839 0
M  V30 2036 H 191.739 -0.128581 3.23445 0
M  V30 2037 H 190.646 2.18055 3.03978 0
M  V30 2038 H 191.979 2.85291 4.01086 0
M  V30 2039 N 193.631 -1.12557 1.10312 0
M  V30 2040 C 194.561 -2.20341 0.772798 0
M  V30 2041 C 195.542 -1.68198 -0.25365 0
M  V30 2042 O 196.727 -1.93831 -0.119699 0
M  V30 2043 C 193.857 -3.46709 0.202443 0
M  V30 2044 C 192.811 -4.11996 1.15943 0
M  V30 2045 C 192.137 -5.328 0.450345 0
M  V30 2046 C 193.437 -4.5828 2.50552 0
M  V30 2047 H 195.131 -2.48229 1.674 0
M  V30 2048 H 192.677 -1.19308 0.806326 0
M  V30 2049 H 194.63 -4.2138 -0.0407752 0
M  V30 2050 H 193.354 -3.18245 -0.734001 0
M  V30 2051 H 192.013 -3.39305 1.38808 0
M  V30 2052 H 191.661 -5.00602 -0.490531 0
M  V30 2053 H 191.361 -5.7743 1.08851 0
M  V30 2054 H 192.885 -6.10219 0.215642 0
M  V30 2055 H 194.299 -5.2433 2.31843 0
M  V30 2056 H 192.696 -5.13683 3.10242 0
M  V30 2057 H 193.766 -3.72329 3.10643 0
M  V30 2058 N 195.109 -0.891671 -1.2995 0
M  V30 2059 C 196.525 -0.58662 -1.48428 0
M  V30 2060 C 196.725 0.873951 -1.81561 0
M  V30 2061 O 195.781 1.65471 -1.90724 0
M  V30 2062 C 197.094 -1.50553 -2.60296 0
M  V30 2063 C 198.642 -1.50988 -2.74175 0
M  V30 2064 C 199.117 -2.41488 -3.89163 0
M  V30 2065 N 200.608 -2.39489 -3.96483 0
M  V30 2066 C 201.343 -3.06223 -4.84784 0
M  V30 2067 N 200.839 -3.82206 -5.77833 0
M  V30 2068 N 202.632 -2.95421 -4.78208 0
M  V30 2069 H 194.783 -1.83644 -1.06718 0
M  V30 2070 H 197.046 -0.786455 -0.529332 0
M  V30 2071 H 196.752 -2.54581 -2.42654 0
M  V30 2072 H 196.626 -1.22008 -3.56923 0
M  V30 2073 H 199.013 -0.47708 -2.91218 0
M  V30 2074 H 199.094 -1.83567 -1.78148 0
M  V30 2075 H 198.738 -3.44857 -3.72876 0
M  V30 2076 H 198.668 -2.06222 -4.84541 0
M  V30 2077 H 201.159 -1.84278 -3.29924 0
M  V30 2078 H 201.472 -4.302 -6.41988 0
M  V30 2079 H 199.817 -3.86313 -5.77743 0
M  V30 2080 H 203.008 -2.35581 -4.04499 0
M  V30 2081 H 203.181 -3.47704 -5.46814 0
M  V30 2082 N 196.587 1.43421 -0.653314 0
M  V30 2083 C 197.812 2.06678 -0.172846 0
M  V30 2084 C 198.237 1.48648 1.15262 0
M  V30 2085 O 197.595 0.596457 1.71208 0
M  V30 2086 C 197.643 3.60474 -0.0953184 0
M  V30 2087 O 196.747 4.01487 0.942442 0
M  V30 2088 H 196.088 0.657181 -0.0949155 0
M  V30 2089 H 198.618 1.83925 -0.896265 0
M  V30 2090 H 198.628 4.07905 0.0879728 0
M  V30 2091 H 197.303 4.02088 -1.06291 0
M  V30 2092 H 195.88 3.65646 0.731932 0
M  V30 2093 N 198.065 0.39524 1.52563 0
M  V30 2094 C 199.012 -0.437036 2.26624 0
M  V30 2095 C 199.982 -1.05281 1.28472 0
M  V30 2096 O 201.167 -1.07971 1.57311 0
M  V30 2097 C 198.307 -1.55524 3.08069 0
M  V30 2098 C 197.42 -0.961745 4.21158 0
M  V30 2099 C 196.555 -2.05149 4.89987 0
M  V30 2100 C 195.594 -1.4342 5.95061 0
M  V30 2101 N 194.731 -2.46351 6.57462 0
M  V30 2102 H 199.571 0.200976 2.97322 0
M  V30 2103 H 197.108 0.110944 1.46681 0
M  V30 2104 H 199.066 -2.21437 3.53584 0
M  V30 2105 H 197.696 -2.16348 2.3957 0
M  V30 2106 H 196.748 -0.192048 3.79915 0
M  V30 2107 H 198.06 -0.470701 4.96574 0
M  V30 2108 H 197.214 -2.78819 5.38837 0
M  V30 2109 H 195.953 -2.57615 4.14109 0
M  V30 2110 H 194.958 -0.682774 5.45544 0
M  V30 2111 H 196.183 -0.917416 6.72875 0
M  V30 2112 H 194.129 -2.97975 5.8442 0
M  V30 2113 H 194.046 -2.02019 7.28508 0
M  V30 2114 H 195.314 -3.19633 7.10954 0
M  V30 2115 N 199.544 -1.57102 0.125237 0
M  V30 2116 C 200.793 -1.94582 -0.531095 0
M  V30 2117 C 201.106 -1.01126 -1.6743 0
M  V30 2118 O 202.312 -1.28097 -2.39381 0
M  V30 2119 C 200.768 -3.45839 -0.996164 0
M  V30 2120 C 200.376 -4.47842 0.118926 0
M  V30 2121 C 202.12 -3.92227 -1.62352 0
M  V30 2122 C 200.027 -5.90284 -0.363192 0
M  V30 2123 H 198.957 -0.726391 -0.20217 0
M  V30 2124 H 201.608 -1.82339 0.206092 0
M  V30 2125 H 199.99 -3.53338 -1.78796 0
M  V30 2126 H 201.164 -4.52018 0.895358 0
M  V30 2127 H 199.479 -4.11243 0.653324 0
M  V30 2128 H 202.076 -4.96069 -1.99548 0
M  V30 2129 H 202.419 -3.32552 -2.50429 0
M  V30 2130 H 202.952 -3.87554 -0.897019 0
M  V30 2131 H 199.691 -6.53728 0.481679 0
M  V30 2132 H 199.211 -5.89515 -1.10597 0
M  V30 2133 H 200.89 -6.41752 -0.822377 0
M  V30 2134 N 201.022 0.148545 -1.56898 0
M  V30 2135 C 201.952 1.18524 -2.01182 0
M  V30 2136 C 202.933 1.4489 -0.891123 0
M  V30 2137 O 204.118 1.55836 -1.15882 0
M  V30 2138 C 201.248 2.51879 -2.39112 0
M  V30 2139 C 200.202 2.40038 -3.54353 0
M  V30 2140 C 199.528 3.78089 -3.78091 0
M  V30 2141 C 200.828 1.88577 -4.87069 0
M  V30 2142 H 202.522 0.817029 -2.88036 0
M  V30 2143 H 200.068 0.391575 -1.38574 0
M  V30 2144 H 202.021 3.24627 -2.68692 0
M  V30 2145 H 200.745 2.90532 -1.49193 0
M  V30 2146 H 199.404 1.69742 -3.24936 0
M  V30 2147 H 199.052 4.14175 -2.85426 0
M  V30 2148 H 198.752 3.71028 -4.55645 0
M  V30 2149 H 200.276 4.52387 -4.10095 0
M  V30 2150 H 201.69 2.51117 -5.15377 0
M  V30 2151 H 200.087 1.9241 -5.68417 0
M  V30 2152 H 201.157 0.84136 -4.77545 0
M  V30 2153 N 202.5 1.5196 0.417844 0
M  V30 2154 C 203.728 1.69426 1.18753 0
M  V30 2155 C 204.143 0.399955 1.84515 0
M  V30 2156 O 203.5 -0.623288 1.71527 0
M  V30 2157 C 203.551 2.82375 2.25714 0
M  V30 2158 O 203.272 4.06793 1.62638 0
M  V30 2159 C 204.773 3.11277 3.15628 0
M  V30 2160 H 201.993 0.568031 0.357186 0
M  V30 2161 H 204.537 1.98475 0.49273 0
M  V30 2162 H 202.692 2.5587 2.90877 0
M  V30 2163 H 203.106 4.69667 2.3348 0
M  V30 2164 H 204.58 3.93843 3.86771 0
M  V30 2165 H 205.057 2.24473 3.77503 0
M  V30 2166 H 205.663 3.39515 2.56144 0
M  V30 2167 N 203.978 -0.674533 1.42435 0
M  V30 2168 C 205.394 -0.98769 1.25367 0
M  V30 2169 C 205.594 -2.00879 0.158044 0
M  V30 2170 O 204.65 -2.48075 -0.470633 0
M  V30 2171 C 205.963 -1.49224 2.6106 0
M  V30 2172 C 207.511 -1.61 2.68417 0
M  V30 2173 C 207.986 -2.14852 4.04478 0
M  V30 2174 N 209.477 -2.22185 4.06434 0
M  V30 2175 C 210.212 -2.64928 5.08528 0
M  V30 2176 N 209.708 -3.07121 6.21006 0
M  V30 2177 N 211.501 -2.64679 4.95885 0
M  V30 2178 H 203.652 0.00152503 2.124 0
M  V30 2179 H 205.915 -0.0618434 0.945981 0
M  V30 2180 H 205.621 -0.816453 3.42092 0
M  V30 2181 H 205.495 -2.47094 2.84999 0
M  V30 2182 H 207.882 -2.27686 1.87732 0
M  V30 2183 H 207.963 -0.616195 2.48267 0
M  V30 2184 H 207.607 -1.48775 4.85622 0
M  V30 2185 H 207.537 -3.15024 4.2198 0
M  V30 2186 H 210.028 -1.92435 3.25234 0
M  V30 2187 H 210.341 -3.38423 6.94759 0
M  V30 2188 H 208.686 -3.04978 6.24511 0
M  V30 2189 H 211.877 -2.31078 4.07088 0
M  V30 2190 H 212.05 -2.9767 5.75584 0
M  V30 2191 N 205.456 -1.28612 -0.910864 0
M  V30 2192 C 206.867 -1.14406 -1.47541 0
M  V30 2193 C 207.218 0.264901 -1.94403 0
M  V30 2194 O 206.343 1.15942 -1.82719 0
M  V30 2195 C 206.938 -2.07073 -2.68153 0
M  V30 2196 C 205.497 -1.96923 -3.20778 0
M  V30 2197 C 204.644 -1.98646 -1.93481 0
M  V30 2198 H 207.595 -1.41259 -0.723291 0
M  V30 2199 H 207.616 -1.63642 -3.43514 0
M  V30 2200 H 207.128 -3.09611 -2.34015 0
M  V30 2201 H 205.229 -0.97433 -3.59635 0
M  V30 2202 H 205.342 -2.84026 -3.85832 0
M  V30 2203 H 203.706 -1.43093 -2.10705 0
M  V30 2204 H 204.489 -3.02868 -1.61634 0
M  V30 2205 N 206.934 1.1197 -1.10907 0
M  V30 2206 C 208.159 1.87942 -0.877064 0
M  V30 2207 C 208.584 1.79341 0.567314 0
M  V30 2208 O 207.942 1.15184 1.40009 0
M  V30 2209 C 207.99 3.34926 -1.33629 0
M  V30 2210 O 207.094 4.09303 -0.504447 0
M  V30 2211 H 206.435 0.583785 -0.316371 0
M  V30 2212 H 208.965 1.4157 -1.47712 0
M  V30 2213 H 208.975 3.8577 -1.32837 0
M  V30 2214 H 207.65 3.40504 -2.3881 0
M  V30 2215 H 206.227 3.68393 -0.577993 0
M  V30 2216 N 208.412 0.89855 1.29475 0
M  V30 2217 C 209.359 0.373819 2.27753 0
M  V30 2218 C 210.329 -0.543444 1.56958 0
M  V30 2219 O 211.514 -0.468934 1.84948 0
M  V30 2220 C 208.654 -0.393648 3.42848 0
M  V30 2221 C 207.767 0.554379 4.28428 0
M  V30 2222 C 206.902 -0.230026 5.30702 0
M  V30 2223 C 205.941 0.712599 6.07938 0
M  V30 2224 N 205.078 -0.0373283 7.0209 0
M  V30 2225 H 209.918 1.21699 2.72017 0
M  V30 2226 H 207.455 0.611456 1.33789 0
M  V30 2227 H 209.413 -0.85466 4.08352 0
M  V30 2228 H 208.043 -1.20128 2.99615 0
M  V30 2229 H 207.095 1.13391 3.63107 0
M  V30 2230 H 208.407 1.27597 4.82204 0
M  V30 2231 H 207.561 -0.752288 6.02018 0
M  V30 2232 H 206.3 -0.984758 4.77654 0
M  V30 2233 H 205.305 1.24637 5.35486 0
M  V30 2234 H 206.53 1.46664 6.63074 0
M  V30 2235 H 204.476 -0.774348 6.51414 0
M  V30 2236 H 204.393 0.624374 7.53417 0
M  V30 2237 H 205.661 -0.539891 7.77628 0
M  V30 2238 N 209.89 -1.43072 0.660911 0
M  V30 2239 C 210.837 -2.30785 -0.0259884 0
M  V30 2240 C 211.807 -1.45184 -0.806888 0
M  V30 2241 O 212.992 -1.74041 -0.781943 0
M  V30 2242 C 210.132 -3.30861 -0.981067 0
M  V30 2243 C 209.245 -4.31558 -0.195458 0
M  V30 2244 C 208.38 -5.18712 -1.14503 0
M  V30 2245 C 207.419 -6.11097 -0.350299 0
M  V30 2246 N 206.556 -6.90849 -1.25186 0
M  V30 2247 H 211.396 -2.88975 0.727846 0
M  V30 2248 H 208.933 -1.42353 0.370682 0
M  V30 2249 H 210.891 -3.87399 -1.54849 0
M  V30 2250 H 209.521 -2.74304 -1.70169 0
M  V30 2251 H 208.573 -3.77252 0.488374 0
M  V30 2252 H 209.885 -4.9701 0.422176 0
M  V30 2253 H 209.039 -5.79914 -1.78284 0
M  V30 2254 H 207.778 -4.53404 -1.79656 0
M  V30 2255 H 206.783 -5.48976 0.300808 0
M  V30 2256 H 208.008 -6.7845 0.296941 0
M  V30 2257 H 205.954 -6.28182 -1.89005 0
M  V30 2258 H 205.871 -7.52854 -0.688971 0
M  V30 2259 H 207.139 -7.5655 -1.87757 0
M  V30 2260 N 211.368 -0.403325 -1.52352 0
M  V30 2261 C 212.779 0.0675782 -1.86578 0
M  V30 2262 C 213.13 1.44941 -1.32236 0
M  V30 2263 O 212.255 2.06112 -0.659307 0
M  V30 2264 C 212.85 0.129404 -3.38553 0
M  V30 2265 C 211.409 0.544629 -3.72439 0
M  V30 2266 C 210.556 -0.284551 -2.75836 0
M  V30 2267 H 213.507 -0.620631 -1.46061 0
M  V30 2268 H 213.528 0.94581 -3.68558 0
M  V30 2269 H 213.04 -0.87645 -3.78074 0
M  V30 2270 H 211.141 1.55734 -3.38493 0
M  V30 2271 H 211.254 0.293046 -4.78203 0
M  V30 2272 H 209.618 0.252258 -2.53448 0
M  V30 2273 H 210.401 -1.28865 -3.18196 0
M  V30 2274 N 212.846 1.57033 -0.133567 0
M  V30 2275 C 213.776 2.1909 0.807567 0
M  V30 2276 C 214.757 1.13517 1.26681 0
M  V30 2277 O 215.942 1.41809 1.32679 0
M  V30 2278 C 213.072 2.80188 2.05212 0
M  V30 2279 C 212.026 3.91471 1.73015 0
M  V30 2280 C 211.352 4.39443 3.04622 0
M  V30 2281 C 212.652 5.12886 0.987168 0
M  V30 2282 H 214.346 2.97988 0.290403 0
M  V30 2283 H 211.892 1.43335 0.138239 0
M  V30 2284 H 213.845 3.22264 2.71521 0
M  V30 2285 H 212.569 1.98601 2.59278 0
M  V30 2286 H 211.228 3.49993 1.0909 0
M  V30 2287 H 210.876 3.54695 3.56651 0
M  V30 2288 H 210.576 5.14495 2.83847 0
M  V30 2289 H 212.1 4.8418 3.72024 0
M  V30 2290 H 213.514 5.51891 1.55208 0
M  V30 2291 H 211.911 5.93615 0.87985 0
M  V30 2292 H 212.981 4.84894 -0.0235286 0
M  V30 2293 N 214.325 -0.140222 1.56975 0
M  V30 2294 C 215.257 -1.19818 1.95388 0
M  V30 2295 C 216.27 -1.38816 0.850525 0
M  V30 2296 O 217.459 -1.38267 1.12891 0
M  V30 2297 C 214.559 -2.56189 2.21857 0
M  V30 2298 C 213.732 -2.58077 3.5315 0
M  V30 2299 C 212.791 -3.76037 3.6808 0
M  V30 2300 O 211.817 -3.60598 4.40406 0
M  V30 2301 N 213.019 -4.93763 3.05251 0
M  V30 2302 H 215.784 -0.871609 2.86746 0
M  V30 2303 H 213.345 -0.32972 1.58507 0
M  V30 2304 H 215.337 -3.33623 2.2908 0
M  V30 2305 H 213.907 -2.81111 1.36731 0
M  V30 2306 H 213.127 -1.6651 3.57307 0
M  V30 2307 H 214.415 -2.56377 4.39486 0
M  V30 2308 H 213.813 -5.09209 2.46419 0
M  V30 2309 H 212.37 -5.68949 3.18026 0
M  V30 2310 N 215.803 -1.52179 -0.40978 0
M  V30 2311 C 217.051 -1.65878 -1.15451 0
M  V30 2312 C 217.372 -0.390771 -1.91044 0
M  V30 2313 O 216.642 0.594323 -1.86667 0
M  V30 2314 H 215.222 -0.611405 -0.429177 0
M  V30 2315 H 217.884 -1.89219 -0.467134 0
M  V30 2316 H 216.98 -2.49954 -1.86894 0
M  V30 2317 N 217.281 0.66697 -1.42791 0
M  V30 2318 C 218.53 1.42278 -1.42968 0
M  V30 2319 C 218.843 1.9553 -0.0524489 0
M  V30 2320 O 220.049 2.71414 0.068363 0
M  V30 2321 C 218.505 2.57418 -2.51524 0
M  V30 2322 C 218.113 2.10832 -3.9529 0
M  V30 2323 C 219.857 3.34878 -2.60877 0
M  V30 2324 C 217.764 3.23101 -4.95338 0
M  V30 2325 H 216.694 0.534533 -0.531781 0
M  V30 2326 H 219.345 0.721302 -1.68729 0
M  V30 2327 H 217.727 3.29971 -2.18941 0
M  V30 2328 H 218.901 1.4538 -4.37266 0
M  V30 2329 H 217.216 1.46289 -3.89857 0
M  V30 2330 H 219.813 4.18505 -3.32802 0
M  V30 2331 H 220.156 3.81993 -1.6549 0
M  V30 2332 H 220.689 2.69398 -2.92693 0
M  V30 2333 H 217.428 2.80969 -5.9223 0
M  V30 2334 H 216.948 3.87309 -4.57987 0
M  V30 2335 H 218.627 3.88447 -5.17415 0
M  V30 2336 N 218.759 1.29093 0.90403 0
M  V30 2337 C 220.17 1.15186 1.46932 0
M  V30 2338 C 220.521 -0.254587 1.94541 0
M  V30 2339 O 219.646 -1.14972 1.83332 0
M  V30 2340 C 220.241 2.08492 2.67051 0
M  V30 2341 C 218.8 1.98621 3.19729 0
M  V30 2342 C 217.947 1.9967 1.92425 0
M  V30 2343 H 220.898 1.41641 0.715789 0
M  V30 2344 H 220.919 1.65461 3.42641 0
M  V30 2345 H 220.431 3.10847 2.3237 0
M  V30 2346 H 218.532 0.993389 3.59114 0
M  V30 2347 H 218.645 2.86068 3.8432 0
M  V30 2348 H 217.009 1.44208 2.09943 0
M  V30 2349 H 217.792 3.03721 1.60026 0
M  V30 2350 N 220.237 -1.11381 1.11499 0
M  V30 2351 C 221.483 -1.83403 0.865512 0
M  V30 2352 C 221.816 -1.84459 -0.607329 0
M  V30 2353 O 221.091 -1.29811 -1.44842 0
M  V30 2354 C 221.374 -3.30552 1.42855 0
M  V30 2355 C 221.227 -3.37886 2.96906 0
M  V30 2356 C 222.546 -4.26643 1.08 0
M  V30 2357 H 219.665 -0.665879 0.31587 0
M  V30 2358 H 222.307 -1.30601 1.37998 0
M  V30 2359 H 220.457 -3.75648 0.990985 0
M  V30 2360 H 222.129 -3.01343 3.49271 0
M  V30 2361 H 220.372 -2.78088 3.32941 0
M  V30 2362 H 221.043 -4.41458 3.31389 0
M  V30 2363 H 223.519 -3.89729 1.45775 0
M  V30 2364 H 222.395 -5.27986 1.50072 0
M  V30 2365 H 222.656 -4.42099 -0.00915037 0
M  V30 2366 N 221.715 -0.905404 -1.28997 0
M  V30 2367 C 222.662 -0.385892 -2.27551 0
M  V30 2368 C 223.632 0.535113 -1.57244 0
M  V30 2369 O 224.817 0.459119 -1.85194 0
M  V30 2370 C 221.957 0.375461 -3.43051 0
M  V30 2371 C 221.07 -0.577092 -4.28128 0
M  V30 2372 C 220.205 0.201879 -5.30816 0
M  V30 2373 C 219.244 -0.744829 -6.07551 0
M  V30 2374 N 218.381 9.42587e-05 -7.021 0
M  V30 2375 H 223.221 -1.23139 -2.71368 0
M  V30 2376 H 220.758 -0.618542 -1.33463 0
M  V30 2377 H 222.716 0.832992 -4.088 0
M  V30 2378 H 221.346 1.18537 -3.00248 0
M  V30 2379 H 220.398 -1.15315 -3.62501 0
M  V30 2380 H 221.71 -1.30152 -4.8152 0
M  V30 2381 H 220.864 0.720351 -6.02408 0
M  V30 2382 H 219.603 0.959413 -4.7817 0
M  V30 2383 H 218.608 -1.27475 -5.34818 0
M  V30 2384 H 219.833 -1.50178 -6.62286 0
M  V30 2385 H 217.779 0.739791 -6.51815 0
M  V30 2386 H 217.696 -0.664321 -7.53076 0
M  V30 2387 H 218.964 0.498644 -7.77903 0
M  V30 2388 N 223.193 1.4272 -0.668489 0
M  V30 2389 C 224.609 1.55992 -0.33745 0
M  V30 2390 C 224.809 1.64933 1.15756 0
M  V30 2391 O 223.865 1.61278 1.94282 0
M  V30 2392 C 225.178 2.81314 -1.06222 0
M  V30 2393 C 226.726 2.95078 -1.04394 0
M  V30 2394 C 227.201 4.23252 -1.74991 0
M  V30 2395 N 228.692 4.3015 -1.71829 0
M  V30 2396 C 229.427 5.28127 -2.23315 0
M  V30 2397 N 228.923 6.32293 -2.83156 0
M  V30 2398 N 230.716 5.19882 -2.13726 0
M  V30 2399 H 222.867 1.3516 -1.63846 0
M  V30 2400 H 225.13 0.650174 -0.689912 0
M  V30 2401 H 224.836 2.80823 -2.11734 0
M  V30 2402 H 224.71 3.72012 -0.62344 0
M  V30 2403 H 227.097 2.951 0.0028244 0
M  V30 2404 H 227.178 2.05627 -1.52155 0
M  V30 2405 H 226.822 4.2399 -2.79633 0
M  V30 2406 H 226.752 5.11626 -1.24685 0
M  V30 2407 H 229.243 3.55499 -1.28175 0
M  V30 2408 H 229.556 7.03398 -3.20079 0
M  V30 2409 H 227.901 6.32873 -2.87223 0
M  V30 2410 H 231.092 4.37423 -1.66669 0
M  V30 2411 H 231.265 5.96077 -2.54158 0
M  V30 2412 N 224.671 0.411399 1.52136 0
M  V30 2413 C 225.92 -0.165009 2.01024 0
M  V30 2414 C 226.233 -1.4603 1.30133 0
M  V30 2415 O 227.439 -2.1181 1.69849 0
M  V30 2416 C 225.895 -0.344618 3.58246 0
M  V30 2417 C 225.503 0.938716 4.38055 0
M  V30 2418 C 227.247 -0.876195 4.15359 0
M  V30 2419 C 225.154 0.726172 5.86925 0
M  V30 2420 H 224.084 -0.0654407 0.751155 0
M  V30 2421 H 226.735 0.537192 1.75461 0
M  V30 2422 H 225.117 -1.10921 3.80148 0
M  V30 2423 H 226.291 1.70963 4.27912 0
M  V30 2424 H 224.606 1.39688 3.92271 0
M  V30 2425 H 227.203 -1.05128 5.24263 0
M  V30 2426 H 227.546 -1.85152 3.7286 0
M  V30 2427 H 228.079 -0.170607 3.97434 0
M  V30 2428 H 224.818 1.67312 6.33788 0
M  V30 2429 H 224.338 -0.00540283 5.998 0
M  V30 2430 H 226.017 0.369231 6.45946 0
M  V30 2431 N 226.149 -1.5696 0.141893 0
M  V30 2432 C 227.426 -1.87553 -0.555281 0
M  V30 2433 C 227.806 -1.04699 -1.83306 0
M  V30 2434 O 227.154 -0.132346 -2.28116 0
M  V30 2435 C 227.364 -3.39093 -0.825664 0
M  V30 2436 C 228.712 -4.08199 -1.16869 0
M  V30 2437 O 229.736 -3.44242 -0.915185 0
M  V30 2438 O 228.595 -5.21139 -1.6455 0
M  V30 2439 H 225.689 -0.777188 -0.282679 0
M  V30 2440 H 228.235 -1.68763 0.17812 0
M  V30 2441 H 227.007 -3.91221 0.0788633 0
M  V30 2442 H 226.63 -3.63393 -1.61343 0
M  V30 2443 N 227.627 0.131896 -1.57047 0
M  V30 2444 C 228.577 1.1679 -1.95816 0
M  V30 2445 C 229.561 1.37756 -0.831393 0
M  V30 2446 O 230.753 1.39065 -1.09499 0
M  V30 2447 C 227.882 2.49778 -2.35512 0
M  V30 2448 C 226.968 2.32342 -3.54793 0
M  V30 2449 N 227.359 1.8469 -4.70875 0
M  V30 2450 C 225.657 2.63043 -3.60173 0
M  V30 2451 C 226.358 1.80656 -5.52936 0
M  V30 2452 N 225.334 2.24528 -4.95064 0
M  V30 2453 H 229.136 0.791818 -2.83033 0
M  V30 2454 H 226.65 0.339791 -1.58805 0
M  V30 2455 H 228.647 3.24692 -2.61498 0
M  V30 2456 H 227.307 2.88156 -1.49654 0
M  V30 2457 H 228.318 1.54429 -4.9434 0
M  V30 2458 H 224.995 3.05193 -2.84892 0
M  V30 2459 H 226.385 1.45178 -6.56028 0
M  V30 2460 N 229.106 1.52395 0.401703 0
M  V30 2461 C 230.036 1.79231 1.49661 0
M  V30 2462 C 231.017 0.643654 1.57452 0
M  V30 2463 O 232.202 0.889989 1.72606 0
M  V30 2464 C 229.332 1.94971 2.87409 0
M  V30 2465 C 228.286 3.10604 2.94465 0
M  V30 2466 C 227.612 3.11577 4.34538 0
M  V30 2467 C 228.912 4.49921 2.6527 0
M  V30 2468 H 230.606 2.70917 1.27454 0
M  V30 2469 H 228.152 1.30362 0.6117 0
M  V30 2470 H 230.105 2.12328 3.63999 0
M  V30 2471 H 228.829 0.999632 3.10926 0
M  V30 2472 H 227.488 2.93009 2.20321 0
M  V30 2473 H 227.136 2.14277 4.55076 0
M  V30 2474 H 226.836 3.89247 4.40183 0
M  V30 2475 H 228.36 3.31073 5.13053 0
M  V30 2476 H 229.774 4.67683 3.31581 0
M  V30 2477 H 228.171 5.29564 2.82281 0
M  V30 2478 H 229.241 4.57507 1.60671 0
M  V30 2479 N 230.584 -0.659388 1.43143 0
M  V30 2480 C 231.532 -1.79374 1.4808 0
M  V30 2481 C 232.526 -1.65639 0.354988 0
M  V30 2482 O 233.732 -1.7206 0.528704 0
M  V30 2483 H 230.107 -0.591705 0.4641 0
M  V30 2484 H 232.078 -1.72329 2.43609 0
M  V30 2485 C 230.827 -3.17606 1.41499 0
M  V30 2486 H 230.15 -3.28809 2.27431 0
M  V30 2487 H 231.59 -3.96951 1.49015 0
M  V30 2488 C 230.049 -3.36642 0.131765 0
M  V30 2489 O 230.579 -3.93461 -0.809386 0
M  V30 2490 N 228.785 -2.90567 0.0439396 0
M  V30 2491 H 228.332 -2.44513 0.810619 0
M  V30 2492 H 228.29 -3.03681 -0.813969 0
M  V30 2493 N 232.062 -1.29571 -0.897171 0
M  V30 2494 C 232.992 -1.17473 -2.01798 0
M  V30 2495 C 233.973 -0.068323 -1.69963 0
M  V30 2496 O 235.158 -0.248239 -1.92607 0
M  V30 2497 C 232.288 -0.853099 -3.36659 0
M  V30 2498 C 231.242 -1.9161 -3.82713 0
M  V30 2499 C 230.568 -1.44773 -5.14728 0
M  V30 2500 C 231.868 -3.32535 -4.02763 0
M  V30 2501 H 233.562 -2.11237 -2.12177 0
M  V30 2502 H 231.108 -1.01699 -1.01948 0
M  V30 2503 H 233.061 -0.755165 -4.14578 0
M  V30 2504 H 231.785 0.120236 -3.26379 0
M  V30 2505 H 230.444 -2.00346 -3.07013 0
M  V30 2506 H 230.092 -0.462995 -5.00865 0
M  V30 2507 H 229.792 -2.15865 -5.46513 0
M  V30 2508 H 231.316 -1.36334 -5.95185 0
M  V30 2509 H 232.73 -3.26626 -4.71156 0
M  V30 2510 H 231.127 -4.01607 -4.45905 0
M  V30 2511 H 232.197 -3.75326 -3.07016 0
M  V30 2512 N 233.54 1.10788 -1.12088 0
M  V30 2513 C 234.473 2.16237 -0.729168 0
M  V30 2514 C 235.451 1.60207 0.277921 0
M  V30 2515 O 236.635 1.87707 0.172737 0
M  V30 2516 C 233.762 3.38609 -0.0786848 0
M  V30 2517 C 232.808 4.13322 -1.05201 0
M  V30 2518 S 233.641 4.69371 -2.57781 0
M  V30 2519 C 234.797 5.95058 -1.94053 0
M  V30 2520 H 235.03 2.4913 -1.62239 0
M  V30 2521 H 232.563 1.22519 -0.939603 0
M  V30 2522 H 234.521 4.09473 0.290254 0
M  V30 2523 H 233.182 3.03962 0.791593 0
M  V30 2524 H 232.375 5.01051 -0.544433 0
M  V30 2525 H 231.977 3.48251 -1.36371 0
M  V30 2526 H 234.269 6.65278 -1.28107 0
M  V30 2527 H 235.212 6.50472 -2.79807 0
M  V30 2528 H 235.62 5.46918 -1.39787 0
M  V30 2529 N 235.018 0.912232 1.28515 0
M  V30 2530 C 236.243 0.559774 1.99703 0
M  V30 2531 C 236.668 -0.851393 1.67729 0
M  V30 2532 O 236.026 -1.56875 0.908834 0
M  V30 2533 C 236.074 0.773874 3.52198 0
M  V30 2534 O 235.178 -0.167842 4.12058 0
M  V30 2535 H 234.519 0.21723 0.627461 0
M  V30 2536 H 237.049 1.22725 1.63706 0
M  V30 2537 H 237.059 0.683386 4.02236 0
M  V30 2538 H 235.734 1.80261 3.74805 0
M  V30 2539 H 234.311 -0.0287509 3.72889 0
M  V30 2540 N 236.496 -1.42363 0.676048 0
M  V30 2541 C 237.721 -2.06377 0.205705 0
M  V30 2542 C 238.146 -1.50463 -1.12883 0
M  V30 2543 O 237.504 -0.623619 -1.70237 0
M  V30 2544 C 237.552 -3.60277 0.152655 0
M  V30 2545 O 236.656 -4.02935 -0.87845 0
M  V30 2546 H 235.997 -0.655588 0.105359 0
M  V30 2547 H 238.527 -1.82475 0.925412 0
M  V30 2548 H 238.537 -4.07993 -0.0230675 0
M  V30 2549 H 237.212 -4.00346 1.12675 0
M  V30 2550 H 235.789 -3.66764 -0.673668 0
M  V30 2551 N 237.974 -0.419461 -1.51915 0
M  V30 2552 C 239.251 0.211999 -1.94448 0
M  V30 2553 C 239.631 1.61703 -1.35703 0
M  V30 2554 O 238.979 2.22102 -0.536931 0
M  V30 2555 C 239.189 0.207872 -3.4838 0
M  V30 2556 C 240.537 0.422192 -4.22496 0
M  V30 2557 O 241.561 0.286778 -3.55044 0
M  V30 2558 O 240.42 0.690009 -5.42126 0
M  V30 2559 H 237.514 0.139586 -0.815135 0
M  V30 2560 H 240.06 -0.476151 -1.62883 0
M  V30 2561 H 238.832 -0.775102 -3.83546 0
M  V30 2562 H 238.455 0.939688 -3.86336 0
M  V30 2563 N 239.452 1.56882 -0.150215 0
M  V30 2564 C 240.698 1.96518 0.500834 0
M  V30 2565 C 241.031 1.03527 1.64304 0
M  V30 2566 O 240.306 0.0782751 1.94342 0
M  V30 2567 C 240.589 3.45822 1.00395 0
M  V30 2568 C 240.442 4.49591 -0.136983 0
M  V30 2569 C 241.761 3.97704 1.88467 0
M  V30 2570 H 238.88 0.714535 0.18058 0
M  V30 2571 H 241.522 1.88577 -0.232091 0
M  V30 2572 H 239.672 3.5272 1.62851 0
M  V30 2573 H 241.344 4.5477 -0.77343 0
M  V30 2574 H 239.587 4.26441 -0.795652 0
M  V30 2575 H 240.258 5.51402 0.256815 0
M  V30 2576 H 242.734 3.93304 1.35834 0
M  V30 2577 H 241.61 5.0263 2.20578 0
M  V30 2578 H 241.871 3.40252 2.82279 0
M  V30 2579 N 240.93 -0.123565 1.57115 0
M  V30 2580 C 242.158 -0.846461 1.88793 0
M  V30 2581 C 242.573 -1.73652 0.740976 0
M  V30 2582 O 241.93 -1.80207 -0.288393 0
M  V30 2583 C 241.981 -1.6837 3.19897 0
M  V30 2584 O 241.702 -0.829477 4.30176 0
M  V30 2585 C 243.203 -2.51214 3.65248 0
M  V30 2586 H 240.423 -0.243573 0.625231 0
M  V30 2587 H 242.967 -0.109324 2.04208 0
M  V30 2588 H 241.122 -2.37364 3.06165 0
M  V30 2589 H 241.536 -1.40651 5.0529 0
M  V30 2590 H 243.01 -3.05497 4.59756 0
M  V30 2591 H 243.487 -3.28359 2.9168 0
M  V30 2592 H 244.093 -1.8747 3.81752 0
M  V30 2593 N 242.408 -1.52605 -0.393616 0
M  V30 2594 C 243.371 -1.76415 -1.46323 0
M  V30 2595 C 244.371 -0.634126 -1.47768 0
M  V30 2596 O 245.561 -0.902142 -1.4902 0
M  V30 2597 C 242.693 -1.8607 -2.85641 0
M  V30 2598 H 243.886 -2.71916 -1.26498 0
M  V30 2599 H 241.439 -1.43257 -0.625073 0
M  V30 2600 H 242.174 -0.925378 -3.10817 0
M  V30 2601 H 241.959 -2.68235 -2.85993 0
M  V30 2602 H 243.449 -2.06179 -3.63153 0
M  V30 2603 N 243.887 0.651787 -1.4349 0
M  V30 2604 C 245.133 1.41376 -1.45398 0
M  V30 2605 C 245.466 1.94041 -0.0784823 0
M  V30 2606 O 244.741 1.72379 0.900878 0
M  V30 2607 C 245.024 2.59414 -2.49752 0
M  V30 2608 C 244.877 2.12232 -3.96582 0
M  V30 2609 C 246.196 3.61626 -2.50827 0
M  V30 2610 H 243.315 0.512719 -0.529422 0
M  V30 2611 H 245.957 0.738796 -1.75048 0
M  V30 2612 H 244.107 3.16997 -2.246 0
M  V30 2613 H 245.779 1.59639 -4.32797 0
M  V30 2614 H 244.022 1.43592 -4.09346 0
M  V30 2615 H 244.693 2.9712 -4.65214 0
M  V30 2616 H 247.169 3.13805 -2.7325 0
M  V30 2617 H 246.045 4.41766 -3.25783 0
M  V30 2618 H 246.306 4.14314 -1.5426 0
M  V30 2619 N 245.365 1.30045 0.890287 0
M  V30 2620 C 246.312 1.15976 1.99545 0
M  V30 2621 C 247.282 0.0506202 1.66023 0
M  V30 2622 O 248.467 0.219847 1.89529 0
M  V30 2623 C 245.607 0.852054 3.34416 0
M  V30 2624 C 244.72 2.04255 3.80662 0
M  V30 2625 C 243.855 1.6734 5.04154 0
M  V30 2626 C 242.894 2.82916 5.42794 0
M  V30 2627 N 242.031 2.46333 6.57468 0
M  V30 2628 H 246.871 2.10524 2.10911 0
M  V30 2629 H 244.408 1.04749 1.03276 0
M  V30 2630 H 246.366 0.654296 4.12037 0
M  V30 2631 H 244.996 -0.0565502 3.2275 0
M  V30 2632 H 244.048 2.35172 2.98995 0
M  V30 2633 H 245.36 2.90826 4.05242 0
M  V30 2634 H 244.514 1.43908 5.89386 0
M  V30 2635 H 243.253 0.779308 4.81433 0
M  V30 2636 H 242.258 3.0702 4.56091 0
M  V30 2637 H 243.483 3.73004 5.6749 0
M  V30 2638 H 241.429 1.59423 6.36334 0
M  V30 2639 H 241.346 3.26436 6.81891 0
M  V30 2640 H 242.614 2.26244 7.45945 0
M  V30 2641 N 246.843 -1.10192 1.12674 0
M  V30 2642 C 248.12 -1.78717 0.794965 0
M  V30 2643 C 248.5 -1.98628 -0.714853 0
M  V30 2644 O 247.848 -1.58135 -1.64941 0
M  V30 2645 C 248.058 -3.11546 1.5729 0
M  V30 2646 C 249.406 -3.86382 1.76052 0
M  V30 2647 O 250.43 -3.21274 1.53823 0
M  V30 2648 O 249.289 -5.03246 2.13087 0
M  V30 2649 H 246.383 -0.774702 0.289423 0
M  V30 2650 H 248.929 -1.16819 1.23091 0
M  V30 2651 H 247.701 -2.92489 2.59935 0
M  V30 2652 H 247.324 -3.81164 1.13137 0
M  V30 2653 N 248.321 -0.919034 -1.28029 0
M  V30 2654 C 249.546 -0.570357 -1.99403 0
M  V30 2655 C 249.971 0.842486 -1.68178 0
M  V30 2656 O 249.329 1.56391 -0.917141 0
M  V30 2657 C 249.377 -0.792541 -3.51783 0
M  V30 2658 O 248.481 0.145988 -4.12142 0
M  V30 2659 H 247.822 -0.220555 -0.6263 0
M  V30 2660 H 250.352 -1.23592 -1.63053 0
M  V30 2661 H 250.362 -0.704708 -4.01868 0
M  V30 2662 H 249.037 -1.82247 -3.73844 0
M  V30 2663 H 247.614 0.00897528 -3.72899 0
M  V30 2664 N 249.799 1.42003 -0.683588 0
M  V30 2665 C 251.046 2.01413 -0.209514 0
M  V30 2666 C 251.374 1.54088 1.1869 0
M  V30 2667 O 250.629 0.737591 1.81268 0
M  V30 2668 C 250.928 3.56827 -0.202357 0
M  V30 2669 C 250.594 4.23617 -1.54464 0
M  V30 2670 C 249.256 4.41577 -1.91215 0
M  V30 2671 C 251.608 4.61178 -2.42826 0
M  V30 2672 C 248.936 4.9437 -3.15935 0
M  V30 2673 C 251.288 5.15355 -3.66867 0
M  V30 2674 C 249.952 5.31528 -4.03776 0
M  V30 2675 H 249.222 0.737023 -0.0766668 0
M  V30 2676 H 251.869 1.70067 -0.880312 0
M  V30 2677 H 250.174 3.87892 0.551969 0
M  V30 2678 H 251.871 4.00588 0.181793 0
M  V30 2679 H 248.461 4.10004 -1.24877 0
M  V30 2680 H 252.645 4.46968 -2.15717 0
M  V30 2681 H 247.901 5.05076 -3.44541 0
M  V30 2682 H 252.075 5.43402 -4.35531 0
M  V30 2683 H 249.702 5.72199 -5.00492 0
M  V30 2684 N 251.277 0.427512 1.51691 0
M  V30 2685 C 252.187 -0.39527 2.31246 0
M  V30 2686 C 253.203 -1.03674 1.39742 0
M  V30 2687 O 254.379 -1.03425 1.72816 0
M  V30 2688 C 251.444 -1.48706 3.13189 0
M  V30 2689 C 250.505 -0.866743 4.20459 0
M  V30 2690 C 249.738 -1.90651 4.98486 0
M  V30 2691 O 249.961 -3.12733 4.77026 0
M  V30 2692 O 248.895 -1.5025 5.82845 0
M  V30 2693 H 252.721 0.253918 3.02637 0
M  V30 2694 H 250.306 0.190274 1.48183 0
M  V30 2695 H 252.188 -2.12047 3.64162 0
M  V30 2696 H 250.863 -2.12051 2.44573 0
M  V30 2697 H 249.77 -0.195544 3.73589 0
M  V30 2698 H 251.103 -0.276934 4.9142 0
M  V30 2699 N 252.755 -1.56801 0.158532 0
M  V30 2700 C 254.171 -1.5837 -0.197774 0
M  V30 2701 C 254.371 -1.17334 -1.63814 0
M  V30 2702 O 253.427 -0.878988 -2.36707 0
M  V30 2703 C 254.74 -3.00615 0.0714459 0
M  V30 2704 C 256.288 -3.12999 0.00864533 0
M  V30 2705 C 256.763 -4.57313 0.250685 0
M  V30 2706 N 258.254 -4.62777 0.198014 0
M  V30 2707 C 258.989 -5.72271 0.359642 0
M  V30 2708 N 258.485 -6.90371 0.579625 0
M  V30 2709 N 260.278 -5.61318 0.296438 0
M  V30 2710 H 252.429 -1.81765 1.09887 0
M  V30 2711 H 254.692 -0.841849 0.435884 0
M  V30 2712 H 254.398 -3.35068 1.06874 0
M  V30 2713 H 254.272 -3.71683 -0.642757 0
M  V30 2714 H 256.659 -2.7838 -0.979217 0
M  V30 2715 H 256.74 -2.44393 0.755359 0
M  V30 2716 H 256.384 -4.92639 1.2357 0
M  V30 2717 H 256.314 -5.24061 -0.516489 0
M  V30 2718 H 258.805 -3.77885 0.0331115 0
M  V30 2719 H 259.118 -7.69689 0.69275 0
M  V30 2720 H 257.463 -6.92264 0.616087 0
M  V30 2721 H 260.654 -4.67932 0.125258 0
M  V30 2722 H 260.827 -6.46599 0.425831 0
M  V30 2723 N 254.233 0.115231 -1.57178 0
M  V30 2724 C 255.183 1.14707 -1.97044 0
M  V30 2725 C 256.167 1.36866 -0.845957 0
M  V30 2726 O 257.359 1.37895 -1.10968 0
M  V30 2727 C 254.488 2.47266 -2.38148 0
M  V30 2728 C 253.574 2.28566 -3.57237 0
M  V30 2729 N 253.965 1.79685 -4.72807 0
M  V30 2730 C 252.263 2.59208 -3.62943 0
M  V30 2731 C 252.964 1.74781 -5.54821 0
M  V30 2732 N 251.94 2.19264 -4.97417 0
M  V30 2733 H 255.742 0.761754 -2.83857 0
M  V30 2734 H 253.256 0.322928 -1.59157 0
M  V30 2735 H 255.253 3.219 -2.64927 0
M  V30 2736 H 253.913 2.86552 -1.52702 0
M  V30 2737 H 254.924 1.49177 -4.9595 0
M  V30 2738 H 251.601 3.02154 -2.88113 0
M  V30 2739 H 252.991 1.38212 -6.57531 0
M  V30 2740 N 255.711 1.52812 0.385517 0
M  V30 2741 C 256.641 1.80808 1.47752 0
M  V30 2742 C 257.622 0.660318 1.5676 0
M  V30 2743 O 258.807 0.908246 1.71652 0
M  V30 2744 C 255.937 1.98008 2.85324 0
M  V30 2745 C 254.891 3.13709 2.91154 0
M  V30 2746 C 254.217 3.16169 4.31209 0
M  V30 2747 C 255.517 4.52709 2.60483 0
M  V30 2748 H 257.211 2.72253 1.24573 0
M  V30 2749 H 254.757 1.31003 0.597839 0
M  V30 2750 H 256.71 2.16176 3.61726 0
M  V30 2751 H 255.434 1.03255 3.09848 0
M  V30 2752 H 254.093 2.95329 2.17201 0
M  V30 2753 H 253.741 2.19092 4.52778 0
M  V30 2754 H 253.441 3.93894 4.36029 0
M  V30 2755 H 254.965 3.36496 5.09512 0
M  V30 2756 H 256.379 4.71173 3.26602 0
M  V30 2757 H 254.776 5.32528 2.76648 0
M  V30 2758 H 255.846 4.59186 1.55809 0
M  V30 2759 N 257.189 -0.644168 1.43834 0
M  V30 2760 C 258.437 -1.40117 1.45642 0
M  V30 2761 C 258.758 -1.94814 0.0852413 0
M  V30 2762 O 258.028 -1.74988 -0.880688 0
M  V30 2763 H 256.608 -0.52005 0.536243 0
M  V30 2764 H 259.27 -0.7591 1.7951 0
M  V30 2765 H 258.366 -2.23902 2.17427 0
M  V30 2766 N 258.668 -1.30515 -0.883378 0
M  V30 2767 C 259.915 -1.1943 -1.63532 0
M  V30 2768 C 260.243 0.250627 -1.92878 0
M  V30 2769 O 259.498 1.19556 -1.54935 0
M  V30 2770 C 259.797 -1.96994 -2.98209 0
M  V30 2771 C 259.463 -3.466 -2.88408 0
M  V30 2772 C 258.125 -3.87397 -2.85442 0
M  V30 2773 C 260.477 -4.41863 -2.76418 0
M  V30 2774 C 257.805 -5.21745 -2.68327 0
M  V30 2775 C 260.157 -5.7632 -2.60841 0
M  V30 2776 C 258.821 -6.16354 -2.56251 0
M  V30 2777 H 258.091 -0.437025 -0.598406 0
M  V30 2778 H 260.738 -1.61635 -1.02696 0
M  V30 2779 H 259.043 -1.47429 -3.63004 0
M  V30 2780 H 260.74 -1.85808 -3.55354 0
M  V30 2781 H 257.33 -3.14182 -2.91527 0
M  V30 2782 H 261.514 -4.11285 -2.77775 0
M  V30 2783 H 256.77 -5.51853 -2.63189 0
M  V30 2784 H 260.944 -6.49772 -2.50538 0
M  V30 2785 H 258.571 -7.20401 -2.42748 0
M  V30 2786 N 260.146 1.09593 -1.13257 0
M  V30 2787 C 261.562 1.33775 -0.870423 0
M  V30 2788 C 261.762 1.95327 0.494926 0
M  V30 2789 O 260.818 2.19853 1.2418 0
M  V30 2790 C 262.131 2.25106 -1.99369 0
M  V30 2791 C 263.679 2.3862 -2.02558 0
M  V30 2792 C 264.154 3.33285 -3.14142 0
M  V30 2793 N 265.645 3.40857 -3.13641 0
M  V30 2794 C 266.38 4.14101 -3.96621 0
M  V30 2795 N 265.876 4.90157 -4.8961 0
M  V30 2796 N 267.669 4.09808 -3.84726 0
M  V30 2797 H 259.82 0.680136 -2.01216 0
M  V30 2798 H 262.083 0.362133 -0.876107 0
M  V30 2799 H 261.789 1.87103 -2.97801 0
M  V30 2800 H 261.663 3.25481 -1.90635 0
M  V30 2801 H 264.05 2.75887 -1.0474 0
M  V30 2802 H 264.131 1.38028 -2.15364 0
M  V30 2803 H 263.775 2.96741 -4.12198 0
M  V30 2804 H 263.705 4.33776 -2.98574 0
M  V30 2805 H 266.196 2.86624 -2.46282 0
M  V30 2806 H 266.509 5.4347 -5.49418 0
M  V30 2807 H 264.854 4.89251 -4.93617 0
M  V30 2808 H 268.045 3.4949 -3.11408 0
M  V30 2809 H 268.218 4.66629 -4.49623 0
M  V30 2810 N 261.624 0.925811 1.2754 0
M  V30 2811 C 262.852 0.581509 1.9856 0
M  V30 2812 C 263.267 -0.840041 1.69082 0
M  V30 2813 O 262.624 -1.55805 0.950312 0
M  V30 2814 C 262.675 0.795589 3.52637 0
M  V30 2815 O 262.396 2.16121 3.81082 0
M  V30 2816 C 263.897 0.459744 4.4091 0
M  V30 2817 H 261.117 0.220538 0.633722 0
M  V30 2818 H 263.661 1.24232 1.6244 0
M  V30 2819 H 261.816 0.18161 3.86974 0
M  V30 2820 H 262.23 2.2098 4.75676 0
M  V30 2821 H 263.704 0.660244 5.48037 0
M  V30 2822 H 264.181 -0.604625 4.35018 0
M  V30 2823 H 264.787 1.05178 4.12089 0
M  V30 2824 N 263.102 -1.41638 0.69111 0
M  V30 2825 C 264.33 -2.05628 0.22909 0
M  V30 2826 C 264.745 -1.51992 -1.11999 0
M  V30 2827 O 264.102 -0.666322 -1.69901 0
M  V30 2828 C 264.153 -3.61084 0.173283 0
M  V30 2829 O 263.874 -4.12735 1.46907 0
M  V30 2830 C 265.375 -4.42213 -0.310266 0
M  V30 2831 H 262.595 -0.662327 0.107534 0
M  V30 2832 H 265.139 -1.81489 0.942438 0
M  V30 2833 H 263.294 -3.84278 -0.490858 0
M  V30 2834 H 263.708 -5.06743 1.35322 0
M  V30 2835 H 265.182 -5.51194 -0.298196 0
M  V30 2836 H 265.659 -4.1799 -1.34838 0
M  V30 2837 H 266.265 -4.24074 0.322716 0
M  V30 2838 N 264.58 -0.43555 -1.51462 0
M  V30 2839 C 265.49 0.383001 -2.31453 0
M  V30 2840 C 266.506 1.02931 -1.4029 0
M  V30 2841 O 267.682 1.02507 -1.73362 0
M  V30 2842 C 264.747 1.47043 -3.13973 0
M  V30 2843 C 263.808 0.844433 -4.20913 0
M  V30 2844 C 263.041 1.88004 -4.9949 0
M  V30 2845 O 263.264 3.10199 -4.78678 0
M  V30 2846 O 262.198 1.47157 -5.83634 0
M  V30 2847 H 266.024 -0.269964 -3.02498 0
M  V30 2848 H 263.609 -0.19813 -1.4808 0
M  V30 2849 H 265.491 2.10113 -3.65281 0
M  V30 2850 H 264.166 2.10751 -2.45695 0
M  V30 2851 H 263.073 0.175729 -3.73687 0
M  V30 2852 H 264.406 0.250869 -4.9156 0
M  V30 2853 N 266.058 1.56714 -0.166846 0
M  V30 2854 C 267.474 1.58473 0.189372 0
M  V30 2855 C 267.674 1.18201 1.63189 0
M  V30 2856 O 266.73 0.891528 2.36237 0
M  V30 2857 C 268.043 3.00573 -0.0873872 0
M  V30 2858 C 269.591 3.1299 -0.0252443 0
M  V30 2859 C 270.066 4.57174 -0.274934 0
M  V30 2860 N 271.557 4.62665 -0.222553 0
M  V30 2861 C 272.292 5.72072 -0.389985 0
M  V30 2862 N 271.788 6.90054 -0.616229 0
M  V30 2863 N 273.581 5.61153 -0.326202 0
M  V30 2864 H 265.732 1.8118 -1.10849 0
M  V30 2865 H 267.995 0.839525 -0.440342 0
M  V30 2866 H 267.701 3.34497 -1.0865 0
M  V30 2867 H 267.575 3.72019 0.623037 0
M  V30 2868 H 269.962 2.78895 0.96444 0
M  V30 2869 H 270.043 2.43989 -0.768309 0
M  V30 2870 H 269.687 4.91976 -1.26181 0
M  V30 2871 H 269.617 5.24328 0.48869 0
M  V30 2872 H 272.108 3.77863 -0.0531512 0
M  V30 2873 H 272.421 7.69311 -0.733559 0
M  V30 2874 H 270.766 6.91927 -0.652791 0
M  V30 2875 H 273.957 4.67859 -0.150072 0
M  V30 2876 H 274.13 6.46364 -0.460116 0
M  V30 2877 N 267.536 -0.106894 1.57237 0
M  V30 2878 C 268.782 -0.81373 1.85759 0
M  V30 2879 C 269.115 -1.78952 0.754315 0
M  V30 2880 O 268.39 -1.93029 -0.23879 0
M  V30 2881 C 268.673 -1.55293 3.24894 0
M  V30 2882 C 268.526 -0.595929 4.45835 0
M  V30 2883 C 269.845 -2.5063 3.61763 0
M  V30 2884 H 266.964 -0.294369 0.67566 0
M  V30 2885 H 269.606 -0.0776472 1.89841 0
M  V30 2886 H 267.756 -2.1804 3.21544 0
M  V30 2887 H 269.428 0.0236262 4.61294 0
M  V30 2888 H 267.671 0.0916191 4.33703 0
M  V30 2889 H 268.342 -1.15004 5.39887 0
M  V30 2890 H 270.818 -1.97982 3.65981 0
M  V30 2891 H 269.694 -2.99376 4.60071 0
M  V30 2892 H 269.955 -3.3385 2.89821 0
M  V30 2893 N 269.014 -1.53014 -0.377408 0
M  V30 2894 C 270.26 -1.68872 -1.12294 0
M  V30 2895 C 270.593 -0.433224 -1.89306 0
M  V30 2896 O 269.868 0.569258 -1.85983 0
M  V30 2897 C 270.151 -2.93115 -2.09179 0
M  V30 2898 C 270.004 -4.28794 -1.35853 0
M  V30 2899 C 271.323 -3.12928 -3.09458 0
M  V30 2900 H 268.442 -0.614518 -0.406862 0
M  V30 2901 H 271.084 -1.85633 -0.40503 0
M  V30 2902 H 269.234 -2.78956 -2.70399 0
M  V30 2903 H 270.906 -4.54742 -0.775082 0
M  V30 2904 H 269.149 -4.28744 -0.660364 0
M  V30 2905 H 269.82 -5.11837 -2.06706 0
M  V30 2906 H 272.296 -3.26194 -2.58334 0
M  V30 2907 H 271.172 -4.01316 -3.74482 0
M  V30 2908 H 271.433 -2.27669 -3.78971 0
M  V30 2909 N 270.492 0.636531 -1.44174 0
M  V30 2910 C 271.769 1.39463 -1.37148 0
M  V30 2911 C 272.149 2.11082 -0.027507 0
M  V30 2912 O 271.497 2.05954 0.989716 0
M  V30 2913 C 271.707 2.36552 -2.56601 0
M  V30 2914 C 273.055 3.00048 -3.00427 0
M  V30 2915 O 274.079 2.46878 -2.56767 0
M  V30 2916 O 272.938 3.96488 -3.76111 0
M  V30 2917 H 270.032 0.623903 -0.542839 0
M  V30 2918 H 272.578 0.662039 -1.56253 0
M  V30 2919 H 271.35 1.82692 -3.46034 0
M  V30 2920 H 270.973 3.17236 -2.39681 0
M  V30 2921 N 271.97 1.30982 0.876444 0
M  V30 2922 C 273.218 1.20058 1.62575 0
M  V30 2923 C 273.539 -0.242947 1.93481 0
M  V30 2924 O 272.809 -1.1619 1.57724 0
M  V30 2925 H 271.389 0.44135 0.602677 0
M  V30 2926 H 274.051 1.64222 1.04962 0
M  V30 2927 H 273.147 1.76762 2.57219 0
M  V30 2928 N 273.449 -1.08991 1.13837 0
M  V30 2929 C 274.397 -2.17841 0.815347 0
M  V30 2930 C 275.391 -1.68164 -0.204233 0
M  V30 2931 O 276.597 -1.79897 -0.0609304 0
M  V30 2932 H 272.972 -0.710654 0.245915 0
M  V30 2933 H 274.943 -2.42315 1.74143 0
M  V30 2934 C 273.692 -3.46381 0.302614 0
M  V30 2935 H 273.015 -3.84979 1.0785 0
M  V30 2936 H 274.455 -4.23844 0.115074 0
M  V30 2937 C 272.914 -3.22556 -0.972591 0
M  V30 2938 O 273.444 -3.45599 -2.04754 0
M  V30 2939 N 271.65 -2.76134 -0.905455 0
M  V30 2940 H 271.197 -2.57582 -0.0305421 0
M  V30 2941 H 271.155 -2.60571 -1.75926 0
M  V30 2942 N 274.927 -0.932562 -1.27047 0
M  V30 2943 C 276.173 -0.576412 -1.94436 0
M  V30 2944 C 276.506 0.880891 -1.73072 0
M  V30 2945 O 275.781 1.62905 -1.06264 0
M  V30 2946 C 276.064 -0.909031 -3.48437 0
M  V30 2947 C 275.917 -2.42044 -3.79123 0
M  V30 2948 C 277.236 -0.418341 -4.38107 0
M  V30 2949 H 274.355 -0.210888 -0.706184 0
M  V30 2950 H 276.997 -1.16522 -1.50075 0
M  V30 2951 H 275.147 -0.407947 -3.86352 0
M  V30 2952 H 276.819 -2.99359 -3.50973 0
M  V30 2953 H 275.062 -2.86758 -3.25503 0
M  V30 2954 H 275.733 -2.6037 -4.86736 0
M  V30 2955 H 278.209 -0.847856 -4.0737 0
M  V30 2956 H 277.085 -0.679981 -5.44672 0
M  V30 2957 H 277.346 0.681642 -4.36814 0
M  V30 2958 N 276.405 1.4127 -0.698611 0
M  V30 2959 C 277.315 2.34573 -0.0357891 0
M  V30 2960 C 278.331 1.56393 0.762701 0
M  V30 2961 O 279.507 1.8886 0.699564 0
M  V30 2962 C 276.572 3.35159 0.887089 0
M  V30 2963 C 275.633 4.29225 0.0804634 0
M  V30 2964 C 274.866 5.25006 0.959387 0
M  V30 2965 O 275.089 5.26314 2.19886 0
M  V30 2966 O 274.023 6.00519 0.407439 0
M  V30 2967 H 277.849 2.92838 -0.804957 0
M  V30 2968 H 275.434 1.42175 -0.458966 0
M  V30 2969 H 277.316 3.9689 1.41621 0
M  V30 2970 H 275.991 2.79333 1.6357 0
M  V30 2971 H 274.898 3.70833 -0.493328 0
M  V30 2972 H 276.231 4.88157 -0.629547 0
M  V30 2973 N 277.883 0.443576 1.51229 0
M  V30 2974 C 279.132 -0.122332 2.01329 0
M  V30 2975 C 279.445 -1.43237 1.33201 0
M  V30 2976 O 280.651 -2.0816 1.74304 0
M  V30 2977 C 279.107 -0.268551 3.58897 0
M  V30 2978 C 278.715 1.03142 4.35965 0
M  V30 2979 C 280.459 -0.787894 4.17124 0
M  V30 2980 C 278.366 0.850504 5.85252 0
M  V30 2981 H 277.296 -0.0494929 0.752374 0
M  V30 2982 H 279.947 0.574289 1.74282 0
M  V30 2983 H 278.329 -1.02832 3.82415 0
M  V30 2984 H 279.503 1.80001 4.24189 0
M  V30 2985 H 277.818 1.47977 3.89219 0
M  V30 2986 H 280.415 -0.939841 5.26375 0
M  V30 2987 H 280.758 -1.77201 3.76703 0
M  V30 2988 H 281.291 -0.0862669 3.97706 0
M  V30 2989 H 278.03 1.80718 6.30096 0
M  V30 2990 H 277.55 0.121825 5.99676 0
M  V30 2991 H 279.229 0.506163 6.45017 0
M  V30 2992 N 279.361 -1.56624 0.175154 0
M  V30 2993 C 280.609 -1.96609 -0.467885 0
M  V30 2994 C 280.93 -1.06238 -1.63519 0
M  V30 2995 O 280.2 -0.129523 -1.95471 0
M  V30 2996 H 278.78 -0.726008 -0.175845 0
M  V30 2997 H 281.442 -1.93195 0.257234 0
M  V30 2998 H 280.538 -3.00989 -0.825342 0
M  V30 2999 N 280.839 0.0985539 -1.57292 0
M  V30 3000 C 281.802 1.10402 -2.00858 0
M  V30 3001 C 282.802 1.33146 -0.901593 0
M  V30 3002 O 283.992 1.29318 -1.16716 0
M  V30 3003 C 281.124 2.45394 -2.36632 0
M  V30 3004 H 282.317 0.729099 -2.90902 0
M  V30 3005 H 279.87 0.343495 -1.52479 0
M  V30 3006 H 280.605 2.87769 -1.49531 0
M  V30 3007 H 280.39 2.30235 -3.17387 0
M  V30 3008 H 281.88 3.17718 -2.71007 0
M  V30 3009 N 282.317 1.53212 0.369288 0
M  V30 3010 C 283.563 1.70413 1.11046 0
M  V30 3011 C 283.918 0.448509 1.87099 0
M  V30 3012 O 283.211 -0.558382 1.83283 0
M  V30 3013 C 283.405 2.89101 2.10132 0
M  V30 3014 C 283.234 4.26084 1.43814 0
M  V30 3015 C 282.004 4.90994 1.19384 0
M  V30 3016 C 284.202 5.06754 0.877802 0
M  V30 3017 N 282.184 6.11911 0.49377 0
M  V30 3018 C 283.555 6.1924 0.306891 0
M  V30 3019 C 285.61 4.91814 0.776129 0
M  V30 3020 C 284.313 7.1842 -0.355774 0
M  V30 3021 C 286.339 5.91263 0.127252 0
M  V30 3022 C 285.701 7.03069 -0.432801 0
M  V30 3023 H 281.8 0.676872 0.391623 0
M  V30 3024 H 284.384 1.90603 0.397334 0
M  V30 3025 H 282.555 2.70456 2.78761 0
M  V30 3026 H 284.287 2.95142 2.76899 0
M  V30 3027 H 281.042 4.50074 1.47413 0
M  V30 3028 H 281.466 6.76813 0.159207 0
M  V30 3029 H 286.108 4.05564 1.19489 0
M  V30 3030 H 283.826 8.04264 -0.786499 0
M  V30 3031 H 287.412 5.81779 0.0495613 0
M  V30 3032 H 286.292 7.78702 -0.926958 0
M  V30 3033 N 283.795 -0.628877 1.44509 0
M  V30 3034 C 284.728 -1.75367 1.46019 0
M  V30 3035 C 285.706 -1.59444 0.318787 0
M  V30 3036 O 286.89 -1.81297 0.516099 0
M  V30 3037 C 284.017 -3.12965 1.29501 0
M  V30 3038 C 283.063 -3.47532 2.47233 0
M  V30 3039 S 283.896 -3.44758 4.09758 0
M  V30 3040 C 285.052 -4.84973 3.95667 0
M  V30 3041 H 285.285 -1.7382 2.41193 0
M  V30 3042 H 282.818 -0.803686 1.31834 0
M  V30 3043 H 284.776 -3.92367 1.20658 0
M  V30 3044 H 283.437 -3.12049 0.358341 0
M  V30 3045 H 282.63 -4.47664 2.31544 0
M  V30 3046 H 282.232 -2.75598 2.52828 0
M  V30 3047 H 284.524 -5.74255 3.59496 0
M  V30 3048 H 285.467 -5.05716 4.95638 0
M  V30 3049 H 285.875 -4.59653 3.27688 0
M  V30 3050 N 285.273 -1.31445 -0.869486 0
M  V30 3051 C 286.498 -1.24256 -1.66058 0
M  V30 3052 C 286.923 0.188928 -1.87149 0
M  V30 3053 O 286.281 1.13522 -1.4136 0
M  V30 3054 C 286.329 -1.9924 -3.00559 0
M  V30 3055 O 285.433 -1.33007 -3.90362 0
M  V30 3056 H 284.774 -0.428973 -0.506831 0
M  V30 3057 H 287.304 -1.73521 -1.08404 0
M  V30 3058 H 287.314 -2.08854 -3.50491 0
M  V30 3059 H 285.989 -3.03342 -2.84528 0
M  V30 3060 H 284.566 -1.31848 -3.48813 0
M  V30 3061 N 286.751 1.08385 -1.14413 0
M  V30 3062 C 287.976 1.85057 -0.936413 0
M  V30 3063 C 288.401 1.81055 0.509971 0
M  V30 3064 O 287.759 1.1958 1.36273 0
M  V30 3065 C 287.807 3.30505 -1.44217 0
M  V30 3066 O 286.911 4.07491 -0.634409 0
M  V30 3067 H 286.252 0.573425 -0.334784 0
M  V30 3068 H 288.782 1.36799 -1.52142 0
M  V30 3069 H 288.792 3.81348 -1.45043 0
M  V30 3070 H 287.467 3.32734 -2.49522 0
M  V30 3071 H 286.044 3.66368 -0.694902 0
M  V30 3072 N 288.23 0.939286 1.26551 0
M  V30 3073 C 289.178 0.43815 2.28436 0
M  V30 3074 C 290.172 -0.483587 1.62351 0
M  V30 3075 O 291.378 -0.362009 1.76322 0
M  V30 3076 H 287.753 0.123149 0.741848 0
M  V30 3077 H 289.724 1.31002 2.68106 0
M  V30 3078 C 288.473 -0.283052 3.46546 0
M  V30 3079 H 287.796 0.417043 3.97619 0
M  V30 3080 H 289.236 -0.597948 4.19763 0
M  V30 3081 C 287.695 -1.50018 3.01656 0
M  V30 3082 O 288.225 -2.59855 3.0633 0
M  V30 3083 N 286.431 -1.35608 2.57019 0
M  V30 3084 H 285.978 -0.46244 2.53415 0
M  V30 3085 H 285.936 -2.17165 2.27347 0
M  V30 3086 N 289.708 -1.40897 0.706093 0
M  V30 3087 C 290.638 -2.33418 0.0620085 0
M  V30 3088 C 291.619 -1.52385 -0.755827 0
M  V30 3089 O 292.804 -1.80886 -0.706674 0
M  V30 3090 C 289.934 -3.36293 -0.867445 0
M  V30 3091 C 288.888 -4.27716 -0.155932 0
M  V30 3092 C 288.214 -5.2105 -1.20046 0
M  V30 3093 C 289.514 -5.12944 0.984149 0
M  V30 3094 H 291.208 -2.87527 0.83477 0
M  V30 3095 H 288.754 -1.38249 0.402875 0
M  V30 3096 H 290.707 -3.99949 -1.32735 0
M  V30 3097 H 289.431 -2.80556 -1.67199 0
M  V30 3098 H 288.09 -3.65498 0.284047 0
M  V30 3099 H 287.738 -4.61624 -1.99781 0
M  V30 3100 H 287.438 -5.83056 -0.729328 0
M  V30 3101 H 288.962 -5.87584 -1.66066 0
M  V30 3102 H 290.376 -5.70109 0.604048 0
M  V30 3103 H 288.773 -5.83945 1.38304 0
M  V30 3104 H 289.843 -4.49485 1.81911 0
M  V30 3105 N 291.186 -0.45159 -1.50991 0
M  V30 3106 C 292.116 0.342898 -2.30969 0
M  V30 3107 C 293.097 1.00815 -1.37005 0
M  V30 3108 O 294.282 1.00907 -1.65926 0
M  V30 3109 C 291.412 1.43637 -3.16205 0
M  V30 3110 C 290.366 0.893818 -4.18563 0
M  V30 3111 C 289.692 2.08411 -4.92411 0
M  V30 3112 C 290.992 -0.0815568 -5.22236 0
M  V30 3113 H 292.686 -0.324556 -2.97636 0
M  V30 3114 H 290.232 -0.157531 -1.43136 0
M  V30 3115 H 292.185 1.9995 -3.70942 0
M  V30 3116 H 290.909 2.13232 -2.47386 0
M  V30 3117 H 289.568 0.352798 -3.64898 0
M  V30 3118 H 289.216 2.76658 -4.20082 0
M  V30 3119 H 288.916 1.72741 -5.61636 0
M  V30 3120 H 290.44 2.65251 -5.49976 0
M  V30 3121 H 291.854 0.391742 -5.7196 0
M  V30 3122 H 290.251 -0.351551 -5.99069 0
M  V30 3123 H 291.321 -1.01374 -4.74185 0
M  V30 3124 N 292.664 1.56529 -0.183458 0
M  V30 3125 C 293.912 1.96855 0.457452 0
M  V30 3126 C 294.233 1.07104 1.62953 0
M  V30 3127 O 293.503 0.139887 1.954 0
M  V30 3128 H 292.083 0.72693 0.171992 0
M  V30 3129 H 294.745 1.93056 -0.267476 0
M  V30 3130 H 293.841 3.01423 0.809368 0
M  V30 3131 N 294.142 -0.090211 1.57342 0
M  V30 3132 C 295.092 -1.11557 1.98844 0
M  V30 3133 C 296.076 -1.35503 0.867624 0
M  V30 3134 O 297.268 -1.36113 1.13148 0
M  V30 3135 C 294.397 -2.43446 2.42051 0
M  V30 3136 C 293.483 -2.22853 3.60828 0
M  V30 3137 N 293.874 -1.72141 4.75606 0
M  V30 3138 C 292.172 -2.53401 3.67021 0
M  V30 3139 C 292.873 -1.65932 5.57531 0
M  V30 3140 N 291.849 -2.11323 5.00843 0
M  V30 3141 H 295.651 -0.716499 2.85032 0
M  V30 3142 H 293.165 -0.297567 1.59651 0
M  V30 3143 H 295.162 -3.17644 2.70014 0
M  V30 3144 H 293.822 -2.84087 1.57241 0
M  V30 3145 H 294.833 -1.41268 4.98261 0
M  V30 3146 H 291.51 -2.97532 2.92884 0
M  V30 3147 H 292.9 -1.27733 6.59647 0
M  V30 3148 N 295.62 -1.53406 -0.361157 0
M  V30 3149 C 296.53 -1.83122 -1.4664 0
M  V30 3150 C 297.546 -0.719943 -1.58407 0
M  V30 3151 O 298.722 -1.01046 -1.74218 0
M  V30 3152 C 295.787 -2.01891 -2.81853 0
M  V30 3153 C 294.848 -3.25784 -2.79577 0
M  V30 3154 C 294.081 -3.43648 -4.0834 0
M  V30 3155 O 294.304 -2.65714 -5.0473 0
M  V30 3156 O 293.238 -4.37018 -4.13883 0
M  V30 3157 H 297.064 -2.7703 -1.24451 0
M  V30 3158 H 294.649 -1.38841 -0.551678 0
M  V30 3159 H 296.531 -2.15782 -3.61962 0
M  V30 3160 H 295.206 -1.11173 -3.0401 0
M  V30 3161 H 294.113 -3.17312 -1.98151 0
M  V30 3162 H 295.446 -4.16439 -2.62373 0
M  V30 3163 N 297.098 0.621204 -1.44841 0
M  V30 3164 C 298.344 1.3826 -1.48365 0
M  V30 3165 C 298.677 1.93831 -0.119624 0
M  V30 3166 O 297.952 1.74251 0.864111 0
M  V30 3167 C 298.235 2.54058 -2.55199 0
M  V30 3168 C 298.088 2.03772 -4.00995 0
M  V30 3169 C 299.407 3.56225 -2.58442 0
M  V30 3170 H 296.526 0.501374 -0.540179 0
M  V30 3171 H 299.168 0.7015 -1.76576 0
M  V30 3172 H 297.318 3.12162 -2.31274 0
M  V30 3173 H 298.99 1.50423 -4.36086 0
M  V30 3174 H 297.233 1.34876 -4.12299 0
M  V30 3175 H 297.904 2.87185 -4.71411 0
M  V30 3176 H 300.38 3.07939 -2.79844 0
M  V30 3177 H 299.256 4.34756 -3.3508 0
M  V30 3178 H 299.517 4.10949 -1.63013 0
M  V30 3179 N 298.576 1.31904 0.862503 0
M  V30 3180 C 299.539 1.20131 1.95195 0
M  V30 3181 C 300.539 0.126409 1.60302 0
M  V30 3182 O 301.729 0.376234 1.70089 0
M  V30 3183 C 298.861 0.845691 3.30244 0
M  V30 3184 H 300.054 2.16943 2.07064 0
M  V30 3185 H 297.607 1.15622 1.05172 0
M  V30 3186 H 298.342 -0.120957 3.24074 0
M  V30 3187 H 298.127 1.62276 3.56944 0
M  V30 3188 H 299.617 0.787418 4.10109 0
M  V30 3189 N 300.054 -1.07777 1.14986 0
M  V30 3190 C 301.294 -1.81888 0.932527 0
M  V30 3191 C 301.658 -1.84509 -0.531064 0
M  V30 3192 O 302.859 -2.54448 -0.866577 0
M  V30 3193 C 301.13 -3.23244 1.52473 0
M  V30 3194 S 302.689 -4.14154 1.44989 0
M  V30 3195 H 299.507 -0.626752 0.335712 0
M  V30 3196 H 302.109 -1.29503 1.46455 0
M  V30 3197 H 300.813 -3.18922 2.58296 0
M  V30 3198 H 300.344 -3.80704 0.991381 0
M  V30 3199 H 302.359 -4.94247 0.439799 0
M  V30 3200 N 301.532 -0.945985 -1.26051 0
M  V30 3201 C 302.465 -0.403619 -2.24602 0
M  V30 3202 C 303.443 0.510241 -1.54387 0
M  V30 3203 O 304.627 0.446593 -1.83133 0
M  V30 3204 C 301.754 0.419564 -3.36091 0
M  V30 3205 C 300.8 -0.433454 -4.24292 0
M  V30 3206 S 301.633 -1.86037 -5.02146 0
M  V30 3207 C 302.789 -1.04538 -6.17108 0
M  V30 3208 H 303.022 -1.23883 -2.7026 0
M  V30 3209 H 300.555 -0.749438 -1.34992 0
M  V30 3210 H 302.513 0.888595 -4.00767 0
M  V30 3211 H 301.174 1.22951 -2.89036 0
M  V30 3212 H 300.367 0.197486 -5.03613 0
M  V30 3213 H 299.969 -0.837357 -3.64506 0
M  V30 3214 H 302.261 -0.289923 -6.76879 0
M  V30 3215 H 303.204 -1.81222 -6.84518 0
M  V30 3216 H 303.612 -0.579319 -5.61519 0
M  V30 3217 N 303.011 1.40521 -0.713556 0
M  V30 3218 C 304.427 1.54839 -0.386907 0
M  V30 3219 C 304.627 1.68532 1.1045 0
M  V30 3220 O 303.683 1.67377 1.89053 0
M  V30 3221 C 304.996 2.77792 -1.15118 0
M  V30 3222 C 306.544 2.91607 -1.13729 0
M  V30 3223 C 307.019 4.1747 -1.88368 0
M  V30 3224 N 308.51 4.24466 -1.85427 0
M  V30 3225 C 309.245 5.20755 -2.40004 0
M  V30 3226 N 308.741 6.22965 -3.03129 0
M  V30 3227 N 310.534 5.1282 -2.30158 0
M  V30 3228 H 302.685 1.29879 -1.68063 0
M  V30 3229 H 304.948 0.627896 -0.710247 0
M  V30 3230 H 304.654 2.73944 -2.20561 0
M  V30 3231 H 304.528 3.6984 -0.741477 0
M  V30 3232 H 306.915 2.94959 -0.0910608 0
M  V30 3233 H 306.996 2.00682 -1.5862 0
M  V30 3234 H 306.64 4.1488 -2.9298 0
M  V30 3235 H 306.57 5.074 -1.40898 0
M  V30 3236 H 309.061 3.51241 -1.3942 0
M  V30 3237 H 309.374 6.92859 -3.42295 0
M  V30 3238 H 307.719 6.23415 -3.07212 0
M  V30 3239 H 310.91 4.31899 -1.80501 0
M  V30 3240 H 311.083 5.87689 -2.72993 0
M  V30 3241 N 304.489 0.459591 1.5075 0
M  V30 3242 C 305.766 -0.160371 1.94941 0
M  V30 3243 C 306.146 -1.58048 1.39943 0
M  V30 3244 O 305.494 -2.206 0.595629 0
M  V30 3245 C 305.704 -0.115432 3.48809 0
M  V30 3246 C 307.052 -0.310026 4.23467 0
M  V30 3247 O 308.076 -0.192543 3.55679 0
M  V30 3248 O 306.935 -0.546031 5.43765 0
M  V30 3249 H 304.029 -0.117925 0.818549 0
M  V30 3250 H 306.575 0.519169 1.61563 0
M  V30 3251 H 305.347 0.87652 3.81357 0
M  V30 3252 H 304.97 -0.836928 3.88692 0
M  V30 3253 N 305.967 -1.56429 0.191757 0
M  V30 3254 C 306.9 -2.14829 -0.76967 0
M  V30 3255 C 307.878 -1.08405 -1.2119 0
M  V30 3256 O 309.062 -1.36498 -1.30002 0
M  V30 3257 C 306.189 -2.70446 -2.03903 0
M  V30 3258 C 305.235 -3.89428 -1.7392 0
M  V30 3259 S 306.068 -5.28048 -0.890265 0
M  V30 3260 C 307.224 -5.87085 -2.16984 0
M  V30 3261 H 307.457 -2.96042 -0.273204 0
M  V30 3262 H 304.99 -1.54383 -0.0231975 0
M  V30 3263 H 306.948 -3.03134 -2.76803 0
M  V30 3264 H 305.609 -1.89281 -2.50662 0
M  V30 3265 H 304.802 -4.26742 -2.68155 0
M  V30 3266 H 304.404 -3.57732 -1.09103 0
M  V30 3267 H 306.696 -6.01244 -3.12269 0
M  V30 3268 H 307.639 -6.83747 -1.84108 0
M  V30 3269 H 308.047 -5.15663 -2.29678 0
M  V30 3270 N 307.445 0.0818655 -1.57387 0
M  V30 3271 C 308.673 0.796108 -1.9097 0
M  V30 3272 C 309.088 1.71626 -0.786757 0
M  V30 3273 O 308.445 1.80908 0.240513 0
M  V30 3274 C 308.496 1.59829 -3.24248 0
M  V30 3275 O 308.217 0.715131 -4.32224 0
M  V30 3276 C 309.718 2.41442 -3.7178 0
M  V30 3277 H 306.938 0.22691 -0.631469 0
M  V30 3278 H 309.482 0.0551439 -2.04426 0
M  V30 3279 H 307.637 2.29163 -3.12351 0
M  V30 3280 H 308.051 1.27205 -5.08841 0
M  V30 3281 H 309.525 2.932 -4.67694 0
M  V30 3282 H 310.002 3.2051 -3.00283 0
M  V30 3283 H 310.608 1.77283 -3.86589 0
M  V30 3284 N 308.923 1.53595 0.353017 0
M  V30 3285 C 310.171 1.70049 1.09215 0
M  V30 3286 C 310.492 0.461406 1.89463 0
M  V30 3287 O 309.762 -0.524633 1.88744 0
M  V30 3288 H 308.342 0.626912 0.40619 0
M  V30 3289 H 311.004 1.90822 0.396585 0
M  V30 3290 H 310.1 2.56718 1.77488 0
M  V30 3291 N 310.401 -0.613514 1.45168 0
M  V30 3292 C 311.649 -1.36997 1.48581 0
M  V30 3293 C 311.97 -1.94589 0.126545 0
M  V30 3294 O 311.24 -1.76816 -0.843372 0
M  V30 3295 H 309.82 -0.508558 0.547154 0
M  V30 3296 H 312.482 -0.720853 1.81079 0
M  V30 3297 H 311.578 -2.1924 2.22127 0
M  V30 3298 N 311.879 -1.3236 -0.855495 0
M  V30 3299 C 312.829 -1.17809 -1.95205 0
M  V30 3300 C 313.813 -0.0852319 -1.60674 0
M  V30 3301 O 315.005 -0.311651 -1.74235 0
M  V30 3302 C 312.134 -0.902437 -3.31226 0
M  V30 3303 C 311.22 -2.03695 -3.7198 0
M  V30 3304 N 311.611 -3.28544 -3.84568 0
M  V30 3305 C 309.909 -1.93993 -4.016 0
M  V30 3306 C 310.61 -4.02847 -4.19629 0
M  V30 3307 N 309.586 -3.31138 -4.31102 0
M  V30 3308 H 313.388 -2.12462 -2.0307 0
M  V30 3309 H 310.902 -1.24127 -1.0472 0
M  V30 3310 H 312.899 -0.77915 -4.09554 0
M  V30 3311 H 311.559 0.0357267 -3.2468 0
M  V30 3312 H 312.57 -3.6349 -3.68911 0
M  V30 3313 H 309.247 -1.07733 -4.03361 0
M  V30 3314 H 310.637 -5.10506 -4.36845 0
M  V30 3315 N 313.357 1.07166 -1.15556 0
M  V30 3316 C 314.605 1.79443 -0.929764 0
M  V30 3317 C 314.926 1.87246 0.544414 0
M  V30 3318 O 314.196 1.37473 1.39564 0
M  V30 3319 H 312.776 0.664625 -0.341003 0
M  V30 3320 H 315.438 1.29499 -1.45657 0
M  V30 3321 H 314.534 2.81832 -1.34079 0
M  V30 3322 N 314.835 0.952656 1.25548 0
M  V30 3323 C 315.782 0.47008 2.25962 0
M  V30 3324 C 316.752 -0.476384 1.59122 0
M  V30 3325 O 317.937 -0.39007 1.8677 0
M  V30 3326 C 315.077 -0.247881 3.44209 0
M  V30 3327 C 314.19 0.735591 4.25691 0
M  V30 3328 C 313.325 -0.0047306 5.312 0
M  V30 3329 C 312.364 0.969805 6.04368 0
M  V30 3330 N 311.501 0.260486 7.01617 0
M  V30 3331 H 316.341 1.33126 2.66611 0
M  V30 3332 H 313.878 0.66765 1.31076 0
M  V30 3333 H 315.836 -0.680695 4.1161 0
M  V30 3334 H 314.466 -1.07312 3.0444 0
M  V30 3335 H 313.518 1.28689 3.57971 0
M  V30 3336 H 314.83 1.47934 4.76358 0
M  V30 3337 H 313.984 -0.496275 6.04667 0
M  V30 3338 H 312.723 -0.781282 4.81401 0
M  V30 3339 H 311.728 1.47237 5.29718 0
M  V30 3340 H 312.953 1.74655 6.56256 0
M  V30 3341 H 310.899 -0.497364 6.54112 0
M  V30 3342 H 310.816 0.943362 7.50091 0
M  V30 3343 H 312.084 -0.209587 7.79218 0
M  V30 3344 N 316.313 -1.40141 0.720998 0
M  V30 3345 C 317.243 -2.33339 0.0867621 0
M  V30 3346 C 318.224 -1.53178 -0.739622 0
M  V30 3347 O 319.409 -1.81625 -0.687449 0
M  V30 3348 C 316.539 -3.37194 -0.831728 0
M  V30 3349 C 315.493 -4.27857 -0.110558 0
M  V30 3350 C 314.819 -5.22294 -1.14513 0
M  V30 3351 C 316.119 -5.11872 1.0385 0
M  V30 3352 H 317.813 -2.86626 0.865219 0
M  V30 3353 H 315.359 -1.37814 0.417516 0
M  V30 3354 H 317.312 -4.01335 -1.28485 0
M  V30 3355 H 316.036 -2.82314 -1.64214 0
M  V30 3356 H 314.695 -3.65176 0.322797 0
M  V30 3357 H 314.343 -4.63717 -1.94874 0
M  V30 3358 H 314.043 -5.83797 -0.667446 0
M  V30 3359 H 315.567 -5.89312 -1.59824 0
M  V30 3360 H 316.981 -5.69436 0.664482 0
M  V30 3361 H 315.378 -5.82445 1.4449 0
M  V30 3362 H 316.448 -4.4753 1.86668 0
M  V30 3363 N 317.792 -0.46758 -1.50504 0
M  V30 3364 C 318.742 0.34698 -2.25344 0
M  V30 3365 C 319.726 0.964469 -1.2879 0
M  V30 3366 O 320.918 0.8776 -1.53711 0
M  V30 3367 C 318.047 1.43042 -3.1208 0
M  V30 3368 C 317.133 0.82084 -4.16081 0
M  V30 3369 N 317.524 -0.0567602 -5.05768 0
M  V30 3370 C 315.822 1.08517 -4.32597 0
M  V30 3371 C 316.523 -0.402343 -5.80307 0
M  V30 3372 N 315.499 0.221607 -5.43148 0
M  V30 3373 H 319.301 -0.329129 -2.92051 0
M  V30 3374 H 316.815 -0.281508 -1.59942 0
M  V30 3375 H 318.812 2.02712 -3.64299 0
M  V30 3376 H 317.472 2.10856 -2.46921 0
M  V30 3377 H 318.483 -0.425349 -5.1615 0
M  V30 3378 H 315.16 1.75855 -3.78657 0
M  V30 3379 H 316.55 -1.11834 -6.62528 0
M  V30 3380 N 319.27 1.56325 -0.20005 0
M  V30 3381 C 320.22 2.15939 0.731743 0
M  V30 3382 C 321.204 1.10154 1.17281 0
M  V30 3383 O 322.396 1.36203 1.13038 0
M  V30 3384 C 319.525 2.82614 1.94895 0
M  V30 3385 C 318.611 3.95596 1.52855 0
M  V30 3386 N 319.002 4.99118 0.819418 0
M  V30 3387 C 317.3 4.07288 1.81748 0
M  V30 3388 C 318.001 5.78513 0.608053 0
M  V30 3389 N 316.977 5.31117 1.15828 0
M  V30 3390 H 320.779 2.9334 0.181285 0
M  V30 3391 H 318.293 1.624 -0.000452172 0
M  V30 3392 H 320.29 3.23718 2.62702 0
M  V30 3393 H 318.95 2.06702 2.50408 0
M  V30 3394 H 319.961 5.15723 0.47436 0
M  V30 3395 H 316.638 3.42509 2.38734 0
M  V30 3396 H 318.028 6.71885 0.0451619 0
M  V30 3397 N 320.748 -0.0735177 1.57428 0
M  V30 3398 C 321.678 -1.0879 2.06608 0
M  V30 3399 C 322.659 -1.40473 0.959237 0
M  V30 3400 O 323.844 -1.5013 1.23185 0
M  V30 3401 C 320.974 -2.40183 2.50857 0
M  V30 3402 C 319.928 -2.22858 3.65402 0
M  V30 3403 C 319.254 -3.59619 3.957 0
M  V30 3404 C 320.554 -1.65123 4.95511 0
M  V30 3405 H 322.248 -0.678673 2.91607 0
M  V30 3406 H 319.794 -0.325013 1.40284 0
M  V30 3407 H 321.747 -3.11437 2.83874 0
M  V30 3408 H 320.471 -2.83083 1.62885 0
M  V30 3409 H 319.13 -1.54045 3.32664 0
M  V30 3410 H 318.778 -4.00086 3.04861 0
M  V30 3411 H 318.478 -3.48866 4.72828 0
M  V30 3412 H 320.002 -4.32306 4.31212 0
M  V30 3413 H 321.416 -2.26241 5.26771 0
M  V30 3414 H 319.813 -1.65071 5.7695 0
M  V30 3415 H 320.883 -0.612559 4.81015 0
M  V30 3416 N 322.226 -1.5378 -0.344866 0
M  V30 3417 C 323.189 -1.80981 -1.40637 0
M  V30 3418 C 324.189 -0.680816 -1.45676 0
M  V30 3419 O 325.379 -0.949095 -1.46075 0
M  V30 3420 C 322.511 -1.95063 -2.79577 0
M  V30 3421 H 323.704 -2.75803 -1.17783 0
M  V30 3422 H 321.257 -1.45173 -0.579181 0
M  V30 3423 H 321.992 -1.02379 -3.07716 0
M  V30 3424 H 321.777 -2.77198 -2.77315 0
M  V30 3425 H 323.267 -2.17629 -3.56409 0
M  V30 3426 N 323.704 0.605807 -1.45491 0
M  V30 3427 C 324.951 1.36476 -1.49601 0
M  V30 3428 C 325.279 1.94007 -0.138452 0
M  V30 3429 O 324.534 1.75638 0.863114 0
M  V30 3430 C 324.833 2.53012 -2.52428 0
M  V30 3431 C 324.499 2.13617 -3.97087 0
M  V30 3432 C 323.161 2.02587 -4.36477 0
M  V30 3433 C 325.513 1.82899 -4.88055 0
M  V30 3434 C 322.841 1.59064 -5.64726 0
M  V30 3435 C 325.193 1.40861 -6.16718 0
M  V30 3436 C 323.857 1.28391 -6.55036 0
M  V30 3437 H 323.127 0.499402 -0.547429 0
M  V30 3438 H 325.774 0.684546 -1.78847 0
M  V30 3439 H 324.079 3.26379 -2.16758 0
M  V30 3440 H 325.776 3.1124 -2.52845 0
M  V30 3441 H 322.366 2.23129 -3.65939 0
M  V30 3442 H 326.55 1.90317 -4.58359 0
M  V30 3443 H 321.806 1.48034 -5.93208 0
M  V30 3444 H 325.98 1.16138 -6.86648 0
M  V30 3445 H 323.607 0.944403 -7.54311 0
M  V30 3446 N 325.182 1.32811 0.848464 0
M  V30 3447 C 326.429 1.23724 1.60308 0
M  V30 3448 C 326.757 -0.1994 1.93475 0
M  V30 3449 O 326.012 -1.15406 1.5805 0
M  V30 3450 C 326.311 2.04831 2.92881 0
M  V30 3451 C 325.977 3.54125 2.79117 0
M  V30 3452 C 324.639 3.94829 2.7507 0
M  V30 3453 C 326.991 4.49036 2.64606 0
M  V30 3454 C 324.319 5.28675 2.544 0
M  V30 3455 C 326.671 5.83033 2.4547 0
M  V30 3456 C 325.335 6.22931 2.39819 0
M  V30 3457 H 324.605 0.452737 0.586609 0
M  V30 3458 H 327.252 1.64301 0.983743 0
M  V30 3459 H 325.557 1.57001 3.58968 0
M  V30 3460 H 327.254 1.95164 3.50303 0
M  V30 3461 H 323.844 3.21801 2.83094 0
M  V30 3462 H 328.028 4.18505 2.66772 0
M  V30 3463 H 323.284 5.58637 2.48465 0
M  V30 3464 H 327.458 6.56186 2.33222 0
M  V30 3465 H 325.085 7.26584 2.23562 0
M  V30 3466 N 326.66 -1.06551 1.16123 0
M  V30 3467 C 327.89 -1.8274 0.963838 0
M  V30 3468 C 328.298 -1.82712 -0.491228 0
M  V30 3469 O 327.641 -1.24294 -1.35265 0
M  V30 3470 C 327.703 -3.3065 1.41106 0
M  V30 3471 C 327.367 -3.54384 2.88549 0
M  V30 3472 C 328.364 -3.4765 3.86569 0
M  V30 3473 C 326.049 -3.81789 3.26408 0
M  V30 3474 C 328.043 -3.67982 5.2045 0
M  V30 3475 C 325.73 -4.01772 4.60459 0
M  V30 3476 C 326.728 -3.94866 5.57288 0
M  V30 3477 O 326.416 -4.14306 6.88916 0
M  V30 3478 H 326.148 -0.583136 0.341948 0
M  V30 3479 H 328.702 -1.35351 1.54497 0
M  V30 3480 H 326.932 -3.78887 0.773394 0
M  V30 3481 H 328.621 -3.88324 1.1815 0
M  V30 3482 H 329.387 -3.2647 3.58667 0
M  V30 3483 H 325.266 -3.86276 2.51619 0
M  V30 3484 H 328.81 -3.62507 5.96015 0
M  V30 3485 H 324.707 -4.2244 4.88072 0
M  V30 3486 H 325.475 -4.31609 6.95454 0
M  V30 3487 N 328.138 -0.959301 -1.25041 0
M  V30 3488 C 329.386 -0.615393 -1.92503 0
M  V30 3489 C 329.707 0.850969 -1.75452 0
M  V30 3490 O 328.977 1.60658 -1.12098 0
M  V30 3491 H 327.557 -0.224613 -0.712431 0
M  V30 3492 H 330.219 -1.21855 -1.5211 0
M  V30 3493 H 329.315 -0.848738 -3.00338 0
M  V30 3494 N 329.616 1.39756 -0.72842 0
M  V30 3495 C 330.844 2.04948 -0.283528 0
M  V30 3496 C 331.259 1.54908 1.0793 0
M  V30 3497 O 330.616 0.711135 1.68075 0
M  V30 3498 C 330.667 3.60498 -0.268957 0
M  V30 3499 O 330.388 4.08695 -1.57798 0
M  V30 3500 C 331.889 4.4288 0.192912 0
M  V30 3501 H 329.109 0.659243 -0.125056 0
M  V30 3502 H 331.653 1.78927 -0.990226 0
M  V30 3503 H 329.808 3.85444 0.388801 0
M  V30 3504 H 330.222 5.02977 -1.48709 0
M  V30 3505 H 331.696 5.51791 0.151952 0
M  V30 3506 H 332.173 4.21418 1.23708 0
M  V30 3507 H 332.779 4.23069 -0.435039 0
M  V30 3508 N 331.094 0.475555 1.50254 0
M  V30 3509 C 332.342 -0.077738 2.0195 0
M  V30 3510 C 332.663 -1.39813 1.35931 0
M  V30 3511 O 331.933 -1.89249 0.506123 0
M  V30 3512 H 330.513 -0.031719 0.746326 0
M  V30 3513 H 333.175 0.626995 1.84539 0
M  V30 3514 H 332.271 -0.225995 3.11281 0
M  V30 3515 N 332.573 -1.56217 0.208337 0
M  V30 3516 C 333.505 -2.1695 -0.739276 0
M  V30 3517 C 334.518 -1.13492 -1.1672 0
M  V30 3518 O 335.707 -1.40529 -1.10063 0
M  V30 3519 C 332.807 -2.72755 -2.01142 0
M  V30 3520 C 331.98 -4.0125 -1.74118 0
M  V30 3521 C 331.039 -4.41749 -2.85909 0
M  V30 3522 O 330.065 -5.08912 -2.54946 0
M  V30 3523 N 331.267 -4.06342 -4.14568 0
M  V30 3524 H 334.032 -2.98893 -0.219837 0
M  V30 3525 H 331.593 -1.61878 0.0268445 0
M  V30 3526 H 333.585 -2.96826 -2.75094 0
M  V30 3527 H 332.155 -1.95191 -2.4417 0
M  V30 3528 H 331.375 -3.85173 -0.838775 0
M  V30 3529 H 332.663 -4.851 -1.53477 0
M  V30 3530 H 332.061 -3.52345 -4.42571 0
M  V30 3531 H 330.618 -4.35335 -4.85105 0
M  V30 3532 N 334.051 0.0651679 -1.57465 0
M  V30 3533 C 335.001 1.0838 -2.00594 0
M  V30 3534 C 335.985 1.34106 -0.889071 0
M  V30 3535 O 337.177 1.34295 -1.15299 0
M  V30 3536 C 334.306 2.39565 -2.45894 0
M  V30 3537 C 333.392 2.17085 -3.64328 0
M  V30 3538 N 333.783 1.64553 -4.78285 0
M  V30 3539 C 332.081 2.4753 -3.71006 0
M  V30 3540 C 332.782 1.57042 -5.60101 0
M  V30 3541 N 331.758 2.03328 -5.04141 0
M  V30 3542 H 335.56 0.671062 -2.86136 0
M  V30 3543 H 333.074 0.27213 -1.60104 0
M  V30 3544 H 335.071 3.13308 -2.75034 0
M  V30 3545 H 333.731 2.81549 -1.61741 0
M  V30 3546 H 334.742 1.33323 -5.00445 0
M  V30 3547 H 331.419 2.92835 -2.9758 0
M  V30 3548 H 332.809 1.17223 -6.61595 0
M  V30 3549 N 335.529 1.53961 0.336706 0
M  V30 3550 C 336.477 1.83136 1.43401 0
M  V30 3551 C 337.471 0.702313 1.54156 0
M  V30 3552 O 338.677 0.885765 1.56698 0
M  V30 3553 H 335.052 0.580309 0.478273 0
M  V30 3554 H 337.023 2.74925 1.16012 0
M  V30 3555 C 335.772 2.06385 2.79822 0
M  V30 3556 H 335.095 2.92718 2.72316 0
M  V30 3557 H 336.535 2.30761 3.55704 0
M  V30 3558 C 334.994 0.851414 3.25964 0
M  V30 3559 O 335.524 0.0541904 4.01663 0
M  V30 3560 N 333.73 0.66672 2.82848 0
M  V30 3561 H 333.277 1.31665 2.21409 0
M  V30 3562 H 333.235 -0.143032 3.14074 0
M  V30 3563 N 337.007 -0.598083 1.45811 0
M  V30 3564 C 338.256 -1.35295 1.49594 0
M  V30 3565 C 338.569 -1.95057 0.145679 0
M  V30 3566 O 339.775 -2.71431 0.0612099 0
M  V30 3567 C 338.231 -2.45124 2.63519 0
M  V30 3568 C 337.839 -1.91732 4.04899 0
M  V30 3569 C 339.583 -3.2205 2.76558 0
M  V30 3570 C 337.49 -2.991 5.1019 0
M  V30 3571 H 336.42 -0.508552 0.556679 0
M  V30 3572 H 339.071 -0.639977 1.71978 0
M  V30 3573 H 337.453 -3.19149 2.34435 0
M  V30 3574 H 338.627 -1.24352 4.43704 0
M  V30 3575 H 336.942 -1.27522 3.96393 0
M  V30 3576 H 339.539 -4.0215 3.52391 0
M  V30 3577 H 339.882 -3.73663 1.83526 0
M  V30 3578 H 340.415 -2.55127 3.05213 0
M  V30 3579 H 337.154 -2.52393 6.04961 0
M  V30 3580 H 336.674 -3.65017 4.75944 0
M  V30 3581 H 338.353 -3.63318 5.35359 0
M  V30 3582 N 338.485 -1.33259 -0.841409 0
M  V30 3583 C 339.762 -1.15174 -1.58096 0
M  V30 3584 C 340.142 0.282858 -2.09196 0
M  V30 3585 O 339.49 1.28151 -1.89181 0
M  V30 3586 C 339.7 -2.1907 -2.71679 0
M  V30 3587 C 341.048 -2.53093 -3.40924 0
M  V30 3588 O 342.072 -2.17717 -2.81918 0
M  V30 3589 O 340.931 -3.1379 -4.47435 0
M  V30 3590 H 338.025 -0.445303 -0.696875 0
M  V30 3591 H 340.571 -1.44833 -0.884385 0
M  V30 3592 H 339.343 -3.15443 -2.31541 0
M  V30 3593 H 338.966 -1.90481 -3.49002 0
M  V30 3594 N 339.963 1.05934 -1.16686 0
M  V30 3595 C 340.926 2.11669 -0.879144 0
M  V30 3596 C 341.926 1.60294 0.127445 0
M  V30 3597 O 343.116 1.7389 -0.103865 0
M  V30 3598 C 340.248 3.39438 -0.315425 0
M  V30 3599 H 341.441 2.38626 -1.81653 0
M  V30 3600 H 338.994 1.22058 -0.976299 0
M  V30 3601 H 339.729 3.18132 0.629468 0
M  V30 3602 H 339.514 3.78034 -1.04079 0
M  V30 3603 H 341.004 4.17391 -0.132189 0
M  V30 3604 N 341.441 0.965919 1.2453 0
M  V30 3605 C 342.687 0.62776 1.92839 0
M  V30 3606 C 343.02 -0.834694 1.75347 0
M  V30 3607 O 342.295 -1.60031 1.10546 0
M  V30 3608 C 342.578 1.00109 3.45905 0
M  V30 3609 C 342.431 2.52011 3.72573 0
M  V30 3610 C 343.75 0.53435 4.36844 0
M  V30 3611 H 340.869 0.229537 0.700344 0
M  V30 3612 H 343.511 1.2046 1.46933 0
M  V30 3613 H 341.661 0.510238 3.85135 0
M  V30 3614 H 343.333 3.08559 3.42912 0
M  V30 3615 H 341.576 2.95287 3.17786 0
M  V30 3616 H 342.247 2.73183 4.79661 0
M  V30 3617 H 344.723 0.955565 4.04979 0
M  V30 3618 H 343.599 0.824152 5.42678 0
M  V30 3619 H 343.86 -0.565589 4.38467 0
M  V30 3620 N 342.919 -1.39368 0.735821 0
M  V30 3621 C 343.829 -2.34395 0.0979693 0
M  V30 3622 C 344.845 -1.58361 -0.720968 0
M  V30 3623 O 346.021 -1.90648 -0.649245 0
M  V30 3624 C 343.086 -3.37393 -0.797916 0
M  V30 3625 C 342.147 -4.29287 0.0333662 0
M  V30 3626 C 341.38 -5.27365 -0.819854 0
M  V30 3627 O 341.603 -5.31959 -2.05855 0
M  V30 3628 O 340.537 -6.01389 -0.248079 0
M  V30 3629 H 344.363 -2.90601 0.882315 0
M  V30 3630 H 341.948 -1.40909 0.4965 0
M  V30 3631 H 343.83 -4.00505 -1.31048 0
M  V30 3632 H 342.505 -2.83571 -1.56106 0
M  V30 3633 H 341.412 -3.69395 0.591475 0
M  V30 3634 H 342.745 -4.86317 0.758752 0
M  V30 3635 N 344.397 -0.483516 -1.5 0
M  V30 3636 C 345.33 0.350427 -2.25493 0
M  V30 3637 C 346.308 0.985549 -1.29328 0
M  V30 3638 O 347.492 1.01906 -1.58579 0
M  V30 3639 C 344.619 1.49202 -3.04066 0
M  V30 3640 C 343.665 0.973036 -4.15252 0
M  V30 3641 S 344.498 -0.122237 -5.3536 0
M  V30 3642 C 345.654 1.02294 -6.17484 0
M  V30 3643 H 345.887 -0.290381 -2.95878 0
M  V30 3644 H 343.42 -0.268562 -1.52046 0
M  V30 3645 H 345.378 2.14623 -3.49925 0
M  V30 3646 H 344.039 2.10438 -2.33183 0
M  V30 3647 H 343.232 1.82804 -4.69679 0
M  V30 3648 H 342.834 0.396335 -3.71894 0
M  V30 3649 H 345.126 1.93195 -6.49371 0
M  V30 3650 H 346.069 0.517664 -7.06205 0
M  V30 3651 H 346.477 1.28238 -5.49741 0
M  V30 3652 N 345.875 1.56104 -0.216619 0
M  V30 3653 C 347.122 1.98172 0.416416 0
M  V30 3654 C 347.45 1.10413 1.60122 0
M  V30 3655 O 346.705 0.147967 1.9514 0
M  V30 3656 C 347.004 3.45923 0.898464 0
M  V30 3657 C 346.67 4.50559 -0.175288 0
M  V30 3658 C 345.332 4.78897 -0.470271 0
M  V30 3659 C 347.684 5.1334 -0.901728 0
M  V30 3660 C 345.012 5.67299 -1.4963 0
M  V30 3661 C 347.364 6.02853 -1.91705 0
M  V30 3662 C 346.028 6.29537 -2.21901 0
M  V30 3663 H 345.298 0.725164 0.152377 0
M  V30 3664 H 347.945 1.88839 -0.318103 0
M  V30 3665 H 346.25 3.52434 1.71165 0
M  V30 3666 H 347.947 3.75841 1.39803 0
M  V30 3667 H 344.537 4.28551 0.0647806 0
M  V30 3668 H 348.721 4.91521 -0.687072 0
M  V30 3669 H 343.977 5.86239 -1.73592 0
M  V30 3670 H 348.151 6.50552 -2.48505 0
M  V30 3671 H 345.778 6.97835 -3.01548 0
M  V30 3672 N 347.353 -0.0568162 1.57498 0
M  V30 3673 C 348.769 -0.411933 1.54192 0
M  V30 3674 C 348.969 -1.78287 0.938942 0
M  V30 3675 O 348.025 -2.46483 0.547919 0
M  V30 3676 C 349.338 -0.339244 2.9878 0
M  V30 3677 C 350.886 -0.418348 3.10192 0
M  V30 3678 C 351.361 -0.375407 4.56459 0
M  V30 3679 N 352.852 -0.435038 4.61153 0
M  V30 3680 C 353.587 -0.424265 5.71828 0
M  V30 3681 N 353.083 -0.367418 6.91825 0
M  V30 3682 N 354.876 -0.471938 5.60115 0
M  V30 3683 H 347.027 0.840684 1.95055 0
M  V30 3684 H 349.29 0.316987 0.893433 0
M  V30 3685 H 348.996 0.601742 3.46514 0
M  V30 3686 H 348.87 -1.14371 3.59443 0
M  V30 3687 H 351.257 -1.34976 2.62422 0
M  V30 3688 H 351.338 0.414962 2.52412 0
M  V30 3689 H 350.982 0.552219 5.04889 0
M  V30 3690 H 350.912 -1.22645 5.12119 0
M  V30 3691 H 353.403 -0.482612 3.74806 0
M  V30 3692 H 353.716 -0.363535 7.71944 0
M  V30 3693 H 352.061 -0.333879 6.94198 0
M  V30 3694 H 355.252 -0.514145 4.65268 0
M  V30 3695 H 355.425 -0.460073 6.46365 0
M  V30 3696 N 348.832 -1.54138 -0.328536 0
M  V30 3697 C 350.109 -1.62749 -1.08499 0
M  V30 3698 C 350.489 -0.458198 -2.06067 0
M  V30 3699 O 349.837 0.548046 -2.2183 0
M  V30 3700 C 350.047 -2.99519 -1.79135 0
M  V30 3701 C 351.395 -3.55394 -2.32337 0
M  V30 3702 O 352.419 -3.01792 -1.89209 0
M  V30 3703 O 351.278 -4.49186 -3.11279 0
M  V30 3704 H 348.372 -0.65886 -0.499832 0
M  V30 3705 H 350.918 -1.66484 -0.328826 0
M  V30 3706 H 349.69 -3.76061 -1.08139 0
M  V30 3707 H 349.313 -2.99441 -2.61574 0
M  V30 3708 N 350.31 0.590341 -1.46126 0
M  V30 3709 C 351.54 1.37304 -1.54373 0
M  V30 3710 C 351.948 1.88332 -0.181071 0
M  V30 3711 O 351.291 1.63852 0.830559 0
M  V30 3712 C 351.353 2.6012 -2.48149 0
M  V30 3713 C 351.017 2.30613 -3.94546 0
M  V30 3714 C 352.014 1.89915 -4.83971 0
M  V30 3715 C 349.699 2.42993 -4.39613 0
M  V30 3716 C 351.693 1.61981 -6.16475 0
M  V30 3717 C 349.38 2.14672 -5.72153 0
M  V30 3718 C 350.378 1.7423 -6.60404 0
M  V30 3719 O 350.066 1.46251 -7.90485 0
M  V30 3720 H 349.798 0.426086 -0.524811 0
M  V30 3721 H 352.352 0.72539 -1.92165 0
M  V30 3722 H 350.582 3.27664 -2.05361 0
M  V30 3723 H 352.271 3.22182 -2.46887 0
M  V30 3724 H 353.037 1.79872 -4.50412 0
M  V30 3725 H 348.916 2.73435 -3.71153 0
M  V30 3726 H 352.46 1.30341 -6.85315 0
M  V30 3727 H 348.357 2.24337 -6.05263 0
M  V30 3728 H 349.125 1.6016 -8.02677 0
M  V30 3729 N 351.788 1.33704 0.83433 0
M  V30 3730 C 353.065 1.16011 1.57483 0
M  V30 3731 C 353.445 -0.27176 2.09343 0
M  V30 3732 O 352.793 -1.27146 1.89858 0
M  V30 3733 C 353.003 2.20507 2.70514 0
M  V30 3734 C 354.351 2.54898 3.39577 0
M  V30 3735 O 355.375 2.19209 2.80759 0
M  V30 3736 O 354.234 3.16158 4.45765 0
M  V30 3737 H 351.328 0.448992 0.694503 0
M  V30 3738 H 353.874 1.453 0.876691 0
M  V30 3739 H 352.646 3.16667 2.29865 0
M  V30 3740 H 352.269 1.92329 3.47987 0
M  V30 3741 N 353.266 -1.05314 1.17247 0
M  V30 3742 C 354.515 -1.77685 0.954521 0
M  V30 3743 C 354.828 -1.88616 -0.518025 0
M  V30 3744 O 356.034 -2.57714 -0.854144 0
M  V30 3745 C 354.49 -3.19402 1.65863 0
M  V30 3746 C 354.098 -3.16605 3.16963 0
M  V30 3747 C 355.842 -3.96237 1.52303 0
M  V30 3748 C 353.749 -4.53103 3.80068 0
M  V30 3749 H 352.679 -0.666 0.353496 0
M  V30 3750 H 355.33 -1.1805 1.40486 0
M  V30 3751 H 353.712 -3.79355 1.13602 0
M  V30 3752 H 354.886 -2.66176 3.76148 0
M  V30 3753 H 353.201 -2.53268 3.30521 0
M  V30 3754 H 355.798 -4.97157 1.96822 0
M  V30 3755 H 356.141 -4.136 0.473401 0
M  V30 3756 H 356.674 -3.42829 2.01775 0
M  V30 3757 H 353.413 -4.40946 4.85023 0
M  V30 3758 H 352.933 -5.03686 3.2567 0
M  V30 3759 H 354.612 -5.22045 3.82202 0
M  V30 3760 N 354.744 -0.972509 -1.24016 0
M  V30 3761 C 355.676 -0.464375 -2.24446 0
M  V30 3762 C 356.689 0.4295 -1.57032 0
M  V30 3763 O 357.878 0.234902 -1.76948 0
M  V30 3764 C 354.978 0.348385 -3.37105 0
M  V30 3765 C 354.151 -0.53673 -4.34094 0
M  V30 3766 C 353.21 0.220838 -5.25736 0
M  V30 3767 O 352.236 -0.386867 -5.67884 0
M  V30 3768 N 353.438 1.50907 -5.60542 0
M  V30 3769 H 356.203 -1.32788 -2.68677 0
M  V30 3770 H 353.764 -0.844877 -1.38107 0
M  V30 3771 H 355.756 0.863341 -3.95384 0
M  V30 3772 H 354.326 1.11285 -2.92121 0
M  V30 3773 H 353.546 -1.23261 -3.74433 0
M  V30 3774 H 354.834 -1.14022 -4.95859 0
M  V30 3775 H 354.232 2.02444 -5.28236 0
M  V30 3776 H 352.789 1.96962 -6.21329 0
M  V30 3777 N 356.222 1.38976 -0.743202 0
M  V30 3778 C 357.471 1.99581 -0.291592 0
M  V30 3779 C 357.784 1.59656 1.13001 0
M  V30 3780 O 358.99 2.13157 1.68156 0
M  V30 3781 C 357.446 3.56813 -0.470391 0
M  V30 3782 C 357.054 4.05695 -1.90041 0
M  V30 3783 C 358.798 4.24423 -0.0809709 0
M  V30 3784 C 356.705 5.5553 -2.02832 0
M  V30 3785 H 355.635 0.746615 -0.105272 0
M  V30 3786 H 358.286 1.58872 -0.918258 0
M  V30 3787 H 356.668 3.95359 0.225299 0
M  V30 3788 H 357.842 3.78464 -2.62872 0
M  V30 3789 H 356.157 3.50775 -2.24379 0
M  V30 3790 H 358.754 5.34474 -0.155445 0
M  V30 3791 H 359.097 4.04962 0.96497 0
M  V30 3792 H 359.63 3.9108 -0.728124 0
M  V30 3793 H 356.369 5.79881 -3.05643 0
M  V30 3794 H 355.889 5.84537 -1.34448 0
M  V30 3795 H 357.568 6.21069 -1.81335 0
M  V30 3796 N 357.7 0.491464 1.49741 0
M  V30 3797 C 358.61 -0.296835 2.32715 0
M  V30 3798 C 359.626 -0.976536 1.44013 0
M  V30 3799 O 360.802 -0.960023 1.77047 0
M  V30 3800 C 357.867 -1.35288 3.19215 0
M  V30 3801 C 356.928 -0.687632 4.23757 0
M  V30 3802 C 356.161 -1.69336 5.06123 0
M  V30 3803 O 356.384 -2.92219 4.89861 0
M  V30 3804 O 355.318 -1.25394 5.88693 0
M  V30 3805 H 359.144 0.382048 3.01287 0
M  V30 3806 H 356.729 0.252953 1.47243 0
M  V30 3807 H 358.611 -1.96411 3.72828 0
M  V30 3808 H 357.286 -2.01487 2.53347 0
M  V30 3809 H 356.193 -0.0369159 3.74082 0
M  V30 3810 H 357.526 -0.0682566 4.92153 0
M  V30 3811 N 359.178 -1.55987 0.224894 0
M  V30 3812 C 360.141 -2.19178 -0.670348 0
M  V30 3813 C 361.141 -1.15461 -1.11917 0
M  V30 3814 O 362.331 -1.40675 -1.02743 0
M  V30 3815 C 359.463 -2.81777 -1.9187 0
M  V30 3816 H 360.656 -2.99662 -0.119364 0
M  V30 3817 H 358.209 -1.5628 -0.0247128 0
M  V30 3818 H 358.944 -2.05172 -2.51147 0
M  V30 3819 H 358.729 -3.57732 -1.60531 0
M  V30 3820 H 360.219 -3.30205 -2.55645 0
M  V30 3821 N 360.656 0.0484629 -1.57525 0
M  V30 3822 C 361.904 0.741657 -1.88 0
M  V30 3823 C 362.225 1.76918 -0.820054 0
M  V30 3824 O 361.495 1.95335 0.148661 0
M  V30 3825 H 360.075 0.276908 -0.69378 0
M  V30 3826 H 362.737 0.019013 -1.94891 0
M  V30 3827 H 361.833 1.24336 -2.86264 0
M  V30 3828 N 362.134 1.5431 0.320358 0
M  V30 3829 C 363.545 1.63872 0.894594 0
M  V30 3830 C 363.896 0.534847 1.88769 0
M  V30 3831 O 363.021 -0.331732 2.13842 0
M  V30 3832 C 363.616 2.97049 1.62934 0
M  V30 3833 C 362.175 3.08796 2.15226 0
M  V30 3834 C 361.322 2.59456 0.978671 0
M  V30 3835 H 364.273 1.58398 0.0978544 0
M  V30 3836 H 364.294 2.87388 2.49376 0
M  V30 3837 H 363.806 3.7737 0.906302 0
M  V30 3838 H 361.907 2.33156 2.90636 0
M  V30 3839 H 362.02 4.14649 2.40006 0
M  V30 3840 H 360.384 2.1543 1.35875 0
M  V30 3841 H 361.167 3.42237 0.269895 0
M  V30 3842 N 363.613 -0.582584 1.46437 0
M  V30 3843 C 364.89 -1.34276 1.4223 0
M  V30 3844 C 365.27 -2.10835 0.10583 0
M  V30 3845 O 364.618 -2.09485 -0.912596 0
M  V30 3846 C 364.828 -2.26865 2.65204 0
M  V30 3847 C 366.176 -2.88691 3.11356 0
M  V30 3848 O 367.2 -2.37178 2.65753 0
M  V30 3849 O 366.059 -3.82255 3.90568 0
M  V30 3850 H 363.153 -0.603326 0.565621 0
M  V30 3851 H 365.699 -0.603591 1.58603 0
M  V30 3852 H 364.471 -1.69724 3.52576 0
M  V30 3853 H 364.094 -3.08122 2.5129 0
M  V30 3854 N 365.091 -1.34144 -0.827227 0
M  V30 3855 C 366.038 -1.25364 -1.93785 0
M  V30 3856 C 367.008 -0.129774 -1.65592 0
M  V30 3857 O 368.193 -0.310024 -1.88264 0
M  V30 3858 C 365.333 -1.01064 -3.2997 0
M  V30 3859 C 364.446 -2.22185 -3.70484 0
M  V30 3860 C 363.581 -1.91203 -4.95595 0
M  V30 3861 C 362.62 -3.08491 -5.28677 0
M  V30 3862 N 361.757 -2.77421 -6.44967 0
M  V30 3863 H 366.597 -2.20347 -2.00627 0
M  V30 3864 H 364.134 -1.09558 -0.981608 0
M  V30 3865 H 366.092 -0.850139 -4.08446 0
M  V30 3866 H 364.722 -0.0975026 -3.22653 0
M  V30 3867 H 363.774 -2.4917 -2.87434 0
M  V30 3868 H 365.086 -3.0983 -3.90905 0
M  V30 3869 H 364.24 -1.71864 -5.81848 0
M  V30 3870 H 362.979 -1.00812 -4.77167 0
M  V30 3871 H 361.984 -3.28431 -4.40923 0
M  V30 3872 H 363.209 -3.99655 -5.49047 0
M  V30 3873 H 361.155 -1.89601 -6.28003 0
M  V30 3874 H 361.072 -3.58598 -6.6554 0
M  V30 3875 H 362.34 -2.61577 -7.34301 0
M  V30 3876 N 366.569 1.04691 -1.17803 0
M  V30 3877 C 367.519 2.10856 -0.867391 0
M  V30 3878 C 368.503 1.601 0.160206 0
M  V30 3879 O 369.695 1.76948 -0.042947 0
M  V30 3880 C 366.824 3.411 -0.388012 0
M  V30 3881 C 365.91 3.9864 -1.44732 0
M  V30 3882 N 366.301 4.30075 -2.66212 0
M  V30 3883 C 364.599 4.26439 -1.30637 0
M  V30 3884 C 365.3 4.76033 -3.34317 0
M  V30 3885 N 364.276 4.76462 -2.61696 0
M  V30 3886 H 368.078 2.33029 -1.79094 0
M  V30 3887 H 365.592 1.22386 -1.0675 0
M  V30 3888 H 367.589 4.16641 -0.146994 0
M  V30 3889 H 366.249 3.20357 0.529271 0
M  V30 3890 H 367.26 4.19917 -3.03134 0
M  V30 3891 H 363.937 4.15056 -0.451129 0
M  V30 3892 H 365.327 5.09427 -4.38103 0
M  V30 3893 N 368.047 0.979072 1.23499 0
M  V30 3894 C 369.295 0.645941 1.91499 0
M  V30 3895 C 369.616 -0.822948 1.76784 0
M  V30 3896 O 368.886 -1.58854 1.14639 0
M  V30 3897 H 367.466 0.235919 0.708767 0
M  V30 3898 H 370.128 1.2426 1.50152 0
M  V30 3899 H 369.224 0.896411 2.9895 0
M  V30 3900 N 369.525 -1.3858 0.750561 0
M  V30 3901 C 370.774 -1.99424 0.302172 0
M  V30 3902 C 371.087 -1.60254 -1.12152 0
M  V30 3903 O 372.293 -2.14046 -1.67023 0
M  V30 3904 C 370.749 -3.56558 0.489307 0
M  V30 3905 C 370.357 -4.04682 1.92189 0
M  V30 3906 C 372.101 -4.24374 0.103478 0
M  V30 3907 C 370.008 -5.54446 2.05775 0
M  V30 3908 H 368.938 -0.746046 0.10923 0
M  V30 3909 H 371.589 -1.58383 0.92667 0
M  V30 3910 H 369.971 -3.95472 -0.204329 0
M  V30 3911 H 371.145 -3.77065 2.64875 0
M  V30 3912 H 369.46 -3.4958 2.26236 0
M  V30 3913 H 372.057 -5.34384 0.183787 0
M  V30 3914 H 372.4 -4.05468 -0.943481 0
M  V30 3915 H 372.933 -3.90688 0.748854 0
M  V30 3916 H 369.672 -5.78252 3.08714 0
M  V30 3917 H 369.192 -5.83816 1.37546 0
M  V30 3918 H 370.871 -6.20099 1.84626 0
M  V30 3919 N 371.003 -0.499398 -1.49478 0
M  V30 3920 C 372.231 0.0425456 -2.06856 0
M  V30 3921 C 372.646 1.30964 -1.35992 0
M  V30 3922 O 372.003 1.77172 -0.437762 0
M  V30 3923 C 372.054 0.301735 -3.60239 0
M  V30 3924 O 371.775 -0.915127 -4.28436 0
M  V30 3925 C 373.276 0.887499 -4.34325 0
M  V30 3926 H 370.496 -0.0197482 -0.670709 0
M  V30 3927 H 373.04 -0.696297 -1.92281 0
M  V30 3928 H 371.195 0.990556 -3.74522 0
M  V30 3929 H 371.609 -0.676993 -5.20113 0
M  V30 3930 H 373.083 1.01845 -5.42523 0
M  V30 3931 H 373.56 1.88488 -3.96698 0
M  V30 3932 H 374.166 0.236196 -4.24644 0
M  V30 3933 N 372.481 1.55866 -0.233164 0
M  V30 3934 C 373.413 2.18099 0.704668 0
M  V30 3935 C 374.426 1.15334 1.14899 0
M  V30 3936 O 375.615 1.42262 1.07814 0
M  V30 3937 C 372.715 2.7592 1.96777 0
M  V30 3938 C 371.888 4.03969 1.67713 0
M  V30 3939 C 370.947 4.46242 2.78845 0
M  V30 3940 O 369.973 5.12903 2.46818 0
M  V30 3941 N 371.175 4.12886 4.08051 0
M  V30 3942 H 373.94 2.99205 0.172258 0
M  V30 3943 H 371.501 1.61815 -0.0525945 0
M  V30 3944 H 373.493 3.01165 2.70337 0
M  V30 3945 H 372.063 1.99051 2.41034 0
M  V30 3946 H 371.283 3.86459 0.777391 0
M  V30 3947 H 372.571 4.8748 1.4574 0
M  V30 3948 H 371.969 3.59342 4.3691 0
M  V30 3949 H 370.526 4.42997 4.78118 0
M  V30 3950 N 373.959 -0.0401083 1.57549 0
M  V30 3951 C 375.184 -0.748931 1.93406 0
M  V30 3952 C 375.609 -1.68686 0.832274 0
M  V30 3953 O 374.967 -1.80047 -0.212818 0
M  V30 3954 C 375.015 -1.4916 3.28304 0
M  V30 3955 O 374.119 -2.6042 3.19774 0
M  V30 3956 H 373.46 -0.202212 0.63246 0
M  V30 3957 H 375.99 0.00112086 2.046 0
M  V30 3958 H 376 -1.86395 3.62934 0
M  V30 3959 H 374.675 -0.80364 4.08062 0
M  V30 3960 H 373.252 -2.25808 2.96758 0
M  V30 3961 N 375.437 -1.54477 -0.31217 0
M  V30 3962 C 376.369 -1.81011 -1.40598 0
M  V30 3963 C 377.382 -0.692546 -1.47335 0
M  V30 3964 O 378.571 -0.969847 -1.49854 0
M  V30 3965 C 375.671 -1.92307 -2.79054 0
M  V30 3966 C 374.844 -3.22594 -2.95384 0
M  V30 3967 C 373.903 -3.24448 -4.1427 0
M  V30 3968 O 372.929 -3.98035 -4.06887 0
M  V30 3969 N 374.131 -2.49042 -5.24365 0
M  V30 3970 H 376.896 -2.75408 -1.18196 0
M  V30 3971 H 374.457 -1.53914 -0.502202 0
M  V30 3972 H 376.449 -1.90962 -3.56813 0
M  V30 3973 H 375.019 -1.04955 -2.94454 0
M  V30 3974 H 374.239 -3.36806 -2.04831 0
M  V30 3975 H 375.527 -4.08593 -3.03198 0
M  V30 3976 H 374.925 -1.88867 -5.33241 0
M  V30 3977 H 373.482 -2.53463 -6.005 0
M  V30 3978 N 376.915 0.57481 -1.46744 0
M  V30 3979 C 378.162 1.33272 -1.52462 0
M  V30 3980 C 378.49 1.93669 -0.179572 0
M  V30 3981 O 377.745 1.7743 0.825664 0
M  V30 3982 C 378.044 2.476 -2.57738 0
M  V30 3983 C 377.71 2.05146 -4.01529 0
M  V30 3984 C 376.372 1.93284 -4.40676 0
M  V30 3985 C 378.724 1.72506 -4.91824 0
M  V30 3986 C 376.052 1.47049 -5.67973 0
M  V30 3987 C 378.404 1.27748 -6.19567 0
M  V30 3988 C 377.068 1.14468 -6.57612 0
M  V30 3989 H 376.338 0.487678 -0.557899 0
M  V30 3990 H 378.985 0.646456 -1.80259 0
M  V30 3991 H 377.29 3.21708 -2.23632 0
M  V30 3992 H 378.987 3.05807 -2.5939 0
M  V30 3993 H 375.577 2.15316 -3.7059 0
M  V30 3994 H 379.761 1.80552 -4.62293 0
M  V30 3995 H 375.017 1.35417 -5.96215 0
M  V30 3996 H 379.191 1.01547 -6.88957 0
M  V30 3997 H 376.818 0.78419 -7.56145 0
M  V30 3998 N 378.394 1.34581 0.820102 0
M  V30 3999 C 379.324 1.29038 1.94606 0
M  V30 4000 C 380.305 0.1673 1.69275 0
M  V30 4001 O 381.49 0.360112 1.90832 0
M  V30 4002 C 378.62 1.04793 3.31113 0
M  V30 4003 C 377.574 2.13597 3.70891 0
M  V30 4004 C 376.9 1.74537 5.05412 0
M  V30 4005 C 378.2 3.55451 3.8269 0
M  V30 4006 H 379.894 2.23248 1.99501 0
M  V30 4007 H 377.44 1.0747 0.958449 0
M  V30 4008 H 379.393 0.995592 4.0947 0
M  V30 4009 H 378.117 0.0702565 3.26524 0
M  V30 4010 H 376.776 2.17905 2.9481 0
M  V30 4011 H 376.424 0.754226 4.97313 0
M  V30 4012 H 376.124 2.47361 5.32997 0
M  V30 4013 H 377.648 1.70803 5.86224 0
M  V30 4014 H 379.062 3.5354 4.51312 0
M  V30 4015 H 377.459 4.26922 4.21732 0
M  V30 4016 H 378.529 3.92587 2.84611 0
M  V30 4017 N 379.872 -1.04064 1.18357 0
M  V30 4018 C 381.102 -1.80654 1.00238 0
M  V30 4019 C 381.51 -1.83713 -0.452362 0
M  V30 4020 O 380.853 -1.27135 -1.32599 0
M  V30 4021 C 380.915 -3.27582 1.48088 0
M  V30 4022 C 380.579 -3.48184 2.96002 0
M  V30 4023 C 381.576 -3.39372 3.93856 0
M  V30 4024 C 379.261 -3.7478 3.34433 0
M  V30 4025 C 381.255 -3.5686 5.28138 0
M  V30 4026 C 378.942 -3.91915 4.68877 0
M  V30 4027 C 379.94 -3.82956 5.65539 0
M  V30 4028 O 379.628 -3.996 6.97549 0
M  V30 4029 H 379.36 -0.575751 0.354241 0
M  V30 4030 H 381.914 -1.32044 1.57333 0
M  V30 4031 H 380.144 -3.77161 0.853588 0
M  V30 4032 H 381.833 -3.8573 1.2636 0
M  V30 4033 H 382.599 -3.18789 3.65511 0
M  V30 4034 H 378.478 -3.80852 2.59756 0
M  V30 4035 H 382.022 -3.49783 6.03571 0
M  V30 4036 H 377.919 -4.11992 4.96923 0
M  V30 4037 H 378.687 -4.1676 7.04452 0
M  V30 4038 N 381.35 -0.985608 -1.22978 0
M  V30 4039 C 382.596 -0.65836 -1.91816 0
M  V30 4040 C 382.929 0.806692 -1.76653 0
M  V30 4041 O 382.204 1.58252 -1.13078 0
M  V30 4042 C 382.487 -1.056 -3.44268 0
M  V30 4043 C 382.34 -2.57906 -3.68516 0
M  V30 4044 C 383.659 -0.603781 -4.35939 0
M  V30 4045 H 380.778 -0.24065 -0.696604 0
M  V30 4046 H 383.42 -1.22783 -1.44998 0
M  V30 4047 H 381.57 -0.571445 -3.84274 0
M  V30 4048 H 383.242 -3.13976 -3.3796 0
M  V30 4049 H 381.485 -3.00305 -3.13048 0
M  V30 4050 H 382.156 -2.80779 -4.75255 0
M  V30 4051 H 384.632 -1.01987 -4.03408 0
M  V30 4052 H 383.508 -0.910383 -5.41298 0
M  V30 4053 H 383.769 0.495761 -4.39312 0
M  V30 4054 N 382.828 1.3818 -0.7579 0
M  V30 4055 C 384.075 2.00019 -0.315985 0
M  V30 4056 C 384.403 1.60163 1.10355 0
M  V30 4057 O 383.658 0.83264 1.77103 0
M  V30 4058 C 383.957 3.55252 -0.391218 0
M  V30 4059 C 383.623 4.14834 -1.76702 0
M  V30 4060 C 382.285 4.30821 -2.14353 0
M  V30 4061 C 384.637 4.47658 -2.66931 0
M  V30 4062 C 381.965 4.76928 -3.41696 0
M  V30 4063 C 384.317 4.95184 -3.93669 0
M  V30 4064 C 382.981 5.09377 -4.31383 0
M  V30 4065 H 382.251 0.731923 -0.115627 0
M  V30 4066 H 384.898 1.65161 -0.969223 0
M  V30 4067 H 383.203 3.90273 0.34558 0
M  V30 4068 H 384.9 4.00988 -0.030805 0
M  V30 4069 H 381.49 4.02808 -1.46435 0
M  V30 4070 H 385.674 4.34904 -2.39106 0
M  V30 4071 H 380.93 4.86103 -3.70829 0
M  V30 4072 H 385.104 5.19551 -4.63724 0
M  V30 4073 H 382.731 5.44865 -5.30119 0
M  V30 4074 N 384.306 0.507319 1.49211 0
M  V30 4075 C 385.216 -0.272136 2.33016 0
M  V30 4076 C 386.232 -0.961206 1.45041 0
M  V30 4077 O 387.408 -0.941191 1.78055 0
M  V30 4078 C 384.473 -1.31895 3.20631 0
M  V30 4079 C 383.534 -0.642648 4.24463 0
M  V30 4080 C 382.767 -1.63959 5.07891 0
M  V30 4081 O 382.99 -2.87007 4.92933 0
M  V30 4082 O 381.924 -1.19143 5.8999 0
M  V30 4083 H 385.75 0.413982 3.00865 0
M  V30 4084 H 383.335 0.268556 1.46966 0
M  V30 4085 H 385.217 -1.92446 3.7489 0
M  V30 4086 H 383.892 -1.98788 2.5547 0
M  V30 4087 H 382.799 0.00276252 3.741 0
M  V30 4088 H 384.132 -0.0160534 4.92197 0
M  V30 4089 N 385.784 -1.5574 0.241426 0
M  V30 4090 C 387.195 -1.84842 -0.262755 0
M  V30 4091 C 387.546 -1.16317 -1.58003 0
M  V30 4092 O 386.671 -0.439653 -2.11887 0
M  V30 4093 C 387.266 -3.35332 -0.483523 0
M  V30 4094 C 385.825 -3.6468 -0.931977 0
M  V30 4095 C 384.972 -2.77299 -0.0061151 0
M  V30 4096 H 387.923 -1.51761 0.464129 0
M  V30 4097 H 387.944 -3.56615 -1.32688 0
M  V30 4098 H 387.456 -3.85178 0.47537 0
M  V30 4099 H 385.557 -3.20307 -1.90353 0
M  V30 4100 H 385.67 -4.72498 -0.792628 0
M  V30 4101 H 384.034 -2.49408 -0.516503 0
M  V30 4102 H 384.817 -3.2995 0.948052 0
M  V30 4103 N 387.262 0.0317525 -1.57568 0
M  V30 4104 C 388.51 0.721676 -1.88776 0
M  V30 4105 C 388.831 1.76039 -0.838772 0
M  V30 4106 O 388.101 1.95482 0.127935 0
M  V30 4107 H 386.681 0.269534 -0.696678 0
M  V30 4108 H 389.343 -0.00165879 -1.949 0
M  V30 4109 H 388.439 1.21293 -2.87566 0
M  V30 4110 N 388.74 1.54641 0.303973 0
M  V30 4111 C 389.988 1.73437 1.0375 0
M  V30 4112 C 390.309 0.521449 1.87899 0
M  V30 4113 O 389.579 -0.46432 1.90318 0
M  V30 4114 H 388.159 0.639518 0.386039 0
M  V30 4115 H 390.821 1.91988 0.335675 0
M  V30 4116 H 389.917 2.62235 1.69231 0
M  V30 4117 N 390.218 -0.567019 1.47046 0
M  V30 4118 C 391.166 -1.69593 1.59188 0
M  V30 4119 C 392.16 -1.63046 0.459609 0
M  V30 4120 O 393.366 -1.6835 0.637058 0
M  V30 4121 H 389.741 -0.560993 0.500791 0
M  V30 4122 H 391.712 -1.56488 2.54075 0
M  V30 4123 C 390.461 -3.07964 1.61411 0
M  V30 4124 H 389.784 -3.13679 2.47881 0
M  V30 4125 H 391.224 -3.86671 1.73958 0
M  V30 4126 C 389.683 -3.35123 0.34559 0
M  V30 4127 O 390.213 -3.97812 -0.557521 0
M  V30 4128 N 388.419 -2.89699 0.22864 0
M  V30 4129 H 387.966 -2.38863 0.964479 0
M  V30 4130 H 387.924 -3.08242 -0.619192 0
M  V30 4131 N 391.696 -1.35014 -0.812953 0
M  V30 4132 C 393.112 -1.14914 -1.10757 0
M  V30 4133 C 393.312 0.0426818 -2.01455 0
M  V30 4134 O 392.368 0.715212 -2.42159 0
M  V30 4135 C 393.681 -2.44911 -1.74468 0
M  V30 4136 C 395.229 -2.5106 -1.86917 0
M  V30 4137 C 395.704 -3.81085 -2.54044 0
M  V30 4138 N 397.195 -3.82301 -2.61535 0
M  V30 4139 C 397.93 -4.79634 -3.14227 0
M  V30 4140 N 397.426 -5.87353 -3.67407 0
M  V30 4141 N 399.219 -4.67078 -3.12721 0
M  V30 4142 H 391.37 -2.1136 -0.20989 0
M  V30 4143 H 393.633 -0.935128 -0.155692 0
M  V30 4144 H 393.339 -3.32267 -1.15289 0
M  V30 4145 H 393.213 -2.58989 -2.74234 0
M  V30 4146 H 395.6 -1.64137 -2.45241 0
M  V30 4147 H 395.681 -2.40901 -0.860242 0
M  V30 4148 H 395.325 -4.68402 -1.96372 0
M  V30 4149 H 395.255 -3.88529 -3.55461 0
M  V30 4150 H 397.746 -3.04465 -2.23851 0
M  V30 4151 H 398.059 -6.57624 -4.05894 0
M  V30 4152 H 396.404 -5.91054 -3.65623 0
M  V30 4153 H 399.595 -3.82067 -2.70449 0
M  V30 4154 H 399.768 -5.43098 -3.53481 0
M  V30 4155 N 393.175 1.03435 -1.18907 0
M  V30 4156 C 394.424 1.76143 -0.982669 0
M  V30 4157 C 394.737 1.89416 0.487953 0
M  V30 4158 O 395.943 2.59041 0.813036 0
M  V30 4159 C 394.399 3.16722 -1.70924 0
M  V30 4160 C 394.007 3.11522 -3.21959 0
M  V30 4161 C 395.751 3.93764 -1.58588 0
M  V30 4162 C 393.658 4.46999 -3.87228 0
M  V30 4163 H 392.588 0.660292 -0.364047 0
M  V30 4164 H 395.239 1.158 -1.42347 0
M  V30 4165 H 393.621 3.775 -1.19623 0
M  V30 4166 H 394.795 2.60158 -3.80335 0
M  V30 4167 H 393.11 2.47978 -3.34508 0
M  V30 4168 H 395.707 4.93963 -2.04707 0
M  V30 4169 H 396.05 4.12794 -0.539142 0
M  V30 4170 H 396.583 3.39576 -2.07203 0
M  V30 4171 H 393.322 4.33174 -4.91976 0
M  V30 4172 H 392.842 4.98441 -3.33642 0
M  V30 4173 H 394.521 5.15898 -3.90459 0
M  V30 4174 N 394.653 0.992116 1.22453 0
M  V30 4175 C 395.563 0.55065 2.28046 0
M  V30 4176 C 396.579 -0.400189 1.69335 0
M  V30 4177 O 397.755 -0.267215 1.99619 0
M  V30 4178 C 394.82 -0.128496 3.46462 0
M  V30 4179 C 393.881 0.865208 4.20491 0
M  V30 4180 C 393.114 0.218377 5.33253 0
M  V30 4181 O 393.337 -0.987894 5.6178 0
M  V30 4182 O 392.271 0.922845 5.94783 0
M  V30 4183 H 396.097 1.4291 2.67975 0
M  V30 4184 H 393.682 0.760326 1.28606 0
M  V30 4185 H 395.564 -0.508947 4.18315 0
M  V30 4186 H 394.239 -0.981526 3.0846 0
M  V30 4187 H 393.146 1.29658 3.50913 0
M  V30 4188 H 394.479 1.68741 4.62371 0
M  V30 4189 N 396.131 -1.37776 0.765217 0
M  V30 4190 C 397.061 -2.32945 0.160953 0
M  V30 4191 C 398.042 -1.55454 -0.690516 0
M  V30 4192 O 399.227 -1.83721 -0.629318 0
M  V30 4193 C 396.357 -3.39669 -0.724031 0
M  V30 4194 C 395.311 -4.27992 0.0256173 0
M  V30 4195 C 394.637 -5.25673 -0.978383 0
M  V30 4196 C 395.937 -5.08309 1.20082 0
M  V30 4197 H 397.631 -2.83728 0.955969 0
M  V30 4198 H 395.177 -1.36416 0.461149 0
M  V30 4199 H 397.13 -4.05219 -1.15652 0
M  V30 4200 H 395.854 -2.87396 -1.5515 0
M  V30 4201 H 394.513 -3.63964 0.438812 0
M  V30 4202 H 394.161 -4.69682 -1.80022 0
M  V30 4203 H 393.861 -5.85625 -0.481378 0
M  V30 4204 H 395.385 -5.94098 -1.40995 0
M  V30 4205 H 396.799 -5.67034 0.845307 0
M  V30 4206 H 395.196 -5.77554 1.62947 0
M  V30 4207 H 396.266 -4.41365 2.00811 0
M  V30 4208 N 397.609 -0.515225 -1.4894 0
M  V30 4209 C 398.856 0.024215 -2.02486 0
M  V30 4210 C 399.184 1.35671 -1.39368 0
M  V30 4211 O 398.439 1.88566 -0.523574 0
M  V30 4212 C 398.738 0.210595 -3.56779 0
M  V30 4213 C 398.404 -1.04569 -4.38607 0
M  V30 4214 C 397.066 -1.39002 -4.60686 0
M  V30 4215 C 399.418 -1.88008 -4.86109 0
M  V30 4216 C 396.746 -2.568 -5.27514 0
M  V30 4217 C 399.098 -3.04972 -5.54234 0
M  V30 4218 C 397.762 -3.39768 -5.74555 0
M  V30 4219 H 397.032 0.00886088 -0.740947 0
M  V30 4220 H 399.679 -0.678263 -1.79086 0
M  V30 4221 H 397.984 0.99572 -3.78936 0
M  V30 4222 H 399.681 0.642659 -3.95817 0
M  V30 4223 H 396.271 -0.767497 -4.21672 0
M  V30 4224 H 400.455 -1.62719 -4.68867 0
M  V30 4225 H 395.711 -2.8398 -5.41447 0
M  V30 4226 H 399.885 -3.69943 -5.90013 0
M  V30 4227 H 397.512 -4.31148 -6.26112 0
M  V30 4228 N 399.087 1.5561 -0.249682 0
M  V30 4229 C 400.335 1.98618 0.373548 0
M  V30 4230 C 400.656 1.13919 1.58264 0
M  V30 4231 O 399.926 0.222637 1.94631 0
M  V30 4232 H 398.506 0.733571 0.141006 0
M  V30 4233 H 401.168 1.91748 -0.349117 0
M  V30 4234 H 400.264 3.04584 0.680796 0
M  V30 4235 N 400.565 -0.0233959 1.57583 0
M  V30 4236 C 401.475 -1.03907 2.10334 0
M  V30 4237 C 402.491 -1.39257 1.04323 0
M  V30 4238 O 403.667 -1.48462 1.36091 0
M  V30 4239 C 400.732 -2.31938 2.57693 0
M  V30 4240 C 399.793 -2.03117 3.78209 0
M  V30 4241 C 399.026 -3.25043 4.233 0
M  V30 4242 O 399.249 -4.35916 3.67876 0
M  V30 4243 O 398.183 -3.10411 5.15683 0
M  V30 4244 H 402.009 -0.620748 2.97288 0
M  V30 4245 H 399.594 -0.240743 1.47448 0
M  V30 4246 H 401.476 -3.07196 2.88458 0
M  V30 4247 H 400.151 -2.73055 1.73847 0
M  V30 4248 H 399.058 -1.25408 3.52454 0
M  V30 4249 H 400.391 -1.66852 4.63056 0
M  V30 4250 N 402.043 -1.548 -0.295768 0
M  V30 4251 C 403.006 -1.85363 -1.34808 0
M  V30 4252 C 404.006 -0.726817 -1.43436 0
M  V30 4253 O 405.196 -0.995088 -1.42981 0
M  V30 4254 C 402.328 -2.03859 -2.73229 0
M  V30 4255 H 403.521 -2.7941 -1.08949 0
M  V30 4256 H 401.074 -1.46942 -0.532702 0
M  V30 4257 H 401.809 -1.12117 -3.04303 0
M  V30 4258 H 401.594 -2.8588 -2.68356 0
M  V30 4259 H 403.084 -2.28857 -3.49305 0
M  V30 4260 N 403.521 0.559213 -1.47345 0
M  V30 4261 C 404.769 1.31388 -1.53563 0
M  V30 4262 C 405.09 1.93985 -0.198678 0
M  V30 4263 O 404.36 1.79825 0.777167 0
M  V30 4264 H 402.94 0.487901 -0.565652 0
M  V30 4265 H 405.602 0.65315 -1.8363 0
M  V30 4266 H 404.698 2.10844 -2.30111 0
M  V30 4267 N 404.999 1.35443 0.805782 0
M  V30 4268 C 406.229 1.31687 1.59192 0
M  V30 4269 C 406.637 -0.10756 1.88894 0
M  V30 4270 O 405.98 -1.07017 1.49309 0
M  V30 4271 C 406.042 2.05686 2.94845 0
M  V30 4272 C 405.706 3.54868 2.87954 0
M  V30 4273 C 406.703 4.49444 2.61335 0
M  V30 4274 C 404.388 3.97528 3.07046 0
M  V30 4275 C 406.382 5.84655 2.53885 0
M  V30 4276 C 404.069 5.32833 2.99219 0
M  V30 4277 C 405.067 6.26209 2.72674 0
M  V30 4278 O 404.755 7.59032 2.64811 0
M  V30 4279 H 404.487 0.453878 0.50097 0
M  V30 4280 H 407.041 1.78892 1.0093 0
M  V30 4281 H 405.271 1.5312 3.55093 0
M  V30 4282 H 406.96 1.94998 3.55993 0
M  V30 4283 H 407.726 4.17804 2.46303 0
M  V30 4284 H 403.605 3.25233 3.26718 0
M  V30 4285 H 407.149 6.57508 2.33086 0
M  V30 4286 H 403.046 5.64087 3.13809 0
M  V30 4287 H 403.814 7.68967 2.80413 0
M  V30 4288 N 406.477 -1.02803 1.19454 0
M  V30 4289 C 407.407 -2.12999 0.956758 0
M  V30 4290 C 408.388 -1.69743 -0.110188 0
M  V30 4291 O 409.573 -1.94148 0.0450038 0
M  V30 4292 C 406.703 -3.43746 0.495553 0
M  V30 4293 C 405.657 -4.00688 1.50443 0
M  V30 4294 C 404.983 -5.27067 0.900275 0
M  V30 4295 C 406.283 -4.35397 2.8849 0
M  V30 4296 H 407.977 -2.33148 1.87836 0
M  V30 4297 H 405.523 -1.12045 0.904539 0
M  V30 4298 H 407.476 -4.2021 0.316493 0
M  V30 4299 H 406.2 -3.23321 -0.461646 0
M  V30 4300 H 404.859 -3.2632 1.67065 0
M  V30 4301 H 404.507 -5.02959 -0.064503 0
M  V30 4302 H 404.207 -5.66127 1.57397 0
M  V30 4303 H 405.731 -6.06196 0.73203 0
M  V30 4304 H 407.145 -5.02795 2.75446 0
M  V30 4305 H 405.542 -4.85541 3.52661 0
M  V30 4306 H 406.612 -3.44662 3.41081 0
M  V30 4307 N 407.956 -0.998596 -1.21925 0
M  V30 4308 C 408.906 -0.524743 -2.21879 0
M  V30 4309 C 409.89 0.41017 -1.55584 0
M  V30 4310 O 411.082 0.236063 -1.75419 0
M  V30 4311 C 408.211 0.153636 -3.42956 0
M  V30 4312 C 407.297 -0.801918 -4.16449 0
M  V30 4313 N 407.688 -1.95211 -4.66611 0
M  V30 4314 C 405.986 -0.618972 -4.41684 0
M  V30 4315 C 406.687 -2.55234 -5.22715 0
M  V30 4316 N 405.663 -1.83451 -5.1171 0
M  V30 4317 H 409.465 -1.40189 -2.58311 0
M  V30 4318 H 406.979 -0.86159 -1.3766 0
M  V30 4319 H 408.976 0.510534 -4.13762 0
M  V30 4320 H 407.636 1.02684 -3.08036 0
M  V30 4321 H 408.647 -2.33271 -4.62391 0
M  V30 4322 H 405.324 0.207694 -4.16983 0
M  V30 4323 H 406.714 -3.52471 -5.72026 0
M  V30 4324 N 409.434 1.37368 -0.772513 0
M  V30 4325 C 410.364 2.32856 -0.173304 0
M  V30 4326 C 411.345 1.55818 0.682262 0
M  V30 4327 O 412.53 1.84052 0.619566 0
M  V30 4328 C 409.66 3.40048 0.706007 0
M  V30 4329 C 408.614 4.27973 -0.0483144 0
M  V30 4330 C 407.94 5.26184 0.950491 0
M  V30 4331 C 409.24 5.07665 -1.22776 0
M  V30 4332 H 410.934 2.83217 -0.971002 0
M  V30 4333 H 408.48 1.3617 -0.468377 0
M  V30 4334 H 410.433 4.05827 1.13501 0
M  V30 4335 H 409.157 2.88214 1.53623 0
M  V30 4336 H 407.816 3.63726 -0.458107 0
M  V30 4337 H 407.464 4.7063 1.77529 0
M  V30 4338 H 407.164 5.85872 0.450314 0
M  V30 4339 H 408.688 5.94838 1.37842 0
M  V30 4340 H 410.102 5.66578 -0.875366 0
M  V30 4341 H 408.499 5.76681 -1.66007 0
M  V30 4342 H 409.569 4.40294 -2.03149 0
M  V30 4343 N 410.912 0.523116 1.48665 0
M  V30 4344 C 412.189 -0.0775449 1.95446 0
M  V30 4345 C 412.569 -1.5197 1.4652 0
M  V30 4346 O 411.917 -2.17876 0.688657 0
M  V30 4347 C 412.127 0.0326135 3.48985 0
M  V30 4348 C 413.475 -0.130141 4.24401 0
M  V30 4349 O 414.499 -0.0415142 3.56176 0
M  V30 4350 O 413.358 -0.31491 5.45592 0
M  V30 4351 H 410.452 -0.0831012 0.822814 0
M  V30 4352 H 412.998 0.587227 1.59216 0
M  V30 4353 H 411.77 1.03748 3.77296 0
M  V30 4354 H 411.393 -0.671317 3.91892 0
M  V30 4355 N 412.39 -1.55475 0.257931 0
M  V30 4356 C 413.801 -1.8511 -0.243135 0
M  V30 4357 C 414.152 -1.17986 -1.5676 0
M  V30 4358 O 413.277 -0.462102 -2.11409 0
M  V30 4359 C 413.872 -3.35826 -0.447929 0
M  V30 4360 C 412.431 -3.65647 -0.893245 0
M  V30 4361 C 411.578 -2.7729 0.0232965 0
M  V30 4362 H 414.529 -1.51261 0.480199 0
M  V30 4363 H 414.55 -3.58002 -1.28898 0
M  V30 4364 H 414.062 -3.84652 0.516196 0
M  V30 4365 H 412.163 -3.22308 -1.86945 0
M  V30 4366 H 412.276 -4.73312 -0.742469 0
M  V30 4367 H 410.64 -2.49942 -0.490021 0
M  V30 4368 H 411.423 -3.28926 0.982994 0
M  V30 4369 N 413.868 0.0150385 -1.57593 0
M  V30 4370 C 415.145 0.7392 -1.81094 0
M  V30 4371 C 415.525 1.92817 -0.859344 0
M  V30 4372 O 414.873 2.28301 0.095362 0
M  V30 4373 C 415.083 1.15907 -3.29191 0
M  V30 4374 C 416.431 1.56918 -3.9454 0
M  V30 4375 O 417.455 1.25328 -3.33424 0
M  V30 4376 O 416.314 2.15604 -5.02173 0
M  V30 4377 H 413.408 0.358631 -0.745193 0
M  V30 4378 H 415.954 -0.00926156 -1.69697 0
M  V30 4379 H 414.726 0.310921 -3.90063 0
M  V30 4380 H 414.349 1.96711 -3.45529 0
M  V30 4381 N 415.346 1.54954 0.287554 0
M  V30 4382 C 416.309 1.86076 1.33823 0
M  V30 4383 C 417.309 0.734414 1.43049 0
M  V30 4384 O 418.499 1.00266 1.42452 0
M  V30 4385 C 415.631 2.05305 2.72144 0
M  V30 4386 H 416.824 2.79984 1.07465 0
M  V30 4387 H 414.377 1.47223 0.524902 0
M  V30 4388 H 415.112 1.1373 3.03704 0
M  V30 4389 H 414.897 2.873 2.66836 0
M  V30 4390 H 416.387 2.30706 3.48087 0
M  V30 4391 N 416.824 -0.551391 1.4764 0
M  V30 4392 C 417.734 -1.68525 1.63207 0
M  V30 4393 C 418.75 -1.6621 0.514815 0
M  V30 4394 O 419.926 -1.85551 0.783113 0
M  V30 4395 C 416.991 -3.05025 1.64805 0
M  V30 4396 C 416.052 -3.18362 2.88 0
M  V30 4397 C 415.285 -4.4835 2.89513 0
M  V30 4398 O 415.508 -5.34163 2.00065 0
M  V30 4399 O 414.442 -4.65602 3.81443 0
M  V30 4400 H 418.268 -1.58333 2.59161 0
M  V30 4401 H 415.853 -0.722063 1.30792 0
M  V30 4402 H 417.735 -3.86245 1.68502 0
M  V30 4403 H 416.41 -3.15587 0.720197 0
M  V30 4404 H 415.317 -2.36518 2.89845 0
M  V30 4405 H 416.65 -3.12707 3.80099 0
M  V30 4406 N 418.302 -1.35869 -0.798587 0
M  V30 4407 C 419.53 -1.32722 -1.58722 0
M  V30 4408 C 419.945 0.0935631 -1.88568 0
M  V30 4409 O 419.302 1.04784 -1.49421 0
M  V30 4410 C 419.353 -2.13974 -2.91371 0
M  V30 4411 O 419.074 -3.50514 -2.62815 0
M  V30 4412 C 420.575 -2.18504 -3.85708 0
M  V30 4413 H 417.795 -0.45562 -0.492596 0
M  V30 4414 H 420.339 -1.78837 -0.991843 0
M  V30 4415 H 418.494 -1.71438 -3.47402 0
M  V30 4416 H 418.908 -3.92806 -3.47568 0
M  V30 4417 H 420.382 -2.79732 -4.75872 0
M  V30 4418 H 420.859 -1.18597 -4.22885 0
M  V30 4419 H 421.465 -2.61236 -3.35612 0
M  V30 4420 N 419.78 1.02168 -1.19998 0
M  V30 4421 C 420.727 2.10601 -0.944228 0
M  V30 4422 C 421.697 1.65639 0.123664 0
M  V30 4423 O 422.882 1.9079 -0.0199941 0
M  V30 4424 C 420.022 3.41504 -0.496865 0
M  V30 4425 C 419.135 3.99973 -1.63234 0
M  V30 4426 C 418.27 5.18915 -1.13579 0
M  V30 4427 C 417.309 5.69456 -2.24468 0
M  V30 4428 N 416.446 6.79665 -1.76068 0
M  V30 4429 H 421.286 2.31814 -1.8726 0
M  V30 4430 H 418.823 1.13686 -0.933483 0
M  V30 4431 H 420.781 4.16626 -0.218843 0
M  V30 4432 H 419.411 3.2038 0.394508 0
M  V30 4433 H 418.463 3.21997 -2.0254 0
M  V30 4434 H 419.775 4.33492 -2.46752 0
M  V30 4435 H 418.929 6.01222 -0.813429 0
M  V30 4436 H 417.668 4.8695 -0.270434 0
M  V30 4437 H 416.673 4.85757 -2.57526 0
M  V30 4438 H 417.898 6.03459 -3.11472 0
M  V30 4439 H 415.844 6.49538 -0.918516 0
M  V30 4440 H 415.761 7.12349 -2.5317 0
M  V30 4441 H 417.029 7.65549 -1.46817 0
M  V30 4442 N 421.258 1.00505 1.21394 0
M  V30 4443 C 422.486 0.706609 1.9446 0
M  V30 4444 C 422.901 -0.73081 1.74082 0
M  V30 4445 O 422.258 -1.49446 1.04747 0
M  V30 4446 C 422.309 1.01824 3.46863 0
M  V30 4447 O 422.03 2.39919 3.66566 0
M  V30 4448 C 423.531 0.739216 4.37093 0
M  V30 4449 H 420.751 0.260394 0.618414 0
M  V30 4450 H 423.295 1.34311 1.54211 0
M  V30 4451 H 421.45 0.427343 3.85036 0
M  V30 4452 H 421.864 2.50784 4.6066 0
M  V30 4453 H 423.338 1.00744 5.42729 0
M  V30 4454 H 423.815 -0.326746 4.37983 0
M  V30 4455 H 424.421 1.31173 4.04566 0
M  V30 4456 N 422.737 -1.36956 0.779787 0
M  V30 4457 C 423.983 -2.00237 0.357324 0
M  V30 4458 C 424.338 -1.60787 -1.05666 0
M  V30 4459 O 423.631 -0.847836 -1.71821 0
M  V30 4460 C 423.825 -3.54585 0.447686 0
M  V30 4461 C 423.654 -4.09025 1.86891 0
M  V30 4462 C 422.424 -4.39612 2.49138 0
M  V30 4463 C 424.622 -4.29461 2.82963 0
M  V30 4464 N 422.604 -4.79816 3.82949 0
M  V30 4465 C 423.975 -4.72363 4.01588 0
M  V30 4466 C 426.03 -4.1161 2.80145 0
M  V30 4467 C 424.733 -4.99284 5.17791 0
M  V30 4468 C 426.759 -4.39672 3.95528 0
M  V30 4469 C 426.121 -4.82822 5.12896 0
M  V30 4470 H 422.22 -0.76148 0.177968 0
M  V30 4471 H 424.804 -1.6613 1.01533 0
M  V30 4472 H 422.975 -3.87982 -0.180184 0
M  V30 4473 H 424.707 -4.047 0.0023955 0
M  V30 4474 H 421.462 -4.28975 2.00693 0
M  V30 4475 H 421.886 -5.04216 4.51769 0
M  V30 4476 H 426.528 -3.77415 1.90572 0
M  V30 4477 H 424.246 -5.32365 6.07958 0
M  V30 4478 H 427.832 -4.27441 3.94697 0
M  V30 4479 H 426.712 -5.04118 6.00695 0
M  V30 4480 N 424.215 -0.530993 -1.48385 0
M  V30 4481 C 425.147 0.268353 -2.27624 0
M  V30 4482 C 426.16 0.903525 -1.35426 0
M  V30 4483 O 427.349 0.781796 -1.60469 0
M  V30 4484 C 424.449 1.39535 -3.08842 0
M  V30 4485 C 423.622 0.861913 -4.28824 0
M  V30 4486 C 422.681 1.87016 -4.91845 0
M  V30 4487 O 421.707 1.4267 -5.5103 0
M  V30 4488 N 422.909 3.20238 -4.84178 0
M  V30 4489 H 425.674 -0.41123 -2.96865 0
M  V30 4490 H 423.235 -0.365387 -1.57723 0
M  V30 4491 H 425.227 2.06803 -3.47871 0
M  V30 4492 H 423.797 1.97859 -2.42014 0
M  V30 4493 H 423.017 0.0132126 -3.94198 0
M  V30 4494 H 424.305 0.484415 -5.06489 0
M  V30 4495 H 423.703 3.58932 -4.37246 0
M  V30 4496 H 422.26 3.83136 -5.27305 0
M  V30 4497 N 425.693 1.55336 -0.266172 0
M  V30 4498 C 426.626 2.18256 0.666296 0
M  V30 4499 C 427.604 1.14064 1.1588 0
M  V30 4500 O 428.788 1.42546 1.23341 0
M  V30 4501 C 425.915 2.79867 1.90768 0
M  V30 4502 C 424.961 3.97283 1.55141 0
M  V30 4503 S 425.794 5.31694 0.637313 0
M  V30 4504 C 426.95 5.96769 1.88727 0
M  V30 4505 H 427.183 2.97008 0.131647 0
M  V30 4506 H 424.716 1.54317 -0.0504869 0
M  V30 4507 H 426.674 3.15996 2.62025 0
M  V30 4508 H 425.335 2.01025 2.41346 0
M  V30 4509 H 424.528 4.3905 2.4749 0
M  V30 4510 H 424.13 3.6253 0.919113 0
M  V30 4511 H 426.422 6.15458 2.83227 0
M  V30 4512 H 427.365 6.91752 1.51276 0
M  V30 4513 H 427.773 5.26034 2.04814 0
M  V30 4514 N 427.171 -0.0066808 1.57599 0
M  V30 4515 C 428.396 -0.707738 1.94951 0
M  V30 4516 C 428.821 -1.66882 0.867868 0
M  V30 4517 O 428.179 -1.80457 -0.17458 0
M  V30 4518 C 428.227 -1.42162 3.31394 0
M  V30 4519 O 427.331 -2.53578 3.25226 0
M  V30 4520 H 426.672 -0.188752 0.636607 0
M  V30 4521 H 429.202 0.0445193 2.04552 0
M  V30 4522 H 429.212 -1.78655 3.66806 0
M  V30 4523 H 427.887 -0.716903 4.09675 0
M  V30 4524 H 426.464 -2.19463 3.01481 0
M  V30 4525 N 428.649 -1.55105 -0.279332 0
M  V30 4526 C 429.926 -1.66119 -1.03267 0
M  V30 4527 C 430.306 -0.523525 -2.04505 0
M  V30 4528 O 429.654 0.477194 -2.23462 0
M  V30 4529 C 429.864 -3.05067 -1.69515 0
M  V30 4530 C 431.212 -3.62606 -2.20912 0
M  V30 4531 O 432.236 -3.07659 -1.79512 0
M  V30 4532 O 431.095 -4.58861 -2.96831 0
M  V30 4533 H 428.189 -0.674429 -0.478618 0
M  V30 4534 H 430.735 -1.67446 -0.275694 0
M  V30 4535 H 429.507 -3.79311 -0.9612 0
M  V30 4536 H 429.13 -3.07611 -2.51915 0
M  V30 4537 N 430.127 0.543554 -1.4793 0
M  V30 4538 C 431.376 1.29649 -1.54512 0
M  V30 4539 C 431.689 1.94382 -0.217973 0
M  V30 4540 O 432.895 2.71017 -0.161908 0
M  V30 4541 C 431.351 2.35175 -2.72435 0
M  V30 4542 C 430.959 1.76572 -4.11736 0
M  V30 4543 C 432.703 3.11564 -2.8832 0
M  V30 4544 C 430.61 2.79958 -5.20939 0
M  V30 4545 H 429.54 0.487541 -0.57517 0
M  V30 4546 H 432.191 0.575708 -1.74235 0
M  V30 4547 H 430.573 3.10229 -2.46118 0
M  V30 4548 H 431.747 1.07799 -4.48013 0
M  V30 4549 H 430.062 1.12722 -4.00852 0
M  V30 4550 H 432.659 3.88794 -3.67074 0
M  V30 4551 H 433.002 3.66594 -1.97268 0
M  V30 4552 H 433.535 2.43623 -3.14472 0
M  V30 4553 H 430.274 2.29766 -6.13912 0
M  V30 4554 H 429.794 3.47101 -4.89164 0
M  V30 4555 H 431.473 3.43198 -5.48474 0
M  V30 4556 N 431.605 1.3629 0.791371 0
M  V30 4557 C 432.882 1.20962 1.53712 0
M  V30 4558 C 433.262 -0.205021 2.10102 0
M  V30 4559 O 432.61 -1.21042 1.93807 0
M  V30 4560 C 432.82 2.29002 2.63361 0
M  V30 4561 C 434.168 2.65572 3.31295 0
M  V30 4562 O 435.192 2.2803 2.73643 0
M  V30 4563 O 434.051 3.3018 4.35481 0
M  V30 4564 H 431.145 0.47086 0.679867 0
M  V30 4565 H 433.691 1.48016 0.830021 0
M  V30 4566 H 432.463 3.2382 2.19674 0
M  V30 4567 H 432.086 2.03303 3.41692 0
M  V30 4568 N 433.083 -1.0153 1.20538 0
M  V30 4569 C 434.311 -1.78746 1.04199 0
M  V30 4570 C 434.726 -1.84323 -0.408733 0
M  V30 4571 O 434.083 -1.29714 -1.28377 0
M  V30 4572 C 434.134 -3.23152 1.62035 0
M  V30 4573 O 433.855 -3.17918 3.0143 0
M  V30 4574 C 435.356 -4.16911 1.50666 0
M  V30 4575 H 432.576 -0.56208 0.366479 0
M  V30 4576 H 435.12 -1.27794 1.59653 0
M  V30 4577 H 433.275 -3.71248 1.10697 0
M  V30 4578 H 433.689 -4.08567 3.28897 0
M  V30 4579 H 435.163 -5.16072 1.95892 0
M  V30 4580 H 435.64 -4.36791 0.459363 0
M  V30 4581 H 436.246 -3.74698 2.01201 0
M  V30 4582 N 434.561 -1.01147 -1.20859 0
M  V30 4583 C 435.809 -0.696486 -1.89719 0
M  V30 4584 C 436.13 0.775788 -1.78904 0
M  V30 4585 O 435.4 1.55759 -1.18811 0
M  V30 4586 H 433.98 -0.254628 -0.702263 0
M  V30 4587 H 436.642 -1.28197 -1.46804 0
M  V30 4588 H 435.738 -0.975357 -2.96468 0
M  V30 4589 N 436.039 1.36541 -0.78704 0
M  V30 4590 C 436.969 2.32659 -0.197992 0
M  V30 4591 C 437.95 1.56533 0.665697 0
M  V30 4592 O 439.135 1.84698 0.60001 0
M  V30 4593 C 436.265 3.40778 0.669901 0
M  V30 4594 C 435.219 4.27897 -0.0937039 0
M  V30 4595 C 434.545 5.27163 0.894629 0
M  V30 4596 C 435.845 5.06334 -1.28154 0
M  V30 4597 H 437.539 2.82171 -1.00099 0
M  V30 4598 H 435.085 1.35665 -0.482793 0
M  V30 4599 H 437.038 4.07008 1.09191 0
M  V30 4600 H 435.762 2.89827 1.50558 0
M  V30 4601 H 434.421 3.6322 -0.49666 0
M  V30 4602 H 434.069 4.72486 1.72527 0
M  V30 4603 H 433.769 5.86317 0.388149 0
M  V30 4604 H 435.293 5.96266 1.31525 0
M  V30 4605 H 436.707 5.65617 -0.93541 0
M  V30 4606 H 435.104 5.74888 -1.72115 0
M  V30 4607 H 436.174 4.38114 -2.07807 0
M  V30 4608 N 437.518 0.538854 1.48102 0
M  V30 4609 C 438.481 -0.208395 2.28251 0
M  V30 4610 C 439.481 -0.859656 1.35892 0
M  V30 4611 O 440.671 -0.71834 1.58699 0
M  V30 4612 C 437.803 -1.30252 3.15035 0
M  V30 4613 H 438.996 0.495407 2.9578 0
M  V30 4614 H 436.549 0.295112 1.53489 0
M  V30 4615 H 437.284 -2.0393 2.52157 0
M  V30 4616 H 437.069 -0.840551 3.82985 0
M  V30 4617 H 438.559 -1.82787 3.75471 0
M  V30 4618 N 438.996 -1.55193 0.274407 0
M  V30 4619 C 440.242 -1.99877 -0.343086 0
M  V30 4620 C 440.575 -1.16256 -1.55558 0
M  V30 4621 O 439.85 -0.232462 -1.93106 0
M  V30 4622 C 440.133 -3.52706 -0.725965 0
M  V30 4623 C 439.986 -4.47081 0.493818 0
M  V30 4624 C 441.305 -4.11422 -1.56268 0
M  V30 4625 H 438.424 -0.726625 -0.123229 0
M  V30 4626 H 441.066 -1.86136 0.38121 0
M  V30 4627 H 439.216 -3.64546 -1.34307 0
M  V30 4628 H 440.888 -4.47186 1.13237 0
M  V30 4629 H 439.131 -4.1877 1.13201 0
M  V30 4630 H 439.802 -5.51699 0.18217 0
M  V30 4631 H 442.278 -4.02855 -1.04151 0
M  V30 4632 H 441.154 -5.18568 -1.79939 0
M  V30 4633 H 441.415 -3.61607 -2.54348 0
M  V30 4634 N 440.474 -0.00167713 -1.576 0
M  V30 4635 C 441.722 0.681471 -1.90264 0
M  V30 4636 C 442.043 1.7422 -0.875924 0
M  V30 4637 O 441.313 1.95709 0.0864412 0
M  V30 4638 H 439.893 0.254696 -0.702239 0
M  V30 4639 H 442.555 -0.0429996 -1.94853 0
M  V30 4640 H 441.651 1.15166 -2.90075 0
M  V30 4641 N 441.952 1.55251 0.271103 0
M  V30 4642 C 443.2 1.75599 1.00047 0
M  V30 4643 C 443.521 0.561188 1.8675 0
M  V30 4644 O 442.791 -0.423846 1.9126 0
M  V30 4645 H 441.371 0.647562 0.372387 0
M  V30 4646 H 444.033 1.92656 0.294876 0
M  V30 4647 H 443.129 2.65766 1.6363 0
M  V30 4648 N 443.43 -0.535701 1.48216 0
M  V30 4649 C 444.393 -1.623 1.61838 0
M  V30 4650 C 445.393 -1.53087 0.492024 0
M  V30 4651 O 446.583 -1.5686 0.757668 0
M  V30 4652 C 443.715 -3.01907 1.58319 0
M  V30 4653 H 444.908 -1.51564 2.58783 0
M  V30 4654 H 442.461 -0.757317 1.36727 0
M  V30 4655 H 443.196 -3.18155 0.628299 0
M  V30 4656 H 442.981 -3.10003 2.40085 0
M  V30 4657 H 444.471 -3.80969 1.71033 0
M  V30 4658 N 444.908 -1.36708 -0.784132 0
M  V30 4659 C 445.855 -1.31466 -1.89698 0
M  V30 4660 C 446.825 -0.18239 -1.65096 0
M  V30 4661 O 448.01 -0.369762 -1.87183 0
M  V30 4662 C 445.15 -1.1151 -3.26588 0
M  V30 4663 C 444.263 -2.33859 -3.63227 0
M  V30 4664 C 443.398 -2.06873 -4.89262 0
M  V30 4665 C 442.437 -3.25154 -5.18595 0
M  V30 4666 N 441.574 -2.978 -6.35814 0
M  V30 4667 H 446.414 -2.26619 -1.93515 0
M  V30 4668 H 443.951 -1.12625 -0.946256 0
M  V30 4669 H 445.909 -0.979653 -4.05535 0
M  V30 4670 H 444.539 -0.200103 -3.22179 0
M  V30 4671 H 443.591 -2.58188 -2.79362 0
M  V30 4672 H 444.903 -3.22109 -3.8085 0
M  V30 4673 H 444.057 -1.90289 -5.76086 0
M  V30 4674 H 442.796 -1.15942 -4.73718 0
M  V30 4675 H 441.801 -3.42292 -4.30251 0
M  V30 4676 H 443.026 -4.1692 -5.36055 0
M  V30 4677 H 440.972 -2.09485 -6.21653 0
M  V30 4678 H 440.889 -3.7959 -6.53794 0
M  V30 4679 H 442.157 -2.84805 -7.25607 0
M  V30 4680 N 446.386 1.0089 -1.21074 0
M  V30 4681 C 447.316 2.1145 -0.990523 0
M  V30 4682 C 448.297 1.69897 0.0831699 0
M  V30 4683 O 449.482 1.94052 -0.0758853 0
M  V30 4684 C 446.612 3.42914 -0.550177 0
M  V30 4685 C 445.566 3.98244 -1.56799 0
M  V30 4686 C 444.892 5.25568 -0.984013 0
M  V30 4687 C 446.192 4.30752 -2.95381 0
M  V30 4688 H 447.886 2.3013 -1.91521 0
M  V30 4689 H 445.432 1.10592 -0.92225 0
M  V30 4690 H 447.385 4.19653 -0.383305 0
M  V30 4691 H 446.109 3.24014 0.41015 0
M  V30 4692 H 444.768 3.23621 -1.72236 0
M  V30 4693 H 444.416 5.02998 -0.0155216 0
M  V30 4694 H 444.116 5.63551 -1.66384 0
M  V30 4695 H 445.64 6.04955 -0.828378 0
M  V30 4696 H 447.054 4.98349 -2.8341 0
M  V30 4697 H 445.451 4.79869 -3.60341 0
M  V30 4698 H 446.521 3.39192 -3.46521 0
M  V30 4699 N 447.864 1.01787 1.20321 0
M  V30 4700 C 449.275 0.739307 1.71438 0
M  V30 4701 C 449.626 -0.742041 1.81627 0
M  V30 4702 O 448.751 -1.57903 1.47971 0
M  V30 4703 C 449.346 1.33538 3.11373 0
M  V30 4704 C 447.905 1.10566 3.59795 0
M  V30 4705 C 447.052 1.44028 2.36962 0
M  V30 4706 H 450.003 1.18718 1.05317 0
M  V30 4707 H 450.024 0.726611 3.73498 0
M  V30 4708 H 449.536 2.41352 3.03926 0
M  V30 4709 H 447.637 0.0452405 3.72573 0
M  V30 4710 H 447.75 1.78661 4.44542 0
M  V30 4711 H 446.114 0.85933 2.39766 0
M  V30 4712 H 446.897 2.52901 2.32155 0
M  V30 4713 N 449.342 -1.36122 0.79427 0
M  V30 4714 C 450.588 -1.99846 0.378542 0
M  V30 4715 C 450.943 -1.61898 -1.03955 0
M  V30 4716 O 450.236 -0.866013 -1.70912 0
M  V30 4717 C 450.43 -3.5409 0.48527 0
M  V30 4718 C 450.259 -4.0702 1.91219 0
M  V30 4719 C 449.029 -4.36944 2.53787 0
M  V30 4720 C 451.227 -4.26435 2.87502 0
M  V30 4721 N 449.209 -4.75727 3.88017 0
M  V30 4722 C 450.58 -4.68077 4.06576 0
M  V30 4723 C 452.635 -4.08616 2.84495 0
M  V30 4724 C 451.338 -4.93765 5.23057 0
M  V30 4725 C 453.364 -4.35453 4.00169 0
M  V30 4726 C 452.726 -4.77355 5.17988 0
M  V30 4727 H 448.825 -0.759549 0.186034 0
M  V30 4728 H 451.409 -1.65043 1.0329 0
M  V30 4729 H 449.58 -3.88151 -0.139023 0
M  V30 4730 H 451.312 -4.04675 0.0453192 0
M  V30 4731 H 448.067 -4.26822 2.05231 0
M  V30 4732 H 448.491 -4.99396 4.57092 0
M  V30 4733 H 453.133 -3.75373 1.94564 0
M  V30 4734 H 450.851 -5.25887 6.1357 0
M  V30 4735 H 454.437 -4.2323 3.99208 0
M  V30 4736 H 453.317 -4.97718 6.06008 0
M  V30 4737 N 450.82 -0.546701 -1.47814 0
M  V30 4738 C 451.73 0.21026 -2.33656 0
M  V30 4739 C 452.746 0.922413 -1.47538 0
M  V30 4740 O 453.922 0.893652 -1.80488 0
M  V30 4741 C 450.987 1.23348 -3.24016 0
M  V30 4742 C 450.048 0.529883 -4.26017 0
M  V30 4743 C 449.281 1.50435 -5.12059 0
M  V30 4744 O 449.504 2.73837 -5.00369 0
M  V30 4745 O 448.438 1.03459 -5.92942 0
M  V30 4746 H 452.264 -0.493605 -2.99662 0
M  V30 4747 H 449.849 -0.307427 -1.46203 0
M  V30 4748 H 451.731 1.82438 -3.79861 0
M  V30 4749 H 450.406 1.91945 -2.60651 0
M  V30 4750 H 449.313 -0.101948 -3.73961 0
M  V30 4751 H 450.646 -0.11445 -4.92067 0
M  V30 4752 N 452.299 1.55045 -0.282633 0
M  V30 4753 C 453.524 2.04628 0.337977 0
M  V30 4754 C 453.949 1.15937 1.48123 0
M  V30 4755 O 453.307 0.159532 1.80597 0
M  V30 4756 C 453.355 3.51854 0.78936 0
M  V30 4757 O 452.459 3.66236 1.89592 0
M  V30 4758 H 451.8 0.660434 0.0687261 0
M  V30 4759 H 454.33 2.00261 -0.419124 0
M  V30 4760 H 454.34 3.93361 1.08311 0
M  V30 4761 H 453.015 4.15873 -0.0470419 0
M  V30 4762 H 451.592 3.36633 1.60413 0
M  V30 4763 N 453.777 0.010035 1.57597 0
M  V30 4764 C 455.007 -0.682422 1.95004 0
M  V30 4765 C 455.415 -1.67278 0.884014 0
M  V30 4766 O 454.758 -1.83129 -0.144672 0
M  V30 4767 C 454.82 -1.46141 3.28456 0
M  V30 4768 C 454.484 -0.631523 4.52615 0
M  V30 4769 C 455.481 0.0850905 5.1983 0
M  V30 4770 C 453.166 -0.574539 4.99003 0
M  V30 4771 C 455.16 0.847566 6.3174 0
M  V30 4772 C 452.847 0.191655 6.10799 0
M  V30 4773 C 453.845 0.901432 6.77025 0
M  V30 4774 O 453.533 1.65511 7.86677 0
M  V30 4775 H 453.265 -0.194361 0.647456 0
M  V30 4776 H 455.819 0.060312 2.05311 0
M  V30 4777 H 454.049 -2.24885 3.14585 0
M  V30 4778 H 455.738 -2.04016 3.50902 0
M  V30 4779 H 456.504 0.0502812 4.84974 0
M  V30 4780 H 452.383 -1.11654 4.47274 0
M  V30 4781 H 455.927 1.4021 6.83364 0
M  V30 4782 H 451.824 0.228249 6.45096 0
M  V30 4783 H 452.592 1.57287 8.03245 0
M  V30 4784 N 455.255 -1.55392 -0.262866 0
M  V30 4785 C 456.502 -1.76476 -0.993109 0
M  V30 4786 C 456.83 -0.571479 -1.85915 0
M  V30 4787 O 456.085 0.445733 -1.90556 0
M  V30 4788 C 456.384 -3.02889 -1.89718 0
M  V30 4789 C 456.05 -4.34974 -1.18781 0
M  V30 4790 C 454.712 -4.7087 -0.991699 0
M  V30 4791 C 457.064 -5.16695 -0.683798 0
M  V30 4792 C 454.392 -5.86036 -0.279024 0
M  V30 4793 C 456.744 -6.32598 0.0153327 0
M  V30 4794 C 455.408 -6.67127 0.223062 0
M  V30 4795 H 454.678 -0.64577 -0.363404 0
M  V30 4796 H 457.325 -1.89664 -0.264525 0
M  V30 4797 H 455.63 -2.84644 -2.6923 0
M  V30 4798 H 457.327 -3.16399 -2.46359 0
M  V30 4799 H 453.917 -4.06765 -1.35058 0
M  V30 4800 H 458.101 -4.8943 -0.8229 0
M  V30 4801 H 453.357 -6.11306 -0.107456 0
M  V30 4802 H 457.531 -6.95171 0.413584 0
M  V30 4803 H 455.158 -7.56216 0.777265 0
M  V30 4804 N 456.733 0.527833 -1.48498 0
M  V30 4805 C 457.961 1.30823 -1.6029 0
M  V30 4806 C 458.376 1.86945 -0.263974 0
M  V30 4807 O 457.733 1.6651 0.747034 0
M  V30 4808 C 457.784 2.45756 -2.65116 0
M  V30 4809 O 457.505 1.91946 -3.93813 0
M  V30 4810 C 459.006 3.37543 -2.87367 0
M  V30 4811 H 456.226 0.397763 -0.540394 0
M  V30 4812 H 458.77 0.636529 -1.94341 0
M  V30 4813 H 456.925 3.08806 -2.33917 0
M  V30 4814 H 457.339 2.67195 -4.51339 0
M  V30 4815 H 458.813 4.14532 -3.6451 0
M  V30 4816 H 459.29 3.92905 -1.9627 0
M  V30 4817 H 459.896 2.80283 -3.19878 0
M  V30 4818 N 458.211 1.37122 0.776871 0
M  V30 4819 C 459.441 1.35034 1.56363 0
M  V30 4820 C 459.849 -0.0674681 1.8908 0
M  V30 4821 O 459.192 -1.03826 1.51545 0
M  V30 4822 C 459.254 2.11894 2.90415 0
M  V30 4823 C 458.918 3.60897 2.80362 0
M  V30 4824 C 459.915 4.54887 2.51742 0
M  V30 4825 C 457.6 4.03951 2.98545 0
M  V30 4826 C 459.594 5.89909 2.41426 0
M  V30 4827 C 457.281 5.3906 2.87849 0
M  V30 4828 C 458.279 6.31852 2.5933 0
M  V30 4829 O 457.967 7.64479 2.48651 0
M  V30 4830 H 457.699 0.464402 0.49123 0
M  V30 4831 H 460.253 1.80992 0.971127 0
M  V30 4832 H 458.483 1.60618 3.51765 0
M  V30 4833 H 460.172 2.02505 3.51776 0
M  V30 4834 H 460.938 4.22934 2.37385 0
M  V30 4835 H 456.817 3.3209 3.19746 0
M  V30 4836 H 460.361 6.62304 2.19086 0
M  V30 4837 H 456.258 5.70617 3.01773 0
M  V30 4838 H 457.026 7.74742 2.64039 0
M  V30 4839 N 459.689 -1.00246 1.21608 0
M  V30 4840 C 460.937 -1.73717 1.0328 0
M  V30 4841 C 461.258 -1.90102 -0.434318 0
M  V30 4842 O 460.528 -1.45376 -1.31311 0
M  V30 4843 H 459.108 -0.643613 0.379172 0
M  V30 4844 H 461.77 -1.20787 1.52959 0
M  V30 4845 H 460.866 -2.73535 1.50283 0
M  V30 4846 N 461.167 -1.02423 -1.1978 0
M  V30 4847 C 462.395 -0.737456 -1.93311 0
M  V30 4848 C 462.81 0.703023 -1.75223 0
M  V30 4849 O 462.167 1.47761 -1.07112 0
M  V30 4850 C 462.218 -1.0733 -3.45199 0
M  V30 4851 O 461.939 -2.4572 -3.62702 0
M  V30 4852 C 463.44 -0.80866 -4.35862 0
M  V30 4853 H 460.66 -0.2702 -0.614193 0
M  V30 4854 H 463.204 -1.36747 -1.52054 0
M  V30 4855 H 461.359 -0.488545 -3.84307 0
M  V30 4856 H 461.773 -2.58081 -4.56612 0
M  V30 4857 H 463.247 -1.09365 -5.41057 0
M  V30 4858 H 463.724 0.257025 -4.38447 0
M  V30 4859 H 464.33 -1.37592 -4.02428 0
M  V30 4860 N 462.645 1.35699 -0.801477 0
M  V30 4861 C 464.056 1.81415 -0.441073 0
M  V30 4862 C 464.407 1.66595 1.03636 0
M  V30 4863 O 463.532 1.19369 1.80499 0
M  V30 4864 C 464.127 3.29369 -0.793819 0
M  V30 4865 C 462.686 3.73248 -0.486083 0
M  V30 4866 C 461.833 2.57775 -1.02213 0
M  V30 4867 H 464.784 1.23749 -0.993572 0
M  V30 4868 H 464.805 3.80395 -0.0894158 0
M  V30 4869 H 464.317 3.40123 -1.86917 0
M  V30 4870 H 462.418 3.68046 0.580735 0
M  V30 4871 H 462.531 4.68222 -1.01513 0
M  V30 4872 H 460.895 2.50788 -0.444712 0
M  V30 4873 H 461.678 2.71309 -2.10348 0
M  V30 4874 N 464.123 0.554532 1.47522 0
M  V30 4875 C 465.348 0.0322661 2.07375 0
M  V30 4876 C 465.773 -1.25079 1.40488 0
M  V30 4877 O 465.131 -1.74859 0.47896 0
M  V30 4878 C 465.179 -0.149397 3.6029 0
M  V30 4879 O 464.283 -1.21259 3.9417 0
M  V30 4880 H 463.624 0.0501228 0.662106 0
M  V30 4881 H 466.154 0.769452 1.8958 0
M  V30 4882 H 466.164 -0.364437 4.06369 0
M  V30 4883 H 464.839 0.787743 4.08372 0
M  V30 4884 H 463.416 -0.97825 3.5984 0
M  V30 4885 N 465.601 -1.54893 0.290851 0
M  V30 4886 C 467.012 -1.85584 -0.203816 0
M  V30 4887 C 467.363 -1.21285 -1.54222 0
M  V30 4888 O 466.488 -0.506841 -2.10381 0
M  V30 4889 C 467.083 -3.367 -0.376595 0
M  V30 4890 C 465.642 -3.6746 -0.815485 0
M  V30 4891 C 464.789 -2.77178 0.0821087 0
M  V30 4892 H 467.74 -1.50208 0.512175 0
M  V30 4893 H 467.761 -3.60656 -1.21275 0
M  V30 4894 H 467.273 -3.8347 0.59767 0
M  V30 4895 H 465.374 -3.26201 -1.80066 0
M  V30 4896 H 465.487 -4.7478 -0.641905 0
M  V30 4897 H 463.851 -2.50925 -0.436895 0
M  V30 4898 H 464.634 -3.26767 1.05254 0
M  V30 4899 N 467.08 -0.0183926 -1.57589 0
M  V30 4900 C 468.01 0.965596 -2.12599 0
M  V30 4901 C 468.991 1.34641 -1.0395 0
M  V30 4902 O 470.176 1.42693 -1.31729 0
M  V30 4903 C 467.306 2.25149 -2.64434 0
M  V30 4904 C 466.26 2.01175 -3.77773 0
M  V30 4905 C 465.586 3.35937 -4.15994 0
M  V30 4906 C 466.886 1.35953 -5.04296 0
M  V30 4907 H 468.58 0.507504 -2.95067 0
M  V30 4908 H 466.126 0.242671 -1.41941 0
M  V30 4909 H 468.079 2.94357 -3.01549 0
M  V30 4910 H 466.803 2.73105 -1.79112 0
M  V30 4911 H 465.462 1.34388 -3.4108 0
M  V30 4912 H 465.11 3.81631 -3.27669 0
M  V30 4913 H 464.81 3.20705 -4.92364 0
M  V30 4914 H 466.334 4.0643 -4.55683 0
M  V30 4915 H 467.748 1.95144 -5.39065 0
M  V30 4916 H 466.145 1.31152 -5.85593 0
M  V30 4917 H 467.215 0.331071 -4.83768 0
M  V30 4918 N 468.558 1.5553 0.254621 0
M  V30 4919 C 469.783 1.81383 1.00573 0
M  V30 4920 C 470.208 0.594419 1.78461 0
M  V30 4921 O 469.566 -0.456403 1.75461 0
M  V30 4922 C 469.614 3.04892 1.92545 0
M  V30 4923 O 468.718 2.81266 3.01601 0
M  V30 4924 H 468.059 0.598969 0.286587 0
M  V30 4925 H 470.589 2.02703 0.277952 0
M  V30 4926 H 470.599 3.34119 2.34155 0
M  V30 4927 H 469.274 3.93287 1.3527 0
M  V30 4928 H 467.851 2.63185 2.64174 0
M  V30 4929 N 470.036 -0.519951 1.48776 0
M  V30 4930 C 470.966 -1.63253 1.66945 0
M  V30 4931 C 471.947 -1.62014 0.518224 0
M  V30 4932 O 473.132 -1.79053 0.751919 0
M  V30 4933 C 470.262 -3.0181 1.71836 0
M  V30 4934 C 469.216 -3.17911 2.8656 0
M  V30 4935 C 468.542 -4.5763 2.76548 0
M  V30 4936 C 469.842 -2.99729 4.27738 0
M  V30 4937 H 471.536 -1.48302 2.6009 0
M  V30 4938 H 469.082 -0.712026 1.25165 0
M  V30 4939 H 471.035 -3.79525 1.83135 0
M  V30 4940 H 469.759 -3.17806 0.752775 0
M  V30 4941 H 468.418 -2.42616 2.74833 0
M  V30 4942 H 468.066 -4.70476 1.77937 0
M  V30 4943 H 467.766 -4.69346 3.53536 0
M  V30 4944 H 469.29 -5.37431 2.89828 0
M  V30 4945 H 470.704 -3.67228 4.40246 0
M  V30 4946 H 469.101 -3.22932 5.05801 0
M  V30 4947 H 470.171 -1.96047 4.43502 0
M  V30 4948 N 471.514 -1.37532 -0.769588 0
M  V30 4949 C 472.791 -1.23392 -1.51768 0
M  V30 4950 C 473.171 0.17157 -2.10402 0
M  V30 4951 O 472.519 1.17943 -1.95708 0
M  V30 4952 C 472.729 -2.33163 -2.59685 0
M  V30 4953 C 474.077 -2.70809 -3.27028 0
M  V30 4954 O 475.101 -2.32355 -2.69981 0
M  V30 4955 O 473.96 -3.37066 -4.30173 0
M  V30 4956 H 471.054 -0.481617 -0.67229 0
M  V30 4957 H 473.6 -1.49318 -0.806368 0
M  V30 4958 H 472.372 -3.27273 -2.14494 0
M  V30 4959 H 471.995 -2.08713 -3.38415 0
M  V30 4960 N 472.992 0.995999 -1.22138 0
M  V30 4961 C 473.924 2.08745 -0.946485 0
M  V30 4962 C 474.937 1.62633 0.0737356 0
M  V30 4963 O 476.126 1.77782 -0.159886 0
M  V30 4964 C 473.226 3.36516 -0.401305 0
M  V30 4965 C 472.399 4.11672 -1.47801 0
M  V30 4966 C 471.458 5.17728 -0.940461 0
M  V30 4967 O 470.484 5.45482 -1.62596 0
M  V30 4968 N 471.686 5.80005 0.239723 0
M  V30 4969 H 474.451 2.32908 -1.88611 0
M  V30 4970 H 472.012 1.16152 -1.12785 0
M  V30 4971 H 474.004 4.04691 -0.0270837 0
M  V30 4972 H 472.574 3.0944 0.443354 0
M  V30 4973 H 471.794 3.38171 -2.02568 0
M  V30 4974 H 473.082 4.58657 -2.20253 0
M  V30 4975 H 472.48 5.5982 0.813518 0
M  V30 4976 H 471.037 6.4943 0.555361 0
M  V30 4977 N 474.47 1.03057 1.19235 0
M  V30 4978 C 475.42 0.583386 2.2041 0
M  V30 4979 C 476.404 -0.368776 1.56617 0
M  V30 4980 O 477.596 -0.189471 1.75983 0
M  V30 4981 C 474.725 -0.0626534 3.43243 0
M  V30 4982 C 473.811 0.91205 4.14177 0
M  V30 4983 N 474.202 2.07514 4.61272 0
M  V30 4984 C 472.5 0.735859 4.39888 0
M  V30 4985 C 473.201 2.69003 5.15764 0
M  V30 4986 N 472.177 1.96954 5.06666 0
M  V30 4987 H 475.979 1.46988 2.54503 0
M  V30 4988 H 473.493 0.897785 1.35328 0
M  V30 4989 H 475.49 -0.400653 4.1497 0
M  V30 4990 H 474.15 -0.944813 3.1065 0
M  V30 4991 H 475.161 2.45448 4.56043 0
M  V30 4992 H 471.838 -0.0970656 4.17387 0
M  V30 4993 H 473.228 3.67514 5.6248 0
M  V30 4994 N 475.948 -1.35272 0.808662 0
M  V30 4995 C 477.197 -1.97963 0.386483 0
M  V30 4996 C 477.51 -1.64866 -1.05255 0
M  V30 4997 O 478.716 -2.20937 -1.57794 0
M  V30 4998 C 477.172 -3.54162 0.640096 0
M  V30 4999 C 476.78 -3.96166 2.0918 0
M  V30 5000 C 478.524 -4.23553 0.283376 0
M  V30 5001 C 476.431 -5.4522 2.29106 0
M  V30 5002 H 475.361 -0.740742 0.140774 0
M  V30 5003 H 478.012 -1.5431 0.993012 0
M  V30 5004 H 476.394 -3.95983 -0.0364117 0
M  V30 5005 H 477.568 -3.65491 2.80629 0
M  V30 5006 H 475.883 -3.3967 2.40859 0
M  V30 5007 H 478.48 -5.33124 0.410273 0
M  V30 5008 H 478.823 -4.09105 -0.770659 0
M  V30 5009 H 479.356 -3.8716 0.913884 0
M  V30 5010 H 476.095 -5.64638 3.32962 0
M  V30 5011 H 475.615 -5.77457 1.62184 0
M  V30 5012 H 477.294 -6.1171 2.1076 0
M  V30 5013 N 477.426 -0.562348 -1.47226 0
M  V30 5014 C 478.336 0.185466 -2.33866 0
M  V30 5015 C 479.352 0.906713 -1.48508 0
M  V30 5016 O 480.528 0.874458 -1.81425 0
M  V30 5017 C 477.593 1.19904 -3.25306 0
M  V30 5018 C 476.654 0.484669 -4.26555 0
M  V30 5019 C 475.887 1.44996 -5.13626 0
M  V30 5020 O 476.11 2.68515 -5.03245 0
M  V30 5021 O 475.044 0.971642 -5.94006 0
M  V30 5022 H 478.87 -0.525361 -2.99121 0
M  V30 5023 H 476.455 -0.322916 -1.45868 0
M  V30 5024 H 478.337 1.78399 -3.81774 0
M  V30 5025 H 477.012 1.8917 -2.62672 0
M  V30 5026 H 475.919 -0.141605 -3.73832 0
M  V30 5027 H 477.252 -0.166634 -4.91918 0
M  V30 5028 N 478.904 1.54736 -0.299062 0
M  V30 5029 C 479.851 2.23448 0.577899 0
M  V30 5030 C 480.821 1.21637 1.13109 0
M  V30 5031 O 482.006 1.50252 1.17597 0
M  V30 5032 C 479.146 2.9774 1.74484 0
M  V30 5033 C 478.259 4.1432 1.22323 0
M  V30 5034 C 477.394 4.76199 2.35388 0
M  V30 5035 C 476.433 5.84927 1.80351 0
M  V30 5036 N 475.57 6.4077 2.86982 0
M  V30 5037 H 480.41 2.97996 -0.0146545 0
M  V30 5038 H 477.947 1.47088 -0.0190013 0
M  V30 5039 H 479.905 3.39045 2.43114 0
M  V30 5040 H 478.535 2.25572 2.30905 0
M  V30 5041 H 477.587 3.7797 0.429249 0
M  V30 5042 H 478.899 4.92659 0.780309 0
M  V30 5043 H 478.053 5.20346 3.11969 0
M  V30 5044 H 476.792 3.97188 2.83006 0
M  V30 5045 H 475.797 5.40207 1.02259 0
M  V30 5046 H 477.022 6.65821 1.3364 0
M  V30 5047 H 474.968 5.64643 3.33938 0
M  V30 5048 H 474.885 7.1445 2.4718 0
M  V30 5049 H 476.153 6.89574 3.63466 0
M  V30 5050 N 480.382 0.0267497 1.57577 0
M  V30 5051 C 481.612 -0.6617 1.95717 0
M  V30 5052 C 482.02 -1.66331 0.901706 0
M  V30 5053 O 481.363 -1.83273 -0.125241 0
M  V30 5054 C 481.425 -1.42649 3.29987 0
M  V30 5055 C 481.089 -0.583482 4.5326 0
M  V30 5056 C 482.086 0.140221 5.19711 0
M  V30 5057 C 479.771 -0.521581 4.99585 0
M  V30 5058 C 481.765 0.914523 6.30805 0
M  V30 5059 C 479.452 0.256428 6.10562 0
M  V30 5060 C 480.45 0.973189 6.76031 0
M  V30 5061 O 480.138 1.73845 7.84878 0
M  V30 5062 H 479.87 -0.187483 0.649481 0
M  V30 5063 H 482.424 0.0820847 2.05236 0
M  V30 5064 H 480.654 -2.21536 3.16952 0
M  V30 5065 H 482.343 -2.00282 3.53047 0
M  V30 5066 H 483.109 0.101716 4.84893 0
M  V30 5067 H 478.988 -1.06904 4.48433 0
M  V30 5068 H 482.532 1.4745 6.81839 0
M  V30 5069 H 478.429 0.296657 6.44818 0
M  V30 5070 H 479.197 1.65797 8.01532 0
M  V30 5071 N 481.861 -1.55662 -0.24637 0
M  V30 5072 C 482.824 -1.89558 -1.28842 0
M  V30 5073 C 483.824 -0.772082 -1.41052 0
M  V30 5074 O 485.014 -1.04007 -1.39743 0
M  V30 5075 C 482.146 -2.12449 -2.66605 0
M  V30 5076 H 483.339 -2.82735 -1.00004 0
M  V30 5077 H 480.892 -1.48562 -0.485684 0
M  V30 5078 H 481.627 -1.21742 -3.00582 0
M  V30 5079 H 481.412 -2.94273 -2.59125 0
M  V30 5080 H 482.902 -2.39854 -3.41847 0
M  V30 5081 N 483.339 0.512053 -1.4905 0
M  V30 5082 C 484.289 1.61142 -1.61298 0
M  V30 5083 C 485.273 1.53908 -0.46916 0
M  V30 5084 O 486.465 1.61625 -0.721547 0
M  V30 5085 C 483.594 2.998 -1.67256 0
M  V30 5086 C 482.68 3.12072 -2.87179 0
M  V30 5087 N 483.071 2.94263 -4.11391 0
M  V30 5088 C 481.369 3.43156 -2.84886 0
M  V30 5089 C 482.07 3.10426 -4.91946 0
M  V30 5090 N 481.046 3.38808 -4.251 0
M  V30 5091 H 484.848 1.46011 -2.55065 0
M  V30 5092 H 482.362 0.717934 -1.45669 0
M  V30 5093 H 484.359 3.78794 -1.74128 0
M  V30 5094 H 483.019 3.1601 -0.746195 0
M  V30 5095 H 484.03 2.70661 -4.41546 0
M  V30 5096 H 480.707 3.65611 -2.01581 0
M  V30 5097 H 482.097 3.01243 -6.00585 0
M  V30 5098 N 484.817 1.37938 0.762283 0
M  V30 5099 C 486.064 1.33668 1.52115 0
M  V30 5100 C 486.392 -0.0759538 1.94352 0
M  V30 5101 O 485.647 -1.05121 1.6507 0
M  V30 5102 C 485.946 2.23042 2.79261 0
M  V30 5103 C 485.612 3.71159 2.56031 0
M  V30 5104 C 484.274 4.11523 2.49404 0
M  V30 5105 C 486.626 4.64955 2.35513 0
M  V30 5106 C 483.954 5.43784 2.20263 0
M  V30 5107 C 486.306 5.97464 2.07894 0
M  V30 5108 C 484.97 6.36922 1.99718 0
M  V30 5109 H 484.24 0.489127 0.556629 0
M  V30 5110 H 486.887 1.70224 0.877262 0
M  V30 5111 H 485.192 1.79512 3.48256 0
M  V30 5112 H 486.889 2.17047 3.37182 0
M  V30 5113 H 483.479 3.39153 2.62056 0
M  V30 5114 H 487.663 4.34623 2.39617 0
M  V30 5115 H 482.919 5.73307 2.12435 0
M  V30 5116 H 487.093 6.6969 1.91019 0
M  V30 5117 H 484.72 7.39331 1.76902 0
M  V30 5118 N 486.295 -0.989507 1.22664 0
M  V30 5119 C 487.543 -1.72612 1.05117 0
M  V30 5120 C 487.864 -1.90552 -0.414131 0
M  V30 5121 O 487.134 -1.4676 -1.29762 0
M  V30 5122 H 485.714 -0.639555 0.385977 0
M  V30 5123 H 488.376 -1.19158 1.54232 0
M  V30 5124 H 487.472 -2.71926 1.53175 0
M  V30 5125 N 487.773 -1.03688 -1.18687 0
M  V30 5126 C 489.184 -0.766488 -1.70241 0
M  V30 5127 C 489.535 0.713052 -1.82784 0
M  V30 5128 O 488.66 1.55529 -1.50465 0
M  V30 5129 C 489.255 -1.38475 -3.09209 0
M  V30 5130 C 487.814 -1.16276 -3.5799 0
M  V30 5131 C 486.961 -1.4778 -2.34641 0
M  V30 5132 H 489.912 -1.20378 -1.03415 0
M  V30 5133 H 489.933 -0.785939 -3.72295 0
M  V30 5134 H 489.445 -2.46157 -3.00048 0
M  V30 5135 H 487.546 -0.104508 -3.72453 0
M  V30 5136 H 487.659 -1.8571 -4.41643 0
M  V30 5137 H 486.023 -0.897366 -2.38368 0
M  V30 5138 H 486.806 -2.56562 -2.28102 0
M  V30 5139 N 489.251 1.34841 -0.815825 0
M  V30 5140 C 490.499 1.98107 -0.399744 0
M  V30 5141 C 490.82 1.65019 1.03894 0
M  V30 5142 O 490.09 0.937311 1.72021 0
M  V30 5143 H 488.67 0.732827 -0.144823 0
M  V30 5144 H 491.332 1.64599 -1.0437 0
M  V30 5145 H 490.428 3.07856 -0.512965 0
M  V30 5146 N 490.729 0.570148 1.46925 0
M  V30 5147 C 491.692 -0.159933 2.28641 0
M  V30 5148 C 492.692 -0.830638 1.37685 0
M  V30 5149 O 493.882 -0.684516 1.60187 0
M  V30 5150 C 491.014 -1.2354 3.17727 0
M  V30 5151 H 492.207 0.558035 2.94662 0
M  V30 5152 H 489.76 0.327603 1.52828 0
M  V30 5153 H 490.495 -1.98535 2.56426 0
M  V30 5154 H 490.28 -0.759125 3.84681 0
M  V30 5155 H 491.77 -1.74782 3.79264 0
M  V30 5156 N 492.207 -1.54576 0.307264 0
M  V30 5157 C 493.618 -1.8579 -0.184121 0
M  V30 5158 C 493.969 -1.22914 -1.52927 0
M  V30 5159 O 493.094 -0.529126 -2.09831 0
M  V30 5160 C 493.689 -3.37081 -0.340862 0
M  V30 5161 C 492.248 -3.68304 -0.776465 0
M  V30 5162 C 491.395 -2.77076 0.111503 0
M  V30 5163 H 494.346 -1.49656 0.528078 0
M  V30 5164 H 494.367 -3.61922 -1.17443 0
M  V30 5165 H 493.879 -3.82815 0.638309 0
M  V30 5166 H 491.98 -3.28092 -1.76596 0
M  V30 5167 H 492.093 -4.75434 -0.591512 0
M  V30 5168 H 490.457 -2.51374 -0.410256 0
M  V30 5169 H 491.24 -3.25632 1.08714 0
M  V30 5170 N 493.685 -0.035106 -1.57561 0
M  V30 5171 C 494.962 0.681212 -1.83354 0
M  V30 5172 C 495.342 1.89986 -0.920252 0
M  V30 5173 O 494.69 2.28489 0.0226815 0
M  V30 5174 C 494.9 1.05376 -3.32712 0
M  V30 5175 C 496.248 1.44286 -3.99333 0
M  V30 5176 O 497.272 1.14656 -3.37242 0
M  V30 5177 O 496.131 1.99518 -5.08778 0
M  V30 5178 H 493.225 0.334741 -0.756226 0
M  V30 5179 H 495.771 -0.0632448 -1.69582 0
M  V30 5180 H 494.543 0.186668 -3.90854 0
M  V30 5181 H 494.166 1.85619 -3.51613 0
M  V30 5182 N 495.163 1.55791 0.238111 0
M  V30 5183 C 496.574 1.68383 0.806472 0
M  V30 5184 C 496.925 0.634157 1.85669 0
M  V30 5185 O 496.05 -0.217913 2.153 0
M  V30 5186 C 496.645 3.05268 1.46959 0
M  V30 5187 C 495.204 3.1977 1.98555 0
M  V30 5188 C 494.351 2.64279 0.839763 0
M  V30 5189 H 497.302 1.58694 0.0137535 0
M  V30 5190 H 497.323 3.00203 2.33792 0
M  V30 5191 H 496.835 3.81643 0.704993 0
M  V30 5192 H 494.936 2.48234 2.77868 0
M  V30 5193 H 495.049 4.26788 2.17689 0
M  V30 5194 H 493.413 2.22329 1.24265 0
M  V30 5195 H 494.196 3.43187 0.0881032 0
M  V30 5196 N 496.642 -0.504142 1.49319 0
M  V30 5197 C 497.919 -1.26548 1.49147 0
M  V30 5198 C 498.299 -2.09977 0.21744 0
M  V30 5199 O 497.647 -2.14028 -0.800269 0
M  V30 5200 C 497.857 -2.12489 2.76857 0
M  V30 5201 C 499.205 -2.7178 3.26222 0
M  V30 5202 O 500.229 -2.22758 2.77952 0
M  V30 5203 O 499.088 -3.61015 4.10281 0
M  V30 5204 H 496.182 -0.572495 0.596806 0
M  V30 5205 H 498.728 -0.51867 1.61579 0
M  V30 5206 H 497.5 -1.50796 3.61077 0
M  V30 5207 H 497.123 -2.94368 2.6727 0
M  V30 5208 N 498.12 -1.38341 -0.754957 0
M  V30 5209 C 499.083 -1.35262 -1.85032 0
M  V30 5210 C 500.083 -0.253393 -1.58791 0
M  V30 5211 O 501.273 -0.510205 -1.66561 0
M  V30 5212 C 498.405 -1.10544 -3.22479 0
M  V30 5213 H 499.598 -2.32712 -1.8917 0
M  V30 5214 H 497.151 -1.23614 -0.956515 0
M  V30 5215 H 497.886 -0.136952 -3.24011 0
M  V30 5216 H 497.671 -1.90127 -3.4292 0
M  V30 5217 H 499.161 -1.11082 -4.02555 0
M  V30 5218 N 499.598 0.982988 -1.23187 0
M  V30 5219 C 500.528 2.09301 -1.03515 0
M  V30 5220 C 501.509 1.70035 0.0471136 0
M  V30 5221 O 502.694 1.93847 -0.117029 0
M  V30 5222 C 499.824 3.4167 -0.622791 0
M  V30 5223 C 498.778 3.94828 -1.65211 0
M  V30 5224 C 498.104 5.23362 -1.09527 0
M  V30 5225 C 499.404 4.2439 -3.04451 0
M  V30 5226 H 501.098 2.26016 -1.96359 0
M  V30 5227 H 498.644 1.08611 -0.945501 0
M  V30 5228 H 500.597 4.18746 -0.472233 0
M  V30 5229 H 499.321 3.24811 0.341329 0
M  V30 5230 H 497.98 3.19895 -1.79061 0
M  V30 5231 H 497.628 5.02852 -0.122211 0
M  V30 5232 H 497.328 5.59895 -1.783 0
M  V30 5233 H 498.852 6.03062 -0.956511 0
M  V30 5234 H 500.266 4.92225 -2.93917 0
M  V30 5235 H 498.663 4.72118 -3.70438 0
M  V30 5236 H 499.733 3.31765 -3.53638 0
M  V30 5237 N 501.076 1.04316 1.18135 0
M  V30 5238 C 502.039 0.640794 2.2006 0
M  V30 5239 C 503.039 -0.303124 1.57917 0
M  V30 5240 O 504.229 -0.0881855 1.73977 0
M  V30 5241 C 501.361 -0.060148 3.40847 0
M  V30 5242 H 502.554 1.54281 2.57172 0
M  V30 5243 H 500.107 0.836004 1.32063 0
M  V30 5244 H 500.842 -0.975845 3.0927 0
M  V30 5245 H 500.627 0.618319 3.87194 0
M  V30 5246 H 502.117 -0.328082 4.16309 0
M  V30 5247 N 502.554 -1.34406 0.822964 0
M  V30 5248 C 503.517 -2.2783 0.250271 0
M  V30 5249 C 504.517 -1.50288 -0.571854 0
M  V30 5250 O 505.707 -1.69825 -0.387952 0
M  V30 5251 C 502.839 -3.34663 -0.649137 0
M  V30 5252 H 504.032 -2.79992 1.07444 0
M  V30 5253 H 501.585 -1.44539 0.594829 0
M  V30 5254 H 502.32 -2.87714 -1.49637 0
M  V30 5255 H 502.105 -3.92052 -0.0611199 0
M  V30 5256 H 503.595 -4.04349 -1.04363 0
M  V30 5257 N 504.032 -0.577932 -1.46621 0
M  V30 5258 C 504.942 0.160651 -2.34049 0
M  V30 5259 C 505.958 0.890911 -1.49462 0
M  V30 5260 O 507.134 0.855166 -1.82343 0
M  V30 5261 C 504.199 1.16447 -3.26559 0
M  V30 5262 C 503.26 0.4394 -4.27045 0
M  V30 5263 C 502.493 1.3954 -5.15135 0
M  V30 5264 O 502.716 2.63162 -5.06065 0
M  V30 5265 O 501.65 0.908585 -5.95003 0
M  V30 5266 H 505.476 -0.557057 -2.98547 0
M  V30 5267 H 503.061 -0.338369 -1.45518 0
M  V30 5268 H 504.943 1.7434 -3.83645 0
M  V30 5269 H 503.618 1.86373 -2.64663 0
M  V30 5270 H 502.525 -0.181247 -3.73661 0
M  V30 5271 H 503.858 -0.218799 -4.91713 0
M  V30 5272 N 505.51 1.54411 -0.315457 0
M  V30 5273 C 506.44 2.27002 0.547039 0
M  V30 5274 C 507.421 1.27492 1.12605 0
M  V30 5275 O 508.606 1.5629 1.15269 0
M  V30 5276 C 505.736 3.02171 1.71201 0
M  V30 5277 C 504.69 4.0895 1.26268 0
M  V30 5278 C 504.016 4.71915 2.51396 0
M  V30 5279 C 505.316 5.20891 0.383419 0
M  V30 5280 H 507.01 2.99343 -0.0584517 0
M  V30 5281 H 504.556 1.4397 -0.0295527 0
M  V30 5282 H 506.509 3.51681 2.32161 0
M  V30 5283 H 505.233 2.27433 2.34397 0
M  V30 5284 H 503.892 3.60312 0.676062 0
M  V30 5285 H 503.54 3.93801 3.12937 0
M  V30 5286 H 503.24 5.44039 2.22026 0
M  V30 5287 H 504.764 5.24195 3.13133 0
M  V30 5288 H 506.178 5.66206 0.899082 0
M  V30 5289 H 504.575 5.99821 0.182857 0
M  V30 5290 H 505.645 4.81324 -0.587821 0
M  V30 5291 N 506.988 0.0434614 1.5754 0
M  V30 5292 C 508.213 -0.645358 1.97104 0
M  V30 5293 C 508.638 -1.64037 0.920521 0
M  V30 5294 O 507.996 -1.80922 -0.11708 0
M  V30 5295 C 508.044 -1.31547 3.35749 0
M  V30 5296 O 507.148 -2.43103 3.33129 0
M  V30 5297 H 506.489 -0.168403 0.64229 0
M  V30 5298 H 509.019 0.109573 2.04306 0
M  V30 5299 H 509.029 -1.66895 3.72304 0
M  V30 5300 H 507.704 -0.586205 4.11748 0
M  V30 5301 H 506.281 -2.0976 3.0831 0
M  V30 5302 N 508.466 -1.55915 -0.229846 0
M  V30 5303 C 509.712 -1.78807 -0.956868 0
M  V30 5304 C 510.045 -0.611687 -1.84315 0
M  V30 5305 O 509.32 0.389398 -1.90562 0
M  V30 5306 C 509.603 -3.11718 -1.80288 0
M  V30 5307 C 509.456 -4.3979 -0.943649 0
M  V30 5308 C 510.775 -3.40999 -2.78222 0
M  V30 5309 H 507.894 -0.6505 -0.346437 0
M  V30 5310 H 510.536 -1.88648 -0.226252 0
M  V30 5311 H 508.686 -3.03459 -2.42579 0
M  V30 5312 H 510.358 -4.60059 -0.338121 0
M  V30 5313 H 508.601 -4.33086 -0.248705 0
M  V30 5314 H 509.272 -5.29208 -1.5698 0
M  V30 5315 H 511.748 -3.49332 -2.26067 0
M  V30 5316 H 510.624 -4.35183 -3.34526 0
M  V30 5317 H 510.885 -2.62754 -3.55546 0
M  V30 5318 N 509.944 0.496216 -1.49584 0
M  V30 5319 C 511.355 1.07765 -1.52459 0
M  V30 5320 C 511.706 1.93679 -0.31353 0
M  V30 5321 O 510.831 2.08588 0.576186 0
M  V30 5322 C 511.426 1.96111 -2.76271 0
M  V30 5323 C 509.985 2.49409 -2.81908 0
M  V30 5324 C 509.132 1.27142 -2.46435 0
M  V30 5325 H 512.083 0.279914 -1.56212 0
M  V30 5326 H 512.104 2.80862 -2.56704 0
M  V30 5327 H 511.616 1.33555 -3.64396 0
M  V30 5328 H 509.717 3.1559 -1.98074 0
M  V30 5329 H 509.83 2.86234 -3.84196 0
M  V30 5330 H 508.194 1.59818 -1.98319 0
M  V30 5331 H 508.977 0.662866 -3.3684 0
M  V30 5332 N 511.423 1.38739 0.74761 0
M  V30 5333 C 512.7 1.25791 1.49786 0
M  V30 5334 C 513.08 -0.138075 2.10648 0
M  V30 5335 O 512.428 -1.14815 1.9756 0
M  V30 5336 C 512.638 2.37265 2.55942 0
M  V30 5337 C 513.986 2.75978 3.22679 0
M  V30 5338 O 515.01 2.36621 2.6625 0
M  V30 5339 O 513.869 3.43867 4.24756 0
M  V30 5340 H 510.963 0.492251 0.664543 0
M  V30 5341 H 513.509 1.50582 0.782511 0
M  V30 5342 H 512.281 3.30644 2.0926 0
M  V30 5343 H 511.904 2.14071 3.35051 0
M  V30 5344 N 512.901 -0.976442 1.23707 0
M  V30 5345 C 513.811 -2.10359 1.03856 0
M  V30 5346 C 514.827 -1.73991 -0.0180919 0
M  V30 5347 O 516.003 -2.0061 0.178211 0
M  V30 5348 C 513.068 -3.40809 0.636387 0
M  V30 5349 C 512.129 -3.91179 1.76854 0
M  V30 5350 C 511.362 -5.15404 1.38546 0
M  V30 5351 O 511.585 -5.69754 0.27142 0
M  V30 5352 O 510.519 -5.5994 2.20797 0
M  V30 5353 H 514.345 -2.29997 1.98331 0
M  V30 5354 H 511.93 -1.08742 1.02448 0
M  V30 5355 H 513.812 -4.19269 0.423223 0
M  V30 5356 H 512.487 -3.22493 -0.279322 0
M  V30 5357 H 511.394 -3.13819 2.03638 0
M  V30 5358 H 512.727 -4.13958 2.6627 0
M  V30 5359 N 514.379 -1.04941 -1.1758 0
M  V30 5360 C 515.309 -0.669172 -2.23706 0
M  V30 5361 C 516.29 0.331835 -1.66832 0
M  V30 5362 O 517.475 0.209988 -1.93061 0
M  V30 5363 C 514.605 -0.0404889 -3.47276 0
M  V30 5364 C 513.559 -0.965983 -4.16957 0
M  V30 5365 C 512.885 -0.201312 -5.34321 0
M  V30 5366 C 514.185 -2.28902 -4.69469 0
M  V30 5367 H 515.879 -1.55639 -2.55767 0
M  V30 5368 H 513.425 -0.749793 -1.22939 0
M  V30 5369 H 515.378 0.237298 -4.20731 0
M  V30 5370 H 514.102 0.881658 -3.14475 0
M  V30 5371 H 512.761 -1.22829 -3.45411 0
M  V30 5372 H 512.409 0.723519 -4.97769 0
M  V30 5373 H 512.109 -0.817968 -5.81879 0
M  V30 5374 H 513.633 0.0692499 -6.10561 0
M  V30 5375 H 515.047 -2.07132 -5.34574 0
M  V30 5376 H 513.444 -2.85942 -5.27596 0
M  V30 5377 H 514.514 -2.92937 -3.86414 0
M  V30 5378 N 515.857 1.33968 -0.830081 0
M  V30 5379 C 516.767 2.33164 -0.259207 0
M  V30 5380 C 517.783 1.62951 0.610164 0
M  V30 5381 O 518.959 1.94668 0.516369 0
M  V30 5382 C 516.024 3.42088 0.563598 0
M  V30 5383 C 515.085 4.28037 -0.329014 0
M  V30 5384 C 514.318 5.3176 0.454616 0
M  V30 5385 O 514.541 5.44876 1.6872 0
M  V30 5386 O 513.475 6.01669 -0.166794 0
M  V30 5387 H 517.301 2.83832 -1.08041 0
M  V30 5388 H 514.886 1.37154 -0.59239 0
M  V30 5389 H 516.768 4.08581 1.03147 0
M  V30 5390 H 515.443 2.93651 1.36201 0
M  V30 5391 H 514.35 3.64443 -0.844538 0
M  V30 5392 H 515.683 4.79934 -1.09196 0
M  V30 5393 N 517.335 0.585699 1.46312 0
M  V30 5394 C 518.285 -0.166813 2.27389 0
M  V30 5395 C 519.269 -0.859076 1.36047 0
M  V30 5396 O 520.461 -0.752678 1.60199 0
M  V30 5397 C 517.59 -1.17791 3.2246 0
M  V30 5398 C 516.676 -0.487605 4.21288 0
M  V30 5399 N 517.067 0.45849 5.03718 0
M  V30 5400 C 515.365 -0.737971 4.39852 0
M  V30 5401 C 516.066 0.862213 5.75275 0
M  V30 5402 N 515.042 0.210707 5.43191 0
M  V30 5403 H 518.844 0.560167 2.88512 0
M  V30 5404 H 516.358 0.407715 1.57199 0
M  V30 5405 H 518.355 -1.73122 3.79255 0
M  V30 5406 H 517.015 -1.90568 2.62896 0
M  V30 5407 H 518.026 0.834163 5.11138 0
M  V30 5408 H 514.703 -1.45209 3.91434 0
M  V30 5409 H 516.093 1.64128 6.51546 0
M  V30 5410 N 518.813 -1.54241 0.323641 0
M  V30 5411 C 520.038 -2.05452 -0.283605 0
M  V30 5412 C 520.463 -1.19823 -1.44997 0
M  V30 5413 O 519.821 -0.207358 -1.8011 0
M  V30 5414 C 519.869 -3.53823 -0.695795 0
M  V30 5415 O 518.973 -3.71134 -1.79815 0
M  V30 5416 H 518.314 -0.662024 -0.0511917 0
M  V30 5417 H 520.844 -1.99079 0.472073 0
M  V30 5418 H 520.854 -3.96094 -0.978434 0
M  V30 5419 H 519.529 -4.15602 0.157287 0
M  V30 5420 H 518.106 -3.40768 -1.51431 0
M  V30 5421 N 520.291 -0.0518155 -1.57515 0
M  V30 5422 C 521.707 0.304735 -1.56664 0
M  V30 5423 C 521.907 1.71395 -1.05953 0
M  V30 5424 O 520.963 2.42123 -0.716414 0
M  V30 5425 C 522.276 0.132614 -3.00407 0
M  V30 5426 C 523.824 0.20367 -3.12337 0
M  V30 5427 C 524.299 0.0600706 -4.57961 0
M  V30 5428 N 525.79 0.116326 -4.63054 0
M  V30 5429 C 526.525 0.0293363 -5.73392 0
M  V30 5430 N 526.021 -0.110038 -6.92713 0
M  V30 5431 N 527.814 0.0849651 -5.62036 0
M  V30 5432 H 519.965 -0.973056 -1.888 0
M  V30 5433 H 522.228 -0.377781 -0.869474 0
M  V30 5434 H 521.934 -0.839019 -3.41546 0
M  V30 5435 H 521.808 0.893376 -3.66468 0
M  V30 5436 H 524.195 1.16578 -2.71097 0
M  V30 5437 H 524.276 -0.587857 -2.48954 0
M  V30 5438 H 523.92 -0.898715 -4.99886 0
M  V30 5439 H 523.85 0.87075 -5.19351 0
M  V30 5440 H 526.341 0.22327 -3.7724 0
M  V30 5441 H 526.654 -0.169104 -7.72615 0
M  V30 5442 H 524.999 -0.145132 -6.94848 0
M  V30 5443 H 528.19 0.192411 -4.67704 0
M  V30 5444 H 528.363 0.0137131 -6.47999 0
M  V30 5445 N 521.769 1.56035 0.221574 0
M  V30 5446 C 522.732 1.91584 1.2581 0
M  V30 5447 C 523.732 0.794425 1.39805 0
M  V30 5448 O 524.922 1.06217 1.38071 0
M  V30 5449 C 522.054 2.16663 2.63192 0
M  V30 5450 H 523.247 2.8429 0.954935 0
M  V30 5451 H 520.8 1.49316 0.461988 0
M  V30 5452 H 521.535 1.26508 2.98607 0
M  V30 5453 H 521.32 2.98358 2.5441 0
M  V30 5454 H 522.81 2.45262 3.37988 0
M  V30 5455 N 523.247 -0.488276 1.49845 0
M  V30 5456 C 524.493 -1.24341 1.6021 0
M  V30 5457 C 524.826 -1.91967 0.293651 0
M  V30 5458 O 524.101 -1.81323 -0.703718 0
M  V30 5459 C 524.384 -2.3005 2.77036 0
M  V30 5460 C 524.237 -1.66842 4.17713 0
M  V30 5461 C 525.556 -3.31509 2.89464 0
M  V30 5462 H 522.675 -0.450704 0.583125 0
M  V30 5463 H 525.317 -0.539673 1.82174 0
M  V30 5464 H 523.467 -2.90071 2.58439 0
M  V30 5465 H 525.139 -1.1055 4.47858 0
M  V30 5466 H 523.382 -0.972079 4.22768 0
M  V30 5467 H 524.053 -2.43576 4.95353 0
M  V30 5468 H 526.529 -2.81493 3.06433 0
M  V30 5469 H 525.405 -4.02822 3.72861 0
M  V30 5470 H 525.666 -3.94603 1.99351 0
M  V30 5471 N 524.725 -1.39134 -0.740242 0
M  V30 5472 C 525.688 -1.37217 -1.83587 0
M  V30 5473 C 526.688 -0.270221 -1.58513 0
M  V30 5474 O 527.878 -0.527843 -1.6601 0
M  V30 5475 C 525.01 -1.13959 -3.21288 0
M  V30 5476 H 526.203 -2.34705 -1.86691 0
M  V30 5477 H 523.756 -1.24622 -0.94335 0
M  V30 5478 H 524.491 -0.17131 -3.23847 0
M  V30 5479 H 524.276 -1.93754 -3.40884 0
M  V30 5480 H 525.766 -1.15346 -4.01354 0
M  V30 5481 N 526.204 0.969867 -1.24223 0
M  V30 5482 C 527.481 1.68774 -0.988664 0
M  V30 5483 C 527.861 2.05342 0.489673 0
M  V30 5484 O 527.209 1.75486 1.46345 0
M  V30 5485 C 527.419 2.92135 -1.90941 0
M  V30 5486 C 528.767 3.64422 -2.17903 0
M  V30 5487 O 529.791 3.02188 -1.88576 0
M  V30 5488 O 528.65 4.76446 -2.67697 0
M  V30 5489 H 525.744 0.737736 -0.37373 0
M  V30 5490 H 528.29 1.02415 -1.35312 0
M  V30 5491 H 527.062 2.61788 -2.90831 0
M  V30 5492 H 526.685 3.66228 -1.54798 0
M  V30 5493 N 527.682 1.05563 1.17022 0
M  V30 5494 C 528.645 0.664098 2.19368 0
M  V30 5495 C 529.645 -0.286358 1.5823 0
M  V30 5496 O 530.835 -0.069728 1.7406 0
M  V30 5497 C 527.967 -0.0239932 3.40892 0
M  V30 5498 H 529.16 1.57 2.55521 0
M  V30 5499 H 526.713 0.849964 1.31169 0
M  V30 5500 H 527.448 -0.942988 3.10287 0
M  V30 5501 H 527.233 0.659351 3.86516 0
M  V30 5502 H 528.723 -0.283909 4.16634 0
M  V30 5503 N 529.16 -1.33526 0.837174 0
M  V30 5504 C 530.385 -2.0258 0.444545 0
M  V30 5505 C 530.81 -1.6258 -0.946006 0
M  V30 5506 O 530.168 -0.817548 -1.6182 0
M  V30 5507 C 530.216 -3.5605 0.571006 0
M  V30 5508 O 529.32 -4.10422 -0.403431 0
M  V30 5509 H 528.661 -0.638866 0.180958 0
M  V30 5510 H 531.191 -1.70462 1.13154 0
M  V30 5511 H 531.201 -4.05488 0.452024 0
M  V30 5512 H 529.876 -3.84509 1.58512 0
M  V30 5513 H 528.453 -3.72113 -0.242147 0
M  V30 5514 N 530.638 -0.59345 -1.46 0
M  V30 5515 C 531.568 0.121192 -2.33185 0
M  V30 5516 C 532.549 0.872977 -1.4599 0
M  V30 5517 O 533.734 0.846321 -1.74789 0
M  V30 5518 C 530.864 1.12844 -3.28456 0
M  V30 5519 C 529.818 0.4908 -4.25177 0
M  V30 5520 C 529.144 1.60529 -5.10034 0
M  V30 5521 C 530.444 -0.578949 -5.19081 0
M  V30 5522 H 532.138 -0.606767 -2.93187 0
M  V30 5523 H 529.684 -0.293242 -1.40983 0
M  V30 5524 H 531.637 1.63684 -3.88311 0
M  V30 5525 H 530.361 1.88681 -2.66584 0
M  V30 5526 H 529.02 0.00339328 -3.666 0
M  V30 5527 H 528.668 2.35359 -4.44539 0
M  V30 5528 H 528.368 1.18422 -5.75543 0
M  V30 5529 H 529.892 2.11623 -5.72755 0
M  V30 5530 H 531.306 -0.155199 -5.7309 0
M  V30 5531 H 529.703 -0.920947 -5.92991 0
M  V30 5532 H 530.773 -1.46109 -4.62364 0
M  V30 5533 O 532.155 1.54388 -0.473979 0
M  V30 5534 H 532.846 1.93634 0.0506067 0
M  V30 END ATOM
M  V30 BEGIN BOND
M  V30 END BOND
M  V30 END CTAB
M  END
$$$$
