drugbank_target|Q0VD83 Apolipoprotein B receptor (DB01593; DB09130; DB14487; DB14533; DB14548)
 OpenBabel12092121033D

  0  0  0     0  0            999 V3000
M  V30 BEGIN CTAB
M  V30 COUNTS 15495 15621 0 0 0
M  V30 BEGIN ATOM
M  V30 1 H -0.908 1.98254 -0.117106 0
M  V30 2 N 0 1.576 0 0
M  V30 3 C 0.933 2.03868 1.02534 0
M  V30 4 C 1.911 0.928543 1.3348 0
M  V30 5 O 3.095 1.19667 1.45644 0
M  V30 6 C 0.222 2.43627 2.35294 0
M  V30 7 C -0.732 3.65373 2.2001 0
M  V30 8 S 0.101 5.13292 1.52614 0
M  V30 9 C 1.257 5.56322 2.86805 0
M  V30 10 H 1.49 2.90518 0.631377 0
M  V30 11 H -0.977 1.52953 0.210867 0
M  V30 12 H 0.981 2.67203 3.11629 0
M  V30 13 H -0.358 1.57376 2.7183 0
M  V30 14 H -1.165 3.90944 3.18086 0
M  V30 15 H -1.563 3.418 1.51819 0
M  V30 16 H 0.729 5.58782 3.83104 0
M  V30 17 H 1.672 6.56266 2.65933 0
M  V30 18 H 2.08 4.83886 2.90714 0
M  V30 19 N 1.4781 -0.272755 1.55222 0
M  V30 20 C 2.7551 -1.02562 1.66555 0
M  V30 21 C 3.1351 -2.04282 0.532189 0
M  V30 22 O 2.4831 -2.23662 -0.467717 0
M  V30 23 C 2.6931 -1.6822 3.05782 0
M  V30 24 C 4.0411 -2.19373 3.63539 0
M  V30 25 O 5.0651 -1.78206 3.08417 0
M  V30 26 O 3.9241 -2.94883 4.60115 0
M  V30 27 H 1.0181 -0.475755 0.676451 0
M  V30 28 H 3.5641 -0.268593 1.67561 0
M  V30 29 H 2.3361 -0.945112 3.79715 0
M  V30 30 H 1.9591 -2.50609 3.08676 0
M  V30 31 N 2.9562 -1.48159 -0.537278 0
M  V30 32 C 4.2032 -1.55804 -1.29349 0
M  V30 33 C 4.5312 -0.228802 -1.9315 0
M  V30 34 O 3.7862 0.780242 -1.79473 0
M  V30 35 C 4.0852 -2.63956 -2.40961 0
M  V30 36 C 3.7512 -4.0662 -1.94861 0
M  V30 37 C 2.4132 -4.45452 -1.82006 0
M  V30 38 C 4.7652 -4.96055 -1.59933 0
M  V30 39 C 2.0932 -5.71531 -1.32547 0
M  V30 40 C 4.4452 -6.22617 -1.11939 0
M  V30 41 C 3.1092 -6.60312 -0.976951 0
M  V30 42 H 2.3792 -0.570129 -0.473322 0
M  V30 43 H 5.0262 -1.81845 -0.600372 0
M  V30 44 H 3.3312 -2.31747 -3.15912 0
M  V30 45 H 5.0282 -2.67089 -2.99107 0
M  V30 46 H 1.6182 -3.75949 -2.05815 0
M  V30 47 H 5.8022 -4.66738 -1.68728 0
M  V30 48 H 1.0582 -5.99468 -1.202 0
M  V30 49 H 5.2322 -6.91318 -0.839811 0
M  V30 50 H 2.8592 -7.57895 -0.591501 0
M  V30 51 N 4.4343 0.785586 -1.36625 0
M  V30 52 C 5.3643 1.91259 -1.33949 0
M  V30 53 C 6.3453 1.68795 -0.210325 0
M  V30 54 O 7.5303 1.89854 -0.408561 0
M  V30 55 C 4.6603 3.28339 -1.13186 0
M  V30 56 C 3.6143 3.65335 -2.22967 0
M  V30 57 C 2.9403 5.00806 -1.87342 0
M  V30 58 C 4.2403 3.7352 -3.65075 0
M  V30 59 H 5.9343 1.93755 -2.28253 0
M  V30 60 H 3.4803 0.930788 -1.09874 0
M  V30 61 H 5.4333 4.06804 -1.09948 0
M  V30 62 H 4.1573 3.2624 -0.153332 0
M  V30 63 H 2.8163 2.89169 -2.25337 0
M  V30 64 H 2.4643 4.95233 -0.880545 0
M  V30 65 H 2.1643 5.26529 -2.60846 0
M  V30 66 H 3.6883 5.81687 -1.85667 0
M  V30 67 H 5.1023 4.42168 -3.64911 0
M  V30 68 H 3.4993 4.10731 -4.37516 0
M  V30 69 H 4.5693 2.74527 -3.99703 0
M  V30 70 N 5.9124 1.20967 1.01018 0
M  V30 71 C 7.3284 0.965905 1.27053 0
M  V30 72 C 7.5284 -0.350785 1.98423 0
M  V30 73 O 6.5844 -1.07773 2.28344 0
M  V30 74 C 7.8974 2.15294 2.09926 0
M  V30 75 C 9.4454 2.19463 2.23171 0
M  V30 76 C 9.9204 3.3767 3.09424 0
M  V30 77 N 11.4114 3.37724 3.17012 0
M  V30 78 C 12.1464 4.25837 3.83993 0
M  V30 79 N 11.6424 5.24138 4.53047 0
M  V30 80 N 13.4354 4.1366 3.80581 0
M  V30 81 H 5.5864 2.0565 0.531194 0
M  V30 82 H 7.8494 0.90024 0.297106 0
M  V30 83 H 7.5554 3.10684 1.64828 0
M  V30 84 H 7.4294 2.13923 3.10672 0
M  V30 85 H 9.8164 1.24632 2.6749 0
M  V30 86 H 9.8974 2.2488 1.21912 0
M  V30 87 H 9.5414 4.32791 2.65808 0
M  V30 88 H 9.4714 3.29491 4.10784 0
M  V30 89 H 11.9624 2.6658 2.6785 0
M  V30 90 H 12.2754 5.87684 5.01844 0
M  V30 91 H 10.6204 5.28068 4.5185 0
M  V30 92 H 13.8114 3.36127 3.25785 0
M  V30 93 H 13.9844 4.82538 4.32505 0
M  V30 94 N 7.3905 -1.2043 1.01659 0
M  V30 95 C 8.3205 -2.25466 0.607226 0
M  V30 96 C 9.3015 -1.65853 -0.377716 0
M  V30 97 O 10.4865 -1.92409 -0.263149 0
M  V30 98 C 7.6165 -3.47256 -0.0552949 0
M  V30 99 C 6.5705 -4.19462 0.850632 0
M  V30 100 C 5.8965 -5.34673 0.0538859 0
M  V30 101 C 7.1965 -4.75603 2.15868 0
M  V30 102 H 8.8905 -2.59962 1.48526 0
M  V30 103 H 6.4365 -1.2496 0.715605 0
M  V30 104 H 8.3895 -4.19917 -0.353233 0
M  V30 105 H 7.1135 -3.11924 -0.968045 0
M  V30 106 H 5.7725 -3.48667 1.13257 0
M  V30 107 H 5.4205 -4.95585 -0.860514 0
M  V30 108 H 5.1205 -5.83913 0.657192 0
M  V30 109 H 6.6445 -6.10138 -0.237598 0
M  V30 110 H 8.0585 -5.40083 1.92311 0
M  V30 111 H 6.4555 -5.3528 2.71284 0
M  V30 112 H 7.5255 -3.94346 2.82169 0
M  V30 113 N 8.8686 -0.792821 -1.36206 0
M  V30 114 C 10.0986 -0.378275 -2.03107 0
M  V30 115 C 10.5066 1.01119 -1.59911 0
M  V30 116 O 9.8496 1.66052 -0.785658 0
M  V30 117 C 9.9116 -0.366535 -3.57627 0
M  V30 118 C 9.5756 -1.70416 -4.24037 0
M  V30 119 C 10.5726 -2.6602 -4.46687 0
M  V30 120 C 8.2576 -1.98439 -4.6144 0
M  V30 121 C 10.2516 -3.8784 -5.05825 0
M  V30 122 C 7.9386 -3.20525 -5.20295 0
M  V30 123 C 8.9366 -4.15044 -5.42427 0
M  V30 124 O 8.6246 -5.34978 -6.00045 0
M  V30 125 H 8.3566 -0.153543 -0.658332 0
M  V30 126 H 10.9106 -1.07383 -1.75094 0
M  V30 127 H 9.1406 0.385539 -3.84773 0
M  V30 128 H 10.8296 0.0238088 -4.05893 0
M  V30 129 H 11.5956 -2.45658 -4.18183 0
M  V30 130 H 7.4746 -1.25686 -4.43536 0
M  V30 131 H 11.0186 -4.61628 -5.23015 0
M  V30 132 H 6.9156 -3.40764 -5.48225 0
M  V30 133 H 7.6836 -5.36088 -6.18508 0
M  V30 134 N 10.3467 1.47872 -0.545128 0
M  V30 135 C 11.2767 2.32661 0.197793 0
M  V30 136 C 12.2577 1.43041 0.920504 0
M  V30 137 O 13.4427 1.71912 0.90333 0
M  V30 138 C 10.5727 3.24569 1.23582 0
M  V30 139 C 9.5267 4.23333 0.630323 0
M  V30 140 C 8.8527 5.0448 1.77211 0
M  V30 141 C 10.1527 5.20704 -0.407974 0
M  V30 142 H 11.8467 2.95024 -0.510045 0
M  V30 143 H 9.3927 1.4187 -0.246731 0
M  V30 144 H 11.3457 3.8272 1.76362 0
M  V30 145 H 10.0697 2.60236 1.97344 0
M  V30 146 H 8.7287 3.6639 0.123922 0
M  V30 147 H 8.3767 4.36561 2.49847 0
M  V30 148 H 8.0767 5.71339 1.37281 0
M  V30 149 H 9.6007 5.65487 2.3034 0
M  V30 150 H 11.0147 5.7329 0.033305 0
M  V30 151 H 9.4117 5.95699 -0.725486 0
M  V30 152 H 10.4817 4.66917 -1.30828 0
M  V30 153 N 11.8248 0.280983 1.55075 0
M  V30 154 C 13.2358 -0.215629 1.85451 0
M  V30 155 C 13.5868 -1.54991 1.203 0
M  V30 156 O 12.7118 -2.10699 0.493435 0
M  V30 157 C 13.3068 -0.398026 3.36454 0
M  V30 158 C 11.8658 -0.838866 3.66933 0
M  V30 159 C 11.0128 0.064458 2.77225 0
M  V30 160 H 13.9638 0.502601 1.50531 0
M  V30 161 H 13.9848 -1.23569 3.59876 0
M  V30 162 H 13.4968 0.573241 3.83843 0
M  V30 163 H 11.5978 -1.8214 3.25048 0
M  V30 164 H 11.7108 -0.672123 4.74362 0
M  V30 165 H 10.0748 -0.452863 2.50642 0
M  V30 166 H 10.8578 1.03172 3.2743 0
M  V30 167 N 13.3029 -1.57598 0.00835791 0
M  V30 168 C 14.5509 -1.90551 -0.6734 0
M  V30 169 C 14.8719 -0.883301 -1.73847 0
M  V30 170 O 14.1419 0.0781442 -1.95744 0
M  V30 171 H 12.7219 -0.703312 -0.251717 0
M  V30 172 H 15.3839 -1.94833 0.0512592 0
M  V30 173 H 14.4799 -2.9056 -1.13935 0
M  V30 174 N 14.781 0.264519 -1.55364 0
M  V30 175 C 15.711 1.33121 -1.91836 0
M  V30 176 C 16.692 1.51101 -0.781192 0
M  V30 177 O 17.877 1.64003 -1.04003 0
M  V30 178 C 15.007 2.68921 -2.19769 0
M  V30 179 C 13.961 2.65661 -3.35571 0
M  V30 180 C 13.287 4.05093 -3.49004 0
M  V30 181 C 14.587 2.24187 -4.71739 0
M  V30 182 H 16.281 1.02844 -2.81182 0
M  V30 183 H 13.827 0.493286 -1.35287 0
M  V30 184 H 15.78 3.43663 -2.43872 0
M  V30 185 H 14.504 3.00799 -1.27231 0
M  V30 186 H 13.163 1.93377 -3.1145 0
M  V30 187 H 12.811 4.34206 -2.53917 0
M  V30 188 H 12.511 4.03804 -4.26868 0
M  V30 189 H 14.035 4.81561 -3.75408 0
M  V30 190 H 15.449 2.88654 -4.9533 0
M  V30 191 H 13.846 2.34044 -5.52579 0
M  V30 192 H 14.916 1.19327 -4.69988 0
M  V30 193 N 16.2591 1.48442 0.529413 0
M  V30 194 C 17.2091 1.59407 1.63014 0
M  V30 195 C 18.1931 0.451166 1.54445 0
M  V30 196 O 19.3851 0.702635 1.62456 0
M  V30 197 C 16.5141 1.63746 3.01732 0
M  V30 198 C 15.6001 2.83518 3.15402 0
M  V30 199 N 15.9911 4.07929 2.99045 0
M  V30 200 C 14.2891 2.80862 3.46457 0
M  V30 201 C 14.9901 4.8829 3.16146 0
M  V30 202 N 13.9661 4.21117 3.43746 0
M  V30 203 H 17.7681 2.53343 1.48978 0
M  V30 204 H 15.2821 1.44821 0.734885 0
M  V30 205 H 17.2791 1.69695 3.80801 0
M  V30 206 H 15.9391 0.709264 3.16859 0
M  V30 207 H 16.9501 4.38357 2.75796 0
M  V30 208 H 13.6271 1.97301 3.67938 0
M  V30 209 H 15.0171 5.97028 3.08232 0
M  V30 210 N 17.7372 -0.778329 1.37039 0
M  V30 211 C 18.6692 -1.90034 1.2814 0
M  V30 212 C 19.6822 -1.61585 0.198558 0
M  V30 213 O 20.8712 -1.72625 0.454175 0
M  V30 214 C 17.9712 -3.25108 0.956968 0
M  V30 215 C 17.1442 -3.81253 2.14394 0
M  V30 216 C 16.2032 -4.94789 1.79082 0
M  V30 217 O 15.2292 -5.10721 2.51301 0
M  V30 218 N 16.4312 -5.75878 0.731043 0
M  V30 219 H 19.1962 -1.98186 2.24816 0
M  V30 220 H 16.7572 -0.957129 1.30578 0
M  V30 221 H 18.7492 -3.9857 0.701701 0
M  V30 222 H 17.3192 -3.125 0.0789812 0
M  V30 223 H 16.5392 -2.99647 2.56135 0
M  V30 224 H 17.8272 -4.15495 2.93668 0
M  V30 225 H 17.2252 -5.65547 0.131618 0
M  V30 226 H 15.7822 -6.49596 0.535622 0
M  V30 227 N 19.2153 -1.21501 -1.00376 0
M  V30 228 C 20.1783 -0.976927 -2.07337 0
M  V30 229 C 21.1783 0.0525322 -1.60714 0
M  V30 230 O 22.3683 -0.184869 -1.73216 0
M  V30 231 C 19.5003 -0.473423 -3.37597 0
M  V30 232 H 20.6933 -1.92587 -2.29892 0
M  V30 233 H 18.2463 -1.03217 -1.17371 0
M  V30 234 H 18.9813 0.480379 -3.20722 0
M  V30 235 H 18.7663 -1.216 -3.72768 0
M  V30 236 H 20.2563 -0.32675 -4.1632 0
M  V30 237 N 20.6934 1.19889 -1.02296 0
M  V30 238 C 21.6234 2.25141 -0.619174 0
M  V30 239 C 22.6044 1.66051 0.368915 0
M  V30 240 O 23.7894 1.92546 0.252941 0
M  V30 241 C 20.9194 3.4728 0.0368783 0
M  V30 242 C 19.8734 4.19005 -0.872865 0
M  V30 243 C 19.1994 5.34637 -0.0822402 0
M  V30 244 C 20.4994 4.74452 -2.18387 0
M  V30 245 H 22.1934 2.59171 -1.49903 0
M  V30 246 H 19.7394 1.24579 -0.722222 0
M  V30 247 H 21.6924 4.20098 0.330958 0
M  V30 248 H 20.4164 3.12433 0.95149 0
M  V30 249 H 19.0754 3.48061 -1.15105 0
M  V30 250 H 18.7234 4.96034 0.83422 0
M  V30 251 H 18.4234 5.83557 -0.688149 0
M  V30 252 H 19.9474 6.10255 0.205238 0
M  V30 253 H 21.3614 5.39055 -1.95172 0
M  V30 254 H 19.7584 5.33834 -2.74119 0
M  V30 255 H 20.8284 3.92844 -2.84257 0
M  V30 256 N 22.1715 0.800033 1.35784 0
M  V30 257 C 23.5875 0.482977 1.52117 0
M  V30 258 C 23.7875 -0.996948 1.75109 0
M  V30 259 O 22.8435 -1.78216 1.78872 0
M  V30 260 C 24.1565 1.32264 2.70049 0
M  V30 261 C 25.7045 1.31742 2.83924 0
M  V30 262 C 26.1795 2.14106 4.04874 0
M  V30 263 N 27.6705 2.11607 4.12039 0
M  V30 264 C 28.4055 2.72099 5.04727 0
M  V30 265 N 27.9015 3.41492 6.02789 0
M  V30 266 N 29.6945 2.61776 4.97423 0
M  V30 267 H 21.8455 1.75856 1.19115 0
M  V30 268 H 24.1085 0.748122 0.582252 0
M  V30 269 H 23.8145 2.37261 2.59616 0
M  V30 270 H 23.6885 0.971303 3.6448 0
M  V30 271 H 26.0755 0.275333 2.93813 0
M  V30 272 H 26.1565 1.70859 1.9037 0
M  V30 273 H 25.8005 3.18351 3.95746 0
M  V30 274 H 25.7305 1.72353 4.97596 0
M  V30 275 H 28.2215 1.61112 3.41835 0
M  V30 276 H 28.5345 3.84953 6.70098 0
M  V30 277 H 26.8795 3.45596 6.02983 0
M  V30 278 H 30.0705 2.07157 4.19766 0
M  V30 279 H 30.2435 3.0921 5.69468 0
M  V30 280 N 23.6496 -1.47581 0.552962 0
M  V30 281 C 24.8976 -2.02082 0.0272703 0
M  V30 282 C 25.2186 -1.4301 -1.32563 0
M  V30 283 O 24.4886 -0.603745 -1.86365 0
M  V30 284 H 23.0686 -0.746966 0.00709182 0
M  V30 285 H 25.7306 -1.81033 0.722008 0
M  V30 286 H 24.8266 -3.12034 -0.0639951 0
M  V30 287 N 25.1277 -0.289203 -1.54924 0
M  V30 288 C 26.0907 0.579144 -2.21762 0
M  V30 289 C 27.0907 1.07047 -1.1999 0
M  V30 290 O 28.2807 0.968384 -1.44803 0
M  V30 291 C 25.4127 1.80055 -2.8947 0
M  V30 292 H 26.6057 -0.00464908 -2.999 0
M  V30 293 H 24.1587 -0.0399306 -1.56249 0
M  V30 294 H 24.8937 2.42449 -2.15381 0
M  V30 295 H 24.6787 1.45602 -3.64064 0
M  V30 296 H 26.1687 2.41773 -3.40493 0
M  V30 297 N 26.6058 1.57591 -0.0167156 0
M  V30 298 C 27.5358 2.12496 0.967858 0
M  V30 299 C 28.5168 1.03807 1.34752 0
M  V30 300 O 29.7018 1.31577 1.42833 0
M  V30 301 C 26.8318 2.64194 2.25431 0
M  V30 302 C 25.7858 3.77559 2.01576 0
M  V30 303 C 25.1118 4.15636 3.36379 0
M  V30 304 C 26.4118 5.04151 1.36489 0
M  V30 305 H 28.1058 2.95013 0.510643 0
M  V30 306 H 25.6518 1.41915 0.244181 0
M  V30 307 H 27.6048 3.01236 2.94678 0
M  V30 308 H 26.3288 1.78821 2.73296 0
M  V30 309 H 24.9878 3.40937 1.34751 0
M  V30 310 H 24.6358 3.27263 3.81979 0
M  V30 311 H 24.3358 4.92022 3.21229 0
M  V30 312 H 25.8598 4.5525 4.06915 0
M  V30 313 H 27.2738 5.38857 1.95718 0
M  V30 314 H 25.6708 5.85453 1.31776 0
M  V30 315 H 26.7408 4.83733 0.336219 0
M  V30 316 N 28.0839 -0.256276 1.55502 0
M  V30 317 C 29.3609 -1.00789 1.67633 0
M  V30 318 C 29.7409 -2.03706 0.553826 0
M  V30 319 O 29.0889 -2.24145 -0.443969 0
M  V30 320 C 29.2989 -1.64968 3.07549 0
M  V30 321 C 30.6469 -2.15505 3.65845 0
M  V30 322 O 31.6709 -1.74925 3.1029 0
M  V30 323 O 30.5299 -2.89986 4.63217 0
M  V30 324 H 27.6239 -0.468553 0.681459 0
M  V30 325 H 30.1699 -0.250806 1.67836 0
M  V30 326 H 28.9419 -0.904785 3.80696 0
M  V30 327 H 28.5649 -2.47321 3.11317 0
M  V30 328 N 29.562 -1.4872 -0.521534 0
M  V30 329 C 30.787 -1.61101 -1.30618 0
M  V30 330 C 31.212 -0.274611 -1.86085 0
M  V30 331 O 30.57 0.754937 -1.64834 0
M  V30 332 C 30.618 -2.66709 -2.4269 0
M  V30 333 O 29.722 -2.24456 -3.45967 0
M  V30 334 H 29.063 -0.539921 -0.386499 0
M  V30 335 H 31.593 -1.94767 -0.626645 0
M  V30 336 H 31.603 -2.88245 -2.88754 0
M  V30 337 H 30.278 -3.63727 -2.01682 0
M  V30 338 H 28.855 -2.13168 -3.05964 0
M  V30 339 N 31.0401 0.771051 -1.3745 0
M  V30 340 C 31.9701 1.89827 -1.3597 0
M  V30 341 C 32.9511 1.68562 -0.228216 0
M  V30 342 O 34.1361 1.8941 -0.428675 0
M  V30 343 C 31.2661 3.2712 -1.16662 0
M  V30 344 C 30.2201 3.6295 -2.2683 0
M  V30 345 C 29.5461 4.98791 -1.92644 0
M  V30 346 C 30.8461 3.69627 -3.69017 0
M  V30 347 H 32.5401 1.91323 -2.30295 0
M  V30 348 H 30.0861 0.919082 -1.10855 0
M  V30 349 H 32.0391 4.05615 -1.14256 0
M  V30 350 H 30.7631 3.26059 -0.187926 0
M  V30 351 H 29.4221 2.86763 -2.28392 0
M  V30 352 H 29.0701 4.94271 -0.933021 0
M  V30 353 H 28.7701 5.23733 -2.66416 0
M  V30 354 H 30.2941 5.79685 -1.91826 0
M  V30 355 H 31.7081 4.38273 -3.69581 0
M  V30 356 H 30.1051 4.06067 -4.41848 0
M  V30 357 H 31.1751 2.70273 -4.02592 0
M  V30 358 N 32.5182 1.22032 0.997298 0
M  V30 359 C 33.7662 1.04016 1.73278 0
M  V30 360 C 34.0872 -0.426255 1.90284 0
M  V30 361 O 33.3572 -1.30694 1.45931 0
M  V30 362 H 31.9372 0.381897 0.642 0
M  V30 363 H 34.5992 1.5347 1.20137 0
M  V30 364 H 33.6952 1.51441 2.72896 0
M  V30 365 N 33.9963 -1.19345 1.0293 0
M  V30 366 C 35.2243 -1.92997 0.745644 0
M  V30 367 C 35.6393 -1.75519 -0.695589 0
M  V30 368 O 34.9963 -1.07737 -1.47306 0
M  V30 369 C 35.0473 -3.44741 1.08792 0
M  V30 370 O 34.7683 -3.61658 2.47256 0
M  V30 371 C 36.2693 -4.35515 0.827129 0
M  V30 372 H 33.4893 -0.613042 0.272801 0
M  V30 373 H 36.0333 -1.51473 1.3739 0
M  V30 374 H 34.1883 -3.84097 0.504832 0
M  V30 375 H 34.6023 -4.55514 2.60015 0
M  V30 376 H 36.0763 -5.40589 1.11658 0
M  V30 377 H 36.5533 -4.38552 -0.238436 0
M  V30 378 H 37.1593 -4.01841 1.39297 0
M  V30 379 N 35.4744 -0.807222 -1.35358 0
M  V30 380 C 36.7214 -0.387888 -1.9875 0
M  V30 381 C 37.0494 1.04509 -1.64037 0
M  V30 382 O 36.3044 1.73986 -0.895946 0
M  V30 383 C 36.6034 -0.519036 -3.53611 0
M  V30 384 C 36.2694 -1.91542 -4.08194 0
M  V30 385 C 34.9314 -2.29745 -4.22813 0
M  V30 386 C 37.2834 -2.82896 -4.37744 0
M  V30 387 C 34.6114 -3.58668 -4.643 0
M  V30 388 C 36.9634 -4.11265 -4.8067 0
M  V30 389 C 35.6274 -4.49466 -4.93494 0
M  V30 390 H 34.8974 -0.141938 -0.727279 0
M  V30 391 H 37.5444 -1.02814 -1.6156 0
M  V30 392 H 35.8494 0.204658 -3.91265 0
M  V30 393 H 37.5464 -0.175345 -4.00616 0
M  V30 394 H 34.1364 -1.60862 -3.97268 0
M  V30 395 H 38.3204 -2.54629 -4.26002 0
M  V30 396 H 33.5764 -3.88113 -4.72418 0
M  V30 397 H 37.7504 -4.82153 -5.02496 0
M  V30 398 H 35.3774 -5.49418 -5.25399 0
M  V30 399 N 36.9525 1.47285 -0.560781 0
M  V30 400 C 38.1985 2.02764 -0.0381184 0
M  V30 401 C 38.5315 1.43384 1.30976 0
M  V30 402 O 37.8065 0.590733 1.85312 0
M  V30 403 C 38.0895 3.60064 0.0511427 0
M  V30 404 C 37.9425 4.2987 -1.32408 0
M  V30 405 C 39.2615 4.33439 0.762795 0
M  V30 406 H 36.3805 0.736841 -0.0153264 0
M  V30 407 H 39.0225 1.75675 -0.723759 0
M  V30 408 H 37.1725 3.83274 0.635065 0
M  V30 409 H 38.8445 4.17989 -1.95148 0
M  V30 410 H 37.0875 3.90085 -1.8978 0
M  V30 411 H 37.7585 5.38478 -1.21431 0
M  V30 412 H 40.2345 4.15243 0.266965 0
M  V30 413 H 39.1105 5.43124 0.794221 0
M  V30 414 H 39.3715 4.02915 1.81966 0
M  V30 415 N 38.4306 0.297415 1.54768 0
M  V30 416 C 39.6556 -0.318435 2.04941 0
M  V30 417 C 40.0806 -1.4701 1.17345 0
M  V30 418 O 39.4386 -1.80436 0.176758 0
M  V30 419 C 39.4866 -0.755749 3.52592 0
M  V30 420 O 38.5906 -1.86088 3.68028 0
M  V30 421 H 37.9316 -0.062421 0.661059 0
M  V30 422 H 40.4616 0.438215 1.99852 0
M  V30 423 H 40.4716 -1.04552 3.94376 0
M  V30 424 H 39.1466 0.0867233 4.1581 0
M  V30 425 H 37.7236 -1.57193 3.38149 0
M  V30 426 N 39.9087 -1.5758 0.0250728 0
M  V30 427 C 41.1387 -1.95646 -0.663783 0
M  V30 428 C 41.5467 -0.899935 -1.66427 0
M  V30 429 O 40.8897 0.127191 -1.83259 0
M  V30 430 C 40.9517 -3.29835 -1.43 0
M  V30 431 C 40.6157 -4.53197 -0.588305 0
M  V30 432 C 41.6127 -5.19726 0.13469 0
M  V30 433 C 39.2977 -4.99529 -0.526897 0
M  V30 434 C 41.2917 -6.30902 0.90781 0
M  V30 435 C 38.9787 -6.10589 0.24993 0
M  V30 436 C 39.9767 -6.76134 0.965994 0
M  V30 437 O 39.6647 -7.85062 1.7301 0
M  V30 438 H 39.3967 -0.649282 -0.188174 0
M  V30 439 H 41.9507 -2.05245 0.0799006 0
M  V30 440 H 40.1807 -3.16716 -2.21873 0
M  V30 441 H 41.8697 -3.52833 -2.00658 0
M  V30 442 H 42.6357 -4.84904 0.0965562 0
M  V30 443 H 38.5147 -4.48319 -1.07381 0
M  V30 444 H 42.0587 -6.81995 1.46724 0
M  V30 445 H 37.9557 -6.44849 0.289795 0
M  V30 446 H 38.7237 -8.01708 1.64944 0
M  V30 447 N 41.3868 0.248026 -1.55636 0
M  V30 448 C 42.3168 1.31079 -1.93237 0
M  V30 449 C 43.2978 1.50264 -0.797174 0
M  V30 450 O 44.4828 1.62891 -1.05737 0
M  V30 451 C 41.6128 2.66575 -2.22609 0
M  V30 452 C 40.5668 2.62087 -3.3837 0
M  V30 453 C 39.8928 4.01369 -3.53281 0
M  V30 454 C 41.1928 2.19171 -4.7409 0
M  V30 455 H 42.8868 0.998556 -2.82257 0
M  V30 456 H 40.4328 0.47891 -1.35803 0
M  V30 457 H 42.3858 3.41057 -2.47503 0
M  V30 458 H 41.1098 2.99432 -1.30414 0
M  V30 459 H 39.7688 1.90063 -3.13483 0
M  V30 460 H 39.4168 4.31489 -2.58508 0
M  V30 461 H 39.1168 3.99254 -4.31127 0
M  V30 462 H 40.6408 4.77552 -3.80495 0
M  V30 463 H 42.0548 2.83384 -4.98363 0
M  V30 464 H 40.4518 2.2817 -5.5503 0
M  V30 465 H 41.5218 1.14336 -4.71227 0
M  V30 466 N 42.8649 1.48995 0.513639 0
M  V30 467 C 43.7949 1.67636 1.62544 0
M  V30 468 C 44.7759 0.525087 1.61793 0
M  V30 469 O 45.9609 0.759502 1.78732 0
M  V30 470 C 43.0909 1.73114 3.01079 0
M  V30 471 C 42.0449 2.87905 3.16693 0
M  V30 472 C 41.3709 2.78486 4.56453 0
M  V30 473 C 42.6709 4.29005 2.97913 0
M  V30 474 H 44.3649 2.60716 1.47198 0
M  V30 475 H 41.9109 1.25465 0.706714 0
M  V30 476 H 43.8639 1.84742 3.78746 0
M  V30 477 H 42.5879 0.766241 3.17484 0
M  V30 478 H 41.2469 2.75859 2.41448 0
M  V30 479 H 40.8949 1.7993 4.69717 0
M  V30 480 H 40.5949 3.55523 4.67843 0
M  V30 481 H 42.1189 2.92104 5.36197 0
M  V30 482 H 43.5329 4.41798 3.65359 0
M  V30 483 H 41.9299 5.07166 3.20785 0
M  V30 484 H 42.9999 4.44329 1.94165 0
M  V30 485 N 44.343 -0.763751 1.37857 0
M  V30 486 C 45.591 -1.51957 1.33243 0
M  V30 487 C 45.912 -1.94835 -0.0801709 0
M  V30 488 O 45.182 -1.66894 -1.02582 0
M  V30 489 H 43.762 -0.563626 0.49024 0
M  V30 490 H 46.424 -0.908504 1.7243 0
M  V30 491 H 45.52 -2.41523 1.97669 0
M  V30 492 N 45.8211 -1.22559 -0.990812 0
M  V30 493 C 47.0981 -0.959875 -1.70428 0
M  V30 494 C 47.4781 0.524455 -2.04481 0
M  V30 495 O 46.8261 1.49302 -1.72977 0
M  V30 496 C 47.0361 -1.85955 -2.95333 0
M  V30 497 C 48.3841 -2.11687 -3.68068 0
M  V30 498 O 49.4081 -1.8342 -3.05345 0
M  V30 499 O 48.2671 -2.59572 -4.80921 0
M  V30 500 H 45.3611 -0.361154 -0.743974 0
M  V30 501 H 47.9071 -1.33554 -1.04697 0
M  V30 502 H 46.6791 -2.86346 -2.66687 0
M  V30 503 H 46.3021 -1.4856 -3.68803 0
M  V30 504 N 47.2992 1.18797 -1.03562 0
M  V30 505 C 48.2622 2.20464 -0.626769 0
M  V30 506 C 49.2622 1.57721 0.313173 0
M  V30 507 O 50.4522 1.73917 0.0992615 0
M  V30 508 C 47.5842 3.40802 0.0818498 0
M  V30 509 H 48.7772 2.58149 -1.5264 0
M  V30 510 H 46.3302 1.32593 -0.827578 0
M  V30 511 H 47.0652 3.08642 0.995518 0
M  V30 512 H 46.8502 3.8758 -0.593652 0
M  V30 513 H 48.3402 4.16092 0.354584 0
M  V30 514 N 48.7773 0.814389 1.34928 0
M  V30 515 C 50.0233 0.399013 1.98836 0
M  V30 516 C 50.3563 -1.03314 1.64438 0
M  V30 517 O 49.6313 -1.71811 0.911659 0
M  V30 518 C 49.9143 0.591629 3.55207 0
M  V30 519 C 49.7673 2.06928 3.99376 0
M  V30 520 C 51.0863 0.022199 4.40094 0
M  V30 521 H 48.2053 0.146451 0.722303 0
M  V30 522 H 50.8473 1.02537 1.59957 0
M  V30 523 H 48.9973 0.0584441 3.88456 0
M  V30 524 H 50.6693 2.66544 3.76499 0
M  V30 525 H 48.9123 2.56287 3.49999 0
M  V30 526 H 49.5833 2.1549 5.08201 0
M  V30 527 H 52.0593 0.477643 4.13349 0
M  V30 528 H 50.9353 0.186832 5.48582 0
M  V30 529 H 51.1963 -1.07215 4.28902 0
M  V30 530 N 50.2554 -1.46986 0.568584 0
M  V30 531 C 51.6664 -1.86188 0.138219 0
M  V30 532 C 52.0174 -1.47388 -1.29504 0
M  V30 533 O 51.1424 -0.88219 -1.97602 0
M  V30 534 C 51.7374 -3.3792 0.244065 0
M  V30 535 C 50.2964 -3.76171 -0.131335 0
M  V30 536 C 49.4434 -2.71027 0.586465 0
M  V30 537 H 52.3944 -1.38342 0.777645 0
M  V30 538 H 52.4154 -3.76729 -0.534351 0
M  V30 539 H 51.9274 -3.66128 1.28731 0
M  V30 540 H 50.0284 -3.5358 -1.17526 0
M  V30 541 H 50.1414 -4.78523 0.235146 0
M  V30 542 H 48.5054 -2.54684 0.0282722 0
M  V30 543 H 49.2884 -3.02077 1.63109 0
M  V30 544 N 51.7335 -0.305618 -1.54608 0
M  V30 545 C 52.9615 0.304775 -2.04643 0
M  V30 546 C 53.3765 1.47167 -1.18268 0
M  V30 547 O 52.7335 1.81296 -0.209328 0
M  V30 548 C 52.7845 0.756564 -3.53495 0
M  V30 549 O 52.5055 -0.36389 -4.36586 0
M  V30 550 C 54.0065 1.43163 -4.19546 0
M  V30 551 H 51.2265 0.0655481 -0.667791 0
M  V30 552 H 53.7705 -0.446592 -1.99564 0
M  V30 553 H 51.9255 1.45794 -3.58919 0
M  V30 554 H 52.3395 -0.0113121 -5.24499 0
M  V30 555 H 53.8135 1.69886 -5.25207 0
M  V30 556 H 54.2905 2.37318 -3.69563 0
M  V30 557 H 54.8965 0.773307 -4.18211 0
M  V30 558 N 53.2116 1.57565 -0.0334293 0
M  V30 559 C 54.4576 1.92262 0.645226 0
M  V30 560 C 54.7906 0.910543 1.71531 0
M  V30 561 O 54.0656 -0.066099 1.94388 0
M  V30 562 C 54.3486 3.37422 1.2577 0
M  V30 563 C 54.2016 4.49369 0.196891 0
M  V30 564 C 55.5206 3.82628 2.17449 0
M  V30 565 H 52.6396 0.699171 0.233085 0
M  V30 566 H 55.2816 1.89779 -0.0915694 0
M  V30 567 H 53.4316 3.39669 1.88566 0
M  V30 568 H 55.1036 4.59254 -0.433962 0
M  V30 569 H 53.3466 4.31168 -0.477137 0
M  V30 570 H 54.0176 5.47978 0.665124 0
M  V30 571 H 56.4936 3.82145 1.64634 0
M  V30 572 H 55.3696 4.84883 2.57254 0
M  V30 573 H 55.6306 3.18376 3.0674 0
M  V30 574 N 54.6897 -0.239769 1.55765 0
M  V30 575 C 55.5997 -1.31831 1.94056 0
M  V30 576 C 56.6157 -1.52275 0.841925 0
M  V30 577 O 57.7917 -1.65759 1.14394 0
M  V30 578 C 54.8567 -2.65156 2.23368 0
M  V30 579 C 53.9177 -2.53173 3.46701 0
M  V30 580 C 53.1507 -3.8014 3.74606 0
M  V30 581 O 53.3737 -4.82343 3.04469 0
M  V30 582 O 52.3077 -3.78344 4.68123 0
M  V30 583 H 56.1337 -1.02347 2.85935 0
M  V30 584 H 53.7187 -0.441123 1.42739 0
M  V30 585 H 55.6007 -3.43929 2.43497 0
M  V30 586 H 54.2757 -2.94358 1.34666 0
M  V30 587 H 53.1827 -1.72662 3.31871 0
M  V30 588 H 54.5157 -2.28915 4.35728 0
M  V30 589 N 56.1678 -1.49265 -0.50573 0
M  V30 590 C 57.5838 -1.35923 -0.836486 0
M  V30 591 C 57.7838 -0.388704 -1.97715 0
M  V30 592 O 56.8398 0.181336 -2.51848 0
M  V30 593 C 58.1528 -2.76531 -1.18115 0
M  V30 594 C 59.7008 -2.85197 -1.28964 0
M  V30 595 C 60.1758 -4.26561 -1.66761 0
M  V30 596 N 61.6668 -4.2935 -1.73819 0
M  V30 597 C 62.4018 -5.35693 -2.045 0
M  V30 598 N 61.8978 -6.52287 -2.33438 0
M  V30 599 N 63.6908 -5.23105 -2.05711 0
M  V30 600 H 55.8418 -2.10965 0.246519 0
M  V30 601 H 58.1048 -0.9468 0.0476887 0
M  V30 602 H 57.8108 -3.49226 -0.416398 0
M  V30 603 H 57.6848 -3.11599 -2.1257 0
M  V30 604 H 60.0718 -2.12742 -2.04511 0
M  V30 605 H 60.1528 -2.53718 -0.325704 0
M  V30 606 H 59.7968 -4.99541 -0.917656 0
M  V30 607 H 59.7268 -4.55502 -2.64246 0
M  V30 608 H 62.2178 -3.4526 -1.53635 0
M  V30 609 H 62.5308 -7.29158 -2.56024 0
M  V30 610 H 60.8758 -6.55521 -2.30905 0
M  V30 611 H 64.0668 -4.31026 -1.82577 0
M  V30 612 H 64.2398 -6.06078 -2.29289 0
M  V30 613 N 57.6459 0.756429 -1.3826 0
M  V30 614 C 58.5559 1.9009 -1.37488 0
M  V30 615 C 59.5719 1.71855 -0.272366 0
M  V30 616 O 60.7479 1.94827 -0.510318 0
M  V30 617 C 57.8129 3.25421 -1.19592 0
M  V30 618 C 56.8739 3.56202 -2.39622 0
M  V30 619 C 56.1069 4.85075 -2.2257 0
M  V30 620 O 56.3299 5.57246 -1.21793 0
M  V30 621 O 55.2639 5.15269 -3.11098 0
M  V30 622 H 59.0899 1.93695 -2.33914 0
M  V30 623 H 56.6749 0.901313 -1.1915 0
M  V30 624 H 58.5569 4.06337 -1.11661 0
M  V30 625 H 57.2319 3.22634 -0.262486 0
M  V30 626 H 56.1389 2.75458 -2.53128 0
M  V30 627 H 57.4719 3.63747 -3.31586 0
M  V30 628 N 59.124 1.23083 0.984299 0
M  V30 629 C 60.087 1.00979 2.05757 0
M  V30 630 C 61.087 -0.0269573 1.60777 0
M  V30 631 O 62.277 0.212403 1.729 0
M  V30 632 C 59.409 0.527072 3.36801 0
M  V30 633 H 60.602 1.9622 2.26799 0
M  V30 634 H 58.155 1.05072 1.15714 0
M  V30 635 H 58.89 -0.429294 3.21446 0
M  V30 636 H 58.675 1.27515 3.70786 0
M  V30 637 H 60.165 0.392942 4.15747 0
M  V30 638 N 60.6021 -1.18246 1.0419 0
M  V30 639 C 61.5341 -2.2142 0.592088 0
M  V30 640 C 62.5471 -1.59233 -0.338909 0
M  V30 641 O 63.7361 -1.78002 -0.133231 0
M  V30 642 C 60.8361 -3.38546 -0.154854 0
M  V30 643 C 60.0091 -4.3031 0.784328 0
M  V30 644 C 59.0681 -5.26138 0.0804583 0
M  V30 645 O 58.0941 -5.64738 0.711292 0
M  V30 646 N 59.2961 -5.68261 -1.18574 0
M  V30 647 H 62.0611 -2.60636 1.47949 0
M  V30 648 H 59.6221 -1.33044 0.922544 0
M  V30 649 H 61.6141 -3.99678 -0.635606 0
M  V30 650 H 60.1841 -2.98012 -0.943811 0
M  V30 651 H 59.4041 -3.66764 1.44491 0
M  V30 652 H 60.6921 -4.8852 1.42218 0
M  V30 653 H 60.0901 -5.38957 -1.71876 0
M  V30 654 H 58.6471 -6.31584 -1.61074 0
M  V30 655 N 62.0802 -0.821533 -1.34494 0
M  V30 656 C 63.0432 -0.247847 -2.27856 0
M  V30 657 C 64.0432 0.573453 -1.50227 0
M  V30 658 O 65.2332 0.389759 -1.69784 0
M  V30 659 C 62.3652 0.652698 -3.34593 0
M  V30 660 H 63.5582 -1.07146 -2.80107 0
M  V30 661 H 61.1112 -0.593291 -1.44602 0
M  V30 662 H 61.8462 1.49943 -2.87555 0
M  V30 663 H 61.6312 0.065292 -3.92046 0
M  V30 664 H 63.1212 1.04793 -4.04238 0
M  V30 665 N 63.5583 1.46682 -0.576371 0
M  V30 666 C 64.5213 2.28707 0.150239 0
M  V30 667 C 65.5213 1.38035 0.824794 0
M  V30 668 O 66.7113 1.60476 0.677719 0
M  V30 669 C 63.8433 3.18248 1.22192 0
M  V30 670 H 65.0363 2.94423 -0.570521 0
M  V30 671 H 62.5893 1.52688 -0.334078 0
M  V30 672 H 63.3243 2.57265 1.97447 0
M  V30 673 H 63.1093 3.85 0.742812 0
M  V30 674 H 64.5993 3.80001 1.73172 0
M  V30 675 N 65.0364 0.313813 1.54444 0
M  V30 676 C 65.9464 -0.565714 2.27677 0
M  V30 677 C 66.9624 -1.13754 1.31666 0
M  V30 678 O 68.1384 -1.15959 1.64668 0
M  V30 679 C 65.2034 -1.71528 3.01296 0
M  V30 680 C 64.2644 -1.17624 4.12872 0
M  V30 681 C 63.4974 -2.27102 4.8297 0
M  V30 682 O 63.7204 -3.47256 4.52514 0
M  V30 683 O 62.6544 -1.9307 5.70094 0
M  V30 684 H 66.4804 0.0287296 3.03686 0
M  V30 685 H 64.0654 0.0798312 1.49187 0
M  V30 686 H 65.9474 -2.38476 3.4743 0
M  V30 687 H 64.6224 -2.29608 2.2817 0
M  V30 688 H 63.5294 -0.472124 3.71109 0
M  V30 689 H 64.8624 -0.640695 4.88012 0
M  V30 690 N 66.5145 -1.57545 0.0417849 0
M  V30 691 C 67.4245 -2.14451 -0.951213 0
M  V30 692 C 68.4405 -1.09992 -1.34825 0
M  V30 693 O 69.6165 -1.42114 -1.42708 0
M  V30 694 C 66.6815 -2.67063 -2.21084 0
M  V30 695 C 65.7425 -3.86284 -1.87304 0
M  V30 696 C 64.9755 -4.36378 -3.07261 0
M  V30 697 O 65.1985 -3.85587 -4.20332 0
M  V30 698 O 64.1325 -5.28077 -2.88822 0
M  V30 699 H 67.9585 -2.99601 -0.497287 0
M  V30 700 H 65.5435 -1.48317 -0.179567 0
M  V30 701 H 67.4255 -3.00914 -2.95006 0
M  V30 702 H 66.1005 -1.84989 -2.65633 0
M  V30 703 H 65.0075 -3.57338 -1.10727 0
M  V30 704 H 66.3405 -4.6956 -1.47562 0
M  V30 705 N 67.9926 0.231505 -1.5589 0
M  V30 706 C 68.9226 1.29022 -1.94617 0
M  V30 707 C 69.9036 1.4941 -0.813067 0
M  V30 708 O 71.0886 1.6176 -1.07459 0
M  V30 709 C 68.2186 2.64199 -2.25424 0
M  V30 710 C 67.1726 2.58484 -3.41131 0
M  V30 711 C 66.4986 3.97599 -3.57518 0
M  V30 712 C 67.7986 2.1413 -4.76388 0
M  V30 713 H 69.4926 0.968563 -2.83301 0
M  V30 714 H 67.0386 0.464479 -1.36303 0
M  V30 715 H 68.9916 3.38413 -2.51107 0
M  V30 716 H 67.7156 2.98032 -1.33583 0
M  V30 717 H 66.3746 1.86727 -3.15481 0
M  V30 718 H 66.0226 4.28723 -2.6307 0
M  V30 719 H 65.7226 3.94659 -4.35337 0
M  V30 720 H 67.2466 4.7349 -3.85538 0
M  V30 721 H 68.6606 2.78083 -5.01341 0
M  V30 722 H 67.0576 2.2227 -5.57419 0
M  V30 723 H 68.1276 1.09331 -4.72414 0
M  V30 724 N 69.4707 1.49531 0.497807 0
M  V30 725 C 70.7187 1.58865 1.24926 0
M  V30 726 C 71.0397 0.278721 1.92998 0
M  V30 727 O 70.3097 -0.702144 1.82885 0
M  V30 728 H 68.8897 0.585343 0.464094 0
M  V30 729 H 71.5517 1.86174 0.57666 0
M  V30 730 H 70.6477 2.38633 2.01149 0
M  V30 731 N 70.9488 -0.749086 1.3866 0
M  V30 732 C 72.1948 -1.51056 1.35314 0
M  V30 733 C 72.5278 -1.94121 -0.0553751 0
M  V30 734 O 71.8028 -1.65763 -1.01749 0
M  V30 735 C 72.0858 -2.76003 2.31288 0
M  V30 736 C 71.9388 -2.39047 3.8102 0
M  V30 737 C 73.2578 -3.78046 2.2532 0
M  V30 738 H 70.3768 -0.547972 0.492844 0
M  V30 739 H 73.0188 -0.857628 1.69543 0
M  V30 740 H 71.1688 -3.31716 2.02229 0
M  V30 741 H 72.8408 -1.89074 4.20771 0
M  V30 742 H 71.0838 -1.71449 3.98482 0
M  V30 743 H 71.7548 -3.28462 4.4364 0
M  V30 744 H 74.2308 -3.31884 2.50983 0
M  V30 745 H 73.1068 -4.63159 2.94576 0
M  V30 746 H 73.3678 -4.23957 1.25352 0
M  V30 747 N 72.4269 -1.23603 -0.977757 0
M  V30 748 C 73.6729 -1.07129 -1.72195 0
M  V30 749 C 74.0059 0.390501 -1.90233 0
M  V30 750 O 73.2809 1.28902 -1.45653 0
M  V30 751 C 73.5639 -1.80031 -3.11867 0
M  V30 752 C 73.4169 -3.33899 -3.01383 0
M  V30 753 C 74.7359 -1.56492 -4.11337 0
M  V30 754 H 71.8549 -0.390571 -0.624999 0
M  V30 755 H 74.4969 -1.52142 -1.13811 0
M  V30 756 H 72.6469 -1.41768 -3.6171 0
M  V30 757 H 74.3189 -3.81699 -2.59043 0
M  V30 758 H 72.5619 -3.62796 -2.37827 0
M  V30 759 H 73.2329 -3.801 -4.00285 0
M  V30 760 H 75.7089 -1.89757 -3.70313 0
M  V30 761 H 74.5849 -2.09973 -5.07151 0
M  V30 762 H 74.8459 -0.500874 -4.39254 0
M  V30 763 N 73.905 1.17692 -1.04816 0
M  V30 764 C 74.868 2.19787 -0.650117 0
M  V30 765 C 75.868 1.58044 0.296427 0
M  V30 766 O 77.058 1.74012 0.0808097 0
M  V30 767 C 74.19 3.40869 0.0456987 0
M  V30 768 H 75.383 2.56516 -1.5537 0
M  V30 769 H 72.936 1.31708 -0.841594 0
M  V30 770 H 73.671 3.09681 0.962726 0
M  V30 771 H 73.456 3.86928 -0.634727 0
M  V30 772 H 74.946 4.16445 0.310432 0
M  V30 773 N 75.3831 0.828654 1.34056 0
M  V30 774 C 76.6291 0.42008 1.98402 0
M  V30 775 C 76.9621 -1.01564 1.65525 0
M  V30 776 O 76.2371 -1.70834 0.929831 0
M  V30 777 C 76.5201 0.62927 3.54559 0
M  V30 778 C 76.3731 2.11152 3.97159 0
M  V30 779 C 77.6921 0.0688756 4.40046 0
M  V30 780 H 74.8111 0.154104 0.720709 0
M  V30 781 H 77.4531 1.04228 1.5886 0
M  V30 782 H 75.6031 0.0996418 3.88372 0
M  V30 783 H 77.2751 2.70522 3.73651 0
M  V30 784 H 75.5181 2.59985 3.47261 0
M  V30 785 H 76.1891 2.20868 5.05887 0
M  V30 786 H 78.6651 0.521458 4.1282 0
M  V30 787 H 77.5411 0.245006 5.48353 0
M  V30 788 H 77.8021 -1.0266 4.30015 0
M  V30 789 N 76.8612 -1.46375 0.584142 0
M  V30 790 C 78.1092 -2.01978 0.0701287 0
M  V30 791 C 78.4302 -1.4579 -1.295 0
M  V30 792 O 77.7002 -0.64314 -1.85042 0
M  V30 793 H 76.2802 -0.746648 0.0229345 0
M  V30 794 H 78.9422 -1.79461 0.760245 0
M  V30 795 H 78.0382 -3.121 0.0022064 0
M  V30 796 N 78.3393 -0.321999 -1.54275 0
M  V30 797 C 79.2863 0.544664 -2.24281 0
M  V30 798 C 80.2563 1.1129 -1.23303 0
M  V30 799 O 81.4413 1.15354 -1.51981 0
M  V30 800 C 78.5813 1.70045 -3.00298 0
M  V30 801 C 77.6943 1.16159 -4.1609 0
M  V30 802 C 76.8293 2.28293 -4.79641 0
M  V30 803 C 75.8683 1.71648 -5.8754 0
M  V30 804 N 75.0053 2.77438 -6.44959 0
M  V30 805 H 79.8453 -0.0588907 -2.97942 0
M  V30 806 H 77.3823 -0.0408345 -1.47043 0
M  V30 807 H 79.3403 2.38054 -3.42616 0
M  V30 808 H 77.9703 2.27531 -2.28975 0
M  V30 809 H 77.0223 0.373092 -3.78566 0
M  V30 810 H 78.3343 0.707087 -4.93763 0
M  V30 811 H 77.4883 3.0421 -5.2492 0
M  V30 812 H 76.2273 2.77079 -4.01346 0
M  V30 813 H 75.2323 0.942282 -5.41665 0
M  V30 814 H 76.4573 1.23741 -6.67731 0
M  V30 815 H 74.4033 3.25519 -5.69538 0
M  V30 816 H 74.3203 2.36547 -7.1804 0
M  V30 817 H 75.5883 3.53189 -6.94894 0
M  V30 818 N 79.8174 1.5752 -0.0501392 0
M  V30 819 C 81.0454 1.96963 0.633492 0
M  V30 820 C 81.4604 0.927631 1.6444 0
M  V30 821 O 80.8174 -0.0882665 1.82286 0
M  V30 822 C 80.8684 3.36487 1.32132 0
M  V30 823 O 80.5894 4.36693 0.350894 0
M  V30 824 C 82.0904 3.90682 2.09481 0
M  V30 825 H 79.3104 0.648244 0.173266 0
M  V30 826 H 81.8544 2.0417 -0.116134 0
M  V30 827 H 80.0094 3.30434 2.02218 0
M  V30 828 H 80.4234 5.17702 0.841735 0
M  V30 829 H 81.8974 4.90591 2.5303 0
M  V30 830 H 82.3744 3.26053 2.94255 0
M  V30 831 H 82.9804 4.00069 1.44307 0
M  V30 832 N 81.2955 -0.223234 1.56011 0
M  V30 833 C 82.5435 -0.946003 1.78592 0
M  V30 834 C 82.8645 -1.84936 0.618349 0
M  V30 835 O 82.1345 -1.92473 -0.364833 0
M  V30 836 H 80.7145 -0.352298 0.658707 0
M  V30 837 H 83.3765 -0.235494 1.93472 0
M  V30 838 H 82.4725 -1.55381 2.70672 0
M  V30 839 N 82.7736 -1.49793 -0.48987 0
M  V30 840 C 83.7206 -1.67281 -1.59014 0
M  V30 841 C 84.6906 -0.514177 -1.57941 0
M  V30 842 O 85.8756 -0.742533 -1.75759 0
M  V30 843 C 83.0156 -1.75569 -2.97102 0
M  V30 844 C 82.1286 -3.0281 -3.08107 0
M  V30 845 C 81.2636 -3.02008 -4.36995 0
M  V30 846 C 80.3026 -4.23782 -4.41673 0
M  V30 847 N 79.4396 -4.20826 -5.62005 0
M  V30 848 H 84.2796 -2.61224 -1.43409 0
M  V30 849 H 81.8166 -1.29508 -0.697565 0
M  V30 850 H 83.7746 -1.78354 -3.77155 0
M  V30 851 H 82.4046 -0.850827 -3.11385 0
M  V30 852 H 81.4566 -3.09584 -2.21047 0
M  V30 853 H 82.7686 -3.92801 -3.07423 0
M  V30 854 H 81.9226 -3.03418 -5.25378 0
M  V30 855 H 80.6616 -2.09815 -4.4026 0
M  V30 856 H 79.6666 -4.22604 -3.5169 0
M  V30 857 H 80.8916 -5.17181 -4.40115 0
M  V30 858 H 78.8376 -3.31476 -5.66091 0
M  V30 859 H 78.7546 -5.04564 -5.62984 0
M  V30 860 H 80.0226 -4.26355 -6.52565 0
M  V30 861 N 84.2517 0.741722 -1.39055 0
M  V30 862 C 85.5007 1.49656 -1.35225 0
M  V30 863 C 85.8137 1.95533 0.0512708 0
M  V30 864 O 87.0197 2.7067 0.212138 0
M  V30 865 C 85.4757 2.70389 -2.37525 0
M  V30 866 C 85.0837 2.31489 -3.83558 0
M  V30 867 C 86.8277 3.48236 -2.42759 0
M  V30 868 C 84.7347 3.48903 -4.77515 0
M  V30 869 H 83.6647 0.56197 -0.502699 0
M  V30 870 H 86.3157 0.809727 -1.64668 0
M  V30 871 H 84.6977 3.41113 -2.01142 0
M  V30 872 H 85.8717 1.68354 -4.28945 0
M  V30 873 H 84.1867 1.66749 -3.81554 0
M  V30 874 H 86.7837 4.35558 -3.1015 0
M  V30 875 H 87.1267 3.90229 -1.45008 0
M  V30 876 H 87.6597 2.84535 -2.78002 0
M  V30 877 H 84.3987 3.11966 -5.76504 0
M  V30 878 H 83.9187 4.11041 -4.36813 0
M  V30 879 H 85.5977 4.15328 -4.96096 0
M  V30 880 N 85.7298 1.2412 0.971189 0
M  V30 881 C 86.9758 1.08041 1.71625 0
M  V30 882 C 87.3088 -0.380407 1.90438 0
M  V30 883 O 86.5838 -1.28127 1.46334 0
M  V30 884 C 86.8668 1.81682 3.10908 0
M  V30 885 C 86.7198 3.35493 2.99608 0
M  V30 886 C 88.0388 1.58671 4.10501 0
M  V30 887 H 85.1578 0.39388 0.622919 0
M  V30 888 H 87.7998 1.52743 1.13003 0
M  V30 889 H 85.9498 1.43684 3.60953 0
M  V30 890 H 87.6218 3.83068 2.57015 0
M  V30 891 H 85.8648 3.64052 2.35899 0
M  V30 892 H 86.5358 3.82217 3.98264 0
M  V30 893 H 89.0118 1.91719 3.69301 0
M  V30 894 H 87.8878 2.1266 5.06031 0
M  V30 895 H 88.1488 0.524161 4.38982 0
M  V30 896 N 87.2079 -1.17134 1.05439 0
M  V30 897 C 88.1179 -2.24878 0.668365 0
M  V30 898 C 89.1339 -1.71186 -0.311687 0
M  V30 899 O 90.3099 -2.00738 -0.163161 0
M  V30 900 C 87.3749 -3.46662 0.051648 0
M  V30 901 C 86.4359 -4.15429 1.08246 0
M  V30 902 C 85.6689 -5.31399 0.495082 0
M  V30 903 O 85.8919 -5.66153 -0.694743 0
M  V30 904 O 84.8259 -5.89187 1.23056 0
M  V30 905 H 88.6519 -2.60189 1.56637 0
M  V30 906 H 86.2369 -1.24482 0.826104 0
M  V30 907 H 88.1189 -4.20394 -0.290966 0
M  V30 908 H 86.7939 -3.13142 -0.819971 0
M  V30 909 H 85.7009 -3.43704 1.47711 0
M  V30 910 H 87.0339 -4.52982 1.92532 0
M  V30 911 N 88.686 -0.835752 -1.33615 0
M  V30 912 C 89.596 -0.269088 -2.33052 0
M  V30 913 C 90.612 0.603251 -1.63208 0
M  V30 914 O 91.788 0.508112 -1.94885 0
M  V30 915 C 88.853 0.549091 -3.42324 0
M  V30 916 C 87.914 -0.347156 -4.27894 0
M  V30 917 C 87.147 0.43207 -5.31948 0
M  V30 918 O 87.37 1.66409 -5.45586 0
M  V30 919 O 86.304 -0.192298 -6.01593 0
M  V30 920 H 90.13 -1.09243 -2.83372 0
M  V30 921 H 87.715 -0.598198 -1.36901 0
M  V30 922 H 89.597 1.01414 -4.09015 0
M  V30 923 H 88.272 1.34955 -2.94226 0
M  V30 924 H 87.179 -0.859979 -3.64081 0
M  V30 925 H 88.512 -1.1123 -4.79467 0
M  V30 926 N 90.1641 1.46063 -0.591896 0
M  V30 927 C 91.0741 2.34192 0.13831 0
M  V30 928 C 92.0901 1.50305 0.876608 0
M  V30 929 O 93.2661 1.8315 0.837728 0
M  V30 930 C 90.3311 3.27656 1.13326 0
M  V30 931 C 89.3921 4.27445 0.39863 0
M  V30 932 C 88.6251 5.16443 1.34618 0
M  V30 933 O 88.8481 5.08553 2.58321 0
M  V30 934 O 87.7821 5.95843 0.851768 0
M  V30 935 H 91.6081 2.98002 -0.58552 0
M  V30 936 H 89.1931 1.45188 -0.352239 0
M  V30 937 H 91.0751 3.85291 1.70671 0
M  V30 938 H 89.7501 2.6643 1.83839 0
M  V30 939 H 88.6571 3.73471 -0.216895 0
M  V30 940 H 89.9901 4.91482 -0.265709 0
M  V30 941 N 91.6422 0.330177 1.54103 0
M  V30 942 C 92.6052 -0.520144 2.2322 0
M  V30 943 C 93.6052 -1.03828 1.22786 0
M  V30 944 O 94.7952 -0.929652 1.4732 0
M  V30 945 C 91.9272 -1.72317 2.94142 0
M  V30 946 H 93.1202 0.0841605 2.99782 0
M  V30 947 H 90.6732 0.0813433 1.56088 0
M  V30 948 H 91.4082 -2.36653 2.21734 0
M  V30 949 H 91.1932 -1.35898 3.67796 0
M  V30 950 H 92.6832 -2.3266 3.46784 0
M  V30 951 N 93.1203 -1.57491 0.0584922 0
M  V30 952 C 94.0523 -2.08916 -0.942694 0
M  V30 953 C 95.0653 -1.0185 -1.27006 0
M  V30 954 O 96.2543 -1.29398 -1.22957 0
M  V30 955 C 93.3543 -2.52341 -2.26224 0
M  V30 956 C 92.5273 -3.82827 -2.1157 0
M  V30 957 C 91.5863 -4.12487 -3.26712 0
M  V30 958 O 90.6123 -4.82295 -3.02292 0
M  V30 959 N 91.8143 -3.64978 -4.5141 0
M  V30 960 H 94.5793 -2.95437 -0.503722 0
M  V30 961 H 92.1403 -1.61397 -0.12757 0
M  V30 962 H 94.1323 -2.69254 -3.02133 0
M  V30 963 H 92.7023 -1.7103 -2.61663 0
M  V30 964 H 91.9223 -3.75425 -1.20208 0
M  V30 965 H 93.2103 -4.68263 -1.99015 0
M  V30 966 H 92.6083 -3.08558 -4.7414 0
M  V30 967 H 91.1653 -3.87115 -5.2439 0
M  V30 968 N 94.5984 0.214957 -1.56127 0
M  V30 969 C 95.5084 1.28727 -1.96129 0
M  V30 970 C 96.5244 1.50916 -0.866044 0
M  V30 971 O 97.7004 1.63918 -1.17016 0
M  V30 972 C 94.7654 2.61569 -2.27558 0
M  V30 973 C 93.8264 2.47625 -3.50685 0
M  V30 974 C 93.0594 3.74132 -3.80606 0
M  V30 975 O 93.2824 4.77438 -3.12104 0
M  V30 976 O 92.2164 3.70849 -4.74083 0
M  V30 977 H 96.0424 0.977855 -2.87527 0
M  V30 978 H 93.6274 0.418358 -1.43423 0
M  V30 979 H 95.5094 3.40012 -2.48938 0
M  V30 980 H 94.1844 2.92178 -1.39332 0
M  V30 981 H 93.0914 1.67361 -3.34576 0
M  V30 982 H 94.4244 2.21954 -4.39315 0
M  V30 983 N 96.0765 1.50051 0.48192 0
M  V30 984 C 97.3535 1.51009 1.2432 0
M  V30 985 C 97.7335 0.248587 2.09631 0
M  V30 986 O 97.0815 -0.768409 2.15192 0
M  V30 987 C 97.2915 2.79981 2.08355 0
M  V30 988 C 98.6395 3.3022 2.66908 0
M  V30 989 O 99.6635 2.81228 2.18607 0
M  V30 990 O 98.5225 4.15595 3.54884 0
M  V30 991 H 95.6165 0.605239 0.563573 0
M  V30 992 H 98.1625 1.62332 0.494627 0
M  V30 993 H 96.9345 3.63275 1.45419 0
M  V30 994 H 96.5575 2.7161 2.90368 0
M  V30 995 N 97.5546 -0.734337 1.39446 0
M  V30 996 C 98.4846 -1.86155 1.40955 0
M  V30 997 C 99.4656 -1.67898 0.272827 0
M  V30 998 O 100.651 -1.88207 0.478743 0
M  V30 999 C 97.7806 -3.23912 1.25294 0
M  V30 1000 C 96.7346 -3.56808 2.36373 0
M  V30 1001 C 96.0606 -4.93508 2.058 0
M  V30 1002 C 97.3606 -3.59713 3.78687 0
M  V30 1003 H 99.0546 -1.8515 2.35287 0
M  V30 1004 H 96.6006 -0.889367 1.13253 0
M  V30 1005 H 98.5536 -4.02443 1.2497 0
M  V30 1006 H 97.2776 -3.25446 0.274308 0
M  V30 1007 H 95.9366 -2.80606 2.35914 0
M  V30 1008 H 95.5846 -4.91623 1.06374 0
M  V30 1009 H 95.2846 -5.16486 2.80208 0
M  V30 1010 H 96.8086 -5.74396 2.07128 0
M  V30 1011 H 98.2226 -4.2832 3.81071 0
M  V30 1012 H 96.6196 -3.94209 4.52459 0
M  V30 1013 H 97.6896 -2.59504 4.09617 0
M  V30 1014 N 99.0327 -1.24633 -0.964593 0
M  V30 1015 C 99.9427 -1.05859 -2.09359 0
M  V30 1016 C 100.959 0.00148855 -1.74 0
M  V30 1017 O 102.135 -0.197346 -2.00431 0
M  V30 1018 C 99.1997 -0.668879 -3.40187 0
M  V30 1019 C 98.2607 -1.80578 -3.89474 0
M  V30 1020 C 97.4937 -1.43457 -5.14058 0
M  V30 1021 O 97.7167 -0.325775 -5.69469 0
M  V30 1022 O 96.6507 -2.2613 -5.57807 0
M  V30 1023 H 100.477 -2.00516 -2.28094 0
M  V30 1024 H 98.0617 -1.03481 -1.0776 0
M  V30 1025 H 99.9437 -0.463211 -4.18846 0
M  V30 1026 H 98.6187 0.248536 -3.22744 0
M  V30 1027 H 97.5257 -2.06623 -3.11862 0
M  V30 1028 H 98.8587 -2.70208 -4.11398 0
M  V30 1029 N 100.511 1.16574 -1.06058 0
M  V30 1030 C 101.759 1.86677 -0.77434 0
M  V30 1031 C 102.08 1.81959 0.701147 0
M  V30 1032 O 101.35 1.2515 1.50713 0
M  V30 1033 H 99.9298 0.691134 -0.283449 0
M  V30 1034 H 102.592 1.41378 -1.34158 0
M  V30 1035 H 101.688 2.92181 -1.09711 0
M  V30 1036 N 101.989 0.842826 1.3317 0
M  V30 1037 C 102.919 0.294028 2.31641 0
M  V30 1038 C 103.9 -0.600401 1.59151 0
M  V30 1039 O 105.085 -0.523124 1.87022 0
M  V30 1040 C 102.215 -0.528416 3.43257 0
M  V30 1041 C 101.169 0.27056 4.27144 0
M  V30 1042 C 100.495 -0.675881 5.30411 0
M  V30 1043 C 101.795 1.48981 5.00602 0
M  V30 1044 H 103.489 1.11681 2.77791 0
M  V30 1045 H 101.035 0.538478 1.33553 0
M  V30 1046 H 102.988 -0.922674 4.11175 0
M  V30 1047 H 101.712 -1.38445 2.95805 0
M  V30 1048 H 100.371 0.646427 3.60856 0
M  V30 1049 H 100.019 -1.52842 4.79216 0
M  V30 1050 H 99.7189 -0.145374 5.8742 0
M  V30 1051 H 101.243 -1.06757 6.01195 0
M  V30 1052 H 102.657 1.16849 5.61266 0
M  V30 1053 H 101.054 1.95739 5.6728 0
M  V30 1054 H 102.124 2.25746 4.29147 0
M  V30 1055 N 103.467 -1.45747 0.599634 0
M  V30 1056 C 104.883 -1.57424 0.26264 0
M  V30 1057 C 105.083 -1.59222 -1.23493 0
M  V30 1058 O 104.139 -1.51825 -2.01756 0
M  V30 1059 C 105.452 -2.86061 0.926795 0
M  V30 1060 C 107 -2.99722 0.901967 0
M  V30 1061 C 107.475 -4.31119 1.54598 0
M  V30 1062 N 108.966 -4.37858 1.5111 0
M  V30 1063 C 109.701 -5.3818 1.97863 0
M  V30 1064 N 109.197 -6.45083 2.52666 0
M  V30 1065 N 110.99 -5.29487 1.88679 0
M  V30 1066 H 103.141 -1.42823 1.57211 0
M  V30 1067 H 105.404 -0.68235 0.658105 0
M  V30 1068 H 105.11 -2.90605 1.98095 0
M  V30 1069 H 104.984 -3.74563 0.445238 0
M  V30 1070 H 107.371 -2.9475 -0.143617 0
M  V30 1071 H 107.452 -2.12652 1.42171 0
M  V30 1072 H 107.096 -4.36849 2.59085 0
M  V30 1073 H 107.026 -5.16992 1.00132 0
M  V30 1074 H 109.517 -3.61209 1.11068 0
M  V30 1075 H 109.83 -7.17869 2.86155 0
M  V30 1076 H 108.175 -6.45856 2.56701 0
M  V30 1077 H 111.366 -4.44877 1.4561 0
M  V30 1078 H 111.539 -6.07524 2.25429 0
M  V30 1079 N 104.945 -0.338344 -1.53925 0
M  V30 1080 C 106.193 0.259245 -2.0043 0
M  V30 1081 C 106.514 1.51484 -1.22791 0
M  V30 1082 O 105.784 1.93037 -0.33368 0
M  V30 1083 H 104.364 0.0987845 -0.740439 0
M  V30 1084 H 107.026 -0.458302 -1.89435 0
M  V30 1085 H 106.122 0.505334 -3.07982 0
M  V30 1086 N 106.423 1.57458 -0.0668435 0
M  V30 1087 C 107.648 1.9804 0.616027 0
M  V30 1088 C 108.073 0.944771 1.62652 0
M  V30 1089 O 107.431 -0.0902094 1.81075 0
M  V30 1090 C 107.479 3.37665 1.26549 0
M  V30 1091 O 106.583 3.36701 2.38131 0
M  V30 1092 H 105.924 0.644719 0.158849 0
M  V30 1093 H 108.454 2.04121 -0.139891 0
M  V30 1094 H 108.464 3.7474 1.6135 0
M  V30 1095 H 107.139 4.12573 0.525016 0
M  V30 1096 H 105.716 3.1139 2.0516 0
M  V30 1097 N 107.901 -0.206675 1.56239 0
M  V30 1098 C 108.833 -1.27997 1.9013 0
M  V30 1099 C 109.846 -1.42299 0.790883 0
M  V30 1100 O 111.035 -1.42931 1.06925 0
M  V30 1101 C 108.135 -2.65368 2.10792 0
M  V30 1102 C 107.308 -2.72824 3.41886 0
M  V30 1103 C 106.367 -3.9131 3.51799 0
M  V30 1104 O 105.393 -3.78953 4.24716 0
M  V30 1105 N 106.595 -5.06265 2.84035 0
M  V30 1106 H 109.36 -0.992444 2.82791 0
M  V30 1107 H 106.921 -0.396652 1.56966 0
M  V30 1108 H 108.913 -3.43039 2.14724 0
M  V30 1109 H 107.483 -2.86657 1.24685 0
M  V30 1110 H 106.703 -1.81515 3.49923 0
M  V30 1111 H 107.991 -2.74786 4.28217 0
M  V30 1112 H 107.389 -5.19203 2.246 0
M  V30 1113 H 105.946 -5.81925 2.93609 0
M  V30 1114 N 109.379 -1.50304 -0.473955 0
M  V30 1115 C 110.327 -1.69482 -1.59307 0
M  V30 1116 C 111.321 -0.560669 -1.59853 0
M  V30 1117 O 112.527 -0.741087 -1.64036 0
M  V30 1118 H 108.902 -0.534892 -0.528578 0
M  V30 1119 H 110.873 -2.63364 -1.40293 0
M  V30 1120 C 109.622 -1.80354 -2.97267 0
M  V30 1121 H 108.945 -2.67012 -2.97564 0
M  V30 1122 H 110.385 -1.97798 -3.75036 0
M  V30 1123 C 108.844 -0.55448 -3.32306 0
M  V30 1124 O 109.374 0.307661 -4.0052 0
M  V30 1125 N 107.58 -0.409354 -2.87702 0
M  V30 1126 H 107.127 -1.11196 -2.32364 0
M  V30 1127 H 107.085 0.425223 -3.11511 0
M  V30 1128 N 110.857 0.726932 -1.39834 0
M  V30 1129 C 111.767 1.87131 -1.41489 0
M  V30 1130 C 112.783 1.71239 -0.308757 0
M  V30 1131 O 113.959 1.93701 -0.551529 0
M  V30 1132 C 111.024 3.22811 -1.26468 0
M  V30 1133 C 110.085 3.51039 -2.47124 0
M  V30 1134 C 109.318 4.80245 -2.3281 0
M  V30 1135 O 109.541 5.54537 -1.33585 0
M  V30 1136 O 108.475 5.08554 -3.21957 0
M  V30 1137 H 112.301 1.8869 -2.3797 0
M  V30 1138 H 109.886 0.875837 -1.21035 0
M  V30 1139 H 111.768 4.03877 -1.20255 0
M  V30 1140 H 110.443 3.22005 -0.330862 0
M  V30 1141 H 109.35 2.70027 -2.58914 0
M  V30 1142 H 110.683 3.56632 -3.39227 0
M  V30 1143 N 112.336 1.25143 0.95797 0
M  V30 1144 C 113.584 1.09476 1.69881 0
M  V30 1145 C 113.905 -0.365502 1.91544 0
M  V30 1146 O 113.175 -1.25985 1.50015 0
M  V30 1147 H 111.755 0.402128 0.629525 0
M  V30 1148 H 114.417 1.57214 1.15194 0
M  V30 1149 H 113.513 1.60046 2.6794 0
M  V30 1150 N 113.814 -1.1601 1.06675 0
M  V30 1151 C 114.777 -2.18724 0.685001 0
M  V30 1152 C 115.777 -1.58496 -0.271246 0
M  V30 1153 O 116.967 -1.74119 -0.0531156 0
M  V30 1154 C 114.099 -3.40899 0.00853648 0
M  V30 1155 H 115.292 -2.54011 1.59431 0
M  V30 1156 H 112.845 -1.30352 0.862441 0
M  V30 1157 H 113.58 -3.11173 -0.913337 0
M  V30 1158 H 113.365 -3.8587 0.696204 0
M  V30 1159 H 114.855 -4.16886 -0.24414 0
M  V30 1160 N 115.292 -0.849877 -1.32721 0
M  V30 1161 C 116.54 -0.450032 -1.97026 0
M  V30 1162 C 116.861 0.996604 -1.67609 0
M  V30 1163 O 116.131 1.6958 -0.980786 0
M  V30 1164 H 114.711 -0.163426 -0.728904 0
M  V30 1165 H 117.373 -1.08526 -1.6189 0
M  V30 1166 H 116.469 -0.591146 -3.0645 0
M  V30 1167 N 116.77 1.45427 -0.607355 0
M  V30 1168 C 118.186 1.57283 -0.270985 0
M  V30 1169 C 118.386 1.59875 1.22647 0
M  V30 1170 O 117.442 1.52893 2.00948 0
M  V30 1171 C 118.755 2.85566 -0.941952 0
M  V30 1172 C 120.303 2.9924 -0.917849 0
M  V30 1173 C 120.778 4.30293 -1.56882 0
M  V30 1174 N 122.269 4.37051 -1.5343 0
M  V30 1175 C 123.004 5.37123 -2.00715 0
M  V30 1176 N 122.5 6.43734 -2.56084 0
M  V30 1177 N 124.293 5.28479 -1.91484 0
M  V30 1178 H 116.444 1.41988 -1.57966 0
M  V30 1179 H 118.707 0.67885 -0.661715 0
M  V30 1180 H 118.413 2.8955 -1.99633 0
M  V30 1181 H 118.287 3.74322 -0.465096 0
M  V30 1182 H 120.674 2.94822 0.127984 0
M  V30 1183 H 120.755 2.11895 -1.43297 0
M  V30 1184 H 120.399 4.35469 -2.61398 0
M  V30 1185 H 120.329 5.16454 -1.02873 0
M  V30 1186 H 122.82 3.60615 -1.12982 0
M  V30 1187 H 123.133 7.16341 -2.89958 0
M  V30 1188 H 121.478 6.44485 -2.60122 0
M  V30 1189 H 124.669 4.44098 -1.47967 0
M  V30 1190 H 124.842 6.0632 -2.28648 0
M  V30 1191 N 118.248 0.346503 1.53744 0
M  V30 1192 C 119.178 -0.501193 2.28058 0
M  V30 1193 C 120.159 -1.10014 1.29734 0
M  V30 1194 O 121.344 -1.12097 1.58581 0
M  V30 1195 C 118.474 -1.65078 3.05559 0
M  V30 1196 C 117.428 -1.18003 4.11411 0
M  V30 1197 C 116.754 -2.41837 4.76884 0
M  V30 1198 C 118.054 -0.278394 5.21558 0
M  V30 1199 H 119.748 0.11875 2.99164 0
M  V30 1200 H 117.294 0.0585531 1.43881 0
M  V30 1201 H 119.247 -2.25028 3.56287 0
M  V30 1202 H 117.971 -2.29767 2.32109 0
M  V30 1203 H 116.63 -0.603331 3.61601 0
M  V30 1204 H 116.278 -3.0494 4.00026 0
M  V30 1205 H 115.978 -2.1102 5.48402 0
M  V30 1206 H 117.502 -3.02508 5.30397 0
M  V30 1207 H 118.916 -0.784823 5.67903 0
M  V30 1208 H 117.313 -0.0619707 6.00068 0
M  V30 1209 H 118.383 0.684677 4.80042 0
M  V30 1210 N 119.726 -1.57421 0.075193 0
M  V30 1211 C 121.142 -1.57099 -0.281444 0
M  V30 1212 C 121.342 -1.08486 -1.69803 0
M  V30 1213 O 120.398 -0.752279 -2.41033 0
M  V30 1214 C 121.711 -3.00571 -0.0880041 0
M  V30 1215 C 123.259 -3.12605 -0.157281 0
M  V30 1216 C 123.734 -4.57999 0.0079207 0
M  V30 1217 N 125.225 -4.63176 -0.0475725 0
M  V30 1218 C 125.96 -5.73373 0.0557876 0
M  V30 1219 N 125.456 -6.92473 0.21286 0
M  V30 1220 N 127.249 -5.621 -0.00152098 0
M  V30 1221 H 119.4 -1.87335 1.00098 0
M  V30 1222 H 121.663 -0.86377 0.390646 0
M  V30 1223 H 121.369 -3.40262 0.889629 0
M  V30 1224 H 121.243 -3.67754 -0.838875 0
M  V30 1225 H 123.63 -2.72798 -1.1254 0
M  V30 1226 H 123.711 -2.48053 0.62475 0
M  V30 1227 H 123.355 -4.98496 0.972824 0
M  V30 1228 H 123.285 -5.20586 -0.793556 0
M  V30 1229 H 125.776 -3.7753 -0.167244 0
M  V30 1230 H 126.089 -7.72279 0.283781 0
M  V30 1231 H 124.434 -6.94556 0.248267 0
M  V30 1232 H 127.625 -4.67938 -0.122958 0
M  V30 1233 H 127.798 -6.47948 0.0824844 0
M  V30 1234 N 121.204 0.198386 -1.56346 0
M  V30 1235 C 122.452 0.91747 -1.80075 0
M  V30 1236 C 122.773 1.83929 -0.647692 0
M  V30 1237 O 122.043 1.93029 0.334166 0
M  V30 1238 H 120.623 0.341774 -0.664228 0
M  V30 1239 H 123.285 0.204684 -1.93822 0
M  V30 1240 H 122.381 1.51055 -2.7311 0
M  V30 1241 N 122.682 1.50554 0.465978 0
M  V30 1242 C 124.093 1.54599 1.04671 0
M  V30 1243 C 124.444 0.352488 1.93008 0
M  V30 1244 O 123.569 -0.534044 2.09707 0
M  V30 1245 C 124.164 2.80166 1.90505 0
M  V30 1246 C 122.723 2.86876 2.43678 0
M  V30 1247 C 121.87 2.48947 1.22151 0
M  V30 1248 H 124.821 1.56744 0.248384 0
M  V30 1249 H 124.842 2.62311 2.75633 0
M  V30 1250 H 124.354 3.67013 1.26186 0
M  V30 1251 H 122.455 2.04393 3.11536 0
M  V30 1252 H 122.568 3.89885 2.78436 0
M  V30 1253 H 120.932 2.01498 1.5579 0
M  V30 1254 H 121.715 3.38107 0.594866 0
M  V30 1255 N 124.16 -0.719506 1.40217 0
M  V30 1256 C 125.408 -1.47641 1.3801 0
M  V30 1257 C 125.729 -1.94992 -0.018145 0
M  V30 1258 O 124.999 -1.70073 -0.972207 0
M  V30 1259 H 123.579 -0.547744 0.507923 0
M  V30 1260 H 126.241 -0.853187 1.75233 0
M  V30 1261 H 125.337 -2.35112 2.05253 0
M  V30 1262 N 125.638 -1.25649 -0.95132 0
M  V30 1263 C 126.915 -1.01361 -1.67288 0
M  V30 1264 C 127.295 0.459135 -2.06046 0
M  V30 1265 O 126.643 1.43723 -1.7764 0
M  V30 1266 C 126.853 -1.95256 -2.89268 0
M  V30 1267 C 128.201 -2.23289 -3.61147 0
M  V30 1268 O 129.225 -1.93041 -2.99355 0
M  V30 1269 O 128.084 -2.74741 -4.72419 0
M  V30 1270 H 125.178 -0.38464 -0.732107 0
M  V30 1271 H 127.724 -1.36817 -1.00395 0
M  V30 1272 H 126.496 -2.94685 -2.57442 0
M  V30 1273 H 126.119 -1.60218 -3.6389 0
M  V30 1274 N 127.117 1.15442 -1.07289 0
M  V30 1275 C 128.394 1.82306 -0.708792 0
M  V30 1276 C 128.774 1.94991 0.808807 0
M  V30 1277 O 128.122 1.50085 1.72298 0
M  V30 1278 C 128.332 3.18695 -1.42247 0
M  V30 1279 C 129.68 3.94341 -1.57417 0
M  V30 1280 O 130.704 3.28247 -1.38319 0
M  V30 1281 O 129.563 5.12839 -1.88834 0
M  V30 1282 H 126.657 0.787628 -0.252132 0
M  V30 1283 H 129.203 1.22559 -1.17377 0
M  V30 1284 H 127.975 3.04557 -2.45684 0
M  V30 1285 H 127.598 3.86128 -0.948223 0
M  V30 1286 N 128.595 0.856903 1.32268 0
M  V30 1287 C 130.011 0.547061 1.49931 0
M  V30 1288 C 130.211 -0.921781 1.7918 0
M  V30 1289 O 129.267 -1.70469 1.8627 0
M  V30 1290 C 130.58 1.43599 2.64196 0
M  V30 1291 C 132.128 1.43665 2.78081 0
M  V30 1292 C 132.603 2.31085 3.95428 0
M  V30 1293 N 134.094 2.28893 4.02694 0
M  V30 1294 C 134.829 2.93262 4.92732 0
M  V30 1295 N 134.325 3.66751 5.87763 0
M  V30 1296 N 136.118 2.82638 4.85873 0
M  V30 1297 H 128.269 1.8075 1.11549 0
M  V30 1298 H 130.532 0.772144 0.549997 0
M  V30 1299 H 130.238 2.48058 2.49319 0
M  V30 1300 H 130.112 1.12502 3.60032 0
M  V30 1301 H 132.499 0.399701 2.92381 0
M  V30 1302 H 132.58 1.7878 1.82952 0
M  V30 1303 H 132.224 3.34849 3.81888 0
M  V30 1304 H 132.154 1.93302 4.89839 0
M  V30 1305 H 134.645 1.75466 3.34694 0
M  V30 1306 H 134.958 4.13027 6.53168 0
M  V30 1307 H 133.303 3.70859 5.87783 0
M  V30 1308 H 136.494 2.24774 4.10602 0
M  V30 1309 H 136.667 3.33084 5.55841 0
M  V30 1310 N 130.073 -1.45103 0.615059 0
M  V30 1311 C 131.489 -1.57137 0.279322 0
M  V30 1312 C 131.689 -1.60523 -1.21797 0
M  V30 1313 O 130.745 -1.53956 -2.00134 0
M  V30 1314 C 132.058 -2.85062 0.957083 0
M  V30 1315 C 133.606 -2.98749 0.933706 0
M  V30 1316 C 134.081 -4.29455 1.59162 0
M  V30 1317 N 135.572 -4.36231 1.55746 0
M  V30 1318 C 136.307 -5.36051 2.0356 0
M  V30 1319 N 135.803 -6.42367 2.59494 0
M  V30 1320 N 137.596 -5.27456 1.94284 0
M  V30 1321 H 129.747 -1.41148 1.58717 0
M  V30 1322 H 132.01 -0.675331 0.665306 0
M  V30 1323 H 131.716 -2.88488 2.01166 0
M  V30 1324 H 131.59 -3.7407 0.48494 0
M  V30 1325 H 133.977 -2.94886 -0.112347 0
M  V30 1326 H 134.058 -2.11132 1.44419 0
M  V30 1327 H 133.702 -4.34077 2.63704 0
M  V30 1328 H 133.632 -5.15901 1.0561 0
M  V30 1329 H 136.123 -3.60011 1.14893 0
M  V30 1330 H 136.436 -7.14793 2.93752 0
M  V30 1331 H 134.781 -6.43097 2.63537 0
M  V30 1332 H 137.972 -4.43308 1.5032 0
M  V30 1333 H 138.145 -6.05099 2.3186 0
M  V30 1334 N 131.551 -0.354651 -1.53558 0
M  V30 1335 C 132.501 0.513179 -2.2215 0
M  V30 1336 C 133.485 1.05734 -1.21281 0
M  V30 1337 O 134.677 0.989202 -1.46778 0
M  V30 1338 C 131.806 1.65798 -3.00609 0
M  V30 1339 C 130.892 1.12722 -4.08845 0
M  V30 1340 N 131.283 0.318563 -5.04796 0
M  V30 1341 C 129.581 1.40307 -4.23356 0
M  V30 1342 C 130.282 0.0292224 -5.81693 0
M  V30 1343 N 129.258 0.623891 -5.40008 0
M  V30 1344 H 133.06 -0.111586 -2.93688 0
M  V30 1345 H 130.574 -0.162091 -1.61589 0
M  V30 1346 H 132.571 2.29176 -3.48258 0
M  V30 1347 H 131.231 2.28591 -2.306 0
M  V30 1348 H 132.242 -0.0413091 -5.17884 0
M  V30 1349 H 128.919 2.03458 -3.6457 0
M  V30 1350 H 130.309 -0.623808 -6.68998 0
M  V30 1351 N 133.029 1.57378 -0.0835403 0
M  V30 1352 C 133.939 2.16897 0.894021 0
M  V30 1353 C 134.955 1.13528 1.31861 0
M  V30 1354 O 136.131 1.45848 1.3889 0
M  V30 1355 C 133.196 2.72831 2.13925 0
M  V30 1356 C 132.257 3.91115 1.76997 0
M  V30 1357 C 131.49 4.44371 2.95584 0
M  V30 1358 O 131.713 3.96596 4.09961 0
M  V30 1359 O 130.647 5.35549 2.74719 0
M  V30 1360 H 134.473 3.00814 0.417679 0
M  V30 1361 H 132.058 1.48741 0.140181 0
M  V30 1362 H 133.94 3.0863 2.86924 0
M  V30 1363 H 132.615 1.91967 2.60635 0
M  V30 1364 H 131.522 3.60148 1.01214 0
M  V30 1365 H 132.855 4.73307 1.3506 0
M  V30 1366 N 134.507 -0.190092 1.56449 0
M  V30 1367 C 135.753 -0.911052 1.81184 0
M  V30 1368 C 136.086 -1.82699 0.658396 0
M  V30 1369 O 135.361 -1.91491 -0.340775 0
M  V30 1370 C 135.644 -1.72297 3.16205 0
M  V30 1371 C 135.497 -0.831419 4.42049 0
M  V30 1372 C 136.816 -2.69454 3.47969 0
M  V30 1373 H 133.935 -0.32977 0.659106 0
M  V30 1374 H 136.577 -0.178169 1.89163 0
M  V30 1375 H 134.727 -2.34778 3.09534 0
M  V30 1376 H 136.399 -0.220929 4.60771 0
M  V30 1377 H 134.642 -0.138406 4.33579 0
M  V30 1378 H 135.313 -1.43461 5.33032 0
M  V30 1379 H 137.789 -2.17104 3.54972 0
M  V30 1380 H 136.665 -3.23342 4.43555 0
M  V30 1381 H 136.926 -3.48744 2.71717 0
M  V30 1382 N 135.985 -1.50799 -0.457987 0
M  V30 1383 C 137.233 -1.62121 -1.2067 0
M  V30 1384 C 137.554 -0.329793 -1.92191 0
M  V30 1385 O 136.824 0.653409 -1.84682 0
M  V30 1386 H 135.404 -0.597441 -0.448411 0
M  V30 1387 H 138.066 -1.87637 -0.527096 0
M  V30 1388 H 137.162 -2.43882 -1.94751 0
M  V30 1389 N 137.463 0.71206 -1.40597 0
M  V30 1390 C 138.688 1.50617 -1.42581 0
M  V30 1391 C 139.113 1.88079 -0.0282102 0
M  V30 1392 O 138.471 1.53511 0.964579 0
M  V30 1393 C 138.519 2.7557 -2.3258 0
M  V30 1394 O 137.623 3.72414 -1.77148 0
M  V30 1395 H 136.964 0.453966 -0.484573 0
M  V30 1396 H 139.494 0.876649 -1.84868 0
M  V30 1397 H 139.504 3.2406 -2.47889 0
M  V30 1398 H 138.179 2.47639 -3.34138 0
M  V30 1399 H 136.756 3.31276 -1.71204 0
M  V30 1400 N 138.941 1.26152 0.944643 0
M  V30 1401 C 140.166 1.14363 1.7302 0
M  V30 1402 C 140.591 -0.29772 1.85729 0
M  V30 1403 O 139.949 -1.2157 1.34501 0
M  V30 1404 C 139.997 1.81378 3.11664 0
M  V30 1405 O 139.101 1.10022 3.97453 0
M  V30 1406 H 138.442 0.398694 0.53098 0
M  V30 1407 H 140.972 1.66906 1.18337 0
M  V30 1408 H 140.982 1.88064 3.62072 0
M  V30 1409 H 139.657 2.86237 3.0173 0
M  V30 1410 H 138.234 1.11287 3.55907 0
M  V30 1411 N 140.419 -1.14872 1.07899 0
M  V30 1412 C 141.382 -2.17986 0.708161 0
M  V30 1413 C 142.382 -1.58775 -0.25442 0
M  V30 1414 O 143.572 -1.74166 -0.034645 0
M  V30 1415 C 140.704 -3.40871 0.0446929 0
M  V30 1416 H 141.897 -2.52306 1.62116 0
M  V30 1417 H 139.45 -1.2943 0.876218 0
M  V30 1418 H 140.185 -3.12124 -0.880281 0
M  V30 1419 H 139.97 -3.8511 0.737091 0
M  V30 1420 H 141.46 -4.17121 -0.19991 0
M  V30 1421 N 141.898 -0.863906 -1.31812 0
M  V30 1422 C 143.144 -0.472535 -1.97218 0
M  V30 1423 C 143.477 0.971394 -1.68159 0
M  V30 1424 O 142.752 1.68309 -0.974798 0
M  V30 1425 C 143.035 -0.723054 -3.52766 0
M  V30 1426 C 142.888 -2.21608 -3.91421 0
M  V30 1427 C 144.207 -0.185522 -4.39709 0
M  V30 1428 H 141.326 -0.173158 -0.71637 0
M  V30 1429 H 143.968 -1.08403 -1.56041 0
M  V30 1430 H 142.118 -0.202577 -3.87971 0
M  V30 1431 H 143.79 -2.80334 -3.66347 0
M  V30 1432 H 142.033 -2.691 -3.40246 0
M  V30 1433 H 142.704 -2.34203 -4.99853 0
M  V30 1434 H 145.18 -0.630726 -4.11292 0
M  V30 1435 H 144.056 -0.390306 -5.47511 0
M  V30 1436 H 144.317 0.912229 -4.32586 0
M  V30 1437 N 143.376 1.44774 -0.622745 0
M  V30 1438 C 144.286 2.34433 0.0886031 0
M  V30 1439 C 145.302 1.52131 0.844529 0
M  V30 1440 O 146.478 1.84886 0.798691 0
M  V30 1441 C 143.543 3.29986 1.0635 0
M  V30 1442 C 142.604 4.28195 0.307873 0
M  V30 1443 C 141.837 5.19183 1.23633 0
M  V30 1444 O 142.06 5.13918 2.47476 0
M  V30 1445 O 140.994 5.97515 0.725189 0
M  V30 1446 H 144.82 2.96693 -0.648599 0
M  V30 1447 H 142.405 1.44408 -0.382957 0
M  V30 1448 H 144.287 3.88825 1.6246 0
M  V30 1449 H 142.962 2.70269 1.78146 0
M  V30 1450 H 141.869 3.72927 -0.296064 0
M  V30 1451 H 143.202 4.90808 -0.3699 0
M  V30 1452 N 144.854 0.36279 1.53368 0
M  V30 1453 C 145.786 -0.519668 2.23231 0
M  V30 1454 C 146.799 -1.04844 1.24546 0
M  V30 1455 O 147.988 -0.955296 1.50786 0
M  V30 1456 C 145.088 -1.72995 2.9142 0
M  V30 1457 C 144.261 -1.33316 4.16588 0
M  V30 1458 C 143.32 -2.40521 4.68013 0
M  V30 1459 O 142.346 -2.03027 5.3176 0
M  V30 1460 N 143.548 -3.72065 4.45587 0
M  V30 1461 H 146.313 0.078751 2.99597 0
M  V30 1462 H 143.874 0.187833 1.60807 0
M  V30 1463 H 145.866 -2.44184 3.22733 0
M  V30 1464 H 144.436 -2.2353 2.18525 0
M  V30 1465 H 143.656 -0.451236 3.91609 0
M  V30 1466 H 144.944 -1.04432 4.97967 0
M  V30 1467 H 144.342 -4.05304 3.94646 0
M  V30 1468 H 142.899 -4.39366 4.81457 0
M  V30 1469 N 146.332 -1.57332 0.0918853 0
M  V30 1470 C 147.56 -1.98574 -0.581048 0
M  V30 1471 C 147.975 -0.970903 -1.61923 0
M  V30 1472 O 147.332 0.0399054 -1.82456 0
M  V30 1473 C 147.383 -3.39872 -1.23164 0
M  V30 1474 O 147.104 -4.37469 -0.234989 0
M  V30 1475 C 148.605 -3.96099 -1.99049 0
M  V30 1476 H 145.825 -0.65261 -0.156018 0
M  V30 1477 H 148.369 -2.0379 0.170225 0
M  V30 1478 H 146.524 -3.35679 -1.93386 0
M  V30 1479 H 146.938 -5.19751 -0.70418 0
M  V30 1480 H 148.412 -4.97127 -2.39934 0
M  V30 1481 H 148.889 -3.3374 -2.85507 0
M  V30 1482 H 149.495 -4.03755 -1.3365 0
M  V30 1483 N 147.81 0.181792 -1.56548 0
M  V30 1484 C 149.056 0.896803 -1.82562 0
M  V30 1485 C 149.411 1.80324 -0.670908 0
M  V30 1486 O 148.704 1.8868 0.333235 0
M  V30 1487 C 148.898 1.73728 -3.12335 0
M  V30 1488 C 148.727 0.913714 -4.4032 0
M  V30 1489 C 147.497 0.592903 -5.01809 0
M  V30 1490 C 149.695 0.260164 -5.13642 0
M  V30 1491 N 147.677 -0.247901 -6.13399 0
M  V30 1492 C 149.048 -0.442256 -6.18421 0
M  V30 1493 C 151.103 0.177253 -4.97584 0
M  V30 1494 C 149.806 -1.21971 -7.08883 0
M  V30 1495 C 151.832 -0.586839 -5.88481 0
M  V30 1496 C 151.194 -1.27766 -6.92716 0
M  V30 1497 H 147.293 0.307122 -0.719166 0
M  V30 1498 H 149.877 0.164535 -1.94004 0
M  V30 1499 H 148.048 2.44105 -3.02105 0
M  V30 1500 H 149.78 2.39279 -3.26386 0
M  V30 1501 H 146.535 0.920502 -4.64568 0
M  V30 1502 H 146.959 -0.658304 -6.73792 0
M  V30 1503 H 151.601 0.696993 -4.17015 0
M  V30 1504 H 149.319 -1.75083 -7.88905 0
M  V30 1505 H 152.905 -0.652522 -5.78129 0
M  V30 1506 H 151.785 -1.85943 -7.61836 0
M  V30 1507 N 149.288 1.51039 0.449983 0
M  V30 1508 C 150.536 1.62759 1.19808 0
M  V30 1509 C 150.857 0.339981 1.92013 0
M  V30 1510 O 150.127 -0.643606 1.85026 0
M  V30 1511 H 148.707 0.599811 0.445237 0
M  V30 1512 H 151.369 1.87914 0.517138 0
M  V30 1513 H 150.465 2.44911 1.93455 0
M  V30 1514 N 150.766 -0.704594 1.40972 0
M  V30 1515 C 152.012 -1.46546 1.41053 0
M  V30 1516 C 152.367 -1.92393 0.0159714 0
M  V30 1517 O 151.66 -1.66017 -0.956506 0
M  V30 1518 C 151.854 -2.698 2.34399 0
M  V30 1519 C 151.683 -2.36008 3.82793 0
M  V30 1520 C 150.453 -2.26812 4.51536 0
M  V30 1521 C 152.651 -1.99565 4.74003 0
M  V30 1522 N 150.633 -1.8581 5.85105 0
M  V30 1523 C 152.004 -1.69251 5.96451 0
M  V30 1524 C 154.059 -1.86296 4.61734 0
M  V30 1525 C 152.762 -1.27003 7.07999 0
M  V30 1526 C 154.788 -1.45452 5.73234 0
M  V30 1527 C 154.15 -1.16043 6.94776 0
M  V30 1528 H 150.249 -0.533896 0.571383 0
M  V30 1529 H 152.833 -0.816061 1.76773 0
M  V30 1530 H 151.004 -3.32473 2.00789 0
M  V30 1531 H 152.736 -3.36214 2.25261 0
M  V30 1532 H 149.491 -2.44913 4.05357 0
M  V30 1533 H 149.915 -1.67817 6.55871 0
M  V30 1534 H 154.557 -2.0769 3.68273 0
M  V30 1535 H 152.275 -1.04353 8.01334 0
M  V30 1536 H 155.861 -1.35748 5.65742 0
M  V30 1537 H 154.741 -0.84915 7.79589 0
M  V30 1538 N 152.244 -1.26651 -0.937939 0
M  V30 1539 C 153.492 -1.12165 -1.68118 0
M  V30 1540 C 153.813 0.334983 -1.92101 0
M  V30 1541 O 153.083 1.23583 -1.52 0
M  V30 1542 H 151.663 -0.412093 -0.623048 0
M  V30 1543 H 154.325 -1.59027 -1.12678 0
M  V30 1544 H 153.421 -1.64289 -2.6536 0
M  V30 1545 N 153.722 1.14298 -1.08507 0
M  V30 1546 C 154.999 1.81544 -0.728088 0
M  V30 1547 C 155.379 1.95838 0.78808 0
M  V30 1548 O 154.727 1.51904 1.70697 0
M  V30 1549 C 154.937 3.17169 -1.45619 0
M  V30 1550 C 156.285 3.9265 -1.61591 0
M  V30 1551 O 157.309 3.26762 -1.41793 0
M  V30 1552 O 156.168 5.10807 -1.94263 0
M  V30 1553 H 153.262 0.78491 -0.260471 0
M  V30 1554 H 155.808 1.21307 -1.18671 0
M  V30 1555 H 154.58 3.01934 -2.489 0
M  V30 1556 H 154.203 3.851 -0.989124 0
M  V30 1557 N 155.201 0.870884 1.31352 0
M  V30 1558 C 156.449 0.48132 1.96285 0
M  V30 1559 C 156.77 -0.969813 1.69173 0
M  V30 1560 O 156.04 -1.67998 1.00764 0
M  V30 1561 H 154.62 0.175002 0.726212 0
M  V30 1562 H 157.282 1.11087 1.60143 0
M  V30 1563 H 156.378 0.639825 3.05471 0
M  V30 1564 N 156.679 -1.44442 0.630414 0
M  V30 1565 C 157.904 -2.06927 0.139944 0
M  V30 1566 C 158.329 -1.46795 -1.17613 0
M  V30 1567 O 157.687 -0.569144 -1.72135 0
M  V30 1568 C 157.735 -3.6058 0.0379581 0
M  V30 1569 O 156.839 -3.99937 -1.0062 0
M  V30 1570 H 156.18 -0.658608 0.0844483 0
M  V30 1571 H 158.71 -1.85327 0.866891 0
M  V30 1572 H 158.72 -4.07714 -0.152856 0
M  V30 1573 H 157.395 -4.03728 0.998809 0
M  V30 1574 H 155.972 -3.64436 -0.79001 0
M  V30 1575 N 158.157 -0.370918 -1.53173 0
M  V30 1576 C 159.382 0.220293 -2.06227 0
M  V30 1577 C 159.807 1.41243 -1.24225 0
M  V30 1578 O 159.165 1.79387 -0.262645 0
M  V30 1579 C 159.213 0.586663 -3.55796 0
M  V30 1580 O 158.317 1.68317 -3.76488 0
M  V30 1581 H 157.658 0.0308099 -0.663285 0
M  V30 1582 H 160.188 -0.533068 -1.97534 0
M  V30 1583 H 160.198 0.85617 -3.98916 0
M  V30 1584 H 158.873 -0.285013 -4.14922 0
M  V30 1585 H 157.45 1.40881 -3.45264 0
M  V30 1586 N 159.635 1.57281 -0.100228 0
M  V30 1587 C 160.585 2.10848 0.86759 0
M  V30 1588 C 161.569 1.02473 1.24049 0
M  V30 1589 O 162.761 1.28739 1.21471 0
M  V30 1590 C 159.89 2.69648 2.12474 0
M  V30 1591 C 158.976 3.85074 1.77704 0
M  V30 1592 N 159.367 4.92897 1.13518 0
M  V30 1593 C 157.665 3.94905 2.07282 0
M  V30 1594 C 158.366 5.73475 0.974735 0
M  V30 1595 N 157.342 5.22675 1.4937 0
M  V30 1596 H 161.144 2.91594 0.367471 0
M  V30 1597 H 158.658 1.62074 0.102829 0
M  V30 1598 H 160.655 3.06356 2.82757 0
M  V30 1599 H 159.315 1.90359 2.63047 0
M  V30 1600 H 160.326 5.11662 0.801381 0
M  V30 1601 H 157.003 3.26633 2.60033 0
M  V30 1602 H 158.393 6.70238 0.472364 0
M  V30 1603 N 161.113 -0.173488 1.56642 0
M  V30 1604 C 162.361 -0.888706 1.81512 0
M  V30 1605 C 162.682 -1.82875 0.676872 0
M  V30 1606 O 161.952 -1.93536 -0.303414 0
M  V30 1607 H 160.532 -0.331164 0.669582 0
M  V30 1608 H 163.194 -0.173823 1.94123 0
M  V30 1609 H 162.29 -1.46691 2.75478 0
M  V30 1610 N 162.591 -1.51276 -0.441967 0
M  V30 1611 C 163.816 -1.67799 -1.21895 0
M  V30 1612 C 164.241 -0.372864 -1.84367 0
M  V30 1613 O 163.599 0.666501 -1.68604 0
M  V30 1614 C 163.647 -2.79199 -2.28211 0
M  V30 1615 O 162.751 -2.42479 -3.33583 0
M  V30 1616 H 162.092 -0.559649 -0.357336 0
M  V30 1617 H 164.622 -1.97815 -0.522522 0
M  V30 1618 H 164.632 -3.03146 -2.73069 0
M  V30 1619 H 163.307 -3.73906 -1.82118 0
M  V30 1620 H 161.884 -2.29087 -2.94234 0
M  V30 1621 N 164.069 0.697108 -1.41344 0
M  V30 1622 C 165.001 1.8224 -1.39001 0
M  V30 1623 C 166.014 1.60152 -0.292428 0
M  V30 1624 O 167.203 1.69684 -0.554048 0
M  V30 1625 C 164.303 3.18976 -1.14489 0
M  V30 1626 C 163.476 3.68105 -2.36258 0
M  V30 1627 C 162.535 4.83506 -2.07625 0
M  V30 1628 O 161.561 4.95201 -2.8065 0
M  V30 1629 N 162.763 5.70637 -1.06555 0
M  V30 1630 H 165.528 1.84742 -2.35988 0
M  V30 1631 H 163.089 0.87937 -1.35936 0
M  V30 1632 H 165.081 3.93801 -0.932885 0
M  V30 1633 H 163.651 3.11508 -0.261043 0
M  V30 1634 H 162.871 2.84204 -2.7317 0
M  V30 1635 H 164.159 3.97667 -3.17393 0
M  V30 1636 H 163.557 5.63817 -0.461125 0
M  V30 1637 H 162.114 6.45368 -0.913444 0
M  V30 1638 N 165.547 1.27147 0.931209 0
M  V30 1639 C 166.51 1.09615 2.01289 0
M  V30 1640 C 167.51 0.0412581 1.60747 0
M  V30 1641 O 168.7 0.285545 1.71844 0
M  V30 1642 C 165.832 0.669447 3.34262 0
M  V30 1643 H 167.025 2.05662 2.18273 0
M  V30 1644 H 164.578 1.09885 1.11153 0
M  V30 1645 H 165.313 -0.292572 3.22978 0
M  V30 1646 H 165.098 1.43127 3.65044 0
M  V30 1647 H 166.588 0.568921 4.13706 0
M  V30 1648 N 167.025 -1.13721 1.09112 0
M  V30 1649 C 167.935 -2.22638 0.73957 0
M  V30 1650 C 168.951 -1.72091 -0.257068 0
M  V30 1651 O 170.127 -2.01155 -0.0992154 0
M  V30 1652 C 167.192 -3.46322 0.16191 0
M  V30 1653 C 166.253 -4.11775 1.21408 0
M  V30 1654 C 165.486 -5.29555 0.663891 0
M  V30 1655 O 165.709 -5.68077 -0.514274 0
M  V30 1656 O 164.643 -5.84973 1.41738 0
M  V30 1657 H 168.469 -2.55074 1.64836 0
M  V30 1658 H 166.054 -1.21791 0.865289 0
M  V30 1659 H 167.936 -4.21107 -0.157073 0
M  V30 1660 H 166.611 -3.15593 -0.719932 0
M  V30 1661 H 165.518 -3.3883 1.58571 0
M  V30 1662 H 166.851 -4.46627 2.06845 0
M  V30 1663 N 168.503 -0.877838 -1.30888 0
M  V30 1664 C 169.919 -0.570844 -1.49042 0
M  V30 1665 C 170.119 0.893159 -1.80624 0
M  V30 1666 O 169.175 1.67485 -1.88958 0
M  V30 1667 C 170.488 -1.47784 -2.61878 0
M  V30 1668 C 172.036 -1.48071 -2.75761 0
M  V30 1669 C 172.511 -2.37347 -3.91702 0
M  V30 1670 N 174.002 -2.35271 -3.99001 0
M  V30 1671 C 174.737 -3.01063 -4.88004 0
M  V30 1672 N 174.233 -3.76055 -5.81854 0
M  V30 1673 N 176.026 -2.90332 -4.81315 0
M  V30 1674 H 168.177 -1.82502 -1.0866 0
M  V30 1675 H 170.44 -0.780797 -0.537644 0
M  V30 1676 H 170.146 -2.51993 -2.45341 0
M  V30 1677 H 170.02 -1.18215 -3.58197 0
M  V30 1678 H 172.407 -0.446166 -2.91708 0
M  V30 1679 H 172.488 -1.81668 -1.80085 0
M  V30 1680 H 172.132 -3.40883 -3.76512 0
M  V30 1681 H 172.062 -2.01071 -4.86701 0
M  V30 1682 H 174.553 -1.80768 -3.3186 0
M  V30 1683 H 174.866 -4.23366 -6.46514 0
M  V30 1684 H 173.211 -3.80163 -5.81808 0
M  V30 1685 H 176.402 -2.31278 -4.06974 0
M  V30 1686 H 176.575 -3.41885 -5.50471 0
M  V30 1687 N 169.982 1.44106 -0.638065 0
M  V30 1688 C 170.914 2.28976 0.101205 0
M  V30 1689 C 171.927 1.4167 0.802088 0
M  V30 1690 O 173.116 1.65755 0.662375 0
M  V30 1691 C 170.216 3.18217 1.16581 0
M  V30 1692 C 169.389 4.33978 0.546066 0
M  V30 1693 C 168.448 5.04202 1.50554 0
M  V30 1694 O 167.474 5.59986 1.01999 0
M  V30 1695 N 168.676 5.06296 2.8398 0
M  V30 1696 H 171.441 2.93064 -0.627186 0
M  V30 1697 H 169.002 1.54629 -0.479731 0
M  V30 1698 H 170.994 3.62061 1.80815 0
M  V30 1699 H 169.564 2.55833 1.79634 0
M  V30 1700 H 168.784 3.93239 -0.275046 0
M  V30 1701 H 170.072 5.08675 0.112793 0
M  V30 1702 H 169.47 4.62319 3.26002 0
M  V30 1703 H 168.027 5.53907 3.43556 0
M  V30 1704 N 171.46 0.379036 1.52974 0
M  V30 1705 C 172.737 -0.263479 1.93817 0
M  V30 1706 C 173.117 -1.65244 1.31368 0
M  V30 1707 O 172.465 -2.23448 0.477856 0
M  V30 1708 C 172.675 -0.300166 3.47707 0
M  V30 1709 C 174.023 -0.534061 4.21228 0
M  V30 1710 O 175.047 -0.38081 3.54159 0
M  V30 1711 O 173.906 -0.833501 5.40106 0
M  V30 1712 H 171 -0.161149 0.811147 0
M  V30 1713 H 173.546 0.432798 1.64088 0
M  V30 1714 H 172.318 0.673138 3.85467 0
M  V30 1715 H 171.941 -1.04179 3.83709 0
M  V30 1716 N 172.938 -1.57226 0.108567 0
M  V30 1717 C 174.163 -1.99604 -0.563303 0
M  V30 1718 C 174.588 -0.987563 -1.6009 0
M  V30 1719 O 173.946 0.0421687 -1.81251 0
M  V30 1720 C 173.994 -3.40902 -1.17552 0
M  V30 1721 O 173.098 -3.42896 -2.2912 0
M  V30 1722 H 172.439 -0.648704 -0.1417 0
M  V30 1723 H 174.969 -2.03679 0.193961 0
M  V30 1724 H 174.979 -3.78886 -1.51357 0
M  V30 1725 H 173.654 -4.1382 -0.415445 0
M  V30 1726 H 172.231 -3.1672 -1.96832 0
M  V30 1727 N 174.416 0.165178 -1.56732 0
M  V30 1728 C 175.664 0.879068 -1.8198 0
M  V30 1729 C 175.985 1.82514 -0.686561 0
M  V30 1730 O 175.255 1.93694 0.293146 0
M  V30 1731 H 173.835 0.327608 -0.671329 0
M  V30 1732 H 176.497 0.163526 -1.94213 0
M  V30 1733 H 175.593 1.45228 -2.76252 0
M  V30 1734 N 175.894 1.51508 0.433938 0
M  V30 1735 C 176.857 1.72473 1.50949 0
M  V30 1736 C 177.857 0.594725 1.49398 0
M  V30 1737 O 179.047 0.862315 1.5136 0
M  V30 1738 C 176.179 1.78431 2.90474 0
M  V30 1739 H 177.372 2.68467 1.33662 0
M  V30 1740 H 174.925 1.41549 0.662836 0
M  V30 1741 H 175.66 0.842645 3.13161 0
M  V30 1742 H 175.445 2.60558 2.93005 0
M  V30 1743 H 176.935 1.96479 3.68491 0
M  V30 1744 N 177.372 -0.689602 1.41712 0
M  V30 1745 C 178.62 -1.4468 1.4111 0
M  V30 1746 C 178.941 -1.94986 0.0232196 0
M  V30 1747 O 178.211 -1.72097 -0.935913 0
M  V30 1748 H 176.791 -0.536847 0.519427 0
M  V30 1749 H 179.453 -0.815825 1.77004 0
M  V30 1750 H 178.549 -2.30706 2.10193 0
M  V30 1751 N 178.85 -1.27639 -0.924453 0
M  V30 1752 C 179.76 -1.12466 -2.05885 0
M  V30 1753 C 180.776 -0.053869 -1.73917 0
M  V30 1754 O 181.952 -0.261012 -1.99702 0
M  V30 1755 C 179.017 -0.776768 -3.37886 0
M  V30 1756 C 178.078 -1.92878 -3.83532 0
M  V30 1757 C 177.311 -1.59739 -5.09234 0
M  V30 1758 O 177.534 -0.506782 -5.68144 0
M  V30 1759 O 176.468 -2.43761 -5.50331 0
M  V30 1760 H 180.294 -2.07671 -2.21599 0
M  V30 1761 H 177.879 -1.06857 -1.04413 0
M  V30 1762 H 179.761 -0.596229 -4.17161 0
M  V30 1763 H 178.436 0.145732 -3.23372 0
M  V30 1764 H 177.343 -2.1644 -3.0513 0
M  V30 1765 H 178.676 -2.8316 -4.02593 0
M  V30 1766 N 180.328 1.1314 -1.09713 0
M  V30 1767 C 181.556 1.88321 -0.856898 0
M  V30 1768 C 181.971 1.79276 0.592073 0
M  V30 1769 O 181.328 1.16142 1.40774 0
M  V30 1770 C 181.379 3.37812 -1.28706 0
M  V30 1771 O 181.1 3.46627 -2.67921 0
M  V30 1772 C 182.601 4.29952 -1.07964 0
M  V30 1773 H 179.821 0.596094 -0.308079 0
M  V30 1774 H 182.365 1.43205 -1.45988 0
M  V30 1775 H 180.52 3.805 -0.727912 0
M  V30 1776 H 180.934 4.39579 -2.8613 0
M  V30 1777 H 182.408 5.33159 -1.42986 0
M  V30 1778 H 182.885 4.39196 -0.0176577 0
M  V30 1779 H 183.491 3.93036 -1.62489 0
M  V30 1780 N 181.806 0.884767 1.30421 0
M  V30 1781 C 182.769 0.356277 2.26414 0
M  V30 1782 C 183.769 -0.501124 1.52792 0
M  V30 1783 O 184.959 -0.30831 1.7145 0
M  V30 1784 C 182.091 -0.492316 3.37326 0
M  V30 1785 H 183.284 1.20389 2.74675 0
M  V30 1786 H 180.837 0.661607 1.41607 0
M  V30 1787 H 181.572 -1.36052 2.94381 0
M  V30 1788 H 181.357 0.121832 3.91911 0
M  V30 1789 H 182.847 -0.853871 4.08777 0
M  V30 1790 N 183.284 -1.43765 0.645699 0
M  V30 1791 C 184.231 -2.30745 -0.0504648 0
M  V30 1792 C 185.201 -1.4432 -0.822241 0
M  V30 1793 O 186.386 -1.73202 -0.800358 0
M  V30 1794 C 183.526 -3.29802 -1.0161 0
M  V30 1795 C 182.639 -4.31326 -0.241219 0
M  V30 1796 C 181.774 -5.17469 -1.19998 0
M  V30 1797 C 180.813 -6.10691 -0.415094 0
M  V30 1798 N 179.95 -6.89483 -1.32506 0
M  V30 1799 H 184.79 -2.8973 0.697155 0
M  V30 1800 H 182.327 -1.42738 0.355563 0
M  V30 1801 H 184.285 -3.85734 -1.58949 0
M  V30 1802 H 182.915 -2.72483 -1.73069 0
M  V30 1803 H 181.967 -3.77749 0.448334 0
M  V30 1804 H 183.279 -4.9743 0.369437 0
M  V30 1805 H 182.433 -5.7799 -1.84424 0
M  V30 1806 H 181.172 -4.51473 -1.84455 0
M  V30 1807 H 180.177 -5.49265 0.242565 0
M  V30 1808 H 181.402 -6.78727 0.224966 0
M  V30 1809 H 179.348 -6.26142 -1.95657 0
M  V30 1810 H 179.265 -7.52081 -0.768783 0
M  V30 1811 H 180.533 -7.54516 -1.9577 0
M  V30 1812 N 184.763 -0.387143 -1.52771 0
M  V30 1813 C 185.726 0.436939 -2.24997 0
M  V30 1814 C 186.726 0.991991 -1.26555 0
M  V30 1815 O 187.916 0.874335 -1.50669 0
M  V30 1816 C 185.048 1.61281 -3.00335 0
M  V30 1817 H 186.241 -0.195365 -2.99263 0
M  V30 1818 H 183.794 -0.139218 -1.55679 0
M  V30 1819 H 184.529 2.2826 -2.30364 0
M  V30 1820 H 184.314 1.22154 -3.72587 0
M  V30 1821 H 185.804 2.19629 -3.5518 0
M  V30 1822 N 186.241 1.57166 -0.116904 0
M  V30 1823 C 187.204 2.14039 0.819742 0
M  V30 1824 C 188.204 1.07477 1.19605 0
M  V30 1825 O 189.394 1.33263 1.1219 0
M  V30 1826 C 186.526 2.67891 2.10826 0
M  V30 1827 H 187.719 2.98128 0.325511 0
M  V30 1828 H 185.272 1.55739 0.132312 0
M  V30 1829 H 186.007 1.87384 2.64685 0
M  V30 1830 H 185.792 3.45823 1.84793 0
M  V30 1831 H 187.282 3.11809 2.77785 0
M  V30 1832 N 187.719 -0.156864 1.56817 0
M  V30 1833 C 189.135 -0.50916 1.5126 0
M  V30 1834 C 189.335 -1.83897 0.823658 0
M  V30 1835 O 188.391 -2.49469 0.390055 0
M  V30 1836 C 189.704 -0.52857 2.96018 0
M  V30 1837 C 191.252 -0.614771 3.06903 0
M  V30 1838 C 191.727 -0.664938 4.53147 0
M  V30 1839 N 193.218 -0.727433 4.57452 0
M  V30 1840 C 193.953 -0.787067 5.67973 0
M  V30 1841 N 193.449 -0.806649 6.88088 0
M  V30 1842 N 195.242 -0.827195 5.5598 0
M  V30 1843 H 187.393 0.714935 2.00006 0
M  V30 1844 H 189.656 0.259526 0.911784 0
M  V30 1845 H 189.362 0.380154 3.49639 0
M  V30 1846 H 189.236 -1.36998 3.51442 0
M  V30 1847 H 191.623 -1.51392 2.53307 0
M  V30 1848 H 191.704 0.253597 2.5454 0
M  V30 1849 H 191.348 0.230011 5.07379 0
M  V30 1850 H 191.278 -1.54966 5.03282 0
M  V30 1851 H 193.769 -0.719998 3.70978 0
M  V30 1852 H 194.082 -0.853727 7.6807 0
M  V30 1853 H 192.427 -0.774687 6.90669 0
M  V30 1854 H 195.618 -0.808998 4.61056 0
M  V30 1855 H 195.791 -0.870206 6.4213 0
M  V30 1856 N 189.197 -1.51736 -0.425897 0
M  V30 1857 C 190.437 -1.66636 -1.18371 0
M  V30 1858 C 190.801 -0.379854 -1.88205 0
M  V30 1859 O 192.002 -0.404758 -2.65735 0
M  V30 1860 C 190.273 -2.84382 -2.16476 0
M  V30 1861 S 191.832 -3.19673 -3.0059 0
M  V30 1862 H 188.65 -0.586957 -0.40125 0
M  V30 1863 H 191.252 -1.89679 -0.473518 0
M  V30 1864 H 189.956 -3.76281 -1.63831 0
M  V30 1865 H 189.487 -2.63562 -2.92059 0
M  V30 1866 H 191.502 -2.66994 -4.18245 0
M  V30 1867 N 190.675 0.682077 -1.42076 0
M  V30 1868 C 191.607 1.80755 -1.40926 0
M  V30 1869 C 192.62 1.59833 -0.309398 0
M  V30 1870 O 193.809 1.69087 -0.572014 0
M  V30 1871 C 190.909 3.17744 -1.17865 0
M  V30 1872 C 190.082 3.65578 -2.40149 0
M  V30 1873 C 189.141 4.81277 -2.12742 0
M  V30 1874 O 188.167 4.92197 -2.85887 0
M  V30 1875 N 189.369 5.69474 -1.12602 0
M  V30 1876 H 192.134 1.82229 -2.37935 0
M  V30 1877 H 189.695 0.864903 -1.36861 0
M  V30 1878 H 191.687 3.9279 -0.9746 0
M  V30 1879 H 190.257 3.11214 -0.294068 0
M  V30 1880 H 189.477 2.81291 -2.76169 0
M  V30 1881 H 190.765 3.94278 -3.21593 0
M  V30 1882 H 190.163 5.63297 -0.520899 0
M  V30 1883 H 188.72 6.44363 -0.981842 0
M  V30 1884 N 192.153 1.28127 0.917671 0
M  V30 1885 C 193.063 1.13556 2.05286 0
M  V30 1886 C 194.079 0.0630914 1.73886 0
M  V30 1887 O 195.255 0.271598 1.9956 0
M  V30 1888 C 192.32 0.794676 3.3747 0
M  V30 1889 C 191.381 1.94909 3.82504 0
M  V30 1890 C 190.614 1.62437 5.0838 0
M  V30 1891 O 190.837 0.536905 5.67867 0
M  V30 1892 O 189.771 2.46677 5.4903 0
M  V30 1893 H 193.597 2.08844 2.20495 0
M  V30 1894 H 191.182 1.07409 1.03845 0
M  V30 1895 H 193.064 0.618344 4.16839 0
M  V30 1896 H 191.739 -0.128581 3.23445 0
M  V30 1897 H 190.646 2.18055 3.03978 0
M  V30 1898 H 191.979 2.85291 4.01086 0
M  V30 1899 N 193.631 -1.12557 1.10312 0
M  V30 1900 C 195.042 -1.65574 0.862678 0
M  V30 1901 C 195.393 -1.86566 -0.607256 0
M  V30 1902 O 194.518 -1.59121 -1.46662 0
M  V30 1903 C 195.113 -3.00776 1.55947 0
M  V30 1904 C 193.672 -3.50748 1.36576 0
M  V30 1905 C 192.819 -2.25797 1.60968 0
M  V30 1906 H 195.77 -0.963552 1.26101 0
M  V30 1907 H 195.791 -3.67185 0.997753 0
M  V30 1908 H 195.303 -2.85465 2.62928 0
M  V30 1909 H 193.404 -3.71245 0.317531 0
M  V30 1910 H 193.517 -4.30289 2.10686 0
M  V30 1911 H 191.881 -2.32841 1.03234 0
M  V30 1912 H 192.664 -2.13043 2.69198 0
M  V30 1913 N 195.109 -0.891671 -1.2995 0
M  V30 1914 C 196.334 -0.527932 -2.00568 0
M  V30 1915 C 196.759 0.877969 -1.66353 0
M  V30 1916 O 196.117 1.58301 -0.883762 0
M  V30 1917 C 196.165 -0.717745 -3.53385 0
M  V30 1918 O 195.269 0.233376 -4.11739 0
M  V30 1919 H 194.61 -0.20722 -0.630837 0
M  V30 1920 H 197.14 -1.20105 -1.65638 0
M  V30 1921 H 197.15 -0.619307 -4.03272 0
M  V30 1922 H 195.825 -1.74276 -3.77625 0
M  V30 1923 H 194.402 0.0880706 -3.72796 0
M  V30 1924 N 196.587 1.43421 -0.653314 0
M  V30 1925 C 197.55 2.29182 0.0287951 0
M  V30 1926 C 198.55 1.42213 0.750465 0
M  V30 1927 O 199.74 1.63843 0.591701 0
M  V30 1928 C 196.872 3.24278 1.05151 0
M  V30 1929 H 198.065 2.90985 -0.725786 0
M  V30 1930 H 195.618 1.50702 -0.414545 0
M  V30 1931 H 196.353 2.6737 1.83532 0
M  V30 1932 H 196.138 3.88396 0.537687 0
M  V30 1933 H 197.628 3.88647 1.52786 0
M  V30 1934 N 198.065 0.39524 1.52563 0
M  V30 1935 C 199.015 -0.4541 2.23432 0
M  V30 1936 C 199.999 -1.02482 1.24042 0
M  V30 1937 O 201.191 -0.949938 1.49349 0
M  V30 1938 C 198.32 -1.57769 3.049 0
M  V30 1939 C 197.406 -1.01842 4.1169 0
M  V30 1940 N 197.797 -0.184613 5.05463 0
M  V30 1941 C 196.095 -1.29033 4.26927 0
M  V30 1942 C 196.796 0.125013 5.81566 0
M  V30 1943 N 195.772 -0.480498 5.41472 0
M  V30 1944 H 199.574 0.189413 2.93289 0
M  V30 1945 H 197.088 0.204877 1.61102 0
M  V30 1946 H 199.085 -2.19862 3.54212 0
M  V30 1947 H 197.745 -2.22397 2.36579 0
M  V30 1948 H 198.756 0.178602 5.17592 0
M  V30 1949 H 195.433 -1.93721 3.69836 0
M  V30 1950 H 196.823 0.800962 6.67109 0
M  V30 1951 N 199.544 -1.57102 0.125237 0
M  V30 1952 C 200.474 -2.18659 -0.819174 0
M  V30 1953 C 201.455 -1.12843 -1.27281 0
M  V30 1954 O 202.64 -1.41104 -1.33429 0
M  V30 1955 C 199.77 -2.79096 -2.06695 0
M  V30 1956 C 198.724 -3.90548 -1.75088 0
M  V30 1957 C 198.05 -4.37821 -3.06948 0
M  V30 1958 C 199.35 -5.12356 -1.01435 0
M  V30 1959 H 201.044 -2.9783 -0.306202 0
M  V30 1960 H 198.59 -1.4326 -0.145839 0
M  V30 1961 H 200.543 -3.2082 -2.73226 0
M  V30 1962 H 199.267 -1.97223 -2.60328 0
M  V30 1963 H 197.926 -3.49409 -1.10944 0
M  V30 1964 H 197.574 -3.52799 -3.58527 0
M  V30 1965 H 197.274 -5.12982 -2.86571 0
M  V30 1966 H 198.798 -4.822 -3.74587 0
M  V30 1967 H 200.212 -5.5106 -1.58132 0
M  V30 1968 H 198.609 -5.9314 -0.911319 0
M  V30 1969 H 199.679 -4.849 -0.00218681 0
M  V30 1970 N 201.022 0.148545 -1.56898 0
M  V30 1971 C 201.932 1.20293 -2.01412 0
M  V30 1972 C 202.948 1.47107 -0.929273 0
M  V30 1973 O 204.124 1.58807 -1.23863 0
M  V30 1974 C 201.189 2.51682 -2.38447 0
M  V30 1975 C 200.25 2.32529 -3.60872 0
M  V30 1976 C 199.483 3.57653 -3.96132 0
M  V30 1977 O 199.706 4.63771 -3.32073 0
M  V30 1978 O 198.64 3.50408 -4.89385 0
M  V30 1979 H 202.466 0.855025 -2.91416 0
M  V30 1980 H 200.051 0.357151 -1.45068 0
M  V30 1981 H 201.933 3.29147 -2.63135 0
M  V30 1982 H 200.608 2.86006 -1.51599 0
M  V30 1983 H 199.515 1.53019 -3.41373 0
M  V30 1984 H 200.848 2.03121 -4.48333 0
M  V30 1985 N 202.5 1.5196 0.417844 0
M  V30 1986 C 203.463 1.74065 1.49111 0
M  V30 1987 C 204.463 0.610537 1.48758 0
M  V30 1988 O 205.653 0.87832 1.50437 0
M  V30 1989 C 202.785 1.81502 2.88565 0
M  V30 1990 H 203.978 2.69869 1.30807 0
M  V30 1991 H 201.531 1.42244 0.647785 0
M  V30 1992 H 202.266 0.875813 3.1225 0
M  V30 1993 H 202.051 2.63651 2.90225 0
M  V30 1994 H 203.541 2.00376 3.66387 0
M  V30 1995 N 203.978 -0.674533 1.42435 0
M  V30 1996 C 205.394 -0.98769 1.25367 0
M  V30 1997 C 205.594 -2.00879 0.158044 0
M  V30 1998 O 204.65 -2.48075 -0.470633 0
M  V30 1999 C 205.963 -1.49224 2.6106 0
M  V30 2000 C 207.511 -1.61 2.68417 0
M  V30 2001 C 207.986 -2.14852 4.04478 0
M  V30 2002 N 209.477 -2.22185 4.06434 0
M  V30 2003 C 210.212 -2.64928 5.08528 0
M  V30 2004 N 209.708 -3.07121 6.21006 0
M  V30 2005 N 211.501 -2.64679 4.95885 0
M  V30 2006 H 203.652 0.00152503 2.124 0
M  V30 2007 H 205.915 -0.0618434 0.945981 0
M  V30 2008 H 205.621 -0.816453 3.42092 0
M  V30 2009 H 205.495 -2.47094 2.84999 0
M  V30 2010 H 207.882 -2.27686 1.87732 0
M  V30 2011 H 207.963 -0.616195 2.48267 0
M  V30 2012 H 207.607 -1.48775 4.85622 0
M  V30 2013 H 207.537 -3.15024 4.2198 0
M  V30 2014 H 210.028 -1.92435 3.25234 0
M  V30 2015 H 210.341 -3.38423 6.94759 0
M  V30 2016 H 208.686 -3.04978 6.24511 0
M  V30 2017 H 211.877 -2.31078 4.07088 0
M  V30 2018 H 212.05 -2.9767 5.75584 0
M  V30 2019 N 205.456 -1.28612 -0.910864 0
M  V30 2020 C 206.403 -1.12786 -2.01365 0
M  V30 2021 C 207.373 -0.024201 -1.66082 0
M  V30 2022 O 208.558 -0.189667 -1.89855 0
M  V30 2023 C 205.698 -0.798743 -3.35729 0
M  V30 2024 C 204.811 -1.98173 -3.83864 0
M  V30 2025 C 203.946 -1.59298 -5.06752 0
M  V30 2026 C 202.985 -2.74245 -5.47226 0
M  V30 2027 N 202.122 -2.35842 -6.61304 0
M  V30 2028 H 206.962 -2.07142 -2.14234 0
M  V30 2029 H 204.499 -1.03093 -1.0493 0
M  V30 2030 H 206.457 -0.588662 -4.13026 0
M  V30 2031 H 205.087 0.10789 -3.2262 0
M  V30 2032 H 204.139 -2.30386 -3.02699 0
M  V30 2033 H 205.451 -2.84343 -4.09818 0
M  V30 2034 H 204.605 -1.34513 -5.916 0
M  V30 2035 H 203.344 -0.702618 -4.82612 0
M  V30 2036 H 202.349 -2.99725 -4.60918 0
M  V30 2037 H 203.574 -3.63928 -5.73353 0
M  V30 2038 H 201.52 -1.49279 -6.38789 0
M  V30 2039 H 201.437 -3.15546 -6.86998 0
M  V30 2040 H 202.705 -2.14348 -7.4945 0
M  V30 2041 N 206.934 1.1197 -1.10907 0
M  V30 2042 C 207.881 2.17846 -0.762345 0
M  V30 2043 C 208.851 1.63995 0.263599 0
M  V30 2044 O 210.036 1.90273 0.141773 0
M  V30 2045 C 207.176 3.44487 -0.205651 0
M  V30 2046 C 206.289 4.12369 -1.28748 0
M  V30 2047 C 205.424 5.26674 -0.691919 0
M  V30 2048 C 204.463 5.86431 -1.75399 0
M  V30 2049 N 203.6 6.92142 -1.17833 0
M  V30 2050 H 208.44 2.46851 -1.6694 0
M  V30 2051 H 205.977 1.21188 -0.833776 0
M  V30 2052 H 207.935 4.16981 0.135037 0
M  V30 2053 H 206.565 3.15884 0.664613 0
M  V30 2054 H 205.617 3.38003 -1.74522 0
M  V30 2055 H 206.929 4.52844 -2.09125 0
M  V30 2056 H 206.083 6.05953 -0.300963 0
M  V30 2057 H 204.822 4.8749 0.143232 0
M  V30 2058 H 203.827 5.05835 -2.15432 0
M  V30 2059 H 205.052 6.27685 -2.59208 0
M  V30 2060 H 202.998 6.54985 -0.364725 0
M  V30 2061 H 202.915 7.31242 -1.91887 0
M  V30 2062 H 204.183 7.75237 -0.81408 0
M  V30 2063 N 208.412 0.89855 1.29475 0
M  V30 2064 C 209.637 0.538561 2.00285 0
M  V30 2065 C 210.062 -0.869135 1.66816 0
M  V30 2066 O 209.42 -1.57831 0.892145 0
M  V30 2067 C 209.468 0.736475 3.52999 0
M  V30 2068 O 208.572 -0.211537 4.11857 0
M  V30 2069 H 207.913 0.210563 0.62973 0
M  V30 2070 H 210.443 1.20982 1.64998 0
M  V30 2071 H 210.453 0.640685 4.02938 0
M  V30 2072 H 209.128 1.76276 3.76696 0
M  V30 2073 H 207.705 -0.0682991 3.72837 0
M  V30 2074 N 209.89 -1.43072 0.660911 0
M  V30 2075 C 210.837 -2.30785 -0.0259884 0
M  V30 2076 C 211.807 -1.45184 -0.806888 0
M  V30 2077 O 212.992 -1.74041 -0.781943 0
M  V30 2078 C 210.132 -3.30861 -0.981067 0
M  V30 2079 C 209.245 -4.31558 -0.195458 0
M  V30 2080 C 208.38 -5.18712 -1.14503 0
M  V30 2081 C 207.419 -6.11097 -0.350299 0
M  V30 2082 N 206.556 -6.90849 -1.25186 0
M  V30 2083 H 211.396 -2.88975 0.727846 0
M  V30 2084 H 208.933 -1.42353 0.370682 0
M  V30 2085 H 210.891 -3.87399 -1.54849 0
M  V30 2086 H 209.521 -2.74304 -1.70169 0
M  V30 2087 H 208.573 -3.77252 0.488374 0
M  V30 2088 H 209.885 -4.9701 0.422176 0
M  V30 2089 H 209.039 -5.79914 -1.78284 0
M  V30 2090 H 207.778 -4.53404 -1.79656 0
M  V30 2091 H 206.783 -5.48976 0.300808 0
M  V30 2092 H 208.008 -6.7845 0.296941 0
M  V30 2093 H 205.954 -6.28182 -1.89005 0
M  V30 2094 H 205.871 -7.52854 -0.688971 0
M  V30 2095 H 207.139 -7.5655 -1.87757 0
M  V30 2096 N 211.368 -0.403325 -1.52352 0
M  V30 2097 C 212.331 0.413051 -2.25447 0
M  V30 2098 C 213.331 0.978513 -1.276 0
M  V30 2099 O 214.521 0.858305 -1.51587 0
M  V30 2100 C 211.653 1.58087 -3.02029 0
M  V30 2101 H 212.846 -0.227094 -2.99039 0
M  V30 2102 H 210.399 -0.155722 -1.55522 0
M  V30 2103 H 211.134 2.25804 -2.32772 0
M  V30 2104 H 210.919 1.18195 -3.73861 0
M  V30 2105 H 212.409 2.1585 -3.57489 0
M  V30 2106 N 212.846 1.57033 -0.133567 0
M  V30 2107 C 214.094 1.953 0.519848 0
M  V30 2108 C 214.415 1.01866 1.66278 0
M  V30 2109 O 213.685 0.0776513 1.95746 0
M  V30 2110 H 212.265 0.721091 0.195032 0
M  V30 2111 H 214.927 1.93809 -0.205921 0
M  V30 2112 H 214.023 2.98695 0.904854 0
M  V30 2113 N 214.325 -0.140222 1.56975 0
M  V30 2114 C 215.55 -0.870414 1.88251 0
M  V30 2115 C 215.975 -1.73637 0.723312 0
M  V30 2116 O 215.333 -1.78329 -0.32689 0
M  V30 2117 C 215.381 -1.69737 3.18154 0
M  V30 2118 O 214.485 -2.80229 3.02565 0
M  V30 2119 H 213.826 -0.242025 0.61832 0
M  V30 2120 H 216.356 -0.128999 2.04193 0
M  V30 2121 H 216.366 -2.09099 3.50345 0
M  V30 2122 H 215.041 -1.06152 4.02125 0
M  V30 2123 H 213.618 -2.44224 2.81796 0
M  V30 2124 N 215.803 -1.52179 -0.40978 0
M  V30 2125 C 217.051 -1.65878 -1.15451 0
M  V30 2126 C 217.372 -0.390771 -1.91044 0
M  V30 2127 O 216.642 0.594323 -1.86667 0
M  V30 2128 H 215.222 -0.611405 -0.429177 0
M  V30 2129 H 217.884 -1.89219 -0.467134 0
M  V30 2130 H 216.98 -2.49954 -1.86894 0
M  V30 2131 N 217.281 0.66697 -1.42791 0
M  V30 2132 C 218.244 1.76211 -1.46568 0
M  V30 2133 C 219.244 1.56896 -0.352196 0
M  V30 2134 O 220.434 1.63044 -0.613364 0
M  V30 2135 C 217.566 3.14935 -1.30494 0
M  V30 2136 H 218.759 1.74247 -2.44086 0
M  V30 2137 H 216.312 0.877342 -1.29354 0
M  V30 2138 H 217.047 3.2252 -0.339301 0
M  V30 2139 H 216.832 3.30359 -2.11199 0
M  V30 2140 H 218.322 3.94821 -1.36038 0
M  V30 2141 N 218.759 1.29093 0.90403 0
M  V30 2142 C 219.999 1.18076 1.66845 0
M  V30 2143 C 220.363 -0.26436 1.90171 0
M  V30 2144 O 221.564 -0.497423 2.64157 0
M  V30 2145 C 219.835 1.96722 2.98388 0
M  V30 2146 S 221.394 2.0219 3.89441 0
M  V30 2147 H 218.212 0.421104 0.572881 0
M  V30 2148 H 220.814 1.63322 1.07453 0
M  V30 2149 H 219.518 3.00866 2.7912 0
M  V30 2150 H 219.049 1.52064 3.62823 0
M  V30 2151 H 221.064 1.13545 4.83034 0
M  V30 2152 N 220.237 -1.11381 1.11499 0
M  V30 2153 C 221.169 -2.17207 0.731704 0
M  V30 2154 C 222.182 -1.61066 -0.236957 0
M  V30 2155 O 223.371 -1.78489 -0.0197591 0
M  V30 2156 C 220.471 -3.38846 0.0607624 0
M  V30 2157 C 219.644 -4.24451 1.0564 0
M  V30 2158 C 218.703 -5.24562 0.4149 0
M  V30 2159 O 217.729 -5.59071 1.069 0
M  V30 2160 N 218.931 -5.74651 -0.821943 0
M  V30 2161 H 221.696 -2.50699 1.64225 0
M  V30 2162 H 219.257 -1.26908 1.00529 0
M  V30 2163 H 221.249 -4.02911 -0.380139 0
M  V30 2164 H 219.819 -3.03411 -0.752376 0
M  V30 2165 H 219.039 -3.56833 1.67524 0
M  V30 2166 H 220.327 -4.78486 1.72998 0
M  V30 2167 H 219.725 -5.48797 -1.37252 0
M  V30 2168 H 218.282 -6.40549 -1.20582 0
M  V30 2169 N 221.715 -0.905404 -1.28997 0
M  V30 2170 C 222.992 -0.453513 -1.9027 0
M  V30 2171 C 223.372 1.06721 -1.82137 0
M  V30 2172 O 222.72 1.91159 -1.25182 0
M  V30 2173 C 222.93 -0.974494 -3.35119 0
M  V30 2174 C 224.278 -1.0216 -4.12127 0
M  V30 2175 O 225.302 -0.922557 -3.44046 0
M  V30 2176 O 224.161 -1.17121 -5.33802 0
M  V30 2177 H 221.255 -0.142347 -0.814657 0
M  V30 2178 H 223.801 -0.995642 -1.37423 0
M  V30 2179 H 222.573 -2.01848 -3.35221 0
M  V30 2180 H 222.196 -0.412706 -3.95452 0
M  V30 2181 N 223.193 1.4272 -0.668489 0
M  V30 2182 C 224.609 1.55992 -0.33745 0
M  V30 2183 C 224.809 1.64933 1.15756 0
M  V30 2184 O 223.865 1.61278 1.94282 0
M  V30 2185 C 225.178 2.81314 -1.06222 0
M  V30 2186 C 226.726 2.95078 -1.04394 0
M  V30 2187 C 227.201 4.23252 -1.74991 0
M  V30 2188 N 228.692 4.3015 -1.71829 0
M  V30 2189 C 229.427 5.28127 -2.23315 0
M  V30 2190 N 228.923 6.32293 -2.83156 0
M  V30 2191 N 230.716 5.19882 -2.13726 0
M  V30 2192 H 222.867 1.3516 -1.63846 0
M  V30 2193 H 225.13 0.650174 -0.689912 0
M  V30 2194 H 224.836 2.80823 -2.11734 0
M  V30 2195 H 224.71 3.72012 -0.62344 0
M  V30 2196 H 227.097 2.951 0.0028244 0
M  V30 2197 H 227.178 2.05627 -1.52155 0
M  V30 2198 H 226.822 4.2399 -2.79633 0
M  V30 2199 H 226.752 5.11626 -1.24685 0
M  V30 2200 H 229.243 3.55499 -1.28175 0
M  V30 2201 H 229.556 7.03398 -3.20079 0
M  V30 2202 H 227.901 6.32873 -2.87223 0
M  V30 2203 H 231.092 4.37423 -1.66669 0
M  V30 2204 H 231.265 5.96077 -2.54158 0
M  V30 2205 N 224.671 0.411399 1.52136 0
M  V30 2206 C 225.896 -0.165538 2.06738 0
M  V30 2207 C 226.321 -1.379 1.27926 0
M  V30 2208 O 225.679 -1.78628 0.310114 0
M  V30 2209 C 225.727 -0.492124 3.57226 0
M  V30 2210 O 224.831 -1.58276 3.80818 0
M  V30 2211 H 224.172 -0.0132132 0.663869 0
M  V30 2212 H 226.702 0.585253 1.96051 0
M  V30 2213 H 226.712 -0.750104 4.01045 0
M  V30 2214 H 225.387 0.394922 4.14021 0
M  V30 2215 H 223.964 -1.31677 3.48877 0
M  V30 2216 N 226.149 -1.5696 0.141893 0
M  V30 2217 C 227.397 -1.95573 -0.509484 0
M  V30 2218 C 227.718 -1.02746 -1.65736 0
M  V30 2219 O 226.988 -0.0880311 -1.95702 0
M  V30 2220 H 225.568 -0.722115 -0.191205 0
M  V30 2221 H 228.23 -1.93697 0.216196 0
M  V30 2222 H 227.326 -2.99171 -0.889 0
M  V30 2223 N 227.627 0.131896 -1.57047 0
M  V30 2224 C 228.559 1.1878 -1.9602 0
M  V30 2225 C 229.572 1.38363 -0.857875 0
M  V30 2226 O 230.761 1.37666 -1.13623 0
M  V30 2227 C 227.861 2.55008 -2.23213 0
M  V30 2228 C 227.034 2.56201 -3.54513 0
M  V30 2229 C 226.093 3.7408 -3.70069 0
M  V30 2230 O 225.119 3.58258 -4.42312 0
M  V30 2231 N 226.321 4.92137 -3.07866 0
M  V30 2232 H 229.086 0.85639 -2.87204 0
M  V30 2233 H 226.647 0.321309 -1.5868 0
M  V30 2234 H 228.639 3.32404 -2.30846 0
M  V30 2235 H 227.209 2.80382 -1.3822 0
M  V30 2236 H 226.429 1.64613 -3.58185 0
M  V30 2237 H 227.717 2.54043 -4.4084 0
M  V30 2238 H 227.115 5.07895 -2.49116 0
M  V30 2239 H 225.672 5.67254 -3.21039 0
M  V30 2240 N 229.106 1.52395 0.401703 0
M  V30 2241 C 230.069 1.75636 1.47257 0
M  V30 2242 C 231.069 0.62628 1.48103 0
M  V30 2243 O 232.259 0.894227 1.49497 0
M  V30 2244 C 229.391 1.84553 2.86624 0
M  V30 2245 H 230.584 2.71241 1.27938 0
M  V30 2246 H 228.137 1.42923 0.632662 0
M  V30 2247 H 228.872 0.908882 3.11303 0
M  V30 2248 H 228.657 2.66715 2.87412 0
M  V30 2249 H 230.147 2.04251 3.64241 0
M  V30 2250 N 230.584 -0.659388 1.43143 0
M  V30 2251 C 231.516 -1.7849 1.43784 0
M  V30 2252 C 232.529 -1.5932 0.334787 0
M  V30 2253 O 233.718 -1.68155 0.598842 0
M  V30 2254 C 230.818 -3.15828 1.22906 0
M  V30 2255 C 229.991 -3.61711 2.45934 0
M  V30 2256 C 229.05 -4.77831 2.20371 0
M  V30 2257 O 228.076 -4.87586 2.93681 0
M  V30 2258 N 229.278 -5.67611 1.21647 0
M  V30 2259 H 232.043 -1.7842 2.40803 0
M  V30 2260 H 229.604 -0.84302 1.3822 0
M  V30 2261 H 231.596 -3.91189 1.03697 0
M  V30 2262 H 230.166 -3.10707 0.343542 0
M  V30 2263 H 229.386 -2.76861 2.80609 0
M  V30 2264 H 230.674 -3.89112 3.27825 0
M  V30 2265 H 230.072 -5.62397 0.610449 0
M  V30 2266 H 228.629 -6.42719 1.08423 0
M  V30 2267 N 232.062 -1.29571 -0.897171 0
M  V30 2268 C 232.972 -1.16808 -2.03453 0
M  V30 2269 C 233.988 -0.0907471 -1.73763 0
M  V30 2270 O 235.164 -0.303312 -1.99103 0
M  V30 2271 C 232.229 -0.848264 -3.36163 0
M  V30 2272 C 231.29 -2.0097 -3.79354 0
M  V30 2273 C 230.523 -1.70505 -5.05731 0
M  V30 2274 O 230.746 -0.62718 -5.66941 0
M  V30 2275 O 229.68 -2.5538 -5.45036 0
M  V30 2276 H 233.506 -2.12325 -2.17144 0
M  V30 2277 H 231.091 -1.09047 -1.02123 0
M  V30 2278 H 232.973 -0.684581 -4.15802 0
M  V30 2279 H 231.648 0.0771071 -3.23608 0
M  V30 2280 H 230.555 -2.22863 -3.00471 0
M  V30 2281 H 231.888 -2.91636 -3.96496 0
M  V30 2282 N 233.54 1.10788 -1.12088 0
M  V30 2283 C 234.956 1.34691 -0.856186 0
M  V30 2284 C 235.156 1.94791 0.515615 0
M  V30 2285 O 234.212 2.18524 1.26505 0
M  V30 2286 C 235.525 2.27208 -1.9697 0
M  V30 2287 C 237.073 2.40755 -2.00016 0
M  V30 2288 C 237.548 3.36598 -3.1059 0
M  V30 2289 N 239.039 3.44164 -3.10008 0
M  V30 2290 C 239.774 4.18284 -3.92206 0
M  V30 2291 N 239.27 4.95322 -4.84384 0
M  V30 2292 N 241.063 4.13865 -3.80357 0
M  V30 2293 H 233.214 0.70144 -2.00483 0
M  V30 2294 H 235.477 0.371405 -0.872217 0
M  V30 2295 H 235.183 1.90251 -2.958 0
M  V30 2296 H 235.057 3.27485 -1.87172 0
M  V30 2297 H 237.444 2.76982 -1.01808 0
M  V30 2298 H 237.525 1.40305 -2.13888 0
M  V30 2299 H 237.169 3.01096 -4.09028 0
M  V30 2300 H 237.099 4.36918 -2.93956 0
M  V30 2301 H 239.59 2.8922 -2.43228 0
M  V30 2302 H 239.903 5.49267 -5.43623 0
M  V30 2303 H 238.248 4.94459 -4.884 0
M  V30 2304 H 241.439 3.52773 -3.07683 0
M  V30 2305 H 241.612 4.71372 -4.44649 0
M  V30 2306 N 235.018 0.912232 1.28515 0
M  V30 2307 C 235.95 0.35676 2.26406 0
M  V30 2308 C 236.963 -0.503933 1.54804 0
M  V30 2309 O 238.152 -0.319059 1.75625 0
M  V30 2310 C 235.252 -0.508825 3.35058 0
M  V30 2311 C 234.425 0.329007 4.36161 0
M  V30 2312 C 233.484 -0.471422 5.24084 0
M  V30 2313 O 232.51 0.115482 5.69083 0
M  V30 2314 N 233.712 -1.77479 5.52704 0
M  V30 2315 H 236.477 1.19818 2.74707 0
M  V30 2316 H 234.038 0.778022 1.4198 0
M  V30 2317 H 236.03 -1.051 3.90815 0
M  V30 2318 H 234.6 -1.25095 2.86478 0
M  V30 2319 H 233.82 1.05256 3.79888 0
M  V30 2320 H 235.108 0.90234 5.00735 0
M  V30 2321 H 234.506 -2.27417 5.17975 0
M  V30 2322 H 233.063 -2.26382 6.11224 0
M  V30 2323 N 236.496 -1.42363 0.676048 0
M  V30 2324 C 237.406 -2.346 -0.00153389 0
M  V30 2325 C 238.422 -1.5516 -0.787485 0
M  V30 2326 O 239.598 -1.87723 -0.729521 0
M  V30 2327 C 236.663 -3.33705 -0.940298 0
M  V30 2328 C 235.724 -4.29042 -0.148739 0
M  V30 2329 C 234.957 -5.23413 -1.04279 0
M  V30 2330 O 235.18 -5.22749 -2.28232 0
M  V30 2331 O 234.114 -5.99795 -0.502925 0
M  V30 2332 H 237.94 -2.94082 0.758268 0
M  V30 2333 H 235.525 -1.42888 0.436289 0
M  V30 2334 H 237.407 -3.94586 -1.47917 0
M  V30 2335 H 236.082 -2.76695 -1.67993 0
M  V30 2336 H 234.989 -3.71571 0.43427 0
M  V30 2337 H 236.322 -4.89097 0.551805 0
M  V30 2338 N 237.974 -0.419461 -1.51915 0
M  V30 2339 C 239.199 0.154572 -2.06823 0
M  V30 2340 C 239.624 1.3722 -1.28656 0
M  V30 2341 O 238.982 1.78461 -0.319583 0
M  V30 2342 C 239.03 0.473172 -3.57482 0
M  V30 2343 O 238.134 1.56255 -3.81652 0
M  V30 2344 H 237.475 0.0096924 -0.663929 0
M  V30 2345 H 240.005 -0.595642 -1.95738 0
M  V30 2346 H 240.015 0.728825 -4.01438 0
M  V30 2347 H 238.69 -0.416873 -4.13805 0
M  V30 2348 H 237.267 1.29825 -3.49571 0
M  V30 2349 N 239.452 1.56882 -0.150215 0
M  V30 2350 C 240.402 2.13501 0.800071 0
M  V30 2351 C 241.386 1.06368 1.20726 0
M  V30 2352 O 242.578 1.32538 1.17314 0
M  V30 2353 C 239.707 2.76271 2.03787 0
M  V30 2354 C 238.793 3.90533 1.65364 0
M  V30 2355 N 239.184 4.96259 0.977794 0
M  V30 2356 C 237.482 4.013 1.94613 0
M  V30 2357 C 238.183 5.76286 0.791794 0
M  V30 2358 N 237.159 5.27163 1.32666 0
M  V30 2359 H 240.961 2.92615 0.274517 0
M  V30 2360 H 238.475 1.62319 0.0512144 0
M  V30 2361 H 240.472 3.15197 2.72867 0
M  V30 2362 H 239.132 1.98631 2.56857 0
M  V30 2363 H 240.143 5.13953 0.638193 0
M  V30 2364 H 236.82 3.3474 2.4951 0
M  V30 2365 H 238.21 6.71401 0.258894 0
M  V30 2366 N 240.93 -0.123565 1.57115 0
M  V30 2367 C 241.84 -1.17074 2.033 0
M  V30 2368 C 242.856 -1.4561 0.952559 0
M  V30 2369 O 244.032 -1.56817 1.26374 0
M  V30 2370 C 241.097 -2.47857 2.42421 0
M  V30 2371 C 240.158 -2.26758 3.64526 0
M  V30 2372 C 239.391 -3.51305 4.01771 0
M  V30 2373 O 239.614 -4.5843 3.39409 0
M  V30 2374 O 238.548 -3.42578 4.94898 0
M  V30 2375 H 242.374 -0.808555 2.92739 0
M  V30 2376 H 239.959 -0.334027 1.45618 0
M  V30 2377 H 241.841 -3.2492 2.68338 0
M  V30 2378 H 240.516 -2.83558 1.5613 0
M  V30 2379 H 239.423 -1.47569 3.43765 0
M  V30 2380 H 240.756 -1.95963 4.51508 0
M  V30 2381 N 242.408 -1.52605 -0.393616 0
M  V30 2382 C 243.34 -1.73303 -1.49995 0
M  V30 2383 C 244.353 -0.613473 -1.50799 0
M  V30 2384 O 245.542 -0.889049 -1.54784 0
M  V30 2385 C 242.642 -1.77245 -2.88855 0
M  V30 2386 C 241.815 -3.06483 -3.12069 0
M  V30 2387 C 240.874 -3.02033 -4.30886 0
M  V30 2388 O 239.9 -3.75907 -4.27414 0
M  V30 2389 N 241.102 -2.20897 -5.36828 0
M  V30 2390 H 243.867 -2.68756 -1.32629 0
M  V30 2391 H 241.428 -1.51036 -0.583083 0
M  V30 2392 H 243.42 -1.7178 -3.66434 0
M  V30 2393 H 241.99 -0.891993 -2.99603 0
M  V30 2394 H 241.21 -3.25474 -2.22396 0
M  V30 2395 H 242.498 -3.91947 -3.2443 0
M  V30 2396 H 241.896 -1.60336 -5.42502 0
M  V30 2397 H 240.453 -2.21275 -6.13091 0
M  V30 2398 N 243.887 0.651787 -1.4349 0
M  V30 2399 C 244.797 1.79368 -1.5121 0
M  V30 2400 C 245.813 1.69361 -0.399093 0
M  V30 2401 O 246.989 1.90505 -0.653431 0
M  V30 2402 C 244.054 3.15653 -1.43401 0
M  V30 2403 C 243.115 3.37446 -2.65384 0
M  V30 2404 C 242.348 4.67229 -2.57939 0
M  V30 2405 O 242.571 5.46676 -1.62792 0
M  V30 2406 O 241.505 4.90773 -3.48462 0
M  V30 2407 H 245.331 1.7581 -2.47638 0
M  V30 2408 H 242.916 0.810447 -1.25507 0
M  V30 2409 H 244.798 3.96935 -1.41494 0
M  V30 2410 H 243.473 3.19798 -0.501085 0
M  V30 2411 H 242.38 2.55923 -2.72863 0
M  V30 2412 H 243.713 3.38148 -3.57654 0
M  V30 2413 N 245.365 1.30045 0.890287 0
M  V30 2414 C 246.611 1.18737 1.64406 0
M  V30 2415 C 246.944 -0.258525 1.92472 0
M  V30 2416 O 246.219 -1.18562 1.54186 0
M  V30 2417 C 246.502 2.01087 2.98724 0
M  V30 2418 C 246.355 3.53867 2.77665 0
M  V30 2419 C 247.674 1.84457 3.9958 0
M  V30 2420 H 244.793 0.432698 0.596608 0
M  V30 2421 H 247.435 1.5962 1.0306 0
M  V30 2422 H 245.585 1.66349 3.51084 0
M  V30 2423 H 247.257 3.98637 2.32133 0
M  V30 2424 H 245.5 3.78318 2.12269 0
M  V30 2425 H 246.171 4.06772 3.7315 0
M  V30 2426 H 248.647 2.14817 3.56361 0
M  V30 2427 H 247.523 2.44411 4.91482 0
M  V30 2428 H 247.784 0.802276 4.3476 0
M  V30 2429 N 246.843 -1.10192 1.12674 0
M  V30 2430 C 247.791 -2.18694 0.792196 0
M  V30 2431 C 248.785 -1.67938 -0.222058 0
M  V30 2432 O 249.991 -1.79822 -0.0800074 0
M  V30 2433 H 246.366 -0.713223 0.238364 0
M  V30 2434 H 248.337 -2.44149 1.71564 0
M  V30 2435 C 247.086 -3.46682 0.265859 0
M  V30 2436 H 246.409 -3.86101 1.03761 0
M  V30 2437 H 247.849 -4.23942 0.0701128 0
M  V30 2438 C 246.308 -3.21506 -1.00675 0
M  V30 2439 O 246.838 -3.43408 -2.08408 0
M  V30 2440 N 245.044 -2.75158 -0.934692 0
M  V30 2441 H 244.591 -2.57535 -0.0578604 0
M  V30 2442 H 244.549 -2.58691 -1.7868 0
M  V30 2443 N 248.321 -0.919034 -1.28029 0
M  V30 2444 C 249.737 -0.617972 -1.4715 0
M  V30 2445 C 249.937 0.835242 -1.83374 0
M  V30 2446 O 248.993 1.61388 -1.94191 0
M  V30 2447 C 250.306 -1.56041 -2.57044 0
M  V30 2448 C 251.854 -1.56769 -2.7091 0
M  V30 2449 C 252.329 -2.49688 -3.83953 0
M  V30 2450 N 253.82 -2.47845 -3.91314 0
M  V30 2451 C 254.555 -3.16437 -4.78179 0
M  V30 2452 N 254.051 -3.94376 -5.69596 0
M  V30 2453 N 255.844 -3.05498 -4.71834 0
M  V30 2454 H 247.995 -1.85866 -1.02798 0
M  V30 2455 H 250.258 -0.797506 -0.512531 0
M  V30 2456 H 249.964 -2.59671 -2.372 0
M  V30 2457 H 249.838 -1.29551 -3.54255 0
M  V30 2458 H 252.225 -0.538745 -2.90141 0
M  V30 2459 H 252.306 -1.87305 -1.74214 0
M  V30 2460 H 251.95 -3.52688 -3.65477 0
M  V30 2461 H 251.88 -2.16453 -4.80058 0
M  V30 2462 H 254.371 -1.91234 -3.25941 0
M  V30 2463 H 254.684 -4.43721 -6.32718 0
M  V30 2464 H 253.029 -3.98481 -5.69419 0
M  V30 2465 H 256.22 -2.44108 -3.99411 0
M  V30 2466 H 256.393 -3.59225 -5.39316 0
M  V30 2467 N 249.799 1.42003 -0.683588 0
M  V30 2468 C 250.709 2.34597 -0.0109075 0
M  V30 2469 C 251.725 1.55576 0.779245 0
M  V30 2470 O 252.901 1.88107 0.719555 0
M  V30 2471 C 249.966 3.34199 0.922588 0
M  V30 2472 C 249.027 4.29115 0.125984 0
M  V30 2473 C 248.26 5.23959 1.01502 0
M  V30 2474 O 248.483 5.23952 2.25456 0
M  V30 2475 O 247.417 6.00053 0.47111 0
M  V30 2476 H 251.243 2.93675 -0.773853 0
M  V30 2477 H 248.828 1.42654 -0.443861 0
M  V30 2478 H 250.71 3.95365 1.45823 0
M  V30 2479 H 249.385 2.77582 1.66523 0
M  V30 2480 H 248.292 3.71335 -0.453969 0
M  V30 2481 H 249.625 4.88798 -0.577736 0
M  V30 2482 N 251.277 0.427512 1.51691 0
M  V30 2483 C 252.187 -0.39527 2.31246 0
M  V30 2484 C 253.203 -1.03674 1.39742 0
M  V30 2485 O 254.379 -1.03425 1.72816 0
M  V30 2486 C 251.444 -1.48706 3.13189 0
M  V30 2487 C 250.505 -0.866743 4.20459 0
M  V30 2488 C 249.738 -1.90651 4.98486 0
M  V30 2489 O 249.961 -3.12733 4.77026 0
M  V30 2490 O 248.895 -1.5025 5.82845 0
M  V30 2491 H 252.721 0.253918 3.02637 0
M  V30 2492 H 250.306 0.190274 1.48183 0
M  V30 2493 H 252.188 -2.12047 3.64162 0
M  V30 2494 H 250.863 -2.12051 2.44573 0
M  V30 2495 H 249.77 -0.195544 3.73589 0
M  V30 2496 H 251.103 -0.276934 4.9142 0
M  V30 2497 N 252.755 -1.56801 0.158532 0
M  V30 2498 C 254.171 -1.5837 -0.197774 0
M  V30 2499 C 254.371 -1.17334 -1.63814 0
M  V30 2500 O 253.427 -0.878988 -2.36707 0
M  V30 2501 C 254.74 -3.00615 0.0714459 0
M  V30 2502 C 256.288 -3.12999 0.00864533 0
M  V30 2503 C 256.763 -4.57313 0.250685 0
M  V30 2504 N 258.254 -4.62777 0.198014 0
M  V30 2505 C 258.989 -5.72271 0.359642 0
M  V30 2506 N 258.485 -6.90371 0.579625 0
M  V30 2507 N 260.278 -5.61318 0.296438 0
M  V30 2508 H 252.429 -1.81765 1.09887 0
M  V30 2509 H 254.692 -0.841849 0.435884 0
M  V30 2510 H 254.398 -3.35068 1.06874 0
M  V30 2511 H 254.272 -3.71683 -0.642757 0
M  V30 2512 H 256.659 -2.7838 -0.979217 0
M  V30 2513 H 256.74 -2.44393 0.755359 0
M  V30 2514 H 256.384 -4.92639 1.2357 0
M  V30 2515 H 256.314 -5.24061 -0.516489 0
M  V30 2516 H 258.805 -3.77885 0.0331115 0
M  V30 2517 H 259.118 -7.69689 0.69275 0
M  V30 2518 H 257.463 -6.92264 0.616087 0
M  V30 2519 H 260.654 -4.67932 0.125258 0
M  V30 2520 H 260.827 -6.46599 0.425831 0
M  V30 2521 N 254.233 0.115231 -1.57178 0
M  V30 2522 C 255.163 1.1423 -2.03651 0
M  V30 2523 C 256.144 1.42967 -0.921655 0
M  V30 2524 O 257.329 1.53343 -1.19162 0
M  V30 2525 C 254.459 2.4675 -2.44401 0
M  V30 2526 C 253.413 2.32467 -3.59365 0
M  V30 2527 C 252.739 3.69984 -3.86026 0
M  V30 2528 C 254.039 1.78203 -4.90959 0
M  V30 2529 H 255.733 0.755749 -2.89705 0
M  V30 2530 H 253.279 0.362093 -1.39373 0
M  V30 2531 H 255.232 3.18854 -2.75517 0
M  V30 2532 H 253.956 2.87302 -1.55322 0
M  V30 2533 H 252.615 1.62811 -3.28463 0
M  V30 2534 H 252.263 4.08028 -2.94147 0
M  V30 2535 H 251.963 3.61279 -4.63412 0
M  V30 2536 H 253.487 4.43587 -4.19599 0
M  V30 2537 H 254.901 2.40128 -5.20587 0
M  V30 2538 H 253.298 1.8031 -5.72371 0
M  V30 2539 H 254.368 0.739876 -4.79222 0
M  V30 2540 N 255.711 1.52812 0.385517 0
M  V30 2541 C 257.127 1.4214 0.725829 0
M  V30 2542 C 257.327 0.544589 1.94001 0
M  V30 2543 O 256.383 0.0193693 2.52493 0
M  V30 2544 C 257.696 2.85042 0.957668 0
M  V30 2545 C 259.244 2.94543 1.05892 0
M  V30 2546 C 259.719 4.38464 1.32337 0
M  V30 2547 N 261.21 4.41804 1.39151 0
M  V30 2548 C 261.945 5.5025 1.61285 0
M  V30 2549 N 261.441 6.68775 1.80866 0
M  V30 2550 N 263.234 5.37798 1.63492 0
M  V30 2551 H 255.385 2.08338 -0.413383 0
M  V30 2552 H 257.648 0.940016 -0.122775 0
M  V30 2553 H 257.354 3.51431 0.137568 0
M  V30 2554 H 257.228 3.27505 1.87137 0
M  V30 2555 H 259.615 2.28321 1.86959 0
M  V30 2556 H 259.696 2.55504 0.123057 0
M  V30 2557 H 259.34 5.05254 0.517793 0
M  V30 2558 H 259.27 4.75059 2.27214 0
M  V30 2559 H 261.761 3.56377 1.25713 0
M  V30 2560 H 262.074 7.47197 1.97271 0
M  V30 2561 H 260.419 6.71797 1.78083 0
M  V30 2562 H 263.61 4.44171 1.47749 0
M  V30 2563 H 263.783 6.22382 1.80402 0
M  V30 2564 N 257.189 -0.644168 1.43834 0
M  V30 2565 C 258.414 -1.43642 1.49605 0
M  V30 2566 C 258.839 -1.8773 0.117913 0
M  V30 2567 O 258.197 -1.57938 -0.890239 0
M  V30 2568 C 258.245 -2.6416 2.45463 0
M  V30 2569 O 257.349 -3.63538 1.94714 0
M  V30 2570 H 256.69 -0.430329 0.50568 0
M  V30 2571 H 259.22 -0.787448 1.8884 0
M  V30 2572 H 259.23 -3.11864 2.63068 0
M  V30 2573 H 257.905 -2.31414 3.45572 0
M  V30 2574 H 256.482 -3.2273 1.86814 0
M  V30 2575 N 258.668 -1.30515 -0.883378 0
M  V30 2576 C 259.914 -1.20617 -1.63778 0
M  V30 2577 C 260.269 0.236469 -1.90941 0
M  V30 2578 O 259.562 1.16596 -1.52039 0
M  V30 2579 C 259.756 -1.96994 -2.98209 0
M  V30 2580 C 259.585 -3.48537 -2.84169 0
M  V30 2581 C 258.355 -4.17893 -2.84067 0
M  V30 2582 C 260.553 -4.43738 -2.60001 0
M  V30 2583 N 258.535 -5.55685 -2.60936 0
M  V30 2584 C 259.906 -5.69105 -2.46007 0
M  V30 2585 C 261.961 -4.33316 -2.45239 0
M  V30 2586 C 260.664 -6.8523 -2.18752 0
M  V30 2587 C 262.69 -5.4921 -2.19369 0
M  V30 2588 C 262.052 -6.73558 -2.06153 0
M  V30 2589 H 258.151 -0.496434 -0.604216 0
M  V30 2590 H 260.735 -1.64544 -1.04083 0
M  V30 2591 H 258.906 -1.55455 -3.55933 0
M  V30 2592 H 260.638 -1.79225 -3.62851 0
M  V30 2593 H 257.393 -3.69739 -2.95956 0
M  V30 2594 H 257.817 -6.28199 -2.52378 0
M  V30 2595 H 262.459 -3.37856 -2.54191 0
M  V30 2596 H 260.177 -7.80729 -2.08537 0
M  V30 2597 H 263.763 -5.43054 -2.08766 0
M  V30 2598 H 262.643 -7.61721 -1.86416 0
M  V30 2599 N 260.146 1.09593 -1.13257 0
M  V30 2600 C 261.056 2.19739 -0.821691 0
M  V30 2601 C 262.072 1.72926 0.19302 0
M  V30 2602 O 263.248 2.01385 0.0244895 0
M  V30 2603 C 260.313 3.45482 -0.290333 0
M  V30 2604 C 259.374 4.06985 -1.36607 0
M  V30 2605 C 258.607 5.26726 -0.859975 0
M  V30 2606 O 258.83 5.69594 0.303082 0
M  V30 2607 O 257.764 5.7931 -1.63351 0
M  V30 2608 H 261.59 2.48781 -1.74189 0
M  V30 2609 H 259.175 1.18496 -0.909894 0
M  V30 2610 H 261.057 4.214 0.000674022 0
M  V30 2611 H 259.732 3.18047 0.602306 0
M  V30 2612 H 258.639 3.32712 -1.71037 0
M  V30 2613 H 259.972 4.38643 -2.23279 0
M  V30 2614 N 261.624 0.925811 1.2754 0
M  V30 2615 C 262.556 0.380753 2.26015 0
M  V30 2616 C 263.569 -0.487485 1.5533 0
M  V30 2617 O 264.758 -0.300413 1.75954 0
M  V30 2618 C 261.858 -0.473259 3.35579 0
M  V30 2619 C 261.031 0.375249 4.35787 0
M  V30 2620 C 260.09 -0.415809 5.24555 0
M  V30 2621 O 259.116 0.175834 5.68928 0
M  V30 2622 N 260.318 -1.71607 5.54555 0
M  V30 2623 H 263.083 1.22725 2.73421 0
M  V30 2624 H 260.644 0.793037 1.41147 0
M  V30 2625 H 262.636 -1.00949 3.91907 0
M  V30 2626 H 261.206 -1.2205 2.87789 0
M  V30 2627 H 260.426 1.09279 3.7875 0
M  V30 2628 H 261.714 0.955399 4.99749 0
M  V30 2629 H 261.112 -2.2191 5.20358 0
M  V30 2630 H 259.669 -2.19887 6.1359 0
M  V30 2631 N 263.102 -1.41638 0.69111 0
M  V30 2632 C 264.012 -2.34588 0.0233487 0
M  V30 2633 C 265.028 -1.55987 -0.770984 0
M  V30 2634 O 266.204 -1.88486 -0.709569 0
M  V30 2635 C 263.269 -3.34684 -0.904851 0
M  V30 2636 C 262.33 -4.29176 -0.103225 0
M  V30 2637 C 261.563 -5.2449 -0.987216 0
M  V30 2638 O 261.786 -5.2514 -2.22674 0
M  V30 2639 O 260.72 -6.00295 -0.439281 0
M  V30 2640 H 264.546 -2.93261 0.789416 0
M  V30 2641 H 262.131 -1.42417 0.45142 0
M  V30 2642 H 264.013 -3.96133 -1.43724 0
M  V30 2643 H 262.688 -2.78461 -1.65049 0
M  V30 2644 H 261.595 -3.71089 0.473655 0
M  V30 2645 H 262.928 -4.88484 0.60365 0
M  V30 2646 N 264.58 -0.43555 -1.51462 0
M  V30 2647 C 265.49 0.383001 -2.31453 0
M  V30 2648 C 266.506 1.02931 -1.4029 0
M  V30 2649 O 267.682 1.02507 -1.73362 0
M  V30 2650 C 264.747 1.47043 -3.13973 0
M  V30 2651 C 263.808 0.844433 -4.20913 0
M  V30 2652 C 263.041 1.88004 -4.9949 0
M  V30 2653 O 263.264 3.10199 -4.78678 0
M  V30 2654 O 262.198 1.47157 -5.83634 0
M  V30 2655 H 266.024 -0.269964 -3.02498 0
M  V30 2656 H 263.609 -0.19813 -1.4808 0
M  V30 2657 H 265.491 2.10113 -3.65281 0
M  V30 2658 H 264.166 2.10751 -2.45695 0
M  V30 2659 H 263.073 0.175729 -3.73687 0
M  V30 2660 H 264.406 0.250869 -4.9156 0
M  V30 2661 N 266.058 1.56714 -0.166846 0
M  V30 2662 C 266.968 2.21331 0.777791 0
M  V30 2663 C 267.984 1.20358 1.25658 0
M  V30 2664 O 269.16 1.53005 1.30964 0
M  V30 2665 C 266.225 2.83787 1.99163 0
M  V30 2666 C 265.286 3.99947 1.56016 0
M  V30 2667 C 264.519 4.59415 2.71613 0
M  V30 2668 O 264.742 4.17769 3.88362 0
M  V30 2669 O 263.676 5.49359 2.45945 0
M  V30 2670 H 267.502 3.02605 0.257636 0
M  V30 2671 H 265.087 1.49275 0.0611393 0
M  V30 2672 H 266.969 3.23405 2.70161 0
M  V30 2673 H 265.644 2.05513 2.50092 0
M  V30 2674 H 264.551 3.65007 0.819809 0
M  V30 2675 H 265.884 4.79801 1.09782 0
M  V30 2676 N 267.536 -0.106894 1.57237 0
M  V30 2677 C 268.446 -1.14911 2.0453 0
M  V30 2678 C 269.462 -1.44592 0.96795 0
M  V30 2679 O 270.638 -1.55468 1.2803 0
M  V30 2680 C 267.703 -2.45272 2.45036 0
M  V30 2681 C 266.764 -2.22879 3.66911 0
M  V30 2682 C 265.997 -3.47024 4.05475 0
M  V30 2683 O 266.22 -4.54804 3.44252 0
M  V30 2684 O 265.154 -3.3731 4.98504 0
M  V30 2685 H 268.98 -0.777461 2.9358 0
M  V30 2686 H 266.565 -0.318563 1.45964 0
M  V30 2687 H 268.447 -3.22055 2.71769 0
M  V30 2688 H 267.122 -2.81886 1.59129 0
M  V30 2689 H 266.029 -1.43915 3.45311 0
M  V30 2690 H 267.362 -1.91163 4.53561 0
M  V30 2691 N 269.014 -1.53014 -0.377408 0
M  V30 2692 C 269.924 -1.81557 -1.48574 0
M  V30 2693 C 270.94 -0.703102 -1.59162 0
M  V30 2694 O 272.116 -0.99192 -1.75279 0
M  V30 2695 C 269.181 -1.9889 -2.83978 0
M  V30 2696 C 268.242 -3.22801 -2.83016 0
M  V30 2697 C 267.475 -3.39298 -4.11962 0
M  V30 2698 O 267.698 -2.60345 -5.0752 0
M  V30 2699 O 266.632 -4.32604 -4.18494 0
M  V30 2700 H 270.458 -2.75695 -1.27382 0
M  V30 2701 H 268.043 -1.38248 -0.566373 0
M  V30 2702 H 269.925 -2.11931 -3.6423 0
M  V30 2703 H 268.6 -1.07942 -3.05172 0
M  V30 2704 H 267.507 -3.15193 -2.01505 0
M  V30 2705 H 268.84 -4.13632 -2.66775 0
M  V30 2706 N 270.492 0.636531 -1.44174 0
M  V30 2707 C 271.402 1.77754 -1.53103 0
M  V30 2708 C 272.418 1.68928 -0.417034 0
M  V30 2709 O 273.594 1.89801 -0.6736 0
M  V30 2710 C 270.659 3.14115 -1.46741 0
M  V30 2711 C 269.72 3.34612 -2.68948 0
M  V30 2712 C 268.953 4.64467 -2.6288 0
M  V30 2713 O 269.176 5.44919 -1.68581 0
M  V30 2714 O 268.11 4.87049 -3.53648 0
M  V30 2715 H 271.936 1.73174 -2.49489 0
M  V30 2716 H 269.521 0.79709 -1.2636 0
M  V30 2717 H 271.403 3.95412 -1.45696 0
M  V30 2718 H 270.078 3.19249 -0.534975 0
M  V30 2719 H 268.985 2.53014 -2.75562 0
M  V30 2720 H 270.318 3.34336 -3.61221 0
M  V30 2721 N 271.97 1.30982 0.876444 0
M  V30 2722 C 273.216 1.20474 1.63138 0
M  V30 2723 C 273.549 -0.238096 1.92735 0
M  V30 2724 O 272.824 -1.1692 1.55435 0
M  V30 2725 C 273.107 2.04244 2.96574 0
M  V30 2726 C 272.96 3.56793 2.73896 0
M  V30 2727 C 274.279 1.88684 3.97601 0
M  V30 2728 H 271.398 0.439001 0.591985 0
M  V30 2729 H 274.04 1.60704 1.01361 0
M  V30 2730 H 272.19 1.70063 3.493 0
M  V30 2731 H 273.862 4.01077 2.27892 0
M  V30 2732 H 272.105 3.80548 2.08245 0
M  V30 2733 H 272.776 4.10706 3.68815 0
M  V30 2734 H 275.252 2.18584 3.54062 0
M  V30 2735 H 274.128 2.4961 4.88862 0
M  V30 2736 H 274.389 0.848343 4.33884 0
M  V30 2737 N 273.449 -1.08991 1.13837 0
M  V30 2738 C 274.865 -1.33312 0.877506 0
M  V30 2739 C 275.065 -1.95587 -0.48456 0
M  V30 2740 O 274.121 -2.20509 -1.23013 0
M  V30 2741 C 275.434 -2.24045 2.0056 0
M  V30 2742 C 276.982 -2.37542 2.03821 0
M  V30 2743 C 277.457 -3.31614 3.15905 0
M  V30 2744 N 278.948 -3.39189 3.15445 0
M  V30 2745 C 279.683 -4.11992 3.98811 0
M  V30 2746 N 279.179 -4.87553 4.92203 0
M  V30 2747 N 280.972 -4.07762 3.86894 0
M  V30 2748 H 273.123 -0.669456 2.01574 0
M  V30 2749 H 275.386 -0.357482 0.878015 0
M  V30 2750 H 275.092 -1.85521 2.98789 0
M  V30 2751 H 274.966 -3.24466 1.92359 0
M  V30 2752 H 277.353 -2.75327 1.06202 0
M  V30 2753 H 277.434 -1.36884 2.16093 0
M  V30 2754 H 277.078 -2.94551 4.13766 0
M  V30 2755 H 277.008 -4.32186 3.0087 0
M  V30 2756 H 279.499 -2.85314 2.47799 0
M  V30 2757 H 279.812 -5.40549 5.52292 0
M  V30 2758 H 278.157 -4.86627 4.96205 0
M  V30 2759 H 281.348 -3.47833 3.13257 0
M  V30 2760 H 281.521 -4.64238 4.52092 0
M  V30 2761 N 274.927 -0.932562 -1.27047 0
M  V30 2762 C 275.89 -0.440064 -2.24936 0
M  V30 2763 C 276.89 0.444071 -1.54547 0
M  V30 2764 O 278.08 0.244465 -1.72476 0
M  V30 2765 C 275.212 0.36678 -3.38921 0
M  V30 2766 H 276.405 -1.305 -2.70018 0
M  V30 2767 H 273.958 -0.713707 -1.39054 0
M  V30 2768 H 274.693 1.25033 -2.99228 0
M  V30 2769 H 274.478 -0.267204 -3.91188 0
M  V30 2770 H 275.968 0.701567 -4.11665 0
M  V30 2771 N 276.405 1.4127 -0.698611 0
M  V30 2772 C 277.821 1.55241 -0.370462 0
M  V30 2773 C 278.021 1.67351 1.12231 0
M  V30 2774 O 277.077 1.65363 1.90818 0
M  V30 2775 C 278.39 2.78997 -1.12165 0
M  V30 2776 C 279.938 2.92797 -1.1063 0
M  V30 2777 C 280.413 4.19445 -1.8393 0
M  V30 2778 N 281.904 4.26409 -1.80914 0
M  V30 2779 C 282.639 5.23271 -2.34467 0
M  V30 2780 N 282.135 6.26145 -2.96504 0
M  V30 2781 N 283.928 5.15232 -2.24706 0
M  V30 2782 H 276.079 1.31654 -1.66676 0
M  V30 2783 H 278.342 0.635393 -0.703548 0
M  V30 2784 H 278.048 2.76268 -2.17644 0
M  V30 2785 H 277.922 3.70606 -0.702209 0
M  V30 2786 H 280.309 2.95039 -0.0597713 0
M  V30 2787 H 280.39 2.02353 -1.56483 0
M  V30 2788 H 280.034 4.17964 -2.88563 0
M  V30 2789 H 279.964 5.08866 -1.35509 0
M  V30 2790 H 282.455 3.527 -1.35687 0
M  V30 2791 H 282.768 6.96451 -3.34927 0
M  V30 2792 H 281.113 6.26638 -3.00583 0
M  V30 2793 H 284.304 4.33789 -1.7591 0
M  V30 2794 H 284.477 5.90552 -2.66745 0
M  V30 2795 N 277.883 0.443576 1.51229 0
M  V30 2796 C 278.793 -0.370721 2.31652 0
M  V30 2797 C 279.809 -1.02186 1.40833 0
M  V30 2798 O 280.985 -1.01586 1.73903 0
M  V30 2799 C 278.05 -1.45376 3.14749 0
M  V30 2800 C 277.111 -0.822099 4.21355 0
M  V30 2801 C 276.344 -1.85353 5.0048 0
M  V30 2802 O 276.567 -3.07656 4.80316 0
M  V30 2803 O 275.501 -1.4406 5.84406 0
M  V30 2804 H 279.327 0.286002 3.0235 0
M  V30 2805 H 276.912 0.20598 1.47973 0
M  V30 2806 H 278.794 -2.08173 3.66391 0
M  V30 2807 H 277.469 -2.09445 2.46809 0
M  V30 2808 H 276.376 -0.155909 3.73775 0
M  V30 2809 H 277.709 -0.224797 4.91686 0
M  V30 2810 N 279.361 -1.56624 0.175154 0
M  V30 2811 C 280.772 -1.83561 -0.340916 0
M  V30 2812 C 281.123 -1.09511 -1.62794 0
M  V30 2813 O 280.248 -0.349389 -2.13561 0
M  V30 2814 C 280.843 -3.32979 -0.625313 0
M  V30 2815 C 279.402 -3.60399 -1.08581 0
M  V30 2816 C 278.549 -2.77024 -0.123722 0
M  V30 2817 H 281.5 -1.53593 0.399344 0
M  V30 2818 H 281.521 -3.50666 -1.47694 0
M  V30 2819 H 281.033 -3.86847 0.311575 0
M  V30 2820 H 279.134 -3.11945 -2.03767 0
M  V30 2821 H 279.247 -4.68711 -0.992317 0
M  V30 2822 H 277.611 -2.46993 -0.621821 0
M  V30 2823 H 278.394 -3.33674 0.807256 0
M  V30 2824 N 280.839 0.0985539 -1.57292 0
M  V30 2825 C 282.087 0.801092 -1.85545 0
M  V30 2826 C 282.408 1.79438 -0.763353 0
M  V30 2827 O 281.678 1.94763 0.21073 0
M  V30 2828 H 280.258 0.29884 -0.684619 0
M  V30 2829 H 282.92 0.0810064 -1.94732 0
M  V30 2830 H 282.016 1.3338 -2.82163 0
M  V30 2831 N 282.317 1.53212 0.369288 0
M  V30 2832 C 283.25 1.74166 1.4745 0
M  V30 2833 C 284.228 0.589923 1.51521 0
M  V30 2834 O 285.412 0.822078 1.69629 0
M  V30 2835 C 282.539 1.81711 2.8583 0
M  V30 2836 C 281.585 3.03649 2.99499 0
M  V30 2837 S 282.418 4.63242 2.6864 0
M  V30 2838 C 283.574 4.7363 4.09177 0
M  V30 2839 H 283.807 2.67636 1.29454 0
M  V30 2840 H 281.34 1.43754 0.563396 0
M  V30 2841 H 283.298 1.86743 3.65564 0
M  V30 2842 H 281.959 0.89299 3.01139 0
M  V30 2843 H 281.152 3.05526 4.00836 0
M  V30 2844 H 280.754 2.9671 2.27683 0
M  V30 2845 H 283.046 4.53456 5.03372 0
M  V30 2846 H 283.989 5.75682 4.12306 0
M  V30 2847 H 284.397 4.02295 3.96004 0
M  V30 2848 N 283.795 -0.628877 1.44509 0
M  V30 2849 C 284.758 -1.72263 1.51188 0
M  V30 2850 C 285.758 -1.55907 0.39367 0
M  V30 2851 O 286.948 -1.61361 0.656377 0
M  V30 2852 C 284.08 -3.11365 1.38798 0
M  V30 2853 H 285.273 -1.67714 2.4862 0
M  V30 2854 H 282.826 -0.842737 1.31634 0
M  V30 2855 H 283.561 -3.21507 0.424693 0
M  V30 2856 H 283.346 -3.24644 2.19884 0
M  V30 2857 H 284.836 -3.91075 1.46458 0
M  V30 2858 N 285.273 -1.31445 -0.869486 0
M  V30 2859 C 286.689 -1.10113 -1.15531 0
M  V30 2860 C 286.889 0.128087 -2.01092 0
M  V30 2861 O 285.945 0.817276 -2.38908 0
M  V30 2862 C 287.258 -2.37291 -1.84698 0
M  V30 2863 C 288.806 -2.42906 -1.97397 0
M  V30 2864 C 289.281 -3.69967 -2.69979 0
M  V30 2865 N 290.772 -3.70864 -2.77514 0
M  V30 2866 C 291.507 -4.65875 -3.34287 0
M  V30 2867 N 291.003 -5.71242 -3.91988 0
M  V30 2868 N 292.796 -4.53394 -3.3225 0
M  V30 2869 H 284.947 -2.1028 -0.299347 0
M  V30 2870 H 287.21 -0.927683 -0.195214 0
M  V30 2871 H 286.916 -3.27078 -1.29278 0
M  V30 2872 H 286.79 -2.47125 -2.84972 0
M  V30 2873 H 289.177 -1.53588 -2.51982 0
M  V30 2874 H 289.258 -2.37036 -0.961643 0
M  V30 2875 H 288.902 -4.59652 -2.16062 0
M  V30 2876 H 288.832 -3.73103 -3.7162 0
M  V30 2877 H 291.323 -2.94697 -2.36563 0
M  V30 2878 H 291.636 -6.39817 -4.33421 0
M  V30 2879 H 289.981 -5.75015 -3.90362 0
M  V30 2880 H 293.172 -3.70252 -2.8641 0
M  V30 2881 H 293.345 -5.27617 -3.76197 0
M  V30 2882 N 286.751 1.08385 -1.14413 0
M  V30 2883 C 287.999 1.80419 -0.910679 0
M  V30 2884 C 288.32 1.86658 0.564243 0
M  V30 2885 O 287.59 1.35985 1.41014 0
M  V30 2886 H 286.17 0.668204 -0.333934 0
M  V30 2887 H 288.832 1.31037 -1.44275 0
M  V30 2888 H 287.928 2.83238 -1.31082 0
M  V30 2889 N 288.23 0.939286 1.26551 0
M  V30 2890 C 289.193 0.451987 2.24699 0
M  V30 2891 C 290.193 -0.435869 1.5478 0
M  V30 2892 O 291.383 -0.235314 1.72603 0
M  V30 2893 C 288.515 -0.348801 3.39111 0
M  V30 2894 H 289.708 1.3193 2.69322 0
M  V30 2895 H 287.261 0.721072 1.38673 0
M  V30 2896 H 287.996 -1.23444 2.99887 0
M  V30 2897 H 287.781 0.287945 3.91041 0
M  V30 2898 H 289.271 -0.679726 4.12031 0
M  V30 2899 N 289.708 -1.40897 0.706093 0
M  V30 2900 C 290.618 -2.3455 0.0482286 0
M  V30 2901 C 291.634 -1.56796 -0.754396 0
M  V30 2902 O 292.81 -1.89228 -0.689538 0
M  V30 2903 C 289.875 -3.35625 -0.869303 0
M  V30 2904 C 288.936 -4.29261 -0.0576994 0
M  V30 2905 C 288.169 -5.25508 -0.931531 0
M  V30 2906 O 288.392 -5.27472 -2.17092 0
M  V30 2907 O 287.326 -6.00727 -0.375587 0
M  V30 2908 H 291.152 -2.92407 0.820476 0
M  V30 2909 H 288.737 -1.4193 0.4665 0
M  V30 2910 H 290.619 -3.97635 -1.39514 0
M  V30 2911 H 289.294 -2.80196 -1.62086 0
M  V30 2912 H 288.201 -3.70566 0.512988 0
M  V30 2913 H 289.534 -4.87817 0.655426 0
M  V30 2914 N 291.186 -0.45159 -1.50991 0
M  V30 2915 C 292.411 0.110667 -2.07105 0
M  V30 2916 C 292.836 1.3446 -1.31538 0
M  V30 2917 O 292.194 1.77743 -0.357365 0
M  V30 2918 C 292.242 0.397238 -3.58405 0
M  V30 2919 O 291.346 1.48124 -3.84881 0
M  V30 2920 H 290.687 -0.00439271 -0.663985 0
M  V30 2921 H 293.217 -0.637026 -1.9443 0
M  V30 2922 H 293.227 0.64351 -4.02893 0
M  V30 2923 H 291.902 -0.504553 -4.12828 0
M  V30 2924 H 290.479 1.22381 -3.52246 0
M  V30 2925 N 292.664 1.56529 -0.183458 0
M  V30 2926 C 293.574 2.22144 0.754272 0
M  V30 2927 C 294.59 1.21684 1.24374 0
M  V30 2928 O 295.766 1.54385 1.29333 0
M  V30 2929 C 292.831 2.85884 1.96141 0
M  V30 2930 C 291.892 4.01579 1.51765 0
M  V30 2931 C 291.125 4.6227 2.66725 0
M  V30 2932 O 291.348 4.21865 3.83909 0
M  V30 2933 O 290.282 5.51936 2.40104 0
M  V30 2934 H 294.108 3.02861 0.225527 0
M  V30 2935 H 291.693 1.49331 0.0453032 0
M  V30 2936 H 293.575 3.26253 2.66715 0
M  V30 2937 H 292.25 2.08154 2.47899 0
M  V30 2938 H 291.157 3.65856 0.781049 0
M  V30 2939 H 292.49 4.80938 1.04686 0
M  V30 2940 N 294.142 -0.090211 1.57342 0
M  V30 2941 C 295.388 -0.788838 1.8748 0
M  V30 2942 C 295.743 -1.76105 0.7749 0
M  V30 2943 O 295.036 -1.90302 -0.222663 0
M  V30 2944 C 295.23 -1.55222 3.21933 0
M  V30 2945 C 295.059 -0.655441 4.44898 0
M  V30 2946 C 293.829 -0.299325 5.04413 0
M  V30 2947 C 296.027 0.0397458 5.14285 0
M  V30 2948 N 294.009 0.605108 6.10911 0
M  V30 2949 C 295.38 0.802061 6.1479 0
M  V30 2950 C 297.435 0.113154 4.97771 0
M  V30 2951 C 296.138 1.63093 7.00566 0
M  V30 2952 C 298.164 0.928942 5.84059 0
M  V30 2953 C 297.526 1.67936 6.84088 0
M  V30 2954 H 293.625 -0.26467 0.735849 0
M  V30 2955 H 296.209 -0.0511453 1.94633 0
M  V30 2956 H 294.38 -2.26076 3.15823 0
M  V30 2957 H 296.112 -2.19843 3.39781 0
M  V30 2958 H 292.867 -0.648079 4.69145 0
M  V30 2959 H 293.291 1.05002 6.68808 0
M  V30 2960 H 297.933 -0.452676 4.2037 0
M  V30 2961 H 295.651 2.20781 7.77355 0
M  V30 2962 H 299.237 0.988478 5.73341 0
M  V30 2963 H 298.117 2.30044 7.49699 0
M  V30 2964 N 295.62 -1.53406 -0.361157 0
M  V30 2965 C 296.848 -1.73717 -1.12383 0
M  V30 2966 C 297.263 -0.468161 -1.82904 0
M  V30 2967 O 296.62 0.559198 -1.73722 0
M  V30 2968 C 296.671 -2.90558 -2.15078 0
M  V30 2969 O 296.392 -4.12549 -1.47428 0
M  V30 2970 C 297.893 -3.22777 -3.03858 0
M  V30 2971 H 295.113 -0.580896 -0.335858 0
M  V30 2972 H 297.657 -2.00167 -0.418728 0
M  V30 2973 H 295.812 -2.66489 -2.8118 0
M  V30 2974 H 296.226 -4.78009 -2.15887 0
M  V30 2975 H 297.7 -4.07927 -3.71887 0
M  V30 2976 H 298.177 -2.38329 -3.68912 0
M  V30 2977 H 298.783 -3.48787 -2.43367 0
M  V30 2978 N 297.098 0.621204 -1.44841 0
M  V30 2979 C 298.344 1.38073 -1.49357 0
M  V30 2980 C 298.699 1.91973 -0.128115 0
M  V30 2981 O 297.992 1.71311 0.858087 0
M  V30 2982 C 298.186 2.55675 -2.4973 0
M  V30 2983 C 298.015 2.13289 -3.95901 0
M  V30 2984 C 296.785 2.001 -4.63991 0
M  V30 2985 C 298.983 1.7159 -4.84831 0
M  V30 2986 N 296.965 1.51381 -5.94943 0
M  V30 2987 C 298.336 1.34188 -6.05304 0
M  V30 2988 C 300.391 1.59059 -4.7181 0
M  V30 2989 C 299.094 0.855085 -7.14199 0
M  V30 2990 C 301.12 1.11784 -5.8074 0
M  V30 2991 C 300.482 0.753385 -7.0036 0
M  V30 2992 H 296.581 0.499675 -0.601539 0
M  V30 2993 H 299.165 0.711609 -1.8123 0
M  V30 2994 H 297.336 3.20201 -2.19832 0
M  V30 2995 H 299.068 3.22509 -2.4448 0
M  V30 2996 H 295.823 2.20863 -4.18947 0
M  V30 2997 H 296.247 1.29293 -6.64539 0
M  V30 2998 H 300.889 1.85865 -3.79755 0
M  V30 2999 H 298.607 0.574552 -8.06055 0
M  V30 3000 H 302.193 1.02533 -5.72694 0
M  V30 3001 H 301.073 0.393183 -7.83214 0
M  V30 3002 N 298.576 1.31904 0.862503 0
M  V30 3003 C 299.526 1.16772 1.95827 0
M  V30 3004 C 300.51 0.0767098 1.60717 0
M  V30 3005 O 301.702 0.302407 1.74398 0
M  V30 3006 C 298.831 0.884858 3.317 0
M  V30 3007 C 297.917 2.0172 3.73055 0
M  V30 3008 N 298.308 3.265 3.86305 0
M  V30 3009 C 296.606 1.91861 4.02623 0
M  V30 3010 C 297.307 4.00616 4.2176 0
M  V30 3011 N 296.283 3.28847 4.32852 0
M  V30 3012 H 300.085 2.11382 2.04193 0
M  V30 3013 H 297.599 1.2357 1.05377 0
M  V30 3014 H 299.596 0.757419 4.09962 0
M  V30 3015 H 298.256 -0.0529448 3.24657 0
M  V30 3016 H 299.267 3.61529 3.70833 0
M  V30 3017 H 295.944 1.05593 4.03926 0
M  V30 3018 H 297.334 5.08182 4.39546 0
M  V30 3019 N 300.054 -1.07777 1.14986 0
M  V30 3020 C 301.302 -1.79934 0.920235 0
M  V30 3021 C 301.623 -1.86955 -0.554336 0
M  V30 3022 O 300.893 -1.36731 -1.40291 0
M  V30 3023 H 299.473 -0.666424 0.337473 0
M  V30 3024 H 302.135 -1.3027 1.44968 0
M  V30 3025 H 301.231 -2.82539 1.32583 0
M  V30 3026 N 301.532 -0.945985 -1.26051 0
M  V30 3027 C 302.442 -0.465633 -2.29933 0
M  V30 3028 C 303.458 0.462761 -1.67733 0
M  V30 3029 O 304.634 0.341118 -1.9849 0
M  V30 3030 C 301.699 0.256994 -3.45746 0
M  V30 3031 C 300.76 -0.708549 -4.23412 0
M  V30 3032 C 299.993 -0.0203135 -5.33696 0
M  V30 3033 O 300.216 1.19571 -5.57726 0
M  V30 3034 O 299.15 -0.701459 -5.97799 0
M  V30 3035 H 302.976 -1.32866 -2.73094 0
M  V30 3036 H 300.561 -0.712071 -1.31339 0
M  V30 3037 H 302.443 0.663852 -4.16138 0
M  V30 3038 H 301.118 1.09533 -3.04605 0
M  V30 3039 H 300.025 -1.16545 -3.55483 0
M  V30 3040 H 301.358 -1.51465 -4.68315 0
M  V30 3041 N 303.011 1.40521 -0.713556 0
M  V30 3042 C 304.239 2.05237 -0.261775 0
M  V30 3043 C 304.654 1.53755 1.09567 0
M  V30 3044 O 304.011 0.693268 1.6882 0
M  V30 3045 C 304.062 3.60763 -0.230706 0
M  V30 3046 O 303.783 4.10345 -1.53455 0
M  V30 3047 C 305.284 4.42651 0.239874 0
M  V30 3048 H 302.504 0.660533 -0.118057 0
M  V30 3049 H 305.048 1.79967 -0.971192 0
M  V30 3050 H 303.203 3.8501 0.429661 0
M  V30 3051 H 303.617 5.04526 -1.43366 0
M  V30 3052 H 305.091 5.51599 0.210468 0
M  V30 3053 H 305.568 4.20082 1.28171 0
M  V30 3054 H 306.174 4.23507 -0.390142 0
M  V30 3055 N 304.489 0.459591 1.5075 0
M  V30 3056 C 305.399 -0.34613 2.32033 0
M  V30 3057 C 306.415 -1.00686 1.41909 0
M  V30 3058 O 307.591 -0.997361 1.7497 0
M  V30 3059 C 304.656 -1.42029 3.16273 0
M  V30 3060 C 303.717 -0.777362 4.22203 0
M  V30 3061 C 302.95 -1.80034 5.02418 0
M  V30 3062 O 303.173 -3.02544 4.83553 0
M  V30 3063 O 302.107 -1.37853 5.85901 0
M  V30 3064 H 305.933 0.318054 3.0203 0
M  V30 3065 H 303.518 0.221663 1.47746 0
M  V30 3066 H 305.4 -2.04275 3.68578 0
M  V30 3067 H 304.075 -2.06815 2.49016 0
M  V30 3068 H 302.982 -0.116256 3.73919 0
M  V30 3069 H 304.315 -0.172634 4.91897 0
M  V30 3070 N 305.967 -1.56429 0.191757 0
M  V30 3071 C 307.215 -1.97095 -0.447006 0
M  V30 3072 C 307.536 -1.07967 -1.62383 0
M  V30 3073 O 306.806 -0.150248 -1.95323 0
M  V30 3074 H 305.386 -0.727832 -0.168135 0
M  V30 3075 H 308.048 -1.92911 0.27771 0
M  V30 3076 H 307.144 -3.01848 -0.793371 0
M  V30 3077 N 307.445 0.0818655 -1.57387 0
M  V30 3078 C 308.392 1.09834 -2.0299 0
M  V30 3079 C 309.362 1.39043 -0.908639 0
M  V30 3080 O 310.547 1.50282 -1.17559 0
M  V30 3081 C 307.687 2.40971 -2.47037 0
M  V30 3082 C 306.8 2.18379 -3.7274 0
M  V30 3083 C 305.935 3.43008 -4.0561 0
M  V30 3084 C 304.974 3.15736 -5.24383 0
M  V30 3085 N 304.111 4.32667 -5.52941 0
M  V30 3086 H 308.951 0.702472 -2.89602 0
M  V30 3087 H 306.488 0.33531 -1.43227 0
M  V30 3088 H 308.446 3.1752 -2.70623 0
M  V30 3089 H 307.076 2.78379 -1.63417 0
M  V30 3090 H 306.128 1.32569 -3.56552 0
M  V30 3091 H 307.44 1.94227 -4.59431 0
M  V30 3092 H 306.594 4.27958 -4.30043 0
M  V30 3093 H 305.333 3.70225 -3.17466 0
M  V30 3094 H 304.338 2.2918 -4.99757 0
M  V30 3095 H 305.563 2.8985 -6.14136 0
M  V30 3096 H 303.509 4.59935 -4.67756 0
M  V30 3097 H 303.426 4.11753 -6.34031 0
M  V30 3098 H 304.694 5.18644 -5.81918 0
M  V30 3099 N 308.923 1.53595 0.353017 0
M  V30 3100 C 309.886 1.80232 1.41594 0
M  V30 3101 C 310.886 0.673081 1.46035 0
M  V30 3102 O 312.076 0.941335 1.46576 0
M  V30 3103 C 309.208 1.93578 2.80607 0
M  V30 3104 H 310.401 2.75174 1.19244 0
M  V30 3105 H 307.954 1.44864 0.586872 0
M  V30 3106 H 308.689 1.00746 3.08254 0
M  V30 3107 H 308.474 2.75724 2.78781 0
M  V30 3108 H 309.964 2.15735 3.57558 0
M  V30 3109 N 310.401 -0.613514 1.45168 0
M  V30 3110 C 311.649 -1.36997 1.48581 0
M  V30 3111 C 311.97 -1.94589 0.126545 0
M  V30 3112 O 311.24 -1.76816 -0.843372 0
M  V30 3113 H 309.82 -0.508558 0.547154 0
M  V30 3114 H 312.482 -0.720853 1.81079 0
M  V30 3115 H 311.578 -2.1924 2.22127 0
M  V30 3116 N 311.879 -1.3236 -0.855495 0
M  V30 3117 C 312.842 -1.21164 -1.94556 0
M  V30 3118 C 313.842 -0.134908 -1.60233 0
M  V30 3119 O 315.032 -0.385249 -1.69887 0
M  V30 3120 C 312.164 -0.863192 -3.29791 0
M  V30 3121 H 313.357 -2.18038 -2.05911 0
M  V30 3122 H 310.91 -1.16179 -1.04557 0
M  V30 3123 H 311.645 0.103769 -3.24134 0
M  V30 3124 H 311.43 -1.64166 -3.56078 0
M  V30 3125 H 312.92 -0.809156 -4.09686 0
M  V30 3126 N 313.357 1.07166 -1.15556 0
M  V30 3127 C 314.603 1.80065 -0.932984 0
M  V30 3128 C 314.936 1.86586 0.53845 0
M  V30 3129 O 314.211 1.35098 1.39924 0
M  V30 3130 C 314.494 3.25022 -1.55025 0
M  V30 3131 C 314.347 3.26634 -3.09242 0
M  V30 3132 C 315.666 4.22341 -1.2376 0
M  V30 3133 H 312.785 0.653697 -0.340366 0
M  V30 3134 H 315.427 1.25389 -1.4275 0
M  V30 3135 H 313.577 3.71712 -1.12972 0
M  V30 3136 H 315.249 2.88173 -3.60214 0
M  V30 3137 H 313.492 2.65539 -3.43033 0
M  V30 3138 H 314.163 4.28854 -3.47546 0
M  V30 3139 H 316.639 3.8405 -1.60139 0
M  V30 3140 H 315.515 5.22053 -1.69564 0
M  V30 3141 H 315.776 4.41828 -0.154938 0
M  V30 3142 N 314.835 0.952656 1.25548 0
M  V30 3143 C 316.083 0.605176 1.92826 0
M  V30 3144 C 316.404 -0.860261 1.74999 0
M  V30 3145 O 315.674 -1.6125 1.11244 0
M  V30 3146 H 314.254 0.220832 0.713612 0
M  V30 3147 H 316.916 1.21047 1.52754 0
M  V30 3148 H 316.012 0.832798 3.00784 0
M  V30 3149 N 316.313 -1.40141 0.720998 0
M  V30 3150 C 317.724 -1.83678 0.334553 0
M  V30 3151 C 318.075 -1.6027 -1.13173 0
M  V30 3152 O 317.2 -1.08643 -1.87152 0
M  V30 3153 C 317.795 -3.33437 0.600437 0
M  V30 3154 C 316.354 -3.75447 0.267642 0
M  V30 3155 C 315.501 -2.63296 0.870097 0
M  V30 3156 H 318.452 -1.29331 0.919732 0
M  V30 3157 H 318.473 -3.80269 -0.132517 0
M  V30 3158 H 317.985 -3.50442 1.66768 0
M  V30 3159 H 316.086 -3.64035 -0.794329 0
M  V30 3160 H 316.199 -4.73344 0.74042 0
M  V30 3161 H 314.563 -2.52954 0.297739 0
M  V30 3162 H 315.346 -2.83112 1.94172 0
M  V30 3163 N 317.792 -0.46758 -1.50504 0
M  V30 3164 C 318.739 0.328413 -2.28452 0
M  V30 3165 C 319.709 0.990313 -1.33349 0
M  V30 3166 O 320.894 1.00343 -1.62284 0
M  V30 3167 C 318.034 1.40648 -3.15138 0
M  V30 3168 C 317.147 0.759709 -4.25267 0
M  V30 3169 C 316.282 1.81537 -4.99217 0
M  V30 3170 C 315.321 1.14866 -6.01226 0
M  V30 3171 N 314.458 2.14702 -6.68467 0
M  V30 3172 H 319.298 -0.342603 -2.96024 0
M  V30 3173 H 316.835 -0.180801 -1.45985 0
M  V30 3174 H 318.793 2.04315 -3.63746 0
M  V30 3175 H 317.423 2.04671 -2.49619 0
M  V30 3176 H 316.475 0.0105671 -3.80399 0
M  V30 3177 H 317.787 0.233243 -4.98254 0
M  V30 3178 H 316.941 2.52793 -5.51526 0
M  V30 3179 H 315.68 2.37564 -4.25928 0
M  V30 3180 H 314.685 0.42171 -5.4818 0
M  V30 3181 H 315.91 0.595334 -6.76485 0
M  V30 3182 H 313.856 2.69752 -5.97972 0
M  V30 3183 H 313.773 1.6703 -7.37317 0
M  V30 3184 H 315.041 2.85348 -7.25394 0
M  V30 3185 N 319.27 1.56325 -0.20005 0
M  V30 3186 C 320.233 2.18084 0.705132 0
M  V30 3187 C 321.233 1.13666 1.1374 0
M  V30 3188 O 322.423 1.39023 1.04968 0
M  V30 3189 C 319.555 2.78689 1.96329 0
M  V30 3190 H 320.748 2.99435 0.167023 0
M  V30 3191 H 318.301 1.56221 0.0495725 0
M  V30 3192 H 319.036 2.0115 2.5438 0
M  V30 3193 H 318.821 3.55133 1.66202 0
M  V30 3194 H 320.311 3.26096 2.60866 0
M  V30 3195 N 320.748 -0.0735177 1.57428 0
M  V30 3196 C 321.711 -1.07192 2.02589 0
M  V30 3197 C 322.711 -1.31695 0.922661 0
M  V30 3198 O 323.901 -1.27445 1.18758 0
M  V30 3199 C 321.033 -2.41599 2.40506 0
M  V30 3200 H 322.226 -0.682727 2.92025 0
M  V30 3201 H 319.779 -0.319193 1.53006 0
M  V30 3202 H 320.514 -2.85354 1.5409 0
M  V30 3203 H 320.299 -2.25156 3.21009 0
M  V30 3204 H 321.789 -3.13367 2.76027 0
M  V30 3205 N 322.226 -1.5378 -0.344866 0
M  V30 3206 C 323.474 -1.70625 -1.08311 0
M  V30 3207 C 323.795 -0.471447 -1.89215 0
M  V30 3208 O 323.065 0.514616 -1.8902 0
M  V30 3209 H 321.645 -0.629058 -0.402859 0
M  V30 3210 H 324.307 -1.9103 -0.386459 0
M  V30 3211 H 323.403 -2.57656 -1.76124 0
M  V30 3212 N 323.704 0.605807 -1.45491 0
M  V30 3213 C 324.981 1.36522 -1.40075 0
M  V30 3214 C 325.361 2.10976 -0.0722744 0
M  V30 3215 O 324.709 2.08007 0.945808 0
M  V30 3216 C 324.919 2.31056 -2.61561 0
M  V30 3217 C 326.267 2.93608 -3.06724 0
M  V30 3218 O 327.291 2.41376 -2.61946 0
M  V30 3219 O 326.15 3.88421 -3.84437 0
M  V30 3220 H 323.244 0.612248 -0.555951 0
M  V30 3221 H 325.79 0.628747 -1.57623 0
M  V30 3222 H 324.562 1.75311 -3.49831 0
M  V30 3223 H 324.185 3.12081 -2.46356 0
M  V30 3224 N 325.182 1.32811 0.848464 0
M  V30 3225 C 326.13 1.22231 1.97895 0
M  V30 3226 C 327.124 0.125749 1.68933 0
M  V30 3227 O 328.33 0.289083 1.77663 0
M  V30 3228 H 324.705 0.379058 0.649476 0
M  V30 3229 H 326.676 2.17828 2.03945 0
M  V30 3230 C 325.425 0.968572 3.33937 0
M  V30 3231 H 324.748 1.80458 3.56756 0
M  V30 3232 H 326.188 0.934808 4.13567 0
M  V30 3233 C 324.647 -0.328628 3.35293 0
M  V30 3234 O 325.177 -1.33848 3.78745 0
M  V30 3235 N 323.383 -0.352788 2.88451 0
M  V30 3236 H 322.93 0.469541 2.53285 0
M  V30 3237 H 322.888 -1.22057 2.89741 0
M  V30 3238 N 326.66 -1.06551 1.16123 0
M  V30 3239 C 328.076 -1.3142 0.905585 0
M  V30 3240 C 328.276 -1.96571 -0.442964 0
M  V30 3241 O 327.332 -2.23068 -1.18308 0
M  V30 3242 C 328.645 -2.19741 2.05267 0
M  V30 3243 C 330.193 -2.33165 2.08813 0
M  V30 3244 C 330.668 -3.24838 3.22868 0
M  V30 3245 N 332.159 -3.32421 3.22568 0
M  V30 3246 C 332.894 -4.0344 4.0746 0
M  V30 3247 N 332.39 -4.77003 5.02434 0
M  V30 3248 N 334.183 -3.99464 3.95456 0
M  V30 3249 H 326.334 -0.626548 2.02949 0
M  V30 3250 H 328.597 -0.338777 0.8854 0
M  V30 3251 H 328.303 -1.79142 3.02657 0
M  V30 3252 H 328.177 -3.20313 1.99198 0
M  V30 3253 H 330.564 -2.73013 1.12018 0
M  V30 3254 H 330.645 -1.3227 2.18948 0
M  V30 3255 H 330.289 -2.85708 4.19921 0
M  V30 3256 H 330.219 -4.25707 3.0997 0
M  V30 3257 H 332.71 -2.79994 2.53795 0
M  V30 3258 H 333.023 -5.28712 5.63634 0
M  V30 3259 H 331.368 -4.75992 5.06415 0
M  V30 3260 H 334.559 -3.4111 3.20564 0
M  V30 3261 H 334.732 -4.54544 4.61837 0
M  V30 3262 N 328.138 -0.959301 -1.25041 0
M  V30 3263 C 329.048 -0.489994 -2.29426 0
M  V30 3264 C 330.064 0.444944 -1.68215 0
M  V30 3265 O 331.24 0.320046 -1.98841 0
M  V30 3266 C 328.305 0.220309 -3.45999 0
M  V30 3267 C 327.366 -0.753418 -4.22637 0
M  V30 3268 C 326.599 -0.076918 -5.33645 0
M  V30 3269 O 326.822 1.13649 -5.58963 0
M  V30 3270 O 325.756 -0.764824 -5.97021 0
M  V30 3271 H 329.582 -1.35755 -2.71669 0
M  V30 3272 H 327.167 -0.725961 -1.30576 0
M  V30 3273 H 329.049 0.619677 -4.16819 0
M  V30 3274 H 327.724 1.06296 -3.0575 0
M  V30 3275 H 326.631 -1.20308 -3.54227 0
M  V30 3276 H 327.964 -1.56423 -4.66683 0
M  V30 3277 N 329.616 1.39756 -0.72842 0
M  V30 3278 C 330.549 2.28176 -0.0330172 0
M  V30 3279 C 331.527 1.44035 0.754501 0
M  V30 3280 O 332.711 1.73434 0.738445 0
M  V30 3281 C 329.838 3.24795 0.960504 0
M  V30 3282 C 328.884 4.25693 0.262264 0
M  V30 3283 S 329.717 5.25714 -1.01906 0
M  V30 3284 C 330.873 6.25894 -0.0279717 0
M  V30 3285 H 331.106 2.86807 -0.78287 0
M  V30 3286 H 328.639 1.45382 -0.519951 0
M  V30 3287 H 330.597 3.80983 1.52846 0
M  V30 3288 H 329.258 2.65196 1.68315 0
M  V30 3289 H 328.451 4.93699 1.01379 0
M  V30 3290 H 328.053 3.7327 -0.233482 0
M  V30 3291 H 330.345 6.72585 0.814621 0
M  V30 3292 H 331.288 7.04876 -0.67499 0
M  V30 3293 H 331.696 5.63466 0.341489 0
M  V30 3294 N 331.094 0.475555 1.50254 0
M  V30 3295 C 332.004 -0.321501 2.32387 0
M  V30 3296 C 333.02 -0.991755 1.42969 0
M  V30 3297 O 334.196 -0.978747 1.76018 0
M  V30 3298 C 331.261 -1.38667 3.17762 0
M  V30 3299 C 330.322 -0.732538 4.23004 0
M  V30 3300 C 329.555 -1.74695 5.04299 0
M  V30 3301 O 329.778 -2.97399 4.86734 0
M  V30 3302 O 328.712 -1.31631 5.8733 0
M  V30 3303 H 332.538 0.350071 3.01676 0
M  V30 3304 H 330.123 0.237321 1.47503 0
M  V30 3305 H 332.005 -2.00354 3.70724 0
M  V30 3306 H 330.68 -2.04163 2.51196 0
M  V30 3307 H 329.587 -0.0765902 3.74022 0
M  V30 3308 H 330.92 -0.120452 4.92053 0
M  V30 3309 N 332.573 -1.56217 0.208337 0
M  V30 3310 C 333.505 -2.1695 -0.739276 0
M  V30 3311 C 334.518 -1.13492 -1.1672 0
M  V30 3312 O 335.707 -1.40529 -1.10063 0
M  V30 3313 C 332.807 -2.72755 -2.01142 0
M  V30 3314 C 331.98 -4.0125 -1.74118 0
M  V30 3315 C 331.039 -4.41749 -2.85909 0
M  V30 3316 O 330.065 -5.08912 -2.54946 0
M  V30 3317 N 331.267 -4.06342 -4.14568 0
M  V30 3318 H 334.032 -2.98893 -0.219837 0
M  V30 3319 H 331.593 -1.61878 0.0268445 0
M  V30 3320 H 333.585 -2.96826 -2.75094 0
M  V30 3321 H 332.155 -1.95191 -2.4417 0
M  V30 3322 H 331.375 -3.85173 -0.838775 0
M  V30 3323 H 332.663 -4.851 -1.53477 0
M  V30 3324 H 332.061 -3.52345 -4.42571 0
M  V30 3325 H 330.618 -4.35335 -4.85105 0
M  V30 3326 N 334.051 0.0651679 -1.57465 0
M  V30 3327 C 335.299 0.761555 -1.87202 0
M  V30 3328 C 335.62 1.77778 -0.801243 0
M  V30 3329 O 334.89 1.95166 0.16937 0
M  V30 3330 H 333.47 0.284251 -0.690804 0
M  V30 3331 H 336.132 0.0396827 -1.9486 0
M  V30 3332 H 335.228 1.27365 -2.84929 0
M  V30 3333 N 335.529 1.53961 0.336706 0
M  V30 3334 C 336.775 1.7179 1.07777 0
M  V30 3335 C 337.108 0.483263 1.88091 0
M  V30 3336 O 336.383 -0.519747 1.87427 0
M  V30 3337 C 336.666 2.98558 2.01334 0
M  V30 3338 C 336.519 4.32245 1.24437 0
M  V30 3339 C 337.838 3.21023 3.01052 0
M  V30 3340 H 334.957 0.625089 0.390426 0
M  V30 3341 H 337.599 1.86641 0.35567 0
M  V30 3342 H 335.749 2.86028 2.62908 0
M  V30 3343 H 337.421 4.56637 0.654243 0
M  V30 3344 H 335.664 4.30344 0.546458 0
M  V30 3345 H 336.335 5.17137 1.93063 0
M  V30 3346 H 338.811 3.32929 2.49595 0
M  V30 3347 H 337.687 4.11104 3.6371 0
M  V30 3348 H 337.948 2.37637 3.72802 0
M  V30 3349 N 337.007 -0.598083 1.45811 0
M  V30 3350 C 338.423 -0.919847 1.30426 0
M  V30 3351 C 338.623 -1.99759 0.264303 0
M  V30 3352 O 337.679 -2.50221 -0.338472 0
M  V30 3353 C 338.992 -1.35176 2.68603 0
M  V30 3354 C 340.54 -1.46546 2.76574 0
M  V30 3355 C 341.015 -1.9311 4.15298 0
M  V30 3356 N 342.506 -2.00328 4.1764 0
M  V30 3357 C 343.241 -2.37599 5.21856 0
M  V30 3358 N 342.737 -2.73771 6.36413 0
M  V30 3359 N 344.53 -2.38021 5.09218 0
M  V30 3360 H 336.681 0.114111 2.12093 0
M  V30 3361 H 338.944 -0.0116121 0.947929 0
M  V30 3362 H 338.65 -0.633969 3.45939 0
M  V30 3363 H 338.524 -2.3164 2.97696 0
M  V30 3364 H 340.911 -2.17415 1.99537 0
M  V30 3365 H 340.992 -0.483727 2.51185 0
M  V30 3366 H 340.636 -1.22824 4.92825 0
M  V30 3367 H 340.566 -2.92213 4.38086 0
M  V30 3368 H 343.057 -1.74925 3.34977 0
M  V30 3369 H 343.37 -3.0112 7.11721 0
M  V30 3370 H 341.715 -2.71445 6.39799 0
M  V30 3371 H 344.906 -2.09174 4.18765 0
M  V30 3372 H 345.079 -2.66741 5.90554 0
M  V30 3373 N 338.485 -1.33259 -0.841409 0
M  V30 3374 C 339.395 -1.25332 -1.98316 0
M  V30 3375 C 340.411 -0.164364 -1.73222 0
M  V30 3376 O 341.587 -0.387486 -1.97637 0
M  V30 3377 C 338.652 -0.990078 -3.32262 0
M  V30 3378 C 337.713 -2.16879 -3.70489 0
M  V30 3379 C 336.946 -1.91801 -4.98044 0
M  V30 3380 O 337.169 -0.867075 -5.63771 0
M  V30 3381 O 336.103 -2.78267 -5.33714 0
M  V30 3382 H 339.929 -2.21344 -2.07944 0
M  V30 3383 H 337.514 -1.1328 -0.974058 0
M  V30 3384 H 339.396 -0.860321 -4.12524 0
M  V30 3385 H 338.071 -0.0602155 -3.23644 0
M  V30 3386 H 336.978 -2.35407 -2.90748 0
M  V30 3387 H 338.311 -3.0819 -3.8377 0
M  V30 3388 N 339.963 1.05934 -1.16686 0
M  V30 3389 C 340.926 2.11669 -0.879144 0
M  V30 3390 C 341.926 1.60294 0.127445 0
M  V30 3391 O 343.116 1.7389 -0.103865 0
M  V30 3392 C 340.248 3.39438 -0.315425 0
M  V30 3393 H 341.441 2.38626 -1.81653 0
M  V30 3394 H 338.994 1.22058 -0.976299 0
M  V30 3395 H 339.729 3.18132 0.629468 0
M  V30 3396 H 339.514 3.78034 -1.04079 0
M  V30 3397 H 341.004 4.17391 -0.132189 0
M  V30 3398 N 341.441 0.965919 1.2453 0
M  V30 3399 C 342.718 0.543777 1.87889 0
M  V30 3400 C 343.098 -0.97909 1.87021 0
M  V30 3401 O 342.446 -1.84969 1.3416 0
M  V30 3402 C 342.656 1.13327 3.30088 0
M  V30 3403 C 344.004 1.21707 4.06783 0
M  V30 3404 O 345.028 1.08566 3.39252 0
M  V30 3405 O 343.887 1.42456 5.27606 0
M  V30 3406 H 340.981 0.181054 0.806938 0
M  V30 3407 H 343.527 1.06007 1.32516 0
M  V30 3408 H 342.299 2.17612 3.25209 0
M  V30 3409 H 341.922 0.600911 3.93033 0
M  V30 3410 N 342.919 -1.39368 0.735821 0
M  V30 3411 C 343.882 -2.2896 0.104874 0
M  V30 3412 C 344.882 -1.46347 -0.666274 0
M  V30 3413 O 346.072 -1.67014 -0.49517 0
M  V30 3414 C 343.204 -3.29857 -0.860656 0
M  V30 3415 H 344.397 -2.86259 0.894205 0
M  V30 3416 H 341.95 -1.48029 0.501704 0
M  V30 3417 H 342.685 -2.77615 -1.67631 0
M  V30 3418 H 342.47 -3.9087 -0.310327 0
M  V30 3419 H 343.96 -3.96893 -1.29867 0
M  V30 3420 N 344.397 -0.483516 -1.5 0
M  V30 3421 C 345.645 0.067027 -2.01989 0
M  V30 3422 C 345.966 1.3909 -1.36671 0
M  V30 3423 O 345.236 1.88978 -0.516152 0
M  V30 3424 H 343.816 0.0277606 -0.746484 0
M  V30 3425 H 346.478 -0.636773 -1.84204 0
M  V30 3426 H 345.574 0.209484 -3.11396 0
M  V30 3427 N 345.875 1.56104 -0.216619 0
M  V30 3428 C 346.785 2.23694 0.706982 0
M  V30 3429 C 347.801 1.24295 1.21765 0
M  V30 3430 O 348.977 1.57094 1.2603 0
M  V30 3431 C 346.042 2.8998 1.90033 0
M  V30 3432 C 345.103 4.04708 1.43213 0
M  V30 3433 C 344.336 4.67824 2.56859 0
M  V30 3434 O 344.559 4.29913 3.74874 0
M  V30 3435 O 343.493 5.56905 2.28343 0
M  V30 3436 H 347.319 3.03272 0.161235 0
M  V30 3437 H 344.904 1.49394 0.0136177 0
M  V30 3438 H 346.786 3.31837 2.59735 0
M  V30 3439 H 345.461 2.13365 2.43428 0
M  V30 3440 H 344.368 3.6743 0.70327 0
M  V30 3441 H 345.701 4.83051 0.944615 0
M  V30 3442 N 347.353 -0.0568162 1.57498 0
M  V30 3443 C 348.581 -0.765626 1.92213 0
M  V30 3444 C 348.996 -1.70353 0.813961 0
M  V30 3445 O 348.353 -1.81268 -0.211701 0
M  V30 3446 C 348.404 -1.5465 3.2675 0
M  V30 3447 O 348.125 -0.646278 4.33307 0
M  V30 3448 C 349.626 -2.35497 3.75574 0
M  V30 3449 H 346.846 -0.216835 0.634999 0
M  V30 3450 H 349.39 -0.0226146 2.04487 0
M  V30 3451 H 347.545 -2.24165 3.15957 0
M  V30 3452 H 347.959 -1.19093 5.108 0
M  V30 3453 H 349.433 -2.85722 4.72299 0
M  V30 3454 H 349.91 -3.15692 3.05344 0
M  V30 3455 H 350.516 -1.7111 3.8936 0
M  V30 3456 N 348.832 -1.54138 -0.328536 0
M  V30 3457 C 349.742 -1.86192 -1.42723 0
M  V30 3458 C 350.758 -0.753382 -1.56844 0
M  V30 3459 O 351.934 -1.04718 -1.72035 0
M  V30 3460 C 348.999 -2.07824 -2.77507 0
M  V30 3461 C 348.06 -3.31641 -2.72603 0
M  V30 3462 C 347.293 -3.52232 -4.00959 0
M  V30 3463 O 347.516 -2.7636 -4.9898 0
M  V30 3464 O 346.45 -4.45699 -4.0452 0
M  V30 3465 H 350.276 -2.79608 -1.18547 0
M  V30 3466 H 347.861 -1.3998 -0.522104 0
M  V30 3467 H 349.743 -2.23411 -3.57303 0
M  V30 3468 H 348.418 -1.17596 -3.01584 0
M  V30 3469 H 347.325 -3.21444 -1.91376 0
M  V30 3470 H 348.658 -4.2191 -2.53481 0
M  V30 3471 N 350.31 0.590341 -1.46126 0
M  V30 3472 C 351.22 1.72793 -1.58681 0
M  V30 3473 C 352.236 1.67516 -0.470566 0
M  V30 3474 O 353.412 1.87562 -0.733642 0
M  V30 3475 C 350.477 3.09287 -1.5666 0
M  V30 3476 C 349.538 3.25886 -2.79458 0
M  V30 3477 C 348.771 4.55869 -2.77524 0
M  V30 3478 O 348.994 5.3928 -1.85832 0
M  V30 3479 O 347.928 4.75552 -3.68964 0
M  V30 3480 H 351.754 1.65149 -2.54872 0
M  V30 3481 H 349.339 0.756486 -1.28832 0
M  V30 3482 H 351.221 3.90577 -1.58202 0
M  V30 3483 H 349.896 3.17385 -0.636271 0
M  V30 3484 H 348.803 2.44119 -2.83472 0
M  V30 3485 H 350.136 3.22675 -3.71674 0
M  V30 3486 N 351.788 1.33704 0.83433 0
M  V30 3487 C 353.199 1.22813 1.4062 0
M  V30 3488 C 353.55 -0.151107 1.95617 0
M  V30 3489 O 352.675 -1.05092 1.89168 0
M  V30 3490 C 353.27 2.22355 2.55624 0
M  V30 3491 C 351.829 2.1529 3.08751 0
M  V30 3492 C 350.976 2.09589 1.8157 0
M  V30 3493 H 353.927 1.45236 0.639702 0
M  V30 3494 H 353.948 1.83391 3.33389 0
M  V30 3495 H 353.46 3.22728 2.15566 0
M  V30 3496 H 351.561 1.18235 3.53343 0
M  V30 3497 H 351.674 3.06038 3.68616 0
M  V30 3498 H 350.038 1.55134 2.02004 0
M  V30 3499 H 350.821 3.11777 1.43701 0
M  V30 3500 N 353.266 -1.05314 1.17247 0
M  V30 3501 C 354.514 -1.77941 0.958194 0
M  V30 3502 C 354.835 -1.88089 -0.514556 0
M  V30 3503 O 354.105 -1.39676 -1.37359 0
M  V30 3504 H 352.685 -0.659116 0.351533 0
M  V30 3505 H 355.347 -1.27166 1.47699 0
M  V30 3506 H 354.443 -2.79663 1.38546 0
M  V30 3507 N 354.744 -0.972509 -1.24016 0
M  V30 3508 C 355.707 -0.511403 -2.23422 0
M  V30 3509 C 356.707 0.394679 -1.55881 0
M  V30 3510 O 357.897 0.189469 -1.73167 0
M  V30 3511 C 355.029 0.258769 -3.39916 0
M  V30 3512 H 356.222 -1.39024 -2.6573 0
M  V30 3513 H 353.775 -0.757585 -1.36713 0
M  V30 3514 H 354.51 1.1545 -3.03054 0
M  V30 3515 H 354.295 -0.391522 -3.9014 0
M  V30 3516 H 355.785 0.570244 -4.13688 0
M  V30 3517 N 356.222 1.38976 -0.743202 0
M  V30 3518 C 357.132 2.3434 -0.110399 0
M  V30 3519 C 358.148 1.58741 0.712559 0
M  V30 3520 O 359.324 1.9099 0.639125 0
M  V30 3521 C 356.389 3.37812 0.780012 0
M  V30 3522 C 355.45 4.29263 -0.0561319 0
M  V30 3523 C 354.683 5.27793 0.791875 0
M  V30 3524 O 354.906 5.33043 2.03031 0
M  V30 3525 O 353.84 6.01512 0.216183 0
M  V30 3526 H 357.666 2.90129 -0.897714 0
M  V30 3527 H 355.251 1.40643 -0.503966 0
M  V30 3528 H 357.133 4.01194 1.28923 0
M  V30 3529 H 355.808 2.84395 1.546 0
M  V30 3530 H 354.715 3.69076 -0.611056 0
M  V30 3531 H 356.048 4.85907 -0.784531 0
M  V30 3532 N 357.7 0.491464 1.49741 0
M  V30 3533 C 358.948 -0.0563141 2.02022 0
M  V30 3534 C 359.269 -1.38363 1.37407 0
M  V30 3535 O 358.539 -1.88702 0.526166 0
M  V30 3536 H 357.119 -0.0238014 0.746621 0
M  V30 3537 H 359.781 0.646533 1.83864 0
M  V30 3538 H 358.877 -0.192967 3.11503 0
M  V30 3539 N 359.178 -1.55987 0.224894 0
M  V30 3540 C 360.141 -2.19178 -0.670348 0
M  V30 3541 C 361.141 -1.15461 -1.11917 0
M  V30 3542 O 362.331 -1.40675 -1.02743 0
M  V30 3543 C 359.463 -2.81777 -1.9187 0
M  V30 3544 H 360.656 -2.99662 -0.119364 0
M  V30 3545 H 358.209 -1.5628 -0.0247128 0
M  V30 3546 H 358.944 -2.05172 -2.51147 0
M  V30 3547 H 358.729 -3.57732 -1.60531 0
M  V30 3548 H 360.219 -3.30205 -2.55645 0
M  V30 3549 N 360.656 0.0484629 -1.57525 0
M  V30 3550 C 361.904 0.741657 -1.88 0
M  V30 3551 C 362.225 1.76918 -0.820054 0
M  V30 3552 O 361.495 1.95335 0.148661 0
M  V30 3553 H 360.075 0.276908 -0.69378 0
M  V30 3554 H 362.737 0.019013 -1.94891 0
M  V30 3555 H 361.833 1.24336 -2.86264 0
M  V30 3556 N 362.134 1.5431 0.320358 0
M  V30 3557 C 363.081 1.83918 1.39438 0
M  V30 3558 C 364.051 0.686525 1.51248 0
M  V30 3559 O 365.236 0.933269 1.66417 0
M  V30 3560 C 362.376 2.075 2.75749 0
M  V30 3561 C 361.489 3.35177 2.72544 0
M  V30 3562 C 360.624 3.48704 4.00723 0
M  V30 3563 C 359.663 4.70244 3.91838 0
M  V30 3564 N 358.8 4.80679 5.11754 0
M  V30 3565 H 363.64 2.75544 1.13489 0
M  V30 3566 H 361.177 1.36459 0.549309 0
M  V30 3567 H 363.135 2.19166 3.54996 0
M  V30 3568 H 361.765 1.19163 3 0
M  V30 3569 H 360.817 3.32233 1.85271 0
M  V30 3570 H 362.129 4.24534 2.61863 0
M  V30 3571 H 361.283 3.59928 4.88402 0
M  V30 3572 H 360.022 2.57445 4.14214 0
M  V30 3573 H 359.027 4.59072 3.02544 0
M  V30 3574 H 360.252 5.6289 3.7991 0
M  V30 3575 H 358.198 3.92337 5.25745 0
M  V30 3576 H 358.115 5.64007 5.0342 0
M  V30 3577 H 359.383 4.96239 6.01138 0
M  V30 3578 N 363.613 -0.582584 1.46437 0
M  V30 3579 C 364.861 -1.33814 1.51453 0
M  V30 3580 C 365.182 -1.94277 0.167792 0
M  V30 3581 O 364.452 -1.78566 -0.805677 0
M  V30 3582 H 363.032 -0.496838 0.557818 0
M  V30 3583 H 365.694 -0.682281 1.82568 0
M  V30 3584 H 364.79 -2.14479 2.26728 0
M  V30 3585 N 365.091 -1.34144 -0.827227 0
M  V30 3586 C 366.001 -1.27428 -1.96975 0
M  V30 3587 C 367.017 -0.182728 -1.73038 0
M  V30 3588 O 368.193 -0.408426 -1.97215 0
M  V30 3589 C 365.258 -1.02526 -3.31194 0
M  V30 3590 C 364.319 -2.20796 -3.68168 0
M  V30 3591 C 363.552 -1.97073 -4.95982 0
M  V30 3592 O 363.775 -0.926822 -5.6282 0
M  V30 3593 O 362.709 -2.83912 -5.30733 0
M  V30 3594 H 366.535 -2.23537 -2.05584 0
M  V30 3595 H 364.12 -1.14307 -0.961989 0
M  V30 3596 H 366.002 -0.904026 -4.11589 0
M  V30 3597 H 364.677 -0.0945389 -3.23562 0
M  V30 3598 H 363.584 -2.38477 -2.88235 0
M  V30 3599 H 364.917 -3.12243 -3.8048 0
M  V30 3600 N 366.569 1.04691 -1.17803 0
M  V30 3601 C 367.479 2.16057 -0.914151 0
M  V30 3602 C 368.495 1.73589 0.119503 0
M  V30 3603 O 369.671 2.01308 -0.0609468 0
M  V30 3604 C 366.736 3.4394 -0.436603 0
M  V30 3605 C 365.797 4.00825 -1.53746 0
M  V30 3606 C 365.03 5.22604 -1.0826 0
M  V30 3607 O 365.253 5.70367 0.0612244 0
M  V30 3608 O 364.187 5.7186 -1.87775 0
M  V30 3609 H 368.013 2.41169 -1.84584 0
M  V30 3610 H 365.598 1.1453 -0.959334 0
M  V30 3611 H 367.48 4.21024 -0.178057 0
M  V30 3612 H 366.155 3.20316 0.466869 0
M  V30 3613 H 365.062 3.25158 -1.84995 0
M  V30 3614 H 366.395 4.28778 -2.41683 0
M  V30 3615 N 368.047 0.979072 1.23499 0
M  V30 3616 C 369.293 0.648178 1.92163 0
M  V30 3617 C 369.626 -0.816049 1.76222 0
M  V30 3618 O 368.901 -1.58849 1.12237 0
M  V30 3619 C 369.184 1.03773 3.44824 0
M  V30 3620 C 369.037 2.55948 3.69879 0
M  V30 3621 C 370.356 0.580653 4.36253 0
M  V30 3622 H 367.475 0.236952 0.69787 0
M  V30 3623 H 370.117 1.22012 1.45647 0
M  V30 3624 H 368.267 0.551058 3.84572 0
M  V30 3625 H 369.939 3.12179 3.3962 0
M  V30 3626 H 368.182 2.98641 3.14636 0
M  V30 3627 H 368.853 2.78255 4.76737 0
M  V30 3628 H 371.329 0.998465 4.03943 0
M  V30 3629 H 370.205 0.881663 5.41773 0
M  V30 3630 H 370.466 -0.519052 4.39042 0
M  V30 3631 N 369.525 -1.3858 0.750561 0
M  V30 3632 C 370.771 -2.00481 0.305825 0
M  V30 3633 C 371.104 -1.5944 -1.10872 0
M  V30 3634 O 370.379 -0.83052 -1.75877 0
M  V30 3635 C 370.662 -3.5758 0.425287 0
M  V30 3636 C 370.515 -4.08594 1.88072 0
M  V30 3637 C 371.834 -4.39719 -0.183122 0
M  V30 3638 H 368.953 -0.728348 0.112598 0
M  V30 3639 H 371.595 -1.64566 0.949638 0
M  V30 3640 H 369.745 -3.88306 -0.122828 0
M  V30 3641 H 371.417 -3.88523 2.48691 0
M  V30 3642 H 369.66 -3.61574 2.39681 0
M  V30 3643 H 370.331 -5.177 1.91548 0
M  V30 3644 H 372.807 -4.15128 0.284303 0
M  V30 3645 H 371.683 -5.48856 -0.0692757 0
M  V30 3646 H 371.944 -4.23434 -1.27106 0
M  V30 3647 N 371.003 -0.499398 -1.49478 0
M  V30 3648 C 372.249 0.0457576 -2.02748 0
M  V30 3649 C 372.582 1.36793 -1.37846 0
M  V30 3650 O 371.857 1.87596 -0.513601 0
M  V30 3651 C 372.14 0.199986 -3.59544 0
M  V30 3652 C 371.993 -1.1452 -4.34977 0
M  V30 3653 C 373.312 0.94137 -4.29914 0
M  V30 3654 H 370.431 0.0151552 -0.736844 0
M  V30 3655 H 373.073 -0.650498 -1.78518 0
M  V30 3656 H 371.223 0.793007 -3.8032 0
M  V30 3657 H 372.895 -1.77697 -4.25701 0
M  V30 3658 H 371.138 -1.73488 -3.97598 0
M  V30 3659 H 371.809 -0.990607 -5.43039 0
M  V30 3660 H 374.285 0.43844 -4.13784 0
M  V30 3661 H 373.161 1.01812 -5.39375 0
M  V30 3662 H 373.422 1.98471 -3.95046 0
M  V30 3663 N 372.481 1.55866 -0.233164 0
M  V30 3664 C 373.727 1.98897 0.395959 0
M  V30 3665 C 374.06 1.12091 1.58585 0
M  V30 3666 O 373.335 0.181182 1.93654 0
M  V30 3667 C 373.618 3.50658 0.819224 0
M  V30 3668 C 373.471 4.48233 -0.375109 0
M  V30 3669 C 374.79 4.07135 1.67121 0
M  V30 3670 H 371.909 0.723102 0.142451 0
M  V30 3671 H 374.551 1.87082 -0.331725 0
M  V30 3672 H 372.701 3.60857 1.43925 0
M  V30 3673 H 374.373 4.50031 -1.01341 0
M  V30 3674 H 372.616 4.21624 -1.02058 0
M  V30 3675 H 373.287 5.51988 -0.0358328 0
M  V30 3676 H 375.763 3.99952 1.14795 0
M  V30 3677 H 374.639 5.13615 1.93625 0
M  V30 3678 H 374.9 3.54736 2.63846 0
M  V30 3679 N 373.959 -0.0401083 1.57549 0
M  V30 3680 C 374.869 -1.06133 2.0922 0
M  V30 3681 C 375.885 -1.40356 1.0284 0
M  V30 3682 O 377.061 -1.49897 1.34509 0
M  V30 3683 C 374.126 -2.34658 2.55218 0
M  V30 3684 C 373.187 -2.07117 3.76033 0
M  V30 3685 C 372.42 -3.29514 4.19829 0
M  V30 3686 O 372.643 -4.39794 3.63232 0
M  V30 3687 O 371.577 -3.15863 5.12362 0
M  V30 3688 H 375.403 -0.652244 2.96613 0
M  V30 3689 H 372.988 -0.256368 1.47184 0
M  V30 3690 H 374.87 -3.10239 2.85184 0
M  V30 3691 H 373.545 -2.74883 1.70941 0
M  V30 3692 H 372.452 -1.29139 3.51104 0
M  V30 3693 H 373.785 -1.71754 4.61261 0
M  V30 3694 N 375.437 -1.54477 -0.31217 0
M  V30 3695 C 376.384 -1.84655 -1.38461 0
M  V30 3696 C 377.354 -0.694536 -1.50882 0
M  V30 3697 O 378.539 -0.942081 -1.6592 0
M  V30 3698 C 375.679 -2.0896 -2.74645 0
M  V30 3699 C 374.792 -3.36618 -2.70763 0
M  V30 3700 C 373.927 -3.50824 -3.98868 0
M  V30 3701 C 372.966 -4.72315 -3.89339 0
M  V30 3702 N 372.103 -4.83387 -5.09197 0
M  V30 3703 H 376.943 -2.76142 -1.12026 0
M  V30 3704 H 374.48 -1.36748 -0.542065 0
M  V30 3705 H 376.438 -2.21045 -3.53829 0
M  V30 3706 H 375.068 -1.20752 -2.99364 0
M  V30 3707 H 374.12 -3.33211 -1.83506 0
M  V30 3708 H 375.432 -4.25917 -2.59608 0
M  V30 3709 H 374.586 -3.62513 -4.86486 0
M  V30 3710 H 373.325 -2.59638 -4.12843 0
M  V30 3711 H 372.33 -4.6067 -3.00105 0
M  V30 3712 H 373.555 -5.64897 -3.76919 0
M  V30 3713 H 371.501 -3.9512 -5.23657 0
M  V30 3714 H 371.418 -5.66669 -5.00422 0
M  V30 3715 H 372.686 -4.9942 -5.98498 0
M  V30 3716 N 376.915 0.57481 -1.46744 0
M  V30 3717 C 377.878 1.66533 -1.57478 0
M  V30 3718 C 378.878 1.54338 -0.451263 0
M  V30 3719 O 380.068 1.58814 -0.715813 0
M  V30 3720 C 377.2 3.05999 -1.50259 0
M  V30 3721 H 378.393 1.58372 -2.54673 0
M  V30 3722 H 375.946 0.793301 -1.34672 0
M  V30 3723 H 376.681 3.19709 -0.543725 0
M  V30 3724 H 376.466 3.16259 -2.31781 0
M  V30 3725 H 377.956 3.8537 -1.60872 0
M  V30 3726 N 378.394 1.34581 0.820102 0
M  V30 3727 C 379.634 1.28448 1.58998 0
M  V30 3728 C 379.998 -0.142883 1.91468 0
M  V30 3729 O 381.199 -0.328422 2.66786 0
M  V30 3730 C 379.47 2.153 2.85273 0
M  V30 3731 S 381.029 2.26548 3.75794 0
M  V30 3732 H 377.847 0.456685 0.54494 0
M  V30 3733 H 380.449 1.69825 0.968487 0
M  V30 3734 H 379.153 3.18008 2.59421 0
M  V30 3735 H 378.684 1.7483 3.52417 0
M  V30 3736 H 380.699 1.44034 4.74835 0
M  V30 3737 N 379.872 -1.04064 1.18357 0
M  V30 3738 C 380.782 -2.15569 0.925596 0
M  V30 3739 C 381.798 -1.7365 -0.110295 0
M  V30 3740 O 382.974 -2.01273 0.0716218 0
M  V30 3741 C 380.039 -3.43704 0.454836 0
M  V30 3742 C 379.1 -4.00004 1.55869 0
M  V30 3743 C 378.333 -5.22023 1.1103 0
M  V30 3744 O 378.556 -5.70392 -0.0309756 0
M  V30 3745 O 377.49 -5.70856 1.90805 0
M  V30 3746 H 381.316 -2.40187 1.8586 0
M  V30 3747 H 378.901 -1.1402 0.965394 0
M  V30 3748 H 380.783 -4.20923 0.200382 0
M  V30 3749 H 379.458 -3.20559 -0.449876 0
M  V30 3750 H 378.365 -3.24172 1.86716 0
M  V30 3751 H 379.698 -4.2749 2.43953 0
M  V30 3752 N 381.35 -0.985608 -1.22978 0
M  V30 3753 C 382.575 -0.675254 -1.961 0
M  V30 3754 C 383 0.752154 -1.72407 0
M  V30 3755 O 382.358 1.5131 -0.998751 0
M  V30 3756 C 382.406 -0.977899 -3.47087 0
M  V30 3757 O 381.51 -0.072685 -4.12336 0
M  V30 3758 H 380.851 -0.253443 -0.613728 0
M  V30 3759 H 383.381 -1.32061 -1.56272 0
M  V30 3760 H 383.391 -0.916739 -3.97567 0
M  V30 3761 H 382.066 -2.01807 -3.63657 0
M  V30 3762 H 380.643 -0.188703 -3.72422 0
M  V30 3763 N 382.828 1.3818 -0.7579 0
M  V30 3764 C 384.056 2.04301 -0.326937 0
M  V30 3765 C 384.471 1.57163 1.0462 0
M  V30 3766 O 383.828 0.746626 1.66529 0
M  V30 3767 C 383.879 3.59846 -0.345363 0
M  V30 3768 O 383.6 4.05256 -1.66432 0
M  V30 3769 C 385.101 4.4319 0.098927 0
M  V30 3770 H 382.321 0.656443 -0.139012 0
M  V30 3771 H 384.865 1.76786 -1.02796 0
M  V30 3772 H 383.02 3.86182 0.306955 0
M  V30 3773 H 383.434 4.99709 -1.59345 0
M  V30 3774 H 384.908 5.51989 0.0348745 0
M  V30 3775 H 385.385 4.23947 1.14741 0
M  V30 3776 H 385.991 4.22051 -0.52468 0
M  V30 3777 N 384.306 0.507319 1.49211 0
M  V30 3778 C 385.722 0.163682 1.58758 0
M  V30 3779 C 385.922 -1.33208 1.51188 0
M  V30 3780 O 384.978 -2.10855 1.38911 0
M  V30 3781 C 386.291 0.746095 2.91297 0
M  V30 3782 C 387.839 0.712773 3.04776 0
M  V30 3783 C 388.314 1.27336 4.39943 0
M  V30 3784 N 389.805 1.23433 4.46451 0
M  V30 3785 C 390.54 1.63821 5.495 0
M  V30 3786 N 390.036 2.11832 6.5962 0
M  V30 3787 N 391.829 1.55198 5.4025 0
M  V30 3788 H 383.98 1.47972 1.52375 0
M  V30 3789 H 386.243 0.614147 0.722168 0
M  V30 3790 H 385.949 1.79534 3.02424 0
M  V30 3791 H 385.823 0.210137 3.76614 0
M  V30 3792 H 388.21 -0.327656 2.93275 0
M  V30 3793 H 388.291 1.28595 2.21127 0
M  V30 3794 H 387.935 2.3126 4.52196 0
M  V30 3795 H 387.865 0.676066 5.22242 0
M  V30 3796 H 390.356 0.882627 3.67448 0
M  V30 3797 H 390.669 2.40703 7.34358 0
M  V30 3798 H 389.014 2.1581 6.60644 0
M  V30 3799 H 392.205 1.17505 4.53112 0
M  V30 3800 H 392.378 1.86997 6.20432 0
M  V30 3801 N 385.784 -1.5574 0.241426 0
M  V30 3802 C 386.747 -2.19877 -0.647063 0
M  V30 3803 C 387.747 -1.16642 -1.10686 0
M  V30 3804 O 388.937 -1.41757 -1.01245 0
M  V30 3805 C 386.069 -2.83797 -1.88871 0
M  V30 3806 H 387.262 -2.99772 -0.087574 0
M  V30 3807 H 384.815 -1.56298 -0.00813574 0
M  V30 3808 H 385.55 -2.07824 -2.48957 0
M  V30 3809 H 385.335 -3.59414 -1.56728 0
M  V30 3810 H 386.825 -3.32898 -2.52129 0
M  V30 3811 N 387.262 0.0317525 -1.57568 0
M  V30 3812 C 388.508 0.718712 -1.90279 0
M  V30 3813 C 388.863 1.73108 -0.839727 0
M  V30 3814 O 388.156 1.90997 0.15188 0
M  V30 3815 C 388.35 1.43167 -3.27472 0
M  V30 3816 C 388.179 0.489869 -4.47024 0
M  V30 3817 C 386.949 0.111909 -5.05176 0
M  V30 3818 C 389.147 -0.230592 -5.13783 0
M  V30 3819 N 387.129 -0.831427 -6.08244 0
M  V30 3820 C 388.5 -1.02968 -6.1139 0
M  V30 3821 C 390.555 -0.297821 -4.97008 0
M  V30 3822 C 389.258 -1.88982 -6.9403 0
M  V30 3823 C 391.284 -1.14507 -5.80209 0
M  V30 3824 C 390.646 -1.9321 -6.77384 0
M  V30 3825 H 386.745 0.237177 -0.745165 0
M  V30 3826 H 389.329 -0.0211267 -1.94689 0
M  V30 3827 H 387.5 2.14199 -3.23996 0
M  V30 3828 H 389.232 2.0708 -3.47707 0
M  V30 3829 H 385.987 0.473513 -4.71227 0
M  V30 3830 H 386.411 -1.29752 -6.6445 0
M  V30 3831 H 391.053 0.296346 -4.2176 0
M  V30 3832 H 388.771 -2.4948 -7.68626 0
M  V30 3833 H 392.357 -1.20059 -5.69278 0
M  V30 3834 H 391.237 -2.57711 -7.40645 0
M  V30 3835 N 388.74 1.54641 0.303973 0
M  V30 3836 C 389.988 1.73437 1.0375 0
M  V30 3837 C 390.309 0.521449 1.87899 0
M  V30 3838 O 389.579 -0.46432 1.90318 0
M  V30 3839 H 388.159 0.639518 0.386039 0
M  V30 3840 H 390.821 1.91988 0.335675 0
M  V30 3841 H 389.917 2.62235 1.69231 0
M  V30 3842 N 390.218 -0.567019 1.47046 0
M  V30 3843 C 391.446 -1.35027 1.56765 0
M  V30 3844 C 391.861 -1.8758 0.214316 0
M  V30 3845 O 391.218 -1.64471 -0.790919 0
M  V30 3846 C 391.269 -2.52698 2.58507 0
M  V30 3847 O 390.99 -2.0232 3.88585 0
M  V30 3848 C 392.491 -3.45043 2.78316 0
M  V30 3849 H 389.711 -0.41195 0.529658 0
M  V30 3850 H 392.255 -0.687832 1.92585 0
M  V30 3851 H 390.41 -3.149 2.25648 0
M  V30 3852 H 390.824 -2.79068 4.44096 0
M  V30 3853 H 392.298 -4.2405 3.53391 0
M  V30 3854 H 392.775 -3.97971 1.85784 0
M  V30 3855 H 393.381 -2.88665 3.12334 0
M  V30 3856 N 391.696 -1.35014 -0.812953 0
M  V30 3857 C 392.942 -1.29129 -1.57154 0
M  V30 3858 C 393.297 0.134922 -1.91926 0
M  V30 3859 O 392.59 1.08373 -1.58006 0
M  V30 3860 C 392.784 -2.12524 -2.87347 0
M  V30 3861 C 392.613 -3.6311 -2.65294 0
M  V30 3862 C 391.383 -4.32363 -2.61516 0
M  V30 3863 C 393.581 -4.56897 -2.36114 0
M  V30 3864 N 391.563 -5.68735 -2.31113 0
M  V30 3865 C 392.934 -5.81345 -2.15494 0
M  V30 3866 C 394.989 -4.45706 -2.21925 0
M  V30 3867 C 393.692 -6.95862 -1.82122 0
M  V30 3868 C 395.718 -5.60066 -1.89948 0
M  V30 3869 C 395.08 -6.83539 -1.7016 0
M  V30 3870 H 391.179 -0.527764 -0.577052 0
M  V30 3871 H 393.763 -1.6983 -0.952146 0
M  V30 3872 H 391.934 -1.74104 -3.47192 0
M  V30 3873 H 393.666 -1.98207 -3.5284 0
M  V30 3874 H 390.421 -3.84907 -2.75941 0
M  V30 3875 H 390.845 -6.40694 -2.18724 0
M  V30 3876 H 395.487 -3.50855 -2.35925 0
M  V30 3877 H 393.205 -7.90685 -1.6686 0
M  V30 3878 H 396.791 -5.53357 -1.79687 0
M  V30 3879 H 395.671 -7.70531 -1.45777 0
M  V30 3880 N 393.175 1.03435 -1.18907 0
M  V30 3881 C 394.423 1.76394 -0.986382 0
M  V30 3882 C 394.744 1.88883 0.484567 0
M  V30 3883 O 394.014 1.41843 1.3512 0
M  V30 3884 H 392.594 0.65344 -0.361975 0
M  V30 3885 H 395.256 1.248 -1.49703 0
M  V30 3886 H 394.352 2.77424 -1.42978 0
M  V30 3887 N 394.653 0.992116 1.22453 0
M  V30 3888 C 396.064 0.702776 1.72968 0
M  V30 3889 C 396.415 -0.780399 1.80012 0
M  V30 3890 O 395.54 -1.61007 1.44589 0
M  V30 3891 C 396.135 1.26903 3.14135 0
M  V30 3892 C 394.694 1.02909 3.62059 0
M  V30 3893 C 393.841 1.38969 2.39964 0
M  V30 3894 H 396.792 1.16457 1.07812 0
M  V30 3895 H 396.813 0.647223 3.74955 0
M  V30 3896 H 396.325 2.34851 3.08977 0
M  V30 3897 H 394.426 -0.0337979 3.72585 0
M  V30 3898 H 394.539 1.69191 4.48231 0
M  V30 3899 H 392.903 0.808279 2.41535 0
M  V30 3900 H 393.686 2.4792 2.37467 0
M  V30 3901 N 396.131 -1.37776 0.765217 0
M  V30 3902 C 397.379 -1.99454 0.325943 0
M  V30 3903 C 397.7 -1.61049 -1.09947 0
M  V30 3904 O 396.97 -0.872821 -1.75381 0
M  V30 3905 H 395.55 -0.737697 0.117525 0
M  V30 3906 H 398.212 -1.68359 0.981895 0
M  V30 3907 H 397.308 -3.09547 0.398353 0
M  V30 3908 N 397.609 -0.515225 -1.4894 0
M  V30 3909 C 398.572 0.244681 -2.2789 0
M  V30 3910 C 399.572 0.881166 -1.34507 0
M  V30 3911 O 400.762 0.743497 -1.57537 0
M  V30 3912 C 397.894 1.35247 -3.12923 0
M  V30 3913 H 399.087 -0.448289 -2.96531 0
M  V30 3914 H 396.64 -0.270656 -1.53939 0
M  V30 3915 H 397.375 2.07916 -2.48881 0
M  V30 3916 H 397.16 0.901374 -3.81599 0
M  V30 3917 H 398.65 1.88737 -3.72516 0
M  V30 3918 N 399.087 1.5561 -0.249682 0
M  V30 3919 C 399.997 2.25143 0.659375 0
M  V30 3920 C 401.013 1.2685 1.19101 0
M  V30 3921 O 402.189 1.59732 1.22669 0
M  V30 3922 C 399.254 2.93945 1.8384 0
M  V30 3923 C 398.315 4.07655 1.34596 0
M  V30 3924 C 397.548 4.73167 2.46878 0
M  V30 3925 O 397.771 4.37768 3.65671 0
M  V30 3926 O 396.705 5.61623 2.16478 0
M  V30 3927 H 400.531 3.03545 0.0968698 0
M  V30 3928 H 398.116 1.49389 -0.018074 0
M  V30 3929 H 399.998 3.37271 2.52638 0
M  V30 3930 H 398.673 2.18481 2.38847 0
M  V30 3931 H 397.58 3.68839 0.625174 0
M  V30 3932 H 398.913 4.84946 0.841941 0
M  V30 3933 N 400.565 -0.0233959 1.57583 0
M  V30 3934 C 401.976 -0.56927 1.77809 0
M  V30 3935 C 402.327 -1.75284 0.881472 0
M  V30 3936 O 401.452 -2.1626 0.0777805 0
M  V30 3937 C 402.047 -1.03949 3.22459 0
M  V30 3938 C 400.606 -1.53084 3.43864 0
M  V30 3939 C 399.753 -0.471454 2.73263 0
M  V30 3940 H 402.704 0.202825 1.57399 0
M  V30 3941 H 402.725 -1.90661 3.29285 0
M  V30 3942 H 402.237 -0.177865 3.87692 0
M  V30 3943 H 400.338 -2.41414 2.83814 0
M  V30 3944 H 400.451 -1.57443 4.52491 0
M  V30 3945 H 398.815 -0.927788 2.37201 0
M  V30 3946 H 399.598 0.380808 3.41181 0
M  V30 3947 N 402.043 -1.548 -0.295768 0
M  V30 3948 C 402.953 -1.89177 -1.38742 0
M  V30 3949 C 403.969 -0.786481 -1.55211 0
M  V30 3950 O 405.145 -1.08344 -1.69775 0
M  V30 3951 C 402.21 -2.13663 -2.73036 0
M  V30 3952 C 401.271 -3.37349 -2.65508 0
M  V30 3953 C 400.504 -3.60658 -3.93398 0
M  V30 3954 O 400.727 -2.86882 -4.93006 0
M  V30 3955 O 399.661 -4.54179 -3.94975 0
M  V30 3956 H 403.487 -2.82059 -1.12589 0
M  V30 3957 H 401.072 -1.41056 -0.492295 0
M  V30 3958 H 402.954 -2.3094 -3.52484 0
M  V30 3959 H 401.629 -1.23967 -2.99022 0
M  V30 3960 H 400.536 -3.25431 -1.84514 0
M  V30 3961 H 401.869 -4.27192 -2.44474 0
M  V30 3962 N 403.521 0.559213 -1.47345 0
M  V30 3963 C 404.798 1.31997 -1.44348 0
M  V30 3964 C 405.178 2.1064 -0.139358 0
M  V30 3965 O 404.526 2.1091 0.879153 0
M  V30 3966 C 404.736 2.22618 -2.68779 0
M  V30 3967 C 406.084 2.83701 -3.1591 0
M  V30 3968 O 407.108 2.32921 -2.69493 0
M  V30 3969 O 405.967 3.75993 -3.966 0
M  V30 3970 H 403.061 0.594251 -0.575147 0
M  V30 3971 H 405.607 0.578282 -1.59543 0
M  V30 3972 H 404.379 1.64093 -3.55231 0
M  V30 3973 H 404.002 3.04085 -2.5616 0
M  V30 3974 N 404.999 1.35443 0.805782 0
M  V30 3975 C 406.245 1.2996 1.56467 0
M  V30 3976 C 406.6 -0.124742 1.91995 0
M  V30 3977 O 405.893 -1.07533 1.58579 0
M  V30 3978 C 406.087 2.14045 2.86216 0
M  V30 3979 C 405.916 3.64512 2.63365 0
M  V30 3980 C 404.686 4.33744 2.59219 0
M  V30 3981 C 406.884 4.58142 2.33688 0
M  V30 3982 N 404.866 5.69953 2.28094 0
M  V30 3983 C 406.237 5.8248 2.12408 0
M  V30 3984 C 408.292 4.46877 2.19558 0
M  V30 3985 C 406.995 6.96818 1.78429 0
M  V30 3986 C 409.021 5.61065 1.86976 0
M  V30 3987 C 408.383 6.84431 1.66532 0
M  V30 3988 H 404.482 0.530817 0.574245 0
M  V30 3989 H 407.066 1.70333 0.943126 0
M  V30 3990 H 405.237 1.75942 3.46264 0
M  V30 3991 H 406.969 2.00075 3.51784 0
M  V30 3992 H 403.724 3.86365 2.73896 0
M  V30 3993 H 404.148 6.41845 2.15323 0
M  V30 3994 H 408.79 3.52102 2.34061 0
M  V30 3995 H 406.508 7.91559 1.62664 0
M  V30 3996 H 410.094 5.54302 1.7675 0
M  V30 3997 H 408.974 7.71294 1.41688 0
M  V30 3998 N 406.477 -1.02803 1.19454 0
M  V30 3999 C 407.725 -1.75869 0.995722 0
M  V30 4000 C 408.046 -1.89138 -0.474543 0
M  V30 4001 O 407.316 -1.42558 -1.34366 0
M  V30 4002 H 405.896 -0.651511 0.365435 0
M  V30 4003 H 408.558 -1.24004 1.50363 0
M  V30 4004 H 407.654 -2.76661 1.44447 0
M  V30 4005 N 407.956 -0.998596 -1.21925 0
M  V30 4006 C 409.205 -0.673085 -1.90138 0
M  V30 4007 C 409.518 0.79895 -1.78539 0
M  V30 4008 O 410.724 1.23628 -2.4172 0
M  V30 4009 C 409.18 -1.15339 -3.40918 0
M  V30 4010 C 408.788 -2.65106 -3.61141 0
M  V30 4011 C 410.532 -0.902476 -4.14796 0
M  V30 4012 C 408.439 -3.0671 -5.05651 0
M  V30 4013 H 407.369 -0.248057 -0.712028 0
M  V30 4014 H 410.02 -1.20891 -1.38049 0
M  V30 4015 H 408.402 -0.545658 -3.92223 0
M  V30 4016 H 409.576 -3.31274 -3.20304 0
M  V30 4017 H 407.891 -2.88142 -3.00605 0
M  V30 4018 H 410.488 -1.18895 -5.21314 0
M  V30 4019 H 410.831 0.161349 -4.15987 0
M  V30 4020 H 411.364 -1.47269 -3.69536 0
M  V30 4021 H 408.103 -4.12292 -5.09603 0
M  V30 4022 H 407.623 -2.45249 -5.47369 0
M  V30 4023 H 409.302 -2.9833 -5.74115 0
M  V30 4024 N 409.434 1.37368 -0.772513 0
M  V30 4025 C 410.364 2.32856 -0.173304 0
M  V30 4026 C 411.345 1.55818 0.682262 0
M  V30 4027 O 412.53 1.84052 0.619566 0
M  V30 4028 C 409.66 3.40048 0.706007 0
M  V30 4029 C 408.614 4.27973 -0.0483144 0
M  V30 4030 C 407.94 5.26184 0.950491 0
M  V30 4031 C 409.24 5.07665 -1.22776 0
M  V30 4032 H 410.934 2.83217 -0.971002 0
M  V30 4033 H 408.48 1.3617 -0.468377 0
M  V30 4034 H 410.433 4.05827 1.13501 0
M  V30 4035 H 409.157 2.88214 1.53623 0
M  V30 4036 H 407.816 3.63726 -0.458107 0
M  V30 4037 H 407.464 4.7063 1.77529 0
M  V30 4038 H 407.164 5.85872 0.450314 0
M  V30 4039 H 408.688 5.94838 1.37842 0
M  V30 4040 H 410.102 5.66578 -0.875366 0
M  V30 4041 H 408.499 5.76681 -1.66007 0
M  V30 4042 H 409.569 4.40294 -2.03149 0
M  V30 4043 N 410.912 0.523116 1.48665 0
M  V30 4044 C 412.16 -0.0134497 2.02096 0
M  V30 4045 C 412.481 -1.35418 1.40311 0
M  V30 4046 O 411.751 -1.87543 0.566074 0
M  V30 4047 H 410.331 -0.00795915 0.746958 0
M  V30 4048 H 412.993 0.685388 1.82451 0
M  V30 4049 H 412.089 -0.126849 3.11842 0
M  V30 4050 N 412.39 -1.55475 0.257931 0
M  V30 4051 C 413.806 -1.59307 -0.0966563 0
M  V30 4052 C 414.006 -1.27514 -1.5602 0
M  V30 4053 O 413.062 -1.02774 -2.30637 0
M  V30 4054 C 414.375 -2.99552 0.262481 0
M  V30 4055 C 415.923 -3.1231 0.207683 0
M  V30 4056 C 416.398 -4.54793 0.541012 0
M  V30 4057 N 417.889 -4.6058 0.491921 0
M  V30 4058 C 418.624 -5.68825 0.722857 0
M  V30 4059 N 418.12 -6.85287 1.0175 0
M  V30 4060 N 419.913 -5.58296 0.652815 0
M  V30 4061 H 412.064 -1.74409 1.21224 0
M  V30 4062 H 414.327 -0.812424 0.48854 0
M  V30 4063 H 414.033 -3.27593 1.27967 0
M  V30 4064 H 413.907 -3.75019 -0.40508 0
M  V30 4065 H 416.294 -2.84044 -0.800195 0
M  V30 4066 H 416.375 -2.39095 0.909255 0
M  V30 4067 H 416.019 -4.83783 1.5465 0
M  V30 4068 H 415.949 -5.26285 -0.18216 0
M  V30 4069 H 418.44 -3.7691 0.273366 0
M  V30 4070 H 418.753 -7.63725 1.18084 0
M  V30 4071 H 417.098 -6.86945 1.05509 0
M  V30 4072 H 420.289 -4.66189 0.422592 0
M  V30 4073 H 420.462 -6.42582 0.836182 0
M  V30 4074 N 413.868 0.0150385 -1.57593 0
M  V30 4075 C 414.778 1.02791 -2.10882 0
M  V30 4076 C 415.794 1.38702 -1.0506 0
M  V30 4077 O 416.97 1.47739 -1.36877 0
M  V30 4078 C 414.035 2.30568 -2.58919 0
M  V30 4079 C 413.096 2.01108 -3.79281 0
M  V30 4080 C 412.329 3.22794 -4.25018 0
M  V30 4081 O 412.552 4.33959 -3.70183 0
M  V30 4082 O 411.486 3.07672 -5.17322 0
M  V30 4083 H 415.312 0.604973 -2.97613 0
M  V30 4084 H 412.897 0.23292 -1.47573 0
M  V30 4085 H 414.779 3.05662 -2.90084 0
M  V30 4086 H 413.454 2.72129 -1.75293 0
M  V30 4087 H 412.361 1.23537 -3.53114 0
M  V30 4088 H 413.694 1.64394 -4.63935 0
M  V30 4089 N 415.346 1.54954 0.287554 0
M  V30 4090 C 416.256 1.8991 1.37736 0
M  V30 4091 C 417.272 0.794701 1.54792 0
M  V30 4092 O 418.448 1.09243 1.69198 0
M  V30 4093 C 415.513 2.15108 2.71899 0
M  V30 4094 C 414.574 3.38752 2.63715 0
M  V30 4095 C 413.807 3.62739 3.91479 0
M  V30 4096 O 414.03 2.89492 4.91478 0
M  V30 4097 O 412.964 4.56267 3.92561 0
M  V30 4098 H 416.79 2.82652 1.11092 0
M  V30 4099 H 414.375 1.41315 0.484807 0
M  V30 4100 H 416.257 2.32806 3.51254 0
M  V30 4101 H 414.932 1.25551 2.9836 0
M  V30 4102 H 413.839 3.26405 1.82786 0
M  V30 4103 H 415.172 4.28483 2.42205 0
M  V30 4104 N 416.824 -0.551391 1.4764 0
M  V30 4105 C 417.787 -1.64007 1.60107 0
M  V30 4106 C 418.787 -1.53601 0.47576 0
M  V30 4107 O 419.977 -1.57655 0.740988 0
M  V30 4108 C 417.109 -3.03569 1.55108 0
M  V30 4109 H 418.302 -1.543 2.57161 0
M  V30 4110 H 415.855 -0.771776 1.35917 0
M  V30 4111 H 416.59 -3.18804 0.594519 0
M  V30 4112 H 416.375 -3.12532 2.36783 0
M  V30 4113 H 417.865 -3.82762 1.66982 0
M  V30 4114 N 418.302 -1.35869 -0.798587 0
M  V30 4115 C 419.718 -1.16082 -1.09532 0
M  V30 4116 C 419.918 0.0213124 -2.01489 0
M  V30 4117 O 418.974 0.689488 -2.42904 0
M  V30 4118 C 420.287 -2.46748 -1.7186 0
M  V30 4119 C 421.835 -2.53028 -1.84244 0
M  V30 4120 C 422.31 -3.83758 -2.49988 0
M  V30 4121 N 423.801 -3.85053 -2.57465 0
M  V30 4122 C 424.536 -4.8294 -3.09122 0
M  V30 4123 N 424.032 -5.91217 -3.61157 0
M  V30 4124 N 425.825 -4.70369 -3.0775 0
M  V30 4125 H 417.976 -2.11571 -0.187461 0
M  V30 4126 H 420.239 -0.936726 -0.145765 0
M  V30 4127 H 419.945 -3.33471 -1.11759 0
M  V30 4128 H 419.819 -2.61883 -2.71472 0
M  V30 4129 H 422.206 -1.66729 -2.43486 0
M  V30 4130 H 422.287 -2.418 -0.834643 0
M  V30 4131 H 421.931 -4.70459 -1.91393 0
M  V30 4132 H 421.861 -3.92278 -3.5132 0
M  V30 4133 H 424.352 -3.06822 -2.20609 0
M  V30 4134 H 424.665 -6.61892 -3.98896 0
M  V30 4135 H 423.01 -5.94899 -3.59333 0
M  V30 4136 H 426.201 -3.84914 -2.66381 0
M  V30 4137 H 426.374 -5.46816 -3.47701 0
M  V30 4138 N 419.78 1.02168 -1.19998 0
M  V30 4139 C 421.008 1.79296 -1.03249 0
M  V30 4140 C 421.423 1.84103 0.418502 0
M  V30 4141 O 420.78 1.29031 1.29063 0
M  V30 4142 C 420.831 3.24007 -1.60319 0
M  V30 4143 O 420.552 3.19512 -2.99739 0
M  V30 4144 C 422.053 4.17704 -1.48453 0
M  V30 4145 H 419.273 0.564016 -0.363493 0
M  V30 4146 H 421.817 1.28639 -1.58973 0
M  V30 4147 H 419.972 3.7183 -1.08727 0
M  V30 4148 H 420.386 4.10306 -3.26725 0
M  V30 4149 H 421.86 5.17104 -1.93153 0
M  V30 4150 H 422.337 4.37029 -0.436193 0
M  V30 4151 H 422.943 3.7576 -1.99211 0
M  V30 4152 N 421.258 1.00505 1.21394 0
M  V30 4153 C 422.486 0.706609 1.9446 0
M  V30 4154 C 422.901 -0.73081 1.74082 0
M  V30 4155 O 422.258 -1.49446 1.04747 0
M  V30 4156 C 422.309 1.01824 3.46863 0
M  V30 4157 O 422.03 2.39919 3.66566 0
M  V30 4158 C 423.531 0.739216 4.37093 0
M  V30 4159 H 420.751 0.260394 0.618414 0
M  V30 4160 H 423.295 1.34311 1.54211 0
M  V30 4161 H 421.45 0.427343 3.85036 0
M  V30 4162 H 421.864 2.50784 4.6066 0
M  V30 4163 H 423.338 1.00744 5.42729 0
M  V30 4164 H 423.815 -0.326746 4.37983 0
M  V30 4165 H 424.421 1.31173 4.04566 0
M  V30 4166 N 422.737 -1.36956 0.779787 0
M  V30 4167 C 424.148 -1.82094 0.412156 0
M  V30 4168 C 424.499 -1.64926 -1.06273 0
M  V30 4169 O 423.624 -1.16483 -1.82375 0
M  V30 4170 C 424.219 -3.3059 0.741319 0
M  V30 4171 C 422.778 -3.73974 0.426641 0
M  V30 4172 C 421.925 -2.59368 0.980987 0
M  V30 4173 H 424.876 -1.25314 0.973758 0
M  V30 4174 H 424.897 -3.80489 0.028887 0
M  V30 4175 H 424.409 -3.43054 1.81482 0
M  V30 4176 H 422.51 -3.67076 -0.639215 0
M  V30 4177 H 422.623 -4.69778 0.940515 0
M  V30 4178 H 420.987 -2.51463 0.404757 0
M  V30 4179 H 421.77 -2.74621 2.06005 0
M  V30 4180 N 424.215 -0.530993 -1.48385 0
M  V30 4181 C 425.463 0.00273189 -2.021 0
M  V30 4182 C 425.784 1.34672 -1.41027 0
M  V30 4183 O 425.054 1.8724 -0.576012 0
M  V30 4184 H 423.634 0.00399774 -0.746989 0
M  V30 4185 H 426.296 -0.695054 -1.82085 0
M  V30 4186 H 425.392 0.11031 -3.11905 0
M  V30 4187 N 425.693 1.55336 -0.266172 0
M  V30 4188 C 427.109 1.59356 0.0882065 0
M  V30 4189 C 427.309 1.2834 1.55342 0
M  V30 4190 O 426.365 1.03996 2.30089 0
M  V30 4191 C 427.678 2.99409 -0.278364 0
M  V30 4192 C 429.226 3.12196 -0.224243 0
M  V30 4193 C 429.701 4.545 -0.565123 0
M  V30 4194 N 431.192 4.60313 -0.51634 0
M  V30 4195 C 431.927 5.68434 -0.753013 0
M  V30 4196 N 431.423 6.84738 -1.05383 0
M  V30 4197 N 433.216 5.57942 -0.682414 0
M  V30 4198 H 425.367 1.73764 -1.22147 0
M  V30 4199 H 427.63 0.809822 -0.492841 0
M  V30 4200 H 427.336 3.2691 -1.29703 0
M  V30 4201 H 427.21 3.75228 0.385186 0
M  V30 4202 H 429.597 2.84464 0.78512 0
M  V30 4203 H 429.678 2.38609 -0.921922 0
M  V30 4204 H 429.322 4.82956 -1.57213 0
M  V30 4205 H 429.252 5.26374 0.154248 0
M  V30 4206 H 431.743 3.7676 -0.29335 0
M  V30 4207 H 432.056 7.63088 -1.22133 0
M  V30 4208 H 430.401 6.86375 -1.09151 0
M  V30 4209 H 433.592 4.65958 -0.44731 0
M  V30 4210 H 433.765 6.4213 -0.870248 0
M  V30 4211 N 427.171 -0.0066808 1.57599 0
M  V30 4212 C 428.081 -1.01671 2.11424 0
M  V30 4213 C 429.097 -1.38143 1.05795 0
M  V30 4214 O 430.273 -1.47011 1.37658 0
M  V30 4215 C 427.338 -2.29192 2.60139 0
M  V30 4216 C 426.399 -1.99094 3.80342 0
M  V30 4217 C 425.632 -3.20535 4.26724 0
M  V30 4218 O 425.855 -4.3199 3.72479 0
M  V30 4219 O 424.789 -3.04924 5.18946 0
M  V30 4220 H 428.615 -0.589181 2.9793 0
M  V30 4221 H 426.2 -0.225091 1.47695 0
M  V30 4222 H 428.082 -3.0412 2.917 0
M  V30 4223 H 426.757 -2.71195 1.76733 0
M  V30 4224 H 425.664 -1.21663 3.53764 0
M  V30 4225 H 426.997 -1.61931 4.648 0
M  V30 4226 N 428.649 -1.55105 -0.279332 0
M  V30 4227 C 429.559 -1.90638 -1.36727 0
M  V30 4228 C 430.575 -0.802899 -1.54368 0
M  V30 4229 O 431.751 -1.10138 -1.68616 0
M  V30 4230 C 428.816 -2.16547 -2.70755 0
M  V30 4231 C 427.877 -3.40146 -2.61915 0
M  V30 4232 C 427.11 -3.6481 -3.8955 0
M  V30 4233 O 427.333 -2.92095 -4.89935 0
M  V30 4234 O 426.267 -4.58343 -3.90135 0
M  V30 4235 H 430.093 -2.83237 -1.09591 0
M  V30 4236 H 427.678 -1.4157 -0.477306 0
M  V30 4237 H 429.56 -2.34665 -3.50014 0
M  V30 4238 H 428.235 -1.27131 -2.9769 0
M  V30 4239 H 427.142 -3.2737 -1.81052 0
M  V30 4240 H 428.475 -4.29761 -2.3993 0
M  V30 4241 N 430.127 0.543554 -1.4793 0
M  V30 4242 C 431.09 1.63156 -1.60975 0
M  V30 4243 C 432.09 1.53346 -0.483899 0
M  V30 4244 O 433.28 1.5726 -0.749339 0
M  V30 4245 C 430.412 3.02743 -1.56716 0
M  V30 4246 H 431.605 1.52934 -2.57975 0
M  V30 4247 H 429.158 0.764557 -1.36324 0
M  V30 4248 H 429.893 3.18484 -0.611418 0
M  V30 4249 H 429.678 3.11272 -2.38438 0
M  V30 4250 H 431.168 3.81871 -1.6901 0
M  V30 4251 N 431.605 1.3629 0.791371 0
M  V30 4252 C 433.021 1.16661 1.08914 0
M  V30 4253 C 433.221 -0.0106266 2.01497 0
M  V30 4254 O 432.277 -0.676596 2.43266 0
M  V30 4255 C 433.59 2.47656 1.70549 0
M  V30 4256 C 435.138 2.54002 1.82899 0
M  V30 4257 C 435.613 3.85078 2.47949 0
M  V30 4258 N 437.104 3.86413 2.5542 0
M  V30 4259 C 437.839 4.84572 3.06557 0
M  V30 4260 N 437.335 5.93124 3.58016 0
M  V30 4261 N 439.128 4.71994 3.05251 0
M  V30 4262 H 431.279 2.11668 0.176238 0
M  V30 4263 H 433.542 0.937486 0.140796 0
M  V30 4264 H 433.248 3.34059 1.09989 0
M  V30 4265 H 433.122 2.63319 2.70079 0
M  V30 4266 H 435.509 1.68018 2.42598 0
M  V30 4267 H 435.59 2.42239 0.821808 0
M  V30 4268 H 435.234 4.71467 1.88895 0
M  V30 4269 H 435.164 3.94135 3.49235 0
M  V30 4270 H 437.655 3.07988 2.18979 0
M  V30 4271 H 437.968 6.63999 3.95381 0
M  V30 4272 H 436.313 5.96796 3.56173 0
M  V30 4273 H 439.504 3.86321 2.64336 0
M  V30 4274 H 439.677 5.48653 3.44796 0
M  V30 4275 N 433.083 -1.0153 1.20538 0
M  V30 4276 C 434.046 -2.0826 0.957098 0
M  V30 4277 C 435.046 -1.60657 -0.0678655 0
M  V30 4278 O 436.236 -1.73385 0.168332 0
M  V30 4279 C 433.368 -3.38033 0.441188 0
M  V30 4280 H 434.561 -2.31719 1.90384 0
M  V30 4281 H 432.114 -1.1835 1.02093 0
M  V30 4282 H 432.849 -3.20249 -0.510961 0
M  V30 4283 H 432.634 -3.73911 1.18038 0
M  V30 4284 H 434.124 -4.16613 0.287009 0
M  V30 4285 N 434.561 -1.01147 -1.20859 0
M  V30 4286 C 435.81 -0.693214 -1.89413 0
M  V30 4287 C 436.123 0.779969 -1.79376 0
M  V30 4288 O 437.329 1.21057 -2.43017 0
M  V30 4289 C 435.785 -1.18949 -3.39675 0
M  V30 4290 C 435.393 -2.68921 -3.58309 0
M  V30 4291 C 437.137 -0.94642 -4.13815 0
M  V30 4292 C 435.044 -3.12056 -5.0237 0
M  V30 4293 H 433.974 -0.255595 -0.709357 0
M  V30 4294 H 436.625 -1.22349 -1.36759 0
M  V30 4295 H 435.007 -0.587228 -3.91622 0
M  V30 4296 H 436.181 -3.34652 -3.16772 0
M  V30 4297 H 434.496 -2.91314 -2.97532 0
M  V30 4298 H 437.093 -1.24417 -5.20023 0
M  V30 4299 H 437.436 0.117219 -4.16135 0
M  V30 4300 H 437.969 -1.5118 -3.67953 0
M  V30 4301 H 434.708 -4.17674 -5.05202 0
M  V30 4302 H 434.228 -2.51041 -5.44737 0
M  V30 4303 H 435.907 -3.04403 -5.70918 0
M  V30 4304 N 436.039 1.36541 -0.78704 0
M  V30 4305 C 436.969 2.32659 -0.197992 0
M  V30 4306 C 437.95 1.56533 0.665697 0
M  V30 4307 O 439.135 1.84698 0.60001 0
M  V30 4308 C 436.265 3.40778 0.669901 0
M  V30 4309 C 435.219 4.27897 -0.0937039 0
M  V30 4310 C 434.545 5.27163 0.894629 0
M  V30 4311 C 435.845 5.06334 -1.28154 0
M  V30 4312 H 437.539 2.82171 -1.00099 0
M  V30 4313 H 435.085 1.35665 -0.482793 0
M  V30 4314 H 437.038 4.07008 1.09191 0
M  V30 4315 H 435.762 2.89827 1.50558 0
M  V30 4316 H 434.421 3.6322 -0.49666 0
M  V30 4317 H 434.069 4.72486 1.72527 0
M  V30 4318 H 433.769 5.86317 0.388149 0
M  V30 4319 H 435.293 5.96266 1.31525 0
M  V30 4320 H 436.707 5.65617 -0.93541 0
M  V30 4321 H 435.104 5.74888 -1.72115 0
M  V30 4322 H 436.174 4.38114 -2.07807 0
M  V30 4323 N 437.518 0.538854 1.48102 0
M  V30 4324 C 438.795 -0.0568108 1.95517 0
M  V30 4325 C 439.175 -1.50408 1.48124 0
M  V30 4326 O 438.523 -2.17133 0.711727 0
M  V30 4327 C 438.733 0.0696262 3.48931 0
M  V30 4328 C 440.081 -0.0851202 4.24515 0
M  V30 4329 O 441.105 -0.0037347 3.562 0
M  V30 4330 O 439.964 -0.257025 5.45895 0
M  V30 4331 H 437.058 -0.0743695 0.823649 0
M  V30 4332 H 439.604 0.604081 1.58584 0
M  V30 4333 H 438.376 1.07744 3.76174 0
M  V30 4334 H 437.999 -0.629714 3.92582 0
M  V30 4335 N 438.996 -1.55193 0.274407 0
M  V30 4336 C 440.244 -1.99187 -0.341902 0
M  V30 4337 C 440.565 -1.16422 -1.56431 0
M  V30 4338 O 439.835 -0.253573 -1.94252 0
M  V30 4339 H 438.415 -0.735721 -0.129317 0
M  V30 4340 H 441.077 -1.91168 0.379578 0
M  V30 4341 H 440.173 -3.05629 -0.632253 0
M  V30 4342 N 440.474 -0.00167713 -1.576 0
M  V30 4343 C 441.384 1.00548 -2.1196 0
M  V30 4344 C 442.4 1.3758 -1.06526 0
M  V30 4345 O 443.576 1.46278 -1.38436 0
M  V30 4346 C 440.641 2.27809 -2.6135 0
M  V30 4347 C 439.702 1.97074 -3.81393 0
M  V30 4348 C 438.935 3.18267 -4.28417 0
M  V30 4349 O 439.158 4.30009 -3.74765 0
M  V30 4350 O 438.092 3.02167 -5.20556 0
M  V30 4351 H 441.918 0.573373 -2.98238 0
M  V30 4352 H 439.503 0.217255 -1.47812 0
M  V30 4353 H 441.385 3.02568 -2.93309 0
M  V30 4354 H 440.06 2.70254 -1.78169 0
M  V30 4355 H 438.967 1.19785 -3.54404 0
M  V30 4356 H 440.3 1.59464 -4.65652 0
M  V30 4357 N 441.952 1.55251 0.271103 0
M  V30 4358 C 442.862 1.9136 1.35714 0
M  V30 4359 C 443.878 0.811075 1.5394 0
M  V30 4360 O 445.054 1.11031 1.6803 0
M  V30 4361 C 442.119 2.1798 2.69603 0
M  V30 4362 C 441.18 3.4153 2.60107 0
M  V30 4363 C 440.413 3.66871 3.8761 0
M  V30 4364 O 440.636 2.94689 4.8838 0
M  V30 4365 O 439.57 4.60405 3.87699 0
M  V30 4366 H 443.396 2.83815 1.08088 0
M  V30 4367 H 440.981 1.41821 0.469792 0
M  V30 4368 H 442.863 2.36518 3.48765 0
M  V30 4369 H 441.538 1.28708 2.97012 0
M  V30 4370 H 440.445 3.28325 1.79314 0
M  V30 4371 H 441.778 4.31027 2.37647 0
M  V30 4372 N 443.43 -0.535701 1.48216 0
M  V30 4373 C 444.393 -1.623 1.61838 0
M  V30 4374 C 445.393 -1.53087 0.492024 0
M  V30 4375 O 446.583 -1.5686 0.757668 0
M  V30 4376 C 443.715 -3.01907 1.58319 0
M  V30 4377 H 444.908 -1.51564 2.58783 0
M  V30 4378 H 442.461 -0.757317 1.36727 0
M  V30 4379 H 443.196 -3.18155 0.628299 0
M  V30 4380 H 442.981 -3.10003 2.40085 0
M  V30 4381 H 444.471 -3.80969 1.71033 0
M  V30 4382 N 444.908 -1.36708 -0.784132 0
M  V30 4383 C 446.324 -1.17237 -1.08294 0
M  V30 4384 C 446.524 -5.93947e-05 -2.015 0
M  V30 4385 O 445.58 0.663686 -2.43622 0
M  V30 4386 C 446.893 -2.48557 -1.69233 0
M  V30 4387 C 448.441 -2.54968 -1.8155 0
M  V30 4388 C 448.916 -3.86388 -2.45904 0
M  V30 4389 N 450.407 -3.87762 -2.53367 0
M  V30 4390 C 451.142 -4.86191 -3.03983 0
M  V30 4391 N 450.638 -5.95015 -3.54866 0
M  V30 4392 N 452.431 -4.73606 -3.02743 0
M  V30 4393 H 444.582 -2.11758 -0.16501 0
M  V30 4394 H 446.845 -0.93822 -0.135822 0
M  V30 4395 H 446.551 -3.34638 -1.08215 0
M  V30 4396 H 446.425 -2.64748 -2.68679 0
M  V30 4397 H 448.812 -1.69302 -2.41704 0
M  V30 4398 H 448.893 -2.42672 -0.80895 0
M  V30 4399 H 448.537 -4.72462 -1.86392 0
M  V30 4400 H 448.467 -3.95982 -3.4714 0
M  V30 4401 H 450.958 -3.09145 -2.17343 0
M  V30 4402 H 451.271 -6.66086 -3.91854 0
M  V30 4403 H 449.616 -5.98676 -3.53003 0
M  V30 4404 H 452.807 -3.87717 -2.62284 0
M  V30 4405 H 452.98 -5.50473 -3.41881 0
M  V30 4406 N 446.386 1.0089 -1.21074 0
M  V30 4407 C 447.614 1.78191 -1.05145 0
M  V30 4408 C 448.029 1.84537 0.398952 0
M  V30 4409 O 447.386 1.30393 1.27687 0
M  V30 4410 C 447.437 3.22288 -1.63746 0
M  V30 4411 O 447.158 3.16315 -3.03111 0
M  V30 4412 C 448.659 4.16106 -1.52875 0
M  V30 4413 H 445.879 0.560129 -0.369454 0
M  V30 4414 H 448.423 1.26945 -1.60328 0
M  V30 4415 H 446.578 3.70655 -1.12664 0
M  V30 4416 H 446.992 4.06817 -3.31059 0
M  V30 4417 H 448.466 5.15026 -1.98626 0
M  V30 4418 H 448.943 4.36541 -0.482521 0
M  V30 4419 H 449.549 3.73625 -2.03185 0
M  V30 4420 N 447.864 1.01787 1.20321 0
M  V30 4421 C 449.113 0.703249 1.89043 0
M  V30 4422 C 449.426 -0.770445 1.79787 0
M  V30 4423 O 450.632 -1.19767 2.43656 0
M  V30 4424 C 449.088 1.20749 3.3904 0
M  V30 4425 C 448.696 2.70817 3.56878 0
M  V30 4426 C 450.44 0.968352 4.13308 0
M  V30 4427 C 448.347 3.14716 5.00708 0
M  V30 4428 H 447.277 0.259354 0.707991 0
M  V30 4429 H 449.928 1.23072 1.36108 0
M  V30 4430 H 448.31 0.607989 3.91305 0
M  V30 4431 H 449.484 3.36327 3.14993 0
M  V30 4432 H 447.799 2.92888 2.95983 0
M  V30 4433 H 450.396 1.27173 5.19356 0
M  V30 4434 H 450.739 -0.095149 4.16191 0
M  V30 4435 H 451.272 1.53129 3.67146 0
M  V30 4436 H 448.011 4.20347 5.02979 0
M  V30 4437 H 447.531 2.53927 5.43398 0
M  V30 4438 H 449.21 3.07426 5.69296 0
M  V30 4439 N 449.342 -1.36122 0.79427 0
M  V30 4440 C 450.567 -2.03891 0.379871 0
M  V30 4441 C 450.992 -1.59488 -0.997251 0
M  V30 4442 O 450.35 -0.765652 -1.64339 0
M  V30 4443 C 450.398 -3.57687 0.457442 0
M  V30 4444 O 449.502 -4.08931 -0.5338 0
M  V30 4445 H 448.843 -0.6443 0.160541 0
M  V30 4446 H 451.373 -1.73976 1.07673 0
M  V30 4447 H 451.383 -4.06721 0.322792 0
M  V30 4448 H 450.058 -3.89357 1.46199 0
M  V30 4449 H 448.635 -3.71154 -0.360409 0
M  V30 4450 N 450.82 -0.546701 -1.47814 0
M  V30 4451 C 452.068 -0.0187037 -2.02091 0
M  V30 4452 C 452.389 1.33168 -1.42447 0
M  V30 4453 O 451.659 1.86619 -0.595839 0
M  V30 4454 H 450.239 -0.00392531 -0.74699 0
M  V30 4455 H 452.901 -0.714327 -1.81338 0
M  V30 4456 H 451.997 0.0772219 -3.12004 0
M  V30 4457 N 452.299 1.55045 -0.282633 0
M  V30 4458 C 453.547 1.99365 0.331334 0
M  V30 4459 C 453.868 1.1725 1.55812 0
M  V30 4460 O 453.138 0.263871 1.94115 0
M  V30 4461 H 451.718 0.736397 0.125414 0
M  V30 4462 H 454.38 1.90964 -0.389711 0
M  V30 4463 H 453.476 3.0596 0.616036 0
M  V30 4464 N 453.777 0.010035 1.57597 0
M  V30 4465 C 454.687 -0.994226 2.12491 0
M  V30 4466 C 455.703 -1.37013 1.07254 0
M  V30 4467 O 456.879 -1.45542 1.3921 0
M  V30 4468 C 453.944 -2.2642 2.62555 0
M  V30 4469 C 453.005 -1.95049 3.82432 0
M  V30 4470 C 452.238 -3.15991 4.30099 0
M  V30 4471 O 452.461 -4.28015 3.7704 0
M  V30 4472 O 451.395 -2.99403 5.22151 0
M  V30 4473 H 455.221 -0.557549 2.98538 0
M  V30 4474 H 452.806 -0.209413 1.47925 0
M  V30 4475 H 454.688 -3.01009 2.9491 0
M  V30 4476 H 453.363 -2.69306 1.796 0
M  V30 4477 H 452.27 -1.17904 3.55034 0
M  V30 4478 H 453.603 -1.56992 4.66491 0
M  V30 4479 N 455.255 -1.55392 -0.262866 0
M  V30 4480 C 456.165 -1.92077 -1.34698 0
M  V30 4481 C 457.181 -0.819227 -1.53508 0
M  V30 4482 O 458.357 -1.11921 -1.67439 0
M  V30 4483 C 455.422 -2.19407 -2.68443 0
M  V30 4484 C 454.483 -3.42905 -2.58292 0
M  V30 4485 C 453.716 -3.68921 -3.85659 0
M  V30 4486 O 453.939 -2.97275 -4.8681 0
M  V30 4487 O 452.873 -4.62455 -3.85252 0
M  V30 4488 H 456.699 -2.84384 -1.06581 0
M  V30 4489 H 454.284 -1.42069 -0.462264 0
M  V30 4490 H 456.166 -2.38365 -3.47506 0
M  V30 4491 H 454.841 -1.30282 -2.96325 0
M  V30 4492 H 453.748 -3.29272 -1.7757 0
M  V30 4493 H 455.081 -4.32282 -2.35358 0
M  V30 4494 N 456.733 0.527833 -1.48498 0
M  V30 4495 C 457.696 1.61439 -1.62696 0
M  V30 4496 C 458.696 1.52824 -0.500136 0
M  V30 4497 O 459.886 1.56456 -0.765976 0
M  V30 4498 C 457.018 3.01063 -1.59918 0
M  V30 4499 H 458.211 1.50189 -2.59583 0
M  V30 4500 H 455.764 0.750055 -1.37127 0
M  V30 4501 H 456.499 3.17818 -0.645163 0
M  V30 4502 H 456.284 3.08725 -2.41726 0
M  V30 4503 H 457.774 3.80057 -1.73051 0
M  V30 4504 N 458.211 1.37122 0.776871 0
M  V30 4505 C 459.121 1.34651 1.9211 0
M  V30 4506 C 460.137 0.246824 1.7224 0
M  V30 4507 O 461.313 0.48134 1.95563 0
M  V30 4508 C 458.378 1.14748 3.2716 0
M  V30 4509 C 457.439 2.34308 3.5972 0
M  V30 4510 C 456.672 2.15345 4.88326 0
M  V30 4511 O 456.895 1.13507 5.58992 0
M  V30 4512 O 455.829 3.03414 5.1983 0
M  V30 4513 H 459.655 2.31013 1.97146 0
M  V30 4514 H 457.24 1.17799 0.918901 0
M  V30 4515 H 459.122 1.05616 4.0795 0
M  V30 4516 H 457.797 0.214562 3.22988 0
M  V30 4517 H 456.704 2.49011 2.79185 0
M  V30 4518 H 458.037 3.26149 3.68629 0
M  V30 4519 N 459.689 -1.00246 1.21608 0
M  V30 4520 C 460.917 -1.77631 1.06089 0
M  V30 4521 C 461.332 -1.84746 -0.38916 0
M  V30 4522 O 460.689 -1.31068 -1.26994 0
M  V30 4523 C 460.74 -3.21415 1.65453 0
M  V30 4524 O 460.461 -3.14703 3.04785 0
M  V30 4525 C 461.962 -4.15289 1.55079 0
M  V30 4526 H 459.182 -0.558162 0.37242 0
M  V30 4527 H 461.726 -1.26093 1.60999 0
M  V30 4528 H 459.881 -3.70053 1.14629 0
M  V30 4529 H 460.295 -4.05056 3.33212 0
M  V30 4530 H 461.769 -5.13965 2.01355 0
M  V30 4531 H 462.246 -4.36279 0.505665 0
M  V30 4532 H 462.852 -3.72543 2.05163 0
M  V30 4533 N 461.167 -1.02423 -1.1978 0
M  V30 4534 C 462.13 -0.605703 -2.21052 0
M  V30 4535 C 463.13 0.328209 -1.57415 0
M  V30 4536 O 464.32 0.115853 -1.73814 0
M  V30 4537 C 461.452 0.114366 -3.40708 0
M  V30 4538 H 462.645 -1.5017 -2.59594 0
M  V30 4539 H 460.198 -0.814888 -1.33376 0
M  V30 4540 H 460.933 1.02492 -3.07678 0
M  V30 4541 H 460.718 -0.556641 -3.88129 0
M  V30 4542 H 462.208 0.394272 -4.15735 0
M  V30 4543 N 462.645 1.35699 -0.801477 0
M  V30 4544 C 463.87 2.03687 -0.390678 0
M  V30 4545 C 464.295 1.60015 0.988778 0
M  V30 4546 O 463.653 0.774357 1.63931 0
M  V30 4547 C 463.701 3.57439 -0.476404 0
M  V30 4548 O 462.805 4.09208 0.512106 0
M  V30 4549 H 462.146 0.64344 -0.163956 0
M  V30 4550 H 464.676 1.73403 -1.08594 0
M  V30 4551 H 464.686 4.06544 -0.344357 0
M  V30 4552 H 463.361 3.88576 -1.48262 0
M  V30 4553 H 461.938 3.7134 0.340721 0
M  V30 4554 N 464.123 0.554532 1.47522 0
M  V30 4555 C 465.371 0.0294208 2.02079 0
M  V30 4556 C 465.692 -1.32411 1.43151 0
M  V30 4557 O 464.962 -1.863 0.605728 0
M  V30 4558 H 463.542 0.00788672 0.746958 0
M  V30 4559 H 466.204 0.723934 1.80956 0
M  V30 4560 H 465.3 -0.0606745 3.12041 0
M  V30 4561 N 465.601 -1.54893 0.290851 0
M  V30 4562 C 466.849 -1.99538 -0.320756 0
M  V30 4563 C 467.17 -1.18075 -1.55188 0
M  V30 4564 O 466.44 -0.274162 -1.93972 0
M  V30 4565 H 465.02 -0.737052 -0.121507 0
M  V30 4566 H 467.682 -1.90755 0.399832 0
M  V30 4567 H 466.778 -3.06282 -0.599802 0
M  V30 4568 N 467.08 -0.0183926 -1.57589 0
M  V30 4569 C 467.99 0.982943 -2.13015 0
M  V30 4570 C 469.006 1.36443 -1.07979 0
M  V30 4571 O 470.182 1.44802 -1.3998 0
M  V30 4572 C 467.247 2.25024 -2.63752 0
M  V30 4573 C 466.308 1.93018 -3.83461 0
M  V30 4574 C 465.541 3.13706 -4.31769 0
M  V30 4575 O 465.764 4.2601 -3.79305 0
M  V30 4576 O 464.698 2.96629 -5.23732 0
M  V30 4577 H 468.524 0.541709 -2.9883 0
M  V30 4578 H 466.109 0.201565 -1.48034 0
M  V30 4579 H 467.991 2.99441 -2.96502 0
M  V30 4580 H 466.666 2.68349 -1.81026 0
M  V30 4581 H 465.573 1.16019 -3.55655 0
M  V30 4582 H 466.906 1.54516 -4.67317 0
M  V30 4583 N 468.558 1.5553 0.254621 0
M  V30 4584 C 469.468 1.92789 1.33677 0
M  V30 4585 C 470.484 0.827356 1.53071 0
M  V30 4586 O 471.66 1.12807 1.66843 0
M  V30 4587 C 468.725 2.20827 2.67275 0
M  V30 4588 C 467.786 3.4427 2.5647 0
M  V30 4589 C 467.019 3.70961 3.83697 0
M  V30 4590 O 467.242 2.99852 4.85227 0
M  V30 4591 O 466.176 4.64491 3.82794 0
M  V30 4592 H 470.002 2.84945 1.05071 0
M  V30 4593 H 467.587 1.42312 0.454723 0
M  V30 4594 H 469.469 2.40204 3.46237 0
M  V30 4595 H 468.144 1.31851 2.9563 0
M  V30 4596 H 467.051 3.30209 1.75821 0
M  V30 4597 H 468.384 4.33524 2.33062 0
M  V30 4598 N 470.036 -0.519951 1.48776 0
M  V30 4599 C 470.999 -1.60574 1.6355 0
M  V30 4600 C 471.999 -1.52557 0.508234 0
M  V30 4601 O 473.189 -1.56047 0.774262 0
M  V30 4602 C 470.321 -3.00211 1.61512 0
M  V30 4603 H 471.514 -1.4881 2.60376 0
M  V30 4604 H 469.067 -0.742772 1.37523 0
M  V30 4605 H 469.802 -3.17471 0.662009 0
M  V30 4606 H 469.587 -3.07439 2.43359 0
M  V30 4607 H 471.077 -3.79134 1.75064 0
M  V30 4608 N 471.514 -1.37532 -0.769588 0
M  V30 4609 C 472.424 -1.35668 -1.91393 0
M  V30 4610 C 473.44 -0.255954 -1.72107 0
M  V30 4611 O 474.616 -0.491704 -1.95305 0
M  V30 4612 C 471.681 -1.16481 -3.26547 0
M  V30 4613 C 470.742 -2.36212 -3.58472 0
M  V30 4614 C 469.975 -2.17932 -4.87177 0
M  V30 4615 O 470.198 -1.1647 -5.58382 0
M  V30 4616 O 469.132 -3.06167 -5.18214 0
M  V30 4617 H 472.958 -2.32055 -1.95918 0
M  V30 4618 H 470.543 -1.18284 -0.912641 0
M  V30 4619 H 472.425 -1.07778 -4.07384 0
M  V30 4620 H 471.1 -0.231687 -3.2287 0
M  V30 4621 H 470.007 -2.50488 -2.77861 0
M  V30 4622 H 471.34 -3.281 -3.66894 0
M  V30 4623 N 472.992 0.995999 -1.22138 0
M  V30 4624 C 474.22 1.77066 -1.07029 0
M  V30 4625 C 474.635 1.8495 0.379357 0
M  V30 4626 O 473.992 1.3174 1.26297 0
M  V30 4627 C 474.043 3.20533 -1.67155 0
M  V30 4628 O 473.764 3.13082 -3.06449 0
M  V30 4629 C 475.265 4.14461 -1.5728 0
M  V30 4630 H 472.485 0.556179 -0.375374 0
M  V30 4631 H 475.029 1.25238 -1.61666 0
M  V30 4632 H 473.184 3.6944 -1.16589 0
M  V30 4633 H 473.598 4.03283 -3.35355 0
M  V30 4634 H 475.072 5.1289 -2.04078 0
M  V30 4635 H 475.549 4.36005 -0.528795 0
M  V30 4636 H 476.155 3.71449 -2.07136 0
M  V30 4637 N 474.47 1.03057 1.19235 0
M  V30 4638 C 475.433 0.617418 2.20727 0
M  V30 4639 C 476.433 -0.319856 1.57587 0
M  V30 4640 O 477.623 -0.106633 1.73873 0
M  V30 4641 C 474.755 -0.096296 3.40764 0
M  V30 4642 H 475.948 1.51544 2.58794 0
M  V30 4643 H 473.501 0.821949 1.32942 0
M  V30 4644 H 474.236 -1.00859 3.08217 0
M  V30 4645 H 474.021 0.577217 3.87828 0
M  V30 4646 H 475.511 -0.372219 4.15938 0
M  V30 4647 N 475.948 -1.35272 0.808662 0
M  V30 4648 C 477.173 -2.03477 0.401475 0
M  V30 4649 C 477.598 -1.60537 -0.980279 0
M  V30 4650 O 476.956 -0.78304 -1.63518 0
M  V30 4651 C 477.004 -3.57181 0.495354 0
M  V30 4652 O 476.108 -4.09474 -0.490397 0
M  V30 4653 H 475.449 -0.642561 0.167366 0
M  V30 4654 H 477.979 -1.72824 1.09512 0
M  V30 4655 H 477.989 -4.06356 0.365912 0
M  V30 4656 H 476.664 -3.87784 1.5032 0
M  V30 4657 H 475.241 -3.71516 -0.321023 0
M  V30 4658 N 477.426 -0.562348 -1.47226 0
M  V30 4659 C 478.674 -0.0401371 -2.0206 0
M  V30 4660 C 478.995 1.3165 -1.43852 0
M  V30 4661 O 478.265 1.85976 -0.615599 0
M  V30 4662 H 476.845 -0.0118479 -0.746906 0
M  V30 4663 H 479.507 -0.73352 -1.8057 0
M  V30 4664 H 478.603 0.0441254 -3.12069 0
M  V30 4665 N 478.904 1.54736 -0.299062 0
M  V30 4666 C 480.152 1.99706 0.31017 0
M  V30 4667 C 480.473 1.18896 1.54559 0
M  V30 4668 O 479.743 0.284445 1.93824 0
M  V30 4669 H 478.323 0.737686 0.117596 0
M  V30 4670 H 480.985 1.9054 -0.409943 0
M  V30 4671 H 480.081 3.06596 0.58355 0
M  V30 4672 N 480.382 0.0267497 1.57577 0
M  V30 4673 C 481.292 -0.971633 2.13533 0
M  V30 4674 C 482.308 -1.35868 1.08701 0
M  V30 4675 O 483.484 -1.44058 1.40746 0
M  V30 4676 C 480.549 -2.23622 2.64941 0
M  V30 4677 C 479.61 -1.90982 3.8448 0
M  V30 4678 C 478.843 -3.11411 4.33427 0
M  V30 4679 O 479.066 -4.23992 3.81558 0
M  V30 4680 O 478 -2.93848 5.25297 0
M  V30 4681 H 481.826 -0.525853 2.99113 0
M  V30 4682 H 479.411 -0.193712 1.48139 0
M  V30 4683 H 481.293 -2.97864 2.98086 0
M  V30 4684 H 479.968 -2.67386 1.82446 0
M  V30 4685 H 478.875 -1.14132 3.56265 0
M  V30 4686 H 480.208 -1.52036 4.6813 0
M  V30 4687 N 481.861 -1.55662 -0.24637 0
M  V30 4688 C 482.771 -1.93495 -1.32653 0
M  V30 4689 C 483.787 -0.835462 -1.5263 0
M  V30 4690 O 484.963 -1.1369 -1.66242 0
M  V30 4691 C 482.028 -2.22242 -2.66101 0
M  V30 4692 C 481.089 -3.45625 -2.54641 0
M  V30 4693 C 480.322 -3.72991 -3.81724 0
M  V30 4694 O 480.545 -3.02421 -4.8363 0
M  V30 4695 O 479.479 -4.66515 -3.80325 0
M  V30 4696 H 483.305 -2.85498 -1.03559 0
M  V30 4697 H 480.89 -1.42551 -0.44717 0
M  V30 4698 H 482.772 -2.42037 -3.44958 0
M  V30 4699 H 481.447 -1.33417 -2.94926 0
M  V30 4700 H 480.354 -3.31136 -1.74067 0
M  V30 4701 H 481.687 -4.34754 -2.3076 0
M  V30 4702 N 483.339 0.512053 -1.4905 0
M  V30 4703 C 484.302 1.59704 -1.64399 0
M  V30 4704 C 485.302 1.52285 -0.516317 0
M  V30 4705 O 486.492 1.55635 -0.782527 0
M  V30 4706 C 483.624 2.9935 -1.63102 0
M  V30 4707 H 484.817 1.47428 -2.61161 0
M  V30 4708 H 482.37 0.735469 -1.37915 0
M  V30 4709 H 483.105 3.17116 -0.678836 0
M  V30 4710 H 482.89 3.06144 -2.44986 0
M  V30 4711 H 484.38 3.782 -1.77072 0
M  V30 4712 N 484.817 1.37938 0.762283 0
M  V30 4713 C 486.065 1.33404 1.51815 0
M  V30 4714 C 486.386 -0.0780975 1.94844 0
M  V30 4715 O 485.656 -1.02405 1.67003 0
M  V30 4716 H 484.236 0.490839 0.563104 0
M  V30 4717 H 486.898 1.72527 0.906669 0
M  V30 4718 H 485.994 1.97926 2.41313 0
M  V30 4719 N 486.295 -0.989507 1.22664 0
M  V30 4720 C 487.523 -1.76496 1.07967 0
M  V30 4721 C 487.938 -1.85148 -0.369543 0
M  V30 4722 O 487.295 -1.32408 -1.25596 0
M  V30 4723 C 487.346 -3.19642 1.68853 0
M  V30 4724 O 487.067 -3.11453 3.08105 0
M  V30 4725 C 488.568 -4.13621 1.59475 0
M  V30 4726 H 485.788 -0.55418 0.378319 0
M  V30 4727 H 488.332 -1.24378 1.62328 0
M  V30 4728 H 486.487 -3.68816 1.18547 0
M  V30 4729 H 486.901 -4.01499 3.37489 0
M  V30 4730 H 488.375 -5.11801 2.06795 0
M  V30 4731 H 488.852 -4.35718 0.55191 0
M  V30 4732 H 489.458 -3.70346 2.09103 0
M  V30 4733 N 487.773 -1.03688 -1.18687 0
M  V30 4734 C 488.736 -0.629115 -2.20397 0
M  V30 4735 C 489.736 0.311495 -1.57754 0
M  V30 4736 O 490.926 0.0974107 -1.73927 0
M  V30 4737 C 488.058 0.0782231 -3.4081 0
M  V30 4738 H 489.251 -1.52915 -2.57987 0
M  V30 4739 H 486.804 -0.828988 -1.32505 0
M  V30 4740 H 487.539 0.992233 -3.08748 0
M  V30 4741 H 487.324 -0.597776 -3.87517 0
M  V30 4742 H 488.814 0.350156 -4.16129 0
M  V30 4743 N 489.251 1.34841 -0.815825 0
M  V30 4744 C 490.476 2.03261 -0.41226 0
M  V30 4745 C 490.901 1.61055 0.971751 0
M  V30 4746 O 490.259 0.7917 1.63101 0
M  V30 4747 C 490.307 3.56914 -0.514289 0
M  V30 4748 O 489.411 4.09728 0.468675 0
M  V30 4749 H 488.752 0.641664 -0.170771 0
M  V30 4750 H 491.282 1.72241 -1.10427 0
M  V30 4751 H 491.292 4.06156 -0.387457 0
M  V30 4752 H 489.967 3.86982 -1.52375 0
M  V30 4753 H 488.544 3.71681 0.301316 0
M  V30 4754 N 490.729 0.570148 1.46925 0
M  V30 4755 C 491.977 0.0508523 2.02036 0
M  V30 4756 C 492.298 -1.30885 1.44548 0
M  V30 4757 O 491.568 -1.85647 0.625453 0
M  V30 4758 H 490.148 0.0158088 0.746833 0
M  V30 4759 H 492.81 0.743086 1.80178 0
M  V30 4760 H 491.906 -0.027575 3.12088 0
M  V30 4761 N 492.207 -1.54576 0.307264 0
M  V30 4762 C 493.455 -1.99867 -0.299574 0
M  V30 4763 C 493.776 -1.19714 -1.53927 0
M  V30 4764 O 493.046 -0.29472 -1.9367 0
M  V30 4765 H 491.626 -0.738299 -0.113683 0
M  V30 4766 H 494.288 -1.9032 0.420042 0
M  V30 4767 H 493.384 -3.06901 -0.567283 0
M  V30 4768 N 493.685 -0.035106 -1.57561 0
M  V30 4769 C 494.595 0.960295 -2.14046 0
M  V30 4770 C 495.611 1.3529 -1.0942 0
M  V30 4771 O 496.787 1.43309 -1.41508 0
M  V30 4772 C 493.852 2.22214 -2.66124 0
M  V30 4773 C 492.913 1.8894 -3.85487 0
M  V30 4774 C 492.146 3.09109 -4.35072 0
M  V30 4775 O 492.369 4.21963 -3.83802 0
M  V30 4776 O 491.303 2.91058 -5.26848 0
M  V30 4777 H 495.129 0.509983 -2.99387 0
M  V30 4778 H 492.714 0.185853 -1.48239 0
M  V30 4779 H 494.596 2.96279 -2.99661 0
M  V30 4780 H 493.271 2.66414 -1.83862 0
M  V30 4781 H 492.178 1.12241 -3.56865 0
M  V30 4782 H 493.511 1.49551 -4.6893 0
M  V30 4783 N 495.163 1.55791 0.238111 0
M  V30 4784 C 496.073 1.94196 1.31625 0
M  V30 4785 C 497.089 0.843545 1.52185 0
M  V30 4786 O 498.265 1.1457 1.65637 0
M  V30 4787 C 495.33 2.2365 2.64918 0
M  V30 4788 C 494.391 3.46971 2.52804 0
M  V30 4789 C 493.624 3.7501 3.79741 0
M  V30 4790 O 493.847 3.04982 4.82019 0
M  V30 4791 O 492.781 4.68525 3.77846 0
M  V30 4792 H 496.607 2.86044 1.02043 0
M  V30 4793 H 494.192 1.42786 0.439603 0
M  V30 4794 H 496.074 2.43863 3.4367 0
M  V30 4795 H 494.749 1.34979 2.94215 0
M  V30 4796 H 493.656 3.32055 1.72309 0
M  V30 4797 H 494.989 4.35971 2.28451 0
M  V30 4798 N 496.642 -0.504142 1.49319 0
M  V30 4799 C 497.605 -1.5883 1.65244 0
M  V30 4800 C 498.605 -1.52009 0.524386 0
M  V30 4801 O 499.795 -1.55218 0.79077 0
M  V30 4802 C 496.927 -2.98481 1.64687 0
M  V30 4803 H 498.12 -1.4604 2.61939 0
M  V30 4804 H 495.673 -0.728144 1.38303 0
M  V30 4805 H 496.408 -3.16751 0.695644 0
M  V30 4806 H 496.193 -3.0484 2.46607 0
M  V30 4807 H 497.683 -3.77256 1.79075 0
M  V30 4808 N 498.12 -1.38341 -0.754957 0
M  V30 4809 C 499.368 -1.34208 -1.51105 0
M  V30 4810 C 499.689 0.0677634 -1.94882 0
M  V30 4811 O 498.959 1.01517 -1.67544 0
M  V30 4812 H 497.539 -0.493819 -0.560493 0
M  V30 4813 H 500.201 -1.73005 -0.897507 0
M  V30 4814 H 499.297 -1.99203 -2.4026 0
M  V30 4815 N 499.598 0.982988 -1.23187 0
M  V30 4816 C 500.847 1.71817 -1.05649 0
M  V30 4817 C 501.16 1.91315 0.407176 0
M  V30 4818 O 502.366 2.62256 0.702436 0
M  V30 4819 C 500.822 3.09188 -1.84203 0
M  V30 4820 C 500.43 2.97586 -3.34882 0
M  V30 4821 C 502.174 3.86684 -1.75146 0
M  V30 4822 C 500.081 4.30173 -4.05839 0
M  V30 4823 H 499.011 0.644258 -0.391724 0
M  V30 4824 H 501.662 1.09659 -1.4713 0
M  V30 4825 H 500.044 3.72087 -1.35527 0
M  V30 4826 H 501.218 2.43793 -3.91026 0
M  V30 4827 H 499.533 2.33567 -3.44725 0
M  V30 4828 H 502.13 4.84836 -2.25473 0
M  V30 4829 H 502.473 4.10136 -0.713737 0
M  V30 4830 H 503.006 3.30482 -2.21419 0
M  V30 4831 H 499.745 4.11918 -5.09906 0
M  V30 4832 H 499.265 4.83841 -3.54482 0
M  V30 4833 H 500.944 4.98873 -4.11989 0
M  V30 4834 N 501.076 1.04316 1.18135 0
M  V30 4835 C 502.039 0.640794 2.2006 0
M  V30 4836 C 503.039 -0.303124 1.57917 0
M  V30 4837 O 504.229 -0.0881855 1.73977 0
M  V30 4838 C 501.361 -0.060148 3.40847 0
M  V30 4839 H 502.554 1.54281 2.57172 0
M  V30 4840 H 500.107 0.836004 1.32063 0
M  V30 4841 H 500.842 -0.975845 3.0927 0
M  V30 4842 H 500.627 0.618319 3.87194 0
M  V30 4843 H 502.117 -0.328082 4.16309 0
M  V30 4844 N 502.554 -1.34406 0.822964 0
M  V30 4845 C 503.779 -2.0304 0.423034 0
M  V30 4846 C 504.204 -1.61568 -0.963196 0
M  V30 4847 O 503.562 -0.800339 -1.62678 0
M  V30 4848 C 503.61 -3.56636 0.53321 0
M  V30 4849 O 502.714 -4.09971 -0.446939 0
M  V30 4850 H 502.055 -0.64075 0.174171 0
M  V30 4851 H 504.585 -1.71653 1.11339 0
M  V30 4852 H 504.595 -4.05945 0.408991 0
M  V30 4853 H 503.27 -3.86168 1.54425 0
M  V30 4854 H 501.847 -3.71835 -0.281601 0
M  V30 4855 N 504.032 -0.577932 -1.46621 0
M  V30 4856 C 505.28 -0.061566 -2.02006 0
M  V30 4857 C 505.601 1.30117 -1.4524 0
M  V30 4858 O 504.871 1.85313 -0.63529 0
M  V30 4859 H 503.451 -0.0197692 -0.746738 0
M  V30 4860 H 506.113 -0.752631 -1.79782 0
M  V30 4861 H 505.209 0.0110238 -3.12098 0
M  V30 4862 N 505.51 1.54411 -0.315457 0
M  V30 4863 C 506.758 2.00023 0.288971 0
M  V30 4864 C 507.079 1.20529 1.5329 0
M  V30 4865 O 506.349 0.304986 1.93511 0
M  V30 4866 H 504.929 0.738891 0.109766 0
M  V30 4867 H 507.591 1.90094 -0.430129 0
M  V30 4868 H 506.687 3.07198 0.550999 0
M  V30 4869 N 506.988 0.0434614 1.5754 0
M  V30 4870 C 507.898 -0.94893 2.14552 0
M  V30 4871 C 508.914 -1.34707 1.10136 0
M  V30 4872 O 510.09 -1.42557 1.42266 0
M  V30 4873 C 507.155 -2.208 2.67298 0
M  V30 4874 C 506.216 -1.86893 3.86484 0
M  V30 4875 C 505.449 -3.06797 4.36705 0
M  V30 4876 O 505.672 -4.19921 3.86034 0
M  V30 4877 O 504.606 -2.8826 5.28384 0
M  V30 4878 H 508.432 -0.494099 2.99654 0
M  V30 4879 H 506.017 -0.177989 1.48336 0
M  V30 4880 H 507.899 -2.94686 3.01228 0
M  V30 4881 H 506.574 -2.65436 1.85272 0
M  V30 4882 H 505.481 -1.10347 3.57455 0
M  V30 4883 H 506.814 -1.47062 4.69716 0
M  V30 4884 N 508.466 -1.55915 -0.229846 0
M  V30 4885 C 509.429 -1.90914 -1.26824 0
M  V30 4886 C 510.429 -0.786999 -1.40225 0
M  V30 4887 O 511.619 -1.05484 -1.38632 0
M  V30 4888 C 508.751 -2.15264 -2.64337 0
M  V30 4889 H 509.944 -2.8378 -0.969998 0
M  V30 4890 H 507.497 -1.49069 -0.4699 0
M  V30 4891 H 508.232 -1.24923 -2.99274 0
M  V30 4892 H 508.017 -2.97005 -2.55989 0
M  V30 4893 H 509.507 -2.43467 -3.39284 0
M  V30 4894 N 509.944 0.496216 -1.49584 0
M  V30 4895 C 511.192 1.24756 -1.58998 0
M  V30 4896 C 511.513 1.92968 -0.280775 0
M  V30 4897 O 510.783 1.82959 0.700198 0
M  V30 4898 H 509.363 0.463471 -0.585836 0
M  V30 4899 H 512.025 0.574678 -1.86235 0
M  V30 4900 H 511.121 2.00895 -2.38847 0
M  V30 4901 N 511.423 1.38739 0.74761 0
M  V30 4902 C 512.651 1.38521 1.53686 0
M  V30 4903 C 513.066 -0.0235129 1.88785 0
M  V30 4904 O 512.423 -0.991662 1.53207 0
M  V30 4905 C 512.474 2.24641 2.83229 0
M  V30 4906 O 512.195 3.60026 2.49625 0
M  V30 4907 C 513.696 2.32669 3.77333 0
M  V30 4908 H 510.916 0.473589 0.475347 0
M  V30 4909 H 513.46 1.82395 0.924786 0
M  V30 4910 H 511.615 1.84213 3.40799 0
M  V30 4911 H 512.029 4.05435 3.3275 0
M  V30 4912 H 513.503 2.97201 4.65162 0
M  V30 4913 H 513.98 1.3421 4.18192 0
M  V30 4914 H 514.586 2.73512 3.25685 0
M  V30 4915 N 512.901 -0.976442 1.23707 0
M  V30 4916 C 513.864 -2.0511 1.02287 0
M  V30 4917 C 514.864 -1.60791 -0.0167195 0
M  V30 4918 O 516.054 -1.72761 0.223408 0
M  V30 4919 C 513.186 -3.36458 0.548507 0
M  V30 4920 H 514.379 -2.25545 1.9766 0
M  V30 4921 H 511.932 -1.15042 1.05806 0
M  V30 4922 H 512.667 -3.21713 -0.408818 0
M  V30 4923 H 512.452 -3.69967 1.29874 0
M  V30 4924 H 513.942 -4.15489 0.419406 0
M  V30 4925 N 514.379 -1.04941 -1.1758 0
M  V30 4926 C 515.604 -0.778253 -1.92245 0
M  V30 4927 C 516.029 0.659707 -1.76152 0
M  V30 4928 O 515.387 1.45803 -1.07755 0
M  V30 4929 C 515.435 -1.16051 -3.41416 0
M  V30 4930 O 514.539 -0.291153 -4.11371 0
M  V30 4931 H 513.88 -0.285619 -0.599431 0
M  V30 4932 H 516.41 -1.40159 -1.49052 0
M  V30 4933 H 516.42 -1.12619 -3.92149 0
M  V30 4934 H 515.095 -2.208 -3.52449 0
M  V30 4935 H 513.672 -0.385851 -3.70898 0
M  V30 4936 N 515.857 1.33968 -0.830081 0
M  V30 4937 C 517.105 1.97672 -0.420734 0
M  V30 4938 C 517.426 1.66111 1.02138 0
M  V30 4939 O 516.696 0.955503 1.71017 0
M  V30 4940 H 515.276 0.73125 -0.152587 0
M  V30 4941 H 517.938 1.63483 -1.0611 0
M  V30 4942 H 517.034 3.07294 -0.545588 0
M  V30 4943 N 517.335 0.585699 1.46312 0
M  V30 4944 C 518.583 0.072278 2.01971 0
M  V30 4945 C 518.904 -1.29345 1.45928 0
M  V30 4946 O 518.174 -1.84973 0.645109 0
M  V30 4947 H 516.754 0.023729 0.746623 0
M  V30 4948 H 519.416 0.762155 1.7938 0
M  V30 4949 H 518.512 0.00552767 3.121 0
M  V30 4950 N 518.813 -1.54241 0.323641 0
M  V30 4951 C 519.723 -2.28033 -0.551205 0
M  V30 4952 C 520.739 -1.32388 -1.12913 0
M  V30 4953 O 521.915 -1.65403 -1.14908 0
M  V30 4954 C 518.98 -3.02382 -1.69606 0
M  V30 4955 C 518.041 -4.13612 -1.14993 0
M  V30 4956 C 517.274 -4.84407 -2.24022 0
M  V30 4957 O 517.497 -4.54716 -3.44368 0
M  V30 4958 O 516.431 -5.71312 -1.89436 0
M  V30 4959 H 520.257 -3.03662 0.048066 0
M  V30 4960 H 517.842 -1.49133 0.0893289 0
M  V30 4961 H 519.724 -3.48941 -2.36259 0
M  V30 4962 H 518.399 -2.29628 -2.28151 0
M  V30 4963 H 517.306 -3.71402 -0.448484 0
M  V30 4964 H 518.639 -4.8841 -0.609608 0
M  V30 4965 N 520.291 -0.0518155 -1.57515 0
M  V30 4966 C 521.201 0.937539 -2.15052 0
M  V30 4967 C 522.217 1.34121 -1.10849 0
M  V30 4968 O 523.393 1.418 -1.4302 0
M  V30 4969 C 520.458 2.19379 -2.68466 0
M  V30 4970 C 519.519 1.84841 -3.87469 0
M  V30 4971 C 518.752 3.04477 -4.38326 0
M  V30 4972 O 518.975 4.17868 -3.88256 0
M  V30 4973 O 517.909 2.85453 -5.29906 0
M  V30 4974 H 521.735 0.478201 -2.99912 0
M  V30 4975 H 519.32 0.17012 -1.48428 0
M  V30 4976 H 521.202 2.93084 -3.02787 0
M  V30 4977 H 519.877 2.64449 -1.86677 0
M  V30 4978 H 518.784 1.08449 -3.58036 0
M  V30 4979 H 520.117 1.44569 -4.7049 0
M  V30 4980 N 521.769 1.56035 0.221574 0
M  V30 4981 C 522.732 1.91584 1.2581 0
M  V30 4982 C 523.732 0.794425 1.39805 0
M  V30 4983 O 524.922 1.06217 1.38071 0
M  V30 4984 C 522.054 2.16663 2.63192 0
M  V30 4985 H 523.247 2.8429 0.954935 0
M  V30 4986 H 520.8 1.49316 0.461988 0
M  V30 4987 H 521.535 1.26508 2.98607 0
M  V30 4988 H 521.32 2.98358 2.5441 0
M  V30 4989 H 522.81 2.45262 3.37988 0
M  V30 4990 N 523.247 -0.488276 1.49845 0
M  V30 4991 C 524.495 -1.23911 1.59657 0
M  V30 4992 C 524.816 -1.92816 0.291005 0
M  V30 4993 O 524.086 -1.83328 -0.690485 0
M  V30 4994 H 522.666 -0.460357 0.588286 0
M  V30 4995 H 525.328 -0.564794 1.86537 0
M  V30 4996 H 524.424 -1.99625 2.39909 0
M  V30 4997 N 524.725 -1.39134 -0.740242 0
M  V30 4998 C 525.953 -1.39334 -1.5295 0
M  V30 4999 C 526.368 0.0135008 -1.88795 0
M  V30 5000 O 525.725 0.983524 -1.5373 0
M  V30 5001 C 525.776 -2.2614 -2.82034 0
M  V30 5002 O 525.497 -3.61345 -2.47712 0
M  V30 5003 C 526.998 -2.34666 -3.76094 0
M  V30 5004 H 524.218 -0.476103 -0.472828 0
M  V30 5005 H 526.762 -1.82883 -0.9151 0
M  V30 5006 H 524.917 -1.86018 -3.39818 0
M  V30 5007 H 525.331 -4.07194 -3.30595 0
M  V30 5008 H 526.805 -2.99663 -4.63579 0
M  V30 5009 H 527.282 -1.36426 -4.17474 0
M  V30 5010 H 527.888 -2.75236 -3.2423 0
M  V30 5011 N 526.204 0.969867 -1.24223 0
M  V30 5012 C 527.167 2.04564 -1.03373 0
M  V30 5013 C 528.167 1.60798 0.00819206 0
M  V30 5014 O 529.357 1.72641 -0.232567 0
M  V30 5015 C 526.489 3.36163 -0.566343 0
M  V30 5016 H 527.682 2.24494 -1.98853 0
M  V30 5017 H 525.235 1.1448 -1.06415 0
M  V30 5018 H 525.97 3.21925 0.391751 0
M  V30 5019 H 525.755 3.69273 -1.31834 0
M  V30 5020 H 527.245 4.1526 -0.441435 0
M  V30 5021 N 527.682 1.05563 1.17022 0
M  V30 5022 C 528.907 0.788437 1.91829 0
M  V30 5023 C 529.332 -0.650356 1.76499 0
M  V30 5024 O 528.69 -1.45229 1.08527 0
M  V30 5025 C 528.738 1.1786 3.40795 0
M  V30 5026 O 527.842 0.312965 4.11211 0
M  V30 5027 H 527.183 0.288794 0.597908 0
M  V30 5028 H 529.713 1.40948 1.48307 0
M  V30 5029 H 529.723 1.14697 3.91546 0
M  V30 5030 H 528.398 2.22666 3.51273 0
M  V30 5031 H 526.975 0.405515 3.70689 0
M  V30 5032 N 529.16 -1.33526 0.837174 0
M  V30 5033 C 530.408 -1.97446 0.431211 0
M  V30 5034 C 530.729 -1.6665 -1.01255 0
M  V30 5035 O 529.999 -0.964559 -1.70508 0
M  V30 5036 H 528.579 -0.73043 0.156463 0
M  V30 5037 H 531.241 -1.62918 1.06976 0
M  V30 5038 H 530.337 -3.07001 0.561877 0
M  V30 5039 N 530.638 -0.59345 -1.46 0
M  V30 5040 C 531.886 -0.082988 -2.0193 0
M  V30 5041 C 532.207 1.28569 -1.46612 0
M  V30 5042 O 531.477 1.84629 -0.654909 0
M  V30 5043 H 530.057 -0.0276882 -0.746487 0
M  V30 5044 H 532.719 -0.771657 -1.78973 0
M  V30 5045 H 531.815 -0.022079 -3.12092 0
M  V30 5046 N 532.116 1.54067 -0.331816 0
M  V30 5047 C 533.393 1.92915 0.322955 0
M  V30 5048 C 533.773 1.26225 1.69205 0
M  V30 5049 O 533.121 0.408919 2.24811 0
M  V30 5050 C 533.331 3.46619 0.406946 0
M  V30 5051 C 534.679 4.19386 0.663339 0
M  V30 5052 O 535.703 3.5282 0.489536 0
M  V30 5053 O 534.562 5.37288 0.999193 0
M  V30 5054 H 531.656 0.805808 0.186016 0
M  V30 5055 H 534.202 1.65342 -0.382135 0
M  V30 5056 H 532.974 3.87354 -0.554287 0
M  V30 5057 H 532.597 3.80324 1.15929 0
M  V30 5058 N 533.594 0.0601682 1.57485 0
M  V30 5059 C 534.504 -0.926121 2.15546 0
M  V30 5060 C 535.52 -1.33532 1.11558 0
M  V30 5061 O 536.696 -1.4104 1.4377 0
M  V30 5062 C 533.761 -2.17952 2.69625 0
M  V30 5063 C 532.822 -1.82783 3.88444 0
M  V30 5064 C 532.055 -3.02148 4.39935 0
M  V30 5065 O 532.278 -4.15803 3.90466 0
M  V30 5066 O 531.212 -2.82639 5.31412 0
M  V30 5067 H 535.038 -0.462289 3.00161 0
M  V30 5068 H 532.623 -0.162246 1.48516 0
M  V30 5069 H 534.505 -2.91474 3.04337 0
M  V30 5070 H 533.18 -2.63456 1.88077 0
M  V30 5071 H 532.087 -1.06549 3.58606 0
M  V30 5072 H 533.42 -1.42072 4.7125 0
M  V30 5073 N 535.072 -1.5615 -0.213296 0
M  V30 5074 C 536.035 -1.92249 -1.24792 0
M  V30 5075 C 537.035 -0.801828 -1.39382 0
M  V30 5076 O 538.225 -1.06948 -1.37506 0
M  V30 5077 C 535.357 -2.18056 -2.62039 0
M  V30 5078 H 536.55 -2.84793 -0.939845 0
M  V30 5079 H 534.103 -1.49559 -0.454062 0
M  V30 5080 H 534.838 -1.2809 -2.97932 0
M  V30 5081 H 534.623 -2.99703 -2.52825 0
M  V30 5082 H 536.113 -2.47051 -3.36683 0
M  V30 5083 N 536.55 0.480323 -1.50102 0
M  V30 5084 C 537.796 1.23208 -1.61837 0
M  V30 5085 C 538.151 1.89878 -0.310509 0
M  V30 5086 O 537.444 1.7871 0.690897 0
M  V30 5087 C 537.638 2.30708 -2.72963 0
M  V30 5088 C 537.467 1.74583 -4.14428 0
M  V30 5089 C 536.237 1.54964 -4.80951 0
M  V30 5090 C 538.435 1.24597 -4.98979 0
M  V30 5091 N 536.417 0.939855 -6.06663 0
M  V30 5092 C 537.788 0.758834 -6.15339 0
M  V30 5093 C 539.843 1.13365 -4.84822 0
M  V30 5094 C 538.546 0.17046 -7.19098 0
M  V30 5095 C 540.572 0.559221 -5.8875 0
M  V30 5096 C 539.934 0.082415 -7.04352 0
M  V30 5097 H 536.033 0.440065 -0.646426 0
M  V30 5098 H 538.617 0.535632 -1.87187 0
M  V30 5099 H 536.788 2.9779 -2.4935 0
M  V30 5100 H 538.52 2.97738 -2.74106 0
M  V30 5101 H 535.275 1.79926 -4.38091 0
M  V30 5102 H 535.699 0.653641 -6.73837 0
M  V30 5103 H 540.341 1.48823 -3.95742 0
M  V30 5104 H 538.059 -0.196347 -8.07861 0
M  V30 5105 H 541.645 0.474804 -5.79859 0
M  V30 5106 H 540.525 -0.355119 -7.83396 0
M  V30 5107 N 538.028 1.39524 0.732853 0
M  V30 5108 C 539.256 1.40143 1.52209 0
M  V30 5109 C 539.671 -0.00348836 1.888 0
M  V30 5110 O 539.028 -0.975357 1.5425 0
M  V30 5111 C 539.079 2.27632 2.8083 0
M  V30 5112 O 538.8 3.62654 2.45792 0
M  V30 5113 C 540.301 2.36658 3.74844 0
M  V30 5114 H 537.521 0.478604 0.470297 0
M  V30 5115 H 540.065 1.83366 0.905388 0
M  V30 5116 H 538.22 1.87818 3.38826 0
M  V30 5117 H 538.634 4.08941 3.28431 0
M  V30 5118 H 540.108 3.02118 4.61984 0
M  V30 5119 H 540.585 1.38638 4.16745 0
M  V30 5120 H 541.191 2.76951 3.22766 0
M  V30 5121 N 539.506 -0.963266 1.24736 0
M  V30 5122 C 540.734 -1.74166 1.11686 0
M  V30 5123 C 541.149 -1.8589 -0.330187 0
M  V30 5124 O 540.506 -1.35042 -1.2276 0
M  V30 5125 C 540.557 -3.15989 1.75595 0
M  V30 5126 O 540.278 -3.04847 3.14642 0
M  V30 5127 C 541.779 -4.10145 1.68213 0
M  V30 5128 H 538.999 -0.546031 0.389989 0
M  V30 5129 H 541.543 -1.20907 1.64929 0
M  V30 5130 H 539.698 -3.66219 1.26343 0
M  V30 5131 H 540.112 -3.9425 3.4593 0
M  V30 5132 H 541.586 -5.07299 2.17604 0
M  V30 5133 H 542.063 -4.3445 0.644208 0
M  V30 5134 H 542.669 -3.65827 2.16912 0
M  V30 5135 N 540.985 -1.06182 -1.16461 0
M  V30 5136 C 542.21 -0.798599 -1.91408 0
M  V30 5137 C 542.635 0.640987 -1.76842 0
M  V30 5138 O 541.993 1.44652 -1.09296 0
M  V30 5139 C 542.041 -1.19665 -3.40165 0
M  V30 5140 O 541.145 -0.334768 -4.11039 0
M  V30 5141 H 540.486 -0.291961 -0.596368 0
M  V30 5142 H 543.016 -1.41732 -1.47557 0
M  V30 5143 H 543.026 -1.16772 -3.90933 0
M  V30 5144 H 541.701 -2.24526 -3.50087 0
M  V30 5145 H 540.278 -0.425168 -3.70468 0
M  V30 5146 N 542.463 1.3308 -0.844243 0
M  V30 5147 C 543.711 1.97215 -0.441676 0
M  V30 5148 C 544.032 1.67185 1.0037 0
M  V30 5149 O 543.302 0.973588 1.69994 0
M  V30 5150 H 541.882 0.72959 -0.160335 0
M  V30 5151 H 544.544 1.62348 -1.07838 0
M  V30 5152 H 543.64 3.06698 -0.57815 0
M  V30 5153 N 543.941 0.601185 1.45683 0
M  V30 5154 C 544.888 -0.121396 2.30481 0
M  V30 5155 C 545.858 -0.866232 1.41724 0
M  V30 5156 O 547.043 -0.85324 1.70659 0
M  V30 5157 C 544.183 -1.11704 3.26521 0
M  V30 5158 C 543.296 -0.373741 4.3038 0
M  V30 5159 C 542.431 -1.35854 5.13534 0
M  V30 5160 C 541.47 -0.602689 6.09126 0
M  V30 5161 N 540.607 -1.53645 6.85082 0
M  V30 5162 H 545.447 0.607732 2.91737 0
M  V30 5163 H 542.984 0.311502 1.43764 0
M  V30 5164 H 544.942 -1.70735 3.80664 0
M  V30 5165 H 543.572 -1.81366 2.67032 0
M  V30 5166 H 542.624 0.331962 3.78949 0
M  V30 5167 H 543.936 0.2163 4.98331 0
M  V30 5168 H 543.09 -2.02111 5.72046 0
M  V30 5169 H 541.829 -1.98251 4.45587 0
M  V30 5170 H 540.834 0.0735482 5.49751 0
M  V30 5171 H 542.059 0.0161467 6.79098 0
M  V30 5172 H 540.005 -2.14819 6.1983 0
M  V30 5173 H 539.922 -0.999688 7.49361 0
M  V30 5174 H 541.19 -2.1888 7.48139 0
M  V30 5175 N 545.419 -1.53889 0.339982 0
M  V30 5176 C 546.329 -2.28604 -0.526988 0
M  V30 5177 C 547.345 -1.33578 -1.11503 0
M  V30 5178 O 548.521 -1.66612 -1.13148 0
M  V30 5179 C 545.586 -3.04164 -1.66389 0
M  V30 5180 C 544.647 -4.14809 -1.10599 0
M  V30 5181 C 543.88 -4.86756 -2.18871 0
M  V30 5182 O 544.103 -4.58343 -3.39526 0
M  V30 5183 O 543.037 -5.73289 -1.83366 0
M  V30 5184 H 546.863 -3.03594 0.0802707 0
M  V30 5185 H 544.448 -1.4903 0.105141 0
M  V30 5186 H 546.33 -3.51427 -2.32544 0
M  V30 5187 H 545.005 -2.32035 -2.25703 0
M  V30 5188 H 543.912 -3.71857 -0.409067 0
M  V30 5189 H 545.245 -4.89029 -0.557771 0
M  V30 5190 N 546.897 -0.0685191 -1.57451 0
M  V30 5191 C 547.807 0.914677 -2.16034 0
M  V30 5192 C 548.823 1.32938 -1.12265 0
M  V30 5193 O 549.999 1.40275 -1.44516 0
M  V30 5194 C 547.064 2.16519 -2.70777 0
M  V30 5195 C 546.125 1.80721 -3.89408 0
M  V30 5196 C 545.358 2.9981 -4.41531 0
M  V30 5197 O 545.581 4.13727 -3.92666 0
M  V30 5198 O 544.515 2.79817 -5.32903 0
M  V30 5199 H 548.341 0.446364 -3.00402 0
M  V30 5200 H 545.926 0.154367 -1.486 0
M  V30 5201 H 547.808 2.89856 -3.05878 0
M  V30 5202 H 546.483 2.62454 -1.89471 0
M  V30 5203 H 545.39 1.04646 -3.59166 0
M  V30 5204 H 546.723 1.39571 -4.71997 0
M  V30 5205 N 548.375 1.56261 0.205012 0
M  V30 5206 C 549.338 1.92908 1.23771 0
M  V30 5207 C 550.338 0.809208 1.38955 0
M  V30 5208 O 551.528 1.07676 1.36936 0
M  V30 5209 C 548.66 2.19442 2.60879 0
M  V30 5210 H 549.853 2.85287 0.924728 0
M  V30 5211 H 547.406 1.49798 0.446125 0
M  V30 5212 H 548.141 1.29668 2.97248 0
M  V30 5213 H 547.926 3.0104 2.51232 0
M  V30 5214 H 549.416 2.48833 3.35368 0
M  V30 5215 N 549.853 -0.472356 1.50355 0
M  V30 5216 C 551.13 -1.23356 1.51798 0
M  V30 5217 C 551.51 -2.09469 0.26193 0
M  V30 5218 O 550.858 -2.15677 -0.754691 0
M  V30 5219 C 551.068 -2.06568 2.81302 0
M  V30 5220 C 552.416 -2.648 3.31913 0
M  V30 5221 O 553.44 -2.16812 2.82614 0
M  V30 5222 O 552.299 -3.52231 4.17846 0
M  V30 5223 H 549.393 -0.559707 0.608816 0
M  V30 5224 H 551.939 -0.48428 1.62643 0
M  V30 5225 H 550.711 -1.43103 3.64194 0
M  V30 5226 H 550.334 -2.88633 2.73454 0
M  V30 5227 N 551.331 -1.39911 -0.725443 0
M  V30 5228 C 552.261 -1.42138 -1.85254 0
M  V30 5229 C 553.242 -0.283513 -1.67721 0
M  V30 5230 O 554.427 -0.490717 -1.87898 0
M  V30 5231 C 551.557 -1.27354 -3.23107 0
M  V30 5232 C 550.511 -2.3864 -3.55296 0
M  V30 5233 C 549.837 -2.08939 -4.92188 0
M  V30 5234 C 551.137 -3.8097 -3.57295 0
M  V30 5235 H 552.831 -2.36461 -1.83648 0
M  V30 5236 H 550.377 -1.13817 -0.882138 0
M  V30 5237 H 552.33 -1.2753 -4.01639 0
M  V30 5238 H 551.054 -0.295025 -3.25265 0
M  V30 5239 H 549.713 -2.37696 -2.79099 0
M  V30 5240 H 549.361 -1.09502 -4.90936 0
M  V30 5241 H 549.061 -2.83491 -5.14691 0
M  V30 5242 H 550.585 -2.10781 -5.73065 0
M  V30 5243 H 551.999 -3.8379 -4.25885 0
M  V30 5244 H 550.396 -4.5496 -3.9132 0
M  V30 5245 H 551.466 -4.11261 -2.5689 0
M  V30 5246 N 552.809 0.956637 -1.25245 0
M  V30 5247 C 553.739 2.07058 -1.07931 0
M  V30 5248 C 554.72 1.70096 0.0110361 0
M  V30 5249 O 555.905 1.93555 -0.158121 0
M  V30 5250 C 553.035 3.40272 -0.695124 0
M  V30 5251 C 551.989 3.91235 -1.73549 0
M  V30 5252 C 551.315 5.20921 -1.20604 0
M  V30 5253 C 552.615 4.17837 -3.13385 0
M  V30 5254 H 554.309 2.218 -2.01109 0
M  V30 5255 H 551.855 1.06581 -0.968326 0
M  V30 5256 H 553.808 4.1765 -0.560949 0
M  V30 5257 H 552.532 3.25462 0.272355 0
M  V30 5258 H 551.191 3.16025 -1.85807 0
M  V30 5259 H 550.839 5.02479 -0.228846 0
M  V30 5260 H 550.539 5.55987 -1.90136 0
M  V30 5261 H 552.063 6.00897 -1.08421 0
M  V30 5262 H 553.477 4.8588 -3.04292 0
M  V30 5263 H 551.874 4.64154 -3.80369 0
M  V30 5264 H 552.944 3.2419 -3.60595 0
M  V30 5265 N 554.287 1.06798 1.15896 0
M  V30 5266 C 555.535 0.786211 1.8618 0
M  V30 5267 C 555.856 -0.689547 1.82401 0
M  V30 5268 O 555.126 -1.49913 1.26107 0
M  V30 5269 H 553.706 0.287843 0.689315 0
M  V30 5270 H 556.368 1.35055 1.40521 0
M  V30 5271 H 555.464 1.1157 2.91477 0
M  V30 5272 N 555.766 -1.3263 0.851289 0
M  V30 5273 C 557.012 -1.9766 0.453694 0
M  V30 5274 C 557.345 -1.67225 -0.987396 0
M  V30 5275 O 556.62 -0.958693 -1.69232 0
M  V30 5276 C 556.903 -3.5344 0.68936 0
M  V30 5277 C 556.756 -3.93517 2.17862 0
M  V30 5278 C 558.075 -4.39866 0.143555 0
M  V30 5279 H 555.194 -0.717989 0.166314 0
M  V30 5280 H 557.836 -1.57068 1.06909 0
M  V30 5281 H 555.986 -3.88147 0.165546 0
M  V30 5282 H 557.658 -3.69006 2.76826 0
M  V30 5283 H 555.901 -3.42798 2.65841 0
M  V30 5284 H 556.572 -5.02065 2.29422 0
M  V30 5285 H 559.048 -4.11875 0.591451 0
M  V30 5286 H 557.924 -5.47858 0.338043 0
M  V30 5287 H 558.185 -4.31696 -0.953466 0
M  V30 5288 N 557.244 -0.608902 -1.45362 0
M  V30 5289 C 558.66 -0.272659 -1.57254 0
M  V30 5290 C 558.86 1.22477 -1.60005 0
M  V30 5291 O 557.916 2.00785 -1.53106 0
M  V30 5292 C 559.229 -0.944991 -2.85465 0
M  V30 5293 C 560.777 -0.921033 -2.99142 0
M  V30 5294 C 561.252 -1.5734 -4.30126 0
M  V30 5295 N 562.743 -1.53895 -4.36887 0
M  V30 5296 C 563.478 -2.01286 -5.36909 0
M  V30 5297 N 562.974 -2.56768 -6.43461 0
M  V30 5298 N 564.767 -1.92046 -5.28275 0
M  V30 5299 H 556.918 -1.58117 -1.4182 0
M  V30 5300 H 559.181 -0.662437 -0.678146 0
M  V30 5301 H 558.887 -1.99941 -2.89338 0
M  V30 5302 H 558.761 -0.469079 -3.74272 0
M  V30 5303 H 561.148 0.124846 -2.94836 0
M  V30 5304 H 561.229 -1.43522 -2.11743 0
M  V30 5305 H 560.873 -2.61862 -4.35191 0
M  V30 5306 H 560.803 -1.03422 -5.16344 0
M  V30 5307 H 563.294 -1.13366 -3.60495 0
M  V30 5308 H 563.607 -2.9072 -7.16032 0
M  V30 5309 H 561.952 -2.60808 -6.44208 0
M  V30 5310 H 565.143 -1.48439 -4.43941 0
M  V30 5311 H 565.316 -2.29293 -6.06077 0
M  V30 5312 N 558.722 1.53707 -0.348139 0
M  V30 5313 C 559.654 2.22725 0.540946 0
M  V30 5314 C 560.667 1.2354 1.06027 0
M  V30 5315 O 561.856 1.49867 0.96964 0
M  V30 5316 C 558.956 2.89756 1.75768 0
M  V30 5317 C 558.129 4.15297 1.37285 0
M  V30 5318 C 557.188 4.65697 2.44976 0
M  V30 5319 O 556.214 5.29798 2.08092 0
M  V30 5320 N 557.416 4.42017 3.763 0
M  V30 5321 H 560.181 2.99658 -0.0501592 0
M  V30 5322 H 557.742 1.60979 -0.17248 0
M  V30 5323 H 559.734 3.20388 2.47252 0
M  V30 5324 H 558.304 2.16382 2.25605 0
M  V30 5325 H 557.524 3.9116 0.488584 0
M  V30 5326 H 558.812 4.96948 1.09179 0
M  V30 5327 H 558.21 3.9076 4.09051 0
M  V30 5328 H 556.767 4.77242 4.4394 0
M  V30 5329 N 560.2 0.0768682 1.57412 0
M  V30 5330 C 561.428 -0.59997 1.9801 0
M  V30 5331 C 561.843 -1.62842 0.955408 0
M  V30 5332 O 561.2 -1.8241 -0.057314 0
M  V30 5333 C 561.251 -1.26401 3.38681 0
M  V30 5334 O 560.972 -0.276723 4.37225 0
M  V30 5335 C 562.473 -2.0282 3.94182 0
M  V30 5336 H 559.693 -0.162239 0.651091 0
M  V30 5337 H 562.237 0.150771 2.03943 0
M  V30 5338 H 560.392 -1.96581 3.33819 0
M  V30 5339 H 560.806 -0.753744 5.19056 0
M  V30 5340 H 562.28 -2.44667 4.94815 0
M  V30 5341 H 562.757 -2.88678 3.31001 0
M  V30 5342 H 563.363 -1.37496 4.02461 0
M  V30 5343 N 561.678 -1.56367 -0.196722 0
M  V30 5344 C 562.588 -1.97617 -1.2643 0
M  V30 5345 C 563.604 -0.883598 -1.49895 0
M  V30 5346 O 564.78 -1.18921 -1.62541 0
M  V30 5347 C 561.845 -2.30595 -2.58895 0
M  V30 5348 C 560.906 -3.53551 -2.43516 0
M  V30 5349 C 560.139 -3.84946 -3.69665 0
M  V30 5350 O 560.362 -3.17655 -4.73763 0
M  V30 5351 O 559.296 -4.78379 -3.65291 0
M  V30 5352 H 563.122 -2.88648 -0.944233 0
M  V30 5353 H 560.707 -1.43901 -0.401592 0
M  V30 5354 H 562.589 -2.52889 -3.37083 0
M  V30 5355 H 561.264 -1.42732 -2.90533 0
M  V30 5356 H 560.171 -3.36507 -1.63445 0
M  V30 5357 H 561.504 -4.41875 -2.16812 0
M  V30 5358 N 563.156 0.464375 -1.50603 0
M  V30 5359 C 564.386 1.23727 -1.65454 0
M  V30 5360 C 564.794 1.86119 -0.340032 0
M  V30 5361 O 564.137 1.70301 0.688706 0
M  V30 5362 C 564.199 2.38153 -2.69301 0
M  V30 5363 C 563.863 1.96345 -4.12671 0
M  V30 5364 C 564.86 1.48215 -4.98326 0
M  V30 5365 C 562.545 2.04861 -4.58625 0
M  V30 5366 C 564.539 1.09152 -6.27985 0
M  V30 5367 C 562.226 1.65409 -5.88288 0
M  V30 5368 C 563.224 1.17634 -6.72794 0
M  V30 5369 O 562.912 0.787312 -8.00035 0
M  V30 5370 H 562.644 0.380075 -0.559034 0
M  V30 5371 H 565.198 0.559919 -1.97621 0
M  V30 5372 H 563.428 3.09081 -2.32392 0
M  V30 5373 H 565.117 3.00099 -2.73304 0
M  V30 5374 H 565.883 1.41052 -4.64036 0
M  V30 5375 H 561.762 2.40996 -3.92991 0
M  V30 5376 H 565.306 0.717909 -6.93896 0
M  V30 5377 H 561.203 1.72233 -6.22098 0
M  V30 5378 H 561.971 0.915567 -8.13363 0
M  V30 5379 N 564.634 1.40294 0.718013 0
M  V30 5380 C 565.882 1.38167 1.47494 0
M  V30 5381 C 566.203 -0.01607 1.94993 0
M  V30 5382 O 565.473 -0.970396 1.70177 0
M  V30 5383 H 564.053 0.508505 0.547203 0
M  V30 5384 H 566.715 1.75324 0.851322 0
M  V30 5385 H 565.811 2.05503 2.34894 0
M  V30 5386 N 566.112 -0.949982 1.2575 0
M  V30 5387 C 567.075 -2.02894 1.06615 0
M  V30 5388 C 568.075 -1.60791 0.0173905 0
M  V30 5389 O 569.265 -1.72249 0.260003 0
M  V30 5390 C 566.397 -3.35219 0.619751 0
M  V30 5391 H 567.59 -2.21302 2.02399 0
M  V30 5392 H 565.143 -1.12772 1.08223 0
M  V30 5393 H 565.878 -3.22508 -0.340486 0
M  V30 5394 H 565.663 -3.67129 1.37692 0
M  V30 5395 H 567.153 -4.14505 0.507443 0
M  V30 5396 N 567.59 -1.07411 -1.15328 0
M  V30 5397 C 568.836 -0.798831 -1.86404 0
M  V30 5398 C 569.169 0.673433 -1.8215 0
M  V30 5399 O 568.444 1.49428 -1.24505 0
M  V30 5400 C 568.727 -1.30846 -3.35487 0
M  V30 5401 C 568.58 -2.84532 -3.4837 0
M  V30 5402 C 569.899 -0.925486 -4.30259 0
M  V30 5403 H 567.018 -0.291659 -0.676834 0
M  V30 5404 H 569.66 -1.332 -1.35491 0
M  V30 5405 H 567.81 -0.854916 -3.78977 0
M  V30 5406 H 569.482 -3.3818 -3.13739 0
M  V30 5407 H 567.725 -3.22699 -2.8991 0
M  V30 5408 H 568.396 -3.15259 -4.53118 0
M  V30 5409 H 570.872 -1.3163 -3.94731 0
M  V30 5410 H 569.748 -1.3094 -5.33053 0
M  V30 5411 H 570.009 0.168525 -4.41779 0
M  V30 5412 N 569.068 1.32177 -0.85831 0
M  V30 5413 C 570.479 1.79381 -0.517621 0
M  V30 5414 C 570.83 1.70841 0.964769 0
M  V30 5415 O 569.955 1.26917 1.75274 0
M  V30 5416 C 570.55 3.25706 -0.932801 0
M  V30 5417 C 569.109 3.70851 -0.643953 0
M  V30 5418 C 568.256 2.53208 -1.13054 0
M  V30 5419 H 571.207 1.19424 -1.04516 0
M  V30 5420 H 571.228 3.79673 -0.250674 0
M  V30 5421 H 570.74 3.31889 -2.01174 0
M  V30 5422 H 568.841 3.70178 0.424112 0
M  V30 5423 H 568.954 4.63495 -1.21281 0
M  V30 5424 H 567.318 2.48676 -0.550679 0
M  V30 5425 H 568.101 2.62143 -2.21666 0
M  V30 5426 N 570.547 0.616602 1.45037 0
M  V30 5427 C 571.795 0.115103 2.01772 0
M  V30 5428 C 572.116 -1.2622 1.48639 0
M  V30 5429 O 571.386 -1.83563 0.684199 0
M  V30 5430 H 569.966 0.0395607 0.745952 0
M  V30 5431 H 572.628 0.800032 1.77723 0
M  V30 5432 H 571.724 0.0717274 3.12018 0
M  V30 5433 N 572.025 -1.5352 0.356285 0
M  V30 5434 C 572.935 -2.29151 -0.502712 0
M  V30 5435 C 573.951 -1.34753 -1.1008 0
M  V30 5436 O 575.127 -1.67803 -1.11374 0
M  V30 5437 C 572.192 -3.05911 -1.63154 0
M  V30 5438 C 571.253 -4.15958 -1.06194 0
M  V30 5439 C 570.486 -4.8905 -2.13696 0
M  V30 5440 O 570.709 -4.61919 -3.34645 0
M  V30 5441 O 569.643 -5.75202 -1.77275 0
M  V30 5442 H 573.469 -3.03492 0.112466 0
M  V30 5443 H 571.054 -1.4891 0.120942 0
M  V30 5444 H 572.936 -3.53874 -2.28804 0
M  V30 5445 H 571.611 -2.34415 -2.23229 0
M  V30 5446 H 570.518 -3.7227 -0.369603 0
M  V30 5447 H 571.851 -4.89593 -0.505872 0
M  V30 5448 N 573.503 -0.0852151 -1.57369 0
M  V30 5449 C 574.919 0.271436 -1.57275 0
M  V30 5450 C 575.119 1.69109 -1.09565 0
M  V30 5451 O 574.175 2.40549 -0.767611 0
M  V30 5452 C 575.488 0.0688638 -3.00621 0
M  V30 5453 C 577.036 0.137373 -3.12698 0
M  V30 5454 C 577.511 -0.0370832 -4.57985 0
M  V30 5455 N 579.002 0.0180794 -4.63196 0
M  V30 5456 C 579.737 -0.0922953 -5.73326 0
M  V30 5457 N 579.233 -0.256948 -6.92323 0
M  V30 5458 N 581.026 -0.0342702 -5.6209 0
M  V30 5459 H 573.177 -1.01288 -1.86693 0
M  V30 5460 H 575.44 -0.396138 -0.861266 0
M  V30 5461 H 575.146 -0.911277 -3.39689 0
M  V30 5462 H 575.02 0.815442 -3.6828 0
M  V30 5463 H 577.407 1.10801 -2.73509 0
M  V30 5464 H 577.488 -0.640532 -2.47651 0
M  V30 5465 H 577.132 -1.00455 -4.97867 0
M  V30 5466 H 577.062 0.760392 -5.21081 0
M  V30 5467 H 579.553 0.143202 -3.77629 0
M  V30 5468 H 579.866 -0.332949 -7.72082 0
M  V30 5469 H 578.211 -0.292487 -6.94384 0
M  V30 5470 H 581.402 0.0931605 -4.68007 0
M  V30 5471 H 581.575 -0.12374 -6.47882 0
M  V30 5472 N 574.981 1.5647 0.188427 0
M  V30 5473 C 575.911 1.98101 1.23606 0
M  V30 5474 C 576.892 0.853961 1.47111 0
M  V30 5475 O 578.077 1.11879 1.58735 0
M  V30 5476 C 575.207 2.32624 2.57882 0
M  V30 5477 C 574.161 3.48129 2.48978 0
M  V30 5478 C 573.487 3.68347 3.87588 0
M  V30 5479 C 574.787 4.82112 2.00911 0
M  V30 5480 H 576.481 2.85864 0.890068 0
M  V30 5481 H 574.027 1.37532 0.426714 0
M  V30 5482 H 575.98 2.60343 3.3136 0
M  V30 5483 H 574.704 1.41751 2.94235 0
M  V30 5484 H 573.363 3.20511 1.77956 0
M  V30 5485 H 573.011 2.74793 4.21305 0
M  V30 5486 H 572.711 4.46055 3.82503 0
M  V30 5487 H 574.235 3.98449 4.62678 0
M  V30 5488 H 575.649 5.08819 2.64151 0
M  V30 5489 H 574.046 5.63337 2.06814 0
M  V30 5490 H 575.116 4.75249 0.96262 0
M  V30 5491 N 576.459 -0.456382 1.50847 0
M  V30 5492 C 577.389 -1.56025 1.73719 0
M  V30 5493 C 578.37 -1.5967 0.586473 0
M  V30 5494 O 579.555 -1.75702 0.827185 0
M  V30 5495 C 576.685 -2.94251 1.84483 0
M  V30 5496 C 575.639 -3.05471 2.99786 0
M  V30 5497 C 574.965 -4.45489 2.95709 0
M  V30 5498 C 576.265 -2.81318 4.40065 0
M  V30 5499 H 577.959 -1.37138 2.66146 0
M  V30 5500 H 575.505 -0.658299 1.28072 0
M  V30 5501 H 577.458 -3.71417 1.99067 0
M  V30 5502 H 576.182 -3.14328 0.886891 0
M  V30 5503 H 574.841 -2.30741 2.84876 0
M  V30 5504 H 574.489 -4.62505 1.97732 0
M  V30 5505 H 574.189 -4.53929 3.73125 0
M  V30 5506 H 575.713 -5.24655 3.12362 0
M  V30 5507 H 577.127 -3.48226 4.55425 0
M  V30 5508 H 575.524 -3.01188 5.19043 0
M  V30 5509 H 576.594 -1.7706 4.51418 0
M  V30 5510 N 577.937 -1.40673 -0.710563 0
M  V30 5511 C 578.847 -1.43663 -1.85467 0
M  V30 5512 C 579.863 -0.328721 -1.70867 0
M  V30 5513 O 581.039 -0.574098 -1.93044 0
M  V30 5514 C 578.104 -1.30226 -3.21313 0
M  V30 5515 C 577.165 -2.51204 -3.48131 0
M  V30 5516 C 576.398 -2.38398 -4.77495 0
M  V30 5517 O 576.621 -1.40048 -5.5294 0
M  V30 5518 O 575.555 -3.2787 -5.04762 0
M  V30 5519 H 579.381 -2.40156 -1.859 0
M  V30 5520 H 576.966 -1.22049 -0.861652 0
M  V30 5521 H 578.848 -1.2496 -4.02446 0
M  V30 5522 H 577.523 -0.368419 -3.21597 0
M  V30 5523 H 576.43 -2.62048 -2.66987 0
M  V30 5524 H 577.763 -3.43366 -3.52648 0
M  V30 5525 N 579.415 0.9433 -1.26252 0
M  V30 5526 C 580.378 2.02326 -1.07689 0
M  V30 5527 C 581.378 1.60779 -0.0259174 0
M  V30 5528 O 582.568 1.72108 -0.269134 0
M  V30 5529 C 579.7 3.34886 -0.63752 0
M  V30 5530 H 580.893 2.20225 -2.0357 0
M  V30 5531 H 578.446 1.12197 -1.08819 0
M  V30 5532 H 579.181 3.22684 0.323377 0
M  V30 5533 H 578.966 3.66393 -1.39637 0
M  V30 5534 H 580.456 4.14231 -0.529418 0
M  V30 5535 N 580.893 1.08022 1.14757 0
M  V30 5536 C 582.121 0.828847 1.89572 0
M  V30 5537 C 582.536 -0.618621 1.78377 0
M  V30 5538 O 581.893 -1.42482 1.1404 0
M  V30 5539 C 581.944 1.23677 3.39685 0
M  V30 5540 O 581.665 2.62746 3.50566 0
M  V30 5541 C 583.166 1.01569 4.31507 0
M  V30 5542 H 580.386 0.299196 0.600602 0
M  V30 5543 H 582.93 1.43846 1.45357 0
M  V30 5544 H 581.085 0.671347 3.81539 0
M  V30 5545 H 581.499 2.79573 4.43778 0
M  V30 5546 H 582.973 1.35055 5.35223 0
M  V30 5547 H 583.45 -0.0475433 4.39174 0
M  V30 5548 H 584.056 1.56636 3.95405 0
M  V30 5549 N 582.371 -1.3172 0.865308 0
M  V30 5550 C 583.619 -1.96487 0.472995 0
M  V30 5551 C 583.94 -1.68761 -0.976975 0
M  V30 5552 O 583.21 -1.00051 -1.68424 0
M  V30 5553 H 581.79 -0.726947 0.171922 0
M  V30 5554 H 584.452 -1.60612 1.10407 0
M  V30 5555 H 583.548 -3.0574 0.62687 0
M  V30 5556 N 583.85 -0.624285 -1.44708 0
M  V30 5557 C 584.797 0.0847135 -2.30644 0
M  V30 5558 C 585.767 0.843575 -1.43084 0
M  V30 5559 O 586.952 0.825982 -1.71995 0
M  V30 5560 C 584.091 1.06495 -3.28257 0
M  V30 5561 C 583.205 0.305224 -4.3092 0
M  V30 5562 C 582.34 1.27667 -5.1563 0
M  V30 5563 C 581.379 0.505706 -6.10007 0
M  V30 5564 N 580.516 1.42727 -6.8744 0
M  V30 5565 H 585.356 -0.654068 -2.90733 0
M  V30 5566 H 582.893 -0.334334 -1.4325 0
M  V30 5567 H 584.851 1.64658 -3.83332 0
M  V30 5568 H 583.481 1.77094 -2.69884 0
M  V30 5569 H 582.533 -0.392207 -3.78373 0
M  V30 5570 H 583.845 -0.295553 -4.97924 0
M  V30 5571 H 582.999 1.92984 -5.75189 0
M  V30 5572 H 581.738 1.91137 -4.48685 0
M  V30 5573 H 580.743 -0.160999 -5.49564 0
M  V30 5574 H 581.968 -0.124183 -6.78986 0
M  V30 5575 H 579.913 2.04931 -6.23169 0
M  V30 5576 H 579.831 0.880345 -7.50857 0
M  V30 5577 H 581.099 2.0695 -7.51526 0
M  V30 5578 N 585.328 1.53329 -0.364422 0
M  V30 5579 C 586.574 2.01537 0.225969 0
M  V30 5580 C 586.907 1.25128 1.48515 0
M  V30 5581 O 586.182 0.344653 1.91422 0
M  V30 5582 C 586.465 3.56339 0.519092 0
M  V30 5583 C 586.318 4.43441 -0.753639 0
M  V30 5584 C 587.637 4.19833 1.32015 0
M  V30 5585 H 584.756 0.732573 0.0806548 0
M  V30 5586 H 587.398 1.83597 -0.489084 0
M  V30 5587 H 585.548 3.71756 1.12825 0
M  V30 5588 H 587.22 4.39823 -1.39116 0
M  V30 5589 H 585.463 4.11457 -1.37424 0
M  V30 5590 H 586.134 5.49699 -0.503517 0
M  V30 5591 H 588.61 4.08242 0.804859 0
M  V30 5592 H 587.486 5.28177 1.49399 0
M  V30 5593 H 587.747 3.75821 2.32832 0
M  V30 5594 N 586.806 0.0935595 1.57322 0
M  V30 5595 C 588.052 -0.565234 1.95388 0
M  V30 5596 C 588.407 -1.65888 0.974632 0
M  V30 5597 O 587.7 -1.916 0.000376385 0
M  V30 5598 C 587.894 -1.16692 3.37813 0
M  V30 5599 C 587.723 -0.133091 4.49503 0
M  V30 5600 C 586.493 0.289884 5.04468 0
M  V30 5601 C 588.691 0.638141 5.10326 0
M  V30 5602 N 586.673 1.31214 5.99713 0
M  V30 5603 C 588.044 1.51227 6.01274 0
M  V30 5604 C 590.099 0.691827 4.9307 0
M  V30 5605 C 588.802 2.43536 6.76818 0
M  V30 5606 C 590.828 1.60251 5.69274 0
M  V30 5607 C 590.19 2.46427 6.59889 0
M  V30 5608 H 586.289 -0.177212 0.761656 0
M  V30 5609 H 588.873 0.175769 1.93905 0
M  V30 5610 H 587.044 -1.87775 3.39993 0
M  V30 5611 H 588.776 -1.78795 3.63063 0
M  V30 5612 H 585.531 -0.0975541 4.735 0
M  V30 5613 H 585.955 1.82143 6.52038 0
M  V30 5614 H 590.597 0.0397431 4.22781 0
M  V30 5615 H 588.315 3.0977 7.4637 0
M  V30 5616 H 591.901 1.64917 5.57937 0
M  V30 5617 H 590.781 3.15751 7.17824 0
M  V30 5618 N 588.284 -1.56567 -0.180126 0
M  V30 5619 C 589.53 -1.81761 -0.899497 0
M  V30 5620 C 589.863 -0.670015 -1.82276 0
M  V30 5621 O 589.138 0.328575 -1.91705 0
M  V30 5622 C 589.421 -3.17296 -1.7028 0
M  V30 5623 C 589.274 -4.4257 -0.803255 0
M  V30 5624 C 590.593 -3.49678 -2.67233 0
M  V30 5625 H 587.712 -0.661192 -0.325567 0
M  V30 5626 H 590.354 -1.89272 -0.16612 0
M  V30 5627 H 588.504 -3.11023 -2.32802 0
M  V30 5628 H 590.176 -4.60902 -0.191585 0
M  V30 5629 H 588.419 -4.33658 -0.110796 0
M  V30 5630 H 589.09 -5.33935 -1.40064 0
M  V30 5631 H 591.566 -3.56347 -2.14839 0
M  V30 5632 H 590.442 -4.45605 -3.20511 0
M  V30 5633 H 590.703 -2.73932 -3.47007 0
M  V30 5634 N 589.762 0.448376 -1.51087 0
M  V30 5635 C 590.692 1.55102 -1.74544 0
M  V30 5636 C 591.673 1.59357 -0.594932 0
M  V30 5637 O 592.858 1.75261 -0.836491 0
M  V30 5638 C 589.988 2.93268 -1.86041 0
M  V30 5639 C 588.942 3.03877 -3.01402 0
M  V30 5640 C 588.268 4.43914 -2.98068 0
M  V30 5641 C 589.568 2.7898 -4.41551 0
M  V30 5642 H 591.262 1.35724 -2.66869 0
M  V30 5643 H 588.808 0.651498 -1.28419 0
M  V30 5644 H 590.761 3.70356 -2.01034 0
M  V30 5645 H 589.485 3.13853 -0.903548 0
M  V30 5646 H 588.144 2.29227 -2.86096 0
M  V30 5647 H 587.792 4.6145 -2.00182 0
M  V30 5648 H 587.492 4.51944 -3.75527 0
M  V30 5649 H 589.016 5.22991 -3.1514 0
M  V30 5650 H 590.43 3.45805 -4.57265 0
M  V30 5651 H 588.827 2.98431 -5.20633 0
M  V30 5652 H 589.897 1.74663 -4.5235 0
M  V30 5653 N 591.24 1.41047 0.703093 0
M  V30 5654 C 592.15 1.44645 1.84703 0
M  V30 5655 C 593.166 0.337778 1.7069 0
M  V30 5656 O 594.342 0.584327 1.92737 0
M  V30 5657 C 591.407 1.31928 3.20618 0
M  V30 5658 C 590.468 2.53047 3.46794 0
M  V30 5659 C 589.701 2.40927 4.76224 0
M  V30 5660 O 589.924 1.42978 5.5219 0
M  V30 5661 O 588.858 3.30543 5.03016 0
M  V30 5662 H 592.684 2.41139 1.84624 0
M  V30 5663 H 590.269 1.22504 0.855167 0
M  V30 5664 H 592.151 1.27092 4.01778 0
M  V30 5665 H 590.826 0.385469 3.21397 0
M  V30 5666 H 589.733 2.6346 2.65593 0
M  V30 5667 H 591.066 3.45231 3.50822 0
M  V30 5668 N 592.718 -0.936591 1.26751 0
M  V30 5669 C 593.628 -2.06949 1.10496 0
M  V30 5670 C 594.644 -1.7396 0.037271 0
M  V30 5671 O 595.82 -1.99941 0.241944 0
M  V30 5672 C 592.885 -3.38612 0.744491 0
M  V30 5673 C 591.946 -3.85355 1.89209 0
M  V30 5674 C 591.179 -5.10735 1.54873 0
M  V30 5675 O 591.402 -5.68602 0.452546 0
M  V30 5676 O 590.336 -5.52632 2.38499 0
M  V30 5677 H 594.162 -2.23571 2.05547 0
M  V30 5678 H 591.747 -1.05428 1.05855 0
M  V30 5679 H 593.629 -4.17711 0.556396 0
M  V30 5680 H 592.304 -3.23218 -0.176582 0
M  V30 5681 H 591.211 -3.07182 2.13518 0
M  V30 5682 H 592.544 -4.05277 2.79305 0
M  V30 5683 N 594.196 -1.08629 -1.14182 0
M  V30 5684 C 595.106 -0.730126 -2.22949 0
M  V30 5685 C 596.122 0.26436 -1.7198 0
M  V30 5686 O 597.298 0.107742 -2.01112 0
M  V30 5687 C 594.363 -0.147227 -3.46387 0
M  V30 5688 C 593.424 -1.19662 -4.12286 0
M  V30 5689 C 592.657 -0.641437 -5.29831 0
M  V30 5690 O 592.88 0.538351 -5.67854 0
M  V30 5691 O 591.814 -1.39257 -5.85569 0
M  V30 5692 H 595.64 -1.63753 -2.55771 0
M  V30 5693 H 593.225 -0.860118 -1.22157 0
M  V30 5694 H 595.107 0.174923 -4.21037 0
M  V30 5695 H 593.782 0.733304 -3.15285 0
M  V30 5696 H 592.689 -1.57133 -3.395 0
M  V30 5697 H 594.022 -2.0495 -4.475 0
M  V30 5698 N 595.674 1.31259 -0.872281 0
M  V30 5699 C 596.922 1.96233 -0.483409 0
M  V30 5700 C 597.243 1.69276 0.968012 0
M  V30 5701 O 596.513 1.00943 1.67891 0
M  V30 5702 H 595.093 0.726025 -0.175774 0
M  V30 5703 H 597.755 1.60024 -1.11258 0
M  V30 5704 H 596.851 3.05403 -0.643075 0
M  V30 5705 N 597.152 0.631951 1.44375 0
M  V30 5706 C 598.429 0.067646 1.95483 0
M  V30 5707 C 598.809 -1.40683 1.57389 0
M  V30 5708 O 598.157 -2.12167 0.848375 0
M  V30 5709 C 598.367 0.291392 3.47781 0
M  V30 5710 C 599.715 0.185028 4.24197 0
M  V30 5711 O 600.739 0.222803 3.55503 0
M  V30 5712 O 599.598 0.0906642 5.46425 0
M  V30 5713 H 596.692 -0.0218379 0.826712 0
M  V30 5714 H 599.238 0.703711 1.54421 0
M  V30 5715 H 598.01 1.31449 3.68561 0
M  V30 5716 H 597.633 -0.378772 3.95792 0
M  V30 5717 N 598.631 -1.53133 0.372548 0
M  V30 5718 C 599.541 -2.29671 -0.478379 0
M  V30 5719 C 600.557 -1.35913 -1.08644 0
M  V30 5720 O 601.733 -1.68975 -1.09588 0
M  V30 5721 C 598.798 -3.07625 -1.599 0
M  V30 5722 C 597.859 -4.17061 -1.01776 0
M  V30 5723 C 597.092 -4.91289 -2.08497 0
M  V30 5724 O 597.315 -4.65442 -3.29727 0
M  V30 5725 O 596.249 -5.7705 -1.71164 0
M  V30 5726 H 600.075 -3.03355 0.144649 0
M  V30 5727 H 597.66 -1.48773 0.136729 0
M  V30 5728 H 599.542 -3.56281 -2.25038 0
M  V30 5729 H 598.217 -2.3677 -2.2073 0
M  V30 5730 H 597.124 -3.72641 -0.330098 0
M  V30 5731 H 598.457 -4.90102 -0.453915 0
M  V30 5732 N 600.109 -0.101901 -1.5727 0
M  V30 5733 C 601.019 0.868647 -2.17926 0
M  V30 5734 C 602.035 1.30527 -1.1506 0
M  V30 5735 O 603.211 1.37178 -1.47459 0
M  V30 5736 C 600.276 2.10727 -2.75309 0
M  V30 5737 C 599.337 1.7242 -3.93154 0
M  V30 5738 C 598.57 2.90377 -4.47791 0
M  V30 5739 O 598.793 4.05305 -4.01353 0
M  V30 5740 O 597.727 2.6845 -5.38719 0
M  V30 5741 H 601.553 0.382544 -3.01281 0
M  V30 5742 H 599.138 0.122812 -1.48894 0
M  V30 5743 H 601.02 2.83303 -3.11958 0
M  V30 5744 H 599.695 2.58376 -1.94996 0
M  V30 5745 H 598.602 0.970039 -3.61305 0
M  V30 5746 H 599.935 1.29528 -4.74851 0
M  V30 5747 N 601.587 1.56661 0.17182 0
M  V30 5748 C 603.003 1.50768 0.52357 0
M  V30 5749 C 603.203 0.806072 1.84675 0
M  V30 5750 O 602.259 0.366233 2.4983 0
M  V30 5751 C 603.572 2.955 0.556793 0
M  V30 5752 C 605.12 3.06303 0.644029 0
M  V30 5753 C 605.595 4.52492 0.708148 0
M  V30 5754 N 607.086 4.56737 0.771051 0
M  V30 5755 C 607.821 5.67196 0.841229 0
M  V30 5756 N 607.317 6.87287 0.872272 0
M  V30 5757 N 609.11 5.55165 0.88021 0
M  V30 5758 H 601.261 2.00679 -0.695817 0
M  V30 5759 H 603.524 0.914219 -0.250814 0
M  V30 5760 H 603.23 3.49986 -0.346774 0
M  V30 5761 H 603.104 3.50119 1.40346 0
M  V30 5762 H 605.491 2.51851 1.53802 0
M  V30 5763 H 605.572 2.5477 -0.229297 0
M  V30 5764 H 605.216 5.07575 -0.181585 0
M  V30 5765 H 605.146 5.01781 1.59761 0
M  V30 5766 H 607.637 3.70274 0.755364 0
M  V30 5767 H 607.95 7.6722 0.92698 0
M  V30 5768 H 606.295 6.89898 0.840557 0
M  V30 5769 H 609.486 4.60263 0.852956 0
M  V30 5770 H 609.659 6.41271 0.931439 0
M  V30 5771 N 603.065 -0.440357 1.51323 0
M  V30 5772 C 603.975 -1.55955 1.75258 0
M  V30 5773 C 604.991 -1.61933 0.636687 0
M  V30 5774 O 606.167 -1.79231 0.918593 0
M  V30 5775 C 603.232 -2.9196 1.86977 0
M  V30 5776 C 602.293 -2.96122 3.10822 0
M  V30 5777 C 601.526 -4.2564 3.21973 0
M  V30 5778 O 601.749 -5.17851 2.39137 0
M  V30 5779 O 600.683 -4.36025 4.14929 0
M  V30 5780 H 604.509 -1.38673 2.70191 0
M  V30 5781 H 602.094 -0.623055 1.35788 0
M  V30 5782 H 603.976 -3.72682 1.96688 0
M  V30 5783 H 602.651 -3.09375 0.952307 0
M  V30 5784 H 601.558 -2.14366 3.06591 0
M  V30 5785 H 602.891 -2.83651 4.02247 0
M  V30 5786 N 604.543 -1.41418 -0.695603 0
M  V30 5787 C 605.506 -1.42988 -1.79129 0
M  V30 5788 C 606.506 -0.320514 -1.57573 0
M  V30 5789 O 607.696 -0.58039 -1.64247 0
M  V30 5790 C 604.828 -1.24122 -3.175 0
M  V30 5791 H 606.021 -2.40526 -1.7913 0
M  V30 5792 H 603.574 -1.2756 -0.903225 0
M  V30 5793 H 604.309 -0.274253 -3.23138 0
M  V30 5794 H 604.094 -2.045 -3.34547 0
M  V30 5795 H 605.584 -1.28056 -3.97481 0
M  V30 5796 N 606.021 0.929856 -1.27246 0
M  V30 5797 C 606.931 2.0636 -1.11592 0
M  V30 5798 C 607.947 1.73938 -0.046496 0
M  V30 5799 O 609.123 1.9981 -0.252544 0
M  V30 5800 C 606.188 3.38213 -0.762437 0
M  V30 5801 C 605.249 3.84346 -1.9125 0
M  V30 5802 C 604.482 5.09906 -1.57579 0
M  V30 5803 O 604.705 5.68354 -0.482694 0
M  V30 5804 O 603.639 5.51359 -2.41426 0
M  V30 5805 H 607.465 2.22478 -2.0673 0
M  V30 5806 H 605.05 1.04865 -1.06413 0
M  V30 5807 H 606.932 4.1741 -0.57854 0
M  V30 5808 H 605.607 3.23307 0.159439 0
M  V30 5809 H 604.514 3.06045 -2.15144 0
M  V30 5810 H 605.847 4.0379 -2.81451 0
M  V30 5811 N 607.499 1.09233 1.13605 0
M  V30 5812 C 608.745 0.828385 1.8511 0
M  V30 5813 C 609.078 -0.64437 1.83198 0
M  V30 5814 O 608.353 -1.47428 1.26867 0
M  V30 5815 C 608.636 1.36167 3.33363 0
M  V30 5816 C 608.489 2.90038 3.438 0
M  V30 5817 C 609.808 0.993819 4.28732 0
M  V30 5818 H 606.927 0.30239 0.672108 0
M  V30 5819 H 609.569 1.35339 1.33355 0
M  V30 5820 H 607.719 0.9151 3.77569 0
M  V30 5821 H 609.391 3.43128 3.08319 0
M  V30 5822 H 607.634 3.27271 2.84739 0
M  V30 5823 H 608.305 3.22428 4.48045 0
M  V30 5824 H 610.781 1.37893 3.92587 0
M  V30 5825 H 609.657 1.39403 5.30903 0
M  V30 5826 H 609.918 -0.0982206 4.41991 0
M  V30 5827 N 608.977 -1.30795 0.87923 0
M  V30 5828 C 610.202 -2.01063 0.508769 0
M  V30 5829 C 610.627 -1.65508 -0.893803 0
M  V30 5830 O 609.985 -0.868616 -1.59138 0
M  V30 5831 C 610.033 -3.54054 0.683991 0
M  V30 5832 O 609.137 -4.11498 -0.272654 0
M  V30 5833 H 608.478 -0.632786 0.201191 0
M  V30 5834 H 611.008 -1.66776 1.18519 0
M  V30 5835 H 611.018 -4.03845 0.580798 0
M  V30 5836 H 609.693 -3.79271 1.70665 0
M  V30 5837 H 608.27 -3.72695 -0.12364 0
M  V30 5838 N 610.455 -0.639598 -1.44038 0
M  V30 5839 C 611.866 -0.228866 -1.85292 0
M  V30 5840 C 612.217 1.22161 -1.53529 0
M  V30 5841 O 611.342 1.93064 -0.977518 0
M  V30 5842 C 611.937 -0.408592 -3.36327 0
M  V30 5843 C 610.496 -0.0522953 -3.76364 0
M  V30 5844 C 609.643 -0.717959 -2.67844 0
M  V30 5845 H 612.594 -0.844194 -1.34384 0
M  V30 5846 H 612.615 0.349968 -3.78887 0
M  V30 5847 H 612.127 -1.46435 -3.59414 0
M  V30 5848 H 610.228 1.0014 -3.58891 0
M  V30 5849 H 610.341 -0.468261 -4.76806 0
M  V30 5850 H 608.705 -0.152459 -2.54243 0
M  V30 5851 H 609.488 -1.77648 -2.93762 0
M  V30 5852 N 611.933 1.52934 -0.380664 0
M  V30 5853 C 613.18 2.01467 0.204278 0
M  V30 5854 C 613.508 1.26744 1.47533 0
M  V30 5855 O 612.763 0.353723 1.92477 0
M  V30 5856 C 613.062 3.5349 0.527199 0
M  V30 5857 C 612.728 4.46171 -0.651295 0
M  V30 5858 C 611.39 4.71227 -0.974619 0
M  V30 5859 C 613.742 5.00909 -1.44012 0
M  V30 5860 C 611.07 5.4827 -2.08847 0
M  V30 5861 C 613.422 5.7917 -2.5445 0
M  V30 5862 C 612.086 6.02507 -2.87301 0
M  V30 5863 H 611.356 0.73722 0.0747504 0
M  V30 5864 H 614.003 1.84411 -0.516234 0
M  V30 5865 H 612.308 3.68574 1.32892 0
M  V30 5866 H 614.005 3.88529 0.992283 0
M  V30 5867 H 610.595 4.26829 -0.389276 0
M  V30 5868 H 614.779 4.81485 -1.20357 0
M  V30 5869 H 610.035 5.64567 -2.34679 0
M  V30 5870 H 614.209 6.20588 -3.1598 0
M  V30 5871 H 611.836 6.61989 -3.7373 0
M  V30 5872 N 613.412 0.11024 1.57214 0
M  V30 5873 C 614.823 -0.416527 1.81994 0
M  V30 5874 C 615.174 -1.67183 1.02686 0
M  V30 5875 O 614.299 -2.14823 0.260782 0
M  V30 5876 C 614.894 -0.762466 3.30109 0
M  V30 5877 C 613.453 -1.23391 3.556 0
M  V30 5878 C 612.6 -0.238166 2.76275 0
M  V30 5879 H 615.551 0.335491 1.55113 0
M  V30 5880 H 615.572 -1.62068 3.44259 0
M  V30 5881 H 615.084 0.151346 3.87805 0
M  V30 5882 H 613.185 -2.16492 3.03253 0
M  V30 5883 H 613.298 -1.18528 4.64207 0
M  V30 5884 H 611.662 -0.723421 2.4421 0
M  V30 5885 H 612.445 0.668591 3.36727 0
M  V30 5886 N 614.89 -1.56749 -0.16351 0
M  V30 5887 C 615.837 -1.97011 -1.2023 0
M  V30 5888 C 616.807 -0.835186 -1.43575 0
M  V30 5889 O 617.992 -1.09594 -1.56185 0
M  V30 5890 C 615.132 -2.34186 -2.53478 0
M  V30 5891 C 614.245 -3.60893 -2.37446 0
M  V30 5892 C 613.38 -3.87245 -3.63614 0
M  V30 5893 C 612.419 -5.07274 -3.42548 0
M  V30 5894 N 611.556 -5.29719 -4.60806 0
M  V30 5895 H 616.396 -2.85562 -0.851958 0
M  V30 5896 H 613.933 -1.41292 -0.409257 0
M  V30 5897 H 615.891 -2.53764 -3.31149 0
M  V30 5898 H 614.521 -1.48736 -2.86492 0
M  V30 5899 H 613.573 -3.49185 -1.50911 0
M  V30 5900 H 614.885 -4.48722 -2.1783 0
M  V30 5901 H 614.039 -4.07232 -4.49719 0
M  V30 5902 H 612.778 -2.97806 -3.86216 0
M  V30 5903 H 611.783 -4.87177 -2.5483 0
M  V30 5904 H 613.008 -5.98251 -3.2136 0
M  V30 5905 H 610.954 -4.43233 -4.83612 0
M  V30 5906 H 610.871 -6.11786 -4.44132 0
M  V30 5907 H 612.139 -5.54192 -5.48171 0
M  V30 5908 N 616.368 0.432326 -1.51554 0
M  V30 5909 C 617.3 1.54357 -1.6943 0
M  V30 5910 C 618.313 1.52311 -0.574897 0
M  V30 5911 O 619.502 1.56997 -0.849369 0
M  V30 5912 C 616.602 2.93273 -1.69836 0
M  V30 5913 C 615.775 3.19768 -2.98442 0
M  V30 5914 C 614.834 4.38433 -2.90969 0
M  V30 5915 O 613.86 4.36842 -3.64908 0
M  V30 5916 N 615.062 5.42276 -2.07163 0
M  V30 5917 H 617.827 1.39426 -2.65293 0
M  V30 5918 H 615.388 0.621331 -1.49503 0
M  V30 5919 H 617.38 3.70687 -1.62399 0
M  V30 5920 H 615.95 3.01777 -0.815456 0
M  V30 5921 H 615.17 2.30607 -3.19709 0
M  V30 5922 H 616.458 3.343 -3.83563 0
M  V30 5923 H 615.856 5.46407 -1.46477 0
M  V30 5924 H 614.413 6.18524 -2.05601 0
M  V30 5925 N 617.846 1.41785 0.688094 0
M  V30 5926 C 619.257 1.3701 1.26828 0
M  V30 5927 C 619.608 0.056835 1.96118 0
M  V30 5928 O 618.733 -0.84475 1.99231 0
M  V30 5929 C 619.328 2.48168 2.30648 0
M  V30 5930 C 617.887 2.46766 2.84224 0
M  V30 5931 C 617.034 2.27633 1.58361 0
M  V30 5932 H 619.985 1.51192 0.482351 0
M  V30 5933 H 620.006 2.17655 3.121 0
M  V30 5934 H 619.518 3.43735 1.80188 0
M  V30 5935 H 617.619 1.54978 3.3884 0
M  V30 5936 H 617.732 3.43342 3.34145 0
M  V30 5937 H 616.096 1.75648 1.84445 0
M  V30 5938 H 616.879 3.25238 1.09887 0
M  V30 5939 N 619.324 -0.923095 1.27737 0
M  V30 5940 C 620.256 -2.02871 1.06658 0
M  V30 5941 C 621.269 -1.62786 0.0212095 0
M  V30 5942 O 622.458 -1.76548 0.263267 0
M  V30 5943 C 619.558 -3.33603 0.59682 0
M  V30 5944 C 618.731 -4.02354 1.71551 0
M  V30 5945 C 617.79 -5.11364 1.24071 0
M  V30 5946 O 616.816 -5.35075 1.94123 0
M  V30 5947 N 618.018 -5.80416 0.0988444 0
M  V30 5948 H 620.783 -2.21515 2.01869 0
M  V30 5949 H 618.344 -1.09378 1.19365 0
M  V30 5950 H 620.336 -4.03845 0.262984 0
M  V30 5951 H 618.906 -3.11499 -0.262187 0
M  V30 5952 H 618.126 -3.25786 2.2194 0
M  V30 5953 H 619.414 -4.45035 2.46619 0
M  V30 5954 H 618.812 -5.63611 -0.485743 0
M  V30 5955 H 617.369 -6.51563 -0.17578 0
M  V30 5956 N 620.802 -1.09834 -1.13024 0
M  V30 5957 C 622.048 -0.83819 -1.84668 0
M  V30 5958 C 622.381 0.634645 -1.83537 0
M  V30 5959 O 621.656 1.46753 -1.27647 0
M  V30 5960 C 621.939 -1.37933 -3.32636 0
M  V30 5961 C 621.792 -2.91857 -3.42257 0
M  V30 5962 C 623.111 -1.01654 -4.28199 0
M  V30 5963 H 620.23 -0.30595 -0.670495 0
M  V30 5964 H 622.872 -1.36044 -1.32635 0
M  V30 5965 H 621.022 -0.935111 -3.77078 0
M  V30 5966 H 622.694 -3.44759 -3.06495 0
M  V30 5967 H 620.937 -3.28776 -2.83 0
M  V30 5968 H 621.608 -3.24799 -4.46329 0
M  V30 5969 H 624.084 -1.39973 -3.9185 0
M  V30 5970 H 622.96 -1.42217 -5.30156 0
M  V30 5971 H 623.221 0.0747794 -4.42037 0
M  V30 5972 N 622.28 1.30327 -0.886154 0
M  V30 5973 C 623.21 2.30549 -0.370028 0
M  V30 5974 C 624.191 1.61039 0.547751 0
M  V30 5975 O 625.376 1.8864 0.461353 0
M  V30 5976 C 622.506 3.44808 0.415275 0
M  V30 5977 C 621.46 4.26024 -0.41085 0
M  V30 5978 C 620.786 5.32347 0.501128 0
M  V30 5979 C 622.086 4.95433 -1.65359 0
M  V30 5980 H 623.78 2.73969 -1.20754 0
M  V30 5981 H 621.326 1.3171 -0.582097 0
M  V30 5982 H 623.279 4.13986 0.78699 0
M  V30 5983 H 622.003 3.00197 1.28644 0
M  V30 5984 H 620.662 3.58535 -0.764719 0
M  V30 5985 H 620.31 4.83982 1.37004 0
M  V30 5986 H 620.01 5.87581 -0.0478356 0
M  V30 5987 H 621.534 6.0438 0.869333 0
M  V30 5988 H 622.948 5.5712 -1.35239 0
M  V30 5989 H 621.345 5.60537 -2.14284 0
M  V30 5990 H 622.415 4.21493 -2.39733 0
M  V30 5991 N 623.758 0.647228 1.43697 0
M  V30 5992 C 625.006 0.157876 2.01482 0
M  V30 5993 C 625.327 -1.23039 1.51282 0
M  V30 5994 O 624.597 -1.82071 0.722982 0
M  V30 5995 H 623.177 0.0553745 0.744945 0
M  V30 5996 H 625.839 0.83755 1.75986 0
M  V30 5997 H 624.935 0.137895 3.11795 0
M  V30 5998 N 625.236 -1.5273 0.388769 0
M  V30 5999 C 626.464 -2.05992 -0.193677 0
M  V30 6000 C 626.879 -1.26053 -1.40557 0
M  V30 6001 O 626.236 -0.307049 -1.79898 0
M  V30 6002 C 626.287 -3.57068 -0.564321 0
M  V30 6003 O 626.008 -4.3398 0.599422 0
M  V30 6004 C 627.509 -4.26674 -1.20269 0
M  V30 6005 H 624.729 -0.670358 -0.0293445 0
M  V30 6006 H 627.273 -1.96857 0.553844 0
M  V30 6007 H 625.428 -3.66277 -1.26174 0
M  V30 6008 H 625.842 -5.2367 0.294895 0
M  V30 6009 H 627.316 -5.33625 -1.4124 0
M  V30 6010 H 627.793 -3.81854 -2.16989 0
M  V30 6011 H 628.399 -4.2178 -0.546047 0
M  V30 6012 N 626.714 -0.118576 -1.57153 0
M  V30 6013 C 627.624 0.845484 -2.18835 0
M  V30 6014 C 628.64 1.29299 -1.16438 0
M  V30 6015 O 629.816 1.35607 -1.48905 0
M  V30 6016 C 626.881 2.07795 -2.77529 0
M  V30 6017 C 625.942 1.6824 -3.9496 0
M  V30 6018 C 625.175 2.85612 -4.50845 0
M  V30 6019 O 625.398 4.01025 -4.05629 0
M  V30 6020 O 624.332 2.62721 -5.41536 0
M  V30 6021 H 628.158 0.350568 -3.0167 0
M  V30 6022 H 625.743 0.107013 -1.49016 0
M  V30 6023 H 627.625 2.79978 -3.14945 0
M  V30 6024 H 626.3 2.56294 -1.97725 0
M  V30 6025 H 625.207 0.931663 -3.62313 0
M  V30 6026 H 626.54 1.24484 -4.76198 0
M  V30 6027 N 628.193 1.56834 0.155195 0
M  V30 6028 C 629.609 1.51315 0.50755 0
M  V30 6029 C 629.809 0.825614 1.83809 0
M  V30 6030 O 628.865 0.39271 2.49427 0
M  V30 6031 C 630.178 2.96074 0.52542 0
M  V30 6032 C 631.726 3.06968 0.611505 0
M  V30 6033 C 632.201 4.53218 0.660115 0
M  V30 6034 N 633.692 4.5753 0.722564 0
M  V30 6035 C 634.427 5.68056 0.781023 0
M  V30 6036 N 633.923 6.88173 0.799327 0
M  V30 6037 N 635.716 5.56068 0.821278 0
M  V30 6038 H 627.867 1.9993 -0.717063 0
M  V30 6039 H 630.13 0.911507 -0.260496 0
M  V30 6040 H 629.836 3.49599 -0.383875 0
M  V30 6041 H 629.71 3.51587 1.36624 0
M  V30 6042 H 632.097 2.53468 1.51122 0
M  V30 6043 H 632.178 2.54513 -0.256306 0
M  V30 6044 H 631.822 5.07354 -0.23541 0
M  V30 6045 H 631.752 5.03447 1.5443 0
M  V30 6046 H 634.243 3.71054 0.716049 0
M  V30 6047 H 634.556 7.6816 0.845553 0
M  V30 6048 H 632.901 6.90751 0.767337 0
M  V30 6049 H 636.092 4.61142 0.804091 0
M  V30 6050 H 636.265 6.42223 0.863372 0
M  V30 6051 N 629.671 -0.424282 1.51781 0
M  V30 6052 C 630.899 -1.1947 1.68921 0
M  V30 6053 C 631.314 -1.84683 0.39213 0
M  V30 6054 O 630.671 -1.71261 -0.630554 0
M  V30 6055 C 630.722 -2.26909 2.81416 0
M  V30 6056 O 630.443 -1.64361 4.061 0
M  V30 6057 C 631.944 -3.16945 3.09937 0
M  V30 6058 H 629.164 -0.359591 0.566511 0
M  V30 6059 H 631.708 -0.501139 1.98265 0
M  V30 6060 H 629.863 -2.91959 2.54635 0
M  V30 6061 H 630.277 -2.35468 4.68674 0
M  V30 6062 H 631.751 -3.88437 3.922 0
M  V30 6063 H 632.228 -3.78451 2.22871 0
M  V30 6064 H 632.834 -2.57581 3.38426 0
M  V30 6065 N 631.149 -1.42148 -0.680565 0
M  V30 6066 C 632.059 -1.47565 -1.82378 0
M  V30 6067 C 633.075 -0.36489 -1.70131 0
M  V30 6068 O 634.251 -0.614916 -1.91783 0
M  V30 6069 C 631.316 -1.37013 -3.18478 0
M  V30 6070 C 630.377 -2.58532 -3.42724 0
M  V30 6071 C 629.61 -2.48473 -4.72331 0
M  V30 6072 O 629.833 -1.51745 -5.49845 0
M  V30 6073 O 628.767 -3.38503 -4.97694 0
M  V30 6074 H 632.593 -2.44045 -1.80764 0
M  V30 6075 H 630.178 -1.23849 -0.835569 0
M  V30 6076 H 632.06 -1.33468 -3.99705 0
M  V30 6077 H 630.735 -0.436552 -3.20743 0
M  V30 6078 H 629.642 -2.67652 -2.61368 0
M  V30 6079 H 630.975 -3.50769 -3.45286 0
M  V30 6080 N 632.627 0.916307 -1.28225 0
M  V30 6081 C 633.537 2.05165 -1.13775 0
M  V30 6082 C 634.553 1.73879 -0.0649418 0
M  V30 6083 O 635.729 1.99531 -0.273722 0
M  V30 6084 C 632.794 3.37385 -0.798267 0
M  V30 6085 C 631.855 3.82296 -1.95316 0
M  V30 6086 C 631.088 5.08206 -1.62978 0
M  V30 6087 O 631.311 5.6781 -0.542948 0
M  V30 6088 O 630.245 5.48768 -2.47261 0
M  V30 6089 H 634.071 2.20273 -2.09078 0
M  V30 6090 H 631.656 1.0373 -1.07519 0
M  V30 6091 H 633.538 4.16773 -0.62278 0
M  V30 6092 H 632.213 3.23458 0.125139 0
M  V30 6093 H 631.12 3.03746 -2.18378 0
M  V30 6094 H 632.453 4.00782 -2.85718 0
M  V30 6095 N 634.105 1.10431 1.1244 0
M  V30 6096 C 635.068 0.756542 2.16354 0
M  V30 6097 C 636.068 -0.21899 1.59302 0
M  V30 6098 O 637.258 0.00415969 1.742 0
M  V30 6099 C 634.39 0.120612 3.40687 0
M  V30 6100 H 635.583 1.67696 2.48632 0
M  V30 6101 H 633.136 0.904832 1.27446 0
M  V30 6102 H 633.871 -0.810536 3.14008 0
M  V30 6103 H 633.656 0.822693 3.83372 0
M  V30 6104 H 635.146 -0.106945 4.17463 0
M  V30 6105 N 635.583 -1.29855 0.893053 0
M  V30 6106 C 636.546 -2.26183 0.370687 0
M  V30 6107 C 637.546 -1.53108 -0.491385 0
M  V30 6108 O 638.736 -1.71643 -0.297386 0
M  V30 6109 C 635.868 -3.37633 -0.470827 0
M  V30 6110 H 637.061 -2.73903 1.22135 0
M  V30 6111 H 634.614 -1.41183 0.67061 0
M  V30 6112 H 635.349 -2.95241 -1.34175 0
M  V30 6113 H 635.134 -3.91825 0.146784 0
M  V30 6114 H 636.624 -4.09313 -0.827825 0
M  V30 6115 N 637.061 -0.65484 -1.43351 0
M  V30 6116 C 637.971 0.0363603 -2.34572 0
M  V30 6117 C 638.987 0.810432 -1.53974 0
M  V30 6118 O 640.163 0.757308 -1.86619 0
M  V30 6119 C 637.228 0.989733 -3.32273 0
M  V30 6120 C 636.289 0.212414 -4.28774 0
M  V30 6121 C 635.522 1.12038 -5.21808 0
M  V30 6122 O 635.745 2.35967 -5.19303 0
M  V30 6123 O 634.679 0.59191 -5.98982 0
M  V30 6124 H 638.505 -0.714527 -2.95175 0
M  V30 6125 H 636.09 -0.415029 -1.4352 0
M  V30 6126 H 637.972 1.53759 -3.92347 0
M  V30 6127 H 636.647 1.72082 -2.74171 0
M  V30 6128 H 635.554 -0.379062 -3.72175 0
M  V30 6129 H 636.887 -0.479138 -4.89862 0
M  V30 6130 N 638.539 1.52521 -0.396863 0
M  V30 6131 C 639.764 2.06571 0.185258 0
M  V30 6132 C 640.189 1.26605 1.39115 0
M  V30 6133 O 639.547 0.293055 1.78916 0
M  V30 6134 C 639.595 3.5674 0.526189 0
M  V30 6135 O 638.699 3.7929 1.61903 0
M  V30 6136 H 638.04 0.663712 0.0195474 0
M  V30 6137 H 640.57 1.966 -0.566519 0
M  V30 6138 H 640.58 4.00311 0.788338 0
M  V30 6139 H 639.255 4.14379 -0.355397 0
M  V30 6140 H 637.832 3.47605 1.35 0
M  V30 6141 N 640.017 0.126909 1.57088 0
M  V30 6142 C 640.949 -0.850973 2.12817 0
M  V30 6143 C 641.962 -1.22457 1.07276 0
M  V30 6144 O 643.151 -1.17215 1.34622 0
M  V30 6145 C 640.251 -2.15039 2.61938 0
M  V30 6146 C 639.424 -1.94726 3.91664 0
M  V30 6147 C 638.483 -3.0847 4.26301 0
M  V30 6148 O 637.509 -2.81038 4.94981 0
M  V30 6149 N 638.711 -4.35116 3.84259 0
M  V30 6150 H 641.476 -0.3748 2.97347 0
M  V30 6151 H 639.037 -0.0572793 1.61799 0
M  V30 6152 H 641.029 -2.90141 2.82135 0
M  V30 6153 H 639.599 -2.5398 1.82244 0
M  V30 6154 H 638.819 -1.03772 3.80296 0
M  V30 6155 H 640.107 -1.78469 4.76473 0
M  V30 6156 H 639.505 -4.60276 3.2888 0
M  V30 6157 H 638.062 -5.07064 4.09548 0
M  V30 6158 N 641.495 -1.56914 -0.146875 0
M  V30 6159 C 642.723 -1.87515 -0.874394 0
M  V30 6160 C 643.138 -0.715116 -1.74733 0
M  V30 6161 O 642.495 0.315113 -1.79759 0
M  V30 6162 C 642.546 -3.17362 -1.731 0
M  V30 6163 O 642.267 -4.28897 -0.893245 0
M  V30 6164 C 643.768 -3.61479 -2.56609 0
M  V30 6165 H 640.988 -0.621546 -0.252827 0
M  V30 6166 H 643.532 -2.04023 -0.139627 0
M  V30 6167 H 641.687 -3.02608 -2.41883 0
M  V30 6168 H 642.101 -5.03146 -1.48137 0
M  V30 6169 H 643.575 -4.5517 -3.12289 0
M  V30 6170 H 644.052 -2.86773 -3.32653 0
M  V30 6171 H 644.658 -3.78927 -1.93117 0
M  V30 6172 N 642.974 0.416227 -1.52004 0
M  V30 6173 C 643.937 1.48926 -1.74223 0
M  V30 6174 C 644.937 1.48693 -0.612119 0
M  V30 6175 O 646.127 1.50343 -0.879921 0
M  V30 6176 C 643.259 2.88372 -1.81809 0
M  V30 6177 H 644.452 1.3052 -2.70008 0
M  V30 6178 H 642.005 0.646271 -1.42313 0
M  V30 6179 H 642.74 3.12157 -0.879135 0
M  V30 6180 H 642.525 2.89944 -2.6396 0
M  V30 6181 H 644.015 3.66173 -2.00766 0
M  V30 6182 N 644.452 1.42507 0.673017 0
M  V30 6183 C 645.7 1.42789 1.43023 0
M  V30 6184 C 646.021 0.0459738 1.94946 0
M  V30 6185 O 645.291 -0.915765 1.73178 0
M  V30 6186 H 643.871 0.525657 0.530748 0
M  V30 6187 H 646.533 1.77944 0.795113 0
M  V30 6188 H 645.629 2.12872 2.28237 0
M  V30 6189 N 645.93 -0.909495 1.28709 0
M  V30 6190 C 647.346 -1.18862 1.06508 0
M  V30 6191 C 647.546 -2.00604 -0.189864 0
M  V30 6192 O 646.602 -2.36281 -0.890355 0
M  V30 6193 C 647.915 -1.91908 2.31499 0
M  V30 6194 C 649.463 -2.04773 2.36721 0
M  V30 6195 C 649.938 -2.81228 3.6149 0
M  V30 6196 N 651.429 -2.88787 3.62155 0
M  V30 6197 C 652.164 -3.48455 4.55375 0
M  V30 6198 N 651.66 -4.09369 5.58918 0
M  V30 6199 N 653.453 -3.46035 4.42963 0
M  V30 6200 H 645.604 -0.363867 2.0926 0
M  V30 6201 H 647.867 -0.223649 0.921241 0
M  V30 6202 H 647.573 -1.39275 3.22948 0
M  V30 6203 H 647.447 -2.92436 2.38245 0
M  V30 6204 H 649.834 -2.56585 1.45767 0
M  V30 6205 H 649.915 -1.03408 2.33967 0
M  V30 6206 H 649.559 -2.30094 4.5279 0
M  V30 6207 H 649.489 -3.82917 3.61499 0
M  V30 6208 H 651.98 -2.45514 2.87283 0
M  V30 6209 H 652.293 -4.52891 6.26187 0
M  V30 6210 H 650.638 -4.0786 5.62739 0
M  V30 6211 H 653.829 -2.9766 3.6127 0
M  V30 6212 H 654.002 -3.92244 5.15799 0
M  V30 6213 N 647.408 -1.11026 -1.11852 0
M  V30 6214 C 648.318 -0.777252 -2.2135 0
M  V30 6215 C 649.334 0.227821 -1.72502 0
M  V30 6216 O 650.51 0.0650587 -2.01295 0
M  V30 6217 C 647.575 -0.220668 -3.45997 0
M  V30 6218 C 646.636 -1.2838 -4.09655 0
M  V30 6219 C 645.869 -0.753678 -5.28352 0
M  V30 6220 O 646.092 0.417779 -5.68868 0
M  V30 6221 O 645.026 -1.51647 -5.82483 0
M  V30 6222 H 648.852 -1.69141 -2.5224 0
M  V30 6223 H 646.437 -0.885836 -1.20305 0
M  V30 6224 H 648.319 0.0855756 -4.21313 0
M  V30 6225 H 646.994 0.666262 -3.16769 0
M  V30 6226 H 645.901 -1.64299 -3.3609 0
M  V30 6227 H 647.234 -2.14396 -4.43052 0
M  V30 6228 N 648.886 1.2938 -0.899927 0
M  V30 6229 C 649.849 2.25983 -0.382677 0
M  V30 6230 C 650.849 1.53366 0.483259 0
M  V30 6231 O 652.039 1.71798 0.28828 0
M  V30 6232 C 649.171 3.37878 0.452915 0
M  V30 6233 H 650.364 2.73252 -1.23586 0
M  V30 6234 H 647.917 1.40825 -0.678088 0
M  V30 6235 H 648.652 2.95949 1.32608 0
M  V30 6236 H 648.437 3.91742 -0.167562 0
M  V30 6237 H 649.927 4.09746 0.806107 0
M  V30 6238 N 650.364 0.662433 1.43002 0
M  V30 6239 C 651.61 0.179857 2.02001 0
M  V30 6240 C 651.943 -1.20625 1.52195 0
M  V30 6241 O 651.218 -1.80726 0.718911 0
M  V30 6242 C 651.501 0.200845 3.59539 0
M  V30 6243 C 651.354 1.62153 4.19555 0
M  V30 6244 C 652.673 -0.457738 4.37713 0
M  V30 6245 H 649.792 0.0668305 0.733964 0
M  V30 6246 H 652.434 0.84487 1.70182 0
M  V30 6247 H 650.584 -0.365411 3.86778 0
M  V30 6248 H 652.256 2.23908 4.03315 0
M  V30 6249 H 650.499 2.16601 3.75854 0
M  V30 6250 H 651.17 1.58799 5.28665 0
M  V30 6251 H 653.646 0.0241495 4.16093 0
M  V30 6252 H 652.522 -0.412363 5.47349 0
M  V30 6253 H 652.783 -1.53336 4.14657 0
M  V30 6254 N 651.842 -1.52309 0.404946 0
M  V30 6255 C 653.09 -2.01368 -0.17186 0
M  V30 6256 C 653.411 -1.29261 -1.46002 0
M  V30 6257 O 652.681 -0.41729 -1.91404 0
M  V30 6258 H 651.261 -0.744034 -0.0664993 0
M  V30 6259 H 653.923 -1.87263 0.540228 0
M  V30 6260 H 653.019 -3.09888 -0.370957 0
M  V30 6261 N 653.32 -0.135238 -1.57019 0
M  V30 6262 C 654.568 0.51777 -1.95355 0
M  V30 6263 C 654.889 1.6617 -1.02042 0
M  V30 6264 O 654.159 1.95738 -0.0797343 0
M  V30 6265 H 652.739 0.194264 -0.721298 0
M  V30 6266 H 655.401 -0.207983 -1.93787 0
M  V30 6267 H 654.497 0.901675 -2.98791 0
M  V30 6268 N 654.798 1.5699 0.138552 0
M  V30 6269 C 655.73 1.95515 1.1961 0
M  V30 6270 C 656.743 0.852002 1.38726 0
M  V30 6271 O 657.932 1.13038 1.38147 0
M  V30 6272 C 655.032 2.2213 2.55952 0
M  V30 6273 C 654.205 3.53424 2.57702 0
M  V30 6274 C 653.264 3.6848 3.75645 0
M  V30 6275 O 652.29 4.4079 3.60129 0
M  V30 6276 N 653.492 3.05777 4.93438 0
M  V30 6277 H 656.257 2.86838 0.868557 0
M  V30 6278 H 653.818 1.58542 0.328033 0
M  V30 6279 H 655.81 2.29435 3.33379 0
M  V30 6280 H 654.38 1.3703 2.80965 0
M  V30 6281 H 653.6 3.57484 1.6613 0
M  V30 6282 H 654.888 4.39759 2.55909 0
M  V30 6283 H 654.286 2.46961 5.08947 0
M  V30 6284 H 652.843 3.18631 5.6861 0
M  V30 6285 N 656.276 -0.40816 1.52223 0
M  V30 6286 C 657.186 -1.52202 1.78526 0
M  V30 6287 C 658.202 -1.60546 0.670892 0
M  V30 6288 O 659.378 -1.77242 0.956404 0
M  V30 6289 C 656.443 -2.87928 1.93128 0
M  V30 6290 C 655.504 -2.89463 3.17033 0
M  V30 6291 C 654.737 -4.18715 3.30929 0
M  V30 6292 O 654.96 -5.12662 2.50067 0
M  V30 6293 O 653.894 -4.27125 4.24084 0
M  V30 6294 H 657.72 -1.32911 2.73072 0
M  V30 6295 H 655.305 -0.594112 1.37079 0
M  V30 6296 H 657.187 -3.68426 2.04549 0
M  V30 6297 H 655.862 -3.07285 1.01772 0
M  V30 6298 H 654.769 -2.07815 3.11069 0
M  V30 6299 H 656.102 -2.75055 4.08174 0
M  V30 6300 N 657.755 -1.42862 -0.66545 0
M  V30 6301 C 658.718 -1.46756 -1.76055 0
M  V30 6302 C 659.718 -0.353866 -1.56858 0
M  V30 6303 O 660.908 -0.615099 -1.62979 0
M  V30 6304 C 658.04 -1.30829 -3.14796 0
M  V30 6305 H 659.233 -2.44271 -1.73987 0
M  V30 6306 H 656.786 -1.29447 -0.875965 0
M  V30 6307 H 657.521 -0.342733 -3.22484 0
M  V30 6308 H 657.306 -2.11551 -3.30134 0
M  V30 6309 H 658.796 -1.36458 -3.94676 0
M  V30 6310 N 659.233 0.902656 -1.29189 0
M  V30 6311 C 660.481 1.6496 -1.16758 0
M  V30 6312 C 660.802 1.92952 0.28188 0
M  V30 6313 O 660.072 1.55351 1.19344 0
M  V30 6314 H 658.652 0.611447 -0.429118 0
M  V30 6315 H 661.314 1.0825 -1.62074 0
M  V30 6316 H 660.41 2.60728 -1.71544 0
M  V30 6317 N 660.711 1.11618 1.11262 0
M  V30 6318 C 661.621 0.78898 2.20935 0
M  V30 6319 C 662.637 -0.21867 1.7262 0
M  V30 6320 O 663.813 -0.0543826 2.01327 0
M  V30 6321 C 660.878 0.239014 3.45875 0
M  V30 6322 C 659.939 1.3055 4.08968 0
M  V30 6323 C 659.172 0.781687 5.27944 0
M  V30 6324 O 659.395 -0.387605 5.69082 0
M  V30 6325 O 658.329 1.54734 5.81671 0
M  V30 6326 H 662.155 1.70477 2.51339 0
M  V30 6327 H 659.74 0.892203 1.19834 0
M  V30 6328 H 661.622 -0.0632312 4.21353 0
M  V30 6329 H 660.297 -0.649454 3.17118 0
M  V30 6330 H 659.204 1.66079 3.35214 0
M  V30 6331 H 660.537 2.16743 4.41909 0
M  V30 6332 N 662.189 -1.289 0.906776 0
M  V30 6333 C 663.414 -1.99939 0.551303 0
M  V30 6334 C 663.839 -1.67366 -0.858496 0
M  V30 6335 O 663.197 -0.902176 -1.57259 0
M  V30 6336 C 663.245 -3.52523 0.758937 0
M  V30 6337 O 662.349 -4.11983 -0.185308 0
M  V30 6338 H 661.69 -0.628376 0.214568 0
M  V30 6339 H 664.22 -1.64225 1.2203 0
M  V30 6340 H 664.23 -4.02522 0.666329 0
M  V30 6341 H 662.905 -3.75566 1.78671 0
M  V30 6342 H 661.482 -3.72873 -0.0445577 0
M  V30 6343 N 663.667 -0.670007 -1.42649 0
M  V30 6344 C 664.914 -0.190286 -2.01604 0
M  V30 6345 C 665.242 1.20155 -1.52948 0
M  V30 6346 O 664.497 1.81964 -0.72026 0
M  V30 6347 C 664.796 -0.168298 -3.57004 0
M  V30 6348 C 664.462 -1.50415 -4.25072 0
M  V30 6349 C 663.124 -1.86992 -4.43382 0
M  V30 6350 C 665.476 -2.38414 -4.63474 0
M  V30 6351 C 662.804 -3.11203 -4.97363 0
M  V30 6352 C 665.156 -3.61933 -5.18833 0
M  V30 6353 C 663.82 -3.98685 -5.35356 0
M  V30 6354 H 663.09 -0.0696305 -0.737721 0
M  V30 6355 H 665.737 -0.864044 -1.70899 0
M  V30 6356 H 664.042 0.588958 -3.87348 0
M  V30 6357 H 665.739 0.22001 -4.00396 0
M  V30 6358 H 662.329 -1.20959 -4.11177 0
M  V30 6359 H 666.513 -2.11442 -4.49006 0
M  V30 6360 H 661.769 -3.39705 -5.08341 0
M  V30 6361 H 665.943 -4.30326 -5.47533 0
M  V30 6362 H 663.57 -4.95009 -5.76949 0
M  V30 6363 N 665.145 1.52092 -0.413018 0
M  V30 6364 C 666.055 2.30858 0.417318 0
M  V30 6365 C 667.071 1.38746 1.05003 0
M  V30 6366 O 668.247 1.71821 1.05069 0
M  V30 6367 C 665.312 3.11756 1.51687 0
M  V30 6368 C 664.373 4.19613 0.906825 0
M  V30 6369 C 663.606 4.96644 1.95399 0
M  V30 6370 O 663.829 4.7402 3.17271 0
M  V30 6371 O 662.763 5.81385 1.55805 0
M  V30 6372 H 666.589 3.02865 -0.225028 0
M  V30 6373 H 664.174 1.48358 -0.176126 0
M  V30 6374 H 666.056 3.62122 2.15512 0
M  V30 6375 H 664.731 2.42539 2.14375 0
M  V30 6376 H 663.638 3.73385 0.231183 0
M  V30 6377 H 664.971 4.91134 0.323814 0
M  V30 6378 N 666.623 0.143563 1.56945 0
M  V30 6379 C 667.871 -0.507402 1.95627 0
M  V30 6380 C 668.192 -1.65626 1.02922 0
M  V30 6381 O 667.462 -1.95693 0.0901136 0
M  V30 6382 H 666.042 -0.190436 0.722318 0
M  V30 6383 H 668.704 0.218257 1.93674 0
M  V30 6384 H 667.8 -0.885816 2.99265 0
M  V30 6385 N 668.101 -1.57061 -0.130224 0
M  V30 6386 C 669.033 -1.96147 -1.18571 0
M  V30 6387 C 670.046 -0.859347 -1.38272 0
M  V30 6388 O 671.235 -1.13769 -1.37545 0
M  V30 6389 C 668.335 -2.23484 -2.54771 0
M  V30 6390 C 667.508 -3.54786 -2.55824 0
M  V30 6391 C 666.567 -3.70467 -3.73686 0
M  V30 6392 O 665.593 -4.42693 -3.57787 0
M  V30 6393 N 666.795 -3.08389 -4.91809 0
M  V30 6394 H 669.56 -2.87295 -0.853333 0
M  V30 6395 H 667.121 -1.58714 -0.319621 0
M  V30 6396 H 669.113 -2.312 -3.32158 0
M  V30 6397 H 667.683 -1.38518 -2.80235 0
M  V30 6398 H 666.903 -3.5836 -1.64232 0
M  V30 6399 H 668.191 -4.4111 -2.53573 0
M  V30 6400 H 667.589 -2.49656 -5.0763 0
M  V30 6401 H 666.146 -3.21642 -5.66912 0
M  V30 6402 N 669.579 0.400081 -1.52437 0
M  V30 6403 C 670.825 1.14788 -1.67187 0
M  V30 6404 C 671.158 1.89928 -0.405074 0
M  V30 6405 O 670.433 1.85118 0.596804 0
M  V30 6406 C 670.716 2.13507 -2.89977 0
M  V30 6407 C 670.569 1.42204 -4.2673 0
M  V30 6408 C 671.888 3.14069 -3.083 0
M  V30 6409 H 669.007 0.415939 -0.608411 0
M  V30 6410 H 671.649 0.432542 -1.85011 0
M  V30 6411 H 669.799 2.7451 -2.74912 0
M  V30 6412 H 671.471 0.842503 -4.53541 0
M  V30 6413 H 669.714 0.723939 -4.27717 0
M  V30 6414 H 670.385 2.14281 -5.08712 0
M  V30 6415 H 672.861 2.63148 -3.22323 0
M  V30 6416 H 671.737 3.80398 -3.95713 0
M  V30 6417 H 671.998 3.82309 -2.22018 0
M  V30 6418 N 671.057 1.43213 0.657864 0
M  V30 6419 C 672.334 1.35063 1.41483 0
M  V30 6420 C 672.714 -0.0038314 2.111 0
M  V30 6421 O 672.062 -1.02018 2.04462 0
M  V30 6422 C 672.272 2.53061 2.40335 0
M  V30 6423 C 673.62 2.9594 3.04474 0
M  V30 6424 O 674.644 2.53074 2.50663 0
M  V30 6425 O 673.503 3.70184 4.02027 0
M  V30 6426 H 670.597 0.533517 0.631893 0
M  V30 6427 H 673.143 1.55253 0.685162 0
M  V30 6428 H 671.915 3.43283 1.87809 0
M  V30 6429 H 671.538 2.34945 3.20759 0
M  V30 6430 N 672.536 -0.895792 1.29666 0
M  V30 6431 C 673.466 -2.01673 1.17688 0
M  V30 6432 C 674.447 -1.69955 0.0701317 0
M  V30 6433 O 675.632 -1.9258 0.250289 0
M  V30 6434 C 672.762 -3.36568 0.856681 0
M  V30 6435 C 671.716 -3.82509 1.92017 0
M  V30 6436 C 671.042 -5.14574 1.4532 0
M  V30 6437 C 672.342 -4.02409 3.32963 0
M  V30 6438 H 674.036 -2.11953 2.11463 0
M  V30 6439 H 671.582 -1.01839 1.01807 0
M  V30 6440 H 673.535 -4.14498 0.759577 0
M  V30 6441 H 672.259 -3.26391 -0.116763 0
M  V30 6442 H 670.918 -3.068 2.00673 0
M  V30 6443 H 670.566 -5.00815 0.468325 0
M  V30 6444 H 670.266 -5.46283 2.16447 0
M  V30 6445 H 671.79 -5.9504 1.36968 0
M  V30 6446 H 673.204 -4.70808 3.27127 0
M  V30 6447 H 671.601 -4.45478 4.02082 0
M  V30 6448 H 672.671 -3.06616 3.75652 0
M  V30 6449 N 674.014 -1.12206 -1.10668 0
M  V30 6450 C 675.43 -0.857619 -1.346 0
M  V30 6451 C 675.63 0.513542 -1.94846 0
M  V30 6452 O 674.686 1.26273 -2.18658 0
M  V30 6453 C 675.999 -1.97212 -2.26998 0
M  V30 6454 C 677.547 -2.00272 -2.40542 0
M  V30 6455 C 678.022 -3.10948 -3.36267 0
M  V30 6456 N 679.513 -3.10375 -3.43834 0
M  V30 6457 C 680.248 -3.92651 -4.17867 0
M  V30 6458 N 679.744 -4.84911 -4.94807 0
M  V30 6459 N 681.537 -3.80798 -4.1346 0
M  V30 6460 H 673.688 -2.00558 -0.699306 0
M  V30 6461 H 675.951 -0.872612 -0.370477 0
M  V30 6462 H 675.657 -2.96002 -1.89936 0
M  V30 6463 H 675.531 -1.87521 -3.27286 0
M  V30 6464 H 677.918 -1.02103 -2.76874 0
M  V30 6465 H 677.999 -2.14037 -1.40077 0
M  V30 6466 H 677.643 -4.09348 -3.00661 0
M  V30 6467 H 677.573 -2.94421 -4.36605 0
M  V30 6468 H 680.064 -2.43536 -2.88961 0
M  V30 6469 H 680.377 -5.44207 -5.48688 0
M  V30 6470 H 678.722 -4.88926 -4.93939 0
M  V30 6471 H 681.913 -3.08058 -3.52445 0
M  V30 6472 H 682.086 -4.4515 -4.70898 0
M  V30 6473 N 675.492 1.28418 -0.913599 0
M  V30 6474 C 676.74 1.94596 -0.545594 0
M  V30 6475 C 677.061 1.7227 0.913668 0
M  V30 6476 O 676.331 1.06233 1.64595 0
M  V30 6477 H 674.911 0.720065 -0.198783 0
M  V30 6478 H 677.573 1.56404 -1.16292 0
M  V30 6479 H 676.669 3.03202 -0.739911 0
M  V30 6480 N 676.97 0.677563 1.42291 0
M  V30 6481 C 677.917 0.000947061 2.308 0
M  V30 6482 C 678.887 -0.789889 1.46116 0
M  V30 6483 O 680.072 -0.761578 1.74942 0
M  V30 6484 C 677.212 -0.942387 3.31984 0
M  V30 6485 C 676.325 -0.14508 4.31756 0
M  V30 6486 C 675.46 -1.08442 5.20013 0
M  V30 6487 C 674.499 -0.278958 6.11464 0
M  V30 6488 N 673.636 -1.17115 6.92263 0
M  V30 6489 H 678.476 0.761521 2.88106 0
M  V30 6490 H 676.013 0.38727 1.41911 0
M  V30 6491 H 677.971 -1.50317 3.89179 0
M  V30 6492 H 676.601 -1.66956 2.76271 0
M  V30 6493 H 675.653 0.532368 3.76656 0
M  V30 6494 H 676.965 0.48015 4.96484 0
M  V30 6495 H 676.119 -1.71504 5.81955 0
M  V30 6496 H 674.858 -1.74353 4.55469 0
M  V30 6497 H 673.863 0.364856 5.48588 0
M  V30 6498 H 675.088 0.376099 6.78058 0
M  V30 6499 H 673.034 -1.81661 6.30345 0
M  V30 6500 H 672.951 -0.601063 7.53607 0
M  V30 6501 H 674.219 -1.78915 7.58689 0
M  V30 6502 N 678.448 -1.51871 0.421078 0
M  V30 6503 C 679.358 -2.31077 -0.405069 0
M  V30 6504 C 680.374 -1.39301 -1.04265 0
M  V30 6505 O 681.55 -1.72376 -1.04157 0
M  V30 6506 C 678.615 -3.12556 -1.50032 0
M  V30 6507 C 677.676 -4.20088 -0.884559 0
M  V30 6508 C 676.909 -4.97673 -1.92762 0
M  V30 6509 O 677.132 -4.75696 -3.14753 0
M  V30 6510 O 676.066 -5.82203 -1.52719 0
M  V30 6511 H 679.892 -3.02742 0.241086 0
M  V30 6512 H 677.477 -1.48263 0.183991 0
M  V30 6513 H 679.359 -3.6326 -2.13589 0
M  V30 6514 H 678.034 -2.43672 -2.13086 0
M  V30 6515 H 676.941 -3.73502 -0.211379 0
M  V30 6516 H 678.274 -4.91298 -0.297763 0
M  V30 6517 N 679.926 -0.151884 -1.56866 0
M  V30 6518 C 680.889 0.771861 -2.15812 0
M  V30 6519 C 681.889 1.17181 -1.10115 0
M  V30 6520 O 683.079 1.09194 -1.35729 0
M  V30 6521 C 680.211 2.04806 -2.7252 0
M  V30 6522 H 681.404 0.259021 -2.98779 0
M  V30 6523 H 678.957 0.097588 -1.55995 0
M  V30 6524 H 679.692 2.60445 -1.93233 0
M  V30 6525 H 679.477 1.77044 -3.49854 0
M  V30 6526 H 680.967 2.70771 -3.1792 0
M  V30 6527 N 681.404 1.57128 0.121893 0
M  V30 6528 C 682.314 2.03425 1.16857 0
M  V30 6529 C 683.33 0.954108 1.45509 0
M  V30 6530 O 684.506 1.26541 1.56682 0
M  V30 6531 C 681.571 2.42685 2.47599 0
M  V30 6532 C 680.632 3.64767 2.2637 0
M  V30 6533 C 679.865 4.02145 3.50878 0
M  V30 6534 O 680.088 3.39897 4.58068 0
M  V30 6535 O 679.022 4.95262 3.42051 0
M  V30 6536 H 682.848 2.92825 0.80544 0
M  V30 6537 H 680.433 1.45654 0.332477 0
M  V30 6538 H 682.315 2.68684 3.24634 0
M  V30 6539 H 680.99 1.56432 2.83392 0
M  V30 6540 H 679.897 3.43922 1.47203 0
M  V30 6541 H 681.23 4.51716 1.95482 0
M  V30 6542 N 682.882 -0.391992 1.52647 0
M  V30 6543 C 683.815 -1.50019 1.71958 0
M  V30 6544 C 684.793 -1.5238 0.567365 0
M  V30 6545 O 685.977 -1.70831 0.796806 0
M  V30 6546 C 683.104 -2.88496 1.77447 0
M  V30 6547 C 682.15 -3.03974 2.99169 0
M  V30 6548 S 682.983 -2.75487 4.59203 0
M  V30 6549 C 684.139 -4.16163 4.67503 0
M  V30 6550 H 684.372 -1.33413 2.65685 0
M  V30 6551 H 681.905 -0.584674 1.42902 0
M  V30 6552 H 683.863 -3.68296 1.81296 0
M  V30 6553 H 682.524 -3.02431 0.848188 0
M  V30 6554 H 681.717 -4.05328 2.99542 0
M  V30 6555 H 681.319 -2.32062 2.93297 0
M  V30 6556 H 683.611 -5.10048 4.45934 0
M  V30 6557 H 684.554 -4.20806 5.69498 0
M  V30 6558 H 684.962 -4.01933 3.96371 0
M  V30 6559 N 684.36 -1.4356 -0.65026 0
M  V30 6560 C 685.776 -1.27025 -0.966269 0
M  V30 6561 C 685.976 -0.192117 -2.00582 0
M  V30 6562 O 685.032 0.428459 -2.48838 0
M  V30 6563 C 686.345 -2.63556 -1.44772 0
M  V30 6564 C 687.893 -2.71111 -1.56421 0
M  V30 6565 C 688.368 -4.08067 -2.07956 0
M  V30 6566 N 689.859 -4.10146 -2.15254 0
M  V30 6567 C 690.594 -5.12952 -2.56258 0
M  V30 6568 N 690.09 -6.26129 -2.96537 0
M  V30 6569 N 691.883 -5.00306 -2.56224 0
M  V30 6570 H 684.034 -2.12367 0.0375758 0
M  V30 6571 H 686.297 -0.946894 -0.0457782 0
M  V30 6572 H 686.003 -3.43429 -0.758271 0
M  V30 6573 H 685.877 -2.89152 -2.42221 0
M  V30 6574 H 688.264 -1.91569 -2.24467 0
M  V30 6575 H 688.345 -2.49277 -0.573967 0
M  V30 6576 H 687.989 -4.88077 -1.40511 0
M  V30 6577 H 687.919 -4.27266 -3.07817 0
M  V30 6578 H 690.41 -3.28453 -1.86887 0
M  V30 6579 H 690.723 -7.00403 -3.26582 0
M  V30 6580 H 689.068 -6.29597 -2.94334 0
M  V30 6581 H 692.259 -4.10952 -2.24135 0
M  V30 6582 H 692.432 -5.80553 -2.87857 0
M  V30 6583 N 685.838 0.888903 -1.30139 0
M  V30 6584 C 686.77 1.99972 -1.11999 0
M  V30 6585 C 687.783 1.62673 -0.0643619 0
M  V30 6586 O 688.972 1.75788 -0.309983 0
M  V30 6587 C 686.072 3.31904 -0.685059 0
M  V30 6588 C 685.245 3.97665 -1.82158 0
M  V30 6589 C 684.304 5.07894 -1.37585 0
M  V30 6590 O 683.33 5.2974 -2.08241 0
M  V30 6591 N 684.532 5.7995 -0.252697 0
M  V30 6592 H 687.297 2.16085 -2.07671 0
M  V30 6593 H 684.858 1.06175 -1.22223 0
M  V30 6594 H 686.85 4.03005 -0.369964 0
M  V30 6595 H 685.42 3.12084 0.179507 0
M  V30 6596 H 684.64 3.19787 -2.305 0
M  V30 6597 H 685.928 4.3834 -2.58332 0
M  V30 6598 H 685.326 5.647 0.336141 0
M  V30 6599 H 683.883 6.518 0.00296813 0
M  V30 6600 N 687.317 1.12792 1.10072 0
M  V30 6601 C 688.594 0.796867 1.78632 0
M  V30 6602 C 688.974 -0.712739 1.98704 0
M  V30 6603 O 688.322 -1.64773 1.5831 0
M  V30 6604 C 688.532 1.57622 3.11378 0
M  V30 6605 C 689.88 1.76463 3.86194 0
M  V30 6606 O 690.904 1.54165 3.2111 0
M  V30 6607 O 689.763 2.13623 5.03018 0
M  V30 6608 H 686.857 0.290248 0.774394 0
M  V30 6609 H 689.403 1.23215 1.16688 0
M  V30 6610 H 688.175 2.60246 2.92212 0
M  V30 6611 H 687.798 1.13543 3.81043 0
M  V30 6612 N 688.795 -1.27931 0.920396 0
M  V30 6613 C 689.725 -2.29487 0.431024 0
M  V30 6614 C 690.706 -1.62435 -0.504861 0
M  V30 6615 O 691.891 -1.89797 -0.411176 0
M  V30 6616 C 689.021 -3.45788 -0.323709 0
M  V30 6617 C 687.975 -4.24784 0.523658 0
M  V30 6618 C 687.301 -5.33488 -0.359809 0
M  V30 6619 C 688.601 -4.90874 1.78437 0
M  V30 6620 H 690.295 -2.70671 1.27975 0
M  V30 6621 H 687.841 -1.30121 0.616813 0
M  V30 6622 H 689.794 -4.15927 -0.676952 0
M  V30 6623 H 688.518 -3.03502 -1.2064 0
M  V30 6624 H 687.177 -3.56382 0.85951 0
M  V30 6625 H 686.825 -4.87445 -1.24124 0
M  V30 6626 H 686.525 -5.87247 0.203605 0
M  V30 6627 H 688.049 -6.06472 -0.708787 0
M  V30 6628 H 689.463 -5.53339 1.49963 0
M  V30 6629 H 687.86 -5.54659 2.29071 0
M  V30 6630 H 688.93 -4.14988 2.50824 0
M  V30 6631 N 690.273 -0.685099 -1.4193 0
M  V30 6632 C 691.521 -0.21124 -2.00993 0
M  V30 6633 C 691.842 1.18985 -1.54491 0
M  V30 6634 O 691.112 1.8009 -0.771 0
M  V30 6635 H 689.692 -0.0751059 -0.743215 0
M  V30 6636 H 692.354 -0.883915 -1.73704 0
M  V30 6637 H 691.45 -0.220513 -3.1132 0
M  V30 6638 N 691.751 1.51645 -0.429126 0
M  V30 6639 C 693 2.01203 0.141538 0
M  V30 6640 C 693.313 1.31828 1.44502 0
M  V30 6641 O 694.519 1.7231 2.09813 0
M  V30 6642 C 692.975 3.58624 0.302786 0
M  V30 6643 C 692.583 4.3693 -0.989775 0
M  V30 6644 C 694.327 4.16353 0.827661 0
M  V30 6645 C 692.234 5.86037 -0.794619 0
M  V30 6646 H 691.164 0.751867 0.05667 0
M  V30 6647 H 693.815 1.74822 -0.557633 0
M  V30 6648 H 692.197 3.81417 1.06476 0
M  V30 6649 H 693.371 4.25887 -1.75945 0
M  V30 6650 H 691.686 3.90614 -1.44256 0
M  V30 6651 H 694.283 5.25455 0.990026 0
M  V30 6652 H 694.626 3.74995 1.80787 0
M  V30 6653 H 695.159 3.97606 0.124213 0
M  V30 6654 H 691.898 6.31792 -1.74697 0
M  V30 6655 H 691.418 5.99765 -0.0645968 0
M  V30 6656 H 693.097 6.45471 -0.444591 0
M  V30 6657 N 693.229 0.160201 1.56784 0
M  V30 6658 C 694.645 -0.196089 1.58391 0
M  V30 6659 C 694.845 -1.63689 1.17508 0
M  V30 6660 O 693.901 -2.36613 0.881506 0
M  V30 6661 C 695.214 0.0746449 3.00607 0
M  V30 6662 C 696.762 0.0119762 3.12998 0
M  V30 6663 C 697.237 0.255551 4.57286 0
M  V30 6664 N 698.728 0.202938 4.62755 0
M  V30 6665 C 699.463 0.365731 5.72232 0
M  V30 6666 N 698.959 0.586972 6.90309 0
M  V30 6667 N 700.752 0.302411 5.61286 0
M  V30 6668 H 692.903 1.1008 1.81648 0
M  V30 6669 H 695.166 0.436779 0.841384 0
M  V30 6670 H 694.872 1.07231 3.34954 0
M  V30 6671 H 694.746 -0.638802 3.71751 0
M  V30 6672 H 697.133 -0.976254 2.78484 0
M  V30 6673 H 697.214 0.75796 2.44313 0
M  V30 6674 H 696.858 1.24094 4.92507 0
M  V30 6675 H 696.788 -0.510912 5.24116 0
M  V30 6676 H 699.279 0.0371328 3.77882 0
M  V30 6677 H 699.592 0.700941 7.69615 0
M  V30 6678 H 697.937 0.623453 6.92198 0
M  V30 6679 H 701.128 0.130238 4.67919 0
M  V30 6680 H 701.301 0.432712 6.46554 0
M  V30 6681 N 694.707 -1.5719 -0.113559 0
M  V30 6682 C 695.67 -1.99796 -1.12314 0
M  V30 6683 C 696.67 -0.888847 -1.34001 0
M  V30 6684 O 697.86 -1.15476 -1.30426 0
M  V30 6685 C 694.992 -2.34279 -2.47641 0
M  V30 6686 H 696.185 -2.90193 -0.756825 0
M  V30 6687 H 693.738 -1.52144 -0.358029 0
M  V30 6688 H 694.473 -1.46778 -2.89183 0
M  V30 6689 H 694.258 -3.15175 -2.33253 0
M  V30 6690 H 695.748 -2.67963 -3.2029 0
M  V30 6691 N 696.185 0.383891 -1.52853 0
M  V30 6692 C 697.462 1.14296 -1.58732 0
M  V30 6693 C 697.842 2.07585 -0.383611 0
M  V30 6694 O 697.19 2.1971 0.627661 0
M  V30 6695 C 697.4 1.89816 -2.92867 0
M  V30 6696 C 698.748 2.44998 -3.46787 0
M  V30 6697 O 699.772 1.99966 -2.94774 0
M  V30 6698 O 698.631 3.2727 -4.37672 0
M  V30 6699 H 695.725 0.52326 -0.640413 0
M  V30 6700 H 698.271 0.388631 -1.6519 0
M  V30 6701 H 697.043 1.21626 -3.71918 0
M  V30 6702 H 696.666 2.72199 -2.89816 0
M  V30 6703 N 697.663 1.43903 0.642637 0
M  V30 6704 C 699.079 1.27536 0.959519 0
M  V30 6705 C 699.279 0.202751 2.00477 0
M  V30 6706 O 698.335 -0.415256 2.49062 0
M  V30 6707 C 699.648 2.6432 1.43372 0
M  V30 6708 C 701.196 2.71937 1.54981 0
M  V30 6709 C 701.671 4.09164 2.05789 0
M  V30 6710 N 703.162 4.11282 2.13076 0
M  V30 6711 C 703.897 5.14303 2.53534 0
M  V30 6712 N 703.393 6.27693 2.93212 0
M  V30 6713 N 705.186 5.01657 2.53567 0
M  V30 6714 H 697.337 2.12344 -0.0488376 0
M  V30 6715 H 699.6 0.947124 0.0407559 0
M  V30 6716 H 699.306 3.43826 0.740048 0
M  V30 6717 H 699.18 2.90432 2.40685 0
M  V30 6718 H 701.567 1.92757 2.23448 0
M  V30 6719 H 701.648 2.49578 0.560739 0
M  V30 6720 H 701.292 4.88815 1.37921 0
M  V30 6721 H 701.222 4.28893 3.05546 0
M  V30 6722 H 703.713 3.2944 1.85143 0
M  V30 6723 H 704.026 7.02125 3.22863 0
M  V30 6724 H 702.371 6.31149 2.90991 0
M  V30 6725 H 705.562 4.12134 2.21952 0
M  V30 6726 H 705.735 5.82072 2.84774 0
M  V30 6727 N 699.141 -0.881989 1.30609 0
M  V30 6728 C 700.104 -1.96957 1.1722 0
M  V30 6729 C 701.104 -1.60472 0.102598 0
M  V30 6730 O 702.294 -1.70628 0.350943 0
M  V30 6731 C 699.426 -3.31463 0.796572 0
M  V30 6732 H 700.619 -2.10262 2.13846 0
M  V30 6733 H 698.172 -1.06877 1.14048 0
M  V30 6734 H 698.907 -3.23859 -0.169053 0
M  V30 6735 H 698.692 -3.59314 1.56959 0
M  V30 6736 H 700.182 -4.11233 0.72645 0
M  V30 6737 N 700.619 -1.13374 -1.09472 0
M  V30 6738 C 702.035 -0.871846 -1.33682 0
M  V30 6739 C 702.235 0.492847 -1.9538 0
M  V30 6740 O 701.291 1.23946 -2.19985 0
M  V30 6741 C 702.604 -1.99608 -2.24893 0
M  V30 6742 C 704.152 -2.02812 -2.38404 0
M  V30 6743 C 704.627 -3.14497 -3.3295 0
M  V30 6744 N 706.118 -3.14004 -3.40523 0
M  V30 6745 C 706.853 -3.97061 -4.13679 0
M  V30 6746 N 706.349 -4.90131 -4.89636 0
M  V30 6747 N 708.142 -3.85162 -4.09398 0
M  V30 6748 H 700.293 -2.01288 -0.677995 0
M  V30 6749 H 702.556 -0.876492 -0.361201 0
M  V30 6750 H 702.262 -2.98 -1.86786 0
M  V30 6751 H 702.136 -1.90981 -3.25278 0
M  V30 6752 H 704.523 -1.05034 -2.75775 0
M  V30 6753 H 704.604 -2.15511 -1.37799 0
M  V30 6754 H 704.248 -4.12514 -2.96302 0
M  V30 6755 H 704.178 -2.99035 -4.33458 0
M  V30 6756 H 706.669 -2.46587 -2.86362 0
M  V30 6757 H 706.982 -5.49996 -5.42885 0
M  V30 6758 H 705.327 -4.94138 -4.88726 0
M  V30 6759 H 708.518 -3.11779 -3.49158 0
M  V30 6760 H 708.691 -4.5012 -4.6615 0
M  V30 6761 N 702.098 1.27442 -0.927168 0
M  V30 6762 C 703.031 2.25177 -0.370232 0
M  V30 6763 C 704.009 1.53612 0.533103 0
M  V30 6764 O 705.193 1.8245 0.47373 0
M  V30 6765 C 702.32 3.35431 0.469411 0
M  V30 6766 C 701.366 4.24888 -0.370419 0
M  V30 6767 S 702.199 5.04852 -1.78562 0
M  V30 6768 C 703.355 6.18592 -0.953651 0
M  V30 6769 H 703.588 2.72069 -1.19858 0
M  V30 6770 H 701.121 1.36089 -0.729316 0
M  V30 6771 H 703.079 3.99404 0.947992 0
M  V30 6772 H 701.74 2.87179 1.27228 0
M  V30 6773 H 700.933 5.03264 0.272226 0
M  V30 6774 H 700.535 3.65709 -0.783153 0
M  V30 6775 H 702.827 6.77235 -0.189408 0
M  V30 6776 H 703.77 6.87132 -1.7104 0
M  V30 6777 H 704.178 5.62318 -0.495897 0
M  V30 6778 N 703.576 0.692616 1.41565 0
M  V30 6779 C 704.486 0.0258451 2.34586 0
M  V30 6780 C 705.502 -0.769324 1.56069 0
M  V30 6781 O 706.678 -0.707563 1.88562 0
M  V30 6782 C 703.743 -0.901289 3.3478 0
M  V30 6783 C 702.804 -0.0986579 4.29187 0
M  V30 6784 C 702.037 -0.981634 5.24595 0
M  V30 6785 O 702.26 -2.22115 5.25377 0
M  V30 6786 O 701.194 -0.432892 6.00341 0
M  V30 6787 H 705.02 0.792537 2.93177 0
M  V30 6788 H 702.605 0.452935 1.42369 0
M  V30 6789 H 704.487 -1.43302 3.96286 0
M  V30 6790 H 703.162 -1.64752 2.78637 0
M  V30 6791 H 702.069 0.477604 3.71039 0
M  V30 6792 H 703.402 0.608848 4.8842 0
M  V30 6793 N 705.054 -1.51416 0.437162 0
M  V30 6794 C 705.964 -2.31493 -0.380537 0
M  V30 6795 C 706.98 -1.40399 -1.02782 0
M  V30 6796 O 708.156 -1.73471 -1.02323 0
M  V30 6797 C 705.221 -3.1413 -1.46709 0
M  V30 6798 C 704.282 -4.21003 -0.839953 0
M  V30 6799 C 703.515 -4.9969 -1.87473 0
M  V30 6800 O 703.738 -4.79008 -3.09689 0
M  V30 6801 O 702.672 -5.8379 -1.46536 0
M  V30 6802 H 706.498 -3.02469 0.273183 0
M  V30 6803 H 704.083 -1.48059 0.199706 0
M  V30 6804 H 705.965 -3.65505 -2.09724 0
M  V30 6805 H 704.64 -2.45919 -2.10489 0
M  V30 6806 H 703.547 -3.73706 -0.171752 0
M  V30 6807 H 704.88 -4.91587 -0.245638 0
M  V30 6808 N 706.532 -0.168513 -1.56696 0
M  V30 6809 C 707.462 0.758563 -2.20835 0
M  V30 6810 C 708.443 1.24121 -1.1631 0
M  V30 6811 O 709.628 1.29487 -1.4473 0
M  V30 6812 C 706.758 1.9892 -2.8469 0
M  V30 6813 C 705.712 1.64252 -3.95228 0
M  V30 6814 C 705.038 2.94757 -4.46119 0
M  V30 6815 C 706.338 0.872675 -5.14958 0
M  V30 6816 H 708.032 0.223953 -2.98561 0
M  V30 6817 H 705.578 0.106277 -1.43607 0
M  V30 6818 H 707.531 2.64275 -3.28233 0
M  V30 6819 H 706.255 2.5479 -2.04327 0
M  V30 6820 H 704.914 1.01266 -3.52336 0
M  V30 6821 H 704.562 3.48662 -3.62552 0
M  V30 6822 H 704.262 2.72316 -5.2069 0
M  V30 6823 H 705.786 3.61147 -4.92347 0
M  V30 6824 H 707.2 1.42875 -5.55211 0
M  V30 6825 H 705.597 0.747402 -5.95428 0
M  V30 6826 H 706.667 -0.131535 -4.84722 0
M  V30 6827 N 708.01 1.57248 0.105221 0
M  V30 6828 C 709.256 1.85845 0.811753 0
M  V30 6829 C 709.589 0.756219 1.78871 0
M  V30 6830 O 708.864 -0.236736 1.93054 0
M  V30 6831 C 709.147 3.25059 1.54947 0
M  V30 6832 C 709 4.45898 0.591185 0
M  V30 6833 C 710.319 3.6203 2.50245 0
M  V30 6834 H 707.438 0.675973 0.293649 0
M  V30 6835 H 710.08 1.89849 0.0756269 0
M  V30 6836 H 708.23 3.21776 2.17698 0
M  V30 6837 H 709.902 4.61291 -0.0285352 0
M  V30 6838 H 708.145 4.33693 -0.0962343 0
M  V30 6839 H 708.816 5.40009 1.1443 0
M  V30 6840 H 711.292 3.66192 1.97593 0
M  V30 6841 H 710.168 4.60389 2.98886 0
M  V30 6842 H 710.429 2.90176 3.33542 0
M  V30 6843 N 709.488 -0.375779 1.53054 0
M  V30 6844 C 710.42 -1.47963 1.75042 0
M  V30 6845 C 711.433 -1.50073 0.631031 0
M  V30 6846 O 712.622 -1.53736 0.907052 0
M  V30 6847 C 709.722 -2.86767 1.80604 0
M  V30 6848 C 708.895 -3.08471 3.10104 0
M  V30 6849 C 707.954 -4.27332 3.07041 0
M  V30 6850 O 706.98 -4.22998 3.80869 0
M  V30 6851 N 708.182 -5.34214 2.27147 0
M  V30 6852 H 710.947 -1.29484 2.70285 0
M  V30 6853 H 708.508 -0.565416 1.51706 0
M  V30 6854 H 710.5 -3.64404 1.76045 0
M  V30 6855 H 709.07 -2.98542 0.926897 0
M  V30 6856 H 708.29 -2.18583 3.28048 0
M  V30 6857 H 709.578 -3.19834 3.95706 0
M  V30 6858 H 708.976 -5.40594 1.66656 0
M  V30 6859 H 707.533 -6.10467 2.28415 0
M  V30 6860 N 710.966 -1.44241 -0.634997 0
M  V30 6861 C 711.929 -1.50457 -1.72903 0
M  V30 6862 C 712.929 -0.387058 -1.56072 0
M  V30 6863 O 714.119 -0.649531 -1.61638 0
M  V30 6864 C 711.251 -1.37477 -3.1195 0
M  V30 6865 H 712.444 -2.47907 -1.68767 0
M  V30 6866 H 709.997 -1.31276 -0.84831 0
M  V30 6867 H 710.732 -0.41106 -3.21684 0
M  V30 6868 H 710.517 -2.18506 -3.25573 0
M  V30 6869 H 712.007 -1.44799 -3.91692 0
M  V30 6870 N 712.444 0.87505 -1.31075 0
M  V30 6871 C 713.354 2.01441 -1.20244 0
M  V30 6872 C 714.37 1.73584 -0.120227 0
M  V30 6873 O 715.546 1.98559 -0.337063 0
M  V30 6874 C 712.611 3.34675 -0.905199 0
M  V30 6875 C 711.672 3.75889 -2.0738 0
M  V30 6876 C 710.905 5.02764 -1.79064 0
M  V30 6877 O 711.128 5.65795 -0.723318 0
M  V30 6878 O 710.062 5.40623 -2.64594 0
M  V30 6879 H 713.888 2.13509 -2.1598 0
M  V30 6880 H 711.473 1.00257 -1.10765 0
M  V30 6881 H 713.355 4.1458 -0.755057 0
M  V30 6882 H 712.03 3.23692 0.0221695 0
M  V30 6883 H 710.937 2.96645 -2.27931 0
M  V30 6884 H 712.27 3.91489 -2.98324 0
M  V30 6885 N 713.922 1.13953 1.08869 0
M  V30 6886 C 714.832 0.835666 2.19212 0
M  V30 6887 C 715.848 -0.182005 1.73045 0
M  V30 6888 O 717.024 -0.0116661 2.01397 0
M  V30 6889 C 714.089 0.312325 3.4529 0
M  V30 6890 C 713.15 1.39196 4.06107 0
M  V30 6891 C 712.383 0.893496 5.26168 0
M  V30 6892 O 712.606 -0.266807 5.69776 0
M  V30 6893 O 711.54 1.67037 5.78258 0
M  V30 6894 H 715.366 1.75769 2.47667 0
M  V30 6895 H 712.951 0.917421 1.17914 0
M  V30 6896 H 714.833 0.0261582 4.21392 0
M  V30 6897 H 713.508 -0.582042 3.18424 0
M  V30 6898 H 712.415 1.73152 3.31616 0
M  V30 6899 H 713.748 2.26068 4.37212 0
M  V30 6900 N 715.4 -1.26948 0.933913 0
M  V30 6901 C 716.363 -2.24889 0.442457 0
M  V30 6902 C 717.363 -1.54594 -0.442426 0
M  V30 6903 O 718.553 -1.72502 -0.242629 0
M  V30 6904 C 715.685 -3.3896 -0.363173 0
M  V30 6905 H 716.878 -2.69879 1.30787 0
M  V30 6906 H 714.431 -1.38978 0.715187 0
M  V30 6907 H 715.166 -2.99361 -1.24714 0
M  V30 6908 H 714.951 -3.9116 0.271366 0
M  V30 6909 H 716.441 -4.11739 -0.697186 0
M  V30 6910 N 716.879 -0.700114 -1.41195 0
M  V30 6911 C 717.811 0.00155823 -2.292 0
M  V30 6912 C 718.824 0.739736 -1.45023 0
M  V30 6913 O 720.013 0.589684 -1.68478 0
M  V30 6914 C 717.113 1.02635 -3.22985 0
M  V30 6915 C 716.286 0.356871 -4.35942 0
M  V30 6916 C 715.345 1.28491 -5.10271 0
M  V30 6917 O 714.371 0.775562 -5.63892 0
M  V30 6918 N 715.573 2.61699 -5.18164 0
M  V30 6919 H 718.338 -0.754008 -2.9006 0
M  V30 6920 H 715.899 -0.546504 -1.52397 0
M  V30 6921 H 717.891 1.64902 -3.6958 0
M  V30 6922 H 716.461 1.68341 -2.63401 0
M  V30 6923 H 715.681 -0.445753 -3.91672 0
M  V30 6924 H 716.969 -0.108469 -5.08684 0
M  V30 6925 H 716.367 3.05594 -4.76056 0
M  V30 6926 H 714.924 3.19149 -5.6832 0
M  V30 6927 N 718.357 1.51182 -0.445186 0
M  V30 6928 C 719.267 2.31692 0.368255 0
M  V30 6929 C 720.283 1.40942 1.02036 0
M  V30 6930 O 721.459 1.74011 1.01401 0
M  V30 6931 C 718.524 3.14903 1.45041 0
M  V30 6932 C 717.585 4.21442 0.817615 0
M  V30 6933 C 716.818 5.00677 1.8482 0
M  V30 6934 O 717.041 4.80644 3.07145 0
M  V30 6935 O 715.975 5.84559 1.43438 0
M  V30 6936 H 719.801 3.0232 -0.289219 0
M  V30 6937 H 717.386 1.47951 -0.207555 0
M  V30 6938 H 719.268 3.66612 2.07783 0
M  V30 6939 H 717.943 2.47031 2.09182 0
M  V30 6940 H 716.85 3.73791 0.151931 0
M  V30 6941 H 718.183 4.9171 0.219564 0
M  V30 6942 N 719.835 0.176821 1.56605 0
M  V30 6943 C 720.745 -0.763682 2.21822 0
M  V30 6944 C 721.761 -1.24889 1.21156 0
M  V30 6945 O 722.937 -1.29987 1.53836 0
M  V30 6946 C 720.002 -1.97352 2.8505 0
M  V30 6947 C 719.063 -1.53466 4.00932 0
M  V30 6948 C 718.296 -2.68682 4.61135 0
M  V30 6949 O 718.519 -3.85694 4.20234 0
M  V30 6950 O 717.453 -2.42442 5.50913 0
M  V30 6951 H 721.279 -0.238363 3.02763 0
M  V30 6952 H 718.864 -0.0516331 1.49311 0
M  V30 6953 H 720.746 -2.68096 3.25119 0
M  V30 6954 H 719.421 -2.48779 2.07101 0
M  V30 6955 H 718.328 -0.796551 3.65521 0
M  V30 6956 H 719.661 -1.06724 4.8049 0
M  V30 6957 N 721.313 -1.57302 -0.09688 0
M  V30 6958 C 722.729 -1.53094 -0.451041 0
M  V30 6959 C 722.929 -0.893265 -1.80618 0
M  V30 6960 O 721.985 -0.485013 -2.47798 0
M  V30 6961 C 723.298 -2.9782 -0.415172 0
M  V30 6962 C 724.846 -3.09026 -0.497155 0
M  V30 6963 C 725.321 -4.55356 -0.491452 0
M  V30 6964 N 726.812 -4.59896 -0.552258 0
M  V30 6965 C 727.547 -5.70563 -0.569654 0
M  V30 6966 N 727.043 -6.90666 -0.543365 0
M  V30 6967 N 728.836 -5.58733 -0.614331 0
M  V30 6968 H 720.987 -1.97131 0.790771 0
M  V30 6969 H 723.25 -0.901211 0.294147 0
M  V30 6970 H 722.956 -3.47933 0.513362 0
M  V30 6971 H 722.83 -3.56416 -1.23481 0
M  V30 6972 H 725.217 -2.58902 -1.41611 0
M  V30 6973 H 725.298 -2.53386 0.35059 0
M  V30 6974 H 724.942 -5.06131 0.423549 0
M  V30 6975 H 724.872 -5.08832 -1.35639 0
M  V30 6976 H 727.363 -3.73456 -0.577842 0
M  V30 6977 H 727.676 -7.70769 -0.559873 0
M  V30 6978 H 726.021 -6.93123 -0.510441 0
M  V30 6979 H 729.212 -4.63809 -0.632387 0
M  V30 6980 H 729.385 -6.44984 -0.62442 0
M  V30 6981 N 722.791 0.367657 -1.53252 0
M  V30 6982 C 724.039 1.10832 -1.68999 0
M  V30 6983 C 724.36 1.89894 -0.443306 0
M  V30 6984 O 723.63 1.88235 0.54262 0
M  V30 6985 H 722.21 0.412153 -0.623008 0
M  V30 6986 H 724.872 0.414775 -1.90435 0
M  V30 6987 H 723.968 1.7993 -2.55013 0
M  V30 6988 N 724.269 1.44576 0.627338 0
M  V30 6989 C 725.494 1.51271 1.41887 0
M  V30 6990 C 725.919 0.139814 1.8758 0
M  V30 6991 O 725.277 -0.871746 1.58966 0
M  V30 6992 C 725.325 2.48529 2.61277 0
M  V30 6993 O 724.429 1.98944 3.61241 0
M  V30 6994 H 723.77 0.510668 0.424399 0
M  V30 6995 H 726.3 1.89746 0.765356 0
M  V30 6996 H 726.31 2.66689 3.08773 0
M  V30 6997 H 724.985 3.48249 2.27366 0
M  V30 6998 H 723.562 1.90568 3.20528 0
M  V30 6999 N 725.747 -0.868086 1.31537 0
M  V30 7000 C 726.972 -1.65926 1.24432 0
M  V30 7001 C 727.397 -1.87169 -0.186936 0
M  V30 7002 O 726.755 -1.4148 -1.13371 0
M  V30 7003 C 726.803 -3.00347 1.9956 0
M  V30 7004 O 725.907 -3.90221 1.33422 0
M  V30 7005 H 725.248 -0.506375 0.429512 0
M  V30 7006 H 727.778 -1.0822 1.73637 0
M  V30 7007 H 727.788 -3.50269 2.09226 0
M  V30 7008 H 726.463 -2.84205 3.03645 0
M  V30 7009 H 725.04 -3.48672 1.32219 0
M  V30 7010 N 727.225 -1.14528 -1.08264 0
M  V30 7011 C 728.641 -0.885976 -1.3275 0
M  V30 7012 C 728.841 0.472096 -1.95892 0
M  V30 7013 O 727.897 1.21606 -2.21288 0
M  V30 7014 C 729.21 -2.01982 -2.22764 0
M  V30 7015 C 730.758 -2.05329 -2.36239 0
M  V30 7016 C 731.233 -3.1801 -3.29596 0
M  V30 7017 N 732.724 -3.17598 -3.37173 0
M  V30 7018 C 733.459 -4.01426 -4.09444 0
M  V30 7019 N 732.955 -4.95297 -4.8441 0
M  V30 7020 N 734.748 -3.89482 -4.0529 0
M  V30 7021 H 726.899 -2.01996 -0.656607 0
M  V30 7022 H 729.162 -0.880274 -0.351884 0
M  V30 7023 H 728.868 -2.99964 -1.83615 0
M  V30 7024 H 728.742 -1.94421 -3.23234 0
M  V30 7025 H 731.129 -1.07953 -2.74646 0
M  V30 7026 H 731.21 -2.1696 -1.35506 0
M  V30 7027 H 730.854 -4.15633 -2.9191 0
M  V30 7028 H 730.784 -3.03616 -4.30261 0
M  V30 7029 H 733.275 -2.4961 -2.83731 0
M  V30 7030 H 733.588 -5.55723 -5.37021 0
M  V30 7031 H 731.933 -4.99293 -4.83457 0
M  V30 7032 H 735.124 -3.15465 -3.45832 0
M  V30 7033 H 735.297 -4.55039 -4.6135 0
M  V30 7034 N 728.703 1.26451 -0.940633 0
M  V30 7035 C 729.98 1.88947 -0.505811 0
M  V30 7036 C 730.36 1.85011 1.01657 0
M  V30 7037 O 729.708 1.30406 1.87634 0
M  V30 7038 C 729.918 3.32304 -1.06654 0
M  V30 7039 C 731.266 4.09153 -1.13486 0
M  V30 7040 O 732.29 3.41371 -1.01708 0
M  V30 7041 O 731.149 5.30369 -1.31797 0
M  V30 7042 H 728.243 0.810422 -0.164759 0
M  V30 7043 H 730.789 1.34625 -1.03316 0
M  V30 7044 H 729.561 3.29527 -2.11015 0
M  V30 7045 H 729.184 3.94164 -0.521603 0
M  V30 7046 N 730.181 0.707592 1.40822 0
M  V30 7047 C 731.592 0.317011 1.83989 0
M  V30 7048 C 731.943 -1.14697 1.59182 0
M  V30 7049 O 731.068 -1.8818 1.06852 0
M  V30 7050 C 731.663 0.568593 3.33995 0
M  V30 7051 C 730.222 0.231804 3.75686 0
M  V30 7052 C 729.369 0.844933 2.64114 0
M  V30 7053 H 732.32 0.907349 1.30203 0
M  V30 7054 H 732.341 -0.168798 3.80125 0
M  V30 7055 H 731.853 1.63417 3.52018 0
M  V30 7056 H 729.954 -0.82903 3.6326 0
M  V30 7057 H 730.067 0.695219 4.74029 0
M  V30 7058 H 728.431 0.273588 2.53226 0
M  V30 7059 H 729.214 1.91462 2.84951 0
M  V30 7060 N 731.66 -1.50943 0.453197 0
M  V30 7061 C 732.906 -2.02512 -0.108082 0
M  V30 7062 C 733.239 -1.33574 -1.40967 0
M  V30 7063 O 732.514 -0.455671 -1.89087 0
M  V30 7064 C 732.797 -3.58759 -0.310453 0
M  V30 7065 C 732.65 -4.38293 1.0109 0
M  V30 7066 C 733.969 -4.26816 -1.07313 0
M  V30 7067 H 731.088 -0.73603 -0.0378064 0
M  V30 7068 H 733.73 -1.80433 0.595295 0
M  V30 7069 H 731.88 -3.77702 -0.909582 0
M  V30 7070 H 733.552 -4.30964 1.64523 0
M  V30 7071 H 731.795 -4.02745 1.61179 0
M  V30 7072 H 732.466 -5.45828 0.82315 0
M  V30 7073 H 734.942 -4.1224 -0.565473 0
M  V30 7074 H 733.818 -5.35989 -1.1835 0
M  V30 7075 H 734.079 -3.88757 -2.10525 0
M  V30 7076 N 733.138 -0.185124 -1.56509 0
M  V30 7077 C 734.101 0.72591 -2.17401 0
M  V30 7078 C 735.101 1.14819 -1.12575 0
M  V30 7079 O 736.291 1.0629 -1.38015 0
M  V30 7080 C 733.423 1.98979 -2.76803 0
M  V30 7081 H 734.616 0.195588 -2.99262 0
M  V30 7082 H 732.169 0.0644772 -1.56167 0
M  V30 7083 H 732.904 2.56287 -1.98714 0
M  V30 7084 H 732.689 1.69583 -3.53531 0
M  V30 7085 H 734.179 2.63966 -3.23592 0
M  V30 7086 N 734.616 1.57351 0.0885366 0
M  V30 7087 C 735.526 2.05858 1.12516 0
M  V30 7088 C 736.542 0.984758 1.43452 0
M  V30 7089 O 737.718 1.29836 1.53963 0
M  V30 7090 C 734.783 2.47882 2.42395 0
M  V30 7091 C 733.844 3.69487 2.18582 0
M  V30 7092 C 733.077 4.09497 3.42268 0
M  V30 7093 O 733.3 3.49536 4.50755 0
M  V30 7094 O 732.234 5.02406 3.31469 0
M  V30 7095 H 736.06 2.94467 0.743146 0
M  V30 7096 H 733.645 1.46326 0.301507 0
M  V30 7097 H 735.527 2.75509 3.18862 0
M  V30 7098 H 734.202 1.62408 2.8001 0
M  V30 7099 H 733.109 3.46967 1.39875 0
M  V30 7100 H 734.442 4.55761 1.85857 0
M  V30 7101 N 736.094 -0.359525 1.53444 0
M  V30 7102 C 737.024 -1.44662 1.8329 0
M  V30 7103 C 738.005 -1.55617 0.68683 0
M  V30 7104 O 739.19 -1.70086 0.93725 0
M  V30 7105 C 736.32 -2.81923 2.02822 0
M  V30 7106 C 735.274 -2.85787 3.18606 0
M  V30 7107 C 734.6 -4.25781 3.23442 0
M  V30 7108 C 735.9 -2.52762 4.57065 0
M  V30 7109 H 737.594 -1.19934 2.74329 0
M  V30 7110 H 735.14 -0.575517 1.31999 0
M  V30 7111 H 737.093 -3.58005 2.22285 0
M  V30 7112 H 735.817 -3.08051 1.085 0
M  V30 7113 H 734.476 -2.12157 2.98973 0
M  V30 7114 H 734.124 -4.48994 2.26745 0
M  V30 7115 H 733.824 -4.29281 4.01238 0
M  V30 7116 H 735.348 -5.03727 3.45096 0
M  V30 7117 H 736.762 -3.18557 4.76649 0
M  V30 7118 H 735.159 -2.67569 5.37147 0
M  V30 7119 H 736.229 -1.47993 4.61764 0
M  V30 7120 N 737.572 -1.44907 -0.619662 0
M  V30 7121 C 738.983 -1.42905 -1.20146 0
M  V30 7122 C 739.334 -0.150341 -1.95623 0
M  V30 7123 O 738.459 0.748732 -2.03034 0
M  V30 7124 C 739.054 -2.58889 -2.18545 0
M  V30 7125 C 737.613 -2.60046 -2.72127 0
M  V30 7126 C 736.76 -2.3493 -1.4732 0
M  V30 7127 H 739.711 -1.53321 -0.409666 0
M  V30 7128 H 739.732 -2.32298 -3.0136 0
M  V30 7129 H 739.244 -3.51941 -1.63583 0
M  V30 7130 H 737.345 -1.70968 -3.3106 0
M  V30 7131 H 737.458 -3.58893 -3.17384 0
M  V30 7132 H 735.822 -1.84248 -1.75855 0
M  V30 7133 H 736.605 -3.3011 -0.942442 0
M  V30 7134 N 739.05 0.861098 -1.31996 0
M  V30 7135 C 740.275 1.65264 -1.2531 0
M  V30 7136 C 740.7 1.87265 0.177007 0
M  V30 7137 O 740.058 1.4208 1.12619 0
M  V30 7138 C 740.106 2.99284 -2.0115 0
M  V30 7139 O 739.21 3.89508 -1.3549 0
M  V30 7140 H 738.551 0.50409 -0.432192 0
M  V30 7141 H 741.081 1.07297 -1.74208 0
M  V30 7142 H 741.091 3.49154 -2.11081 0
M  V30 7143 H 739.766 2.82591 -3.05148 0
M  V30 7144 H 738.343 3.47966 -1.34066 0
M  V30 7145 N 740.528 1.15101 1.07655 0
M  V30 7146 C 741.805 0.834578 1.76902 0
M  V30 7147 C 742.185 -0.670431 2.00171 0
M  V30 7148 O 741.533 -1.61378 1.6177 0
M  V30 7149 C 741.743 1.64191 3.07965 0
M  V30 7150 C 743.091 1.84615 3.82364 0
M  V30 7151 O 744.115 1.60941 3.17768 0
M  V30 7152 O 742.974 2.24244 4.98374 0
M  V30 7153 H 740.068 0.306608 0.768063 0
M  V30 7154 H 742.614 1.25663 1.14048 0
M  V30 7155 H 741.386 2.66386 2.86626 0
M  V30 7156 H 741.009 1.216 3.78549 0
M  V30 7157 N 742.006 -1.2595 0.947325 0
M  V30 7158 C 743.254 -1.93081 0.596996 0
M  V30 7159 C 743.575 -1.74632 -0.867672 0
M  V30 7160 O 742.845 -1.1056 -1.6172 0
M  V30 7161 H 741.425 -0.714542 0.217805 0
M  V30 7162 H 744.087 -1.53265 1.20398 0
M  V30 7163 H 743.183 -3.01134 0.82004 0
M  V30 7164 N 743.484 -0.715051 -1.40445 0
M  V30 7165 C 744.394 -0.0631624 -2.34515 0
M  V30 7166 C 745.41 0.744397 -1.57273 0
M  V30 7167 O 746.586 0.677475 -1.89663 0
M  V30 7168 C 743.651 0.847915 -3.36172 0
M  V30 7169 C 742.712 0.0303655 -4.29289 0
M  V30 7170 C 741.945 0.898051 -5.2609 0
M  V30 7171 O 742.168 2.13729 -5.28844 0
M  V30 7172 O 741.102 0.337328 -6.00954 0
M  V30 7173 H 744.928 -0.839078 -2.91879 0
M  V30 7174 H 742.513 -0.475527 -1.4163 0
M  V30 7175 H 744.395 1.3698 -3.98515 0
M  V30 7176 H 743.07 1.60299 -2.81222 0
M  V30 7177 H 741.977 -0.536573 -3.70232 0
M  V30 7178 H 743.31 -0.686474 -4.87389 0
M  V30 7179 N 744.962 1.50701 -0.461195 0
M  V30 7180 C 745.925 2.2686 0.326679 0
M  V30 7181 C 746.925 1.31243 0.929085 0
M  V30 7182 O 748.115 1.54754 0.799807 0
M  V30 7183 C 745.247 3.07844 1.46441 0
M  V30 7184 H 746.44 2.97954 -0.341095 0
M  V30 7185 H 743.993 1.54814 -0.214984 0
M  V30 7186 H 744.728 2.41223 2.16753 0
M  V30 7187 H 744.513 3.78101 1.03836 0
M  V30 7188 H 746.003 3.65469 2.02044 0
M  V30 7189 N 746.441 0.193421 1.56409 0
M  V30 7190 C 747.351 -0.740112 2.2262 0
M  V30 7191 C 748.367 -1.23597 1.22474 0
M  V30 7192 O 749.543 -1.28348 1.55206 0
M  V30 7193 C 746.608 -1.94317 2.87127 0
M  V30 7194 C 745.669 -1.49205 4.02538 0
M  V30 7195 C 744.902 -2.63776 4.63959 0
M  V30 7196 O 745.125 -3.81215 4.24301 0
M  V30 7197 O 744.059 -2.36585 5.53454 0
M  V30 7198 H 747.885 -0.206238 3.02999 0
M  V30 7199 H 745.47 -0.0357938 1.49357 0
M  V30 7200 H 747.352 -2.64633 3.27944 0
M  V30 7201 H 746.027 -2.46568 2.09728 0
M  V30 7202 H 744.934 -0.757738 3.66346 0
M  V30 7203 H 746.267 -1.01622 4.81595 0
M  V30 7204 N 747.919 -1.57396 -0.0801906 0
M  V30 7205 C 749.167 -1.86467 -0.779384 0
M  V30 7206 C 749.488 -0.784243 -1.78535 0
M  V30 7207 O 748.758 0.187986 -1.94996 0
M  V30 7208 H 747.338 -0.68806 -0.29083 0
M  V30 7209 H 750 -1.94813 -0.0582749 0
M  V30 7210 H 749.096 -2.83701 -1.30078 0
M  V30 7211 N 749.397 0.351382 -1.53633 0
M  V30 7212 C 750.625 1.11275 -1.74429 0
M  V30 7213 C 751.04 1.82602 -0.479798 0
M  V30 7214 O 750.397 1.74074 0.548125 0
M  V30 7215 C 750.448 2.13223 -2.91921 0
M  V30 7216 O 750.169 1.44798 -4.13479 0
M  V30 7217 C 751.67 3.01797 -3.24706 0
M  V30 7218 H 748.89 0.332153 -0.583023 0
M  V30 7219 H 751.434 0.405974 -2.0043 0
M  V30 7220 H 749.589 2.79477 -2.68274 0
M  V30 7221 H 750.003 2.12839 -4.79374 0
M  V30 7222 H 751.477 3.69282 -4.10286 0
M  V30 7223 H 751.954 3.67387 -2.40673 0
M  V30 7224 H 752.56 2.41141 -3.5033 0
M  V30 7225 N 750.875 1.45233 0.611969 0
M  V30 7226 C 751.838 1.53189 1.70487 0
M  V30 7227 C 752.838 0.411839 1.55437 0
M  V30 7228 O 754.028 0.675164 1.60584 0
M  V30 7229 C 751.16 1.42422 3.09723 0
M  V30 7230 H 752.353 2.5056 1.64802 0
M  V30 7231 H 749.906 1.32609 0.827318 0
M  V30 7232 H 750.641 0.462185 3.2099 0
M  V30 7233 H 750.426 2.23658 3.22055 0
M  V30 7234 H 751.916 1.51012 3.89339 0
M  V30 7235 N 752.353 -0.854086 1.3245 0
M  V30 7236 C 753.63 -1.59188 1.1366 0
M  V30 7237 C 754.01 -2.08917 -0.302807 0
M  V30 7238 O 753.358 -1.8795 -1.29951 0
M  V30 7239 C 753.568 -2.73757 2.16467 0
M  V30 7240 C 754.916 -3.43323 2.49829 0
M  V30 7241 O 755.94 -2.83983 2.15017 0
M  V30 7242 O 754.799 -4.50409 3.09506 0
M  V30 7243 H 751.893 -0.701092 0.438633 0
M  V30 7244 H 754.439 -0.898165 1.43983 0
M  V30 7245 H 753.211 -2.3454 3.1322 0
M  V30 7246 H 752.834 -3.50804 1.87142 0
M  V30 7247 N 753.831 -1.1567 -1.07043 0
M  V30 7248 C 754.761 -0.879348 -2.16309 0
M  V30 7249 C 755.742 0.171311 -1.69235 0
M  V30 7250 O 756.927 0.0250175 -1.94184 0
M  V30 7251 C 754.057 -0.371307 -3.45309 0
M  V30 7252 C 753.011 -1.359 -4.05851 0
M  V30 7253 C 752.337 -0.709678 -5.29969 0
M  V30 7254 C 753.637 -2.72606 -4.45514 0
M  V30 7255 H 755.331 -1.79308 -2.39768 0
M  V30 7256 H 752.877 -0.863558 -1.15233 0
M  V30 7257 H 754.83 -0.164798 -4.21078 0
M  V30 7258 H 753.554 0.577906 -3.21446 0
M  V30 7259 H 752.213 -1.55193 -3.32131 0
M  V30 7260 H 751.861 0.245782 -5.02399 0
M  V30 7261 H 751.561 -1.36886 -5.71433 0
M  V30 7262 H 753.085 -0.513015 -6.08441 0
M  V30 7263 H 754.499 -2.57141 -5.12398 0
M  V30 7264 H 752.896 -3.34927 -4.97939 0
M  V30 7265 H 753.966 -3.28434 -3.56734 0
M  V30 7266 N 755.309 1.25446 -0.953992 0
M  V30 7267 C 756.219 2.29632 -0.480264 0
M  V30 7268 C 757.235 1.68025 0.452071 0
M  V30 7269 O 758.411 1.98703 0.328472 0
M  V30 7270 C 755.476 3.45903 0.234974 0
M  V30 7271 C 754.537 4.22953 -0.735495 0
M  V30 7272 C 753.77 5.33672 -0.0542957 0
M  V30 7273 O 753.993 5.58477 1.16018 0
M  V30 7274 O 752.927 5.9734 -0.739509 0
M  V30 7275 H 756.753 2.72242 -1.34602 0
M  V30 7276 H 754.338 1.30883 -0.720419 0
M  V30 7277 H 756.22 4.16552 0.637341 0
M  V30 7278 H 754.895 3.05296 1.07592 0
M  V30 7279 H 753.802 3.54734 -1.18806 0
M  V30 7280 H 755.135 4.67341 -1.54444 0
M  V30 7281 N 756.787 0.722489 1.40064 0
M  V30 7282 C 757.75 0.0830209 2.2905 0
M  V30 7283 C 758.75 -0.680208 1.45705 0
M  V30 7284 O 759.94 -0.511084 1.66534 0
M  V30 7285 C 757.072 -0.892092 3.29021 0
M  V30 7286 H 758.265 0.866848 2.87099 0
M  V30 7287 H 755.818 0.487556 1.48501 0
M  V30 7288 H 756.553 -1.70273 2.76003 0
M  V30 7289 H 756.338 -0.34761 3.90556 0
M  V30 7290 H 757.828 -1.33648 3.95636 0
M  V30 7291 N 758.265 -1.50454 0.469181 0
M  V30 7292 C 759.493 -2.06729 -0.0842134 0
M  V30 7293 C 759.908 -1.33326 -1.33677 0
M  V30 7294 O 759.265 -0.401977 -1.78018 0
M  V30 7295 C 759.316 -3.59557 -0.374253 0
M  V30 7296 O 759.037 -4.30192 0.828622 0
M  V30 7297 C 760.538 -4.32449 -0.974824 0
M  V30 7298 H 757.758 -0.670971 0.006231 0
M  V30 7299 H 760.302 -1.93645 0.657415 0
M  V30 7300 H 758.457 -3.7245 -1.06581 0
M  V30 7301 H 758.871 -5.21371 0.572066 0
M  V30 7302 H 760.345 -5.40361 -1.12755 0
M  V30 7303 H 760.822 -3.92819 -1.96442 0
M  V30 7304 H 761.428 -4.24082 -0.321703 0
M  V30 7305 N 759.743 -0.201713 -1.56304 0
M  V30 7306 C 761.154 0.309711 -1.84113 0
M  V30 7307 C 761.505 1.60912 -1.12258 0
M  V30 7308 O 760.63 2.12937 -0.385587 0
M  V30 7309 C 761.225 0.568706 -3.33993 0
M  V30 7310 C 759.784 1.02448 -3.6219 0
M  V30 7311 C 758.931 0.0766842 -2.77194 0
M  V30 7312 H 761.882 -0.425356 -1.52893 0
M  V30 7313 H 761.903 1.41721 -3.53122 0
M  V30 7314 H 761.415 -0.37719 -3.86263 0
M  V30 7315 H 759.516 1.98443 -3.15359 0
M  V30 7316 H 759.629 0.912619 -4.70328 0
M  V30 7317 H 757.993 0.579809 -2.48013 0
M  V30 7318 H 758.776 -0.863774 -3.32256 0
M  V30 7319 N 761.222 1.57436 0.0718424 0
M  V30 7320 C 762.132 2.07039 1.10326 0
M  V30 7321 C 763.148 0.999918 1.424 0
M  V30 7322 O 764.324 1.31462 1.52577 0
M  V30 7323 C 761.389 2.50439 2.39752 0
M  V30 7324 C 760.45 3.71784 2.14651 0
M  V30 7325 C 759.683 4.13104 3.37906 0
M  V30 7326 O 759.906 3.54298 4.47023 0
M  V30 7327 O 758.84 5.05894 3.26121 0
M  V30 7328 H 762.666 2.95239 0.711872 0
M  V30 7329 H 760.251 1.46638 0.28597 0
M  V30 7330 H 762.133 2.78876 3.15921 0
M  V30 7331 H 760.808 1.65368 2.78271 0
M  V30 7332 H 759.715 3.48431 1.36187 0
M  V30 7333 H 761.048 4.57707 1.81012 0
M  V30 7334 N 762.7 -0.34323 1.53817 0
M  V30 7335 C 763.663 -1.40444 1.8113 0
M  V30 7336 C 764.663 -1.45604 0.682366 0
M  V30 7337 O 765.853 -1.45974 0.950649 0
M  V30 7338 C 762.985 -2.79369 1.95361 0
M  V30 7339 H 764.178 -1.17489 2.75928 0
M  V30 7340 H 761.731 -0.577636 1.45234 0
M  V30 7341 H 762.466 -3.07607 1.02707 0
M  V30 7342 H 762.251 -2.7702 2.77493 0
M  V30 7343 H 763.741 -3.56178 2.18008 0
M  V30 7344 N 764.178 -1.45556 -0.604258 0
M  V30 7345 C 765.594 -1.30035 -0.925368 0
M  V30 7346 C 765.794 -0.255833 -1.99869 0
M  V30 7347 O 764.85 0.349076 -2.50075 0
M  V30 7348 C 766.163 -2.68028 -1.36314 0
M  V30 7349 C 767.711 -2.75951 -1.47717 0
M  V30 7350 C 768.186 -4.14476 -1.94868 0
M  V30 7351 N 769.677 -4.16787 -2.02097 0
M  V30 7352 C 770.412 -5.20845 -2.39809 0
M  V30 7353 N 769.908 -6.35246 -2.76467 0
M  V30 7354 N 771.701 -5.08204 -2.40177 0
M  V30 7355 H 763.852 -2.1214 0.10512 0
M  V30 7356 H 766.115 -0.947871 -0.0156303 0
M  V30 7357 H 765.821 -3.45667 -0.648628 0
M  V30 7358 H 765.695 -2.96711 -2.329 0
M  V30 7359 H 768.082 -1.98613 -2.18258 0
M  V30 7360 H 768.163 -2.50977 -0.494371 0
M  V30 7361 H 767.807 -4.923 -1.24912 0
M  V30 7362 H 767.737 -4.36843 -2.94068 0
M  V30 7363 H 770.228 -3.34233 -1.76343 0
M  V30 7364 H 770.541 -7.10438 -3.04134 0
M  V30 7365 H 768.886 -6.38642 -2.74155 0
M  V30 7366 H 772.077 -4.17874 -2.10947 0
M  V30 7367 H 772.25 -5.89417 -2.69242 0
M  V30 7368 N 765.656 0.84705 -1.32902 0
M  V30 7369 C 767.067 1.41785 -1.21466 0
M  V30 7370 C 767.418 1.95464 0.169767 0
M  V30 7371 O 766.543 1.88157 1.06892 0
M  V30 7372 C 767.138 2.57734 -2.19906 0
M  V30 7373 C 765.697 3.10791 -2.12334 0
M  V30 7374 C 764.844 1.83562 -2.07847 0
M  V30 7375 H 767.795 0.653532 -1.44619 0
M  V30 7376 H 767.816 3.35123 -1.80202 0
M  V30 7377 H 767.328 2.18635 -3.20656 0
M  V30 7378 H 765.429 3.54455 -1.14858 0
M  V30 7379 H 765.542 3.71519 -3.02506 0
M  V30 7380 H 763.906 2.03475 -1.53199 0
M  V30 7381 H 764.689 1.4667 -3.10392 0
M  V30 7382 N 767.134 1.16236 1.06428 0
M  V30 7383 C 768.044 0.881976 2.1739 0
M  V30 7384 C 769.06 -0.145259 1.73393 0
M  V30 7385 O 770.236 0.0310558 2.01376 0
M  V30 7386 C 767.301 0.385496 3.4455 0
M  V30 7387 C 766.362 1.47779 4.03063 0
M  V30 7388 C 765.595 1.0049 5.24154 0
M  V30 7389 O 765.818 -0.145889 5.70213 0
M  V30 7390 O 764.752 1.79265 5.74585 0
M  V30 7391 H 768.578 1.80983 2.43883 0
M  V30 7392 H 766.163 0.942226 1.15942 0
M  V30 7393 H 768.045 0.115536 4.21242 0
M  V30 7394 H 766.72 -0.514369 3.19587 0
M  V30 7395 H 765.627 1.80147 3.27869 0
M  V30 7396 H 766.96 2.35291 4.32318 0
M  V30 7397 N 768.612 -1.24939 0.960631 0
M  V30 7398 C 769.522 -2.29374 0.492435 0
M  V30 7399 C 770.538 -1.68262 -0.443154 0
M  V30 7400 O 771.714 -1.98875 -0.31793 0
M  V30 7401 C 768.779 -3.46023 -0.216626 0
M  V30 7402 C 767.84 -4.22557 0.757915 0
M  V30 7403 C 767.073 -5.33636 0.0825969 0
M  V30 7404 O 767.296 -5.59084 -1.13054 0
M  V30 7405 O 766.23 -5.96939 0.771177 0
M  V30 7406 H 770.056 -2.71525 1.36044 0
M  V30 7407 H 767.641 -1.30499 0.72735 0
M  V30 7408 H 769.523 -4.16885 -0.615241 0
M  V30 7409 H 768.198 -3.05862 -1.05971 0
M  V30 7410 H 767.105 -3.54099 1.20685 0
M  V30 7411 H 768.438 -4.66516 1.5692 0
M  V30 7412 N 770.09 -0.729906 -1.39679 0
M  V30 7413 C 771 -0.0880322 -2.34435 0
M  V30 7414 C 772.016 0.727674 -1.58053 0
M  V30 7415 O 773.192 0.657321 -1.90371 0
M  V30 7416 C 770.257 0.812211 -3.37052 0
M  V30 7417 C 769.318 -0.0151681 -4.29297 0
M  V30 7418 C 768.551 0.842202 -5.27013 0
M  V30 7419 O 768.774 2.08108 -5.31081 0
M  V30 7420 O 767.708 0.27357 -6.01278 0
M  V30 7421 H 771.534 -0.869989 -2.90972 0
M  V30 7422 H 769.119 -0.490522 -1.41118 0
M  V30 7423 H 771.001 1.32745 -3.99946 0
M  V30 7424 H 769.676 1.57307 -2.82907 0
M  V30 7425 H 768.583 -0.575811 -3.69642 0
M  V30 7426 H 769.916 -0.738129 -4.86634 0
M  V30 7427 N 771.568 1.50203 -0.477153 0
M  V30 7428 C 772.498 2.31517 0.303646 0
M  V30 7429 C 773.479 1.38696 0.984753 0
M  V30 7430 O 774.664 1.67615 0.980758 0
M  V30 7431 C 771.794 3.18598 1.38249 0
M  V30 7432 C 770.748 4.2002 0.822645 0
M  V30 7433 C 770.074 4.95878 2.00024 0
M  V30 7434 C 771.374 5.22023 -0.170185 0
M  V30 7435 H 773.068 2.97042 -0.375027 0
M  V30 7436 H 770.614 1.42848 -0.181802 0
M  V30 7437 H 772.567 3.74282 1.93625 0
M  V30 7438 H 771.291 2.5097 2.09002 0
M  V30 7439 H 769.95 3.65445 0.290813 0
M  V30 7440 H 769.598 4.24717 2.69489 0
M  V30 7441 H 769.298 5.64487 1.63183 0
M  V30 7442 H 770.822 5.54399 2.55878 0
M  V30 7443 H 772.236 5.72543 0.294606 0
M  V30 7444 H 770.633 5.98386 -0.453181 0
M  V30 7445 H 771.703 4.72396 -1.09408 0
M  V30 7446 N 773.046 0.209999 1.56195 0
M  V30 7447 C 774.274 -0.429996 2.02382 0
M  V30 7448 C 774.689 -1.54159 1.08998 0
M  V30 7449 O 774.046 -1.82239 0.0974856 0
M  V30 7450 C 774.097 -0.972433 3.48175 0
M  V30 7451 O 773.818 0.0948231 4.37997 0
M  V30 7452 C 775.319 -1.68683 4.09952 0
M  V30 7453 H 772.539 -0.106475 0.662498 0
M  V30 7454 H 775.083 0.323072 2.01932 0
M  V30 7455 H 773.238 -1.67582 3.49278 0
M  V30 7456 H 773.652 -0.31113 5.23576 0
M  V30 7457 H 775.126 -2.01851 5.13771 0
M  V30 7458 H 775.603 -2.59587 3.54276 0
M  V30 7459 H 776.209 -1.02893 4.12666 0
M  V30 7460 N 774.524 -1.57472 -0.0634922 0
M  V30 7461 C 775.772 -1.87283 -0.759563 0
M  V30 7462 C 776.093 -0.803135 -1.77693 0
M  V30 7463 O 775.363 0.167293 -1.95184 0
M  V30 7464 H 773.943 -0.691106 -0.283516 0
M  V30 7465 H 776.605 -1.94864 -0.0376091 0
M  V30 7466 H 775.701 -2.85064 -1.27062 0
M  V30 7467 N 776.003 0.335068 -1.53997 0
M  V30 7468 C 776.913 1.43511 -1.85585 0
M  V30 7469 C 777.929 1.57162 -0.746726 0
M  V30 7470 O 779.105 1.72477 -1.03988 0
M  V30 7471 C 776.17 2.78386 -2.06646 0
M  V30 7472 C 775.231 2.74007 -3.30483 0
M  V30 7473 C 774.464 4.02449 -3.50529 0
M  V30 7474 O 774.687 5.00147 -2.74242 0
M  V30 7475 O 773.621 4.06405 -4.4398 0
M  V30 7476 H 777.447 1.19731 -2.79102 0
M  V30 7477 H 775.032 0.528033 -1.39758 0
M  V30 7478 H 776.914 3.58247 -2.21894 0
M  V30 7479 H 775.589 3.0208 -1.16317 0
M  V30 7480 H 774.496 1.92736 -3.2063 0
M  V30 7481 H 775.829 2.55267 -4.20832 0
M  V30 7482 N 777.481 1.45874 0.596531 0
M  V30 7483 C 778.391 1.57947 1.73464 0
M  V30 7484 C 779.407 0.463461 1.67714 0
M  V30 7485 O 780.583 0.725685 1.87872 0
M  V30 7486 C 777.648 1.55348 3.09948 0
M  V30 7487 C 776.709 2.78074 3.27068 0
M  V30 7488 C 775.942 2.75589 4.57041 0
M  V30 7489 O 776.165 1.83545 5.40063 0
M  V30 7490 O 775.099 3.66945 4.77111 0
M  V30 7491 H 778.925 2.54169 1.66228 0
M  V30 7492 H 776.51 1.2851 0.76194 0
M  V30 7493 H 778.392 1.56545 3.91244 0
M  V30 7494 H 777.067 0.622811 3.17652 0
M  V30 7495 H 775.974 2.82435 2.45319 0
M  V30 7496 H 777.307 3.70303 3.24248 0
M  V30 7497 N 778.959 -0.83999 1.33349 0
M  V30 7498 C 780.184 -1.63249 1.27924 0
M  V30 7499 C 780.609 -1.87523 -0.147193 0
M  V30 7500 O 779.967 -1.43853 -1.10345 0
M  V30 7501 C 780.015 -2.96046 2.05886 0
M  V30 7502 O 779.119 -3.87303 1.4167 0
M  V30 7503 H 778.46 -0.49715 0.440157 0
M  V30 7504 H 780.99 -1.04512 1.75893 0
M  V30 7505 H 781 -3.45752 2.16609 0
M  V30 7506 H 779.675 -2.77701 3.09605 0
M  V30 7507 H 778.252 -3.45789 1.39585 0
M  V30 7508 N 780.437 -1.16799 -1.0581 0
M  V30 7509 C 781.347 -0.893492 -2.16919 0
M  V30 7510 C 782.363 0.136061 -1.73467 0
M  V30 7511 O 783.539 -0.0417348 -2.01357 0
M  V30 7512 C 780.604 -0.403763 -3.44341 0
M  V30 7513 C 779.665 -1.49914 -4.02274 0
M  V30 7514 C 778.898 -1.03269 -5.23614 0
M  V30 7515 O 779.121 0.115647 -5.70283 0
M  V30 7516 O 778.055 -1.8231 -5.73626 0
M  V30 7517 H 781.881 -1.82274 -2.42919 0
M  V30 7518 H 779.466 -0.948361 -1.1544 0
M  V30 7519 H 781.348 -0.137874 -4.21174 0
M  V30 7520 H 780.023 0.497413 -3.19855 0
M  V30 7521 H 778.93 -1.81883 -3.26909 0
M  V30 7522 H 780.263 -2.3758 -4.31064 0
M  V30 7523 N 781.915 1.24427 -0.967243 0
M  V30 7524 C 782.878 2.23637 -0.501927 0
M  V30 7525 C 783.878 1.55712 0.401283 0
M  V30 7526 O 785.068 1.73085 0.196808 0
M  V30 7527 C 782.2 3.39804 0.273176 0
M  V30 7528 H 783.393 2.66317 -1.37897 0
M  V30 7529 H 780.946 1.37033 -0.751783 0
M  V30 7530 H 781.681 3.02562 1.16733 0
M  V30 7531 H 781.466 3.90303 -0.37498 0
M  V30 7532 H 782.956 4.13443 0.587776 0
M  V30 7533 N 783.393 0.737304 1.3929 0
M  V30 7534 C 784.356 0.10731 2.28949 0
M  V30 7535 C 785.356 -0.664716 1.46418 0
M  V30 7536 O 786.546 -0.493392 1.67067 0
M  V30 7537 C 783.678 -0.857145 3.29948 0
M  V30 7538 H 784.871 0.89725 2.86163 0
M  V30 7539 H 782.424 0.503279 1.47976 0
M  V30 7540 H 783.159 -1.67336 2.77794 0
M  V30 7541 H 782.944 -0.306167 3.90903 0
M  V30 7542 H 784.434 -1.29444 3.97031 0
M  V30 7543 N 784.871 -1.49948 0.485112 0
M  V30 7544 C 785.803 -2.26691 -0.338222 0
M  V30 7545 C 786.816 -1.32584 -0.944742 0
M  V30 7546 O 788.005 -1.57989 -0.830772 0
M  V30 7547 C 785.105 -3.04405 -1.48966 0
M  V30 7548 C 784.278 -4.25971 -0.993371 0
M  V30 7549 C 783.337 -4.85861 -2.02052 0
M  V30 7550 O 782.363 -5.46382 -1.59547 0
M  V30 7551 N 783.565 -4.74101 -3.34975 0
M  V30 7552 H 786.33 -2.97989 0.319748 0
M  V30 7553 H 783.891 -1.58772 0.316714 0
M  V30 7554 H 785.883 -3.41348 -2.17403 0
M  V30 7555 H 784.453 -2.35815 -2.05207 0
M  V30 7556 H 783.673 -3.93971 -0.134424 0
M  V30 7557 H 784.961 -5.0476 -0.639934 0
M  V30 7558 H 784.359 -4.26002 -3.72208 0
M  V30 7559 H 782.916 -5.15274 -3.9917 0
M  V30 7560 N 786.349 -0.21828 -1.56081 0
M  V30 7561 C 787.577 0.419258 -2.02608 0
M  V30 7562 C 787.992 1.53578 -1.09814 0
M  V30 7563 O 787.349 1.82185 -0.107149 0
M  V30 7564 C 787.4 0.953955 -3.48686 0
M  V30 7565 O 787.121 -0.11805 -4.37941 0
M  V30 7566 C 788.622 1.66506 -4.10841 0
M  V30 7567 H 785.842 0.10296 -0.663054 0
M  V30 7568 H 788.386 -0.333776 -2.01758 0
M  V30 7569 H 786.541 1.65727 -3.50162 0
M  V30 7570 H 786.955 0.283359 -5.23734 0
M  V30 7571 H 788.429 1.99123 -5.14834 0
M  V30 7572 H 788.906 2.57705 -3.55647 0
M  V30 7573 H 789.512 1.00703 -4.13206 0
M  V30 7574 N 787.827 1.57504 0.0551401 0
M  V30 7575 C 789.052 1.92682 0.767352 0
M  V30 7576 C 789.477 0.81614 1.69472 0
M  V30 7577 O 788.835 -0.229989 1.79835 0
M  V30 7578 C 788.883 3.26866 1.52286 0
M  V30 7579 O 787.987 3.17274 2.63459 0
M  V30 7580 H 787.328 0.630502 0.208238 0
M  V30 7581 H 789.858 2.04592 0.0184026 0
M  V30 7582 H 789.868 3.61138 1.8985 0
M  V30 7583 H 788.543 4.07276 0.842541 0
M  V30 7584 H 787.12 2.94589 2.2863 0
M  V30 7585 N 789.305 -0.326896 1.54172 0
M  V30 7586 C 790.545 -1.07349 1.73941 0
M  V30 7587 C 790.909 -1.85355 0.50075 0
M  V30 7588 O 792.11 -2.62562 0.575731 0
M  V30 7589 C 790.381 -1.97636 2.97783 0
M  V30 7590 S 791.94 -2.79292 3.3844 0
M  V30 7591 H 788.758 -0.362459 0.611673 0
M  V30 7592 H 791.36 -0.349884 1.92344 0
M  V30 7593 H 790.064 -1.39158 3.86087 0
M  V30 7594 H 789.595 -2.74406 2.81895 0
M  V30 7595 H 791.61 -4.00106 2.93478 0
M  V30 7596 N 790.784 -1.46188 -0.588786 0
M  V30 7597 C 792.032 -1.50885 -1.34455 0
M  V30 7598 C 792.353 -0.159555 -1.94346 0
M  V30 7599 O 791.623 0.813239 -1.78222 0
M  V30 7600 H 790.203 -0.555707 -0.499198 0
M  V30 7601 H 792.865 -1.82277 -0.690014 0
M  V30 7602 H 791.961 -2.25816 -2.15438 0
M  V30 7603 N 792.262 0.832906 -1.33792 0
M  V30 7604 C 793.192 1.95828 -1.27176 0
M  V30 7605 C 794.173 1.69427 -0.15114 0
M  V30 7606 O 795.358 1.91167 -0.341886 0
M  V30 7607 C 792.488 3.32098 -1.01629 0
M  V30 7608 C 791.442 3.72912 -2.10049 0
M  V30 7609 C 790.768 5.07054 -1.69706 0
M  V30 7610 C 792.068 3.86064 -3.51783 0
M  V30 7611 H 793.762 2.01622 -2.21334 0
M  V30 7612 H 791.308 0.96866 -1.0655 0
M  V30 7613 H 793.261 4.10402 -0.956474 0
M  V30 7614 H 791.985 3.26577 -0.0390956 0
M  V30 7615 H 790.644 2.96876 -2.15082 0
M  V30 7616 H 790.292 4.9801 -0.706737 0
M  V30 7617 H 789.992 5.35333 -2.42264 0
M  V30 7618 H 791.516 5.87827 -1.65202 0
M  V30 7619 H 792.93 4.54665 -3.49218 0
M  V30 7620 H 791.327 4.25787 -4.22878 0
M  V30 7621 H 792.397 2.88344 -3.89854 0
M  V30 7622 N 793.74 1.17359 1.05189 0
M  V30 7623 C 794.67 0.91365 2.14883 0
M  V30 7624 C 795.651 -0.144365 1.69486 0
M  V30 7625 O 796.836 0.00587861 1.94199 0
M  V30 7626 C 793.966 0.426196 3.44675 0
M  V30 7627 C 792.92 1.4234 4.03638 0
M  V30 7628 C 792.246 0.793902 5.28773 0
M  V30 7629 C 793.546 2.7966 4.41121 0
M  V30 7630 H 795.24 1.831 2.36885 0
M  V30 7631 H 792.786 0.881781 1.13845 0
M  V30 7632 H 794.739 0.231767 4.20762 0
M  V30 7633 H 793.463 -0.526693 3.22325 0
M  V30 7634 H 792.122 1.60457 3.2962 0
M  V30 7635 H 791.77 -0.165824 5.02727 0
M  V30 7636 H 791.47 1.45959 5.69183 0
M  V30 7637 H 792.994 0.609747 6.07548 0
M  V30 7638 H 794.408 2.6526 5.08242 0
M  V30 7639 H 792.805 3.42807 4.92548 0
M  V30 7640 H 793.875 3.34068 3.51464 0
M  V30 7641 N 795.218 -1.23913 0.973828 0
M  V30 7642 C 796.466 -1.91771 0.637817 0
M  V30 7643 C 796.787 -1.76434 -0.830435 0
M  V30 7644 O 796.057 -1.13965 -1.59339 0
M  V30 7645 H 794.637 -0.709761 0.232912 0
M  V30 7646 H 797.299 -1.50677 1.23622 0
M  V30 7647 H 796.395 -2.99327 0.883731 0
M  V30 7648 N 796.696 -0.74468 -1.38897 0
M  V30 7649 C 797.942 -0.297324 -2.00609 0
M  V30 7650 C 798.275 1.11547 -1.58968 0
M  V30 7651 O 797.55 1.76227 -0.823057 0
M  V30 7652 C 797.833 -0.410125 -3.57757 0
M  V30 7653 C 797.686 -1.86338 -4.09387 0
M  V30 7654 C 799.005 0.20176 -4.39637 0
M  V30 7655 H 796.124 -0.109509 -0.728819 0
M  V30 7656 H 798.766 -0.942653 -1.64967 0
M  V30 7657 H 796.916 0.139287 -3.8825 0
M  V30 7658 H 798.588 -2.47042 -3.89574 0
M  V30 7659 H 796.831 -2.38146 -3.62586 0
M  V30 7660 H 797.502 -1.89352 -5.18507 0
M  V30 7661 H 799.978 -0.266703 -4.15244 0
M  V30 7662 H 798.854 0.0925415 -5.48822 0
M  V30 7663 H 799.115 1.289 -4.22891 0
M  V30 7664 N 798.174 1.49689 -0.493057 0
M  V30 7665 C 799.084 2.32746 0.294358 0
M  V30 7666 C 800.1 1.44117 0.975003 0
M  V30 7667 O 801.276 1.77149 0.958138 0
M  V30 7668 C 798.341 3.19358 1.34949 0
M  V30 7669 C 797.402 4.2383 0.683122 0
M  V30 7670 C 796.635 5.06303 1.68798 0
M  V30 7671 O 796.858 4.90172 2.91698 0
M  V30 7672 O 795.792 5.88826 1.24768 0
M  V30 7673 H 799.618 3.01247 -0.385254 0
M  V30 7674 H 797.203 1.47216 -0.254519 0
M  V30 7675 H 799.085 3.73037 1.96014 0
M  V30 7676 H 797.76 2.53561 2.01217 0
M  V30 7677 H 796.667 3.74086 0.0329351 0
M  V30 7678 H 798 4.9216 0.0630192 0
M  V30 7679 N 799.652 0.226554 1.55963 0
M  V30 7680 C 800.898 -0.397608 1.99476 0
M  V30 7681 C 801.253 -1.57031 1.11172 0
M  V30 7682 O 800.546 -1.90907 0.162757 0
M  V30 7683 C 800.74 -0.87642 3.46488 0
M  V30 7684 C 800.569 0.248344 4.49014 0
M  V30 7685 C 799.339 0.71638 5.00196 0
M  V30 7686 C 801.537 1.06835 5.03081 0
M  V30 7687 N 799.519 1.81568 5.86435 0
M  V30 7688 C 800.89 2.01641 5.86294 0
M  V30 7689 C 802.945 1.10722 4.85433 0
M  V30 7690 C 801.648 3.0002 6.53743 0
M  V30 7691 C 803.674 2.07921 5.53645 0
M  V30 7692 C 803.036 3.01466 6.3663 0
M  V30 7693 H 799.135 -0.112024 0.773935 0
M  V30 7694 H 801.719 0.339472 1.91718 0
M  V30 7695 H 799.89 -1.58285 3.54684 0
M  V30 7696 H 801.622 -1.47382 3.76909 0
M  V30 7697 H 798.377 0.30409 4.72623 0
M  V30 7698 H 798.801 2.36748 6.34255 0
M  V30 7699 H 803.443 0.397909 4.20923 0
M  V30 7700 H 801.161 3.71911 7.17432 0
M  V30 7701 H 804.747 2.11609 5.41953 0
M  V30 7702 H 803.627 3.75451 6.88481 0
M  V30 7703 N 801.13 -1.57531 -0.0467866 0
M  V30 7704 C 802.378 -1.88078 -0.739656 0
M  V30 7705 C 802.699 -0.821936 -1.76831 0
M  V30 7706 O 801.969 0.146582 -1.95351 0
M  V30 7707 H 800.549 -0.694075 -0.276169 0
M  V30 7708 H 803.211 -1.94893 -0.0169391 0
M  V30 7709 H 802.307 -2.86396 -1.24031 0
M  V30 7710 N 802.608 0.318715 -1.54344 0
M  V30 7711 C 803.856 1.054 -1.72439 0
M  V30 7712 C 804.177 1.88388 -0.503495 0
M  V30 7713 O 803.447 1.89866 0.48246 0
M  V30 7714 H 802.027 0.392124 -0.635805 0
M  V30 7715 H 804.689 0.35398 -1.91659 0
M  V30 7716 H 803.785 1.71726 -2.60608 0
M  V30 7717 N 804.086 1.46499 0.581025 0
M  V30 7718 C 805.016 1.60052 1.70017 0
M  V30 7719 C 805.997 0.450788 1.64018 0
M  V30 7720 O 807.182 0.677237 1.82009 0
M  V30 7721 C 804.312 1.5921 3.08658 0
M  V30 7722 C 803.266 2.73169 3.29488 0
M  V30 7723 C 802.592 2.57389 4.68674 0
M  V30 7724 C 803.892 4.14978 3.1716 0
M  V30 7725 H 805.586 2.53735 1.5893 0
M  V30 7726 H 803.132 1.22113 0.763173 0
M  V30 7727 H 805.085 1.67285 3.86773 0
M  V30 7728 H 803.809 0.620718 3.20647 0
M  V30 7729 H 802.468 2.64566 2.53773 0
M  V30 7730 H 802.116 1.58331 4.77431 0
M  V30 7731 H 801.816 3.33826 4.83564 0
M  V30 7732 H 803.34 2.67358 5.48956 0
M  V30 7733 H 804.754 4.24684 3.85119 0
M  V30 7734 H 803.151 4.92016 3.4357 0
M  V30 7735 H 804.221 4.35016 2.14218 0
M  V30 7736 N 805.565 -0.825799 1.34232 0
M  V30 7737 C 806.793 -1.61363 1.29497 0
M  V30 7738 C 807.208 -1.88341 -0.131536 0
M  V30 7739 O 806.565 -1.47279 -1.07773 0
M  V30 7740 C 806.616 -2.95623 2.08061 0
M  V30 7741 O 806.337 -2.69824 3.45147 0
M  V30 7742 C 807.838 -3.90032 2.10688 0
M  V30 7743 H 805.058 -0.501676 0.445603 0
M  V30 7744 H 807.602 -1.02767 1.76803 0
M  V30 7745 H 805.757 -3.50785 1.64404 0
M  V30 7746 H 806.171 -3.55412 3.85723 0
M  V30 7747 H 807.645 -4.81411 2.70087 0
M  V30 7748 H 808.122 -4.25188 1.10052 0
M  V30 7749 H 808.728 -3.40807 2.54422 0
M  V30 7750 N 807.043 -1.17915 -1.04565 0
M  V30 7751 C 807.993 -0.869634 -2.10764 0
M  V30 7752 C 808.977 0.158502 -1.60117 0
M  V30 7753 O 810.169 -0.04483 -1.76943 0
M  V30 7754 C 807.298 -0.391642 -3.41059 0
M  V30 7755 C 806.384 -1.45156 -3.98485 0
M  V30 7756 N 806.775 -2.6667 -4.29792 0
M  V30 7757 C 805.073 -1.3109 -4.263 0
M  V30 7758 C 805.774 -3.34823 -4.75677 0
M  V30 7759 N 804.75 -2.62203 -4.76183 0
M  V30 7760 H 808.552 -1.79342 -2.32838 0
M  V30 7761 H 806.066 -1.0688 -1.22272 0
M  V30 7762 H 808.063 -0.151428 -4.16625 0
M  V30 7763 H 806.723 0.525862 -3.20413 0
M  V30 7764 H 807.734 -3.0358 -4.19594 0
M  V30 7765 H 804.411 -0.455545 -4.15007 0
M  V30 7766 H 805.801 -4.38645 -5.0896 0
M  V30 7767 N 808.521 1.23394 -0.980386 0
M  V30 7768 C 809.746 1.96384 -0.666935 0
M  V30 7769 C 810.171 1.72087 0.759456 0
M  V30 7770 O 809.529 0.992328 1.51732 0
M  V30 7771 C 809.577 3.47499 -0.963177 0
M  V30 7772 O 808.681 4.12363 -0.0552051 0
M  V30 7773 H 808.022 0.614797 -0.250839 0
M  V30 7774 H 810.552 1.56831 -1.31398 0
M  V30 7775 H 810.562 3.97953 -0.899877 0
M  V30 7776 H 809.237 3.6451 -2.00264 0
M  V30 7777 H 807.814 3.72499 -0.172914 0
M  V30 7778 N 809.999 0.752036 1.385 0
M  V30 7779 C 811.245 0.307958 2.00448 0
M  V30 7780 C 811.578 -1.10702 1.59558 0
M  V30 7781 O 810.853 -1.75788 0.832391 0
M  V30 7782 C 811.136 0.429092 3.57534 0
M  V30 7783 C 810.989 1.88507 4.08393 0
M  V30 7784 C 812.308 -0.178442 4.39738 0
M  V30 7785 H 809.427 0.113373 0.728228 0
M  V30 7786 H 812.069 0.951389 1.64465 0
M  V30 7787 H 810.219 -0.118695 3.88319 0
M  V30 7788 H 811.891 2.49104 3.88259 0
M  V30 7789 H 810.134 2.40066 3.61318 0
M  V30 7790 H 810.805 1.92099 5.17496 0
M  V30 7791 H 813.281 0.28872 4.15097 0
M  V30 7792 H 812.157 -0.0634349 5.48863 0
M  V30 7793 H 812.418 -1.26655 4.23569 0
M  V30 7794 N 811.477 -1.49425 0.500989 0
M  V30 7795 C 812.705 -2.06861 -0.0403443 0
M  V30 7796 C 813.12 -1.36132 -1.30819 0
M  V30 7797 O 812.477 -0.439647 -1.77125 0
M  V30 7798 C 812.528 -3.6027 -0.297902 0
M  V30 7799 O 812.249 -4.28338 0.919686 0
M  V30 7800 C 813.75 -4.34419 -0.882876 0
M  V30 7801 H 810.97 -0.670688 0.0204619 0
M  V30 7802 H 813.514 -1.92207 0.698342 0
M  V30 7803 H 811.669 -3.74627 -0.98657 0
M  V30 7804 H 812.083 -5.2004 0.682528 0
M  V30 7805 H 813.557 -5.42631 -1.01268 0
M  V30 7806 H 814.034 -3.96898 -1.88066 0
M  V30 7807 H 814.64 -4.24669 -0.231677 0
M  V30 7808 N 812.955 -0.234822 -1.55841 0
M  V30 7809 C 813.902 0.6698 -2.20867 0
M  V30 7810 C 814.872 1.18042 -1.16856 0
M  V30 7811 O 816.057 1.23709 -1.45261 0
M  V30 7812 C 813.197 1.86646 -2.90271 0
M  V30 7813 C 812.31 1.39351 -4.08908 0
M  V30 7814 C 811.445 2.54878 -4.66059 0
M  V30 7815 C 810.484 2.04384 -5.76969 0
M  V30 7816 N 809.621 3.13233 -6.28355 0
M  V30 7817 H 814.461 0.10858 -2.97802 0
M  V30 7818 H 811.998 0.041836 -1.4704 0
M  V30 7819 H 813.956 2.56926 -3.28702 0
M  V30 7820 H 812.586 2.40035 -2.15831 0
M  V30 7821 H 811.638 0.585173 -3.75872 0
M  V30 7822 H 812.95 0.983356 -4.89011 0
M  V30 7823 H 812.104 3.33219 -5.07001 0
M  V30 7824 H 810.843 2.99188 -3.85146 0
M  V30 7825 H 809.848 1.24509 -5.35516 0
M  V30 7826 H 811.073 1.61057 -6.59725 0
M  V30 7827 H 809.019 3.57 -5.50352 0
M  V30 7828 H 808.936 2.76511 -7.03618 0
M  V30 7829 H 810.204 3.91669 -6.73955 0
M  V30 7830 N 814.433 1.57553 0.0384317 0
M  V30 7831 C 815.681 1.88468 0.729672 0
M  V30 7832 C 816.002 0.831302 1.76393 0
M  V30 7833 O 815.272 -0.13622 1.95426 0
M  V30 7834 H 813.852 0.695529 0.272485 0
M  V30 7835 H 816.514 1.94899 0.0066032 0
M  V30 7836 H 815.61 2.8705 1.22511 0
M  V30 7837 N 815.911 -0.310526 1.54511 0
M  V30 7838 C 816.843 -1.40405 1.8116 0
M  V30 7839 C 817.856 -1.47261 0.694114 0
M  V30 7840 O 819.045 -1.49751 0.971441 0
M  V30 7841 C 816.145 -2.78849 1.92604 0
M  V30 7842 C 815.318 -2.95041 3.22908 0
M  V30 7843 C 814.377 -4.13925 3.24889 0
M  V30 7844 O 813.403 -4.06463 3.98467 0
M  V30 7845 N 814.605 -5.24099 2.496 0
M  V30 7846 H 817.37 -1.17903 2.75534 0
M  V30 7847 H 814.931 -0.500564 1.53967 0
M  V30 7848 H 816.923 -3.5661 1.91342 0
M  V30 7849 H 815.493 -2.94342 1.05268 0
M  V30 7850 H 814.713 -2.04472 3.37023 0
M  V30 7851 H 816.001 -3.02763 4.08916 0
M  V30 7852 H 815.399 -5.33039 1.89435 0
M  V30 7853 H 813.956 -6.0023 2.54102 0
M  V30 7854 N 817.389 -1.46805 -0.573248 0
M  V30 7855 C 818.637 -1.52302 -1.32847 0
M  V30 7856 C 818.958 -0.180159 -1.94166 0
M  V30 7857 O 818.228 0.794291 -1.79075 0
M  V30 7858 H 816.808 -0.56097 -0.493276 0
M  V30 7859 H 819.47 -1.82998 -0.670642 0
M  V30 7860 H 818.566 -2.28089 -2.13031 0
M  V30 7861 N 818.867 0.818669 -1.34668 0
M  V30 7862 C 820.278 1.39177 -1.24446 0
M  V30 7863 C 820.629 1.9578 0.128268 0
M  V30 7864 O 819.754 1.90382 1.02877 0
M  V30 7865 C 820.349 2.53012 -2.25323 0
M  V30 7866 C 818.908 3.06218 -2.18878 0
M  V30 7867 C 818.055 1.79112 -2.11694 0
M  V30 7868 H 821.006 0.622709 -1.45973 0
M  V30 7869 H 821.027 3.31226 -1.8727 0
M  V30 7870 H 820.539 2.11784 -3.25221 0
M  V30 7871 H 818.64 3.51939 -1.22351 0
M  V30 7872 H 818.753 3.65019 -3.10319 0
M  V30 7873 H 817.117 2.0018 -1.57481 0
M  V30 7874 H 817.9 1.40053 -3.13433 0
M  V30 7875 N 820.346 1.18468 1.03938 0
M  V30 7876 C 821.256 0.927889 2.1547 0
M  V30 7877 C 822.272 -0.108447 1.73662 0
M  V30 7878 O 823.448 0.0737636 2.01265 0
M  V30 7879 C 820.513 0.458494 3.43655 0
M  V30 7880 C 819.574 1.56295 3.99838 0
M  V30 7881 C 818.807 1.11586 5.21904 0
M  V30 7882 O 819.03 -0.0249057 5.70395 0
M  V30 7883 O 817.964 1.91412 5.70653 0
M  V30 7884 H 821.79 1.86116 2.39989 0
M  V30 7885 H 819.375 0.966607 1.13917 0
M  V30 7886 H 821.257 0.204861 4.20902 0
M  V30 7887 H 819.932 -0.446464 3.20606 0
M  V30 7888 H 818.839 1.87061 3.23974 0
M  V30 7889 H 820.172 2.44408 4.2723 0
M  V30 7890 N 821.824 -1.22873 0.986916 0
M  V30 7891 C 822.754 -2.2688 0.552064 0
M  V30 7892 C 823.735 -1.64883 -0.418048 0
M  V30 7893 O 824.92 -1.9171 -0.30999 0
M  V30 7894 C 822.05 -3.47018 -0.139959 0
M  V30 7895 C 821.004 -4.21411 0.748091 0
M  V30 7896 C 820.33 -5.34645 -0.0765132 0
M  V30 7897 C 821.63 -4.80726 2.04206 0
M  V30 7898 H 823.324 -2.63507 1.42143 0
M  V30 7899 H 820.87 -1.26668 0.68492 0
M  V30 7900 H 822.823 -4.18931 -0.455527 0
M  V30 7901 H 821.547 -3.0947 -1.04382 0
M  V30 7902 H 820.206 -3.51325 1.04721 0
M  V30 7903 H 819.854 -4.93339 -0.981109 0
M  V30 7904 H 819.554 -5.85342 0.514606 0
M  V30 7905 H 821.078 -6.09377 -0.386313 0
M  V30 7906 H 822.492 -5.44612 1.79083 0
M  V30 7907 H 820.889 -5.41737 2.5815 0
M  V30 7908 H 821.959 -4.01109 2.72469 0
M  V30 7909 N 823.302 -0.75937 -1.38099 0
M  V30 7910 C 824.235 -0.0838362 -2.28046 0
M  V30 7911 C 825.213 0.722229 -1.4568 0
M  V30 7912 O 826.397 0.699629 -1.75036 0
M  V30 7913 C 823.524 0.887916 -3.26854 0
M  V30 7914 C 822.57 0.167374 -4.26171 0
M  V30 7915 S 823.403 -1.13592 -5.23314 0
M  V30 7916 C 824.559 -0.167385 -6.25676 0
M  V30 7917 H 824.792 -0.846564 -2.84992 0
M  V30 7918 H 822.325 -0.552206 -1.44188 0
M  V30 7919 H 824.283 1.44322 -3.84293 0
M  V30 7920 H 822.944 1.62366 -2.68879 0
M  V30 7921 H 822.137 0.903567 -4.95834 0
M  V30 7922 H 821.739 -0.316572 -3.72658 0
M  V30 7923 H 824.031 0.664598 -6.74232 0
M  V30 7924 H 824.974 -0.831836 -7.03197 0
M  V30 7925 H 825.382 0.21589 -5.64087 0
M  V30 7926 N 824.78 1.49157 -0.508906 0
M  V30 7927 C 826.028 2.02073 0.0327335 0
M  V30 7928 C 826.349 1.39012 1.3675 0
M  V30 7929 O 825.619 0.548153 1.88075 0
M  V30 7930 H 824.199 0.746848 0.0150864 0
M  V30 7931 H 826.861 1.83097 -0.667946 0
M  V30 7932 H 825.957 3.11707 0.1566 0
M  V30 7933 N 826.258 0.243083 1.55714 0
M  V30 7934 C 827.506 -0.381964 1.98458 0
M  V30 7935 C 827.827 -1.58745 1.13247 0
M  V30 7936 O 827.097 -1.94723 0.214384 0
M  V30 7937 H 825.677 -0.144114 0.732967 0
M  V30 7938 H 828.339 0.340985 1.91894 0
M  V30 7939 H 827.435 -0.693702 3.04293 0
M  V30 7940 N 827.736 -1.57571 -0.0300757 0
M  V30 7941 C 828.699 -2.05468 -1.01565 0
M  V30 7942 C 829.699 -0.958628 -1.29101 0
M  V30 7943 O 830.889 -1.22228 -1.24121 0
M  V30 7944 C 828.021 -2.47077 -2.34874 0
M  V30 7945 H 829.214 -2.93797 -0.601936 0
M  V30 7946 H 826.767 -1.53828 -0.276878 0
M  V30 7947 H 827.502 -1.61901 -2.80996 0
M  V30 7948 H 827.287 -3.27097 -2.16218 0
M  V30 7949 H 828.777 -2.84564 -3.05635 0
M  V30 7950 N 829.214 0.302327 -1.54673 0
M  V30 7951 C 830.146 1.39443 -1.81902 0
M  V30 7952 C 831.159 1.46891 -0.701914 0
M  V30 7953 O 832.348 1.49233 -0.979369 0
M  V30 7954 C 829.448 2.77824 -1.9408 0
M  V30 7955 C 828.621 2.93324 -3.24468 0
M  V30 7956 C 827.68 4.12196 -3.27079 0
M  V30 7957 O 826.706 4.04344 -4.00617 0
M  V30 7958 N 827.908 5.22768 -2.52376 0
M  V30 7959 H 830.673 1.1644 -2.76155 0
M  V30 7960 H 828.234 0.492392 -1.54231 0
M  V30 7961 H 830.226 3.5559 -1.9323 0
M  V30 7962 H 828.796 2.9378 -1.06828 0
M  V30 7963 H 828.016 2.02682 -3.38103 0
M  V30 7964 H 829.304 3.0059 -4.10516 0
M  V30 7965 H 828.702 5.32027 -1.92259 0
M  V30 7966 H 827.259 5.98874 -2.57281 0
M  V30 7967 N 830.692 1.47107 0.565454 0
M  V30 7968 C 831.92 1.56909 1.3486 0
M  V30 7969 C 832.335 0.216312 1.87557 0
M  V30 7970 O 831.692 -0.789168 1.64555 0
M  V30 7971 C 831.743 2.58776 2.52423 0
M  V30 7972 O 831.464 3.888 2.01906 0
M  V30 7973 C 832.965 2.78683 3.44747 0
M  V30 7974 H 830.185 0.530096 0.411387 0
M  V30 7975 H 832.729 1.92658 0.685782 0
M  V30 7976 H 830.884 2.25983 3.1466 0
M  V30 7977 H 831.298 4.44393 2.78595 0
M  V30 7978 H 832.772 3.53842 4.23674 0
M  V30 7979 H 833.249 1.86208 3.97773 0
M  V30 7980 H 833.855 3.12641 2.88333 0
M  V30 7981 N 832.17 -0.811516 1.35101 0
M  V30 7982 C 833.581 -1.38515 1.25182 0
M  V30 7983 C 833.932 -1.95846 -0.117883 0
M  V30 7984 O 833.057 -1.90925 -1.01866 0
M  V30 7985 C 833.652 -2.51813 2.26662 0
M  V30 7986 C 832.211 -3.05052 2.20499 0
M  V30 7987 C 831.358 -1.77987 2.12641 0
M  V30 7988 H 834.309 -0.614959 1.46301 0
M  V30 7989 H 834.33 -3.30228 1.89023 0
M  V30 7990 H 833.842 -2.10057 3.2634 0
M  V30 7991 H 831.943 -3.51285 1.24215 0
M  V30 7992 H 832.056 -3.63368 3.1225 0
M  V30 7993 H 830.42 -1.99342 1.5854 0
M  V30 7994 H 831.203 -1.38389 3.14171 0
M  V30 7995 N 833.648 -1.19017 -1.03309 0
M  V30 7996 C 834.876 -1.01534 -1.80273 0
M  V30 7997 C 835.291 0.43605 -1.83696 0
M  V30 7998 O 834.648 1.30288 -1.27794 0
M  V30 7999 C 834.699 -1.5722 -3.25522 0
M  V30 8000 O 834.42 -2.96677 -3.22358 0
M  V30 8001 C 835.921 -1.4446 -4.19102 0
M  V30 8002 H 833.141 -0.358094 -0.567459 0
M  V30 8003 H 835.685 -1.57738 -1.3015 0
M  V30 8004 H 833.84 -1.05174 -3.7285 0
M  V30 8005 H 834.254 -3.22795 -4.13405 0
M  V30 8006 H 835.728 -1.88209 -5.18923 0
M  V30 8007 H 836.205 -0.394471 -4.37425 0
M  V30 8008 H 836.811 -1.95616 -3.77643 0
M  V30 8009 N 835.127 1.22348 -0.993418 0
M  V30 8010 C 836.074 2.24294 -0.544118 0
M  V30 8011 C 837.044 1.60602 0.42381 0
M  V30 8012 O 838.229 1.87952 0.328453 0
M  V30 8013 C 835.369 3.44837 0.134578 0
M  V30 8014 C 834.482 4.23043 -0.875151 0
M  V30 8015 C 833.617 5.30928 -0.169919 0
M  V30 8016 C 832.656 6.00853 -1.16798 0
M  V30 8017 N 831.793 7.00381 -0.491021 0
M  V30 8018 H 836.633 2.6209 -1.4182 0
M  V30 8019 H 834.17 1.2881 -0.710384 0
M  V30 8020 H 836.128 4.13625 0.544998 0
M  V30 8021 H 834.758 3.07804 0.972446 0
M  V30 8022 H 833.81 3.53546 -1.40389 0
M  V30 8023 H 835.122 4.71237 -1.63516 0
M  V30 8024 H 834.276 6.05972 0.297205 0
M  V30 8025 H 833.015 4.8371 0.622586 0
M  V30 8026 H 832.02 5.24591 -1.64573 0
M  V30 8027 H 833.245 6.50159 -1.96137 0
M  V30 8028 H 831.191 6.55393 0.282037 0
M  V30 8029 H 831.108 7.46584 -1.18947 0
M  V30 8030 H 832.376 7.79486 -0.0467169 0
M  V30 8031 N 836.605 0.766683 1.37694 0
M  V30 8032 C 837.537 0.107798 2.28946 0
M  V30 8033 C 838.55 -0.669701 1.48387 0
M  V30 8034 O 839.739 -0.508629 1.711 0
M  V30 8035 C 836.839 -0.871084 3.27514 0
M  V30 8036 C 836.012 -0.148471 4.37148 0
M  V30 8037 C 835.071 -1.03998 5.1582 0
M  V30 8038 O 834.097 -0.505639 5.6695 0
M  V30 8039 N 835.299 -2.36679 5.3006 0
M  V30 8040 H 838.064 0.89154 2.86132 0
M  V30 8041 H 835.625 0.618593 1.49616 0
M  V30 8042 H 837.617 -1.47081 3.77027 0
M  V30 8043 H 836.187 -1.55582 2.71133 0
M  V30 8044 H 835.407 0.632117 3.89099 0
M  V30 8045 H 836.695 0.351045 5.07588 0
M  V30 8046 H 836.093 -2.82532 4.90094 0
M  V30 8047 H 834.65 -2.9167 5.82899 0
M  V30 8048 N 838.083 -1.48885 0.516809 0
M  V30 8049 C 839.494 -1.86557 0.0729921 0
M  V30 8050 C 839.845 -1.42767 -1.34581 0
M  V30 8051 O 838.97 -0.812514 -2.00567 0
M  V30 8052 C 839.565 -3.38567 0.125686 0
M  V30 8053 C 838.124 -3.75481 -0.262867 0
M  V30 8054 C 837.271 -2.72913 0.491281 0
M  V30 8055 H 840.222 -1.40978 0.728767 0
M  V30 8056 H 840.243 -3.74629 -0.665831 0
M  V30 8057 H 839.755 -3.70408 1.15842 0
M  V30 8058 H 837.856 -3.49251 -1.29824 0
M  V30 8059 H 837.969 -4.79052 0.067579 0
M  V30 8060 H 836.333 -2.54627 -0.0608525 0
M  V30 8061 H 837.116 -3.07599 1.5244 0
M  V30 8062 N 839.561 -0.251338 -1.55583 0
M  V30 8063 C 840.471 0.656978 -2.25213 0
M  V30 8064 C 841.487 1.18966 -1.26977 0
M  V30 8065 O 842.663 1.22499 -1.59862 0
M  V30 8066 C 839.728 1.83527 -2.94141 0
M  V30 8067 C 838.789 1.34162 -4.07798 0
M  V30 8068 C 838.022 2.46375 -4.73429 0
M  V30 8069 O 838.245 3.65205 -4.38157 0
M  V30 8070 O 837.179 2.15881 -5.61853 0
M  V30 8071 H 841.005 0.0936395 -3.03556 0
M  V30 8072 H 838.59 -0.0196638 -1.49387 0
M  V30 8073 H 840.472 2.52279 -3.3754 0
M  V30 8074 H 839.147 2.38614 -2.18735 0
M  V30 8075 H 838.054 0.621249 -3.68906 0
M  V30 8076 H 839.387 0.836779 -4.85035 0
M  V30 8077 N 841.039 1.57585 0.0217189 0
M  V30 8078 C 841.949 2.10444 1.03684 0
M  V30 8079 C 842.965 1.04472 1.39146 0
M  V30 8080 O 844.141 1.36249 1.48317 0
M  V30 8081 C 841.206 2.5794 2.31664 0
M  V30 8082 C 840.267 3.78425 2.02714 0
M  V30 8083 C 839.5 4.23646 3.24592 0
M  V30 8084 O 839.723 3.6834 4.35525 0
M  V30 8085 O 838.657 5.16013 3.09862 0
M  V30 8086 H 842.483 2.97354 0.617584 0
M  V30 8087 H 840.068 1.47473 0.239174 0
M  V30 8088 H 841.95 2.88785 3.06889 0
M  V30 8089 H 840.625 1.74138 2.7287 0
M  V30 8090 H 839.532 3.52587 1.25033 0
M  V30 8091 H 840.865 4.63234 1.66359 0
M  V30 8092 N 842.517 -0.29412 1.54831 0
M  V30 8093 C 843.933 -0.640167 1.46199 0
M  V30 8094 C 844.133 -1.90426 0.658798 0
M  V30 8095 O 843.189 -2.51932 0.169228 0
M  V30 8096 C 844.502 -0.786763 2.90225 0
M  V30 8097 C 846.05 -0.882201 3.0031 0
M  V30 8098 C 846.525 -1.06074 4.45547 0
M  V30 8099 N 848.016 -1.12678 4.49286 0
M  V30 8100 C 848.751 -1.28334 5.58854 0
M  V30 8101 N 848.247 -1.40845 6.78332 0
M  V30 8102 N 850.04 -1.31277 5.46555 0
M  V30 8103 H 842.191 0.536334 2.05517 0
M  V30 8104 H 844.454 0.178363 0.93107 0
M  V30 8105 H 844.16 0.0713018 3.51628 0
M  V30 8106 H 844.034 -1.67364 3.38037 0
M  V30 8107 H 846.421 -1.73075 2.39017 0
M  V30 8108 H 846.502 0.0288405 2.55784 0
M  V30 8109 H 846.146 -0.216935 5.07437 0
M  V30 8110 H 846.076 -1.98611 4.8771 0
M  V30 8111 H 848.567 -1.04335 3.63212 0
M  V30 8112 H 848.88 -1.52566 7.57591 0
M  V30 8113 H 847.225 -1.37888 6.81184 0
M  V30 8114 H 850.416 -1.2112 4.52159 0
M  V30 8115 H 850.589 -1.43136 6.31994 0
M  V30 8116 N 843.995 -1.47404 -0.557645 0
M  V30 8117 C 844.905 -1.62491 -1.69216 0
M  V30 8118 C 845.921 -0.507764 -1.66426 0
M  V30 8119 O 847.097 -0.775241 -1.85882 0
M  V30 8120 C 844.162 -1.63511 -3.05721 0
M  V30 8121 C 843.223 -2.86648 -3.1958 0
M  V30 8122 C 842.456 -2.87609 -4.49574 0
M  V30 8123 O 842.679 -1.97799 -5.35006 0
M  V30 8124 O 841.613 -3.79465 -4.67215 0
M  V30 8125 H 845.439 -2.58487 -1.59431 0
M  V30 8126 H 843.024 -1.30485 -0.7276 0
M  V30 8127 H 844.906 -1.66863 -3.86956 0
M  V30 8128 H 843.581 -0.706812 -3.15889 0
M  V30 8129 H 842.488 -2.8884 -2.37744 0
M  V30 8130 H 843.821 -3.7877 -3.14316 0
M  V30 8131 N 845.473 0.80434 -1.35529 0
M  V30 8132 C 846.436 1.89788 -1.28503 0
M  V30 8133 C 847.436 1.59601 -0.195983 0
M  V30 8134 O 848.626 1.68292 -0.449827 0
M  V30 8135 C 845.758 3.26255 -0.98847 0
M  V30 8136 H 846.951 1.97436 -2.25741 0
M  V30 8137 H 844.504 1.00046 -1.20086 0
M  V30 8138 H 845.239 3.24294 -0.0200541 0
M  V30 8139 H 845.024 3.49551 -1.77641 0
M  V30 8140 H 846.514 4.06298 -0.964975 0
M  V30 8141 N 846.951 1.19563 1.02676 0
M  V30 8142 C 848.199 0.997593 1.75763 0
M  V30 8143 C 848.52 -0.47253 1.89188 0
M  V30 8144 O 847.79 -1.34214 1.42701 0
M  V30 8145 H 846.37 0.366128 0.651122 0
M  V30 8146 H 849.032 1.50495 1.23844 0
M  V30 8147 H 848.128 1.44741 2.76508 0
M  V30 8148 N 848.429 -1.21819 0.999893 0
M  V30 8149 C 849.339 -2.27691 0.565159 0
M  V30 8150 C 850.355 -1.69587 -0.389398 0
M  V30 8151 O 851.531 -1.99786 -0.254499 0
M  V30 8152 C 848.596 -3.46537 -0.106432 0
M  V30 8153 C 847.657 -4.19932 0.891964 0
M  V30 8154 C 846.89 -5.33103 0.252327 0
M  V30 8155 O 847.113 -5.62398 -0.952103 0
M  V30 8156 O 846.047 -5.94184 0.960698 0
M  V30 8157 H 849.873 -2.67059 1.44613 0
M  V30 8158 H 847.458 -1.28119 0.768499 0
M  V30 8159 H 849.34 -4.18631 -0.482301 0
M  V30 8160 H 848.015 -3.09079 -0.961865 0
M  V30 8161 H 846.922 -3.5008 1.3189 0
M  V30 8162 H 848.255 -4.61287 1.71682 0
M  V30 8163 N 849.908 -0.773975 -1.37286 0
M  V30 8164 C 851.154 -0.339809 -1.99933 0
M  V30 8165 C 851.487 1.0815 -1.61299 0
M  V30 8166 O 850.762 1.74442 -0.860252 0
M  V30 8167 C 851.045 -0.485919 -3.56806 0
M  V30 8168 C 850.898 -1.9498 -4.05343 0
M  V30 8169 C 852.217 0.108461 -4.39966 0
M  V30 8170 H 849.336 -0.124944 -0.726332 0
M  V30 8171 H 851.978 -0.977433 -1.6293 0
M  V30 8172 H 850.128 0.0569023 -3.88458 0
M  V30 8173 H 851.8 -2.5525 -3.84246 0
M  V30 8174 H 850.043 -2.45784 -3.57453 0
M  V30 8175 H 850.714 -2.00308 -5.14374 0
M  V30 8176 H 853.19 -0.354722 -4.14585 0
M  V30 8177 H 852.066 -0.0238926 -5.48895 0
M  V30 8178 H 852.327 1.19901 -4.25531 0
M  V30 8179 N 851.386 1.48609 -0.524698 0
M  V30 8180 C 852.296 2.33318 0.244923 0
M  V30 8181 C 853.312 1.46153 0.944214 0
M  V30 8182 O 854.488 1.79141 0.920347 0
M  V30 8183 C 851.553 3.22149 1.28144 0
M  V30 8184 C 850.614 4.25184 0.593068 0
M  V30 8185 C 849.847 5.0977 1.5802 0
M  V30 8186 O 850.07 4.96249 2.81235 0
M  V30 8187 O 849.004 5.9134 1.1225 0
M  V30 8188 H 852.83 3.00362 -0.449066 0
M  V30 8189 H 850.415 1.46643 -0.285689 0
M  V30 8190 H 852.297 3.77111 1.88057 0
M  V30 8191 H 850.972 2.57772 1.95793 0
M  V30 8192 H 849.879 3.74071 -0.0464214 0
M  V30 8193 H 851.212 4.92183 -0.0413893 0
M  V30 8194 N 852.864 0.259585 1.55447 0
M  V30 8195 C 853.794 -0.62852 2.24882 0
M  V30 8196 C 854.775 -1.17128 1.23349 0
M  V30 8197 O 855.96 -1.20829 1.52033 0
M  V30 8198 C 853.09 -1.81983 2.95803 0
M  V30 8199 C 852.044 -1.40929 4.04132 0
M  V30 8200 C 851.37 -2.68246 4.62545 0
M  V30 8201 C 852.67 -0.570956 5.1917 0
M  V30 8202 H 854.364 -0.0495021 2.99359 0
M  V30 8203 H 851.91 -0.0223688 1.43983 0
M  V30 8204 H 853.863 -2.44689 3.43082 0
M  V30 8205 H 852.587 -2.42444 2.18835 0
M  V30 8206 H 851.246 -0.805519 3.57641 0
M  V30 8207 H 850.894 -3.26931 3.82263 0
M  V30 8208 H 850.594 -2.41495 5.35681 0
M  V30 8209 H 852.118 -3.31827 5.12565 0
M  V30 8210 H 853.532 -1.10262 5.62597 0
M  V30 8211 H 851.929 -0.398979 5.98772 0
M  V30 8212 H 852.999 0.413918 4.8313 0
M  V30 8213 N 854.342 -1.57594 -0.0133615 0
M  V30 8214 C 855.275 -2.02991 -1.04259 0
M  V30 8215 C 856.253 -0.917193 -1.34262 0
M  V30 8216 O 857.437 -1.18428 -1.46653 0
M  V30 8217 C 854.564 -2.41624 -2.37351 0
M  V30 8218 C 853.61 -3.63495 -2.231 0
M  V30 8219 S 854.443 -5.1198 -1.5696 0
M  V30 8220 C 855.599 -5.5387 -2.91511 0
M  V30 8221 H 855.832 -2.89973 -0.655985 0
M  V30 8222 H 853.365 -1.52769 -0.223827 0
M  V30 8223 H 855.323 -2.64551 -3.13884 0
M  V30 8224 H 853.984 -1.55065 -2.73155 0
M  V30 8225 H 853.177 -3.88233 -3.21389 0
M  V30 8226 H 852.779 -3.405 -1.54711 0
M  V30 8227 H 855.071 -5.55514 -3.87828 0
M  V30 8228 H 856.014 -6.53988 -2.71488 0
M  V30 8229 H 856.422 -4.81404 -2.94806 0
M  V30 8230 N 855.82 0.285905 -1.54985 0
M  V30 8231 C 857.068 1.01718 -1.74636 0
M  V30 8232 C 857.389 1.87277 -0.543342 0
M  V30 8233 O 856.659 1.90847 0.442078 0
M  V30 8234 H 855.239 0.378549 -0.643979 0
M  V30 8235 H 857.901 0.313247 -1.92366 0
M  V30 8236 H 856.997 1.66159 -2.64192 0
M  V30 8237 N 857.298 1.47698 0.54982 0
M  V30 8238 C 858.544 1.54931 1.30859 0
M  V30 8239 C 858.877 0.214021 1.93017 0
M  V30 8240 O 858.152 -0.778093 1.78258 0
M  V30 8241 C 858.435 2.67286 2.41309 0
M  V30 8242 C 858.288 4.10457 1.83971 0
M  V30 8243 C 859.607 2.75509 3.43195 0
M  V30 8244 H 856.726 0.56399 0.474431 0
M  V30 8245 H 859.368 1.79787 0.614541 0
M  V30 8246 H 857.518 2.46224 3.0051 0
M  V30 8247 H 859.19 4.42903 1.28974 0
M  V30 8248 H 857.433 4.18387 1.14606 0
M  V30 8249 H 858.104 4.84857 2.63851 0
M  V30 8250 H 860.58 2.94531 2.93923 0
M  V30 8251 H 859.456 3.55886 4.17895 0
M  V30 8252 H 859.717 1.82863 4.02509 0
M  V30 8253 N 858.776 -0.797141 1.35954 0
M  V30 8254 C 859.706 -1.92387 1.32323 0
M  V30 8255 C 860.687 -1.68967 0.196007 0
M  V30 8256 O 861.872 -1.90193 0.39245 0
M  V30 8257 C 859.002 -3.29286 1.10398 0
M  V30 8258 C 857.956 -3.67212 2.19862 0
M  V30 8259 C 857.282 -5.02377 1.8309 0
M  V30 8260 C 858.582 -3.76602 3.61896 0
M  V30 8261 H 860.276 -1.95683 2.26602 0
M  V30 8262 H 857.822 -0.94007 1.09081 0
M  V30 8263 H 859.775 -4.07721 1.06495 0
M  V30 8264 H 858.499 -3.26358 0.125668 0
M  V30 8265 H 857.158 -2.91069 2.22878 0
M  V30 8266 H 856.806 -4.95961 0.838527 0
M  V30 8267 H 856.506 -5.28722 2.56372 0
M  V30 8268 H 858.03 -5.8324 1.80729 0
M  V30 8269 H 859.444 -4.45246 3.6115 0
M  V30 8270 H 857.841 -4.14425 4.34018 0
M  V30 8271 H 858.911 -2.77906 3.97361 0
M  V30 8272 N 860.254 -1.20106 -1.0204 0
M  V30 8273 C 861.217 -0.948261 -2.08664 0
M  V30 8274 C 862.217 0.0746753 -1.60627 0
M  V30 8275 O 863.407 -0.160981 -1.73455 0
M  V30 8276 C 860.539 -0.426854 -3.38217 0
M  V30 8277 H 861.732 -1.894 -2.32524 0
M  V30 8278 H 859.285 -1.0159 -1.18782 0
M  V30 8279 H 860.02 0.524532 -3.2003 0
M  V30 8280 H 859.805 -1.16451 -3.74408 0
M  V30 8281 H 861.295 -0.269346 -4.1673 0
M  V30 8282 N 861.732 1.21287 -1.00634 0
M  V30 8283 C 862.662 2.25973 -0.588089 0
M  V30 8284 C 863.643 1.65527 0.391764 0
M  V30 8285 O 864.828 1.92179 0.279452 0
M  V30 8286 C 861.958 3.47197 0.0847336 0
M  V30 8287 C 860.912 4.20168 -0.815039 0
M  V30 8288 C 860.238 5.34699 -0.00855393 0
M  V30 8289 C 861.538 4.77416 -2.11828 0
M  V30 8290 H 863.232 2.61212 -1.46317 0
M  V30 8291 H 860.778 1.25563 -0.704985 0
M  V30 8292 H 862.731 4.19602 0.388821 0
M  V30 8293 H 861.455 3.11092 0.994456 0
M  V30 8294 H 860.114 3.49614 -1.10297 0
M  V30 8295 H 859.762 4.94837 0.902499 0
M  V30 8296 H 859.462 5.84449 -0.607664 0
M  V30 8297 H 860.986 6.09914 0.289317 0
M  V30 8298 H 862.4 5.41694 -1.87725 0
M  V30 8299 H 860.797 5.37561 -2.66736 0
M  V30 8300 H 861.867 3.96724 -2.78816 0
M  V30 8301 N 863.21 0.781244 1.36873 0
M  V30 8302 C 864.435 0.360398 2.04245 0
M  V30 8303 C 864.86 -1.01242 1.58529 0
M  V30 8304 O 864.218 -1.65063 0.749936 0
M  V30 8305 C 864.266 0.42329 3.58107 0
M  V30 8306 O 863.37 -0.572796 4.08403 0
M  V30 8307 H 862.711 0.154386 0.645803 0
M  V30 8308 H 865.241 1.06008 1.74996 0
M  V30 8309 H 865.251 0.283967 4.07011 0
M  V30 8310 H 863.926 1.42477 3.90734 0
M  V30 8311 H 862.503 -0.395809 3.70793 0
M  V30 8312 N 864.689 -1.48329 0.532571 0
M  V30 8313 C 865.636 -2.29663 -0.228779 0
M  V30 8314 C 866.606 -1.37529 -0.931401 0
M  V30 8315 O 867.791 -1.66493 -0.931921 0
M  V30 8316 C 864.931 -3.20955 -1.26814 0
M  V30 8317 C 864.044 -4.28168 -0.574099 0
M  V30 8318 C 863.179 -5.06638 -1.59661 0
M  V30 8319 C 862.218 -6.05651 -0.88618 0
M  V30 8320 N 861.355 -6.77169 -1.85436 0
M  V30 8321 H 866.195 -2.94255 0.47098 0
M  V30 8322 H 863.732 -1.45061 0.2441 0
M  V30 8323 H 865.69 -3.72285 -1.88307 0
M  V30 8324 H 864.32 -2.58281 -1.93625 0
M  V30 8325 H 863.372 -3.80085 0.154827 0
M  V30 8326 H 864.684 -4.98797 -0.0163984 0
M  V30 8327 H 863.838 -5.61995 -2.28576 0
M  V30 8328 H 862.577 -4.35854 -2.18821 0
M  V30 8329 H 861.582 -5.49495 -0.182981 0
M  V30 8330 H 862.807 -6.78434 -0.300659 0
M  V30 8331 H 860.753 -6.09134 -2.43499 0
M  V30 8332 H 860.67 -7.43882 -1.34816 0
M  V30 8333 H 861.938 -7.37114 -2.53541 0
M  V30 8334 N 866.167 -0.267825 -1.55308 0
M  V30 8335 C 867.077 0.633055 -2.25897 0
M  V30 8336 C 868.093 1.17613 -1.28231 0
M  V30 8337 O 869.269 1.20797 -1.61153 0
M  V30 8338 C 866.334 1.80397 -2.96071 0
M  V30 8339 C 865.395 1.29829 -4.09198 0
M  V30 8340 C 864.628 2.4134 -4.76016 0
M  V30 8341 O 864.851 3.60537 -4.42006 0
M  V30 8342 O 863.785 2.09909 -5.64111 0
M  V30 8343 H 867.611 0.0614381 -3.03638 0
M  V30 8344 H 865.196 -0.0355072 -1.49358 0
M  V30 8345 H 867.078 2.48685 -3.40197 0
M  V30 8346 H 865.753 2.36281 -2.21253 0
M  V30 8347 H 864.66 0.582086 -3.69544 0
M  V30 8348 H 865.993 0.785288 -4.85895 0
M  V30 8349 N 867.645 1.57599 0.00500368 0
M  V30 8350 C 868.555 2.11532 1.01446 0
M  V30 8351 C 869.571 1.05941 1.3803 0
M  V30 8352 O 870.747 1.37815 1.46864 0
M  V30 8353 C 867.812 2.60382 2.28915 0
M  V30 8354 C 866.873 3.80554 1.98689 0
M  V30 8355 C 866.106 4.27064 3.20081 0
M  V30 8356 O 866.329 3.72939 4.31593 0
M  V30 8357 O 865.263 5.1927 3.04371 0
M  V30 8358 H 869.089 2.97993 0.586011 0
M  V30 8359 H 866.674 1.47718 0.223519 0
M  V30 8360 H 868.556 2.92024 3.03809 0
M  V30 8361 H 867.231 1.77022 2.71007 0
M  V30 8362 H 866.138 3.53893 1.21286 0
M  V30 8363 H 867.471 4.64972 1.61437 0
M  V30 8364 N 869.123 -0.277682 1.55134 0
M  V30 8365 C 870.055 -1.36531 1.84098 0
M  V30 8366 C 871.068 -1.45756 0.725194 0
M  V30 8367 O 872.257 -1.47656 1.00299 0
M  V30 8368 C 869.357 -2.74701 1.98476 0
M  V30 8369 C 868.53 -2.88125 3.29094 0
M  V30 8370 C 867.589 -4.0694 3.33596 0
M  V30 8371 O 866.615 -3.9792 4.06999 0
M  V30 8372 N 867.817 -5.18687 2.60661 0
M  V30 8373 H 870.582 -1.12032 2.77973 0
M  V30 8374 H 868.143 -0.467793 1.54995 0
M  V30 8375 H 870.135 -3.52471 1.98863 0
M  V30 8376 H 868.705 -2.92043 1.11488 0
M  V30 8377 H 867.925 -1.97277 3.41285 0
M  V30 8378 H 869.213 -2.94021 4.15246 0
M  V30 8379 H 868.611 -5.28901 2.00699 0
M  V30 8380 H 867.168 -5.94705 2.66776 0
M  V30 8381 N 870.601 -1.47988 -0.541979 0
M  V30 8382 C 871.511 -1.64276 -1.67483 0
M  V30 8383 C 872.527 -0.525387 -1.65879 0
M  V30 8384 O 873.703 -0.794912 -1.85049 0
M  V30 8385 C 870.768 -1.66744 -3.03969 0
M  V30 8386 C 869.829 -2.90021 -3.16522 0
M  V30 8387 C 869.062 -2.92362 -4.46498 0
M  V30 8388 O 869.285 -2.03462 -5.32878 0
M  V30 8389 O 868.219 -3.84399 -4.63164 0
M  V30 8390 H 872.045 -2.60164 -1.5668 0
M  V30 8391 H 869.63 -1.31249 -0.71372 0
M  V30 8392 H 871.512 -1.70958 -3.85164 0
M  V30 8393 H 870.187 -0.740277 -3.15122 0
M  V30 8394 H 869.094 -2.91345 -2.34667 0
M  V30 8395 H 870.427 -3.82082 -3.10281 0
M  V30 8396 N 872.079 0.78992 -1.36375 0
M  V30 8397 C 873.495 1.0879 -1.16777 0
M  V30 8398 C 873.695 2.01498 0.00848236 0
M  V30 8399 O 872.751 2.43338 0.674007 0
M  V30 8400 C 874.064 1.70285 -2.47837 0
M  V30 8401 C 875.612 1.82629 -2.54196 0
M  V30 8402 C 876.087 2.47539 -3.85342 0
M  V30 8403 N 877.578 2.55008 -3.86685 0
M  V30 8404 C 878.313 3.06041 -4.84898 0
M  V30 8405 N 877.809 3.57385 -5.93505 0
M  V30 8406 N 879.602 3.04748 -4.72319 0
M  V30 8407 H 871.753 0.173985 -2.11686 0
M  V30 8408 H 874.016 0.139798 -0.937636 0
M  V30 8409 H 873.722 1.09633 -3.34176 0
M  V30 8410 H 873.596 2.69799 -2.63607 0
M  V30 8411 H 875.983 2.42419 -1.68276 0
M  V30 8412 H 876.064 0.81923 -2.42327 0
M  V30 8413 H 875.708 1.88393 -4.71668 0
M  V30 8414 H 875.638 3.48815 -3.94507 0
M  V30 8415 H 878.129 2.18651 -3.08221 0
M  V30 8416 H 878.442 3.94674 -6.64419 0
M  V30 8417 H 876.787 3.55538 -5.97175 0
M  V30 8418 H 879.978 2.63925 -3.86602 0
M  V30 8419 H 880.151 3.44212 -5.49019 0
M  V30 8420 N 873.557 1.20646 1.01402 0
M  V30 8421 C 874.782 1.04462 1.79172 0
M  V30 8422 C 875.207 -0.401588 1.83763 0
M  V30 8423 O 874.565 -1.28934 1.27459 0
M  V30 8424 C 874.613 1.63583 3.21361 0
M  V30 8425 O 873.717 0.875198 4.03006 0
M  V30 8426 H 873.058 0.368235 0.552539 0
M  V30 8427 H 875.588 1.59994 1.27526 0
M  V30 8428 H 875.598 1.67426 3.72065 0
M  V30 8429 H 874.273 2.68835 3.17334 0
M  V30 8430 H 872.85 0.911172 3.61597 0
M  V30 8431 N 875.035 -1.20752 1.01276 0
M  V30 8432 C 875.965 -2.25658 0.600064 0
M  V30 8433 C 876.946 -1.65733 -0.38298 0
M  V30 8434 O 878.131 -1.92324 -0.269256 0
M  V30 8435 C 875.261 -3.47237 -0.0663197 0
M  V30 8436 C 874.215 -4.1973 0.83731 0
M  V30 8437 C 873.541 -5.34687 0.0369102 0
M  V30 8438 C 874.841 -4.76286 2.14357 0
M  V30 8439 H 876.535 -2.60432 1.477 0
M  V30 8440 H 874.081 -1.25187 0.711634 0
M  V30 8441 H 876.034 -4.19803 -0.366563 0
M  V30 8442 H 874.758 -3.11615 -0.977944 0
M  V30 8443 H 873.417 -3.49024 1.1215 0
M  V30 8444 H 873.065 -4.95309 -0.876244 0
M  V30 8445 H 872.765 -5.84119 0.63865 0
M  V30 8446 H 874.289 -6.10059 -0.256968 0
M  V30 8447 H 875.703 -5.40691 1.90595 0
M  V30 8448 H 874.1 -5.36139 2.69583 0
M  V30 8449 H 875.17 -3.9524 2.80916 0
M  V30 8450 N 876.513 -0.788492 -1.36457 0
M  V30 8451 C 877.423 -0.187385 -2.3385 0
M  V30 8452 C 878.439 0.659984 -1.60998 0
M  V30 8453 O 879.615 0.575986 -1.92988 0
M  V30 8454 C 876.68 0.668525 -3.40194 0
M  V30 8455 C 875.741 -0.197234 -4.28847 0
M  V30 8456 C 874.974 0.61792 -5.30111 0
M  V30 8457 O 875.197 1.85396 -5.3943 0
M  V30 8458 O 874.131 0.0183016 -6.01897 0
M  V30 8459 H 877.957 -0.992617 -2.87021 0
M  V30 8460 H 875.542 -0.549934 -1.3891 0
M  V30 8461 H 877.424 1.15663 -4.05216 0
M  V30 8462 H 876.099 1.45166 -2.89324 0
M  V30 8463 H 875.006 -0.73207 -3.66867 0
M  V30 8464 H 876.339 -0.943863 -4.83065 0
M  V30 8465 N 877.991 1.48044 -0.54043 0
M  V30 8466 C 878.954 2.28273 0.205966 0
M  V30 8467 C 879.954 1.35983 0.858209 0
M  V30 8468 O 881.144 1.58776 0.716651 0
M  V30 8469 C 878.276 3.15174 1.29917 0
M  V30 8470 H 879.469 2.95727 -0.498555 0
M  V30 8471 H 877.022 1.53457 -0.296745 0
M  V30 8472 H 877.757 2.52374 2.03661 0
M  V30 8473 H 877.542 3.83074 0.836475 0
M  V30 8474 H 879.032 3.75666 1.82387 0
M  V30 8475 N 879.47 0.276058 1.55163 0
M  V30 8476 C 880.718 -0.339782 1.99223 0
M  V30 8477 C 881.039 -1.56307 1.16589 0
M  V30 8478 O 880.309 -1.94225 0.25564 0
M  V30 8479 H 878.889 -0.128534 0.735859 0
M  V30 8480 H 881.551 0.381612 1.91128 0
M  V30 8481 H 880.647 -0.629 3.05696 0
M  V30 8482 N 880.948 -1.576 0.00335426 0
M  V30 8483 C 882.359 -1.7875 -0.539008 0
M  V30 8484 C 882.71 -0.911097 -1.73763 0
M  V30 8485 O 881.835 -0.114476 -2.16097 0
M  V30 8486 C 882.43 -3.24177 -0.984611 0
M  V30 8487 C 880.989 -3.46412 -1.47226 0
M  V30 8488 C 880.136 -2.74024 -0.425004 0
M  V30 8489 H 883.087 -1.57032 0.229511 0
M  V30 8490 H 883.108 -3.32474 -1.85044 0
M  V30 8491 H 882.62 -3.87938 -0.112035 0
M  V30 8492 H 880.721 -2.8787 -2.36562 0
M  V30 8493 H 880.834 -4.55098 -1.49741 0
M  V30 8494 H 879.198 -2.38741 -0.887394 0
M  V30 8495 H 879.981 -3.40486 0.438662 0
M  V30 8496 N 882.426 0.269451 -1.5528 0
M  V30 8497 C 883.842 0.616827 -1.47199 0
M  V30 8498 C 884.042 1.89354 -0.68901 0
M  V30 8499 O 883.098 2.51631 -0.209287 0
M  V30 8500 C 884.411 0.740492 -2.9144 0
M  V30 8501 C 885.959 0.834312 -3.01676 0
M  V30 8502 C 886.434 0.989725 -4.47178 0
M  V30 8503 N 887.925 1.05516 -4.51022 0
M  V30 8504 C 888.66 1.19427 -5.60825 0
M  V30 8505 N 888.156 1.30035 -6.80487 0
M  V30 8506 N 889.949 1.22566 -5.48575 0
M  V30 8507 H 882.1 -0.568962 -2.04638 0
M  V30 8508 H 884.363 -0.193153 -0.928114 0
M  V30 8509 H 884.069 -0.127234 -3.5147 0
M  V30 8510 H 883.943 1.61965 -3.40657 0
M  V30 8511 H 886.33 1.6925 -2.4174 0
M  V30 8512 H 886.411 -0.0695298 -2.55705 0
M  V30 8513 H 886.055 0.136179 -5.07717 0
M  V30 8514 H 885.985 1.90827 -4.90808 0
M  V30 8515 H 888.476 0.985434 -3.64825 0
M  V30 8516 H 888.789 1.40494 -7.59922 0
M  V30 8517 H 887.134 1.27033 -6.83292 0
M  V30 8518 H 890.325 1.13911 -4.54029 0
M  V30 8519 H 890.498 1.33063 -6.34191 0
M  V30 8520 N 883.904 1.48273 0.534124 0
M  V30 8521 C 884.854 1.58889 1.63519 0
M  V30 8522 C 885.838 0.44626 1.54588 0
M  V30 8523 O 887.03 0.697474 1.62679 0
M  V30 8524 C 884.159 1.62787 3.0225 0
M  V30 8525 C 883.245 2.82515 3.16301 0
M  V30 8526 N 883.636 4.06977 3.00338 0
M  V30 8527 C 881.934 2.7976 3.47347 0
M  V30 8528 C 882.635 4.87283 3.17694 0
M  V30 8529 N 881.611 4.20024 3.45081 0
M  V30 8530 H 885.413 2.52869 1.49781 0
M  V30 8531 H 882.927 1.44587 0.739479 0
M  V30 8532 H 884.924 1.68486 3.81337 0
M  V30 8533 H 883.584 0.699201 3.17082 0
M  V30 8534 H 884.595 4.37479 2.77186 0
M  V30 8535 H 881.272 1.96132 3.68563 0
M  V30 8536 H 882.662 5.96047 3.10126 0
M  V30 8537 N 885.382 -0.782676 1.36792 0
M  V30 8538 C 886.345 -1.8772 1.31507 0
M  V30 8539 C 887.345 -1.59269 0.221349 0
M  V30 8540 O 888.535 -1.67555 0.476544 0
M  V30 8541 C 885.667 -3.24641 1.04025 0
M  V30 8542 H 886.86 -1.9382 2.28853 0
M  V30 8543 H 884.413 -0.981226 1.21662 0
M  V30 8544 H 885.148 -3.24221 0.0716439 0
M  V30 8545 H 884.933 -3.46681 1.8318 0
M  V30 8546 H 886.423 -4.04711 1.02949 0
M  V30 8547 N 886.86 -1.21182 -1.00761 0
M  V30 8548 C 888.108 -1.02543 -1.74153 0
M  V30 8549 C 888.429 0.442372 -1.89916 0
M  V30 8550 O 887.699 1.31927 -1.44818 0
M  V30 8551 H 886.279 -0.37644 -0.645214 0
M  V30 8552 H 888.941 -1.52446 -1.21434 0
M  V30 8553 H 888.037 -1.49122 -2.7417 0
M  V30 8554 N 888.338 1.20213 -1.01915 0
M  V30 8555 C 889.563 1.94163 -0.729076 0
M  V30 8556 C 889.988 1.74416 0.704323 0
M  V30 8557 O 889.346 1.0401 1.48498 0
M  V30 8558 C 889.394 3.44258 -1.07324 0
M  V30 8559 O 888.498 4.11979 -0.186367 0
M  V30 8560 H 887.839 0.606506 -0.270272 0
M  V30 8561 H 890.369 1.52571 -1.3632 0
M  V30 8562 H 890.379 3.94888 -1.02603 0
M  V30 8563 H 889.054 3.57954 -2.11759 0
M  V30 8564 H 887.631 3.7176 -0.291334 0
M  V30 8565 N 889.816 0.795718 1.36037 0
M  V30 8566 C 891.062 0.371574 1.99367 0
M  V30 8567 C 891.395 -1.0557 1.62999 0
M  V30 8568 O 890.67 -1.73051 0.887895 0
M  V30 8569 C 890.953 0.542622 3.55988 0
M  V30 8570 C 890.806 2.01404 4.0219 0
M  V30 8571 C 892.125 -0.0384527 4.40083 0
M  V30 8572 H 889.244 0.136483 0.724252 0
M  V30 8573 H 891.886 1.00323 1.61355 0
M  V30 8574 H 890.036 0.0049053 3.885 0
M  V30 8575 H 891.708 2.6133 3.80137 0
M  V30 8576 H 889.951 2.51439 3.53498 0
M  V30 8577 H 890.622 2.08466 5.11122 0
M  V30 8578 H 893.098 0.420634 4.13968 0
M  V30 8579 H 891.974 0.111214 5.48787 0
M  V30 8580 H 892.235 -1.13116 4.27384 0
M  V30 8581 N 891.294 -1.47756 0.548274 0
M  V30 8582 C 892.241 -2.29893 -0.204408 0
M  V30 8583 C 893.211 -1.38509 -0.916761 0
M  V30 8584 O 894.396 -1.67472 -0.91421 0
M  V30 8585 C 891.536 -3.22282 -1.23403 0
M  V30 8586 C 890.649 -4.28753 -0.528654 0
M  V30 8587 C 889.784 -5.08303 -1.54279 0
M  V30 8588 C 888.823 -6.06557 -0.821893 0
M  V30 8589 N 887.96 -6.79098 -1.78243 0
M  V30 8590 H 892.8 -2.93739 0.502163 0
M  V30 8591 H 890.337 -1.44793 0.259471 0
M  V30 8592 H 892.295 -3.74262 -1.84348 0
M  V30 8593 H 890.925 -2.6032 -1.90875 0
M  V30 8594 H 889.977 -3.79899 0.195132 0
M  V30 8595 H 891.289 -4.98787 0.0365066 0
M  V30 8596 H 890.443 -5.64388 -2.22602 0
M  V30 8597 H 889.182 -4.3815 -2.14186 0
M  V30 8598 H 888.187 -5.49659 -0.12469 0
M  V30 8599 H 889.412 -6.78715 -0.228685 0
M  V30 8600 H 887.358 -6.11682 -2.37025 0
M  V30 8601 H 887.275 -7.4527 -1.26919 0
M  V30 8602 H 888.543 -7.39762 -2.45709 0
M  V30 8603 N 892.772 -0.284283 -1.55015 0
M  V30 8604 C 894.183 0.211681 -1.85496 0
M  V30 8605 C 894.534 1.54735 -1.2063 0
M  V30 8606 O 893.659 2.10594 -0.497918 0
M  V30 8607 C 894.254 0.390864 -3.36538 0
M  V30 8608 C 892.813 0.831055 -3.67111 0
M  V30 8609 C 891.96 -0.0703581 -2.77211 0
M  V30 8610 H 894.911 -0.505803 -1.50424 0
M  V30 8611 H 894.932 1.22803 -3.60138 0
M  V30 8612 H 894.444 -0.581409 -3.8372 0
M  V30 8613 H 892.545 1.81447 -3.25434 0
M  V30 8614 H 892.658 0.662026 -4.74504 0
M  V30 8615 H 891.022 0.447528 -2.50737 0
M  V30 8616 H 891.805 -1.03868 -3.2721 0
M  V30 8617 N 894.251 1.57596 -0.0117121 0
M  V30 8618 C 895.161 2.12596 0.991964 0
M  V30 8619 C 896.177 1.07399 1.36899 0
M  V30 8620 O 897.353 1.39365 1.45394 0
M  V30 8621 C 894.418 2.62796 2.2614 0
M  V30 8622 C 893.479 3.8264 1.94642 0
M  V30 8623 C 892.712 4.30435 3.15533 0
M  V30 8624 O 892.935 3.77495 4.27614 0
M  V30 8625 O 891.869 5.22469 2.98847 0
M  V30 8626 H 895.695 2.98597 0.554371 0
M  V30 8627 H 893.28 1.47947 0.207839 0
M  V30 8628 H 895.162 2.9523 3.00695 0
M  V30 8629 H 893.837 1.79886 2.69114 0
M  V30 8630 H 892.744 3.5516 1.17526 0
M  V30 8631 H 894.077 4.66658 1.56496 0
M  V30 8632 N 895.729 -0.261212 1.5542 0
M  V30 8633 C 896.692 -1.30645 1.8832 0
M  V30 8634 C 897.692 -1.41782 0.758588 0
M  V30 8635 O 898.882 -1.40729 1.02669 0
M  V30 8636 C 896.014 -2.6862 2.09895 0
M  V30 8637 H 897.207 -1.02698 2.81768 0
M  V30 8638 H 894.76 -0.499838 1.48092 0
M  V30 8639 H 895.495 -3.0173 1.18868 0
M  V30 8640 H 895.28 -2.61921 2.91787 0
M  V30 8641 H 896.77 -3.44121 2.36581 0
M  V30 8642 N 897.207 -1.48554 -0.526253 0
M  V30 8643 C 898.432 -1.60686 -1.31129 0
M  V30 8644 C 898.857 -0.268701 -1.86171 0
M  V30 8645 O 898.215 0.760167 -1.64594 0
M  V30 8646 C 898.263 -2.65938 -2.43536 0
M  V30 8647 O 897.367 -2.23356 -3.46678 0
M  V30 8648 H 896.708 -0.538691 -0.388211 0
M  V30 8649 H 899.238 -1.94567 -0.632826 0
M  V30 8650 H 899.248 -2.87327 -2.89668 0
M  V30 8651 H 897.923 -3.63085 -2.02835 0
M  V30 8652 H 896.5 -2.12196 -3.06639 0
M  V30 8653 N 898.685 0.775411 -1.37205 0
M  V30 8654 C 899.595 1.91967 -1.34855 0
M  V30 8655 C 900.611 1.72214 -0.248656 0
M  V30 8656 O 901.787 1.95512 -0.483421 0
M  V30 8657 C 898.852 3.27038 -1.15096 0
M  V30 8658 C 897.913 3.5947 -2.34691 0
M  V30 8659 C 897.146 4.88097 -2.15865 0
M  V30 8660 O 897.369 5.58871 -1.14102 0
M  V30 8661 O 896.303 5.19507 -3.03967 0
M  V30 8662 H 900.129 1.969 -2.31223 0
M  V30 8663 H 897.714 0.917647 -1.17897 0
M  V30 8664 H 899.596 4.07837 -1.0605 0
M  V30 8665 H 898.271 3.22965 -0.217999 0
M  V30 8666 H 897.178 2.7892 -2.49308 0
M  V30 8667 H 898.511 3.68282 -3.26541 0
M  V30 8668 N 900.163 1.21714 1.00117 0
M  V30 8669 C 901.126 0.981338 2.07129 0
M  V30 8670 C 902.126 -0.0491116 1.60725 0
M  V30 8671 O 903.316 0.188555 1.73177 0
M  V30 8672 C 900.448 0.480608 3.37495 0
M  V30 8673 H 901.641 1.93075 2.29482 0
M  V30 8674 H 899.194 1.03467 1.17151 0
M  V30 8675 H 899.929 -0.473552 3.20824 0
M  V30 8676 H 899.714 1.22393 3.72508 0
M  V30 8677 H 901.204 0.33561 4.16249 0
M  V30 8678 N 901.641 -1.19671 1.02551 0
M  V30 8679 C 902.888 -1.89268 0.720002 0
M  V30 8680 C 903.216 -1.79411 -0.751127 0
M  V30 8681 O 902.471 -1.17859 -1.5623 0
M  V30 8682 C 902.77 -3.39647 1.11241 0
M  V30 8683 C 902.436 -3.69706 2.58125 0
M  V30 8684 C 901.098 -3.7762 2.98256 0
M  V30 8685 C 903.45 -3.83301 3.53171 0
M  V30 8686 C 900.778 -3.96594 4.32354 0
M  V30 8687 C 903.13 -4.03788 4.86968 0
M  V30 8688 C 901.794 -4.09934 5.26793 0
M  V30 8689 H 901.064 -0.692579 0.263467 0
M  V30 8690 H 903.711 -1.41738 1.28774 0
M  V30 8691 H 902.016 -3.89052 0.463234 0
M  V30 8692 H 903.713 -3.91809 0.853602 0
M  V30 8693 H 900.303 -3.64152 2.26033 0
M  V30 8694 H 904.487 -3.76534 3.2332 0
M  V30 8695 H 899.743 -3.9959 4.6275 0
M  V30 8696 H 903.917 -4.1325 5.60533 0
M  V30 8697 H 901.544 -4.24389 6.30712 0
M  V30 8698 N 903.119 -0.802921 -1.35613 0
M  V30 8699 C 904.53 -0.443004 -1.81368 0
M  V30 8700 C 904.881 1.03459 -1.66706 0
M  V30 8701 O 904.006 1.80372 -1.19561 0
M  V30 8702 C 904.601 -0.797324 -3.29284 0
M  V30 8703 C 903.16 -0.490055 -3.73196 0
M  V30 8704 C 902.307 -1.02487 -2.57666 0
M  V30 8705 H 905.258 -0.994888 -1.23643 0
M  V30 8706 H 905.279 -0.0934638 -3.80385 0
M  V30 8707 H 904.791 -1.87278 -3.39924 0
M  V30 8708 H 902.892 0.576818 -3.68108 0
M  V30 8709 H 903.005 -1.02012 -4.68114 0
M  V30 8710 H 901.369 -0.44738 -2.5074 0
M  V30 8711 H 902.152 -2.10636 -2.71085 0
M  V30 8712 N 904.597 1.47463 -0.556102 0
M  V30 8713 C 905.845 2.02075 -0.0315712 0
M  V30 8714 C 906.166 1.43292 1.32259 0
M  V30 8715 O 905.436 0.60771 1.86236 0
M  V30 8716 H 904.016 0.74695 -0.0086816 0
M  V30 8717 H 906.678 1.80879 -0.725859 0
M  V30 8718 H 905.774 3.12047 0.0573538 0
M  V30 8719 N 906.075 0.2925 1.54862 0
M  V30 8720 C 907.038 -0.574423 2.21885 0
M  V30 8721 C 908.038 -1.06791 1.20218 0
M  V30 8722 O 909.228 -0.9653 1.45009 0
M  V30 8723 C 906.36 -1.79438 2.89853 0
M  V30 8724 H 907.553 0.0110319 2.99898 0
M  V30 8725 H 905.106 0.043256 1.5624 0
M  V30 8726 H 905.841 -2.4199 2.15897 0
M  V30 8727 H 905.626 -1.44827 3.64373 0
M  V30 8728 H 907.116 -2.41048 3.41007 0
M  V30 8729 N 907.553 -1.57587 0.0200696 0
M  V30 8730 C 908.799 -1.92539 -0.655764 0
M  V30 8731 C 909.154 -0.896187 -1.70253 0
M  V30 8732 O 908.447 0.0890022 -1.91393 0
M  V30 8733 C 908.641 -3.32002 -1.32323 0
M  V30 8734 C 908.47 -4.48393 -0.342632 0
M  V30 8735 C 907.24 -5.05271 0.0542423 0
M  V30 8736 C 909.438 -5.12747 0.399388 0
M  V30 8737 N 907.42 -6.05181 1.03095 0
M  V30 8738 C 908.791 -6.07674 1.23014 0
M  V30 8739 C 910.846 -4.95761 0.461065 0
M  V30 8740 C 909.549 -6.87442 2.11698 0
M  V30 8741 C 911.575 -5.7613 1.33521 0
M  V30 8742 C 910.937 -6.70666 2.15376 0
M  V30 8743 H 907.036 -0.75256 -0.212549 0
M  V30 8744 H 909.62 -1.94514 0.0851247 0
M  V30 8745 H 907.791 -3.30863 -2.0343 0
M  V30 8746 H 909.523 -3.54327 -1.95537 0
M  V30 8747 H 906.278 -4.72529 -0.318327 0
M  V30 8748 H 906.702 -6.59824 1.51528 0
M  V30 8749 H 911.344 -4.22506 -0.15752 0
M  V30 8750 H 909.062 -7.60008 2.74616 0
M  V30 8751 H 912.648 -5.65023 1.38711 0
M  V30 8752 H 911.528 -7.31772 2.81922 0
M  V30 8753 N 909.032 0.252966 -1.55557 0
M  V30 8754 C 909.942 1.33472 -1.92931 0
M  V30 8755 C 910.958 1.52983 -0.828985 0
M  V30 8756 O 912.134 1.66723 -1.12984 0
M  V30 8757 C 909.199 2.6704 -2.21112 0
M  V30 8758 C 908.26 2.56103 -3.44542 0
M  V30 8759 C 907.493 3.83302 -3.71369 0
M  V30 8760 O 907.716 4.84907 -3.00368 0
M  V30 8761 O 906.65 3.823 -4.64898 0
M  V30 8762 H 910.476 1.04768 -2.85057 0
M  V30 8763 H 908.061 0.453208 -1.4236 0
M  V30 8764 H 909.943 3.45981 -2.40572 0
M  V30 8765 H 908.618 2.95489 -1.32166 0
M  V30 8766 H 907.525 1.7547 -3.30396 0
M  V30 8767 H 908.858 2.32601 -4.33772 0
M  V30 8768 N 910.51 1.48831 0.518367 0
M  V30 8769 C 911.458 1.64678 1.64268 0
M  V30 8770 C 912.452 0.512967 1.61447 0
M  V30 8771 O 913.658 0.692063 1.66164 0
M  V30 8772 H 910.033 0.518964 0.544224 0
M  V30 8773 H 912.004 2.59083 1.4805 0
M  V30 8774 C 910.753 1.71449 3.0249 0
M  V30 8775 H 910.076 2.58061 3.0536 0
M  V30 8776 H 911.516 1.86577 3.80743 0
M  V30 8777 C 909.975 0.455584 3.33805 0
M  V30 8778 O 910.505 -0.426428 3.9943 0
M  V30 8779 N 908.711 0.323763 2.88791 0
M  V30 8780 H 908.258 1.04249 2.35563 0
M  V30 8781 H 908.216 -0.517514 3.10112 0
M  V30 8782 N 911.988 -0.768124 1.37614 0
M  V30 8783 C 913.404 -1.06919 1.18493 0
M  V30 8784 C 913.604 -2.01486 0.0235753 0
M  V30 8785 O 912.66 -2.4438 -0.635209 0
M  V30 8786 C 913.973 -1.66321 2.50515 0
M  V30 8787 C 915.521 -1.78562 2.57069 0
M  V30 8788 C 915.996 -2.41377 3.89231 0
M  V30 8789 N 917.487 -2.48824 3.90693 0
M  V30 8790 C 918.222 -2.98288 4.89706 0
M  V30 8791 N 917.718 -3.47897 5.99115 0
M  V30 8792 N 919.511 -2.97196 4.77107 0
M  V30 8793 H 911.662 -0.140286 2.11936 0
M  V30 8794 H 913.925 -0.124863 0.939741 0
M  V30 8795 H 913.631 -1.04303 3.35878 0
M  V30 8796 H 913.505 -2.65571 2.67866 0
M  V30 8797 H 915.892 -2.39712 1.72111 0
M  V30 8798 H 915.973 -0.780574 2.43599 0
M  V30 8799 H 915.617 -1.80866 4.74605 0
M  V30 8800 H 915.547 -3.42495 4.00006 0
M  V30 8801 H 918.038 -2.1372 3.1166 0
M  V30 8802 H 918.351 -3.84053 6.70614 0
M  V30 8803 H 916.696 -3.45993 6.02755 0
M  V30 8804 H 919.887 -2.57741 3.90752 0
M  V30 8805 H 920.06 -3.35434 5.54426 0
M  V30 8806 N 913.466 -1.22244 -0.994698 0
M  V30 8807 C 914.694 -1.07218 -1.76952 0
M  V30 8808 C 915.109 0.377388 -1.8499 0
M  V30 8809 O 914.466 1.26157 -1.31874 0
M  V30 8810 C 914.517 -1.67496 -3.20355 0
M  V30 8811 O 914.238 -3.06782 -3.12756 0
M  V30 8812 C 915.739 -1.57721 -4.14294 0
M  V30 8813 H 912.959 -0.375966 -0.555779 0
M  V30 8814 H 915.503 -1.61799 -1.25065 0
M  V30 8815 H 913.658 -1.16982 -3.69315 0
M  V30 8816 H 914.072 -3.35784 -4.02926 0
M  V30 8817 H 915.546 -2.04623 -5.12673 0
M  V30 8818 H 916.023 -0.533434 -4.35949 0
M  V30 8819 H 916.629 -2.07531 -3.71229 0
M  V30 8820 N 914.944 1.19125 -1.03184 0
M  V30 8821 C 916.36 1.40909 -0.749447 0
M  V30 8822 C 916.56 1.9022 0.664729 0
M  V30 8823 O 915.616 2.08085 1.43028 0
M  V30 8824 C 916.929 2.41761 -1.78807 0
M  V30 8825 C 918.477 2.55503 -1.80796 0
M  V30 8826 C 918.952 3.59612 -2.83626 0
M  V30 8827 N 920.443 3.6711 -2.82461 0
M  V30 8828 C 921.178 4.47366 -3.5868 0
M  V30 8829 N 920.674 5.31302 -4.44623 0
M  V30 8830 N 922.467 4.42044 -3.47208 0
M  V30 8831 H 914.618 0.854399 -1.94458 0
M  V30 8832 H 916.881 0.437753 -0.840878 0
M  V30 8833 H 916.587 2.12559 -2.80199 0
M  V30 8834 H 916.461 3.40981 -1.61283 0
M  V30 8835 H 918.848 2.84027 -0.800803 0
M  V30 8836 H 918.929 1.56427 -2.02396 0
M  V30 8837 H 918.573 3.3183 -3.84515 0
M  V30 8838 H 918.503 4.58345 -2.59283 0
M  V30 8839 H 920.994 3.07166 -2.2013 0
M  V30 8840 H 921.307 5.89667 -4.99512 0
M  V30 8841 H 919.652 5.30753 -4.48694 0
M  V30 8842 H 922.843 3.75513 -2.79477 0
M  V30 8843 H 923.016 5.0435 -4.06859 0
M  V30 8844 N 916.422 0.810101 1.35185 0
M  V30 8845 C 917.369 0.220927 2.2974 0
M  V30 8846 C 918.339 -0.647024 1.5298 0
M  V30 8847 O 919.524 -0.591367 1.81404 0
M  V30 8848 C 916.664 -0.62167 3.39454 0
M  V30 8849 C 915.777 0.267104 4.31173 0
M  V30 8850 C 914.912 -0.583833 5.27982 0
M  V30 8851 C 913.951 0.305123 6.11339 0
M  V30 8852 N 913.088 -0.505992 7.00274 0
M  V30 8853 H 917.928 1.03266 2.79536 0
M  V30 8854 H 915.465 0.520768 1.37573 0
M  V30 8855 H 917.423 -1.12539 4.01735 0
M  V30 8856 H 916.053 -1.39863 2.90926 0
M  V30 8857 H 915.105 0.88895 3.69867 0
M  V30 8858 H 916.417 0.951182 4.89647 0
M  V30 8859 H 915.571 -1.15254 5.95652 0
M  V30 8860 H 914.31 -1.30146 4.70014 0
M  V30 8861 H 913.315 0.886075 5.42613 0
M  V30 8862 H 914.54 1.02067 6.71386 0
M  V30 8863 H 912.486 -1.20753 6.4479 0
M  V30 8864 H 912.403 0.119966 7.55905 0
M  V30 8865 H 913.671 -1.05787 7.72288 0
M  V30 8866 N 917.9 -1.47166 0.563914 0
M  V30 8867 C 919.177 -1.95586 -0.0236172 0
M  V30 8868 C 919.557 -1.50655 -1.47872 0
M  V30 8869 O 918.905 -0.748479 -2.15894 0
M  V30 8870 C 919.115 -3.48762 0.128841 0
M  V30 8871 C 920.463 -4.24598 -0.0130544 0
M  V30 8872 O 921.487 -3.56155 0.0567242 0
M  V30 8873 O 920.346 -5.46253 -0.164332 0
M  V30 8874 H 917.44 -0.824793 -0.0603789 0
M  V30 8875 H 919.986 -1.57536 0.63091 0
M  V30 8876 H 918.758 -3.74291 1.14113 0
M  V30 8877 H 918.381 -3.93594 -0.56299 0
M  V30 8878 N 919.378 -0.300708 -1.54705 0
M  V30 8879 C 920.311 0.617513 -2.19686 0
M  V30 8880 C 921.289 1.1331 -1.16617 0
M  V30 8881 O 922.473 1.20135 -1.45258 0
M  V30 8882 C 919.6 1.84486 -2.84047 0
M  V30 8883 C 918.646 1.46253 -4.0064 0
M  V30 8884 S 919.479 0.518718 -5.32982 0
M  V30 8885 C 920.635 1.75387 -6.00825 0
M  V30 8886 H 920.868 0.0654548 -2.97228 0
M  V30 8887 H 918.401 -0.0848492 -1.54167 0
M  V30 8888 H 920.359 2.54921 -3.21754 0
M  V30 8889 H 919.02 2.36808 -2.06351 0
M  V30 8890 H 918.213 2.37648 -4.44454 0
M  V30 8891 H 917.815 0.838129 -3.64488 0
M  V30 8892 H 920.107 2.69448 -6.21614 0
M  V30 8893 H 921.05 1.35829 -6.9495 0
M  V30 8894 H 921.458 1.93045 -5.30466 0
M  V30 8895 N 920.856 1.57574 -0.0284266 0
M  V30 8896 C 921.766 2.13637 0.96936 0
M  V30 8897 C 922.782 1.08845 1.35752 0
M  V30 8898 O 923.958 1.40899 1.43908 0
M  V30 8899 C 921.023 2.65179 2.2334 0
M  V30 8900 C 920.084 3.84683 1.90572 0
M  V30 8901 C 919.317 4.33758 3.1095 0
M  V30 8902 O 919.54 3.82009 4.23586 0
M  V30 8903 O 918.474 5.2561 2.93288 0
M  V30 8904 H 922.3 2.99169 0.52267 0
M  V30 8905 H 919.885 1.48159 0.192135 0
M  V30 8906 H 921.767 2.98402 2.97547 0
M  V30 8907 H 920.442 1.82731 2.67191 0
M  V30 8908 H 919.349 3.56386 1.13753 0
M  V30 8909 H 920.682 4.68292 1.51538 0
M  V30 8910 N 922.334 -0.244713 1.55689 0
M  V30 8911 C 923.75 -0.593331 1.48161 0
M  V30 8912 C 923.95 -1.88234 0.719047 0
M  V30 8913 O 923.006 -2.51266 0.249292 0
M  V30 8914 C 924.319 -0.694032 2.92581 0
M  V30 8915 C 925.867 -0.786213 3.02965 0
M  V30 8916 C 926.342 -0.918457 4.48696 0
M  V30 8917 N 927.833 -0.983272 4.52643 0
M  V30 8918 C 928.568 -1.1049 5.62654 0
M  V30 8919 N 928.064 -1.19193 6.8247 0
M  V30 8920 N 929.857 -1.13823 5.50455 0
M  V30 8921 H 922.008 0.601446 2.03707 0
M  V30 8922 H 924.271 0.207894 0.924924 0
M  V30 8923 H 923.977 0.183133 3.51223 0
M  V30 8924 H 923.851 -1.56525 3.4319 0
M  V30 8925 H 926.238 -1.65383 2.44402 0
M  V30 8926 H 926.319 0.110202 2.55563 0
M  V30 8927 H 925.963 -0.0553881 5.0787 0
M  V30 8928 H 925.893 -1.82994 4.93782 0
M  V30 8929 H 928.384 -0.927269 3.66347 0
M  V30 8930 H 928.697 -1.28387 7.62061 0
M  V30 8931 H 927.042 -1.16147 6.85226 0
M  V30 8932 H 930.233 -1.06673 4.55783 0
M  V30 8933 H 930.406 -1.22957 6.36228 0
M  V30 8934 N 923.813 -1.49104 -0.510467 0
M  V30 8935 C 925.061 -1.578 -1.26268 0
M  V30 8936 C 925.382 -0.262349 -1.93227 0
M  V30 8937 O 924.652 0.717624 -1.82283 0
M  V30 8938 H 923.232 -0.581387 -0.46904 0
M  V30 8939 H 925.894 -1.85678 -0.592423 0
M  V30 8940 H 924.99 -2.36919 -2.03165 0
M  V30 8941 N 925.291 0.760815 -1.38019 0
M  V30 8942 C 926.239 1.89578 -1.34771 0
M  V30 8943 C 927.233 1.67766 -0.234714 0
M  V30 8944 O 928.439 1.75423 -0.403352 0
M  V30 8945 H 924.814 0.623608 -0.420258 0
M  V30 8946 H 926.785 1.89434 -2.30558 0
M  V30 8947 C 925.534 3.26976 -1.18246 0
M  V30 8948 H 924.857 3.44342 -2.03147 0
M  V30 8949 H 926.297 4.06657 -1.20026 0
M  V30 8950 C 924.756 3.36717 0.111145 0
M  V30 8951 O 925.286 3.86607 1.09079 0
M  V30 8952 N 923.492 2.90128 0.165542 0
M  V30 8953 H 923.039 2.49719 -0.632328 0
M  V30 8954 H 922.997 2.97026 1.03067 0
M  V30 8955 N 926.769 1.22769 0.988202 0
M  V30 8956 C 927.997 1.08155 1.76381 0
M  V30 8957 C 928.412 -0.367573 1.85187 0
M  V30 8958 O 927.769 -1.25455 1.32541 0
M  V30 8959 C 927.82 1.69193 3.19462 0
M  V30 8960 O 927.541 3.08437 3.11125 0
M  V30 8961 C 929.042 1.59915 4.13451 0
M  V30 8962 H 926.262 0.378908 0.553778 0
M  V30 8963 H 928.806 1.6246 1.24206 0
M  V30 8964 H 926.961 1.18939 3.6869 0
M  V30 8965 H 927.375 3.37916 4.0114 0
M  V30 8966 H 928.849 2.07339 5.1158 0
M  V30 8967 H 929.326 0.556546 4.3566 0
M  V30 8968 H 929.932 2.09497 3.70123 0
M  V30 8969 N 928.247 -1.18576 1.03814 0
M  V30 8970 C 929.179 -2.21607 0.585055 0
M  V30 8971 C 930.192 -1.59125 -0.343963 0
M  V30 8972 O 931.381 -1.77959 -0.138882 0
M  V30 8973 C 928.481 -3.38495 -0.165602 0
M  V30 8974 C 927.654 -4.30557 0.770662 0
M  V30 8975 C 926.713 -5.26161 0.0637534 0
M  V30 8976 O 925.739 -5.64961 0.693359 0
M  V30 8977 N 926.941 -5.67882 -1.20377 0
M  V30 8978 H 929.706 -2.61104 1.47121 0
M  V30 8979 H 927.267 -1.33336 0.918316 0
M  V30 8980 H 929.259 -3.99474 -0.648292 0
M  V30 8981 H 927.829 -2.97711 -0.953268 0
M  V30 8982 H 927.049 -3.67221 1.43326 0
M  V30 8983 H 928.337 -4.88969 1.40667 0
M  V30 8984 H 927.735 -5.38409 -1.73586 0
M  V30 8985 H 926.292 -6.31069 -1.63079 0
M  V30 8986 N 929.725 -0.817259 -1.34754 0
M  V30 8987 C 930.635 -0.236946 -2.334 0
M  V30 8988 C 931.651 0.625685 -1.62361 0
M  V30 8989 O 932.827 0.534921 -1.94166 0
M  V30 8990 C 929.892 0.596215 -3.41535 0
M  V30 8991 C 928.953 -0.288154 -4.28332 0
M  V30 8992 C 928.186 0.505337 -5.31302 0
M  V30 8993 O 928.409 1.73912 -5.43241 0
M  V30 8994 O 927.343 -0.109374 -6.01801 0
M  V30 8995 H 931.169 -1.05327 -2.84851 0
M  V30 8996 H 928.754 -0.579275 -1.37713 0
M  V30 8997 H 930.636 1.07041 -4.07578 0
M  V30 8998 H 929.311 1.38997 -2.92338 0
M  V30 8999 H 928.218 -0.809724 -3.65232 0
M  V30 9000 H 929.551 -1.04612 -4.80955 0
M  V30 9001 N 931.203 1.46865 -0.571711 0
M  V30 9002 C 932.48 1.95596 0.0132445 0
M  V30 9003 C 932.86 1.51438 1.47071 0
M  V30 9004 O 932.208 0.759917 2.15494 0
M  V30 9005 C 932.418 3.48689 -0.147335 0
M  V30 9006 C 933.766 4.24599 -0.00946329 0
M  V30 9007 O 934.79 3.5612 -0.0756112 0
M  V30 9008 O 933.649 5.46332 0.135361 0
M  V30 9009 H 930.743 0.825102 0.0560039 0
M  V30 9010 H 933.289 1.57199 -0.639256 0
M  V30 9011 H 932.061 3.73681 -1.16096 0
M  V30 9012 H 931.684 3.93887 0.542109 0
M  V30 9013 N 932.681 0.308908 1.54543 0
M  V30 9014 C 933.644 -0.550857 2.22482 0
M  V30 9015 C 934.644 -1.0551 1.21344 0
M  V30 9016 O 935.834 -0.949866 1.46025 0
M  V30 9017 C 932.966 -1.76354 2.9174 0
M  V30 9018 H 934.159 0.0428395 2.99869 0
M  V30 9019 H 931.712 0.059825 1.56185 0
M  V30 9020 H 932.447 -2.39686 2.18451 0
M  V30 9021 H 932.232 -1.40954 3.65889 0
M  V30 9022 H 933.722 -2.37417 3.43545 0
M  V30 9023 N 934.159 -1.57557 0.0367827 0
M  V30 9024 C 935.122 -2.09591 -0.927589 0
M  V30 9025 C 936.122 -1.01252 -1.24919 0
M  V30 9026 O 937.312 -1.27382 -1.18825 0
M  V30 9027 C 934.444 -2.56816 -2.24184 0
M  V30 9028 H 935.637 -2.96086 -0.476784 0
M  V30 9029 H 933.19 -1.54864 -0.211385 0
M  V30 9030 H 933.925 -1.73673 -2.73876 0
M  V30 9031 H 933.71 -3.35973 -2.0215 0
M  V30 9032 H 935.2 -2.97271 -2.93291 0
M  V30 9033 N 935.637 0.236453 -1.55816 0
M  V30 9034 C 936.914 0.986463 -1.68903 0
M  V30 9035 C 937.294 2.02984 -0.579722 0
M  V30 9036 O 936.642 2.24693 0.415389 0
M  V30 9037 C 936.852 1.61038 -3.09625 0
M  V30 9038 C 938.2 2.10829 -3.6856 0
M  V30 9039 O 939.224 1.7096 -3.12492 0
M  V30 9040 O 938.083 2.84064 -4.66873 0
M  V30 9041 H 935.177 0.459837 -0.687371 0
M  V30 9042 H 937.723 0.229412 -1.68142 0
M  V30 9043 H 936.495 0.856232 -3.81817 0
M  V30 9044 H 936.118 2.43336 -3.14441 0
M  V30 9045 N 937.115 1.49373 0.502552 0
M  V30 9046 C 938.363 1.58467 1.25429 0
M  V30 9047 C 938.684 0.272593 1.93085 0
M  V30 9048 O 937.954 -0.707947 1.82661 0
M  V30 9049 H 936.534 0.583866 0.46595 0
M  V30 9050 H 939.196 1.8599 0.582568 0
M  V30 9051 H 938.292 2.37993 2.01906 0
M  V30 9052 N 938.594 -0.753485 1.38421 0
M  V30 9053 C 939.504 -1.89797 1.37892 0
M  V30 9054 C 940.52 -1.71797 0.276023 0
M  V30 9055 O 941.696 -1.94718 0.514464 0
M  V30 9056 C 938.761 -3.25166 1.20284 0
M  V30 9057 C 937.822 -3.55691 2.4038 0
M  V30 9058 C 937.055 -4.84601 2.23602 0
M  V30 9059 O 937.278 -5.56985 1.22979 0
M  V30 9060 O 936.212 -5.14605 3.12194 0
M  V30 9061 H 940.038 -1.93197 2.34326 0
M  V30 9062 H 937.623 -0.898775 1.19342 0
M  V30 9063 H 939.505 -4.06099 1.12525 0
M  V30 9064 H 938.18 -3.22577 0.269352 0
M  V30 9065 H 937.087 -2.74919 2.53714 0
M  V30 9066 H 938.42 -3.6304 3.32359 0
M  V30 9067 N 940.072 -1.23292 -0.981677 0
M  V30 9068 C 941.004 -0.970782 -2.07626 0
M  V30 9069 C 942.017 0.0547506 -1.62708 0
M  V30 9070 O 943.206 -0.180623 -1.77584 0
M  V30 9071 C 940.306 -0.44055 -3.36024 0
M  V30 9072 C 939.479 -1.52595 -4.09919 0
M  V30 9073 C 938.538 -1.00082 -5.16595 0
M  V30 9074 O 937.564 -1.68951 -5.43548 0
M  V30 9075 N 938.766 0.172017 -5.80245 0
M  V30 9076 H 941.531 -1.91316 -2.30691 0
M  V30 9077 H 939.092 -1.14133 -1.14828 0
M  V30 9078 H 941.084 -0.0743111 -4.04632 0
M  V30 9079 H 939.654 0.407211 -3.09936 0
M  V30 9080 H 938.874 -2.06501 -3.35784 0
M  V30 9081 H 940.162 -2.2559 -4.56055 0
M  V30 9082 H 939.56 0.748129 -5.60731 0
M  V30 9083 H 938.117 0.479532 -6.50034 0
M  V30 9084 N 941.55 1.18024 -1.04442 0
M  V30 9085 C 942.966 1.40107 -0.76435 0
M  V30 9086 C 943.166 1.90914 0.644516 0
M  V30 9087 O 942.222 2.0959 1.40813 0
M  V30 9088 C 943.535 2.39851 -1.81361 0
M  V30 9089 C 945.083 2.53571 -1.83496 0
M  V30 9090 C 945.558 3.56583 -2.87424 0
M  V30 9091 N 947.049 3.64094 -2.86339 0
M  V30 9092 C 947.784 4.43537 -3.63405 0
M  V30 9093 N 947.28 5.26557 -4.50233 0
M  V30 9094 N 949.073 4.38336 -3.51877 0
M  V30 9095 H 941.224 0.833726 -1.95353 0
M  V30 9096 H 943.487 0.42881 -0.845474 0
M  V30 9097 H 943.193 2.09576 -2.82438 0
M  V30 9098 H 943.067 3.39251 -1.6489 0
M  V30 9099 H 945.454 2.83161 -0.830883 0
M  V30 9100 H 945.535 1.54272 -2.04044 0
M  V30 9101 H 945.179 3.27733 -3.88012 0
M  V30 9102 H 945.109 4.55569 -2.6413 0
M  V30 9103 H 947.6 3.04814 -2.23376 0
M  V30 9104 H 947.913 5.84336 -5.05738 0
M  V30 9105 H 946.258 5.25964 -4.54298 0
M  V30 9106 H 949.449 3.72528 -2.83444 0
M  V30 9107 H 949.622 5.00007 -4.12186 0
M  V30 9108 N 943.028 0.824394 1.34319 0
M  V30 9109 C 943.938 0.24932 2.33271 0
M  V30 9110 C 944.954 -0.617066 1.62691 0
M  V30 9111 O 946.13 -0.524616 1.94447 0
M  V30 9112 C 943.195 -0.578094 3.41846 0
M  V30 9113 C 942.256 0.310866 4.28173 0
M  V30 9114 C 941.489 -0.477153 5.31563 0
M  V30 9115 O 941.712 -1.71028 5.44156 0
M  V30 9116 O 940.646 0.141287 6.01734 0
M  V30 9117 H 944.472 1.06837 2.84288 0
M  V30 9118 H 942.057 0.58657 1.37403 0
M  V30 9119 H 943.939 -1.04878 4.0814 0
M  V30 9120 H 942.614 -1.37444 2.93071 0
M  V30 9121 H 941.521 0.829081 3.64797 0
M  V30 9122 H 942.854 1.07161 4.80393 0
M  V30 9123 N 944.506 -1.46559 0.579492 0
M  V30 9124 C 945.416 -2.34066 -0.15816 0
M  V30 9125 C 946.432 -1.49556 -0.88932 0
M  V30 9126 O 947.608 -1.82434 -0.853226 0
M  V30 9127 C 944.673 -3.26683 -1.161 0
M  V30 9128 C 943.734 -4.27092 -0.434855 0
M  V30 9129 C 942.967 -5.15283 -1.38992 0
M  V30 9130 O 943.19 -5.06345 -2.62623 0
M  V30 9131 O 942.124 -5.95099 -0.902253 0
M  V30 9132 H 945.95 -2.98488 0.560234 0
M  V30 9133 H 943.535 -1.45482 0.339918 0
M  V30 9134 H 945.417 -3.8383 -1.73932 0
M  V30 9135 H 944.092 -2.64862 -1.86091 0
M  V30 9136 H 942.999 -3.73641 0.185224 0
M  V30 9137 H 944.332 -4.9169 0.224031 0
M  V30 9138 N 945.984 -0.3171 -1.54377 0
M  V30 9139 C 946.894 0.560867 -2.27797 0
M  V30 9140 C 947.91 1.13473 -1.31908 0
M  V30 9141 O 949.086 1.15608 -1.64914 0
M  V30 9142 C 946.151 1.70886 -3.0166 0
M  V30 9143 C 945.212 1.16745 -4.13121 0
M  V30 9144 C 944.445 2.26073 -4.83453 0
M  V30 9145 O 944.668 3.46292 -4.53252 0
M  V30 9146 O 943.602 1.91856 -5.70504 0
M  V30 9147 H 947.428 -0.035193 -3.0368 0
M  V30 9148 H 945.013 -0.0830062 -1.49169 0
M  V30 9149 H 946.895 2.37736 -3.47936 0
M  V30 9150 H 945.57 2.29122 -2.28658 0
M  V30 9151 H 944.477 0.464224 -3.71209 0
M  V30 9152 H 945.81 0.630307 -4.88147 0
M  V30 9153 N 947.462 1.57535 -0.0451378 0
M  V30 9154 C 948.372 2.14653 0.946646 0
M  V30 9155 C 949.388 1.10279 1.3459 0
M  V30 9156 O 950.564 1.42417 1.42405 0
M  V30 9157 C 947.629 2.67533 2.20515 0
M  V30 9158 C 946.69 3.86682 1.86481 0
M  V30 9159 C 945.923 4.37031 3.06332 0
M  V30 9160 O 946.146 3.86481 4.1951 0
M  V30 9161 O 945.08 5.28691 2.87697 0
M  V30 9162 H 948.906 2.99706 0.49091 0
M  V30 9163 H 946.491 1.48355 0.17641 0
M  V30 9164 H 948.373 3.01542 2.94365 0
M  V30 9165 H 947.048 1.85554 2.65238 0
M  V30 9166 H 945.955 3.57573 1.09966 0
M  V30 9167 H 947.288 4.69873 1.46562 0
M  V30 9168 N 948.94 -0.228186 1.55939 0
M  V30 9169 C 950.168 -0.970618 1.8272 0
M  V30 9170 C 950.583 -1.78212 0.623385 0
M  V30 9171 O 949.94 -1.77879 -0.408063 0
M  V30 9172 C 949.991 -1.89352 3.07942 0
M  V30 9173 O 949.712 -1.11483 4.23678 0
M  V30 9174 C 951.213 -2.75039 3.47661 0
M  V30 9175 H 948.433 -0.284772 0.607574 0
M  V30 9176 H 950.977 -0.245419 2.03022 0
M  V30 9177 H 949.132 -2.57275 2.89635 0
M  V30 9178 H 949.546 -1.74073 4.94772 0
M  V30 9179 H 951.02 -3.35511 4.38334 0
M  V30 9180 H 951.497 -3.471 2.69106 0
M  V30 9181 H 952.103 -2.1254 3.68384 0
M  V30 9182 N 950.418 -1.49637 -0.494624 0
M  V30 9183 C 951.381 -1.66252 -1.57775 0
M  V30 9184 C 952.381 -0.534054 -1.51672 0
M  V30 9185 O 953.571 -0.800637 -1.54711 0
M  V30 9186 C 950.703 -1.66584 -2.97426 0
M  V30 9187 H 951.896 -2.62864 -1.4437 0
M  V30 9188 H 949.449 -1.38764 -0.719323 0
M  V30 9189 H 950.184 -0.715798 -3.16302 0
M  V30 9190 H 949.969 -2.48543 -3.03264 0
M  V30 9191 H 951.459 -1.81474 -3.76108 0
M  V30 9192 N 951.896 0.746133 -1.38819 0
M  V30 9193 C 953.144 1.50247 -1.35167 0
M  V30 9194 C 953.465 1.94921 0.0553531 0
M  V30 9195 O 952.735 1.68187 1.00449 0
M  V30 9196 H 951.315 0.557337 -0.497377 0
M  V30 9197 H 953.977 0.886472 -1.73573 0
M  V30 9198 H 953.073 2.38986 -2.00728 0
M  V30 9199 N 953.375 1.23811 0.975125 0
M  V30 9200 C 954.623 1.07124 1.71373 0
M  V30 9201 C 954.944 -0.391864 1.91022 0
M  V30 9202 O 954.214 -1.28041 1.48265 0
M  V30 9203 H 952.794 0.393415 0.635007 0
M  V30 9204 H 955.456 1.55612 1.17349 0
M  V30 9205 H 954.552 1.56338 2.7012 0
M  V30 9206 N 954.853 -1.17469 1.05066 0
M  V30 9207 C 955.785 -2.20974 0.608526 0
M  V30 9208 C 956.798 -1.59481 -0.327066 0
M  V30 9209 O 957.987 -1.78096 -0.12 0
M  V30 9210 C 955.087 -3.38652 -0.12969 0
M  V30 9211 C 954.26 -4.29716 0.816285 0
M  V30 9212 C 953.319 -5.26064 0.119556 0
M  V30 9213 O 952.345 -5.64194 0.753241 0
M  V30 9214 N 953.547 -5.69126 -1.14347 0
M  V30 9215 H 956.312 -2.59529 1.49882 0
M  V30 9216 H 953.873 -1.32355 0.932406 0
M  V30 9217 H 955.865 -4.00139 -0.605886 0
M  V30 9218 H 954.435 -2.98705 -0.921638 0
M  V30 9219 H 953.655 -3.6568 1.47213 0
M  V30 9220 H 954.943 -4.87449 1.45845 0
M  V30 9221 H 954.341 -5.4022 -1.67866 0
M  V30 9222 H 952.898 -6.32764 -1.56376 0
M  V30 9223 N 956.331 -0.831506 -1.3388 0
M  V30 9224 C 957.559 -0.436925 -2.02234 0
M  V30 9225 C 957.974 0.959689 -1.6259 0
M  V30 9226 O 957.331 1.62248 -0.835576 0
M  V30 9227 C 957.382 -0.539429 -3.57453 0
M  V30 9228 O 957.103 -1.88101 -3.95664 0
M  V30 9229 C 958.604 -0.140852 -4.43076 0
M  V30 9230 H 955.824 -0.174302 -0.647966 0
M  V30 9231 H 958.368 -1.12204 -1.70969 0
M  V30 9232 H 956.523 0.0976959 -3.87277 0
M  V30 9233 H 956.937 -1.86131 -4.90363 0
M  V30 9234 H 958.411 -0.26364 -5.5137 0
M  V30 9235 H 958.888 0.916505 -4.29531 0
M  V30 9236 H 959.494 -0.752117 -4.18597 0
M  V30 9237 N 957.809 1.4625 -0.587256 0
M  V30 9238 C 958.739 2.33132 0.131076 0
M  V30 9239 C 959.72 1.45619 0.879158 0
M  V30 9240 O 960.905 1.74428 0.853723 0
M  V30 9241 C 958.035 3.27975 1.14236 0
M  V30 9242 C 956.989 4.24965 0.508819 0
M  V30 9243 C 956.315 5.09349 1.62689 0
M  V30 9244 C 957.615 5.19322 -0.55694 0
M  V30 9245 H 959.309 2.93442 -0.594333 0
M  V30 9246 H 956.855 1.41106 -0.287263 0
M  V30 9247 H 958.808 3.87614 1.65328 0
M  V30 9248 H 957.532 2.65781 1.8981 0
M  V30 9249 H 956.191 3.66595 0.0189337 0
M  V30 9250 H 955.839 4.43537 2.37242 0
M  V30 9251 H 955.539 5.75036 1.20861 0
M  V30 9252 H 957.063 5.71852 2.14049 0
M  V30 9253 H 958.477 5.73151 -0.130903 0
M  V30 9254 H 956.874 5.93376 -0.895801 0
M  V30 9255 H 957.944 4.62979 -1.44148 0
M  V30 9256 N 959.287 0.325282 1.54207 0
M  V30 9257 C 960.25 -0.527228 2.23054 0
M  V30 9258 C 961.25 -1.04217 1.22456 0
M  V30 9259 O 962.44 -0.934325 1.47024 0
M  V30 9260 C 959.572 -1.7325 2.93594 0
M  V30 9261 H 960.765 0.0746423 2.99807 0
M  V30 9262 H 958.318 0.0763872 1.56113 0
M  V30 9263 H 959.053 -2.37356 2.20981 0
M  V30 9264 H 958.838 -1.37065 3.67363 0
M  V30 9265 H 960.328 -2.3376 3.46043 0
M  V30 9266 N 960.765 -1.57509 0.0534917 0
M  V30 9267 C 961.728 -2.10563 -0.905307 0
M  V30 9268 C 962.728 -1.02571 -1.23838 0
M  V30 9269 O 963.918 -1.28635 -1.17468 0
M  V30 9270 C 961.05 -2.5918 -2.21447 0
M  V30 9271 H 962.243 -2.96575 -0.445354 0
M  V30 9272 H 959.796 -1.55079 -0.194947 0
M  V30 9273 H 960.531 -1.76568 -2.72019 0
M  V30 9274 H 960.316 -3.38098 -1.98575 0
M  V30 9275 H 961.806 -3.00365 -2.90122 0
M  V30 9276 N 962.243 0.219913 -1.56058 0
M  V30 9277 C 963.153 1.29349 -1.95719 0
M  V30 9278 C 964.169 1.5119 -0.861248 0
M  V30 9279 O 965.345 1.64289 -1.16495 0
M  V30 9280 C 962.41 2.6229 -2.26726 0
M  V30 9281 C 961.471 2.48738 -3.49897 0
M  V30 9282 C 960.704 3.75339 -3.79416 0
M  V30 9283 O 960.927 4.78427 -3.10586 0
M  V30 9284 O 959.861 3.72352 -4.72903 0
M  V30 9285 H 963.687 0.986979 -2.87215 0
M  V30 9286 H 961.272 0.42291 -1.43289 0
M  V30 9287 H 963.154 3.408 -2.47857 0
M  V30 9288 H 961.829 2.92619 -1.38404 0
M  V30 9289 H 960.736 1.68422 -3.34043 0
M  V30 9290 H 962.069 2.23347 -4.38608 0
M  V30 9291 N 963.721 1.49897 0.486681 0
M  V30 9292 C 964.684 1.67086 1.56891 0
M  V30 9293 C 965.684 0.54209 1.51387 0
M  V30 9294 O 966.874 0.80883 1.54284 0
M  V30 9295 C 964.006 1.68159 2.96539 0
M  V30 9296 H 965.199 2.63626 1.42974 0
M  V30 9297 H 962.752 1.39143 0.711954 0
M  V30 9298 H 963.487 0.732562 3.15918 0
M  V30 9299 H 963.272 2.50147 3.01942 0
M  V30 9300 H 964.762 1.83466 3.7514 0
M  V30 9301 N 965.199 -0.738761 1.39212 0
M  V30 9302 C 966.109 -1.88324 1.39897 0
M  V30 9303 C 967.125 -1.71494 0.294229 0
M  V30 9304 O 968.301 -1.94162 0.535087 0
M  V30 9305 C 965.366 -3.23871 1.23726 0
M  V30 9306 C 964.427 -3.53121 2.44139 0
M  V30 9307 C 963.66 -4.82202 2.2873 0
M  V30 9308 O 963.883 -5.55649 1.28879 0
M  V30 9309 O 962.817 -5.11265 3.17634 0
M  V30 9310 H 966.643 -1.90701 2.36362 0
M  V30 9311 H 964.228 -0.886067 1.20288 0
M  V30 9312 H 966.11 -4.04882 1.16826 0
M  V30 9313 H 964.785 -3.22274 0.303551 0
M  V30 9314 H 963.692 -2.72212 2.56615 0
M  V30 9315 H 965.025 -3.59495 3.36191 0
M  V30 9316 N 966.677 -1.24326 -0.968545 0
M  V30 9317 C 967.925 -1.08032 -1.70803 0
M  V30 9318 C 968.246 0.381728 -1.91227 0
M  V30 9319 O 967.516 1.27253 -1.48942 0
M  V30 9320 H 966.096 -0.396777 -0.632912 0
M  V30 9321 H 968.758 -1.56232 -1.16523 0
M  V30 9322 H 967.854 -1.57769 -2.69287 0
M  V30 9323 N 968.156 1.1691 -1.05688 0
M  V30 9324 C 969.433 1.83266 -0.683601 0
M  V30 9325 C 969.813 1.93858 0.835602 0
M  V30 9326 O 969.161 1.47696 1.7435 0
M  V30 9327 C 969.371 3.20625 -1.37842 0
M  V30 9328 C 970.719 3.96473 -1.51967 0
M  V30 9329 O 971.743 3.30122 -1.33783 0
M  V30 9330 O 970.602 5.15393 -1.81749 0
M  V30 9331 H 967.696 0.791028 -0.241254 0
M  V30 9332 H 970.242 1.24165 -1.15677 0
M  V30 9333 H 969.014 3.07914 -2.41463 0
M  V30 9334 H 968.637 3.87398 -0.894921 0
M  V30 9335 N 969.634 0.838594 1.33437 0
M  V30 9336 C 971.05 0.526347 1.50671 0
M  V30 9337 C 971.25 -0.946387 1.77893 0
M  V30 9338 O 970.306 -1.7302 1.83903 0
M  V30 9339 C 971.619 1.39945 2.6615 0
M  V30 9340 C 973.167 1.3982 2.80035 0
M  V30 9341 C 973.642 2.25614 3.98576 0
M  V30 9342 N 975.133 2.23322 4.0581 0
M  V30 9343 C 975.868 2.86443 4.96727 0
M  V30 9344 N 975.364 3.58616 5.92762 0
M  V30 9345 N 977.157 2.75915 4.89722 0
M  V30 9346 H 969.308 1.79195 1.1403 0
M  V30 9347 H 971.571 0.764491 0.560586 0
M  V30 9348 H 971.277 2.44599 2.52714 0
M  V30 9349 H 971.151 1.07529 3.61548 0
M  V30 9350 H 973.538 0.35937 2.92904 0
M  V30 9351 H 973.619 1.76241 1.85399 0
M  V30 9352 H 973.263 3.29555 3.86466 0
M  V30 9353 H 973.193 1.86533 4.92456 0
M  V30 9354 H 975.684 1.70836 3.37081 0
M  V30 9355 H 975.997 4.03987 6.58798 0
M  V30 9356 H 974.342 3.62724 5.92838 0
M  V30 9357 H 977.533 2.19094 4.13661 0
M  V30 9358 H 977.706 3.25393 5.60378 0
M  V30 9359 N 971.112 -1.45937 0.595003 0
M  V30 9360 C 972.022 -2.34221 -0.133325 0
M  V30 9361 C 973.038 -1.50491 -0.873407 0
M  V30 9362 O 974.214 -1.83328 -0.833828 0
M  V30 9363 C 971.279 -3.27896 -1.12628 0
M  V30 9364 C 970.34 -4.27529 -0.389532 0
M  V30 9365 C 969.573 -5.16729 -1.33519 0
M  V30 9366 O 969.796 -5.09102 -2.57238 0
M  V30 9367 O 968.73 -5.96023 -0.839084 0
M  V30 9368 H 972.556 -2.97877 0.591861 0
M  V30 9369 H 970.141 -1.45113 0.355329 0
M  V30 9370 H 972.023 -3.85654 -1.69851 0
M  V30 9371 H 970.698 -2.6682 -1.83272 0
M  V30 9372 H 969.605 -3.73424 0.224843 0
M  V30 9373 H 970.938 -4.91425 0.276169 0
M  V30 9374 N 972.59 -0.333456 -1.54032 0
M  V30 9375 C 973.815 0.270517 -2.05628 0
M  V30 9376 C 974.24 1.44231 -1.20744 0
M  V30 9377 O 973.598 1.79975 -0.218822 0
M  V30 9378 C 973.646 0.673251 -3.54259 0
M  V30 9379 O 972.75 1.77448 -3.72271 0
M  V30 9380 H 972.091 0.0469753 -0.662336 0
M  V30 9381 H 974.621 -0.484739 -1.98775 0
M  V30 9382 H 974.631 0.953194 -3.96709 0
M  V30 9383 H 973.306 -0.183747 -4.15494 0
M  V30 9384 H 971.883 1.49259 -3.41725 0
M  V30 9385 N 974.068 1.57479 -0.061844 0
M  V30 9386 C 974.978 2.15645 0.923826 0
M  V30 9387 C 975.994 1.117 1.33413 0
M  V30 9388 O 977.17 1.4392 1.40887 0
M  V30 9389 C 974.235 2.69857 2.17665 0
M  V30 9390 C 973.296 3.88638 1.8237 0
M  V30 9391 C 972.529 4.40256 3.01679 0
M  V30 9392 O 972.752 3.90908 4.15388 0
M  V30 9393 O 971.686 5.31713 2.82073 0
M  V30 9394 H 975.512 3.0021 0.459094 0
M  V30 9395 H 973.097 1.48534 0.160665 0
M  V30 9396 H 974.979 3.04647 2.9115 0
M  V30 9397 H 973.654 1.88357 2.63255 0
M  V30 9398 H 972.561 3.58719 1.06167 0
M  V30 9399 H 973.894 4.71401 1.4157 0
M  V30 9400 N 975.546 -0.211634 1.56173 0
M  V30 9401 C 976.476 -1.26533 1.96244 0
M  V30 9402 C 977.457 -1.48362 0.832028 0
M  V30 9403 O 978.642 -1.60378 1.0951 0
M  V30 9404 C 975.772 -2.61307 2.2877 0
M  V30 9405 C 974.726 -2.54119 3.44395 0
M  V30 9406 C 974.052 -3.93014 3.62552 0
M  V30 9407 C 975.352 -2.08046 4.79076 0
M  V30 9408 H 977.046 -0.932407 2.84511 0
M  V30 9409 H 974.592 -0.447084 1.36884 0
M  V30 9410 H 976.545 -3.35188 2.55396 0
M  V30 9411 H 975.269 -2.96307 1.37367 0
M  V30 9412 H 973.928 -1.82694 3.17834 0
M  V30 9413 H 973.576 -4.25338 2.68508 0
M  V30 9414 H 973.276 -3.89083 4.40327 0
M  V30 9415 H 974.8 -4.68542 3.91537 0
M  V30 9416 H 976.214 -2.71676 5.04842 0
M  V30 9417 H 974.611 -2.15154 5.60204 0
M  V30 9418 H 975.681 -1.03306 4.73768 0
M  V30 9419 N 977.024 -1.50153 -0.478725 0
M  V30 9420 C 978.249 -1.64776 -1.2595 0
M  V30 9421 C 978.674 -0.327794 -1.85222 0
M  V30 9422 O 978.032 0.707418 -1.66929 0
M  V30 9423 C 978.08 -2.73551 -2.34952 0
M  V30 9424 O 977.184 -2.34273 -3.39397 0
M  V30 9425 H 976.525 -0.550769 -0.370877 0
M  V30 9426 H 979.055 -1.96482 -0.570605 0
M  V30 9427 H 979.065 -2.96397 -2.8038 0
M  V30 9428 H 977.74 -3.69354 -1.91181 0
M  V30 9429 H 976.317 -2.21844 -2.99733 0
M  V30 9430 N 978.502 0.731368 -1.39602 0
M  V30 9431 C 979.412 1.87579 -1.40894 0
M  V30 9432 C 980.428 1.71336 -0.303319 0
M  V30 9433 O 981.604 1.93875 -0.545377 0
M  V30 9434 C 978.669 3.23211 -1.25442 0
M  V30 9435 C 977.73 3.51822 -2.46008 0
M  V30 9436 C 976.963 4.80982 -2.31284 0
M  V30 9437 O 977.186 5.54958 -1.31824 0
M  V30 9438 O 976.12 5.09574 -3.20341 0
M  V30 9439 H 979.946 1.89444 -2.3737 0
M  V30 9440 H 977.531 0.879675 -1.20756 0
M  V30 9441 H 979.413 4.04257 -1.18972 0
M  V30 9442 H 978.088 3.22108 -0.320637 0
M  V30 9443 H 976.995 2.70847 -2.58055 0
M  V30 9444 H 978.328 3.57707 -3.38093 0
M  V30 9445 N 979.98 1.24838 0.961938 0
M  V30 9446 C 981.226 1.09313 1.70817 0
M  V30 9447 C 981.559 -0.366244 1.90715 0
M  V30 9448 O 980.834 -1.27036 1.47282 0
M  V30 9449 C 981.117 1.83988 3.09549 0
M  V30 9450 C 980.97 3.3771 2.97106 0
M  V30 9451 C 982.289 1.61718 4.09311 0
M  V30 9452 H 979.408 0.398498 0.619974 0
M  V30 9453 H 982.05 1.53579 1.11864 0
M  V30 9454 H 980.2 1.46363 3.59875 0
M  V30 9455 H 981.872 3.84967 2.54161 0
M  V30 9456 H 980.115 3.65795 2.33187 0
M  V30 9457 H 980.786 3.85166 3.95412 0
M  V30 9458 H 983.262 1.94458 3.67866 0
M  V30 9459 H 982.138 2.16415 5.04436 0
M  V30 9460 H 982.399 0.55677 4.3858 0
M  V30 9461 N 981.458 -1.16348 1.06306 0
M  V30 9462 C 982.869 -1.68491 0.80422 0
M  V30 9463 C 983.22 -1.84327 -0.672159 0
M  V30 9464 O 982.345 -1.53892 -1.52139 0
M  V30 9465 C 982.94 -3.06048 1.45328 0
M  V30 9466 C 981.499 -3.55311 1.24221 0
M  V30 9467 C 980.646 -2.31291 1.5297 0
M  V30 9468 H 983.597 -1.00708 1.22652 0
M  V30 9469 H 983.618 -3.70451 0.868674 0
M  V30 9470 H 983.13 -2.9449 2.52779 0
M  V30 9471 H 981.231 -3.72128 0.187447 0
M  V30 9472 H 981.344 -4.37397 1.95502 0
M  V30 9473 H 979.708 -2.3631 0.950241 0
M  V30 9474 H 980.491 -2.22331 2.6158 0
M  V30 9475 N 982.937 -0.845659 -1.3299 0
M  V30 9476 C 983.847 -0.2864 -2.32845 0
M  V30 9477 C 984.863 0.591105 -1.63652 0
M  V30 9478 O 986.039 0.493615 -1.95257 0
M  V30 9479 C 983.104 0.523636 -3.42723 0
M  V30 9480 C 982.165 -0.378945 -4.27624 0
M  V30 9481 C 981.398 0.392526 -5.32255 0
M  V30 9482 O 981.621 1.6235 -5.46808 0
M  V30 9483 O 980.555 -0.237 -6.01433 0
M  V30 9484 H 984.381 -1.11346 -2.82552 0
M  V30 9485 H 981.966 -0.608356 -1.36453 0
M  V30 9486 H 983.848 0.983718 -4.09757 0
M  V30 9487 H 982.523 1.32764 -2.95221 0
M  V30 9488 H 981.43 -0.887012 -3.63432 0
M  V30 9489 H 982.763 -1.1479 -4.78627 0
M  V30 9490 N 984.415 1.45619 -0.602734 0
M  V30 9491 C 985.378 2.28941 0.108962 0
M  V30 9492 C 986.378 1.39501 0.799762 0
M  V30 9493 O 987.568 1.61673 0.648663 0
M  V30 9494 C 984.7 3.204 1.16432 0
M  V30 9495 H 985.893 2.93346 -0.623534 0
M  V30 9496 H 983.446 1.52061 -0.361565 0
M  V30 9497 H 984.181 2.60785 1.92774 0
M  V30 9498 H 983.966 3.86277 0.673248 0
M  V30 9499 H 985.456 3.83063 1.6629 0
M  V30 9500 N 985.893 0.34162 1.53853 0
M  V30 9501 C 987.141 -0.254979 2.00485 0
M  V30 9502 C 987.462 -1.51222 1.23114 0
M  V30 9503 O 986.732 -1.92966 0.337787 0
M  V30 9504 H 985.312 -0.0972084 0.740648 0
M  V30 9505 H 987.974 0.462332 1.89337 0
M  V30 9506 H 987.07 -0.498778 3.08089 0
M  V30 9507 N 987.371 -1.57444 0.0701946 0
M  V30 9508 C 988.619 -1.93047 -0.598106 0
M  V30 9509 C 988.94 -0.950841 -1.70247 0
M  V30 9510 O 988.21 0.00127177 -1.959 0
M  V30 9511 H 986.79 -0.712648 -0.223924 0
M  V30 9512 H 989.452 -1.94481 0.127674 0
M  V30 9513 H 988.548 -2.94807 -1.02445 0
M  V30 9514 N 988.849 0.203349 -1.56283 0
M  V30 9515 C 989.759 1.27266 -1.9708 0
M  V30 9516 C 990.775 1.50268 -0.877236 0
M  V30 9517 O 991.951 1.63044 -1.18231 0
M  V30 9518 C 989.016 2.59871 -2.29495 0
M  V30 9519 C 988.077 2.45012 -3.52516 0
M  V30 9520 C 987.31 3.71293 -3.83376 0
M  V30 9521 O 987.533 4.75106 -3.15643 0
M  V30 9522 O 986.467 3.67316 -4.76826 0
M  V30 9523 H 990.293 0.956461 -2.88246 0
M  V30 9524 H 987.878 0.407688 -1.4373 0
M  V30 9525 H 989.76 3.38152 -2.51458 0
M  V30 9526 H 988.435 2.91135 -1.415 0
M  V30 9527 H 987.342 1.6487 -3.35811 0
M  V30 9528 H 988.675 2.18683 -4.40952 0
M  V30 9529 N 990.327 1.50405 0.470755 0
M  V30 9530 C 991.575 1.61092 1.2204 0
M  V30 9531 C 991.896 0.313487 1.92464 0
M  V30 9532 O 991.166 -0.669043 1.84121 0
M  V30 9533 H 989.746 0.593618 0.45346 0
M  V30 9534 H 992.408 1.87184 0.542985 0
M  V30 9535 H 991.504 2.42222 1.96812 0
M  V30 9536 N 991.805 -0.723954 1.39988 0
M  V30 9537 C 992.735 -1.85103 1.42335 0
M  V30 9538 C 993.716 -1.6769 0.285297 0
M  V30 9539 O 994.901 -1.87846 0.492716 0
M  V30 9540 C 992.031 -3.22972 1.27697 0
M  V30 9541 C 990.985 -3.55041 2.39018 0
M  V30 9542 C 990.311 -4.91965 2.09462 0
M  V30 9543 C 991.611 -3.56889 3.8135 0
M  V30 9544 H 993.305 -1.83396 2.36656 0
M  V30 9545 H 990.851 -0.880926 1.13911 0
M  V30 9546 H 992.804 -4.01503 1.27958 0
M  V30 9547 H 991.528 -3.25233 0.298487 0
M  V30 9548 H 990.187 -2.78845 2.37993 0
M  V30 9549 H 989.835 -4.90819 1.10025 0
M  V30 9550 H 989.535 -5.14389 2.84038 0
M  V30 9551 H 991.059 -5.7284 2.11391 0
M  V30 9552 H 992.473 -4.25476 3.84243 0
M  V30 9553 H 990.87 -3.90836 4.55376 0
M  V30 9554 H 991.94 -2.56452 4.11534 0
M  V30 9555 N 993.283 -1.25346 -0.955304 0
M  V30 9556 C 994.511 -1.12793 -1.73451 0
M  V30 9557 C 994.926 0.318344 -1.86097 0
M  V30 9558 O 994.283 1.21897 -1.35821 0
M  V30 9559 C 994.334 -1.77603 -3.14864 0
M  V30 9560 O 994.055 -3.16577 -3.02837 0
M  V30 9561 C 995.556 -1.70821 -4.09066 0
M  V30 9562 H 992.776 -0.393457 -0.543537 0
M  V30 9563 H 995.32 -1.65696 -1.19855 0
M  V30 9564 H 993.475 -1.28673 -3.65407 0
M  V30 9565 H 993.889 -3.48433 -3.92039 0
M  V30 9566 H 995.363 -2.2083 -5.05903 0
M  V30 9567 H 995.84 -0.671858 -4.34031 0
M  V30 9568 H 996.446 -2.19237 -3.64438 0
M  V30 9569 N 994.761 1.15782 -1.06922 0
M  V30 9570 C 995.989 1.90355 -0.81072 0
M  V30 9571 C 996.404 1.77779 0.635614 0
M  V30 9572 O 995.761 1.12675 1.43564 0
M  V30 9573 C 995.812 3.4085 -1.2043 0
M  V30 9574 O 995.533 3.53057 -2.59388 0
M  V30 9575 C 997.034 4.32457 -0.974473 0
M  V30 9576 H 994.254 0.60343 -0.293451 0
M  V30 9577 H 996.798 1.46723 -1.42452 0
M  V30 9578 H 994.953 3.82162 -0.634909 0
M  V30 9579 H 995.367 4.46426 -2.75326 0
M  V30 9580 H 996.841 5.36488 -1.29942 0
M  V30 9581 H 997.318 4.39109 0.0894481 0
M  V30 9582 H 997.924 3.96882 -1.52856 0
M  V30 9583 N 996.239 0.8527 1.3254 0
M  V30 9584 C 997.171 0.253181 2.27797 0
M  V30 9585 C 998.184 -0.573977 1.52346 0
M  V30 9586 O 999.373 -0.398786 1.73988 0
M  V30 9587 C 996.473 -0.661034 3.32391 0
M  V30 9588 C 995.646 0.12984 4.37207 0
M  V30 9589 C 994.705 -0.709837 5.2139 0
M  V30 9590 O 993.731 -0.144056 5.69018 0
M  V30 9591 N 994.933 -2.0249 5.44039 0
M  V30 9592 H 997.698 1.07171 2.79883 0
M  V30 9593 H 995.259 0.712491 1.45379 0
M  V30 9594 H 997.251 -1.22806 3.85617 0
M  V30 9595 H 995.821 -1.38025 2.80478 0
M  V30 9596 H 995.041 0.878289 3.84291 0
M  V30 9597 H 996.329 0.673141 5.04328 0
M  V30 9598 H 995.727 -2.50792 5.0707 0
M  V30 9599 H 994.284 -2.5401 6.00269 0
M  V30 9600 N 997.718 -1.45297 0.610449 0
M  V30 9601 C 998.995 -1.95562 0.0386189 0
M  V30 9602 C 999.375 -1.55284 -1.43004 0
M  V30 9603 O 998.723 -0.816785 -2.13403 0
M  V30 9604 C 998.933 -3.48176 0.239731 0
M  V30 9605 C 1000.28 -4.24425 0.122035 0
M  V30 9606 O 1001.3 -3.55794 0.170003 0
M  V30 9607 O 1000.16 -5.46499 0.00953695 0
M  V30 9608 H 997.258 -0.826296 -0.0341081 0
M  V30 9609 H 999.804 -1.55449 0.68071 0
M  V30 9610 H 998.576 -3.70471 1.25963 0
M  V30 9611 H 998.199 -3.95186 -0.437486 0
M  V30 9612 N 999.196 -0.349774 -1.5367 0
M  V30 9613 C 1000.16 0.491676 -2.23864 0
M  V30 9614 C 1001.16 1.02256 -1.24098 0
M  V30 9615 O 1002.35 0.910816 -1.48492 0
M  V30 9616 C 999.481 1.68557 -2.96313 0
M  V30 9617 H 1000.67 -0.12233 -2.9965 0
M  V30 9618 H 998.227 -0.101214 -1.55972 0
M  V30 9619 H 998.962 2.3381 -2.2473 0
M  V30 9620 H 998.747 1.31203 -3.69497 0
M  V30 9621 H 1000.24 2.28225 -3.49718 0
M  V30 9622 N 1000.67 1.57404 -0.0785433 0
M  V30 9623 C 1001.92 1.93361 0.58786 0
M  V30 9624 C 1002.24 0.959856 1.6974 0
M  V30 9625 O 1001.51 0.0091173 1.95898 0
M  V30 9626 H 1000.09 0.713825 0.220141 0
M  V30 9627 H 1002.75 1.94411 -0.137986 0
M  V30 9628 H 1001.85 2.95346 1.00881 0
M  V30 9629 N 1002.15 -0.195058 1.56388 0
M  V30 9630 C 1003.39 -0.92221 1.82413 0
M  V30 9631 C 1003.76 -1.80444 0.656037 0
M  V30 9632 O 1004.96 -2.56738 0.796182 0
M  V30 9633 C 1003.23 -1.71687 3.13462 0
M  V30 9634 S 1004.79 -2.49604 3.60892 0
M  V30 9635 H 1001.6 -0.309316 0.640191 0
M  V30 9636 H 1004.21 -0.185613 1.94617 0
M  V30 9637 H 1002.91 -1.05936 3.96492 0
M  V30 9638 H 1002.44 -2.49529 3.04137 0
M  V30 9639 H 1004.46 -3.73794 3.26332 0
M  V30 9640 N 1003.63 -1.50653 -0.462772 0
M  V30 9641 C 1004.88 -1.61737 -1.21184 0
M  V30 9642 C 1005.2 -0.32369 -1.92295 0
M  V30 9643 O 1004.47 0.659269 -1.84473 0
M  V30 9644 H 1003.05 -0.596015 -0.450306 0
M  V30 9645 H 1005.71 -1.87469 -0.533051 0
M  V30 9646 H 1004.81 -2.43262 -1.95525 0
M  V30 9647 N 1005.11 0.71652 -1.4037 0
M  V30 9648 C 1006.34 1.50563 -1.4191 0
M  V30 9649 C 1006.75 1.88791 -0.0185456 0
M  V30 9650 O 1006.11 1.55378 0.957289 0
M  V30 9651 C 1006.16 2.78155 -2.30894 0
M  V30 9652 O 1005.88 2.41543 -3.65497 0
M  V30 9653 C 1007.38 3.72057 -2.41016 0
M  V30 9654 H 1004.6 0.464679 -0.48406 0
M  V30 9655 H 1007.15 0.883927 -1.8441 0
M  V30 9656 H 1005.3 3.36611 -1.91759 0
M  V30 9657 H 1005.71 3.23636 -4.12747 0
M  V30 9658 H 1007.19 4.58426 -3.07489 0
M  V30 9659 H 1007.67 4.15098 -1.43492 0
M  V30 9660 H 1008.27 3.19512 -2.80699 0
M  V30 9661 N 1006.59 1.25851 0.948643 0
M  V30 9662 C 1007.5 1.08516 2.07994 0
M  V30 9663 C 1008.51 0.0206696 1.73988 0
M  V30 9664 O 1009.69 0.222854 2.00163 0
M  V30 9665 C 1006.75 0.712145 3.39307 0
M  V30 9666 C 1005.81 1.85523 3.87143 0
M  V30 9667 C 1005.05 1.49992 5.1219 0
M  V30 9668 O 1005.27 0.398268 5.69008 0
M  V30 9669 O 1004.2 2.33215 5.54882 0
M  V30 9670 H 1008.03 2.03405 2.25522 0
M  V30 9671 H 1005.62 1.04844 1.06433 0
M  V30 9672 H 1007.5 0.516512 4.18223 0
M  V30 9673 H 1006.17 -0.207416 3.23035 0
M  V30 9674 H 1005.08 2.10578 3.09205 0
M  V30 9675 H 1006.41 2.75425 4.07924 0
M  V30 9676 N 1008.06 -1.15214 1.07534 0
M  V30 9677 C 1008.97 -2.23636 0.708818 0
M  V30 9678 C 1009.99 -1.7172 -0.280759 0
M  V30 9679 O 1011.17 -2.01 -0.126927 0
M  V30 9680 C 1008.23 -3.46512 0.114167 0
M  V30 9681 C 1007.29 -4.13409 1.15722 0
M  V30 9682 C 1006.53 -5.30419 0.59085 0
M  V30 9683 O 1006.75 -5.67314 -0.592512 0
M  V30 9684 O 1005.68 -5.86871 1.33663 0
M  V30 9685 H 1009.51 -2.57322 1.61305 0
M  V30 9686 H 1007.09 -1.22972 0.848422 0
M  V30 9687 H 1008.98 -4.20851 -0.215091 0
M  V30 9688 H 1007.65 -3.1457 -0.763356 0
M  V30 9689 H 1006.56 -3.40984 1.53886 0
M  V30 9690 H 1007.89 -4.49435 2.00671 0
M  V30 9691 N 1009.54 -0.859717 -1.32086 0
M  V30 9692 C 1010.79 -0.464662 -1.96686 0
M  V30 9693 C 1011.11 0.98412 -1.68345 0
M  V30 9694 O 1010.38 1.68847 -0.993361 0
M  V30 9695 H 1008.96 -0.168838 -0.727669 0
M  V30 9696 H 1011.62 -1.09726 -1.61079 0
M  V30 9697 H 1010.72 -0.613904 -3.06003 0
M  V30 9698 N 1011.02 1.44971 -0.618145 0
M  V30 9699 C 1011.93 2.34403 0.0960457 0
M  V30 9700 C 1012.95 1.51862 0.849355 0
M  V30 9701 O 1014.12 1.84632 0.804557 0
M  V30 9702 C 1011.19 3.29646 1.07397 0
M  V30 9703 C 1010.25 4.28095 0.321466 0
M  V30 9704 C 1009.48 5.18787 1.25281 0
M  V30 9705 O 1009.7 5.1313 2.49106 0
M  V30 9706 O 1008.64 5.97282 0.744156 0
M  V30 9707 H 1012.46 2.96898 -0.639176 0
M  V30 9708 H 1010.05 1.44529 -0.37837 0
M  V30 9709 H 1011.93 3.88307 1.63694 0
M  V30 9710 H 1010.61 2.69702 1.79004 0
M  V30 9711 H 1009.51 3.73019 -0.284223 0
M  V30 9712 H 1010.85 4.90923 -0.354315 0
M  V30 9713 N 1012.5 0.357919 1.53482 0
M  V30 9714 C 1013.46 -0.479797 2.24122 0
M  V30 9715 C 1014.46 -1.01596 1.24639 0
M  V30 9716 O 1015.65 -0.902928 1.48973 0
M  V30 9717 C 1012.78 -1.66983 2.97203 0
M  V30 9718 H 1013.98 0.138219 2.99581 0
M  V30 9719 H 1011.53 0.109484 1.55916 0
M  V30 9720 H 1012.26 -2.32615 2.25966 0
M  V30 9721 H 1012.05 -1.29242 3.70188 0
M  V30 9722 H 1013.54 -2.26367 3.50924 0
M  V30 9723 N 1013.98 -1.5736 0.0868897 0
M  V30 9724 C 1015.2 -1.98809 -0.590757 0
M  V30 9725 C 1015.63 -0.965407 -1.61436 0
M  V30 9726 O 1014.98 0.067143 -1.81176 0
M  V30 9727 C 1015.03 -3.39249 -1.22238 0
M  V30 9728 O 1014.14 -3.39706 -2.33824 0
M  V30 9729 H 1013.48 -0.64669 -0.150626 0
M  V30 9730 H 1016.01 -2.03927 0.165873 0
M  V30 9731 H 1016.02 -3.76765 -1.56564 0
M  V30 9732 H 1014.69 -4.13208 -0.472434 0
M  V30 9733 H 1013.27 -3.13977 -2.01178 0
M  V30 9734 N 1015.45 0.186762 -1.56489 0
M  V30 9735 C 1016.7 0.907194 -1.81378 0
M  V30 9736 C 1017.03 1.82558 -0.662283 0
M  V30 9737 O 1016.31 1.91564 0.336699 0
M  V30 9738 C 1016.59 1.71624 -3.16571 0
M  V30 9739 C 1016.44 0.822009 -4.42225 0
M  V30 9740 C 1017.76 2.68713 -3.48542 0
M  V30 9741 H 1014.88 0.328366 -0.659806 0
M  V30 9742 H 1017.52 0.174142 -1.892 0
M  V30 9743 H 1015.67 2.34119 -3.10033 0
M  V30 9744 H 1017.35 0.211122 -4.60817 0
M  V30 9745 H 1015.59 0.129178 -4.33608 0
M  V30 9746 H 1016.26 1.42326 -5.33336 0
M  V30 9747 H 1018.74 2.16348 -3.55433 0
M  V30 9748 H 1017.61 3.22397 -4.44242 0
M  V30 9749 H 1017.87 3.48165 -2.72459 0
M  V30 9750 N 1016.93 1.50896 0.454776 0
M  V30 9751 C 1018.16 1.66759 1.23313 0
M  V30 9752 C 1018.58 0.35722 1.84677 0
M  V30 9753 O 1017.94 -0.680771 1.68033 0
M  V30 9754 C 1017.99 2.77254 2.3057 0
M  V30 9755 O 1017.09 2.39642 3.35627 0
M  V30 9756 H 1016.43 0.556599 0.362068 0
M  V30 9757 H 1018.96 1.97365 0.539274 0
M  V30 9758 H 1018.97 3.0082 2.75629 0
M  V30 9759 H 1017.65 3.72349 1.85281 0
M  V30 9760 H 1016.23 2.26584 2.96165 0
M  V30 9761 N 1018.41 -0.709066 1.40748 0
M  V30 9762 C 1019.32 -1.85314 1.43861 0
M  V30 9763 C 1020.34 -1.70832 0.330539 0
M  V30 9764 O 1021.51 -1.92983 0.576152 0
M  V30 9765 C 1018.58 -3.21174 1.30568 0
M  V30 9766 C 1017.64 -3.47863 2.51574 0
M  V30 9767 C 1016.87 -4.77241 2.38906 0
M  V30 9768 O 1017.09 -5.52791 1.40636 0
M  V30 9769 O 1016.03 -5.04413 3.28407 0
M  V30 9770 H 1019.85 -1.85644 2.40354 0
M  V30 9771 H 1017.44 -0.860352 1.2214 0
M  V30 9772 H 1019.32 -4.02313 1.25388 0
M  V30 9773 H 1018 -3.21557 0.371841 0
M  V30 9774 H 1016.9 -2.66708 2.62331 0
M  V30 9775 H 1018.24 -3.52283 3.43741 0
M  V30 9776 N 1019.89 -1.26353 -0.941956 0
M  V30 9777 C 1020.84 -1.07654 -2.06188 0
M  V30 9778 C 1021.83 -0.00369741 -1.694 0
M  V30 9779 O 1023.04 -0.160316 -1.79285 0
M  V30 9780 H 1019.41 -0.331274 -0.675101 0
M  V30 9781 H 1021.38 -2.02566 -2.19111 0
M  V30 9782 C 1020.13 -0.725436 -3.40048 0
M  V30 9783 H 1019.46 -1.54283 -3.68832 0
M  V30 9784 H 1020.9 -0.634383 -4.19227 0
M  V30 9785 C 1019.35 0.569369 -3.32054 0
M  V30 9786 O 1019.88 1.60791 -3.68116 0
M  V30 9787 N 1018.09 0.559714 -2.85159 0
M  V30 9788 H 1017.64 -0.285817 -2.56009 0
M  V30 9789 H 1017.6 1.42617 -2.80193 0
M  V30 9790 N 1021.37 1.14642 -1.08144 0
M  V30 9791 C 1022.3 2.19283 -0.6669 0
M  V30 9792 C 1023.31 1.60292 0.284668 0
M  V30 9793 O 1024.5 1.78352 0.0727383 0
M  V30 9794 C 1021.6 3.38877 0.0398572 0
M  V30 9795 C 1020.77 4.274 -0.929929 0
M  V30 9796 C 1019.83 5.25562 -0.258991 0
M  V30 9797 O 1018.86 5.61999 -0.902563 0
M  V30 9798 N 1020.06 5.71958 0.992177 0
M  V30 9799 H 1022.83 2.55464 -1.5671 0
M  V30 9800 H 1020.39 1.29836 -0.96717 0
M  V30 9801 H 1022.38 4.01605 0.499583 0
M  V30 9802 H 1020.95 3.01043 0.842118 0
M  V30 9803 H 1020.17 3.61649 -1.56857 0
M  V30 9804 H 1021.46 4.83411 -1.58717 0
M  V30 9805 H 1020.86 5.44481 1.53484 0
M  V30 9806 H 1019.41 6.36687 1.39544 0
M  V30 9807 N 1022.85 0.866709 1.31628 0
M  V30 9808 C 1023.76 0.323408 2.3236 0
M  V30 9809 C 1024.77 -0.564995 1.64572 0
M  V30 9810 O 1025.95 -0.462489 1.96018 0
M  V30 9811 C 1023.01 -0.469045 3.43513 0
M  V30 9812 C 1022.07 0.446928 4.26967 0
M  V30 9813 C 1021.31 -0.307799 5.32812 0
M  V30 9814 O 1021.53 -1.5363 5.49321 0
M  V30 9815 O 1020.46 0.332653 6.0098 0
M  V30 9816 H 1024.29 1.15827 2.80745 0
M  V30 9817 H 1021.87 0.629987 1.35468 0
M  V30 9818 H 1023.76 -0.918405 4.1127 0
M  V30 9819 H 1022.43 -1.28051 2.97296 0
M  V30 9820 H 1021.34 0.944719 3.61975 0
M  V30 9821 H 1022.67 1.2239 4.76741 0
M  V30 9822 N 1024.32 -1.44642 0.625825 0
M  V30 9823 C 1025.25 -2.33397 -0.0692188 0
M  V30 9824 C 1026.23 -1.47898 -0.840241 0
M  V30 9825 O 1027.42 -1.7663 -0.807176 0
M  V30 9826 C 1024.55 -3.30888 -1.055 0
M  V30 9827 C 1023.5 -4.26164 -0.395968 0
M  V30 9828 C 1022.83 -5.13483 -1.49128 0
M  V30 9829 C 1024.13 -5.17663 0.694433 0
M  V30 9830 H 1025.82 -2.91763 0.671925 0
M  V30 9831 H 1023.37 -1.40294 0.324573 0
M  V30 9832 H 1025.32 -3.91861 -1.54993 0
M  V30 9833 H 1024.05 -2.7072 -1.82696 0
M  V30 9834 H 1022.71 -3.66516 0.0782691 0
M  V30 9835 H 1022.35 -4.49672 -2.25399 0
M  V30 9836 H 1022.05 -5.78038 -1.05573 0
M  V30 9837 H 1023.58 -5.77327 -1.98813 0
M  V30 9838 H 1024.99 -5.72602 0.282818 0
M  V30 9839 H 1023.39 -5.90793 1.05281 0
M  V30 9840 H 1024.46 -4.58994 1.56372 0
M  V30 9841 N 1025.8 -0.366053 -1.5329 0
M  V30 9842 C 1027.08 0.279902 -1.93587 0
M  V30 9843 C 1027.46 1.66352 -1.29963 0
M  V30 9844 O 1026.81 2.23845 -0.458895 0
M  V30 9845 C 1027.02 0.329634 -3.4744 0
M  V30 9846 C 1028.36 0.569754 -4.2076 0
M  V30 9847 O 1029.39 0.410823 -3.53823 0
M  V30 9848 O 1028.25 0.879262 -5.3938 0
M  V30 9849 H 1025.34 0.16802 -0.809752 0
M  V30 9850 H 1027.89 -0.418871 -1.64449 0
M  V30 9851 H 1026.66 -0.640434 -3.86023 0
M  V30 9852 H 1026.28 1.07428 -3.82812 0
M  V30 9853 N 1027.28 1.57312 -0.0952337 0
M  V30 9854 C 1028.53 1.93974 0.567319 0
M  V30 9855 C 1028.85 0.977805 1.68713 0
M  V30 9856 O 1028.12 0.0298944 1.95877 0
M  V30 9857 H 1026.7 0.71612 0.212558 0
M  V30 9858 H 1029.36 1.94254 -0.158598 0
M  V30 9859 H 1028.46 2.964 0.977423 0
M  V30 9860 N 1028.76 -0.17846 1.56586 0
M  V30 9861 C 1029.98 -0.916061 1.86073 0
M  V30 9862 C 1030.41 -1.75349 0.680754 0
M  V30 9863 O 1029.77 -1.77479 -0.37028 0
M  V30 9864 C 1029.81 -1.77445 3.1392 0
M  V30 9865 O 1028.92 -2.87524 2.95641 0
M  V30 9866 H 1028.26 -0.257031 0.612234 0
M  V30 9867 H 1030.79 -0.178755 2.03818 0
M  V30 9868 H 1030.8 -2.1758 3.45142 0
M  V30 9869 H 1029.47 -1.15927 3.99417 0
M  V30 9870 H 1028.05 -2.51023 2.75757 0
M  V30 9871 N 1030.24 -1.51135 -0.446768 0
M  V30 9872 C 1031.46 -1.67129 -1.21965 0
M  V30 9873 C 1031.88 -0.36467 -1.85245 0
M  V30 9874 O 1031.24 0.655908 -1.70306 0
M  V30 9875 C 1031.29 -2.78016 -2.31061 0
M  V30 9876 O 1031.01 -4.03615 -1.70371 0
M  V30 9877 C 1032.51 -3.05197 -3.21511 0
M  V30 9878 H 1029.73 -0.561111 -0.367961 0
M  V30 9879 H 1032.27 -1.97499 -0.530517 0
M  V30 9880 H 1030.43 -2.50272 -2.95707 0
M  V30 9881 H 1030.84 -4.65126 -2.424 0
M  V30 9882 H 1032.32 -3.8639 -3.94216 0
M  V30 9883 H 1032.79 -2.17228 -3.81718 0
M  V30 9884 H 1033.4 -3.34565 -2.62577 0
M  V30 9885 N 1031.71 0.701592 -1.41122 0
M  V30 9886 C 1032.96 1.45871 -1.39879 0
M  V30 9887 C 1033.28 1.94999 -0.00668769 0
M  V30 9888 O 1032.55 1.71298 0.95047 0
M  V30 9889 H 1031.13 0.541231 -0.514857 0
M  V30 9890 H 1033.79 0.830803 -1.76306 0
M  V30 9891 H 1032.89 2.32479 -2.0823 0
M  V30 9892 N 1033.19 1.2685 0.935242 0
M  V30 9893 C 1034.15 1.08975 2.01636 0
M  V30 9894 C 1035.15 0.0361543 1.60759 0
M  V30 9895 O 1036.34 0.280087 1.71934 0
M  V30 9896 C 1033.48 0.658831 3.34473 0
M  V30 9897 H 1034.67 2.04968 2.18925 0
M  V30 9898 H 1032.22 1.09531 1.11501 0
M  V30 9899 H 1032.96 -0.302824 3.22883 0
M  V30 9900 H 1032.74 1.41967 3.65497 0
M  V30 9901 H 1034.23 0.555783 4.13885 0
M  V30 9902 N 1034.67 -1.14067 1.0875 0
M  V30 9903 C 1035.95 -1.81389 0.73195 0
M  V30 9904 C 1036.33 -1.96005 -0.78391 0
M  V30 9905 O 1035.68 -1.52267 -1.70373 0
M  V30 9906 C 1035.89 -3.16858 1.46294 0
M  V30 9907 C 1037.23 -3.92305 1.62426 0
M  V30 9908 O 1038.26 -3.26459 1.42488 0
M  V30 9909 O 1037.12 -5.10393 1.9535 0
M  V30 9910 H 1034.21 -0.784354 0.262141 0
M  V30 9911 H 1036.76 -1.21054 1.18929 0
M  V30 9912 H 1035.53 -3.01404 2.49542 0
M  V30 9913 H 1035.15 -3.84889 0.997318 0
M  V30 9914 N 1036.15 -0.873678 -1.31166 0
M  V30 9915 C 1037.11 -0.337069 -2.26708 0
M  V30 9916 C 1038.11 0.51406 -1.52362 0
M  V30 9917 O 1039.3 0.322834 -1.71182 0
M  V30 9918 C 1036.43 0.520897 -3.36897 0
M  V30 9919 H 1037.63 -1.18056 -2.75686 0
M  V30 9920 H 1035.18 -0.649577 -1.42163 0
M  V30 9921 H 1035.91 1.38543 -2.93217 0
M  V30 9922 H 1035.7 -0.0886015 -3.92 0
M  V30 9923 H 1037.19 0.888497 -4.08039 0
M  V30 9924 N 1037.63 1.44308 -0.633487 0
M  V30 9925 C 1038.87 2.01624 -0.138643 0
M  V30 9926 C 1039.2 1.50101 1.24477 0
M  V30 9927 O 1038.47 0.705575 1.82752 0
M  V30 9928 H 1037.05 0.745439 -0.0482636 0
M  V30 9929 H 1039.71 1.76777 -0.820719 0
M  V30 9930 H 1038.8 3.11913 -0.108136 0
M  V30 9931 N 1039.1 0.374177 1.53094 0
M  V30 9932 C 1040.52 -0.103172 1.86415 0
M  V30 9933 C 1040.87 -1.47439 1.29446 0
M  V30 9934 O 1039.99 -2.07333 0.619853 0
M  V30 9935 C 1040.59 -0.193988 3.38244 0
M  V30 9936 C 1039.15 -0.615605 3.71332 0
M  V30 9937 C 1038.29 0.23186 2.76329 0
M  V30 9938 H 1041.24 0.592644 1.47219 0
M  V30 9939 H 1041.26 -1.01597 3.66686 0
M  V30 9940 H 1040.78 0.80414 3.79678 0
M  V30 9941 H 1038.88 -1.62165 3.3546 0
M  V30 9942 H 1038.99 -0.38425 4.77557 0
M  V30 9943 H 1037.35 -0.300579 2.5292 0
M  V30 9944 H 1038.14 1.22769 3.20597 0
M  V30 9945 N 1040.58 -1.57259 0.103575 0
M  V30 9946 C 1041.82 -1.96539 -0.561398 0
M  V30 9947 C 1042.19 -0.984775 -1.64822 0
M  V30 9948 O 1043.39 -1.26638 -2.371 0
M  V30 9949 C 1041.66 -3.40229 -1.09447 0
M  V30 9950 S 1043.22 -4.01512 -1.77013 0
M  V30 9951 H 1040.04 -0.687061 -0.182944 0
M  V30 9952 H 1042.64 -1.94623 0.184993 0
M  V30 9953 H 1041.34 -4.09359 -0.292091 0
M  V30 9954 H 1040.87 -3.45762 -1.8765 0
M  V30 9955 H 1042.89 -3.91009 -3.05494 0
M  V30 9956 N 1042.06 0.170153 -1.56679 0
M  V30 9957 C 1043.47 0.732502 -1.7173 0
M  V30 9958 C 1043.82 1.82736 -0.71428 0
M  V30 9959 O 1042.95 2.16044 0.124102 0
M  V30 9960 C 1043.54 1.33548 -3.11368 0
M  V30 9961 C 1042.1 1.84464 -3.281 0
M  V30 9962 C 1041.25 0.724069 -2.6768 0
M  V30 9963 H 1044.2 -0.0552543 -1.58604 0
M  V30 9964 H 1044.22 2.20519 -3.10083 0
M  V30 9965 H 1043.73 0.5384 -3.84347 0
M  V30 9966 H 1041.83 2.66813 -2.6008 0
M  V30 9967 H 1041.95 1.98928 -4.35849 0
M  V30 9968 H 1040.31 1.14481 -2.27522 0
M  V30 9969 H 1041.09 -0.0611861 -3.43245 0
M  V30 9970 N 1043.54 1.5137 0.438746 0
M  V30 9971 C 1044.76 1.68058 1.21537 0
M  V30 9972 C 1045.19 0.376787 1.84288 0
M  V30 9973 O 1044.55 -0.662911 1.68746 0
M  V30 9974 C 1044.59 2.79684 2.27616 0
M  V30 9975 O 1043.7 2.43189 3.33066 0
M  V30 9976 H 1043.04 0.560408 0.356144 0
M  V30 9977 H 1045.57 1.97926 0.518311 0
M  V30 9978 H 1045.58 3.03726 2.72423 0
M  V30 9979 H 1044.25 3.74293 1.81321 0
M  V30 9980 H 1042.83 2.29713 2.93746 0
M  V30 9981 N 1045.02 -0.694098 1.41492 0
M  V30 9982 C 1045.95 -1.82042 1.46229 0
M  V30 9983 C 1046.93 -1.67047 0.320803 0
M  V30 9984 O 1048.11 -1.86758 0.53245 0
M  V30 9985 C 1045.24 -3.2019 1.34519 0
M  V30 9986 C 1044.2 -3.49892 2.46495 0
M  V30 9987 C 1043.52 -4.87411 2.1985 0
M  V30 9988 C 1044.82 -3.4872 3.88834 0
M  V30 9989 H 1046.52 -1.78335 2.40493 0
M  V30 9990 H 1044.06 -0.856566 1.15754 0
M  V30 9991 H 1046.02 -3.98699 1.36445 0
M  V30 9992 H 1044.74 -3.24527 0.367406 0
M  V30 9993 H 1043.4 -2.73734 2.43854 0
M  V30 9994 H 1043.05 -4.88375 1.20411 0
M  V30 9995 H 1042.75 -5.08248 2.94885 0
M  V30 9996 H 1044.27 -5.68228 2.23494 0
M  V30 9997 H 1045.68 -4.1723 3.93182 0
M  V30 9998 H 1044.08 -3.81089 4.63564 0
M  V30 9999 H 1045.15 -2.47665 4.16881 0
M  V30 10000 N 1046.49 -1.27344 -0.928501 0
M  V30 10001 C 1047.74 -1.13411 -1.67279 0
M  V30 10002 C 1048.06 0.320698 -1.92345 0
M  V30 10003 O 1047.33 1.2245 -1.52915 0
M  V30 10004 H 1045.91 -0.416712 -0.619968 0
M  V30 10005 H 1048.58 -1.5986 -1.11493 0
M  V30 10006 H 1047.67 -1.66256 -2.64131 0
M  V30 10007 N 1047.97 1.13488 -1.09353 0
M  V30 10008 C 1048.88 2.2248 -0.744307 0
M  V30 10009 C 1049.9 1.72145 0.253404 0
M  V30 10010 O 1051.07 2.01176 0.0949339 0
M  V30 10011 C 1048.14 3.46286 -0.16928 0
M  V30 10012 C 1047.2 4.11516 -1.22284 0
M  V30 10013 C 1046.43 5.29412 -0.675161 0
M  V30 10014 O 1046.66 5.68185 0.502182 0
M  V30 10015 O 1045.59 5.8467 -1.42983 0
M  V30 10016 H 1049.42 2.54723 -1.65378 0
M  V30 10017 H 1047 1.21607 -0.867879 0
M  V30 10018 H 1048.88 4.2114 0.14811 0
M  V30 10019 H 1047.56 3.15745 0.713214 0
M  V30 10020 H 1046.47 3.38492 -1.59292 0
M  V30 10021 H 1047.8 4.46186 -2.07796 0
M  V30 10022 N 1049.45 0.880621 1.30701 0
M  V30 10023 C 1050.41 0.349087 2.26526 0
M  V30 10024 C 1051.41 -0.505973 1.52632 0
M  V30 10025 O 1052.6 -0.313751 1.71351 0
M  V30 10026 C 1049.74 -0.503023 3.37168 0
M  V30 10027 H 1050.93 1.19516 2.75056 0
M  V30 10028 H 1048.48 0.657107 1.41816 0
M  V30 10029 H 1049.22 -1.36986 2.93948 0
M  V30 10030 H 1049 0.109389 3.91947 0
M  V30 10031 H 1050.49 -0.866845 4.08504 0
M  V30 10032 N 1050.93 -1.4397 0.641131 0
M  V30 10033 C 1052.16 -2.06004 0.156779 0
M  V30 10034 C 1052.57 -1.48059 -1.17793 0
M  V30 10035 O 1051.91 -0.601788 -1.73563 0
M  V30 10036 C 1051.97 -3.59493 -0.0217203 0
M  V30 10037 C 1051.64 -4.39957 1.23639 0
M  V30 10038 C 1052.63 -4.72797 2.16239 0
M  V30 10039 C 1050.32 -4.80168 1.4746 0
M  V30 10040 C 1052.31 -5.44741 3.30962 0
M  V30 10041 C 1050 -5.51859 2.62478 0
M  V30 10042 C 1051 -5.84067 3.54055 0
M  V30 10043 O 1050.69 -6.54296 4.67067 0
M  V30 10044 H 1050.42 -0.671061 0.0815685 0
M  V30 10045 H 1052.97 -1.85664 0.878517 0
M  V30 10046 H 1051.2 -3.78362 -0.798707 0
M  V30 10047 H 1052.89 -4.03263 -0.461893 0
M  V30 10048 H 1053.66 -4.42261 1.99073 0
M  V30 10049 H 1049.54 -4.54513 0.770652 0
M  V30 10050 H 1053.08 -5.69798 4.02462 0
M  V30 10051 H 1048.98 -5.81811 2.79583 0
M  V30 10052 H 1049.74 -6.72772 4.66177 0
M  V30 10053 N 1052.41 -0.382291 -1.52893 0
M  V30 10054 C 1053.37 0.44408 -2.24857 0
M  V30 10055 C 1054.37 0.996004 -1.26239 0
M  V30 10056 O 1055.56 0.879114 -1.5039 0
M  V30 10057 C 1052.69 1.62234 -2.99822 0
M  V30 10058 H 1053.89 -0.185862 -2.99324 0
M  V30 10059 H 1051.44 -0.134275 -1.55722 0
M  V30 10060 H 1052.17 2.28991 -2.29638 0
M  V30 10061 H 1051.96 1.23336 -3.72197 0
M  V30 10062 H 1053.45 2.20756 -3.54481 0
M  V30 10063 N 1053.89 1.57202 -0.111913 0
M  V30 10064 C 1055.3 1.57713 0.244702 0
M  V30 10065 C 1055.5 1.12419 1.67225 0
M  V30 10066 O 1054.56 0.808329 2.39212 0
M  V30 10067 C 1055.87 3.00695 0.0178289 0
M  V30 10068 C 1057.42 3.12887 0.0842781 0
M  V30 10069 C 1057.89 4.57856 -0.114812 0
M  V30 10070 N 1059.38 4.6316 -0.0605423 0
M  V30 10071 C 1060.12 5.73086 -0.189594 0
M  V30 10072 N 1059.62 6.91787 -0.37442 0
M  V30 10073 N 1061.41 5.6195 -0.12967 0
M  V30 10074 H 1053.56 1.84947 -1.04443 0
M  V30 10075 H 1055.82 0.854418 -0.4107 0
M  V30 10076 H 1055.53 3.38093 -0.968802 0
M  V30 10077 H 1055.4 3.69611 0.752815 0
M  V30 10078 H 1057.79 2.7535 1.06143 0
M  V30 10079 H 1057.87 2.46528 -0.682474 0
M  V30 10080 H 1057.51 4.9609 -1.0889 0
M  V30 10081 H 1057.44 5.22297 0.671839 0
M  V30 10082 H 1059.94 3.77817 0.0790856 0
M  V30 10083 H 1060.25 7.71406 -0.463948 0
M  V30 10084 H 1058.59 6.93788 -0.410303 0
M  V30 10085 H 1061.78 4.68098 0.0137115 0
M  V30 10086 H 1061.96 6.47578 -0.233688 0
M  V30 10087 N 1055.36 -0.161842 1.56767 0
M  V30 10088 C 1056.27 -1.21996 2.00385 0
M  V30 10089 C 1057.29 -1.4789 0.916768 0
M  V30 10090 O 1058.47 -1.59852 1.22513 0
M  V30 10091 C 1055.53 -2.53695 2.36305 0
M  V30 10092 C 1054.59 -2.3558 3.58888 0
M  V30 10093 C 1053.82 -3.60998 3.93085 0
M  V30 10094 O 1054.05 -4.6657 3.28129 0
M  V30 10095 O 1052.98 -3.54544 4.86397 0
M  V30 10096 H 1056.81 -0.879701 2.9068 0
M  V30 10097 H 1054.39 -0.369437 1.4476 0
M  V30 10098 H 1056.27 -3.31366 2.60335 0
M  V30 10099 H 1054.95 -2.87281 1.49169 0
M  V30 10100 H 1053.86 -1.55908 3.40064 0
M  V30 10101 H 1055.19 -2.06915 4.46595 0
M  V30 10102 N 1056.84 -1.516 -0.430713 0
M  V30 10103 C 1058.07 -1.68414 -1.20185 0
M  V30 10104 C 1058.48 -0.384297 -1.84847 0
M  V30 10105 O 1057.84 0.637808 -1.70992 0
M  V30 10106 C 1057.89 -2.80451 -2.28099 0
M  V30 10107 O 1057.61 -4.05399 -1.66081 0
M  V30 10108 C 1059.11 -3.0859 -3.18256 0
M  V30 10109 H 1056.33 -0.564982 -0.361989 0
M  V30 10110 H 1058.88 -1.9805 -0.50954 0
M  V30 10111 H 1057.03 -2.53395 -2.93036 0
M  V30 10112 H 1057.45 -4.67671 -2.37453 0
M  V30 10113 H 1058.92 -3.9055 -3.90096 0
M  V30 10114 H 1059.4 -2.21264 -3.79393 0
M  V30 10115 H 1060 -3.37331 -2.59014 0
M  V30 10116 N 1058.32 0.686584 -1.41858 0
M  V30 10117 C 1059.23 1.83002 -1.46791 0
M  V30 10118 C 1060.25 1.70284 -0.357675 0
M  V30 10119 O 1061.42 1.92042 -0.606781 0
M  V30 10120 C 1058.49 3.19056 -1.35661 0
M  V30 10121 C 1057.55 3.43817 -2.57077 0
M  V30 10122 C 1056.78 4.7338 -2.46469 0
M  V30 10123 O 1057 5.50483 -1.49413 0
M  V30 10124 O 1055.94 4.99124 -3.36391 0
M  V30 10125 H 1059.76 1.81797 -2.43277 0
M  V30 10126 H 1057.35 0.840812 -1.23494 0
M  V30 10127 H 1059.23 4.00267 -1.31773 0
M  V30 10128 H 1057.91 3.20925 -0.422951 0
M  V30 10129 H 1056.81 2.625 -2.66541 0
M  V30 10130 H 1058.15 3.4677 -3.49302 0
M  V30 10131 N 1059.8 1.27835 0.921735 0
M  V30 10132 C 1061.07 1.05238 1.64877 0
M  V30 10133 C 1061.45 -0.410921 2.07062 0
M  V30 10134 O 1060.8 -1.39538 1.80946 0
M  V30 10135 C 1061.01 2.01955 2.84632 0
M  V30 10136 C 1062.36 2.31657 3.55837 0
M  V30 10137 O 1063.38 1.99975 2.94768 0
M  V30 10138 O 1062.24 2.85692 4.65878 0
M  V30 10139 H 1059.34 0.401622 0.72293 0
M  V30 10140 H 1061.88 1.39123 0.971744 0
M  V30 10141 H 1060.66 3.00614 2.50494 0
M  V30 10142 H 1060.28 1.68667 3.60052 0
M  V30 10143 N 1061.28 -1.12907 1.09954 0
M  V30 10144 C 1062.19 -2.22082 0.756095 0
M  V30 10145 C 1063.2 -1.72277 -0.244272 0
M  V30 10146 O 1064.38 -2.01224 -0.0842637 0
M  V30 10147 C 1061.44 -3.46192 0.187642 0
M  V30 10148 C 1060.5 -4.10861 1.24465 0
M  V30 10149 C 1059.74 -5.29047 0.703227 0
M  V30 10150 O 1059.96 -5.68443 -0.472043 0
M  V30 10151 O 1058.89 -5.83904 1.46082 0
M  V30 10152 H 1062.72 -2.53842 1.66727 0
M  V30 10153 H 1060.3 -1.21145 0.874316 0
M  V30 10154 H 1062.19 -4.21212 -0.125774 0
M  V30 10155 H 1060.86 -3.16119 -0.696459 0
M  V30 10156 H 1059.77 -3.37643 1.61085 0
M  V30 10157 H 1061.1 -4.45078 2.10159 0
M  V30 10158 N 1062.75 -0.88754 -1.30232 0
M  V30 10159 C 1063.66 -0.360333 -2.31816 0
M  V30 10160 C 1064.68 0.538741 -1.6545 0
M  V30 10161 O 1065.86 0.431246 -1.96729 0
M  V30 10162 C 1062.92 0.414336 -3.44215 0
M  V30 10163 C 1061.98 -0.514799 -4.26202 0
M  V30 10164 C 1061.21 0.222994 -5.33234 0
M  V30 10165 O 1061.44 1.44871 -5.51696 0
M  V30 10166 O 1060.37 -0.428221 -6.00375 0
M  V30 10167 H 1064.2 -1.20279 -2.78867 0
M  V30 10168 H 1061.78 -0.651459 -1.34448 0
M  V30 10169 H 1063.66 0.852859 -4.12679 0
M  V30 10170 H 1062.34 1.23305 -2.99295 0
M  V30 10171 H 1061.25 -1.00219 -3.60426 0
M  V30 10172 H 1062.58 -1.29959 -4.74733 0
M  V30 10173 N 1064.23 1.43628 -0.648757 0
M  V30 10174 C 1065.2 2.29172 0.0360713 0
M  V30 10175 C 1066.2 1.41974 0.754976 0
M  V30 10176 O 1067.39 1.63654 0.5969 0
M  V30 10177 C 1064.52 3.23942 1.0618 0
M  V30 10178 H 1065.71 2.91214 -0.716544 0
M  V30 10179 H 1063.26 1.50833 -0.409759 0
M  V30 10180 H 1064 2.66786 1.8438 0
M  V30 10181 H 1063.78 3.88223 0.550016 0
M  V30 10182 H 1065.27 3.8816 1.54019 0
M  V30 10183 N 1065.71 0.390394 1.52688 0
M  V30 10184 C 1066.62 -0.451543 2.30213 0
M  V30 10185 C 1067.64 -1.07051 1.37172 0
M  V30 10186 O 1068.81 -1.07609 1.70242 0
M  V30 10187 C 1065.88 -1.56299 3.0947 0
M  V30 10188 C 1064.94 -0.969017 4.18221 0
M  V30 10189 C 1064.17 -2.0275 4.93688 0
M  V30 10190 O 1064.39 -3.24273 4.69258 0
M  V30 10191 O 1063.33 -1.64418 5.79008 0
M  V30 10192 H 1067.15 0.180042 3.03166 0
M  V30 10193 H 1064.74 0.154082 1.48603 0
M  V30 10194 H 1066.62 -2.20864 3.58883 0
M  V30 10195 H 1065.3 -2.17952 2.3933 0
M  V30 10196 H 1064.2 -0.286587 3.73001 0
M  V30 10197 H 1065.54 -0.396687 4.90599 0
M  V30 10198 N 1067.19 -1.57141 0.120249 0
M  V30 10199 C 1068.15 -2.14213 -0.815185 0
M  V30 10200 C 1069.15 -1.07731 -1.19376 0
M  V30 10201 O 1070.34 -1.33502 -1.11906 0
M  V30 10202 C 1067.47 -2.68339 -2.10255 0
M  V30 10203 H 1068.67 -2.98197 -0.319166 0
M  V30 10204 H 1066.22 -1.55767 -0.128997 0
M  V30 10205 H 1066.95 -1.87946 -2.64285 0
M  V30 10206 H 1066.74 -3.46216 -1.84057 0
M  V30 10207 H 1068.23 -3.124 -2.77121 0
M  V30 10208 N 1068.67 0.153526 -1.5685 0
M  V30 10209 C 1069.94 0.895545 -1.73895 0
M  V30 10210 C 1070.32 1.99625 -0.686504 0
M  V30 10211 O 1069.67 2.26579 0.2957 0
M  V30 10212 C 1069.88 1.44399 -3.17726 0
M  V30 10213 C 1071.23 1.90996 -3.79217 0
M  V30 10214 O 1072.25 1.54155 -3.21115 0
M  V30 10215 O 1071.11 2.58917 -4.81274 0
M  V30 10216 H 1068.21 0.422755 -0.710779 0
M  V30 10217 H 1070.75 0.139961 -1.69122 0
M  V30 10218 H 1069.52 0.652635 -3.85819 0
M  V30 10219 H 1069.15 2.26326 -3.26898 0
M  V30 10220 N 1070.14 1.51827 0.422667 0
M  V30 10221 C 1071.56 1.40328 0.760275 0
M  V30 10222 C 1071.76 0.497119 1.95272 0
M  V30 10223 O 1070.82 -0.0422083 2.52465 0
M  V30 10224 C 1072.13 2.82622 1.02689 0
M  V30 10225 C 1073.68 2.91874 1.13044 0
M  V30 10226 C 1074.15 4.35107 1.4299 0
M  V30 10227 N 1075.64 4.3828 1.49883 0
M  V30 10228 C 1076.38 5.46153 1.74655 0
M  V30 10229 N 1075.87 6.64165 1.9712 0
M  V30 10230 N 1077.67 5.33651 1.76558 0
M  V30 10231 H 1069.82 2.09285 -0.362455 0
M  V30 10232 H 1072.08 0.94273 -0.0998161 0
M  V30 10233 H 1071.79 3.50991 0.223226 0
M  V30 10234 H 1071.66 3.22844 1.95068 0
M  V30 10235 H 1074.05 2.23694 1.92471 0
M  V30 10236 H 1074.13 2.55128 0.185326 0
M  V30 10237 H 1073.77 5.03841 0.640848 0
M  V30 10238 H 1073.7 4.69377 2.38731 0
M  V30 10239 H 1076.19 3.53206 1.34366 0
M  V30 10240 H 1076.51 7.42165 2.15434 0
M  V30 10241 H 1074.85 6.67255 1.94413 0
M  V30 10242 H 1078.04 4.40436 1.58536 0
M  V30 10243 H 1078.22 6.17798 1.95525 0
M  V30 10244 N 1071.62 -0.679052 1.4222 0
M  V30 10245 C 1072.85 -1.46747 1.45852 0
M  V30 10246 C 1073.27 -1.88675 0.0685937 0
M  V30 10247 O 1072.62 -1.57861 -0.915757 0
M  V30 10248 C 1072.67 -2.71935 2.38188 0
M  V30 10249 O 1072.39 -2.31768 3.71773 0
M  V30 10250 C 1073.9 -3.65536 2.50796 0
M  V30 10251 H 1071.12 -0.451682 0.49621 0
M  V30 10252 H 1073.66 -0.834723 1.86689 0
M  V30 10253 H 1071.81 -3.31409 2.00616 0
M  V30 10254 H 1072.23 -3.12579 4.21182 0
M  V30 10255 H 1073.7 -4.50113 3.19535 0
M  V30 10256 H 1074.18 -4.11148 1.54447 0
M  V30 10257 H 1074.79 -3.11957 2.89072 0
M  V30 10258 N 1073.1 -1.28322 -0.914942 0
M  V30 10259 C 1074.33 -1.1837 -1.70304 0
M  V30 10260 C 1074.75 0.254291 -1.86373 0
M  V30 10261 O 1074.11 1.18398 -1.37301 0
M  V30 10262 C 1074.16 -1.88603 -3.07346 0
M  V30 10263 O 1073.26 -1.19268 -3.94777 0
M  V30 10264 H 1072.6 -0.410978 -0.52153 0
M  V30 10265 H 1075.13 -1.69622 -1.14409 0
M  V30 10266 H 1075.14 -1.96463 -3.57584 0
M  V30 10267 H 1073.82 -2.93201 -2.94967 0
M  V30 10268 H 1072.39 -1.19563 -3.53212 0
M  V30 10269 N 1074.58 1.12322 -1.10551 0
M  V30 10270 C 1075.99 1.35858 -0.837543 0
M  V30 10271 C 1076.19 1.94062 0.54241 0
M  V30 10272 O 1075.25 2.1676 1.29505 0
M  V30 10273 C 1076.56 2.299 -1.9382 0
M  V30 10274 C 1078.11 2.43488 -1.96679 0
M  V30 10275 C 1078.59 3.40846 -3.05922 0
M  V30 10276 N 1080.08 3.48404 -3.05236 0
M  V30 10277 C 1080.81 4.2365 -3.86405 0
M  V30 10278 N 1080.31 5.01951 -4.77512 0
M  V30 10279 N 1082.1 4.19068 -3.74618 0
M  V30 10280 H 1074.25 0.729002 -1.99498 0
M  V30 10281 H 1076.52 0.38339 -0.867016 0
M  V30 10282 H 1076.22 1.94309 -2.9315 0
M  V30 10283 H 1076.1 3.30033 -1.82641 0
M  V30 10284 H 1078.48 2.78359 -0.979813 0
M  V30 10285 H 1078.56 1.43239 -2.11934 0
M  V30 10286 H 1078.21 3.06704 -4.04839 0
M  V30 10287 H 1078.14 4.40927 -2.87907 0
M  V30 10288 H 1080.63 2.92545 -2.39219 0
M  V30 10289 H 1080.94 5.56707 -5.36002 0
M  V30 10290 H 1079.29 5.01143 -4.8154 0
M  V30 10291 H 1082.48 3.5698 -3.02792 0
M  V30 10292 H 1082.65 4.77455 -4.38111 0
M  V30 10293 N 1076.06 0.894434 1.2976 0
M  V30 10294 C 1077.47 0.589778 1.48303 0
M  V30 10295 C 1077.67 -0.870085 1.81746 0
M  V30 10296 O 1076.73 -1.65065 1.91076 0
M  V30 10297 C 1078.04 1.51107 2.59975 0
M  V30 10298 C 1079.59 1.51571 2.73853 0
M  V30 10299 C 1080.06 2.42316 3.88648 0
M  V30 10300 N 1081.56 2.40333 3.95973 0
M  V30 10301 C 1082.29 3.07254 4.84131 0
M  V30 10302 N 1081.79 3.83435 5.77018 0
M  V30 10303 N 1083.58 2.96438 4.77578 0
M  V30 10304 H 1075.73 1.83871 1.06327 0
M  V30 10305 H 1077.99 0.78758 0.527657 0
M  V30 10306 H 1077.7 2.55097 2.42112 0
M  V30 10307 H 1077.57 1.22767 3.56662 0
M  V30 10308 H 1079.96 0.483277 2.91116 0
M  V30 10309 H 1080.04 1.83946 1.77757 0
M  V30 10310 H 1079.69 3.4565 3.72141 0
M  V30 10311 H 1079.62 2.07252 4.84101 0
M  V30 10312 H 1082.11 1.84979 3.29532 0
M  V30 10313 H 1082.42 4.31565 6.4107 0
M  V30 10314 H 1080.76 3.87542 5.7692 0
M  V30 10315 H 1083.96 2.36442 4.03996 0
M  V30 10316 H 1084.13 3.48867 5.46073 0
M  V30 10317 N 1077.53 -1.43282 0.656365 0
M  V30 10318 C 1078.78 -2.01378 0.170702 0
M  V30 10319 C 1079.1 -1.52063 -1.22073 0
M  V30 10320 O 1078.37 -0.73456 -1.81607 0
M  V30 10321 H 1076.95 -0.744577 0.0601168 0
M  V30 10322 H 1079.62 -1.75449 0.848739 0
M  V30 10323 H 1078.71 -3.11701 0.157745 0
M  V30 10324 N 1079.01 -0.398486 -1.52479 0
M  V30 10325 C 1080.26 0.17345 -2.02659 0
M  V30 10326 C 1080.61 1.43702 -1.27935 0
M  V30 10327 O 1079.91 1.87916 -0.37392 0
M  V30 10328 C 1080.1 0.485909 -3.54081 0
M  V30 10329 C 1079.93 -0.745833 -4.43472 0
M  V30 10330 C 1078.7 -1.26785 -4.89136 0
M  V30 10331 C 1080.9 -1.62085 -4.88091 0
M  V30 10332 N 1078.88 -2.45619 -5.62623 0
M  V30 10333 C 1080.25 -2.65552 -5.60252 0
M  V30 10334 C 1082.31 -1.63986 -4.7012 0
M  V30 10335 C 1081.01 -3.70818 -6.1635 0
M  V30 10336 C 1083.04 -2.68164 -5.27107 0
M  V30 10337 C 1082.4 -3.70353 -5.99181 0
M  V30 10338 H 1078.5 0.0253159 -0.78159 0
M  V30 10339 H 1081.08 -0.550442 -1.86757 0
M  V30 10340 H 1079.25 1.17885 -3.70078 0
M  V30 10341 H 1080.98 1.0458 -3.90954 0
M  V30 10342 H 1077.74 -0.827472 -4.66315 0
M  V30 10343 H 1078.16 -3.05771 -6.04014 0
M  V30 10344 H 1082.8 -0.863253 -4.13893 0
M  V30 10345 H 1080.52 -4.49341 -6.71653 0
M  V30 10346 H 1084.11 -2.7053 -5.15077 0
M  V30 10347 H 1082.99 -4.49642 -6.42489 0
M  V30 10348 N 1080.49 1.57075 -0.12858 0
M  V30 10349 C 1081.91 1.57964 0.227961 0
M  V30 10350 C 1082.11 1.14186 1.66023 0
M  V30 10351 O 1081.16 0.833655 2.38341 0
M  V30 10352 C 1082.48 3.00697 -0.0140648 0
M  V30 10353 C 1084.02 3.12958 0.0510876 0
M  V30 10354 C 1084.5 4.57709 -0.163368 0
M  V30 10355 N 1085.99 4.6307 -0.109663 0
M  V30 10356 C 1086.73 5.72853 -0.250366 0
M  V30 10357 N 1086.22 6.91351 -0.447772 0
M  V30 10358 N 1088.01 5.61781 -0.189265 0
M  V30 10359 H 1080.17 1.83829 -1.06398 0
M  V30 10360 H 1082.43 0.850014 -0.419739 0
M  V30 10361 H 1082.13 3.37047 -1.00461 0
M  V30 10362 H 1082.01 3.70389 0.713571 0
M  V30 10363 H 1084.4 2.7646 1.03216 0
M  V30 10364 H 1084.48 2.4579 -0.708583 0
M  V30 10365 H 1084.12 4.94907 -1.14146 0
M  V30 10366 H 1084.05 5.2298 0.616405 0
M  V30 10367 H 1086.54 3.7788 0.0390086 0
M  V30 10368 H 1086.85 7.70871 -0.54574 0
M  V30 10369 H 1085.2 6.93314 -0.483866 0
M  V30 10370 H 1088.39 4.68086 -0.0359374 0
M  V30 10371 H 1088.56 6.47294 -0.302359 0
M  V30 10372 N 1081.97 -0.145205 1.5693 0
M  V30 10373 C 1082.9 -1.18096 2.01434 0
M  V30 10374 C 1083.88 -1.447 0.894204 0
M  V30 10375 O 1085.07 -1.55589 1.16214 0
M  V30 10376 C 1082.2 -2.51369 2.39647 0
M  V30 10377 C 1081.15 -2.39283 3.54863 0
M  V30 10378 C 1080.48 -3.77283 3.78895 0
M  V30 10379 C 1081.78 -1.8754 4.87469 0
M  V30 10380 H 1083.47 -0.810897 2.8821 0
M  V30 10381 H 1081.02 -0.388624 1.38657 0
M  V30 10382 H 1082.97 -3.24054 2.69382 0
M  V30 10383 H 1081.69 -2.90214 1.49811 0
M  V30 10384 H 1080.35 -1.6905 3.25296 0
M  V30 10385 H 1080 -4.13567 2.86307 0
M  V30 10386 H 1079.7 -3.70057 4.56433 0
M  V30 10387 H 1081.22 -4.51514 4.11057 0
M  V30 10388 H 1082.64 -2.50019 5.1591 0
M  V30 10389 H 1081.03 -1.912 5.68826 0
M  V30 10390 H 1082.1 -0.831194 4.77723 0
M  V30 10391 N 1083.45 -1.52049 -0.414609 0
M  V30 10392 C 1084.38 -1.7122 -1.52369 0
M  V30 10393 C 1085.39 -0.592634 -1.5163 0
M  V30 10394 O 1086.58 -0.867634 -1.55995 0
M  V30 10395 C 1083.68 -1.73247 -2.91271 0
M  V30 10396 C 1082.85 -3.02153 -3.16263 0
M  V30 10397 C 1081.91 -2.96066 -4.35007 0
M  V30 10398 O 1080.94 -3.69981 -4.32554 0
M  V30 10399 N 1082.14 -2.13478 -5.39822 0
M  V30 10400 H 1084.91 -2.66902 -1.3632 0
M  V30 10401 H 1082.47 -1.50218 -0.603842 0
M  V30 10402 H 1084.46 -1.66714 -3.68766 0
M  V30 10403 H 1083.03 -0.85062 -3.00804 0
M  V30 10404 H 1082.25 -3.22379 -2.2686 0
M  V30 10405 H 1083.54 -3.87439 -3.29801 0
M  V30 10406 H 1082.94 -1.52844 -5.44661 0
M  V30 10407 H 1081.49 -2.12805 -6.16082 0
M  V30 10408 N 1084.93 0.6715 -1.42579 0
M  V30 10409 C 1085.89 1.76676 -1.46008 0
M  V30 10410 C 1086.89 1.57007 -0.347213 0
M  V30 10411 O 1088.08 1.63238 -0.608185 0
M  V30 10412 C 1085.21 3.15348 -1.29494 0
M  V30 10413 H 1086.4 1.75021 -2.43531 0
M  V30 10414 H 1083.96 0.881444 -1.29075 0
M  V30 10415 H 1084.69 3.22626 -0.32906 0
M  V30 10416 H 1084.48 3.31028 -2.10149 0
M  V30 10417 H 1085.97 3.95251 -1.34784 0
M  V30 10418 N 1086.4 1.28806 0.908124 0
M  V30 10419 C 1087.65 1.1646 1.66027 0
M  V30 10420 C 1087.98 -0.285025 1.92097 0
M  V30 10421 O 1087.26 -1.20675 1.52538 0
M  V30 10422 C 1087.54 1.96951 3.01467 0
M  V30 10423 C 1087.39 3.50007 2.82515 0
M  V30 10424 C 1088.71 1.78932 4.02084 0
M  V30 10425 H 1085.83 0.424435 0.602515 0
M  V30 10426 H 1088.47 1.58185 1.0525 0
M  V30 10427 H 1086.62 1.61495 3.53344 0
M  V30 10428 H 1088.3 3.95401 2.37605 0
M  V30 10429 H 1086.54 3.75356 2.17463 0
M  V30 10430 H 1087.21 4.01591 3.7872 0
M  V30 10431 H 1089.69 2.09885 3.59287 0
M  V30 10432 H 1088.56 2.37615 4.94803 0
M  V30 10433 H 1088.82 0.742286 4.35824 0
M  V30 10434 N 1087.88 -1.11734 1.11145 0
M  V30 10435 C 1088.84 -2.15868 0.770303 0
M  V30 10436 C 1089.84 -1.59438 -0.208842 0
M  V30 10437 O 1091.03 -1.74193 0.0152516 0
M  V30 10438 C 1088.17 -3.40603 0.142303 0
M  V30 10439 H 1089.36 -2.4756 1.69276 0
M  V30 10440 H 1086.91 -1.26867 0.912929 0
M  V30 10441 H 1087.65 -3.14517 -0.790526 0
M  V30 10442 H 1087.43 -3.8284 0.847087 0
M  V30 10443 H 1088.92 -4.17523 -0.0803608 0
M  V30 10444 N 1089.36 -0.901303 -1.29284 0
M  V30 10445 C 1090.61 -0.528826 -1.95784 0
M  V30 10446 C 1090.94 0.922833 -1.70873 0
M  V30 10447 O 1090.21 1.65448 -1.0226 0
M  V30 10448 C 1090.5 -0.823793 -3.50551 0
M  V30 10449 C 1090.35 -2.32727 -3.84913 0
M  V30 10450 C 1091.67 -0.311382 -4.38997 0
M  V30 10451 H 1088.79 -0.193604 -0.711116 0
M  V30 10452 H 1091.43 -1.12828 -1.52872 0
M  V30 10453 H 1089.58 -0.313612 -3.87232 0
M  V30 10454 H 1091.25 -2.90712 -3.58168 0
M  V30 10455 H 1089.49 -2.78735 -3.32399 0
M  V30 10456 H 1090.17 -2.48423 -4.9294 0
M  V30 10457 H 1092.64 -0.748265 -4.09317 0
M  V30 10458 H 1091.52 -0.546957 -5.46168 0
M  V30 10459 H 1091.78 0.787959 -4.35021 0
M  V30 10460 N 1090.84 1.42931 -0.663954 0
M  V30 10461 C 1092.09 2.01284 -0.181379 0
M  V30 10462 C 1092.41 1.52708 1.21265 0
M  V30 10463 O 1091.68 0.744181 1.81215 0
M  V30 10464 H 1090.26 0.744248 -0.0640646 0
M  V30 10465 H 1092.92 1.74997 -0.858031 0
M  V30 10466 H 1092.01 3.11613 -0.174273 0
M  V30 10467 N 1092.32 0.406567 1.52266 0
M  V30 10468 C 1093.25 -0.411314 2.29849 0
M  V30 10469 C 1094.23 -1.04838 1.33952 0
M  V30 10470 O 1095.41 -1.05788 1.62857 0
M  V30 10471 C 1092.54 -1.52961 3.11802 0
M  V30 10472 C 1091.5 -1.01768 4.15725 0
M  V30 10473 C 1090.82 -2.22938 4.86007 0
M  V30 10474 C 1092.12 -0.073515 5.22248 0
M  V30 10475 H 1093.82 0.236054 2.98468 0
M  V30 10476 H 1091.36 0.114968 1.4354 0
M  V30 10477 H 1093.31 -2.10874 3.64843 0
M  V30 10478 H 1092.04 -2.20482 2.40947 0
M  V30 10479 H 1090.7 -0.46097 3.6369 0
M  V30 10480 H 1090.35 -2.89007 4.11684 0
M  V30 10481 H 1090.05 -1.89338 5.5626 0
M  V30 10482 H 1091.57 -2.81462 5.41859 0
M  V30 10483 H 1092.98 -0.561367 5.70545 0
M  V30 10484 H 1091.38 0.173551 5.99849 0
M  V30 10485 H 1092.45 0.872524 4.76985 0
M  V30 10486 N 1093.79 -1.57004 0.136909 0
M  V30 10487 C 1095.21 -1.82675 -0.385577 0
M  V30 10488 C 1095.56 -1.05508 -1.65416 0
M  V30 10489 O 1094.68 -0.297207 -2.14349 0
M  V30 10490 C 1095.28 -3.31356 -0.706326 0
M  V30 10491 C 1093.84 -3.57644 -1.17337 0
M  V30 10492 C 1092.98 -2.7664 -0.191239 0
M  V30 10493 H 1095.93 -1.54522 0.36177 0
M  V30 10494 H 1095.95 -3.4696 -1.56201 0
M  V30 10495 H 1095.47 -3.87492 0.217147 0
M  V30 10496 H 1093.57 -3.06883 -2.11313 0
M  V30 10497 H 1093.68 -4.66152 -1.10632 0
M  V30 10498 H 1092.04 -2.45403 -0.681867 0
M  V30 10499 H 1092.83 -3.35543 0.725647 0
M  V30 10500 N 1095.27 0.136881 -1.57004 0
M  V30 10501 C 1096.55 0.87705 -1.74835 0
M  V30 10502 C 1096.93 1.98886 -0.707639 0
M  V30 10503 O 1096.28 2.26879 0.271652 0
M  V30 10504 C 1096.49 1.41021 -3.1924 0
M  V30 10505 C 1097.84 1.86963 -3.81222 0
M  V30 10506 O 1098.86 1.5074 -3.22732 0
M  V30 10507 O 1097.72 2.53798 -4.83993 0
M  V30 10508 H 1094.81 0.415192 -0.715223 0
M  V30 10509 H 1097.36 0.122016 -1.69261 0
M  V30 10510 H 1096.13 0.611677 -3.8649 0
M  V30 10511 H 1095.75 2.22846 -3.2928 0
M  V30 10512 N 1096.75 1.52266 0.40654 0
M  V30 10513 C 1098.17 1.41127 0.745348 0
M  V30 10514 C 1098.37 0.517802 1.94733 0
M  V30 10515 O 1097.42 -0.0154286 2.52495 0
M  V30 10516 C 1098.74 2.83696 0.996859 0
M  V30 10517 C 1100.28 2.93056 1.09942 0
M  V30 10518 C 1100.76 4.36599 1.38367 0
M  V30 10519 N 1102.25 4.39845 1.45226 0
M  V30 10520 C 1102.98 5.47975 1.68852 0
M  V30 10521 N 1102.48 6.66219 1.90065 0
M  V30 10522 N 1104.27 5.35494 1.70888 0
M  V30 10523 H 1096.42 2.08888 -0.384632 0
M  V30 10524 H 1098.69 0.941619 -0.109809 0
M  V30 10525 H 1098.39 3.51208 0.185986 0
M  V30 10526 H 1098.27 3.24895 1.91632 0
M  V30 10527 H 1100.65 2.25723 1.90088 0
M  V30 10528 H 1100.74 2.5531 0.158256 0
M  V30 10529 H 1100.38 5.04492 0.587373 0
M  V30 10530 H 1100.31 4.71883 2.33739 0
M  V30 10531 H 1102.8 3.54611 1.30612 0
M  V30 10532 H 1103.11 7.44408 2.0755 0
M  V30 10533 H 1101.46 6.69279 1.87325 0
M  V30 10534 H 1104.65 4.42093 1.53856 0
M  V30 10535 H 1104.82 6.19837 1.88962 0
M  V30 10536 N 1098.23 -0.663929 1.42933 0
M  V30 10537 C 1099.14 -1.80643 1.49683 0
M  V30 10538 C 1100.15 -1.69694 0.38472 0
M  V30 10539 O 1101.33 -1.91052 0.637256 0
M  V30 10540 C 1098.4 -3.16858 1.4072 0
M  V30 10541 C 1097.46 -3.39684 2.62514 0
M  V30 10542 C 1096.69 -4.69399 2.53969 0
M  V30 10543 O 1096.91 -5.48037 1.58152 0
M  V30 10544 O 1095.85 -4.93709 3.44289 0
M  V30 10545 H 1099.67 -1.77903 2.46138 0
M  V30 10546 H 1097.26 -0.821059 1.24816 0
M  V30 10547 H 1099.14 -3.9812 1.38124 0
M  V30 10548 H 1097.81 -3.20211 0.473954 0
M  V30 10549 H 1096.72 -2.58227 2.70684 0
M  V30 10550 H 1098.05 -3.41169 3.54774 0
M  V30 10551 N 1099.71 -1.29285 -0.901281 0
M  V30 10552 C 1100.98 -1.07847 -1.63182 0
M  V30 10553 C 1101.36 0.377927 -2.07689 0
M  V30 10554 O 1100.71 1.36642 -1.83143 0
M  V30 10555 C 1100.92 -2.06457 -2.81383 0
M  V30 10556 C 1102.27 -2.37289 -3.52107 0
M  V30 10557 O 1103.29 -2.0464 -2.91549 0
M  V30 10558 O 1102.15 -2.93067 -4.61274 0
M  V30 10559 H 1099.25 -0.413073 -0.71645 0
M  V30 10560 H 1101.79 -1.40651 -0.949488 0
M  V30 10561 H 1100.56 -3.04561 -2.4568 0
M  V30 10562 H 1100.19 -1.74374 -3.57323 0
M  V30 10563 N 1101.18 1.11143 -1.11736 0
M  V30 10564 C 1102.15 2.15456 -0.78174 0
M  V30 10565 C 1103.15 1.59547 0.200383 0
M  V30 10566 O 1104.34 1.74183 -0.0244893 0
M  V30 10567 C 1101.47 3.40523 -0.160364 0
M  V30 10568 H 1102.66 2.46658 -1.70586 0
M  V30 10569 H 1100.22 1.26381 -0.919644 0
M  V30 10570 H 1100.95 3.14932 0.773835 0
M  V30 10571 H 1100.74 3.82386 -0.867378 0
M  V30 10572 H 1102.23 4.17559 0.0582175 0
M  V30 10573 N 1102.66 0.908147 1.28804 0
M  V30 10574 C 1103.59 0.34957 2.26519 0
M  V30 10575 C 1104.61 -0.508845 1.54643 0
M  V30 10576 O 1105.8 -0.324633 1.75523 0
M  V30 10577 C 1102.9 -0.519461 3.34895 0
M  V30 10578 C 1102.07 0.315157 4.36263 0
M  V30 10579 C 1101.13 -0.488059 5.23932 0
M  V30 10580 O 1100.15 0.0974133 5.69117 0
M  V30 10581 N 1101.36 -1.79233 5.52137 0
M  V30 10582 H 1104.12 1.18945 2.75086 0
M  V30 10583 H 1101.68 0.77351 1.42227 0
M  V30 10584 H 1103.67 -1.0634 3.90479 0
M  V30 10585 H 1102.24 -1.26004 2.8608 0
M  V30 10586 H 1101.46 1.04049 3.8022 0
M  V30 10587 H 1102.75 0.886438 5.01019 0
M  V30 10588 H 1102.15 -2.2906 5.1725 0
M  V30 10589 H 1100.71 -2.28322 6.10502 0
M  V30 10590 N 1104.14 -1.42577 0.671525 0
M  V30 10591 C 1105.37 -2.05924 0.200731 0
M  V30 10592 C 1105.78 -1.50434 -1.14083 0
M  V30 10593 O 1105.14 -0.642845 -1.70803 0
M  V30 10594 C 1105.19 -3.61289 0.123505 0
M  V30 10595 O 1104.91 -4.1472 1.41205 0
M  V30 10596 C 1106.41 -4.41743 -0.371178 0
M  V30 10597 H 1103.63 -0.663746 0.0983958 0
M  V30 10598 H 1106.18 -1.82771 0.917338 0
M  V30 10599 H 1104.33 -3.83565 -0.543769 0
M  V30 10600 H 1104.75 -5.0856 1.28325 0
M  V30 10601 H 1106.22 -5.50731 -0.374128 0
M  V30 10602 H 1106.7 -4.16092 -1.40585 0
M  V30 10603 H 1107.3 -4.24478 0.264244 0
M  V30 10604 N 1105.62 -0.414636 -1.52048 0
M  V30 10605 C 1106.87 0.159034 -2.01473 0
M  V30 10606 C 1107.19 1.45176 -1.30188 0
M  V30 10607 O 1106.46 1.91134 -0.429469 0
M  V30 10608 H 1105.04 0.0617604 -0.744443 0
M  V30 10609 H 1107.7 -0.552141 -1.86916 0
M  V30 10610 H 1106.8 0.351217 -3.10118 0
M  V30 10611 N 1107.1 1.56929 -0.145233 0
M  V30 10612 C 1108.32 2.00864 0.516564 0
M  V30 10613 C 1108.75 1.02466 1.57741 0
M  V30 10614 O 1108.1 0.000145439 1.813 0
M  V30 10615 C 1108.15 3.43552 1.09563 0
M  V30 10616 O 1107.26 3.4815 2.21055 0
M  V30 10617 H 1106.6 0.651835 0.126521 0
M  V30 10618 H 1109.13 2.0317 -0.241445 0
M  V30 10619 H 1109.14 3.82316 1.42473 0
M  V30 10620 H 1107.81 4.14677 0.318749 0
M  V30 10621 H 1106.39 3.21228 1.89387 0
M  V30 10622 N 1108.58 -0.128553 1.57075 0
M  V30 10623 C 1109.82 -0.839252 1.8462 0
M  V30 10624 C 1110.15 -1.79974 0.729582 0
M  V30 10625 O 1109.43 -1.92681 -0.265369 0
M  V30 10626 C 1109.71 -1.59756 3.22723 0
M  V30 10627 C 1109.57 -0.657313 4.44971 0
M  V30 10628 C 1110.88 -2.55592 3.58275 0
M  V30 10629 H 1108 -0.303652 0.671539 0
M  V30 10630 H 1110.65 -0.103802 1.89716 0
M  V30 10631 H 1108.8 -2.22451 3.18509 0
M  V30 10632 H 1110.47 -0.0399471 4.61283 0
M  V30 10633 H 1108.71 0.0318416 4.33788 0
M  V30 10634 H 1109.38 -1.22433 5.38251 0
M  V30 10635 H 1111.86 -2.03007 3.63218 0
M  V30 10636 H 1110.73 -3.05687 4.55902 0
M  V30 10637 H 1110.99 -3.37813 2.85193 0
M  V30 10638 N 1110.05 -1.5248 -0.398459 0
M  V30 10639 C 1111.02 -1.75949 -1.46883 0
M  V30 10640 C 1112.02 -0.629431 -1.47969 0
M  V30 10641 O 1113.21 -0.897407 -1.49306 0
M  V30 10642 C 1110.34 -1.85162 -2.8623 0
M  V30 10643 H 1111.53 -2.71513 -1.2736 0
M  V30 10644 H 1109.08 -1.43058 -0.629619 0
M  V30 10645 H 1109.82 -0.915505 -3.11109 0
M  V30 10646 H 1109.6 -2.67326 -2.86844 0
M  V30 10647 H 1111.09 -2.05025 -3.63805 0
M  V30 10648 N 1111.53 0.65634 -1.43283 0
M  V30 10649 C 1112.49 1.75117 -1.47874 0
M  V30 10650 C 1113.49 1.56629 -0.363846 0
M  V30 10651 O 1114.68 1.62584 -0.625464 0
M  V30 10652 C 1111.82 3.13957 -1.32831 0
M  V30 10653 H 1113.01 1.72429 -2.45374 0
M  V30 10654 H 1110.56 0.867704 -1.30002 0
M  V30 10655 H 1111.3 3.22259 -0.36326 0
M  V30 10656 H 1111.08 3.28781 -2.13649 0
M  V30 10657 H 1112.57 3.93799 -1.38969 0
M  V30 10658 N 1113.01 1.29761 0.894412 0
M  V30 10659 C 1114.26 1.17806 1.64214 0
M  V30 10660 C 1114.58 -0.269588 1.93127 0
M  V30 10661 O 1113.85 -1.18352 1.56107 0
M  V30 10662 H 1112.43 0.433002 0.608702 0
M  V30 10663 H 1115.09 1.6276 1.07216 0
M  V30 10664 H 1114.19 1.73201 2.5963 0
M  V30 10665 N 1114.49 -1.10549 1.12324 0
M  V30 10666 C 1115.74 -1.81851 0.872531 0
M  V30 10667 C 1116.05 -1.86058 -0.603468 0
M  V30 10668 O 1117.26 -2.53553 -0.970736 0
M  V30 10669 C 1115.71 -3.26631 1.51131 0
M  V30 10670 C 1115.32 -3.30725 3.02201 0
M  V30 10671 C 1117.06 -4.02768 1.34082 0
M  V30 10672 C 1114.97 -4.69957 3.59018 0
M  V30 10673 H 1113.9 -0.681422 0.322769 0
M  V30 10674 H 1116.55 -1.24332 1.34959 0
M  V30 10675 H 1114.93 -3.8414 0.961913 0
M  V30 10676 H 1116.11 -2.83046 3.63623 0
M  V30 10677 H 1114.42 -2.68072 3.18632 0
M  V30 10678 H 1117.02 -5.05612 1.73955 0
M  V30 10679 H 1117.36 -4.15328 0.284369 0
M  V30 10680 H 1117.9 -3.51671 1.85937 0
M  V30 10681 H 1114.63 -4.62597 4.64418 0
M  V30 10682 H 1114.15 -5.18008 3.02371 0
M  V30 10683 H 1115.83 -5.38925 3.58007 0
M  V30 10684 N 1115.97 -0.914965 -1.28321 0
M  V30 10685 C 1116.9 -0.348729 -2.2552 0
M  V30 10686 C 1117.88 0.547737 -1.53097 0
M  V30 10687 O 1119.06 0.491119 -1.8199 0
M  V30 10688 C 1116.19 0.501397 -3.34968 0
M  V30 10689 C 1115.23 -0.329859 -4.25223 0
M  V30 10690 S 1116.07 -1.73737 -5.06533 0
M  V30 10691 C 1117.22 -0.89458 -6.19474 0
M  V30 10692 H 1117.46 -1.17256 -2.732 0
M  V30 10693 H 1114.99 -0.716297 -1.36779 0
M  V30 10694 H 1116.95 0.986061 -3.98481 0
M  V30 10695 H 1115.61 1.29962 -2.85952 0
M  V30 10696 H 1114.8 0.320236 -5.02982 0
M  V30 10697 H 1114.4 -0.748221 -3.66439 0
M  V30 10698 H 1116.69 -0.124776 -6.77385 0
M  V30 10699 H 1117.64 -1.64475 -6.88733 0
M  V30 10700 H 1118.05 -0.442217 -5.62765 0
M  V30 10701 N 1117.44 1.42219 -0.679077 0
M  V30 10702 C 1118.69 2.01081 -0.202718 0
M  V30 10703 C 1119.01 1.53986 1.19639 0
M  V30 10704 O 1118.28 0.763359 1.80415 0
M  V30 10705 H 1116.86 0.743526 -0.0719547 0
M  V30 10706 H 1119.52 1.74077 -0.876544 0
M  V30 10707 H 1118.62 3.11411 -0.207314 0
M  V30 10708 N 1118.92 0.422693 1.51826 0
M  V30 10709 C 1120.17 -0.148348 2.01555 0
M  V30 10710 C 1120.49 -1.44483 1.30956 0
M  V30 10711 O 1119.76 -1.90904 0.439599 0
M  V30 10712 H 1118.34 -0.0578116 0.74476 0
M  V30 10713 H 1121 0.562046 1.8662 0
M  V30 10714 H 1120.1 -0.334766 3.10299 0
M  V30 10715 N 1120.4 -1.5685 0.153553 0
M  V30 10716 C 1121.68 -1.8796 -0.541328 0
M  V30 10717 C 1122.06 -1.06059 -1.82523 0
M  V30 10718 O 1121.4 -0.149295 -2.28012 0
M  V30 10719 C 1121.61 -3.39697 -0.800442 0
M  V30 10720 C 1122.96 -4.09057 -1.13832 0
M  V30 10721 O 1123.99 -3.44913 -0.889578 0
M  V30 10722 O 1122.85 -5.22347 -1.60673 0
M  V30 10723 H 1119.94 -0.779268 -0.276895 0
M  V30 10724 H 1122.49 -1.68626 0.190657 0
M  V30 10725 H 1121.26 -3.91151 0.107935 0
M  V30 10726 H 1120.88 -3.64582 -1.58638 0
M  V30 10727 N 1121.88 0.120221 -1.57141 0
M  V30 10728 C 1123.12 0.829449 -1.85062 0
M  V30 10729 C 1123.46 1.79585 -0.739116 0
M  V30 10730 O 1122.73 1.92819 0.255147 0
M  V30 10731 C 1123.01 1.58042 -3.23566 0
M  V30 10732 C 1122.87 0.633706 -4.45314 0
M  V30 10733 C 1124.19 2.53688 -3.59625 0
M  V30 10734 H 1121.31 0.300086 -0.67314 0
M  V30 10735 H 1123.95 0.0937393 -1.89769 0
M  V30 10736 H 1122.1 2.20758 -3.19684 0
M  V30 10737 H 1123.77 0.0154836 -4.61297 0
M  V30 10738 H 1122.01 -0.054846 -4.33765 0
M  V30 10739 H 1122.68 1.19577 -5.38893 0
M  V30 10740 H 1125.16 2.01078 -3.6429 0
M  V30 10741 H 1124.04 3.03265 -4.57516 0
M  V30 10742 H 1124.3 3.36296 -2.8698 0
M  V30 10743 N 1123.36 1.52689 0.390367 0
M  V30 10744 C 1124.6 1.67914 1.13722 0
M  V30 10745 C 1124.94 0.417159 1.89667 0
M  V30 10746 O 1124.21 -0.585005 1.85494 0
M  V30 10747 C 1124.49 2.91331 2.11656 0
M  V30 10748 C 1124.35 4.27626 1.39484 0
M  V30 10749 C 1125.67 3.10293 3.12099 0
M  V30 10750 H 1122.78 0.611047 0.412057 0
M  V30 10751 H 1125.43 1.85283 0.420753 0
M  V30 10752 H 1123.58 2.76654 2.72754 0
M  V30 10753 H 1125.25 4.54068 0.813607 0
M  V30 10754 H 1123.49 4.28169 0.69669 0
M  V30 10755 H 1124.16 5.10066 2.11038 0
M  V30 10756 H 1126.64 3.23992 2.6109 0
M  V30 10757 H 1125.51 3.98127 3.7787 0
M  V30 10758 H 1125.78 2.24448 3.80888 0
M  V30 10759 N 1124.83 -0.648732 1.43629 0
M  V30 10760 C 1126.25 -1.23001 1.40455 0
M  V30 10761 C 1126.6 -1.95886 0.110897 0
M  V30 10762 O 1125.72 -2.01485 -0.789487 0
M  V30 10763 C 1126.32 -2.23716 2.54434 0
M  V30 10764 C 1124.88 -2.77311 2.54511 0
M  V30 10765 C 1124.02 -1.52024 2.31914 0
M  V30 10766 H 1126.97 -0.440473 1.52465 0
M  V30 10767 H 1126.99 -3.05979 2.26179 0
M  V30 10768 H 1126.51 -1.7064 3.48574 0
M  V30 10769 H 1124.61 -3.34437 1.64263 0
M  V30 10770 H 1124.72 -3.2455 3.52426 0
M  V30 10771 H 1123.08 -1.79531 1.80667 0
M  V30 10772 H 1123.87 -1.00876 3.28145 0
M  V30 10773 N 1126.31 -1.30234 -0.887518 0
M  V30 10774 C 1127.26 -1.13013 -1.9802 0
M  V30 10775 C 1128.25 -0.0460253 -1.60834 0
M  V30 10776 O 1129.44 -0.26907 -1.74943 0
M  V30 10777 C 1126.57 -0.821397 -3.33329 0
M  V30 10778 C 1125.65 -1.94564 -3.76837 0
M  V30 10779 N 1126.04 -3.19068 -3.92465 0
M  V30 10780 C 1124.34 -1.84142 -4.06211 0
M  V30 10781 C 1125.04 -3.92495 -4.29328 0
M  V30 10782 N 1124.02 -3.20526 -4.39049 0
M  V30 10783 H 1127.82 -2.07446 -2.0819 0
M  V30 10784 H 1125.34 -1.21536 -1.07716 0
M  V30 10785 H 1127.33 -0.679046 -4.11333 0
M  V30 10786 H 1125.99 0.114891 -3.24497 0
M  V30 10787 H 1127 -3.54386 -3.77665 0
M  V30 10788 H 1123.68 -0.97865 -4.05868 0
M  V30 10789 H 1125.07 -4.99701 -4.49164 0
M  V30 10790 N 1127.79 1.09952 -1.12909 0
M  V30 10791 C 1129.04 1.81386 -0.882163 0
M  V30 10792 C 1129.35 1.86376 0.593592 0
M  V30 10793 O 1130.56 2.54064 0.957275 0
M  V30 10794 C 1129.01 3.25824 -1.52861 0
M  V30 10795 C 1128.62 3.29117 -3.0395 0
M  V30 10796 C 1130.37 4.02051 -1.36216 0
M  V30 10797 C 1128.27 4.68047 -3.61505 0
M  V30 10798 H 1127.2 0.679701 -0.326378 0
M  V30 10799 H 1129.85 1.23614 -1.35616 0
M  V30 10800 H 1128.24 3.83624 -0.982271 0
M  V30 10801 H 1129.41 2.81114 -3.65119 0
M  V30 10802 H 1127.73 2.66379 -3.20049 0
M  V30 10803 H 1130.32 5.04683 -1.76633 0
M  V30 10804 H 1130.67 4.15171 -0.306391 0
M  V30 10805 H 1131.2 3.5068 -1.87799 0
M  V30 10806 H 1127.94 4.60128 -4.66865 0
M  V30 10807 H 1127.46 5.16397 -3.05114 0
M  V30 10808 H 1129.14 5.37018 -3.6086 0
M  V30 10809 N 1129.27 0.921757 1.27833 0
M  V30 10810 C 1130.49 0.574599 1.99281 0
M  V30 10811 C 1130.92 -0.838905 1.68357 0
M  V30 10812 O 1130.28 -1.56196 0.920468 0
M  V30 10813 C 1130.32 0.800027 3.51613 0
M  V30 10814 O 1129.43 -0.137215 4.12172 0
M  V30 10815 H 1128.77 0.221887 0.625829 0
M  V30 10816 H 1131.3 1.23939 1.62789 0
M  V30 10817 H 1131.31 0.71326 4.01717 0
M  V30 10818 H 1129.98 1.83042 3.73455 0
M  V30 10819 H 1128.56 -0.00103872 3.729 0
M  V30 10820 N 1130.75 -1.41857 0.686609 0
M  V30 10821 C 1131.71 -2.29187 0.0247022 0
M  V30 10822 C 1132.71 -1.43926 -0.717069 0
M  V30 10823 O 1133.9 -1.65179 -0.5533 0
M  V30 10824 C 1131.03 -3.26644 -0.975537 0
M  V30 10825 H 1132.22 -2.89212 0.793503 0
M  V30 10826 H 1129.78 -1.49694 0.449605 0
M  V30 10827 H 1130.51 -2.7158 -1.77242 0
M  V30 10828 H 1130.3 -3.89545 -0.446892 0
M  V30 10829 H 1131.79 -3.92107 -1.43673 0
M  V30 10830 N 1132.22 -0.430739 -1.51599 0
M  V30 10831 C 1133.19 0.372319 -2.26156 0
M  V30 10832 C 1134.19 0.955338 -1.29344 0
M  V30 10833 O 1135.38 0.830823 -1.53111 0
M  V30 10834 C 1132.51 1.52613 -3.04831 0
M  V30 10835 H 1133.7 -0.280996 -2.98581 0
M  V30 10836 H 1131.26 -0.183749 -1.55216 0
M  V30 10837 H 1131.99 2.21569 -2.36807 0
M  V30 10838 H 1131.78 1.11433 -3.75932 0
M  V30 10839 H 1133.27 2.09366 -3.61325 0
M  V30 10840 N 1133.7 1.56767 -0.161869 0
M  V30 10841 C 1134.95 1.96206 0.484537 0
M  V30 10842 C 1135.27 1.04848 1.64414 0
M  V30 10843 O 1134.54 0.112946 1.95574 0
M  V30 10844 H 1133.12 0.724491 0.181994 0
M  V30 10845 H 1135.78 1.93406 -0.240845 0
M  V30 10846 H 1134.88 3.00279 0.85083 0
M  V30 10847 N 1135.18 -0.111886 1.57202 0
M  V30 10848 C 1136.14 -1.12101 1.99915 0
M  V30 10849 C 1137.14 -1.33906 0.890272 0
M  V30 10850 O 1138.33 -1.30303 1.15615 0
M  V30 10851 C 1135.47 -2.47392 2.34543 0
M  V30 10852 H 1136.66 -0.753736 2.90274 0
M  V30 10853 H 1134.21 -0.35641 1.52182 0
M  V30 10854 H 1134.95 -2.89026 1.47086 0
M  V30 10855 H 1134.73 -2.32917 3.15423 0
M  V30 10856 H 1136.22 -3.20004 2.68304 0
M  V30 10857 N 1136.66 -1.52894 -0.382264 0
M  V30 10858 C 1137.91 -1.67933 -1.1244 0
M  V30 10859 C 1138.23 -0.425166 -1.90309 0
M  V30 10860 O 1137.5 0.560557 -1.87709 0
M  V30 10861 H 1136.08 -0.619047 -0.418079 0
M  V30 10862 H 1138.74 -1.90031 -0.432928 0
M  V30 10863 H 1137.84 -2.53285 -1.82355 0
M  V30 10864 N 1138.14 0.641106 -1.43971 0
M  V30 10865 C 1139.05 1.78239 -1.52538 0
M  V30 10866 C 1140.06 1.6906 -0.411668 0
M  V30 10867 O 1141.24 1.90014 -0.66757 0
M  V30 10868 C 1138.3 3.14579 -1.45743 0
M  V30 10869 C 1137.37 3.35464 -2.67885 0
M  V30 10870 C 1136.6 4.65299 -2.61404 0
M  V30 10871 O 1136.82 5.45451 -1.66851 0
M  V30 10872 O 1135.76 4.8817 -3.521 0
M  V30 10873 H 1139.58 1.73965 -2.48937 0
M  V30 10874 H 1137.17 0.801098 -1.26106 0
M  V30 10875 H 1139.05 3.95873 -1.4444 0
M  V30 10876 H 1137.72 3.19417 -0.524837 0
M  V30 10877 H 1136.63 2.53888 -2.74758 0
M  V30 10878 H 1137.96 3.35481 -3.60157 0
M  V30 10879 N 1139.62 1.30703 0.880598 0
M  V30 10880 C 1140.58 1.17429 1.96832 0
M  V30 10881 C 1141.58 0.104305 1.60461 0
M  V30 10882 O 1142.77 0.352758 1.70591 0
M  V30 10883 C 1139.9 0.800099 3.31378 0
M  V30 10884 H 1141.09 2.14069 2.10034 0
M  V30 10885 H 1138.65 1.14162 1.06755 0
M  V30 10886 H 1139.38 -0.165606 3.23877 0
M  V30 10887 H 1139.17 1.57341 3.59146 0
M  V30 10888 H 1140.66 0.730826 4.11155 0
M  V30 10889 N 1141.09 -1.09351 1.1349 0
M  V30 10890 C 1142.02 -2.18037 0.835588 0
M  V30 10891 C 1143 -1.68856 -0.205373 0
M  V30 10892 O 1144.19 -1.94094 -0.0641357 0
M  V30 10893 C 1141.32 -3.45987 0.301661 0
M  V30 10894 C 1140.27 -4.08507 1.27696 0
M  V30 10895 C 1139.6 -5.31292 0.602758 0
M  V30 10896 C 1140.9 -4.50916 2.63575 0
M  V30 10897 H 1142.59 -2.43332 1.74441 0
M  V30 10898 H 1140.14 -1.1695 0.840166 0
M  V30 10899 H 1142.09 -4.21324 0.079928 0
M  V30 10900 H 1140.82 -3.20217 -0.642552 0
M  V30 10901 H 1139.48 -3.3519 1.4847 0
M  V30 10902 H 1139.12 -5.01802 -0.346953 0
M  V30 10903 H 1138.82 -5.74075 1.25345 0
M  V30 10904 H 1140.35 -6.09351 0.390325 0
M  V30 10905 H 1141.76 -5.17474 2.46765 0
M  V30 10906 H 1140.16 -5.04586 3.24827 0
M  V30 10907 H 1141.23 -3.63279 3.2118 0
M  V30 10908 N 1142.57 -0.928524 -1.27343 0
M  V30 10909 C 1143.48 -0.433901 -2.30553 0
M  V30 10910 C 1144.5 0.485832 -1.6708 0
M  V30 10911 O 1145.67 0.36844 -1.98001 0
M  V30 10912 C 1142.74 0.304617 -3.45359 0
M  V30 10913 C 1141.8 -0.650131 -4.24349 0
M  V30 10914 C 1141.03 0.0532372 -5.33673 0
M  V30 10915 O 1141.26 1.27246 -5.56026 0
M  V30 10916 O 1140.19 -0.619009 -5.98709 0
M  V30 10917 H 1144.02 -1.2909 -2.74899 0
M  V30 10918 H 1141.6 -0.693903 -1.32308 0
M  V30 10919 H 1143.48 0.721137 -4.15184 0
M  V30 10920 H 1142.16 1.13721 -3.03066 0
M  V30 10921 H 1141.06 -1.11635 -3.57055 0
M  V30 10922 H 1142.4 -1.44996 -4.70358 0
M  V30 10923 N 1144.05 1.41491 -0.694123 0
M  V30 10924 C 1145.3 2.00854 -0.224033 0
M  V30 10925 C 1145.62 1.55246 1.17999 0
M  V30 10926 O 1144.89 0.782452 1.79595 0
M  V30 10927 H 1143.47 0.742721 -0.0798368 0
M  V30 10928 H 1146.13 1.73137 -0.894958 0
M  V30 10929 H 1145.23 3.11173 -0.240332 0
M  V30 10930 N 1145.53 0.438773 1.51369 0
M  V30 10931 C 1146.77 -0.127401 2.02399 0
M  V30 10932 C 1147.11 -1.42235 1.32223 0
M  V30 10933 O 1146.38 -1.89513 0.437607 0
M  V30 10934 C 1146.66 -0.344673 3.58447 0
M  V30 10935 C 1146.52 0.969027 4.39238 0
M  V30 10936 C 1147.84 -1.11381 4.25773 0
M  V30 10937 H 1144.96 -0.0448281 0.735635 0
M  V30 10938 H 1147.6 0.57805 1.80993 0
M  V30 10939 H 1145.75 -0.945582 3.76817 0
M  V30 10940 H 1147.42 1.60403 4.32514 0
M  V30 10941 H 1145.66 1.57329 4.04265 0
M  V30 10942 H 1146.33 0.771029 5.46589 0
M  V30 10943 H 1148.81 -0.604785 4.11681 0
M  V30 10944 H 1147.69 -1.23459 5.34835 0
M  V30 10945 H 1147.95 -2.14225 3.8673 0
M  V30 10946 N 1147.01 -1.56678 0.170181 0
M  V30 10947 C 1147.94 -2.20916 -0.756213 0
M  V30 10948 C 1148.92 -1.16442 -1.23997 0
M  V30 10949 O 1150.1 -1.44867 -1.29333 0
M  V30 10950 C 1147.23 -2.84901 -1.98617 0
M  V30 10951 C 1146.19 -3.95403 -1.63831 0
M  V30 10952 C 1145.51 -4.46432 -2.94282 0
M  V30 10953 C 1146.81 -5.15051 -0.867195 0
M  V30 10954 H 1148.51 -2.98585 -0.220776 0
M  V30 10955 H 1146.05 -1.43619 -0.104748 0
M  V30 10956 H 1148 -3.28514 -2.63926 0
M  V30 10957 H 1146.73 -2.04598 -2.54572 0
M  V30 10958 H 1145.39 -3.52444 -1.00891 0
M  V30 10959 H 1145.04 -3.62923 -3.48276 0
M  V30 10960 H 1144.74 -5.20979 -2.71762 0
M  V30 10961 H 1146.26 -4.92731 -3.60622 0
M  V30 10962 H 1147.67 -5.55363 -1.42285 0
M  V30 10963 H 1146.07 -5.95507 -0.741065 0
M  V30 10964 H 1147.14 -4.84707 0.136693 0
M  V30 10965 N 1148.48 0.103547 -1.57259 0
M  V30 10966 C 1149.73 0.806979 -1.8529 0
M  V30 10967 C 1150.05 1.79679 -0.757653 0
M  V30 10968 O 1149.32 1.94695 0.216913 0
M  V30 10969 H 1147.9 0.301012 -0.683667 0
M  V30 10970 H 1150.56 0.0871886 -1.94705 0
M  V30 10971 H 1149.66 1.34275 -2.81738 0
M  V30 10972 N 1149.96 1.53094 0.37415 0
M  V30 10973 C 1150.89 1.75199 1.47776 0
M  V30 10974 C 1151.91 0.632627 1.50006 0
M  V30 10975 O 1153.1 0.908688 1.5364 0
M  V30 10976 C 1150.2 1.80909 2.86575 0
M  V30 10977 C 1149.37 3.10432 3.08141 0
M  V30 10978 C 1148.43 3.07495 4.27005 0
M  V30 10979 O 1147.45 3.81319 4.22592 0
M  V30 10980 N 1148.66 2.27715 5.33972 0
M  V30 10981 H 1151.42 2.70423 1.29196 0
M  V30 10982 H 1148.98 1.51766 0.563802 0
M  V30 10983 H 1150.97 1.76432 3.64217 0
M  V30 10984 H 1149.54 0.930074 2.98443 0
M  V30 10985 H 1148.76 3.2828 2.18233 0
M  V30 10986 H 1150.05 3.96047 3.19413 0
M  V30 10987 H 1149.45 1.67231 5.40417 0
M  V30 10988 H 1148.01 2.29065 6.10223 0
M  V30 10989 N 1151.44 -0.633461 1.44309 0
M  V30 10990 C 1152.69 -1.39031 1.46679 0
M  V30 10991 C 1153.01 -1.94745 0.0997165 0
M  V30 10992 O 1152.28 -1.75637 -0.867659 0
M  V30 10993 H 1150.86 -0.516051 0.540093 0
M  V30 10994 H 1153.52 -0.745739 1.80069 0
M  V30 10995 H 1152.62 -2.2228 2.19085 0
M  V30 10996 N 1152.92 -1.31168 -0.873655 0
M  V30 10997 C 1154.16 -1.21831 -1.62877 0
M  V30 10998 C 1154.52 0.222272 -1.91112 0
M  V30 10999 O 1153.81 1.15463 -1.52902 0
M  V30 11000 C 1154.01 -1.99204 -2.96736 0
M  V30 11001 C 1153.84 -3.50639 -2.81571 0
M  V30 11002 C 1152.61 -4.19992 -2.80953 0
M  V30 11003 C 1154.8 -4.45658 -2.56697 0
M  V30 11004 N 1152.79 -5.57609 -2.56799 0
M  V30 11005 C 1154.16 -5.70917 -2.41771 0
M  V30 11006 C 1156.21 -4.35126 -2.42012 0
M  V30 11007 C 1154.91 -6.86837 -2.13654 0
M  V30 11008 C 1156.94 -5.50825 -2.15282 0
M  V30 11009 C 1156.3 -6.75071 -2.01142 0
M  V30 11010 H 1152.4 -0.500911 -0.60051 0
M  V30 11011 H 1154.99 -1.65313 -1.02857 0
M  V30 11012 H 1153.16 -1.58096 -3.54768 0
M  V30 11013 H 1154.89 -1.81916 -3.61509 0
M  V30 11014 H 1151.64 -3.71928 -2.932 0
M  V30 11015 H 1152.07 -6.30058 -2.47703 0
M  V30 11016 H 1156.71 -3.39736 -2.51673 0
M  V30 11017 H 1154.43 -7.82257 -2.0273 0
M  V30 11018 H 1158.01 -5.44591 -2.04725 0
M  V30 11019 H 1156.89 -7.63085 -1.8075 0
M  V30 11020 N 1154.4 1.08748 -1.14068 0
M  V30 11021 C 1155.67 1.7769 -0.81766 0
M  V30 11022 C 1156.05 1.99522 0.689501 0
M  V30 11023 O 1155.4 1.60222 1.62914 0
M  V30 11024 C 1155.61 3.09517 -1.61245 0
M  V30 11025 C 1156.96 3.84108 -1.80958 0
M  V30 11026 O 1157.98 3.19289 -1.57902 0
M  V30 11027 O 1156.84 5.00491 -2.19479 0
M  V30 11028 H 1153.94 0.770953 -0.299265 0
M  V30 11029 H 1156.48 1.15242 -1.24569 0
M  V30 11030 H 1155.25 2.89155 -2.63638 0
M  V30 11031 H 1154.88 3.79692 -1.17982 0
M  V30 11032 N 1155.87 0.935264 1.26849 0
M  V30 11033 C 1157.1 0.595704 1.98661 0
M  V30 11034 C 1157.52 -0.821001 1.69237 0
M  V30 11035 O 1156.88 -1.55211 0.936982 0
M  V30 11036 C 1156.93 0.837275 3.50745 0
M  V30 11037 O 1156.03 -0.0934914 4.12294 0
M  V30 11038 H 1155.38 0.228512 0.623441 0
M  V30 11039 H 1157.91 1.25658 1.61466 0
M  V30 11040 H 1157.92 0.755827 4.00938 0
M  V30 11041 H 1156.59 1.86993 3.71492 0
M  V30 11042 H 1155.17 0.0385124 3.7288 0
M  V30 11043 N 1157.35 -1.41121 0.701616 0
M  V30 11044 C 1158.3 -2.30765 0.040121 0
M  V30 11045 C 1159.27 -1.47436 -0.764975 0
M  V30 11046 O 1160.45 -1.76209 -0.731775 0
M  V30 11047 C 1157.59 -3.33535 -0.885903 0
M  V30 11048 C 1156.71 -4.3194 -0.0717765 0
M  V30 11049 C 1155.84 -5.21779 -0.995996 0
M  V30 11050 C 1154.88 -6.11849 -0.175133 0
M  V30 11051 N 1154.02 -6.94151 -1.05348 0
M  V30 11052 H 1158.86 -2.86772 0.810312 0
M  V30 11053 H 1156.4 -1.41233 0.411301 0
M  V30 11054 H 1158.35 -3.91675 -1.4369 0
M  V30 11055 H 1156.98 -2.79065 -1.62243 0
M  V30 11056 H 1156.04 -3.75698 0.596221 0
M  V30 11057 H 1157.35 -4.95597 0.56435 0
M  V30 11058 H 1156.5 -5.84782 -1.61601 0
M  V30 11059 H 1155.24 -4.58363 -1.66597 0
M  V30 11060 H 1154.25 -5.4789 0.457916 0
M  V30 11061 H 1155.47 -6.77322 0.491133 0
M  V30 11062 H 1153.42 -6.33338 -1.70936 0
M  V30 11063 H 1153.33 -7.54518 -0.473065 0
M  V30 11064 H 1154.6 -7.61617 -1.66012 0
M  V30 11065 N 1158.83 -0.446794 -1.51134 0
M  V30 11066 C 1159.74 0.36579 -2.31731 0
M  V30 11067 C 1160.76 1.01886 -1.41051 0
M  V30 11068 O 1161.93 1.01216 -1.74119 0
M  V30 11069 C 1159 1.44705 -3.15058 0
M  V30 11070 C 1158.06 0.813129 -4.21529 0
M  V30 11071 C 1157.29 1.84287 -5.00873 0
M  V30 11072 O 1157.51 3.06633 -4.8097 0
M  V30 11073 O 1156.45 1.42816 -5.84711 0
M  V30 11074 H 1160.27 -0.292436 -3.02289 0
M  V30 11075 H 1157.86 -0.209129 -1.47929 0
M  V30 11076 H 1159.74 2.07393 -3.66833 0
M  V30 11077 H 1158.42 2.08919 -2.47254 0
M  V30 11078 H 1157.32 0.147953 -3.73807 0
M  V30 11079 H 1158.66 0.214331 -4.91733 0
M  V30 11080 N 1160.31 1.56586 -0.178487 0
M  V30 11081 C 1161.26 2.18309 0.74899 0
M  V30 11082 C 1162.23 1.12525 1.22178 0
M  V30 11083 O 1163.41 1.40706 1.28866 0
M  V30 11084 C 1160.55 2.83353 1.9699 0
M  V30 11085 C 1159.66 4.03618 1.54002 0
M  V30 11086 C 1158.8 4.56567 2.71514 0
M  V30 11087 C 1157.84 5.69226 2.25051 0
M  V30 11088 N 1156.97 6.16654 3.35682 0
M  V30 11089 H 1161.81 2.97217 0.21587 0
M  V30 11090 H 1159.35 1.46794 0.0948182 0
M  V30 11091 H 1161.31 3.19226 2.68609 0
M  V30 11092 H 1159.94 2.07037 2.4766 0
M  V30 11093 H 1158.99 3.73518 0.720298 0
M  V30 11094 H 1160.3 4.85148 1.15901 0
M  V30 11095 H 1159.46 4.94659 3.5128 0
M  V30 11096 H 1158.2 3.7411 3.12879 0
M  V30 11097 H 1157.2 5.30679 1.43734 0
M  V30 11098 H 1158.43 6.5349 1.84736 0
M  V30 11099 H 1156.37 5.37124 3.76609 0
M  V30 11100 H 1156.29 6.93192 3.01697 0
M  V30 11101 H 1157.56 6.59397 4.15711 0
M  V30 11102 N 1161.79 -0.095206 1.57312 0
M  V30 11103 C 1162.7 -1.13388 2.05379 0
M  V30 11104 C 1163.71 -1.43868 0.978668 0
M  V30 11105 O 1164.89 -1.54512 1.29182 0
M  V30 11106 C 1161.95 -2.43444 2.46852 0
M  V30 11107 C 1161.01 -2.20146 3.68557 0
M  V30 11108 C 1160.25 -3.44001 4.08043 0
M  V30 11109 O 1160.47 -4.52233 3.47623 0
M  V30 11110 O 1159.4 -3.33596 5.00997 0
M  V30 11111 H 1163.23 -0.755622 2.9415 0
M  V30 11112 H 1160.82 -0.307707 1.46197 0
M  V30 11113 H 1162.7 -3.20027 2.74155 0
M  V30 11114 H 1161.37 -2.80696 1.61219 0
M  V30 11115 H 1160.28 -1.41345 3.46371 0
M  V30 11116 H 1161.61 -1.87787 4.54969 0
M  V30 11117 N 1163.26 -1.53291 -0.366026 0
M  V30 11118 C 1164.17 -1.82656 -1.47221 0
M  V30 11119 C 1165.19 -0.71491 -1.58635 0
M  V30 11120 O 1166.37 -1.00492 -1.74538 0
M  V30 11121 C 1163.43 -2.00995 -2.82492 0
M  V30 11122 C 1162.49 -3.24895 -2.8061 0
M  V30 11123 C 1161.73 -3.4235 -4.09429 0
M  V30 11124 O 1161.95 -2.6411 -5.05571 0
M  V30 11125 O 1160.88 -4.35702 -4.15268 0
M  V30 11126 H 1164.71 -2.76634 -1.2533 0
M  V30 11127 H 1162.29 -1.38665 -0.556084 0
M  V30 11128 H 1164.18 -2.14632 -3.62645 0
M  V30 11129 H 1162.85 -1.10207 -3.04362 0
M  V30 11130 H 1161.76 -3.16682 -1.99157 0
M  V30 11131 H 1163.09 -4.15604 -2.63694 0
M  V30 11132 N 1164.74 0.6258 -1.44643 0
M  V30 11133 C 1165.71 1.71941 -1.51555 0
M  V30 11134 C 1166.71 1.55822 -0.396988 0
M  V30 11135 O 1167.9 1.61221 -0.65981 0
M  V30 11136 C 1165.03 3.11068 -1.39461 0
M  V30 11137 H 1166.22 1.67185 -2.48976 0
M  V30 11138 H 1163.77 0.839934 -1.31814 0
M  V30 11139 H 1164.51 3.21416 -0.431534 0
M  V30 11140 H 1164.29 3.24175 -2.20574 0
M  V30 11141 H 1165.78 3.90762 -1.4729 0
M  V30 11142 N 1166.22 1.31629 0.866686 0
M  V30 11143 C 1167.18 1.1951 1.95576 0
M  V30 11144 C 1168.18 0.121319 1.60342 0
M  V30 11145 O 1169.37 0.370832 1.70207 0
M  V30 11146 C 1166.51 0.835201 3.30511 0
M  V30 11147 H 1167.7 2.16285 2.07752 0
M  V30 11148 H 1165.25 1.15288 1.05539 0
M  V30 11149 H 1165.99 -0.131245 3.24034 0
M  V30 11150 H 1165.77 1.61142 3.57457 0
M  V30 11151 H 1167.26 0.774393 4.10357 0
M  V30 11152 N 1167.7 -1.08142 1.14644 0
M  V30 11153 C 1168.66 -2.13308 0.83859 0
M  V30 11154 C 1169.66 -1.60022 -0.158012 0
M  V30 11155 O 1170.85 -1.74057 0.0706621 0
M  V30 11156 C 1167.98 -3.39978 0.250591 0
M  V30 11157 H 1169.18 -2.42049 1.77066 0
M  V30 11158 H 1166.73 -1.23899 0.952828 0
M  V30 11159 H 1167.47 -3.16873 -0.690064 0
M  V30 11160 H 1167.25 -3.79952 0.968456 0
M  V30 11161 H 1168.74 -4.17567 0.0525115 0
M  V30 11162 N 1169.18 -0.941978 -1.26351 0
M  V30 11163 C 1170.43 -0.588806 -1.93333 0
M  V30 11164 C 1170.75 0.875067 -1.74263 0
M  V30 11165 O 1170.02 1.62187 -1.09873 0
M  V30 11166 H 1168.6 -0.214774 -0.715459 0
M  V30 11167 H 1171.26 -1.19747 -1.53774 0
M  V30 11168 H 1170.35 -0.807267 -3.01479 0
M  V30 11169 N 1170.66 1.40747 -0.709091 0
M  V30 11170 C 1171.57 2.3454 -0.0532205 0
M  V30 11171 C 1172.58 1.56956 0.751057 0
M  V30 11172 O 1173.76 1.89375 0.685509 0
M  V30 11173 C 1170.82 3.35809 0.862157 0
M  V30 11174 C 1169.88 4.29273 0.0485632 0
M  V30 11175 C 1169.12 5.25705 0.920345 0
M  V30 11176 O 1169.34 5.27933 2.15969 0
M  V30 11177 O 1168.27 6.00806 0.3628 0
M  V30 11178 H 1172.1 2.92232 -0.826698 0
M  V30 11179 H 1169.68 1.4183 -0.469519 0
M  V30 11180 H 1171.57 3.97931 1.38668 0
M  V30 11181 H 1170.24 2.8054 1.61489 0
M  V30 11182 H 1169.15 3.70456 -0.520873 0
M  V30 11183 H 1170.48 4.87676 -0.665807 0
M  V30 11184 N 1172.13 0.454803 1.50895 0
M  V30 11185 C 1173.08 -0.366073 2.25042 0
M  V30 11186 C 1174.07 -0.975353 1.27967 0
M  V30 11187 O 1175.26 -0.8906 1.52962 0
M  V30 11188 C 1172.39 -1.45683 3.10856 0
M  V30 11189 C 1171.47 -0.856086 4.1537 0
M  V30 11190 N 1171.87 0.0138787 5.05798 0
M  V30 11191 C 1170.16 -1.1218 4.31661 0
M  V30 11192 C 1170.86 0.35313 5.80627 0
M  V30 11193 N 1169.84 -0.267648 5.42941 0
M  V30 11194 H 1173.64 0.304357 2.9232 0
M  V30 11195 H 1171.16 0.267937 1.60174 0
M  V30 11196 H 1173.15 -2.05793 3.62567 0
M  V30 11197 H 1171.81 -2.12942 2.45124 0
M  V30 11198 H 1172.82 0.381574 5.16492 0
M  V30 11199 H 1169.5 -1.79059 3.77153 0
M  V30 11200 H 1170.89 1.06213 6.63452 0
M  V30 11201 N 1173.61 -1.56489 0.186789 0
M  V30 11202 C 1174.57 -2.17478 -0.723596 0
M  V30 11203 C 1175.57 -1.12698 -1.14699 0
M  V30 11204 O 1176.76 -1.38128 -1.06143 0
M  V30 11205 C 1173.9 -2.77015 -1.98685 0
M  V30 11206 H 1175.09 -2.99282 -0.192403 0
M  V30 11207 H 1172.64 -1.56174 -0.0628153 0
M  V30 11208 H 1173.38 -1.98987 -2.56076 0
M  V30 11209 H 1173.16 -3.53711 -1.69207 0
M  V30 11210 H 1174.65 -3.23872 -2.63622 0
M  V30 11211 N 1175.09 0.086862 -1.5736 0
M  V30 11212 C 1176.34 0.787281 -1.86135 0
M  V30 11213 C 1176.66 1.78866 -0.776667 0
M  V30 11214 O 1175.93 1.94915 0.19625 0
M  V30 11215 H 1174.51 0.293744 -0.686821 0
M  V30 11216 H 1177.17 0.0665326 -1.94786 0
M  V30 11217 H 1176.27 1.3128 -2.83147 0
M  V30 11218 N 1176.57 1.53483 0.357892 0
M  V30 11219 C 1177.82 1.69701 1.09754 0
M  V30 11220 C 1178.14 0.455389 1.89608 0
M  V30 11221 O 1177.41 -0.530623 1.88577 0
M  V30 11222 H 1175.99 0.62562 0.408178 0
M  V30 11223 H 1178.65 1.90696 0.402641 0
M  V30 11224 H 1177.74 2.56154 1.78302 0
M  V30 11225 N 1178.05 -0.61812 1.44973 0
M  V30 11226 C 1178.98 -1.74299 1.48837 0
M  V30 11227 C 1179.99 -1.58296 0.38028 0
M  V30 11228 O 1181.18 -1.66371 0.646757 0
M  V30 11229 C 1178.28 -3.12179 1.31901 0
M  V30 11230 C 1177.45 -3.54519 2.56193 0
M  V30 11231 C 1176.51 -4.71324 2.33966 0
M  V30 11232 O 1175.54 -4.78975 3.07525 0
M  V30 11233 N 1176.74 -5.63894 1.37854 0
M  V30 11234 H 1179.5 -1.7145 2.45815 0
M  V30 11235 H 1177.07 -0.803087 1.40578 0
M  V30 11236 H 1179.06 -3.88059 1.14858 0
M  V30 11237 H 1177.63 -3.09595 0.43239 0
M  V30 11238 H 1176.85 -2.68711 2.88423 0
M  V30 11239 H 1178.14 -3.79563 3.38835 0
M  V30 11240 H 1177.53 -5.60418 0.771273 0
M  V30 11241 H 1176.09 -6.3935 1.26787 0
M  V30 11242 N 1179.52 -1.32087 -0.859693 0
M  V30 11243 C 1180.43 -1.22587 -2.00024 0
M  V30 11244 C 1181.45 -0.140477 -1.73432 0
M  V30 11245 O 1182.63 -0.360213 -1.98153 0
M  V30 11246 C 1179.69 -0.944195 -3.33595 0
M  V30 11247 C 1178.75 -2.11752 -3.73443 0
M  V30 11248 C 1177.98 -1.84919 -5.0064 0
M  V30 11249 O 1178.21 -0.789299 -5.64913 0
M  V30 11250 O 1177.14 -2.70885 -5.37499 0
M  V30 11251 H 1180.97 -2.18457 -2.10974 0
M  V30 11252 H 1178.55 -1.11927 -0.989577 0
M  V30 11253 H 1180.43 -0.803389 -4.13671 0
M  V30 11254 H 1179.11 -0.0156083 -3.23696 0
M  V30 11255 H 1178.02 -2.31378 -2.93965 0
M  V30 11256 H 1179.35 -3.02872 -3.87981 0
M  V30 11257 N 1181 1.07532 -1.15215 0
M  V30 11258 C 1182.25 1.80093 -0.925891 0
M  V30 11259 C 1182.58 1.86648 0.547079 0
M  V30 11260 O 1181.83 1.34492 1.42164 0
M  V30 11261 C 1182.13 3.2518 -1.483 0
M  V30 11262 C 1181.8 3.38728 -2.97614 0
M  V30 11263 C 1180.46 3.42133 -3.38376 0
M  V30 11264 C 1182.81 3.41676 -3.93583 0
M  V30 11265 C 1180.14 3.46086 -4.73752 0
M  V30 11266 C 1182.49 3.47166 -5.28828 0
M  V30 11267 C 1181.15 3.48847 -5.69089 0
M  V30 11268 H 1180.42 0.659007 -0.338808 0
M  V30 11269 H 1183.07 1.26548 -1.43728 0
M  V30 11270 H 1181.38 3.81493 -0.892751 0
M  V30 11271 H 1183.07 3.79895 -1.28376 0
M  V30 11272 H 1179.66 3.36775 -2.65105 0
M  V30 11273 H 1183.85 3.38268 -3.63165 0
M  V30 11274 H 1179.1 3.45686 -5.04293 0
M  V30 11275 H 1183.28 3.48393 -6.02989 0
M  V30 11276 H 1180.9 3.51663 -6.73971 0
M  V30 11277 N 1182.48 0.948665 1.2585 0
M  V30 11278 C 1183.73 0.59905 1.93018 0
M  V30 11279 C 1184.05 -0.865813 1.74725 0
M  V30 11280 O 1183.32 -1.61602 1.10732 0
M  V30 11281 H 1181.9 0.218565 0.71431 0
M  V30 11282 H 1184.56 1.20561 1.53137 0
M  V30 11283 H 1183.66 0.823244 3.01047 0
M  V30 11284 N 1183.96 -1.40369 0.716545 0
M  V30 11285 C 1184.89 -2.33365 0.0793533 0
M  V30 11286 C 1185.87 -1.52943 -0.744482 0
M  V30 11287 O 1187.05 -1.81406 -0.693212 0
M  V30 11288 C 1184.18 -3.36928 -0.842429 0
M  V30 11289 C 1183.14 -4.2782 -0.124142 0
M  V30 11290 C 1182.46 -5.21928 -1.1617 0
M  V30 11291 C 1183.76 -5.12199 1.02224 0
M  V30 11292 H 1185.46 -2.86899 0.856115 0
M  V30 11293 H 1183 -1.37946 0.413138 0
M  V30 11294 H 1184.96 -4.00925 -1.29759 0
M  V30 11295 H 1183.68 -2.81791 -1.6511 0
M  V30 11296 H 1182.34 -3.65277 0.311201 0
M  V30 11297 H 1181.99 -4.63096 -1.96345 0
M  V30 11298 H 1181.69 -5.83582 -0.685978 0
M  V30 11299 H 1183.21 -5.88802 -1.61694 0
M  V30 11300 H 1184.63 -5.69644 0.646399 0
M  V30 11301 H 1183.02 -5.82901 1.4264 0
M  V30 11302 H 1184.09 -4.4812 1.85246 0
M  V30 11303 N 1185.44 -0.462799 -1.50652 0
M  V30 11304 C 1186.35 0.341191 -2.32106 0
M  V30 11305 C 1187.36 1.00384 -1.42123 0
M  V30 11306 O 1188.54 0.993635 -1.75182 0
M  V30 11307 C 1185.6 1.41356 -3.16575 0
M  V30 11308 C 1184.66 0.768375 -4.22368 0
M  V30 11309 C 1183.9 1.78964 -5.028 0
M  V30 11310 O 1184.12 3.01515 -4.84195 0
M  V30 11311 O 1183.05 1.36606 -5.86193 0
M  V30 11312 H 1186.88 -0.324482 -3.01962 0
M  V30 11313 H 1184.47 -0.224807 -1.47699 0
M  V30 11314 H 1186.35 2.0349 -3.69012 0
M  V30 11315 H 1185.02 2.06285 -2.49456 0
M  V30 11316 H 1183.93 0.108297 -3.73943 0
M  V30 11317 H 1185.26 0.162164 -4.91933 0
M  V30 11318 N 1186.91 1.56388 -0.195085 0
M  V30 11319 C 1188.16 1.97189 0.44281 0
M  V30 11320 C 1188.48 1.08312 1.62153 0
M  V30 11321 O 1187.75 0.154404 1.95291 0
M  V30 11322 H 1186.33 0.728188 0.166585 0
M  V30 11323 H 1189 1.92852 -0.281815 0
M  V30 11324 H 1188.09 3.02016 0.786945 0
M  V30 11325 N 1188.39 -0.0785156 1.57404 0
M  V30 11326 C 1189.62 -0.795871 1.91522 0
M  V30 11327 C 1190.04 -1.70665 0.790892 0
M  V30 11328 O 1189.4 -1.79474 -0.25666 0
M  V30 11329 C 1189.45 -1.57121 3.24569 0
M  V30 11330 O 1188.55 -2.6814 3.13328 0
M  V30 11331 H 1187.89 -0.217575 0.627341 0
M  V30 11332 H 1190.42 -0.0487724 2.04542 0
M  V30 11333 H 1190.43 -1.9519 3.5828 0
M  V30 11334 H 1189.11 -0.902909 4.05981 0
M  V30 11335 H 1187.69 -2.32978 2.91163 0
M  V30 11336 N 1189.87 -1.5367 -0.349747 0
M  V30 11337 C 1190.83 -1.80533 -1.41211 0
M  V30 11338 C 1191.83 -0.676188 -1.45892 0
M  V30 11339 O 1193.02 -0.944453 -1.46375 0
M  V30 11340 C 1190.16 -1.94175 -2.80195 0
M  V30 11341 H 1191.35 -2.75428 -1.18658 0
M  V30 11342 H 1188.9 -1.44988 -0.583787 0
M  V30 11343 H 1189.64 -1.01402 -3.08039 0
M  V30 11344 H 1189.42 -2.76316 -2.78194 0
M  V30 11345 H 1190.91 -2.16496 -3.57098 0
M  V30 11346 N 1191.35 0.610423 -1.45298 0
M  V30 11347 C 1192.26 1.74964 -1.56285 0
M  V30 11348 C 1193.27 1.68149 -0.447436 0
M  V30 11349 O 1194.45 1.88556 -0.707725 0
M  V30 11350 C 1191.52 3.11417 -1.52383 0
M  V30 11351 C 1190.58 3.29707 -2.7494 0
M  V30 11352 C 1189.81 4.5965 -2.71215 0
M  V30 11353 O 1190.03 5.41789 -1.78383 0
M  V30 11354 O 1188.97 4.80591 -3.62375 0
M  V30 11355 H 1192.79 1.68646 -2.52571 0
M  V30 11356 H 1190.38 0.774168 -1.27777 0
M  V30 11357 H 1192.26 3.9272 -1.52805 0
M  V30 11358 H 1190.93 3.18232 -0.592472 0
M  V30 11359 H 1189.84 2.48003 -2.80081 0
M  V30 11360 H 1191.17 3.27766 -3.67192 0
M  V30 11361 N 1192.83 1.32541 0.852676 0
M  V30 11362 C 1193.74 1.23646 1.99371 0
M  V30 11363 C 1194.75 0.149673 1.73355 0
M  V30 11364 O 1195.93 0.370716 1.97959 0
M  V30 11365 C 1192.99 0.961873 3.3309 0
M  V30 11366 C 1192.05 2.1373 3.72315 0
M  V30 11367 C 1191.29 1.87572 4.99652 0
M  V30 11368 O 1191.51 0.819247 5.64486 0
M  V30 11369 O 1190.44 2.73732 5.36054 0
M  V30 11370 H 1194.27 2.19573 2.09813 0
M  V30 11371 H 1191.86 1.12451 0.983627 0
M  V30 11372 H 1193.74 0.825316 4.13239 0
M  V30 11373 H 1192.41 0.0327745 3.23683 0
M  V30 11374 H 1191.32 2.32933 2.92733 0
M  V30 11375 H 1192.65 3.04925 3.86369 0
M  V30 11376 N 1194.3 -1.0692 1.15784 0
M  V30 11377 C 1195.21 -2.17762 0.872753 0
M  V30 11378 C 1196.23 -1.73329 -0.152608 0
M  V30 11379 O 1197.41 -2.01387 0.022519 0
M  V30 11380 C 1194.47 -3.4471 0.370887 0
M  V30 11381 C 1193.53 -4.03686 1.46069 0
M  V30 11382 C 1192.77 -5.24575 0.982675 0
M  V30 11383 O 1192.99 -5.70146 -0.17006 0
M  V30 11384 O 1191.92 -5.7534 1.76828 0
M  V30 11385 H 1195.75 -2.44648 1.79948 0
M  V30 11386 H 1193.33 -1.1634 0.937303 0
M  V30 11387 H 1195.22 -4.21287 0.0976779 0
M  V30 11388 H 1193.89 -3.19366 -0.527912 0
M  V30 11389 H 1192.8 -3.28629 1.78756 0
M  V30 11390 H 1194.13 -4.33312 2.33456 0
M  V30 11391 N 1195.78 -0.955326 -1.25345 0
M  V30 11392 C 1197.03 -0.611388 -1.93365 0
M  V30 11393 C 1197.36 0.84953 -1.74633 0
M  V30 11394 O 1196.64 1.60962 -1.09185 0
M  V30 11395 C 1196.92 -0.971732 -3.46741 0
M  V30 11396 C 1196.77 -2.48843 -3.74696 0
M  V30 11397 C 1198.09 -0.497295 -4.37281 0
M  V30 11398 H 1195.21 -0.223591 -0.702265 0
M  V30 11399 H 1197.85 -1.1921 -1.47949 0
M  V30 11400 H 1196 -0.477568 -3.85554 0
M  V30 11401 H 1197.67 -3.05641 -3.45516 0
M  V30 11402 H 1195.92 -2.92582 -3.20278 0
M  V30 11403 H 1196.59 -2.69107 -4.8196 0
M  V30 11404 H 1199.06 -0.921196 -4.05775 0
M  V30 11405 H 1197.94 -0.778113 -5.43357 0
M  V30 11406 H 1198.2 0.602743 -4.37972 0
M  V30 11407 N 1197.26 1.39987 -0.723979 0
M  V30 11408 C 1198.49 2.05037 -0.27702 0
M  V30 11409 C 1198.9 1.54565 1.08421 0
M  V30 11410 O 1198.26 0.705795 1.683 0
M  V30 11411 C 1198.31 3.60582 -0.25751 0
M  V30 11412 O 1198.03 4.09194 -1.565 0
M  V30 11413 C 1199.53 4.42817 0.206972 0
M  V30 11414 H 1196.75 0.659637 -0.122963 0
M  V30 11415 H 1199.3 1.7924 -0.98454 0
M  V30 11416 H 1197.45 3.85319 0.401037 0
M  V30 11417 H 1197.87 5.03447 -1.47112 0
M  V30 11418 H 1199.34 5.5174 0.16947 0
M  V30 11419 H 1199.82 4.21023 1.25045 0
M  V30 11420 H 1200.42 4.23205 -0.421604 0
M  V30 11421 N 1198.74 0.470782 1.50404 0
M  V30 11422 C 1199.99 -0.0841494 2.01925 0
M  V30 11423 C 1200.31 -1.40244 1.35487 0
M  V30 11424 O 1199.58 -1.89409 0.500111 0
M  V30 11425 H 1198.16 -0.0340884 0.746222 0
M  V30 11426 H 1200.82 0.621133 1.84738 0
M  V30 11427 H 1199.92 -0.235877 3.11207 0
M  V30 11428 N 1200.22 -1.56282 0.203376 0
M  V30 11429 C 1201.63 -1.58871 -0.152335 0
M  V30 11430 C 1201.83 -1.21978 -1.60386 0
M  V30 11431 O 1200.89 -0.946422 -2.34092 0
M  V30 11432 C 1202.2 -3.00287 0.157515 0
M  V30 11433 C 1203.75 -3.12846 0.098287 0
M  V30 11434 C 1204.23 -4.56408 0.38156 0
M  V30 11435 N 1205.72 -4.6202 0.330475 0
M  V30 11436 C 1206.45 -5.71006 0.523397 0
M  V30 11437 N 1205.95 -6.88428 0.777115 0
M  V30 11438 N 1207.74 -5.60238 0.457082 0
M  V30 11439 H 1199.89 -1.78543 1.15048 0
M  V30 11440 H 1202.15 -0.829019 0.459816 0
M  V30 11441 H 1201.86 -3.3187 1.16427 0
M  V30 11442 H 1201.73 -3.73372 -0.536041 0
M  V30 11443 H 1204.12 -2.8107 -0.899085 0
M  V30 11444 H 1204.2 -2.42129 0.825045 0
M  V30 11445 H 1203.85 -4.88897 1.37629 0
M  V30 11446 H 1203.78 -5.25325 -0.366182 0
M  V30 11447 H 1206.27 -3.77636 0.141327 0
M  V30 11448 H 1206.58 -7.67389 0.912911 0
M  V30 11449 H 1204.93 -6.90215 0.814104 0
M  V30 11450 H 1208.12 -4.67382 0.259226 0
M  V30 11451 H 1208.29 -6.45114 0.610848 0
M  V30 11452 N 1201.7 0.070167 -1.57444 0
M  V30 11453 C 1202.94 0.767495 -1.8696 0
M  V30 11454 C 1203.26 1.78032 -0.795595 0
M  V30 11455 O 1202.53 1.95112 0.175566 0
M  V30 11456 H 1201.11 0.286443 -0.689898 0
M  V30 11457 H 1203.78 0.0458692 -1.94846 0
M  V30 11458 H 1202.87 1.28269 -2.84523 0
M  V30 11459 N 1203.17 1.53854 0.341593 0
M  V30 11460 C 1204.4 1.75447 1.10604 0
M  V30 11461 C 1204.82 0.493225 1.81518 0
M  V30 11462 O 1204.18 -0.554253 1.7262 0
M  V30 11463 C 1204.23 2.93593 2.09369 0
M  V30 11464 O 1203.33 2.63878 3.16926 0
M  V30 11465 H 1202.67 0.581923 0.319783 0
M  V30 11466 H 1205.2 2.00822 0.391388 0
M  V30 11467 H 1205.21 3.20437 2.52556 0
M  V30 11468 H 1203.89 3.85067 1.57151 0
M  V30 11469 H 1202.47 2.47929 2.78542 0
M  V30 11470 N 1204.65 -0.602709 1.4562 0
M  V30 11471 C 1205.58 -1.7271 1.50678 0
M  V30 11472 C 1206.6 -1.57884 0.397048 0
M  V30 11473 O 1207.79 -1.65676 0.664367 0
M  V30 11474 C 1204.89 -3.10762 1.35204 0
M  V30 11475 C 1204.06 -3.51782 2.59939 0
M  V30 11476 C 1203.12 -4.68816 2.38952 0
M  V30 11477 O 1202.14 -4.75686 3.12588 0
M  V30 11478 N 1203.35 -5.624 1.43827 0
M  V30 11479 H 1206.11 -1.68833 2.47619 0
M  V30 11480 H 1203.67 -0.788131 1.41422 0
M  V30 11481 H 1205.66 -3.86819 1.18967 0
M  V30 11482 H 1204.23 -3.09119 0.465203 0
M  V30 11483 H 1203.45 -2.65637 2.91257 0
M  V30 11484 H 1204.74 -3.75948 3.42842 0
M  V30 11485 H 1204.14 -5.59568 0.830669 0
M  V30 11486 H 1202.7 -6.37969 1.33561 0
M  V30 11487 N 1206.13 -1.32992 -0.845635 0
M  V30 11488 C 1207.38 -1.24249 -1.60281 0
M  V30 11489 C 1207.71 0.193049 -1.93238 0
M  V30 11490 O 1206.98 1.1326 -1.58122 0
M  V30 11491 C 1207.27 -2.1111 -2.91727 0
M  V30 11492 C 1207.12 -3.63088 -2.65494 0
M  V30 11493 C 1208.44 -1.97913 -3.93089 0
M  V30 11494 H 1205.56 -0.452698 -0.581578 0
M  V30 11495 H 1208.2 -1.63026 -0.975828 0
M  V30 11496 H 1206.35 -1.78169 -3.45236 0
M  V30 11497 H 1208.02 -4.06287 -2.18469 0
M  V30 11498 H 1206.26 -3.85304 -1.99306 0
M  V30 11499 H 1206.94 -4.19202 -3.59129 0
M  V30 11500 H 1209.41 -2.26788 -3.48864 0
M  V30 11501 H 1208.29 -2.60952 -4.82903 0
M  V30 11502 H 1208.55 -0.949378 -4.31786 0
M  V30 11503 N 1207.61 1.06304 -1.1635 0
M  V30 11504 C 1208.52 2.17296 -0.884289 0
M  V30 11505 C 1209.53 1.73408 0.143414 0
M  V30 11506 O 1210.71 2.01373 -0.0331987 0
M  V30 11507 C 1207.77 3.44509 -0.389163 0
M  V30 11508 C 1206.84 4.02906 -1.48208 0
M  V30 11509 C 1206.07 5.24047 -1.01048 0
M  V30 11510 O 1206.29 5.70229 0.139821 0
M  V30 11511 O 1205.23 5.74394 -1.79876 0
M  V30 11512 H 1209.05 2.4369 -1.81243 0
M  V30 11513 H 1206.64 1.15841 -0.943459 0
M  V30 11514 H 1208.52 4.21229 -0.120018 0
M  V30 11515 H 1207.19 3.19642 0.510968 0
M  V30 11516 H 1206.1 3.27677 -1.80496 0
M  V30 11517 H 1207.43 4.32068 -2.35751 0
M  V30 11518 N 1209.09 0.96196 1.24836 0
M  V30 11519 C 1210.05 0.492443 2.23847 0
M  V30 11520 C 1211.05 -0.40788 1.55541 0
M  V30 11521 O 1212.24 -0.204143 1.73 0
M  V30 11522 C 1209.37 -0.287578 3.39685 0
M  V30 11523 H 1210.56 1.36767 2.66899 0
M  V30 11524 H 1208.12 0.745967 1.3735 0
M  V30 11525 H 1208.85 -1.18015 3.02064 0
M  V30 11526 H 1208.64 0.358431 3.90458 0
M  V30 11527 H 1210.13 -0.605297 4.1319 0
M  V30 11528 N 1210.56 -1.39601 0.731392 0
M  V30 11529 C 1211.81 -2.00586 0.277756 0
M  V30 11530 C 1212.14 -1.58027 -1.13391 0
M  V30 11531 O 1211.39 -0.798691 -1.7866 0
M  V30 11532 C 1211.69 -3.55934 0.323352 0
M  V30 11533 C 1211.36 -4.18131 1.68753 0
M  V30 11534 C 1210.02 -4.34833 2.06092 0
M  V30 11535 C 1212.37 -4.5267 2.58339 0
M  V30 11536 C 1209.7 -4.83362 3.32532 0
M  V30 11537 C 1212.05 -5.02607 3.84148 0
M  V30 11538 C 1210.72 -5.17517 4.21584 0
M  V30 11539 H 1209.99 -0.733996 0.101638 0
M  V30 11540 H 1212.63 -1.66981 0.937528 0
M  V30 11541 H 1210.94 -3.89542 -0.419995 0
M  V30 11542 H 1212.64 -4.00974 -0.0457235 0
M  V30 11543 H 1209.23 -4.0553 1.38722 0
M  V30 11544 H 1213.41 -4.39388 2.30763 0
M  V30 11545 H 1208.67 -4.93091 3.61485 0
M  V30 11546 H 1212.84 -5.28306 4.53724 0
M  V30 11547 H 1210.47 -5.54882 5.19625 0
M  V30 11548 N 1212.04 -0.478751 -1.50152 0
M  V30 11549 C 1212.95 0.316554 -2.32455 0
M  V30 11550 C 1213.97 0.98871 -1.4318 0
M  V30 11551 O 1215.14 0.974998 -1.76226 0
M  V30 11552 C 1212.21 1.3799 -3.18056 0
M  V30 11553 C 1211.27 0.723534 -4.23159 0
M  V30 11554 C 1210.5 1.73621 -5.0467 0
M  V30 11555 O 1210.73 2.96362 -4.87366 0
M  V30 11556 O 1209.66 1.30381 -5.87609 0
M  V30 11557 H 1213.49 -0.356491 -3.016 0
M  V30 11558 H 1211.07 -0.24046 -1.47452 0
M  V30 11559 H 1212.95 1.99565 -3.71149 0
M  V30 11560 H 1211.63 2.03627 -2.5163 0
M  V30 11561 H 1210.54 0.0686296 -3.74037 0
M  V30 11562 H 1211.87 0.109979 -4.92077 0
M  V30 11563 N 1213.52 1.56172 -0.211661 0
M  V30 11564 C 1214.75 2.02874 0.430905 0
M  V30 11565 C 1215.17 1.09064 1.53254 0
M  V30 11566 O 1214.53 0.0770408 1.81136 0
M  V30 11567 C 1214.58 3.4789 0.948933 0
M  V30 11568 O 1213.68 3.57213 2.0609 0
M  V30 11569 H 1213.02 0.656614 0.0987607 0
M  V30 11570 H 1215.55 2.01964 -0.327399 0
M  V30 11571 H 1215.56 3.88015 1.2613 0
M  V30 11572 H 1214.24 4.15656 0.142584 0
M  V30 11573 H 1212.81 3.28971 1.75592 0
M  V30 11574 N 1215 -0.0618163 1.57479 0
M  V30 11575 C 1216.41 -0.416827 1.54061 0
M  V30 11576 C 1216.61 -1.78584 0.933277 0
M  V30 11577 O 1215.67 -2.46656 0.54009 0
M  V30 11578 C 1216.98 -0.348728 2.98671 0
M  V30 11579 C 1218.53 -0.428194 3.10057 0
M  V30 11580 C 1219.01 -0.389898 4.56337 0
M  V30 11581 N 1220.5 -0.449677 4.61012 0
M  V30 11582 C 1221.23 -0.442418 5.71691 0
M  V30 11583 N 1220.73 -0.389381 6.91705 0
M  V30 11584 N 1222.52 -0.489719 5.59963 0
M  V30 11585 H 1214.67 0.834487 1.9532 0
M  V30 11586 H 1216.94 0.314149 0.894435 0
M  V30 11587 H 1216.64 0.590738 3.46703 0
M  V30 11588 H 1216.52 -1.15511 3.59078 0
M  V30 11589 H 1218.9 -1.35808 2.61992 0
M  V30 11590 H 1218.98 0.406946 2.52542 0
M  V30 11591 H 1218.63 0.536186 5.05062 0
M  V30 11592 H 1218.56 -1.24271 5.11727 0
M  V30 11593 H 1221.05 -0.49451 3.74651 0
M  V30 11594 H 1221.36 -0.388042 7.71825 0
M  V30 11595 H 1219.71 -0.355918 6.94088 0
M  V30 11596 H 1222.9 -0.528915 4.65102 0
M  V30 11597 H 1223.07 -0.480592 6.46215 0
M  V30 11598 N 1216.48 -1.54033 -0.333429 0
M  V30 11599 C 1217.39 -1.85737 -1.43314 0
M  V30 11600 C 1218.4 -0.748398 -1.57083 0
M  V30 11601 O 1219.58 -1.04171 -1.72367 0
M  V30 11602 C 1216.64 -2.06942 -2.78165 0
M  V30 11603 C 1215.7 -3.30774 -2.73655 0
M  V30 11604 C 1214.94 -3.50957 -4.02075 0
M  V30 11605 O 1215.16 -2.74774 -4.99855 0
M  V30 11606 O 1214.09 -4.44412 -4.05933 0
M  V30 11607 H 1217.92 -2.7923 -1.19434 0
M  V30 11608 H 1215.51 -1.39814 -0.526546 0
M  V30 11609 H 1217.39 -2.22276 -3.58011 0
M  V30 11610 H 1216.06 -1.16638 -3.01956 0
M  V30 11611 H 1214.97 -3.20835 -1.92395 0
M  V30 11612 H 1216.3 -4.21103 -2.54819 0
M  V30 11613 N 1217.95 0.594978 -1.45938 0
M  V30 11614 C 1219.2 1.35093 -1.50314 0
M  V30 11615 C 1219.52 1.94412 -0.151315 0
M  V30 11616 O 1218.79 1.77876 0.820787 0
M  V30 11617 H 1217.37 0.501549 -0.553586 0
M  V30 11618 H 1220.04 0.697735 -1.81983 0
M  V30 11619 H 1219.13 2.16393 -2.24901 0
M  V30 11620 N 1219.43 1.33438 0.838571 0
M  V30 11621 C 1220.68 1.24665 1.59069 0
M  V30 11622 C 1221 -0.187433 1.94097 0
M  V30 11623 O 1220.27 -1.11625 1.60987 0
M  V30 11624 H 1218.85 0.45843 0.589789 0
M  V30 11625 H 1221.51 1.67161 1.00216 0
M  V30 11626 H 1220.61 1.84057 2.52051 0
M  V30 11627 N 1220.91 -1.05686 1.16912 0
M  V30 11628 C 1222.32 -1.60059 0.961153 0
M  V30 11629 C 1222.67 -1.89894 -0.493409 0
M  V30 11630 O 1221.8 -1.67692 -1.36778 0
M  V30 11631 C 1222.39 -2.90803 1.73837 0
M  V30 11632 C 1220.95 -3.41854 1.57522 0
M  V30 11633 C 1220.1 -2.15658 1.74319 0
M  V30 11634 H 1223.05 -0.885592 1.31693 0
M  V30 11635 H 1223.07 -3.60485 1.21781 0
M  V30 11636 H 1222.58 -2.69056 2.79697 0
M  V30 11637 H 1220.68 -3.68647 0.541284 0
M  V30 11638 H 1220.8 -4.16771 2.36302 0
M  V30 11639 H 1219.16 -2.26177 1.17115 0
M  V30 11640 H 1219.94 -1.96386 2.8158 0
M  V30 11641 N 1222.39 -0.968567 -1.24324 0
M  V30 11642 C 1223.63 -0.641458 -1.9302 0
M  V30 11643 C 1223.99 0.814553 -1.74307 0
M  V30 11644 O 1223.28 1.57848 -1.08603 0
M  V30 11645 C 1223.48 -0.952762 -3.44467 0
M  V30 11646 C 1223.31 -2.43748 -3.77911 0
M  V30 11647 C 1222.08 -3.09746 -3.99231 0
M  V30 11648 C 1224.27 -3.4176 -3.84324 0
M  V30 11649 N 1222.26 -4.47947 -4.19782 0
M  V30 11650 C 1223.63 -4.65321 -4.09728 0
M  V30 11651 C 1225.68 -3.36406 -3.67064 0
M  V30 11652 C 1224.38 -5.84186 -4.19665 0
M  V30 11653 C 1226.41 -4.54624 -3.78248 0
M  V30 11654 C 1225.77 -5.76976 -4.04077 0
M  V30 11655 H 1221.87 -0.285584 -0.727987 0
M  V30 11656 H 1224.46 -1.2436 -1.49808 0
M  V30 11657 H 1222.63 -0.379421 -3.86542 0
M  V30 11658 H 1224.36 -0.584137 -4.00462 0
M  V30 11659 H 1221.11 -2.60274 -3.95669 0
M  V30 11660 H 1221.54 -5.19559 -4.34036 0
M  V30 11661 H 1226.18 -2.42847 -3.461 0
M  V30 11662 H 1223.9 -6.78172 -4.3944 0
M  V30 11663 H 1227.48 -4.52043 -3.66262 0
M  V30 11664 H 1226.36 -6.66925 -4.1253 0
M  V30 11665 N 1223.87 1.39211 -0.738786 0
M  V30 11666 C 1225.11 2.0004 -0.28782 0
M  V30 11667 C 1225.44 1.58921 1.13 0
M  V30 11668 O 1224.71 0.839193 1.77015 0
M  V30 11669 H 1223.29 0.739805 -0.103425 0
M  V30 11670 H 1225.95 1.70202 -0.949587 0
M  V30 11671 H 1225.04 3.10251 -0.339208 0
M  V30 11672 N 1225.34 0.486708 1.49896 0
M  V30 11673 C 1226.59 -0.0627279 2.02003 0
M  V30 11674 C 1226.91 -1.38799 1.36967 0
M  V30 11675 O 1226.18 -1.88868 0.520173 0
M  V30 11676 H 1224.76 -0.0261718 0.746541 0
M  V30 11677 H 1227.43 0.640692 1.84068 0
M  V30 11678 H 1226.52 -0.202856 3.1144 0
M  V30 11679 N 1226.82 -1.56058 0.219941 0
M  V30 11680 C 1228.24 -1.59024 -0.135476 0
M  V30 11681 C 1228.44 -1.23672 -1.59083 0
M  V30 11682 O 1227.5 -0.971197 -2.33075 0
M  V30 11683 C 1228.81 -3.00103 0.189356 0
M  V30 11684 C 1230.36 -3.12724 0.131463 0
M  V30 11685 C 1230.83 -4.55977 0.429947 0
M  V30 11686 N 1232.32 -4.61643 0.37946 0
M  V30 11687 C 1233.06 -5.70419 0.58393 0
M  V30 11688 N 1232.55 -6.87565 0.850088 0
M  V30 11689 N 1234.35 -5.59722 0.516477 0
M  V30 11690 H 1226.5 -1.77313 1.16935 0
M  V30 11691 H 1228.76 -0.824096 0.468583 0
M  V30 11692 H 1228.47 -3.30616 1.19941 0
M  V30 11693 H 1228.34 -3.73919 -0.49641 0
M  V30 11694 H 1230.73 -2.82008 -0.869223 0
M  V30 11695 H 1230.81 -2.41241 0.85068 0
M  V30 11696 H 1230.45 -4.8741 1.42806 0
M  V30 11697 H 1230.38 -5.25684 -0.310444 0
M  V30 11698 H 1232.87 -3.77465 0.181373 0
M  V30 11699 H 1233.19 -7.66378 0.994251 0
M  V30 11700 H 1231.53 -6.89313 0.887265 0
M  V30 11701 H 1234.72 -4.6708 0.308784 0
M  V30 11702 H 1234.9 -6.4443 0.679236 0
M  V30 11703 N 1228.3 0.053464 -1.57509 0
M  V30 11704 C 1229.55 0.750212 -1.88414 0
M  V30 11705 C 1229.88 1.76288 -0.814619 0
M  V30 11706 O 1229.16 1.93728 0.173136 0
M  V30 11707 C 1229.44 1.44176 -3.29978 0
M  V30 11708 C 1229.29 0.444263 -4.47601 0
M  V30 11709 C 1230.61 2.38207 -3.70061 0
M  V30 11710 H 1227.73 0.271266 -0.685262 0
M  V30 11711 H 1230.37 0.0131676 -1.89995 0
M  V30 11712 H 1228.52 2.07001 -3.2876 0
M  V30 11713 H 1230.19 -0.180182 -4.60948 0
M  V30 11714 H 1228.44 -0.238771 -4.33142 0
M  V30 11715 H 1229.11 0.966134 -5.43479 0
M  V30 11716 H 1231.58 1.85446 -3.7249 0
M  V30 11717 H 1230.46 2.83588 -4.69967 0
M  V30 11718 H 1230.72 3.23821 -3.00985 0
M  V30 11719 N 1229.78 1.54207 0.325255 0
M  V30 11720 C 1230.69 1.86495 1.42326 0
M  V30 11721 C 1231.71 0.756718 1.56684 0
M  V30 11722 O 1232.88 1.05084 1.71812 0
M  V30 11723 C 1229.95 2.08414 2.77064 0
M  V30 11724 C 1229.01 3.32221 2.71897 0
M  V30 11725 C 1228.24 3.53085 4.00209 0
M  V30 11726 O 1228.46 2.77421 4.98391 0
M  V30 11727 O 1227.4 4.46559 4.0357 0
M  V30 11728 H 1231.22 2.79859 1.17951 0
M  V30 11729 H 1228.81 1.40091 0.519124 0
M  V30 11730 H 1230.69 2.24171 3.56827 0
M  V30 11731 H 1229.37 1.18238 3.01333 0
M  V30 11732 H 1228.27 3.21851 1.90691 0
M  V30 11733 H 1229.61 4.22449 2.52582 0
M  V30 11734 N 1231.26 -0.58723 1.46251 0
M  V30 11735 C 1232.22 -1.67863 1.5606 0
M  V30 11736 C 1233.22 -1.54715 0.438162 0
M  V30 11737 O 1234.41 -1.59415 0.702323 0
M  V30 11738 C 1231.54 -3.07262 1.47659 0
M  V30 11739 H 1232.74 -1.60525 2.53321 0
M  V30 11740 H 1230.29 -0.804691 1.33994 0
M  V30 11741 H 1231.02 -3.20159 0.5166 0
M  V30 11742 H 1230.81 -3.18213 2.29092 0
M  V30 11743 H 1232.3 -3.8672 1.57599 0
M  V30 11744 N 1232.74 -1.33881 -0.831482 0
M  V30 11745 C 1233.65 -1.26802 -1.97379 0
M  V30 11746 C 1234.66 -0.177233 -1.73095 0
M  V30 11747 O 1235.84 -0.402163 -1.97344 0
M  V30 11748 C 1232.9 -1.01474 -3.31517 0
M  V30 11749 C 1231.96 -2.19626 -3.68867 0
M  V30 11750 C 1231.2 -1.95497 -4.96605 0
M  V30 11751 O 1231.42 -0.908948 -5.63111 0
M  V30 11752 O 1230.35 -2.82226 -5.31632 0
M  V30 11753 H 1234.18 -2.22883 -2.06293 0
M  V30 11754 H 1231.76 -1.14001 -0.965613 0
M  V30 11755 H 1233.65 -0.890954 -4.11874 0
M  V30 11756 H 1232.32 -0.0842656 -3.2359 0
M  V30 11757 H 1231.23 -2.37561 -2.88991 0
M  V30 11758 H 1232.56 -3.11034 -3.81469 0
M  V30 11759 N 1234.21 1.05064 -1.1747 0
M  V30 11760 C 1235.12 2.16346 -0.907286 0
M  V30 11761 C 1236.14 1.7355 0.125013 0
M  V30 11762 O 1237.32 2.01326 -0.0545551 0
M  V30 11763 C 1234.38 3.44077 -0.425681 0
M  V30 11764 C 1233.44 4.01311 -1.52473 0
M  V30 11765 C 1232.67 5.22946 -1.06601 0
M  V30 11766 O 1232.9 5.70345 0.0793329 0
M  V30 11767 O 1231.83 5.72454 -1.85958 0
M  V30 11768 H 1235.66 2.41754 -1.83817 0
M  V30 11769 H 1233.24 1.14834 -0.955693 0
M  V30 11770 H 1235.12 4.21078 -0.164689 0
M  V30 11771 H 1233.8 3.20166 0.477037 0
M  V30 11772 H 1232.71 3.25744 -1.83961 0
M  V30 11773 H 1234.04 4.29543 -2.4032 0
M  V30 11774 N 1235.69 0.975146 1.23809 0
M  V30 11775 C 1236.92 0.658605 1.96665 0
M  V30 11776 C 1237.34 -0.766744 1.71763 0
M  V30 11777 O 1236.7 -1.52151 0.985887 0
M  V30 11778 C 1236.75 0.948438 3.47904 0
M  V30 11779 O 1235.85 0.0377241 4.12383 0
M  V30 11780 H 1235.19 0.248231 0.615855 0
M  V30 11781 H 1237.72 1.30732 1.57386 0
M  V30 11782 H 1237.73 0.883 3.9833 0
M  V30 11783 H 1236.41 1.98717 3.65355 0
M  V30 11784 H 1234.98 0.157122 3.72569 0
M  V30 11785 N 1237.17 -1.38817 0.746158 0
M  V30 11786 C 1238.13 -2.28876 0.121886 0
M  V30 11787 C 1239.13 -1.46838 -0.655379 0
M  V30 11788 O 1240.32 -1.67377 -0.482744 0
M  V30 11789 C 1237.45 -3.30487 -0.836118 0
M  V30 11790 H 1238.65 -2.85586 0.915453 0
M  V30 11791 H 1236.2 -1.47652 0.512691 0
M  V30 11792 H 1236.94 -2.78853 -1.65563 0
M  V30 11793 H 1236.72 -3.9109 -0.281271 0
M  V30 11794 H 1238.21 -3.97848 -1.26914 0
M  V30 11795 N 1238.65 -0.49465 -1.49636 0
M  V30 11796 C 1239.9 0.0520143 -2.02033 0
M  V30 11797 C 1240.22 1.38071 -1.37701 0
M  V30 11798 O 1239.49 1.88589 -0.530181 0
M  V30 11799 H 1238.07 0.0222123 -0.74667 0
M  V30 11800 H 1240.73 -0.650445 -1.83726 0
M  V30 11801 H 1239.82 0.186337 -3.11543 0
M  V30 11802 N 1240.13 1.55939 -0.228214 0
M  V30 11803 C 1241.09 2.1932 0.665681 0
M  V30 11804 C 1242.09 1.15699 1.11671 0
M  V30 11805 O 1243.28 1.40893 1.02444 0
M  V30 11806 C 1240.41 2.82185 1.9127 0
M  V30 11807 H 1241.6 2.99687 0.112986 0
M  V30 11808 H 1239.16 1.56285 0.0213865 0
M  V30 11809 H 1239.89 2.05706 2.5071 0
M  V30 11810 H 1239.68 3.58073 1.5977 0
M  V30 11811 H 1241.17 3.30748 2.54942 0
M  V30 11812 N 1241.6 -0.0451101 1.57535 0
M  V30 11813 C 1242.51 -1.06796 2.08882 0
M  V30 11814 C 1243.53 -1.40682 1.02394 0
M  V30 11815 O 1244.71 -1.50324 1.34033 0
M  V30 11816 C 1241.77 -2.35467 2.54472 0
M  V30 11817 C 1240.83 -2.0831 3.75374 0
M  V30 11818 C 1240.07 -3.30846 4.1878 0
M  V30 11819 O 1240.29 -4.40945 3.61834 0
M  V30 11820 O 1239.22 -3.17488 5.11356 0
M  V30 11821 H 1243.05 -0.661658 2.96405 0
M  V30 11822 H 1240.63 -0.26104 1.47102 0
M  V30 11823 H 1242.52 -3.11143 2.84198 0
M  V30 11824 H 1241.19 -2.75425 1.70068 0
M  V30 11825 H 1240.1 -1.30254 3.50692 0
M  V30 11826 H 1241.43 -1.73218 4.60713 0
M  V30 11827 N 1243.08 -1.54377 -0.317073 0
M  V30 11828 C 1244.36 -1.63551 -1.07287 0
M  V30 11829 C 1244.74 -0.473499 -2.05721 0
M  V30 11830 O 1244.09 0.531545 -2.22232 0
M  V30 11831 C 1244.3 -3.00842 -1.76904 0
M  V30 11832 C 1245.65 -3.57111 -2.29689 0
M  V30 11833 O 1246.67 -3.0319 -1.86961 0
M  V30 11834 O 1245.53 -4.51486 -3.07932 0
M  V30 11835 H 1242.62 -0.662557 -0.494922 0
M  V30 11836 H 1245.17 -1.66723 -0.316444 0
M  V30 11837 H 1243.94 -3.76854 -1.05341 0
M  V30 11838 H 1243.56 -3.01377 -2.59341 0
M  V30 11839 N 1244.56 0.579466 -1.4656 0
M  V30 11840 C 1245.79 1.36837 -1.55854 0
M  V30 11841 C 1246.21 1.87019 -0.20141 0
M  V30 11842 O 1245.57 1.61746 0.81901 0
M  V30 11843 C 1245.62 2.52965 -2.56985 0
M  V30 11844 O 1244.72 3.54505 -2.10713 0
M  V30 11845 H 1244.06 0.407379 -0.524345 0
M  V30 11846 H 1246.59 0.702558 -1.9216 0
M  V30 11847 H 1246.6 2.99838 -2.76697 0
M  V30 11848 H 1245.28 2.15793 -3.55536 0
M  V30 11849 H 1243.85 3.14089 -2.01003 0
M  V30 11850 N 1246.04 1.3432 0.824371 0
M  V30 11851 C 1247.28 1.27942 1.59405 0
M  V30 11852 C 1247.64 -0.148961 1.91421 0
M  V30 11853 O 1248.84 -0.336891 2.6668 0
M  V30 11854 C 1247.11 2.14393 2.85955 0
M  V30 11855 S 1248.67 2.25354 3.76512 0
M  V30 11856 H 1245.49 0.454953 0.546387 0
M  V30 11857 H 1248.09 1.69517 0.973873 0
M  V30 11858 H 1246.8 3.17182 2.60429 0
M  V30 11859 H 1246.33 1.7371 3.52971 0
M  V30 11860 H 1248.34 1.42526 4.7529 0
M  V30 11861 N 1247.52 -1.0444 1.18026 0
M  V30 11862 C 1248.76 -1.77224 0.971391 0
M  V30 11863 C 1249.09 -1.88466 -0.500564 0
M  V30 11864 O 1248.36 -1.40692 -1.36317 0
M  V30 11865 H 1246.94 -0.656485 0.356422 0
M  V30 11866 H 1249.6 -1.26064 1.4864 0
M  V30 11867 H 1248.69 -2.78626 1.4062 0
M  V30 11868 N 1248.99 -0.981699 -1.2329 0
M  V30 11869 C 1249.92 -0.542441 -2.27112 0
M  V30 11870 C 1250.91 0.425034 -1.64704 0
M  V30 11871 O 1252.09 0.318114 -1.91577 0
M  V30 11872 C 1249.22 0.154668 -3.46955 0
M  V30 11873 C 1248.17 -0.73022 -4.21725 0
M  V30 11874 C 1247.5 0.0991766 -5.34608 0
M  V30 11875 C 1248.8 -2.02166 -4.81587 0
M  V30 11876 H 1250.49 -1.41024 -2.64107 0
M  V30 11877 H 1248.04 -0.679544 -1.26957 0
M  V30 11878 H 1249.99 0.473281 -4.18734 0
M  V30 11879 H 1248.72 1.05693 -3.09025 0
M  V30 11880 H 1247.38 -1.03231 -3.51765 0
M  V30 11881 H 1247.02 1.00201 -4.92919 0
M  V30 11882 H 1246.72 -0.489788 -5.85555 0
M  V30 11883 H 1248.25 0.412141 -6.09207 0
M  V30 11884 H 1249.66 -1.76773 -5.45366 0
M  V30 11885 H 1248.06 -2.55851 -5.42826 0
M  V30 11886 H 1249.13 -2.70766 -4.02261 0
M  V30 11887 N 1250.47 1.3842 -0.753509 0
M  V30 11888 C 1251.75 1.94181 -0.235142 0
M  V30 11889 C 1252.13 1.68881 1.26659 0
M  V30 11890 O 1251.48 1.02731 2.04104 0
M  V30 11891 C 1251.69 3.43998 -0.588751 0
M  V30 11892 C 1253.04 4.21044 -0.548352 0
M  V30 11893 O 1254.06 3.52279 -0.52704 0
M  V30 11894 O 1252.92 5.43631 -0.559221 0
M  V30 11895 H 1250.01 0.825536 -0.0491834 0
M  V30 11896 H 1252.56 1.47813 -0.833626 0
M  V30 11897 H 1251.33 3.55921 -1.6259 0
M  V30 11898 H 1250.95 3.97582 0.0377429 0
M  V30 11899 N 1251.95 0.502579 1.49372 0
M  V30 11900 C 1253.36 0.055187 1.86618 0
M  V30 11901 C 1253.71 -1.35938 1.41476 0
M  V30 11902 O 1252.84 -2.01333 0.793338 0
M  V30 11903 C 1253.43 0.0933734 3.38671 0
M  V30 11904 C 1251.99 -0.298685 3.75213 0
M  V30 11905 C 1251.14 0.465216 2.7337 0
M  V30 11906 H 1254.09 0.715281 1.41667 0
M  V30 11907 H 1254.11 -0.701549 3.73977 0
M  V30 11908 H 1253.62 1.12303 3.71497 0
M  V30 11909 H 1251.72 -1.33151 3.47996 0
M  V30 11910 H 1251.84 0.0218637 4.79095 0
M  V30 11911 H 1250.2 -0.0851469 2.54558 0
M  V30 11912 H 1250.98 1.49498 3.09039 0
M  V30 11913 N 1253.43 -1.55816 0.23648 0
M  V30 11914 C 1254.39 -2.1967 -0.654041 0
M  V30 11915 C 1255.39 -1.1629 -1.11056 0
M  V30 11916 O 1256.58 -1.41435 -1.01695 0
M  V30 11917 C 1253.71 -2.83196 -1.89771 0
M  V30 11918 H 1254.91 -2.99743 -0.0970911 0
M  V30 11919 H 1252.46 -1.56295 -0.013098 0
M  V30 11920 H 1253.19 -2.07033 -2.49616 0
M  V30 11921 H 1252.98 -3.58915 -1.57868 0
M  V30 11922 H 1254.47 -3.32095 -2.53184 0
M  V30 11923 N 1254.91 0.036755 -1.57557 0
M  V30 11924 C 1256.15 0.727665 -1.88546 0
M  V30 11925 C 1256.48 1.76304 -0.833179 0
M  V30 11926 O 1255.75 1.9544 0.13414 0
M  V30 11927 H 1254.33 0.271744 -0.695819 0
M  V30 11928 H 1256.99 0.00452915 -1.94899 0
M  V30 11929 H 1256.08 1.22205 -2.8718 0
M  V30 11930 N 1256.39 1.54543 0.308881 0
M  V30 11931 C 1257.61 1.77753 1.06857 0
M  V30 11932 C 1258.04 0.531616 1.80431 0
M  V30 11933 O 1257.39 -0.517513 1.73757 0
M  V30 11934 C 1257.44 2.97968 2.03094 0
M  V30 11935 O 1256.55 2.70541 3.11257 0
M  V30 11936 H 1255.89 0.588576 0.307368 0
M  V30 11937 H 1258.42 2.01607 0.348703 0
M  V30 11938 H 1258.43 3.25722 2.45702 0
M  V30 11939 H 1257.1 3.88314 1.48948 0
M  V30 11940 H 1255.68 2.53781 2.7322 0
M  V30 11941 N 1257.86 -0.571685 1.46866 0
M  V30 11942 C 1258.8 -1.69475 1.54307 0
M  V30 11943 C 1259.81 -1.57006 0.430449 0
M  V30 11944 O 1261 -1.64229 0.69936 0
M  V30 11945 C 1258.1 -3.07824 1.41766 0
M  V30 11946 C 1257.27 -3.46189 2.67342 0
M  V30 11947 C 1256.33 -4.63642 2.48843 0
M  V30 11948 O 1255.36 -4.68949 3.22608 0
M  V30 11949 N 1256.56 -5.59223 1.55724 0
M  V30 11950 H 1259.32 -1.63543 2.51145 0
M  V30 11951 H 1256.88 -0.757957 1.43062 0
M  V30 11952 H 1258.88 -3.84208 1.27146 0
M  V30 11953 H 1257.45 -3.08063 0.530667 0
M  V30 11954 H 1256.67 -2.59399 2.96826 0
M  V30 11955 H 1257.95 -3.68591 3.50739 0
M  V30 11956 H 1257.35 -5.5768 0.949175 0
M  V30 11957 H 1255.91 -6.34993 1.47063 0
M  V30 11958 N 1259.34 -1.34755 -0.817236 0
M  V30 11959 C 1260.57 -1.30522 -1.60536 0
M  V30 11960 C 1260.98 0.119541 -1.88421 0
M  V30 11961 O 1260.34 1.06833 -1.47962 0
M  V30 11962 C 1260.39 -2.09939 -2.94292 0
M  V30 11963 O 1260.11 -3.46858 -2.67621 0
M  V30 11964 C 1261.61 -2.13168 -3.88683 0
M  V30 11965 H 1258.83 -0.448789 -0.498828 0
M  V30 11966 H 1261.38 -1.77453 -1.01639 0
M  V30 11967 H 1259.53 -1.66634 -3.49731 0
M  V30 11968 H 1259.95 -3.87979 -3.52949 0
M  V30 11969 H 1261.42 -2.73147 -4.79682 0
M  V30 11970 H 1261.9 -1.12758 -4.24479 0
M  V30 11971 H 1262.5 -2.56587 -3.39181 0
M  V30 11972 N 1260.82 1.03812 -1.18578 0
M  V30 11973 C 1261.78 2.10049 -0.91718 0
M  V30 11974 C 1262.78 1.60498 0.0985122 0
M  V30 11975 O 1263.97 1.73674 -0.135213 0
M  V30 11976 C 1261.1 3.38813 -0.376599 0
M  V30 11977 H 1262.3 2.3531 -1.85927 0
M  V30 11978 H 1259.85 1.20277 -0.998156 0
M  V30 11979 H 1260.59 3.19216 0.571983 0
M  V30 11980 H 1260.37 3.76096 -1.10881 0
M  V30 11981 H 1261.86 4.17084 -0.207453 0
M  V30 11982 N 1262.3 0.988223 1.22768 0
M  V30 11983 C 1263.71 0.69816 1.4352 0
M  V30 11984 C 1263.91 -0.732872 1.877 0
M  V30 11985 O 1262.97 -1.50436 2.02793 0
M  V30 11986 C 1264.28 1.69975 2.4805 0
M  V30 11987 C 1265.83 1.71467 2.61855 0
M  V30 11988 C 1266.31 2.70477 3.69603 0
M  V30 11989 N 1267.8 2.69043 3.77055 0
M  V30 11990 C 1268.53 3.42319 4.60006 0
M  V30 11991 N 1268.03 4.2518 5.46986 0
M  V30 11992 N 1269.82 3.31047 4.54274 0
M  V30 11993 H 1261.97 1.91251 0.923948 0
M  V30 11994 H 1264.23 0.82455 0.467783 0
M  V30 11995 H 1263.94 2.72354 2.22523 0
M  V30 11996 H 1263.81 1.48885 3.46573 0
M  V30 11997 H 1266.2 0.697889 2.86729 0
M  V30 11998 H 1266.28 1.96625 1.63622 0
M  V30 11999 H 1265.93 3.72302 3.45476 0
M  V30 12000 H 1265.86 2.42591 4.67394 0
M  V30 12001 H 1268.35 2.08914 3.14902 0
M  V30 12002 H 1268.66 4.77929 6.07292 0
M  V30 12003 H 1267.01 4.29268 5.46584 0
M  V30 12004 H 1270.2 2.65758 3.85345 0
M  V30 12005 H 1270.37 3.88413 5.1869 0
M  V30 12006 N 1263.78 -1.38018 0.760839 0
M  V30 12007 C 1264.74 -2.28734 0.146154 0
M  V30 12008 C 1265.74 -1.47525 -0.639768 0
M  V30 12009 O 1266.93 -1.6788 -0.464964 0
M  V30 12010 C 1264.06 -3.31356 -0.801019 0
M  V30 12011 H 1265.25 -2.84599 0.945692 0
M  V30 12012 H 1262.81 -1.471 0.528323 0
M  V30 12013 H 1263.54 -2.80594 -1.62597 0
M  V30 12014 H 1263.33 -3.91366 -0.239775 0
M  V30 12015 H 1264.82 -3.99171 -1.22687 0
M  V30 12016 N 1265.25 -0.510493 -1.49103 0
M  V30 12017 C 1266.16 0.267176 -2.33074 0
M  V30 12018 C 1267.18 0.958117 -1.45245 0
M  V30 12019 O 1268.36 0.937399 -1.78255 0
M  V30 12020 C 1265.42 1.31212 -3.20911 0
M  V30 12021 C 1264.48 0.633613 -4.24598 0
M  V30 12022 C 1263.71 1.62878 -5.08239 0
M  V30 12023 O 1263.94 2.85958 -4.93543 0
M  V30 12024 O 1262.87 1.17887 -5.90242 0
M  V30 12025 H 1266.7 -0.420384 -3.00776 0
M  V30 12026 H 1264.28 -0.271683 -1.46909 0
M  V30 12027 H 1266.16 1.91647 -3.75299 0
M  V30 12028 H 1264.84 1.98244 -2.55892 0
M  V30 12029 H 1263.75 -0.0107246 -3.74098 0
M  V30 12030 H 1265.08 0.0055777 -4.922 0
M  V30 12031 N 1266.73 1.55688 -0.24474 0
M  V30 12032 C 1267.98 1.98498 0.379852 0
M  V30 12033 C 1268.3 1.13416 1.58625 0
M  V30 12034 O 1267.57 0.216456 1.947 0
M  V30 12035 H 1266.15 0.73312 0.143334 0
M  V30 12036 H 1268.81 1.91858 -0.343027 0
M  V30 12037 H 1267.91 3.04367 0.690463 0
M  V30 12038 N 1268.21 -0.0283989 1.57574 0
M  V30 12039 C 1269.14 -1.06191 2.01987 0
M  V30 12040 C 1270.12 -1.35131 0.90434 0
M  V30 12041 O 1271.3 -1.47777 1.17023 0
M  V30 12042 C 1268.43 -2.39646 2.39348 0
M  V30 12043 C 1267.48 -2.26558 3.6135 0
M  V30 12044 S 1268.31 -1.61839 5.10459 0
M  V30 12045 C 1269.47 -2.96783 5.51063 0
M  V30 12046 H 1269.7 -0.683625 2.89333 0
M  V30 12047 H 1267.23 -0.238394 1.52548 0
M  V30 12048 H 1269.19 -3.16394 2.61544 0
M  V30 12049 H 1267.85 -2.74622 1.52452 0
M  V30 12050 H 1267.04 -3.25079 3.85149 0
M  V30 12051 H 1266.65 -1.57954 3.39008 0
M  V30 12052 H 1268.94 -3.93111 5.51788 0
M  V30 12053 H 1269.88 -2.77716 6.51367 0
M  V30 12054 H 1270.29 -2.99386 4.78569 0
M  V30 12055 N 1269.69 -1.54705 -0.300681 0
M  V30 12056 C 1270.94 -1.73658 -1.0338 0
M  V30 12057 C 1271.26 -0.525447 -1.87787 0
M  V30 12058 O 1270.53 0.460269 -1.90416 0
M  V30 12059 H 1269.11 -0.640338 -0.384677 0
M  V30 12060 H 1271.77 -1.92059 -0.331588 0
M  V30 12061 H 1270.86 -2.62595 -1.68672 0
M  V30 12062 N 1271.17 0.563888 -1.47167 0
M  V30 12063 C 1272.13 1.65359 -1.58711 0
M  V30 12064 C 1273.13 1.53999 -0.46272 0
M  V30 12065 O 1274.32 1.58277 -0.727595 0
M  V30 12066 C 1271.45 3.04874 -1.52529 0
M  V30 12067 H 1272.64 1.56475 -2.55843 0
M  V30 12068 H 1270.2 0.783271 -1.35257 0
M  V30 12069 H 1270.93 3.19297 -0.56747 0
M  V30 12070 H 1270.72 3.14528 -2.34125 0
M  V30 12071 H 1272.21 3.84164 -1.63731 0
M  V30 12072 N 1272.64 1.35187 0.810078 0
M  V30 12073 C 1273.58 1.22171 1.92742 0
M  V30 12074 C 1274.56 0.110393 1.62225 0
M  V30 12075 O 1275.74 0.27786 1.86441 0
M  V30 12076 C 1272.87 0.880367 3.27058 0
M  V30 12077 C 1271.91 2.00325 3.76527 0
M  V30 12078 S 1272.75 3.6185 3.94747 0
M  V30 12079 C 1273.9 3.29784 5.31971 0
M  V30 12080 H 1274.13 2.16749 2.03488 0
M  V30 12081 H 1271.67 1.20362 0.967072 0
M  V30 12082 H 1273.63 0.690224 4.04656 0
M  V30 12083 H 1272.29 -0.0472868 3.14064 0
M  V30 12084 H 1271.48 1.71847 4.73798 0
M  V30 12085 H 1271.08 2.15154 3.05916 0
M  V30 12086 H 1273.37 2.82396 6.1584 0
M  V30 12087 H 1274.32 4.26243 5.6544 0
M  V30 12088 H 1274.72 2.65641 4.98092 0
M  V30 12089 N 1274.12 -1.03182 1.19127 0
M  V30 12090 C 1275.37 -1.76794 0.993563 0
M  V30 12091 C 1275.7 -1.88306 -0.474809 0
M  V30 12092 O 1274.98 -1.39769 -1.35258 0
M  V30 12093 C 1275.26 -3.19573 1.65968 0
M  V30 12094 C 1275.11 -3.1595 3.2015 0
M  V30 12095 C 1276.43 -4.17897 1.38023 0
M  V30 12096 H 1273.55 -0.641768 0.362357 0
M  V30 12097 H 1276.19 -1.20472 1.46924 0
M  V30 12098 H 1274.34 -3.67663 1.25524 0
M  V30 12099 H 1276.01 -2.7578 3.69788 0
M  V30 12100 H 1274.26 -2.53743 3.51848 0
M  V30 12101 H 1274.93 -4.16811 3.61901 0
M  V30 12102 H 1277.4 -3.78394 1.73082 0
M  V30 12103 H 1276.28 -5.15997 1.87186 0
M  V30 12104 H 1276.54 -4.41048 0.304812 0
M  V30 12105 N 1275.6 -0.99472 -1.22242 0
M  V30 12106 C 1276.51 -0.555502 -2.27928 0
M  V30 12107 C 1277.53 0.396584 -1.6942 0
M  V30 12108 O 1278.7 0.262965 -1.99676 0
M  V30 12109 C 1275.77 0.121121 -3.46488 0
M  V30 12110 C 1274.83 -0.874155 -4.20306 0
M  V30 12111 C 1274.06 -0.229726 -5.33205 0
M  V30 12112 O 1274.28 0.975935 -5.61989 0
M  V30 12113 O 1273.22 -0.935501 -5.94586 0
M  V30 12114 H 1277.04 -1.4348 -2.6767 0
M  V30 12115 H 1274.63 -0.763061 -1.28444 0
M  V30 12116 H 1276.51 0.500043 -4.18423 0
M  V30 12117 H 1275.19 0.974959 -3.08668 0
M  V30 12118 H 1274.09 -1.30404 -3.50636 0
M  V30 12119 H 1275.43 -1.69725 -4.62011 0
M  V30 12120 N 1277.08 1.37613 -0.768148 0
M  V30 12121 C 1278.04 2.28653 -0.158283 0
M  V30 12122 C 1279.04 1.47862 0.631936 0
M  V30 12123 O 1280.23 1.68124 0.456055 0
M  V30 12124 C 1277.36 3.31776 0.783435 0
M  V30 12125 H 1278.56 2.84094 -0.960772 0
M  V30 12126 H 1276.11 1.46818 -0.536116 0
M  V30 12127 H 1276.84 2.81452 1.61106 0
M  V30 12128 H 1276.63 3.91488 0.219016 0
M  V30 12129 H 1278.12 3.99816 1.20568 0
M  V30 12130 N 1278.56 0.518393 1.4883 0
M  V30 12131 C 1279.8 -0.019866 2.0209 0
M  V30 12132 C 1280.13 -1.35863 1.3988 0
M  V30 12133 O 1279.4 -1.87722 0.560117 0
M  V30 12134 H 1277.98 -0.0103306 0.746929 0
M  V30 12135 H 1280.64 0.679591 1.82668 0
M  V30 12136 H 1279.73 -0.136749 3.118 0
M  V30 12137 N 1280.03 -1.55556 0.252993 0
M  V30 12138 C 1281.28 -1.98697 -0.369319 0
M  V30 12139 C 1281.6 -1.14256 -1.58021 0
M  V30 12140 O 1280.87 -0.226779 -1.94583 0
M  V30 12141 H 1279.45 -0.733869 -0.139444 0
M  V30 12142 H 1282.12 -1.91673 0.353197 0
M  V30 12143 H 1281.21 -3.04728 -0.674312 0
M  V30 12144 N 1281.51 0.0200419 -1.57587 0
M  V30 12145 C 1282.44 1.01715 -2.10181 0
M  V30 12146 C 1283.42 1.37136 -1.00636 0
M  V30 12147 O 1284.61 1.45862 -1.2821 0
M  V30 12148 C 1281.74 2.31531 -2.58865 0
M  V30 12149 C 1280.69 2.10327 -3.72755 0
M  V30 12150 C 1280.02 3.45981 -4.07678 0
M  V30 12151 C 1281.32 1.4821 -5.0083 0
M  V30 12152 H 1283.01 0.579307 -2.93742 0
M  V30 12153 H 1280.56 0.277211 -1.41307 0
M  V30 12154 H 1282.51 3.01623 -2.94281 0
M  V30 12155 H 1281.24 2.77392 -1.72399 0
M  V30 12156 H 1279.89 1.42665 -3.37701 0
M  V30 12157 H 1279.54 3.89508 -3.18265 0
M  V30 12158 H 1279.24 3.32616 -4.84397 0
M  V30 12159 H 1280.77 4.17421 -4.45637 0
M  V30 12160 H 1282.18 2.08232 -5.34146 0
M  V30 12161 H 1280.58 1.45393 -5.82221 0
M  V30 12162 H 1281.65 0.448942 -4.82817 0
M  V30 12163 N 1282.99 1.54862 0.292472 0
M  V30 12164 C 1283.92 1.89406 1.36556 0
M  V30 12165 C 1284.9 0.753838 1.52484 0
M  V30 12166 O 1286.09 1.01031 1.6585 0
M  V30 12167 C 1283.22 2.14888 2.72838 0
M  V30 12168 C 1282.17 3.3073 2.71665 0
M  V30 12169 C 1281.5 3.41648 4.11316 0
M  V30 12170 C 1282.8 4.67622 2.32651 0
M  V30 12171 H 1284.49 2.79284 1.07894 0
M  V30 12172 H 1282.04 1.34377 0.517585 0
M  V30 12173 H 1283.99 2.3764 3.48002 0
M  V30 12174 H 1282.71 1.2179 3.03042 0
M  V30 12175 H 1281.37 3.07915 1.98958 0
M  V30 12176 H 1281.02 2.46051 4.38711 0
M  V30 12177 H 1280.72 4.19522 4.11431 0
M  V30 12178 H 1282.24 3.6667 4.88248 0
M  V30 12179 H 1283.66 4.90048 2.97533 0
M  V30 12180 H 1282.06 5.48272 2.43963 0
M  V30 12181 H 1283.13 4.67762 1.27777 0
M  V30 12182 N 1284.47 -0.556076 1.47464 0
M  V30 12183 C 1285.38 -1.69043 1.62671 0
M  V30 12184 C 1286.39 -1.66372 0.509535 0
M  V30 12185 O 1287.57 -1.85799 0.777218 0
M  V30 12186 C 1284.64 -3.05546 1.63836 0
M  V30 12187 C 1283.7 -3.19275 2.86988 0
M  V30 12188 C 1282.93 -4.49267 2.88088 0
M  V30 12189 O 1283.15 -5.34796 1.98368 0
M  V30 12190 O 1282.09 -4.66811 3.79962 0
M  V30 12191 H 1285.91 -1.59155 2.58657 0
M  V30 12192 H 1283.5 -0.726211 1.30562 0
M  V30 12193 H 1285.38 -3.86778 1.67275 0
M  V30 12194 H 1284.05 -3.15814 0.710173 0
M  V30 12195 H 1282.96 -2.37437 2.89093 0
M  V30 12196 H 1284.29 -3.13912 3.79104 0
M  V30 12197 N 1285.95 -1.35615 -0.802897 0
M  V30 12198 C 1286.89 -1.28839 -1.91492 0
M  V30 12199 C 1287.86 -0.159621 -1.65331 0
M  V30 12200 O 1289.05 -0.343931 -1.87675 0
M  V30 12201 C 1286.19 -1.06999 -3.28093 0
M  V30 12202 C 1285.3 -2.28831 -3.66416 0
M  V30 12203 C 1284.44 -2.00111 -4.92066 0
M  V30 12204 C 1283.48 -3.17977 -5.23027 0
M  V30 12205 N 1282.61 -2.89009 -6.39858 0
M  V30 12206 H 1287.45 -2.2393 -1.96619 0
M  V30 12207 H 1284.99 -1.1131 -0.961687 0
M  V30 12208 H 1286.95 -0.923673 -4.06847 0
M  V30 12209 H 1285.58 -0.155684 -3.22424 0
M  V30 12210 H 1284.63 -2.54314 -2.82893 0
M  V30 12211 H 1285.94 -3.1683 -3.85253 0
M  V30 12212 H 1285.1 -1.82331 -5.78654 0
M  V30 12213 H 1283.84 -1.09402 -4.75271 0
M  V30 12214 H 1282.84 -3.3633 -4.34928 0
M  V30 12215 H 1284.07 -4.09493 -5.41749 0
M  V30 12216 H 1282.01 -2.00898 -6.24481 0
M  V30 12217 H 1281.93 -3.70544 -6.58964 0
M  V30 12218 H 1283.2 -2.74779 -7.29463 0
M  V30 12219 N 1287.43 1.02549 -1.19673 0
M  V30 12220 C 1288.67 1.76382 -1.01296 0
M  V30 12221 C 1289.03 1.87036 0.451162 0
M  V30 12222 O 1288.32 1.37859 1.33062 0
M  V30 12223 C 1288.51 3.18597 -1.61959 0
M  V30 12224 C 1288.34 3.21808 -3.14117 0
M  V30 12225 C 1287.11 3.2956 -3.83038 0
M  V30 12226 C 1289.31 3.08576 -4.11443 0
M  V30 12227 N 1287.29 3.22181 -5.22564 0
M  V30 12228 C 1288.66 3.08868 -5.37588 0
M  V30 12229 C 1290.72 2.92728 -4.02759 0
M  V30 12230 C 1289.42 2.94938 -6.56052 0
M  V30 12231 C 1291.45 2.80149 -5.20837 0
M  V30 12232 C 1290.81 2.81098 -6.45882 0
M  V30 12233 H 1286.91 0.656544 -0.424822 0
M  V30 12234 H 1289.49 1.22046 -1.517 0
M  V30 12235 H 1287.66 3.71247 -1.14151 0
M  V30 12236 H 1289.4 3.80812 -1.36984 0
M  V30 12237 H 1286.15 3.3592 -3.33848 0
M  V30 12238 H 1286.57 3.21889 -5.95581 0
M  V30 12239 H 1291.22 2.90814 -3.069 0
M  V30 12240 H 1288.93 2.95603 -7.52093 0
M  V30 12241 H 1292.52 2.68917 -5.15921 0
M  V30 12242 H 1291.4 2.71471 -7.35713 0
M  V30 12243 N 1288.9 1.00119 1.21713 0
M  V30 12244 C 1290.13 0.700431 1.94683 0
M  V30 12245 C 1290.55 -0.736333 1.73849 0
M  V30 12246 O 1289.9 -1.49778 1.04272 0
M  V30 12247 C 1289.95 1.00722 3.47185 0
M  V30 12248 O 1289.68 2.38754 3.67326 0
M  V30 12249 C 1291.18 0.725335 4.37326 0
M  V30 12250 H 1288.4 0.25843 0.619238 0
M  V30 12251 H 1290.94 1.3382 1.54636 0
M  V30 12252 H 1289.1 0.415117 3.85169 0
M  V30 12253 H 1289.51 2.49321 4.61454 0
M  V30 12254 H 1290.98 0.990202 5.43046 0
M  V30 12255 H 1291.46 -0.340649 4.37877 0
M  V30 12256 H 1292.07 1.29888 4.04981 0
M  V30 12257 N 1290.38 -1.37203 0.775435 0
M  V30 12258 C 1291.31 -2.32819 0.17826 0
M  V30 12259 C 1292.29 -1.55963 -0.678944 0
M  V30 12260 O 1293.48 -1.84183 -0.615648 0
M  V30 12261 C 1290.61 -3.40198 -0.698768 0
M  V30 12262 C 1289.56 -4.27961 0.057423 0
M  V30 12263 C 1288.89 -5.26385 -0.93929 0
M  V30 12264 C 1290.19 -5.07402 1.23856 0
M  V30 12265 H 1291.88 -2.8301 0.977028 0
M  V30 12266 H 1289.43 -1.3607 0.471274 0
M  V30 12267 H 1291.38 -4.06067 -1.12637 0
M  V30 12268 H 1290.1 -2.88541 -1.53009 0
M  V30 12269 H 1288.76 -3.63628 0.465848 0
M  V30 12270 H 1288.41 -4.71007 -1.76527 0
M  V30 12271 H 1288.11 -5.85966 -0.437844 0
M  V30 12272 H 1289.64 -5.9513 -1.36576 0
M  V30 12273 H 1291.05 -5.6639 0.887423 0
M  V30 12274 H 1289.45 -5.76327 1.67234 0
M  V30 12275 H 1290.52 -4.3986 2.04085 0
M  V30 12276 N 1291.86 -0.526279 -1.48553 0
M  V30 12277 C 1292.79 0.227364 -2.3239 0
M  V30 12278 C 1293.77 0.93862 -1.41859 0
M  V30 12279 O 1294.96 0.925119 -1.70749 0
M  V30 12280 C 1292.09 1.277 -3.22971 0
M  V30 12281 C 1291.04 0.684107 -4.22497 0
M  V30 12282 C 1290.37 1.83612 -5.02186 0
M  V30 12283 C 1291.67 -0.341723 -5.21181 0
M  V30 12284 H 1293.36 -0.472486 -2.95648 0
M  V30 12285 H 1290.91 -0.228669 -1.42173 0
M  V30 12286 H 1292.86 1.81215 -3.80446 0
M  V30 12287 H 1291.58 2.00638 -2.57705 0
M  V30 12288 H 1290.24 0.170505 -3.66203 0
M  V30 12289 H 1289.89 2.55379 -4.33348 0
M  V30 12290 H 1289.59 1.44536 -5.69547 0
M  V30 12291 H 1291.11 2.37513 -5.62512 0
M  V30 12292 H 1292.53 0.106207 -5.73202 0
M  V30 12293 H 1290.92 -0.649673 -5.96573 0
M  V30 12294 H 1291.99 -1.2488 -4.68543 0
M  V30 12295 N 1293.34 1.5542 -0.261239 0
M  V30 12296 C 1294.25 2.25627 0.642625 0
M  V30 12297 C 1295.26 1.27732 1.18155 0
M  V30 12298 O 1296.44 1.60639 1.21479 0
M  V30 12299 C 1293.5 2.95303 1.8165 0
M  V30 12300 C 1292.57 4.08644 1.31563 0
M  V30 12301 C 1291.8 4.74988 2.43355 0
M  V30 12302 O 1292.02 4.40474 3.62407 0
M  V30 12303 O 1290.96 5.63217 2.12299 0
M  V30 12304 H 1294.78 3.03609 0.0743091 0
M  V30 12305 H 1292.37 1.49372 -0.0291754 0
M  V30 12306 H 1294.25 3.3914 2.50125 0
M  V30 12307 H 1292.92 2.2025 2.37217 0
M  V30 12308 H 1291.83 3.69294 0.597746 0
M  V30 12309 H 1293.16 4.85558 0.805878 0
M  V30 12310 N 1294.82 -0.0116844 1.57596 0
M  V30 12311 C 1295.73 -1.02342 2.111 0
M  V30 12312 C 1296.74 -1.38478 1.05355 0
M  V30 12313 O 1297.92 -1.47447 1.37191 0
M  V30 12314 C 1294.98 -2.30016 2.5941 0
M  V30 12315 C 1294.04 -2.003 3.79708 0
M  V30 12316 C 1293.28 -3.21888 4.25704 0
M  V30 12317 O 1293.5 -4.33171 3.71106 0
M  V30 12318 O 1292.43 -3.0657 5.17975 0
M  V30 12319 H 1296.26 -0.598637 2.97742 0
M  V30 12320 H 1293.84 -0.229779 1.47622 0
M  V30 12321 H 1295.73 -3.05044 2.90733 0
M  V30 12322 H 1294.4 -2.71755 1.75871 0
M  V30 12323 H 1293.31 -1.22785 3.53376 0
M  V30 12324 H 1294.64 -1.63406 4.64284 0
M  V30 12325 N 1296.29 -1.55015 -0.284256 0
M  V30 12326 C 1297.2 -1.90203 -1.37332 0
M  V30 12327 C 1298.22 -0.797994 -1.54622 0
M  V30 12328 O 1299.4 -1.09602 -1.68965 0
M  V30 12329 C 1296.46 -2.15687 -2.71441 0
M  V30 12330 C 1295.52 -3.39313 -2.62993 0
M  V30 12331 C 1294.75 -3.63571 -3.90707 0
M  V30 12332 O 1294.98 -2.90538 -4.9086 0
M  V30 12333 O 1293.91 -4.57102 -3.91589 0
M  V30 12334 H 1297.74 -2.82888 -1.1049 0
M  V30 12335 H 1295.32 -1.41418 -0.481798 0
M  V30 12336 H 1297.2 -2.33553 -3.50758 0
M  V30 12337 H 1295.88 -1.26185 -2.98092 0
M  V30 12338 H 1294.79 -3.26793 -1.82091 0
M  V30 12339 H 1296.12 -4.28997 -2.41293 0
M  V30 12340 N 1297.77 0.548248 -1.47757 0
M  V30 12341 C 1298.73 1.63666 -1.60456 0
M  V30 12342 C 1299.73 1.53499 -0.479028 0
M  V30 12343 O 1300.92 1.57497 -0.744342 0
M  V30 12344 C 1298.06 3.03239 -1.55754 0
M  V30 12345 H 1299.25 1.53752 -2.57488 0
M  V30 12346 H 1296.8 0.768881 -1.36081 0
M  V30 12347 H 1297.54 3.18677 -0.601303 0
M  V30 12348 H 1297.32 3.12027 -2.37448 0
M  V30 12349 H 1298.81 3.82406 -1.67797 0
M  V30 12350 N 1299.25 1.36039 0.795694 0
M  V30 12351 C 1300.5 1.30112 1.5556 0
M  V30 12352 C 1300.83 -0.121197 1.93821 0
M  V30 12353 O 1300.1 -1.07313 1.62216 0
M  V30 12354 C 1300.39 2.21792 2.8369 0
M  V30 12355 C 1300.24 3.72691 2.51836 0
M  V30 12356 C 1301.56 2.12365 3.85472 0
M  V30 12357 H 1298.68 0.473971 0.564376 0
M  V30 12358 H 1301.32 1.66536 0.91465 0
M  V30 12359 H 1299.47 1.9086 3.38386 0
M  V30 12360 H 1301.14 4.14115 2.0324 0
M  V30 12361 H 1299.38 3.92436 1.84869 0
M  V30 12362 H 1300.06 4.32242 3.43323 0
M  V30 12363 H 1302.53 2.3958 3.40207 0
M  V30 12364 H 1301.41 2.78695 4.72885 0
M  V30 12365 H 1301.67 1.10898 4.27965 0
M  V30 12366 N 1300.73 -1.01913 1.20215 0
M  V30 12367 C 1301.98 -1.75124 1.00876 0
M  V30 12368 C 1302.3 -1.89485 -0.460475 0
M  V30 12369 O 1301.57 -1.43552 -1.33302 0
M  V30 12370 H 1300.15 -0.648777 0.370266 0
M  V30 12371 H 1302.81 -1.22883 1.5128 0
M  V30 12372 H 1301.91 -2.7558 1.46499 0
M  V30 12373 N 1302.21 -1.00763 -1.2118 0
M  V30 12374 C 1303.45 -0.702542 -1.90882 0
M  V30 12375 C 1303.81 0.758686 -1.7681 0
M  V30 12376 O 1303.1 1.54313 -1.1357 0
M  V30 12377 C 1303.29 -1.06187 -3.41261 0
M  V30 12378 C 1303.12 -2.55648 -3.69965 0
M  V30 12379 C 1301.89 -3.2229 -3.89175 0
M  V30 12380 C 1304.09 -3.53814 -3.73256 0
M  V30 12381 N 1302.07 -4.61075 -4.05319 0
M  V30 12382 C 1303.44 -4.7812 -3.94716 0
M  V30 12383 C 1305.5 -3.47913 -3.56175 0
M  V30 12384 C 1304.2 -5.97242 -4.00867 0
M  V30 12385 C 1306.23 -4.66427 -3.63593 0
M  V30 12386 C 1305.59 -5.89539 -3.85517 0
M  V30 12387 H 1301.69 -0.3086 -0.718533 0
M  V30 12388 H 1304.27 -1.29063 -1.45776 0
M  V30 12389 H 1302.44 -0.502205 -3.8514 0
M  V30 12390 H 1304.18 -0.711246 -3.98401 0
M  V30 12391 H 1300.93 -2.7273 -3.87189 0
M  V30 12392 H 1301.36 -5.33105 -4.17287 0
M  V30 12393 H 1306 -2.53735 -3.38199 0
M  V30 12394 H 1303.72 -6.9181 -4.17642 0
M  V30 12395 H 1307.3 -4.63467 -3.51695 0
M  V30 12396 H 1306.18 -6.79711 -3.91104 0
M  V30 12397 N 1303.68 1.3679 -0.7827 0
M  V30 12398 C 1304.62 2.28805 -0.13451 0
M  V30 12399 C 1305.63 1.49159 0.652338 0
M  V30 12400 O 1306.82 1.71682 0.488626 0
M  V30 12401 C 1303.92 3.28508 0.832802 0
M  V30 12402 C 1303.09 4.37291 0.0974435 0
M  V30 12403 C 1302.15 5.16999 0.979715 0
M  V30 12404 O 1301.18 5.67501 0.439439 0
M  V30 12405 N 1302.38 5.32786 2.30477 0
M  V30 12406 H 1305.14 2.85072 -0.924873 0
M  V30 12407 H 1302.7 1.48884 -0.636012 0
M  V30 12408 H 1304.7 3.78718 1.42671 0
M  V30 12409 H 1303.27 2.7293 1.52408 0
M  V30 12410 H 1302.49 3.88335 -0.677483 0
M  V30 12411 H 1303.77 5.07143 -0.410259 0
M  V30 12412 H 1303.17 4.93358 2.76793 0
M  V30 12413 H 1301.73 5.86264 2.84848 0
M  V30 12414 N 1305.16 0.53415 1.48272 0
M  V30 12415 C 1306.07 -0.230062 2.33469 0
M  V30 12416 C 1307.09 -0.934889 1.46751 0
M  V30 12417 O 1308.26 -0.908921 1.79724 0
M  V30 12418 C 1305.33 -1.2609 3.22958 0
M  V30 12419 C 1304.39 -0.565983 4.25553 0
M  V30 12420 C 1303.62 -1.54771 5.10766 0
M  V30 12421 O 1303.85 -2.7807 4.9803 0
M  V30 12422 O 1302.78 -1.08482 5.92043 0
M  V30 12423 H 1306.61 0.468182 3.0007 0
M  V30 12424 H 1304.19 0.29502 1.46458 0
M  V30 12425 H 1306.07 -1.85652 3.783 0
M  V30 12426 H 1304.75 -1.94148 2.59014 0
M  V30 12427 H 1303.66 0.0702391 3.74034 0
M  V30 12428 H 1304.99 0.0727277 4.92146 0
M  V30 12429 N 1306.64 -1.55279 0.269478 0
M  V30 12430 C 1308.06 -1.59374 -0.0848147 0
M  V30 12431 C 1308.26 -1.2867 -1.55068 0
M  V30 12432 O 1307.31 -1.04486 -2.29867 0
M  V30 12433 C 1308.63 -2.99349 0.284735 0
M  V30 12434 C 1310.17 -3.12147 0.230887 0
M  V30 12435 C 1310.65 -4.54379 0.574795 0
M  V30 12436 N 1312.14 -4.60202 0.526136 0
M  V30 12437 C 1312.87 -5.68273 0.765109 0
M  V30 12438 N 1312.37 -6.84512 1.0684 0
M  V30 12439 N 1314.16 -5.57796 0.694287 0
M  V30 12440 H 1306.31 -1.73503 1.22517 0
M  V30 12441 H 1308.58 -0.808771 0.494564 0
M  V30 12442 H 1308.28 -3.26633 1.30398 0
M  V30 12443 H 1308.16 -3.75309 -0.377199 0
M  V30 12444 H 1310.54 -2.84631 -0.779064 0
M  V30 12445 H 1310.63 -2.38412 0.926998 0
M  V30 12446 H 1310.27 -4.8262 1.58241 0
M  V30 12447 H 1310.2 -5.26406 -0.143044 0
M  V30 12448 H 1312.69 -3.76696 0.301368 0
M  V30 12449 H 1313 -7.62826 1.23757 0
M  V30 12450 H 1311.35 -6.86141 1.10612 0
M  V30 12451 H 1314.54 -4.65862 0.457226 0
M  V30 12452 H 1314.71 -6.41943 0.883913 0
M  V30 12453 N 1308.12 0.00332656 -1.576 0
M  V30 12454 C 1309.03 1.01221 -2.1164 0
M  V30 12455 C 1310.04 1.37918 -1.06088 0
M  V30 12456 O 1311.22 1.46717 -1.37971 0
M  V30 12457 C 1308.29 2.28638 -2.60626 0
M  V30 12458 C 1307.35 1.98284 -3.80765 0
M  V30 12459 C 1306.58 3.19626 -4.27405 0
M  V30 12460 O 1306.8 4.31196 -3.73398 0
M  V30 12461 O 1305.74 3.03819 -5.19594 0
M  V30 12462 H 1309.56 0.582839 -2.98055 0
M  V30 12463 H 1307.15 0.221947 -1.47742 0
M  V30 12464 H 1309.03 3.03498 -2.92347 0
M  V30 12465 H 1307.7 2.70819 -1.7731 0
M  V30 12466 H 1306.61 1.2091 -3.54022 0
M  V30 12467 H 1307.94 1.60942 -4.65144 0
M  V30 12468 N 1309.6 1.55164 0.276031 0
M  V30 12469 C 1310.53 1.84243 1.36335 0
M  V30 12470 C 1311.54 0.726745 1.45679 0
M  V30 12471 O 1312.73 1.00456 1.4755 0
M  V30 12472 C 1309.83 1.98768 2.7449 0
M  V30 12473 C 1309 3.294 2.87775 0
M  V30 12474 C 1308.06 3.34029 4.06585 0
M  V30 12475 O 1307.09 4.07423 3.97486 0
M  V30 12476 N 1308.29 2.61213 5.18409 0
M  V30 12477 H 1311.06 2.78092 1.11736 0
M  V30 12478 H 1308.62 1.55044 0.466143 0
M  V30 12479 H 1310.61 1.99238 3.52259 0
M  V30 12480 H 1309.18 1.11799 2.91924 0
M  V30 12481 H 1308.4 3.41494 1.96914 0
M  V30 12482 H 1309.69 4.15558 2.93579 0
M  V30 12483 H 1309.08 2.01261 5.28687 0
M  V30 12484 H 1307.64 2.67409 5.9442 0
M  V30 12485 N 1311.07 -0.540404 1.48045 0
M  V30 12486 C 1312.49 -0.867958 1.33935 0
M  V30 12487 C 1312.69 -1.98568 0.342488 0
M  V30 12488 O 1311.75 -2.51357 -0.240022 0
M  V30 12489 C 1313.06 -1.24532 2.73701 0
M  V30 12490 C 1314.61 -1.3558 2.82112 0
M  V30 12491 C 1315.08 -1.76664 4.22556 0
M  V30 12492 N 1316.57 -1.83785 4.25179 0
M  V30 12493 C 1317.31 -2.16938 5.30778 0
M  V30 12494 N 1316.8 -2.48587 6.46666 0
M  V30 12495 N 1318.6 -2.17855 5.18166 0
M  V30 12496 H 1310.75 0.197251 2.11482 0
M  V30 12497 H 1313.01 0.0255947 0.947654 0
M  V30 12498 H 1312.72 -0.497731 3.4816 0
M  V30 12499 H 1312.59 -2.19779 3.06556 0
M  V30 12500 H 1314.98 -2.09417 2.07915 0
M  V30 12501 H 1315.06 -0.384787 2.52889 0
M  V30 12502 H 1314.7 -1.03391 4.97265 0
M  V30 12503 H 1314.63 -2.74797 4.49215 0
M  V30 12504 H 1317.12 -1.61645 3.41583 0
M  V30 12505 H 1317.44 -2.72959 7.22989 0
M  V30 12506 H 1315.78 -2.4613 6.49958 0
M  V30 12507 H 1318.97 -1.9258 4.2665 0
M  V30 12508 H 1319.15 -2.43361 6.00566 0
M  V30 12509 N 1312.55 -1.36459 -0.788468 0
M  V30 12510 C 1313.46 -1.33017 -1.93245 0
M  V30 12511 C 1314.48 -0.232212 -1.72444 0
M  V30 12512 O 1315.65 -0.464743 -1.95965 0
M  V30 12513 C 1312.72 -1.1197 -3.28121 0
M  V30 12514 C 1311.78 -2.3125 -3.61693 0
M  V30 12515 C 1311.01 -2.11197 -4.90134 0
M  V30 12516 O 1311.24 -1.08764 -5.59934 0
M  V30 12517 O 1310.17 -2.98996 -5.22384 0
M  V30 12518 H 1314 -2.29333 -1.99098 0
M  V30 12519 H 1311.58 -1.17016 -0.928856 0
M  V30 12520 H 1313.46 -1.02154 -4.08831 0
M  V30 12521 H 1312.14 -0.187171 -3.23158 0
M  V30 12522 H 1311.05 -2.46635 -2.81286 0
M  V30 12523 H 1312.38 -3.23012 -3.71381 0
M  V30 12524 N 1314.03 1.01274 -1.20754 0
M  V30 12525 C 1315.31 1.7213 -0.929008 0
M  V30 12526 C 1315.69 2.03503 0.561217 0
M  V30 12527 O 1315.04 1.70259 1.52395 0
M  V30 12528 C 1315.25 2.98636 -1.80603 0
M  V30 12529 C 1316.59 3.71823 -2.0502 0
M  V30 12530 O 1317.62 3.08601 -1.77888 0
M  V30 12531 O 1316.48 4.8552 -2.50864 0
M  V30 12532 H 1313.57 0.750361 -0.347689 0
M  V30 12533 H 1316.12 1.07086 -1.31646 0
M  V30 12534 H 1314.89 2.71803 -2.81494 0
M  V30 12535 H 1314.51 3.7142 -1.4189 0
M  V30 12536 N 1315.51 1.01404 1.20644 0
M  V30 12537 C 1316.73 0.720839 1.9447 0
M  V30 12538 C 1317.16 -0.711711 1.74116 0
M  V30 12539 O 1316.52 -1.48938 1.03379 0
M  V30 12540 C 1316.57 1.05864 3.4471 0
M  V30 12541 O 1315.67 0.168901 4.12054 0
M  V30 12542 H 1315.01 0.267698 0.607646 0
M  V30 12543 H 1317.54 1.35672 1.53147 0
M  V30 12544 H 1317.55 1.00928 3.9532 0
M  V30 12545 H 1316.23 2.1024 3.58848 0
M  V30 12546 H 1314.8 0.275572 3.7188 0
M  V30 12547 N 1316.99 -1.36373 0.789944 0
M  V30 12548 C 1317.9 -2.3383 0.189873 0
M  V30 12549 C 1318.91 -1.61068 -0.65827 0
M  V30 12550 O 1320.09 -1.93049 -0.573932 0
M  V30 12551 C 1317.15 -3.40264 -0.664905 0
M  V30 12552 C 1316.22 -4.28825 0.201798 0
M  V30 12553 C 1315.45 -5.30176 -0.612278 0
M  V30 12554 O 1315.67 -5.39627 -1.84821 0
M  V30 12555 O 1314.61 -6.01899 -0.0118964 0
M  V30 12556 H 1318.43 -2.86915 0.995671 0
M  V30 12557 H 1316.02 -1.38852 0.551412 0
M  V30 12558 H 1317.9 -4.05339 -1.15231 0
M  V30 12559 H 1316.57 -2.89478 -1.44858 0
M  V30 12560 H 1315.48 -3.66789 0.735974 0
M  V30 12561 H 1316.81 -4.82965 0.949003 0
M  V30 12562 N 1318.47 -0.542005 -1.47987 0
M  V30 12563 C 1319.71 -0.0122873 -2.02096 0
M  V30 12564 C 1320.03 1.3362 -1.42024 0
M  V30 12565 O 1319.3 1.86807 -0.589911 0
M  V30 12566 H 1317.88 -0.00155365 -0.746998 0
M  V30 12567 H 1320.55 -0.708566 -1.81564 0
M  V30 12568 H 1319.64 0.0871275 -3.11978 0
M  V30 12569 N 1319.94 1.55134 -0.277709 0
M  V30 12570 C 1321.36 1.59417 0.0763615 0
M  V30 12571 C 1321.56 1.29491 1.54384 0
M  V30 12572 O 1320.62 1.05703 2.2931 0
M  V30 12573 C 1321.93 2.99194 -0.300607 0
M  V30 12574 C 1323.48 3.1202 -0.247438 0
M  V30 12575 C 1323.95 4.54068 -0.598884 0
M  V30 12576 N 1325.44 4.59917 -0.550534 0
M  V30 12577 C 1326.18 5.67859 -0.795235 0
M  V30 12578 N 1325.67 6.83936 -1.10469 0
M  V30 12579 N 1327.47 5.5742 -0.723859 0
M  V30 12580 H 1319.62 1.72851 -1.23435 0
M  V30 12581 H 1321.88 0.806137 -0.498846 0
M  V30 12582 H 1321.59 3.25937 -1.32129 0
M  V30 12583 H 1321.46 3.75504 0.35729 0
M  V30 12584 H 1323.85 2.8504 0.763959 0
M  V30 12585 H 1323.93 2.37917 -0.939629 0
M  V30 12586 H 1323.57 4.81774 -1.60798 0
M  V30 12587 H 1323.5 5.26474 0.115126 0
M  V30 12588 H 1325.99 3.76531 -0.321341 0
M  V30 12589 H 1326.31 7.62159 -1.278 0
M  V30 12590 H 1324.65 6.85545 -1.14249 0
M  V30 12591 H 1327.84 4.65613 -0.481925 0
M  V30 12592 H 1328.02 6.41465 -0.917944 0
M  V30 12593 N 1321.42 0.00503138 1.57599 0
M  V30 12594 C 1322.66 -0.683203 1.92644 0
M  V30 12595 C 1323.03 -1.70657 0.879778 0
M  V30 12596 O 1324.23 -2.44555 1.11563 0
M  V30 12597 C 1322.5 -1.30509 3.32719 0
M  V30 12598 S 1324.06 -2.01775 3.89657 0
M  V30 12599 H 1320.87 -0.225551 0.674276 0
M  V30 12600 H 1323.48 0.0629255 1.95399 0
M  V30 12601 H 1322.18 -0.547509 4.06731 0
M  V30 12602 H 1321.71 -2.08904 3.3335 0
M  V30 12603 H 1323.73 -3.29348 3.7114 0
M  V30 12604 N 1322.9 -1.55308 -0.267798 0
M  V30 12605 C 1324.15 -1.75811 -0.996734 0
M  V30 12606 C 1324.47 -0.565161 -1.8663 0
M  V30 12607 O 1323.74 0.419775 -1.9135 0
M  V30 12608 H 1322.32 -0.648353 -0.371008 0
M  V30 12609 H 1324.98 -1.92719 -0.290775 0
M  V30 12610 H 1324.08 -2.66113 -1.63064 0
M  V30 12611 N 1324.38 0.532545 -1.4833 0
M  V30 12612 C 1325.65 1.29371 -1.46705 0
M  V30 12613 C 1326.03 2.10354 -0.177329 0
M  V30 12614 O 1325.38 2.12462 0.840968 0
M  V30 12615 C 1325.59 2.17733 -2.72751 0
M  V30 12616 C 1326.94 2.77956 -3.20976 0
M  V30 12617 O 1327.96 2.28022 -2.7365 0
M  V30 12618 O 1326.82 3.68779 -4.03317 0
M  V30 12619 H 1323.92 0.58378 -0.585773 0
M  V30 12620 H 1326.46 0.549411 -1.6056 0
M  V30 12621 H 1325.24 1.57659 -3.58133 0
M  V30 12622 H 1324.86 2.99415 -2.61603 0
M  V30 12623 N 1325.86 1.36875 0.78122 0
M  V30 12624 C 1327.09 1.34537 1.56791 0
M  V30 12625 C 1327.49 -0.0734709 1.89057 0
M  V30 12626 O 1326.84 -1.04307 1.51215 0
M  V30 12627 C 1326.9 2.10971 2.91087 0
M  V30 12628 C 1326.56 3.60005 2.81506 0
M  V30 12629 C 1327.56 4.54085 2.53185 0
M  V30 12630 C 1325.24 4.03001 2.99826 0
M  V30 12631 C 1327.24 5.89139 2.43298 0
M  V30 12632 C 1324.93 5.38144 2.89559 0
M  V30 12633 C 1325.92 6.31026 2.61335 0
M  V30 12634 O 1325.61 7.63685 2.51077 0
M  V30 12635 H 1325.34 0.46284 0.492702 0
M  V30 12636 H 1327.9 1.80683 0.976869 0
M  V30 12637 H 1326.13 1.595 3.52274 0
M  V30 12638 H 1327.82 2.01387 3.52418 0
M  V30 12639 H 1328.58 4.22178 2.38727 0
M  V30 12640 H 1324.46 3.31073 3.20799 0
M  V30 12641 H 1328.01 6.61605 2.21188 0
M  V30 12642 H 1323.9 5.69656 3.03583 0
M  V30 12643 H 1324.67 7.739 2.66498 0
M  V30 12644 N 1327.33 -1.00632 1.21289 0
M  V30 12645 C 1328.28 -2.07791 0.938459 0
M  V30 12646 C 1329.27 -1.60552 -0.105773 0
M  V30 12647 O 1330.46 -1.767 0.102981 0
M  V30 12648 C 1327.59 -3.39587 0.503563 0
M  V30 12649 C 1326.67 -3.93497 1.58179 0
M  V30 12650 N 1327.07 -4.20792 2.80656 0
M  V30 12651 C 1325.36 -4.21759 1.45035 0
M  V30 12652 C 1326.06 -4.64411 3.50281 0
M  V30 12653 N 1325.04 -4.67305 2.77717 0
M  V30 12654 H 1328.84 -2.26816 1.869 0
M  V30 12655 H 1326.36 -1.18692 1.10842 0
M  V30 12656 H 1328.35 -4.15902 0.288323 0
M  V30 12657 H 1327.01 -3.21969 -0.420233 0
M  V30 12658 H 1328.02 -4.09386 3.17212 0
M  V30 12659 H 1324.7 -4.13285 0.591745 0
M  V30 12660 H 1326.09 -4.94263 4.55141 0
M  V30 12661 N 1328.81 -1.02043 -1.20104 0
M  V30 12662 C 1330.22 -0.742954 -1.71281 0
M  V30 12663 C 1330.57 0.738173 -1.81784 0
M  V30 12664 O 1329.7 1.57588 -1.48307 0
M  V30 12665 C 1330.29 -1.342 -3.11088 0
M  V30 12666 C 1328.85 -1.11331 -3.59559 0
M  V30 12667 C 1328 -1.44532 -2.36655 0
M  V30 12668 H 1330.95 -1.18942 -1.05064 0
M  V30 12669 H 1330.97 -0.734558 -3.73342 0
M  V30 12670 H 1330.48 -2.41998 -3.03411 0
M  V30 12671 H 1328.58 -0.05317 -3.72562 0
M  V30 12672 H 1328.7 -1.79606 -4.4416 0
M  V30 12673 H 1327.06 -0.864431 -2.39582 0
M  V30 12674 H 1327.84 -2.53394 -2.31616 0
M  V30 12675 N 1330.29 1.35952 -0.797165 0
M  V30 12676 C 1331.2 2.33726 -0.202271 0
M  V30 12677 C 1332.22 1.61415 0.649719 0
M  V30 12678 O 1333.39 1.93351 0.563686 0
M  V30 12679 C 1330.46 3.40612 0.64685 0
M  V30 12680 C 1329.52 4.28712 -0.224536 0
M  V30 12681 C 1328.75 5.30493 0.584153 0
M  V30 12682 O 1328.97 5.40599 1.81957 0
M  V30 12683 O 1327.91 6.01897 -0.0200239 0
M  V30 12684 H 1331.73 2.86383 -1.01087 0
M  V30 12685 H 1329.32 1.38557 -0.558768 0
M  V30 12686 H 1331.2 4.05944 1.1308 0
M  V30 12687 H 1329.88 2.90243 1.43321 0
M  V30 12688 H 1328.78 3.66394 -0.755415 0
M  V30 12689 H 1330.12 4.82454 -0.974603 0
M  V30 12690 N 1331.77 0.549846 1.47697 0
M  V30 12691 C 1333.02 0.0230048 2.02087 0
M  V30 12692 C 1333.34 -1.32865 1.4273 0
M  V30 12693 O 1332.61 -1.86492 0.59981 0
M  V30 12694 H 1331.19 0.00551514 0.74698 0
M  V30 12695 H 1333.85 0.718185 1.81185 0
M  V30 12696 H 1332.95 -0.0705813 3.1202 0
M  V30 12697 N 1333.25 -1.54984 0.285932 0
M  V30 12698 C 1334.16 -2.26621 -0.606648 0
M  V30 12699 C 1335.17 -1.29595 -1.16108 0
M  V30 12700 O 1336.35 -1.62551 -1.18908 0
M  V30 12701 C 1333.41 -2.98156 -1.76929 0
M  V30 12702 C 1332.47 -4.10685 -1.25045 0
M  V30 12703 C 1331.71 -4.788 -2.35768 0
M  V30 12704 O 1331.93 -4.46183 -3.55354 0
M  V30 12705 O 1330.86 -5.66523 -2.03312 0
M  V30 12706 H 1334.69 -3.03689 -0.0259981 0
M  V30 12707 H 1332.28 -1.49306 0.0529355 0
M  V30 12708 H 1334.16 -3.43076 -2.44697 0
M  V30 12709 H 1332.83 -2.23996 -2.33683 0
M  V30 12710 H 1331.74 -3.70198 -0.538919 0
M  V30 12711 H 1333.07 -4.86778 -0.728528 0
M  V30 12712 N 1334.72 -0.0133892 -1.57594 0
M  V30 12713 C 1335.69 0.958601 -2.08191 0
M  V30 12714 C 1336.69 1.26408 -0.993865 0
M  V30 12715 O 1337.88 1.20703 -1.25604 0
M  V30 12716 C 1335.01 2.27971 -2.5346 0
M  V30 12717 H 1336.2 0.520686 -2.95345 0
M  V30 12718 H 1333.76 0.234351 -1.54533 0
M  V30 12719 H 1334.49 2.76424 -1.69588 0
M  V30 12720 H 1334.28 2.07116 -3.32935 0
M  V30 12721 H 1335.77 2.97672 -2.92884 0
M  V30 12722 N 1336.2 1.55448 0.259558 0
M  V30 12723 C 1337.61 1.67256 0.8296 0
M  V30 12724 C 1337.96 0.60851 1.86525 0
M  V30 12725 O 1337.09 -0.247563 2.14979 0
M  V30 12726 C 1337.68 3.03213 1.51152 0
M  V30 12727 C 1336.24 3.17004 2.02943 0
M  V30 12728 C 1335.39 2.63096 0.876103 0
M  V30 12729 H 1338.34 1.5866 0.0356218 0
M  V30 12730 H 1338.36 2.96952 2.37906 0
M  V30 12731 H 1337.87 3.80635 0.75752 0
M  V30 12732 H 1335.98 2.44381 2.81263 0
M  V30 12733 H 1336.09 4.23748 2.2355 0
M  V30 12734 H 1334.45 2.20596 1.27317 0
M  V30 12735 H 1335.24 3.43033 0.13539 0
M  V30 12736 N 1337.68 -0.524672 1.4861 0
M  V30 12737 C 1339.1 -0.853703 1.34848 0
M  V30 12738 C 1339.3 -1.98194 0.363529 0
M  V30 12739 O 1338.35 -2.51597 -0.213348 0
M  V30 12740 C 1339.67 -1.21622 2.75006 0
M  V30 12741 C 1341.21 -1.3258 2.83534 0
M  V30 12742 C 1341.69 -1.72172 4.24406 0
M  V30 12743 N 1343.18 -1.79265 4.27105 0
M  V30 12744 C 1343.91 -2.11296 5.33049 0
M  V30 12745 N 1343.41 -2.41714 6.49266 0
M  V30 12746 N 1345.2 -2.12347 5.20447 0
M  V30 12747 H 1337.35 0.219671 2.11261 0
M  V30 12748 H 1339.62 0.0356444 0.94733 0
M  V30 12749 H 1339.32 -0.460776 3.48669 0
M  V30 12750 H 1339.2 -2.16516 3.0887 0
M  V30 12751 H 1341.58 -2.072 2.10124 0
M  V30 12752 H 1341.67 -0.357943 2.53283 0
M  V30 12753 H 1341.31 -0.981108 4.98334 0
M  V30 12754 H 1341.24 -2.70017 4.52104 0
M  V30 12755 H 1343.73 -1.58013 3.43279 0
M  V30 12756 H 1344.04 -2.65276 7.25843 0
M  V30 12757 H 1342.39 -2.39222 6.52532 0
M  V30 12758 H 1345.58 -1.88044 4.28669 0
M  V30 12759 H 1345.75 -2.36978 6.03113 0
M  V30 12760 N 1339.16 -1.37287 -0.77395 0
M  V30 12761 C 1340.09 -1.35569 -1.90114 0
M  V30 12762 C 1341.07 -0.224658 -1.6861 0
M  V30 12763 O 1342.25 -0.424676 -1.895 0
M  V30 12764 C 1339.38 -1.15971 -3.27365 0
M  V30 12765 C 1338.34 -2.26063 -3.63427 0
M  V30 12766 C 1337.66 -1.9159 -4.99197 0
M  V30 12767 C 1338.96 -3.68236 -3.70405 0
M  V30 12768 H 1340.66 -2.29891 -1.91808 0
M  V30 12769 H 1338.2 -1.10661 -0.92142 0
M  V30 12770 H 1340.16 -1.134 -4.05855 0
M  V30 12771 H 1338.88 -0.181043 -3.26098 0
M  V30 12772 H 1337.54 -2.27786 -2.87244 0
M  V30 12773 H 1337.19 -0.922586 -4.94467 0
M  V30 12774 H 1336.89 -2.65309 -5.24294 0
M  V30 12775 H 1338.41 -1.90602 -5.80089 0
M  V30 12776 H 1339.83 -3.68655 -4.39052 0
M  V30 12777 H 1338.22 -4.4099 -4.06999 0
M  V30 12778 H 1339.29 -4.02021 -2.71122 0
M  V30 12779 N 1340.64 0.999871 -1.21821 0
M  V30 12780 C 1341.57 2.10708 -1.00621 0
M  V30 12781 C 1342.55 1.69954 0.0705417 0
M  V30 12782 O 1343.73 1.9399 -0.0903042 0
M  V30 12783 C 1340.86 3.42496 -0.575646 0
M  V30 12784 C 1339.82 3.97068 -1.59754 0
M  V30 12785 C 1339.14 5.24822 -1.02304 0
M  V30 12786 C 1340.44 4.28545 -2.98574 0
M  V30 12787 H 1342.14 2.28701 -1.93226 0
M  V30 12788 H 1339.68 1.09903 -0.930443 0
M  V30 12789 H 1341.64 4.19357 -0.414481 0
M  V30 12790 H 1340.36 3.2431 0.386059 0
M  V30 12791 H 1339.02 3.22332 -1.74636 0
M  V30 12792 H 1338.67 5.02972 -0.0529016 0
M  V30 12793 H 1338.37 5.62299 -1.70567 0
M  V30 12794 H 1339.89 6.04322 -0.873312 0
M  V30 12795 H 1341.3 4.96229 -2.87106 0
M  V30 12796 H 1339.7 4.77178 -3.63897 0
M  V30 12797 H 1340.77 3.36607 -3.49032 0
M  V30 12798 N 1342.11 1.02678 1.19562 0
M  V30 12799 C 1343.39 0.63674 1.84946 0
M  V30 12800 C 1343.77 -0.884667 1.91669 0
M  V30 12801 O 1343.12 -1.78053 1.43211 0
M  V30 12802 C 1343.33 1.29637 3.2403 0
M  V30 12803 C 1344.68 1.41828 4.00212 0
M  V30 12804 O 1345.7 1.25338 3.3342 0
M  V30 12805 O 1344.56 1.68573 5.19851 0
M  V30 12806 H 1341.65 0.221044 0.796912 0
M  V30 12807 H 1344.2 1.1248 1.27068 0
M  V30 12808 H 1342.97 2.33549 3.1396 0
M  V30 12809 H 1342.6 0.796041 3.8955 0
M  V30 12810 N 1343.59 -1.35528 0.804364 0
M  V30 12811 C 1344.56 -2.28153 0.21885 0
M  V30 12812 C 1345.56 -1.49486 -0.592511 0
M  V30 12813 O 1346.75 -1.69274 -0.411319 0
M  V30 12814 C 1343.88 -3.33736 -0.695195 0
M  V30 12815 H 1345.07 -2.81446 1.03576 0
M  V30 12816 H 1342.62 -1.45345 0.574854 0
M  V30 12817 H 1343.36 -2.85625 -1.53587 0
M  V30 12818 H 1343.14 -3.91931 -0.115143 0
M  V30 12819 H 1344.63 -4.02872 -1.09925 0
M  V30 12820 N 1345.07 -0.557671 -1.47404 0
M  V30 12821 C 1345.98 0.19289 -2.33806 0
M  V30 12822 C 1347 0.911424 -1.4822 0
M  V30 12823 O 1348.17 0.880214 -1.81147 0
M  V30 12824 C 1345.24 1.20937 -3.24923 0
M  V30 12825 C 1344.3 0.498209 -4.26399 0
M  V30 12826 C 1343.53 1.46626 -5.13163 0
M  V30 12827 O 1343.76 2.70111 -5.0239 0
M  V30 12828 O 1342.69 0.990497 -5.93694 0
M  V30 12829 H 1346.52 -0.515861 -2.99287 0
M  V30 12830 H 1344.1 -0.318283 -1.4597 0
M  V30 12831 H 1345.98 1.7961 -3.81206 0
M  V30 12832 H 1344.66 1.90003 -2.6207 0
M  V30 12833 H 1343.56 -0.129736 -3.73875 0
M  V30 12834 H 1344.9 -0.151015 -4.91968 0
M  V30 12835 N 1346.55 1.54831 -0.294147 0
M  V30 12836 C 1347.8 1.99606 0.316509 0
M  V30 12837 C 1348.12 1.18405 1.54936 0
M  V30 12838 O 1347.39 0.278289 1.93913 0
M  V30 12839 H 1345.97 0.737309 0.119938 0
M  V30 12840 H 1348.63 1.90669 -0.403891 0
M  V30 12841 H 1347.73 3.06409 0.593282 0
M  V30 12842 N 1348.03 0.0217466 1.57585 0
M  V30 12843 C 1348.96 -0.961069 2.12804 0
M  V30 12844 C 1349.94 -1.3442 1.04237 0
M  V30 12845 O 1351.12 -1.42412 1.32032 0
M  V30 12846 C 1348.25 -2.24586 2.64912 0
M  V30 12847 C 1347.21 -2.0037 3.78201 0
M  V30 12848 C 1346.53 -3.35051 4.16708 0
M  V30 12849 C 1347.83 -1.34879 5.04584 0
M  V30 12850 H 1349.53 -0.501222 2.95175 0
M  V30 12851 H 1347.07 -0.239649 1.41992 0
M  V30 12852 H 1349.03 -2.93715 3.02175 0
M  V30 12853 H 1347.75 -2.72723 1.79693 0
M  V30 12854 H 1346.41 -1.33662 3.41365 0
M  V30 12855 H 1346.06 -3.80932 3.28481 0
M  V30 12856 H 1345.76 -3.19656 4.93045 0
M  V30 12857 H 1347.28 -4.05459 4.56547 0
M  V30 12858 H 1348.7 -1.93997 5.3948 0
M  V30 12859 H 1347.09 -1.29906 5.85871 0
M  V30 12860 H 1348.16 -0.320774 4.83838 0
M  V30 12861 N 1349.51 -1.55583 -0.251311 0
M  V30 12862 C 1350.44 -1.84909 -1.33731 0
M  V30 12863 C 1351.42 -0.703814 -1.46578 0
M  V30 12864 O 1352.6 -0.949108 -1.62862 0
M  V30 12865 C 1349.73 -2.0299 -2.71133 0
M  V30 12866 C 1348.77 -3.25615 -2.75458 0
M  V30 12867 S 1349.61 -4.82388 -2.32512 0
M  V30 12868 C 1350.76 -5.03469 -3.71846 0
M  V30 12869 H 1351 -2.76733 -1.08656 0
M  V30 12870 H 1348.53 -1.47634 -0.45207 0
M  V30 12871 H 1350.49 -2.14091 -3.5025 0
M  V30 12872 H 1349.15 -1.12016 -2.93447 0
M  V30 12873 H 1348.34 -3.35219 -3.76356 0
M  V30 12874 H 1347.94 -3.13217 -2.0438 0
M  V30 12875 H 1350.23 -4.90542 -4.67306 0
M  V30 12876 H 1351.18 -6.05463 -3.67179 0
M  V30 12877 H 1351.59 -4.31337 -3.64155 0
M  V30 12878 N 1350.98 0.516783 -1.48886 0
M  V30 12879 C 1352.23 1.27375 -1.57808 0
M  V30 12880 C 1352.56 1.92492 -0.256963 0
M  V30 12881 O 1351.84 1.79947 0.738193 0
M  V30 12882 C 1352.12 2.35295 -2.72595 0
M  V30 12883 C 1351.97 1.74783 -4.14453 0
M  V30 12884 C 1353.29 3.36973 -2.83085 0
M  V30 12885 H 1350.41 0.46175 -0.574418 0
M  V30 12886 H 1353.05 0.57434 -1.81111 0
M  V30 12887 H 1351.2 2.94951 -2.52857 0
M  V30 12888 H 1352.88 1.19076 -4.45666 0
M  V30 12889 H 1351.12 1.05258 -4.20836 0
M  V30 12890 H 1351.79 2.52985 -4.90615 0
M  V30 12891 H 1354.27 2.87289 -3.01005 0
M  V30 12892 H 1353.14 4.09864 -3.65106 0
M  V30 12893 H 1353.4 3.98336 -1.91784 0
M  V30 12894 N 1352.46 1.37696 0.766659 0
M  V30 12895 C 1353.69 1.3639 1.55581 0
M  V30 12896 C 1354.1 -0.0495272 1.88735 0
M  V30 12897 O 1353.46 -1.01268 1.51826 0
M  V30 12898 C 1353.51 2.20717 2.86298 0
M  V30 12899 O 1353.23 3.56552 2.54563 0
M  V30 12900 C 1354.73 2.27446 3.80504 0
M  V30 12901 H 1351.95 0.466993 0.481828 0
M  V30 12902 H 1354.5 1.81103 0.949834 0
M  V30 12903 H 1352.65 1.79499 3.43306 0
M  V30 12904 H 1353.07 4.00811 3.38306 0
M  V30 12905 H 1354.54 2.90762 4.69214 0
M  V30 12906 H 1355.02 1.28434 4.20002 0
M  V30 12907 H 1355.62 2.68998 3.29424 0
M  V30 12908 N 1353.94 -0.993397 1.22349 0
M  V30 12909 C 1355.19 -1.72945 1.04568 0
M  V30 12910 C 1355.51 -1.90419 -0.420178 0
M  V30 12911 O 1354.78 -1.46348 -1.30227 0
M  V30 12912 H 1353.36 -0.640777 0.383945 0
M  V30 12913 H 1356.02 -1.19647 1.53853 0
M  V30 12914 H 1355.12 -2.72411 1.52311 0
M  V30 12915 N 1355.42 -1.03311 -1.19015 0
M  V30 12916 C 1356.67 -0.730593 -1.88432 0
M  V30 12917 C 1356.99 0.743392 -1.80274 0
M  V30 12918 O 1356.26 1.5359 -1.21601 0
M  V30 12919 H 1354.84 -0.267253 -0.697556 0
M  V30 12920 H 1357.5 -1.30824 -1.44468 0
M  V30 12921 H 1356.59 -1.02867 -2.9466 0
M  V30 12922 N 1356.9 1.35099 -0.81154 0
M  V30 12923 C 1358.31 1.51701 -0.495883 0
M  V30 12924 C 1358.51 1.7595 0.982035 0
M  V30 12925 O 1357.57 1.8038 1.7669 0
M  V30 12926 C 1358.88 2.68916 -1.34554 0
M  V30 12927 C 1360.43 2.82795 -1.34149 0
M  V30 12928 C 1360.9 4.0304 -2.17538 0
M  V30 12929 N 1362.39 4.10227 -2.151 0
M  V30 12930 C 1363.13 5.02397 -2.76377 0
M  V30 12931 N 1362.63 5.99866 -3.46601 0
M  V30 12932 N 1364.42 4.95181 -2.65992 0
M  V30 12933 H 1356.57 1.17617 -1.76862 0
M  V30 12934 H 1358.83 0.575875 -0.753042 0
M  V30 12935 H 1358.54 2.57591 -2.39458 0
M  V30 12936 H 1358.41 3.63641 -1.00223 0
M  V30 12937 H 1360.8 2.93568 -0.300285 0
M  V30 12938 H 1360.88 1.88912 -1.7247 0
M  V30 12939 H 1360.52 3.93027 -3.21702 0
M  V30 12940 H 1360.45 4.96114 -1.76574 0
M  V30 12941 H 1362.95 3.40454 -1.6401 0
M  V30 12942 H 1363.26 6.66803 -3.90632 0
M  V30 12943 H 1361.6 6.00025 -3.50706 0
M  V30 12944 H 1364.79 4.17991 -2.10715 0
M  V30 12945 H 1364.97 5.6682 -3.14036 0
M  V30 12946 N 1358.37 0.56548 1.47106 0
M  V30 12947 C 1359.79 0.225855 1.57994 0
M  V30 12948 C 1359.99 -1.27173 1.56299 0
M  V30 12949 O 1359.05 -2.05242 1.47078 0
M  V30 12950 C 1360.36 0.859829 2.88145 0
M  V30 12951 C 1361.91 0.831821 3.01744 0
M  V30 12952 C 1362.38 1.44502 4.34607 0
M  V30 12953 N 1363.87 1.40857 4.41263 0
M  V30 12954 C 1364.61 1.85258 5.42648 0
M  V30 12955 N 1364.1 2.37553 6.508 0
M  V30 12956 N 1365.9 1.76279 5.33744 0
M  V30 12957 H 1358.05 1.53837 1.46451 0
M  V30 12958 H 1360.31 0.642013 0.697512 0
M  V30 12959 H 1360.02 1.91264 2.95146 0
M  V30 12960 H 1359.89 0.357762 3.755 0
M  V30 12961 H 1362.28 -0.212319 2.94335 0
M  V30 12962 H 1362.36 1.37173 2.1591 0
M  V30 12963 H 1362 2.48827 4.42773 0
M  V30 12964 H 1361.93 0.880479 5.19187 0
M  V30 12965 H 1364.42 1.02614 3.63702 0
M  V30 12966 H 1364.74 2.69335 7.24347 0
M  V30 12967 H 1363.08 2.41569 6.51667 0
M  V30 12968 H 1366.27 1.35195 4.48152 0
M  V30 12969 H 1366.45 2.11199 6.12616 0
M  V30 12970 N 1359.85 -1.54672 0.302354 0
M  V30 12971 C 1360.82 -2.22246 -0.560283 0
M  V30 12972 C 1361.82 -1.20895 -1.06023 0
M  V30 12973 O 1363.01 -1.45621 -0.956047 0
M  V30 12974 C 1360.14 -2.9099 -1.77589 0
M  V30 12975 H 1361.33 -2.99885 0.0301274 0
M  V30 12976 H 1358.88 -1.56209 0.0532036 0
M  V30 12977 H 1359.62 -2.17433 -2.4061 0
M  V30 12978 H 1359.4 -3.65288 -1.42503 0
M  V30 12979 H 1360.89 -3.42535 -2.38871 0
M  V30 12980 N 1361.33 -0.0301034 -1.57571 0
M  V30 12981 C 1362.24 0.967086 -2.1374 0
M  V30 12982 C 1363.26 1.35636 -1.0899 0
M  V30 12983 O 1364.43 1.43758 -1.41052 0
M  V30 12984 C 1361.5 2.23058 -2.65417 0
M  V30 12985 C 1360.56 1.90163 -3.84885 0
M  V30 12986 C 1359.79 3.10488 -4.34088 0
M  V30 12987 O 1360.01 4.23179 -3.8246 0
M  V30 12988 O 1358.95 2.92729 -5.25921 0
M  V30 12989 H 1362.77 0.519486 -2.99224 0
M  V30 12990 H 1360.36 0.190559 -1.4818 0
M  V30 12991 H 1362.24 2.97229 -2.98719 0
M  V30 12992 H 1360.92 2.66997 -1.83015 0
M  V30 12993 H 1359.82 1.13373 -3.56507 0
M  V30 12994 H 1361.16 1.51039 -4.68453 0
M  V30 12995 N 1362.81 1.55714 0.243056 0
M  V30 12996 C 1363.77 1.89832 1.28438 0
M  V30 12997 C 1364.77 0.775083 1.40887 0
M  V30 12998 O 1365.96 1.04304 1.39521 0
M  V30 12999 C 1363.09 2.13016 2.66153 0
M  V30 13000 H 1364.29 2.82947 0.994022 0
M  V30 13001 H 1361.84 1.48665 0.482521 0
M  V30 13002 H 1362.57 1.22381 3.00322 0
M  V30 13003 H 1362.36 2.94824 2.58498 0
M  V30 13004 H 1363.85 2.40581 3.41336 0
M  V30 13005 N 1364.29 -0.50888 1.49158 0
M  V30 13006 C 1365.23 -1.61129 1.65246 0
M  V30 13007 C 1366.2 -1.58582 0.49405 0
M  V30 13008 O 1367.39 -1.76689 0.720122 0
M  V30 13009 C 1364.53 -2.99311 1.71776 0
M  V30 13010 C 1363.64 -3.11933 2.98868 0
M  V30 13011 C 1362.78 -4.408 2.96426 0
M  V30 13012 C 1361.82 -4.47027 4.18131 0
M  V30 13013 N 1360.95 -5.67311 4.13645 0
M  V30 13014 H 1365.79 -1.4672 2.59379 0
M  V30 13015 H 1363.33 -0.713978 1.28611 0
M  V30 13016 H 1365.29 -3.79392 1.73543 0
M  V30 13017 H 1363.92 -3.12442 0.811159 0
M  V30 13018 H 1362.97 -2.24966 3.06748 0
M  V30 13019 H 1364.28 -3.12393 3.8886 0
M  V30 13020 H 1363.44 -5.29194 2.96712 0
M  V30 13021 H 1362.17 -4.42893 2.04199 0
M  V30 13022 H 1361.18 -3.57036 4.18097 0
M  V30 13023 H 1362.4 -4.46656 5.11542 0
M  V30 13024 H 1360.35 -5.70261 3.2425 0
M  V30 13025 H 1360.27 -5.69355 4.97364 0
M  V30 13026 H 1361.54 -6.57934 4.18022 0
M  V30 13027 N 1365.76 -1.381 -0.759346 0
M  V30 13028 C 1366.67 -1.37086 -1.9038 0
M  V30 13029 C 1367.69 -0.268738 -1.71912 0
M  V30 13030 O 1368.87 -0.506205 -1.94935 0
M  V30 13031 C 1365.93 -1.18905 -3.25672 0
M  V30 13032 C 1364.99 -2.3887 -3.56707 0
M  V30 13033 C 1364.23 -2.21546 -4.85544 0
M  V30 13034 O 1364.45 -1.20616 -5.57501 0
M  V30 13035 O 1363.38 -3.10009 -5.15924 0
M  V30 13036 H 1367.21 -2.33505 -1.94188 0
M  V30 13037 H 1364.79 -1.18959 -0.903826 0
M  V30 13038 H 1366.68 -1.10803 -4.06572 0
M  V30 13039 H 1365.35 -0.255675 -3.22689 0
M  V30 13040 H 1364.26 -2.52546 -2.75992 0
M  V30 13041 H 1365.59 -3.30817 -3.64446 0
M  V30 13042 N 1367.24 0.986894 -1.22875 0
M  V30 13043 C 1368.47 1.76266 -1.08342 0
M  V30 13044 C 1368.89 1.85226 0.365602 0
M  V30 13045 O 1368.24 1.32675 1.25314 0
M  V30 13046 C 1368.29 3.19282 -1.69533 0
M  V30 13047 O 1368.01 3.10796 -3.08768 0
M  V30 13048 C 1369.52 4.13281 -1.60355 0
M  V30 13049 H 1366.74 0.553374 -0.379497 0
M  V30 13050 H 1369.28 1.24033 -1.62592 0
M  V30 13051 H 1367.43 3.68563 -1.19332 0
M  V30 13052 H 1367.85 4.0078 -3.38343 0
M  V30 13053 H 1369.32 5.11359 -2.07884 0
M  V30 13054 H 1369.8 4.356 -0.561182 0
M  V30 13055 H 1370.41 3.699 -2.09891 0
M  V30 13056 N 1368.72 1.0394 1.18466 0
M  V30 13057 C 1369.63 0.639714 2.2571 0
M  V30 13058 C 1370.65 -0.333431 1.70775 0
M  V30 13059 O 1371.82 -0.188676 2.00514 0
M  V30 13060 C 1368.89 0.007559 3.46699 0
M  V30 13061 C 1367.95 1.02955 4.16772 0
M  V30 13062 C 1367.18 0.427464 5.31985 0
M  V30 13063 O 1367.4 -0.766684 5.65224 0
M  V30 13064 O 1366.34 1.15553 5.90704 0
M  V30 13065 H 1370.16 1.53316 2.6216 0
M  V30 13066 H 1367.75 0.810206 1.25523 0
M  V30 13067 H 1369.63 -0.344404 4.1999 0
M  V30 13068 H 1368.31 -0.859727 3.12074 0
M  V30 13069 H 1367.21 1.43328 3.45554 0
M  V30 13070 H 1368.55 1.86756 4.55393 0
M  V30 13071 N 1370.2 -1.34667 0.818693 0
M  V30 13072 C 1371.61 -1.80839 0.46414 0
M  V30 13073 C 1371.96 -1.67902 -1.01506 0
M  V30 13074 O 1371.09 -1.21658 -1.78964 0
M  V30 13075 C 1371.68 -3.28331 0.835698 0
M  V30 13076 C 1370.24 -3.72599 0.533575 0
M  V30 13077 C 1369.39 -2.56452 1.05487 0
M  V30 13078 H 1372.34 -1.22474 1.00925 0
M  V30 13079 H 1372.36 -3.8025 0.13785 0
M  V30 13080 H 1371.87 -3.37715 1.91233 0
M  V30 13081 H 1369.97 -3.68756 -0.533819 0
M  V30 13082 H 1370.08 -4.66891 1.07468 0
M  V30 13083 H 1368.45 -2.50201 0.476612 0
M  V30 13084 H 1369.23 -2.68608 2.13786 0
M  V30 13085 N 1371.68 -0.573274 -1.46804 0
M  V30 13086 C 1372.59 0.168081 -2.33997 0
M  V30 13087 C 1373.6 0.895652 -1.49178 0
M  V30 13088 O 1374.78 0.860951 -1.8207 0
M  V30 13089 C 1371.84 1.17483 -3.26188 0
M  V30 13090 C 1370.9 0.452956 -4.26904 0
M  V30 13091 C 1370.14 1.41175 -5.1469 0
M  V30 13092 O 1370.36 2.64767 -5.05227 0
M  V30 13093 O 1369.29 0.927472 -5.94711 0
M  V30 13094 H 1373.12 -0.547576 -2.98723 0
M  V30 13095 H 1370.71 -0.333747 -1.45624 0
M  V30 13096 H 1372.59 1.75557 -3.8309 0
M  V30 13097 H 1371.26 1.87213 -2.6407 0
M  V30 13098 H 1370.17 -0.169383 -3.73716 0
M  V30 13099 H 1371.5 -0.203186 -4.9178 0
M  V30 13100 N 1373.15 1.5451 -0.310553 0
M  V30 13101 C 1374.38 2.05204 0.301013 0
M  V30 13102 C 1374.8 1.1859 1.46007 0
M  V30 13103 O 1374.16 0.192081 1.8028 0
M  V30 13104 C 1374.21 3.53221 0.725767 0
M  V30 13105 O 1373.31 3.69596 1.82955 0
M  V30 13106 H 1372.66 0.661566 0.0568026 0
M  V30 13107 H 1375.19 1.99473 -0.455178 0
M  V30 13108 H 1375.2 3.9525 1.01198 0
M  V30 13109 H 1373.87 4.15721 -0.122046 0
M  V30 13110 H 1372.45 3.39472 1.54315 0
M  V30 13111 N 1374.63 0.0384594 1.57553 0
M  V30 13112 C 1375.56 -0.938444 2.13812 0
M  V30 13113 C 1376.54 -1.33307 1.05657 0
M  V30 13114 O 1377.73 -1.41003 1.33535 0
M  V30 13115 C 1374.86 -2.21764 2.67279 0
M  V30 13116 C 1373.81 -1.96347 3.80305 0
M  V30 13117 C 1373.14 -3.30612 4.20238 0
M  V30 13118 C 1374.44 -1.2952 5.05986 0
M  V30 13119 H 1376.13 -0.469887 2.9569 0
M  V30 13120 H 1373.68 -0.224576 1.42238 0
M  V30 13121 H 1375.63 -2.90493 3.05273 0
M  V30 13122 H 1374.36 -2.70802 1.82576 0
M  V30 13123 H 1373.02 -1.30033 3.42764 0
M  V30 13124 H 1372.66 -3.77427 3.32502 0
M  V30 13125 H 1372.36 -3.14409 4.96408 0
M  V30 13126 H 1373.89 -4.00594 4.60822 0
M  V30 13127 H 1375.3 -1.88264 5.41507 0
M  V30 13128 H 1373.7 -1.23685 5.87216 0
M  V30 13129 H 1374.77 -0.269439 4.84151 0
M  V30 13130 N 1376.11 -1.55841 -0.234795 0
M  V30 13131 C 1377.02 -1.94476 -1.31211 0
M  V30 13132 C 1378.04 -0.846782 -1.52005 0
M  V30 13133 O 1379.21 -1.14922 -1.65393 0
M  V30 13134 C 1376.28 -2.24213 -2.64442 0
M  V30 13135 C 1375.34 -3.47508 -2.52065 0
M  V30 13136 C 1374.57 -3.75817 -3.78942 0
M  V30 13137 O 1374.8 -3.06007 -4.81369 0
M  V30 13138 O 1373.73 -4.69328 -3.76848 0
M  V30 13139 H 1377.56 -2.8626 -1.01434 0
M  V30 13140 H 1375.14 -1.42879 -0.436563 0
M  V30 13141 H 1377.02 -2.44594 -3.4315 0
M  V30 13142 H 1375.7 -1.35605 -2.93927 0
M  V30 13143 H 1374.6 -3.32421 -1.71602 0
M  V30 13144 H 1375.94 -4.36457 -2.27523 0
M  V30 13145 N 1377.59 0.500963 -1.49426 0
M  V30 13146 C 1378.54 1.59939 -1.62492 0
M  V30 13147 C 1379.52 1.53555 -0.480584 0
M  V30 13148 O 1380.72 1.61085 -0.733538 0
M  V30 13149 C 1377.84 2.98549 -1.6948 0
M  V30 13150 C 1376.93 3.09929 -2.89491 0
M  V30 13151 N 1377.32 2.91198 -4.13567 0
M  V30 13152 C 1375.62 3.41029 -2.87428 0
M  V30 13153 C 1376.32 3.06761 -4.94239 0
M  V30 13154 N 1375.3 3.35639 -4.27606 0
M  V30 13155 H 1379.1 1.44111 -2.56143 0
M  V30 13156 H 1376.61 0.707088 -1.46199 0
M  V30 13157 H 1378.61 3.7749 -1.76938 0
M  V30 13158 H 1377.27 3.15446 -0.769658 0
M  V30 13159 H 1378.28 2.67373 -4.43545 0
M  V30 13160 H 1374.96 3.64103 -2.04293 0
M  V30 13161 H 1376.35 2.96772 -6.02807 0
M  V30 13162 N 1379.07 1.38501 0.752011 0
M  V30 13163 C 1380.31 1.34995 1.51341 0
M  V30 13164 C 1380.65 -0.0594724 1.94109 0
M  V30 13165 O 1379.92 -1.02098 1.65548 0
M  V30 13166 C 1380.2 2.30705 2.76491 0
M  V30 13167 C 1380.06 3.80515 2.39851 0
M  V30 13168 C 1381.38 2.24521 3.78521 0
M  V30 13169 H 1378.5 0.491687 0.549011 0
M  V30 13170 H 1381.14 1.69361 0.861205 0
M  V30 13171 H 1379.29 2.01529 3.32142 0
M  V30 13172 H 1380.96 4.20371 1.89962 0
M  V30 13173 H 1379.2 3.98119 1.7229 0
M  V30 13174 H 1379.87 4.42946 3.29397 0
M  V30 13175 H 1382.35 2.50282 3.32413 0
M  V30 13176 H 1381.23 2.93598 4.63779 0
M  V30 13177 H 1381.49 1.24457 4.2422 0
M  V30 13178 N 1380.55 -0.980364 1.23396 0
M  V30 13179 C 1381.96 -1.24658 0.996622 0
M  V30 13180 C 1382.16 -1.9922 -0.302259 0
M  V30 13181 O 1381.22 -2.30906 -1.02169 0
M  V30 13182 C 1382.53 -2.0461 2.20353 0
M  V30 13183 C 1384.08 -2.17749 2.24843 0
M  V30 13184 C 1384.55 -3.01091 3.4512 0
M  V30 13185 N 1386.04 -3.08676 3.4536 0
M  V30 13186 C 1386.78 -3.73487 4.3508 0
M  V30 13187 N 1386.28 -4.40121 5.35038 0
M  V30 13188 N 1388.07 -3.70373 4.22824 0
M  V30 13189 H 1380.22 -0.480851 2.06885 0
M  V30 13190 H 1382.48 -0.275049 0.907222 0
M  V30 13191 H 1382.19 -1.57197 3.14614 0
M  V30 13192 H 1382.06 -3.05359 2.21441 0
M  V30 13193 H 1384.45 -2.64369 1.31122 0
M  V30 13194 H 1384.53 -1.16388 2.27788 0
M  V30 13195 H 1384.17 -2.55168 4.39149 0
M  V30 13196 H 1384.1 -4.02621 3.39417 0
M  V30 13197 H 1386.6 -2.61265 2.73037 0
M  V30 13198 H 1386.91 -4.87354 5.99755 0
M  V30 13199 H 1385.25 -4.38829 5.38938 0
M  V30 13200 H 1388.44 -3.17486 3.43977 0
M  V30 13201 H 1388.62 -4.20601 4.92949 0
M  V30 13202 N 1382.02 -1.04567 -1.17913 0
M  V30 13203 C 1383.27 -0.750538 -1.87647 0
M  V30 13204 C 1383.59 0.72423 -1.81052 0
M  V30 13205 O 1382.86 1.52292 -1.23223 0
M  V30 13206 H 1381.44 -0.274636 -0.694683 0
M  V30 13207 H 1384.1 -1.32349 -1.43072 0
M  V30 13208 H 1383.2 -1.05987 -2.93553 0
M  V30 13209 N 1383.5 1.34231 -0.825823 0
M  V30 13210 C 1384.43 2.28261 -0.207234 0
M  V30 13211 C 1385.45 1.51159 0.604554 0
M  V30 13212 O 1386.64 1.7315 0.43376 0
M  V30 13213 C 1383.74 3.30991 0.727868 0
M  V30 13214 C 1382.91 4.3738 -0.0417267 0
M  V30 13215 C 1381.97 5.19854 0.81474 0
M  V30 13216 O 1380.99 5.68612 0.25867 0
M  V30 13217 N 1382.2 5.39849 2.1341 0
M  V30 13218 H 1384.96 2.81986 -1.0151 0
M  V30 13219 H 1382.52 1.46785 -0.683056 0
M  V30 13220 H 1384.51 3.83065 1.3055 0
M  V30 13221 H 1383.08 2.7764 1.43647 0
M  V30 13222 H 1382.3 3.85983 -0.800686 0
M  V30 13223 H 1383.59 5.05581 -0.571395 0
M  V30 13224 H 1382.99 5.01914 2.60958 0
M  V30 13225 H 1381.55 5.95029 2.66052 0
M  V30 13226 N 1384.98 0.581051 1.46498 0
M  V30 13227 C 1385.89 -0.155669 2.34083 0
M  V30 13228 C 1386.91 -0.887728 1.49651 0
M  V30 13229 O 1388.08 -0.851284 1.82524 0
M  V30 13230 C 1385.15 -1.15752 3.26806 0
M  V30 13231 C 1384.21 -0.43031 4.27138 0
M  V30 13232 C 1383.44 -1.38443 5.15431 0
M  V30 13233 O 1383.66 -2.62084 5.06624 0
M  V30 13234 O 1382.6 -0.89592 5.95195 0
M  V30 13235 H 1386.42 0.56341 2.98428 0
M  V30 13236 H 1384.01 0.341466 1.45445 0
M  V30 13237 H 1385.89 -1.73523 3.84015 0
M  V30 13238 H 1384.57 -1.85809 2.65059 0
M  V30 13239 H 1383.47 0.1892 3.73621 0
M  V30 13240 H 1384.81 0.229263 4.91666 0
M  V30 13241 N 1386.46 -1.54343 0.318742 0
M  V30 13242 C 1387.37 -2.27856 -0.558442 0
M  V30 13243 C 1388.38 -1.32029 -1.13333 0
M  V30 13244 O 1389.56 -1.65037 -1.15433 0
M  V30 13245 C 1386.62 -3.01842 -1.70565 0
M  V30 13246 C 1385.69 -4.13245 -1.16305 0
M  V30 13247 C 1384.92 -4.83693 -2.25559 0
M  V30 13248 O 1385.14 -4.53621 -3.4581 0
M  V30 13249 O 1384.08 -5.70708 -1.91249 0
M  V30 13250 H 1387.9 -3.03676 0.0384247 0
M  V30 13251 H 1385.49 -1.4916 0.0845936 0
M  V30 13252 H 1387.37 -3.48189 -2.37365 0
M  V30 13253 H 1386.04 -2.28902 -2.28879 0
M  V30 13254 H 1384.95 -3.71258 -0.460274 0
M  V30 13255 H 1386.28 -4.88214 -0.625111 0
M  V30 13256 N 1387.94 -0.0468143 -1.5753 0
M  V30 13257 C 1388.87 0.958157 -2.08211 0
M  V30 13258 C 1389.88 1.27757 -1.00906 0
M  V30 13259 O 1391.07 1.23913 -1.28483 0
M  V30 13260 C 1388.17 2.28088 -2.50657 0
M  V30 13261 C 1387.34 2.14403 -3.81248 0
M  V30 13262 C 1386.4 3.29761 -4.10054 0
M  V30 13263 O 1385.43 3.05859 -4.8004 0
M  V30 13264 N 1386.63 4.54104 -3.61621 0
M  V30 13265 H 1389.39 0.525612 -2.95055 0
M  V30 13266 H 1386.96 0.139532 -1.61298 0
M  V30 13267 H 1388.95 3.04121 -2.67007 0
M  V30 13268 H 1387.52 2.62924 -1.69085 0
M  V30 13269 H 1386.74 1.22988 -3.74523 0
M  V30 13270 H 1388.03 2.02482 -4.66775 0
M  V30 13271 H 1387.42 4.76414 -3.05034 0
M  V30 13272 H 1385.98 5.27246 -3.83217 0
M  V30 13273 N 1389.41 1.55964 0.226527 0
M  V30 13274 C 1390.83 1.68978 0.793936 0
M  V30 13275 C 1391.18 0.647938 1.85192 0
M  V30 13276 O 1390.3 -0.201907 2.15456 0
M  V30 13277 C 1390.9 3.06351 1.44687 0
M  V30 13278 C 1389.46 3.21237 1.96173 0
M  V30 13279 C 1388.6 2.64896 0.8201 0
M  V30 13280 H 1391.55 1.587 0.00195967 0
M  V30 13281 H 1391.57 3.01932 2.31554 0
M  V30 13282 H 1391.09 3.82156 0.676611 0
M  V30 13283 H 1389.19 2.50292 2.76016 0
M  V30 13284 H 1389.3 4.28394 2.14512 0
M  V30 13285 H 1387.66 2.23247 1.22609 0
M  V30 13286 H 1388.45 3.43243 0.0625967 0
M  V30 13287 N 1390.89 -0.493031 1.4969 0
M  V30 13288 C 1392.12 -1.27046 1.633 0
M  V30 13289 C 1392.54 -1.86278 0.307534 0
M  V30 13290 O 1391.89 -1.68208 -0.707968 0
M  V30 13291 C 1391.94 -2.39501 2.70779 0
M  V30 13292 O 1391.66 -1.82702 3.98185 0
M  V30 13293 C 1393.17 -3.30744 2.95166 0
M  V30 13294 H 1390.39 -0.385042 0.54953 0
M  V30 13295 H 1392.93 -0.590998 1.95774 0
M  V30 13296 H 1391.08 -3.03263 2.41061 0
M  V30 13297 H 1391.5 -2.56588 4.57452 0
M  V30 13298 H 1392.97 -4.05912 3.74085 0
M  V30 13299 H 1393.45 -3.88217 2.05387 0
M  V30 13300 H 1394.06 -2.72741 3.26332 0
M  V30 13301 N 1392.37 -1.38898 -0.744656 0
M  V30 13302 C 1393.32 -1.33342 -1.84943 0
M  V30 13303 C 1394.3 -0.216036 -1.59443 0
M  V30 13304 O 1395.5 -0.452764 -1.71111 0
M  V30 13305 C 1392.63 -1.16966 -3.2276 0
M  V30 13306 C 1391.71 -2.33365 -3.54121 0
M  V30 13307 N 1392.1 -3.58824 -3.56481 0
M  V30 13308 C 1390.4 -2.26112 -3.84434 0
M  V30 13309 C 1391.1 -4.35741 -3.85364 0
M  V30 13310 N 1390.08 -3.65206 -4.02648 0
M  V30 13311 H 1393.88 -2.28321 -1.85059 0
M  V30 13312 H 1391.39 -1.32257 -0.94244 0
M  V30 13313 H 1393.39 -1.11069 -4.01832 0
M  V30 13314 H 1392.05 -0.229288 -3.23889 0
M  V30 13315 H 1393.06 -3.92377 -3.38025 0
M  V30 13316 H 1389.74 -1.40283 -3.93226 0
M  V30 13317 H 1391.13 -5.44445 -3.93738 0
M  V30 13318 N 1393.85 0.973806 -1.23914 0
M  V30 13319 C 1394.78 2.07003 -0.983982 0
M  V30 13320 C 1395.79 1.62739 0.0443893 0
M  V30 13321 O 1396.98 1.77465 -0.191927 0
M  V30 13322 C 1394.08 3.35737 -0.461937 0
M  V30 13323 C 1393.26 4.08939 -1.55202 0
M  V30 13324 C 1392.31 5.15947 -1.03369 0
M  V30 13325 O 1391.34 5.42461 -1.72409 0
M  V30 13326 N 1392.54 5.80343 0.135067 0
M  V30 13327 H 1395.31 2.29468 -1.92781 0
M  V30 13328 H 1392.87 1.14098 -1.14861 0
M  V30 13329 H 1394.86 4.04576 -0.100074 0
M  V30 13330 H 1393.43 3.10189 0.387467 0
M  V30 13331 H 1392.65 3.34462 -2.08635 0
M  V30 13332 H 1393.94 4.5461 -2.2849 0
M  V30 13333 H 1393.34 5.61196 0.71241 0
M  V30 13334 H 1391.89 6.50326 0.438132 0
M  V30 13335 N 1395.33 1.05191 1.17357 0
M  V30 13336 C 1396.29 0.65713 2.19578 0
M  V30 13337 C 1397.29 -0.29138 1.58138 0
M  V30 13338 O 1398.48 -0.075254 1.74037 0
M  V30 13339 C 1395.61 -0.0348162 3.40882 0
M  V30 13340 H 1396.8 1.56188 2.56018 0
M  V30 13341 H 1394.36 0.845795 1.31438 0
M  V30 13342 H 1395.09 -0.952835 3.09986 0
M  V30 13343 H 1394.88 0.647076 3.86724 0
M  V30 13344 H 1396.37 -0.297135 4.16542 0
M  V30 13345 N 1396.8 -1.33791 0.83293 0
M  V30 13346 C 1398.22 -1.80336 0.483294 0
M  V30 13347 C 1398.57 -1.68969 -0.997195 0
M  V30 13348 O 1397.69 -1.23549 -1.77664 0
M  V30 13349 C 1398.29 -3.27427 0.870475 0
M  V30 13350 C 1396.85 -3.72012 0.573064 0
M  V30 13351 C 1395.99 -2.55319 1.08201 0
M  V30 13352 H 1398.94 -1.21396 1.02218 0
M  V30 13353 H 1398.96 -3.80083 0.178173 0
M  V30 13354 H 1398.48 -3.35668 1.94804 0
M  V30 13355 H 1396.58 -3.69302 -0.494678 0
M  V30 13356 H 1396.69 -4.65725 1.12414 0
M  V30 13357 H 1395.05 -2.49681 0.503123 0
M  V30 13358 H 1395.84 -2.66326 2.16623 0
M  V30 13359 N 1398.28 -0.588812 -1.46187 0
M  V30 13360 C 1399.25 0.130803 -2.28826 0
M  V30 13361 C 1400.25 0.813037 -1.38731 0
M  V30 13362 O 1401.44 0.664061 -1.61046 0
M  V30 13363 C 1398.57 1.19484 -3.19275 0
M  V30 13364 H 1399.76 -0.595514 -2.93928 0
M  V30 13365 H 1397.31 -0.347038 -1.52399 0
M  V30 13366 H 1398.05 1.95254 -2.58933 0
M  V30 13367 H 1397.83 0.710077 -3.85617 0
M  V30 13368 H 1399.32 1.69938 -3.81459 0
M  V30 13369 N 1399.76 1.54172 -0.326923 0
M  V30 13370 C 1400.67 2.28149 0.546351 0
M  V30 13371 C 1401.69 1.32628 1.12631 0
M  V30 13372 O 1402.86 1.65647 1.14556 0
M  V30 13373 C 1399.93 3.02742 1.68962 0
M  V30 13374 C 1398.99 4.13856 1.14112 0
M  V30 13375 C 1398.22 4.84882 2.2299 0
M  V30 13376 O 1398.44 4.55448 3.43399 0
M  V30 13377 O 1397.38 5.71714 1.8822 0
M  V30 13378 H 1401.2 3.03651 -0.0545288 0
M  V30 13379 H 1398.79 1.49113 -0.0925027 0
M  V30 13380 H 1400.67 3.49443 2.35515 0
M  V30 13381 H 1399.35 2.30113 2.27662 0
M  V30 13382 H 1398.25 3.71497 0.440579 0
M  V30 13383 H 1399.59 4.88539 0.599211 0
M  V30 13384 N 1401.24 0.0551678 1.57503 0
M  V30 13385 C 1402.2 -0.903065 2.10659 0
M  V30 13386 C 1403.2 -1.23728 1.02703 0
M  V30 13387 O 1404.39 -1.17331 1.2876 0
M  V30 13388 C 1401.52 -2.21171 2.59415 0
M  V30 13389 H 1402.72 -0.442197 2.96622 0
M  V30 13390 H 1400.27 -0.193297 1.551 0
M  V30 13391 H 1401 -2.71831 1.76858 0
M  V30 13392 H 1400.79 -1.98216 3.38309 0
M  V30 13393 H 1402.28 -2.89802 3.00674 0
M  V30 13394 N 1402.72 -1.56081 -0.218252 0
M  V30 13395 C 1403.68 -1.91851 -1.25402 0
M  V30 13396 C 1404.68 -0.797399 -1.39636 0
M  V30 13397 O 1405.87 -1.06511 -1.37844 0
M  V30 13398 C 1403 -2.17223 -2.6273 0
M  V30 13399 H 1404.19 -2.84493 -0.948882 0
M  V30 13400 H 1401.75 -1.49414 -0.458809 0
M  V30 13401 H 1402.48 -1.27144 -2.98337 0
M  V30 13402 H 1402.27 -2.98899 -2.53775 0
M  V30 13403 H 1403.76 -2.45981 -3.37466 0
M  V30 13404 N 1404.2 0.485086 -1.49949 0
M  V30 13405 C 1405.61 1.06629 -1.53255 0
M  V30 13406 C 1405.96 1.9344 -0.327915 0
M  V30 13407 O 1405.08 2.09011 0.560669 0
M  V30 13408 C 1405.68 1.94053 -2.77721 0
M  V30 13409 C 1404.24 2.47307 -2.83754 0
M  V30 13410 C 1403.38 1.25307 -2.47373 0
M  V30 13411 H 1406.33 0.268297 -1.56416 0
M  V30 13412 H 1406.36 2.78946 -2.58784 0
M  V30 13413 H 1405.87 1.30843 -3.65379 0
M  V30 13414 H 1403.97 3.1411 -2.00414 0
M  V30 13415 H 1404.08 2.83371 -3.86313 0
M  V30 13416 H 1402.45 1.5834 -1.99501 0
M  V30 13417 H 1403.23 0.637815 -3.37323 0
M  V30 13418 N 1405.67 1.39291 0.737279 0
M  V30 13419 C 1406.58 1.40098 1.88175 0
M  V30 13420 C 1407.6 0.296053 1.71463 0
M  V30 13421 O 1408.78 0.537153 1.94105 0
M  V30 13422 C 1405.84 1.24071 3.2374 0
M  V30 13423 C 1404.9 2.44515 3.52861 0
M  V30 13424 C 1404.13 2.29243 4.81958 0
M  V30 13425 O 1404.36 1.2947 5.55512 0
M  V30 13426 O 1403.29 3.18178 5.10927 0
M  V30 13427 H 1407.12 2.36565 1.90449 0
M  V30 13428 H 1404.7 1.20382 0.884786 0
M  V30 13429 H 1406.58 1.17257 4.04758 0
M  V30 13430 H 1405.26 0.30698 3.22241 0
M  V30 13431 H 1404.17 2.56905 2.71939 0
M  V30 13432 H 1405.5 3.36573 3.59137 0
M  V30 13433 N 1407.15 -0.967221 1.24429 0
M  V30 13434 C 1408.38 -1.75053 1.11226 0
M  V30 13435 C 1408.8 -1.85162 -0.331139 0
M  V30 13436 O 1408.16 -1.32288 -1.23974 0
M  V30 13437 C 1408.21 -3.14882 1.75733 0
M  V30 13438 O 1407.31 -3.99371 1.02842 0
M  V30 13439 H 1406.65 -0.538078 0.389061 0
M  V30 13440 H 1409.18 -1.21325 1.64746 0
M  V30 13441 H 1409.19 -3.65402 1.81509 0
M  V30 13442 H 1407.87 -3.06839 2.80754 0
M  V30 13443 H 1406.44 -3.57854 1.04856 0
M  V30 13444 N 1408.63 -1.05812 -1.16797 0
M  V30 13445 C 1409.88 -0.773066 -1.87487 0
M  V30 13446 C 1410.21 0.698471 -1.81204 0
M  V30 13447 O 1409.48 1.51129 -1.22434 0
M  V30 13448 C 1409.77 -1.2621 -3.37258 0
M  V30 13449 C 1409.62 -2.79704 -3.52258 0
M  V30 13450 C 1410.94 -0.866104 -4.31494 0
M  V30 13451 H 1408.06 -0.282304 -0.680789 0
M  V30 13452 H 1410.7 -1.3132 -1.37314 0
M  V30 13453 H 1408.85 -0.802608 -3.80119 0
M  V30 13454 H 1410.52 -3.33824 -3.1837 0
M  V30 13455 H 1408.76 -3.18673 -2.94329 0
M  V30 13456 H 1409.44 -3.08985 -4.57419 0
M  V30 13457 H 1411.91 -1.26178 -3.96508 0
M  V30 13458 H 1410.79 -1.23581 -5.34807 0
M  V30 13459 H 1411.05 0.229391 -4.41504 0
M  V30 13460 N 1410.11 1.33347 -0.840014 0
M  V30 13461 C 1411.36 1.97354 -0.435412 0
M  V30 13462 C 1411.68 1.66866 1.009 0
M  V30 13463 O 1410.95 0.968186 1.70303 0
M  V30 13464 H 1409.53 0.730096 -0.158017 0
M  V30 13465 H 1412.19 1.6269 -1.07322 0
M  V30 13466 H 1411.28 3.0688 -0.56841 0
M  V30 13467 N 1411.59 0.596556 1.45873 0
M  V30 13468 C 1412.5 -0.130832 2.34235 0
M  V30 13469 C 1413.51 -0.871805 1.50584 0
M  V30 13470 O 1414.69 -0.831877 1.83417 0
M  V30 13471 C 1411.75 -1.12279 3.28016 0
M  V30 13472 C 1410.81 -0.384982 4.2757 0
M  V30 13473 C 1410.05 -1.32969 5.1687 0
M  V30 13474 O 1410.27 -2.56696 5.09375 0
M  V30 13475 O 1409.2 -0.832741 5.96112 0
M  V30 13476 H 1413.03 0.59503 2.97814 0
M  V30 13477 H 1410.61 0.356873 1.45075 0
M  V30 13478 H 1412.5 -1.6944 3.85834 0
M  V30 13479 H 1411.17 -1.82988 2.67015 0
M  V30 13480 H 1410.08 0.228816 3.734 0
M  V30 13481 H 1411.41 0.281398 4.91395 0
M  V30 13482 N 1413.06 -1.53996 0.335095 0
M  V30 13483 C 1414.03 -2.23385 -0.513015 0
M  V30 13484 C 1415.03 -1.23117 -1.03435 0
M  V30 13485 O 1416.22 -1.47616 -0.924944 0
M  V30 13486 C 1413.35 -2.94691 -1.71377 0
M  V30 13487 H 1414.54 -2.99753 0.0937306 0
M  V30 13488 H 1412.09 -1.56061 0.086326 0
M  V30 13489 H 1412.83 -2.22488 -2.35944 0
M  V30 13490 H 1412.61 -3.68228 -1.34723 0
M  V30 13491 H 1414.1 -3.47525 -2.31552 0
M  V30 13492 N 1414.54 -0.0635198 -1.57472 0
M  V30 13493 C 1415.45 0.921531 -2.15743 0
M  V30 13494 C 1416.47 1.33294 -1.11842 0
M  V30 13495 O 1417.64 1.40733 -1.4407 0
M  V30 13496 C 1414.71 2.17378 -2.70088 0
M  V30 13497 C 1413.77 1.81956 -3.88832 0
M  V30 13498 C 1413 3.01211 -4.40577 0
M  V30 13499 O 1413.23 4.14971 -3.9135 0
M  V30 13500 O 1412.16 2.81507 -5.32012 0
M  V30 13501 H 1415.99 0.455899 -3.00259 0
M  V30 13502 H 1413.57 0.159085 -1.48551 0
M  V30 13503 H 1415.45 2.90826 -3.04956 0
M  V30 13504 H 1414.13 2.63055 -1.88637 0
M  V30 13505 H 1413.03 1.05786 -3.58832 0
M  V30 13506 H 1414.37 1.41069 -4.71551 0
M  V30 13507 N 1416.02 1.56195 0.209972 0
M  V30 13508 C 1417.25 1.8384 0.949228 0
M  V30 13509 C 1417.66 0.644141 1.77472 0
M  V30 13510 O 1417.02 -0.387276 1.78344 0
M  V30 13511 C 1417.07 3.10131 1.85745 0
M  V30 13512 O 1416.79 4.2495 1.06531 0
M  V30 13513 C 1418.29 3.50847 2.70963 0
M  V30 13514 H 1415.51 0.610856 0.277662 0
M  V30 13515 H 1418.06 2.03295 0.221708 0
M  V30 13516 H 1416.21 2.92618 2.53877 0
M  V30 13517 H 1416.63 4.96769 1.68287 0
M  V30 13518 H 1418.1 4.4222 3.30372 0
M  V30 13519 H 1418.58 2.73139 3.43936 0
M  V30 13520 H 1419.18 3.7084 2.08226 0
M  V30 13521 N 1417.5 -0.477127 1.50204 0
M  V30 13522 C 1418.46 -1.55824 1.68082 0
M  V30 13523 C 1419.46 -1.51039 0.551719 0
M  V30 13524 O 1420.65 -1.53766 0.818638 0
M  V30 13525 C 1417.78 -2.95462 1.70044 0
M  V30 13526 H 1418.98 -1.41292 2.64531 0
M  V30 13527 H 1416.53 -0.70308 1.39594 0
M  V30 13528 H 1417.26 -3.15445 0.752663 0
M  V30 13529 H 1417.05 -3.00343 2.52065 0
M  V30 13530 H 1418.54 -3.73964 1.85851 0
M  V30 13531 N 1418.98 -1.3968 -0.729882 0
M  V30 13532 C 1419.89 -1.41094 -1.87429 0
M  V30 13533 C 1420.9 -0.305142 -1.71303 0
M  V30 13534 O 1422.08 -0.54744 -1.93817 0
M  V30 13535 C 1419.14 -1.25786 -3.23077 0
M  V30 13536 C 1418.2 -2.46382 -3.5156 0
M  V30 13537 C 1417.44 -2.31795 -4.80735 0
M  V30 13538 O 1417.66 -1.32415 -5.54818 0
M  V30 13539 O 1416.59 -3.20883 -5.09232 0
M  V30 13540 H 1420.42 -2.37571 -1.89192 0
M  V30 13541 H 1418.01 -1.2085 -0.878389 0
M  V30 13542 H 1419.89 -1.19402 -4.0413 0
M  V30 13543 H 1418.56 -0.324065 -3.22074 0
M  V30 13544 H 1417.47 -2.58343 -2.70573 0
M  V30 13545 H 1418.8 -3.38473 -3.57347 0
M  V30 13546 N 1420.45 0.960609 -1.2494 0
M  V30 13547 C 1421.42 2.03791 -1.04891 0
M  V30 13548 C 1422.42 1.608 -0.00375792 0
M  V30 13549 O 1423.61 1.72463 -0.24539 0
M  V30 13550 C 1420.74 3.35733 -0.591309 0
M  V30 13551 H 1421.93 2.2301 -2.00516 0
M  V30 13552 H 1419.49 1.13686 -1.07263 0
M  V30 13553 H 1420.22 3.22207 0.367816 0
M  V30 13554 H 1420.01 3.68283 -1.34574 0
M  V30 13555 H 1421.5 4.14921 -0.472283 0
M  V30 13556 N 1421.93 1.0643 1.16234 0
M  V30 13557 C 1422.87 0.620534 2.19601 0
M  V30 13558 C 1423.84 -0.35739 1.58624 0
M  V30 13559 O 1425.03 -0.266037 1.86613 0
M  V30 13560 C 1422.15 -0.0901061 3.3858 0
M  V30 13561 C 1421.2 0.844789 4.1805 0
M  V30 13562 S 1422.03 2.34077 4.81631 0
M  V30 13563 C 1423.19 1.64167 6.03987 0
M  V30 13564 H 1423.42 1.49626 2.56903 0
M  V30 13565 H 1420.96 0.877398 1.27048 0
M  V30 13566 H 1422.91 -0.493891 4.07518 0
M  V30 13567 H 1421.57 -0.942042 2.9964 0
M  V30 13568 H 1420.77 0.294135 5.03141 0
M  V30 13569 H 1420.37 1.18852 3.54613 0
M  V30 13570 H 1422.66 0.948043 6.70834 0
M  V30 13571 H 1423.6 2.47054 6.63604 0
M  V30 13572 H 1424.01 1.12366 5.53203 0
M  V30 13573 N 1423.41 -1.329 0.847073 0
M  V30 13574 C 1424.66 -1.9712 0.445872 0
M  V30 13575 C 1424.98 -1.67398 -1.00014 0
M  V30 13576 O 1424.25 -0.977204 -1.69787 0
M  V30 13577 H 1422.83 -0.729247 0.161887 0
M  V30 13578 H 1425.49 -1.62118 1.08184 0
M  V30 13579 H 1424.59 -3.06575 0.584676 0
M  V30 13580 N 1424.89 -0.604284 -1.45555 0
M  V30 13581 C 1426.11 -0.102634 -2.07146 0
M  V30 13582 C 1426.54 1.20239 -1.44652 0
M  V30 13583 O 1425.9 1.73133 -0.538033 0
M  V30 13584 C 1425.94 0.0270231 -3.6059 0
M  V30 13585 O 1425.05 1.0781 -3.98059 0
M  V30 13586 H 1424.39 -0.0725667 -0.660023 0
M  V30 13587 H 1426.92 -0.833355 -1.86859 0
M  V30 13588 H 1426.93 0.226299 -4.07372 0
M  V30 13589 H 1425.6 -0.925896 -4.05463 0
M  V30 13590 H 1424.18 0.855552 -3.62953 0
M  V30 13591 N 1426.37 1.53816 -0.343257 0
M  V30 13592 C 1427.33 2.23654 0.501161 0
M  V30 13593 C 1428.33 1.23664 1.02781 0
M  V30 13594 O 1429.52 1.48104 0.917103 0
M  V30 13595 C 1426.65 2.95596 1.69812 0
M  V30 13596 H 1427.84 2.997 -0.109626 0
M  V30 13597 H 1425.4 1.56013 -0.0946011 0
M  V30 13598 H 1426.13 2.23736 2.34761 0
M  V30 13599 H 1425.92 3.68938 1.32768 0
M  V30 13600 H 1427.41 3.48748 2.29706 0
M  V30 13601 N 1427.84 0.0718701 1.57436 0
M  V30 13602 C 1429.26 -0.28476 1.57039 0
M  V30 13603 C 1429.46 -1.70032 1.08127 0
M  V30 13604 O 1428.52 -2.41191 0.747189 0
M  V30 13605 C 1429.83 -0.0943482 3.00552 0
M  V30 13606 C 1431.38 -0.163879 3.12571 0
M  V30 13607 C 1431.85 -0.00174658 4.58 0
M  V30 13608 N 1433.34 -0.0573489 4.63164 0
M  V30 13609 C 1434.08 0.0436849 5.73383 0
M  V30 13610 N 1433.57 0.198243 6.92516 0
M  V30 13611 N 1435.37 -0.0133856 5.62098 0
M  V30 13612 H 1427.52 0.99702 1.87545 0
M  V30 13613 H 1429.78 0.388822 0.864593 0
M  V30 13614 H 1429.49 0.882445 3.40449 0
M  V30 13615 H 1429.36 -0.846636 3.67576 0
M  V30 13616 H 1431.75 -1.13116 2.7256 0
M  V30 13617 H 1431.83 0.619513 2.48185 0
M  V30 13618 H 1431.47 0.9623 4.98701 0
M  V30 13619 H 1431.4 -0.804543 5.20418 0
M  V30 13620 H 1433.89 -0.175212 3.77494 0
M  V30 13621 H 1434.21 0.267479 7.72337 0
M  V30 13622 H 1432.55 0.233606 6.94607 0
M  V30 13623 H 1435.74 -0.132835 4.67911 0
M  V30 13624 H 1435.92 0.0688076 6.47963 0
M  V30 13625 N 1429.32 -1.56304 -0.201686 0
M  V30 13626 C 1430.57 -1.79881 -0.921269 0
M  V30 13627 C 1430.89 -0.643809 -1.84065 0
M  V30 13628 O 1430.16 0.338239 -1.92958 0
M  V30 13629 H 1428.74 -0.663506 -0.343175 0
M  V30 13630 H 1431.4 -1.93779 -0.208775 0
M  V30 13631 H 1430.5 -2.7279 -1.51631 0
M  V30 13632 N 1430.8 0.469154 -1.50455 0
M  V30 13633 C 1432.05 1.21868 -1.61222 0
M  V30 13634 C 1432.37 1.9243 -0.315535 0
M  V30 13635 O 1431.64 1.84192 0.667083 0
M  V30 13636 H 1430.22 0.452828 -0.594101 0
M  V30 13637 H 1432.88 0.540993 -1.87241 0
M  V30 13638 H 1431.98 1.96554 -2.42431 0
M  V30 13639 N 1432.28 1.40065 0.722464 0
M  V30 13640 C 1433.24 1.39544 1.81825 0
M  V30 13641 C 1434.24 0.290385 1.58156 0
M  V30 13642 O 1435.43 0.54894 1.65325 0
M  V30 13643 C 1432.56 1.18041 3.19811 0
M  V30 13644 H 1433.76 2.37063 1.83687 0
M  V30 13645 H 1431.31 1.25813 0.927404 0
M  V30 13646 H 1432.04 0.212536 3.23603 0
M  V30 13647 H 1431.83 1.98079 3.38389 0
M  V30 13648 H 1433.32 1.20447 3.99853 0
M  V30 13649 N 1433.76 -0.95397 1.25448 0
M  V30 13650 C 1434.72 -2.03231 1.0597 0
M  V30 13651 C 1435.72 -1.60795 0.0122855 0
M  V30 13652 O 1436.91 -1.7233 0.254533 0
M  V30 13653 C 1434.04 -3.35414 0.609105 0
M  V30 13654 H 1435.24 -2.21943 2.01696 0
M  V30 13655 H 1432.79 -1.13115 1.07864 0
M  V30 13656 H 1433.52 -3.22398 -0.350723 0
M  V30 13657 H 1433.31 -3.67564 1.36526 0
M  V30 13658 H 1434.8 -4.14664 0.49428 0
M  V30 13659 N 1435.24 -1.07045 -1.15668 0
M  V30 13660 C 1436.18 -0.68226 -2.22369 0
M  V30 13661 C 1437.18 0.305448 -1.66623 0
M  V30 13662 O 1438.38 0.169495 -1.792 0
M  V30 13663 H 1434.76 -0.202536 -0.724212 0
M  V30 13664 H 1436.73 -1.59187 -2.52393 0
M  V30 13665 C 1435.48 -0.0928131 -3.47576 0
M  V30 13666 H 1434.8 -0.843964 -3.90791 0
M  V30 13667 H 1436.24 0.14118 -4.23765 0
M  V30 13668 C 1434.7 1.16567 -3.16091 0
M  V30 13669 O 1435.23 2.25257 -3.32599 0
M  V30 13670 N 1433.44 1.07061 -2.7016 0
M  V30 13671 H 1432.98 0.186091 -2.56927 0
M  V30 13672 H 1432.94 1.91346 -2.49468 0
M  V30 13673 N 1436.71 1.32449 -0.85411 0
M  V30 13674 C 1437.94 2.01997 -0.470307 0
M  V30 13675 C 1438.36 1.63772 0.925225 0
M  V30 13676 O 1437.72 0.838089 1.60766 0
M  V30 13677 C 1437.77 3.55294 -0.616301 0
M  V30 13678 O 1436.87 4.10902 0.351133 0
M  V30 13679 H 1436.21 0.63651 -0.189079 0
M  V30 13680 H 1438.74 1.69008 -1.15315 0
M  V30 13681 H 1438.75 4.0488 -0.503624 0
M  V30 13682 H 1437.43 3.82459 -1.63396 0
M  V30 13683 H 1436.01 3.72391 0.194741 0
M  V30 13684 N 1438.19 0.611994 1.45232 0
M  V30 13685 C 1439.44 0.117519 2.0306 0
M  V30 13686 C 1439.79 -1.23976 1.47132 0
M  V30 13687 O 1439.09 -1.80657 0.638249 0
M  V30 13688 C 1439.28 0.0243361 3.57392 0
M  V30 13689 C 1439.11 1.37103 4.28291 0
M  V30 13690 C 1437.88 1.95287 4.66038 0
M  V30 13691 C 1440.08 2.30076 4.59967 0
M  V30 13692 N 1438.06 3.23391 5.21816 0
M  V30 13693 C 1439.43 3.42782 5.16624 0
M  V30 13694 C 1441.48 2.29394 4.41908 0
M  V30 13695 C 1440.19 4.54975 5.57126 0
M  V30 13696 C 1442.21 3.40638 4.83446 0
M  V30 13697 C 1441.58 4.52066 5.402 0
M  V30 13698 H 1437.67 0.0864756 0.777204 0
M  V30 13699 H 1440.26 0.81131 1.76991 0
M  V30 13700 H 1438.43 -0.638687 3.83113 0
M  V30 13701 H 1440.16 -0.477205 4.01877 0
M  V30 13702 H 1436.92 1.48443 4.49735 0
M  V30 13703 H 1437.34 3.88835 5.54199 0
M  V30 13704 H 1441.98 1.44504 3.97339 0
M  V30 13705 H 1439.7 5.40587 6.00659 0
M  V30 13706 H 1443.29 3.41263 4.71202 0
M  V30 13707 H 1442.17 5.36723 5.7175 0
M  V30 13708 N 1439.67 -1.53632 0.351409 0
M  V30 13709 C 1440.89 -2.0593 -0.246501 0
M  V30 13710 C 1441.32 -1.22419 -1.42812 0
M  V30 13711 O 1440.68 -0.239811 -1.79707 0
M  V30 13712 C 1440.73 -3.55021 -0.631862 0
M  V30 13713 O 1439.83 -3.74317 -1.73092 0
M  V30 13714 H 1439.17 -0.662839 -0.0392424 0
M  V30 13715 H 1441.7 -1.98196 0.507904 0
M  V30 13716 H 1441.71 -3.97795 -0.906831 0
M  V30 13717 H 1440.39 -4.15251 0.232224 0
M  V30 13718 H 1438.96 -3.43444 -1.4526 0
M  V30 13719 N 1441.15 -0.0802183 -1.57396 0
M  V30 13720 C 1442.06 0.898597 -2.16708 0
M  V30 13721 C 1443.07 1.321 -1.1325 0
M  V30 13722 O 1444.25 1.39197 -1.45554 0
M  V30 13723 C 1441.31 2.14501 -2.72379 0
M  V30 13724 C 1440.38 1.77822 -3.9074 0
M  V30 13725 C 1439.61 2.96521 -4.43747 0
M  V30 13726 O 1439.83 4.10797 -3.9573 0
M  V30 13727 O 1438.77 2.75849 -5.34968 0
M  V30 13728 H 1442.59 0.424027 -3.00725 0
M  V30 13729 H 1440.18 0.14332 -1.48711 0
M  V30 13730 H 1442.06 2.87575 -3.08024 0
M  V30 13731 H 1440.73 2.61039 -1.91416 0
M  V30 13732 H 1439.64 1.01974 -3.59934 0
M  V30 13733 H 1440.97 1.36059 -4.73021 0
M  V30 13734 N 1442.63 1.56409 0.193394 0
M  V30 13735 C 1443.59 1.93822 1.22334 0
M  V30 13736 C 1444.59 0.819513 1.3835 0
M  V30 13737 O 1445.78 1.0869 1.36132 0
M  V30 13738 C 1442.91 2.21375 2.59241 0
M  V30 13739 H 1444.1 2.85967 0.903502 0
M  V30 13740 H 1441.66 1.50125 0.43498 0
M  V30 13741 H 1442.39 1.31874 2.96277 0
M  V30 13742 H 1442.18 3.02899 2.48988 0
M  V30 13743 H 1443.67 2.51319 3.33509 0
M  V30 13744 N 1444.1 -0.461169 1.50702 0
M  V30 13745 C 1445.51 -1.04177 1.54932 0
M  V30 13746 C 1445.87 -1.92894 0.358648 0
M  V30 13747 O 1444.99 -2.09876 -0.527346 0
M  V30 13748 C 1445.59 -1.8961 2.80773 0
M  V30 13749 C 1444.14 -2.42761 2.87652 0
M  V30 13750 C 1443.29 -1.21356 2.49335 0
M  V30 13751 H 1446.24 -0.243379 1.56823 0
M  V30 13752 H 1446.26 -2.74794 2.63189 0
M  V30 13753 H 1445.78 -1.25014 3.67414 0
M  V30 13754 H 1443.88 -3.10881 2.05386 0
M  V30 13755 H 1443.99 -2.77189 3.90772 0
M  V30 13756 H 1442.35 -1.55146 2.01995 0
M  V30 13757 H 1443.14 -0.584069 3.38295 0
M  V30 13758 N 1445.58 -1.40446 -0.715026 0
M  V30 13759 C 1446.51 -1.43511 -1.84193 0
M  V30 13760 C 1447.49 -0.295969 -1.67505 0
M  V30 13761 O 1448.68 -0.504667 -1.87528 0
M  V30 13762 C 1445.81 -1.29751 -3.22152 0
M  V30 13763 C 1444.76 -2.41274 -3.53512 0
M  V30 13764 C 1444.09 -2.12591 -4.90621 0
M  V30 13765 C 1445.39 -3.83614 -3.54454 0
M  V30 13766 H 1447.08 -2.37819 -1.81885 0
M  V30 13767 H 1444.63 -1.14469 -0.873655 0
M  V30 13768 H 1446.58 -1.30511 -4.0068 0
M  V30 13769 H 1445.3 -0.319189 -3.25037 0
M  V30 13770 H 1443.96 -2.39764 -2.77324 0
M  V30 13771 H 1443.61 -1.13148 -4.90109 0
M  V30 13772 H 1443.31 -2.87308 -5.1257 0
M  V30 13773 H 1444.84 -2.15034 -5.71483 0
M  V30 13774 H 1446.25 -3.86945 -4.23021 0
M  V30 13775 H 1444.65 -4.57855 -3.87929 0
M  V30 13776 H 1445.72 -4.13159 -2.53827 0
M  V30 13777 N 1447.06 0.947303 -1.25952 0
M  V30 13778 C 1448.47 1.50755 -1.10136 0
M  V30 13779 C 1448.82 1.93566 0.320437 0
M  V30 13780 O 1447.95 1.79326 1.21125 0
M  V30 13781 C 1448.54 2.7397 -1.99313 0
M  V30 13782 C 1447.1 3.26283 -1.8766 0
M  V30 13783 C 1446.25 1.99088 -1.93027 0
M  V30 13784 H 1449.2 0.763427 -1.39131 0
M  V30 13785 H 1449.22 3.48057 -1.53742 0
M  V30 13786 H 1448.73 2.42781 -3.02785 0
M  V30 13787 H 1446.83 3.62277 -0.870992 0
M  V30 13788 H 1446.95 3.93803 -2.72866 0
M  V30 13789 H 1445.31 2.14714 -1.37003 0
M  V30 13790 H 1446.09 1.70237 -2.98118 0
M  V30 13791 N 1448.54 1.07657 1.15099 0
M  V30 13792 C 1449.79 0.800025 1.85591 0
M  V30 13793 C 1450.11 -0.675973 1.82909 0
M  V30 13794 O 1449.38 -1.48971 1.27218 0
M  V30 13795 H 1447.96 0.292958 0.687157 0
M  V30 13796 H 1450.62 1.36096 1.39513 0
M  V30 13797 H 1449.72 1.13733 2.90639 0
M  V30 13798 N 1450.02 -1.31994 0.861122 0
M  V30 13799 C 1451.24 -2.01745 0.481013 0
M  V30 13800 C 1451.67 -1.6426 -0.916527 0
M  V30 13801 O 1451.02 -0.846603 -1.60319 0
M  V30 13802 C 1451.07 -3.54963 0.635134 0
M  V30 13803 O 1450.18 -4.11083 -0.329337 0
M  V30 13804 H 1449.52 -0.635499 0.192452 0
M  V30 13805 H 1452.05 -1.68394 1.1621 0
M  V30 13806 H 1452.06 -4.04607 0.525089 0
M  V30 13807 H 1450.73 -3.81587 1.65422 0
M  V30 13808 H 1449.31 -3.72489 -0.174989 0
M  V30 13809 N 1451.49 -0.619688 -1.44906 0
M  V30 13810 C 1452.42 0.0791121 -2.33366 0
M  V30 13811 C 1453.41 0.846503 -1.47541 0
M  V30 13812 O 1454.59 0.814657 -1.76287 0
M  V30 13813 C 1451.72 1.06901 -3.30438 0
M  V30 13814 C 1450.67 0.41403 -4.25993 0
M  V30 13815 C 1450 1.51303 -5.12846 0
M  V30 13816 C 1451.3 -0.672483 -5.17953 0
M  V30 13817 H 1452.99 -0.659551 -2.92045 0
M  V30 13818 H 1450.54 -0.318623 -1.40431 0
M  V30 13819 H 1452.49 1.56653 -3.912 0
M  V30 13820 H 1451.22 1.83842 -2.69944 0
M  V30 13821 H 1449.88 -0.0627315 -3.66546 0
M  V30 13822 H 1449.52 2.27303 -4.48712 0
M  V30 13823 H 1449.22 1.08022 -5.77586 0
M  V30 13824 H 1450.75 2.01258 -5.76479 0
M  V30 13825 H 1452.16 -0.258542 -5.72717 0
M  V30 13826 H 1450.56 -1.02776 -5.91234 0
M  V30 13827 H 1451.63 -1.54425 -4.59653 0
M  V30 13828 N 1452.97 1.53444 -0.359552 0
M  V30 13829 C 1453.9 2.28475 0.4818 0
M  V30 13830 C 1454.88 1.30664 1.08908 0
M  V30 13831 O 1456.07 1.59527 1.10746 0
M  V30 13832 C 1453.2 3.06951 1.62477 0
M  V30 13833 C 1452.15 4.12399 1.14504 0
M  V30 13834 C 1451.48 4.78922 2.37777 0
M  V30 13835 C 1452.78 5.21775 0.234075 0
M  V30 13836 H 1454.47 2.99053 -0.144162 0
M  V30 13837 H 1452.02 1.43826 -0.0707746 0
M  V30 13838 H 1453.97 3.58186 2.21993 0
M  V30 13839 H 1452.7 2.34053 2.27787 0
M  V30 13840 H 1451.35 3.62101 0.572589 0
M  V30 13841 H 1451 4.02602 3.0153 0
M  V30 13842 H 1450.7 5.50175 2.06353 0
M  V30 13843 H 1452.23 5.32948 2.97991 0
M  V30 13844 H 1453.64 5.68549 0.736548 0
M  V30 13845 H 1452.04 6.00099 0.0109887 0
M  V30 13846 H 1453.11 4.79443 -0.725435 0
M  V30 13847 N 1454.45 0.0885642 1.57351 0
M  V30 13848 C 1455.73 -0.618587 1.85561 0
M  V30 13849 C 1456.11 -1.86753 0.984206 0
M  V30 13850 O 1455.46 -2.28434 0.0548839 0
M  V30 13851 C 1455.67 -0.940222 3.36096 0
M  V30 13852 C 1457.01 -1.30649 4.04 0
M  V30 13853 O 1458.04 -1.03144 3.4094 0
M  V30 13854 O 1456.9 -1.82135 5.15256 0
M  V30 13855 H 1453.99 -0.308881 0.767152 0
M  V30 13856 H 1456.54 0.120767 1.6927 0
M  V30 13857 H 1455.31 -0.0538991 3.91263 0
M  V30 13858 H 1454.93 -1.73577 3.5771 0
M  V30 13859 N 1455.93 -1.56509 -0.185096 0
M  V30 13860 C 1457.17 -1.81474 -0.905263 0
M  V30 13861 C 1457.51 -0.664225 -1.82488 0
M  V30 13862 O 1456.78 0.33466 -1.91599 0
M  V30 13863 C 1457.07 -3.16754 -1.71287 0
M  V30 13864 C 1456.92 -4.42312 -0.817302 0
M  V30 13865 C 1458.24 -3.48828 -2.68342 0
M  V30 13866 H 1455.36 -0.660155 -0.327664 0
M  V30 13867 H 1458 -1.89219 -0.172129 0
M  V30 13868 H 1456.15 -3.10282 -2.33789 0
M  V30 13869 H 1457.82 -4.60839 -0.206218 0
M  V30 13870 H 1456.06 -4.33621 -0.124564 0
M  V30 13871 H 1456.73 -5.33487 -1.41758 0
M  V30 13872 H 1459.21 -3.55663 -2.15969 0
M  V30 13873 H 1458.09 -4.44585 -3.21924 0
M  V30 13874 H 1458.35 -2.72829 -3.47875 0
M  V30 13875 N 1457.41 0.45317 -1.50944 0
M  V30 13876 C 1458.63 1.23136 -1.6689 0
M  V30 13877 C 1459.06 1.84639 -0.359185 0
M  V30 13878 O 1458.41 1.68106 0.678983 0
M  V30 13879 C 1458.46 2.30275 -2.77499 0
M  V30 13880 O 1457.57 3.35371 -2.39999 0
M  V30 13881 H 1456.91 0.361475 -0.556984 0
M  V30 13882 H 1459.44 0.537174 -1.97422 0
M  V30 13883 H 1459.45 2.75309 -3.01113 0
M  V30 13884 H 1458.12 1.84885 -3.72546 0
M  V30 13885 H 1456.7 2.95924 -2.26899 0
M  V30 13886 N 1458.88 1.40823 0.707568 0
M  V30 13887 C 1460.13 1.39741 1.4697 0
M  V30 13888 C 1460.46 0.00231194 1.942 0
M  V30 13889 O 1459.74 -0.967798 1.68713 0
M  V30 13890 C 1460.02 2.39385 2.69011 0
M  V30 13891 C 1459.87 3.87953 2.27624 0
M  V30 13892 C 1461.19 2.3645 3.71186 0
M  V30 13893 H 1458.31 0.508904 0.533091 0
M  V30 13894 H 1460.95 1.72015 0.806888 0
M  V30 13895 H 1459.1 2.11993 3.25563 0
M  V30 13896 H 1460.78 4.26202 1.76492 0
M  V30 13897 H 1459.02 4.03399 1.59537 0
M  V30 13898 H 1459.69 4.53201 3.15139 0
M  V30 13899 H 1462.17 2.60731 3.24282 0
M  V30 13900 H 1461.04 3.08204 4.54204 0
M  V30 13901 H 1461.3 1.3789 4.20046 0
M  V30 13902 N 1460.36 -0.94061 1.26453 0
M  V30 13903 C 1461.77 -1.50169 1.10934 0
M  V30 13904 C 1462.12 -1.93733 -0.310167 0
M  V30 13905 O 1461.25 -1.79966 -1.20172 0
M  V30 13906 C 1461.84 -2.7291 2.00763 0
M  V30 13907 C 1460.4 -3.25283 1.89388 0
M  V30 13908 C 1459.55 -1.98061 1.9408 0
M  V30 13909 H 1462.5 -0.756038 1.39534 0
M  V30 13910 H 1462.52 -3.47237 1.55586 0
M  V30 13911 H 1462.03 -2.41172 3.04069 0
M  V30 13912 H 1460.14 -3.6181 0.890192 0
M  V30 13913 H 1460.25 -3.92351 2.7495 0
M  V30 13914 H 1458.61 -2.13985 1.3814 0
M  V30 13915 H 1459.4 -1.68654 2.99016 0
M  V30 13916 N 1461.84 -1.08266 -1.14527 0
M  V30 13917 C 1463.26 -0.810001 -1.37518 0
M  V30 13918 C 1463.46 0.581399 -1.9293 0
M  V30 13919 O 1462.51 1.33846 -2.14107 0
M  V30 13920 C 1463.83 -1.89149 -2.33759 0
M  V30 13921 C 1465.37 -1.91733 -2.47401 0
M  V30 13922 C 1465.85 -2.98992 -3.4694 0
M  V30 13923 N 1467.34 -2.98155 -3.54483 0
M  V30 13924 C 1468.07 -3.77791 -4.31349 0
M  V30 13925 N 1467.57 -4.67302 -5.11469 0
M  V30 13926 N 1469.36 -3.66099 -4.2653 0
M  V30 13927 H 1461.51 -1.97988 -0.769048 0
M  V30 13928 H 1463.78 -0.859115 -0.40078 0
M  V30 13929 H 1463.48 -2.89175 -2.00176 0
M  V30 13930 H 1463.36 -1.75955 -3.33646 0
M  V30 13931 H 1465.74 -0.923531 -2.80276 0
M  V30 13932 H 1465.83 -2.09005 -1.4748 0
M  V30 13933 H 1465.47 -3.98578 -3.14799 0
M  V30 13934 H 1465.4 -2.78965 -4.46639 0
M  V30 13935 H 1467.89 -2.33277 -2.97305 0
M  V30 13936 H 1468.2 -5.24676 -5.67393 0
M  V30 13937 H 1466.55 -4.71345 -5.10743 0
M  V30 13938 H 1469.74 -2.95539 -3.63008 0
M  V30 13939 H 1469.91 -4.28402 -4.86185 0
M  V30 13940 N 1463.32 1.31536 -0.86811 0
M  V30 13941 C 1464.54 2.01487 -0.491705 0
M  V30 13942 C 1464.97 1.64744 0.907803 0
M  V30 13943 O 1464.33 0.855093 1.59868 0
M  V30 13944 C 1464.38 3.54621 -0.65395 0
M  V30 13945 O 1463.48 4.11252 0.307532 0
M  V30 13946 H 1462.82 0.634469 -0.195819 0
M  V30 13947 H 1465.35 1.67775 -1.17101 0
M  V30 13948 H 1465.36 4.04323 -0.546539 0
M  V30 13949 H 1464.04 3.80704 -1.67443 0
M  V30 13950 H 1462.61 3.72577 0.155233 0
M  V30 13951 N 1464.8 0.627364 1.44575 0
M  V30 13952 C 1466.21 0.292662 1.56894 0
M  V30 13953 C 1466.41 -1.20429 1.61552 0
M  V30 13954 O 1465.47 -1.98819 1.55651 0
M  V30 13955 C 1466.78 0.981267 2.84239 0
M  V30 13956 C 1468.33 0.959053 2.97945 0
M  V30 13957 C 1468.81 1.62805 4.28087 0
M  V30 13958 N 1470.3 1.59446 4.34892 0
M  V30 13959 C 1471.03 2.08107 5.34302 0
M  V30 13960 N 1470.53 2.64942 6.40139 0
M  V30 13961 N 1472.32 1.98758 5.25787 0
M  V30 13962 H 1464.47 1.5991 1.39795 0
M  V30 13963 H 1466.73 0.671019 0.669655 0
M  V30 13964 H 1466.44 2.0361 2.86768 0
M  V30 13965 H 1466.31 0.516703 3.73644 0
M  V30 13966 H 1468.7 -0.0872902 2.94971 0
M  V30 13967 H 1468.78 1.46207 2.09898 0
M  V30 13968 H 1468.43 2.67382 4.31821 0
M  V30 13969 H 1468.36 1.09989 5.14985 0
M  V30 13970 H 1470.85 1.17947 3.59022 0
M  V30 13971 H 1471.16 2.99814 7.12272 0
M  V30 13972 H 1469.51 2.68991 6.40835 0
M  V30 13973 H 1472.7 1.54081 4.42014 0
M  V30 13974 H 1472.87 2.36992 6.03107 0
M  V30 13975 N 1466.28 -1.53251 0.367684 0
M  V30 13976 C 1467.52 -2.01585 -0.221679 0
M  V30 13977 C 1467.85 -1.25444 -1.48248 0
M  V30 13978 O 1467.13 -0.348726 -1.91348 0
M  V30 13979 C 1467.41 -3.56449 -0.511507 0
M  V30 13980 C 1467.27 -4.4328 0.763075 0
M  V30 13981 C 1468.58 -4.20113 -1.31121 0
M  V30 13982 H 1465.7 -0.732743 -0.0790954 0
M  V30 13983 H 1468.35 -1.83493 0.492991 0
M  V30 13984 H 1466.5 -3.71996 -1.12033 0
M  V30 13985 H 1468.17 -4.39526 1.40052 0
M  V30 13986 H 1466.41 -4.11164 1.38299 0
M  V30 13987 H 1467.08 -5.4959 0.515215 0
M  V30 13988 H 1469.56 -4.08412 -0.796169 0
M  V30 13989 H 1468.43 -5.28494 -1.48274 0
M  V30 13990 H 1468.69 -3.76316 -2.32032 0
M  V30 13991 N 1467.75 -0.0969077 -1.57302 0
M  V30 13992 C 1468.7 0.872039 -2.10664 0
M  V30 13993 C 1469.69 1.24265 -1.02211 0
M  V30 13994 O 1470.88 1.21743 -1.28482 0
M  V30 13995 C 1468.01 2.13042 -2.69199 0
M  V30 13996 C 1467.09 1.78517 -3.84698 0
M  V30 13997 N 1467.49 1.14558 -4.92656 0
M  V30 13998 C 1465.78 2.08115 -3.94467 0
M  V30 13999 C 1466.48 0.986837 -5.73268 0
M  V30 14000 N 1465.46 1.50473 -5.22359 0
M  V30 14001 H 1469.26 0.373625 -2.91515 0
M  V30 14002 H 1466.78 0.10625 -1.62052 0
M  V30 14003 H 1468.77 2.83403 -3.05759 0
M  V30 14004 H 1467.43 2.63448 -1.89803 0
M  V30 14005 H 1468.44 0.812179 -5.11492 0
M  V30 14006 H 1465.12 2.60722 -3.26083 0
M  V30 14007 H 1466.51 0.48651 -6.70136 0
M  V30 14008 N 1469.23 1.56605 0.176793 0
M  V30 14009 C 1470.16 1.99014 1.2213 0
M  V30 14010 C 1471.14 0.86487 1.46472 0
M  V30 14011 O 1472.33 1.13055 1.57899 0
M  V30 14012 C 1469.46 2.34534 2.56146 0
M  V30 14013 C 1468.41 3.4997 2.46384 0
M  V30 14014 C 1467.74 3.71217 3.8484 0
M  V30 14015 C 1469.04 4.83592 1.97323 0
M  V30 14016 H 1470.73 2.86517 0.8688 0
M  V30 14017 H 1468.28 1.37846 0.416481 0
M  V30 14018 H 1470.23 2.62799 3.29416 0
M  V30 14019 H 1468.95 1.43933 2.93174 0
M  V30 14020 H 1467.61 3.21824 1.75569 0
M  V30 14021 H 1467.26 2.77916 4.19251 0
M  V30 14022 H 1466.96 4.48885 3.79178 0
M  V30 14023 H 1468.49 4.01877 4.59704 0
M  V30 14024 H 1469.9 5.10768 2.60363 0
M  V30 14025 H 1468.3 5.64858 2.02622 0
M  V30 14026 H 1469.37 4.75951 0.927275 0
M  V30 14027 N 1470.71 -0.445159 1.51182 0
M  V30 14028 C 1471.93 -1.22249 1.67541 0
M  V30 14029 C 1472.36 -1.84446 0.368972 0
M  V30 14030 O 1471.72 -1.68463 -0.670058 0
M  V30 14031 C 1471.77 -2.288 2.78717 0
M  V30 14032 O 1470.87 -3.34094 2.41775 0
M  V30 14033 H 1470.21 -0.358516 0.558894 0
M  V30 14034 H 1472.74 -0.526696 1.97704 0
M  V30 14035 H 1472.75 -2.73708 3.02569 0
M  V30 14036 H 1471.43 -1.82906 3.73521 0
M  V30 14037 H 1470 -2.94717 2.28466 0
M  V30 14038 N 1472.19 -1.41197 -0.700089 0
M  V30 14039 C 1473.6 -1.23567 -1.01012 0
M  V30 14040 C 1473.8 -0.121821 -2.01131 0
M  V30 14041 O 1472.86 0.515258 -2.47187 0
M  V30 14042 C 1474.17 -2.58329 -1.53904 0
M  V30 14043 C 1475.72 -2.65473 -1.65811 0
M  V30 14044 C 1476.2 -4.00541 -2.22106 0
M  V30 14045 N 1477.69 -4.02364 -2.29472 0
M  V30 14046 C 1478.42 -5.03672 -2.74048 0
M  V30 14047 N 1477.92 -6.15371 -3.18262 0
M  V30 14048 N 1479.71 -4.91035 -2.73571 0
M  V30 14049 H 1471.86 -2.12368 -0.0367488 0
M  V30 14050 H 1474.12 -0.944713 -0.0788795 0
M  V30 14051 H 1473.83 -3.40565 -0.877964 0
M  V30 14052 H 1473.7 -2.805 -2.5219 0
M  V30 14053 H 1476.09 -1.83598 -2.31032 0
M  V30 14054 H 1476.17 -2.47117 -0.660831 0
M  V30 14055 H 1475.82 -4.82862 -1.57502 0
M  V30 14056 H 1475.75 -4.16235 -3.22577 0
M  V30 14057 H 1478.24 -3.21713 -1.98265 0
M  V30 14058 H 1478.55 -6.88548 -3.50888 0
M  V30 14059 H 1476.9 -6.18914 -3.16182 0
M  V30 14060 H 1480.09 -4.02858 -2.38376 0
M  V30 14061 H 1480.26 -5.70127 -3.07993 0
M  V30 14062 N 1473.67 0.933891 -1.2695 0
M  V30 14063 C 1474.89 1.72042 -1.15828 0
M  V30 14064 C 1475.32 1.85975 0.28193 0
M  V30 14065 O 1474.67 1.35528 1.20423 0
M  V30 14066 C 1474.72 3.10112 -1.84019 0
M  V30 14067 O 1473.83 3.96504 -1.13394 0
M  V30 14068 H 1473.17 0.527573 -0.40319 0
M  V30 14069 H 1475.7 1.16914 -1.67905 0
M  V30 14070 H 1475.71 3.60461 -1.91133 0
M  V30 14071 H 1474.38 2.99287 -2.8879 0
M  V30 14072 H 1472.96 3.54948 -1.14307 0
M  V30 14073 N 1475.14 1.08871 1.13951 0
M  V30 14074 C 1476.37 0.843055 1.89492 0
M  V30 14075 C 1476.79 -0.599539 1.78289 0
M  V30 14076 O 1476.15 -1.42062 1.12642 0
M  V30 14077 C 1476.2 1.27572 3.3728 0
M  V30 14078 O 1475.3 0.430611 4.10146 0
M  V30 14079 H 1474.64 0.3058 0.589391 0
M  V30 14080 H 1477.17 1.45137 1.44209 0
M  V30 14081 H 1477.18 1.25864 3.88101 0
M  V30 14082 H 1475.86 2.32635 3.44751 0
M  V30 14083 H 1474.44 0.511516 3.69375 0
M  V30 14084 N 1476.62 -1.31073 0.875073 0
M  V30 14085 C 1477.85 -2.01223 0.502383 0
M  V30 14086 C 1478.27 -1.65223 -0.899053 0
M  V30 14087 O 1477.63 -0.863559 -1.59412 0
M  V30 14088 C 1477.68 -3.54269 0.672747 0
M  V30 14089 O 1476.78 -4.11409 -0.285718 0
M  V30 14090 H 1476.12 -0.633422 0.199181 0
M  V30 14091 H 1478.65 -1.67152 1.17989 0
M  V30 14092 H 1478.66 -4.04027 0.567973 0
M  V30 14093 H 1477.34 -3.79811 1.69459 0
M  V30 14094 H 1475.91 -3.72654 -0.135472 0
M  V30 14095 N 1478.1 -0.635022 -1.4424 0
M  V30 14096 C 1479.03 0.106038 -2.28955 0
M  V30 14097 C 1480.05 0.805076 -1.415 0
M  V30 14098 O 1481.23 0.665872 -1.65615 0
M  V30 14099 C 1478.33 1.17252 -3.1797 0
M  V30 14100 C 1477.51 0.555225 -4.33862 0
M  V30 14101 C 1476.57 1.51618 -5.03883 0
M  V30 14102 O 1475.59 1.03181 -5.5977 0
M  V30 14103 N 1476.79 2.85048 -5.05696 0
M  V30 14104 H 1479.56 -0.620999 -2.93196 0
M  V30 14105 H 1477.12 -0.476466 -1.5473 0
M  V30 14106 H 1479.11 1.81578 -3.61679 0
M  V30 14107 H 1477.68 1.80174 -2.55453 0
M  V30 14108 H 1476.9 -0.266745 -3.93296 0
M  V30 14109 H 1478.19 0.123529 -5.0865 0
M  V30 14110 H 1477.59 3.26977 -4.6163 0
M  V30 14111 H 1476.15 3.44724 -5.5318 0
M  V30 14112 N 1479.58 1.53054 -0.375806 0
M  V30 14113 C 1480.99 1.5958 -0.0251765 0
M  V30 14114 C 1481.19 1.39047 1.45836 0
M  V30 14115 O 1480.25 1.20073 2.22123 0
M  V30 14116 C 1481.56 2.96676 -0.490274 0
M  V30 14117 C 1483.11 3.09815 -0.44537 0
M  V30 14118 C 1483.59 4.4934 -0.886442 0
M  V30 14119 N 1485.08 4.55484 -0.84191 0
M  V30 14120 C 1485.81 5.61652 -1.15476 0
M  V30 14121 N 1485.31 6.75526 -1.53741 0
M  V30 14122 N 1487.1 5.51688 -1.07689 0
M  V30 14123 H 1479.25 1.64651 -1.34178 0
M  V30 14124 H 1481.52 0.77278 -0.549104 0
M  V30 14125 H 1481.22 3.16874 -1.52589 0
M  V30 14126 H 1481.1 3.77016 0.11776 0
M  V30 14127 H 1483.48 2.89321 0.581138 0
M  V30 14128 H 1483.56 2.3146 -1.08903 0
M  V30 14129 H 1483.21 4.70573 -1.91111 0
M  V30 14130 H 1483.14 5.26141 -0.219925 0
M  V30 14131 H 1485.63 3.73725 -0.56015 0
M  V30 14132 H 1485.94 7.52489 -1.76012 0
M  V30 14133 H 1484.29 6.76892 -1.57616 0
M  V30 14134 H 1487.48 4.61605 -0.777062 0
M  V30 14135 H 1487.65 6.34329 -1.32403 0
M  V30 14136 N 1481.06 0.105248 1.57248 0
M  V30 14137 C 1482.47 -0.251385 1.57608 0
M  V30 14138 C 1482.67 -1.677 1.11709 0
M  V30 14139 O 1481.73 -2.39552 0.798182 0
M  V30 14140 C 1483.04 -0.0305755 3.00684 0
M  V30 14141 C 1484.59 -0.0975409 3.12848 0
M  V30 14142 C 1485.06 0.0954024 4.57901 0
M  V30 14143 N 1486.56 0.040908 4.63182 0
M  V30 14144 C 1487.29 0.165298 5.73162 0
M  V30 14145 N 1486.79 0.345091 6.9194 0
M  V30 14146 N 1488.58 0.105847 5.62 0
M  V30 14147 H 1480.73 1.03658 1.85388 0
M  V30 14148 H 1482.99 0.407074 0.856151 0
M  V30 14149 H 1482.7 0.954461 3.38501 0
M  V30 14150 H 1482.57 -0.768477 3.69289 0
M  V30 14151 H 1484.96 -1.07309 2.74898 0
M  V30 14152 H 1485.04 0.672017 2.46815 0
M  V30 14153 H 1484.69 1.06786 4.96547 0
M  V30 14154 H 1484.62 -0.693974 5.22007 0
M  V30 14155 H 1487.11 -0.0951009 3.7778 0
M  V30 14156 H 1487.42 0.431243 7.71596 0
M  V30 14157 H 1485.76 0.38089 6.93955 0
M  V30 14158 H 1488.96 -0.0335544 4.68088 0
M  V30 14159 H 1489.13 0.206235 6.47672 0
M  V30 14160 N 1482.53 -1.56697 -0.168486 0
M  V30 14161 C 1483.76 -1.86652 -0.904195 0
M  V30 14162 C 1484.18 -0.691906 -1.74912 0
M  V30 14163 O 1483.54 0.358971 -1.77711 0
M  V30 14164 C 1483.59 -3.15043 -1.75442 0
M  V30 14165 O 1482.69 -2.97466 -2.85636 0
M  V30 14166 H 1482.04 -0.613859 -0.253128 0
M  V30 14167 H 1484.57 -2.03927 -0.165773 0
M  V30 14168 H 1484.58 -3.4652 -2.15378 0
M  V30 14169 H 1483.25 -4.00147 -1.13381 0
M  V30 14170 H 1481.83 -2.7735 -2.49262 0
M  V30 14171 N 1484.01 0.437135 -1.51416 0
M  V30 14172 C 1485.43 0.773631 -1.39596 0
M  V30 14173 C 1485.63 1.95737 -0.478463 0
M  V30 14174 O 1484.68 2.52413 0.0662971 0
M  V30 14175 C 1486 1.05381 -2.8163 0
M  V30 14176 C 1487.55 1.15824 -2.90782 0
M  V30 14177 C 1488.02 1.47135 -4.33722 0
M  V30 14178 N 1489.51 1.54059 -4.3683 0
M  V30 14179 C 1490.25 1.79858 -5.44462 0
M  V30 14180 N 1489.74 2.03449 -6.62254 0
M  V30 14181 N 1491.54 1.81642 -5.31942 0
M  V30 14182 H 1483.69 -0.342468 -2.09621 0
M  V30 14183 H 1485.95 -0.0908158 -0.94364 0
M  V30 14184 H 1485.66 0.256708 -3.50762 0
M  V30 14185 H 1485.53 1.98139 -3.20968 0
M  V30 14186 H 1487.92 1.94597 -2.21847 0
M  V30 14187 H 1488 0.209663 -2.54939 0
M  V30 14188 H 1487.64 0.688897 -5.03206 0
M  V30 14189 H 1487.57 2.43199 -4.67078 0
M  V30 14190 H 1490.06 1.3773 -3.51907 0
M  V30 14191 H 1490.38 2.22506 -7.40075 0
M  V30 14192 H 1488.72 2.00771 -6.65369 0
M  V30 14193 H 1491.91 1.62731 -4.38903 0
M  V30 14194 H 1492.08 2.01411 -6.15904 0
M  V30 14195 N 1485.49 1.41566 0.692592 0
M  V30 14196 C 1486.9 1.36606 1.27262 0
M  V30 14197 C 1487.25 0.0506082 1.96135 0
M  V30 14198 O 1486.38 -0.851071 1.98962 0
M  V30 14199 C 1486.97 2.47434 2.31434 0
M  V30 14200 C 1485.53 2.45863 2.85006 0
M  V30 14201 C 1484.68 2.2713 1.59083 0
M  V30 14202 H 1487.63 1.51038 0.487149 0
M  V30 14203 H 1487.65 2.16663 3.12789 0
M  V30 14204 H 1487.16 3.43161 1.81278 0
M  V30 14205 H 1485.26 1.53901 3.3933 0
M  V30 14206 H 1485.38 3.42279 3.35234 0
M  V30 14207 H 1483.74 1.75061 1.85002 0
M  V30 14208 H 1484.52 3.24887 1.10919 0
M  V30 14209 N 1486.97 -0.927146 1.27443 0
M  V30 14210 C 1488.19 -1.71426 1.16739 0
M  V30 14211 C 1488.62 -1.86122 -0.272063 0
M  V30 14212 O 1487.98 -1.36165 -1.19703 0
M  V30 14213 C 1488.02 -3.09131 1.85661 0
M  V30 14214 O 1487.13 -3.95897 1.15495 0
M  V30 14215 H 1486.47 -0.525428 0.405983 0
M  V30 14216 H 1489 -1.16022 1.68523 0
M  V30 14217 H 1489.01 -3.59442 1.93042 0
M  V30 14218 H 1487.68 -2.97752 2.90373 0
M  V30 14219 H 1486.26 -3.54337 1.16187 0
M  V30 14220 N 1488.45 -1.09474 -1.13372 0
M  V30 14221 C 1489.69 -0.831091 -1.84659 0
M  V30 14222 C 1490.02 0.643294 -1.83554 0
M  V30 14223 O 1489.28 1.48958 -1.26925 0
M  V30 14224 C 1489.58 -1.31208 -3.32444 0
M  V30 14225 C 1489.24 -2.79617 -3.5373 0
M  V30 14226 C 1487.9 -3.20147 -3.59248 0
M  V30 14227 C 1490.26 -3.75303 -3.61659 0
M  V30 14228 C 1487.58 -4.55135 -3.70228 0
M  V30 14229 C 1489.94 -5.1008 -3.74167 0
M  V30 14230 C 1488.6 -5.50199 -3.77938 0
M  V30 14231 H 1487.87 -0.304118 -0.675717 0
M  V30 14232 H 1490.52 -1.36961 -1.33843 0
M  V30 14233 H 1488.82 -0.693379 -3.85616 0
M  V30 14234 H 1490.52 -1.08469 -3.86051 0
M  V30 14235 H 1487.11 -2.47253 -3.50091 0
M  V30 14236 H 1491.29 -3.45103 -3.56676 0
M  V30 14237 H 1486.55 -4.85656 -3.71414 0
M  V30 14238 H 1490.72 -5.84077 -3.79245 0
M  V30 14239 H 1488.35 -6.54794 -3.86198 0
M  V30 14240 N 1489.92 1.30607 -0.882012 0
M  V30 14241 C 1491.34 1.48859 -0.575599 0
M  V30 14242 C 1491.54 1.80908 0.887388 0
M  V30 14243 O 1490.6 1.89492 1.6688 0
M  V30 14244 C 1491.91 2.61405 -1.48619 0
M  V30 14245 C 1493.46 2.75286 -1.48951 0
M  V30 14246 C 1493.93 3.90942 -2.38596 0
M  V30 14247 N 1495.42 3.98248 -2.36543 0
M  V30 14248 C 1496.16 4.87041 -3.0262 0
M  V30 14249 N 1495.65 5.80651 -3.77911 0
M  V30 14250 N 1497.45 4.80385 -2.91867 0
M  V30 14251 H 1489.6 1.08076 -1.82848 0
M  V30 14252 H 1491.86 0.535148 -0.782509 0
M  V30 14253 H 1491.57 2.44535 -2.52775 0
M  V30 14254 H 1491.44 3.57818 -1.19358 0
M  V30 14255 H 1493.83 2.91564 -0.455477 0
M  V30 14256 H 1493.91 1.79504 -1.82242 0
M  V30 14257 H 1493.55 3.75422 -3.42083 0
M  V30 14258 H 1493.48 4.86057 -2.02623 0
M  V30 14259 H 1495.97 3.31282 -1.81827 0
M  V30 14260 H 1496.29 6.45159 -4.25428 0
M  V30 14261 H 1494.63 5.80592 -3.82019 0
M  V30 14262 H 1497.82 4.06234 -2.32576 0
M  V30 14263 H 1498 5.49377 -3.43641 0
M  V30 14264 N 1491.4 0.642663 1.43901 0
M  V30 14265 C 1492.82 0.309286 1.56575 0
M  V30 14266 C 1493.02 -1.18709 1.6282 0
M  V30 14267 O 1492.07 -1.97157 1.57751 0
M  V30 14268 C 1493.39 1.01136 2.83182 0
M  V30 14269 C 1494.94 0.9906 2.96911 0
M  V30 14270 C 1495.41 1.67336 4.26336 0
M  V30 14271 N 1496.9 1.6405 4.33177 0
M  V30 14272 C 1497.64 2.13762 5.32065 0
M  V30 14273 N 1497.13 2.71716 6.37293 0
M  V30 14274 N 1498.93 2.04323 5.23649 0
M  V30 14275 H 1491.08 1.61384 1.38091 0
M  V30 14276 H 1493.34 0.678084 0.6625 0
M  V30 14277 H 1493.05 2.0664 2.84592 0
M  V30 14278 H 1492.92 0.556304 3.73075 0
M  V30 14279 H 1495.31 -0.0559997 2.95047 0
M  V30 14280 H 1495.39 1.48425 2.08335 0
M  V30 14281 H 1495.03 2.71947 4.2896 0
M  V30 14282 H 1494.96 1.15445 5.1379 0
M  V30 14283 H 1497.45 1.21749 3.57751 0
M  V30 14284 H 1497.77 3.07352 7.09052 0
M  V30 14285 H 1496.11 2.75772 6.37946 0
M  V30 14286 H 1499.3 1.5876 4.40355 0
M  V30 14287 H 1499.47 2.43376 6.0056 0
M  V30 14288 N 1492.88 -1.52852 0.383918 0
M  V30 14289 C 1494.11 -2.05929 -0.200216 0
M  V30 14290 C 1494.52 -1.25606 -1.40956 0
M  V30 14291 O 1493.88 -0.301336 -1.79995 0
M  V30 14292 C 1493.93 -3.56887 -0.575655 0
M  V30 14293 O 1493.65 -4.34168 0.58564 0
M  V30 14294 C 1495.15 -4.2629 -1.21623 0
M  V30 14295 H 1492.37 -0.670261 -0.0314727 0
M  V30 14296 H 1494.92 -1.97032 0.547591 0
M  V30 14297 H 1493.07 -3.65875 -1.27336 0
M  V30 14298 H 1493.49 -5.23761 0.278267 0
M  V30 14299 H 1494.96 -5.33174 -1.42933 0
M  V30 14300 H 1495.44 -3.81163 -2.182 0
M  V30 14301 H 1496.04 -4.21605 -0.559435 0
M  V30 14302 N 1494.36 -0.113586 -1.5719 0
M  V30 14303 C 1495.77 0.412653 -1.82083 0
M  V30 14304 C 1496.12 1.66964 -1.03041 0
M  V30 14305 O 1495.25 2.14767 -0.265354 0
M  V30 14306 C 1495.84 0.755439 -3.3027 0
M  V30 14307 C 1494.4 1.22634 -3.55862 0
M  V30 14308 C 1493.55 0.232285 -2.76325 0
M  V30 14309 H 1496.5 -0.338792 -1.55042 0
M  V30 14310 H 1496.52 1.61335 -3.44603 0
M  V30 14311 H 1496.03 -0.1596 -3.87772 0
M  V30 14312 H 1494.13 2.15846 -3.03713 0
M  V30 14313 H 1494.25 1.1754 -4.64458 0
M  V30 14314 H 1492.61 0.718222 -2.44364 0
M  V30 14315 H 1493.39 -0.675756 -3.36583 0
M  V30 14316 N 1495.84 1.56784 0.160173 0
M  V30 14317 C 1496.8 1.96373 1.18195 0
M  V30 14318 C 1497.8 0.848674 1.3658 0
M  V30 14319 O 1498.99 1.11553 1.33796 0
M  V30 14320 C 1496.12 2.26824 2.54487 0
M  V30 14321 H 1497.32 2.87819 0.842641 0
M  V30 14322 H 1494.87 1.51014 0.403038 0
M  V30 14323 H 1495.6 1.38129 2.93413 0
M  V30 14324 H 1495.39 3.08112 2.42507 0
M  V30 14325 H 1496.88 2.58337 3.28104 0
M  V30 14326 N 1497.32 -0.429099 1.51646 0
M  V30 14327 C 1498.56 -1.17644 1.65926 0
M  V30 14328 C 1498.92 -1.88715 0.374777 0
M  V30 14329 O 1498.21 -1.80952 -0.629842 0
M  V30 14330 C 1498.4 -2.2131 2.80636 0
M  V30 14331 C 1498.23 -1.60416 4.20115 0
M  V30 14332 C 1497 -1.38551 4.85934 0
M  V30 14333 C 1499.2 -1.07589 5.0292 0
M  V30 14334 N 1497.18 -0.733404 6.09503 0
M  V30 14335 C 1498.55 -0.549542 6.1756 0
M  V30 14336 C 1500.61 -0.968438 4.88391 0
M  V30 14337 C 1499.31 0.07371 7.19262 0
M  V30 14338 C 1501.34 -0.359068 5.90309 0
M  V30 14339 C 1500.7 0.156699 7.04226 0
M  V30 14340 H 1496.8 -0.417871 0.66099 0
M  V30 14341 H 1499.38 -0.471789 1.88897 0
M  V30 14342 H 1497.55 -2.89155 2.59314 0
M  V30 14343 H 1499.29 -2.88263 2.84054 0
M  V30 14344 H 1496.04 -1.64953 4.43945 0
M  V30 14345 H 1496.46 -0.424555 6.75667 0
M  V30 14346 H 1501.11 -1.35305 4.00565 0
M  V30 14347 H 1498.82 0.470433 8.0673 0
M  V30 14348 H 1502.41 -0.277718 5.81137 0
M  V30 14349 H 1501.29 0.62081 7.81739 0
M  V30 14350 N 1498.79 -1.41931 -0.685074 0
M  V30 14351 C 1499.7 -1.46985 -1.82846 0
M  V30 14352 C 1500.72 -0.359487 -1.70246 0
M  V30 14353 O 1501.9 -0.608824 -1.91977 0
M  V30 14354 C 1498.96 -1.36001 -3.18912 0
M  V30 14355 C 1498.02 -2.57442 -3.43543 0
M  V30 14356 C 1497.25 -2.46972 -4.73118 0
M  V30 14357 O 1497.48 -1.49999 -5.50324 0
M  V30 14358 O 1496.41 -3.36922 -4.98766 0
M  V30 14359 H 1500.24 -2.4347 -1.81538 0
M  V30 14360 H 1497.82 -1.23583 -0.839497 0
M  V30 14361 H 1499.7 -1.32198 -4.00127 0
M  V30 14362 H 1498.38 -0.426366 -3.2088 0
M  V30 14363 H 1497.29 -2.66821 -2.62217 0
M  V30 14364 H 1498.62 -3.49671 -3.46398 0
M  V30 14365 N 1500.27 0.920374 -1.27933 0
M  V30 14366 C 1501.2 2.02644 -1.07089 0
M  V30 14367 C 1502.22 1.62781 -0.024674 0
M  V30 14368 O 1503.41 1.76491 -0.267023 0
M  V30 14369 C 1500.51 3.33476 -0.603919 0
M  V30 14370 C 1499.68 4.01988 -1.72407 0
M  V30 14371 C 1498.74 5.11098 -1.25159 0
M  V30 14372 O 1497.76 5.3466 -1.95261 0
M  V30 14373 N 1498.97 5.80393 -0.111197 0
M  V30 14374 H 1501.73 2.21085 -2.0234 0
M  V30 14375 H 1499.29 1.09124 -1.19597 0
M  V30 14376 H 1501.28 4.03788 -0.271579 0
M  V30 14377 H 1499.85 3.11554 0.255557 0
M  V30 14378 H 1499.07 3.25312 -2.22633 0
M  V30 14379 H 1500.36 4.4451 -2.47566 0
M  V30 14380 H 1499.76 5.63713 0.473746 0
M  V30 14381 H 1498.32 6.51599 0.161912 0
M  V30 14382 N 1501.75 1.10074 1.1279 0
M  V30 14383 C 1502.68 0.704023 2.1812 0
M  V30 14384 C 1503.69 -0.25742 1.60752 0
M  V30 14385 O 1504.88 -0.0424559 1.7845 0
M  V30 14386 C 1501.98 0.0176666 3.38895 0
M  V30 14387 C 1501.16 1.00234 4.2576 0
M  V30 14388 C 1500.22 0.348158 5.25047 0
M  V30 14389 O 1499.24 0.997821 5.60386 0
M  V30 14390 N 1500.44 -0.894955 5.7356 0
M  V30 14391 H 1503.21 1.61024 2.52767 0
M  V30 14392 H 1500.77 0.989068 1.28176 0
M  V30 14393 H 1502.76 -0.431346 4.02395 0
M  V30 14394 H 1501.33 -0.7909 3.02429 0
M  V30 14395 H 1500.55 1.62972 3.58934 0
M  V30 14396 H 1501.84 1.669 4.80647 0
M  V30 14397 H 1501.24 -1.4422 5.47007 0
M  V30 14398 H 1499.79 -1.28718 6.38964 0
M  V30 14399 N 1503.23 -1.30138 0.888926 0
M  V30 14400 C 1504.14 -2.31778 0.3628 0
M  V30 14401 C 1505.15 -1.65507 -0.53698 0
M  V30 14402 O 1506.33 -1.96775 -0.429152 0
M  V30 14403 C 1503.39 -3.44259 -0.410673 0
M  V30 14404 C 1502.46 -4.26147 0.519334 0
M  V30 14405 C 1501.69 -5.33257 -0.21732 0
M  V30 14406 O 1501.91 -5.5185 -1.44284 0
M  V30 14407 O 1500.85 -6.00329 0.43461 0
M  V30 14408 H 1504.67 -2.78739 1.20575 0
M  V30 14409 H 1502.26 -1.34379 0.65289 0
M  V30 14410 H 1504.14 -4.1277 -0.848467 0
M  V30 14411 H 1502.81 -2.99426 -1.22986 0
M  V30 14412 H 1501.72 -3.60319 1.00602 0
M  V30 14413 H 1503.05 -4.74595 1.30464 0
M  V30 14414 N 1504.71 -0.650285 -1.43559 0
M  V30 14415 C 1505.62 0.0438076 -2.34559 0
M  V30 14416 C 1506.63 0.815316 -1.53716 0
M  V30 14417 O 1507.81 0.76323 -1.86378 0
M  V30 14418 C 1504.87 1.00028 -3.31957 0
M  V30 14419 C 1503.93 0.226027 -4.28705 0
M  V30 14420 C 1503.17 1.13694 -5.21449 0
M  V30 14421 O 1503.39 2.37614 -5.18551 0
M  V30 14422 O 1502.32 0.610924 -5.98792 0
M  V30 14423 H 1506.15 -0.705152 -2.954 0
M  V30 14424 H 1503.73 -0.410471 -1.43651 0
M  V30 14425 H 1505.62 1.55004 -3.91857 0
M  V30 14426 H 1504.29 1.72952 -2.73623 0
M  V30 14427 H 1503.2 -0.367244 -3.72293 0
M  V30 14428 H 1504.53 -0.463582 -4.90012 0
M  V30 14429 N 1506.18 1.52647 -0.392018 0
M  V30 14430 C 1507.59 1.86522 0.0814091 0
M  V30 14431 C 1507.95 1.31158 1.45918 0
M  V30 14432 O 1507.07 0.644007 2.06595 0
M  V30 14433 C 1507.67 3.38448 0.1545 0
M  V30 14434 C 1506.22 3.72025 0.572227 0
M  V30 14435 C 1505.37 2.7604 -0.264093 0
M  V30 14436 H 1508.32 1.46517 -0.609785 0
M  V30 14437 H 1508.34 3.67846 0.973109 0
M  V30 14438 H 1507.86 3.78713 -0.848396 0
M  V30 14439 H 1505.96 3.37329 1.58239 0
M  V30 14440 H 1506.07 4.77973 0.328491 0
M  V30 14441 H 1504.43 2.53254 0.271042 0
M  V30 14442 H 1505.22 3.19143 -1.26502 0
M  V30 14443 N 1507.66 0.121921 1.57128 0
M  V30 14444 C 1509.07 -0.402991 1.82299 0
M  V30 14445 C 1509.42 -1.66415 1.03925 0
M  V30 14446 O 1508.55 -2.14623 0.27674 0
M  V30 14447 C 1509.14 -0.737913 3.30666 0
M  V30 14448 C 1507.7 -1.20745 3.56508 0
M  V30 14449 C 1506.85 -0.217628 2.76445 0
M  V30 14450 H 1509.8 0.347009 1.5486 0
M  V30 14451 H 1509.82 -1.59505 3.45454 0
M  V30 14452 H 1509.33 0.180162 3.87682 0
M  V30 14453 H 1507.44 -2.14232 3.04853 0
M  V30 14454 H 1507.55 -1.15075 4.65075 0
M  V30 14455 H 1505.91 -0.705253 2.44741 0
M  V30 14456 H 1506.7 0.693596 3.3622 0
M  V30 14457 N 1509.14 -1.56867 -0.151857 0
M  V30 14458 C 1510.1 -1.96997 -1.17152 0
M  V30 14459 C 1511.1 -0.855905 -1.36128 0
M  V30 14460 O 1512.29 -1.12261 -1.33203 0
M  V30 14461 C 1509.43 -2.28171 -2.5328 0
M  V30 14462 H 1510.62 -2.88261 -0.827365 0
M  V30 14463 H 1508.17 -1.51226 -0.395024 0
M  V30 14464 H 1508.91 -1.39683 -2.92676 0
M  V30 14465 H 1508.69 -3.09394 -2.40869 0
M  V30 14466 H 1510.18 -2.60073 -3.26729 0
M  V30 14467 N 1510.62 0.421051 -1.51871 0
M  V30 14468 C 1512.03 1.00033 -1.5764 0
M  V30 14469 C 1512.38 1.91875 -0.409665 0
M  V30 14470 O 1511.51 2.11201 0.471516 0
M  V30 14471 C 1512.1 1.82099 -2.85701 0
M  V30 14472 C 1510.66 2.35049 -2.93988 0
M  V30 14473 C 1509.81 1.14703 -2.52465 0
M  V30 14474 H 1512.76 0.201715 -1.57413 0
M  V30 14475 H 1512.78 2.67719 -2.70382 0
M  V30 14476 H 1512.29 1.15229 -3.706 0
M  V30 14477 H 1510.39 3.05327 -2.13556 0
M  V30 14478 H 1510.5 2.66731 -3.97984 0
M  V30 14479 H 1508.87 1.49736 -2.06037 0
M  V30 14480 H 1509.65 0.494171 -3.39725 0
M  V30 14481 N 1512.1 1.42293 0.677538 0
M  V30 14482 C 1513.04 1.45787 1.81243 0
M  V30 14483 C 1514.04 0.333895 1.66077 0
M  V30 14484 O 1515.24 0.50678 1.72719 0
M  V30 14485 H 1511.62 0.456538 0.597559 0
M  V30 14486 H 1513.59 2.41398 1.75413 0
M  V30 14487 C 1512.34 1.37449 3.19379 0
M  V30 14488 H 1511.66 2.23231 3.31674 0
M  V30 14489 H 1513.1 1.43955 3.98814 0
M  V30 14490 C 1511.56 0.0889433 3.36783 0
M  V30 14491 O 1512.09 -0.859357 3.924 0
M  V30 14492 N 1510.3 0.00698476 2.90599 0
M  V30 14493 H 1509.84 0.779459 2.45524 0
M  V30 14494 H 1509.8 -0.852522 3.02621 0
M  V30 14495 N 1513.57 -0.913576 1.28419 0
M  V30 14496 C 1514.99 -1.47782 1.14094 0
M  V30 14497 C 1515.34 -1.94347 -0.269004 0
M  V30 14498 O 1514.46 -1.82474 -1.16328 0
M  V30 14499 C 1515.06 -2.6859 2.06507 0
M  V30 14500 C 1513.62 -3.21193 1.96245 0
M  V30 14501 C 1512.76 -1.939 1.98238 0
M  V30 14502 H 1515.71 -0.726271 1.41106 0
M  V30 14503 H 1515.73 -3.43858 1.62916 0
M  V30 14504 H 1515.25 -2.34668 3.09116 0
M  V30 14505 H 1513.35 -3.5984 0.966737 0
M  V30 14506 H 1513.46 -3.8643 2.83211 0
M  V30 14507 H 1511.82 -2.11006 1.42648 0
M  V30 14508 H 1512.61 -1.62273 3.02527 0
M  V30 14509 N 1515.05 -1.1067 -1.12204 0
M  V30 14510 C 1516.46 -0.867959 -1.65298 0
M  V30 14511 C 1516.81 0.601297 -1.86759 0
M  V30 14512 O 1515.94 1.46153 -1.59588 0
M  V30 14513 C 1516.53 -1.56906 -3.00276 0
M  V30 14514 C 1515.09 -1.37696 -3.5031 0
M  V30 14515 C 1514.24 -1.61688 -2.25282 0
M  V30 14516 H 1517.19 -1.26408 -0.959521 0
M  V30 14517 H 1517.21 -1.00947 -3.66865 0
M  V30 14518 H 1516.72 -2.63838 -2.84625 0
M  V30 14519 H 1514.83 -0.329381 -3.71141 0
M  V30 14520 H 1514.94 -2.12058 -4.29614 0
M  V30 14521 H 1513.3 -1.03977 -2.3251 0
M  V30 14522 H 1514.09 -2.69877 -2.12182 0
M  V30 14523 N 1516.53 1.29665 -0.895815 0
M  V30 14524 C 1517.44 2.31582 -0.375086 0
M  V30 14525 C 1518.46 1.65789 0.528196 0
M  V30 14526 O 1519.63 1.96999 0.41871 0
M  V30 14527 C 1516.7 3.44472 0.39241 0
M  V30 14528 C 1515.76 4.25866 -0.541926 0
M  V30 14529 C 1514.99 5.33365 0.189037 0
M  V30 14530 O 1515.21 5.52607 1.41355 0
M  V30 14531 O 1514.15 6.0009 -0.466441 0
M  V30 14532 H 1517.97 2.78095 -1.22052 0
M  V30 14533 H 1515.56 1.34031 -0.660007 0
M  V30 14534 H 1517.44 4.13214 0.826565 0
M  V30 14535 H 1516.12 3.00074 1.21397 0
M  V30 14536 H 1515.02 3.59781 -1.02512 0
M  V30 14537 H 1516.36 4.73896 -1.32979 0
M  V30 14538 N 1518.01 0.657889 1.43212 0
M  V30 14539 C 1518.92 -0.0313677 2.34579 0
M  V30 14540 C 1519.93 -0.807153 1.54146 0
M  V30 14541 O 1521.11 -0.753335 1.8678 0
M  V30 14542 C 1518.18 -0.982659 3.32483 0
M  V30 14543 C 1517.24 -0.203288 4.28818 0
M  V30 14544 C 1516.47 -1.10927 5.22045 0
M  V30 14545 O 1516.69 -2.34861 5.19804 0
M  V30 14546 O 1515.63 -0.57916 5.99107 0
M  V30 14547 H 1519.45 0.720808 2.95022 0
M  V30 14548 H 1517.04 0.418083 1.43431 0
M  V30 14549 H 1518.92 -1.52923 3.92673 0
M  V30 14550 H 1517.59 -1.71498 2.74536 0
M  V30 14551 H 1516.5 0.386982 3.72093 0
M  V30 14552 H 1517.83 0.489562 4.89759 0
M  V30 14553 N 1519.49 -1.52437 0.400108 0
M  V30 14554 C 1520.4 -2.30496 -0.436875 0
M  V30 14555 C 1521.41 -1.37851 -1.06175 0
M  V30 14556 O 1522.59 -1.70924 -1.06522 0
M  V30 14557 C 1519.65 -3.10459 -1.54325 0
M  V30 14558 C 1518.71 -4.18829 -0.942367 0
M  V30 14559 C 1517.95 -4.94969 -1.99602 0
M  V30 14560 O 1518.17 -4.71314 -3.21278 0
M  V30 14561 O 1517.1 -5.80043 -1.60728 0
M  V30 14562 H 1520.93 -3.03045 0.199343 0
M  V30 14563 H 1518.52 -1.48502 0.163541 0
M  V30 14564 H 1520.4 -3.60282 -2.18575 0
M  V30 14565 H 1519.07 -2.40713 -2.16423 0
M  V30 14566 H 1517.98 -3.73176 -0.262831 0
M  V30 14567 H 1519.31 -4.90841 -0.365441 0
M  V30 14568 N 1520.96 -0.130252 -1.57061 0
M  V30 14569 C 1521.89 0.812189 -2.18919 0
M  V30 14570 C 1522.88 1.2692 -1.13249 0
M  V30 14571 O 1524.06 1.32978 -1.41529 0
M  V30 14572 C 1521.19 2.05803 -2.79754 0
M  V30 14573 C 1520.14 1.73841 -3.91105 0
M  V30 14574 C 1519.47 3.05549 -4.38799 0
M  V30 14575 C 1520.77 0.997991 -5.12677 0
M  V30 14576 H 1522.46 0.296692 -2.97926 0
M  V30 14577 H 1520.01 0.141265 -1.43305 0
M  V30 14578 H 1521.96 2.72201 -3.21691 0
M  V30 14579 H 1520.69 2.59697 -1.98053 0
M  V30 14580 H 1519.35 1.09828 -3.49762 0
M  V30 14581 H 1518.99 3.57399 -3.53942 0
M  V30 14582 H 1518.69 2.84932 -5.13894 0
M  V30 14583 H 1520.22 3.73045 -4.83394 0
M  V30 14584 H 1521.63 1.56372 -5.51562 0
M  V30 14585 H 1520.03 0.892378 -5.93428 0
M  V30 14586 H 1521.1 -0.0132936 -4.84898 0
M  V30 14587 N 1522.44 1.56945 0.143535 0
M  V30 14588 C 1523.67 1.88067 0.874385 0
M  V30 14589 C 1524.09 0.719645 1.73789 0
M  V30 14590 O 1523.45 -0.330654 1.78259 0
M  V30 14591 C 1523.5 3.17795 1.70408 0
M  V30 14592 O 1522.6 3.01973 2.80867 0
M  V30 14593 H 1521.94 0.617808 0.24333 0
M  V30 14594 H 1524.47 2.04165 0.133309 0
M  V30 14595 H 1524.48 3.49903 2.09838 0
M  V30 14596 H 1523.16 4.019 1.07001 0
M  V30 14597 H 1521.74 2.8128 2.44818 0
M  V30 14598 N 1523.92 -0.412991 1.52093 0
M  V30 14599 C 1524.88 -1.48555 1.7454 0
M  V30 14600 C 1525.88 -1.48563 0.615283 0
M  V30 14601 O 1527.07 -1.50155 0.883119 0
M  V30 14602 C 1524.21 -2.87984 1.82423 0
M  V30 14603 H 1525.4 -1.29945 2.70285 0
M  V30 14604 H 1522.95 -0.643241 1.4245 0
M  V30 14605 H 1523.69 -3.11969 0.885777 0
M  V30 14606 H 1523.47 -2.89381 2.64577 0
M  V30 14607 H 1524.96 -3.65745 2.01545 0
M  V30 14608 N 1525.4 -1.4265 -0.669982 0
M  V30 14609 C 1526.81 -1.38614 -1.25072 0
M  V30 14610 C 1527.16 -0.0818051 -1.96029 0
M  V30 14611 O 1526.29 0.81931 -2.0029 0
M  V30 14612 C 1526.88 -2.51085 -2.27469 0
M  V30 14613 C 1525.44 -2.50366 -2.81059 0
M  V30 14614 C 1524.59 -2.29632 -1.5545 0
M  V30 14615 H 1527.54 -1.51794 -0.463058 0
M  V30 14616 H 1527.56 -2.21612 -3.09303 0
M  V30 14617 H 1527.07 -3.46002 -1.75796 0
M  V30 14618 H 1525.17 -1.5928 -3.36839 0
M  V30 14619 H 1525.29 -3.47569 -3.29746 0
M  V30 14620 H 1523.65 -1.77982 -1.82193 0
M  V30 14621 H 1524.43 -3.26611 -1.05736 0
M  V30 14622 N 1526.88 0.906753 -1.28902 0
M  V30 14623 C 1527.79 2.04313 -1.15296 0
M  V30 14624 C 1528.8 1.73826 -0.0778619 0
M  V30 14625 O 1529.98 1.99322 -0.288543 0
M  V30 14626 C 1527.04 3.36782 -0.823317 0
M  V30 14627 C 1526.11 3.80834 -1.98152 0
M  V30 14628 C 1525.34 5.06981 -1.66751 0
M  V30 14629 O 1525.56 5.67391 -0.58513 0
M  V30 14630 O 1524.5 5.46915 -2.51332 0
M  V30 14631 H 1528.32 2.18713 -2.10709 0
M  V30 14632 H 1525.91 1.02928 -1.08287 0
M  V30 14633 H 1527.79 4.16298 -0.653735 0
M  V30 14634 H 1526.46 3.23542 0.101097 0
M  V30 14635 H 1525.37 3.02115 -2.2063 0
M  V30 14636 H 1526.7 3.98648 -2.88688 0
M  V30 14637 N 1528.36 1.11264 1.11616 0
M  V30 14638 C 1529.29 0.727118 2.17361 0
M  V30 14639 C 1530.3 -0.240356 1.61016 0
M  V30 14640 O 1531.49 -0.0235265 1.78484 0
M  V30 14641 C 1528.59 0.05361 3.38858 0
M  V30 14642 C 1527.76 1.04744 4.24673 0
M  V30 14643 C 1526.82 0.403827 5.24648 0
M  V30 14644 O 1525.85 1.0572 5.59296 0
M  V30 14645 N 1527.05 -0.834071 5.74477 0
M  V30 14646 H 1529.81 1.63696 2.51045 0
M  V30 14647 H 1527.38 1.00261 1.2712 0
M  V30 14648 H 1529.37 -0.388643 4.0283 0
M  V30 14649 H 1527.94 -0.758778 3.03251 0
M  V30 14650 H 1527.16 1.6677 3.57185 0
M  V30 14651 H 1528.45 1.71988 4.7885 0
M  V30 14652 H 1527.84 -1.3841 5.48506 0
M  V30 14653 H 1526.4 -1.21933 6.40293 0
M  V30 14654 N 1529.83 -1.29188 0.902679 0
M  V30 14655 C 1531.25 -1.47924 0.599209 0
M  V30 14656 C 1531.45 -1.82297 -0.858494 0
M  V30 14657 O 1530.51 -1.92123 -1.63845 0
M  V30 14658 C 1531.82 -2.59008 1.52759 0
M  V30 14659 C 1533.37 -2.72882 1.53312 0
M  V30 14660 C 1533.84 -3.87097 2.44785 0
M  V30 14661 N 1535.33 -3.94435 2.42849 0
M  V30 14662 C 1536.07 -4.82165 3.1033 0
M  V30 14663 N 1535.56 -5.74565 3.87101 0
M  V30 14664 N 1537.36 -4.75681 2.99473 0
M  V30 14665 H 1529.51 -1.05154 1.84544 0
M  V30 14666 H 1531.77 -0.522632 0.790924 0
M  V30 14667 H 1531.48 -2.40483 2.56634 0
M  V30 14668 H 1531.35 -3.55873 1.25036 0
M  V30 14669 H 1533.74 -2.90802 0.501804 0
M  V30 14670 H 1533.82 -1.76582 1.85074 0
M  V30 14671 H 1533.46 -3.69932 3.48012 0
M  V30 14672 H 1533.39 -4.82772 2.10331 0
M  V30 14673 H 1535.88 -3.28347 1.87074 0
M  V30 14674 H 1536.2 -6.3831 4.35638 0
M  V30 14675 H 1534.54 -5.74441 3.91207 0
M  V30 14676 H 1537.73 -4.02483 2.39009 0
M  V30 14677 H 1537.91 -5.4384 3.52337 0
M  V30 14678 N 1531.31 -0.665475 -1.42861 0
M  V30 14679 C 1532.72 -0.26225 -1.84849 0
M  V30 14680 C 1533.07 1.19372 -1.55707 0
M  V30 14681 O 1532.2 1.91269 -1.01218 0
M  V30 14682 C 1532.79 -0.469189 -3.35535 0
M  V30 14683 C 1531.35 -0.120172 -3.76208 0
M  V30 14684 C 1530.5 -0.766153 -2.66506 0
M  V30 14685 H 1533.45 -0.868296 -1.32839 0
M  V30 14686 H 1533.47 0.281571 -3.79457 0
M  V30 14687 H 1532.98 -1.52894 -3.56714 0
M  V30 14688 H 1531.08 0.936505 -3.60639 0
M  V30 14689 H 1531.2 -0.554188 -4.75884 0
M  V30 14690 H 1529.56 -0.198292 -2.53927 0
M  V30 14691 H 1530.34 -1.82918 -2.9051 0
M  V30 14692 N 1532.79 1.52222 -0.408187 0
M  V30 14693 C 1533.72 2.29892 0.408868 0
M  V30 14694 C 1534.7 1.34063 1.04695 0
M  V30 14695 O 1535.89 1.6297 1.05615 0
M  V30 14696 C 1533.02 3.11964 1.52629 0
M  V30 14697 C 1531.97 4.15833 1.01326 0
M  V30 14698 C 1531.3 4.86244 2.2242 0
M  V30 14699 C 1532.6 5.22256 0.0679573 0
M  V30 14700 H 1534.29 2.98443 -0.23923 0
M  V30 14701 H 1531.84 1.43528 -0.116496 0
M  V30 14702 H 1533.79 3.65067 2.10486 0
M  V30 14703 H 1532.51 2.41181 2.20225 0
M  V30 14704 H 1531.17 3.63739 0.4571 0
M  V30 14705 H 1530.82 4.11991 2.88569 0
M  V30 14706 H 1530.52 5.56461 1.88746 0
M  V30 14707 H 1532.04 5.42159 2.80885 0
M  V30 14708 H 1533.46 5.70604 0.555295 0
M  V30 14709 H 1531.85 5.9983 -0.179934 0
M  V30 14710 H 1532.92 4.76892 -0.877599 0
M  V30 14711 N 1534.27 0.138579 1.5699 0
M  V30 14712 C 1535.2 -0.835134 2.13444 0
M  V30 14713 C 1536.21 -1.21657 1.08183 0
M  V30 14714 O 1537.4 -1.16211 1.35489 0
M  V30 14715 C 1534.5 -2.13086 2.63529 0
M  V30 14716 C 1533.67 -1.9181 3.931 0
M  V30 14717 C 1532.73 -3.05293 4.28582 0
M  V30 14718 O 1531.76 -2.77351 4.97056 0
M  V30 14719 N 1532.96 -4.32248 3.87482 0
M  V30 14720 H 1535.73 -0.352693 2.97617 0
M  V30 14721 H 1533.29 -0.0452536 1.61837 0
M  V30 14722 H 1535.28 -2.88036 2.84284 0
M  V30 14723 H 1533.85 -2.52619 1.84127 0
M  V30 14724 H 1533.07 -1.00943 3.81057 0
M  V30 14725 H 1534.36 -1.74923 4.77786 0
M  V30 14726 H 1533.76 -4.5782 3.32292 0
M  V30 14727 H 1532.31 -5.04006 4.13305 0
M  V30 14728 N 1535.75 -1.57019 -0.13521 0
M  V30 14729 C 1536.68 -2.02182 -1.16811 0
M  V30 14730 C 1537.66 -0.9034 -1.44127 0
M  V30 14731 O 1538.84 -1.17202 -1.54846 0
M  V30 14732 C 1535.97 -2.41243 -2.49838 0
M  V30 14733 C 1534.93 -3.56379 -2.37018 0
M  V30 14734 C 1534.25 -3.8129 -3.74863 0
M  V30 14735 C 1535.55 -4.88653 -1.84432 0
M  V30 14736 H 1537.25 -2.8872 -0.792529 0
M  V30 14737 H 1534.79 -1.38901 -0.379788 0
M  V30 14738 H 1536.74 -2.7144 -3.22332 0
M  V30 14739 H 1535.47 -1.51656 -2.89254 0
M  V30 14740 H 1534.13 -3.26366 -1.66975 0
M  V30 14741 H 1533.78 -2.88934 -4.11735 0
M  V30 14742 H 1533.48 -4.58781 -3.67143 0
M  V30 14743 H 1535 -4.13924 -4.48887 0
M  V30 14744 H 1536.41 -5.17492 -2.46729 0
M  V30 14745 H 1534.81 -5.70032 -1.87574 0
M  V30 14746 H 1535.88 -4.78242 -0.800759 0
M  V30 14747 N 1537.22 0.404919 -1.52309 0
M  V30 14748 C 1538.13 1.51822 -1.7885 0
M  V30 14749 C 1539.15 1.60403 -0.674307 0
M  V30 14750 O 1540.33 1.77038 -0.960175 0
M  V30 14751 C 1537.39 2.87516 -1.9374 0
M  V30 14752 C 1536.45 2.88787 -3.17648 0
M  V30 14753 C 1535.69 4.18009 -3.31819 0
M  V30 14754 O 1535.91 5.12129 -2.51158 0
M  V30 14755 O 1534.84 4.26222 -4.24992 0
M  V30 14756 H 1538.67 1.32329 -2.73354 0
M  V30 14757 H 1536.25 0.591193 -1.37205 0
M  V30 14758 H 1538.14 3.6799 -2.05333 0
M  V30 14759 H 1536.81 3.07068 -1.02425 0
M  V30 14760 H 1535.72 2.07152 -3.11511 0
M  V30 14761 H 1537.05 2.74185 -4.08758 0
M  V30 14762 N 1538.7 1.43003 0.662408 0
M  V30 14763 C 1539.61 1.49876 1.80484 0
M  V30 14764 C 1540.63 0.386526 1.69653 0
M  V30 14765 O 1541.8 0.639289 1.90984 0
M  V30 14766 C 1538.87 1.41057 3.16708 0
M  V30 14767 C 1537.93 2.62875 3.39404 0
M  V30 14768 C 1537.16 2.54468 4.69129 0
M  V30 14769 O 1537.39 1.58735 5.47868 0
M  V30 14770 O 1536.32 3.44814 4.93343 0
M  V30 14771 H 1540.15 2.46327 1.77641 0
M  V30 14772 H 1537.73 1.24903 0.81973 0
M  V30 14773 H 1539.61 1.38547 3.97973 0
M  V30 14774 H 1538.29 0.477361 3.20161 0
M  V30 14775 H 1537.2 2.70958 2.57939 0
M  V30 14776 H 1538.53 3.55137 3.40791 0
M  V30 14777 N 1540.18 -0.899904 1.29381 0
M  V30 14778 C 1541.59 -1.46563 1.15655 0
M  V30 14779 C 1541.94 -1.94622 -0.248375 0
M  V30 14780 O 1541.07 -1.83698 -1.14386 0
M  V30 14781 C 1541.66 -2.66384 2.09344 0
M  V30 14782 C 1540.22 -3.19093 1.99641 0
M  V30 14783 C 1539.37 -1.91786 2.00283 0
M  V30 14784 H 1542.32 -0.711264 1.41869 0
M  V30 14785 H 1542.34 -3.42111 1.66554 0
M  V30 14786 H 1541.85 -2.31376 3.11587 0
M  V30 14787 H 1539.95 -3.58795 1.00485 0
M  V30 14788 H 1540.07 -3.83405 2.87293 0
M  V30 14789 H 1538.43 -2.09482 1.44878 0
M  V30 14790 H 1539.21 -1.59055 3.04231 0
M  V30 14791 N 1541.66 -1.11854 -1.11024 0
M  V30 14792 C 1542.59 -0.803129 -2.19253 0
M  V30 14793 C 1543.57 0.230417 -1.68532 0
M  V30 14794 O 1544.75 0.0929421 -1.93977 0
M  V30 14795 C 1541.88 -0.250265 -3.46397 0
M  V30 14796 C 1540.84 -1.21617 -4.10357 0
M  V30 14797 C 1540.16 -0.523821 -5.32128 0
M  V30 14798 C 1541.46 -2.56852 -4.54779 0
M  V30 14799 H 1543.16 -1.7081 -2.45895 0
M  V30 14800 H 1540.7 -0.822712 -1.18184 0
M  V30 14801 H 1542.66 -0.0173732 -4.21396 0
M  V30 14802 H 1541.38 0.690018 -3.19228 0
M  V30 14803 H 1540.04 -1.43477 -3.37357 0
M  V30 14804 H 1539.69 0.421408 -5.01232 0
M  V30 14805 H 1539.39 -1.16809 -5.75873 0
M  V30 14806 H 1540.91 -0.299823 -6.09863 0
M  V30 14807 H 1542.33 -2.39056 -5.21081 0
M  V30 14808 H 1540.72 -3.17301 -5.09353 0
M  V30 14809 H 1541.79 -3.15751 -3.68007 0
M  V30 14810 N 1543.14 1.28707 -0.909517 0
M  V30 14811 C 1544.05 2.31171 -0.399628 0
M  V30 14812 C 1545.06 1.6634 0.510582 0
M  V30 14813 O 1546.24 1.97432 0.397792 0
M  V30 14814 C 1543.3 3.44869 0.355852 0
M  V30 14815 C 1542.36 4.25267 -0.587065 0
M  V30 14816 C 1541.6 5.33536 0.132456 0
M  V30 14817 O 1541.82 5.54075 1.35486 0
M  V30 14818 O 1540.75 5.99561 -0.530062 0
M  V30 14819 H 1544.58 2.76785 -1.24995 0
M  V30 14820 H 1542.17 1.33323 -0.674186 0
M  V30 14821 H 1544.05 4.14068 0.782692 0
M  V30 14822 H 1542.72 3.01345 1.18207 0
M  V30 14823 H 1541.63 3.58673 -1.06322 0
M  V30 14824 H 1542.96 4.72459 -1.37998 0
M  V30 14825 N 1544.61 0.673042 1.42506 0
M  V30 14826 C 1546.03 0.272049 1.84707 0
M  V30 14827 C 1546.38 -1.18545 1.56338 0
M  V30 14828 O 1545.5 -1.9073 1.02231 0
M  V30 14829 C 1546.1 0.486977 3.35282 0
M  V30 14830 C 1544.66 0.140122 3.76139 0
M  V30 14831 C 1543.8 0.780276 2.66096 0
M  V30 14832 H 1546.75 0.875329 1.32377 0
M  V30 14833 H 1546.77 -0.261443 3.79601 0
M  V30 14834 H 1546.29 1.54784 3.55898 0
M  V30 14835 H 1544.39 -0.917366 3.6113 0
M  V30 14836 H 1544.5 0.579417 4.75583 0
M  V30 14837 H 1542.86 0.211756 2.53818 0
M  V30 14838 H 1543.65 1.84456 2.89536 0
M  V30 14839 N 1546.09 -1.52004 0.416254 0
M  V30 14840 C 1547.32 -2.0679 -0.158937 0
M  V30 14841 C 1547.74 -1.28366 -1.37491 0
M  V30 14842 O 1547.1 -0.315815 -1.78528 0
M  V30 14843 C 1547.15 -3.57381 -0.480717 0
M  V30 14844 O 1546.25 -3.81321 -1.5706 0
M  V30 14845 H 1545.59 -0.663907 -0.0110938 0
M  V30 14846 H 1548.12 -1.95863 0.591509 0
M  V30 14847 H 1548.13 -4.01283 -0.737297 0
M  V30 14848 H 1546.81 -4.13893 0.408137 0
M  V30 14849 H 1545.39 -3.49296 -1.30563 0
M  V30 14850 N 1547.57 -0.146903 -1.56914 0
M  V30 14851 C 1548.98 0.373938 -1.82917 0
M  V30 14852 C 1549.33 1.64741 -1.06559 0
M  V30 14853 O 1548.46 2.14156 -0.310849 0
M  V30 14854 C 1549.05 0.685213 -3.31799 0
M  V30 14855 C 1547.61 1.15058 -3.58383 0
M  V30 14856 C 1546.76 0.17362 -2.76756 0
M  V30 14857 H 1549.71 -0.371602 -1.54288 0
M  V30 14858 H 1549.73 1.53989 -3.47948 0
M  V30 14859 H 1549.24 -0.241816 -3.87346 0
M  V30 14860 H 1547.34 2.09355 -3.08223 0
M  V30 14861 H 1547.46 1.07662 -4.66847 0
M  V30 14862 H 1545.82 0.666227 -2.45832 0
M  V30 14863 H 1546.6 -0.746998 -3.35074 0
M  V30 14864 N 1549.05 1.57088 0.126881 0
M  V30 14865 C 1549.98 2.02799 1.15737 0
M  V30 14866 C 1550.96 0.911031 1.43646 0
M  V30 14867 O 1552.14 1.18021 1.54223 0
M  V30 14868 C 1549.27 2.42565 2.48555 0
M  V30 14869 C 1548.23 3.57631 2.35125 0
M  V30 14870 C 1547.55 3.83272 3.72836 0
M  V30 14871 C 1548.85 4.89625 1.81838 0
M  V30 14872 H 1550.55 2.89136 0.777207 0
M  V30 14873 H 1548.09 1.39101 0.372416 0
M  V30 14874 H 1550.05 2.73146 3.20888 0
M  V30 14875 H 1548.77 1.53188 2.88446 0
M  V30 14876 H 1547.43 3.27247 1.65242 0
M  V30 14877 H 1547.08 2.91114 4.10197 0
M  V30 14878 H 1546.78 4.60721 3.64705 0
M  V30 14879 H 1548.3 4.16298 4.46686 0
M  V30 14880 H 1549.72 5.18793 2.43981 0
M  V30 14881 H 1548.11 5.71018 1.84548 0
M  V30 14882 H 1549.18 4.7866 0.775385 0
M  V30 14883 N 1550.53 -0.396836 1.52522 0
M  V30 14884 C 1551.94 -0.736347 1.41598 0
M  V30 14885 C 1552.14 -1.944 0.530191 0
M  V30 14886 O 1551.2 -2.525 0.000649033 0
M  V30 14887 C 1552.51 -0.978775 2.84325 0
M  V30 14888 C 1554.06 -1.08073 2.9375 0
M  V30 14889 C 1554.53 -1.35584 4.37471 0
M  V30 14890 N 1556.03 -1.42423 4.40761 0
M  V30 14891 C 1556.76 -1.6536 5.49039 0
M  V30 14892 N 1556.26 -1.85819 6.67415 0
M  V30 14893 N 1558.05 -1.67475 5.36571 0
M  V30 14894 H 1550.2 0.397925 2.08639 0
M  V30 14895 H 1552.46 0.115803 0.9409 0
M  V30 14896 H 1552.17 -0.16362 3.51319 0
M  V30 14897 H 1552.04 -1.8956 3.26109 0
M  V30 14898 H 1554.43 -1.88646 2.26928 0
M  V30 14899 H 1554.51 -0.141996 2.55406 0
M  V30 14900 H 1554.16 -0.555238 5.04856 0
M  V30 14901 H 1554.09 -2.3073 4.73362 0
M  V30 14902 H 1556.58 -1.28352 3.55435 0
M  V30 14903 H 1556.89 -2.02806 7.45714 0
M  V30 14904 H 1555.23 -1.83059 6.70458 0
M  V30 14905 H 1558.43 -1.51038 4.43064 0
M  V30 14906 H 1558.6 -1.85011 6.21027 0
M  V30 14907 N 1552.01 -1.43353 -0.654814 0
M  V30 14908 C 1552.96 -1.44834 -1.76089 0
M  V30 14909 C 1553.94 -0.316999 -1.57746 0
M  V30 14910 O 1555.13 -0.560668 -1.67885 0
M  V30 14911 C 1552.26 -1.37256 -3.14668 0
M  V30 14912 C 1551.35 -2.55413 -3.38563 0
M  V30 14913 N 1551.74 -3.80769 -3.3294 0
M  V30 14914 C 1550.04 -2.50103 -3.69276 0
M  V30 14915 C 1550.74 -4.59366 -3.56872 0
M  V30 14916 N 1549.71 -3.90073 -3.78608 0
M  V30 14917 H 1553.51 -2.39628 -1.70164 0
M  V30 14918 H 1551.03 -1.37982 -0.856422 0
M  V30 14919 H 1553.03 -1.364 -3.93955 0
M  V30 14920 H 1551.69 -0.434805 -3.21776 0
M  V30 14921 H 1552.7 -4.13079 -3.12387 0
M  V30 14922 H 1549.37 -1.65007 -3.83509 0
M  V30 14923 H 1550.76 -5.68383 -3.58316 0
M  V30 14924 N 1553.48 0.89303 -1.29857 0
M  V30 14925 C 1554.76 1.62492 -1.08884 0
M  V30 14926 C 1555.14 2.07926 0.364695 0
M  V30 14927 O 1554.49 1.84009 1.35473 0
M  V30 14928 C 1554.7 2.80063 -2.08245 0
M  V30 14929 C 1556.05 3.50589 -2.39526 0
M  V30 14930 O 1557.07 2.90241 -2.06492 0
M  V30 14931 O 1555.93 4.59399 -2.95998 0
M  V30 14932 H 1553.02 0.713805 -0.417626 0
M  V30 14933 H 1555.57 0.940513 -1.41253 0
M  V30 14934 H 1554.34 2.43735 -3.06119 0
M  V30 14935 H 1553.96 3.56205 -1.76645 0
M  V30 14936 N 1554.96 1.12442 1.10429 0
M  V30 14937 C 1556.21 0.878021 1.82031 0
M  V30 14938 C 1556.53 -0.597787 1.85611 0
M  V30 14939 O 1555.8 -1.43442 1.33422 0
M  V30 14940 H 1554.38 0.321839 0.674113 0
M  V30 14941 H 1557.04 1.41891 1.33615 0
M  V30 14942 H 1556.14 1.25957 2.85554 0
M  V30 14943 N 1556.44 -1.28223 0.91633 0
M  V30 14944 C 1557.67 -1.98986 0.566772 0
M  V30 14945 C 1558.08 -1.68455 -0.852553 0
M  V30 14946 O 1557.44 -0.938734 -1.56506 0
M  V30 14947 C 1557.49 -3.53217 0.769423 0
M  V30 14948 O 1557.21 -3.82674 2.1329 0
M  V30 14949 C 1558.71 -4.41238 0.427043 0
M  V30 14950 H 1555.93 -0.63534 0.215834 0
M  V30 14951 H 1558.48 -1.63357 1.23024 0
M  V30 14952 H 1556.63 -3.87098 0.152915 0
M  V30 14953 H 1557.05 -4.77302 2.17448 0
M  V30 14954 H 1558.52 -5.48512 0.619594 0
M  V30 14955 H 1559 -4.34558 -0.63686 0
M  V30 14956 H 1559.6 -4.12858 1.0212 0
M  V30 14957 N 1557.92 -0.68059 -1.42147 0
M  V30 14958 C 1559.33 -0.281841 -1.8456 0
M  V30 14959 C 1559.68 1.17714 -1.56965 0
M  V30 14960 O 1558.8 1.90185 -1.03241 0
M  V30 14961 C 1559.4 -0.504751 -3.35019 0
M  V30 14962 C 1557.96 -0.160067 -3.76059 0
M  V30 14963 C 1557.11 -0.794377 -2.65678 0
M  V30 14964 H 1560.06 -0.882337 -1.31911 0
M  V30 14965 H 1560.08 0.241308 -3.79734 0
M  V30 14966 H 1559.59 -1.56669 -3.55072 0
M  V30 14967 H 1557.69 0.898202 -3.61612 0
M  V30 14968 H 1557.8 -0.60463 -4.75269 0
M  V30 14969 H 1556.17 -0.225213 -2.53702 0
M  V30 14970 H 1556.95 -1.85989 -2.88553 0
M  V30 14971 N 1559.4 1.51781 -0.424309 0
M  V30 14972 C 1560.64 2.02269 0.146709 0
M  V30 14973 C 1560.97 1.30859 1.4349 0
M  V30 14974 O 1560.25 0.419504 1.89922 0
M  V30 14975 C 1560.53 3.58101 0.378861 0
M  V30 14976 C 1560.39 4.40143 -0.92707 0
M  V30 14977 C 1561.7 4.2469 1.15438 0
M  V30 14978 H 1558.82 0.735174 0.0518456 0
M  V30 14979 H 1561.47 1.81537 -0.560753 0
M  V30 14980 H 1559.62 3.75897 0.981496 0
M  V30 14981 H 1561.29 4.34025 -1.56268 0
M  V30 14982 H 1559.53 4.05748 -1.53464 0
M  V30 14983 H 1560.2 5.47299 -0.718837 0
M  V30 14984 H 1562.68 4.11086 0.644041 0
M  V30 14985 H 1561.55 5.33633 1.28557 0
M  V30 14986 H 1561.81 3.84668 2.17905 0
M  V30 14987 N 1560.87 0.155222 1.56834 0
M  V30 14988 C 1562.28 -0.364232 1.83113 0
M  V30 14989 C 1562.64 -1.64173 1.07432 0
M  V30 14990 O 1561.76 -2.13988 0.322202 0
M  V30 14991 C 1562.36 -0.667608 3.32157 0
M  V30 14992 C 1560.91 -1.13156 3.58989 0
M  V30 14993 C 1560.06 -0.158941 2.76844 0
M  V30 14994 H 1563.01 0.379779 1.54089 0
M  V30 14995 H 1563.03 -1.52141 3.4876 0
M  V30 14996 H 1562.55 0.262355 3.87212 0
M  V30 14997 H 1560.65 -2.07717 3.09329 0
M  V30 14998 H 1560.76 -1.05184 4.67411 0
M  V30 14999 H 1559.12 -0.653181 2.46182 0
M  V30 15000 H 1559.91 0.764757 3.34674 0
M  V30 15001 N 1562.35 -1.57153 -0.118549 0
M  V30 15002 C 1563.31 -1.99438 -1.12947 0
M  V30 15003 C 1564.31 -0.884588 -1.34282 0
M  V30 15004 O 1565.5 -1.15062 -1.30792 0
M  V30 15005 C 1562.64 -2.33492 -2.48384 0
M  V30 15006 H 1563.83 -2.89952 -0.766034 0
M  V30 15007 H 1561.38 -1.5203 -0.362858 0
M  V30 15008 H 1562.12 -1.45859 -2.89647 0
M  V30 15009 H 1561.9 -3.14433 -2.34252 0
M  V30 15010 H 1563.39 -2.66945 -3.21139 0
M  V30 15011 N 1563.83 0.388742 -1.5273 0
M  V30 15012 C 1565.25 0.728828 -1.41987 0
M  V30 15013 C 1565.45 1.94116 -0.540493 0
M  V30 15014 O 1564.5 2.52496 -0.0140397 0
M  V30 15015 C 1565.81 0.963683 -2.8484 0
M  V30 15016 C 1567.36 1.06514 -2.94319 0
M  V30 15017 C 1567.84 1.33262 -4.38184 0
M  V30 15018 N 1569.33 1.40083 -4.4151 0
M  V30 15019 C 1570.06 1.62446 -5.49908 0
M  V30 15020 N 1569.56 1.82277 -6.68391 0
M  V30 15021 N 1571.35 1.64627 -5.37452 0
M  V30 15022 H 1563.5 -0.408984 -2.08425 0
M  V30 15023 H 1565.77 -0.120791 -0.940273 0
M  V30 15024 H 1565.47 0.144986 -3.51401 0
M  V30 15025 H 1565.35 1.87828 -3.27109 0
M  V30 15026 H 1567.73 1.8744 -2.27926 0
M  V30 15027 H 1567.81 0.12845 -2.55477 0
M  V30 15028 H 1567.46 0.528457 -5.05143 0
M  V30 15029 H 1567.39 2.28216 -4.74579 0
M  V30 15030 H 1569.88 1.26465 -3.56111 0
M  V30 15031 H 1570.19 1.98848 -7.46779 0
M  V30 15032 H 1568.54 1.79501 -6.7142 0
M  V30 15033 H 1571.73 1.48686 -4.43858 0
M  V30 15034 H 1571.9 1.81715 -6.22 0
M  V30 15035 N 1565.31 1.43698 0.647203 0
M  V30 15036 C 1566.72 1.27231 0.963563 0
M  V30 15037 C 1566.92 0.196385 2.00541 0
M  V30 15038 O 1565.98 -0.423162 2.48929 0
M  V30 15039 C 1567.29 2.63863 1.44211 0
M  V30 15040 C 1568.84 2.71444 1.55844 0
M  V30 15041 C 1569.32 4.08508 2.07087 0
M  V30 15042 N 1570.81 4.10603 2.14381 0
M  V30 15043 C 1571.54 5.13496 2.55166 0
M  V30 15044 N 1571.04 6.26759 2.95203 0
M  V30 15045 N 1572.83 5.0085 2.55158 0
M  V30 15046 H 1564.98 2.12358 -0.0420956 0
M  V30 15047 H 1567.24 0.946989 0.0437628 0
M  V30 15048 H 1566.95 3.43589 0.75096 0
M  V30 15049 H 1566.82 2.89666 2.41605 0
M  V30 15050 H 1569.21 1.92046 2.24058 0
M  V30 15051 H 1569.29 2.49399 0.56866 0
M  V30 15052 H 1568.94 4.88375 1.39472 0
M  V30 15053 H 1568.87 4.2792 3.06907 0
M  V30 15054 H 1571.36 3.2885 1.86188 0
M  V30 15055 H 1571.67 7.01096 3.25091 0
M  V30 15056 H 1570.02 6.30222 2.92993 0
M  V30 15057 H 1573.21 4.11428 2.2326 0
M  V30 15058 H 1573.38 5.81165 2.86621 0
M  V30 15059 N 1566.79 -0.886131 1.30328 0
M  V30 15060 C 1568.2 -1.16922 1.08634 0
M  V30 15061 C 1568.4 -2.00913 -0.15365 0
M  V30 15062 O 1567.46 -2.37849 -0.847592 0
M  V30 15063 C 1568.77 -1.87701 2.34923 0
M  V30 15064 C 1570.32 -2.0047 2.40376 0
M  V30 15065 C 1570.79 -2.74662 3.66504 0
M  V30 15066 N 1572.29 -2.82208 3.67305 0
M  V30 15067 C 1573.02 -3.40185 4.61586 0
M  V30 15068 N 1572.52 -3.99221 5.66211 0
M  V30 15069 N 1574.31 -3.37989 4.49132 0
M  V30 15070 H 1566.46 -0.326064 2.09882 0
M  V30 15071 H 1568.72 -0.206996 0.925125 0
M  V30 15072 H 1568.43 -1.33427 3.25408 0
M  V30 15073 H 1568.3 -2.88092 2.43481 0
M  V30 15074 H 1570.69 -2.53914 1.50371 0
M  V30 15075 H 1570.77 -0.991709 2.35794 0
M  V30 15076 H 1570.42 -2.2189 4.56867 0
M  V30 15077 H 1570.35 -3.76335 3.68347 0
M  V30 15078 H 1572.84 -2.40292 2.91665 0
M  V30 15079 H 1573.15 -4.41522 6.34254 0
M  V30 15080 H 1571.49 -3.97643 5.70004 0
M  V30 15081 H 1574.69 -2.91096 3.6658 0
M  V30 15082 H 1574.86 -3.82877 5.2279 0
M  V30 15083 N 1568.26 -1.13026 -1.09832 0
M  V30 15084 C 1569.68 -0.902826 -1.6342 0
M  V30 15085 C 1570.03 0.561547 -1.87992 0
M  V30 15086 O 1569.15 1.42735 -1.62652 0
M  V30 15087 C 1569.75 -1.6324 -2.96881 0
M  V30 15088 C 1568.31 -1.45095 -3.4731 0
M  V30 15089 C 1567.45 -1.66431 -2.21802 0
M  V30 15090 H 1570.4 -1.28414 -0.932492 0
M  V30 15091 H 1570.42 -1.08706 -3.64641 0
M  V30 15092 H 1569.94 -2.69816 -2.78964 0
M  V30 15093 H 1568.04 -0.408031 -3.70359 0
M  V30 15094 H 1568.15 -2.21123 -4.25019 0
M  V30 15095 H 1566.51 -1.08885 -2.30252 0
M  V30 15096 H 1567.3 -2.74317 -2.0641 0
M  V30 15097 N 1569.74 1.27735 -0.923117 0
M  V30 15098 C 1570.67 2.29395 -0.435907 0
M  V30 15099 C 1571.65 1.62542 0.501403 0
M  V30 15100 O 1572.84 1.89884 0.407135 0
M  V30 15101 C 1569.97 3.45856 0.316348 0
M  V30 15102 C 1568.92 4.24672 -0.532697 0
M  V30 15103 C 1568.25 5.33563 0.348454 0
M  V30 15104 C 1569.55 4.90494 -1.79481 0
M  V30 15105 H 1571.24 2.70398 -1.28551 0
M  V30 15106 H 1568.79 1.29989 -0.619581 0
M  V30 15107 H 1570.74 4.1607 0.668098 0
M  V30 15108 H 1569.47 3.03758 1.19994 0
M  V30 15109 H 1568.12 3.56198 -0.867093 0
M  V30 15110 H 1567.77 4.87708 1.23086 0
M  V30 15111 H 1567.47 5.87202 -0.216104 0
M  V30 15112 H 1569 6.06622 0.695878 0
M  V30 15113 H 1570.41 5.53019 -1.5114 0
M  V30 15114 H 1568.81 5.5417 -2.30251 0
M  V30 15115 H 1569.88 4.14454 -2.51707 0
M  V30 15116 N 1571.22 0.688118 1.41784 0
M  V30 15117 C 1572.47 0.215517 2.00948 0
M  V30 15118 C 1572.79 -1.18656 1.54744 0
M  V30 15119 O 1572.06 -1.79925 0.774831 0
M  V30 15120 H 1570.64 0.0766876 0.743053 0
M  V30 15121 H 1573.3 0.88761 1.73515 0
M  V30 15122 H 1572.4 0.227139 3.11272 0
M  V30 15123 N 1572.7 -1.51554 0.432352 0
M  V30 15124 C 1573.65 -2.24474 -0.39944 0
M  V30 15125 C 1574.63 -1.26505 -0.994242 0
M  V30 15126 O 1575.82 -1.51623 -0.913209 0
M  V30 15127 C 1572.95 -3.08659 -1.50282 0
M  V30 15128 C 1572.04 -4.14053 -0.917654 0
M  V30 15129 N 1572.43 -5.05763 -0.061209 0
M  V30 15130 C 1570.73 -4.29949 -1.18576 0
M  V30 15131 C 1571.43 -5.81087 0.266897 0
M  V30 15132 N 1570.41 -5.42484 -0.348218 0
M  V30 15133 H 1574.21 -2.92739 0.260928 0
M  V30 15134 H 1571.72 -1.60555 0.24413 0
M  V30 15135 H 1573.72 -3.59472 -2.11153 0
M  V30 15136 H 1572.38 -2.41936 -2.16557 0
M  V30 15137 H 1573.39 -5.17002 0.304858 0
M  V30 15138 H 1570.07 -3.74453 -1.84638 0
M  V30 15139 H 1571.46 -6.64956 0.963519 0
M  V30 15140 N 1574.18 -0.163538 -1.56749 0
M  V30 15141 C 1575.42 0.482449 -1.96257 0
M  V30 15142 C 1575.75 1.64302 -1.05023 0
M  V30 15143 O 1575.02 1.95562 -0.115027 0
M  V30 15144 H 1573.6 0.181222 -0.724684 0
M  V30 15145 H 1576.26 -0.242903 -1.9338 0
M  V30 15146 H 1575.35 0.847634 -3.00369 0
M  V30 15147 N 1575.65 1.57214 0.110213 0
M  V30 15148 C 1576.9 1.85312 0.816439 0
M  V30 15149 C 1577.23 0.749901 1.79462 0
M  V30 15150 O 1576.48 -0.257948 1.93993 0
M  V30 15151 C 1576.78 3.19933 1.59304 0
M  V30 15152 C 1576.45 4.44477 0.75835 0
M  V30 15153 C 1575.11 4.78292 0.528201 0
M  V30 15154 C 1577.46 5.20899 0.177117 0
M  V30 15155 C 1574.79 5.85966 -0.293292 0
M  V30 15156 C 1577.14 6.29439 -0.631615 0
M  V30 15157 C 1575.81 6.6178 -0.871998 0
M  V30 15158 H 1575.08 0.678104 0.298756 0
M  V30 15159 H 1577.72 1.91339 0.0784721 0
M  V30 15160 H 1576.03 3.09522 2.40216 0
M  V30 15161 H 1577.73 3.38897 2.14359 0
M  V30 15162 H 1574.32 4.17988 0.94783 0
M  V30 15163 H 1578.5 4.95119 0.342121 0
M  V30 15164 H 1573.76 6.09444 -0.488665 0
M  V30 15165 H 1577.93 6.87834 -1.08894 0
M  V30 15166 H 1575.56 7.45045 -1.51037 0
M  V30 15167 N 1577.13 -0.380637 1.52934 0
M  V30 15168 C 1578.38 -1.12261 1.68053 0
M  V30 15169 C 1578.7 -1.90263 0.427191 0
M  V30 15170 O 1577.97 -1.87768 -0.558559 0
M  V30 15171 H 1576.55 -0.41742 0.619491 0
M  V30 15172 H 1579.21 -0.430906 1.90077 0
M  V30 15173 H 1578.31 -1.82085 2.53479 0
M  V30 15174 N 1578.61 -1.44039 -0.639573 0
M  V30 15175 C 1579.54 -1.53073 -1.76327 0
M  V30 15176 C 1580.52 -0.384344 -1.65701 0
M  V30 15177 O 1581.71 -0.603362 -1.84589 0
M  V30 15178 C 1578.84 -1.46646 -3.14821 0
M  V30 15179 C 1577.79 -2.59673 -3.40226 0
M  V30 15180 C 1577.12 -2.38298 -4.78663 0
M  V30 15181 C 1578.42 -4.01864 -3.33621 0
M  V30 15182 H 1580.11 -2.47126 -1.69023 0
M  V30 15183 H 1577.66 -1.1894 -0.811749 0
M  V30 15184 H 1579.61 -1.51567 -3.93199 0
M  V30 15185 H 1578.33 -0.491035 -3.22888 0
M  V30 15186 H 1576.99 -2.54127 -2.64225 0
M  V30 15187 H 1576.64 -1.38968 -4.83422 0
M  V30 15188 H 1576.34 -3.14074 -4.9662 0
M  V30 15189 H 1577.86 -2.45025 -5.59281 0
M  V30 15190 H 1579.28 -4.08824 -4.01915 0
M  V30 15191 H 1577.68 -4.77775 -3.63113 0
M  V30 15192 H 1578.75 -4.26033 -2.31569 0
M  V30 15193 N 1580.09 0.879207 -1.30796 0
M  V30 15194 C 1581.05 1.96707 -1.17639 0
M  V30 15195 C 1582.05 1.6045 -0.106013 0
M  V30 15196 O 1583.24 1.70553 -0.354573 0
M  V30 15197 C 1580.37 3.31292 -0.803625 0
M  V30 15198 H 1581.57 2.09806 -2.14293 0
M  V30 15199 H 1579.12 1.06634 -1.14276 0
M  V30 15200 H 1579.85 3.23894 0.162159 0
M  V30 15201 H 1579.64 3.58979 -1.57723 0
M  V30 15202 H 1581.13 4.11077 -0.735201 0
M  V30 15203 N 1581.57 1.13606 1.09231 0
M  V30 15204 C 1582.52 0.784018 2.14096 0
M  V30 15205 C 1583.5 -0.22288 1.59349 0
M  V30 15206 O 1584.69 -0.0264914 1.7698 0
M  V30 15207 C 1581.82 0.253922 3.4236 0
M  V30 15208 C 1580.91 1.28985 4.0401 0
M  V30 15209 N 1581.3 2.49138 4.40186 0
M  V30 15210 C 1579.6 1.1381 4.31235 0
M  V30 15211 C 1580.3 3.15388 4.8878 0
M  V30 15212 N 1579.27 2.42806 4.8636 0
M  V30 15213 H 1583.08 1.69816 2.39874 0
M  V30 15214 H 1580.59 1.01867 1.26478 0
M  V30 15215 H 1582.59 -0.0165402 4.16897 0
M  V30 15216 H 1581.25 -0.65452 3.18035 0
M  V30 15217 H 1582.26 2.8643 4.31484 0
M  V30 15218 H 1578.94 0.287982 4.16506 0
M  V30 15219 H 1580.33 4.17784 5.26219 0
M  V30 15220 N 1583.05 -1.27244 0.929878 0
M  V30 15221 C 1584.46 -1.76254 0.615732 0
M  V30 15222 C 1584.81 -1.759 -0.869111 0
M  V30 15223 O 1583.93 -1.36388 -1.6801 0
M  V30 15224 C 1584.53 -3.20068 1.11095 0
M  V30 15225 C 1583.09 -3.66736 0.847435 0
M  V30 15226 C 1582.23 -2.4659 1.26842 0
M  V30 15227 H 1585.18 -1.1348 1.10942 0
M  V30 15228 H 1585.21 -3.77714 0.459618 0
M  V30 15229 H 1584.72 -3.20293 2.19166 0
M  V30 15230 H 1582.82 -3.71954 -0.219376 0
M  V30 15231 H 1582.93 -4.56104 1.4665 0
M  V30 15232 H 1581.3 -2.45261 0.686944 0
M  V30 15233 H 1582.08 -2.49524 2.35781 0
M  V30 15234 N 1584.52 -0.695628 -1.41417 0
M  V30 15235 C 1585.77 -0.226171 -2.0083 0
M  V30 15236 C 1586.09 1.17833 -1.55371 0
M  V30 15237 O 1585.36 1.79512 -0.784362 0
M  V30 15238 H 1583.94 -0.0806271 -0.742636 0
M  V30 15239 H 1586.6 -0.8968 -1.73042 0
M  V30 15240 H 1585.7 -0.243643 -3.11148 0
M  V30 15241 N 1586 1.51322 -0.440383 0
M  V30 15242 C 1586.93 2.24398 0.414827 0
M  V30 15243 C 1587.91 1.26454 1.02216 0
M  V30 15244 O 1589.1 1.55597 1.06404 0
M  V30 15245 C 1586.22 2.99671 1.57844 0
M  V30 15246 C 1585.27 4.12297 1.0915 0
M  V30 15247 S 1586.1 5.35491 0.0310506 0
M  V30 15248 C 1587.26 6.14303 1.19926 0
M  V30 15249 H 1587.49 2.96588 -0.205572 0
M  V30 15250 H 1585.02 1.52753 -0.224932 0
M  V30 15251 H 1586.98 3.43638 2.24551 0
M  V30 15252 H 1585.64 2.27065 2.17027 0
M  V30 15253 H 1584.84 4.64254 1.96173 0
M  V30 15254 H 1584.44 3.70607 0.502621 0
M  V30 15255 H 1586.73 6.43575 2.11703 0
M  V30 15256 H 1587.67 7.04434 0.719591 0
M  V30 15257 H 1588.08 5.45845 1.43921 0
M  V30 15258 N 1587.48 0.171848 1.5666 0
M  V30 15259 C 1588.41 -0.796928 2.13832 0
M  V30 15260 C 1589.39 -1.22559 1.06855 0
M  V30 15261 O 1590.57 -1.31727 1.34834 0
M  V30 15262 C 1587.7 -2.07326 2.67831 0
M  V30 15263 C 1586.75 -1.78858 3.87185 0
M  V30 15264 S 1587.58 -0.957345 5.26873 0
M  V30 15265 C 1588.74 -2.24433 5.84278 0
M  V30 15266 H 1588.97 -0.310829 2.95671 0
M  V30 15267 H 1586.5 -0.0428284 1.54341 0
M  V30 15268 H 1588.46 -2.80635 2.9959 0
M  V30 15269 H 1587.12 -2.53049 1.86078 0
M  V30 15270 H 1586.31 -2.7356 4.23297 0
M  V30 15271 H 1585.92 -1.13644 3.56316 0
M  V30 15272 H 1588.21 -3.1989 5.97224 0
M  V30 15273 H 1589.15 -1.92788 6.8135 0
M  V30 15274 H 1589.56 -2.36217 5.127 0
M  V30 15275 N 1588.96 -1.5727 -0.101874 0
M  V30 15276 C 1589.89 -1.98253 -1.15014 0
M  V30 15277 C 1590.9 -0.884147 -1.36699 0
M  V30 15278 O 1592.09 -1.16232 -1.35471 0
M  V30 15279 C 1589.19 -2.28043 -2.50698 0
M  V30 15280 C 1588.36 -3.59343 -2.49383 0
M  V30 15281 C 1587.42 -3.77147 -3.66943 0
M  V30 15282 O 1586.45 -4.49075 -3.49744 0
M  V30 15283 N 1587.65 -3.1721 -4.86167 0
M  V30 15284 H 1590.42 -2.88787 -0.801375 0
M  V30 15285 H 1587.98 -1.59264 -0.290941 0
M  V30 15286 H 1589.97 -2.37153 -3.27934 0
M  V30 15287 H 1588.54 -1.4355 -2.77691 0
M  V30 15288 H 1587.76 -3.61264 -1.57741 0
M  V30 15289 H 1589.05 -4.45612 -2.45576 0
M  V30 15290 H 1588.45 -2.58772 -5.03044 0
M  V30 15291 H 1587 -3.31816 -5.61018 0
M  V30 15292 N 1590.44 0.372521 -1.53134 0
M  V30 15293 C 1591.35 1.47994 -1.8203 0
M  V30 15294 C 1592.36 1.58937 -0.708179 0
M  V30 15295 O 1593.54 1.74962 -0.997511 0
M  V30 15296 C 1590.6 2.83342 -1.99796 0
M  V30 15297 C 1589.66 2.81984 -3.23702 0
M  V30 15298 C 1588.9 4.10877 -3.40611 0
M  V30 15299 O 1589.12 5.06686 -2.61964 0
M  V30 15300 O 1588.05 4.17111 -4.33938 0
M  V30 15301 H 1591.88 1.26501 -2.761 0
M  V30 15302 H 1589.46 0.561957 -1.38428 0
M  V30 15303 H 1591.35 3.63551 -2.13092 0
M  V30 15304 H 1590.02 3.04826 -1.08916 0
M  V30 15305 H 1588.93 2.00498 -3.15834 0
M  V30 15306 H 1590.26 2.65453 -4.14482 0
M  V30 15307 N 1591.91 1.44376 0.631925 0
M  V30 15308 C 1592.84 1.54005 1.75512 0
M  V30 15309 C 1593.82 0.393126 1.65495 0
M  V30 15310 O 1595.01 0.613143 1.84267 0
M  V30 15311 C 1592.14 1.48313 3.14039 0
M  V30 15312 C 1591.09 2.61474 3.38844 0
M  V30 15313 C 1590.42 2.40834 4.77392 0
M  V30 15314 C 1591.72 4.03627 3.31485 0
M  V30 15315 H 1593.41 2.48019 1.6771 0
M  V30 15316 H 1590.96 1.19368 0.80543 0
M  V30 15317 H 1592.91 1.5365 3.9239 0
M  V30 15318 H 1591.64 0.508152 3.22623 0
M  V30 15319 H 1590.3 2.55525 2.62874 0
M  V30 15320 H 1589.94 1.4153 4.82678 0
M  V30 15321 H 1589.64 3.16703 4.94947 0
M  V30 15322 H 1591.17 2.47988 5.57974 0
M  V30 15323 H 1592.58 4.1095 3.99741 0
M  V30 15324 H 1590.98 4.79694 3.60574 0
M  V30 15325 H 1592.05 4.27255 2.29307 0
M  V30 15326 N 1593.39 -0.872258 1.31261 0
M  V30 15327 C 1594.32 -1.9853 1.14537 0
M  V30 15328 C 1595.34 -1.62578 0.0850723 0
M  V30 15329 O 1596.53 -1.75379 0.332343 0
M  V30 15330 C 1593.63 -3.31005 0.72727 0
M  V30 15331 C 1592.8 -3.95313 1.87208 0
M  V30 15332 C 1591.86 -5.06101 1.44042 0
M  V30 15333 O 1590.88 -5.27045 2.1497 0
M  V30 15334 N 1592.09 -5.79581 0.32653 0
M  V30 15335 H 1594.85 -2.13423 2.10406 0
M  V30 15336 H 1592.41 -1.0461 1.23565 0
M  V30 15337 H 1594.4 -4.02502 0.421255 0
M  V30 15338 H 1592.97 -3.12287 -0.13975 0
M  V30 15339 H 1592.19 -3.16825 2.34553 0
M  V30 15340 H 1593.48 -4.35015 2.63893 0
M  V30 15341 H 1592.88 -5.65083 -0.264202 0
M  V30 15342 H 1591.44 -6.51751 0.0800358 0
M  V30 15343 N 1594.87 -1.14184 -1.08627 0
M  V30 15344 C 1595.83 -0.82954 -2.13662 0
M  V30 15345 C 1596.83 0.164794 -1.59953 0
M  V30 15346 O 1598.02 -0.0632831 -1.74085 0
M  V30 15347 C 1595.15 -0.236176 -3.40081 0
M  V30 15348 H 1596.35 -1.76038 -2.42797 0
M  V30 15349 H 1593.9 -0.947568 -1.24301 0
M  V30 15350 H 1594.64 0.70349 -3.16578 0
M  V30 15351 H 1594.42 -0.952341 -3.80359 0
M  V30 15352 H 1595.91 -0.03481 -4.17585 0
M  V30 15353 N 1596.35 1.26749 -0.936613 0
M  V30 15354 C 1597.76 1.46284 -0.638218 0
M  V30 15355 C 1597.96 1.84509 0.80986 0
M  V30 15356 O 1597.02 1.96399 1.58693 0
M  V30 15357 C 1598.33 2.54867 -1.59573 0
M  V30 15358 C 1599.88 2.68721 -1.60493 0
M  V30 15359 C 1600.36 3.80471 -2.54963 0
M  V30 15360 N 1601.85 3.87857 -2.53221 0
M  V30 15361 C 1602.58 4.73767 -3.23005 0
M  V30 15362 N 1602.08 5.641 -4.02198 0
M  V30 15363 N 1603.87 4.67574 -3.11979 0
M  V30 15364 H 1596.02 1.00224 -1.87267 0
M  V30 15365 H 1598.29 0.501478 -0.804502 0
M  V30 15366 H 1597.99 2.33594 -2.62919 0
M  V30 15367 H 1597.87 3.52433 -1.34427 0
M  V30 15368 H 1600.25 2.8937 -0.578729 0
M  V30 15369 H 1600.33 1.71613 -1.89691 0
M  V30 15370 H 1599.98 3.60575 -3.57698 0
M  V30 15371 H 1599.91 4.77026 -2.23056 0
M  V30 15372 H 1602.4 3.23272 -1.95714 0
M  V30 15373 H 1602.71 6.26535 -4.52409 0
M  V30 15374 H 1601.06 5.63866 -4.063 0
M  V30 15375 H 1604.25 3.96004 -2.49596 0
M  V30 15376 H 1604.42 5.34308 -3.66633 0
M  V30 15377 N 1597.83 0.703118 1.41046 0
M  V30 15378 C 1598.76 0.0570815 2.3343 0
M  V30 15379 C 1599.74 -0.759042 1.52225 0
M  V30 15380 O 1600.92 -0.710491 1.80736 0
M  V30 15381 C 1598.05 -0.874541 3.36109 0
M  V30 15382 C 1597.01 -0.16496 4.27682 0
M  V30 15383 C 1596.33 -1.21145 5.20795 0
M  V30 15384 C 1597.63 0.97332 5.13151 0
M  V30 15385 H 1599.33 0.828699 2.87703 0
M  V30 15386 H 1596.87 0.399956 1.38334 0
M  V30 15387 H 1598.83 -1.33579 3.99668 0
M  V30 15388 H 1597.55 -1.67791 2.80203 0
M  V30 15389 H 1596.21 0.276332 3.65557 0
M  V30 15390 H 1595.86 -2.00755 4.61201 0
M  V30 15391 H 1595.56 -0.741633 5.82901 0
M  V30 15392 H 1597.08 -1.67305 5.87232 0
M  V30 15393 H 1598.49 0.592013 5.70235 0
M  V30 15394 H 1596.89 1.37071 5.84236 0
M  V30 15395 H 1597.96 1.80961 4.49868 0
M  V30 15396 N 1599.3 -1.51086 0.448402 0
M  V30 15397 C 1600.55 -2.01778 -0.114116 0
M  V30 15398 C 1600.87 -1.3339 -1.4224 0
M  V30 15399 O 1600.14 -0.471938 -1.9013 0
M  V30 15400 H 1598.72 -0.745634 -0.0451624 0
M  V30 15401 H 1601.39 -1.85639 0.59364 0
M  V30 15402 H 1600.48 -3.10823 -0.28205 0
M  V30 15403 N 1600.78 -0.180154 -1.56567 0
M  V30 15404 C 1602.2 0.175902 -1.58628 0
M  V30 15405 C 1602.4 1.62179 -1.19583 0
M  V30 15406 O 1601.45 2.35471 -0.911566 0
M  V30 15407 C 1602.77 -0.11292 -3.00488 0
M  V30 15408 C 1604.32 -0.051834 -3.12957 0
M  V30 15409 C 1604.79 -0.313764 -4.56924 0
M  V30 15410 N 1606.28 -0.261852 -4.62459 0
M  V30 15411 C 1607.02 -0.438573 -5.7172 0
M  V30 15412 N 1606.51 -0.674832 -6.89506 0
M  V30 15413 N 1608.31 -0.373864 -5.60855 0
M  V30 15414 H 1600.46 -1.12385 -1.80232 0
M  V30 15415 H 1602.72 -0.447459 -0.835754 0
M  V30 15416 H 1602.43 -1.11488 -3.33562 0
M  V30 15417 H 1602.3 0.591409 -3.72535 0
M  V30 15418 H 1604.69 0.940711 -2.79705 0
M  V30 15419 H 1604.77 -0.78901 -2.43327 0
M  V30 15420 H 1604.41 -1.30356 -4.90887 0
M  V30 15421 H 1604.34 0.444127 -5.24724 0
M  V30 15422 H 1606.83 -0.0852513 -3.77804 0
M  V30 15423 H 1607.15 -0.798891 -7.6866 0
M  V30 15424 H 1605.49 -0.711551 -6.91348 0
M  V30 15425 H 1608.68 -0.189815 -4.67715 0
M  V30 15426 H 1608.85 -0.515012 -6.4595 0
M  V30 15427 N 1602.26 1.57322 0.0935319 0
M  V30 15428 C 1603.67 1.75099 0.64787 0
M  V30 15429 C 1604.02 0.802558 1.79035 0
M  V30 15430 O 1603.15 -0.0185803 2.16392 0
M  V30 15431 C 1603.74 3.17512 1.18203 0
M  V30 15432 C 1602.3 3.36707 1.68242 0
M  V30 15433 C 1601.45 2.70893 0.592649 0
M  V30 15434 H 1604.4 1.58146 -0.132546 0
M  V30 15435 H 1604.42 3.2047 2.05132 0
M  V30 15436 H 1603.93 3.86516 0.350297 0
M  V30 15437 H 1602.03 2.72784 2.5381 0
M  V30 15438 H 1602.15 4.45033 1.77433 0
M  V30 15439 H 1600.51 2.32835 1.03248 0
M  V30 15440 H 1601.29 3.42539 -0.228529 0
M  V30 15441 N 1603.74 -0.364395 1.53329 0
M  V30 15442 C 1604.69 -1.44645 1.79851 0
M  V30 15443 C 1605.66 -1.53151 0.642951 0
M  V30 15444 O 1606.84 -1.6902 0.885252 0
M  V30 15445 C 1603.98 -2.81575 1.99523 0
M  V30 15446 C 1603.09 -2.82026 3.27239 0
M  V30 15447 C 1602.23 -4.1054 3.37091 0
M  V30 15448 C 1601.27 -4.05138 4.58835 0
M  V30 15449 N 1600.4 -5.25303 4.65834 0
M  V30 15450 H 1605.24 -1.21329 2.72182 0
M  V30 15451 H 1602.78 -0.588143 1.34831 0
M  V30 15452 H 1604.74 -3.61124 2.08915 0
M  V30 15453 H 1603.37 -3.03288 1.10527 0
M  V30 15454 H 1602.42 -1.94704 3.26794 0
M  V30 15455 H 1603.73 -2.73907 4.16865 0
M  V30 15456 H 1602.89 -4.98504 3.45801 0
M  V30 15457 H 1601.63 -4.21413 2.45483 0
M  V30 15458 H 1600.63 -3.1556 4.50224 0
M  V30 15459 H 1601.86 -3.95866 5.51785 0
M  V30 15460 H 1599.8 -5.36759 3.77128 0
M  V30 15461 H 1599.72 -5.19358 5.49367 0
M  V30 15462 H 1600.99 -6.15096 4.78829 0
M  V30 15463 N 1605.22 -1.44709 -0.62426 0
M  V30 15464 C 1606.63 -1.42523 -1.20599 0
M  V30 15465 C 1606.98 -0.144129 -1.9567 0
M  V30 15466 O 1606.1 0.755175 -2.02796 0
M  V30 15467 C 1606.7 -2.58194 -2.19365 0
M  V30 15468 C 1605.26 -2.59181 -2.72951 0
M  V30 15469 C 1604.4 -2.34461 -1.48065 0
M  V30 15470 H 1607.36 -1.5319 -0.414532 0
M  V30 15471 H 1607.38 -2.3134 -3.02096 0
M  V30 15472 H 1606.89 -3.5142 -1.64699 0
M  V30 15473 H 1604.99 -1.69916 -3.31601 0
M  V30 15474 H 1605.1 -3.57884 -3.18521 0
M  V30 15475 H 1603.47 -1.83688 -1.76439 0
M  V30 15476 H 1604.25 -3.2981 -0.952918 0
M  V30 15477 N 1606.69 0.865285 -1.31722 0
M  V30 15478 C 1607.63 1.97919 -1.15588 0
M  V30 15479 C 1608.64 1.6253 -0.0936929 0
M  V30 15480 O 1609.83 1.752 -0.341639 0
M  V30 15481 C 1606.93 3.30614 -0.744814 0
M  V30 15482 C 1606.1 3.94314 -1.89301 0
M  V30 15483 C 1605.16 5.0533 -1.46724 0
M  V30 15484 O 1604.19 5.25898 -2.17762 0
M  V30 15485 N 1605.39 5.794 -0.357262 0
M  V30 15486 H 1608.15 2.12304 -2.11535 0
M  V30 15487 H 1605.71 1.03953 -1.24118 0
M  V30 15488 H 1607.71 4.02273 -0.442594 0
M  V30 15489 H 1606.28 3.12357 0.123186 0
M  V30 15490 H 1605.5 3.15577 -2.3623 0
M  V30 15491 H 1606.78 4.33609 -2.66196 0
M  V30 15492 H 1606.18 5.65215 0.23423 0
M  V30 15493 H 1604.74 6.51699 -0.114599 0
M  V30 15494 O 1608.21 1.26646 1.00215 0
M  V30 15495 H 1608.9 1.05727 1.623 0
M  V30 END ATOM
M  V30 BEGIN BOND
M  V30 END BOND
M  V30 END CTAB
M  END
$$$$
