drugbank_target|Q12797 Aspartyl/asparaginyl beta-hydroxylase (DB00128)
 OpenBabel12092119333D

  0  0  0     0  0            999 V3000
M  V30 BEGIN CTAB
M  V30 COUNTS 11868 12002 0 0 0
M  V30 BEGIN ATOM
M  V30 1 H -0.908 1.98254 -0.117106 0
M  V30 2 N 0 1.576 0 0
M  V30 3 C 0.933 2.03868 1.02534 0
M  V30 4 C 1.911 0.928543 1.3348 0
M  V30 5 O 3.095 1.19667 1.45644 0
M  V30 6 C 0.222 2.43627 2.35294 0
M  V30 7 C -0.732 3.65373 2.2001 0
M  V30 8 S 0.101 5.13292 1.52614 0
M  V30 9 C 1.257 5.56322 2.86805 0
M  V30 10 H 1.49 2.90518 0.631377 0
M  V30 11 H -0.977 1.52953 0.210867 0
M  V30 12 H 0.981 2.67203 3.11629 0
M  V30 13 H -0.358 1.57376 2.7183 0
M  V30 14 H -1.165 3.90944 3.18086 0
M  V30 15 H -1.563 3.418 1.51819 0
M  V30 16 H 0.729 5.58782 3.83104 0
M  V30 17 H 1.672 6.56266 2.65933 0
M  V30 18 H 2.08 4.83886 2.90714 0
M  V30 19 N 1.4781 -0.272755 1.55222 0
M  V30 20 C 2.4411 -1.32041 1.87344 0
M  V30 21 C 3.4411 -1.42342 0.74803 0
M  V30 22 O 4.6311 -1.41488 1.0162 0
M  V30 23 C 1.7631 -2.70173 2.07893 0
M  V30 24 H 2.9561 -1.04789 2.80997 0
M  V30 25 H 0.5091 -0.51083 1.47717 0
M  V30 26 H 1.2441 -3.02605 1.16622 0
M  V30 27 H 1.0291 -2.64082 2.89833 0
M  V30 28 H 2.5191 -3.45869 2.34017 0
M  V30 29 N 2.9562 -1.48159 -0.537278 0
M  V30 30 C 3.8882 -1.58218 -1.65831 0
M  V30 31 C 4.9012 -0.466948 -1.5596 0
M  V30 32 O 6.0902 -0.73747 -1.62553 0
M  V30 33 C 3.1902 -1.48906 -3.04434 0
M  V30 34 C 2.3632 -2.75343 -3.3986 0
M  V30 35 C 1.4222 -2.59588 -4.57712 0
M  V30 36 O 0.4482 -3.33457 -4.61297 0
M  V30 37 N 1.6502 -1.68724 -5.55439 0
M  V30 38 H 4.4152 -2.54891 -1.57641 0
M  V30 39 H 1.9762 -1.4479 -0.724386 0
M  V30 40 H 3.9682 -1.36072 -3.81139 0
M  V30 41 H 2.5382 -0.602368 -3.06741 0
M  V30 42 H 1.7582 -3.02795 -2.52406 0
M  V30 43 H 3.0462 -3.5924 -3.60311 0
M  V30 44 H 2.4442 -1.07898 -5.55315 0
M  V30 45 H 1.0012 -1.61832 -6.3139 0
M  V30 46 N 4.4343 0.785586 -1.36625 0
M  V30 47 C 5.8503 1.08419 -1.17122 0
M  V30 48 C 6.0503 2.015 0.00208491 0
M  V30 49 O 5.1063 2.43551 0.666278 0
M  V30 50 C 6.4193 1.69498 -2.48377 0
M  V30 51 C 7.9673 1.81821 -2.54775 0
M  V30 52 C 8.4423 2.46315 -3.86126 0
M  V30 53 N 9.9333 2.53779 -3.87492 0
M  V30 54 C 10.6683 3.045 -4.85868 0
M  V30 55 N 10.1643 3.55499 -5.94637 0
M  V30 56 N 11.9573 3.03247 -4.73284 0
M  V30 57 H 4.1083 0.167264 -2.1174 0
M  V30 58 H 6.3713 0.13682 -0.938075 0
M  V30 59 H 6.0773 1.08571 -3.34522 0
M  V30 60 H 5.9513 2.6896 -2.64462 0
M  V30 61 H 8.3383 2.41884 -1.69045 0
M  V30 62 H 8.4193 0.811532 -2.42586 0
M  V30 63 H 8.0633 1.86895 -4.72263 0
M  V30 64 H 7.9933 3.47561 -3.95612 0
M  V30 65 H 10.4843 2.17672 -3.08913 0
M  V30 66 H 10.7973 3.92562 -6.65669 0
M  V30 67 H 9.1423 3.5364 -5.98301 0
M  V30 68 H 12.3333 2.62696 -3.87438 0
M  V30 69 H 12.5063 3.42467 -5.50109 0
M  V30 70 N 5.9124 1.20967 1.01018 0
M  V30 71 C 6.8594 0.964281 2.09691 0
M  V30 72 C 7.8294 -0.107853 1.65749 0
M  V30 73 O 9.0144 0.0381987 1.90762 0
M  V30 74 C 6.1544 0.52943 3.41015 0
M  V30 75 C 5.2674 1.67043 3.98398 0
M  V30 76 C 4.4024 1.18525 5.17808 0
M  V30 77 C 3.4414 2.29892 5.67288 0
M  V30 78 N 2.5784 1.82546 6.77954 0
M  V30 79 H 7.4184 1.89463 2.30017 0
M  V30 80 H 4.9554 0.944289 1.1279 0
M  V30 81 H 6.9134 0.258588 4.16398 0
M  V30 82 H 5.5434 -0.363919 3.20742 0
M  V30 83 H 4.5954 2.05603 3.20049 0
M  V30 84 H 5.9074 2.50877 4.31117 0
M  V30 85 H 5.0614 0.870762 6.00419 0
M  V30 86 H 3.8004 0.316887 4.86669 0
M  V30 87 H 2.8054 2.6215 4.83278 0
M  V30 88 H 4.0304 3.17216 6.00459 0
M  V30 89 H 1.9764 0.980454 6.48632 0
M  V30 90 H 1.8934 2.59956 7.09901 0
M  V30 91 H 3.1614 1.54115 7.64113 0
M  V30 92 N 7.3905 -1.2043 1.01659 0
M  V30 93 C 8.3385 -2.25249 0.580143 0
M  V30 94 C 9.3325 -1.65057 -0.381115 0
M  V30 95 O 10.5385 -1.78241 -0.251039 0
M  V30 96 H 6.9135 -0.732695 0.169299 0
M  V30 97 H 8.8845 -2.59389 1.47512 0
M  V30 98 C 7.6335 -3.47638 -0.065788 0
M  V30 99 H 6.9565 -3.94233 0.664874 0
M  V30 100 H 8.3965 -4.2268 -0.334282 0
M  V30 101 C 6.8555 -3.10447 -1.3086 0
M  V30 102 O 7.3855 -3.21981 -2.4019 0
M  V30 103 N 5.5915 -2.64996 -1.1927 0
M  V30 104 H 5.1385 -2.55811 -0.303064 0
M  V30 105 H 5.0965 -2.40482 -2.02523 0
M  V30 106 N 8.8686 -0.792821 -1.36206 0
M  V30 107 C 9.8316 -0.199459 -2.2833 0
M  V30 108 C 10.8316 0.605189 -1.48977 0
M  V30 109 O 12.0216 0.425685 -1.68919 0
M  V30 110 C 9.1536 0.723523 -3.33134 0
M  V30 111 H 10.3466 -1.01181 -2.82316 0
M  V30 112 H 7.8996 -0.562485 -1.45828 0
M  V30 113 H 8.6346 1.56008 -2.84309 0
M  V30 114 H 8.4196 0.148436 -3.91819 0
M  V30 115 H 9.9096 1.13344 -4.01924 0
M  V30 116 N 10.3467 1.47872 -0.545128 0
M  V30 117 C 11.2937 2.29849 0.2093 0
M  V30 118 C 12.2637 1.38313 0.919707 0
M  V30 119 O 13.4487 1.67277 0.917772 0
M  V30 120 C 10.5887 3.22019 1.24088 0
M  V30 121 C 9.7017 4.2864 0.537778 0
M  V30 122 C 8.8367 5.07973 1.5536 0
M  V30 123 C 7.8757 6.06381 0.8348 0
M  V30 124 N 7.0127 6.78717 1.79688 0
M  V30 125 H 11.8527 2.93845 -0.49591 0
M  V30 126 H 9.3897 1.44848 -0.256389 0
M  V30 127 H 11.3477 3.73868 1.85144 0
M  V30 128 H 9.9777 2.59914 1.91428 0
M  V30 129 H 9.0297 3.7994 -0.187046 0
M  V30 130 H 10.3417 4.98793 -0.0258907 0
M  V30 131 H 9.4957 5.63912 2.23803 0
M  V30 132 H 8.2347 4.37693 2.15118 0
M  V30 133 H 7.2397 5.49631 0.136388 0
M  V30 134 H 8.4647 6.78665 0.24313 0
M  V30 135 H 6.4107 6.11177 2.38326 0
M  V30 136 H 6.3277 7.44998 1.28505 0
M  V30 137 H 7.5957 7.39237 2.47282 0
M  V30 138 N 11.8248 0.280983 1.55075 0
M  V30 139 C 13.0498 -0.340154 2.04592 0
M  V30 140 C 13.4748 -1.48246 1.15779 0
M  V30 141 O 12.8328 -1.80614 0.15761 0
M  V30 142 C 12.8808 -0.793104 3.5177 0
M  V30 143 O 11.9848 -1.89981 3.66034 0
M  V30 144 H 11.3258 -0.0694289 0.66036 0
M  V30 145 H 13.8558 0.416993 2.00306 0
M  V30 146 H 13.8658 -1.08729 3.93245 0
M  V30 147 H 12.5408 0.0426163 4.15878 0
M  V30 148 H 11.1178 -1.60771 3.36463 0
M  V30 149 N 13.3029 -1.57598 0.00835791 0
M  V30 150 C 14.5279 -1.95617 -0.689103 0
M  V30 151 C 14.9529 -0.883753 -1.66046 0
M  V30 152 O 14.3109 0.157352 -1.80616 0
M  V30 153 C 14.3589 -3.32736 -1.38994 0
M  V30 154 O 13.4629 -3.27631 -2.50463 0
M  V30 155 H 12.8039 -0.638379 -0.182668 0
M  V30 156 H 15.3339 -2.045 0.064036 0
M  V30 157 H 15.3439 -3.68494 -1.75147 0
M  V30 158 H 14.0189 -4.1034 -0.677778 0
M  V30 159 H 12.5959 -3.03561 -2.16576 0
M  V30 160 N 14.781 0.264519 -1.55364 0
M  V30 161 C 16.029 0.993021 -1.76021 0
M  V30 162 C 16.35 1.86511 -0.569099 0
M  V30 163 O 15.62 1.91438 0.415735 0
M  V30 164 H 14.2 0.369639 -0.649135 0
M  V30 165 H 16.862 0.286707 -1.9278 0
M  V30 166 H 15.958 1.62502 -2.66457 0
M  V30 167 N 16.2591 1.48442 0.529413 0
M  V30 168 C 17.2071 1.63452 1.65487 0
M  V30 169 C 18.2011 0.500955 1.61823 0
M  V30 170 O 19.4071 0.679695 1.66674 0
M  V30 171 H 15.7821 0.514905 0.548066 0
M  V30 172 H 17.7531 2.57975 1.49971 0
M  V30 173 C 16.5021 1.69196 3.03756 0
M  V30 174 H 15.8251 2.55784 3.07269 0
M  V30 175 H 17.2651 1.83743 3.82119 0
M  V30 176 C 15.7241 0.430765 3.34135 0
M  V30 177 O 16.2541 -0.4561 3.99102 0
M  V30 178 N 14.4601 0.302293 2.89023 0
M  V30 179 H 14.0071 1.02496 2.36331 0
M  V30 180 H 13.9651 -0.540546 3.09718 0
M  V30 181 N 17.7372 -0.778329 1.37039 0
M  V30 182 C 18.9622 -1.57248 1.35233 0
M  V30 183 C 19.3872 -1.87999 -0.0615568 0
M  V30 184 O 18.7452 -1.48734 -1.03672 0
M  V30 185 C 18.7932 -2.86353 2.19167 0
M  V30 186 O 17.8972 -3.80442 1.59178 0
M  V30 187 H 17.2382 -0.476569 0.462362 0
M  V30 188 H 19.7682 -0.963853 1.80474 0
M  V30 189 H 19.7782 -3.35519 2.32145 0
M  V30 190 H 18.4532 -2.63299 3.21942 0
M  V30 191 H 17.0302 -3.39067 1.55203 0
M  V30 192 N 19.2153 -1.21501 -1.00376 0
M  V30 193 C 20.4403 -1.05977 -1.78279 0
M  V30 194 C 20.8653 0.385994 -1.84097 0
M  V30 195 O 20.2233 1.27849 -1.28547 0
M  V30 196 C 20.2713 -1.66302 -3.19963 0
M  V30 197 O 19.3753 -0.909333 -4.0225 0
M  V30 198 H 18.7163 -0.372906 -0.549397 0
M  V30 199 H 21.2463 -1.6107 -1.26165 0
M  V30 200 H 21.2563 -1.70574 -3.70632 0
M  V30 201 H 19.9313 -2.71515 -3.15043 0
M  V30 202 H 18.5083 -0.941795 -3.60811 0
M  V30 203 N 20.6934 1.19889 -1.02296 0
M  V30 204 C 21.9184 1.9393 -0.735237 0
M  V30 205 C 22.3434 1.74639 0.698782 0
M  V30 206 O 21.7014 1.04481 1.48167 0
M  V30 207 C 21.7494 3.43916 -1.08417 0
M  V30 208 O 20.8534 4.11917 -0.199446 0
M  V30 209 H 20.1944 0.605645 -0.272196 0
M  V30 210 H 22.7244 1.52137 -1.36804 0
M  V30 211 H 22.7344 3.9456 -1.03856 0
M  V30 212 H 21.4094 3.5728 -2.12894 0
M  V30 213 H 19.9864 3.71666 -0.303136 0
M  V30 214 N 22.1715 0.800033 1.35784 0
M  V30 215 C 23.3965 0.388511 2.03729 0
M  V30 216 C 23.8215 -0.990481 1.5991 0
M  V30 217 O 23.1795 -1.64013 0.772612 0
M  V30 218 C 23.2275 0.4726 3.5749 0
M  V30 219 O 22.3315 -0.51646 4.09153 0
M  V30 220 H 21.6725 0.163271 0.643614 0
M  V30 221 H 24.2025 1.0841 1.73518 0
M  V30 222 H 24.2125 0.34003 4.06581 0
M  V30 223 H 22.8875 1.47848 3.88734 0
M  V30 224 H 21.4645 -0.344673 3.71304 0
M  V30 225 N 23.6496 -1.47581 0.552962 0
M  V30 226 C 24.8976 -2.02082 0.0272703 0
M  V30 227 C 25.2186 -1.4301 -1.32563 0
M  V30 228 O 24.4886 -0.603745 -1.86365 0
M  V30 229 H 23.0686 -0.746966 0.00709182 0
M  V30 230 H 25.7306 -1.81033 0.722008 0
M  V30 231 H 24.8266 -3.12034 -0.0639951 0
M  V30 232 N 25.1277 -0.289203 -1.54924 0
M  V30 233 C 26.3527 0.329299 -2.04769 0
M  V30 234 C 26.7777 1.4763 -1.16564 0
M  V30 235 O 26.1357 1.80527 -0.167186 0
M  V30 236 C 26.1837 0.774438 -3.52186 0
M  V30 237 O 25.2877 1.88038 -3.67036 0
M  V30 238 H 24.6287 0.0659259 -0.660719 0
M  V30 239 H 27.1587 -0.42761 -2.00082 0
M  V30 240 H 27.1687 1.06642 -3.93816 0
M  V30 241 H 25.8437 -0.0646707 -4.1585 0
M  V30 242 H 24.4207 1.58985 -3.3731 0
M  V30 243 N 26.6058 1.57591 -0.0167156 0
M  V30 244 C 27.8538 1.90906 0.663285 0
M  V30 245 C 28.1748 0.892509 1.73376 0
M  V30 246 O 27.4448 -0.0677623 1.95783 0
M  V30 247 H 26.0248 0.704637 0.247983 0
M  V30 248 H 28.6868 1.94803 -0.0615909 0
M  V30 249 H 27.7828 2.9116 1.12393 0
M  V30 250 N 28.0839 -0.256276 1.55502 0
M  V30 251 C 29.3089 -1.00766 1.81276 0
M  V30 252 C 29.7339 -1.78524 0.59252 0
M  V30 253 O 29.0919 -1.75413 -0.45827 0
M  V30 254 C 29.1399 -1.92869 3.04687 0
M  V30 255 O 28.2439 -3.019 2.80945 0
M  V30 256 H 27.5849 -0.287224 0.598664 0
M  V30 257 H 30.1149 -0.280109 2.02674 0
M  V30 258 H 30.1249 -2.34511 3.33869 0
M  V30 259 H 28.7999 -1.35689 3.93143 0
M  V30 260 H 27.3769 -2.64454 2.62904 0
M  V30 261 N 29.562 -1.4872 -0.521534 0
M  V30 262 C 30.81 -1.56857 -1.27437 0
M  V30 263 C 31.131 -0.247982 -1.93417 0
M  V30 264 O 30.401 0.731151 -1.81744 0
M  V30 265 H 28.981 -0.577885 -0.473347 0
M  V30 266 H 31.643 -1.85233 -0.606205 0
M  V30 267 H 30.739 -2.35402 -2.0492 0
M  V30 268 N 31.0401 0.771051 -1.3745 0
M  V30 269 C 32.2651 1.56529 -1.36065 0
M  V30 270 C 32.6901 1.88029 0.0515859 0
M  V30 271 O 32.0481 1.49282 1.02882 0
M  V30 272 C 32.0961 2.85187 -2.20683 0
M  V30 273 O 31.2001 3.79593 -1.61193 0
M  V30 274 H 30.5411 0.47411 -0.464883 0
M  V30 275 H 33.0711 0.954269 -1.80983 0
M  V30 276 H 33.0811 3.34283 -2.33921 0
M  V30 277 H 31.7561 2.61588 -3.23334 0
M  V30 278 H 30.3331 3.38239 -1.56999 0
M  V30 279 N 32.5182 1.22032 0.997298 0
M  V30 280 C 33.7462 1.06841 1.7718 0
M  V30 281 C 34.1612 -0.381325 1.84909 0
M  V30 282 O 33.5182 -1.26437 1.31605 0
M  V30 283 C 33.5692 1.66814 3.20711 0
M  V30 284 O 33.2902 3.06116 3.13408 0
M  V30 285 C 34.7912 1.56838 4.14628 0
M  V30 286 H 32.0112 0.374782 0.556578 0
M  V30 287 H 34.5552 1.61532 1.2541 0
M  V30 288 H 32.7102 1.16196 3.69564 0
M  V30 289 H 33.1242 3.34926 4.0364 0
M  V30 290 H 34.5982 2.03532 5.13107 0
M  V30 291 H 35.0752 0.524155 4.36061 0
M  V30 292 H 35.6812 2.06741 3.7167 0
M  V30 293 N 33.9963 -1.19345 1.0293 0
M  V30 294 C 35.2213 -1.93538 0.745511 0
M  V30 295 C 35.6463 -1.75007 -0.689511 0
M  V30 296 O 35.0043 -1.05265 -1.47611 0
M  V30 297 C 35.0523 -3.43336 1.10239 0
M  V30 298 O 34.1563 -4.11806 0.221289 0
M  V30 299 H 33.4973 -0.604193 0.275404 0
M  V30 300 H 36.0273 -1.5141 1.37609 0
M  V30 301 H 36.0373 -3.94004 1.05947 0
M  V30 302 H 34.7123 -3.56146 2.14786 0
M  V30 303 H 33.2893 -3.715 0.322842 0
M  V30 304 N 35.4744 -0.807222 -1.35358 0
M  V30 305 C 36.4374 -0.223665 -2.28106 0
M  V30 306 C 37.4374 0.589354 -1.4961 0
M  V30 307 O 38.6274 0.407745 -1.69361 0
M  V30 308 C 35.7594 0.688149 -3.33882 0
M  V30 309 H 36.9524 -1.04169 -2.81227 0
M  V30 310 H 34.5054 -0.577921 -1.45223 0
M  V30 311 H 35.2404 1.52984 -2.85948 0
M  V30 312 H 35.0254 0.10687 -3.91954 0
M  V30 313 H 36.5154 1.09075 -4.03104 0
M  V30 314 N 36.9525 1.47285 -0.560781 0
M  V30 315 C 38.2005 2.02064 -0.0379868 0
M  V30 316 C 38.5215 1.43711 1.31803 0
M  V30 317 O 37.7915 0.61362 1.86042 0
M  V30 318 H 36.3715 0.746918 -0.0110531 0
M  V30 319 H 39.0335 1.80648 -0.731598 0
M  V30 320 H 38.1295 3.12064 0.0474463 0
M  V30 321 N 38.4306 0.297415 1.54768 0
M  V30 322 C 39.6556 -0.318435 2.04941 0
M  V30 323 C 40.0806 -1.4701 1.17345 0
M  V30 324 O 39.4386 -1.80436 0.176758 0
M  V30 325 C 39.4866 -0.755749 3.52592 0
M  V30 326 O 38.5906 -1.86088 3.68028 0
M  V30 327 H 37.9316 -0.062421 0.661059 0
M  V30 328 H 40.4616 0.438215 1.99852 0
M  V30 329 H 40.4716 -1.04552 3.94376 0
M  V30 330 H 39.1466 0.0867233 4.1581 0
M  V30 331 H 37.7236 -1.57193 3.38149 0
M  V30 332 N 39.9087 -1.5758 0.0250728 0
M  V30 333 C 41.1337 -1.96337 -0.668317 0
M  V30 334 C 41.5587 -0.901314 -1.651 0
M  V30 335 O 40.9167 0.138187 -1.80773 0
M  V30 336 C 40.9647 -3.34191 -1.35457 0
M  V30 337 O 40.0687 -3.30269 -2.46974 0
M  V30 338 H 39.4097 -0.640281 -0.175887 0
M  V30 339 H 41.9397 -2.0442 0.0857224 0
M  V30 340 H 41.9497 -3.70331 -1.71228 0
M  V30 341 H 40.6247 -4.11036 -0.634218 0
M  V30 342 H 39.2017 -3.05841 -2.13344 0
M  V30 343 N 41.3868 0.248026 -1.55636 0
M  V30 344 C 42.6118 0.998028 -1.81808 0
M  V30 345 C 43.0368 1.78207 -0.601979 0
M  V30 346 O 42.3948 1.75653 0.448961 0
M  V30 347 C 42.4428 1.9125 -3.05705 0
M  V30 348 O 41.5468 3.00406 -2.82542 0
M  V30 349 H 40.8878 0.284045 -0.600179 0
M  V30 350 H 43.4178 0.269357 -2.02819 0
M  V30 351 H 43.4278 2.32737 -3.35108 0
M  V30 352 H 42.1028 1.33602 -3.93857 0
M  V30 353 H 40.6798 2.63056 -2.64303 0
M  V30 354 N 42.8649 1.48995 0.513639 0
M  V30 355 C 44.2759 1.5119 1.09537 0
M  V30 356 C 44.6269 0.290906 1.94031 0
M  V30 357 O 43.7519 -0.60049 2.07902 0
M  V30 358 C 44.3469 2.73964 1.99322 0
M  V30 359 C 42.9059 2.78978 2.52682 0
M  V30 360 C 42.0529 2.44934 1.30009 0
M  V30 361 H 45.0039 1.55875 0.298125 0
M  V30 362 H 45.0249 2.53409 2.83838 0
M  V30 363 H 44.5369 3.62813 1.37799 0
M  V30 364 H 42.6379 1.94378 3.1788 0
M  V30 365 H 42.7509 3.8083 2.90698 0
M  V30 366 H 41.1149 1.9644 1.62122 0
M  V30 367 H 41.8979 3.36043 0.702131 0
M  V30 368 N 44.343 -0.763751 1.37857 0
M  V30 369 C 45.591 -1.51957 1.33243 0
M  V30 370 C 45.912 -1.94835 -0.0801709 0
M  V30 371 O 45.182 -1.66894 -1.02582 0
M  V30 372 H 43.762 -0.563626 0.49024 0
M  V30 373 H 46.424 -0.908504 1.7243 0
M  V30 374 H 45.52 -2.41523 1.97669 0
M  V30 375 N 45.8211 -1.22559 -0.990812 0
M  V30 376 C 46.7841 -0.998863 -2.0629 0
M  V30 377 C 47.7841 0.0354834 -1.60761 0
M  V30 378 O 48.9741 -0.203231 -1.7301 0
M  V30 379 C 46.1061 -0.509203 -3.37076 0
M  V30 380 H 47.2991 -1.95014 -2.27837 0
M  V30 381 H 44.8521 -1.04456 -1.16269 0
M  V30 382 H 45.5871 0.446335 -3.21214 0
M  V30 383 H 45.3721 -1.25547 -3.71457 0
M  V30 384 H 46.8621 -0.370888 -4.1595 0
M  V30 385 N 47.2992 1.18797 -1.03562 0
M  V30 386 C 48.7152 1.40671 -0.753917 0
M  V30 387 C 48.9152 1.9043 0.658686 0
M  V30 388 O 47.9712 2.08538 1.42366 0
M  V30 389 C 49.2842 2.41192 -1.79574 0
M  V30 390 C 50.8322 2.54928 -1.81606 0
M  V30 391 C 51.3072 3.58709 -2.84766 0
M  V30 392 N 52.7982 3.66212 -2.83625 0
M  V30 393 C 53.5332 4.46225 -3.60098 0
M  V30 394 N 53.0292 5.29888 -4.46308 0
M  V30 395 N 54.8222 4.40939 -3.4861 0
M  V30 396 H 46.9732 0.848221 -1.94728 0
M  V30 397 H 49.2362 0.435081 -0.842264 0
M  V30 398 H 48.9422 2.11669 -2.80872 0
M  V30 399 H 48.8162 3.40467 -1.62365 0
M  V30 400 H 51.2032 2.83771 -0.809817 0
M  V30 401 H 51.2842 1.55784 -2.02891 0
M  V30 402 H 50.9282 3.30607 -3.85566 0
M  V30 403 H 50.8582 4.57519 -2.60737 0
M  V30 404 H 53.3492 3.06466 -2.21105 0
M  V30 405 H 53.6622 5.88078 -5.01382 0
M  V30 406 H 52.0072 5.29326 -4.50377 0
M  V30 407 H 55.1982 3.74624 -2.80668 0
M  V30 408 H 55.3712 5.03056 -4.08459 0
M  V30 409 N 48.7773 0.814389 1.34928 0
M  V30 410 C 50.1933 0.499084 1.51596 0
M  V30 411 C 50.3933 -0.978319 1.76157 0
M  V30 412 O 49.4493 -1.76309 1.80752 0
M  V30 413 C 50.7623 1.35121 2.68631 0
M  V30 414 C 52.3103 1.34746 2.82511 0
M  V30 415 C 52.7853 2.18388 4.0258 0
M  V30 416 N 54.2763 2.15966 4.09772 0
M  V30 417 C 55.0113 2.77437 5.01813 0
M  V30 418 N 54.5073 3.47866 5.99134 0
M  V30 419 N 56.3003 2.67037 4.94619 0
M  V30 420 H 48.4513 1.7711 1.17243 0
M  V30 421 H 50.7143 0.754256 0.574284 0
M  V30 422 H 50.4203 2.40001 2.57085 0
M  V30 423 H 50.2943 1.00991 3.63429 0
M  V30 424 H 52.6813 0.30648 2.93504 0
M  V30 425 H 52.7623 1.72869 1.88547 0
M  V30 426 H 52.4063 3.2253 3.92347 0
M  V30 427 H 52.3363 1.77621 4.9574 0
M  V30 428 H 54.8273 1.64729 3.40107 0
M  V30 429 H 55.1403 3.92038 6.65977 0
M  V30 430 H 53.4853 3.51972 5.99284 0
M  V30 431 H 56.6763 2.11597 4.17546 0
M  V30 432 H 56.8493 3.15232 5.66156 0
M  V30 433 N 50.2554 -1.46986 0.568584 0
M  V30 434 C 51.1654 -2.33942 -0.17555 0
M  V30 435 C 52.1814 -1.48891 -0.90041 0
M  V30 436 O 53.3574 -1.81794 -0.86676 0
M  V30 437 C 50.4224 -3.25811 -1.18524 0
M  V30 438 C 49.4834 -4.26757 -0.466582 0
M  V30 439 C 48.7164 -5.14236 -1.42817 0
M  V30 440 O 48.9394 -5.04379 -2.66379 0
M  V30 441 O 47.8734 -5.94412 -0.946453 0
M  V30 442 H 51.6994 -2.98896 0.538036 0
M  V30 443 H 49.2844 -1.4573 0.329097 0
M  V30 444 H 51.1664 -3.82527 -1.76779 0
M  V30 445 H 49.8414 -2.63471 -1.88055 0
M  V30 446 H 48.7484 -3.73769 0.157451 0
M  V30 447 H 50.0814 -4.91843 0.187485 0
M  V30 448 N 51.7335 -0.305618 -1.54608 0
M  V30 449 C 52.9615 0.304775 -2.04643 0
M  V30 450 C 53.3765 1.47167 -1.18268 0
M  V30 451 O 52.7335 1.81296 -0.209328 0
M  V30 452 C 52.7845 0.756564 -3.53495 0
M  V30 453 O 52.5055 -0.36389 -4.36586 0
M  V30 454 C 54.0065 1.43163 -4.19546 0
M  V30 455 H 51.2265 0.0655481 -0.667791 0
M  V30 456 H 53.7705 -0.446592 -1.99564 0
M  V30 457 H 51.9255 1.45794 -3.58919 0
M  V30 458 H 52.3395 -0.0113121 -5.24499 0
M  V30 459 H 53.8135 1.69886 -5.25207 0
M  V30 460 H 54.2905 2.37318 -3.69563 0
M  V30 461 H 54.8965 0.773307 -4.18211 0
M  V30 462 N 53.2116 1.57565 -0.0334293 0
M  V30 463 C 54.1586 2.10478 0.946981 0
M  V30 464 C 55.1286 1.00787 1.32027 0
M  V30 465 O 56.3136 1.28232 1.41284 0
M  V30 466 C 53.4536 2.63994 2.22263 0
M  V30 467 C 52.5666 3.87709 1.90541 0
M  V30 468 C 51.7016 4.29604 3.12433 0
M  V30 469 C 50.7406 5.46065 2.76549 0
M  V30 470 N 49.8776 5.83096 3.9108 0
M  V30 471 H 54.7176 2.93963 0.488846 0
M  V30 472 H 52.2546 1.45296 0.22969 0
M  V30 473 H 54.2126 2.93114 2.96884 0
M  V30 474 H 52.8426 1.83333 2.65685 0
M  V30 475 H 51.8946 3.65291 1.06144 0
M  V30 476 H 53.2066 4.72403 1.60116 0
M  V30 477 H 52.3606 4.60182 3.9537 0
M  V30 478 H 51.0996 3.43685 3.46023 0
M  V30 479 H 50.1046 5.15176 1.92026 0
M  V30 480 H 51.3296 6.33685 2.44171 0
M  V30 481 H 49.2756 5.00132 4.24504 0
M  V30 482 H 49.1926 6.6244 3.64293 0
M  V30 483 H 50.4606 6.18282 4.74708 0
M  V30 484 N 54.6897 -0.239769 1.55765 0
M  V30 485 C 55.6397 -1.30002 1.87306 0
M  V30 486 C 56.6237 -1.43156 0.73452 0
M  V30 487 O 57.8157 -1.46277 0.99659 0
M  V30 488 C 54.9447 -2.65409 2.17745 0
M  V30 489 C 54.0307 -2.56231 3.37945 0
M  V30 490 N 54.4217 -2.16689 4.57033 0
M  V30 491 C 52.7197 -2.87229 3.41197 0
M  V30 492 C 53.4207 -2.18318 5.39177 0
M  V30 493 N 52.3967 -2.58098 4.78421 0
M  V30 494 H 56.1987 -0.984912 2.76906 0
M  V30 495 H 53.7127 -0.448381 1.56087 0
M  V30 496 H 55.7097 -3.41934 2.38509 0
M  V30 497 H 54.3697 -2.97781 1.29448 0
M  V30 498 H 55.3807 -1.88116 4.82528 0
M  V30 499 H 52.0577 -3.24094 2.63191 0
M  V30 500 H 53.4477 -1.90025 6.44469 0
M  V30 501 N 56.1678 -1.49265 -0.50573 0
M  V30 502 C 57.4158 -1.582 -1.25766 0
M  V30 503 C 57.7368 -0.268482 -1.93143 0
M  V30 504 O 57.0068 0.711833 -1.8251 0
M  V30 505 H 55.5868 -0.582873 -0.467191 0
M  V30 506 H 58.2488 -1.85865 -0.586525 0
M  V30 507 H 57.3448 -2.37563 -2.02412 0
M  V30 508 N 57.6459 0.756429 -1.3826 0
M  V30 509 C 58.8939 1.51248 -1.34047 0
M  V30 510 C 59.2149 1.94875 0.0698372 0
M  V30 511 O 58.4849 1.67436 1.01696 0
M  V30 512 H 57.0649 0.561018 -0.493222 0
M  V30 513 H 59.7269 0.899347 -1.7291 0
M  V30 514 H 58.8229 2.40472 -1.98947 0
M  V30 515 N 59.124 1.23083 0.984299 0
M  V30 516 C 60.074 0.975749 2.06066 0
M  V30 517 C 61.058 -0.0768251 1.60716 0
M  V30 518 O 62.25 0.134805 1.76486 0
M  V30 519 C 59.379 0.564673 3.38624 0
M  V30 520 C 58.465 1.65244 3.90583 0
M  V30 521 N 58.856 2.88193 4.15666 0
M  V30 522 C 57.154 1.52612 4.19077 0
M  V30 523 C 57.855 3.58593 4.58024 0
M  V30 524 N 56.831 2.86093 4.62225 0
M  V30 525 H 60.633 1.90957 2.23411 0
M  V30 526 H 58.147 1.12963 1.16675 0
M  V30 527 H 60.144 0.36322 4.15315 0
M  V30 528 H 58.804 -0.362147 3.22674 0
M  V30 529 H 59.815 3.24537 4.03604 0
M  V30 530 H 56.492 0.666121 4.12152 0
M  V30 531 H 57.882 4.63974 4.85982 0
M  V30 532 N 60.6021 -1.18246 1.0419 0
M  V30 533 C 61.5491 -2.2192 0.634037 0
M  V30 534 C 62.5191 -1.62179 -0.358765 0
M  V30 535 O 63.7041 -1.89122 -0.252466 0
M  V30 536 C 60.8441 -3.451 0.00445535 0
M  V30 537 C 59.9571 -4.19174 1.04487 0
M  V30 538 C 59.0921 -5.29813 0.383676 0
M  V30 539 C 58.1311 -5.9566 1.4091 0
M  V30 540 N 57.2681 -6.97834 0.772784 0
M  V30 541 H 62.1081 -2.56164 1.52263 0
M  V30 542 H 59.6451 -1.25843 0.761701 0
M  V30 543 H 61.6031 -4.15485 -0.377919 0
M  V30 544 H 60.2331 -3.11472 -0.847652 0
M  V30 545 H 59.2851 -3.47604 1.54518 0
M  V30 546 H 60.5971 -4.64267 1.82368 0
M  V30 547 H 59.7511 -6.06677 -0.0528366 0
M  V30 548 H 58.4901 -4.85825 -0.427208 0
M  V30 549 H 57.4951 -5.17535 1.85574 0
M  V30 550 H 58.7201 -6.4173 2.22171 0
M  V30 551 H 56.6661 -6.55998 -0.0177708 0
M  V30 552 H 56.5831 -7.41186 1.48928 0
M  V30 553 H 57.8511 -7.78665 0.36071 0
M  V30 554 N 62.0802 -0.821533 -1.34494 0
M  V30 555 C 63.0282 -0.230702 -2.31453 0
M  V30 556 C 64.0222 0.627793 -1.57338 0
M  V30 557 O 65.2282 0.519288 -1.72347 0
M  V30 558 H 61.6032 -0.0558577 -0.749923 0
M  V30 559 H 63.5742 -1.06332 -2.78812 0
M  V30 560 C 62.3232 0.59391 -3.4259 0
M  V30 561 H 61.6462 -0.0573588 -3.99759 0
M  V30 562 H 63.0862 0.973446 -4.12674 0
M  V30 563 C 61.5452 1.76568 -2.86924 0
M  V30 564 O 62.0752 2.8638 -2.81691 0
M  V30 565 N 60.2812 1.58198 -2.43766 0
M  V30 566 H 59.8282 0.68872 -2.48222 0
M  V30 567 H 59.7862 2.36752 -2.06871 0
M  V30 568 N 63.5583 1.46682 -0.576371 0
M  V30 569 C 64.8063 2.02013 -0.0594163 0
M  V30 570 C 65.1273 1.45101 1.30271 0
M  V30 571 O 64.3973 0.633317 1.8538 0
M  V30 572 H 62.9773 0.746759 -0.0189745 0
M  V30 573 H 65.6393 1.79862 -0.750717 0
M  V30 574 H 64.7353 3.12097 0.014345 0
M  V30 575 N 65.0364 0.313813 1.54444 0
M  V30 576 C 66.4524 -0.0391619 1.59552 0
M  V30 577 C 66.6524 -1.51322 1.33056 0
M  V30 578 O 65.7084 -2.26782 1.11022 0
M  V30 579 C 67.0214 0.370302 2.98411 0
M  V30 580 C 68.5694 0.320139 3.11358 0
M  V30 581 C 69.0444 0.704617 4.52547 0
M  V30 582 N 70.5354 0.657645 4.58508 0
M  V30 583 C 71.2704 0.927453 5.6585 0
M  V30 584 N 70.7664 1.26389 6.81174 0
M  V30 585 N 72.5594 0.853662 5.5558 0
M  V30 586 H 64.7104 1.27433 1.69925 0
M  V30 587 H 66.9734 0.517511 0.794284 0
M  V30 588 H 66.6794 1.39694 3.22767 0
M  V30 589 H 66.5534 -0.269619 3.76235 0
M  V30 590 H 68.9404 -0.697275 2.86744 0
M  V30 591 H 69.0214 0.99486 2.35661 0
M  V30 592 H 68.6654 1.7199 4.77893 0
M  V30 593 H 68.5954 0.00768843 5.26599 0
M  V30 594 H 71.0864 0.409067 3.75679 0
M  V30 595 H 71.3994 1.4554 7.58972 0
M  V30 596 H 69.7444 1.30206 6.82694 0
M  V30 597 H 72.9354 0.590383 4.64362 0
M  V30 598 H 73.1084 1.0673 6.3915 0
M  V30 599 N 66.5145 -1.57545 0.0417849 0
M  V30 600 C 67.4615 -2.10977 -0.935805 0
M  V30 601 C 68.4315 -1.01486 -1.31491 0
M  V30 602 O 69.6165 -1.2898 -1.40602 0
M  V30 603 C 66.7565 -2.65169 -2.2086 0
M  V30 604 C 65.8695 -3.88714 -1.88482 0
M  V30 605 C 65.0045 -4.31254 -3.1015 0
M  V30 606 C 64.0435 -5.47524 -2.7365 0
M  V30 607 N 63.1805 -5.85162 -3.87982 0
M  V30 608 H 68.0205 -2.94218 -0.473249 0
M  V30 609 H 65.5575 -1.45415 -0.221981 0
M  V30 610 H 67.5155 -2.94685 -2.95325 0
M  V30 611 H 66.1455 -1.8474 -2.64709 0
M  V30 612 H 65.1975 -3.65849 -1.04205 0
M  V30 613 H 66.5095 -4.73245 -1.57608 0
M  V30 614 H 65.6635 -4.62273 -3.92923 0
M  V30 615 H 64.4025 -3.45516 -3.44195 0
M  V30 616 H 63.4075 -5.16187 -1.89291 0
M  V30 617 H 64.6325 -6.34971 -2.40807 0
M  V30 618 H 62.5785 -5.02377 -4.21846 0
M  V30 619 H 62.4955 -6.64362 -3.60775 0
M  V30 620 H 63.7635 -6.20791 -4.71422 0
M  V30 621 N 67.9926 0.231505 -1.5589 0
M  V30 622 C 69.2406 0.955461 -1.78088 0
M  V30 623 C 69.5616 1.85262 -0.608533 0
M  V30 624 O 68.8316 1.92277 0.375035 0
M  V30 625 H 67.4116 0.355787 -0.656829 0
M  V30 626 H 70.0736 0.245751 -1.93344 0
M  V30 627 H 69.1696 1.56814 -2.69844 0
M  V30 628 N 69.4707 1.49531 0.497807 0
M  V30 629 C 70.7187 1.58865 1.24926 0
M  V30 630 C 71.0397 0.278721 1.92998 0
M  V30 631 O 70.3097 -0.702144 1.82885 0
M  V30 632 H 68.8897 0.585343 0.464094 0
M  V30 633 H 71.5517 1.86174 0.57666 0
M  V30 634 H 70.6477 2.38633 2.01149 0
M  V30 635 N 70.9488 -0.749086 1.3866 0
M  V30 636 C 71.8788 -1.8764 1.38973 0
M  V30 637 C 72.8598 -1.68178 0.255004 0
M  V30 638 O 74.0448 -1.88704 0.458754 0
M  V30 639 C 71.1748 -3.25222 1.21851 0
M  V30 640 C 70.1288 -3.59295 2.32575 0
M  V30 641 C 69.4548 -4.95663 2.00555 0
M  V30 642 C 70.7548 -3.63709 3.7485 0
M  V30 643 H 72.4488 -1.87635 2.3331 0
M  V30 644 H 69.9948 -0.901329 1.12303 0
M  V30 645 H 71.9478 -4.03746 1.20695 0
M  V30 646 H 70.6718 -3.25719 0.239775 0
M  V30 647 H 69.3308 -2.83093 2.32925 0
M  V30 648 H 68.9788 -4.92724 1.01154 0
M  V30 649 H 68.6788 -5.19429 2.74714 0
M  V30 650 H 70.2028 -5.7656 2.01024 0
M  V30 651 H 71.6168 -4.32338 3.76506 0
M  V30 652 H 70.0138 -3.98986 4.48252 0
M  V30 653 H 71.0838 -2.63834 4.06841 0
M  V30 654 N 72.4269 -1.23603 -0.977757 0
M  V30 655 C 73.6519 -1.09735 -1.75991 0
M  V30 656 C 74.0769 0.346858 -1.84874 0
M  V30 657 O 73.4349 1.25093 -1.3123 0
M  V30 658 C 73.4829 -1.73051 -3.16363 0
M  V30 659 O 72.5869 -0.994452 -4.0023 0
M  V30 660 H 71.9279 -0.384476 -0.541364 0
M  V30 661 H 74.4579 -1.6371 -1.2272 0
M  V30 662 H 74.4679 -1.78398 -3.66931 0
M  V30 663 H 73.1429 -2.78137 -3.09213 0
M  V30 664 H 71.7199 -1.01812 -3.58732 0
M  V30 665 N 73.905 1.17692 -1.04816 0
M  V30 666 C 75.153 1.87488 -0.754497 0
M  V30 667 C 75.474 1.81205 0.720407 0
M  V30 668 O 74.744 1.23544 1.52032 0
M  V30 669 H 73.324 0.694101 -0.276102 0
M  V30 670 H 75.986 1.42793 -1.32651 0
M  V30 671 H 75.082 2.93328 -1.06606 0
M  V30 672 N 75.3831 0.828654 1.34056 0
M  V30 673 C 76.6111 0.43262 2.02326 0
M  V30 674 C 77.0261 -0.963147 1.62385 0
M  V30 675 O 76.3831 -1.62425 0.832121 0
M  V30 676 C 76.4341 0.53182 3.57567 0
M  V30 677 O 76.1551 1.87258 3.96063 0
M  V30 678 C 77.6561 0.131422 4.43105 0
M  V30 679 H 74.8761 0.172923 0.648335 0
M  V30 680 H 77.4201 1.1184 1.71208 0
M  V30 681 H 75.5751 -0.105938 3.87255 0
M  V30 682 H 75.9891 1.85087 4.90758 0
M  V30 683 H 77.4631 0.251904 5.51425 0
M  V30 684 H 77.9401 -0.925645 4.29335 0
M  V30 685 H 78.5461 0.743207 4.18756 0
M  V30 686 N 76.8612 -1.46375 0.584142 0
M  V30 687 C 78.0862 -2.07268 0.0740405 0
M  V30 688 C 78.5112 -1.42979 -1.22223 0
M  V30 689 O 77.8692 -0.514092 -1.73859 0
M  V30 690 C 77.9172 -3.60518 -0.0767769 0
M  V30 691 O 77.0212 -3.96533 -1.13292 0
M  V30 692 H 76.3622 -0.660961 0.0634524 0
M  V30 693 H 78.8922 -1.87991 0.807492 0
M  V30 694 H 78.9022 -4.07021 -0.282489 0
M  V30 695 H 77.5772 -4.06702 0.86986 0
M  V30 696 H 76.1542 -3.61738 -0.905553 0
M  V30 697 N 78.3393 -0.321999 -1.54275 0
M  V30 698 C 79.5863 0.281044 -2.0054 0
M  V30 699 C 79.9143 1.52265 -1.21019 0
M  V30 700 O 79.1693 1.93687 -0.279982 0
M  V30 701 C 79.4683 0.661769 -3.5122 0
M  V30 702 C 79.1343 -0.480482 -4.48333 0
M  V30 703 C 77.7963 -0.794005 -4.74604 0
M  V30 704 C 80.1483 -1.24783 -5.06042 0
M  V30 705 C 77.4763 -1.87763 -5.55844 0
M  V30 706 C 79.8283 -2.32153 -5.88462 0
M  V30 707 C 78.4923 -2.64089 -6.13036 0
M  V30 708 H 77.7623 0.102841 -0.733829 0
M  V30 709 H 80.4093 -0.445453 -1.86247 0
M  V30 710 H 78.7143 1.46867 -3.63232 0
M  V30 711 H 80.4113 1.13989 -3.84457 0
M  V30 712 H 77.0013 -0.226039 -4.28004 0
M  V30 713 H 81.1853 -1.01887 -4.85729 0
M  V30 714 H 76.4413 -2.12954 -5.73115 0
M  V30 715 H 80.6153 -2.92057 -6.32199 0
M  V30 716 H 78.2423 -3.48185 -6.75775 0
M  V30 717 N 79.8174 1.5752 -0.0501392 0
M  V30 718 C 81.0644 1.9265 0.623874 0
M  V30 719 C 81.3924 0.928411 1.70912 0
M  V30 720 O 80.6474 -0.0594525 1.9561 0
M  V30 721 C 80.9464 3.34467 1.25963 0
M  V30 722 C 80.6124 4.49883 0.302689 0
M  V30 723 C 79.2744 4.81184 0.0393636 0
M  V30 724 C 81.6264 5.20002 -0.353205 0
M  V30 725 C 78.9544 5.79951 -0.887308 0
M  V30 726 C 81.3064 6.1976 -1.26806 0
M  V30 727 C 79.9704 6.49491 -1.54007 0
M  V30 728 H 79.2404 0.704957 0.228292 0
M  V30 729 H 81.8874 1.91146 -0.116398 0
M  V30 730 H 80.1924 3.32333 2.07514 0
M  V30 731 H 81.8894 3.58928 1.78806 0
M  V30 732 H 78.4794 4.25457 0.518109 0
M  V30 733 H 82.6634 4.96033 -0.162854 0
M  V30 734 H 77.9194 6.01322 -1.10553 0
M  V30 735 H 82.0934 6.73205 -1.78236 0
M  V30 736 H 79.7204 7.25837 -2.25976 0
M  V30 737 N 81.2955 -0.223234 1.56011 0
M  V30 738 C 82.5235 -0.964812 1.83027 0
M  V30 739 C 82.9385 -1.78013 0.62904 0
M  V30 740 O 82.2955 -1.78008 -0.402414 0
M  V30 741 C 82.3465 -1.88373 3.08542 0
M  V30 742 O 82.0675 -1.10137 4.2403 0
M  V30 743 C 83.5685 -2.73934 3.48533 0
M  V30 744 H 80.7885 -0.282842 0.608475 0
M  V30 745 H 83.3325 -0.238971 2.03099 0
M  V30 746 H 81.4875 -2.56354 2.9045 0
M  V30 747 H 81.9015 -1.72501 4.95322 0
M  V30 748 H 83.3755 -3.34117 4.39397 0
M  V30 749 H 83.8525 -3.46244 2.70207 0
M  V30 750 H 84.4585 -2.11369 3.69057 0
M  V30 751 N 82.7736 -1.49793 -0.48987 0
M  V30 752 C 84.0196 -1.61049 -1.24236 0
M  V30 753 C 84.3746 -0.298412 -1.90072 0
M  V30 754 O 83.6676 0.702262 -1.78266 0
M  V30 755 C 83.8616 -2.71488 -2.32441 0
M  V30 756 C 83.6906 -4.13308 -1.77218 0
M  V30 757 C 82.4606 -4.79955 -1.58023 0
M  V30 758 C 84.6586 -4.98176 -1.27772 0
M  V30 759 N 82.6406 -6.06052 -0.978465 0
M  V30 760 C 84.0116 -6.14843 -0.798 0
M  V30 761 C 86.0666 -4.84091 -1.16449 0
M  V30 762 C 84.7696 -7.18975 -0.216245 0
M  V30 763 C 86.7956 -5.88382 -0.596698 0
M  V30 764 C 86.1576 -7.04285 -0.127262 0
M  V30 765 H 82.2566 -0.643611 -0.444172 0
M  V30 766 H 84.8406 -1.86842 -0.54754 0
M  V30 767 H 83.0116 -2.47449 -2.99372 0
M  V30 768 H 84.7436 -2.72205 -2.99477 0
M  V30 769 H 81.4986 -4.36936 -1.82712 0
M  V30 770 H 81.9226 -6.73407 -0.696534 0
M  V30 771 H 86.5646 -3.94786 -1.5134 0
M  V30 772 H 84.2826 -8.0797 0.144903 0
M  V30 773 H 87.8686 -5.79545 -0.511716 0
M  V30 774 H 86.7486 -7.83606 0.30523 0
M  V30 775 N 84.2517 0.741722 -1.39055 0
M  V30 776 C 85.4987 1.50114 -1.35912 0
M  V30 777 C 85.8267 1.94443 0.0470937 0
M  V30 778 O 85.0817 1.66612 1.02659 0
M  V30 779 C 85.3807 2.7592 -2.27163 0
M  V30 780 C 85.0467 2.50493 -3.74919 0
M  V30 781 C 83.7087 2.43267 -4.1518 0
M  V30 782 C 86.0607 2.28585 -4.684 0
M  V30 783 C 83.3887 2.12166 -5.46994 0
M  V30 784 C 85.7407 1.99002 -6.00484 0
M  V30 785 C 84.4047 1.90241 -6.39816 0
M  V30 786 H 83.6747 0.549306 -0.497336 0
M  V30 787 H 86.3217 0.851896 -1.71508 0
M  V30 788 H 84.6267 3.45553 -1.84663 0
M  V30 789 H 86.3237 3.33923 -2.22028 0
M  V30 790 H 82.9137 2.56992 -3.43006 0
M  V30 791 H 87.0977 2.33139 -4.38132 0
M  V30 792 H 82.3537 2.03901 -5.76398 0
M  V30 793 H 86.5277 1.81057 -6.72452 0
M  V30 794 H 84.1547 1.65907 -7.41875 0
M  V30 795 N 85.7298 1.2412 0.971189 0
M  V30 796 C 86.6628 0.97373 2.06382 0
M  V30 797 C 87.6408 -0.0912662 1.62344 0
M  V30 798 O 88.8248 0.0449365 1.88446 0
M  V30 799 C 85.9518 0.468746 3.35441 0
M  V30 800 C 84.9978 1.52176 3.98428 0
M  V30 801 S 85.8308 3.10203 4.36503 0
M  V30 802 C 86.9868 2.61398 5.68702 0
M  V30 803 H 87.2198 1.89893 2.28753 0
M  V30 804 H 84.7528 1.07466 1.10862 0
M  V30 805 H 86.7108 0.184012 4.10087 0
M  V30 806 H 85.3718 -0.435688 3.11064 0
M  V30 807 H 84.5648 1.11876 4.91426 0
M  V30 808 H 84.1668 1.75632 3.30196 0
M  V30 809 H 86.4588 2.03992 6.4606 0
M  V30 810 H 87.4018 3.52972 6.13854 0
M  V30 811 H 87.8098 2.01941 5.27143 0
M  V30 812 N 87.2079 -1.17134 1.05439 0
M  V30 813 C 88.4539 -1.87733 0.767077 0
M  V30 814 C 88.7869 -1.8098 -0.704253 0
M  V30 815 O 88.0619 -1.21951 -1.5152 0
M  V30 816 C 88.3449 -3.37659 1.25133 0
M  V30 817 C 88.1979 -3.53149 2.78578 0
M  V30 818 C 89.5169 -4.31768 0.852324 0
M  V30 819 H 86.6359 -0.681687 0.280129 0
M  V30 820 H 89.2779 -1.37732 1.30881 0
M  V30 821 H 87.4279 -3.80373 0.790469 0
M  V30 822 H 89.0999 -3.19434 3.32806 0
M  V30 823 H 87.3429 -2.95345 3.17732 0
M  V30 824 H 88.0139 -4.58403 3.07523 0
M  V30 825 H 90.4899 -3.96909 1.24911 0
M  V30 826 H 89.3659 -5.35199 1.21873 0
M  V30 827 H 89.6269 -4.41429 -0.243485 0
M  V30 828 N 88.686 -0.835752 -1.33615 0
M  V30 829 C 89.935 -0.426289 -1.97144 0
M  V30 830 C 90.248 1.01912 -1.66953 0
M  V30 831 O 91.454 1.53311 -2.24072 0
M  V30 832 C 89.91 -0.711321 -3.52801 0
M  V30 833 C 89.518 -2.1712 -3.91871 0
M  V30 834 C 91.262 -0.368654 -4.22896 0
M  V30 835 C 89.169 -2.40044 -5.40493 0
M  V30 836 H 88.099 -0.15567 -0.737755 0
M  V30 837 H 90.75 -1.0239 -1.52278 0
M  V30 838 H 89.132 -0.0433766 -3.95976 0
M  V30 839 H 90.306 -2.87936 -3.59763 0
M  V30 840 H 88.621 -2.47654 -3.34749 0
M  V30 841 H 91.218 -0.517601 -5.32189 0
M  V30 842 H 91.561 0.688078 -4.10574 0
M  V30 843 H 92.094 -0.991702 -3.8524 0
M  V30 844 H 88.833 -3.44271 -5.57815 0
M  V30 845 H 88.353 -1.73785 -5.74072 0
M  V30 846 H 90.032 -2.23042 -6.0734 0
M  V30 847 N 90.1641 1.46063 -0.591896 0
M  V30 848 C 91.1271 2.28854 0.125973 0
M  V30 849 C 92.1271 1.38903 0.810107 0
M  V30 850 O 93.3171 1.61186 0.66066 0
M  V30 851 C 90.4491 3.19526 1.1881 0
M  V30 852 H 91.6421 2.93802 -0.601717 0
M  V30 853 H 89.1951 1.52325 -0.350254 0
M  V30 854 H 89.9301 2.59345 1.94707 0
M  V30 855 H 89.7151 3.85766 0.701936 0
M  V30 856 H 91.2051 3.81817 1.69132 0
M  V30 857 N 91.6422 0.330177 1.54103 0
M  V30 858 C 92.5722 -0.525353 2.27513 0
M  V30 859 C 93.5532 -1.11383 1.2856 0
M  V30 860 O 94.7382 -1.13773 1.57383 0
M  V30 861 C 91.8682 -1.6831 3.03791 0
M  V30 862 C 90.8222 -1.2236 4.10137 0
M  V30 863 C 90.1482 -2.46882 4.74293 0
M  V30 864 C 91.4482 -0.333697 5.21233 0
M  V30 865 H 93.1422 0.087013 2.99274 0
M  V30 866 H 90.6882 0.0432893 1.43935 0
M  V30 867 H 92.6412 -2.28795 3.5388 0
M  V30 868 H 91.3652 -2.32216 2.29659 0
M  V30 869 H 90.0242 -0.64165 3.60941 0
M  V30 870 H 89.6722 -3.09165 3.96769 0
M  V30 871 H 89.3722 -2.16825 5.46133 0
M  V30 872 H 90.8962 -3.08117 5.27159 0
M  V30 873 H 92.3102 -0.845013 5.67038 0
M  V30 874 H 90.7072 -0.125612 5.99969 0
M  V30 875 H 91.7772 0.633724 4.80741 0
M  V30 876 N 93.1203 -1.57491 0.0584922 0
M  V30 877 C 94.0503 -2.14988 -0.911178 0
M  V30 878 C 95.0313 -1.07343 -1.31952 0
M  V30 879 O 96.2163 -1.35318 -1.39294 0
M  V30 880 C 93.3463 -2.70078 -2.18347 0
M  V30 881 C 92.3003 -3.82771 -1.91495 0
M  V30 882 C 91.6263 -4.24408 -3.25241 0
M  V30 883 C 92.9263 -5.07592 -1.23075 0
M  V30 884 H 94.6203 -2.96263 -0.432246 0
M  V30 885 H 92.1663 -1.42512 -0.206469 0
M  V30 886 H 94.1193 -3.08943 -2.86587 0
M  V30 887 H 92.8433 -1.86005 -2.68458 0
M  V30 888 H 91.5023 -3.44389 -1.25664 0
M  V30 889 H 91.1503 -3.37275 -3.73168 0
M  V30 890 H 90.8503 -5.00366 -3.08071 0
M  V30 891 H 92.3743 -4.65879 -3.94701 0
M  V30 892 H 93.7883 -5.43857 -1.81362 0
M  V30 893 H 92.1853 -5.88741 -1.16207 0
M  V30 894 H 93.2553 -4.84454 -0.207847 0
M  V30 895 N 94.5984 0.214957 -1.56127 0
M  V30 896 C 95.8464 0.936518 -1.79091 0
M  V30 897 C 96.1674 1.84606 -0.628148 0
M  V30 898 O 95.4374 1.92664 0.35462 0
M  V30 899 H 94.0174 0.3488 -0.660566 0
M  V30 900 H 96.6794 0.22523 -1.93594 0
M  V30 901 H 95.7754 1.53943 -2.71492 0
M  V30 902 N 96.0765 1.50051 0.48192 0
M  V30 903 C 97.3225 1.60736 1.2366 0
M  V30 904 C 97.6555 0.301786 1.91841 0
M  V30 905 O 96.9305 -0.696025 1.8162 0
M  V30 906 C 97.2135 2.78009 2.28874 0
M  V30 907 C 97.0665 4.18416 1.65069 0
M  V30 908 C 98.3855 2.90867 3.30279 0
M  V30 909 H 95.5045 0.585031 0.448228 0
M  V30 910 H 98.1465 1.82402 0.531946 0
M  V30 911 H 96.2965 2.59667 2.88973 0
M  V30 912 H 97.9685 4.48322 1.0865 0
M  V30 913 H 96.2115 4.23177 0.954148 0
M  V30 914 H 96.8825 4.96381 2.41474 0
M  V30 915 H 99.3585 3.07623 2.80191 0
M  V30 916 H 98.2345 3.74566 4.01238 0
M  V30 917 H 98.4955 2.01021 3.93755 0
M  V30 918 N 97.5546 -0.734337 1.39446 0
M  V30 919 C 98.8006 -1.49505 1.37913 0
M  V30 920 C 99.1556 -1.92384 -0.0248416 0
M  V30 921 O 98.4486 -1.6395 -0.991506 0
M  V30 922 C 98.6426 -2.74711 2.28623 0
M  V30 923 C 98.4716 -2.44075 3.777 0
M  V30 924 C 97.2416 -2.36338 4.46623 0
M  V30 925 C 99.4396 -2.09574 4.69663 0
M  V30 926 N 97.4216 -1.9818 5.81032 0
M  V30 927 C 98.7926 -1.81865 5.92727 0
M  V30 928 C 100.848 -1.96048 4.57678 0
M  V30 929 C 99.5506 -1.41992 7.05146 0
M  V30 930 C 101.577 -1.57579 5.7002 0
M  V30 931 C 100.939 -1.30754 6.92158 0
M  V30 932 H 97.0376 -0.545896 0.55993 0
M  V30 933 H 99.6216 -0.853373 1.75002 0
M  V30 934 H 97.7926 -3.36657 1.93692 0
M  V30 935 H 99.5246 -3.40916 2.18078 0
M  V30 936 H 96.2796 -2.53456 4.00071 0
M  V30 937 H 96.7036 -1.81691 6.52163 0
M  V30 938 H 101.346 -2.15455 3.63784 0
M  V30 939 H 99.0636 -1.21327 7.9894 0
M  V30 940 H 102.65 -1.47718 5.62735 0
M  V30 941 H 101.53 -1.01432 7.77612 0
M  V30 942 N 99.0327 -1.24633 -0.964593 0
M  V30 943 C 100.261 -1.11501 -1.74285 0
M  V30 944 C 100.676 0.332165 -1.85855 0
M  V30 945 O 100.033 1.22903 -1.34911 0
M  V30 946 C 100.084 -1.75258 -3.16175 0
M  V30 947 O 99.8047 -3.14318 -3.05182 0
M  V30 948 C 101.306 -1.67776 -4.10324 0
M  V30 949 H 98.5257 -0.389407 -0.546446 0
M  V30 950 H 101.07 -1.64801 -1.21083 0
M  V30 951 H 99.2247 -1.25954 -3.66353 0
M  V30 952 H 99.6387 -3.4551 -3.94618 0
M  V30 953 H 101.113 -2.17064 -5.0753 0
M  V30 954 H 101.59 -0.639584 -4.34518 0
M  V30 955 H 102.196 -2.16522 -3.66058 0
M  V30 956 N 100.511 1.16574 -1.06058 0
M  V30 957 C 101.736 1.91493 -0.796562 0
M  V30 958 C 102.161 1.76773 0.642868 0
M  V30 959 O 101.519 1.09142 1.44768 0
M  V30 960 C 101.567 3.40293 -1.19303 0
M  V30 961 O 100.671 4.11074 -0.330394 0
M  V30 962 H 100.012 0.596678 -0.291326 0
M  V30 963 H 102.542 1.47708 -1.41575 0
M  V30 964 H 102.552 3.91057 -1.16356 0
M  V30 965 H 101.227 3.50326 -2.24153 0
M  V30 966 H 99.8038 3.70513 -0.421225 0
M  V30 967 N 101.989 0.842826 1.3317 0
M  V30 968 C 103.235 0.441099 1.97945 0
M  V30 969 C 103.568 -0.998024 1.66593 0
M  V30 970 O 102.843 -1.69839 0.947898 0
M  V30 971 C 103.126 0.666841 3.53872 0
M  V30 972 C 102.979 2.15352 3.94897 0
M  V30 973 C 104.298 0.115544 4.39948 0
M  V30 974 H 101.417 0.161739 0.719034 0
M  V30 975 H 104.059 1.05907 1.57746 0
M  V30 976 H 102.209 0.140828 3.88245 0
M  V30 977 H 103.881 2.7447 3.70761 0
M  V30 978 H 102.124 2.63653 3.44484 0
M  V30 979 H 102.795 2.26221 5.03516 0
M  V30 980 H 105.271 0.565213 4.12243 0
M  V30 981 H 104.147 0.303152 5.48062 0
M  V30 982 H 104.408 -0.980935 4.3108 0
M  V30 983 N 103.467 -1.45747 0.599634 0
M  V30 984 C 104.43 -2.28917 -0.113835 0
M  V30 985 C 105.43 -1.3933 -0.802729 0
M  V30 986 O 106.62 -1.61534 -0.652103 0
M  V30 987 C 103.752 -3.20152 -1.17114 0
M  V30 988 H 104.945 -2.93478 0.617289 0
M  V30 989 H 102.498 -1.52137 0.358327 0
M  V30 990 H 103.233 -2.60374 -1.93329 0
M  V30 991 H 103.018 -3.86133 -0.681468 0
M  V30 992 H 104.508 -3.82708 -1.67105 0
M  V30 993 N 104.945 -0.338344 -1.53925 0
M  V30 994 C 106.191 0.260143 -2.01125 0
M  V30 995 C 106.524 1.50617 -1.22589 0
M  V30 996 O 105.799 1.91979 -0.312113 0
M  V30 997 C 106.082 0.579499 -3.55407 0
M  V30 998 C 105.935 -0.678264 -4.44657 0
M  V30 999 C 107.254 1.39122 -4.17532 0
M  V30 1000 H 104.373 0.0930772 -0.731099 0
M  V30 1001 H 107.015 -0.457852 -1.84401 0
M  V30 1002 H 105.165 1.19118 -3.69788 0
M  V30 1003 H 106.837 -1.31631 -4.42121 0
M  V30 1004 H 105.08 -1.3042 -4.13731 0
M  V30 1005 H 105.751 -0.410143 -5.50474 0
M  V30 1006 H 108.227 0.874035 -4.06817 0
M  V30 1007 H 107.103 1.58342 -5.25565 0
M  V30 1008 H 107.364 2.39178 -3.71815 0
M  V30 1009 N 106.423 1.57458 -0.0668435 0
M  V30 1010 C 107.669 1.93587 0.6043 0
M  V30 1011 C 108.002 0.946722 1.69561 0
M  V30 1012 O 107.277 -0.0248516 1.94484 0
M  V30 1013 C 107.56 3.40014 1.18585 0
M  V30 1014 C 107.413 4.49685 0.101529 0
M  V30 1015 C 108.732 3.87154 2.09284 0
M  V30 1016 H 105.851 0.703958 0.218202 0
M  V30 1017 H 108.493 1.89542 -0.131804 0
M  V30 1018 H 106.643 3.43592 1.81319 0
M  V30 1019 H 108.315 4.5823 -0.531279 0
M  V30 1020 H 106.558 4.30059 -0.568487 0
M  V30 1021 H 107.229 5.49266 0.54874 0
M  V30 1022 H 109.705 3.85551 1.56491 0
M  V30 1023 H 108.581 4.90231 2.46911 0
M  V30 1024 H 108.842 3.2481 2.99918 0
M  V30 1025 N 107.901 -0.206675 1.56239 0
M  V30 1026 C 109.147 -0.925733 1.81113 0
M  V30 1027 C 109.502 -1.81368 0.642135 0
M  V30 1028 O 108.795 -1.88126 -0.363211 0
M  V30 1029 C 108.989 -1.78675 3.09532 0
M  V30 1030 C 108.818 -0.98365 4.3881 0
M  V30 1031 C 107.588 -0.672661 5.00803 0
M  V30 1032 C 109.786 -0.341847 5.13163 0
M  V30 1033 N 107.768 0.150283 6.13716 0
M  V30 1034 C 109.139 0.343815 6.19046 0
M  V30 1035 C 111.194 -0.256392 4.97239 0
M  V30 1036 C 109.897 1.10678 7.10734 0
M  V30 1037 C 111.923 0.493142 5.8934 0
M  V30 1038 C 111.285 1.16729 6.94661 0
M  V30 1039 H 107.384 -0.318524 0.714189 0
M  V30 1040 H 109.968 -0.195378 1.93717 0
M  V30 1041 H 108.139 -2.4888 2.98183 0
M  V30 1042 H 109.871 -2.44441 3.22538 0
M  V30 1043 H 106.626 -0.994294 4.63045 0
M  V30 1044 H 107.05 0.551026 6.74754 0
M  V30 1045 H 111.692 -0.763249 4.15854 0
M  V30 1046 H 109.41 1.6251 7.91591 0
M  V30 1047 H 112.996 0.560465 5.79094 0
M  V30 1048 H 111.876 1.738 7.64698 0
M  V30 1049 N 109.379 -1.50304 -0.473955 0
M  V30 1050 C 110.626 -1.6115 -1.22625 0
M  V30 1051 C 110.954 -0.310517 -1.92005 0
M  V30 1052 O 110.209 0.703419 -1.82621 0
M  V30 1053 C 110.508 -2.73938 -2.29549 0
M  V30 1054 C 110.174 -4.14519 -1.7744 0
M  V30 1055 C 108.836 -4.5277 -1.62949 0
M  V30 1056 C 111.188 -5.02392 -1.3875 0
M  V30 1057 C 108.516 -5.76639 -1.08187 0
M  V30 1058 C 110.868 -6.26805 -0.854309 0
M  V30 1059 C 109.532 -6.63861 -0.696011 0
M  V30 1060 H 108.802 -0.589691 -0.448715 0
M  V30 1061 H 111.449 -1.84228 -0.522705 0
M  V30 1062 H 109.754 -2.44937 -3.05799 0
M  V30 1063 H 111.451 -2.79534 -2.87509 0
M  V30 1064 H 108.041 -3.8434 -1.89685 0
M  V30 1065 H 112.225 -4.73474 -1.4878 0
M  V30 1066 H 107.481 -6.04027 -0.946666 0
M  V30 1067 H 111.655 -6.94258 -0.545843 0
M  V30 1068 H 109.282 -7.59722 -0.26952 0
M  V30 1069 N 110.857 0.726932 -1.39834 0
M  V30 1070 C 112.134 1.47902 -1.28001 0
M  V30 1071 C 112.514 2.1083 0.106789 0
M  V30 1072 O 111.862 1.99242 1.11869 0
M  V30 1073 C 112.072 2.52392 -2.41038 0
M  V30 1074 C 113.42 3.18546 -2.80737 0
M  V30 1075 O 114.444 2.62708 -2.40547 0
M  V30 1076 O 113.303 4.19604 -3.50135 0
M  V30 1077 H 110.397 0.657163 -0.502062 0
M  V30 1078 H 112.943 0.760071 -1.51727 0
M  V30 1079 H 111.715 2.04329 -3.33715 0
M  V30 1080 H 111.338 3.31837 -2.19021 0
M  V30 1081 N 112.336 1.25143 0.95797 0
M  V30 1082 C 113.266 1.07711 2.07173 0
M  V30 1083 C 114.247 -0.0128462 1.70095 0
M  V30 1084 O 115.432 0.156061 1.93572 0
M  V30 1085 C 112.562 0.691503 3.40346 0
M  V30 1086 C 111.516 1.73132 3.9142 0
M  V30 1087 C 110.842 1.20049 5.21049 0
M  V30 1088 C 112.142 3.1294 4.1817 0
M  V30 1089 H 113.836 2.00873 2.22014 0
M  V30 1090 H 111.382 0.967191 1.06684 0
M  V30 1091 H 113.335 0.556505 4.17709 0
M  V30 1092 H 112.059 -0.275819 3.25433 0
M  V30 1093 H 110.718 1.8547 3.16222 0
M  V30 1094 H 110.366 0.223499 5.02503 0
M  V30 1095 H 110.066 1.89545 5.56189 0
M  V30 1096 H 111.59 1.07782 6.01012 0
M  V30 1097 H 113.004 3.03775 4.86203 0
M  V30 1098 H 111.401 3.79875 4.64559 0
M  V30 1099 H 112.471 3.6025 3.24573 0
M  V30 1100 N 113.814 -1.1601 1.06675 0
M  V30 1101 C 115.06 -1.86909 0.786945 0
M  V30 1102 C 115.393 -1.81717 -0.685018 0
M  V30 1103 O 114.668 -1.23551 -1.50218 0
M  V30 1104 C 114.951 -3.36313 1.28707 0
M  V30 1105 C 114.804 -3.50175 2.82308 0
M  V30 1106 C 116.123 -4.3084 0.898071 0
M  V30 1107 H 113.242 -0.678677 0.287343 0
M  V30 1108 H 115.884 -1.36336 1.32334 0
M  V30 1109 H 114.034 -3.79513 0.830768 0
M  V30 1110 H 115.706 -3.15886 3.36175 0
M  V30 1111 H 113.949 -2.91959 3.20847 0
M  V30 1112 H 114.62 -4.55116 3.12368 0
M  V30 1113 H 117.096 -3.95561 1.29114 0
M  V30 1114 H 115.972 -5.33876 1.27543 0
M  V30 1115 H 116.233 -4.41662 -0.196651 0
M  V30 1116 N 115.292 -0.849877 -1.32721 0
M  V30 1117 C 116.569 -0.372405 -1.92022 0
M  V30 1118 C 116.949 1.1435 -1.77447 0
M  V30 1119 O 116.297 1.96296 -1.16962 0
M  V30 1120 C 116.507 -0.831482 -3.3895 0
M  V30 1121 C 117.855 -0.845882 -4.16089 0
M  V30 1122 O 118.879 -0.775806 -3.47649 0
M  V30 1123 O 117.738 -0.943753 -5.38289 0
M  V30 1124 H 114.832 -0.107667 -0.819961 0
M  V30 1125 H 117.378 -0.93646 -1.41522 0
M  V30 1126 H 116.15 -1.87448 -3.4348 0
M  V30 1127 H 115.773 -0.24461 -3.96847 0
M  V30 1128 N 116.77 1.45427 -0.607355 0
M  V30 1129 C 118 2.06314 -0.108656 0
M  V30 1130 C 118.408 1.45269 1.21217 0
M  V30 1131 O 117.751 0.561115 1.74921 0
M  V30 1132 C 117.813 3.59345 0.105618 0
M  V30 1133 C 117.477 4.42723 -1.13337 0
M  V30 1134 C 118.474 4.77715 -2.05145 0
M  V30 1135 C 116.159 4.83478 -1.36213 0
M  V30 1136 C 118.153 5.52317 -3.18158 0
M  V30 1137 C 115.84 5.57835 -2.49527 0
M  V30 1138 C 116.838 5.92171 -3.40327 0
M  V30 1139 O 116.526 6.65019 -4.51669 0
M  V30 1140 H 116.258 0.672782 -0.0658842 0
M  V30 1141 H 118.812 1.87664 -0.834945 0
M  V30 1142 H 117.042 3.76394 0.886796 0
M  V30 1143 H 118.731 4.02076 0.555886 0
M  V30 1144 H 119.497 4.46787 -1.88697 0
M  V30 1145 H 115.376 4.56188 -0.664362 0
M  V30 1146 H 118.92 5.79036 -3.89054 0
M  V30 1147 H 114.817 5.88177 -2.65928 0
M  V30 1148 H 115.585 6.83469 -4.50348 0
M  V30 1149 N 118.248 0.346503 1.53744 0
M  V30 1150 C 119.158 -0.517293 2.28826 0
M  V30 1151 C 120.174 -1.10935 1.3405 0
M  V30 1152 O 121.35 -1.1244 1.6709 0
M  V30 1153 C 118.415 -1.65098 3.04866 0
M  V30 1154 C 117.476 -1.0884 4.15274 0
M  V30 1155 C 116.709 -2.16806 4.87679 0
M  V30 1156 O 116.932 -3.3758 4.59778 0
M  V30 1157 O 115.866 -1.80934 5.74061 0
M  V30 1158 H 119.692 0.0931396 3.03557 0
M  V30 1159 H 117.277 0.111458 1.48984 0
M  V30 1160 H 119.159 -2.31053 3.5241 0
M  V30 1161 H 117.834 -2.24717 2.32989 0
M  V30 1162 H 116.741 -0.3933 3.72027 0
M  V30 1163 H 118.074 -0.537036 4.89261 0
M  V30 1164 N 119.726 -1.57421 0.075193 0
M  V30 1165 C 120.636 -2.1642 -0.905511 0
M  V30 1166 C 121.652 -1.12828 -1.32461 0
M  V30 1167 O 122.828 -1.45109 -1.39661 0
M  V30 1168 C 119.893 -2.71693 -2.15369 0
M  V30 1169 C 118.954 -3.90171 -1.79068 0
M  V30 1170 C 118.187 -4.42798 -2.97936 0
M  V30 1171 O 118.41 -3.94416 -4.12058 0
M  V30 1172 O 117.344 -5.34085 -2.77555 0
M  V30 1173 H 121.17 -3.00588 -0.433626 0
M  V30 1174 H 118.755 -1.48664 -0.148067 0
M  V30 1175 H 120.637 -3.07104 -2.88557 0
M  V30 1176 H 119.312 -1.90582 -2.61649 0
M  V30 1177 H 118.219 -3.59606 -1.03122 0
M  V30 1178 H 119.552 -4.72584 -1.37569 0
M  V30 1179 N 121.204 0.198386 -1.56346 0
M  V30 1180 C 122.45 0.920648 -1.80698 0
M  V30 1181 C 122.783 1.83045 -0.648697 0
M  V30 1182 O 122.058 1.91308 0.350925 0
M  V30 1183 C 122.341 1.73971 -3.15287 0
M  V30 1184 C 122.194 0.85485 -4.41602 0
M  V30 1185 C 123.513 2.71296 -3.46535 0
M  V30 1186 H 120.632 0.333261 -0.657348 0
M  V30 1187 H 123.274 0.188198 -1.89066 0
M  V30 1188 H 121.424 2.36416 -3.08285 0
M  V30 1189 H 123.096 0.245362 -4.60647 0
M  V30 1190 H 121.339 0.161398 -4.335 0
M  V30 1191 H 122.01 1.46286 -5.32264 0
M  V30 1192 H 124.486 2.18983 -3.53816 0
M  V30 1193 H 123.362 3.2569 -4.41834 0
M  V30 1194 H 123.623 3.5018 -2.69864 0
M  V30 1195 N 122.682 1.50554 0.465978 0
M  V30 1196 C 123.612 1.72722 1.57128 0
M  V30 1197 C 124.593 0.576294 1.6004 0
M  V30 1198 O 125.778 0.81598 1.76225 0
M  V30 1199 C 122.908 1.82605 2.95419 0
M  V30 1200 C 121.862 2.97835 3.07373 0
M  V30 1201 C 121.188 2.92867 4.47363 0
M  V30 1202 C 122.488 4.38265 2.84114 0
M  V30 1203 H 124.182 2.65267 1.38829 0
M  V30 1204 H 121.728 1.2765 0.666441 0
M  V30 1205 H 123.681 1.96698 3.72677 0
M  V30 1206 H 122.405 0.866858 3.14886 0
M  V30 1207 H 121.064 2.83401 2.3255 0
M  V30 1208 H 120.712 1.94783 4.63755 0
M  V30 1209 H 120.412 3.70227 4.56296 0
M  V30 1210 H 121.936 3.09015 5.26633 0
M  V30 1211 H 123.35 4.53198 3.51118 0
M  V30 1212 H 121.747 5.17115 3.04487 0
M  V30 1213 H 122.817 4.50281 1.7993 0
M  V30 1214 N 124.16 -0.719506 1.40217 0
M  V30 1215 C 125.408 -1.47641 1.3801 0
M  V30 1216 C 125.729 -1.94992 -0.018145 0
M  V30 1217 O 124.999 -1.70073 -0.972207 0
M  V30 1218 H 123.579 -0.547744 0.507923 0
M  V30 1219 H 126.241 -0.853187 1.75233 0
M  V30 1220 H 125.337 -2.35112 2.05253 0
M  V30 1221 N 125.638 -1.25649 -0.95132 0
M  V30 1222 C 126.585 -1.06323 -2.04851 0
M  V30 1223 C 127.555 0.0286491 -1.66075 0
M  V30 1224 O 128.74 -0.12917 -1.90362 0
M  V30 1225 C 125.88 -0.691529 -3.381 0
M  V30 1226 C 124.993 -1.85861 -3.89974 0
M  V30 1227 C 124.128 -1.43096 -5.11563 0
M  V30 1228 C 123.167 -2.56696 -5.55674 0
M  V30 1229 N 122.304 -2.14684 -6.68472 0
M  V30 1230 H 127.144 -2.00222 -2.20715 0
M  V30 1231 H 124.681 -0.997027 -1.08156 0
M  V30 1232 H 126.639 -0.456963 -4.1469 0
M  V30 1233 H 125.269 0.210474 -3.22113 0
M  V30 1234 H 124.321 -2.20639 -3.09875 0
M  V30 1235 H 125.633 -2.71161 -4.18657 0
M  V30 1236 H 124.787 -1.15624 -5.9558 0
M  V30 1237 H 123.526 -0.548722 -4.84603 0
M  V30 1238 H 122.531 -2.84909 -4.7022 0
M  V30 1239 H 123.756 -3.45503 -5.8464 0
M  V30 1240 H 121.702 -1.28881 -6.43215 0
M  V30 1241 H 121.619 -2.9353 -6.96689 0
M  V30 1242 H 122.887 -1.90397 -7.5589 0
M  V30 1243 N 127.117 1.15442 -1.07289 0
M  V30 1244 C 128.047 2.22312 -0.714107 0
M  V30 1245 C 129.028 1.67467 0.298155 0
M  V30 1246 O 130.213 1.93445 0.171048 0
M  V30 1247 C 127.343 3.47124 -0.110448 0
M  V30 1248 C 126.297 4.14926 -1.04979 0
M  V30 1249 C 125.623 5.33807 -0.308924 0
M  V30 1250 C 126.923 4.64762 -2.38314 0
M  V30 1251 H 128.617 2.5258 -1.6076 0
M  V30 1252 H 126.163 1.21404 -0.77441 0
M  V30 1253 H 128.116 4.21124 0.152482 0
M  V30 1254 H 126.84 3.16187 0.81812 0
M  V30 1255 H 125.499 3.42866 -1.29764 0
M  V30 1256 H 125.147 4.99126 0.623084 0
M  V30 1257 H 124.847 5.80113 -0.935036 0
M  V30 1258 H 126.371 6.10576 -0.0537771 0
M  V30 1259 H 127.785 5.30292 -2.1786 0
M  V30 1260 H 126.182 5.21728 -2.96514 0
M  V30 1261 H 127.252 3.80434 -3.00663 0
M  V30 1262 N 128.595 0.856903 1.32268 0
M  V30 1263 C 129.843 0.460474 1.96784 0
M  V30 1264 C 130.164 -0.987701 1.68135 0
M  V30 1265 O 129.434 -1.69058 0.989765 0
M  V30 1266 H 128.014 0.167289 0.728027 0
M  V30 1267 H 130.676 1.09383 1.61312 0
M  V30 1268 H 129.772 0.60739 3.06133 0
M  V30 1269 N 130.073 -1.45103 0.615059 0
M  V30 1270 C 131.322 -2.01396 0.110718 0
M  V30 1271 C 131.635 -1.48834 -1.26916 0
M  V30 1272 O 132.841 -1.97152 -1.86664 0
M  V30 1273 C 131.297 -3.59599 0.14723 0
M  V30 1274 C 130.905 -4.21158 1.52743 0
M  V30 1275 C 132.649 -4.23428 -0.30148 0
M  V30 1276 C 130.556 -5.71535 1.51992 0
M  V30 1277 H 129.486 -0.753061 0.0376241 0
M  V30 1278 H 132.137 -1.66494 0.77149 0
M  V30 1279 H 130.519 -3.91724 -0.580339 0
M  V30 1280 H 131.693 -4.00594 2.2773 0
M  V30 1281 H 130.008 -3.69552 1.91886 0
M  V30 1282 H 132.605 -5.33703 -0.326392 0
M  V30 1283 H 132.948 -3.94629 -1.32565 0
M  V30 1284 H 133.481 -3.96047 0.373065 0
M  V30 1285 H 130.22 -6.05044 2.52193 0
M  V30 1286 H 129.74 -5.94268 0.81274 0
M  V30 1287 H 131.419 -6.34873 1.24681 0
M  V30 1288 N 131.551 -0.354651 -1.53558 0
M  V30 1289 C 132.781 0.239167 -2.05211 0
M  V30 1290 C 133.189 1.43879 -1.22863 0
M  V30 1291 O 132.532 1.81857 -0.259565 0
M  V30 1292 C 132.594 0.707251 -3.52474 0
M  V30 1293 C 132.258 -0.374212 -4.55465 0
M  V30 1294 C 133.255 -1.22054 -5.0537 0
M  V30 1295 C 130.94 -0.531323 -4.99482 0
M  V30 1296 C 132.934 -2.20942 -5.97882 0
M  V30 1297 C 130.621 -1.52358 -5.91802 0
M  V30 1298 C 131.619 -2.36108 -6.40892 0
M  V30 1299 O 131.307 -3.33643 -7.31394 0
M  V30 1300 H 131.039 0.0479716 -0.674296 0
M  V30 1301 H 133.593 -0.508121 -1.99016 0
M  V30 1302 H 131.823 1.50596 -3.56171 0
M  V30 1303 H 133.512 1.22285 -3.87042 0
M  V30 1304 H 134.278 -1.1103 -4.7212 0
M  V30 1305 H 130.157 0.110738 -4.60867 0
M  V30 1306 H 133.701 -2.86348 -6.36121 0
M  V30 1307 H 129.598 -1.63434 -6.24467 0
M  V30 1308 H 130.366 -3.29244 -7.4936 0
M  V30 1309 N 133.029 1.57378 -0.0835403 0
M  V30 1310 C 134.306 1.85363 0.624507 0
M  V30 1311 C 134.686 0.978239 1.87066 0
M  V30 1312 O 134.034 0.0475908 2.2845 0
M  V30 1313 C 134.244 3.35795 0.950947 0
M  V30 1314 C 135.592 4.03581 1.31939 0
M  V30 1315 O 136.616 3.40609 1.04232 0
M  V30 1316 O 135.475 5.14672 1.83779 0
M  V30 1317 H 132.569 0.766162 0.311329 0
M  V30 1318 H 135.115 1.69307 -0.115362 0
M  V30 1319 H 133.887 3.91244 0.0663899 0
M  V30 1320 H 133.51 3.57154 1.74719 0
M  V30 1321 N 134.507 -0.190092 1.56449 0
M  V30 1322 C 135.47 -1.21925 1.9408 0
M  V30 1323 C 136.47 -1.38176 0.822431 0
M  V30 1324 O 137.66 -1.35903 1.08977 0
M  V30 1325 C 134.792 -2.58773 2.21922 0
M  V30 1326 H 135.985 -0.897464 2.86157 0
M  V30 1327 H 133.538 -0.43181 1.50217 0
M  V30 1328 H 134.273 -2.95998 1.32499 0
M  V30 1329 H 134.058 -2.48348 3.03424 0
M  V30 1330 H 135.548 -3.32978 2.52022 0
M  V30 1331 N 135.985 -1.50799 -0.457987 0
M  V30 1332 C 137.262 -1.52968 -1.21902 0
M  V30 1333 C 137.642 -0.281906 -2.09209 0
M  V30 1334 O 136.99 0.734076 -2.16388 0
M  V30 1335 C 137.2 -2.8326 -2.03875 0
M  V30 1336 C 138.548 -3.34425 -2.6162 0
M  V30 1337 O 139.572 -2.8467 -2.14106 0
M  V30 1338 O 138.431 -4.21188 -3.48228 0
M  V30 1339 H 135.525 -0.614129 -0.553873 0
M  V30 1340 H 138.071 -1.63098 -0.468739 0
M  V30 1341 H 136.843 -3.65543 -1.39621 0
M  V30 1342 H 136.466 -2.76195 -2.8601 0
M  V30 1343 N 137.463 0.71206 -1.40597 0
M  V30 1344 C 138.711 1.46907 -1.38791 0
M  V30 1345 C 139.032 1.94998 0.00780391 0
M  V30 1346 O 138.302 1.70587 0.963174 0
M  V30 1347 H 136.882 0.545043 -0.51082 0
M  V30 1348 H 139.544 0.843882 -1.75683 0
M  V30 1349 H 138.64 2.34021 -2.06496 0
M  V30 1350 N 138.941 1.26152 0.944643 0
M  V30 1351 C 140.218 1.02247 1.66748 0
M  V30 1352 C 140.598 -0.448202 2.06287 0
M  V30 1353 O 139.946 -1.42779 1.78399 0
M  V30 1354 C 140.156 1.96788 2.88228 0
M  V30 1355 C 141.504 2.25201 3.59958 0
M  V30 1356 O 142.528 1.94626 2.98327 0
M  V30 1357 O 141.387 2.77242 4.70956 0
M  V30 1358 H 138.481 0.388517 0.730057 0
M  V30 1359 H 141.027 1.37348 0.99668 0
M  V30 1360 H 139.799 2.96047 2.55875 0
M  V30 1361 H 139.422 1.62145 3.63035 0
M  V30 1362 N 140.419 -1.14872 1.07899 0
M  V30 1363 C 141.667 -1.85422 0.803941 0
M  V30 1364 C 141.988 -1.83051 -0.67211 0
M  V30 1365 O 141.258 -1.27532 -1.48703 0
M  V30 1366 H 139.838 -0.686537 0.294408 0
M  V30 1367 H 142.5 -1.39226 1.3639 0
M  V30 1368 H 141.596 -2.90399 1.14346 0
M  V30 1369 N 141.898 -0.863906 -1.31812 0
M  V30 1370 C 143.175 -0.39275 -1.91616 0
M  V30 1371 C 143.555 1.12461 -1.7865 0
M  V30 1372 O 142.903 1.95045 -1.19037 0
M  V30 1373 C 143.113 -0.867385 -3.38049 0
M  V30 1374 C 144.461 -0.889966 -4.15168 0
M  V30 1375 O 145.485 -0.812635 -3.46806 0
M  V30 1376 O 144.344 -1.00079 -5.37258 0
M  V30 1377 H 141.438 -0.116358 -0.818773 0
M  V30 1378 H 143.984 -0.951418 -1.40521 0
M  V30 1379 H 142.756 -1.91081 -3.41473 0
M  V30 1380 H 142.379 -0.286687 -3.96565 0
M  V30 1381 N 143.376 1.44774 -0.622745 0
M  V30 1382 C 144.623 2.02121 -0.1239 0
M  V30 1383 C 144.951 1.48915 1.25118 0
M  V30 1384 O 144.206 0.660045 1.84233 0
M  V30 1385 C 144.505 3.57364 -0.0508323 0
M  V30 1386 C 144.171 4.29787 -1.36358 0
M  V30 1387 C 142.833 4.4929 -1.72314 0
M  V30 1388 C 145.185 4.71062 -2.23048 0
M  V30 1389 C 142.513 5.07325 -2.94682 0
M  V30 1390 C 144.865 5.30452 -3.44679 0
M  V30 1391 C 143.529 5.48175 -3.80868 0
M  V30 1392 H 142.799 0.739612 -0.0453381 0
M  V30 1393 H 145.446 1.73648 -0.807389 0
M  V30 1394 H 143.751 3.85202 0.715991 0
M  V30 1395 H 145.448 3.99456 0.351533 0
M  V30 1396 H 142.038 4.14932 -1.07375 0
M  V30 1397 H 146.222 4.55715 -1.96565 0
M  V30 1398 H 141.478 5.19235 -3.22809 0
M  V30 1399 H 145.652 5.61385 -4.12092 0
M  V30 1400 H 143.279 5.92912 -4.75773 0
M  V30 1401 N 144.854 0.36279 1.53368 0
M  V30 1402 C 146.131 -0.284021 1.93527 0
M  V30 1403 C 146.511 -1.66628 1.29608 0
M  V30 1404 O 145.859 -2.23942 0.45413 0
M  V30 1405 C 146.069 -0.337028 3.47369 0
M  V30 1406 C 147.417 -0.578708 4.20638 0
M  V30 1407 O 148.441 -0.418352 3.53735 0
M  V30 1408 O 147.3 -0.89074 5.39192 0
M  V30 1409 H 144.394 -0.169743 0.809393 0
M  V30 1410 H 146.94 0.41537 1.64538 0
M  V30 1411 H 145.712 0.632217 3.86159 0
M  V30 1412 H 145.335 -1.08243 3.82582 0
M  V30 1413 N 146.332 -1.57332 0.0918853 0
M  V30 1414 C 147.578 -1.94524 -0.573425 0
M  V30 1415 C 147.911 -0.973578 -1.68033 0
M  V30 1416 O 147.186 -0.00609226 -1.94499 0
M  V30 1417 C 147.469 -3.41858 -1.13161 0
M  V30 1418 C 147.322 -4.4979 -0.0299747 0
M  V30 1419 C 148.641 -3.90435 -2.03098 0
M  V30 1420 H 145.76 -0.70734 -0.206975 0
M  V30 1421 H 148.402 -1.89309 0.161942 0
M  V30 1422 H 146.552 -3.46433 -1.7583 0
M  V30 1423 H 148.224 -4.57327 0.604112 0
M  V30 1424 H 146.467 -4.291 0.636833 0
M  V30 1425 H 147.138 -5.50069 -0.461287 0
M  V30 1426 H 149.614 -3.87992 -1.50338 0
M  V30 1427 H 148.49 -4.94097 -2.39081 0
M  V30 1428 H 148.751 -3.29541 -2.94712 0
M  V30 1429 N 147.81 0.181792 -1.56548 0
M  V30 1430 C 149.087 0.926765 -1.72251 0
M  V30 1431 C 149.467 2.00831 -0.650386 0
M  V30 1432 O 148.815 2.26008 0.336521 0
M  V30 1433 C 149.025 1.50106 -3.1507 0
M  V30 1434 C 150.373 1.97805 -3.75711 0
M  V30 1435 O 151.397 1.59922 -3.18282 0
M  V30 1436 O 150.256 2.67555 -4.76525 0
M  V30 1437 H 147.35 0.435506 -0.703039 0
M  V30 1438 H 149.896 0.170443 -1.68842 0
M  V30 1439 H 148.668 0.72212 -3.84579 0
M  V30 1440 H 148.291 2.32186 -3.22763 0
M  V30 1441 N 149.288 1.51039 0.449983 0
M  V30 1442 C 150.565 1.53612 1.21089 0
M  V30 1443 C 150.945 0.292997 2.09057 0
M  V30 1444 O 150.293 -0.72259 2.16774 0
M  V30 1445 C 150.503 2.84337 2.0237 0
M  V30 1446 C 151.851 3.35807 2.59843 0
M  V30 1447 O 152.875 2.85802 2.12593 0
M  V30 1448 O 151.734 4.23029 3.45989 0
M  V30 1449 H 148.828 0.617057 0.550608 0
M  V30 1450 H 151.374 1.63344 0.460082 0
M  V30 1451 H 150.146 3.66278 1.37681 0
M  V30 1452 H 149.769 2.77708 2.84542 0
M  V30 1453 N 150.766 -0.704594 1.40972 0
M  V30 1454 C 151.729 -1.80035 1.41845 0
M  V30 1455 C 152.729 -1.57774 0.310474 0
M  V30 1456 O 153.919 -1.64613 0.56992 0
M  V30 1457 C 151.051 -3.18284 1.22098 0
M  V30 1458 H 152.244 -1.80658 2.3938 0
M  V30 1459 H 149.797 -0.911329 1.26982 0
M  V30 1460 H 150.532 -3.23306 0.253672 0
M  V30 1461 H 150.317 -3.35843 2.02366 0
M  V30 1462 H 151.807 -3.98289 1.25522 0
M  V30 1463 N 152.244 -1.26651 -0.937939 0
M  V30 1464 C 153.191 -1.0849 -2.03712 0
M  V30 1465 C 154.161 0.011033 -1.66096 0
M  V30 1466 O 155.346 -0.149353 -1.90215 0
M  V30 1467 C 152.486 -0.72735 -3.37348 0
M  V30 1468 C 151.599 -1.89986 -3.87981 0
M  V30 1469 C 150.734 -1.48513 -5.10017 0
M  V30 1470 C 149.773 -2.62575 -5.5292 0
M  V30 1471 N 148.91 -2.21762 -6.66158 0
M  V30 1472 H 153.75 -2.02551 -2.18579 0
M  V30 1473 H 151.287 -1.00844 -1.07093 0
M  V30 1474 H 153.245 -0.50092 -4.14182 0
M  V30 1475 H 151.875 0.176298 -3.22318 0
M  V30 1476 H 150.927 -2.23913 -3.07518 0
M  V30 1477 H 152.239 -2.75586 -4.15757 0
M  V30 1478 H 151.393 -1.21934 -5.94321 0
M  V30 1479 H 150.132 -0.60009 -4.83994 0
M  V30 1480 H 149.137 -2.8988 -4.67172 0
M  V30 1481 H 150.362 -3.51685 -5.80943 0
M  V30 1482 H 148.308 -1.35696 -6.41812 0
M  V30 1483 H 148.225 -3.00903 -6.93537 0
M  V30 1484 H 149.493 -1.98403 -7.53828 0
M  V30 1485 N 153.722 1.14298 -1.08507 0
M  V30 1486 C 154.968 1.85633 -0.816581 0
M  V30 1487 C 155.301 1.82784 0.656021 0
M  V30 1488 O 154.576 1.25926 1.48233 0
M  V30 1489 C 154.859 3.34223 -1.34041 0
M  V30 1490 C 154.712 3.45639 -2.87843 0
M  V30 1491 C 156.031 4.29356 -0.9665 0
M  V30 1492 H 153.15 0.67402 -0.298104 0
M  V30 1493 H 155.792 1.34214 -1.34487 0
M  V30 1494 H 153.942 3.78144 -0.89104 0
M  V30 1495 H 155.614 3.10498 -3.41158 0
M  V30 1496 H 153.857 2.86817 -3.25451 0
M  V30 1497 H 154.528 4.50089 -3.19569 0
M  V30 1498 H 157.004 3.93457 -1.35391 0
M  V30 1499 H 155.88 5.3178 -1.3602 0
M  V30 1500 H 156.141 4.41919 0.126362 0
M  V30 1501 N 155.201 0.870884 1.31352 0
M  V30 1502 C 156.131 0.343096 2.30966 0
M  V30 1503 C 157.112 -0.566507 1.60389 0
M  V30 1504 O 158.297 -0.483336 1.88089 0
M  V30 1505 C 155.427 -0.455487 3.443 0
M  V30 1506 C 154.381 0.361103 4.26474 0
M  V30 1507 C 153.707 -0.563221 5.31725 0
M  V30 1508 C 155.007 1.59566 4.97329 0
M  V30 1509 H 156.701 1.17548 2.75359 0
M  V30 1510 H 154.247 0.566686 1.32381 0
M  V30 1511 H 156.2 -0.83525 4.13039 0
M  V30 1512 H 154.924 -1.32139 2.98675 0
M  V30 1513 H 153.583 0.722825 3.59403 0
M  V30 1514 H 153.231 -1.42643 4.82351 0
M  V30 1515 H 152.931 -0.0207409 5.87596 0
M  V30 1516 H 154.455 -0.939808 6.03324 0
M  V30 1517 H 155.869 1.28728 5.58661 0
M  V30 1518 H 154.266 2.07728 5.63 0
M  V30 1519 H 155.336 2.34798 4.24262 0
M  V30 1520 N 156.679 -1.44442 0.630414 0
M  V30 1521 C 157.609 -2.33418 -0.0618083 0
M  V30 1522 C 158.59 -1.48165 -0.835541 0
M  V30 1523 O 159.775 -1.76886 -0.801564 0
M  V30 1524 C 156.905 -3.31222 -1.04449 0
M  V30 1525 C 155.859 -4.26288 -0.382436 0
M  V30 1526 C 155.185 -5.13954 -1.47497 0
M  V30 1527 C 156.485 -5.1744 0.710865 0
M  V30 1528 H 158.179 -2.91548 0.681184 0
M  V30 1529 H 155.725 -1.40191 0.329026 0
M  V30 1530 H 157.678 -3.92351 -1.53748 0
M  V30 1531 H 156.402 -2.71299 -1.81836 0
M  V30 1532 H 155.061 -3.6649 0.0899054 0
M  V30 1533 H 154.709 -4.50385 -2.2397 0
M  V30 1534 H 154.409 -5.7837 -1.03737 0
M  V30 1535 H 155.933 -5.77955 -1.96979 0
M  V30 1536 H 157.347 -5.72509 0.300996 0
M  V30 1537 H 155.744 -5.90455 1.07156 0
M  V30 1538 H 156.814 -4.58496 1.57829 0
M  V30 1539 N 158.157 -0.370918 -1.53173 0
M  V30 1540 C 159.405 0.216673 -2.00935 0
M  V30 1541 C 159.726 1.48845 -1.25977 0
M  V30 1542 O 158.996 1.92286 -0.374551 0
M  V30 1543 H 157.576 0.0830565 -0.742368 0
M  V30 1544 H 160.238 -0.49838 -1.8842 0
M  V30 1545 H 159.334 0.439893 -3.08984 0
M  V30 1546 N 159.635 1.57281 -0.100228 0
M  V30 1547 C 160.565 2.17328 0.853857 0
M  V30 1548 C 161.546 1.10804 1.2906 0
M  V30 1549 O 162.731 1.38963 1.35657 0
M  V30 1550 C 159.861 2.75772 2.11109 0
M  V30 1551 C 158.815 3.87713 1.81279 0
M  V30 1552 C 158.141 4.32882 3.13874 0
M  V30 1553 C 159.441 5.10677 1.09574 0
M  V30 1554 H 161.135 2.97305 0.353545 0
M  V30 1555 H 158.681 1.43009 0.168612 0
M  V30 1556 H 160.634 3.16433 2.78296 0
M  V30 1557 H 159.358 1.93057 2.63432 0
M  V30 1558 H 158.017 3.476 1.16489 0
M  V30 1559 H 157.665 3.47051 3.64095 0
M  V30 1560 H 157.365 5.08358 2.94696 0
M  V30 1561 H 158.889 4.7618 3.82211 0
M  V30 1562 H 160.303 5.48474 1.66879 0
M  V30 1563 H 158.7 5.91615 1.00557 0
M  V30 1564 H 159.77 4.84835 0.0793299 0
M  V30 1565 N 161.113 -0.173488 1.56642 0
M  V30 1566 C 162.06 -1.21482 1.96242 0
M  V30 1567 C 163.03 -1.44104 0.826027 0
M  V30 1568 O 164.215 -1.5688 1.08597 0
M  V30 1569 C 161.355 -2.54964 2.32567 0
M  V30 1570 C 160.468 -2.39739 3.59373 0
M  V30 1571 C 159.603 -3.66072 3.84921 0
M  V30 1572 C 158.642 -3.45771 5.05083 0
M  V30 1573 N 157.779 -4.64169 5.26775 0
M  V30 1574 H 162.619 -0.870123 2.85014 0
M  V30 1575 H 160.156 -0.418245 1.41029 0
M  V30 1576 H 162.114 -3.32758 2.5165 0
M  V30 1577 H 160.744 -2.87433 1.46908 0
M  V30 1578 H 159.796 -1.53131 3.48217 0
M  V30 1579 H 161.108 -2.20683 4.47326 0
M  V30 1580 H 160.262 -4.52303 4.0436 0
M  V30 1581 H 159.001 -3.88105 2.9534 0
M  V30 1582 H 158.006 -2.57927 4.85545 0
M  V30 1583 H 159.231 -3.25163 5.96193 0
M  V30 1584 H 157.177 -4.86425 4.40144 0
M  V30 1585 H 157.094 -4.48019 6.08946 0
M  V30 1586 H 158.362 -5.51689 5.5069 0
M  V30 1587 N 162.591 -1.51276 -0.441967 0
M  V30 1588 C 163.501 -1.75092 -1.56141 0
M  V30 1589 C 164.517 -0.634963 -1.62001 0
M  V30 1590 O 165.693 -0.916686 -1.79329 0
M  V30 1591 C 162.758 -1.86666 -2.92158 0
M  V30 1592 C 161.819 -3.10506 -2.96453 0
M  V30 1593 C 161.052 -3.21519 -4.25982 0
M  V30 1594 O 161.275 -2.38586 -5.18105 0
M  V30 1595 O 160.209 -4.14465 -4.36466 0
M  V30 1596 H 164.035 -2.70044 -1.38961 0
M  V30 1597 H 161.62 -1.35722 -0.624499 0
M  V30 1598 H 163.502 -1.96292 -3.72891 0
M  V30 1599 H 162.177 -0.949014 -3.09476 0
M  V30 1600 H 161.084 -3.06363 -2.14692 0
M  V30 1601 H 162.417 -4.01945 -2.84079 0
M  V30 1602 N 164.069 0.697108 -1.41344 0
M  V30 1603 C 165.485 1.00751 -1.2378 0
M  V30 1604 C 165.685 2.01105 -0.126066 0
M  V30 1605 O 164.741 2.47295 0.51004 0
M  V30 1606 C 166.054 1.53359 -2.58653 0
M  V30 1607 C 167.602 1.6525 -2.65822 0
M  V30 1608 C 168.077 2.2126 -4.01009 0
M  V30 1609 N 169.568 2.28622 -4.02847 0
M  V30 1610 C 170.303 2.72984 -5.04249 0
M  V30 1611 N 169.799 3.16962 -6.16041 0
M  V30 1612 N 171.592 2.72534 -4.91611 0
M  V30 1613 H 163.743 0.0322662 -2.12375 0
M  V30 1614 H 166.006 0.0768853 -0.944877 0
M  V30 1615 H 165.712 0.870773 -3.4075 0
M  V30 1616 H 165.586 2.51597 -2.81032 0
M  V30 1617 H 167.973 2.30644 -1.84086 0
M  V30 1618 H 168.054 0.655614 -2.47256 0
M  V30 1619 H 167.698 1.56482 -4.83193 0
M  V30 1620 H 167.628 3.21698 -4.16915 0
M  V30 1621 H 170.119 1.97585 -3.22131 0
M  V30 1622 H 170.432 3.49434 -6.89287 0
M  V30 1623 H 168.777 3.14875 -6.1958 0
M  V30 1624 H 171.968 2.37525 -4.0336 0
M  V30 1625 H 172.141 3.06789 -5.70775 0
M  V30 1626 N 165.547 1.27147 0.931209 0
M  V30 1627 C 166.772 1.16191 1.71797 0
M  V30 1628 C 167.197 -0.278004 1.86034 0
M  V30 1629 O 166.555 -1.20137 1.35782 0
M  V30 1630 C 166.603 1.84673 3.09723 0
M  V30 1631 O 165.707 1.14231 3.96264 0
M  V30 1632 H 165.048 0.404303 0.526721 0
M  V30 1633 H 167.578 1.68152 1.1656 0
M  V30 1634 H 167.588 1.91893 3.60057 0
M  V30 1635 H 166.263 2.89421 2.98677 0
M  V30 1636 H 164.84 1.15056 3.54706 0
M  V30 1637 N 167.025 -1.13721 1.09112 0
M  V30 1638 C 168.253 -1.88773 0.846899 0
M  V30 1639 C 168.668 -1.7896 -0.601572 0
M  V30 1640 O 168.025 -1.15394 -1.41388 0
M  V30 1641 C 168.076 -3.3849 1.26913 0
M  V30 1642 O 167.797 -3.48043 2.66079 0
M  V30 1643 C 169.298 -4.30518 1.05682 0
M  V30 1644 H 166.518 -0.59772 0.304914 0
M  V30 1645 H 169.062 -1.43977 1.45227 0
M  V30 1646 H 167.217 -3.80881 0.707723 0
M  V30 1647 H 167.631 -4.4109 2.83795 0
M  V30 1648 H 169.105 -5.3391 1.40156 0
M  V30 1649 H 169.582 -4.392 -0.00563416 0
M  V30 1650 H 170.188 -3.93893 1.60402 0
M  V30 1651 N 168.503 -0.877838 -1.30888 0
M  V30 1652 C 169.728 -0.506629 -2.01117 0
M  V30 1653 C 170.153 0.895564 -1.65412 0
M  V30 1654 O 169.511 1.5923 -0.866922 0
M  V30 1655 C 169.559 -0.680223 -3.54126 0
M  V30 1656 O 168.663 0.277033 -4.11468 0
M  V30 1657 H 168.004 -0.200518 -0.633 0
M  V30 1658 H 170.534 -1.18342 -1.66902 0
M  V30 1659 H 170.544 -0.5765 -4.03907 0
M  V30 1660 H 169.219 -1.70261 -3.79452 0
M  V30 1661 H 167.796 0.127606 -3.72682 0
M  V30 1662 N 169.982 1.44106 -0.638065 0
M  V30 1663 C 170.892 2.34513 0.0637334 0
M  V30 1664 C 171.908 1.53018 0.828346 0
M  V30 1665 O 173.084 1.85723 0.779036 0
M  V30 1666 C 170.149 3.31095 1.02844 0
M  V30 1667 C 169.21 4.28497 0.26244 0
M  V30 1668 C 168.443 5.20465 1.1812 0
M  V30 1669 O 168.666 5.16514 2.42011 0
M  V30 1670 O 167.6 5.98251 0.661774 0
M  V30 1671 H 171.426 2.95989 -0.68003 0
M  V30 1672 H 169.011 1.43994 -0.398252 0
M  V30 1673 H 170.893 3.90526 1.58327 0
M  V30 1674 H 169.568 2.72144 1.7527 0
M  V30 1675 H 168.475 3.72592 -0.335602 0
M  V30 1676 H 169.808 4.90388 -0.421936 0
M  V30 1677 N 171.46 0.379036 1.52974 0
M  V30 1678 C 172.871 -0.0972525 1.86447 0
M  V30 1679 C 173.222 -1.47027 1.29914 0
M  V30 1680 O 172.347 -2.07135 0.626433 0
M  V30 1681 C 172.942 -0.183248 3.38304 0
M  V30 1682 C 171.501 -0.603812 3.71525 0
M  V30 1683 C 170.648 0.240632 2.76254 0
M  V30 1684 H 173.599 0.597316 1.4703 0
M  V30 1685 H 173.62 -1.00432 3.67006 0
M  V30 1686 H 173.132 0.816191 3.79421 0
M  V30 1687 H 171.233 -1.61099 3.35973 0
M  V30 1688 H 171.346 -0.369086 4.77676 0
M  V30 1689 H 169.71 -0.292548 2.53014 0
M  V30 1690 H 170.493 1.23786 3.20206 0
M  V30 1691 N 172.938 -1.57226 0.108567 0
M  V30 1692 C 173.901 -2.13602 -0.831082 0
M  V30 1693 C 174.901 -1.06841 -1.20173 0
M  V30 1694 O 176.091 -1.32666 -1.12895 0
M  V30 1695 C 173.223 -2.66769 -2.12243 0
M  V30 1696 H 174.416 -2.97951 -0.341317 0
M  V30 1697 H 171.969 -1.55667 -0.14057 0
M  V30 1698 H 172.704 -1.85977 -2.65675 0
M  V30 1699 H 172.489 -3.44839 -1.86625 0
M  V30 1700 H 173.979 -3.10332 -2.79435 0
M  V30 1701 N 174.416 0.165178 -1.56732 0
M  V30 1702 C 175.662 0.882112 -1.82611 0
M  V30 1703 C 175.995 1.81628 -0.687378 0
M  V30 1704 O 175.27 1.92009 0.310267 0
M  V30 1705 C 175.553 1.67245 -3.18906 0
M  V30 1706 C 175.406 0.760987 -4.43316 0
M  V30 1707 C 176.725 2.63884 -3.52212 0
M  V30 1708 H 173.844 0.319242 -0.664269 0
M  V30 1709 H 176.486 0.148052 -1.89422 0
M  V30 1710 H 174.636 2.29824 -3.1323 0
M  V30 1711 H 176.308 0.147596 -4.61064 0
M  V30 1712 H 174.551 0.0694102 -4.33744 0
M  V30 1713 H 175.222 1.34962 -5.35247 0
M  V30 1714 H 177.698 2.11429 -3.58381 0
M  V30 1715 H 176.574 3.16245 -4.48643 0
M  V30 1716 H 176.835 3.44377 -2.77231 0
M  V30 1717 N 175.894 1.51508 0.433938 0
M  V30 1718 C 177.305 1.56784 1.01369 0
M  V30 1719 C 177.656 0.393349 1.92217 0
M  V30 1720 O 176.781 -0.489441 2.10792 0
M  V30 1721 C 177.376 2.84144 1.8452 0
M  V30 1722 C 175.935 2.9198 2.37539 0
M  V30 1723 C 175.082 2.51482 1.16843 0
M  V30 1724 H 178.033 1.57236 0.215081 0
M  V30 1725 H 178.054 2.68098 2.70007 0
M  V30 1726 H 177.566 3.69607 1.18373 0
M  V30 1727 H 175.667 2.10955 3.0713 0
M  V30 1728 H 175.78 3.95704 2.70103 0
M  V30 1729 H 174.144 2.04758 1.51481 0
M  V30 1730 H 174.927 3.39293 0.523015 0
M  V30 1731 N 177.372 -0.689602 1.41712 0
M  V30 1732 C 178.783 -1.26973 1.36875 0
M  V30 1733 C 179.134 -1.96124 0.054748 0
M  V30 1734 O 178.259 -1.99141 -0.84687 0
M  V30 1735 C 178.854 -2.30912 2.47922 0
M  V30 1736 C 177.413 -2.84486 2.46464 0
M  V30 1737 C 176.56 -1.58603 2.27465 0
M  V30 1738 H 179.511 -0.48396 1.51141 0
M  V30 1739 H 179.532 -3.12331 2.17323 0
M  V30 1740 H 179.044 -1.80554 3.43543 0
M  V30 1741 H 177.145 -3.39005 1.54617 0
M  V30 1742 H 177.258 -3.34511 3.42986 0
M  V30 1743 H 175.622 -1.84632 1.75451 0
M  V30 1744 H 176.405 -1.10233 3.25121 0
M  V30 1745 N 178.85 -1.27639 -0.924453 0
M  V30 1746 C 179.76 -1.12466 -2.05885 0
M  V30 1747 C 180.776 -0.053869 -1.73917 0
M  V30 1748 O 181.952 -0.261012 -1.99702 0
M  V30 1749 C 179.017 -0.776768 -3.37886 0
M  V30 1750 C 178.078 -1.92878 -3.83532 0
M  V30 1751 C 177.311 -1.59739 -5.09234 0
M  V30 1752 O 177.534 -0.506782 -5.68144 0
M  V30 1753 O 176.468 -2.43761 -5.50331 0
M  V30 1754 H 180.294 -2.07671 -2.21599 0
M  V30 1755 H 177.879 -1.06857 -1.04413 0
M  V30 1756 H 179.761 -0.596229 -4.17161 0
M  V30 1757 H 178.436 0.145732 -3.23372 0
M  V30 1758 H 177.343 -2.1644 -3.0513 0
M  V30 1759 H 178.676 -2.8316 -4.02593 0
M  V30 1760 N 180.328 1.1314 -1.09713 0
M  V30 1761 C 181.238 2.22242 -0.751367 0
M  V30 1762 C 182.254 1.72224 0.247938 0
M  V30 1763 O 183.43 2.01205 0.0885463 0
M  V30 1764 C 180.495 3.46231 -0.180274 0
M  V30 1765 C 179.556 4.11125 -1.2359 0
M  V30 1766 C 178.789 5.29195 -0.691966 0
M  V30 1767 O 179.012 5.68342 0.48414 0
M  V30 1768 O 177.946 5.84214 -1.44838 0
M  V30 1769 H 181.772 2.54197 -1.66186 0
M  V30 1770 H 179.357 1.21331 -0.871735 0
M  V30 1771 H 181.239 4.21185 0.134739 0
M  V30 1772 H 179.914 3.1597 0.703185 0
M  V30 1773 H 178.821 3.37985 -1.60366 0
M  V30 1774 H 180.154 4.45524 -2.09211 0
M  V30 1775 N 181.806 0.884767 1.30421 0
M  V30 1776 C 182.769 0.356277 2.26414 0
M  V30 1777 C 183.769 -0.501124 1.52792 0
M  V30 1778 O 184.959 -0.30831 1.7145 0
M  V30 1779 C 182.091 -0.492316 3.37326 0
M  V30 1780 H 183.284 1.20389 2.74675 0
M  V30 1781 H 180.837 0.661607 1.41607 0
M  V30 1782 H 181.572 -1.36052 2.94381 0
M  V30 1783 H 181.357 0.121832 3.91911 0
M  V30 1784 H 182.847 -0.853871 4.08777 0
M  V30 1785 N 183.284 -1.43765 0.645699 0
M  V30 1786 C 184.194 -2.34544 -0.0512957 0
M  V30 1787 C 185.21 -1.53455 -0.82022 0
M  V30 1788 O 186.386 -1.86133 -0.769176 0
M  V30 1789 C 183.451 -3.31636 -1.01087 0
M  V30 1790 C 182.512 -4.2863 -0.239712 0
M  V30 1791 C 181.745 -5.21084 -1.15358 0
M  V30 1792 O 181.968 -5.1779 -2.39269 0
M  V30 1793 O 180.902 -5.98593 -0.630038 0
M  V30 1794 H 184.728 -2.95624 0.695718 0
M  V30 1795 H 182.313 -1.43781 0.405882 0
M  V30 1796 H 184.195 -3.9136 -1.56254 0
M  V30 1797 H 182.87 -2.73069 -1.73824 0
M  V30 1798 H 181.777 -3.72408 0.355356 0
M  V30 1799 H 183.11 -4.90157 0.447936 0
M  V30 1800 N 184.763 -0.387143 -1.52771 0
M  V30 1801 C 186.174 0.0873634 -1.86495 0
M  V30 1802 C 186.525 1.46336 -1.30691 0
M  V30 1803 O 185.65 2.068 -0.637409 0
M  V30 1804 C 186.245 0.165305 -3.38396 0
M  V30 1805 C 184.804 0.584101 -3.7184 0
M  V30 1806 C 183.951 -0.255279 -2.76122 0
M  V30 1807 H 186.902 -0.605104 -1.46711 0
M  V30 1808 H 186.923 0.984848 -3.67534 0
M  V30 1809 H 186.435 -0.836301 -3.78982 0
M  V30 1810 H 184.536 1.59315 -3.36823 0
M  V30 1811 H 184.649 0.343749 -4.77865 0
M  V30 1812 H 183.013 0.279126 -2.53166 0
M  V30 1813 H 183.796 -1.25482 -3.19545 0
M  V30 1814 N 186.241 1.57166 -0.116904 0
M  V30 1815 C 187.191 2.11756 0.845178 0
M  V30 1816 C 188.175 1.03783 1.22955 0
M  V30 1817 O 189.367 1.3002 1.20099 0
M  V30 1818 C 186.496 2.71886 2.09602 0
M  V30 1819 C 185.582 3.86937 1.7361 0
M  V30 1820 N 185.973 4.94073 1.08284 0
M  V30 1821 C 184.271 3.97082 2.03082 0
M  V30 1822 C 184.972 5.74477 0.913855 0
M  V30 1823 N 183.948 5.2423 1.43818 0
M  V30 1824 H 187.75 2.91967 0.336523 0
M  V30 1825 H 185.264 1.62174 0.0856332 0
M  V30 1826 H 187.261 3.09338 2.79492 0
M  V30 1827 H 185.921 1.93138 2.61013 0
M  V30 1828 H 186.932 5.12483 0.747067 0
M  V30 1829 H 183.609 3.29372 2.56554 0
M  V30 1830 H 184.999 6.70701 0.40125 0
M  V30 1831 N 187.719 -0.156864 1.56817 0
M  V30 1832 C 188.947 -0.886316 1.86955 0
M  V30 1833 C 189.362 -1.75185 0.703975 0
M  V30 1834 O 188.719 -1.79555 -0.326552 0
M  V30 1835 C 188.77 -1.75117 3.16253 0
M  V30 1836 O 188.491 -0.920537 4.2832 0
M  V30 1837 C 189.992 -2.58905 3.59837 0
M  V30 1838 H 187.212 -0.25678 0.619923 0
M  V30 1839 H 189.756 -0.152615 2.0393 0
M  V30 1840 H 187.911 -2.43805 3.01062 0
M  V30 1841 H 188.325 -1.51337 5.02192 0
M  V30 1842 H 189.799 -3.1518 4.53172 0
M  V30 1843 H 190.276 -3.34472 2.84649 0
M  V30 1844 H 190.882 -1.95526 3.7769 0
M  V30 1845 N 189.197 -1.51736 -0.425897 0
M  V30 1846 C 190.107 -1.76738 -1.54275 0
M  V30 1847 C 191.123 -0.65211 -1.61318 0
M  V30 1848 O 192.299 -0.935654 -1.78346 0
M  V30 1849 C 189.364 -1.89755 -2.90162 0
M  V30 1850 C 188.425 -3.13633 -2.93143 0
M  V30 1851 C 187.658 -3.2602 -4.22548 0
M  V30 1852 O 187.881 -2.44067 -5.15546 0
M  V30 1853 O 186.815 -4.19071 -4.32046 0
M  V30 1854 H 190.641 -2.71502 -1.36089 0
M  V30 1855 H 188.226 -1.36376 -0.610069 0
M  V30 1856 H 190.108 -2.00236 -3.70788 0
M  V30 1857 H 188.783 -0.981785 -3.08452 0
M  V30 1858 H 187.69 -3.08622 -2.11431 0
M  V30 1859 H 189.023 -4.04936 -2.798 0
M  V30 1860 N 190.675 0.682077 -1.42076 0
M  V30 1861 C 192.086 1.26246 -1.37546 0
M  V30 1862 C 192.437 1.96092 -0.0651481 0
M  V30 1863 O 191.562 1.99587 0.836297 0
M  V30 1864 C 192.157 2.29594 -2.49143 0
M  V30 1865 C 190.716 2.83175 -2.47969 0
M  V30 1866 C 189.863 1.57395 -2.28303 0
M  V30 1867 H 192.814 0.475937 -1.51395 0
M  V30 1868 H 192.835 3.11175 -2.18976 0
M  V30 1869 H 192.347 1.78729 -3.44496 0
M  V30 1870 H 190.448 3.3818 -1.56413 0
M  V30 1871 H 190.561 3.32687 -3.44755 0
M  V30 1872 H 188.925 1.83699 -1.76428 0
M  V30 1873 H 189.708 1.08507 -3.25701 0
M  V30 1874 N 192.153 1.28127 0.917671 0
M  V30 1875 C 193.063 1.13556 2.05286 0
M  V30 1876 C 194.079 0.0630914 1.73886 0
M  V30 1877 O 195.255 0.271598 1.9956 0
M  V30 1878 C 192.32 0.794676 3.3747 0
M  V30 1879 C 191.381 1.94909 3.82504 0
M  V30 1880 C 190.614 1.62437 5.0838 0
M  V30 1881 O 190.837 0.536905 5.67867 0
M  V30 1882 O 189.771 2.46677 5.4903 0
M  V30 1883 H 193.597 2.08844 2.20495 0
M  V30 1884 H 191.182 1.07409 1.03845 0
M  V30 1885 H 193.064 0.618344 4.16839 0
M  V30 1886 H 191.739 -0.128581 3.23445 0
M  V30 1887 H 190.646 2.18055 3.03978 0
M  V30 1888 H 191.979 2.85291 4.01086 0
M  V30 1889 N 193.631 -1.12557 1.10312 0
M  V30 1890 C 194.541 -2.21841 0.763142 0
M  V30 1891 C 195.557 -1.72354 -0.238801 0
M  V30 1892 O 196.733 -2.01249 -0.0778746 0
M  V30 1893 C 193.798 -3.46131 0.198632 0
M  V30 1894 C 192.859 -4.10464 1.25769 0
M  V30 1895 C 192.092 -5.28821 0.72002 0
M  V30 1896 O 192.315 -5.6859 -0.453993 0
M  V30 1897 O 191.249 -5.83437 1.47935 0
M  V30 1898 H 195.075 -2.53312 1.67532 0
M  V30 1899 H 192.66 -1.20867 0.878157 0
M  V30 1900 H 194.542 -4.2125 -0.112401 0
M  V30 1901 H 193.217 -3.16338 -0.686419 0
M  V30 1902 H 192.124 -3.3713 1.62156 0
M  V30 1903 H 193.457 -4.44408 2.11571 0
M  V30 1904 N 195.109 -0.891671 -1.2995 0
M  V30 1905 C 196.041 -0.320695 -2.26945 0
M  V30 1906 C 197.054 0.528497 -1.53983 0
M  V30 1907 O 198.243 0.346959 -1.75096 0
M  V30 1908 C 195.343 0.562066 -3.34207 0
M  V30 1909 C 194.516 -0.259576 -4.36629 0
M  V30 1910 C 193.575 0.554739 -5.23268 0
M  V30 1911 O 192.601 -0.0249311 -5.69195 0
M  V30 1912 N 193.803 1.8625 -5.4981 0
M  V30 1913 H 196.568 -1.15432 -2.76578 0
M  V30 1914 H 194.129 -0.755336 -1.432 0
M  V30 1915 H 196.121 1.11304 -3.89093 0
M  V30 1916 H 194.691 1.29637 -2.84452 0
M  V30 1917 H 193.911 -0.991986 -3.81514 0
M  V30 1918 H 195.199 -0.822564 -5.02107 0
M  V30 1919 H 194.597 2.35628 -5.14292 0
M  V30 1920 H 193.154 2.36078 -6.07545 0
M  V30 1921 N 196.587 1.43421 -0.653314 0
M  V30 1922 C 197.833 2.02111 -0.166992 0
M  V30 1923 C 198.166 1.51423 1.21592 0
M  V30 1924 O 197.441 0.707389 1.8118 0
M  V30 1925 C 197.724 3.5966 -0.177948 0
M  V30 1926 C 197.577 4.20579 -1.59478 0
M  V30 1927 C 198.896 4.37413 0.4856 0
M  V30 1928 H 196.015 0.734374 -0.0621557 0
M  V30 1929 H 198.657 1.70717 -0.834016 0
M  V30 1930 H 196.807 3.86537 0.390032 0
M  V30 1931 H 198.479 4.04732 -2.21336 0
M  V30 1932 H 196.722 3.77226 -2.14204 0
M  V30 1933 H 197.393 5.29665 -1.5543 0
M  V30 1934 H 199.869 4.161 0.00234528 0
M  V30 1935 H 198.745 5.47075 0.447207 0
M  V30 1936 H 199.006 4.13672 1.55974 0
M  V30 1937 N 198.065 0.39524 1.52563 0
M  V30 1938 C 199.476 -0.0774719 1.86539 0
M  V30 1939 C 199.827 -1.45641 1.31466 0
M  V30 1940 O 198.952 -2.06459 0.648367 0
M  V30 1941 C 199.547 -0.147356 3.38479 0
M  V30 1942 C 198.106 -0.564373 3.72145 0
M  V30 1943 C 197.253 0.269919 2.75983 0
M  V30 1944 H 200.204 0.612876 1.46388 0
M  V30 1945 H 200.225 -0.965343 3.68051 0
M  V30 1946 H 199.737 0.856387 3.78534 0
M  V30 1947 H 197.838 -1.57527 3.37663 0
M  V30 1948 H 197.951 -0.318402 4.78041 0
M  V30 1949 H 196.315 -0.265696 2.5331 0
M  V30 1950 H 197.098 1.27175 3.18875 0
M  V30 1951 N 199.544 -1.57102 0.125237 0
M  V30 1952 C 200.79 -1.95697 -0.532035 0
M  V30 1953 C 201.123 -1.009 -1.6593 0
M  V30 1954 O 200.398 -0.047347 -1.94442 0
M  V30 1955 C 200.681 -3.44181 -1.05884 0
M  V30 1956 C 200.534 -4.49752 0.0654392 0
M  V30 1957 C 201.853 -3.94655 -1.9477 0
M  V30 1958 H 198.972 -0.711571 -0.191925 0
M  V30 1959 H 201.614 -1.88923 0.20206 0
M  V30 1960 H 199.764 -3.50085 -1.68442 0
M  V30 1961 H 201.436 -4.55943 0.700982 0
M  V30 1962 H 199.679 -4.27653 0.727709 0
M  V30 1963 H 200.35 -5.50924 -0.344505 0
M  V30 1964 H 202.826 -3.91094 -1.42074 0
M  V30 1965 H 201.702 -4.99057 -2.28546 0
M  V30 1966 H 201.963 -3.35718 -2.87656 0
M  V30 1967 N 201.022 0.148545 -1.56898 0
M  V30 1968 C 201.932 1.20293 -2.01412 0
M  V30 1969 C 202.948 1.47107 -0.929273 0
M  V30 1970 O 204.124 1.58807 -1.23863 0
M  V30 1971 C 201.189 2.51682 -2.38447 0
M  V30 1972 C 200.25 2.32529 -3.60872 0
M  V30 1973 C 199.483 3.57653 -3.96132 0
M  V30 1974 O 199.706 4.63771 -3.32073 0
M  V30 1975 O 198.64 3.50408 -4.89385 0
M  V30 1976 H 202.466 0.855025 -2.91416 0
M  V30 1977 H 200.051 0.357151 -1.45068 0
M  V30 1978 H 201.933 3.29147 -2.63135 0
M  V30 1979 H 200.608 2.86006 -1.51599 0
M  V30 1980 H 199.515 1.53019 -3.41373 0
M  V30 1981 H 200.848 2.03121 -4.48333 0
M  V30 1982 N 202.5 1.5196 0.417844 0
M  V30 1983 C 203.463 1.74065 1.49111 0
M  V30 1984 C 204.463 0.610537 1.48758 0
M  V30 1985 O 205.653 0.87832 1.50437 0
M  V30 1986 C 202.785 1.81502 2.88565 0
M  V30 1987 H 203.978 2.69869 1.30807 0
M  V30 1988 H 201.531 1.42244 0.647785 0
M  V30 1989 H 202.266 0.875813 3.1225 0
M  V30 1990 H 202.051 2.63651 2.90225 0
M  V30 1991 H 203.541 2.00376 3.66387 0
M  V30 1992 N 203.978 -0.674533 1.42435 0
M  V30 1993 C 204.888 -1.81751 1.48337 0
M  V30 1994 C 205.904 -1.69975 0.372099 0
M  V30 1995 O 207.08 -1.91521 0.62304 0
M  V30 1996 C 204.145 -3.17895 1.38361 0
M  V30 1997 C 203.206 -3.41625 2.59982 0
M  V30 1998 C 202.439 -4.71274 2.50473 0
M  V30 1999 O 202.662 -5.49197 1.54075 0
M  V30 2000 O 201.596 -4.96254 3.4061 0
M  V30 2001 H 205.422 -1.79728 2.44809 0
M  V30 2002 H 203.007 -0.830312 1.24202 0
M  V30 2003 H 204.889 -3.99136 1.35161 0
M  V30 2004 H 203.564 -3.20555 0.450144 0
M  V30 2005 H 202.471 -2.60231 2.68757 0
M  V30 2006 H 203.804 -3.43796 3.52229 0
M  V30 2007 N 205.456 -1.28612 -0.910864 0
M  V30 2008 C 206.867 -1.14406 -1.47541 0
M  V30 2009 C 207.218 0.264901 -1.94403 0
M  V30 2010 O 206.343 1.15942 -1.82719 0
M  V30 2011 C 206.938 -2.07073 -2.68153 0
M  V30 2012 C 205.497 -1.96923 -3.20778 0
M  V30 2013 C 204.644 -1.98646 -1.93481 0
M  V30 2014 H 207.595 -1.41259 -0.723291 0
M  V30 2015 H 207.616 -1.63642 -3.43514 0
M  V30 2016 H 207.128 -3.09611 -2.34015 0
M  V30 2017 H 205.229 -0.97433 -3.59635 0
M  V30 2018 H 205.342 -2.84026 -3.85832 0
M  V30 2019 H 203.706 -1.43093 -2.10705 0
M  V30 2020 H 204.489 -3.02868 -1.61634 0
M  V30 2021 N 206.934 1.1197 -1.10907 0
M  V30 2022 C 207.866 2.17592 -0.720175 0
M  V30 2023 C 208.879 1.60938 0.245495 0
M  V30 2024 O 210.068 1.78476 0.0292245 0
M  V30 2025 C 207.168 3.38873 -0.0427917 0
M  V30 2026 C 206.341 4.25006 -1.03388 0
M  V30 2027 C 205.4 5.24774 -0.387075 0
M  V30 2028 O 204.426 5.59631 -1.03934 0
M  V30 2029 N 205.628 5.74208 0.852407 0
M  V30 2030 H 208.393 2.51567 -1.62893 0
M  V30 2031 H 205.954 1.27439 -0.998543 0
M  V30 2032 H 207.946 4.02703 0.401501 0
M  V30 2033 H 206.516 3.03007 0.768456 0
M  V30 2034 H 205.736 3.57716 -1.65629 0
M  V30 2035 H 207.024 4.79397 -1.70458 0
M  V30 2036 H 206.422 5.48062 1.40161 0
M  V30 2037 H 204.979 6.39901 1.23977 0
M  V30 2038 N 208.412 0.89855 1.29475 0
M  V30 2039 C 209.36 0.365253 2.29714 0
M  V30 2040 C 210.354 -0.534993 1.6073 0
M  V30 2041 O 211.56 -0.417921 1.75081 0
M  V30 2042 H 207.935 0.0994853 0.74539 0
M  V30 2043 H 209.906 1.22406 2.72138 0
M  V30 2044 C 208.655 -0.393159 3.4547 0
M  V30 2045 H 207.978 0.290332 3.98744 0
M  V30 2046 H 209.418 -0.731189 4.17648 0
M  V30 2047 C 207.877 -1.59539 2.9673 0
M  V30 2048 O 208.407 -2.69469 2.97908 0
M  V30 2049 N 206.613 -1.43716 2.52575 0
M  V30 2050 H 206.16 -0.542828 2.51816 0
M  V30 2051 H 206.118 -2.24288 2.20323 0
M  V30 2052 N 209.89 -1.43072 0.660911 0
M  V30 2053 C 211.139 -2.00942 0.174735 0
M  V30 2054 C 211.452 -1.52797 -1.22117 0
M  V30 2055 O 212.658 -2.02991 -1.80297 0
M  V30 2056 C 211.114 -3.58948 0.261559 0
M  V30 2057 C 210.722 -4.16085 1.66064 0
M  V30 2058 C 212.466 -4.24173 -0.166617 0
M  V30 2059 C 210.373 -5.6641 1.70098 0
M  V30 2060 H 209.303 -0.751483 0.0615631 0
M  V30 2061 H 211.954 -1.63955 0.824069 0
M  V30 2062 H 210.336 -3.93372 -0.455421 0
M  V30 2063 H 211.51 -3.93147 2.40359 0
M  V30 2064 H 209.825 -3.6326 2.03546 0
M  V30 2065 H 212.422 -5.34471 -0.156433 0
M  V30 2066 H 212.765 -3.98647 -1.19943 0
M  V30 2067 H 213.298 -3.94659 0.498875 0
M  V30 2068 H 210.037 -5.96715 2.71315 0
M  V30 2069 H 209.557 -5.91382 1.00139 0
M  V30 2070 H 211.236 -6.30585 1.44816 0
M  V30 2071 N 211.368 -0.403325 -1.52352 0
M  V30 2072 C 212.278 0.432009 -2.30588 0
M  V30 2073 C 213.294 1.05884 -1.38075 0
M  V30 2074 O 214.47 1.06161 -1.71148 0
M  V30 2075 C 211.535 1.53669 -3.10784 0
M  V30 2076 C 210.596 0.933525 -4.19027 0
M  V30 2077 C 209.829 1.98557 -4.9539 0
M  V30 2078 O 210.052 3.20283 -4.71991 0
M  V30 2079 O 208.986 1.59504 -5.80381 0
M  V30 2080 H 212.812 -0.205739 -3.03002 0
M  V30 2081 H 210.397 -0.166675 -1.48467 0
M  V30 2082 H 212.279 2.17814 -3.60742 0
M  V30 2083 H 210.954 2.15915 -2.41169 0
M  V30 2084 H 209.861 0.254954 -3.7323 0
M  V30 2085 H 211.194 0.35508 -4.90918 0
M  V30 2086 N 212.846 1.57033 -0.133567 0
M  V30 2087 C 214.123 1.87256 0.56522 0
M  V30 2088 C 214.503 1.03726 1.83859 0
M  V30 2089 O 213.851 0.120247 2.28183 0
M  V30 2090 C 214.061 3.3865 0.843636 0
M  V30 2091 C 215.409 4.07574 1.19032 0
M  V30 2092 O 216.433 3.43752 0.933429 0
M  V30 2093 O 215.292 5.20259 1.67312 0
M  V30 2094 H 212.386 0.775678 0.286796 0
M  V30 2095 H 214.932 1.68855 -0.169168 0
M  V30 2096 H 213.704 3.91257 -0.0581149 0
M  V30 2097 H 213.327 3.62532 1.63268 0
M  V30 2098 N 214.325 -0.140222 1.56975 0
M  V30 2099 C 215.235 -1.19223 2.02047 0
M  V30 2100 C 216.251 -1.46612 0.937062 0
M  V30 2101 O 217.427 -1.58148 1.24704 0
M  V30 2102 C 214.492 -2.50414 2.39778 0
M  V30 2103 C 213.553 -2.30612 3.621 0
M  V30 2104 C 212.786 -3.55547 3.98023 0
M  V30 2105 O 213.009 -4.62004 3.34528 0
M  V30 2106 O 211.943 -3.47808 4.91237 0
M  V30 2107 H 215.769 -0.839559 2.91865 0
M  V30 2108 H 213.354 -0.349453 1.45256 0
M  V30 2109 H 215.236 -3.27747 2.64877 0
M  V30 2110 H 213.911 -2.85198 1.53114 0
M  V30 2111 H 212.818 -1.51207 3.4218 0
M  V30 2112 H 214.151 -2.00741 4.49404 0
M  V30 2113 N 215.803 -1.52179 -0.40978 0
M  V30 2114 C 216.766 -1.74853 -1.48186 0
M  V30 2115 C 217.766 -0.618417 -1.48433 0
M  V30 2116 O 218.956 -0.886286 -1.49969 0
M  V30 2117 C 216.088 -1.8303 -2.87598 0
M  V30 2118 H 217.281 -2.70559 -1.29374 0
M  V30 2119 H 214.834 -1.42586 -0.640233 0
M  V30 2120 H 215.569 -0.89236 -3.11781 0
M  V30 2121 H 215.354 -2.65187 -2.88822 0
M  V30 2122 H 216.844 -2.02316 -3.65319 0
M  V30 2123 N 217.281 0.66697 -1.42791 0
M  V30 2124 C 218.228 1.7803 -1.4688 0
M  V30 2125 C 219.198 1.6299 -0.319919 0
M  V30 2126 O 220.383 1.83432 -0.525118 0
M  V30 2127 C 217.523 3.1611 -1.38451 0
M  V30 2128 C 216.636 3.42381 -2.63437 0
M  V30 2129 C 215.771 4.70232 -2.47094 0
M  V30 2130 C 214.81 4.89564 -3.67415 0
M  V30 2131 N 213.947 6.08661 -3.49966 0
M  V30 2132 H 218.787 1.7387 -2.42019 0
M  V30 2133 H 216.324 0.84868 -1.20149 0
M  V30 2134 H 218.282 3.95914 -1.31561 0
M  V30 2135 H 216.912 3.19374 -0.469033 0
M  V30 2136 H 215.964 2.56774 -2.80662 0
M  V30 2137 H 217.276 3.52557 -3.52853 0
M  V30 2138 H 216.43 5.5814 -2.37834 0
M  V30 2139 H 215.169 4.62353 -1.5518 0
M  V30 2140 H 214.174 4.00096 -3.77099 0
M  V30 2141 H 215.399 4.99282 -4.6032 0
M  V30 2142 H 213.345 6.0194 -2.60776 0
M  V30 2143 H 213.262 6.19733 -4.32975 0
M  V30 2144 H 214.53 6.99226 -3.44532 0
M  V30 2145 N 218.759 1.29093 0.90403 0
M  V30 2146 C 219.669 1.15727 2.0407 0
M  V30 2147 C 220.685 0.0815308 1.73809 0
M  V30 2148 O 221.861 0.292749 1.99261 0
M  V30 2149 C 218.926 0.830424 3.36608 0
M  V30 2150 C 217.987 1.98955 3.80415 0
M  V30 2151 C 217.22 1.6782 5.06628 0
M  V30 2152 O 217.443 0.597105 5.67266 0
M  V30 2153 O 216.377 2.52486 5.46383 0
M  V30 2154 H 220.203 2.11171 2.18267 0
M  V30 2155 H 217.788 1.08504 1.027 0
M  V30 2156 H 219.67 0.662521 4.16159 0
M  V30 2157 H 218.345 -0.0942678 3.23563 0
M  V30 2158 H 217.252 2.21267 3.01648 0
M  V30 2159 H 218.585 2.89529 3.98037 0
M  V30 2160 N 220.237 -1.11381 1.11499 0
M  V30 2161 C 221.169 -2.17207 0.731704 0
M  V30 2162 C 222.182 -1.61066 -0.236957 0
M  V30 2163 O 223.371 -1.78489 -0.0197591 0
M  V30 2164 C 220.471 -3.38846 0.0607624 0
M  V30 2165 C 219.644 -4.24451 1.0564 0
M  V30 2166 C 218.703 -5.24562 0.4149 0
M  V30 2167 O 217.729 -5.59071 1.069 0
M  V30 2168 N 218.931 -5.74651 -0.821943 0
M  V30 2169 H 221.696 -2.50699 1.64225 0
M  V30 2170 H 219.257 -1.26908 1.00529 0
M  V30 2171 H 221.249 -4.02911 -0.380139 0
M  V30 2172 H 219.819 -3.03411 -0.752376 0
M  V30 2173 H 219.039 -3.56833 1.67524 0
M  V30 2174 H 220.327 -4.78486 1.72998 0
M  V30 2175 H 219.725 -5.48797 -1.37252 0
M  V30 2176 H 218.282 -6.40549 -1.20582 0
M  V30 2177 N 221.715 -0.905404 -1.28997 0
M  V30 2178 C 222.964 -0.530191 -1.94607 0
M  V30 2179 C 223.277 0.929185 -1.72121 0
M  V30 2180 O 224.483 1.41218 -2.31883 0
M  V30 2181 C 222.939 -0.897333 -3.48534 0
M  V30 2182 C 222.547 -2.37587 -3.79811 0
M  V30 2183 C 224.291 -0.592304 -4.20347 0
M  V30 2184 C 222.198 -2.68357 -5.27009 0
M  V30 2185 H 221.128 -0.194558 -0.728466 0
M  V30 2186 H 223.779 -1.10318 -1.46636 0
M  V30 2187 H 222.161 -0.253214 -3.9519 0
M  V30 2188 H 223.335 -3.06602 -3.43994 0
M  V30 2189 H 221.65 -2.6505 -3.2115 0
M  V30 2190 H 224.247 -0.798975 -5.28697 0
M  V30 2191 H 224.59 0.469474 -4.13644 0
M  V30 2192 H 225.123 -1.19452 -3.79442 0
M  V30 2193 H 221.862 -3.73355 -5.38782 0
M  V30 2194 H 221.382 -2.03971 -5.64053 0
M  V30 2195 H 223.061 -2.54922 -5.94663 0
M  V30 2196 N 223.193 1.4272 -0.668489 0
M  V30 2197 C 224.125 2.2914 0.052613 0
M  V30 2198 C 225.138 1.43339 0.771857 0
M  V30 2199 O 226.327 1.67123 0.627067 0
M  V30 2200 C 223.427 3.20618 1.09804 0
M  V30 2201 C 222.6 4.35039 0.45389 0
M  V30 2202 C 221.659 5.07282 1.39825 0
M  V30 2203 O 220.685 5.62024 0.900978 0
M  V30 2204 N 221.887 5.12206 2.73176 0
M  V30 2205 H 224.652 2.91668 -0.689209 0
M  V30 2206 H 222.213 1.53577 -0.512422 0
M  V30 2207 H 224.205 3.65815 1.73094 0
M  V30 2208 H 222.775 2.59585 1.74167 0
M  V30 2209 H 221.995 3.92567 -0.358396 0
M  V30 2210 H 223.283 5.088 0.00486972 0
M  V30 2211 H 222.681 4.6913 3.16122 0
M  V30 2212 H 221.238 5.61069 3.31729 0
M  V30 2213 N 224.671 0.411399 1.52136 0
M  V30 2214 C 225.896 -0.165538 2.06738 0
M  V30 2215 C 226.321 -1.379 1.27926 0
M  V30 2216 O 225.679 -1.78628 0.310114 0
M  V30 2217 C 225.727 -0.492124 3.57226 0
M  V30 2218 O 224.831 -1.58276 3.80818 0
M  V30 2219 H 224.172 -0.0132132 0.663869 0
M  V30 2220 H 226.702 0.585253 1.96051 0
M  V30 2221 H 226.712 -0.750104 4.01045 0
M  V30 2222 H 225.387 0.394922 4.14021 0
M  V30 2223 H 223.964 -1.31677 3.48877 0
M  V30 2224 N 226.149 -1.5696 0.141893 0
M  V30 2225 C 227.079 -2.19516 -0.795936 0
M  V30 2226 C 228.06 -1.14187 -1.26077 0
M  V30 2227 O 229.245 -1.42511 -1.31925 0
M  V30 2228 C 226.375 -2.81272 -2.03723 0
M  V30 2229 C 225.329 -3.92384 -1.70936 0
M  V30 2230 C 224.655 -4.41052 -3.02287 0
M  V30 2231 C 225.955 -5.13403 -0.959954 0
M  V30 2232 H 227.649 -2.98138 -0.274596 0
M  V30 2233 H 225.195 -1.43406 -0.130636 0
M  V30 2234 H 227.148 -3.237 -2.69808 0
M  V30 2235 H 225.872 -1.99973 -2.58221 0
M  V30 2236 H 224.531 -3.50566 -1.07232 0
M  V30 2237 H 224.179 -3.56582 -3.54765 0
M  V30 2238 H 223.879 -5.15993 -2.81114 0
M  V30 2239 H 225.403 -4.86146 -3.69451 0
M  V30 2240 H 226.817 -5.52706 -1.52279 0
M  V30 2241 H 225.214 -5.94073 -0.848357 0
M  V30 2242 H 226.284 -4.84875 0.0492434 0
M  V30 2243 N 227.627 0.131896 -1.57047 0
M  V30 2244 C 228.557 1.16384 -2.02428 0
M  V30 2245 C 229.538 1.43936 -0.90644 0
M  V30 2246 O 230.723 1.54599 -1.17528 0
M  V30 2247 C 227.853 2.49328 -2.4177 0
M  V30 2248 C 226.807 2.36266 -3.56879 0
M  V30 2249 C 226.133 3.74057 -3.8208 0
M  V30 2250 C 227.433 1.834 -4.89042 0
M  V30 2251 H 229.127 0.786433 -2.88887 0
M  V30 2252 H 226.673 0.376855 -1.38981 0
M  V30 2253 H 228.626 3.21759 -2.7212 0
M  V30 2254 H 227.35 2.88934 -1.52266 0
M  V30 2255 H 226.009 1.66286 -3.26718 0
M  V30 2256 H 225.657 4.11125 -2.89803 0
M  V30 2257 H 225.357 3.66174 -4.59554 0
M  V30 2258 H 226.881 4.48012 -4.1487 0
M  V30 2259 H 228.295 2.45636 -5.18011 0
M  V30 2260 H 226.692 1.8637 -5.70426 0
M  V30 2261 H 227.762 0.790662 -4.7841 0
M  V30 2262 N 229.106 1.52395 0.401703 0
M  V30 2263 C 230.056 1.72649 1.48917 0
M  V30 2264 C 231.04 0.580436 1.50066 0
M  V30 2265 O 232.232 0.83779 1.55917 0
M  V30 2266 C 229.361 1.88729 2.86769 0
M  V30 2267 C 228.447 3.09228 2.90239 0
M  V30 2268 N 228.838 4.31805 2.63396 0
M  V30 2269 C 227.136 3.09214 3.21408 0
M  V30 2270 C 227.837 5.13326 2.73625 0
M  V30 2271 N 226.813 4.48735 3.06819 0
M  V30 2272 H 230.615 2.65058 1.26971 0
M  V30 2273 H 228.129 1.50528 0.609504 0
M  V30 2274 H 230.126 2.01358 3.65049 0
M  V30 2275 H 228.786 0.975252 3.09708 0
M  V30 2276 H 229.797 4.60154 2.37653 0
M  V30 2277 H 226.474 2.27774 3.49893 0
M  V30 2278 H 227.864 6.21003 2.56524 0
M  V30 2279 N 230.584 -0.659388 1.43143 0
M  V30 2280 C 231.494 -1.80167 1.50256 0
M  V30 2281 C 232.51 -1.69571 0.390106 0
M  V30 2282 O 233.686 -1.90849 0.643319 0
M  V30 2283 C 230.751 -3.16409 1.41725 0
M  V30 2284 C 229.812 -3.38848 2.63591 0
M  V30 2285 C 229.045 -4.68591 2.55458 0
M  V30 2286 O 229.268 -5.47532 1.59891 0
M  V30 2287 O 228.202 -4.92614 3.45854 0
M  V30 2288 H 232.028 -1.77121 2.46702 0
M  V30 2289 H 229.613 -0.817092 1.25076 0
M  V30 2290 H 231.495 -3.9768 1.39387 0
M  V30 2291 H 230.17 -3.20059 0.484118 0
M  V30 2292 H 229.077 -2.57366 2.71502 0
M  V30 2293 H 230.41 -3.4004 3.55856 0
M  V30 2294 N 232.062 -1.29571 -0.897171 0
M  V30 2295 C 232.995 -1.0924 -2.00354 0
M  V30 2296 C 233.973 -0.00354011 -1.626 0
M  V30 2297 O 235.157 -0.15473 -1.87864 0
M  V30 2298 C 232.284 -0.66352 -3.32137 0
M  V30 2299 C 231.33 -1.75146 -3.88878 0
M  V30 2300 S 232.163 -3.35124 -4.17674 0
M  V30 2301 C 233.319 -2.9411 -5.52494 0
M  V30 2302 H 233.552 -2.02907 -2.17292 0
M  V30 2303 H 231.085 -1.13746 -1.04408 0
M  V30 2304 H 233.043 -0.422791 -4.08317 0
M  V30 2305 H 231.704 0.253588 -3.13075 0
M  V30 2306 H 230.897 -1.40337 -4.84068 0
M  V30 2307 H 230.499 -1.94584 -3.19395 0
M  V30 2308 H 232.791 -2.41312 -6.33068 0
M  V30 2309 H 233.734 -3.88161 -5.9223 0
M  V30 2310 H 234.142 -2.32332 -5.14473 0
M  V30 2311 N 233.54 1.10788 -1.12088 0
M  V30 2312 C 234.786 1.82942 -0.875226 0
M  V30 2313 C 235.119 1.84779 0.597538 0
M  V30 2314 O 234.394 1.30578 1.44152 0
M  V30 2315 C 234.677 3.29789 -1.44606 0
M  V30 2316 C 234.53 3.36307 -2.98693 0
M  V30 2317 C 235.849 4.26064 -1.10261 0
M  V30 2318 H 232.968 0.664195 -0.319397 0
M  V30 2319 H 235.61 1.29867 -1.38689 0
M  V30 2320 H 233.76 3.75118 -1.01089 0
M  V30 2321 H 235.432 2.99487 -3.50864 0
M  V30 2322 H 233.675 2.76318 -3.34411 0
M  V30 2323 H 234.346 4.39694 -3.33726 0
M  V30 2324 H 236.822 3.88951 -1.4784 0
M  V30 2325 H 235.698 5.27183 -1.52869 0
M  V30 2326 H 235.959 4.42098 -0.0142953 0
M  V30 2327 N 235.018 0.912232 1.28515 0
M  V30 2328 C 235.968 0.370649 2.24967 0
M  V30 2329 C 236.952 -0.516375 1.52389 0
M  V30 2330 O 238.144 -0.356345 1.73376 0
M  V30 2331 C 235.273 -0.389526 3.41083 0
M  V30 2332 C 234.359 0.51313 4.20984 0
M  V30 2333 N 234.75 1.62604 4.78951 0
M  V30 2334 C 233.048 0.313235 4.44899 0
M  V30 2335 C 233.749 2.18619 5.39055 0
M  V30 2336 N 232.725 1.47765 5.23132 0
M  V30 2337 H 236.527 1.22061 2.67354 0
M  V30 2338 H 234.041 0.764712 1.43269 0
M  V30 2339 H 236.038 -0.794353 4.09262 0
M  V30 2340 H 234.698 -1.2366 3.0023 0
M  V30 2341 H 235.709 2.00864 4.77362 0
M  V30 2342 H 232.386 -0.494452 4.14562 0
M  V30 2343 H 233.776 3.12228 5.94948 0
M  V30 2344 N 236.496 -1.42363 0.676048 0
M  V30 2345 C 237.459 -2.29199 0.00766941 0
M  V30 2346 C 238.459 -1.43389 -0.727745 0
M  V30 2347 O 239.649 -1.64764 -0.56556 0
M  V30 2348 C 236.781 -3.2591 -0.999785 0
M  V30 2349 H 237.974 -2.89794 0.771988 0
M  V30 2350 H 235.527 -1.50024 0.438468 0
M  V30 2351 H 236.262 -2.70256 -1.79255 0
M  V30 2352 H 236.047 -3.89202 -0.475829 0
M  V30 2353 H 237.537 -3.91028 -1.46583 0
M  V30 2354 N 237.974 -0.419461 -1.51915 0
M  V30 2355 C 238.884 0.407528 -2.31033 0
M  V30 2356 C 239.9 1.04413 -1.3919 0
M  V30 2357 O 241.076 1.0434 -1.72265 0
M  V30 2358 C 238.141 1.50365 -3.12396 0
M  V30 2359 C 237.202 0.889029 -4.19994 0
M  V30 2360 C 236.435 1.93291 -4.97468 0
M  V30 2361 O 236.658 3.15259 -4.75361 0
M  V30 2362 O 235.592 1.53339 -5.8204 0
M  V30 2363 H 239.418 -0.237865 -3.02767 0
M  V30 2364 H 237.003 -0.182413 -1.48282 0
M  V30 2365 H 238.885 2.13975 -3.63032 0
M  V30 2366 H 237.56 2.13345 -2.43445 0
M  V30 2367 H 236.467 0.215353 -3.7348 0
M  V30 2368 H 237.8 0.302991 -4.91267 0
M  V30 2369 N 239.452 1.56882 -0.150215 0
M  V30 2370 C 240.402 2.13501 0.800071 0
M  V30 2371 C 241.386 1.06368 1.20726 0
M  V30 2372 O 242.578 1.32538 1.17314 0
M  V30 2373 C 239.707 2.76271 2.03787 0
M  V30 2374 C 238.793 3.90533 1.65364 0
M  V30 2375 N 239.184 4.96259 0.977794 0
M  V30 2376 C 237.482 4.013 1.94613 0
M  V30 2377 C 238.183 5.76286 0.791794 0
M  V30 2378 N 237.159 5.27163 1.32666 0
M  V30 2379 H 240.961 2.92615 0.274517 0
M  V30 2380 H 238.475 1.62319 0.0512144 0
M  V30 2381 H 240.472 3.15197 2.72867 0
M  V30 2382 H 239.132 1.98631 2.56857 0
M  V30 2383 H 240.143 5.13953 0.638193 0
M  V30 2384 H 236.82 3.3474 2.4951 0
M  V30 2385 H 238.21 6.71401 0.258894 0
M  V30 2386 N 240.93 -0.123565 1.57115 0
M  V30 2387 C 242.176 -0.833386 1.84885 0
M  V30 2388 C 242.509 -1.79742 0.735292 0
M  V30 2389 O 241.784 -1.92764 -0.25925 0
M  V30 2390 C 242.067 -1.5873 3.23228 0
M  V30 2391 C 241.92 -0.643183 4.45178 0
M  V30 2392 C 243.239 -2.54453 3.59085 0
M  V30 2393 H 240.358 -0.301518 0.6725 0
M  V30 2394 H 243 -0.097778 1.89748 0
M  V30 2395 H 241.15 -2.21438 3.19214 0
M  V30 2396 H 242.822 -0.0253015 4.61293 0
M  V30 2397 H 241.065 0.0456139 4.33776 0
M  V30 2398 H 241.736 -1.20724 5.38637 0
M  V30 2399 H 244.212 -2.01853 3.63861 0
M  V30 2400 H 243.088 -3.04238 4.5687 0
M  V30 2401 H 243.349 -3.36906 2.86264 0
M  V30 2402 N 242.408 -1.52605 -0.393616 0
M  V30 2403 C 243.318 -1.79971 -1.50492 0
M  V30 2404 C 244.334 -0.686181 -1.59899 0
M  V30 2405 O 245.51 -0.973274 -1.76322 0
M  V30 2406 C 242.575 -1.95867 -2.86072 0
M  V30 2407 C 241.636 -3.19781 -2.86424 0
M  V30 2408 C 240.869 -3.34909 -4.15538 0
M  V30 2409 O 241.092 -2.54948 -5.10253 0
M  V30 2410 O 240.026 -4.28141 -4.23059 0
M  V30 2411 H 243.852 -2.74328 -1.30299 0
M  V30 2412 H 241.437 -1.3764 -0.581005 0
M  V30 2413 H 243.319 -2.08056 -3.66457 0
M  V30 2414 H 241.994 -1.04699 -3.063 0
M  V30 2415 H 240.901 -3.13038 -2.04837 0
M  V30 2416 H 242.234 -4.1078 -2.71147 0
M  V30 2417 N 243.887 0.651787 -1.4349 0
M  V30 2418 C 245.135 1.40888 -1.44897 0
M  V30 2419 C 245.456 1.94856 -0.0749086 0
M  V30 2420 O 244.726 1.74518 0.889956 0
M  V30 2421 H 243.306 0.522887 -0.533478 0
M  V30 2422 H 245.968 0.768609 -1.79104 0
M  V30 2423 H 245.064 2.25052 -2.16236 0
M  V30 2424 N 245.365 1.30045 0.890287 0
M  V30 2425 C 246.275 1.17885 2.02831 0
M  V30 2426 C 247.291 0.0999609 1.73713 0
M  V30 2427 O 248.467 0.313867 1.98939 0
M  V30 2428 C 245.532 0.866079 3.35708 0
M  V30 2429 C 244.593 2.02979 3.78283 0
M  V30 2430 C 243.826 1.73184 5.0482 0
M  V30 2431 O 244.049 0.657237 5.66601 0
M  V30 2432 O 242.983 2.58267 5.43674 0
M  V30 2433 H 246.809 2.13474 2.16015 0
M  V30 2434 H 244.394 1.09587 1.01543 0
M  V30 2435 H 246.276 0.706623 4.15433 0
M  V30 2436 H 244.951 -0.0599443 3.23644 0
M  V30 2437 H 243.858 2.24454 2.99285 0
M  V30 2438 H 245.191 2.93734 3.94944 0
M  V30 2439 N 246.843 -1.10192 1.12674 0
M  V30 2440 C 248.12 -1.78717 0.794965 0
M  V30 2441 C 248.5 -1.98628 -0.714853 0
M  V30 2442 O 247.848 -1.58135 -1.64941 0
M  V30 2443 C 248.058 -3.11546 1.5729 0
M  V30 2444 C 249.406 -3.86382 1.76052 0
M  V30 2445 O 250.43 -3.21274 1.53823 0
M  V30 2446 O 249.289 -5.03246 2.13087 0
M  V30 2447 H 246.383 -0.774702 0.289423 0
M  V30 2448 H 248.929 -1.16819 1.23091 0
M  V30 2449 H 247.701 -2.92489 2.59935 0
M  V30 2450 H 247.324 -3.81164 1.13137 0
M  V30 2451 N 248.321 -0.919034 -1.28029 0
M  V30 2452 C 249.251 -0.428581 -2.29533 0
M  V30 2453 C 250.232 0.50659 -1.62381 0
M  V30 2454 O 251.417 0.413195 -1.89753 0
M  V30 2455 C 248.547 0.327388 -3.45753 0
M  V30 2456 C 247.501 -0.519137 -4.2484 0
M  V30 2457 C 246.827 0.365486 -5.33449 0
M  V30 2458 C 248.127 -1.77914 -4.91064 0
M  V30 2459 H 249.821 -1.27687 -2.70807 0
M  V30 2460 H 247.367 -0.615428 -1.30186 0
M  V30 2461 H 249.32 0.681378 -4.15855 0
M  V30 2462 H 248.044 1.20963 -3.03374 0
M  V30 2463 H 246.703 -0.855717 -3.56473 0
M  V30 2464 H 246.351 1.24642 -4.87312 0
M  V30 2465 H 246.051 -0.197356 -5.87268 0
M  V30 2466 H 247.575 0.715241 -6.06396 0
M  V30 2467 H 248.989 -1.49374 -5.53498 0
M  V30 2468 H 247.386 -2.2848 -5.54903 0
M  V30 2469 H 248.456 -2.50382 -4.15255 0
M  V30 2470 N 249.799 1.42003 -0.683588 0
M  V30 2471 C 250.731 2.29183 0.0283068 0
M  V30 2472 C 251.744 1.4415 0.756611 0
M  V30 2473 O 252.933 1.67779 0.609306 0
M  V30 2474 C 250.033 3.21765 1.06398 0
M  V30 2475 C 249.206 4.35496 0.407723 0
M  V30 2476 C 248.265 5.08737 1.34437 0
M  V30 2477 O 247.291 5.62948 0.841318 0
M  V30 2478 N 248.493 5.15075 2.67728 0
M  V30 2479 H 251.258 2.9092 -0.720105 0
M  V30 2480 H 248.819 1.53025 -0.528682 0
M  V30 2481 H 250.811 3.6763 1.69204 0
M  V30 2482 H 249.381 2.61418 1.71404 0
M  V30 2483 H 248.601 3.92165 -0.400012 0
M  V30 2484 H 249.889 5.08776 -0.0490956 0
M  V30 2485 H 249.287 4.72457 3.11129 0
M  V30 2486 H 247.844 5.64556 3.2576 0
M  V30 2487 N 251.277 0.427512 1.51691 0
M  V30 2488 C 252.209 -0.424521 2.25234 0
M  V30 2489 C 253.222 -0.994671 1.2888 0
M  V30 2490 O 254.411 -0.890483 1.54702 0
M  V30 2491 C 251.511 -1.60479 2.98496 0
M  V30 2492 C 250.684 -1.15527 4.21868 0
M  V30 2493 C 249.743 -2.20454 4.77793 0
M  V30 2494 O 248.769 -1.8029 5.39893 0
M  V30 2495 N 249.971 -3.52831 4.60967 0
M  V30 2496 H 252.736 0.205749 2.98993 0
M  V30 2497 H 250.297 0.255867 1.59865 0
M  V30 2498 H 252.289 -2.30276 3.32799 0
M  V30 2499 H 250.859 -2.14061 2.27809 0
M  V30 2500 H 250.079 -0.284736 3.9317 0
M  V30 2501 H 251.367 -0.832173 5.01949 0
M  V30 2502 H 250.765 -3.88201 4.11481 0
M  V30 2503 H 249.322 -4.18551 4.99658 0
M  V30 2504 N 252.755 -1.56801 0.158532 0
M  V30 2505 C 253.665 -2.20916 -0.789518 0
M  V30 2506 C 254.681 -1.1969 -1.26294 0
M  V30 2507 O 255.857 -1.52308 -1.31773 0
M  V30 2508 C 252.922 -2.82727 -2.00665 0
M  V30 2509 C 251.983 -3.99114 -1.58134 0
M  V30 2510 C 251.216 -4.57968 -2.74045 0
M  V30 2511 O 251.439 -4.15704 -3.90572 0
M  V30 2512 O 250.373 -5.48047 -2.48855 0
M  V30 2513 H 254.199 -3.02464 -0.273681 0
M  V30 2514 H 251.784 -1.4924 -0.0690548 0
M  V30 2515 H 253.666 -3.21968 -2.71872 0
M  V30 2516 H 252.341 -2.04184 -2.51179 0
M  V30 2517 H 251.248 -3.64567 -0.839155 0
M  V30 2518 H 252.581 -4.79212 -1.12325 0
M  V30 2519 N 254.233 0.115231 -1.57178 0
M  V30 2520 C 255.51 0.852873 -1.76027 0
M  V30 2521 C 255.89 1.97892 -0.73498 0
M  V30 2522 O 255.238 2.27232 0.24036 0
M  V30 2523 C 255.448 1.36608 -3.21153 0
M  V30 2524 C 256.796 1.81692 -3.83762 0
M  V30 2525 O 257.82 1.46278 -3.24779 0
M  V30 2526 O 256.679 2.47104 -4.87444 0
M  V30 2527 H 253.773 0.405296 -0.720877 0
M  V30 2528 H 256.319 0.0986785 -1.69413 0
M  V30 2529 H 255.091 0.558357 -3.87296 0
M  V30 2530 H 254.714 2.18287 -3.3232 0
M  V30 2531 N 255.711 1.52812 0.385517 0
M  V30 2532 C 256.959 1.67694 1.12797 0
M  V30 2533 C 257.28 0.421115 1.90399 0
M  V30 2534 O 256.55 -0.564551 1.87589 0
M  V30 2535 H 255.13 0.618155 0.419396 0
M  V30 2536 H 257.792 1.89938 0.436972 0
M  V30 2537 H 256.888 2.52896 1.82894 0
M  V30 2538 N 257.189 -0.644168 1.43834 0
M  V30 2539 C 258.6 -1.22554 1.40845 0
M  V30 2540 C 258.951 -1.9585 0.117115 0
M  V30 2541 O 258.076 -2.01734 -0.783086 0
M  V30 2542 C 258.671 -2.22907 2.55143 0
M  V30 2543 C 257.23 -2.76501 2.5539 0
M  V30 2544 C 256.377 -1.51287 2.32396 0
M  V30 2545 H 259.328 -0.43563 1.52604 0
M  V30 2546 H 259.349 -3.05259 2.2715 0
M  V30 2547 H 258.861 -1.69533 3.49114 0
M  V30 2548 H 256.962 -3.33914 1.65324 0
M  V30 2549 H 257.075 -3.23429 3.53455 0
M  V30 2550 H 255.439 -1.78957 1.81236 0
M  V30 2551 H 256.222 -0.998336 3.28463 0
M  V30 2552 N 258.668 -1.30515 -0.883378 0
M  V30 2553 C 259.896 -1.22359 -1.66841 0
M  V30 2554 C 260.311 0.213296 -1.87591 0
M  V30 2555 O 259.668 1.14075 -1.42454 0
M  V30 2556 C 259.719 -1.95011 -3.04389 0
M  V30 2557 O 259.44 -3.3309 -2.84575 0
M  V30 2558 C 260.941 -1.93532 -3.98824 0
M  V30 2559 H 258.161 -0.423371 -0.520575 0
M  V30 2560 H 260.705 -1.72167 -1.10357 0
M  V30 2561 H 258.86 -1.48997 -3.57601 0
M  V30 2562 H 259.274 -3.69907 -3.71846 0
M  V30 2563 H 260.748 -2.48902 -4.92699 0
M  V30 2564 H 261.225 -0.914627 -4.29571 0
M  V30 2565 H 261.831 -2.39364 -3.51547 0
M  V30 2566 N 260.146 1.09593 -1.13257 0
M  V30 2567 C 261.394 1.81375 -0.891492 0
M  V30 2568 C 261.715 1.86049 0.584009 0
M  V30 2569 O 260.985 1.34481 1.42449 0
M  V30 2570 H 259.565 0.671708 -0.326828 0
M  V30 2571 H 262.227 1.3256 -1.42877 0
M  V30 2572 H 261.323 2.84612 -1.28071 0
M  V30 2573 N 261.624 0.925811 1.2754 0
M  V30 2574 C 262.534 0.428993 2.30644 0
M  V30 2575 C 263.55 -0.489387 1.66976 0
M  V30 2576 O 264.726 -0.372653 1.97922 0
M  V30 2577 C 261.791 -0.311967 3.45294 0
M  V30 2578 C 260.852 0.641098 4.24486 0
M  V30 2579 C 260.085 -0.0645955 5.33661 0
M  V30 2580 O 260.308 -1.28429 5.55754 0
M  V30 2581 O 259.242 0.606265 5.98839 0
M  V30 2582 H 263.068 1.28504 2.75173 0
M  V30 2583 H 260.653 0.691086 1.32455 0
M  V30 2584 H 262.535 -0.729972 4.15029 0
M  V30 2585 H 261.21 -1.14365 3.02824 0
M  V30 2586 H 260.117 1.10874 3.57292 0
M  V30 2587 H 261.45 1.43995 4.70666 0
M  V30 2588 N 263.102 -1.41638 0.69111 0
M  V30 2589 C 264.513 -1.84346 0.295517 0
M  V30 2590 C 264.864 -1.57833 -1.16547 0
M  V30 2591 O 263.989 -1.04648 -1.89414 0
M  V30 2592 C 264.584 -3.34636 0.529575 0
M  V30 2593 C 263.143 -3.7593 0.187944 0
M  V30 2594 C 262.29 -2.65082 0.814052 0
M  V30 2595 H 265.241 -1.31253 0.892092 0
M  V30 2596 H 265.262 -3.79903 -0.213148 0
M  V30 2597 H 264.774 -3.53901 1.59297 0
M  V30 2598 H 262.875 -3.62268 -0.871367 0
M  V30 2599 H 262.988 -4.74808 0.63985 0
M  V30 2600 H 261.352 -2.53528 0.244017 0
M  V30 2601 H 262.135 -2.87167 1.88123 0
M  V30 2602 N 264.58 -0.43555 -1.51462 0
M  V30 2603 C 265.512 0.41257 -2.25456 0
M  V30 2604 C 266.525 0.987822 -1.29406 0
M  V30 2605 O 267.714 0.882266 -1.55172 0
M  V30 2606 C 264.814 1.58894 -2.99342 0
M  V30 2607 C 263.987 1.13288 -4.22474 0
M  V30 2608 C 263.046 2.17917 -4.78956 0
M  V30 2609 O 262.072 1.77425 -5.40841 0
M  V30 2610 N 263.274 3.50382 -4.62832 0
M  V30 2611 H 266.039 -0.221603 -2.9888 0
M  V30 2612 H 263.6 -0.264342 -1.59727 0
M  V30 2613 H 265.592 2.28508 -3.34015 0
M  V30 2614 H 264.162 2.12849 -2.28941 0
M  V30 2615 H 263.382 0.263881 -3.93316 0
M  V30 2616 H 264.67 0.805542 -5.02383 0
M  V30 2617 H 264.068 3.86013 -4.13534 0
M  V30 2618 H 262.625 4.15895 -5.01871 0
M  V30 2619 N 266.058 1.56714 -0.166846 0
M  V30 2620 C 266.99 2.14914 0.796537 0
M  V30 2621 C 268.003 1.10357 1.19688 0
M  V30 2622 O 269.192 1.37561 1.13751 0
M  V30 2623 C 266.292 2.67326 2.08303 0
M  V30 2624 C 265.465 3.96493 1.84696 0
M  V30 2625 C 264.524 4.34014 2.97521 0
M  V30 2626 O 263.55 5.01973 2.6835 0
M  V30 2627 N 264.752 3.95208 4.25196 0
M  V30 2628 H 267.517 2.98205 0.299006 0
M  V30 2629 H 265.078 1.61892 0.0160839 0
M  V30 2630 H 267.07 2.89428 2.82867 0
M  V30 2631 H 265.64 1.88649 2.4926 0
M  V30 2632 H 264.86 3.82814 0.940602 0
M  V30 2633 H 266.148 4.8086 1.66285 0
M  V30 2634 H 265.546 3.40487 4.51758 0
M  V30 2635 H 264.103 4.2232 4.96477 0
M  V30 2636 N 267.536 -0.106894 1.57237 0
M  V30 2637 C 268.446 -1.14911 2.0453 0
M  V30 2638 C 269.462 -1.44592 0.96795 0
M  V30 2639 O 270.638 -1.55468 1.2803 0
M  V30 2640 C 267.703 -2.45272 2.45036 0
M  V30 2641 C 266.764 -2.22879 3.66911 0
M  V30 2642 C 265.997 -3.47024 4.05475 0
M  V30 2643 O 266.22 -4.54804 3.44252 0
M  V30 2644 O 265.154 -3.3731 4.98504 0
M  V30 2645 H 268.98 -0.777461 2.9358 0
M  V30 2646 H 266.565 -0.318563 1.45964 0
M  V30 2647 H 268.447 -3.22055 2.71769 0
M  V30 2648 H 267.122 -2.81886 1.59129 0
M  V30 2649 H 266.029 -1.43915 3.45311 0
M  V30 2650 H 267.362 -1.91163 4.53561 0
M  V30 2651 N 269.014 -1.53014 -0.377408 0
M  V30 2652 C 270.291 -1.59215 -1.13622 0
M  V30 2653 C 270.671 -0.392407 -2.07421 0
M  V30 2654 O 270.019 0.618342 -2.19975 0
M  V30 2655 C 270.229 -2.93669 -1.88573 0
M  V30 2656 C 271.577 -3.47822 -2.43526 0
M  V30 2657 O 272.601 -2.9562 -1.98715 0
M  V30 2658 O 271.46 -4.39055 -3.25412 0
M  V30 2659 H 268.554 -0.642625 -0.52054 0
M  V30 2660 H 271.1 -1.65353 -0.381625 0
M  V30 2661 H 269.872 -3.7243 -1.20048 0
M  V30 2662 H 269.495 -2.90968 -2.70968 0
M  V30 2663 N 270.492 0.636531 -1.44174 0
M  V30 2664 C 271.769 1.39463 -1.37148 0
M  V30 2665 C 272.149 2.11082 -0.027507 0
M  V30 2666 O 271.497 2.05954 0.989716 0
M  V30 2667 C 271.707 2.36552 -2.56601 0
M  V30 2668 C 273.055 3.00048 -3.00427 0
M  V30 2669 O 274.079 2.46878 -2.56767 0
M  V30 2670 O 272.938 3.96488 -3.76111 0
M  V30 2671 H 270.032 0.623903 -0.542839 0
M  V30 2672 H 272.578 0.662039 -1.56253 0
M  V30 2673 H 271.35 1.82692 -3.46034 0
M  V30 2674 H 270.973 3.17236 -2.39681 0
M  V30 2675 N 271.97 1.30982 0.876444 0
M  V30 2676 C 272.88 1.2003 2.01569 0
M  V30 2677 C 273.896 0.11838 1.73597 0
M  V30 2678 O 275.072 0.33495 1.98595 0
M  V30 2679 C 272.137 0.901637 3.34771 0
M  V30 2680 C 271.198 2.06979 3.76109 0
M  V30 2681 C 270.431 1.78529 5.02954 0
M  V30 2682 O 270.654 0.717296 5.65872 0
M  V30 2683 O 269.588 2.64019 5.40905 0
M  V30 2684 H 273.414 2.15753 2.13739 0
M  V30 2685 H 270.999 1.10658 1.00375 0
M  V30 2686 H 272.881 0.750645 4.1466 0
M  V30 2687 H 271.556 -0.0256141 3.2369 0
M  V30 2688 H 270.463 2.27616 2.96887 0
M  V30 2689 H 271.796 2.97907 3.91807 0
M  V30 2690 N 273.449 -1.08991 1.13837 0
M  V30 2691 C 274.696 -1.81258 0.902882 0
M  V30 2692 C 275.024 -1.85936 -0.570803 0
M  V30 2693 O 274.279 -1.3267 -1.43865 0
M  V30 2694 C 274.578 -3.27042 1.44147 0
M  V30 2695 C 274.244 -3.4249 2.93276 0
M  V30 2696 C 272.906 -3.46414 3.33992 0
M  V30 2697 C 275.258 -3.4666 3.892 0
M  V30 2698 C 272.586 -3.52091 4.69307 0
M  V30 2699 C 274.938 -3.53872 5.24364 0
M  V30 2700 C 273.602 -3.56066 5.646 0
M  V30 2701 H 272.872 -0.663268 0.330388 0
M  V30 2702 H 275.519 -1.28368 1.42105 0
M  V30 2703 H 273.824 -3.82599 0.844097 0
M  V30 2704 H 275.521 -3.81499 1.23528 0
M  V30 2705 H 272.111 -3.40124 2.60794 0
M  V30 2706 H 276.295 -3.42865 3.58828 0
M  V30 2707 H 271.551 -3.52079 4.9985 0
M  V30 2708 H 275.725 -3.56043 5.98503 0
M  V30 2709 H 273.352 -3.60218 6.69438 0
M  V30 2710 N 274.927 -0.932562 -1.27047 0
M  V30 2711 C 275.857 -0.452902 -2.29066 0
M  V30 2712 C 276.838 0.489338 -1.62909 0
M  V30 2713 O 278.023 0.393046 -1.90181 0
M  V30 2714 C 275.153 0.290698 -3.46081 0
M  V30 2715 C 274.107 -0.564168 -4.24265 0
M  V30 2716 C 273.433 0.308886 -5.33807 0
M  V30 2717 C 274.733 -1.83112 -4.89149 0
M  V30 2718 H 276.427 -1.30552 -2.69437 0
M  V30 2719 H 273.973 -0.629201 -1.29526 0
M  V30 2720 H 275.926 0.637233 -4.16554 0
M  V30 2721 H 274.65 1.17738 -3.0464 0
M  V30 2722 H 273.309 -0.893477 -3.55545 0
M  V30 2723 H 272.957 1.19467 -4.88607 0
M  V30 2724 H 272.657 -0.259633 -5.87026 0
M  V30 2725 H 274.181 0.650884 -6.07121 0
M  V30 2726 H 275.595 -1.55236 -5.51883 0
M  V30 2727 H 273.992 -2.34353 -5.52448 0
M  V30 2728 H 275.062 -2.54772 -4.12576 0
M  V30 2729 N 276.405 1.4127 -0.698611 0
M  V30 2730 C 277.338 2.28195 0.0153898 0
M  V30 2731 C 278.316 1.42402 0.784883 0
M  V30 2732 O 279.5 1.71828 0.775067 0
M  V30 2733 C 276.627 3.22685 1.02918 0
M  V30 2734 C 275.673 4.25041 0.352501 0
M  V30 2735 S 276.506 5.27757 -0.907322 0
M  V30 2736 C 277.662 6.25812 0.104796 0
M  V30 2737 H 277.895 2.88403 -0.721858 0
M  V30 2738 H 275.428 1.46452 -0.488996 0
M  V30 2739 H 277.386 3.77655 1.60893 0
M  V30 2740 H 276.047 2.61566 1.73902 0
M  V30 2741 H 275.24 4.91437 1.11828 0
M  V30 2742 H 274.842 3.73682 -0.154254 0
M  V30 2743 H 277.134 6.70705 0.957103 0
M  V30 2744 H 278.077 7.06149 -0.525323 0
M  V30 2745 H 278.485 5.62615 0.460931 0
M  V30 2746 N 277.883 0.443576 1.51229 0
M  V30 2747 C 278.846 -0.353132 2.26463 0
M  V30 2748 C 279.846 -0.944338 1.3015 0
M  V30 2749 O 281.036 -0.817813 1.5381 0
M  V30 2750 C 278.168 -1.50023 3.06114 0
M  V30 2751 H 279.361 0.3063 2.98332 0
M  V30 2752 H 276.914 0.196902 1.55055 0
M  V30 2753 H 277.649 -2.19553 2.38677 0
M  V30 2754 H 277.434 -1.08241 3.76864 0
M  V30 2755 H 278.924 -2.06296 3.63087 0
M  V30 2756 N 279.361 -1.56624 0.175154 0
M  V30 2757 C 280.589 -2.01374 -0.474971 0
M  V30 2758 C 281.004 -1.05537 -1.56548 0
M  V30 2759 O 280.361 -0.0568668 -1.82411 0
M  V30 2760 C 280.412 -3.45923 -1.04975 0
M  V30 2761 O 280.133 -4.381 -0.00276605 0
M  V30 2762 C 281.634 -4.06093 -1.77773 0
M  V30 2763 H 278.854 -0.659962 -0.121206 0
M  V30 2764 H 281.398 -2.02601 0.27801 0
M  V30 2765 H 279.553 -3.45458 -1.75321 0
M  V30 2766 H 279.967 -5.22753 -0.427681 0
M  V30 2767 H 281.441 -5.09147 -2.13245 0
M  V30 2768 H 281.918 -3.48405 -2.67414 0
M  V30 2769 H 282.524 -4.10272 -1.12059 0
M  V30 2770 N 280.839 0.0985539 -1.57292 0
M  V30 2771 C 282.116 0.834155 -1.76921 0
M  V30 2772 C 282.496 1.97101 -0.755928 0
M  V30 2773 O 281.844 2.27474 0.216245 0
M  V30 2774 C 282.054 1.33194 -3.22584 0
M  V30 2775 C 283.402 1.77611 -3.85668 0
M  V30 2776 O 284.426 1.42825 -3.26312 0
M  V30 2777 O 283.285 2.4192 -4.90038 0
M  V30 2778 H 280.379 0.397628 -0.725135 0
M  V30 2779 H 282.925 0.0807044 -1.69508 0
M  V30 2780 H 281.697 0.517248 -3.87866 0
M  V30 2781 H 281.32 2.1475 -3.34616 0
M  V30 2782 N 282.317 1.53212 0.369288 0
M  V30 2783 C 283.563 1.69466 1.11397 0
M  V30 2784 C 283.896 0.443257 1.89074 0
M  V30 2785 O 283.171 -0.559386 1.86282 0
M  V30 2786 C 283.454 2.9422 2.07621 0
M  V30 2787 C 283.307 4.29508 1.33577 0
M  V30 2788 C 284.626 3.14565 3.07794 0
M  V30 2789 H 281.745 0.616667 0.403597 0
M  V30 2790 H 284.387 1.85845 0.395179 0
M  V30 2791 H 282.537 2.80387 2.68916 0
M  V30 2792 H 284.209 4.55147 0.750955 0
M  V30 2793 H 282.452 4.29088 0.637618 0
M  V30 2794 H 283.123 5.12926 2.03989 0
M  V30 2795 H 285.599 3.2756 2.56601 0
M  V30 2796 H 284.475 4.03297 3.72348 0
M  V30 2797 H 284.736 2.29675 3.77759 0
M  V30 2798 N 283.795 -0.628877 1.44509 0
M  V30 2799 C 285.072 -1.38733 1.37886 0
M  V30 2800 C 285.452 -2.11065 0.0387008 0
M  V30 2801 O 284.8 -2.06476 -0.97878 0
M  V30 2802 C 285.01 -2.35188 2.57852 0
M  V30 2803 C 286.358 -2.9845 3.02014 0
M  V30 2804 O 287.382 -2.45513 2.58073 0
M  V30 2805 O 286.241 -3.94487 3.78209 0
M  V30 2806 H 283.335 -0.621015 0.54614 0
M  V30 2807 H 285.881 -0.653744 1.56602 0
M  V30 2808 H 284.653 -1.80855 3.46998 0
M  V30 2809 H 284.276 -3.1596 2.4136 0
M  V30 2810 N 285.273 -1.31445 -0.869486 0
M  V30 2811 C 286.55 -1.11795 -1.60503 0
M  V30 2812 C 286.93 0.327168 -2.08549 0
M  V30 2813 O 286.278 1.32135 -1.8642 0
M  V30 2814 C 286.488 -2.13258 -2.76265 0
M  V30 2815 C 287.836 -2.45805 -3.46215 0
M  V30 2816 O 288.86 -2.11688 -2.86473 0
M  V30 2817 O 287.719 -3.04228 -4.5399 0
M  V30 2818 H 284.813 -0.430421 -0.706163 0
M  V30 2819 H 287.359 -1.42925 -0.914907 0
M  V30 2820 H 286.131 -3.10461 -2.3818 0
M  V30 2821 H 285.754 -1.83035 -3.52964 0
M  V30 2822 N 286.751 1.08385 -1.14413 0
M  V30 2823 C 288.167 1.32844 -0.884563 0
M  V30 2824 C 288.367 1.95841 0.474181 0
M  V30 2825 O 287.423 2.21158 1.21842 0
M  V30 2826 C 288.736 2.22978 -2.01745 0
M  V30 2827 C 290.284 2.36458 -2.05077 0
M  V30 2828 C 290.759 3.29934 -3.1766 0
M  V30 2829 N 292.25 3.37511 -3.17239 0
M  V30 2830 C 292.985 4.09871 -4.0099 0
M  V30 2831 N 292.481 4.84936 -4.94781 0
M  V30 2832 N 294.274 4.05704 -3.89051 0
M  V30 2833 H 286.425 0.658756 -2.01926 0
M  V30 2834 H 288.688 0.352821 -0.879899 0
M  V30 2835 H 288.394 1.83934 -2.99769 0
M  V30 2836 H 288.268 3.23441 -1.94077 0
M  V30 2837 H 290.655 2.7476 -1.0766 0
M  V30 2838 H 290.736 1.35736 -2.16816 0
M  V30 2839 H 290.38 2.92352 -4.15322 0
M  V30 2840 H 290.31 4.30584 -3.03158 0
M  V30 2841 H 292.801 2.83996 -2.49308 0
M  V30 2842 H 293.114 5.37612 -5.55151 0
M  V30 2843 H 291.459 4.83988 -4.98779 0
M  V30 2844 H 294.65 3.46167 -3.15097 0
M  V30 2845 H 294.823 4.61834 -4.54547 0
M  V30 2846 N 288.23 0.939286 1.26551 0
M  V30 2847 C 289.477 0.585847 1.9384 0
M  V30 2848 C 289.805 -0.874784 1.73718 0
M  V30 2849 O 289.06 -1.64092 1.06642 0
M  V30 2850 C 289.359 0.872106 3.46596 0
M  V30 2851 C 289.025 2.31632 3.86856 0
M  V30 2852 C 287.687 2.71111 3.97558 0
M  V30 2853 C 290.039 3.25494 4.07066 0
M  V30 2854 C 287.367 4.03553 4.25866 0
M  V30 2855 C 289.719 4.57531 4.36862 0
M  V30 2856 C 288.383 4.96828 4.45778 0
M  V30 2857 H 287.653 0.214377 0.709312 0
M  V30 2858 H 290.3 1.18544 1.50398 0
M  V30 2859 H 288.605 0.18996 3.91339 0
M  V30 2860 H 290.302 0.577442 3.96821 0
M  V30 2861 H 286.892 2.00008 3.79071 0
M  V30 2862 H 291.076 2.9619 3.98227 0
M  V30 2863 H 286.332 4.33665 4.30981 0
M  V30 2864 H 290.506 5.30254 4.51446 0
M  V30 2865 H 288.133 5.99482 4.67468 0
M  V30 2866 N 289.708 -1.40897 0.706093 0
M  V30 2867 C 290.618 -2.3455 0.0482286 0
M  V30 2868 C 291.634 -1.56796 -0.754396 0
M  V30 2869 O 292.81 -1.89228 -0.689538 0
M  V30 2870 C 289.875 -3.35625 -0.869303 0
M  V30 2871 C 288.936 -4.29261 -0.0576994 0
M  V30 2872 C 288.169 -5.25508 -0.931531 0
M  V30 2873 O 288.392 -5.27472 -2.17092 0
M  V30 2874 O 287.326 -6.00727 -0.375587 0
M  V30 2875 H 291.152 -2.92407 0.820476 0
M  V30 2876 H 288.737 -1.4193 0.4665 0
M  V30 2877 H 290.619 -3.97635 -1.39514 0
M  V30 2878 H 289.294 -2.80196 -1.62086 0
M  V30 2879 H 288.201 -3.70566 0.512988 0
M  V30 2880 H 289.534 -4.87817 0.655426 0
M  V30 2881 N 291.186 -0.45159 -1.50991 0
M  V30 2882 C 292.414 0.108334 -2.06616 0
M  V30 2883 C 292.829 1.35224 -1.31757 0
M  V30 2884 O 292.186 1.78475 -0.381174 0
M  V30 2885 C 292.237 0.41619 -3.59096 0
M  V30 2886 O 291.958 -0.778361 -4.3113 0
M  V30 2887 C 293.459 1.02523 -4.31282 0
M  V30 2888 H 290.679 0.00159995 -0.670998 0
M  V30 2889 H 293.223 -0.634771 -1.94399 0
M  V30 2890 H 291.378 1.10921 -3.71181 0
M  V30 2891 H 291.792 -0.511181 -5.22003 0
M  V30 2892 H 293.266 1.19053 -5.39009 0
M  V30 2893 H 293.743 2.01013 -3.905 0
M  V30 2894 H 294.349 0.371173 -4.23677 0
M  V30 2895 N 292.664 1.56529 -0.183458 0
M  V30 2896 C 293.594 2.21549 0.737456 0
M  V30 2897 C 294.575 1.17489 1.23005 0
M  V30 2898 O 295.76 1.45959 1.281 0
M  V30 2899 C 292.89 2.86575 1.96194 0
M  V30 2900 C 291.844 3.96778 1.60473 0
M  V30 2901 C 291.17 4.48911 2.90487 0
M  V30 2902 C 292.47 5.15767 0.823497 0
M  V30 2903 H 294.164 2.98761 0.195453 0
M  V30 2904 H 291.71 1.43702 0.0925686 0
M  V30 2905 H 293.663 3.30739 2.61131 0
M  V30 2906 H 292.387 2.06749 2.52828 0
M  V30 2907 H 291.046 3.53286 0.978997 0
M  V30 2908 H 290.694 3.65862 3.45186 0
M  V30 2909 H 290.394 5.23265 2.67335 0
M  V30 2910 H 291.918 4.95771 3.56432 0
M  V30 2911 H 293.332 5.56549 1.37571 0
M  V30 2912 H 291.729 5.96114 0.690551 0
M  V30 2913 H 292.799 4.84574 -0.177782 0
M  V30 2914 N 294.142 -0.090211 1.57342 0
M  V30 2915 C 295.052 -1.12735 2.05738 0
M  V30 2916 C 296.068 -1.43557 0.983231 0
M  V30 2917 O 297.244 -1.54101 1.29672 0
M  V30 2918 C 294.309 -2.42659 2.47624 0
M  V30 2919 C 293.37 -2.18975 3.69254 0
M  V30 2920 C 292.603 -3.42704 4.09133 0
M  V30 2921 O 292.826 -4.51127 3.49057 0
M  V30 2922 O 291.76 -3.32003 5.02053 0
M  V30 2923 H 295.586 -0.746279 2.94388 0
M  V30 2924 H 293.171 -0.303064 1.46294 0
M  V30 2925 H 295.053 -3.19155 2.7517 0
M  V30 2926 H 293.728 -2.80182 1.62109 0
M  V30 2927 H 292.635 -1.40244 3.46818 0
M  V30 2928 H 293.968 -1.86342 4.55563 0
M  V30 2929 N 295.62 -1.53406 -0.361157 0
M  V30 2930 C 297.031 -1.61442 -0.937728 0
M  V30 2931 C 297.382 -0.48461 -1.90121 0
M  V30 2932 O 296.507 0.388312 -2.12888 0
M  V30 2933 C 297.102 -2.92624 -1.70753 0
M  V30 2934 C 295.661 -3.02981 -2.23337 0
M  V30 2935 C 294.808 -2.5677 -1.04712 0
M  V30 2936 H 297.759 -1.58083 -0.139816 0
M  V30 2937 H 297.78 -2.80675 -2.56908 0
M  V30 2938 H 297.292 -3.74834 -1.00604 0
M  V30 2939 H 295.393 -2.25368 -2.96715 0
M  V30 2940 H 295.506 -4.0814 -2.50916 0
M  V30 2941 H 293.87 -2.11752 -1.41539 0
M  V30 2942 H 294.653 -3.41402 -0.360539 0
M  V30 2943 N 297.098 0.621204 -1.44841 0
M  V30 2944 C 298.008 1.7612 -1.5498 0
M  V30 2945 C 299.024 1.68477 -0.434927 0
M  V30 2946 O 300.2 1.89076 -0.693693 0
M  V30 2947 C 297.265 3.1254 -1.50065 0
M  V30 2948 C 296.326 3.31741 -2.72482 0
M  V30 2949 C 295.559 4.61653 -2.67792 0
M  V30 2950 O 295.782 5.431 -1.74352 0
M  V30 2951 O 294.716 4.83271 -3.58794 0
M  V30 2952 H 298.542 1.70518 -2.51311 0
M  V30 2953 H 296.127 0.783643 -1.27198 0
M  V30 2954 H 298.009 3.93844 -1.49882 0
M  V30 2955 H 296.684 3.18663 -0.568806 0
M  V30 2956 H 295.591 2.50077 -2.7823 0
M  V30 2957 H 296.924 3.30486 -3.64746 0
M  V30 2958 N 298.576 1.31904 0.862503 0
M  V30 2959 C 299.822 1.22197 1.61851 0
M  V30 2960 C 300.155 -0.217641 1.92977 0
M  V30 2961 O 299.43 -1.15264 1.56666 0
M  V30 2962 C 299.713 2.07378 2.94391 0
M  V30 2963 C 299.566 3.59678 2.70096 0
M  V30 2964 C 300.885 1.92891 3.95577 0
M  V30 2965 H 298.004 0.445255 0.587296 0
M  V30 2966 H 300.646 1.6177 0.99651 0
M  V30 2967 H 298.796 1.73758 3.47477 0
M  V30 2968 H 300.468 4.03472 2.23625 0
M  V30 2969 H 298.711 3.82735 2.04197 0
M  V30 2970 H 299.382 4.14595 3.64438 0
M  V30 2971 H 301.858 2.22327 3.51724 0
M  V30 2972 H 300.734 2.54781 4.86187 0
M  V30 2973 H 300.995 0.894315 4.3296 0
M  V30 2974 N 300.054 -1.07777 1.14986 0
M  V30 2975 C 301.279 -1.84558 0.946213 0
M  V30 2976 C 301.704 -1.81323 -0.500362 0
M  V30 2977 O 301.062 -1.20301 -1.35637 0
M  V30 2978 C 301.11 -3.29736 1.45968 0
M  V30 2979 O 300.214 -4.07149 0.65601 0
M  V30 2980 H 299.555 -0.571641 0.33782 0
M  V30 2981 H 302.085 -1.35991 1.52865 0
M  V30 2982 H 302.095 -3.80574 1.47063 0
M  V30 2983 H 300.77 -3.31406 2.51283 0
M  V30 2984 H 299.347 -3.65994 0.714322 0
M  V30 2985 N 301.532 -0.945985 -1.26051 0
M  V30 2986 C 302.482 -0.430164 -2.23905 0
M  V30 2987 C 303.466 0.47579 -1.53704 0
M  V30 2988 O 304.658 0.310252 -1.7426 0
M  V30 2989 C 301.787 0.298957 -3.41996 0
M  V30 2990 C 300.873 -0.624566 -4.19476 0
M  V30 2991 N 301.264 -1.75245 -4.74471 0
M  V30 2992 C 299.562 -0.431082 -4.43912 0
M  V30 2993 C 300.263 -2.32834 -5.3307 0
M  V30 2994 N 299.239 -1.61583 -5.1903 0
M  V30 2995 H 303.041 -1.29107 -2.64024 0
M  V30 2996 H 300.555 -0.802428 -1.41191 0
M  V30 2997 H 302.552 0.685565 -4.11225 0
M  V30 2998 H 301.212 1.15657 -3.03403 0
M  V30 2999 H 302.223 -2.13449 -4.71868 0
M  V30 3000 H 298.9 0.384364 -4.15727 0
M  V30 3001 H 300.29 -3.27893 -5.86461 0
M  V30 3002 N 303.011 1.40521 -0.713556 0
M  V30 3003 C 303.921 2.34522 -0.0606667 0
M  V30 3004 C 304.937 1.57193 0.74607 0
M  V30 3005 O 306.113 1.89591 0.679493 0
M  V30 3006 C 303.178 3.36081 0.851491 0
M  V30 3007 C 302.239 4.29286 0.0349339 0
M  V30 3008 C 301.472 5.25994 0.903649 0
M  V30 3009 O 301.695 5.28616 2.14292 0
M  V30 3010 O 300.629 6.00918 0.343723 0
M  V30 3011 H 304.455 2.91968 -0.835972 0
M  V30 3012 H 302.04 1.41681 -0.47402 0
M  V30 3013 H 303.922 3.98369 1.37404 0
M  V30 3014 H 302.597 2.81052 1.60598 0
M  V30 3015 H 301.504 3.70289 -0.532633 0
M  V30 3016 H 302.837 4.87462 -0.681287 0
M  V30 3017 N 304.489 0.459591 1.5075 0
M  V30 3018 C 305.399 -0.34613 2.32033 0
M  V30 3019 C 306.415 -1.00686 1.41909 0
M  V30 3020 O 307.591 -0.997361 1.7497 0
M  V30 3021 C 304.656 -1.42029 3.16273 0
M  V30 3022 C 303.717 -0.777362 4.22203 0
M  V30 3023 C 302.95 -1.80034 5.02418 0
M  V30 3024 O 303.173 -3.02544 4.83553 0
M  V30 3025 O 302.107 -1.37853 5.85901 0
M  V30 3026 H 305.933 0.318054 3.0203 0
M  V30 3027 H 303.518 0.221663 1.47746 0
M  V30 3028 H 305.4 -2.04275 3.68578 0
M  V30 3029 H 304.075 -2.06815 2.49016 0
M  V30 3030 H 302.982 -0.116256 3.73919 0
M  V30 3031 H 304.315 -0.172634 4.91897 0
M  V30 3032 N 305.967 -1.56429 0.191757 0
M  V30 3033 C 307.195 -2.01867 -0.453586 0
M  V30 3034 C 307.61 -1.07191 -1.5542 0
M  V30 3035 O 306.967 -0.0762108 -1.82341 0
M  V30 3036 C 307.018 -3.47017 -1.013 0
M  V30 3037 O 306.739 -4.38078 0.0437005 0
M  V30 3038 C 308.24 -4.07956 -1.73456 0
M  V30 3039 H 305.46 -0.661211 -0.114199 0
M  V30 3040 H 308.004 -2.02295 0.299483 0
M  V30 3041 H 306.159 -3.47298 -1.71647 0
M  V30 3042 H 306.573 -5.23178 -0.372212 0
M  V30 3043 H 308.047 -5.1138 -2.07833 0
M  V30 3044 H 308.524 -3.51222 -2.63704 0
M  V30 3045 H 309.13 -4.11437 -1.07702 0
M  V30 3046 N 307.445 0.0818655 -1.57387 0
M  V30 3047 C 308.355 1.11642 -2.06333 0
M  V30 3048 C 309.371 1.43033 -0.99083 0
M  V30 3049 O 310.547 1.53411 -1.30488 0
M  V30 3050 C 307.612 2.41342 -2.48907 0
M  V30 3051 C 306.673 2.17014 -3.7041 0
M  V30 3052 C 305.906 3.4053 -4.10944 0
M  V30 3053 O 306.129 4.4927 -3.51444 0
M  V30 3054 O 305.063 3.29336 -5.03807 0
M  V30 3055 H 308.889 0.730657 -2.9478 0
M  V30 3056 H 306.474 0.295301 -1.46452 0
M  V30 3057 H 308.356 3.17691 -2.76858 0
M  V30 3058 H 307.031 2.79319 -1.63593 0
M  V30 3059 H 305.938 1.38403 -3.47556 0
M  V30 3060 H 307.271 1.83923 -4.56545 0
M  V30 3061 N 308.923 1.53595 0.353017 0
M  V30 3062 C 309.873 1.77299 1.43349 0
M  V30 3063 C 310.857 0.627884 1.48143 0
M  V30 3064 O 312.049 0.88697 1.53173 0
M  V30 3065 C 309.178 1.97757 2.80619 0
M  V30 3066 C 308.264 3.18305 2.80254 0
M  V30 3067 N 308.655 4.39967 2.49526 0
M  V30 3068 C 306.953 3.19283 3.11407 0
M  V30 3069 C 307.654 5.21772 2.57156 0
M  V30 3070 N 306.63 4.58269 2.92388 0
M  V30 3071 H 310.432 2.68963 1.18474 0
M  V30 3072 H 307.946 1.52391 0.561306 0
M  V30 3073 H 309.943 2.1287 3.58458 0
M  V30 3074 H 308.603 1.07329 3.06448 0
M  V30 3075 H 309.614 4.67482 2.22893 0
M  V30 3076 H 306.291 2.3879 3.4247 0
M  V30 3077 H 307.681 6.2885 2.36638 0
M  V30 3078 N 310.401 -0.613514 1.45168 0
M  V30 3079 C 311.626 -1.40437 1.52618 0
M  V30 3080 C 312.051 -1.87438 0.157707 0
M  V30 3081 O 311.409 -1.59791 -0.856537 0
M  V30 3082 C 311.457 -2.58894 2.51011 0
M  V30 3083 O 310.561 -3.59326 2.02382 0
M  V30 3084 H 309.902 -0.419506 0.514695 0
M  V30 3085 H 312.432 -0.747215 1.90467 0
M  V30 3086 H 312.442 -3.06214 2.69624 0
M  V30 3087 H 311.117 -2.24032 3.50403 0
M  V30 3088 H 309.694 -3.18695 1.93618 0
M  V30 3089 N 311.879 -1.3236 -0.855495 0
M  V30 3090 C 313.109 -1.25688 -1.6397 0
M  V30 3091 C 313.517 0.177592 -1.88365 0
M  V30 3092 O 312.86 1.12485 -1.45234 0
M  V30 3093 C 312.922 -1.94602 -3.02275 0
M  V30 3094 C 312.586 -3.43937 -3.00926 0
M  V30 3095 C 313.583 -4.39435 -2.77835 0
M  V30 3096 C 311.268 -3.85858 -3.21588 0
M  V30 3097 C 313.262 -5.74829 -2.75409 0
M  V30 3098 C 310.949 -5.21361 -3.18789 0
M  V30 3099 C 311.947 -6.15658 -2.95727 0
M  V30 3100 O 311.635 -7.48681 -2.928 0
M  V30 3101 H 311.367 -0.434972 -0.51747 0
M  V30 3102 H 313.921 -1.75023 -1.075 0
M  V30 3103 H 312.151 -1.39836 -3.60531 0
M  V30 3104 H 313.84 -1.81651 -3.62985 0
M  V30 3105 H 314.606 -4.08374 -2.6164 0
M  V30 3106 H 310.485 -3.12883 -3.38564 0
M  V30 3107 H 314.029 -6.48404 -2.57328 0
M  V30 3108 H 309.926 -5.52052 -3.34528 0
M  V30 3109 H 310.694 -7.5803 -3.0876 0
M  V30 3110 N 313.357 1.07166 -1.15556 0
M  V30 3111 C 314.307 2.12649 -0.82247 0
M  V30 3112 C 315.291 1.59725 0.194129 0
M  V30 3113 O 316.483 1.76999 -0.00540402 0
M  V30 3114 C 313.612 3.41847 -0.315572 0
M  V30 3115 C 312.698 4.0162 -1.36244 0
M  V30 3116 N 313.089 4.35625 -2.5703 0
M  V30 3117 C 311.387 4.29114 -1.21562 0
M  V30 3118 C 312.088 4.83017 -3.24144 0
M  V30 3119 N 311.064 4.81906 -2.51531 0
M  V30 3120 H 314.866 2.36776 -1.74111 0
M  V30 3121 H 312.38 1.24622 -1.0413 0
M  V30 3122 H 314.377 4.16859 -0.0585855 0
M  V30 3123 H 313.037 3.19163 0.597105 0
M  V30 3124 H 314.048 4.26253 -2.94158 0
M  V30 3125 H 310.725 4.15919 -0.362988 0
M  V30 3126 H 312.115 5.18605 -4.27198 0
M  V30 3127 N 314.835 0.952656 1.25548 0
M  V30 3128 C 316.081 0.607272 1.93494 0
M  V30 3129 C 316.414 -0.853245 1.74452 0
M  V30 3130 O 315.689 -1.61194 1.08843 0
M  V30 3131 C 315.972 0.96435 3.46947 0
M  V30 3132 C 315.825 2.48045 3.75225 0
M  V30 3133 C 317.144 0.487987 4.37386 0
M  V30 3134 H 314.263 0.222096 0.702739 0
M  V30 3135 H 316.905 1.18895 1.48203 0
M  V30 3136 H 315.055 0.469361 3.85654 0
M  V30 3137 H 316.727 3.04905 3.46166 0
M  V30 3138 H 314.97 2.919 3.209 0
M  V30 3139 H 315.641 2.6808 4.82532 0
M  V30 3140 H 318.117 0.912558 4.0597 0
M  V30 3141 H 316.993 0.766547 5.43521 0
M  V30 3142 H 317.254 -0.612063 4.37843 0
M  V30 3143 N 316.313 -1.40141 0.720998 0
M  V30 3144 C 317.223 -2.34486 0.0731031 0
M  V30 3145 C 318.239 -1.57587 -0.737723 0
M  V30 3146 O 319.415 -1.89949 -0.669429 0
M  V30 3147 C 316.48 -3.36528 -0.833656 0
M  V30 3148 C 315.541 -4.29298 -0.0121673 0
M  V30 3149 C 314.774 -5.26466 -0.875742 0
M  V30 3150 O 314.997 -5.29745 -2.11485 0
M  V30 3151 O 313.931 -6.01092 -0.31185 0
M  V30 3152 H 317.757 -2.9152 0.851444 0
M  V30 3153 H 315.342 -1.41427 0.481527 0
M  V30 3154 H 317.224 -3.99093 -1.35289 0
M  V30 3155 H 315.899 -2.81899 -1.59105 0
M  V30 3156 H 314.806 -3.70001 0.552262 0
M  V30 3157 H 316.139 -4.87094 0.707129 0
M  V30 3158 N 317.792 -0.46758 -1.50504 0
M  V30 3159 C 318.702 0.33382 -2.32213 0
M  V30 3160 C 319.718 0.999323 -1.42441 0
M  V30 3161 O 320.894 0.988068 -1.75497 0
M  V30 3162 C 317.959 1.4035 -3.17022 0
M  V30 3163 C 317.02 0.754961 -4.2261 0
M  V30 3164 C 316.253 1.77367 -5.03365 0
M  V30 3165 O 316.476 2.99976 -4.8515 0
M  V30 3166 O 315.41 1.34744 -5.86624 0
M  V30 3167 H 319.236 -0.334067 -3.01857 0
M  V30 3168 H 316.821 -0.229496 -1.47627 0
M  V30 3169 H 318.703 2.02318 -3.69656 0
M  V30 3170 H 317.378 2.05492 -2.5011 0
M  V30 3171 H 316.285 0.0964244 -3.73976 0
M  V30 3172 H 317.618 0.146545 -4.91982 0
M  V30 3173 N 319.27 1.56325 -0.20005 0
M  V30 3174 C 320.498 2.02105 0.442874 0
M  V30 3175 C 320.913 1.08014 1.5485 0
M  V30 3176 O 320.27 0.0858797 1.82298 0
M  V30 3177 C 320.321 3.47549 0.994583 0
M  V30 3178 O 320.042 4.38049 -0.0669322 0
M  V30 3179 C 321.543 4.0887 1.7129 0
M  V30 3180 H 318.763 0.661807 0.110691 0
M  V30 3181 H 321.307 2.02134 -0.310207 0
M  V30 3182 H 319.462 3.48204 1.69803 0
M  V30 3183 H 319.876 5.23368 0.344462 0
M  V30 3184 H 321.35 5.12475 2.05118 0
M  V30 3185 H 321.827 3.52615 2.61838 0
M  V30 3186 H 322.433 4.12002 1.05518 0
M  V30 3187 N 320.748 -0.0735177 1.57428 0
M  V30 3188 C 321.994 -0.774145 1.87443 0
M  V30 3189 C 322.327 -1.77311 0.792103 0
M  V30 3190 O 321.602 -1.93492 -0.197793 0
M  V30 3191 C 321.885 -1.48367 3.28115 0
M  V30 3192 C 321.738 -0.501227 4.46999 0
M  V30 3193 C 323.057 -2.429 3.66998 0
M  V30 3194 H 320.176 -0.279971 0.681752 0
M  V30 3195 H 322.818 -0.0373616 1.89963 0
M  V30 3196 H 320.968 -2.11171 3.26097 0
M  V30 3197 H 322.64 0.121468 4.6114 0
M  V30 3198 H 320.883 0.183593 4.33411 0
M  V30 3199 H 321.554 -1.03526 5.42205 0
M  V30 3200 H 324.03 -1.90175 3.70098 0
M  V30 3201 H 322.906 -2.89549 4.66318 0
M  V30 3202 H 323.167 -3.27628 2.96837 0
M  V30 3203 N 322.226 -1.5378 -0.344866 0
M  V30 3204 C 323.451 -1.75211 -1.10977 0
M  V30 3205 C 323.876 -0.48936 -1.81623 0
M  V30 3206 O 323.234 0.557925 -1.72502 0
M  V30 3207 C 323.282 -2.93147 -2.09993 0
M  V30 3208 O 322.386 -2.63203 -3.17487 0
M  V30 3209 H 321.727 -0.581241 -0.321021 0
M  V30 3210 H 324.257 -2.00738 -0.395661 0
M  V30 3211 H 324.267 -3.19898 -2.53237 0
M  V30 3212 H 322.942 -3.84731 -1.5797 0
M  V30 3213 H 321.519 -2.47336 -2.79069 0
M  V30 3214 N 323.704 0.605807 -1.45491 0
M  V30 3215 C 324.636 1.73031 -1.5031 0
M  V30 3216 C 325.649 1.57968 -0.393687 0
M  V30 3217 O 326.838 1.65817 -0.660839 0
M  V30 3218 C 323.938 3.11049 -1.34543 0
M  V30 3219 C 323.111 3.52334 -2.59189 0
M  V30 3220 C 322.17 4.69323 -2.37954 0
M  V30 3221 O 321.196 4.7635 -3.11575 0
M  V30 3222 N 322.398 5.62705 -1.4263 0
M  V30 3223 H 325.163 1.6936 -2.4726 0
M  V30 3224 H 322.724 0.79114 -1.41254 0
M  V30 3225 H 324.716 3.87071 -1.18144 0
M  V30 3226 H 323.286 3.09217 -0.458623 0
M  V30 3227 H 322.506 2.66256 -2.90691 0
M  V30 3228 H 323.794 3.76677 -3.42041 0
M  V30 3229 H 323.192 5.59744 -0.818758 0
M  V30 3230 H 321.749 6.38252 -1.32202 0
M  V30 3231 N 325.182 1.32811 0.848464 0
M  V30 3232 C 326.459 1.14334 1.58704 0
M  V30 3233 C 326.839 -0.293948 2.09043 0
M  V30 3234 O 326.187 -1.29153 1.88499 0
M  V30 3235 C 326.397 2.17626 2.72837 0
M  V30 3236 C 327.745 2.51282 3.42261 0
M  V30 3237 O 328.769 2.16219 2.83068 0
M  V30 3238 O 327.628 3.11413 4.49093 0
M  V30 3239 H 324.722 0.441601 0.699226 0
M  V30 3240 H 327.268 1.44362 0.892053 0
M  V30 3241 H 326.04 3.14211 2.3321 0
M  V30 3242 H 325.663 1.88628 3.50008 0
M  V30 3243 N 326.66 -1.06551 1.16123 0
M  V30 3244 C 327.9 -1.80889 0.951766 0
M  V30 3245 C 328.264 -1.85062 -0.511465 0
M  V30 3246 O 329.465 -2.55353 -0.83954 0
M  V30 3247 C 327.736 -3.21609 1.55893 0
M  V30 3248 S 329.295 -4.12593 1.49373 0
M  V30 3249 H 326.113 -0.623156 0.342341 0
M  V30 3250 H 328.715 -1.27943 1.47821 0
M  V30 3251 H 327.419 -3.16165 2.61664 0
M  V30 3252 H 326.95 -3.79631 1.0317 0
M  V30 3253 H 328.965 -4.93753 0.492196 0
M  V30 3254 N 328.138 -0.959301 -1.25041 0
M  V30 3255 C 329.086 -0.474437 -2.2771 0
M  V30 3256 C 330.08 0.457697 -1.631 0
M  V30 3257 O 331.286 0.333912 -1.76876 0
M  V30 3258 H 327.661 -0.134936 -0.739795 0
M  V30 3259 H 329.632 -1.35251 -2.65988 0
M  V30 3260 C 328.381 0.227884 -3.46952 0
M  V30 3261 H 327.704 -0.480248 -3.96905 0
M  V30 3262 H 329.144 0.531091 -4.20661 0
M  V30 3263 C 327.603 1.452 -3.04004 0
M  V30 3264 O 328.133 2.54949 -3.10426 0
M  V30 3265 N 326.339 1.31502 -2.59144 0
M  V30 3266 H 325.886 0.422065 -2.54119 0
M  V30 3267 H 325.844 2.13521 -2.30773 0
M  V30 3268 N 329.616 1.39756 -0.72842 0
M  V30 3269 C 330.548 2.29157 -0.0446202 0
M  V30 3270 C 331.561 1.46484 0.710367 0
M  V30 3271 O 332.75 1.69632 0.55562 0
M  V30 3272 C 329.85 3.24987 0.961071 0
M  V30 3273 C 329.023 4.36572 0.268967 0
M  V30 3274 C 328.082 5.12756 1.18184 0
M  V30 3275 O 327.108 5.6534 0.661794 0
M  V30 3276 N 328.31 5.23331 2.51206 0
M  V30 3277 H 331.075 2.88482 -0.812295 0
M  V30 3278 H 328.636 1.51265 -0.577098 0
M  V30 3279 H 330.628 3.72827 1.57423 0
M  V30 3280 H 329.198 2.66739 1.63 0
M  V30 3281 H 328.418 3.90694 -0.524574 0
M  V30 3282 H 329.706 5.08363 -0.210934 0
M  V30 3283 H 329.104 4.82116 2.9594 0
M  V30 3284 H 327.661 5.74634 3.07634 0
M  V30 3285 N 331.094 0.475555 1.50254 0
M  V30 3286 C 332.371 -0.139685 1.95101 0
M  V30 3287 C 332.751 -1.56555 1.41611 0
M  V30 3288 O 332.099 -2.19956 0.618993 0
M  V30 3289 C 332.309 -0.0784298 3.48912 0
M  V30 3290 C 333.657 -0.265095 4.23772 0
M  V30 3291 O 334.681 -0.154808 3.55863 0
M  V30 3292 O 333.54 -0.488327 5.44314 0
M  V30 3293 H 330.634 -0.109236 0.819754 0
M  V30 3294 H 333.18 0.536276 1.61004 0
M  V30 3295 H 331.952 0.916918 3.80405 0
M  V30 3296 H 331.575 -0.795655 3.89558 0
M  V30 3297 N 332.573 -1.56217 0.208337 0
M  V30 3298 C 333.506 -2.15633 -0.746842 0
M  V30 3299 C 334.484 -1.09685 -1.20034 0
M  V30 3300 O 335.668 -1.3787 -1.28547 0
M  V30 3301 C 332.795 -2.72594 -2.01023 0
M  V30 3302 C 331.841 -3.91251 -1.69779 0
M  V30 3303 S 332.674 -5.28962 -0.834209 0
M  V30 3304 C 333.83 -5.89353 -2.10745 0
M  V30 3305 H 334.063 -2.96315 -0.241789 0
M  V30 3306 H 331.596 -1.54398 -0.00682183 0
M  V30 3307 H 333.554 -3.06053 -2.73572 0
M  V30 3308 H 332.215 -1.91929 -2.48641 0
M  V30 3309 H 331.408 -4.29562 -2.63614 0
M  V30 3310 H 331.01 -3.58869 -1.05303 0
M  V30 3311 H 333.302 -6.04522 -3.05875 0
M  V30 3312 H 334.245 -6.85661 -1.76845 0
M  V30 3313 H 334.653 -5.1807 -2.24196 0
M  V30 3314 N 334.051 0.0651679 -1.57465 0
M  V30 3315 C 334.961 1.09448 -2.07505 0
M  V30 3316 C 335.977 1.41974 -1.00595 0
M  V30 3317 O 337.153 1.52018 -1.32107 0
M  V30 3318 C 334.218 2.38689 -2.51453 0
M  V30 3319 C 333.279 2.13073 -3.72691 0
M  V30 3320 C 332.512 3.36152 -4.14533 0
M  V30 3321 O 332.735 4.45517 -3.56189 0
M  V30 3322 O 331.669 3.23974 -5.07272 0
M  V30 3323 H 335.495 0.69935 -2.95538 0
M  V30 3324 H 333.08 0.279752 -1.46757 0
M  V30 3325 H 334.962 3.14736 -2.80212 0
M  V30 3326 H 333.637 2.77568 -1.66546 0
M  V30 3327 H 332.544 1.34709 -3.49005 0
M  V30 3328 H 333.877 1.79071 -4.5847 0
M  V30 3329 N 335.529 1.53961 0.336706 0
M  V30 3330 C 336.439 1.85432 1.43708 0
M  V30 3331 C 337.455 0.745053 1.57242 0
M  V30 3332 O 338.631 1.03804 1.72588 0
M  V30 3333 C 335.696 2.06349 2.78605 0
M  V30 3334 C 334.757 3.30191 2.74358 0
M  V30 3335 C 333.99 3.50101 4.02822 0
M  V30 3336 O 334.213 2.7371 5.00439 0
M  V30 3337 O 333.147 4.43547 4.06878 0
M  V30 3338 H 336.973 2.78975 1.20028 0
M  V30 3339 H 334.558 1.39701 0.52952 0
M  V30 3340 H 336.44 2.21513 3.58483 0
M  V30 3341 H 335.115 1.15995 3.02203 0
M  V30 3342 H 334.022 3.20425 1.93078 0
M  V30 3343 H 335.355 4.2056 2.55715 0
M  V30 3344 N 337.007 -0.598083 1.45811 0
M  V30 3345 C 337.94 -1.7223 1.49706 0
M  V30 3346 C 338.918 -1.58732 0.352535 0
M  V30 3347 O 340.102 -1.80162 0.554438 0
M  V30 3348 C 337.229 -3.10148 1.3611 0
M  V30 3349 C 336.275 -3.42209 2.54549 0
M  V30 3350 S 337.108 -3.35989 4.16979 0
M  V30 3351 C 338.264 -4.76471 4.05865 0
M  V30 3352 H 338.497 -1.68665 2.44826 0
M  V30 3353 H 336.03 -0.775541 1.33509 0
M  V30 3354 H 337.988 -3.8972 1.28953 0
M  V30 3355 H 336.649 -3.11219 0.424451 0
M  V30 3356 H 335.842 -4.42652 2.40988 0
M  V30 3357 H 335.444 -2.70173 2.58617 0
M  V30 3358 H 337.736 -5.665 3.71596 0
M  V30 3359 H 338.679 -4.95089 5.06253 0
M  V30 3360 H 339.087 -4.52599 3.37364 0
M  V30 3361 N 338.485 -1.33259 -0.841409 0
M  V30 3362 C 339.418 -1.1764 -1.95541 0
M  V30 3363 C 340.396 -0.072501 -1.62438 0
M  V30 3364 O 341.58 -0.23427 -1.87039 0
M  V30 3365 C 338.707 -0.803794 -3.29024 0
M  V30 3366 C 337.753 -1.91482 -3.81099 0
M  V30 3367 S 338.586 -3.52538 -4.03085 0
M  V30 3368 C 339.742 -3.17279 -5.39523 0
M  V30 3369 H 339.975 -2.11941 -2.08491 0
M  V30 3370 H 337.508 -1.18072 -0.9949 0
M  V30 3371 H 339.466 -0.595592 -4.06156 0
M  V30 3372 H 338.127 0.120574 -3.13868 0
M  V30 3373 H 337.32 -1.60742 -4.7768 0
M  V30 3374 H 336.922 -2.07956 -3.10854 0
M  V30 3375 H 339.214 -2.67946 -6.22263 0
M  V30 3376 H 340.157 -4.1293 -5.75234 0
M  V30 3377 H 340.565 -2.53943 -5.04156 0
M  V30 3378 N 339.963 1.05934 -1.16686 0
M  V30 3379 C 341.188 1.83029 -0.975455 0
M  V30 3380 C 341.613 1.82096 0.471452 0
M  V30 3381 O 340.971 1.22443 1.33706 0
M  V30 3382 C 341.019 3.27372 -1.51195 0
M  V30 3383 O 340.123 4.06054 -0.720701 0
M  V30 3384 H 339.464 0.566194 -0.346872 0
M  V30 3385 H 341.994 1.33541 -1.55009 0
M  V30 3386 H 342.004 3.78186 -1.53099 0
M  V30 3387 H 340.679 3.27366 -2.56523 0
M  V30 3388 H 339.256 3.64812 -0.772458 0
M  V30 3389 N 341.441 0.965919 1.2453 0
M  V30 3390 C 342.351 0.502154 2.29163 0
M  V30 3391 C 343.367 -0.436017 1.68448 0
M  V30 3392 O 344.543 -0.309497 1.99008 0
M  V30 3393 C 341.608 -0.201956 3.46111 0
M  V30 3394 C 340.669 0.775821 4.22232 0
M  V30 3395 C 339.902 0.105217 5.33596 0
M  V30 3396 O 340.125 -1.10683 5.59558 0
M  V30 3397 O 339.059 0.796475 5.96607 0
M  V30 3398 H 342.885 1.37194 2.70946 0
M  V30 3399 H 340.47 0.732875 1.30189 0
M  V30 3400 H 342.352 -0.597564 4.17142 0
M  V30 3401 H 341.027 -1.04673 3.06309 0
M  V30 3402 H 339.934 1.22185 3.53584 0
M  V30 3403 H 341.267 1.58896 4.65846 0
M  V30 3404 N 342.919 -1.39368 0.735821 0
M  V30 3405 C 343.851 -2.2913 0.0567723 0
M  V30 3406 C 344.864 -1.46859 -0.702589 0
M  V30 3407 O 346.053 -1.69925 -0.546616 0
M  V30 3408 C 343.153 -3.25492 -0.943823 0
M  V30 3409 C 342.326 -4.36709 -0.24581 0
M  V30 3410 C 341.385 -5.13376 -1.15463 0
M  V30 3411 O 340.411 -5.65683 -0.631803 0
M  V30 3412 N 341.613 -5.24656 -2.48427 0
M  V30 3413 H 344.378 -2.88047 0.827582 0
M  V30 3414 H 341.939 -1.50957 0.585112 0
M  V30 3415 H 343.931 -3.73657 -1.55443 0
M  V30 3416 H 342.501 -2.676 -1.61583 0
M  V30 3417 H 341.721 -3.9041 0.545286 0
M  V30 3418 H 343.009 -5.08244 0.237891 0
M  V30 3419 H 342.407 -4.83679 -2.93379 0
M  V30 3420 H 340.964 -5.76258 -3.04582 0
M  V30 3421 N 344.397 -0.483516 -1.5 0
M  V30 3422 C 345.307 0.309172 -2.32554 0
M  V30 3423 C 346.323 0.984159 -1.43493 0
M  V30 3424 O 347.499 0.969399 -1.76535 0
M  V30 3425 C 344.564 1.36979 -3.18493 0
M  V30 3426 C 343.625 0.710095 -4.23387 0
M  V30 3427 C 342.858 1.72018 -5.05218 0
M  V30 3428 O 343.081 2.94813 -4.88305 0
M  V30 3429 O 342.015 1.28515 -5.8802 0
M  V30 3430 H 345.841 -0.366064 -3.01486 0
M  V30 3431 H 343.426 -0.24514 -1.47375 0
M  V30 3432 H 345.308 1.98385 -3.71781 0
M  V30 3433 H 343.983 2.02828 -2.52275 0
M  V30 3434 H 342.89 0.0567539 -3.74057 0
M  V30 3435 H 344.223 0.0943557 -4.9211 0
M  V30 3436 N 345.875 1.56104 -0.216619 0
M  V30 3437 C 346.823 2.21434 0.712036 0
M  V30 3438 C 347.817 1.19218 1.20348 0
M  V30 3439 O 349.023 1.3731 1.16387 0
M  V30 3440 H 345.398 0.70992 0.248026 0
M  V30 3441 H 347.369 2.98083 0.137558 0
M  V30 3442 C 346.118 2.90434 1.91163 0
M  V30 3443 H 345.441 3.68842 1.54258 0
M  V30 3444 H 346.881 3.39552 2.5393 0
M  V30 3445 C 345.34 1.92635 2.76394 0
M  V30 3446 O 345.87 1.44017 3.74996 0
M  V30 3447 N 344.076 1.60392 2.42328 0
M  V30 3448 H 343.623 2.00122 1.622 0
M  V30 3449 H 343.581 0.952159 2.99635 0
M  V30 3450 N 347.353 -0.0568162 1.57498 0
M  V30 3451 C 348.764 -0.606858 1.76562 0
M  V30 3452 C 349.115 -1.77114 0.844094 0
M  V30 3453 O 348.24 -2.16376 0.0318911 0
M  V30 3454 C 348.835 -1.10766 3.20182 0
M  V30 3455 C 347.394 -1.60344 3.40539 0
M  V30 3456 C 346.541 -0.529311 2.72201 0
M  V30 3457 H 349.492 0.169393 1.57793 0
M  V30 3458 H 349.513 -1.97602 3.25167 0
M  V30 3459 H 349.025 -0.26006 3.87228 0
M  V30 3460 H 347.126 -2.47379 2.78629 0
M  V30 3461 H 347.239 -1.67006 4.4905 0
M  V30 3462 H 345.603 -0.977893 2.35179 0
M  V30 3463 H 346.386 0.308352 3.41912 0
M  V30 3464 N 348.832 -1.54138 -0.328536 0
M  V30 3465 C 350.109 -1.62749 -1.08499 0
M  V30 3466 C 350.489 -0.458198 -2.06067 0
M  V30 3467 O 349.837 0.548046 -2.2183 0
M  V30 3468 C 350.047 -2.99519 -1.79135 0
M  V30 3469 C 351.395 -3.55394 -2.32337 0
M  V30 3470 O 352.419 -3.01792 -1.89209 0
M  V30 3471 O 351.278 -4.49186 -3.11279 0
M  V30 3472 H 348.372 -0.65886 -0.499832 0
M  V30 3473 H 350.918 -1.66484 -0.328826 0
M  V30 3474 H 349.69 -3.76061 -1.08139 0
M  V30 3475 H 349.313 -2.99441 -2.61574 0
M  V30 3476 N 350.31 0.590341 -1.46126 0
M  V30 3477 C 351.535 1.37991 -1.54833 0
M  V30 3478 C 351.96 1.87163 -0.187506 0
M  V30 3479 O 351.318 1.61133 0.831008 0
M  V30 3480 C 351.366 2.54867 -2.55098 0
M  V30 3481 O 350.47 3.56061 -2.08073 0
M  V30 3482 H 349.811 0.411265 -0.521303 0
M  V30 3483 H 352.341 0.716819 -1.91632 0
M  V30 3484 H 352.351 3.01886 -2.74461 0
M  V30 3485 H 351.026 2.18429 -3.53923 0
M  V30 3486 H 349.603 3.15574 -1.98664 0
M  V30 3487 N 351.788 1.33704 0.83433 0
M  V30 3488 C 353.013 1.28615 1.62705 0
M  V30 3489 C 353.438 -0.139242 1.87584 0
M  V30 3490 O 352.796 -1.09734 1.4432 0
M  V30 3491 C 352.844 2.07139 2.95171 0
M  V30 3492 O 351.948 1.4331 3.86699 0
M  V30 3493 H 351.289 0.44226 0.49528 0
M  V30 3494 H 353.819 1.76335 1.03766 0
M  V30 3495 H 353.829 2.18073 3.44831 0
M  V30 3496 H 352.504 3.10779 2.76386 0
M  V30 3497 H 351.081 1.4105 3.45195 0
M  V30 3498 N 353.266 -1.05314 1.17247 0
M  V30 3499 C 354.176 -2.16538 0.90268 0
M  V30 3500 C 355.192 -1.73523 -0.128707 0
M  V30 3501 O 356.368 -2.01337 0.0502701 0
M  V30 3502 C 353.433 -3.44167 0.418356 0
M  V30 3503 C 352.494 -4.01635 1.51618 0
M  V30 3504 C 351.727 -5.23171 1.05487 0
M  V30 3505 O 351.95 -5.70327 -0.0914715 0
M  V30 3506 O 350.884 -5.72848 1.8474 0
M  V30 3507 H 354.71 -2.42145 1.83302 0
M  V30 3508 H 352.295 -1.15037 0.953246 0
M  V30 3509 H 354.177 -4.21112 0.155726 0
M  V30 3510 H 352.852 -3.20063 -0.48385 0
M  V30 3511 H 351.759 -3.26135 1.83268 0
M  V30 3512 H 353.092 -4.30053 2.39405 0
M  V30 3513 N 354.744 -0.972509 -1.24016 0
M  V30 3514 C 356.155 -0.67517 -1.74064 0
M  V30 3515 C 356.506 0.808939 -1.78747 0
M  V30 3516 O 355.631 1.63286 -1.42009 0
M  V30 3517 C 356.226 -1.21889 -3.16115 0
M  V30 3518 C 354.785 -0.971358 -3.6365 0
M  V30 3519 C 353.932 -1.35134 -2.42145 0
M  V30 3520 H 356.883 -1.14727 -1.09651 0
M  V30 3521 H 356.904 -0.587489 -3.75937 0
M  V30 3522 H 356.416 -2.29906 -3.12674 0
M  V30 3523 H 354.517 0.0930686 -3.72484 0
M  V30 3524 H 354.63 -1.62039 -4.50866 0
M  V30 3525 H 352.994 -0.769751 -2.4279 0
M  V30 3526 H 353.777 -2.4411 -2.41381 0
M  V30 3527 N 356.222 1.38976 -0.743202 0
M  V30 3528 C 357.468 2.0064 -0.295189 0
M  V30 3529 C 357.801 1.5885 1.11716 0
M  V30 3530 O 357.076 0.821181 1.76315 0
M  V30 3531 C 357.359 3.578 -0.406318 0
M  V30 3532 C 357.212 4.09586 -1.85903 0
M  V30 3533 C 358.531 4.39616 0.206439 0
M  V30 3534 H 355.65 0.728935 -0.108733 0
M  V30 3535 H 358.292 1.65067 -0.940897 0
M  V30 3536 H 356.442 3.88235 0.143419 0
M  V30 3537 H 358.114 3.89837 -2.46627 0
M  V30 3538 H 356.357 3.6284 -2.3776 0
M  V30 3539 H 357.028 5.18708 -1.888 0
M  V30 3540 H 359.504 4.15273 -0.262283 0
M  V30 3541 H 358.38 5.48812 0.0983819 0
M  V30 3542 H 358.641 4.22754 1.2935 0
M  V30 3543 N 357.7 0.491464 1.49741 0
M  V30 3544 C 358.946 -0.0565092 2.02721 0
M  V30 3545 C 359.279 -1.37522 1.37118 0
M  V30 3546 O 358.554 -1.87866 0.503645 0
M  V30 3547 C 358.837 -0.219051 3.59433 0
M  V30 3548 C 358.69 1.12211 4.35579 0
M  V30 3549 C 360.009 -0.964157 4.29409 0
M  V30 3550 H 357.128 -0.0190627 0.736753 0
M  V30 3551 H 359.77 0.641021 1.7886 0
M  V30 3552 H 357.92 -0.813165 3.79895 0
M  V30 3553 H 359.592 1.75437 4.26637 0
M  V30 3554 H 357.835 1.71377 3.98513 0
M  V30 3555 H 358.506 0.961794 5.43556 0
M  V30 3556 H 360.982 -0.460378 4.13545 0
M  V30 3557 H 359.858 -1.04671 5.38828 0
M  V30 3558 H 360.119 -2.00563 3.93988 0
M  V30 3559 N 359.178 -1.55987 0.224894 0
M  V30 3560 C 360.088 -2.24066 -0.69511 0
M  V30 3561 C 361.104 -1.24939 -1.21104 0
M  V30 3562 O 362.28 -1.5776 -1.25195 0
M  V30 3563 C 359.345 -2.90983 -1.88493 0
M  V30 3564 C 358.406 -4.05462 -1.41064 0
M  V30 3565 C 357.639 -4.69179 -2.54375 0
M  V30 3566 O 357.862 -4.31895 -3.72589 0
M  V30 3567 O 356.796 -5.58108 -2.25386 0
M  V30 3568 H 360.622 -3.03353 -0.145149 0
M  V30 3569 H 358.207 -1.49399 -0.00569476 0
M  V30 3570 H 360.089 -3.33209 -2.57972 0
M  V30 3571 H 358.764 -2.14653 -2.42293 0
M  V30 3572 H 357.671 -3.67798 -0.683774 0
M  V30 3573 H 359.004 -4.83545 -0.918985 0
M  V30 3574 N 360.656 0.0484629 -1.57525 0
M  V30 3575 C 361.933 0.777447 -1.79486 0
M  V30 3576 C 362.313 1.94597 -0.818251 0
M  V30 3577 O 361.661 2.28047 0.143767 0
M  V30 3578 C 361.871 1.22864 -3.26658 0
M  V30 3579 C 363.219 1.65251 -3.91123 0
M  V30 3580 O 364.243 1.32372 -3.3069 0
M  V30 3581 O 363.102 2.26207 -4.97486 0
M  V30 3582 H 360.196 0.374357 -0.737419 0
M  V30 3583 H 362.742 0.0267359 -1.69679 0
M  V30 3584 H 361.514 0.393589 -3.89316 0
M  V30 3585 H 361.137 2.03996 -3.41279 0
M  V30 3586 N 362.134 1.5431 0.320358 0
M  V30 3587 C 363.044 1.86946 1.41734 0
M  V30 3588 C 364.06 0.761689 1.56443 0
M  V30 3589 O 365.236 1.05629 1.71477 0
M  V30 3590 C 362.301 2.09293 2.76401 0
M  V30 3591 C 361.362 3.33082 2.70841 0
M  V30 3592 C 360.595 3.54353 3.99086 0
M  V30 3593 O 360.818 2.79002 4.97508 0
M  V30 3594 O 359.752 4.47838 4.0215 0
M  V30 3595 H 363.578 2.80232 1.17062 0
M  V30 3596 H 361.163 1.40255 0.514673 0
M  V30 3597 H 363.045 2.25303 3.56113 0
M  V30 3598 H 361.72 1.19194 3.00956 0
M  V30 3599 H 360.627 3.22454 1.89668 0
M  V30 3600 H 361.96 4.23249 2.5124 0
M  V30 3601 N 363.613 -0.582584 1.46437 0
M  V30 3602 C 365.029 -0.905962 1.31394 0
M  V30 3603 C 365.229 -1.99468 0.285476 0
M  V30 3604 O 364.285 -2.50566 -0.311914 0
M  V30 3605 C 365.598 -1.3232 2.70022 0
M  V30 3606 C 367.146 -1.43604 2.78113 0
M  V30 3607 C 367.621 -1.88694 4.17323 0
M  V30 3608 N 369.112 -1.95887 4.19741 0
M  V30 3609 C 369.847 -2.32051 5.24347 0
M  V30 3610 N 369.343 -2.67006 6.39281 0
M  V30 3611 N 371.136 -2.32606 5.11713 0
M  V30 3612 H 363.287 0.1366 2.1196 0
M  V30 3613 H 365.55 -0.00155736 0.947999 0
M  V30 3614 H 365.256 -0.597242 3.46592 0
M  V30 3615 H 365.13 -2.28469 3.00136 0
M  V30 3616 H 367.517 -2.15286 2.01832 0
M  V30 3617 H 367.598 -0.457059 2.51684 0
M  V30 3618 H 367.242 -1.1759 4.941 0
M  V30 3619 H 367.172 -2.8755 4.4116 0
M  V30 3620 H 369.663 -1.71362 3.36814 0
M  V30 3621 H 369.976 -2.93554 7.14875 0
M  V30 3622 H 368.321 -2.64644 6.42642 0
M  V30 3623 H 371.512 -2.04721 4.2096 0
M  V30 3624 H 371.685 -2.60462 5.93349 0
M  V30 3625 N 365.091 -1.34144 -0.827227 0
M  V30 3626 C 366.021 -1.28005 -1.95287 0
M  V30 3627 C 367.002 -0.158321 -1.69362 0
M  V30 3628 O 368.187 -0.349987 -1.9102 0
M  V30 3629 C 365.317 -1.03036 -3.31664 0
M  V30 3630 C 364.271 -2.11628 -3.72019 0
M  V30 3631 C 363.597 -1.71854 -5.0633 0
M  V30 3632 C 364.897 -3.53417 -3.8457 0
M  V30 3633 H 366.591 -2.22187 -2.00682 0
M  V30 3634 H 364.137 -1.0696 -0.964135 0
M  V30 3635 H 366.09 -0.973863 -4.09993 0
M  V30 3636 H 364.814 -0.0529391 -3.26557 0
M  V30 3637 H 363.473 -2.16339 -2.95961 0
M  V30 3638 H 363.121 -0.727841 -4.97706 0
M  V30 3639 H 362.821 -2.44531 -5.34302 0
M  V30 3640 H 364.345 -1.67692 -5.87122 0
M  V30 3641 H 365.759 -3.51142 -4.5318 0
M  V30 3642 H 364.156 -4.24679 -4.2399 0
M  V30 3643 H 365.226 -3.91072 -2.86689 0
M  V30 3644 N 366.569 1.04691 -1.17803 0
M  V30 3645 C 367.519 2.10856 -0.867391 0
M  V30 3646 C 368.503 1.601 0.160206 0
M  V30 3647 O 369.695 1.76948 -0.042947 0
M  V30 3648 C 366.824 3.411 -0.388012 0
M  V30 3649 C 365.91 3.9864 -1.44732 0
M  V30 3650 N 366.301 4.30075 -2.66212 0
M  V30 3651 C 364.599 4.26439 -1.30637 0
M  V30 3652 C 365.3 4.76033 -3.34317 0
M  V30 3653 N 364.276 4.76462 -2.61696 0
M  V30 3654 H 368.078 2.33029 -1.79094 0
M  V30 3655 H 365.592 1.22386 -1.0675 0
M  V30 3656 H 367.589 4.16641 -0.146994 0
M  V30 3657 H 366.249 3.20357 0.529271 0
M  V30 3658 H 367.26 4.19917 -3.03134 0
M  V30 3659 H 363.937 4.15056 -0.451129 0
M  V30 3660 H 365.327 5.09427 -4.38103 0
M  V30 3661 N 368.047 0.979072 1.23499 0
M  V30 3662 C 368.997 0.489378 2.22686 0
M  V30 3663 C 369.981 -0.434871 1.54912 0
M  V30 3664 O 371.173 -0.263941 1.75021 0
M  V30 3665 C 368.302 -0.208178 3.42668 0
M  V30 3666 C 367.388 0.735563 4.17672 0
M  V30 3667 N 367.779 1.87763 4.69658 0
M  V30 3668 C 366.077 0.548625 4.42613 0
M  V30 3669 C 366.778 2.46886 5.26709 0
M  V30 3670 N 365.754 1.75287 5.14563 0
M  V30 3671 H 369.556 1.36062 2.60508 0
M  V30 3672 H 367.07 0.83958 1.39014 0
M  V30 3673 H 369.067 -0.576295 4.12898 0
M  V30 3674 H 367.727 -1.07572 3.06363 0
M  V30 3675 H 368.738 2.25885 4.66043 0
M  V30 3676 H 365.415 -0.274006 4.166 0
M  V30 3677 H 366.805 3.43326 5.77561 0
M  V30 3678 N 369.525 -1.3858 0.750561 0
M  V30 3679 C 370.802 -1.94231 0.231009 0
M  V30 3680 C 371.182 -1.68611 -1.27018 0
M  V30 3681 O 370.53 -1.02296 -2.04323 0
M  V30 3682 C 370.74 -3.44123 0.581428 0
M  V30 3683 C 372.088 -4.2116 0.539389 0
M  V30 3684 O 373.112 -3.52391 0.519541 0
M  V30 3685 O 371.971 -5.43749 0.54765 0
M  V30 3686 H 369.065 -0.825639 0.0474263 0
M  V30 3687 H 371.611 -1.4799 0.830478 0
M  V30 3688 H 370.383 -3.56267 1.61833 0
M  V30 3689 H 370.006 -3.97573 -0.0462047 0
M  V30 3690 N 371.003 -0.499398 -1.49478 0
M  V30 3691 C 372.231 0.0425456 -2.06856 0
M  V30 3692 C 372.646 1.30964 -1.35992 0
M  V30 3693 O 372.003 1.77172 -0.437762 0
M  V30 3694 C 372.054 0.301735 -3.60239 0
M  V30 3695 O 371.775 -0.915127 -4.28436 0
M  V30 3696 C 373.276 0.887499 -4.34325 0
M  V30 3697 H 370.496 -0.0197482 -0.670709 0
M  V30 3698 H 373.04 -0.696297 -1.92281 0
M  V30 3699 H 371.195 0.990556 -3.74522 0
M  V30 3700 H 371.609 -0.676993 -5.20113 0
M  V30 3701 H 373.083 1.01845 -5.42523 0
M  V30 3702 H 373.56 1.88488 -3.96698 0
M  V30 3703 H 374.166 0.236196 -4.24644 0
M  V30 3704 N 372.481 1.55866 -0.233164 0
M  V30 3705 C 373.758 1.90471 0.444988 0
M  V30 3706 C 374.138 1.15209 1.7689 0
M  V30 3707 O 373.486 0.265119 2.26957 0
M  V30 3708 C 373.696 3.4333 0.626559 0
M  V30 3709 C 375.044 4.14319 0.92871 0
M  V30 3710 O 376.068 3.48993 0.712926 0
M  V30 3711 O 374.927 5.29846 1.33887 0
M  V30 3712 H 372.021 0.792347 0.236885 0
M  V30 3713 H 374.567 1.67437 -0.276211 0
M  V30 3714 H 373.339 3.90095 -0.306822 0
M  V30 3715 H 372.962 3.72181 1.39881 0
M  V30 3716 N 373.959 -0.0401083 1.57549 0
M  V30 3717 C 375.236 -0.767917 1.79896 0
M  V30 3718 C 375.616 -1.9416 0.82856 0
M  V30 3719 O 374.964 -2.2812 -0.131671 0
M  V30 3720 C 375.174 -1.2113 3.27305 0
M  V30 3721 C 376.522 -1.63175 3.91994 0
M  V30 3722 O 377.546 -1.30616 3.31388 0
M  V30 3723 O 376.405 -2.23565 4.98679 0
M  V30 3724 H 373.499 -0.370441 0.739393 0
M  V30 3725 H 376.045 -0.017737 1.69691 0
M  V30 3726 H 374.817 -0.372937 3.89519 0
M  V30 3727 H 374.44 -2.02183 3.42356 0
M  V30 3728 N 375.437 -1.54477 -0.31217 0
M  V30 3729 C 376.683 -1.73483 -1.0503 0
M  V30 3730 C 377.016 -0.513125 -1.87298 0
M  V30 3731 O 376.291 0.489864 -1.8823 0
M  V30 3732 C 376.574 -3.01723 -1.96558 0
M  V30 3733 C 376.427 -4.3417 -1.17545 0
M  V30 3734 C 377.746 -3.25772 -2.95907 0
M  V30 3735 H 374.865 -0.631222 -0.380432 0
M  V30 3736 H 377.507 -1.87184 -0.325932 0
M  V30 3737 H 375.657 -2.90174 -2.58324 0
M  V30 3738 H 377.329 -4.5762 -0.581513 0
M  V30 3739 H 375.572 -4.31159 -0.477925 0
M  V30 3740 H 376.243 -5.20143 -1.84811 0
M  V30 3741 H 378.719 -3.36857 -2.44267 0
M  V30 3742 H 377.595 -4.16838 -3.57123 0
M  V30 3743 H 377.856 -2.43537 -3.68974 0
M  V30 3744 N 376.915 0.57481 -1.46744 0
M  V30 3745 C 378.143 1.35856 -1.56047 0
M  V30 3746 C 378.558 1.87691 -0.204365 0
M  V30 3747 O 377.915 1.64049 0.79963 0
M  V30 3748 C 377.966 2.54066 -2.57163 0
M  V30 3749 O 377.687 2.04377 -3.87507 0
M  V30 3750 C 379.188 3.46514 -2.76483 0
M  V30 3751 H 376.408 0.414754 -0.527466 0
M  V30 3752 H 378.952 0.698035 -1.92218 0
M  V30 3753 H 377.107 3.16092 -2.23974 0
M  V30 3754 H 377.521 2.81419 -4.4261 0
M  V30 3755 H 378.995 4.25919 -3.51137 0
M  V30 3756 H 379.472 3.98951 -1.83671 0
M  V30 3757 H 380.078 2.90318 -3.10799 0
M  V30 3758 N 378.394 1.34581 0.820102 0
M  V30 3759 C 379.624 1.29991 1.6058 0
M  V30 3760 C 380.032 -0.127588 1.88769 0
M  V30 3761 O 379.375 -1.08595 1.48165 0
M  V30 3762 C 379.437 2.02548 2.9701 0
M  V30 3763 C 379.101 3.51794 2.91701 0
M  V30 3764 C 380.098 4.46647 2.66087 0
M  V30 3765 C 377.783 3.94249 3.11245 0
M  V30 3766 C 379.777 5.81929 2.60071 0
M  V30 3767 C 377.464 5.2963 3.04853 0
M  V30 3768 C 378.462 6.23282 2.793 0
M  V30 3769 O 378.15 7.56181 2.72847 0
M  V30 3770 H 377.882 0.448539 0.505756 0
M  V30 3771 H 380.436 1.77811 1.02822 0
M  V30 3772 H 378.666 1.49345 3.56697 0
M  V30 3773 H 380.355 1.91211 3.58041 0
M  V30 3774 H 381.121 4.15168 2.5072 0
M  V30 3775 H 377 3.21749 3.30149 0
M  V30 3776 H 380.544 6.54999 2.40046 0
M  V30 3777 H 376.441 5.60727 3.19774 0
M  V30 3778 H 377.209 7.6595 2.88553 0
M  V30 3779 N 379.872 -1.04064 1.18357 0
M  V30 3780 C 380.804 -2.12114 0.868358 0
M  V30 3781 C 381.817 -1.62247 -0.134045 0
M  V30 3782 O 383.006 -1.78253 0.0937933 0
M  V30 3783 C 380.106 -3.37773 0.276132 0
M  V30 3784 C 379.279 -4.16874 1.3242 0
M  V30 3785 C 378.338 -5.20861 0.747662 0
M  V30 3786 O 377.364 -5.51141 1.42239 0
M  V30 3787 N 378.566 -5.78715 -0.454823 0
M  V30 3788 H 381.331 -2.39748 1.79836 0
M  V30 3789 H 378.892 -1.20258 1.08396 0
M  V30 3790 H 380.884 -4.04513 -0.123133 0
M  V30 3791 H 379.454 -3.07581 -0.557895 0
M  V30 3792 H 378.674 -3.45456 1.89878 0
M  V30 3793 H 379.962 -4.66516 2.03078 0
M  V30 3794 H 379.36 -5.56415 -1.02073 0
M  V30 3795 H 377.917 -6.46921 -0.79601 0
M  V30 3796 N 381.35 -0.985608 -1.22978 0
M  V30 3797 C 382.596 -0.65836 -1.91816 0
M  V30 3798 C 382.929 0.806692 -1.76653 0
M  V30 3799 O 382.204 1.58252 -1.13078 0
M  V30 3800 C 382.487 -1.056 -3.44268 0
M  V30 3801 C 382.34 -2.57906 -3.68516 0
M  V30 3802 C 383.659 -0.603781 -4.35939 0
M  V30 3803 H 380.778 -0.24065 -0.696604 0
M  V30 3804 H 383.42 -1.22783 -1.44998 0
M  V30 3805 H 381.57 -0.571445 -3.84274 0
M  V30 3806 H 383.242 -3.13976 -3.3796 0
M  V30 3807 H 381.485 -3.00305 -3.13048 0
M  V30 3808 H 382.156 -2.80779 -4.75255 0
M  V30 3809 H 384.632 -1.01987 -4.03408 0
M  V30 3810 H 383.508 -0.910383 -5.41298 0
M  V30 3811 H 383.769 0.495761 -4.39312 0
M  V30 3812 N 382.828 1.3818 -0.7579 0
M  V30 3813 C 384.058 2.04004 -0.326463 0
M  V30 3814 C 384.466 1.57286 1.05156 0
M  V30 3815 O 383.809 0.743144 1.67997 0
M  V30 3816 C 383.871 3.58444 -0.275402 0
M  V30 3817 C 383.535 4.28237 -1.59569 0
M  V30 3818 C 384.532 4.53312 -2.54566 0
M  V30 3819 C 382.217 4.66341 -1.86631 0
M  V30 3820 C 384.211 5.15531 -3.74842 0
M  V30 3821 C 381.898 5.28283 -3.0718 0
M  V30 3822 C 382.896 5.52814 -4.01106 0
M  V30 3823 O 382.584 6.13465 -5.19534 0
M  V30 3824 H 382.316 0.662026 -0.136739 0
M  V30 3825 H 384.87 1.7777 -1.02893 0
M  V30 3826 H 383.1 3.83667 0.483337 0
M  V30 3827 H 384.789 4.05701 0.127099 0
M  V30 3828 H 385.555 4.24299 -2.34936 0
M  V30 3829 H 381.434 4.46591 -1.14358 0
M  V30 3830 H 384.978 5.34594 -4.48168 0
M  V30 3831 H 380.875 5.56719 -3.26702 0
M  V30 3832 H 381.643 6.31951 -5.20173 0
M  V30 3833 N 384.306 0.507319 1.49211 0
M  V30 3834 C 385.216 -0.272136 2.33016 0
M  V30 3835 C 386.232 -0.961206 1.45041 0
M  V30 3836 O 387.408 -0.941191 1.78055 0
M  V30 3837 C 384.473 -1.31895 3.20631 0
M  V30 3838 C 383.534 -0.642648 4.24463 0
M  V30 3839 C 382.767 -1.63959 5.07891 0
M  V30 3840 O 382.99 -2.87007 4.92933 0
M  V30 3841 O 381.924 -1.19143 5.8999 0
M  V30 3842 H 385.75 0.413982 3.00865 0
M  V30 3843 H 383.335 0.268556 1.46966 0
M  V30 3844 H 385.217 -1.92446 3.7489 0
M  V30 3845 H 383.892 -1.98788 2.5547 0
M  V30 3846 H 382.799 0.00276252 3.741 0
M  V30 3847 H 384.132 -0.0160534 4.92197 0
M  V30 3848 N 385.784 -1.5574 0.241426 0
M  V30 3849 C 386.694 -2.2479 -0.671305 0
M  V30 3850 C 387.71 -1.26217 -1.19772 0
M  V30 3851 O 388.886 -1.59079 -1.23514 0
M  V30 3852 C 385.951 -2.92966 -1.85396 0
M  V30 3853 C 385.012 -4.06935 -1.36756 0
M  V30 3854 C 384.245 -4.71851 -2.49384 0
M  V30 3855 O 384.468 -4.35823 -3.67987 0
M  V30 3856 O 383.402 -5.60467 -2.19454 0
M  V30 3857 H 387.228 -3.0349 -0.112966 0
M  V30 3858 H 384.813 -1.49397 0.0101513 0
M  V30 3859 H 386.695 -3.35927 -2.54423 0
M  V30 3860 H 385.37 -2.17211 -2.40002 0
M  V30 3861 H 384.277 -3.68503 -0.644726 0
M  V30 3862 H 385.61 -4.84492 -0.867647 0
M  V30 3863 N 387.262 0.0317525 -1.57568 0
M  V30 3864 C 388.194 1.06073 -2.03178 0
M  V30 3865 C 389.207 1.32627 -0.944132 0
M  V30 3866 O 390.396 1.30162 -1.22148 0
M  V30 3867 C 387.496 2.40297 -2.38978 0
M  V30 3868 C 386.669 2.33137 -3.70089 0
M  V30 3869 C 385.728 3.49787 -3.9311 0
M  V30 3870 O 384.754 3.29403 -4.64201 0
M  V30 3871 N 385.956 4.71562 -3.38541 0
M  V30 3872 H 388.721 0.672006 -2.92069 0
M  V30 3873 H 386.282 0.219745 -1.60402 0
M  V30 3874 H 388.274 3.1705 -2.51518 0
M  V30 3875 H 386.844 2.71024 -1.55771 0
M  V30 3876 H 386.064 1.415 -3.67928 0
M  V30 3877 H 387.352 2.25493 -4.56104 0
M  V30 3878 H 386.75 4.91024 -2.80912 0
M  V30 3879 H 385.307 5.45689 -3.56464 0
M  V30 3880 N 388.74 1.54641 0.303973 0
M  V30 3881 C 389.703 1.84646 1.35789 0
M  V30 3882 C 390.703 0.7192 1.4382 0
M  V30 3883 O 391.893 0.987491 1.43507 0
M  V30 3884 C 389.025 2.02407 2.74307 0
M  V30 3885 H 390.218 2.78829 1.10429 0
M  V30 3886 H 387.771 1.46658 0.540487 0
M  V30 3887 H 388.506 1.10502 3.04893 0
M  V30 3888 H 388.291 2.84453 2.69868 0
M  V30 3889 H 389.781 2.27002 3.50514 0
M  V30 3890 N 390.218 -0.567019 1.47046 0
M  V30 3891 C 391.464 -1.32658 1.53394 0
M  V30 3892 C 391.797 -1.93254 0.19148 0
M  V30 3893 O 391.072 -1.77338 -0.798844 0
M  V30 3894 C 391.355 -2.44412 2.64452 0
M  V30 3895 C 391.208 -1.88749 4.08282 0
M  V30 3896 C 392.527 -3.46387 2.71485 0
M  V30 3897 H 389.646 -0.48098 0.558415 0
M  V30 3898 H 392.288 -0.635481 1.79058 0
M  V30 3899 H 390.438 -3.03363 2.427 0
M  V30 3900 H 392.11 -1.34134 4.41368 0
M  V30 3901 H 390.353 -1.19481 4.17021 0
M  V30 3902 H 391.024 -2.69491 4.81745 0
M  V30 3903 H 393.5 -2.9734 2.91081 0
M  V30 3904 H 392.376 -4.2202 3.50985 0
M  V30 3905 H 392.637 -4.04616 1.78153 0
M  V30 3906 N 391.696 -1.35014 -0.812953 0
M  V30 3907 C 392.926 -1.30841 -1.59888 0
M  V30 3908 C 393.334 0.117576 -1.88834 0
M  V30 3909 O 392.677 1.07807 -1.48739 0
M  V30 3910 C 392.739 -2.0412 -2.95931 0
M  V30 3911 C 392.403 -3.53336 -2.89832 0
M  V30 3912 C 393.4 -4.48052 -2.63714 0
M  V30 3913 C 391.085 -3.95894 -3.0915 0
M  V30 3914 C 393.079 -5.833 -2.56982 0
M  V30 3915 C 390.766 -5.31239 -3.0204 0
M  V30 3916 C 391.764 -6.24754 -2.75991 0
M  V30 3917 O 391.452 -7.57617 -2.68833 0
M  V30 3918 H 391.184 -0.451215 -0.50337 0
M  V30 3919 H 393.738 -1.78354 -1.01877 0
M  V30 3920 H 391.968 -1.51235 -3.559 0
M  V30 3921 H 393.657 -1.93107 -3.57022 0
M  V30 3922 H 394.423 -4.16492 -2.48515 0
M  V30 3923 H 390.302 -3.23495 -3.28438 0
M  V30 3924 H 393.846 -6.56263 -2.36569 0
M  V30 3925 H 389.743 -5.62415 -3.16796 0
M  V30 3926 H 390.511 -7.67469 -2.84487 0
M  V30 3927 N 393.175 1.03435 -1.18907 0
M  V30 3928 C 394.085 2.15075 -0.937015 0
M  V30 3929 C 395.101 1.73706 0.101085 0
M  V30 3930 O 396.277 2.01232 -0.0822948 0
M  V30 3931 C 393.342 3.43458 -0.473057 0
M  V30 3932 C 392.403 3.99172 -1.57989 0
M  V30 3933 C 391.636 5.21427 -1.13797 0
M  V30 3934 O 391.859 5.704 0.000725941 0
M  V30 3935 O 390.793 5.69837 -1.9383 0
M  V30 3936 H 394.619 2.39198 -1.87131 0
M  V30 3937 H 392.204 1.13506 -0.971427 0
M  V30 3938 H 394.086 4.20811 -0.222702 0
M  V30 3939 H 392.761 3.20793 0.432869 0
M  V30 3940 H 391.668 3.23178 -1.88433 0
M  V30 3941 H 393.001 4.2619 -2.46217 0
M  V30 3942 N 394.653 0.992116 1.22453 0
M  V30 3943 C 396.064 0.702776 1.72968 0
M  V30 3944 C 396.415 -0.780399 1.80012 0
M  V30 3945 O 395.54 -1.61007 1.44589 0
M  V30 3946 C 396.135 1.26903 3.14135 0
M  V30 3947 C 394.694 1.02909 3.62059 0
M  V30 3948 C 393.841 1.38969 2.39964 0
M  V30 3949 H 396.792 1.16457 1.07812 0
M  V30 3950 H 396.813 0.647223 3.74955 0
M  V30 3951 H 396.325 2.34851 3.08977 0
M  V30 3952 H 394.426 -0.0337979 3.72585 0
M  V30 3953 H 394.539 1.69191 4.48231 0
M  V30 3954 H 392.903 0.808279 2.41535 0
M  V30 3955 H 393.686 2.4792 2.37467 0
M  V30 3956 N 396.131 -1.37776 0.765217 0
M  V30 3957 C 397.061 -2.32945 0.160953 0
M  V30 3958 C 398.042 -1.55454 -0.690516 0
M  V30 3959 O 399.227 -1.83721 -0.629318 0
M  V30 3960 C 396.357 -3.39669 -0.724031 0
M  V30 3961 C 395.311 -4.27992 0.0256173 0
M  V30 3962 C 394.637 -5.25673 -0.978383 0
M  V30 3963 C 395.937 -5.08309 1.20082 0
M  V30 3964 H 397.631 -2.83728 0.955969 0
M  V30 3965 H 395.177 -1.36416 0.461149 0
M  V30 3966 H 397.13 -4.05219 -1.15652 0
M  V30 3967 H 395.854 -2.87396 -1.5515 0
M  V30 3968 H 394.513 -3.63964 0.438812 0
M  V30 3969 H 394.161 -4.69682 -1.80022 0
M  V30 3970 H 393.861 -5.85625 -0.481378 0
M  V30 3971 H 395.385 -5.94098 -1.40995 0
M  V30 3972 H 396.799 -5.67034 0.845307 0
M  V30 3973 H 395.196 -5.77554 1.62947 0
M  V30 3974 H 396.266 -4.41365 2.00811 0
M  V30 3975 N 397.609 -0.515225 -1.4894 0
M  V30 3976 C 398.519 0.259774 -2.33157 0
M  V30 3977 C 399.535 0.953501 -1.45548 0
M  V30 3978 O 400.711 0.931735 -1.78552 0
M  V30 3979 C 397.776 1.30193 -3.21326 0
M  V30 3980 C 396.837 0.620129 -4.24797 0
M  V30 3981 C 396.07 1.61263 -5.08753 0
M  V30 3982 O 396.293 2.84389 -4.94448 0
M  V30 3983 O 395.227 1.16013 -5.90614 0
M  V30 3984 H 399.053 -0.429932 -3.00641 0
M  V30 3985 H 396.638 -0.276346 -1.46822 0
M  V30 3986 H 398.52 1.90455 -3.75905 0
M  V30 3987 H 397.195 1.97431 -2.56521 0
M  V30 3988 H 396.102 -0.0226019 -3.74093 0
M  V30 3989 H 397.435 -0.0100493 -4.92199 0
M  V30 3990 N 399.087 1.5561 -0.249682 0
M  V30 3991 C 400.035 2.22894 0.664906 0
M  V30 3992 C 401.029 1.21743 1.17792 0
M  V30 3993 O 402.235 1.39748 1.13449 0
M  V30 3994 H 398.61 0.715022 0.232912 0
M  V30 3995 H 400.581 2.98307 0.0742998 0
M  V30 3996 C 399.33 2.94424 1.84959 0
M  V30 3997 H 398.653 3.72031 1.46399 0
M  V30 3998 H 400.093 3.44862 2.4667 0
M  V30 3999 C 398.552 1.98454 2.72245 0
M  V30 4000 O 399.082 1.51939 3.71857 0
M  V30 4001 N 397.288 1.65496 2.38871 0
M  V30 4002 H 396.835 2.03517 1.57919 0
M  V30 4003 H 396.793 1.0155 2.97548 0
M  V30 4004 N 400.565 -0.0233959 1.57583 0
M  V30 4005 C 401.475 -1.03907 2.10334 0
M  V30 4006 C 402.491 -1.39257 1.04323 0
M  V30 4007 O 403.667 -1.48462 1.36091 0
M  V30 4008 C 400.732 -2.31938 2.57693 0
M  V30 4009 C 399.793 -2.03117 3.78209 0
M  V30 4010 C 399.026 -3.25043 4.233 0
M  V30 4011 O 399.249 -4.35916 3.67876 0
M  V30 4012 O 398.183 -3.10411 5.15683 0
M  V30 4013 H 402.009 -0.620748 2.97288 0
M  V30 4014 H 399.594 -0.240743 1.47448 0
M  V30 4015 H 401.476 -3.07196 2.88458 0
M  V30 4016 H 400.151 -2.73055 1.73847 0
M  V30 4017 H 399.058 -1.25408 3.52454 0
M  V30 4018 H 400.391 -1.66852 4.63056 0
M  V30 4019 N 402.043 -1.548 -0.295768 0
M  V30 4020 C 403.291 -1.73985 -1.02828 0
M  V30 4021 C 403.612 -0.531406 -1.87619 0
M  V30 4022 O 402.882 0.454221 -1.90561 0
M  V30 4023 H 401.462 -0.641556 -0.382642 0
M  V30 4024 H 404.124 -1.92163 -0.325489 0
M  V30 4025 H 403.22 -2.63129 -1.67838 0
M  V30 4026 N 403.521 0.559213 -1.47345 0
M  V30 4027 C 404.77 1.31281 -1.53128 0
M  V30 4028 C 405.083 1.94602 -0.197344 0
M  V30 4029 O 406.289 2.71173 -0.133154 0
M  V30 4030 C 404.745 2.38051 -2.69925 0
M  V30 4031 C 404.353 1.8093 -4.0984 0
M  V30 4032 C 406.097 3.14604 -2.84999 0
M  V30 4033 C 404.004 2.85468 -5.1794 0
M  V30 4034 H 402.934 0.493614 -0.569966 0
M  V30 4035 H 405.585 0.594155 -1.73615 0
M  V30 4036 H 403.967 3.12822 -2.42814 0
M  V30 4037 H 405.141 1.12544 -4.46845 0
M  V30 4038 H 403.456 1.16967 -3.99634 0
M  V30 4039 H 406.053 3.92666 -3.62929 0
M  V30 4040 H 406.396 3.68665 -1.93369 0
M  V30 4041 H 406.929 2.46945 -3.1187 0
M  V30 4042 H 403.668 2.36264 -6.1144 0
M  V30 4043 H 403.188 3.52269 -4.85455 0
M  V30 4044 H 404.867 3.48996 -5.44803 0
M  V30 4045 N 404.999 1.35443 0.805782 0
M  V30 4046 C 405.909 1.30546 1.94923 0
M  V30 4047 C 406.925 0.210233 1.72725 0
M  V30 4048 O 408.101 0.43975 1.9654 0
M  V30 4049 C 405.166 1.07782 3.29521 0
M  V30 4050 C 404.227 2.26625 3.64609 0
M  V30 4051 C 403.46 2.04938 4.92784 0
M  V30 4052 O 403.683 1.01624 5.61274 0
M  V30 4053 O 402.617 2.9232 5.26149 0
M  V30 4054 H 406.443 2.26779 2.02002 0
M  V30 4055 H 404.028 1.15823 0.943682 0
M  V30 4056 H 405.91 0.969392 4.10098 0
M  V30 4057 H 404.585 0.146003 3.23371 0
M  V30 4058 H 403.492 2.43033 2.84404 0
M  V30 4059 H 404.825 3.18257 3.75464 0
M  V30 4060 N 406.477 -1.02803 1.19454 0
M  V30 4061 C 407.726 -1.7562 0.991996 0
M  V30 4062 C 408.039 -1.89672 -0.477901 0
M  V30 4063 O 409.245 -2.59468 -0.799287 0
M  V30 4064 C 407.701 -3.15812 1.72601 0
M  V30 4065 C 407.309 -3.0981 3.23607 0
M  V30 4066 C 409.053 -3.92918 1.60674 0
M  V30 4067 C 406.96 -4.44939 3.89594 0
M  V30 4068 H 405.89 -0.658352 0.367543 0
M  V30 4069 H 408.541 -1.15044 1.42959 0
M  V30 4070 H 406.923 -3.7686 1.21624 0
M  V30 4071 H 408.097 -2.58138 3.81709 0
M  V30 4072 H 406.412 -2.46201 3.35819 0
M  V30 4073 H 409.009 -4.9287 2.07323 0
M  V30 4074 H 409.352 -4.12502 0.561025 0
M  V30 4075 H 409.885 -3.38472 2.09001 0
M  V30 4076 H 406.624 -4.30559 4.94267 0
M  V30 4077 H 406.144 -4.96664 3.36281 0
M  V30 4078 H 407.823 -5.1382 3.93189 0
M  V30 4079 N 407.956 -0.998596 -1.21925 0
M  V30 4080 C 409.184 -0.696286 -1.94832 0
M  V30 4081 C 409.599 0.740032 -1.73692 0
M  V30 4082 O 408.956 1.5 -1.03953 0
M  V30 4083 C 409.007 -0.999833 -3.47398 0
M  V30 4084 O 408.728 -2.37972 -3.67833 0
M  V30 4085 C 410.229 -0.716025 -4.37479 0
M  V30 4086 H 407.449 -0.257111 -0.619786 0
M  V30 4087 H 409.993 -1.33491 -1.54921 0
M  V30 4088 H 408.148 -0.406918 -3.85257 0
M  V30 4089 H 408.562 -2.48338 -4.61983 0
M  V30 4090 H 410.036 -0.978642 -5.43256 0
M  V30 4091 H 410.513 0.349968 -4.37803 0
M  V30 4092 H 411.119 -1.29025 -4.05256 0
M  V30 4093 N 409.434 1.37368 -0.772513 0
M  V30 4094 C 410.344 2.34053 -0.160081 0
M  V30 4095 C 411.36 1.60216 0.678728 0
M  V30 4096 O 412.536 1.92303 0.59847 0
M  V30 4097 C 409.601 3.3939 0.708182 0
M  V30 4098 C 408.662 4.29048 -0.147172 0
M  V30 4099 C 407.895 5.29354 0.679744 0
M  V30 4100 O 408.118 5.3723 1.91678 0
M  V30 4101 O 407.052 6.01835 0.0885444 0
M  V30 4102 H 410.878 2.88159 -0.959053 0
M  V30 4103 H 408.463 1.39543 -0.533685 0
M  V30 4104 H 410.345 4.03839 1.20384 0
M  V30 4105 H 409.02 2.8761 1.48533 0
M  V30 4106 H 407.927 3.67697 -0.689205 0
M  V30 4107 H 409.26 4.84134 -0.887423 0
M  V30 4108 N 410.912 0.523116 1.48665 0
M  V30 4109 C 412.158 -0.0134963 2.02796 0
M  V30 4110 C 412.491 -1.34582 1.40004 0
M  V30 4111 O 411.766 -1.86756 0.543381 0
M  V30 4112 C 412.049 -0.14276 3.59817 0
M  V30 4113 C 411.902 1.21425 4.331 0
M  V30 4114 C 413.221 -0.872856 4.31357 0
M  V30 4115 H 410.34 -0.00343074 0.736992 0
M  V30 4116 H 412.982 0.678816 1.7746 0
M  V30 4117 H 411.132 -0.732401 3.81534 0
M  V30 4118 H 412.804 1.84447 4.2282 0
M  V30 4119 H 411.047 1.79791 3.94788 0
M  V30 4120 H 411.718 1.07687 5.41394 0
M  V30 4121 H 414.194 -0.372555 4.14429 0
M  V30 4122 H 413.07 -0.932185 5.40927 0
M  V30 4123 H 413.331 -1.92161 3.98154 0
M  V30 4124 N 412.39 -1.55475 0.257931 0
M  V30 4125 C 413.618 -2.03609 -0.367559 0
M  V30 4126 C 414.033 -1.13687 -1.50734 0
M  V30 4127 O 413.39 -0.153479 -1.81853 0
M  V30 4128 C 413.441 -3.51001 -0.864908 0
M  V30 4129 O 413.162 -4.37499 0.229465 0
M  V30 4130 C 414.663 -4.14946 -1.55997 0
M  V30 4131 H 411.883 -0.665459 -0.0860521 0
M  V30 4132 H 414.427 -2.00843 0.385014 0
M  V30 4133 H 412.582 -3.54266 -1.56762 0
M  V30 4134 H 412.996 -5.24286 -0.14998 0
M  V30 4135 H 414.47 -5.19735 -1.85956 0
M  V30 4136 H 414.947 -3.6209 -2.4857 0
M  V30 4137 H 415.553 -4.15635 -0.901543 0
M  V30 4138 N 413.868 0.0150385 -1.57593 0
M  V30 4139 C 414.831 0.995996 -2.06428 0
M  V30 4140 C 415.831 1.2818 -0.970903 0
M  V30 4141 O 417.021 1.22949 -1.23406 0
M  V30 4142 C 414.153 2.32506 -2.49307 0
M  V30 4143 H 415.346 0.573873 -2.94358 0
M  V30 4144 H 412.899 0.262186 -1.54085 0
M  V30 4145 H 413.634 2.79438 -1.64575 0
M  V30 4146 H 413.419 2.13087 -3.29145 0
M  V30 4147 H 414.909 3.02906 -2.87468 0
M  V30 4148 N 415.346 1.54954 0.287554 0
M  V30 4149 C 416.757 1.65732 0.859634 0
M  V30 4150 C 417.108 0.574767 1.87592 0
M  V30 4151 O 416.233 -0.286299 2.14498 0
M  V30 4152 C 416.828 3.00438 1.56597 0
M  V30 4153 C 415.387 3.13292 2.08627 0
M  V30 4154 C 414.534 2.61473 0.923416 0
M  V30 4155 H 417.485 1.5857 0.0642338 0
M  V30 4156 H 417.506 2.92613 2.43224 0
M  V30 4157 H 417.018 3.79207 0.826053 0
M  V30 4158 H 415.119 2.39268 2.85625 0
M  V30 4159 H 415.232 4.19647 2.31157 0
M  V30 4160 H 413.596 2.18264 1.31275 0
M  V30 4161 H 414.379 3.42733 0.197241 0
M  V30 4162 N 416.824 -0.551391 1.4764 0
M  V30 4163 C 418.235 -1.13349 1.48354 0
M  V30 4164 C 418.586 -1.94709 0.241432 0
M  V30 4165 O 417.711 -2.06306 -0.653205 0
M  V30 4166 C 418.306 -2.0623 2.68802 0
M  V30 4167 C 416.865 -2.597 2.72457 0
M  V30 4168 C 416.012 -1.36201 2.41546 0
M  V30 4169 H 418.963 -0.337698 1.55065 0
M  V30 4170 H 418.984 -2.90196 2.46103 0
M  V30 4171 H 418.496 -1.46987 3.59188 0
M  V30 4172 H 416.597 -3.22724 1.86225 0
M  V30 4173 H 416.71 -3.00296 3.73308 0
M  V30 4174 H 415.074 -1.67068 1.9225 0
M  V30 4175 H 415.857 -0.787425 3.34147 0
M  V30 4176 N 418.302 -1.35869 -0.798587 0
M  V30 4177 C 419.212 -1.31578 -1.94228 0
M  V30 4178 C 420.228 -0.21939 -1.72611 0
M  V30 4179 O 421.404 -0.450167 -1.96305 0
M  V30 4180 C 418.469 -1.09528 -3.28944 0
M  V30 4181 C 417.53 -2.28556 -3.63402 0
M  V30 4182 C 416.763 -2.07549 -4.9169 0
M  V30 4183 O 416.986 -1.046 -5.60727 0
M  V30 4184 O 415.92 -2.95106 -5.24591 0
M  V30 4185 H 419.746 -2.27847 -2.00796 0
M  V30 4186 H 417.331 -1.16322 -0.937526 0
M  V30 4187 H 419.213 -0.991127 -4.09579 0
M  V30 4188 H 417.888 -0.16315 -3.23289 0
M  V30 4189 H 416.795 -2.44538 -2.83112 0
M  V30 4190 H 418.128 -3.20244 -3.73771 0
M  V30 4191 N 419.78 1.02168 -1.19998 0
M  V30 4192 C 421.057 1.72816 -0.916191 0
M  V30 4193 C 421.437 2.03081 0.576325 0
M  V30 4194 O 420.785 1.69122 1.53656 0
M  V30 4195 C 420.995 2.9997 -1.78378 0
M  V30 4196 C 422.343 3.73336 -2.02251 0
M  V30 4197 O 423.367 3.09914 -1.75589 0
M  V30 4198 O 422.226 4.87371 -2.47249 0
M  V30 4199 H 419.32 0.752924 -0.342103 0
M  V30 4200 H 421.866 1.08062 -1.30846 0
M  V30 4201 H 420.638 2.73888 -2.79466 0
M  V30 4202 H 420.261 3.72464 -1.39126 0
M  V30 4203 N 421.258 1.00505 1.21394 0
M  V30 4204 C 422.206 0.558623 2.25792 0
M  V30 4205 C 423.2 -0.396848 1.64686 0
M  V30 4206 O 424.406 -0.268035 1.77993 0
M  V30 4207 H 420.781 0.1623 0.734277 0
M  V30 4208 H 422.752 1.4503 2.60785 0
M  V30 4209 C 421.501 -0.0989574 3.47559 0
M  V30 4210 H 420.824 0.627225 3.94849 0
M  V30 4211 H 422.264 -0.3746 4.22342 0
M  V30 4212 C 420.723 -1.33817 3.09184 0
M  V30 4213 O 421.253 -2.43252 3.19674 0
M  V30 4214 N 419.459 -1.21793 2.63846 0
M  V30 4215 H 419.006 -0.32746 2.5551 0
M  V30 4216 H 418.964 -2.04809 2.38539 0
M  V30 4217 N 422.737 -1.36956 0.779787 0
M  V30 4218 C 424.148 -1.82094 0.412156 0
M  V30 4219 C 424.499 -1.64926 -1.06273 0
M  V30 4220 O 423.624 -1.16483 -1.82375 0
M  V30 4221 C 424.219 -3.3059 0.741319 0
M  V30 4222 C 422.778 -3.73974 0.426641 0
M  V30 4223 C 421.925 -2.59368 0.980987 0
M  V30 4224 H 424.876 -1.25314 0.973758 0
M  V30 4225 H 424.897 -3.80489 0.028887 0
M  V30 4226 H 424.409 -3.43054 1.81482 0
M  V30 4227 H 422.51 -3.67076 -0.639215 0
M  V30 4228 H 422.623 -4.69778 0.940515 0
M  V30 4229 H 420.987 -2.51463 0.404757 0
M  V30 4230 H 421.77 -2.74621 2.06005 0
M  V30 4231 N 424.215 -0.530993 -1.48385 0
M  V30 4232 C 425.461 0.00274135 -2.028 0
M  V30 4233 C 425.794 1.33838 -1.40716 0
M  V30 4234 O 425.069 1.86465 -0.553277 0
M  V30 4235 C 425.352 0.123676 -3.59888 0
M  V30 4236 C 425.205 -1.2372 -4.3245 0
M  V30 4237 C 426.524 0.849967 -4.31814 0
M  V30 4238 H 423.643 -0.000477758 -0.737 0
M  V30 4239 H 426.285 -0.688217 -1.77098 0
M  V30 4240 H 424.435 0.712157 -3.81917 0
M  V30 4241 H 426.107 -1.86687 -4.21836 0
M  V30 4242 H 424.35 -1.81882 -3.93829 0
M  V30 4243 H 425.021 -1.10557 -5.40815 0
M  V30 4244 H 427.497 0.350572 -4.14621 0
M  V30 4245 H 426.373 0.903486 -5.41413 0
M  V30 4246 H 426.634 1.90047 -3.99167 0
M  V30 4247 N 425.693 1.55336 -0.266172 0
M  V30 4248 C 426.603 2.2583 0.635458 0
M  V30 4249 C 427.619 1.28106 1.17749 0
M  V30 4250 O 428.795 1.61024 1.20968 0
M  V30 4251 C 425.86 2.95879 1.80712 0
M  V30 4252 C 424.921 4.09059 1.30265 0
M  V30 4253 C 424.154 4.75759 2.41846 0
M  V30 4254 O 424.377 4.41622 3.61007 0
M  V30 4255 O 423.311 5.63888 2.1051 0
M  V30 4256 H 427.137 3.03631 0.0646693 0
M  V30 4257 H 424.722 1.49361 -0.0339177 0
M  V30 4258 H 426.604 3.39932 2.49047 0
M  V30 4259 H 425.279 2.21002 2.36516 0
M  V30 4260 H 424.186 3.69482 0.586019 0
M  V30 4261 H 425.519 4.85811 0.790458 0
M  V30 4262 N 427.171 -0.0066808 1.57599 0
M  V30 4263 C 428.448 -0.729586 1.81484 0
M  V30 4264 C 428.828 -1.92359 0.869558 0
M  V30 4265 O 428.176 -2.28348 -0.0832533 0
M  V30 4266 C 428.386 -1.1416 3.29801 0
M  V30 4267 C 429.734 -1.54823 3.95367 0
M  V30 4268 O 430.758 -1.23558 3.34084 0
M  V30 4269 O 429.617 -2.12937 5.03309 0
M  V30 4270 H 426.711 -0.354674 0.747085 0
M  V30 4271 H 429.257 0.0182609 1.6969 0
M  V30 4272 H 428.029 -0.290231 3.90222 0
M  V30 4273 H 427.652 -1.94876 3.46568 0
M  V30 4274 N 428.649 -1.55105 -0.279332 0
M  V30 4275 C 429.874 -1.7976 -1.03446 0
M  V30 4276 C 430.299 -0.565952 -1.79384 0
M  V30 4277 O 429.657 0.484259 -1.74713 0
M  V30 4278 C 429.705 -3.0179 -1.97371 0
M  V30 4279 O 428.809 -2.76432 -3.06038 0
M  V30 4280 H 428.15 -0.594334 -0.29608 0
M  V30 4281 H 430.68 -2.02235 -0.310165 0
M  V30 4282 H 430.69 -3.30351 -2.39441 0
M  V30 4283 H 429.365 -3.91085 -1.4151 0
M  V30 4284 H 427.942 -2.58949 -2.68328 0
M  V30 4285 N 430.127 0.543554 -1.4793 0
M  V30 4286 C 431.059 1.665 -1.57513 0
M  V30 4287 C 432.072 1.56156 -0.460333 0
M  V30 4288 O 433.261 1.62865 -0.730573 0
M  V30 4289 C 430.361 3.05063 -1.47614 0
M  V30 4290 C 429.534 3.41024 -2.739 0
M  V30 4291 C 428.593 4.58809 -2.57645 0
M  V30 4292 O 427.619 4.62707 -3.31498 0
M  V30 4293 N 428.821 5.56149 -1.66368 0
M  V30 4294 H 431.586 1.5872 -2.5422 0
M  V30 4295 H 429.147 0.730517 -1.44482 0
M  V30 4296 H 431.139 3.81712 -1.34455 0
M  V30 4297 H 429.709 3.06994 -0.589359 0
M  V30 4298 H 428.929 2.53687 -3.01723 0
M  V30 4299 H 430.217 3.61831 -3.57709 0
M  V30 4300 H 429.615 5.55767 -1.05543 0
M  V30 4301 H 428.172 6.32071 -1.59154 0
M  V30 4302 N 431.605 1.3629 0.791371 0
M  V30 4303 C 432.851 1.30605 1.55146 0
M  V30 4304 C 433.184 -0.115042 1.93859 0
M  V30 4305 O 432.459 -1.06798 1.62556 0
M  V30 4306 C 432.742 2.22692 2.82985 0
M  V30 4307 C 432.595 3.73489 2.50651 0
M  V30 4308 C 433.914 2.13588 3.84796 0
M  V30 4309 H 431.033 0.475761 0.562868 0
M  V30 4310 H 433.675 1.66825 0.909358 0
M  V30 4311 H 431.825 1.91933 3.37778 0
M  V30 4312 H 433.497 4.14758 2.01924 0
M  V30 4313 H 431.74 3.93021 1.83622 0
M  V30 4314 H 432.411 4.3333 3.41949 0
M  V30 4315 H 434.887 2.40659 3.39445 0
M  V30 4316 H 433.763 2.80195 4.71998 0
M  V30 4317 H 434.024 1.12256 4.27611 0
M  V30 4318 N 433.083 -1.0153 1.20538 0
M  V30 4319 C 434.332 -1.74558 1.01057 0
M  V30 4320 C 434.645 -1.90168 -0.457756 0
M  V30 4321 O 435.851 -2.60301 -0.771722 0
M  V30 4322 C 434.307 -3.13963 1.75941 0
M  V30 4323 C 433.915 -3.06361 3.26875 0
M  V30 4324 C 435.659 -3.91191 1.64832 0
M  V30 4325 C 433.566 -4.40782 3.94291 0
M  V30 4326 H 432.496 -0.654417 0.374505 0
M  V30 4327 H 435.147 -1.13521 1.44171 0
M  V30 4328 H 433.529 -3.75549 1.25614 0
M  V30 4329 H 434.703 -2.54074 3.84425 0
M  V30 4330 H 433.018 -2.42625 3.38411 0
M  V30 4331 H 435.615 -4.90644 2.12539 0
M  V30 4332 H 435.958 -4.11884 0.604745 0
M  V30 4333 H 436.491 -3.36236 2.12579 0
M  V30 4334 H 433.23 -4.25292 4.98805 0
M  V30 4335 H 432.75 -4.9307 3.41529 0
M  V30 4336 H 434.429 -5.09621 3.98617 0
M  V30 4337 N 434.561 -1.01147 -1.20859 0
M  V30 4338 C 435.807 -0.698899 -1.90377 0
M  V30 4339 C 436.14 0.76904 -1.78324 0
M  V30 4340 O 435.415 1.55817 -1.16409 0
M  V30 4341 C 435.698 -1.12878 -3.41951 0
M  V30 4342 C 435.551 -2.65665 -3.62963 0
M  V30 4343 C 436.87 -0.696114 -4.3456 0
M  V30 4344 H 433.989 -0.255372 -0.691342 0
M  V30 4345 H 436.631 -1.25831 -1.42361 0
M  V30 4346 H 434.781 -0.652827 -3.82976 0
M  V30 4347 H 436.453 -3.21074 -3.31224 0
M  V30 4348 H 434.696 -3.06878 -3.06608 0
M  V30 4349 H 435.367 -2.90797 -4.69192 0
M  V30 4350 H 437.843 -1.10521 -4.01154 0
M  V30 4351 H 436.719 -1.025 -5.39245 0
M  V30 4352 H 436.98 0.402465 -4.40264 0
M  V30 4353 N 436.039 1.36541 -0.78704 0
M  V30 4354 C 436.949 2.3387 -0.184896 0
M  V30 4355 C 437.965 1.60927 0.661697 0
M  V30 4356 O 439.141 1.92927 0.57804 0
M  V30 4357 C 436.206 3.40122 0.672145 0
M  V30 4358 C 435.267 4.28867 -0.19267 0
M  V30 4359 C 434.5 5.30045 0.623561 0
M  V30 4360 O 434.723 5.39232 1.8597 0
M  V30 4361 O 433.657 6.01895 0.0247068 0
M  V30 4362 H 437.483 2.87126 -0.989562 0
M  V30 4363 H 435.068 1.38969 -0.548455 0
M  V30 4364 H 436.95 4.05093 1.16094 0
M  V30 4365 H 435.625 2.89169 1.45474 0
M  V30 4366 H 434.532 3.66945 -0.728166 0
M  V30 4367 H 435.865 4.83165 -0.938722 0
M  V30 4368 N 437.518 0.538854 1.48102 0
M  V30 4369 C 438.428 -0.222648 2.33541 0
M  V30 4370 C 439.444 -0.930225 1.47047 0
M  V30 4371 O 440.62 -0.903211 1.80011 0
M  V30 4372 C 437.685 -1.25064 3.23357 0
M  V30 4373 C 436.746 -0.552469 4.2573 0
M  V30 4374 C 435.979 -1.53149 5.11254 0
M  V30 4375 O 436.202 -2.76487 4.9891 0
M  V30 4376 O 435.136 -1.06602 5.92385 0
M  V30 4377 H 438.962 0.477707 2.99919 0
M  V30 4378 H 436.547 0.299669 1.46364 0
M  V30 4379 H 438.429 -1.8445 3.78888 0
M  V30 4380 H 437.104 -1.93325 2.59629 0
M  V30 4381 H 436.011 0.082114 3.7401 0
M  V30 4382 H 437.344 0.0883526 4.92121 0
M  V30 4383 N 438.996 -1.55193 0.274407 0
M  V30 4384 C 440.242 -1.99877 -0.343086 0
M  V30 4385 C 440.575 -1.16256 -1.55558 0
M  V30 4386 O 439.85 -0.232462 -1.93106 0
M  V30 4387 C 440.133 -3.52706 -0.725965 0
M  V30 4388 C 439.986 -4.47081 0.493818 0
M  V30 4389 C 441.305 -4.11422 -1.56268 0
M  V30 4390 H 438.424 -0.726625 -0.123229 0
M  V30 4391 H 441.066 -1.86136 0.38121 0
M  V30 4392 H 439.216 -3.64546 -1.34307 0
M  V30 4393 H 440.888 -4.47186 1.13237 0
M  V30 4394 H 439.131 -4.1877 1.13201 0
M  V30 4395 H 439.802 -5.51699 0.18217 0
M  V30 4396 H 442.278 -4.02855 -1.04151 0
M  V30 4397 H 441.154 -5.18568 -1.79939 0
M  V30 4398 H 441.415 -3.61607 -2.54348 0
M  V30 4399 N 440.474 -0.00167713 -1.576 0
M  V30 4400 C 441.699 0.69739 -1.95323 0
M  V30 4401 C 442.124 1.6642 -0.876706 0
M  V30 4402 O 441.482 1.80548 0.165007 0
M  V30 4403 C 441.53 1.40403 -3.32144 0
M  V30 4404 O 440.634 2.5185 -3.26566 0
M  V30 4405 H 439.975 0.185373 -0.637599 0
M  V30 4406 H 442.505 -0.0553665 -2.04525 0
M  V30 4407 H 442.515 1.76707 -3.67748 0
M  V30 4408 H 441.19 0.695167 -4.10049 0
M  V30 4409 H 439.767 2.17861 -3.0264 0
M  V30 4410 N 441.952 1.55251 0.271103 0
M  V30 4411 C 443.201 1.75151 1.00025 0
M  V30 4412 C 443.514 0.561041 1.87381 0
M  V30 4413 O 444.72 0.642506 2.63788 0
M  V30 4414 C 443.176 3.09999 1.82835 0
M  V30 4415 C 442.784 4.3662 1.00336 0
M  V30 4416 C 444.528 3.39249 2.55168 0
M  V30 4417 C 442.435 5.62506 1.82595 0
M  V30 4418 H 441.365 0.652877 0.377183 0
M  V30 4419 H 444.016 1.81708 0.255843 0
M  V30 4420 H 442.398 2.97485 2.61378 0
M  V30 4421 H 443.572 4.60055 0.261959 0
M  V30 4422 H 441.887 4.14527 0.394486 0
M  V30 4423 H 444.484 4.3051 3.1712 0
M  V30 4424 H 444.827 2.59467 3.2555 0
M  V30 4425 H 445.36 3.52869 1.83653 0
M  V30 4426 H 442.099 6.45041 1.16631 0
M  V30 4427 H 441.619 5.43211 2.54327 0
M  V30 4428 H 443.298 6.00875 2.39913 0
M  V30 4429 N 443.43 -0.535701 1.48216 0
M  V30 4430 C 444.677 -1.29183 1.55942 0
M  V30 4431 C 445.005 -1.93125 0.230857 0
M  V30 4432 O 444.26 -1.79556 -0.778331 0
M  V30 4433 C 444.559 -2.4068 2.64212 0
M  V30 4434 C 444.225 -1.94428 4.06827 0
M  V30 4435 C 442.887 -1.81532 4.45645 0
M  V30 4436 C 445.239 -1.59405 4.96225 0
M  V30 4437 C 442.567 -1.31939 5.71672 0
M  V30 4438 C 444.919 -1.11276 6.22736 0
M  V30 4439 C 443.583 -0.969924 6.60416 0
M  V30 4440 H 442.853 -0.472715 0.570632 0
M  V30 4441 H 445.5 -0.598437 1.81909 0
M  V30 4442 H 443.805 -3.15666 2.32083 0
M  V30 4443 H 445.502 -2.98822 2.67407 0
M  V30 4444 H 442.092 -2.05415 3.76168 0
M  V30 4445 H 446.276 -1.68231 4.66917 0
M  V30 4446 H 441.532 -1.19562 5.99596 0
M  V30 4447 H 445.706 -0.832453 6.91407 0
M  V30 4448 H 443.333 -0.583436 7.57958 0
M  V30 4449 N 444.908 -1.36708 -0.784132 0
M  V30 4450 C 446.319 -1.27947 -1.35965 0
M  V30 4451 C 446.67 0.0784013 -1.96043 0
M  V30 4452 O 445.795 0.979989 -1.92938 0
M  V30 4453 C 446.39 -2.31689 -2.47195 0
M  V30 4454 C 444.949 -2.26601 -3.00548 0
M  V30 4455 C 444.096 -2.16184 -1.73666 0
M  V30 4456 H 447.047 -1.4751 -0.585358 0
M  V30 4457 H 447.068 -1.95638 -3.26352 0
M  V30 4458 H 446.58 -3.30506 -2.03439 0
M  V30 4459 H 444.681 -1.31268 -3.48711 0
M  V30 4460 H 444.794 -3.19508 -3.57004 0
M  V30 4461 H 443.158 -1.62524 -1.96107 0
M  V30 4462 H 443.941 -3.16896 -1.32031 0
M  V30 4463 N 446.386 1.0089 -1.21074 0
M  V30 4464 C 447.632 1.74866 -1.02712 0
M  V30 4465 C 447.965 1.89178 0.438787 0
M  V30 4466 O 447.24 1.42325 1.32567 0
M  V30 4467 C 447.523 3.16347 -1.72036 0
M  V30 4468 C 447.376 3.09782 -3.26121 0
M  V30 4469 C 448.695 4.15187 -1.45973 0
M  V30 4470 H 445.814 0.634736 -0.374539 0
M  V30 4471 H 448.456 1.17646 -1.49196 0
M  V30 4472 H 446.606 3.65201 -1.32517 0
M  V30 4473 H 448.278 2.68673 -3.74983 0
M  V30 4474 H 446.521 2.46982 -3.56626 0
M  V30 4475 H 447.192 4.09829 -3.6979 0
M  V30 4476 H 449.668 3.75022 -1.80272 0
M  V30 4477 H 448.544 5.12331 -1.96999 0
M  V30 4478 H 448.805 4.40386 -0.388924 0
M  V30 4479 N 447.864 1.01787 1.20321 0
M  V30 4480 C 448.774 0.598898 2.26827 0
M  V30 4481 C 449.79 -0.36418 1.70146 0
M  V30 4482 O 450.966 -0.224812 2.00141 0
M  V30 4483 C 448.031 -0.0549769 3.46656 0
M  V30 4484 C 447.092 0.954205 4.18561 0
M  V30 4485 C 446.325 0.331439 5.3267 0
M  V30 4486 O 446.548 -0.86851 5.63749 0
M  V30 4487 O 445.482 1.0488 5.92692 0
M  V30 4488 H 449.308 1.48562 2.64883 0
M  V30 4489 H 446.893 0.787434 1.26964 0
M  V30 4490 H 448.775 -0.420102 4.19301 0
M  V30 4491 H 447.45 -0.915876 3.10473 0
M  V30 4492 H 446.357 1.37072 3.48083 0
M  V30 4493 H 447.69 1.78511 4.58688 0
M  V30 4494 N 449.342 -1.36122 0.79427 0
M  V30 4495 C 450.252 -2.33769 0.197296 0
M  V30 4496 C 451.268 -1.61276 -0.653153 0
M  V30 4497 O 452.444 -1.9323 -0.5678 0
M  V30 4498 C 449.509 -3.40474 -0.654098 0
M  V30 4499 C 448.57 -4.28759 0.215411 0
M  V30 4500 C 447.803 -5.30368 -0.595443 0
M  V30 4501 O 448.026 -5.40211 -1.83107 0
M  V30 4502 O 446.96 -6.019 0.00721351 0
M  V30 4503 H 450.786 -2.86597 1.00478 0
M  V30 4504 H 448.371 -1.38676 0.555818 0
M  V30 4505 H 450.253 -4.05703 -1.13944 0
M  V30 4506 H 448.928 -2.89937 -1.43938 0
M  V30 4507 H 447.835 -3.66554 0.747615 0
M  V30 4508 H 449.168 -4.82661 0.964332 0
M  V30 4509 N 450.82 -0.546701 -1.47814 0
M  V30 4510 C 451.752 0.244196 -2.27895 0
M  V30 4511 C 452.765 0.88911 -1.36377 0
M  V30 4512 O 453.954 0.764733 -1.61289 0
M  V30 4513 C 451.054 1.36252 -3.10304 0
M  V30 4514 C 450.227 0.816382 -4.29714 0
M  V30 4515 C 449.286 1.81789 -4.93801 0
M  V30 4516 O 448.312 1.36818 -5.52512 0
M  V30 4517 N 449.514 3.15085 -4.87547 0
M  V30 4518 H 452.279 -0.442694 -2.96412 0
M  V30 4519 H 449.84 -0.382095 -1.57327 0
M  V30 4520 H 451.832 2.03102 -3.50045 0
M  V30 4521 H 450.402 1.95281 -2.44099 0
M  V30 4522 H 449.622 -0.0285981 -3.9419 0
M  V30 4523 H 450.91 0.430668 -5.06974 0
M  V30 4524 H 450.308 3.54275 -4.41028 0
M  V30 4525 H 448.865 3.77522 -5.31339 0
M  V30 4526 N 452.299 1.55045 -0.282633 0
M  V30 4527 C 453.231 2.2023 0.634924 0
M  V30 4528 C 454.244 1.18931 1.11172 0
M  V30 4529 O 455.433 1.4562 1.03233 0
M  V30 4530 C 452.533 2.82041 1.87899 0
M  V30 4531 C 451.706 4.091 1.54776 0
M  V30 4532 C 450.765 4.54887 2.64507 0
M  V30 4533 O 449.791 5.20496 2.30375 0
M  V30 4534 N 450.993 4.25659 3.94709 0
M  V30 4535 H 453.758 2.99601 0.0769811 0
M  V30 4536 H 451.319 1.61565 -0.104048 0
M  V30 4537 H 453.311 3.09613 2.60619 0
M  V30 4538 H 451.881 2.06618 2.3458 0
M  V30 4539 H 451.101 3.88736 0.654049 0
M  V30 4540 H 452.389 4.9187 1.30158 0
M  V30 4541 H 451.787 3.7306 4.25256 0
M  V30 4542 H 450.344 4.57984 4.63782 0
M  V30 4543 N 453.777 0.010035 1.57597 0
M  V30 4544 C 454.687 -0.994226 2.12491 0
M  V30 4545 C 455.703 -1.37013 1.07254 0
M  V30 4546 O 456.879 -1.45542 1.3921 0
M  V30 4547 C 453.944 -2.2642 2.62555 0
M  V30 4548 C 453.005 -1.95049 3.82432 0
M  V30 4549 C 452.238 -3.15991 4.30099 0
M  V30 4550 O 452.461 -4.28015 3.7704 0
M  V30 4551 O 451.395 -2.99403 5.22151 0
M  V30 4552 H 455.221 -0.557549 2.98538 0
M  V30 4553 H 452.806 -0.209413 1.47925 0
M  V30 4554 H 454.688 -3.01009 2.9491 0
M  V30 4555 H 453.363 -2.69306 1.796 0
M  V30 4556 H 452.27 -1.17904 3.55034 0
M  V30 4557 H 453.603 -1.56992 4.66491 0
M  V30 4558 N 455.255 -1.55392 -0.262866 0
M  V30 4559 C 456.501 -1.76737 -0.99458 0
M  V30 4560 C 456.834 -0.572453 -1.85571 0
M  V30 4561 O 456.109 0.429732 -1.89693 0
M  V30 4562 C 456.392 -3.07824 -1.8686 0
M  V30 4563 C 456.245 -4.3769 -1.03672 0
M  V30 4564 C 457.564 -3.35021 -2.85393 0
M  V30 4565 H 454.683 -0.643005 -0.360157 0
M  V30 4566 H 457.325 -1.88126 -0.266216 0
M  V30 4567 H 455.475 -2.98245 -2.48962 0
M  V30 4568 H 457.147 -4.59238 -0.43563 0
M  V30 4569 H 455.39 -4.32461 -0.340513 0
M  V30 4570 H 456.061 -5.25759 -1.6817 0
M  V30 4571 H 458.537 -3.44458 -2.33426 0
M  V30 4572 H 457.413 -4.27989 -3.43681 0
M  V30 4573 H 457.674 -2.55153 -3.61039 0
M  V30 4574 N 456.733 0.527833 -1.48498 0
M  V30 4575 C 458.144 1.10975 -1.50138 0
M  V30 4576 C 458.495 1.943 -0.272378 0
M  V30 4577 O 457.62 2.07319 0.620301 0
M  V30 4578 C 458.215 2.01927 -2.72049 0
M  V30 4579 C 456.774 2.55332 -2.76554 0
M  V30 4580 C 455.921 1.32341 -2.43683 0
M  V30 4581 H 458.872 0.312986 -1.55583 0
M  V30 4582 H 458.893 2.86244 -2.50689 0
M  V30 4583 H 458.405 1.41254 -3.61481 0
M  V30 4584 H 456.506 3.19721 -1.91336 0
M  V30 4585 H 456.619 2.94319 -3.78038 0
M  V30 4586 H 454.983 1.63989 -1.94884 0
M  V30 4587 H 455.766 0.734165 -3.35358 0
M  V30 4588 N 458.211 1.37122 0.776871 0
M  V30 4589 C 459.622 1.28667 1.35284 0
M  V30 4590 C 459.973 -0.0680035 1.96082 0
M  V30 4591 O 459.098 -0.969743 1.93455 0
M  V30 4592 C 459.693 2.32997 2.45963 0
M  V30 4593 C 458.252 2.28191 2.99342 0
M  V30 4594 C 457.399 2.17101 1.72517 0
M  V30 4595 H 460.35 1.47819 0.577527 0
M  V30 4596 H 460.371 1.97366 3.2531 0
M  V30 4597 H 459.883 3.3158 2.01684 0
M  V30 4598 H 457.984 1.33115 3.4801 0
M  V30 4599 H 458.097 3.21397 3.55304 0
M  V30 4600 H 456.461 1.63562 1.95242 0
M  V30 4601 H 457.244 3.17591 1.30348 0
M  V30 4602 N 459.689 -1.00246 1.21608 0
M  V30 4603 C 460.599 -2.12515 0.993709 0
M  V30 4604 C 461.615 -1.73913 -0.0549939 0
M  V30 4605 O 462.791 -2.00943 0.135619 0
M  V30 4606 C 459.856 -3.42083 0.563953 0
M  V30 4607 C 458.917 -3.94843 1.68516 0
M  V30 4608 C 458.15 -5.18226 1.27582 0
M  V30 4609 O 458.373 -5.70201 0.150506 0
M  V30 4610 O 457.307 -5.64497 2.0887 0
M  V30 4611 H 461.133 -2.34152 1.93407 0
M  V30 4612 H 458.718 -1.10891 1.00118 0
M  V30 4613 H 460.6 -4.20073 0.334194 0
M  V30 4614 H 459.275 -3.21828 -0.347665 0
M  V30 4615 H 458.182 -3.18068 1.96935 0
M  V30 4616 H 459.515 -4.19512 2.5743 0
M  V30 4617 N 461.167 -1.02423 -1.1978 0
M  V30 4618 C 462.395 -0.737456 -1.93311 0
M  V30 4619 C 462.81 0.703023 -1.75223 0
M  V30 4620 O 462.167 1.47761 -1.07112 0
M  V30 4621 C 462.218 -1.0733 -3.45199 0
M  V30 4622 O 461.939 -2.4572 -3.62702 0
M  V30 4623 C 463.44 -0.80866 -4.35862 0
M  V30 4624 H 460.66 -0.2702 -0.614193 0
M  V30 4625 H 463.204 -1.36747 -1.52054 0
M  V30 4626 H 461.359 -0.488545 -3.84307 0
M  V30 4627 H 461.773 -2.58081 -4.56612 0
M  V30 4628 H 463.247 -1.09365 -5.41057 0
M  V30 4629 H 463.724 0.257025 -4.38447 0
M  V30 4630 H 464.33 -1.37592 -4.02428 0
M  V30 4631 N 462.645 1.35699 -0.801477 0
M  V30 4632 C 463.593 2.3177 -0.196317 0
M  V30 4633 C 464.587 1.56388 0.651081 0
M  V30 4634 O 465.793 1.71557 0.544815 0
M  V30 4635 H 462.168 0.750669 -0.0447189 0
M  V30 4636 H 464.139 2.8036 -1.02181 0
M  V30 4637 C 462.888 3.41671 0.644702 0
M  V30 4638 H 462.211 3.998 0.0019921 0
M  V30 4639 H 463.651 4.11184 1.0346 0
M  V30 4640 C 462.11 2.84271 1.80808 0
M  V30 4641 O 462.64 2.77408 2.9053 0
M  V30 4642 N 460.846 2.41391 1.61799 0
M  V30 4643 H 460.393 2.47173 0.725493 0
M  V30 4644 H 460.351 2.03334 2.39797 0
M  V30 4645 N 464.123 0.554532 1.47522 0
M  V30 4646 C 465.539 0.214107 1.58157 0
M  V30 4647 C 465.739 -1.28331 1.55349 0
M  V30 4648 O 464.795 -2.06329 1.45549 0
M  V30 4649 C 466.108 0.838391 2.88776 0
M  V30 4650 C 467.656 0.809374 3.02354 0
M  V30 4651 C 468.131 1.41268 4.35669 0
M  V30 4652 N 469.622 1.37574 4.42298 0
M  V30 4653 C 470.357 1.8122 5.4401 0
M  V30 4654 N 469.853 2.3271 6.52547 0
M  V30 4655 N 471.646 1.72307 5.35039 0
M  V30 4656 H 463.797 1.52744 1.4759 0
M  V30 4657 H 466.06 0.636812 0.702264 0
M  V30 4658 H 465.766 1.89065 2.96559 0
M  V30 4659 H 465.64 0.329847 3.75755 0
M  V30 4660 H 468.027 -0.234187 2.94169 0
M  V30 4661 H 468.108 1.35565 2.16924 0
M  V30 4662 H 467.752 2.45529 4.4461 0
M  V30 4663 H 467.682 0.841871 5.19827 0
M  V30 4664 H 470.173 0.999081 3.64454 0
M  V30 4665 H 470.486 2.63944 7.26329 0
M  V30 4666 H 468.831 2.36719 6.53444 0
M  V30 4667 H 472.022 1.3186 4.49144 0
M  V30 4668 H 472.195 2.06641 6.14169 0
M  V30 4669 N 465.601 -1.54893 0.290851 0
M  V30 4670 C 466.548 -2.23138 -0.58974 0
M  V30 4671 C 467.518 -1.21036 -1.13752 0
M  V30 4672 O 468.703 -1.49626 -1.18392 0
M  V30 4673 C 465.843 -2.96811 -1.76061 0
M  V30 4674 C 464.956 -4.13665 -1.24519 0
M  V30 4675 C 464.091 -4.74944 -2.3791 0
M  V30 4676 C 463.13 -5.83963 -1.83451 0
M  V30 4677 N 462.267 -6.39239 -2.90376 0
M  V30 4678 H 467.107 -2.98 -0.00114915 0
M  V30 4679 H 464.644 -1.47096 0.0112006 0
M  V30 4680 H 466.602 -3.37751 -2.44909 0
M  V30 4681 H 465.232 -2.24344 -2.32098 0
M  V30 4682 H 464.284 -3.77737 -0.449288 0
M  V30 4683 H 465.596 -4.92238 -0.806424 0
M  V30 4684 H 464.75 -5.18684 -3.14724 0
M  V30 4685 H 463.489 -3.95682 -2.85109 0
M  V30 4686 H 462.494 -5.39657 -1.05122 0
M  V30 4687 H 463.719 -6.65103 -1.37169 0
M  V30 4688 H 461.665 -5.62864 -3.36927 0
M  V30 4689 H 461.582 -7.13129 -2.50965 0
M  V30 4690 H 462.85 -6.87637 -3.67118 0
M  V30 4691 N 467.08 -0.0183926 -1.57589 0
M  V30 4692 C 468.308 0.673046 -1.95647 0
M  V30 4693 C 468.723 1.66275 -0.894312 0
M  V30 4694 O 468.08 1.82072 0.124975 0
M  V30 4695 C 468.131 1.38884 -3.33756 0
M  V30 4696 O 467.852 0.438806 -4.35897 0
M  V30 4697 C 469.353 2.1731 -3.86383 0
M  V30 4698 H 466.573 0.186292 -0.644621 0
M  V30 4699 H 469.117 -0.0749748 -2.04363 0
M  V30 4700 H 467.272 2.08835 -3.26293 0
M  V30 4701 H 467.686 0.945869 -5.15901 0
M  V30 4702 H 469.16 2.62863 -4.85394 0
M  V30 4703 H 469.637 3.00764 -3.20059 0
M  V30 4704 H 470.243 1.52339 -3.97081 0
M  V30 4705 N 468.558 1.5553 0.254621 0
M  V30 4706 C 469.835 1.6774 1.00611 0
M  V30 4707 C 470.215 0.555993 2.03647 0
M  V30 4708 O 469.563 -0.441583 2.24193 0
M  V30 4709 C 469.773 3.07725 1.6464 0
M  V30 4710 C 471.121 3.66074 2.15116 0
M  V30 4711 O 472.145 3.10476 1.74595 0
M  V30 4712 O 471.004 4.63526 2.89493 0
M  V30 4713 H 468.098 0.681958 0.467828 0
M  V30 4714 H 470.644 1.67863 0.24902 0
M  V30 4715 H 469.416 3.80792 0.900734 0
M  V30 4716 H 469.039 3.1158 2.46989 0
M  V30 4717 N 470.036 -0.519951 1.48776 0
M  V30 4718 C 471.313 -1.28123 1.47797 0
M  V30 4719 C 471.693 -2.10196 0.195157 0
M  V30 4720 O 471.041 -2.13167 -0.822925 0
M  V30 4721 C 471.251 -2.15413 2.74587 0
M  V30 4722 C 472.599 -2.75225 3.23321 0
M  V30 4723 O 473.623 -2.25694 2.75574 0
M  V30 4724 O 472.482 -3.65346 4.06429 0
M  V30 4725 H 469.576 -0.578793 0.590701 0
M  V30 4726 H 472.122 -0.535779 1.6102 0
M  V30 4727 H 470.894 -1.54617 3.59457 0
M  V30 4728 H 470.517 -2.97186 2.64132 0
M  V30 4729 N 471.514 -1.37532 -0.769588 0
M  V30 4730 C 472.925 -1.29382 -1.346 0
M  V30 4731 C 473.276 0.0576039 -1.96115 0
M  V30 4732 O 472.401 0.95947 -1.93967 0
M  V30 4733 C 472.996 -2.34298 -2.44724 0
M  V30 4734 C 471.555 -2.29776 -2.98128 0
M  V30 4735 C 470.702 -2.18013 -1.71364 0
M  V30 4736 H 473.653 -1.48123 -0.56968 0
M  V30 4737 H 473.674 -1.99089 -3.24259 0
M  V30 4738 H 473.186 -3.32645 -1.99922 0
M  V30 4739 H 471.287 -1.34959 -3.47299 0
M  V30 4740 H 471.4 -3.23276 -3.53595 0
M  V30 4741 H 469.764 -1.64595 -1.94372 0
M  V30 4742 H 470.547 -3.18278 -1.28662 0
M  V30 4743 N 472.992 0.995999 -1.22138 0
M  V30 4744 C 473.902 2.11985 -1.00496 0
M  V30 4745 C 474.918 1.7394 0.0457701 0
M  V30 4746 O 476.094 2.00868 -0.146273 0
M  V30 4747 C 473.159 3.41779 -0.582086 0
M  V30 4748 C 472.22 3.93943 -1.70608 0
M  V30 4749 C 471.453 5.17542 -1.30328 0
M  V30 4750 O 471.676 5.70114 -0.180743 0
M  V30 4751 O 470.61 5.63382 -2.11861 0
M  V30 4752 H 474.436 2.33123 -1.94647 0
M  V30 4753 H 472.021 1.10358 -1.00705 0
M  V30 4754 H 473.903 4.1989 -0.356467 0
M  V30 4755 H 472.578 3.22007 0.330592 0
M  V30 4756 H 471.485 3.17019 -1.98619 0
M  V30 4757 H 472.818 4.18141 -2.59651 0
M  V30 4758 N 474.47 1.03057 1.19235 0
M  V30 4759 C 475.402 0.570932 2.21975 0
M  V30 4760 C 476.415 -0.354088 1.58903 0
M  V30 4761 O 477.604 -0.150211 1.77867 0
M  V30 4762 C 474.704 -0.187152 3.38383 0
M  V30 4763 C 473.877 0.743231 4.31039 0
M  V30 4764 C 472.936 0.0302493 5.26191 0
M  V30 4765 O 471.962 0.657371 5.65391 0
M  V30 4766 N 473.164 -1.23991 5.67104 0
M  V30 4767 H 475.929 1.45456 2.62036 0
M  V30 4768 H 473.49 0.909807 1.33918 0
M  V30 4769 H 475.482 -0.673715 3.99053 0
M  V30 4770 H 474.052 -0.972205 2.97098 0
M  V30 4771 H 473.272 1.40985 3.68126 0
M  V30 4772 H 474.56 1.3755 4.89854 0
M  V30 4773 H 473.958 -1.77011 5.37293 0
M  V30 4774 H 472.515 -1.67093 6.30018 0
M  V30 4775 N 475.948 -1.35272 0.808662 0
M  V30 4776 C 476.895 -2.29764 0.218482 0
M  V30 4777 C 477.865 -1.52911 -0.648652 0
M  V30 4778 O 479.05 -1.81341 -0.593297 0
M  V30 4779 C 476.19 -3.39388 -0.625282 0
M  V30 4780 C 475.303 -4.31202 0.262516 0
M  V30 4781 C 474.438 -5.27919 -0.589451 0
M  V30 4782 C 473.477 -6.11371 0.298617 0
M  V30 4783 N 472.614 -7.0022 -0.513443 0
M  V30 4784 H 477.454 -2.79645 1.02968 0
M  V30 4785 H 474.991 -1.37629 0.519303 0
M  V30 4786 H 476.949 -4.01615 -1.12966 0
M  V30 4787 H 475.579 -2.90777 -1.40173 0
M  V30 4788 H 474.631 -3.69962 0.885013 0
M  V30 4789 H 475.943 -4.89748 0.945971 0
M  V30 4790 H 475.097 -5.95529 -1.15888 0
M  V30 4791 H 473.836 -4.69875 -1.30647 0
M  V30 4792 H 472.841 -5.42707 0.880301 0
M  V30 4793 H 474.066 -6.71494 1.01352 0
M  V30 4794 H 472.012 -6.44662 -1.21439 0
M  V30 4795 H 471.929 -7.55917 0.111922 0
M  V30 4796 H 473.197 -7.72175 -1.06608 0
M  V30 4797 N 477.426 -0.562348 -1.47226 0
M  V30 4798 C 478.389 0.172056 -2.28553 0
M  V30 4799 C 479.389 0.837928 -1.37242 0
M  V30 4800 O 480.579 0.693001 -1.59822 0
M  V30 4801 C 477.711 1.25223 -3.17068 0
M  V30 4802 H 478.904 -0.542401 -2.94954 0
M  V30 4803 H 476.457 -0.319493 -1.53 0
M  V30 4804 H 477.192 1.99892 -2.55369 0
M  V30 4805 H 476.977 0.779515 -3.84273 0
M  V30 4806 H 478.467 1.76791 -3.78332 0
M  V30 4807 N 478.904 1.54736 -0.299062 0
M  V30 4808 C 479.851 2.23448 0.577899 0
M  V30 4809 C 480.821 1.21637 1.13109 0
M  V30 4810 O 482.006 1.50252 1.17597 0
M  V30 4811 C 479.146 2.9774 1.74484 0
M  V30 4812 C 478.259 4.1432 1.22323 0
M  V30 4813 C 477.394 4.76199 2.35388 0
M  V30 4814 C 476.433 5.84927 1.80351 0
M  V30 4815 N 475.57 6.4077 2.86982 0
M  V30 4816 H 480.41 2.97996 -0.0146545 0
M  V30 4817 H 477.947 1.47088 -0.0190013 0
M  V30 4818 H 479.905 3.39045 2.43114 0
M  V30 4819 H 478.535 2.25572 2.30905 0
M  V30 4820 H 477.587 3.7797 0.429249 0
M  V30 4821 H 478.899 4.92659 0.780309 0
M  V30 4822 H 478.053 5.20346 3.11969 0
M  V30 4823 H 476.792 3.97188 2.83006 0
M  V30 4824 H 475.797 5.40207 1.02259 0
M  V30 4825 H 477.022 6.65821 1.3364 0
M  V30 4826 H 474.968 5.64643 3.33938 0
M  V30 4827 H 474.885 7.1445 2.4718 0
M  V30 4828 H 476.153 6.89574 3.63466 0
M  V30 4829 N 480.382 0.0267497 1.57577 0
M  V30 4830 C 481.628 -0.653371 1.91987 0
M  V30 4831 C 481.961 -1.71915 0.903263 0
M  V30 4832 O 481.236 -1.94358 -0.0743387 0
M  V30 4833 C 481.519 -1.272 3.36886 0
M  V30 4834 C 481.372 -0.215938 4.49281 0
M  V30 4835 C 482.691 -2.19069 3.81703 0
M  V30 4836 H 479.81 -0.236047 0.698177 0
M  V30 4837 H 482.452 0.0835236 1.89816 0
M  V30 4838 H 480.602 -1.90005 3.38866 0
M  V30 4839 H 482.274 0.41449 4.59434 0
M  V30 4840 H 480.517 0.458855 4.31366 0
M  V30 4841 H 481.188 -0.688347 5.47691 0
M  V30 4842 H 483.664 -1.66253 3.81444 0
M  V30 4843 H 482.54 -2.59307 4.83788 0
M  V30 4844 H 482.801 -3.08087 3.17072 0
M  V30 4845 N 481.861 -1.55662 -0.24637 0
M  V30 4846 C 482.808 -1.90361 -1.30504 0
M  V30 4847 C 483.778 -0.757905 -1.47801 0
M  V30 4848 O 484.963 -1.01161 -1.61775 0
M  V30 4849 C 482.103 -2.2042 -2.65535 0
M  V30 4850 C 481.216 -3.47799 -2.56242 0
M  V30 4851 C 480.351 -3.67426 -3.8363 0
M  V30 4852 C 479.39 -4.88403 -3.68956 0
M  V30 4853 N 478.527 -5.04548 -4.88237 0
M  V30 4854 H 483.367 -2.80645 -1.00213 0
M  V30 4855 H 480.904 -1.38924 -0.483577 0
M  V30 4856 H 482.862 -2.35853 -3.44135 0
M  V30 4857 H 481.492 -1.3334 -2.93973 0
M  V30 4858 H 480.544 -3.40694 -1.69208 0
M  V30 4859 H 481.856 -4.36544 -2.4131 0
M  V30 4860 H 481.01 -3.82821 -4.70673 0
M  V30 4861 H 479.749 -2.76914 -4.01459 0
M  V30 4862 H 478.754 -4.72984 -2.80296 0
M  V30 4863 H 479.979 -5.80375 -3.52621 0
M  V30 4864 H 477.925 -4.16974 -5.06427 0
M  V30 4865 H 477.842 -5.87384 -4.75937 0
M  V30 4866 H 479.11 -5.24355 -5.76777 0
M  V30 4867 N 483.339 0.512053 -1.4905 0
M  V30 4868 C 484.286 1.6148 -1.64902 0
M  V30 4869 C 485.256 1.58687 -0.490673 0
M  V30 4870 O 486.441 1.76842 -0.71636 0
M  V30 4871 C 483.581 2.99676 -1.71139 0
M  V30 4872 C 482.694 3.12568 -2.98203 0
M  V30 4873 C 481.829 4.4143 -2.95487 0
M  V30 4874 C 480.868 4.47916 -4.17179 0
M  V30 4875 N 480.005 5.68191 -4.12437 0
M  V30 4876 H 484.845 1.47271 -2.59066 0
M  V30 4877 H 482.382 0.716713 -1.28459 0
M  V30 4878 H 484.34 3.79761 -1.72736 0
M  V30 4879 H 482.97 3.12614 -0.804508 0
M  V30 4880 H 482.022 2.25618 -3.06269 0
M  V30 4881 H 483.334 3.1322 -3.88194 0
M  V30 4882 H 482.488 5.29825 -2.95585 0
M  V30 4883 H 481.227 4.43326 -2.03256 0
M  V30 4884 H 480.232 3.57925 -4.17337 0
M  V30 4885 H 481.457 4.47744 -5.1059 0
M  V30 4886 H 479.403 5.7095 -3.23036 0
M  V30 4887 H 479.32 5.70413 -4.96151 0
M  V30 4888 H 480.588 6.58823 -4.16621 0
M  V30 4889 N 484.817 1.37938 0.762283 0
M  V30 4890 C 485.764 1.34467 1.87583 0
M  V30 4891 C 486.734 0.208633 1.64785 0
M  V30 4892 O 487.919 0.399494 1.86571 0
M  V30 4893 C 485.059 1.16692 3.24772 0
M  V30 4894 C 484.172 2.39608 3.59461 0
M  V30 4895 C 483.307 2.14631 4.85908 0
M  V30 4896 C 482.346 3.33364 5.13357 0
M  V30 4897 N 481.483 3.07877 6.30996 0
M  V30 4898 H 486.323 2.29669 1.89885 0
M  V30 4899 H 483.86 1.14116 0.928219 0
M  V30 4900 H 485.818 1.04405 4.03925 0
M  V30 4901 H 484.448 0.251333 3.2182 0
M  V30 4902 H 483.5 2.626 2.75219 0
M  V30 4903 H 484.812 3.28128 3.75678 0
M  V30 4904 H 483.966 1.99429 5.72986 0
M  V30 4905 H 482.705 1.23463 4.71814 0
M  V30 4906 H 481.71 3.49094 4.24751 0
M  V30 4907 H 482.935 4.25395 5.29354 0
M  V30 4908 H 480.881 2.19348 6.18241 0
M  V30 4909 H 480.798 3.89944 6.47673 0
M  V30 4910 H 482.066 2.96313 7.20985 0
M  V30 4911 N 486.295 -0.989507 1.22664 0
M  V30 4912 C 487.242 -2.08024 0.999733 0
M  V30 4913 C 488.212 -1.65909 -0.0797047 0
M  V30 4914 O 489.397 -1.90669 0.0705715 0
M  V30 4915 C 486.537 -3.40067 0.587234 0
M  V30 4916 C 485.65 -3.95505 1.73781 0
M  V30 4917 C 484.785 -5.15722 1.27297 0
M  V30 4918 C 483.824 -5.63305 2.39488 0
M  V30 4919 N 482.961 -6.74758 1.94026 0
M  V30 4920 H 487.801 -2.26768 1.9334 0
M  V30 4921 H 485.338 -1.11171 0.963297 0
M  V30 4922 H 487.296 -4.15899 0.329227 0
M  V30 4923 H 485.926 -3.21314 -0.309426 0
M  V30 4924 H 484.978 -3.16513 2.11006 0
M  V30 4925 H 486.29 -4.26797 2.58158 0
M  V30 4926 H 485.444 -5.98854 0.972546 0
M  V30 4927 H 484.183 -4.86061 0.399445 0
M  V30 4928 H 483.188 -4.78759 2.70315 0
M  V30 4929 H 484.413 -5.94988 3.27362 0
M  V30 4930 H 482.359 -6.46874 1.09041 0
M  V30 4931 H 482.276 -7.05386 2.71968 0
M  V30 4932 H 483.544 -7.61387 1.67062 0
M  V30 4933 N 487.773 -1.03688 -1.18687 0
M  V30 4934 C 489.184 -0.766488 -1.70241 0
M  V30 4935 C 489.535 0.713052 -1.82784 0
M  V30 4936 O 488.66 1.55529 -1.50465 0
M  V30 4937 C 489.255 -1.38475 -3.09209 0
M  V30 4938 C 487.814 -1.16276 -3.5799 0
M  V30 4939 C 486.961 -1.4778 -2.34641 0
M  V30 4940 H 489.912 -1.20378 -1.03415 0
M  V30 4941 H 489.933 -0.785939 -3.72295 0
M  V30 4942 H 489.445 -2.46157 -3.00048 0
M  V30 4943 H 487.546 -0.104508 -3.72453 0
M  V30 4944 H 487.659 -1.8571 -4.41643 0
M  V30 4945 H 486.023 -0.897366 -2.38368 0
M  V30 4946 H 486.806 -2.56562 -2.28102 0
M  V30 4947 N 489.251 1.34841 -0.815825 0
M  V30 4948 C 490.198 2.29644 -0.230664 0
M  V30 4949 C 491.168 1.53253 0.640533 0
M  V30 4950 O 492.353 1.81653 0.583672 0
M  V30 4951 C 489.493 3.39715 0.607275 0
M  V30 4952 C 488.606 4.31056 -0.28538 0
M  V30 4953 C 487.741 5.28225 0.561446 0
M  V30 4954 C 486.78 6.11204 -0.331035 0
M  V30 4955 N 485.917 7.00483 0.476302 0
M  V30 4956 H 490.757 2.79095 -1.0445 0
M  V30 4957 H 488.294 1.37351 -0.526595 0
M  V30 4958 H 490.252 4.02208 1.10835 0
M  V30 4959 H 488.882 2.91517 1.38629 0
M  V30 4960 H 487.934 3.69487 -0.904621 0
M  V30 4961 H 489.246 4.89239 -0.97193 0
M  V30 4962 H 488.4 5.96135 1.12728 0
M  V30 4963 H 487.139 4.70562 1.28153 0
M  V30 4964 H 486.144 5.42232 -0.909069 0
M  V30 4965 H 487.369 6.70947 -1.04912 0
M  V30 4966 H 485.315 6.45296 1.18019 0
M  V30 4967 H 485.232 7.55847 -0.152008 0
M  V30 4968 H 486.5 7.7273 1.02512 0
M  V30 4969 N 490.729 0.570148 1.46925 0
M  V30 4970 C 491.659 -0.158274 2.32963 0
M  V30 4971 C 492.64 -0.896093 1.44583 0
M  V30 4972 O 493.825 -0.874022 1.7342 0
M  V30 4973 C 490.955 -1.18055 3.26619 0
M  V30 4974 C 489.909 -0.558379 4.24342 0
M  V30 4975 C 489.235 -1.68623 5.07415 0
M  V30 4976 C 490.535 0.496295 5.19937 0
M  V30 4977 H 492.229 0.560046 2.94115 0
M  V30 4978 H 489.775 0.270775 1.41431 0
M  V30 4979 H 491.728 -1.69841 3.85658 0
M  V30 4980 H 490.452 -1.92899 2.63548 0
M  V30 4981 H 489.111 -0.0617157 3.66548 0
M  V30 4982 H 488.759 -2.42402 4.40738 0
M  V30 4983 H 488.459 -1.27564 5.73586 0
M  V30 4984 H 489.983 -2.20709 5.69315 0
M  V30 4985 H 491.397 0.0640052 5.73264 0
M  V30 4986 H 489.794 0.82649 5.94381 0
M  V30 4987 H 490.864 1.38735 4.6463 0
M  V30 4988 N 492.207 -1.54576 0.307264 0
M  V30 4989 C 493.137 -2.26708 -0.55907 0
M  V30 4990 C 494.118 -1.26893 -1.1328 0
M  V30 4991 O 495.303 -1.55677 -1.16097 0
M  V30 4992 C 492.433 -3.01259 -1.72801 0
M  V30 4993 C 491.387 -4.08275 -1.28435 0
M  V30 4994 C 490.713 -4.70575 -2.53895 0
M  V30 4995 C 492.013 -5.2068 -0.411038 0
M  V30 4996 H 493.707 -2.9937 0.042576 0
M  V30 4997 H 491.253 -1.43983 0.0219173 0
M  V30 4998 H 493.206 -3.50444 -2.34023 0
M  V30 4999 H 491.93 -2.26187 -2.356 0
M  V30 5000 H 490.589 -3.59949 -0.695161 0
M  V30 5001 H 490.237 -3.92136 -3.15021 0
M  V30 5002 H 489.937 -5.42854 -2.24908 0
M  V30 5003 H 491.461 -5.22527 -3.15908 0
M  V30 5004 H 492.875 -5.65721 -0.929097 0
M  V30 5005 H 491.272 -5.99716 -0.214664 0
M  V30 5006 H 492.342 -4.81629 0.562287 0
M  V30 5007 N 493.685 -0.035106 -1.57561 0
M  V30 5008 C 494.633 0.962707 -2.11742 0
M  V30 5009 C 495.627 1.33296 -1.0454 0
M  V30 5010 O 496.833 1.31449 -1.22968 0
M  V30 5011 H 493.208 0.32826 -0.676572 0
M  V30 5012 H 495.179 0.48048 -2.94506 0
M  V30 5013 C 493.928 2.23388 -2.66445 0
M  V30 5014 H 493.251 1.95774 -3.48587 0
M  V30 5015 H 494.691 2.91402 -3.07995 0
M  V30 5016 C 493.15 2.96769 -1.59467 0
M  V30 5017 O 493.68 3.89105 -0.998 0
M  V30 5018 N 491.886 2.59212 -1.31369 0
M  V30 5019 H 491.433 1.84202 -1.80076 0
M  V30 5020 H 491.391 3.08618 -0.600173 0
M  V30 5021 N 495.163 1.55791 0.238111 0
M  V30 5022 C 496.11 1.9105 1.29493 0
M  V30 5023 C 497.08 0.765733 1.47397 0
M  V30 5024 O 498.265 1.02017 1.61236 0
M  V30 5025 C 495.405 2.21826 2.64362 0
M  V30 5026 C 494.518 3.49153 2.54394 0
M  V30 5027 C 493.653 3.69455 3.81676 0
M  V30 5028 C 492.692 4.90353 3.66361 0
M  V30 5029 N 491.829 5.07131 4.85554 0
M  V30 5030 H 496.669 2.81172 0.987233 0
M  V30 5031 H 494.206 1.39179 0.476203 0
M  V30 5032 H 496.164 2.37675 3.4288 0
M  V30 5033 H 494.794 1.34897 2.93262 0
M  V30 5034 H 493.846 3.41587 1.67399 0
M  V30 5035 H 495.158 4.37818 2.38991 0
M  V30 5036 H 494.312 3.85311 4.68636 0
M  V30 5037 H 493.051 2.7904 3.99985 0
M  V30 5038 H 492.056 4.74464 2.77784 0
M  V30 5039 H 493.281 5.82237 3.49538 0
M  V30 5040 H 491.227 4.19654 5.04209 0
M  V30 5041 H 491.144 5.89899 4.72816 0
M  V30 5042 H 492.412 5.27407 5.73988 0
M  V30 5043 N 496.642 -0.504142 1.49319 0
M  V30 5044 C 497.889 -1.25846 1.58647 0
M  V30 5045 C 498.217 -1.92592 0.27177 0
M  V30 5046 O 497.472 -1.81167 -0.74007 0
M  V30 5047 C 497.771 -2.35021 2.69258 0
M  V30 5048 C 497.437 -1.85755 4.1086 0
M  V30 5049 C 496.099 -1.72038 4.49395 0
M  V30 5050 C 498.451 -1.48844 4.99495 0
M  V30 5051 C 495.779 -1.19783 5.74342 0
M  V30 5052 C 498.131 -0.980422 6.24956 0
M  V30 5053 C 496.795 -0.829622 6.62324 0
M  V30 5054 H 496.065 -0.460505 0.580531 0
M  V30 5055 H 498.712 -0.559716 1.83138 0
M  V30 5056 H 497.017 -3.10672 2.38726 0
M  V30 5057 H 498.714 -2.93083 2.73685 0
M  V30 5058 H 495.304 -1.9739 3.80441 0
M  V30 5059 H 499.488 -1.5829 4.70381 0
M  V30 5060 H 494.744 -1.06817 6.01997 0
M  V30 5061 H 498.918 -0.685608 6.93017 0
M  V30 5062 H 496.545 -0.42253 7.59025 0
M  V30 5063 N 498.12 -1.38341 -0.754957 0
M  V30 5064 C 499.397 -1.24995 -1.50451 0
M  V30 5065 C 499.777 0.149244 -2.10572 0
M  V30 5066 O 499.125 1.15861 -1.96948 0
M  V30 5067 C 499.335 -2.35904 -2.57197 0
M  V30 5068 C 500.683 -2.74262 -3.24138 0
M  V30 5069 O 501.707 -2.35205 -2.67501 0
M  V30 5070 O 500.566 -3.4161 -4.26574 0
M  V30 5071 H 497.66 -0.48872 -0.667144 0
M  V30 5072 H 500.206 -1.50165 -0.790486 0
M  V30 5073 H 498.978 -3.2953 -2.11011 0
M  V30 5074 H 498.601 -2.12291 -3.36182 0
M  V30 5075 N 499.598 0.982988 -1.23187 0
M  V30 5076 C 500.545 2.07491 -1.01075 0
M  V30 5077 C 501.515 1.65949 0.070905 0
M  V30 5078 O 502.7 1.90629 -0.0806822 0
M  V30 5079 C 499.84 3.39751 -0.605261 0
M  V30 5080 C 498.953 3.94578 -1.75876 0
M  V30 5081 C 498.088 5.15039 -1.3003 0
M  V30 5082 C 497.127 5.62027 -2.42472 0
M  V30 5083 N 496.264 6.73719 -1.97602 0
M  V30 5084 H 501.104 2.25739 -1.9454 0
M  V30 5085 H 498.641 1.10659 -0.969179 0
M  V30 5086 H 500.599 4.15719 -0.351279 0
M  V30 5087 H 499.229 3.21473 0.292382 0
M  V30 5088 H 498.281 3.1539 -2.12681 0
M  V30 5089 H 499.593 4.25422 -2.60418 0
M  V30 5090 H 498.747 5.9833 -1.00429 0
M  V30 5091 H 497.486 4.85843 -0.425216 0
M  V30 5092 H 496.491 4.77318 -2.7285 0
M  V30 5093 H 497.716 5.93244 -3.30512 0
M  V30 5094 H 495.662 6.46287 -1.1247 0
M  V30 5095 H 495.579 7.03934 -2.75705 0
M  V30 5096 H 496.847 7.6049 -1.71098 0
M  V30 5097 N 501.076 1.04316 1.18135 0
M  V30 5098 C 502.304 0.768117 1.92113 0
M  V30 5099 C 502.719 -0.675057 1.76319 0
M  V30 5100 O 502.076 -1.46038 1.09449 0
M  V30 5101 C 502.127 1.12808 3.43448 0
M  V30 5102 O 501.848 2.5146 3.58747 0
M  V30 5103 C 503.349 0.8779 4.3452 0
M  V30 5104 H 500.569 0.279937 0.609817 0
M  V30 5105 H 503.113 1.39149 1.49859 0
M  V30 5106 H 501.268 0.549623 3.83481 0
M  V30 5107 H 501.682 2.65313 4.52448 0
M  V30 5108 H 503.156 1.17959 5.39249 0
M  V30 5109 H 503.633 -0.187239 4.38801 0
M  V30 5110 H 504.239 1.43977 4.00188 0
M  V30 5111 N 502.554 -1.34406 0.822964 0
M  V30 5112 C 503.803 -1.97542 0.407458 0
M  V30 5113 C 504.116 -1.65973 -1.035 0
M  V30 5114 O 505.322 -2.22598 -1.55442 0
M  V30 5115 C 503.778 -3.53463 0.677623 0
M  V30 5116 C 503.386 -3.93925 2.1337 0
M  V30 5117 C 505.13 -4.23229 0.328284 0
M  V30 5118 C 503.037 -5.42759 2.34876 0
M  V30 5119 H 501.967 -0.739207 0.148623 0
M  V30 5120 H 504.618 -1.53248 1.00932 0
M  V30 5121 H 503 -3.96 0.00558965 0
M  V30 5122 H 504.174 -3.62494 2.8449 0
M  V30 5123 H 502.489 -3.37097 2.44448 0
M  V30 5124 H 505.086 -5.32659 0.466794 0
M  V30 5125 H 505.429 -4.09899 -0.727224 0
M  V30 5126 H 505.962 -3.86169 0.954896 0
M  V30 5127 H 502.701 -5.61075 3.38932 0
M  V30 5128 H 502.221 -5.75704 1.68299 0
M  V30 5129 H 503.9 -6.0944 2.17236 0
M  V30 5130 N 504.032 -0.577932 -1.46621 0
M  V30 5131 C 504.979 0.158048 -2.30258 0
M  V30 5132 C 505.949 0.888669 -1.40328 0
M  V30 5133 O 507.134 0.880283 -1.6928 0
M  V30 5134 C 504.274 1.16884 -3.24703 0
M  V30 5135 C 503.387 0.442163 -4.29731 0
M  V30 5136 C 502.522 1.44007 -5.11308 0
M  V30 5137 C 501.561 0.69952 -6.0809 0
M  V30 5138 N 500.698 1.64525 -6.82551 0
M  V30 5139 H 505.538 -0.561242 -2.92667 0
M  V30 5140 H 503.075 -0.288591 -1.44241 0
M  V30 5141 H 505.033 1.7677 -3.779 0
M  V30 5142 H 503.663 1.85591 -2.64113 0
M  V30 5143 H 502.715 -0.271632 -3.79429 0
M  V30 5144 H 504.027 -0.136992 -4.98612 0
M  V30 5145 H 503.181 2.11186 -5.68758 0
M  V30 5146 H 501.92 2.05315 -4.42377 0
M  V30 5147 H 500.925 0.0139217 -5.49798 0
M  V30 5148 H 502.15 0.091894 -6.79038 0
M  V30 5149 H 500.096 2.24653 -6.16334 0
M  V30 5150 H 500.013 1.11878 -7.47676 0
M  V30 5151 H 501.281 2.30754 -7.44562 0
M  V30 5152 N 505.51 1.54411 -0.315457 0
M  V30 5153 C 506.473 2.22713 0.54142 0
M  V30 5154 C 507.473 1.2179 1.04995 0
M  V30 5155 O 508.663 1.46426 0.943667 0
M  V30 5156 C 505.795 2.92485 1.75116 0
M  V30 5157 H 506.988 2.99849 -0.0555508 0
M  V30 5158 H 504.541 1.56159 -0.0664453 0
M  V30 5159 H 505.276 2.19466 2.38758 0
M  V30 5160 H 505.061 3.66483 1.39401 0
M  V30 5161 H 506.551 3.44548 2.35959 0
M  V30 5162 N 506.988 0.0434614 1.5754 0
M  V30 5163 C 507.898 -0.94893 2.14552 0
M  V30 5164 C 508.914 -1.34707 1.10136 0
M  V30 5165 O 510.09 -1.42557 1.42266 0
M  V30 5166 C 507.155 -2.208 2.67298 0
M  V30 5167 C 506.216 -1.86893 3.86484 0
M  V30 5168 C 505.449 -3.06797 4.36705 0
M  V30 5169 O 505.672 -4.19921 3.86034 0
M  V30 5170 O 504.606 -2.8826 5.28384 0
M  V30 5171 H 508.432 -0.494099 2.99654 0
M  V30 5172 H 506.017 -0.177989 1.48336 0
M  V30 5173 H 507.899 -2.94686 3.01228 0
M  V30 5174 H 506.574 -2.65436 1.85272 0
M  V30 5175 H 505.481 -1.10347 3.57455 0
M  V30 5176 H 506.814 -1.47062 4.69716 0
M  V30 5177 N 508.466 -1.55915 -0.229846 0
M  V30 5178 C 509.396 -1.94754 -1.28815 0
M  V30 5179 C 510.377 -0.814657 -1.49323 0
M  V30 5180 O 511.562 -1.07631 -1.61645 0
M  V30 5181 C 508.692 -2.25705 -2.63959 0
M  V30 5182 C 507.646 -3.41406 -2.5812 0
M  V30 5183 C 506.972 -3.57941 -3.97218 0
M  V30 5184 C 508.272 -4.76616 -2.13623 0
M  V30 5185 H 509.966 -2.83404 -0.965547 0
M  V30 5186 H 507.512 -1.36353 -0.463028 0
M  V30 5187 H 509.465 -2.51467 -3.38146 0
M  V30 5188 H 508.189 -1.339 -2.9789 0
M  V30 5189 H 506.848 -3.1568 -1.86391 0
M  V30 5190 H 506.496 -2.63526 -4.28443 0
M  V30 5191 H 506.196 -4.35757 -3.94195 0
M  V30 5192 H 507.72 -3.86042 -4.73079 0
M  V30 5193 H 509.134 -5.01637 -2.77549 0
M  V30 5194 H 507.531 -5.57655 -2.21677 0
M  V30 5195 H 508.601 -4.7253 -1.08829 0
M  V30 5196 N 509.944 0.496216 -1.49584 0
M  V30 5197 C 511.221 1.25755 -1.49816 0
M  V30 5198 C 511.601 2.09859 -0.228572 0
M  V30 5199 O 510.949 2.14449 0.788908 0
M  V30 5200 C 511.159 2.11017 -2.7798 0
M  V30 5201 C 512.507 2.70047 -3.27658 0
M  V30 5202 O 513.531 2.21281 -2.79129 0
M  V30 5203 O 512.39 3.58834 -4.1219 0
M  V30 5204 H 509.484 0.569322 -0.599834 0
M  V30 5205 H 512.03 0.510094 -1.61852 0
M  V30 5206 H 510.802 1.48879 -3.61871 0
M  V30 5207 H 510.425 2.92947 -2.68827 0
M  V30 5208 N 511.423 1.38739 0.74761 0
M  V30 5209 C 512.386 1.36241 1.84312 0
M  V30 5210 C 513.386 0.261811 1.58654 0
M  V30 5211 O 514.576 0.519031 1.66288 0
M  V30 5212 C 511.708 1.12253 3.21888 0
M  V30 5213 H 512.901 2.33712 1.87933 0
M  V30 5214 H 510.454 1.2412 0.949946 0
M  V30 5215 H 511.189 0.154133 3.23934 0
M  V30 5216 H 510.974 1.91943 3.41907 0
M  V30 5217 H 512.464 1.13215 4.0196 0
M  V30 5218 N 512.901 -0.976442 1.23707 0
M  V30 5219 C 513.864 -2.0511 1.02287 0
M  V30 5220 C 514.864 -1.60791 -0.0167195 0
M  V30 5221 O 516.054 -1.72761 0.223408 0
M  V30 5222 C 513.186 -3.36458 0.548507 0
M  V30 5223 H 514.379 -2.25545 1.9766 0
M  V30 5224 H 511.932 -1.15042 1.05806 0
M  V30 5225 H 512.667 -3.21713 -0.408818 0
M  V30 5226 H 512.452 -3.69967 1.29874 0
M  V30 5227 H 513.942 -4.15489 0.419406 0
M  V30 5228 N 514.379 -1.04941 -1.1758 0
M  V30 5229 C 515.289 -0.658826 -2.25159 0
M  V30 5230 C 516.305 0.318941 -1.71052 0
M  V30 5231 O 517.481 0.171669 -2.00667 0
M  V30 5232 C 514.546 -0.0369522 -3.4668 0
M  V30 5233 C 513.607 -1.06484 -4.15884 0
M  V30 5234 C 512.84 -0.472551 -5.31604 0
M  V30 5235 O 513.063 0.718736 -5.65854 0
M  V30 5236 O 511.997 -1.20557 -5.89703 0
M  V30 5237 H 515.823 -1.55533 -2.60851 0
M  V30 5238 H 513.408 -0.820819 -1.24832 0
M  V30 5239 H 515.29 0.308784 -4.20267 0
M  V30 5240 H 513.965 0.833238 -3.12792 0
M  V30 5241 H 512.872 -1.46253 -3.44327 0
M  V30 5242 H 514.205 -1.9061 -4.53794 0
M  V30 5243 N 515.857 1.33968 -0.830081 0
M  V30 5244 C 516.804 2.29387 -0.255008 0
M  V30 5245 C 517.774 1.53923 0.624243 0
M  V30 5246 O 518.959 1.82262 0.564372 0
M  V30 5247 C 516.099 3.4034 0.571209 0
M  V30 5248 C 515.212 4.30729 -0.331083 0
M  V30 5249 C 514.347 5.2879 0.505389 0
M  V30 5250 C 513.386 6.10819 -0.395843 0
M  V30 5251 N 512.523 7.00948 0.401979 0
M  V30 5252 H 517.363 2.77972 -1.07404 0
M  V30 5253 H 514.9 1.36785 -0.541133 0
M  V30 5254 H 516.858 4.03361 1.06562 0
M  V30 5255 H 515.488 2.9297 1.35529 0
M  V30 5256 H 514.54 3.68507 -0.943759 0
M  V30 5257 H 515.852 4.88181 -1.02377 0
M  V30 5258 H 515.006 5.97297 1.06399 0
M  V30 5259 H 513.745 4.71894 1.23155 0
M  V30 5260 H 512.75 5.41238 -0.966529 0
M  V30 5261 H 513.975 6.69797 -1.12023 0
M  V30 5262 H 511.921 6.46512 1.11168 0
M  V30 5263 H 511.838 7.55643 -0.232167 0
M  V30 5264 H 513.106 7.73774 0.943102 0
M  V30 5265 N 517.335 0.585699 1.46312 0
M  V30 5266 C 518.265 -0.133556 2.33118 0
M  V30 5267 C 519.246 -0.880707 1.45525 0
M  V30 5268 O 520.431 -0.855579 1.74337 0
M  V30 5269 C 517.561 -1.14585 3.27853 0
M  V30 5270 C 516.515 -0.513341 4.2491 0
M  V30 5271 C 515.841 -1.63231 5.09175 0
M  V30 5272 C 517.141 0.551413 5.19381 0
M  V30 5273 H 518.835 0.59121 2.93505 0
M  V30 5274 H 516.381 0.285761 1.41136 0
M  V30 5275 H 518.334 -1.65741 3.87438 0
M  V30 5276 H 517.058 -1.90093 2.65579 0
M  V30 5277 H 515.717 -0.0228349 3.66593 0
M  V30 5278 H 515.365 -2.37713 4.43285 0
M  V30 5279 H 515.065 -1.21473 5.74907 0
M  V30 5280 H 516.589 -2.14658 5.71624 0
M  V30 5281 H 518.003 0.124804 5.73164 0
M  V30 5282 H 516.4 0.889486 5.93471 0
M  V30 5283 H 517.47 1.43655 4.63132 0
M  V30 5284 N 518.813 -1.54241 0.323641 0
M  V30 5285 C 520.229 -1.59574 -0.0290018 0
M  V30 5286 C 520.429 -1.34017 -1.50472 0
M  V30 5287 O 519.485 -1.12464 -2.26071 0
M  V30 5288 C 520.798 -2.98169 0.389295 0
M  V30 5289 C 522.346 -3.11148 0.339958 0
M  V30 5290 C 522.821 -4.5209 0.733418 0
M  V30 5291 N 524.312 -4.5808 0.686827 0
M  V30 5292 C 525.047 -5.65248 0.963464 0
M  V30 5293 N 524.543 -6.80355 1.30724 0
M  V30 5294 N 526.336 -5.55025 0.88902 0
M  V30 5295 H 518.487 -1.6911 1.28512 0
M  V30 5296 H 520.75 -0.790972 0.522558 0
M  V30 5297 H 520.456 -3.21871 1.41746 0
M  V30 5298 H 520.33 -3.76399 -0.245657 0
M  V30 5299 H 522.717 -2.87182 -0.679002 0
M  V30 5300 H 522.798 -2.35023 1.00985 0
M  V30 5301 H 522.442 -4.76788 1.75029 0
M  V30 5302 H 522.372 -5.26584 0.0412189 0
M  V30 5303 H 524.863 -3.75411 0.43298 0
M  V30 5304 H 525.176 -7.58029 1.5037 0
M  V30 5305 H 523.521 -6.81851 1.3455 0
M  V30 5306 H 526.712 -4.63977 0.619939 0
M  V30 5307 H 526.885 -6.38458 1.10797 0
M  V30 5308 N 520.291 -0.0518155 -1.57515 0
M  V30 5309 C 521.238 0.922352 -2.11569 0
M  V30 5310 C 522.208 1.30842 -1.02321 0
M  V30 5311 O 523.393 1.39778 -1.29872 0
M  V30 5312 C 520.533 2.19167 -2.6657 0
M  V30 5313 C 519.646 1.86003 -3.89906 0
M  V30 5314 C 518.781 3.07398 -4.33221 0
M  V30 5315 C 517.82 2.70158 -5.49255 0
M  V30 5316 N 516.957 3.84248 -5.8762 0
M  V30 5317 H 521.797 0.454506 -2.94514 0
M  V30 5318 H 519.334 0.212718 -1.45554 0
M  V30 5319 H 521.292 2.93443 -2.96559 0
M  V30 5320 H 519.922 2.63528 -1.86421 0
M  V30 5321 H 518.974 1.01874 -3.66505 0
M  V30 5322 H 520.286 1.54592 -4.74239 0
M  V30 5323 H 519.44 3.89972 -4.64765 0
M  V30 5324 H 518.179 3.41988 -3.477 0
M  V30 5325 H 517.184 1.86001 -5.17382 0
M  V30 5326 H 518.409 2.36759 -6.36492 0
M  V30 5327 H 516.355 4.18638 -5.05053 0
M  V30 5328 H 516.272 3.56538 -6.66646 0
M  V30 5329 H 517.54 4.6746 -6.2378 0
M  V30 5330 N 521.769 1.56035 0.221574 0
M  V30 5331 C 523.185 1.49026 0.571271 0
M  V30 5332 C 523.385 0.746912 1.87146 0
M  V30 5333 O 522.441 0.286566 2.50869 0
M  V30 5334 C 523.754 2.93579 0.650522 0
M  V30 5335 C 525.302 3.04099 0.741151 0
M  V30 5336 C 525.777 4.5001 0.851747 0
M  V30 5337 N 527.268 4.54053 0.915968 0
M  V30 5338 C 528.003 5.64232 1.02125 0
M  V30 5339 N 527.499 6.84164 1.09049 0
M  V30 5340 N 529.292 5.52084 1.05639 0
M  V30 5341 H 521.443 2.02791 -0.63162 0
M  V30 5342 H 523.706 0.921736 -0.221602 0
M  V30 5343 H 523.412 3.50912 -0.235253 0
M  V30 5344 H 523.286 3.45476 1.51413 0
M  V30 5345 H 525.673 2.4683 1.61737 0
M  V30 5346 H 525.754 2.55371 -0.148128 0
M  V30 5347 H 525.398 5.07896 -0.0200117 0
M  V30 5348 H 525.328 4.96444 1.75644 0
M  V30 5349 H 527.819 3.67683 0.872782 0
M  V30 5350 H 528.132 7.63883 1.1706 0
M  V30 5351 H 526.477 6.86875 1.05962 0
M  V30 5352 H 529.668 4.57317 0.998953 0
M  V30 5353 H 529.841 6.37983 1.13498 0
M  V30 5354 N 523.247 -0.488276 1.49845 0
M  V30 5355 C 524.495 -1.23911 1.59657 0
M  V30 5356 C 524.816 -1.92816 0.291005 0
M  V30 5357 O 524.086 -1.83328 -0.690485 0
M  V30 5358 H 522.666 -0.460357 0.588286 0
M  V30 5359 H 525.328 -0.564794 1.86537 0
M  V30 5360 H 524.424 -1.99625 2.39909 0
M  V30 5361 N 524.725 -1.39134 -0.740242 0
M  V30 5362 C 525.672 -1.37434 -1.8542 0
M  V30 5363 C 526.642 -0.234822 -1.64432 0
M  V30 5364 O 527.827 -0.429125 -1.85912 0
M  V30 5365 C 524.967 -1.21844 -3.22875 0
M  V30 5366 C 524.08 -2.45296 -3.55603 0
M  V30 5367 C 523.215 -2.22334 -4.82432 0
M  V30 5368 C 522.254 -3.41488 -5.07988 0
M  V30 5369 N 521.391 -3.17877 -6.26018 0
M  V30 5370 H 526.231 -2.3266 -1.86207 0
M  V30 5371 H 523.768 -1.15578 -0.909946 0
M  V30 5372 H 525.726 -1.10818 -4.02213 0
M  V30 5373 H 524.356 -0.3025 -3.21379 0
M  V30 5374 H 523.408 -2.66945 -2.71006 0
M  V30 5375 H 524.72 -3.34063 -3.7041 0
M  V30 5376 H 523.874 -2.0852 -5.69741 0
M  V30 5377 H 522.613 -1.30954 -4.6979 0
M  V30 5378 H 521.618 -3.55807 -4.19144 0
M  V30 5379 H 522.843 -4.33763 -5.22519 0
M  V30 5380 H 520.789 -2.29156 -6.14673 0
M  V30 5381 H 520.706 -4.00198 -6.41387 0
M  V30 5382 H 521.974 -3.07746 -7.16179 0
M  V30 5383 N 526.204 0.969867 -1.24223 0
M  V30 5384 C 527.453 1.70687 -1.07466 0
M  V30 5385 C 527.766 1.91736 0.386861 0
M  V30 5386 O 528.972 2.62986 0.674581 0
M  V30 5387 C 527.428 3.07217 -1.87472 0
M  V30 5388 C 527.036 2.94018 -3.3802 0
M  V30 5389 C 528.78 3.84804 -1.79237 0
M  V30 5390 C 526.687 4.25844 -4.10379 0
M  V30 5391 H 525.617 0.640067 -0.398536 0
M  V30 5392 H 528.268 1.08092 -1.48285 0
M  V30 5393 H 526.65 3.70628 -1.39466 0
M  V30 5394 H 527.824 2.39632 -3.9359 0
M  V30 5395 H 526.139 2.29898 -3.47183 0
M  V30 5396 H 528.736 4.82417 -2.30603 0
M  V30 5397 H 529.079 4.09356 -0.757197 0
M  V30 5398 H 529.612 3.28115 -2.24912 0
M  V30 5399 H 526.351 4.06486 -5.14246 0
M  V30 5400 H 525.871 4.80054 -3.59594 0
M  V30 5401 H 527.55 4.94475 -4.17257 0
M  V30 5402 N 527.682 1.05563 1.17022 0
M  V30 5403 C 528.592 0.670758 2.24807 0
M  V30 5404 C 529.608 -0.309865 1.71219 0
M  V30 5405 O 530.784 -0.161025 2.00755 0
M  V30 5406 C 527.849 0.055337 3.46656 0
M  V30 5407 C 526.91 1.08688 4.15314 0
M  V30 5408 C 526.143 0.500736 5.31346 0
M  V30 5409 O 526.366 -0.688718 5.66227 0
M  V30 5410 O 525.3 1.23683 5.89055 0
M  V30 5411 H 529.126 1.56914 2.60023 0
M  V30 5412 H 526.711 0.827428 1.24395 0
M  V30 5413 H 528.593 -0.286492 4.20425 0
M  V30 5414 H 527.268 -0.816638 3.13229 0
M  V30 5415 H 526.175 1.48077 3.43546 0
M  V30 5416 H 527.508 1.93014 4.52777 0
M  V30 5417 N 529.16 -1.33526 0.837174 0
M  V30 5418 C 530.07 -2.33023 0.271568 0
M  V30 5419 C 531.086 -1.63272 -0.601514 0
M  V30 5420 O 532.262 -1.94939 -0.506038 0
M  V30 5421 C 529.327 -3.42382 -0.545448 0
M  V30 5422 C 528.388 -4.27857 0.351709 0
M  V30 5423 C 527.621 -5.31994 -0.426409 0
M  V30 5424 O 527.844 -5.45763 -1.65828 0
M  V30 5425 O 526.778 -6.01572 0.1987 0
M  V30 5426 H 530.604 -2.83256 1.09545 0
M  V30 5427 H 528.189 -1.36837 0.599655 0
M  V30 5428 H 530.071 -4.09122 -1.00979 0
M  V30 5429 H 528.746 -2.94369 -1.34641 0
M  V30 5430 H 527.653 -3.6399 0.863853 0
M  V30 5431 H 528.986 -4.79349 1.1174 0
M  V30 5432 N 530.638 -0.59345 -1.46 0
M  V30 5433 C 531.601 0.123538 -2.28867 0
M  V30 5434 C 532.601 0.808628 -1.38989 0
M  V30 5435 O 533.791 0.658945 -1.61256 0
M  V30 5436 C 530.923 1.1847 -3.19653 0
M  V30 5437 H 532.116 -0.604843 -2.93737 0
M  V30 5438 H 529.669 -0.351875 -1.52288 0
M  V30 5439 H 530.404 1.94431 -2.59552 0
M  V30 5440 H 530.189 0.69783 -3.8584 0
M  V30 5441 H 531.679 1.68726 -3.81997 0
M  V30 5442 N 532.116 1.54067 -0.331816 0
M  V30 5443 C 533.362 2.01012 0.268667 0
M  V30 5444 C 533.695 1.2195 1.51136 0
M  V30 5445 O 532.97 0.303972 1.9211 0
M  V30 5446 C 533.253 3.55158 0.59456 0
M  V30 5447 C 533.106 4.4494 -0.659409 0
M  V30 5448 C 534.425 4.16939 1.4089 0
M  V30 5449 H 531.544 0.730698 0.0961756 0
M  V30 5450 H 534.186 1.84593 -0.450031 0
M  V30 5451 H 532.336 3.6928 1.20685 0
M  V30 5452 H 534.008 4.42675 -1.29756 0
M  V30 5453 H 532.251 4.1428 -1.28665 0
M  V30 5454 H 532.922 5.50643 -0.386804 0
M  V30 5455 H 535.398 4.06443 0.891272 0
M  V30 5456 H 534.274 5.24889 1.60569 0
M  V30 5457 H 534.535 3.70798 2.40752 0
M  V30 5458 N 533.594 0.0601682 1.57485 0
M  V30 5459 C 534.542 -0.928899 2.13247 0
M  V30 5460 C 535.536 -1.31616 1.06647 0
M  V30 5461 O 536.742 -1.29476 1.25043 0
M  V30 5462 H 533.117 -0.317455 0.681708 0
M  V30 5463 H 535.088 -0.433566 2.95233 0
M  V30 5464 C 533.837 -2.19121 2.69965 0
M  V30 5465 H 533.16 -1.90204 3.51657 0
M  V30 5466 H 534.6 -2.86465 3.12592 0
M  V30 5467 C 533.059 -2.94195 1.64168 0
M  V30 5468 O 533.589 -3.87468 1.05978 0
M  V30 5469 N 531.795 -2.57089 1.35476 0
M  V30 5470 H 531.342 -1.81314 1.82984 0
M  V30 5471 H 531.3 -3.07624 0.649196 0
M  V30 5472 N 535.072 -1.5615 -0.213296 0
M  V30 5473 C 536.035 -1.92249 -1.24792 0
M  V30 5474 C 537.035 -0.801828 -1.39382 0
M  V30 5475 O 538.225 -1.06948 -1.37506 0
M  V30 5476 C 535.357 -2.18056 -2.62039 0
M  V30 5477 H 536.55 -2.84793 -0.939845 0
M  V30 5478 H 534.103 -1.49559 -0.454062 0
M  V30 5479 H 534.838 -1.2809 -2.97932 0
M  V30 5480 H 534.623 -2.99703 -2.52825 0
M  V30 5481 H 536.113 -2.47051 -3.36683 0
M  V30 5482 N 536.55 0.480323 -1.50102 0
M  V30 5483 C 537.797 1.23307 -1.60629 0
M  V30 5484 C 538.125 1.92135 -0.302375 0
M  V30 5485 O 537.38 1.82321 0.711154 0
M  V30 5486 C 537.679 2.30708 -2.72963 0
M  V30 5487 C 537.345 1.79195 -4.13763 0
M  V30 5488 C 536.007 1.64867 -4.52076 0
M  V30 5489 C 538.359 1.40878 -5.018 0
M  V30 5490 C 535.687 1.10631 -5.76175 0
M  V30 5491 C 538.039 0.880872 -6.26437 0
M  V30 5492 C 536.703 0.724146 -6.6356 0
M  V30 5493 H 535.973 0.451211 -0.587784 0
M  V30 5494 H 538.62 0.53051 -1.84005 0
M  V30 5495 H 536.925 3.06834 -2.43639 0
M  V30 5496 H 538.622 2.88692 -2.78313 0
M  V30 5497 H 535.212 1.91313 -3.83533 0
M  V30 5498 H 539.396 1.50786 -4.7284 0
M  V30 5499 H 534.652 0.972263 -6.0362 0
M  V30 5500 H 538.826 0.575269 -6.9402 0
M  V30 5501 H 536.453 0.301722 -7.59601 0
M  V30 5502 N 538.028 1.39524 0.732853 0
M  V30 5503 C 538.975 1.38416 1.84688 0
M  V30 5504 C 539.945 0.243539 1.64305 0
M  V30 5505 O 541.13 0.438979 1.85681 0
M  V30 5506 C 538.27 1.23555 3.22224 0
M  V30 5507 C 537.383 2.47179 3.54298 0
M  V30 5508 C 536.518 2.2489 4.81246 0
M  V30 5509 C 535.557 3.44178 5.0617 0
M  V30 5510 N 534.694 3.21192 6.24323 0
M  V30 5511 H 539.534 2.33645 1.84971 0
M  V30 5512 H 537.071 1.16059 0.903804 0
M  V30 5513 H 539.029 1.12949 4.0162 0
M  V30 5514 H 537.659 0.31954 3.21215 0
M  V30 5515 H 536.711 2.68379 2.69587 0
M  V30 5516 H 538.023 3.36022 3.68633 0
M  V30 5517 H 537.177 2.11538 5.68627 0
M  V30 5518 H 535.916 1.33443 4.69089 0
M  V30 5519 H 534.921 3.58025 4.17251 0
M  V30 5520 H 536.146 4.36528 5.20212 0
M  V30 5521 H 534.092 2.32413 6.1345 0
M  V30 5522 H 534.009 4.03594 6.39256 0
M  V30 5523 H 535.277 3.1154 7.14537 0
M  V30 5524 N 539.506 -0.963266 1.24736 0
M  V30 5525 C 540.416 -2.09246 1.06082 0
M  V30 5526 C 541.432 -1.74 0.000363101 0
M  V30 5527 O 542.608 -2.0041 0.199479 0
M  V30 5528 C 539.673 -3.40115 0.672498 0
M  V30 5529 C 538.734 -3.89282 1.80993 0
M  V30 5530 C 537.967 -5.13905 1.44004 0
M  V30 5531 O 538.19 -5.69434 0.331835 0
M  V30 5532 O 537.124 -5.57566 2.26723 0
M  V30 5533 H 540.95 -2.27881 2.00759 0
M  V30 5534 H 538.535 -1.07649 1.03595 0
M  V30 5535 H 540.417 -4.18797 0.467668 0
M  V30 5536 H 539.092 -3.22771 -0.245102 0
M  V30 5537 H 537.999 -3.11642 2.06955 0
M  V30 5538 H 539.332 -4.1111 2.70646 0
M  V30 5539 N 540.985 -1.06182 -1.16461 0
M  V30 5540 C 541.915 -0.692861 -2.22984 0
M  V30 5541 C 542.896 0.314122 -1.67174 0
M  V30 5542 O 544.081 0.189499 -1.93273 0
M  V30 5543 C 541.211 -0.07732 -3.47214 0
M  V30 5544 C 540.165 -1.01015 -4.15909 0
M  V30 5545 C 539.491 -0.257973 -5.34077 0
M  V30 5546 C 540.791 -2.33868 -4.67015 0
M  V30 5547 H 542.485 -1.58343 -2.54102 0
M  V30 5548 H 540.031 -0.76279 -1.22137 0
M  V30 5549 H 541.984 0.19266 -4.20959 0
M  V30 5550 H 540.708 0.848254 -3.15392 0
M  V30 5551 H 539.367 -1.26486 -3.44088 0
M  V30 5552 H 539.015 0.670684 -4.98509 0
M  V30 5553 H 538.715 -0.879638 -5.80979 0
M  V30 5554 H 540.239 0.00448788 -6.106 0
M  V30 5555 H 541.653 -2.1279 -5.32347 0
M  V30 5556 H 540.05 -2.91522 -5.24533 0
M  V30 5557 H 541.12 -2.97019 -3.83286 0
M  V30 5558 N 542.463 1.3308 -0.844243 0
M  V30 5559 C 543.709 1.97898 -0.443206 0
M  V30 5560 C 544.042 1.66699 0.99625 0
M  V30 5561 O 543.317 0.949704 1.69738 0
M  V30 5562 C 543.6 3.53801 -0.670606 0
M  V30 5563 C 543.453 3.94667 -2.15772 0
M  V30 5564 C 544.772 4.39936 -0.120226 0
M  V30 5565 H 541.891 0.718861 -0.162504 0
M  V30 5566 H 544.533 1.57633 -1.06075 0
M  V30 5567 H 542.683 3.88229 -0.14496 0
M  V30 5568 H 544.355 3.70469 -2.74865 0
M  V30 5569 H 542.598 3.44203 -2.6402 0
M  V30 5570 H 543.269 5.03275 -2.26757 0
M  V30 5571 H 545.745 4.12183 -0.5696 0
M  V30 5572 H 544.621 5.4803 -0.308984 0
M  V30 5573 H 544.882 4.31184 0.976347 0
M  V30 5574 N 543.941 0.601185 1.45683 0
M  V30 5575 C 545.357 0.264315 1.57396 0
M  V30 5576 C 545.557 -1.23324 1.59353 0
M  V30 5577 O 544.613 -2.01594 1.52039 0
M  V30 5578 C 545.926 0.929839 2.85962 0
M  V30 5579 C 547.474 0.905156 2.99626 0
M  V30 5580 C 547.949 1.55057 4.30954 0
M  V30 5581 N 549.44 1.51576 4.37697 0
M  V30 5582 C 550.175 1.98436 5.37969 0
M  V30 5583 N 549.671 2.53352 6.44813 0
M  V30 5584 N 551.464 1.89242 5.29286 0
M  V30 5585 H 543.615 1.57363 1.42656 0
M  V30 5586 H 545.878 0.658831 0.681649 0
M  V30 5587 H 545.584 1.98404 2.90394 0
M  V30 5588 H 545.458 0.449224 3.74515 0
M  V30 5589 H 547.845 -0.14048 2.94765 0
M  V30 5590 H 547.926 1.42397 2.12501 0
M  V30 5591 H 547.57 2.5955 4.36573 0
M  V30 5592 H 547.5 1.00682 5.16886 0
M  V30 5593 H 549.991 1.11452 3.61091 0
M  V30 5594 H 550.304 2.86918 7.17564 0
M  V30 5595 H 548.649 2.57388 6.45582 0
M  V30 5596 H 551.84 1.46083 4.44722 0
M  V30 5597 H 552.013 2.26075 6.07284 0
M  V30 5598 N 545.419 -1.53889 0.339982 0
M  V30 5599 C 546.366 -2.24902 -0.518452 0
M  V30 5600 C 547.336 -1.24593 -1.09844 0
M  V30 5601 O 548.521 -1.53317 -1.13572 0
M  V30 5602 C 545.661 -3.02262 -1.66529 0
M  V30 5603 C 544.774 -4.17418 -1.11295 0
M  V30 5604 C 543.909 -4.82273 -2.2268 0
M  V30 5605 C 542.948 -5.89503 -1.6478 0
M  V30 5606 N 542.085 -6.48153 -2.69893 0
M  V30 5607 H 546.925 -2.97853 0.0936579 0
M  V30 5608 H 544.462 -1.46986 0.0579924 0
M  V30 5609 H 546.42 -3.45371 -2.3404 0
M  V30 5610 H 545.05 -2.31614 -2.24844 0
M  V30 5611 H 544.102 -3.78976 -0.328886 0
M  V30 5612 H 545.414 -4.94554 -0.649414 0
M  V30 5613 H 544.568 -5.28435 -2.98063 0
M  V30 5614 H 543.307 -4.04552 -2.72376 0
M  V30 5615 H 542.312 -5.42728 -0.879004 0
M  V30 5616 H 543.537 -6.6913 -1.1594 0
M  V30 5617 H 541.483 -5.73298 -3.1885 0
M  V30 5618 H 541.4 -7.20752 -2.28151 0
M  V30 5619 H 542.668 -6.98968 -3.45056 0
M  V30 5620 N 546.897 -0.0685191 -1.57451 0
M  V30 5621 C 548.127 0.609577 -1.97402 0
M  V30 5622 C 548.535 1.63882 -0.945489 0
M  V30 5623 O 547.878 1.8354 0.0766052 0
M  V30 5624 C 547.94 1.3385 -3.33653 0
M  V30 5625 C 547.604 0.463103 -4.54648 0
M  V30 5626 C 548.601 -0.277964 -5.19156 0
M  V30 5627 C 546.286 0.388941 -5.00792 0
M  V30 5628 C 548.28 -1.08145 -6.28159 0
M  V30 5629 C 545.967 -0.418217 -6.09667 0
M  V30 5630 C 546.965 -1.15208 -6.73213 0
M  V30 5631 O 546.653 -1.94594 -7.79993 0
M  V30 5632 H 546.385 0.170197 -0.654224 0
M  V30 5633 H 548.939 -0.13647 -2.04946 0
M  V30 5634 H 547.169 2.13055 -3.22714 0
M  V30 5635 H 548.858 1.90851 -3.58233 0
M  V30 5636 H 549.624 -0.230241 -4.84453 0
M  V30 5637 H 545.503 0.949769 -4.5111 0
M  V30 5638 H 549.047 -1.65476 -6.7769 0
M  V30 5639 H 544.944 -0.467515 -6.43805 0
M  V30 5640 H 545.712 -1.8699 -7.96854 0
M  V30 5641 N 548.375 1.56261 0.205012 0
M  V30 5642 C 549.786 1.70056 0.770574 0
M  V30 5643 C 550.137 0.673398 1.84282 0
M  V30 5644 O 549.262 -0.172196 2.15714 0
M  V30 5645 C 549.857 3.08316 1.40451 0
M  V30 5646 C 548.416 3.2391 1.91727 0
M  V30 5647 C 547.563 2.66001 0.783516 0
M  V30 5648 H 550.514 1.58688 -0.019911 0
M  V30 5649 H 550.535 3.05094 2.27371 0
M  V30 5650 H 550.047 3.83053 0.623882 0
M  V30 5651 H 548.148 2.54072 2.7254 0
M  V30 5652 H 548.261 4.3131 2.08588 0
M  V30 5653 H 546.625 2.24915 1.19521 0
M  V30 5654 H 547.408 3.43297 0.0152883 0
M  V30 5655 N 549.853 -0.472356 1.50355 0
M  V30 5656 C 550.785 -1.58795 1.65278 0
M  V30 5657 C 551.798 -1.53782 0.534313 0
M  V30 5658 O 552.987 -1.59193 0.807446 0
M  V30 5659 C 550.087 -2.97672 1.62001 0
M  V30 5660 C 549.26 -3.27568 2.89859 0
M  V30 5661 C 548.319 -4.45993 2.79242 0
M  V30 5662 O 547.345 -4.46364 3.53197 0
M  V30 5663 N 548.547 -5.47578 1.92713 0
M  V30 5664 H 551.312 -1.46411 2.61503 0
M  V30 5665 H 548.873 -0.660751 1.47803 0
M  V30 5666 H 550.865 -3.74862 1.52513 0
M  V30 5667 H 549.435 -3.03832 0.735159 0
M  V30 5668 H 548.655 -2.39003 3.13483 0
M  V30 5669 H 549.943 -3.44352 3.74565 0
M  V30 5670 H 549.341 -5.50099 1.31939 0
M  V30 5671 H 547.898 -6.23757 1.8913 0
M  V30 5672 N 551.331 -1.39911 -0.725443 0
M  V30 5673 C 552.556 -1.41137 -1.5197 0
M  V30 5674 C 552.981 -0.010262 -1.88097 0
M  V30 5675 O 552.339 0.979184 -1.52583 0
M  V30 5676 C 552.387 -2.2994 -2.77777 0
M  V30 5677 O 551.491 -1.73586 -3.74088 0
M  V30 5678 H 550.832 -0.480219 -0.458569 0
M  V30 5679 H 553.362 -1.84023 -0.894249 0
M  V30 5680 H 553.372 -2.44785 -3.26411 0
M  V30 5681 H 552.047 -3.31759 -2.50816 0
M  V30 5682 H 550.624 -1.68035 -3.32894 0
M  V30 5683 N 552.809 0.956637 -1.25245 0
M  V30 5684 C 554.22 1.51569 -1.09012 0
M  V30 5685 C 554.571 1.93322 0.334813 0
M  V30 5686 O 553.696 1.78421 1.22454 0
M  V30 5687 C 554.291 2.75444 -1.97271 0
M  V30 5688 C 552.85 3.27669 -1.8523 0
M  V30 5689 C 551.997 2.00517 -1.91542 0
M  V30 5690 H 554.948 0.773746 -1.3856 0
M  V30 5691 H 554.969 3.4919 -1.51151 0
M  V30 5692 H 554.481 2.45024 -3.00973 0
M  V30 5693 H 552.582 3.62914 -0.844045 0
M  V30 5694 H 552.695 3.9582 -2.69932 0
M  V30 5695 H 551.059 2.15727 -1.35404 0
M  V30 5696 H 551.842 1.72448 -2.96844 0
M  V30 5697 N 554.287 1.06798 1.15896 0
M  V30 5698 C 555.703 0.792423 1.38538 0
M  V30 5699 C 555.903 -0.60592 1.92174 0
M  V30 5700 O 554.959 -1.36561 2.12385 0
M  V30 5701 C 556.272 1.86157 2.36149 0
M  V30 5702 C 557.82 1.88567 2.49823 0
M  V30 5703 C 558.295 2.9455 3.5072 0
M  V30 5704 N 559.786 2.93616 3.58251 0
M  V30 5705 C 560.521 3.72267 4.36125 0
M  V30 5706 N 560.017 4.60751 5.17379 0
M  V30 5707 N 561.81 3.60637 4.31158 0
M  V30 5708 H 553.961 1.96993 0.794198 0
M  V30 5709 H 556.224 0.853942 0.411688 0
M  V30 5710 H 555.93 2.86603 2.03843 0
M  V30 5711 H 555.804 1.71692 3.3586 0
M  V30 5712 H 558.191 0.887765 2.8143 0
M  V30 5713 H 558.272 2.0711 1.5013 0
M  V30 5714 H 557.916 3.94537 3.19849 0
M  V30 5715 H 557.846 2.73255 4.50155 0
M  V30 5716 H 560.337 2.29472 3.00252 0
M  V30 5717 H 560.65 5.17408 5.74028 0
M  V30 5718 H 558.995 4.64803 5.16704 0
M  V30 5719 H 562.186 2.90892 3.66742 0
M  V30 5720 H 562.359 4.22176 4.91601 0
M  V30 5721 N 555.766 -1.3263 0.851289 0
M  V30 5722 C 556.729 -2.27247 0.298541 0
M  V30 5723 C 557.729 -1.51467 -0.539847 0
M  V30 5724 O 558.919 -1.7061 -0.351843 0
M  V30 5725 C 556.051 -3.35964 -0.578004 0
M  V30 5726 H 557.244 -2.7765 1.13359 0
M  V30 5727 H 554.797 -1.43245 0.625354 0
M  V30 5728 H 555.532 -2.90823 -1.435 0
M  V30 5729 H 555.317 -3.92094 0.0220539 0
M  V30 5730 H 556.807 -4.06472 -0.957626 0
M  V30 5731 N 557.244 -0.608902 -1.45362 0
M  V30 5732 C 558.66 -0.272659 -1.57254 0
M  V30 5733 C 558.86 1.22477 -1.60005 0
M  V30 5734 O 557.916 2.00785 -1.53106 0
M  V30 5735 C 559.229 -0.944991 -2.85465 0
M  V30 5736 C 560.777 -0.921033 -2.99142 0
M  V30 5737 C 561.252 -1.5734 -4.30126 0
M  V30 5738 N 562.743 -1.53895 -4.36887 0
M  V30 5739 C 563.478 -2.01286 -5.36909 0
M  V30 5740 N 562.974 -2.56768 -6.43461 0
M  V30 5741 N 564.767 -1.92046 -5.28275 0
M  V30 5742 H 556.918 -1.58117 -1.4182 0
M  V30 5743 H 559.181 -0.662437 -0.678146 0
M  V30 5744 H 558.887 -1.99941 -2.89338 0
M  V30 5745 H 558.761 -0.469079 -3.74272 0
M  V30 5746 H 561.148 0.124846 -2.94836 0
M  V30 5747 H 561.229 -1.43522 -2.11743 0
M  V30 5748 H 560.873 -2.61862 -4.35191 0
M  V30 5749 H 560.803 -1.03422 -5.16344 0
M  V30 5750 H 563.294 -1.13366 -3.60495 0
M  V30 5751 H 563.607 -2.9072 -7.16032 0
M  V30 5752 H 561.952 -2.60808 -6.44208 0
M  V30 5753 H 565.143 -1.48439 -4.43941 0
M  V30 5754 H 565.316 -2.29293 -6.06077 0
M  V30 5755 N 558.722 1.53707 -0.348139 0
M  V30 5756 C 559.952 2.05108 0.247864 0
M  V30 5757 C 560.36 1.22252 1.44399 0
M  V30 5758 O 559.703 0.251853 1.81965 0
M  V30 5759 C 559.765 3.52171 0.722187 0
M  V30 5760 C 559.429 4.5562 -0.354902 0
M  V30 5761 C 560.426 5.05883 -1.19911 0
M  V30 5762 C 558.111 4.99703 -0.510145 0
M  V30 5763 C 560.105 5.98814 -2.18406 0
M  V30 5764 C 557.792 5.92443 -1.49848 0
M  V30 5765 C 558.79 6.41887 -2.33389 0
M  V30 5766 O 558.478 7.32802 -3.3054 0
M  V30 5767 H 558.21 0.674086 0.0508296 0
M  V30 5768 H 560.764 1.99229 -0.49968 0
M  V30 5769 H 558.994 3.55529 1.52105 0
M  V30 5770 H 560.683 3.8652 1.23925 0
M  V30 5771 H 561.449 4.72586 -1.09028 0
M  V30 5772 H 557.328 4.60816 0.130274 0
M  V30 5773 H 560.872 6.3733 -2.83649 0
M  V30 5774 H 556.769 6.25155 -1.60786 0
M  V30 5775 H 557.537 7.50749 -3.26064 0
M  V30 5776 N 560.2 0.0768682 1.57412 0
M  V30 5777 C 561.448 -0.589918 1.93299 0
M  V30 5778 C 561.769 -1.69842 0.958049 0
M  V30 5779 O 561.039 -1.95899 0.00703261 0
M  V30 5780 H 559.619 -0.220901 0.713591 0
M  V30 5781 H 562.281 0.135917 1.94425 0
M  V30 5782 H 561.377 -1.01195 2.95239 0
M  V30 5783 N 561.678 -1.56367 -0.196722 0
M  V30 5784 C 562.625 -1.94417 -1.24382 0
M  V30 5785 C 563.595 -0.804543 -1.45315 0
M  V30 5786 O 564.78 -1.06256 -1.58475 0
M  V30 5787 C 561.92 -2.28757 -2.58388 0
M  V30 5788 C 561.033 -3.55775 -2.45047 0
M  V30 5789 C 560.168 -3.79445 -3.71746 0
M  V30 5790 C 559.207 -4.99894 -3.53231 0
M  V30 5791 N 558.344 -5.19826 -4.71938 0
M  V30 5792 H 563.184 -2.83691 -0.912338 0
M  V30 5793 H 560.721 -1.40392 -0.439135 0
M  V30 5794 H 562.679 -2.46682 -3.36457 0
M  V30 5795 H 561.309 -1.42625 -2.89582 0
M  V30 5796 H 560.361 -3.45905 -1.58284 0
M  V30 5797 H 561.673 -4.44 -2.27299 0
M  V30 5798 H 560.827 -3.97601 -4.58256 0
M  V30 5799 H 559.566 -2.89546 -3.92446 0
M  V30 5800 H 558.571 -4.81662 -2.65107 0
M  V30 5801 H 559.796 -5.913 -3.33978 0
M  V30 5802 H 557.742 -4.32875 -4.92905 0
M  V30 5803 H 557.659 -6.02228 -4.57009 0
M  V30 5804 H 558.927 -5.42439 -5.59803 0
M  V30 5805 N 563.156 0.464375 -1.50603 0
M  V30 5806 C 564.119 1.54393 -1.69397 0
M  V30 5807 C 565.119 1.50566 -0.564504 0
M  V30 5808 O 566.309 1.53066 -0.831645 0
M  V30 5809 C 563.441 2.9401 -1.72543 0
M  V30 5810 H 564.634 1.39044 -2.65719 0
M  V30 5811 H 562.187 0.69122 -1.40185 0
M  V30 5812 H 562.922 3.14795 -0.77938 0
M  V30 5813 H 562.707 2.98195 -2.54602 0
M  V30 5814 H 564.197 3.72375 -1.89015 0
M  V30 5815 N 564.634 1.40294 0.718013 0
M  V30 5816 C 565.566 1.36281 1.84283 0
M  V30 5817 C 566.579 0.268621 1.60569 0
M  V30 5818 O 567.768 0.528798 1.70487 0
M  V30 5819 C 564.868 1.09741 3.2064 0
M  V30 5820 C 564.041 2.30767 3.71571 0
M  V30 5821 C 563.1 2.00424 4.86535 0
M  V30 5822 O 562.126 2.73268 4.99313 0
M  V30 5823 N 563.328 0.980724 5.72156 0
M  V30 5824 H 566.093 2.3322 1.88225 0
M  V30 5825 H 563.654 1.34616 0.899453 0
M  V30 5826 H 565.646 0.874322 3.95143 0
M  V30 5827 H 564.216 0.214771 3.11861 0
M  V30 5828 H 563.436 2.68921 2.88228 0
M  V30 5829 H 564.724 3.11455 4.02335 0
M  V30 5830 H 564.122 0.377375 5.6444 0
M  V30 5831 H 562.679 0.817538 6.46653 0
M  V30 5832 N 566.112 -0.949982 1.2575 0
M  V30 5833 C 567.352 -1.70994 1.11984 0
M  V30 5834 C 567.716 -1.89095 -0.332746 0
M  V30 5835 O 568.917 -2.62192 -0.592331 0
M  V30 5836 C 567.188 -3.05286 1.85837 0
M  V30 5837 S 568.747 -3.96477 1.88019 0
M  V30 5838 H 565.565 -0.587689 0.400178 0
M  V30 5839 H 568.167 -1.13271 1.59342 0
M  V30 5840 H 566.871 -2.89785 2.90608 0
M  V30 5841 H 566.402 -3.68069 1.38885 0
M  V30 5842 H 568.417 -4.86814 0.96057 0
M  V30 5843 N 567.59 -1.07411 -1.15328 0
M  V30 5844 C 568.5 -0.706438 -2.23711 0
M  V30 5845 C 569.516 0.282586 -1.7169 0
M  V30 5846 O 570.692 0.129066 -2.00986 0
M  V30 5847 C 567.757 -0.11048 -3.46524 0
M  V30 5848 C 566.818 -1.15282 -4.13532 0
M  V30 5849 C 566.051 -0.585205 -5.30482 0
M  V30 5850 O 566.274 0.598549 -5.67251 0
M  V30 5851 O 565.208 -1.33039 -5.87013 0
M  V30 5852 H 569.034 -1.61031 -2.57493 0
M  V30 5853 H 566.619 -0.847113 -1.23062 0
M  V30 5854 H 568.501 0.21957 -4.20828 0
M  V30 5855 H 567.176 0.766703 -3.14489 0
M  V30 5856 H 566.083 -1.53523 -3.41147 0
M  V30 5857 H 567.416 -2.00192 -4.49649 0
M  V30 5858 N 569.068 1.32177 -0.85831 0
M  V30 5859 C 570.345 1.91781 -0.384624 0
M  V30 5860 C 570.725 1.78171 1.13217 0
M  V30 5861 O 570.073 1.18209 1.95548 0
M  V30 5862 C 570.283 3.38414 -0.853047 0
M  V30 5863 C 571.631 4.15542 -0.872359 0
M  V30 5864 O 572.655 3.47148 -0.797926 0
M  V30 5865 O 571.514 5.37678 -0.978009 0
M  V30 5866 H 568.608 0.819259 -0.112886 0
M  V30 5867 H 571.154 1.40923 -0.945453 0
M  V30 5868 H 569.926 3.4228 -1.89632 0
M  V30 5869 H 569.549 3.96683 -0.269874 0
M  V30 5870 N 570.547 0.616602 1.45037 0
M  V30 5871 C 571.824 0.0469086 1.95544 0
M  V30 5872 C 572.204 -1.42345 1.55888 0
M  V30 5873 O 571.552 -2.13055 0.825824 0
M  V30 5874 C 571.762 0.254489 3.48071 0
M  V30 5875 C 573.11 0.140025 4.24369 0
M  V30 5876 O 574.134 0.185084 3.55719 0
M  V30 5877 O 572.993 0.0327034 5.4649 0
M  V30 5878 H 570.087 -0.0306051 0.826433 0
M  V30 5879 H 572.633 0.687293 1.55159 0
M  V30 5880 H 571.405 1.27532 3.69934 0
M  V30 5881 H 571.028 -0.42073 3.95368 0
M  V30 5882 N 572.025 -1.5352 0.356285 0
M  V30 5883 C 572.955 -2.28372 -0.486661 0
M  V30 5884 C 573.936 -1.30432 -1.09185 0
M  V30 5885 O 575.121 -1.59291 -1.11085 0
M  V30 5886 C 572.251 -3.06604 -1.63129 0
M  V30 5887 C 571.205 -4.12154 -1.15381 0
M  V30 5888 C 570.531 -4.78415 -2.38796 0
M  V30 5889 C 571.831 -5.21724 -0.245179 0
M  V30 5890 H 573.525 -2.99083 0.137797 0
M  V30 5891 H 571.071 -1.43841 0.0677134 0
M  V30 5892 H 573.024 -3.57712 -2.22755 0
M  V30 5893 H 571.748 -2.33568 -2.28284 0
M  V30 5894 H 570.407 -3.61978 -0.580294 0
M  V30 5895 H 570.055 -4.01959 -3.02387 0
M  V30 5896 H 569.755 -5.49734 -2.07524 0
M  V30 5897 H 571.279 -5.32313 -2.99125 0
M  V30 5898 H 572.693 -5.68391 -0.748646 0
M  V30 5899 H 571.09 -6.00095 -0.0237608 0
M  V30 5900 H 572.16 -4.79596 0.715229 0
M  V30 5901 N 573.503 -0.0852151 -1.57369 0
M  V30 5902 C 574.466 0.8627 -2.12344 0
M  V30 5903 C 575.466 1.21746 -1.05046 0
M  V30 5904 O 576.656 1.14852 -1.30976 0
M  V30 5905 C 573.788 2.1618 -2.63589 0
M  V30 5906 H 574.981 0.385511 -2.97412 0
M  V30 5907 H 572.534 0.163663 -1.55441 0
M  V30 5908 H 573.269 2.68406 -1.82013 0
M  V30 5909 H 573.054 1.91723 -3.4203 0
M  V30 5910 H 574.544 2.84011 -3.06149 0
M  V30 5911 N 574.981 1.5647 0.188427 0
M  V30 5912 C 575.891 1.98285 1.2538 0
M  V30 5913 C 576.907 0.891535 1.49424 0
M  V30 5914 O 578.083 1.19782 1.61908 0
M  V30 5915 C 575.148 2.31965 2.57669 0
M  V30 5916 C 574.209 3.54838 2.41638 0
M  V30 5917 C 573.442 3.86901 3.67618 0
M  V30 5918 O 573.665 3.20163 4.72072 0
M  V30 5919 O 572.599 4.80309 3.62749 0
M  V30 5920 H 576.425 2.89145 0.928912 0
M  V30 5921 H 574.01 1.44112 0.393955 0
M  V30 5922 H 575.892 2.54673 3.35737 0
M  V30 5923 H 574.567 1.44271 2.89771 0
M  V30 5924 H 573.474 3.37369 1.61658 0
M  V30 5925 H 574.807 4.43019 2.14465 0
M  V30 5926 N 576.459 -0.456382 1.50847 0
M  V30 5927 C 577.406 -1.55249 1.70782 0
M  V30 5928 C 578.376 -1.56757 0.549231 0
M  V30 5929 O 579.561 -1.74061 0.7815 0
M  V30 5930 C 576.701 -2.93118 1.82143 0
M  V30 5931 C 575.814 -3.01285 3.09598 0
M  V30 5932 C 574.949 -4.30159 3.11667 0
M  V30 5933 C 573.988 -4.32124 4.33515 0
M  V30 5934 N 573.125 -5.52492 4.3324 0
M  V30 5935 H 577.965 -1.37555 2.64353 0
M  V30 5936 H 575.502 -0.668543 1.3103 0
M  V30 5937 H 577.46 -3.73088 1.86711 0
M  V30 5938 H 576.09 -3.09413 0.919978 0
M  V30 5939 H 575.142 -2.14096 3.14431 0
M  V30 5940 H 576.454 -2.98597 3.99551 0
M  V30 5941 H 575.608 -5.18489 3.15046 0
M  V30 5942 H 574.347 -4.35477 2.1957 0
M  V30 5943 H 573.352 -3.42189 4.30333 0
M  V30 5944 H 574.577 -4.28485 5.26856 0
M  V30 5945 H 572.523 -5.58567 3.44004 0
M  V30 5946 H 572.44 -5.51605 5.16979 0
M  V30 5947 H 573.708 -6.42906 4.40786 0
M  V30 5948 N 577.937 -1.40673 -0.710563 0
M  V30 5949 C 579.353 -1.22813 -1.01928 0
M  V30 5950 C 579.553 -0.10687 -2.01216 0
M  V30 5951 O 578.609 0.533614 -2.46797 0
M  V30 5952 C 579.922 -2.57178 -1.5582 0
M  V30 5953 C 581.47 -2.64233 -1.67779 0
M  V30 5954 C 581.945 -3.98879 -2.25076 0
M  V30 5955 N 583.436 -4.00647 -2.32456 0
M  V30 5956 C 584.171 -5.01621 -2.77784 0
M  V30 5957 N 583.667 -6.12989 -3.22826 0
M  V30 5958 N 585.46 -4.88988 -2.77213 0
M  V30 5959 H 577.611 -2.12335 -0.05253 0
M  V30 5960 H 579.874 -0.9441 -0.085898 0
M  V30 5961 H 579.58 -3.39903 -0.903249 0
M  V30 5962 H 579.454 -2.78618 -2.54267 0
M  V30 5963 H 581.841 -1.81876 -2.3239 0
M  V30 5964 H 581.922 -2.46619 -0.679178 0
M  V30 5965 H 581.566 -4.81678 -1.61086 0
M  V30 5966 H 581.496 -4.13826 -3.25661 0
M  V30 5967 H 583.987 -3.20231 -2.0065 0
M  V30 5968 H 584.3 -6.85921 -3.55995 0
M  V30 5969 H 582.645 -6.16547 -3.20773 0
M  V30 5970 H 585.836 -4.01075 -2.41363 0
M  V30 5971 H 586.009 -5.67822 -3.12221 0
M  V30 5972 N 579.415 0.9433 -1.26252 0
M  V30 5973 C 580.831 1.21644 -1.03319 0
M  V30 5974 C 581.031 2.0003 0.242983 0
M  V30 5975 O 580.087 2.33838 0.952688 0
M  V30 5976 C 581.4 1.97978 -2.2633 0
M  V30 5977 C 582.948 2.10978 -2.31209 0
M  V30 5978 C 583.423 2.90713 -3.53907 0
M  V30 5979 N 584.914 2.98287 -3.54371 0
M  V30 5980 C 585.649 3.60406 -4.45976 0
M  V30 5981 N 585.145 4.24043 -5.47868 0
M  V30 5982 N 586.938 3.57658 -4.33633 0
M  V30 5983 H 579.089 0.419221 -2.08222 0
M  V30 5984 H 581.352 0.247995 -0.914988 0
M  V30 5985 H 581.058 1.47788 -3.19142 0
M  V30 5986 H 580.932 2.9865 -2.30408 0
M  V30 5987 H 583.319 2.6036 -1.38913 0
M  V30 5988 H 583.4 1.09575 -2.31143 0
M  V30 5989 H 583.044 2.42018 -4.46531 0
M  V30 5990 H 582.974 3.92367 -3.5122 0
M  V30 5991 H 585.465 2.53044 -2.80673 0
M  V30 5992 H 585.778 4.69334 -6.13959 0
M  V30 5993 H 584.123 4.22637 -5.51728 0
M  V30 5994 H 587.314 3.07134 -3.53251 0
M  V30 5995 H 587.487 4.05782 -5.05218 0
M  V30 5996 N 580.893 1.08022 1.14757 0
M  V30 5997 C 582.118 0.82895 1.90114 0
M  V30 5998 C 582.543 -0.612772 1.77839 0
M  V30 5999 O 581.901 -1.42895 1.11583 0
M  V30 6000 C 581.949 1.25062 3.38219 0
M  V30 6001 O 581.053 0.400119 4.10454 0
M  V30 6002 H 580.394 0.301412 0.591648 0
M  V30 6003 H 582.924 1.44062 1.45284 0
M  V30 6004 H 582.934 1.22977 3.89025 0
M  V30 6005 H 581.609 2.30067 3.46471 0
M  V30 6006 H 580.186 0.484052 3.69745 0
M  V30 6007 N 582.371 -1.3172 0.865308 0
M  V30 6008 C 583.319 -2.30569 0.306674 0
M  V30 6009 C 584.313 -1.59317 -0.575724 0
M  V30 6010 O 585.519 -1.73961 -0.462343 0
M  V30 6011 H 581.894 -0.747681 0.0804834 0
M  V30 6012 H 583.865 -2.75165 1.15441 0
M  V30 6013 C 582.614 -3.44358 -0.480952 0
M  V30 6014 H 581.937 -3.99354 0.18876 0
M  V30 6015 H 583.377 -4.15652 -0.837241 0
M  V30 6016 C 581.836 -2.92574 -1.67039 0
M  V30 6017 O 582.366 -2.90954 -2.76964 0
M  V30 6018 N 580.572 -2.48835 -1.50097 0
M  V30 6019 H 580.119 -2.50353 -0.606738 0
M  V30 6020 H 580.077 -2.14543 -2.29823 0
M  V30 6021 N 583.85 -0.624285 -1.44708 0
M  V30 6022 C 584.76 0.0861083 -2.34442 0
M  V30 6023 C 585.776 0.84291 -1.5222 0
M  V30 6024 O 586.952 0.796723 -1.84971 0
M  V30 6025 C 584.017 1.05999 -3.30099 0
M  V30 6026 C 583.077 0.303316 -4.28227 0
M  V30 6027 C 582.311 1.23081 -5.19314 0
M  V30 6028 O 582.534 2.46929 -5.14181 0
M  V30 6029 O 581.468 0.71883 -5.97592 0
M  V30 6030 H 585.293 -0.651756 -2.96624 0
M  V30 6031 H 582.879 -0.384493 -1.44368 0
M  V30 6032 H 584.76 1.62046 -3.88997 0
M  V30 6033 H 583.436 1.77859 -2.70459 0
M  V30 6034 H 582.343 -0.300033 -3.72895 0
M  V30 6035 H 583.676 -0.375123 -4.90768 0
M  V30 6036 N 585.328 1.53329 -0.364422 0
M  V30 6037 C 586.574 2.01537 0.225969 0
M  V30 6038 C 586.907 1.25128 1.48515 0
M  V30 6039 O 586.182 0.344653 1.91422 0
M  V30 6040 C 586.465 3.56339 0.519092 0
M  V30 6041 C 586.318 4.43441 -0.753639 0
M  V30 6042 C 587.637 4.19833 1.32015 0
M  V30 6043 H 584.756 0.732573 0.0806548 0
M  V30 6044 H 587.398 1.83597 -0.489084 0
M  V30 6045 H 585.548 3.71756 1.12825 0
M  V30 6046 H 587.22 4.39823 -1.39116 0
M  V30 6047 H 585.463 4.11457 -1.37424 0
M  V30 6048 H 586.134 5.49699 -0.503517 0
M  V30 6049 H 588.61 4.08242 0.804859 0
M  V30 6050 H 587.486 5.28177 1.49399 0
M  V30 6051 H 587.747 3.75821 2.32832 0
M  V30 6052 N 586.806 0.0935595 1.57322 0
M  V30 6053 C 587.736 -0.863062 2.16964 0
M  V30 6054 C 588.717 -1.29528 1.10256 0
M  V30 6055 O 589.902 -1.36245 1.38387 0
M  V30 6056 C 587.032 -2.12276 2.74875 0
M  V30 6057 C 585.986 -1.82921 3.86942 0
M  V30 6058 C 585.312 -3.15707 4.31548 0
M  V30 6059 C 586.612 -1.11737 5.10208 0
M  V30 6060 H 588.306 -0.366145 2.97153 0
M  V30 6061 H 585.852 -0.174673 1.42937 0
M  V30 6062 H 587.805 -2.79634 3.1525 0
M  V30 6063 H 586.529 -2.64248 1.91938 0
M  V30 6064 H 585.188 -1.17961 3.47103 0
M  V30 6065 H 584.836 -3.65563 3.45504 0
M  V30 6066 H 584.536 -2.96849 5.07104 0
M  V30 6067 H 586.06 -3.84226 4.74555 0
M  V30 6068 H 587.474 -1.69203 5.47762 0
M  V30 6069 H 585.871 -1.03064 5.91183 0
M  V30 6070 H 586.941 -0.0998818 4.84797 0
M  V30 6071 N 588.284 -1.56567 -0.180126 0
M  V30 6072 C 589.7 -1.50488 -0.531559 0
M  V30 6073 C 589.9 -0.796267 -1.851 0
M  V30 6074 O 588.956 -0.352978 -2.50021 0
M  V30 6075 C 590.269 -2.95201 -0.572456 0
M  V30 6076 C 591.817 -3.05957 -0.660264 0
M  V30 6077 C 592.292 -4.5211 -0.732135 0
M  V30 6078 N 593.783 -4.56322 -0.795262 0
M  V30 6079 C 594.518 -5.66742 -0.871296 0
M  V30 6080 N 594.014 -6.86815 -0.908708 0
M  V30 6081 N 595.807 -5.54691 -0.909639 0
M  V30 6082 H 587.958 -2.01045 0.685165 0
M  V30 6083 H 590.221 -0.915536 0.245962 0
M  V30 6084 H 589.927 -3.50165 0.328208 0
M  V30 6085 H 589.801 -3.49369 -1.422 0
M  V30 6086 H 592.188 -2.51032 -1.55136 0
M  V30 6087 H 592.269 -2.54888 0.215783 0
M  V30 6088 H 591.913 -5.07664 0.154664 0
M  V30 6089 H 591.843 -5.00926 -1.6242 0
M  V30 6090 H 594.334 -3.69868 -0.77499 0
M  V30 6091 H 594.647 -7.66718 -0.967654 0
M  V30 6092 H 592.992 -6.89443 -0.877132 0
M  V30 6093 H 596.183 -4.59804 -0.877353 0
M  V30 6094 H 596.356 -6.40768 -0.965434 0
M  V30 6095 N 589.762 0.448376 -1.51087 0
M  V30 6096 C 591.01 1.19635 -1.62886 0
M  V30 6097 C 591.331 1.91977 -0.342024 0
M  V30 6098 O 590.601 1.85094 0.641636 0
M  V30 6099 H 589.181 0.444598 -0.600285 0
M  V30 6100 H 591.843 0.515138 -1.87969 0
M  V30 6101 H 590.939 1.93194 -2.45117 0
M  V30 6102 N 591.24 1.41047 0.703093 0
M  V30 6103 C 592.203 1.42036 1.79884 0
M  V30 6104 C 593.203 0.312153 1.57741 0
M  V30 6105 O 594.393 0.571672 1.64553 0
M  V30 6106 C 591.525 1.22437 3.18154 0
M  V30 6107 H 592.718 2.39572 1.80403 0
M  V30 6108 H 590.271 1.27079 0.909977 0
M  V30 6109 H 591.006 0.257112 3.23279 0
M  V30 6110 H 590.791 2.02723 3.35627 0
M  V30 6111 H 592.281 1.25946 3.98155 0
M  V30 6112 N 592.718 -0.936591 1.26751 0
M  V30 6113 C 593.967 -1.67778 1.11953 0
M  V30 6114 C 594.28 -1.92694 -0.33589 0
M  V30 6115 O 595.486 -2.64682 -0.604618 0
M  V30 6116 C 593.942 -3.02138 1.95551 0
M  V30 6117 C 593.55 -2.84953 3.45696 0
M  V30 6118 C 595.294 -3.79917 1.89377 0
M  V30 6119 C 593.201 -4.14814 4.21525 0
M  V30 6120 H 592.131 -0.629275 0.415366 0
M  V30 6121 H 594.782 -1.04122 1.51099 0
M  V30 6122 H 593.164 -3.668 1.49243 0
M  V30 6123 H 594.338 -2.29112 3.99805 0
M  V30 6124 H 592.653 -2.20612 3.53156 0
M  V30 6125 H 595.25 -4.76134 2.43312 0
M  V30 6126 H 595.593 -4.07204 0.865464 0
M  V30 6127 H 596.126 -3.22037 2.33532 0
M  V30 6128 H 592.865 -3.92709 5.24843 0
M  V30 6129 H 592.385 -4.70352 3.72195 0
M  V30 6130 H 594.064 -4.83239 4.3022 0
M  V30 6131 N 594.196 -1.08629 -1.14182 0
M  V30 6132 C 595.106 -0.730126 -2.22949 0
M  V30 6133 C 596.122 0.26436 -1.7198 0
M  V30 6134 O 597.298 0.107742 -2.01112 0
M  V30 6135 C 594.363 -0.147227 -3.46387 0
M  V30 6136 C 593.424 -1.19662 -4.12286 0
M  V30 6137 C 592.657 -0.641437 -5.29831 0
M  V30 6138 O 592.88 0.538351 -5.67854 0
M  V30 6139 O 591.814 -1.39257 -5.85569 0
M  V30 6140 H 595.64 -1.63753 -2.55771 0
M  V30 6141 H 593.225 -0.860118 -1.22157 0
M  V30 6142 H 595.107 0.174923 -4.21037 0
M  V30 6143 H 593.782 0.733304 -3.15285 0
M  V30 6144 H 592.689 -1.57133 -3.395 0
M  V30 6145 H 594.022 -2.0495 -4.475 0
M  V30 6146 N 595.674 1.31259 -0.872281 0
M  V30 6147 C 596.902 2.00795 -0.498907 0
M  V30 6148 C 597.317 1.65464 0.909238 0
M  V30 6149 O 596.674 0.885073 1.59602 0
M  V30 6150 C 596.725 3.55625 -0.649092 0
M  V30 6151 O 596.446 3.89692 -2.00179 0
M  V30 6152 C 597.947 4.42434 -0.277034 0
M  V30 6153 H 595.167 0.642299 -0.194145 0
M  V30 6154 H 597.711 1.67438 -1.17408 0
M  V30 6155 H 595.866 3.87394 -0.0214402 0
M  V30 6156 H 596.28 4.84407 -2.01122 0
M  V30 6157 H 597.754 5.50299 -0.433064 0
M  V30 6158 H 598.231 4.32146 0.783989 0
M  V30 6159 H 598.837 4.16086 -0.880483 0
M  V30 6160 N 597.152 0.631951 1.44375 0
M  V30 6161 C 598.382 0.143658 2.061 0
M  V30 6162 C 598.79 -1.18733 1.47306 0
M  V30 6163 O 598.133 -1.73943 0.590724 0
M  V30 6164 C 598.195 -0.0446102 3.59472 0
M  V30 6165 C 597.859 1.20835 4.40736 0
M  V30 6166 C 598.856 2.13224 4.74164 0
M  V30 6167 C 596.541 1.44399 4.81097 0
M  V30 6168 C 598.535 3.27487 5.46838 0
M  V30 6169 C 596.222 2.58959 5.53519 0
M  V30 6170 C 597.22 3.50329 5.86309 0
M  V30 6171 O 596.908 4.62891 6.57257 0
M  V30 6172 H 596.64 0.0772939 0.671567 0
M  V30 6173 H 599.194 0.866677 1.8622 0
M  V30 6174 H 597.424 -0.822783 3.77845 0
M  V30 6175 H 599.113 -0.487561 4.02961 0
M  V30 6176 H 599.879 1.96253 4.4352 0
M  V30 6177 H 595.758 0.741696 4.54994 0
M  V30 6178 H 599.302 3.98826 5.72349 0
M  V30 6179 H 595.199 2.75873 5.83579 0
M  V30 6180 H 595.967 4.61883 6.75726 0
M  V30 6181 N 598.631 -1.53133 0.372548 0
M  V30 6182 C 599.563 -2.23557 -0.505444 0
M  V30 6183 C 600.576 -1.25211 -1.04049 0
M  V30 6184 O 601.765 -1.51391 -0.945675 0
M  V30 6185 C 598.865 -2.92516 -1.71136 0
M  V30 6186 C 598.038 -4.17428 -1.30661 0
M  V30 6187 C 597.097 -4.69535 -2.37536 0
M  V30 6188 O 596.123 -5.33042 -1.99637 0
M  V30 6189 N 597.325 -4.47947 -3.6922 0
M  V30 6190 H 600.09 -2.9954 0.0978259 0
M  V30 6191 H 597.651 -1.60684 0.198068 0
M  V30 6192 H 599.643 -3.24281 -2.42124 0
M  V30 6193 H 598.213 -2.19944 -2.22134 0
M  V30 6194 H 597.433 -3.91888 -0.426292 0
M  V30 6195 H 598.721 -4.98622 -1.01259 0
M  V30 6196 H 598.119 -3.97219 -4.02783 0
M  V30 6197 H 596.676 -4.84245 -4.36292 0
M  V30 6198 N 600.109 -0.101901 -1.5727 0
M  V30 6199 C 601.019 0.868647 -2.17926 0
M  V30 6200 C 602.035 1.30527 -1.1506 0
M  V30 6201 O 603.211 1.37178 -1.47459 0
M  V30 6202 C 600.276 2.10727 -2.75309 0
M  V30 6203 C 599.337 1.7242 -3.93154 0
M  V30 6204 C 598.57 2.90377 -4.47791 0
M  V30 6205 O 598.793 4.05305 -4.01353 0
M  V30 6206 O 597.727 2.6845 -5.38719 0
M  V30 6207 H 601.553 0.382544 -3.01281 0
M  V30 6208 H 599.138 0.122812 -1.48894 0
M  V30 6209 H 601.02 2.83303 -3.11958 0
M  V30 6210 H 599.695 2.58376 -1.94996 0
M  V30 6211 H 598.602 0.970039 -3.61305 0
M  V30 6212 H 599.935 1.29528 -4.74851 0
M  V30 6213 N 601.587 1.56661 0.17182 0
M  V30 6214 C 602.833 1.82235 0.889845 0
M  V30 6215 C 603.166 0.679673 1.81918 0
M  V30 6216 O 602.441 -0.318404 1.91876 0
M  V30 6217 C 602.724 3.18195 1.68595 0
M  V30 6218 C 602.577 4.42989 0.779773 0
M  V30 6219 C 603.896 3.5109 2.65375 0
M  V30 6220 H 601.015 0.66291 0.322056 0
M  V30 6221 H 603.657 1.89358 0.15608 0
M  V30 6222 H 601.807 3.12253 2.3115 0
M  V30 6223 H 603.479 4.60997 0.16714 0
M  V30 6224 H 601.722 4.33711 0.0877964 0
M  V30 6225 H 602.393 5.3467 1.3723 0
M  V30 6226 H 604.869 3.57482 2.12946 0
M  V30 6227 H 603.745 4.47298 3.18144 0
M  V30 6228 H 604.006 2.75768 3.45549 0
M  V30 6229 N 603.065 -0.440357 1.51323 0
M  V30 6230 C 604.028 -1.51679 1.71832 0
M  V30 6231 C 605.028 -1.49648 0.588386 0
M  V30 6232 O 606.218 -1.51724 0.855891 0
M  V30 6233 C 603.35 -2.91228 1.77199 0
M  V30 6234 H 604.543 -1.34799 2.67898 0
M  V30 6235 H 602.096 -0.66883 1.41267 0
M  V30 6236 H 602.831 -3.13516 0.829363 0
M  V30 6237 H 602.616 -2.94107 2.59314 0
M  V30 6238 H 604.106 -3.69321 1.94915 0
M  V30 6239 N 604.543 -1.41418 -0.695603 0
M  V30 6240 C 605.768 -1.44329 -1.48942 0
M  V30 6241 C 606.193 -0.0501579 -1.88033 0
M  V30 6242 O 605.551 0.946598 -1.54626 0
M  V30 6243 C 605.599 -2.3578 -2.72837 0
M  V30 6244 O 604.703 -1.81482 -3.70322 0
M  V30 6245 H 604.044 -0.489838 -0.44828 0
M  V30 6246 H 606.574 -1.85878 -0.855014 0
M  V30 6247 H 606.584 -2.51654 -3.21145 0
M  V30 6248 H 605.259 -3.37005 -2.43722 0
M  V30 6249 H 603.836 -1.75058 -3.29255 0
M  V30 6250 N 606.021 0.929856 -1.27246 0
M  V30 6251 C 606.951 2.04722 -1.12299 0
M  V30 6252 C 607.932 1.70082 -0.0250464 0
M  V30 6253 O 609.117 1.93176 -0.199141 0
M  V30 6254 C 606.247 3.38721 -0.767145 0
M  V30 6255 C 605.201 3.87466 -1.81808 0
M  V30 6256 C 604.527 5.18246 -1.31626 0
M  V30 6257 C 605.827 4.11095 -3.22177 0
M  V30 6258 H 607.521 2.17485 -2.05769 0
M  V30 6259 H 605.067 1.04503 -0.990715 0
M  V30 6260 H 607.02 4.16366 -0.649413 0
M  V30 6261 H 605.744 3.25967 0.203259 0
M  V30 6262 H 604.403 3.12012 -1.92468 0
M  V30 6263 H 604.051 5.01881 -0.335378 0
M  V30 6264 H 603.751 5.51829 -2.01887 0
M  V30 6265 H 605.275 5.98462 -1.21143 0
M  V30 6266 H 606.689 4.79316 -3.1453 0
M  V30 6267 H 605.086 4.55982 -3.90129 0
M  V30 6268 H 606.156 3.16468 -3.67391 0
M  V30 6269 N 607.499 1.09233 1.13605 0
M  V30 6270 C 608.91 0.846839 1.6639 0
M  V30 6271 C 609.261 -0.625031 1.85978 0
M  V30 6272 O 608.386 -1.48173 1.57714 0
M  V30 6273 C 608.981 1.5307 3.0225 0
M  V30 6274 C 607.54 1.33223 3.52035 0
M  V30 6275 C 606.687 1.58806 2.27323 0
M  V30 6276 H 609.638 1.25175 0.975541 0
M  V30 6277 H 609.659 0.96267 3.68121 0
M  V30 6278 H 609.171 2.60192 2.87961 0
M  V30 6279 H 607.272 0.282091 3.71531 0
M  V30 6280 H 607.385 2.0657 4.32279 0
M  V30 6281 H 605.749 1.01007 2.33815 0
M  V30 6282 H 606.532 2.67153 2.15602 0
M  V30 6283 N 608.977 -1.30795 0.87923 0
M  V30 6284 C 610.254 -1.91145 0.415086 0
M  V30 6285 C 610.634 -1.7995 -1.10368 0
M  V30 6286 O 609.982 -1.21305 -1.93642 0
M  V30 6287 C 610.192 -3.37014 0.906778 0
M  V30 6288 C 611.54 -4.14101 0.938358 0
M  V30 6289 O 612.564 -3.45834 0.853053 0
M  V30 6290 O 611.423 -5.36054 1.06342 0
M  V30 6291 H 608.517 -0.81736 0.125905 0
M  V30 6292 H 611.063 -1.39401 0.967753 0
M  V30 6293 H 609.835 -3.3922 1.95053 0
M  V30 6294 H 609.458 -3.96204 0.332948 0
M  V30 6295 N 610.455 -0.639598 -1.44038 0
M  V30 6296 C 611.701 -0.147698 -2.02261 0
M  V30 6297 C 612.034 1.23031 -1.50256 0
M  V30 6298 O 611.309 1.81847 -0.690068 0
M  V30 6299 C 611.592 -0.14362 -3.59813 0
M  V30 6300 C 611.445 -1.55458 -4.22082 0
M  V30 6301 C 612.764 0.527317 -4.36929 0
M  V30 6302 H 609.883 -0.0551453 -0.734934 0
M  V30 6303 H 612.525 -0.817688 -1.71505 0
M  V30 6304 H 610.675 0.426898 -3.86147 0
M  V30 6305 H 612.347 -2.17464 -4.06826 0
M  V30 6306 H 610.59 -2.10594 -3.79253 0
M  V30 6307 H 611.261 -1.50369 -5.31124 0
M  V30 6308 H 613.737 0.0420504 -4.16079 0
M  V30 6309 H 612.613 0.499389 -5.46624 0
M  V30 6310 H 612.874 1.59914 -4.12165 0
M  V30 6311 N 611.933 1.52934 -0.380664 0
M  V30 6312 C 613.344 1.86457 0.0952684 0
M  V30 6313 C 613.695 1.3007 1.46889 0
M  V30 6314 O 612.82 0.628636 2.07068 0
M  V30 6315 C 613.415 3.38323 0.179648 0
M  V30 6316 C 611.974 3.71589 0.599858 0
M  V30 6317 C 611.121 2.76228 -0.243572 0
M  V30 6318 H 614.072 1.46966 -0.59888 0
M  V30 6319 H 614.093 3.67113 1.00042 0
M  V30 6320 H 613.605 3.79333 -0.820228 0
M  V30 6321 H 611.706 3.36144 1.60742 0
M  V30 6322 H 611.819 4.77715 0.364003 0
M  V30 6323 H 610.183 2.53045 0.289855 0
M  V30 6324 H 610.966 3.20074 -1.24127 0
M  V30 6325 N 613.412 0.11024 1.57214 0
M  V30 6326 C 614.375 -0.828808 2.1369 0
M  V30 6327 C 615.375 -1.20059 1.06969 0
M  V30 6328 O 616.565 -1.12754 1.32786 0
M  V30 6329 C 613.697 -2.11959 2.66994 0
M  V30 6330 H 614.89 -0.338146 2.97988 0
M  V30 6331 H 612.443 -0.138913 1.55681 0
M  V30 6332 H 613.178 -2.65476 1.8626 0
M  V30 6333 H 612.963 -1.86258 3.45037 0
M  V30 6334 H 614.453 -2.79105 3.10629 0
M  V30 6335 N 614.89 -1.56749 -0.16351 0
M  V30 6336 C 616.167 -1.73321 -0.906599 0
M  V30 6337 C 616.547 -0.673779 -2.00059 0
M  V30 6338 O 615.895 0.310121 -2.26386 0
M  V30 6339 C 616.105 -3.168 -1.46419 0
M  V30 6340 C 617.453 -3.77993 -1.93407 0
M  V30 6341 O 618.477 -3.20127 -1.56196 0
M  V30 6342 O 617.336 -4.79615 -2.61976 0
M  V30 6343 H 614.43 -0.708073 -0.427272 0
M  V30 6344 H 616.976 -1.69029 -0.150727 0
M  V30 6345 H 615.748 -3.85396 -0.677189 0
M  V30 6346 H 615.371 -3.2545 -2.28403 0
M  V30 6347 N 616.368 0.432326 -1.51554 0
M  V30 6348 C 617.298 1.53242 -1.76179 0
M  V30 6349 C 618.279 1.58717 -0.611801 0
M  V30 6350 O 619.464 1.74364 -0.855033 0
M  V30 6351 C 616.594 2.91278 -1.89141 0
M  V30 6352 C 615.548 3.00663 -3.04608 0
M  V30 6353 C 614.874 4.40728 -3.02759 0
M  V30 6354 C 616.174 2.74281 -4.44485 0
M  V30 6355 H 617.868 1.32886 -2.68294 0
M  V30 6356 H 615.414 0.637841 -1.29103 0
M  V30 6357 H 617.367 3.68203 -2.04951 0
M  V30 6358 H 616.091 3.12877 -0.936785 0
M  V30 6359 H 614.75 2.26179 -2.88511 0
M  V30 6360 H 614.398 4.59301 -2.05065 0
M  V30 6361 H 614.098 4.47936 -3.80299 0
M  V30 6362 H 615.622 5.19619 -3.20669 0
M  V30 6363 H 617.036 3.40936 -4.60907 0
M  V30 6364 H 615.433 2.92893 -5.23769 0
M  V30 6365 H 616.503 1.69856 -4.54177 0
M  V30 6366 N 617.846 1.41785 0.688094 0
M  V30 6367 C 618.776 1.47 1.8142 0
M  V30 6368 C 619.757 0.327881 1.6691 0
M  V30 6369 O 620.942 0.540362 1.86531 0
M  V30 6370 C 618.072 1.35876 3.19617 0
M  V30 6371 C 617.026 2.47976 3.48844 0
M  V30 6372 C 616.352 2.21915 4.86475 0
M  V30 6373 C 617.652 3.90309 3.47068 0
M  V30 6374 H 619.346 2.41247 1.77314 0
M  V30 6375 H 616.892 1.16116 0.851651 0
M  V30 6376 H 618.845 1.38134 3.98117 0
M  V30 6377 H 617.569 0.38116 3.24368 0
M  V30 6378 H 616.228 2.45013 2.72698 0
M  V30 6379 H 615.876 1.2248 4.8786 0
M  V30 6380 H 615.576 2.97037 5.06994 0
M  V30 6381 H 617.1 2.25901 5.67275 0
M  V30 6382 H 618.514 3.94947 4.1556 0
M  V30 6383 H 616.911 4.65175 3.7912 0
M  V30 6384 H 617.981 4.17927 2.45896 0
M  V30 6385 N 619.324 -0.923095 1.27737 0
M  V30 6386 C 620.271 -2.02432 1.1086 0
M  V30 6387 C 621.241 -1.66098 0.00835195 0
M  V30 6388 O 622.426 -1.90027 0.171542 0
M  V30 6389 C 619.566 -3.36476 0.766671 0
M  V30 6390 C 618.679 -3.85737 1.94501 0
M  V30 6391 C 617.814 -5.08249 1.54455 0
M  V30 6392 C 616.853 -5.49818 2.6901 0
M  V30 6393 N 615.99 -6.63524 2.29521 0
M  V30 6394 H 620.83 -2.16201 2.05089 0
M  V30 6395 H 618.367 -1.05909 1.02087 0
M  V30 6396 H 620.325 -4.13569 0.549223 0
M  V30 6397 H 618.955 -3.22502 -0.13867 0
M  V30 6398 H 618.007 -3.04883 2.27487 0
M  V30 6399 H 619.319 -4.12513 2.80419 0
M  V30 6400 H 618.473 -5.92857 1.28862 0
M  V30 6401 H 617.212 -4.83261 0.656534 0
M  V30 6402 H 616.217 -4.63757 2.95313 0
M  V30 6403 H 617.442 -5.76799 3.5844 0
M  V30 6404 H 615.388 -6.40185 1.43177 0
M  V30 6405 H 615.305 -6.89978 3.08977 0
M  V30 6406 H 616.573 -7.51461 2.07187 0
M  V30 6407 N 620.802 -1.09834 -1.13024 0
M  V30 6408 C 621.732 -0.763451 -2.20666 0
M  V30 6409 C 622.713 0.260778 -1.68089 0
M  V30 6410 O 623.898 0.127915 -1.93778 0
M  V30 6411 C 621.028 -0.187744 -3.46792 0
M  V30 6412 C 619.982 -1.14196 -4.12484 0
M  V30 6413 C 619.308 -0.427755 -5.32986 0
M  V30 6414 C 620.608 -2.48607 -4.59338 0
M  V30 6415 H 622.302 -1.66347 -2.48936 0
M  V30 6416 H 619.848 -0.801261 -1.19649 0
M  V30 6417 H 621.801 0.0586375 -4.21359 0
M  V30 6418 H 620.525 0.747485 -3.17931 0
M  V30 6419 H 619.184 -1.37369 -3.3989 0
M  V30 6420 H 618.832 0.511747 -5.0039 0
M  V30 6421 H 618.532 -1.06403 -5.77886 0
M  V30 6422 H 620.056 -0.189772 -6.10305 0
M  V30 6423 H 621.47 -2.29618 -5.25308 0
M  V30 6424 H 619.867 -3.08062 -5.14993 0
M  V30 6425 H 620.937 -3.09062 -3.73642 0
M  V30 6426 N 622.28 1.30327 -0.886154 0
M  V30 6427 C 623.505 2.0079 -0.519425 0
M  V30 6428 C 623.93 1.65979 0.885013 0
M  V30 6429 O 623.288 0.877043 1.58675 0
M  V30 6430 C 623.336 3.53686 -0.702758 0
M  V30 6431 O 622.44 4.11637 0.250828 0
M  V30 6432 H 621.781 0.63171 -0.204544 0
M  V30 6433 H 624.311 1.66145 -1.19402 0
M  V30 6434 H 624.321 4.03531 -0.602207 0
M  V30 6435 H 622.996 3.78361 -1.72673 0
M  V30 6436 H 621.573 3.72755 0.103873 0
M  V30 6437 N 623.758 0.647228 1.43697 0
M  V30 6438 C 624.688 -0.0345631 2.33474 0
M  V30 6439 C 625.669 -0.818193 1.4913 0
M  V30 6440 O 626.854 -0.780867 1.77809 0
M  V30 6441 C 623.984 -1.00576 3.32418 0
M  V30 6442 C 622.938 -0.33266 4.26705 0
M  V30 6443 C 622.264 -1.41489 5.1564 0
M  V30 6444 C 623.564 0.771204 5.16575 0
M  V30 6445 H 625.258 0.715163 2.90733 0
M  V30 6446 H 622.804 0.345364 1.39797 0
M  V30 6447 H 624.757 -1.49159 3.94119 0
M  V30 6448 H 623.481 -1.78657 2.73403 0
M  V30 6449 H 622.14 0.13267 3.6636 0
M  V30 6450 H 621.788 -2.18698 4.52968 0
M  V30 6451 H 621.488 -0.969799 5.79542 0
M  V30 6452 H 623.012 -1.9022 5.80214 0
M  V30 6453 H 624.426 0.36779 5.72119 0
M  V30 6454 H 622.823 1.1404 5.89165 0
M  V30 6455 H 623.893 1.63169 4.56622 0
M  V30 6456 N 625.236 -1.5273 0.388769 0
M  V30 6457 C 626.183 -2.26437 -0.446639 0
M  V30 6458 C 627.153 -1.28025 -1.05824 0
M  V30 6459 O 628.338 -1.56852 -1.08637 0
M  V30 6460 C 625.478 -3.07407 -1.56828 0
M  V30 6461 C 624.591 -4.20747 -0.979589 0
M  V30 6462 C 623.726 -4.89113 -2.07224 0
M  V30 6463 C 622.765 -5.94447 -1.45942 0
M  V30 6464 N 621.902 -6.56411 -2.49135 0
M  V30 6465 H 626.742 -2.97404 0.18837 0
M  V30 6466 H 624.279 -1.46727 0.104725 0
M  V30 6467 H 626.237 -3.52642 -2.22934 0
M  V30 6468 H 624.867 -2.3865 -2.17361 0
M  V30 6469 H 623.919 -3.7983 -0.208151 0
M  V30 6470 H 625.231 -4.9637 -0.491747 0
M  V30 6471 H 624.385 -5.3765 -2.81101 0
M  V30 6472 H 623.124 -4.13013 -2.59368 0
M  V30 6473 H 622.129 -5.4525 -0.705894 0
M  V30 6474 H 623.354 -6.7248 -0.945932 0
M  V30 6475 H 621.3 -5.83152 -3.00449 0
M  V30 6476 H 621.217 -7.27645 -2.05105 0
M  V30 6477 H 622.485 -7.09592 -3.22644 0
M  V30 6478 N 626.714 -0.118576 -1.57153 0
M  V30 6479 C 628.13 0.238014 -1.57815 0
M  V30 6480 C 628.33 1.66747 -1.13127 0
M  V30 6481 O 627.386 2.38867 -0.818462 0
M  V30 6482 C 628.699 0.00508207 -3.007 0
M  V30 6483 C 630.247 0.0710139 -3.12919 0
M  V30 6484 C 630.722 -0.13422 -4.57803 0
M  V30 6485 N 632.213 -0.0801755 -4.63131 0
M  V30 6486 C 632.948 -0.213885 -5.73001 0
M  V30 6487 N 632.444 -0.403742 -6.91623 0
M  V30 6488 N 634.237 -0.15349 -5.6189 0
M  V30 6489 H 626.388 -1.05226 -1.84503 0
M  V30 6490 H 628.651 -0.414318 -0.852669 0
M  V30 6491 H 628.357 -0.983125 -3.3768 0
M  V30 6492 H 628.231 0.73714 -3.69927 0
M  V30 6493 H 630.618 1.04975 -2.75798 0
M  V30 6494 H 630.699 -0.692918 -2.46236 0
M  V30 6495 H 630.343 -1.10992 -4.95624 0
M  V30 6496 H 630.273 0.649692 -5.22577 0
M  V30 6497 H 632.764 0.0630689 -3.77847 0
M  V30 6498 H 633.077 -0.496645 -7.71202 0
M  V30 6499 H 631.422 -0.43971 -6.93608 0
M  V30 6500 H 634.613 -0.00613174 -4.681 0
M  V30 6501 H 634.786 -0.261138 -6.47474 0
M  V30 6502 N 628.193 1.56834 0.155195 0
M  V30 6503 C 629.609 1.51315 0.50755 0
M  V30 6504 C 629.809 0.825614 1.83809 0
M  V30 6505 O 628.865 0.39271 2.49427 0
M  V30 6506 C 630.178 2.96074 0.52542 0
M  V30 6507 C 631.726 3.06968 0.611505 0
M  V30 6508 C 632.201 4.53218 0.660115 0
M  V30 6509 N 633.692 4.5753 0.722564 0
M  V30 6510 C 634.427 5.68056 0.781023 0
M  V30 6511 N 633.923 6.88173 0.799327 0
M  V30 6512 N 635.716 5.56068 0.821278 0
M  V30 6513 H 627.867 1.9993 -0.717063 0
M  V30 6514 H 630.13 0.911507 -0.260496 0
M  V30 6515 H 629.836 3.49599 -0.383875 0
M  V30 6516 H 629.71 3.51587 1.36624 0
M  V30 6517 H 632.097 2.53468 1.51122 0
M  V30 6518 H 632.178 2.54513 -0.256306 0
M  V30 6519 H 631.822 5.07354 -0.23541 0
M  V30 6520 H 631.752 5.03447 1.5443 0
M  V30 6521 H 634.243 3.71054 0.716049 0
M  V30 6522 H 634.556 7.6816 0.845553 0
M  V30 6523 H 632.901 6.90751 0.767337 0
M  V30 6524 H 636.092 4.61142 0.804091 0
M  V30 6525 H 636.265 6.42223 0.863372 0
M  V30 6526 N 629.671 -0.424282 1.51781 0
M  V30 6527 C 630.896 -1.19928 1.6921 0
M  V30 6528 C 631.321 -1.8392 0.394355 0
M  V30 6529 O 630.679 -1.69371 -0.646778 0
M  V30 6530 C 630.727 -2.24937 2.81843 0
M  V30 6531 O 629.831 -3.3073 2.46356 0
M  V30 6532 H 629.172 -0.35078 0.563781 0
M  V30 6533 H 631.702 -0.499401 1.98412 0
M  V30 6534 H 631.712 -2.69512 3.06312 0
M  V30 6535 H 630.387 -1.77742 3.76006 0
M  V30 6536 H 628.964 -2.9154 2.32505 0
M  V30 6537 N 631.149 -1.42148 -0.680565 0
M  V30 6538 C 632.426 -1.32795 -1.43614 0
M  V30 6539 C 632.806 0.037415 -2.11067 0
M  V30 6540 O 632.154 1.05258 -2.02813 0
M  V30 6541 C 632.364 -2.49206 -2.44331 0
M  V30 6542 C 633.712 -2.91059 -3.09144 0
M  V30 6543 O 634.736 -2.49054 -2.54657 0
M  V30 6544 O 633.595 -3.63741 -4.07866 0
M  V30 6545 H 630.689 -0.523397 -0.640301 0
M  V30 6546 H 633.235 -1.54144 -0.709775 0
M  V30 6547 H 632.007 -3.40252 -1.93247 0
M  V30 6548 H 631.63 -2.29813 -3.24456 0
M  V30 6549 N 632.627 0.916307 -1.28225 0
M  V30 6550 C 634.043 1.19425 -1.05876 0
M  V30 6551 C 634.243 2.005 0.2005 0
M  V30 6552 O 633.299 2.35806 0.902873 0
M  V30 6553 C 634.612 1.93133 -2.30478 0
M  V30 6554 C 636.16 2.06026 -2.35632 0
M  V30 6555 C 636.635 2.83141 -3.59994 0
M  V30 6556 N 638.126 2.90704 -3.60618 0
M  V30 6557 C 638.861 3.50865 -4.53521 0
M  V30 6558 N 638.357 4.12327 -5.56739 0
M  V30 6559 N 640.15 3.48379 -4.41122 0
M  V30 6560 H 632.301 0.37496 -2.09064 0
M  V30 6561 H 634.564 0.228531 -0.920042 0
M  V30 6562 H 634.27 1.40985 -3.22205 0
M  V30 6563 H 634.144 2.93696 -2.36691 0
M  V30 6564 H 636.531 2.57355 -1.44404 0
M  V30 6565 H 636.612 1.04647 -2.33415 0
M  V30 6566 H 636.256 2.32492 -4.51564 0
M  V30 6567 H 636.186 3.84829 -3.59464 0
M  V30 6568 H 638.677 2.47034 -2.85977 0
M  V30 6569 H 638.99 4.56205 -6.23776 0
M  V30 6570 H 637.335 4.10839 -5.60568 0
M  V30 6571 H 640.526 2.99572 -3.59686 0
M  V30 6572 H 640.699 3.94974 -5.13712 0
M  V30 6573 N 634.105 1.10431 1.1244 0
M  V30 6574 C 635.037 0.710945 2.17895 0
M  V30 6575 C 636.05 -0.252315 1.60833 0
M  V30 6576 O 637.239 -0.03679 1.78462 0
M  V30 6577 C 634.339 0.0284262 3.38888 0
M  V30 6578 C 633.512 1.01585 4.2544 0
M  V30 6579 C 632.571 0.364826 5.24934 0
M  V30 6580 O 631.597 1.01561 5.60066 0
M  V30 6581 N 632.799 -0.87674 5.73841 0
M  V30 6582 H 635.564 1.61826 2.52255 0
M  V30 6583 H 633.125 0.993132 1.27861 0
M  V30 6584 H 635.117 -0.418568 4.0253 0
M  V30 6585 H 633.687 -0.781294 3.02679 0
M  V30 6586 H 632.907 1.64111 3.58415 0
M  V30 6587 H 634.195 1.68425 4.80115 0
M  V30 6588 H 633.593 -1.42483 5.47462 0
M  V30 6589 H 632.15 -1.26688 6.39369 0
M  V30 6590 N 635.583 -1.29855 0.893053 0
M  V30 6591 C 636.515 -2.26911 0.32311 0
M  V30 6592 C 637.528 -1.54039 -0.526858 0
M  V30 6593 O 638.717 -1.75132 -0.345095 0
M  V30 6594 C 635.817 -3.34266 -0.558509 0
M  V30 6595 C 634.99 -4.36601 0.264222 0
M  V30 6596 C 634.049 -5.23326 -0.549171 0
M  V30 6597 O 633.075 -5.69192 0.0309883 0
M  V30 6598 N 634.277 -5.50008 -1.85664 0
M  V30 6599 H 637.042 -2.76455 1.15726 0
M  V30 6600 H 634.603 -1.4312 0.756859 0
M  V30 6601 H 636.595 -3.89211 -1.1089 0
M  V30 6602 H 635.165 -2.8459 -1.29334 0
M  V30 6603 H 634.385 -3.81409 0.996046 0
M  V30 6604 H 635.673 -5.02019 0.827906 0
M  V30 6605 H 635.071 -5.14542 -2.35081 0
M  V30 6606 H 633.628 -6.07796 -2.35431 0
M  V30 6607 N 637.061 -0.65484 -1.43351 0
M  V30 6608 C 638.308 -0.168892 -2.01794 0
M  V30 6609 C 638.636 1.2177 -1.51665 0
M  V30 6610 O 637.891 1.82717 -0.70092 0
M  V30 6611 C 638.19 -0.130424 -3.57162 0
M  V30 6612 C 637.856 -1.45898 -4.26643 0
M  V30 6613 C 636.518 -1.82279 -4.4534 0
M  V30 6614 C 638.87 -2.33485 -4.65976 0
M  V30 6615 C 636.198 -3.0591 -5.00635 0
M  V30 6616 C 638.55 -3.5641 -5.22642 0
M  V30 6617 C 637.214 -3.92985 -5.39555 0
M  V30 6618 H 636.484 -0.061802 -0.738418 0
M  V30 6619 H 639.131 -0.845869 -1.71806 0
M  V30 6620 H 637.436 0.630008 -3.86702 0
M  V30 6621 H 639.133 0.262465 -4.0014 0
M  V30 6622 H 635.723 -1.16591 -4.12437 0
M  V30 6623 H 639.907 -2.06668 -4.51223 0
M  V30 6624 H 635.163 -3.34295 -5.11915 0
M  V30 6625 H 639.337 -4.24495 -5.52066 0
M  V30 6626 H 636.964 -4.88862 -5.82167 0
M  V30 6627 N 638.539 1.52521 -0.396863 0
M  V30 6628 C 639.469 2.29582 0.425941 0
M  V30 6629 C 640.45 1.33281 1.05689 0
M  V30 6630 O 641.635 1.62181 1.06823 0
M  V30 6631 C 638.765 3.10821 1.54943 0
M  V30 6632 C 637.719 4.15069 1.04413 0
M  V30 6633 C 637.045 4.84578 2.26028 0
M  V30 6634 C 638.345 5.22191 0.106767 0
M  V30 6635 H 640.039 2.98612 -0.217045 0
M  V30 6636 H 637.585 1.43611 -0.105826 0
M  V30 6637 H 639.538 3.63492 2.13193 0
M  V30 6638 H 638.262 2.39538 2.22011 0
M  V30 6639 H 636.921 3.63389 0.484118 0
M  V30 6640 H 636.569 4.09835 2.91623 0
M  V30 6641 H 636.269 5.55043 1.92876 0
M  V30 6642 H 637.793 5.40056 2.84906 0
M  V30 6643 H 639.207 5.70176 0.597685 0
M  V30 6644 H 637.604 5.99947 -0.135352 0
M  V30 6645 H 638.674 4.77531 -0.842134 0
M  V30 6646 N 640.017 0.126909 1.57088 0
M  V30 6647 C 641.265 -0.528123 1.95078 0
M  V30 6648 C 641.586 -1.66708 1.0116 0
M  V30 6649 O 640.856 -1.95777 0.0693527 0
M  V30 6650 H 639.436 -0.198087 0.720257 0
M  V30 6651 H 642.098 0.197703 1.93895 0
M  V30 6652 H 641.194 -0.917507 2.98309 0
M  V30 6653 N 641.495 -1.56914 -0.146875 0
M  V30 6654 C 642.445 -1.94693 -1.18653 0
M  V30 6655 C 643.429 -0.81821 -1.38543 0
M  V30 6656 O 644.621 -1.08167 -1.40103 0
M  V30 6657 C 641.75 -2.33117 -2.52014 0
M  V30 6658 C 640.836 -3.5256 -2.35717 0
M  V30 6659 N 641.227 -4.69091 -1.89175 0
M  V30 6660 C 639.525 -3.57647 -2.66467 0
M  V30 6661 C 640.226 -5.51187 -1.85924 0
M  V30 6662 N 639.202 -4.92899 -2.29242 0
M  V30 6663 H 643.004 -2.82264 -0.81879 0
M  V30 6664 H 640.518 -1.58474 -0.354929 0
M  V30 6665 H 642.515 -2.58387 -3.27172 0
M  V30 6666 H 641.175 -1.46898 -2.89571 0
M  V30 6667 H 642.186 -4.92844 -1.59139 0
M  V30 6668 H 638.863 -2.81967 -3.07898 0
M  V30 6669 H 640.253 -6.54613 -1.51431 0
M  V30 6670 N 642.974 0.416227 -1.52004 0
M  V30 6671 C 643.907 1.52736 -1.6955 0
M  V30 6672 C 644.885 1.53264 -0.54305 0
M  V30 6673 O 646.069 1.72077 -0.769527 0
M  V30 6674 C 643.196 2.91283 -1.72835 0
M  V30 6675 C 642.242 3.08695 -2.94295 0
M  V30 6676 S 643.075 2.82758 -4.54762 0
M  V30 6677 C 644.231 4.23548 -4.60823 0
M  V30 6678 H 644.464 1.37623 -2.63528 0
M  V30 6679 H 641.997 0.607335 -1.41954 0
M  V30 6680 H 643.955 3.71134 -1.75413 0
M  V30 6681 H 642.616 3.03742 -0.799966 0
M  V30 6682 H 641.809 4.10042 -2.93056 0
M  V30 6683 H 641.411 2.36699 -2.89568 0
M  V30 6684 H 643.703 5.17078 -4.37763 0
M  V30 6685 H 644.646 4.29813 -5.62731 0
M  V30 6686 H 645.054 4.08188 -3.89927 0
M  V30 6687 N 644.452 1.42507 0.673017 0
M  V30 6688 C 645.868 1.25472 0.986355 0
M  V30 6689 C 646.068 0.160181 2.00862 0
M  V30 6690 O 645.124 -0.467993 2.48125 0
M  V30 6691 C 646.437 2.61219 1.48947 0
M  V30 6692 C 647.985 2.68589 1.60715 0
M  V30 6693 C 648.46 4.04707 2.14422 0
M  V30 6694 N 649.951 4.0667 2.21752 0
M  V30 6695 C 650.686 5.0881 2.64386 0
M  V30 6696 N 650.182 6.21332 3.0646 0
M  V30 6697 N 651.975 4.96166 2.64151 0
M  V30 6698 H 644.126 2.124 -0.00378532 0
M  V30 6699 H 646.389 0.946046 0.0608367 0
M  V30 6700 H 646.095 3.42179 0.812812 0
M  V30 6701 H 645.969 2.85261 2.46791 0
M  V30 6702 H 648.356 1.87974 2.27486 0
M  V30 6703 H 648.437 2.48333 0.613552 0
M  V30 6704 H 648.081 4.8578 1.48258 0
M  V30 6705 H 648.011 4.22315 3.14575 0
M  V30 6706 H 650.502 3.25438 1.92089 0
M  V30 6707 H 650.815 6.95118 3.37684 0
M  V30 6708 H 649.16 6.24835 3.04313 0
M  V30 6709 H 652.351 4.07334 2.30644 0
M  V30 6710 H 652.524 5.759 2.97057 0
M  V30 6711 N 645.93 -0.909495 1.28709 0
M  V30 6712 C 647.178 -1.65577 1.15882 0
M  V30 6713 C 647.499 -1.928 -0.292108 0
M  V30 6714 O 646.769 -1.54716 -1.20166 0
M  V30 6715 H 645.349 -0.613714 0.425869 0
M  V30 6716 H 648.011 -1.09108 1.61498 0
M  V30 6717 H 647.107 -2.61634 1.70159 0
M  V30 6718 N 647.408 -1.11026 -1.11852 0
M  V30 6719 C 648.633 -0.879064 -1.87849 0
M  V30 6720 C 649.058 0.565406 -1.79401 0
M  V30 6721 O 648.416 1.39886 -1.15333 0
M  V30 6722 C 648.464 -1.33985 -3.34784 0
M  V30 6723 O 647.568 -0.508803 -4.09249 0
M  V30 6724 H 646.909 -0.316992 -0.583448 0
M  V30 6725 H 649.439 -1.47863 -1.41413 0
M  V30 6726 H 649.449 -1.33248 -3.85628 0
M  V30 6727 H 648.124 -2.39172 -3.40249 0
M  V30 6728 H 646.701 -0.581913 -3.68332 0
M  V30 6729 N 648.886 1.2938 -0.899927 0
M  V30 6730 C 649.816 2.30144 -0.39446 0
M  V30 6731 C 650.797 1.61611 0.530639 0
M  V30 6732 O 651.982 1.89119 0.441319 0
M  V30 6733 C 649.112 3.45229 0.37868 0
M  V30 6734 C 648.066 4.25564 -0.456012 0
M  V30 6735 C 647.392 5.32848 0.444637 0
M  V30 6736 C 648.692 4.93651 -1.70605 0
M  V30 6737 H 650.386 2.72673 -1.23653 0
M  V30 6738 H 647.932 1.31086 -0.596034 0
M  V30 6739 H 649.885 4.14797 0.743037 0
M  V30 6740 H 648.609 3.01545 1.25453 0
M  V30 6741 H 647.268 3.57704 -0.802704 0
M  V30 6742 H 646.916 4.85408 1.31863 0
M  V30 6743 H 646.616 5.87497 -0.110154 0
M  V30 6744 H 648.14 6.05268 0.805182 0
M  V30 6745 H 649.554 5.55655 -1.41141 0
M  V30 6746 H 647.951 5.58233 -2.20217 0
M  V30 6747 H 649.021 4.18926 -2.4419 0
M  V30 6748 N 650.364 0.662433 1.43002 0
M  V30 6749 C 651.294 -0.00979809 2.33498 0
M  V30 6750 C 652.275 -0.802329 1.49989 0
M  V30 6751 O 653.46 -0.761964 1.78627 0
M  V30 6752 C 650.59 -0.970446 3.33466 0
M  V30 6753 C 649.544 -0.287383 4.27034 0
M  V30 6754 C 648.87 -1.36012 5.17112 0
M  V30 6755 C 650.17 0.82595 5.15728 0
M  V30 6756 H 651.864 0.745959 2.89958 0
M  V30 6757 H 649.41 0.360172 1.39423 0
M  V30 6758 H 651.363 -1.44971 3.95679 0
M  V30 6759 H 650.087 -1.75748 2.75282 0
M  V30 6760 H 648.746 0.17152 3.66199 0
M  V30 6761 H 648.394 -2.13882 4.55262 0
M  V30 6762 H 648.094 -0.908276 5.80538 0
M  V30 6763 H 649.618 -1.84056 5.82199 0
M  V30 6764 H 651.032 0.42845 5.71697 0
M  V30 6765 H 649.429 1.20282 5.87922 0
M  V30 6766 H 650.499 1.68003 4.54866 0
M  V30 6767 N 651.842 -1.52309 0.404946 0
M  V30 6768 C 653.07 -2.06185 -0.171818 0
M  V30 6769 C 653.485 -1.27536 -1.39212 0
M  V30 6770 O 652.842 -0.326112 -1.79563 0
M  V30 6771 C 652.893 -3.57647 -0.526417 0
M  V30 6772 O 652.614 -4.3332 0.645417 0
M  V30 6773 C 654.115 -4.27925 -1.15736 0
M  V30 6774 H 651.335 -0.670632 -0.0222328 0
M  V30 6775 H 653.879 -1.96259 0.574692 0
M  V30 6776 H 652.034 -3.67595 -1.22282 0
M  V30 6777 H 652.448 -5.23328 0.35042 0
M  V30 6778 H 653.922 -5.35093 -1.35572 0
M  V30 6779 H 654.399 -3.84134 -2.12926 0
M  V30 6780 H 655.005 -4.22335 -0.501281 0
M  V30 6781 N 653.32 -0.135238 -1.57019 0
M  V30 6782 C 654.25 0.805235 -2.19176 0
M  V30 6783 C 655.231 1.2656 -1.13651 0
M  V30 6784 O 656.416 1.32528 -1.4195 0
M  V30 6785 C 653.546 2.04914 -2.80406 0
M  V30 6786 C 652.5 1.72598 -3.91655 0
M  V30 6787 C 651.826 3.04154 -4.39766 0
M  V30 6788 C 653.126 0.981709 -5.12991 0
M  V30 6789 H 654.82 0.287232 -2.98019 0
M  V30 6790 H 652.366 0.136714 -1.4335 0
M  V30 6791 H 654.319 2.71178 -3.22553 0
M  V30 6792 H 653.043 2.59067 -1.98877 0
M  V30 6793 H 651.702 1.08717 -3.50109 0
M  V30 6794 H 651.35 3.56274 -3.55075 0
M  V30 6795 H 651.05 2.83299 -5.14796 0
M  V30 6796 H 652.574 3.71509 -4.84576 0
M  V30 6797 H 653.988 1.5462 -5.52056 0
M  V30 6798 H 652.385 0.873533 -5.93708 0
M  V30 6799 H 653.455 -0.0286887 -4.84892 0
M  V30 6800 N 654.798 1.5699 0.138552 0
M  V30 6801 C 655.73 1.95515 1.1961 0
M  V30 6802 C 656.743 0.852002 1.38726 0
M  V30 6803 O 657.932 1.13038 1.38147 0
M  V30 6804 C 655.032 2.2213 2.55952 0
M  V30 6805 C 654.205 3.53424 2.57702 0
M  V30 6806 C 653.264 3.6848 3.75645 0
M  V30 6807 O 652.29 4.4079 3.60129 0
M  V30 6808 N 653.492 3.05777 4.93438 0
M  V30 6809 H 656.257 2.86838 0.868557 0
M  V30 6810 H 653.818 1.58542 0.328033 0
M  V30 6811 H 655.81 2.29435 3.33379 0
M  V30 6812 H 654.38 1.3703 2.80965 0
M  V30 6813 H 653.6 3.57484 1.6613 0
M  V30 6814 H 654.888 4.39759 2.55909 0
M  V30 6815 H 654.286 2.46961 5.08947 0
M  V30 6816 H 652.843 3.18631 5.6861 0
M  V30 6817 N 656.276 -0.40816 1.52223 0
M  V30 6818 C 657.692 -0.74685 1.41047 0
M  V30 6819 C 657.892 -1.94788 0.51573 0
M  V30 6820 O 656.948 -2.52494 -0.0181156 0
M  V30 6821 C 658.261 -0.999878 2.83589 0
M  V30 6822 C 659.809 -1.10253 2.92939 0
M  V30 6823 C 660.284 -1.38832 4.36451 0
M  V30 6824 N 661.775 -1.45694 4.3969 0
M  V30 6825 C 662.51 -1.69435 5.47795 0
M  V30 6826 N 662.006 -1.90774 6.66016 0
M  V30 6827 N 663.799 -1.71458 5.35312 0
M  V30 6828 H 655.95 0.382409 2.08929 0
M  V30 6829 H 658.213 0.108807 0.941735 0
M  V30 6830 H 657.919 -0.189723 3.51188 0
M  V30 6831 H 657.793 -1.91978 3.24691 0
M  V30 6832 H 660.18 -1.90328 2.2552 0
M  V30 6833 H 660.261 -0.160973 2.55293 0
M  V30 6834 H 659.905 -0.592741 5.04429 0
M  V30 6835 H 659.835 -2.34241 4.71634 0
M  V30 6836 H 662.326 -1.3099 3.54472 0
M  V30 6837 H 662.639 -2.08342 7.44186 0
M  V30 6838 H 660.984 -1.88037 6.69079 0
M  V30 6839 H 664.175 -1.54326 4.41929 0
M  V30 6840 H 664.348 -1.89621 6.19635 0
M  V30 6841 N 657.755 -1.42862 -0.66545 0
M  V30 6842 C 658.685 -1.49867 -1.79059 0
M  V30 6843 C 659.666 -0.354394 -1.66367 0
M  V30 6844 O 660.851 -0.569969 -1.85647 0
M  V30 6845 C 657.981 -1.40943 -3.17415 0
M  V30 6846 C 656.935 -2.53495 -3.44854 0
M  V30 6847 C 656.261 -2.29626 -4.82883 0
M  V30 6848 C 657.561 -3.95781 -3.40815 0
M  V30 6849 H 659.255 -2.44037 -1.73453 0
M  V30 6850 H 656.801 -1.17456 -0.833071 0
M  V30 6851 H 658.754 -1.4445 -3.95869 0
M  V30 6852 H 657.478 -0.432716 -3.23721 0
M  V30 6853 H 656.137 -2.4932 -2.68766 0
M  V30 6854 H 655.785 -1.30226 -4.8585 0
M  V30 6855 H 655.485 -3.05065 -5.02204 0
M  V30 6856 H 657.009 -2.34897 -5.63609 0
M  V30 6857 H 658.423 -4.01508 -4.09224 0
M  V30 6858 H 656.82 -4.71148 -3.71672 0
M  V30 6859 H 657.89 -4.21786 -2.39216 0
M  V30 6860 N 659.233 0.902656 -1.29189 0
M  V30 6861 C 660.479 1.65532 -1.17163 0
M  V30 6862 C 660.812 1.92216 0.276879 0
M  V30 6863 O 660.087 1.53048 1.20027 0
M  V30 6864 C 660.37 3.00629 -1.98228 0
M  V30 6865 C 660.223 2.81029 -3.51202 0
M  V30 6866 C 661.542 4.01321 -1.80635 0
M  V30 6867 H 658.661 0.60071 -0.426985 0
M  V30 6868 H 661.303 1.04578 -1.5863 0
M  V30 6869 H 659.453 3.52656 -1.62991 0
M  V30 6870 H 661.125 2.35927 -3.96404 0
M  V30 6871 H 659.368 2.1587 -3.76275 0
M  V30 6872 H 660.039 3.77014 -4.03192 0
M  V30 6873 H 662.515 3.58394 -2.11406 0
M  V30 6874 H 661.391 4.93792 -2.3971 0
M  V30 6875 H 661.652 4.35505 -0.760754 0
M  V30 6876 N 660.711 1.11618 1.11262 0
M  V30 6877 C 661.643 0.734015 2.17129 0
M  V30 6878 C 662.656 -0.235243 1.61091 0
M  V30 6879 O 663.845 -0.0178597 1.78491 0
M  V30 6880 C 660.945 0.0643682 3.38839 0
M  V30 6881 C 660.118 1.06092 4.24339 0
M  V30 6882 C 659.177 0.420482 5.24517 0
M  V30 6883 O 658.203 1.07495 5.58957 0
M  V30 6884 N 659.405 -0.815828 5.74739 0
M  V30 6885 H 662.17 1.64492 2.50524 0
M  V30 6886 H 659.731 1.00664 1.26801 0
M  V30 6887 H 661.723 -0.375851 4.02951 0
M  V30 6888 H 660.293 -0.749147 3.03491 0
M  V30 6889 H 659.513 1.67903 3.56654 0
M  V30 6890 H 660.801 1.73507 4.78302 0
M  V30 6891 H 660.199 -1.36668 5.48943 0
M  V30 6892 H 658.756 -1.199 6.40677 0
M  V30 6893 N 662.189 -1.289 0.906776 0
M  V30 6894 C 663.119 -2.29932 0.406659 0
M  V30 6895 C 664.1 -1.6189 -0.522061 0
M  V30 6896 O 665.285 -1.8935 -0.431283 0
M  V30 6897 C 662.415 -3.45425 -0.360366 0
M  V30 6898 C 661.369 -4.25316 0.478574 0
M  V30 6899 C 660.695 -5.33076 -0.416373 0
M  V30 6900 C 661.995 -4.92739 1.7322 0
M  V30 6901 H 663.689 -2.72013 1.25097 0
M  V30 6902 H 661.235 -1.30768 0.602977 0
M  V30 6903 H 663.188 -4.15186 -0.721029 0
M  V30 6904 H 661.912 -3.02206 -1.23852 0
M  V30 6905 H 660.571 -3.57273 0.821662 0
M  V30 6906 H 660.219 -4.86101 -1.29287 0
M  V30 6907 H 659.919 -5.8743 0.141309 0
M  V30 6908 H 661.443 -6.05686 -0.773072 0
M  V30 6909 H 662.857 -5.54898 1.44086 0
M  V30 6910 H 661.254 -5.57057 2.23175 0
M  V30 6911 H 662.324 -4.17625 2.46408 0
M  V30 6912 N 663.667 -0.670007 -1.42649 0
M  V30 6913 C 664.914 -0.190286 -2.01604 0
M  V30 6914 C 665.242 1.20155 -1.52948 0
M  V30 6915 O 664.497 1.81964 -0.72026 0
M  V30 6916 C 664.796 -0.168298 -3.57004 0
M  V30 6917 C 664.462 -1.50415 -4.25072 0
M  V30 6918 C 663.124 -1.86992 -4.43382 0
M  V30 6919 C 665.476 -2.38414 -4.63474 0
M  V30 6920 C 662.804 -3.11203 -4.97363 0
M  V30 6921 C 665.156 -3.61933 -5.18833 0
M  V30 6922 C 663.82 -3.98685 -5.35356 0
M  V30 6923 H 663.09 -0.0696305 -0.737721 0
M  V30 6924 H 665.737 -0.864044 -1.70899 0
M  V30 6925 H 664.042 0.588958 -3.87348 0
M  V30 6926 H 665.739 0.22001 -4.00396 0
M  V30 6927 H 662.329 -1.20959 -4.11177 0
M  V30 6928 H 666.513 -2.11442 -4.49006 0
M  V30 6929 H 661.769 -3.39705 -5.08341 0
M  V30 6930 H 665.943 -4.30326 -5.47533 0
M  V30 6931 H 663.57 -4.95009 -5.76949 0
M  V30 6932 N 665.145 1.52092 -0.413018 0
M  V30 6933 C 666.556 1.86617 0.0556967 0
M  V30 6934 C 666.907 1.33156 1.44097 0
M  V30 6935 O 666.032 0.672417 2.05688 0
M  V30 6936 C 666.627 3.38628 0.107844 0
M  V30 6937 C 665.186 3.72778 0.520904 0
M  V30 6938 C 664.333 2.75649 -0.302109 0
M  V30 6939 H 667.284 1.45663 -0.629919 0
M  V30 6940 H 667.305 3.69152 0.922324 0
M  V30 6941 H 666.817 3.77508 -0.900506 0
M  V30 6942 H 664.918 3.39478 1.53575 0
M  V30 6943 H 665.031 4.7838 0.262591 0
M  V30 6944 H 663.395 2.53603 0.236115 0
M  V30 6945 H 664.178 3.17369 -1.30888 0
M  V30 6946 N 666.623 0.143563 1.56945 0
M  V30 6947 C 667.571 -0.814556 2.17871 0
M  V30 6948 C 668.565 -1.25778 1.13474 0
M  V30 6949 O 669.771 -1.22666 1.31731 0
M  V30 6950 H 666.146 -0.280873 0.697578 0
M  V30 6951 H 668.117 -0.276459 2.97117 0
M  V30 6952 C 666.866 -2.04503 2.81201 0
M  V30 6953 H 666.189 -1.71296 3.61245 0
M  V30 6954 H 667.629 -2.69493 3.27337 0
M  V30 6955 C 666.088 -2.85079 1.79532 0
M  V30 6956 O 666.618 -3.81306 1.26368 0
M  V30 6957 N 664.824 -2.49546 1.48913 0
M  V30 6958 H 664.371 -1.71359 1.92338 0
M  V30 6959 H 664.329 -3.03751 0.811348 0
M  V30 6960 N 668.101 -1.57061 -0.130224 0
M  V30 6961 C 669.378 -1.75205 -0.869631 0
M  V30 6962 C 669.758 -0.716063 -1.98584 0
M  V30 6963 O 669.106 0.262032 -2.26993 0
M  V30 6964 C 669.316 -3.19835 -1.39666 0
M  V30 6965 C 670.664 -3.82011 -1.85345 0
M  V30 6966 O 671.688 -3.23368 -1.49371 0
M  V30 6967 O 670.547 -4.85064 -2.51744 0
M  V30 6968 H 667.641 -0.716977 -0.412157 0
M  V30 6969 H 670.187 -1.69311 -0.11484 0
M  V30 6970 H 668.959 -3.86745 -0.595288 0
M  V30 6971 H 668.582 -3.30222 -2.21448 0
M  V30 6972 N 669.579 0.400081 -1.52437 0
M  V30 6973 C 670.807 1.16768 -1.70801 0
M  V30 6974 C 671.222 1.84036 -0.421462 0
M  V30 6975 O 670.579 1.72242 0.603228 0
M  V30 6976 C 670.63 2.22403 -2.8499 0
M  V30 6977 O 670.351 1.57879 -4.08663 0
M  V30 6978 C 671.852 3.11974 -3.1494 0
M  V30 6979 H 669.072 0.350533 -0.57216 0
M  V30 6980 H 671.616 0.469534 -1.99037 0
M  V30 6981 H 669.771 2.87871 -2.59247 0
M  V30 6982 H 670.185 2.27982 -4.7236 0
M  V30 6983 H 671.659 3.82148 -3.9833 0
M  V30 6984 H 672.136 3.74858 -2.28863 0
M  V30 6985 H 672.742 2.52165 -3.42481 0
M  V30 6986 N 671.057 1.43213 0.657864 0
M  V30 6987 C 672.282 1.48227 1.45064 0
M  V30 6988 C 672.707 0.0999939 1.87834 0
M  V30 6989 O 672.065 -0.905269 1.57081 0
M  V30 6990 C 672.113 2.42931 2.6649 0
M  V30 6991 O 671.217 1.91237 3.6538 0
M  V30 6992 H 670.558 0.501551 0.435135 0
M  V30 6993 H 673.088 1.8808 0.805431 0
M  V30 6994 H 673.098 2.6008 3.1436 0
M  V30 6995 H 671.773 3.43348 2.34701 0
M  V30 6996 H 670.35 1.83726 3.24498 0
M  V30 6997 N 672.536 -0.895792 1.29666 0
M  V30 6998 C 673.466 -2.01673 1.17688 0
M  V30 6999 C 674.447 -1.69955 0.0701317 0
M  V30 7000 O 675.632 -1.9258 0.250289 0
M  V30 7001 C 672.762 -3.36568 0.856681 0
M  V30 7002 C 671.716 -3.82509 1.92017 0
M  V30 7003 C 671.042 -5.14574 1.4532 0
M  V30 7004 C 672.342 -4.02409 3.32963 0
M  V30 7005 H 674.036 -2.11953 2.11463 0
M  V30 7006 H 671.582 -1.01839 1.01807 0
M  V30 7007 H 673.535 -4.14498 0.759577 0
M  V30 7008 H 672.259 -3.26391 -0.116763 0
M  V30 7009 H 670.918 -3.068 2.00673 0
M  V30 7010 H 670.566 -5.00815 0.468325 0
M  V30 7011 H 670.266 -5.46283 2.16447 0
M  V30 7012 H 671.79 -5.9504 1.36968 0
M  V30 7013 H 673.204 -4.70808 3.27127 0
M  V30 7014 H 671.601 -4.45478 4.02082 0
M  V30 7015 H 672.671 -3.06616 3.75652 0
M  V30 7016 N 674.014 -1.12206 -1.10668 0
M  V30 7017 C 674.961 -0.787716 -2.16942 0
M  V30 7018 C 675.931 0.244442 -1.64291 0
M  V30 7019 O 677.116 0.119558 -1.90425 0
M  V30 7020 C 674.256 -0.24584 -3.44223 0
M  V30 7021 C 673.369 -1.33552 -4.10838 0
M  V30 7022 C 672.504 -0.753337 -5.25831 0
M  V30 7023 C 671.543 -1.82231 -5.84344 0
M  V30 7024 N 670.68 -1.25902 -6.90719 0
M  V30 7025 H 675.52 -1.69809 -2.44885 0
M  V30 7026 H 673.057 -0.847862 -1.20207 0
M  V30 7027 H 675.015 0.0863639 -4.17111 0
M  V30 7028 H 673.645 0.627702 -3.16638 0
M  V30 7029 H 672.697 -1.78454 -3.35944 0
M  V30 7030 H 674.009 -2.14396 -4.50373 0
M  V30 7031 H 673.163 -0.37166 -6.05561 0
M  V30 7032 H 671.902 0.0863297 -4.87624 0
M  V30 7033 H 670.907 -2.2132 -5.03287 0
M  V30 7034 H 672.132 -2.66515 -6.24617 0
M  V30 7035 H 670.078 -0.44114 -6.54515 0
M  V30 7036 H 669.995 -2.00408 -7.28953 0
M  V30 7037 H 671.263 -0.904498 -7.74235 0
M  V30 7038 N 675.492 1.28418 -0.913599 0
M  V30 7039 C 676.44 2.29272 -0.392037 0
M  V30 7040 C 677.434 1.61344 0.516198 0
M  V30 7041 O 678.64 1.75557 0.39746 0
M  V30 7042 H 675.015 0.744178 -0.108178 0
M  V30 7043 H 676.986 2.70691 -1.25574 0
M  V30 7044 C 675.735 3.45905 0.352815 0
M  V30 7045 H 675.058 3.98378 -0.336848 0
M  V30 7046 H 676.498 4.18473 0.682398 0
M  V30 7047 C 674.957 2.98572 1.56065 0
M  V30 7048 O 675.487 3.01033 2.65974 0
M  V30 7049 N 673.693 2.54235 1.40759 0
M  V30 7050 H 673.24 2.52432 0.513403 0
M  V30 7051 H 673.198 2.22925 2.21702 0
M  V30 7052 N 676.97 0.677563 1.42291 0
M  V30 7053 C 678.247 0.129803 1.95169 0
M  V30 7054 C 678.627 -1.35605 1.61786 0
M  V30 7055 O 677.975 -2.09361 0.915444 0
M  V30 7056 C 678.185 0.401889 3.46678 0
M  V30 7057 C 679.533 0.319889 4.23393 0
M  V30 7058 O 680.557 0.33579 3.54614 0
M  V30 7059 O 679.416 0.264459 5.4586 0
M  V30 7060 H 676.51 0.00447433 0.826988 0
M  V30 7061 H 679.056 0.752483 1.52105 0
M  V30 7062 H 677.828 1.43108 3.64192 0
M  V30 7063 H 677.451 -0.252662 3.96796 0
M  V30 7064 N 678.448 -1.51871 0.421078 0
M  V30 7065 C 679.378 -2.30231 -0.389363 0
M  V30 7066 C 680.359 -1.34946 -1.03555 0
M  V30 7067 O 681.544 -1.63859 -1.04229 0
M  V30 7068 C 678.674 -3.13247 -1.49979 0
M  V30 7069 C 677.628 -4.16677 -0.977966 0
M  V30 7070 C 676.954 -4.88112 -2.1829 0
M  V30 7071 C 678.254 -5.22295 -0.0236775 0
M  V30 7072 H 679.948 -2.98229 0.264524 0
M  V30 7073 H 677.494 -1.43424 0.12866 0
M  V30 7074 H 679.447 -3.66838 -2.07383 0
M  V30 7075 H 678.171 -2.4304 -2.18173 0
M  V30 7076 H 676.83 -3.64114 -0.426245 0
M  V30 7077 H 676.478 -4.14423 -2.85066 0
M  V30 7078 H 676.178 -5.58041 -1.84021 0
M  V30 7079 H 677.702 -5.44521 -2.76278 0
M  V30 7080 H 679.116 -5.71055 -0.506899 0
M  V30 7081 H 677.513 -5.99656 0.230782 0
M  V30 7082 H 678.583 -4.76131 0.917999 0
M  V30 7083 N 679.926 -0.151884 -1.56866 0
M  V30 7084 C 681.174 0.497021 -1.95893 0
M  V30 7085 C 681.495 1.65078 -1.03799 0
M  V30 7086 O 680.765 1.95642 -0.10049 0
M  V30 7087 H 679.345 0.186603 -0.723318 0
M  V30 7088 H 682.007 -0.228525 -1.93556 0
M  V30 7089 H 681.103 0.869933 -2.99731 0
M  V30 7090 N 681.404 1.57128 0.121893 0
M  V30 7091 C 682.65 1.84974 0.831418 0
M  V30 7092 C 682.983 0.737204 1.79663 0
M  V30 7093 O 682.258 -0.257199 1.92792 0
M  V30 7094 C 682.541 3.23397 1.58386 0
M  V30 7095 C 682.394 4.45246 0.638445 0
M  V30 7096 C 683.713 3.59355 2.54071 0
M  V30 7097 H 680.832 0.67282 0.300803 0
M  V30 7098 H 683.474 1.89759 0.0957587 0
M  V30 7099 H 681.624 3.19449 2.21098 0
M  V30 7100 H 683.296 4.61295 0.0203925 0
M  V30 7101 H 681.539 4.33771 -0.05023 0
M  V30 7102 H 682.21 5.38765 1.20151 0
M  V30 7103 H 684.686 3.64075 2.01465 0
M  V30 7104 H 683.562 4.57193 3.03752 0
M  V30 7105 H 683.823 2.86622 3.36601 0
M  V30 7106 N 682.882 -0.391992 1.52647 0
M  V30 7107 C 684.13 -1.13507 1.67214 0
M  V30 7108 C 684.451 -1.90575 0.41304 0
M  V30 7109 O 683.721 -1.87348 -0.572498 0
M  V30 7110 H 682.301 -0.422013 0.616372 0
M  V30 7111 H 684.963 -0.44502 1.89751 0
M  V30 7112 H 684.059 -1.83964 2.52118 0
M  V30 7113 N 684.36 -1.4356 -0.65026 0
M  V30 7114 C 685.59 -1.48563 -1.4357 0
M  V30 7115 C 685.998 -0.103041 -1.88919 0
M  V30 7116 O 685.341 0.897602 -1.60277 0
M  V30 7117 C 685.403 -2.37181 -2.70158 0
M  V30 7118 C 685.067 -3.84673 -2.4673 0
M  V30 7119 C 686.064 -4.75704 -2.09765 0
M  V30 7120 C 683.749 -4.29189 -2.60963 0
M  V30 7121 C 685.743 -6.09249 -1.87334 0
M  V30 7122 C 683.43 -5.62787 -2.38147 0
M  V30 7123 C 684.428 -6.52634 -2.01389 0
M  V30 7124 O 684.116 -7.83761 -1.78813 0
M  V30 7125 H 683.848 -0.506743 -0.447423 0
M  V30 7126 H 686.402 -1.89001 -0.80423 0
M  V30 7127 H 684.632 -1.91636 -3.35876 0
M  V30 7128 H 686.321 -2.33354 -3.32116 0
M  V30 7129 H 687.087 -4.42589 -1.98343 0
M  V30 7130 H 682.966 -3.59529 -2.88548 0
M  V30 7131 H 686.51 -6.7934 -1.58567 0
M  V30 7132 H 682.407 -5.95469 -2.49173 0
M  V30 7133 H 683.175 -7.95368 -1.93214 0
M  V30 7134 N 685.838 0.888903 -1.30139 0
M  V30 7135 C 686.768 2.01046 -1.18755 0
M  V30 7136 C 687.749 1.69916 -0.0791438 0
M  V30 7137 O 688.934 1.92445 -0.260498 0
M  V30 7138 C 686.064 3.36109 -0.874518 0
M  V30 7139 C 685.018 3.81486 -1.94043 0
M  V30 7140 C 684.344 5.13796 -1.48047 0
M  V30 7141 C 685.644 4.00637 -3.35093 0
M  V30 7142 H 687.338 2.10828 -2.12584 0
M  V30 7143 H 684.884 1.01298 -1.02346 0
M  V30 7144 H 686.837 4.14089 -0.781548 0
M  V30 7145 H 685.561 3.26449 0.0994519 0
M  V30 7146 H 684.22 3.05731 -2.02297 0
M  V30 7147 H 683.868 5.0056 -0.494878 0
M  V30 7148 H 683.568 5.45127 -2.19341 0
M  V30 7149 H 685.092 5.94305 -1.40121 0
M  V30 7150 H 686.506 4.69067 -3.2962 0
M  V30 7151 H 684.903 4.43339 -4.04438 0
M  V30 7152 H 685.973 3.0462 -3.77273 0
M  V30 7153 N 687.317 1.12792 1.10072 0
M  V30 7154 C 688.247 0.821688 2.18565 0
M  V30 7155 C 689.228 -0.21612 1.68721 0
M  V30 7156 O 690.413 -0.0764932 1.94049 0
M  V30 7157 C 687.543 0.279624 3.46172 0
M  V30 7158 C 686.497 1.25092 4.09312 0
M  V30 7159 C 685.823 0.568916 5.31665 0
M  V30 7160 C 687.123 2.60699 4.52585 0
M  V30 7161 H 688.817 1.72888 2.44438 0
M  V30 7162 H 686.363 0.832702 1.17482 0
M  V30 7163 H 688.316 0.053099 4.21367 0
M  V30 7164 H 687.04 -0.662929 3.19801 0
M  V30 7165 H 685.699 1.46332 3.36129 0
M  V30 7166 H 685.347 -0.378898 5.01571 0
M  V30 7167 H 685.047 1.21687 5.74862 0
M  V30 7168 H 686.571 0.351517 6.09587 0
M  V30 7169 H 687.985 2.43465 5.19035 0
M  V30 7170 H 686.382 3.21608 5.06644 0
M  V30 7171 H 687.452 3.1886 3.65317 0
M  V30 7172 N 688.795 -1.27931 0.920396 0
M  V30 7173 C 690.044 -1.93975 0.552867 0
M  V30 7174 C 690.357 -1.73193 -0.909035 0
M  V30 7175 O 691.563 -2.33515 -1.38502 0
M  V30 7176 C 690.019 -3.47463 0.937947 0
M  V30 7177 C 689.627 -3.77013 2.42003 0
M  V30 7178 C 691.371 -4.19628 0.64132 0
M  V30 7179 C 689.278 -5.23841 2.74489 0
M  V30 7180 H 688.208 -0.726146 0.203046 0
M  V30 7181 H 690.859 -1.45339 1.12022 0
M  V30 7182 H 689.241 -3.94867 0.299317 0
M  V30 7183 H 690.415 -3.40393 3.10595 0
M  V30 7184 H 688.73 -3.18035 2.6878 0
M  V30 7185 H 691.327 -5.27729 0.860622 0
M  V30 7186 H 691.67 -4.14164 -0.421168 0
M  V30 7187 H 692.203 -3.78022 1.23872 0
M  V30 7188 H 688.942 -5.34388 3.79618 0
M  V30 7189 H 688.462 -5.61634 2.1054 0
M  V30 7190 H 690.141 -5.91647 2.61845 0
M  V30 7191 N 690.273 -0.685099 -1.4193 0
M  V30 7192 C 691.521 -0.21124 -2.00993 0
M  V30 7193 C 691.842 1.18985 -1.54491 0
M  V30 7194 O 691.112 1.8009 -0.771 0
M  V30 7195 H 689.692 -0.0751059 -0.743215 0
M  V30 7196 H 692.354 -0.883915 -1.73704 0
M  V30 7197 H 691.45 -0.220513 -3.1132 0
M  V30 7198 N 691.751 1.51645 -0.429126 0
M  V30 7199 C 693.028 1.94579 0.199614 0
M  V30 7200 C 693.408 1.3673 1.60836 0
M  V30 7201 O 692.756 0.551062 2.21756 0
M  V30 7202 C 692.966 3.48506 0.185685 0
M  V30 7203 C 694.314 4.22756 0.395282 0
M  V30 7204 O 695.338 3.55219 0.264165 0
M  V30 7205 O 694.197 5.42555 0.655475 0
M  V30 7206 H 691.291 0.816007 0.134393 0
M  V30 7207 H 693.837 1.62577 -0.486513 0
M  V30 7208 H 692.609 3.83045 -0.799508 0
M  V30 7209 H 692.232 3.86927 0.91507 0
M  V30 7210 N 693.229 0.160201 1.56784 0
M  V30 7211 C 694.177 -0.791402 2.18723 0
M  V30 7212 C 695.171 -1.24567 1.14801 0
M  V30 7213 O 696.377 -1.21262 1.33025 0
M  V30 7214 H 692.752 -0.273458 0.700517 0
M  V30 7215 H 694.723 -0.244931 2.97393 0
M  V30 7216 C 693.472 -2.01509 2.83354 0
M  V30 7217 H 692.795 -1.67454 3.63041 0
M  V30 7218 H 694.235 -2.66006 3.30177 0
M  V30 7219 C 692.694 -2.83159 1.82545 0
M  V30 7220 O 693.224 -3.79944 1.30405 0
M  V30 7221 N 691.43 -2.47953 1.51552 0
M  V30 7222 H 690.977 -1.69309 1.94144 0
M  V30 7223 H 690.935 -3.02873 0.843519 0
M  V30 7224 N 694.707 -1.5719 -0.113559 0
M  V30 7225 C 695.984 -1.76117 -0.850999 0
M  V30 7226 C 696.364 -0.737085 -1.97814 0
M  V30 7227 O 695.712 0.237942 -2.27258 0
M  V30 7228 C 695.922 -3.21298 -1.36266 0
M  V30 7229 C 697.27 -3.83955 -1.81283 0
M  V30 7230 O 698.294 -3.24934 -1.45933 0
M  V30 7231 O 697.153 -4.87707 -2.46585 0
M  V30 7232 H 694.247 -0.721308 -0.404529 0
M  V30 7233 H 696.793 -1.69423 -0.0968756 0
M  V30 7234 H 695.565 -3.87355 -0.554235 0
M  V30 7235 H 695.188 -3.32552 -2.17933 0
M  V30 7236 N 696.185 0.383891 -1.52853 0
M  V30 7237 C 697.133 1.48965 -1.7864 0
M  V30 7238 C 698.127 1.56242 -0.654577 0
M  V30 7239 O 699.333 1.59347 -0.83716 0
M  V30 7240 H 695.708 0.495892 -0.565328 0
M  V30 7241 H 697.679 1.24411 -2.71228 0
M  V30 7242 C 696.428 2.86036 -1.97683 0
M  V30 7243 H 695.751 2.81188 -2.84206 0
M  V30 7244 H 697.191 3.62632 -2.19713 0
M  V30 7245 C 695.65 3.28428 -0.750776 0
M  V30 7246 O 696.18 4.0164 0.0693491 0
M  V30 7247 N 694.386 2.84765 -0.579427 0
M  V30 7248 H 693.933 2.25353 -1.24795 0
M  V30 7249 H 693.891 3.13486 0.239544 0
M  V30 7250 N 697.663 1.43903 0.642637 0
M  V30 7251 C 698.626 1.49538 1.73698 0
M  V30 7252 C 699.626 0.378776 1.56275 0
M  V30 7253 O 700.816 0.64095 1.6198 0
M  V30 7254 C 697.948 1.35821 3.12675 0
M  V30 7255 H 699.141 2.47008 1.70079 0
M  V30 7256 H 696.694 1.30824 0.85526 0
M  V30 7257 H 697.429 0.393994 3.21898 0
M  V30 7258 H 697.214 2.16776 3.26727 0
M  V30 7259 H 698.704 1.4272 3.92455 0
M  V30 7260 N 699.141 -0.881989 1.30609 0
M  V30 7261 C 700.088 -1.98803 1.17244 0
M  V30 7262 C 701.058 -1.65987 0.0611905 0
M  V30 7263 O 702.243 -1.89385 0.231911 0
M  V30 7264 C 699.383 -3.33867 0.87333 0
M  V30 7265 C 698.496 -3.79354 2.06675 0
M  V30 7266 C 697.631 -5.03078 1.70547 0
M  V30 7267 C 696.67 -5.40981 2.86366 0
M  V30 7268 N 695.807 -6.55886 2.50514 0
M  V30 7269 H 700.647 -2.09566 2.11863 0
M  V30 7270 H 698.184 -1.02607 1.05405 0
M  V30 7271 H 700.142 -4.11612 0.680519 0
M  V30 7272 H 698.772 -3.2278 -0.0359983 0
M  V30 7273 H 697.824 -2.97492 2.37071 0
M  V30 7274 H 699.136 -4.03382 2.93401 0
M  V30 7275 H 698.29 -5.88457 1.47658 0
M  V30 7276 H 697.029 -4.80927 0.809947 0
M  V30 7277 H 696.034 -4.54127 3.09917 0
M  V30 7278 H 697.259 -5.65104 3.76609 0
M  V30 7279 H 695.205 -6.35306 1.63471 0
M  V30 7280 H 695.122 -6.79799 3.30771 0
M  V30 7281 H 696.39 -7.44489 2.30989 0
M  V30 7282 N 700.619 -1.13374 -1.09472 0
M  V30 7283 C 701.566 -0.810682 -2.16094 0
M  V30 7284 C 702.536 0.227003 -1.64541 0
M  V30 7285 O 703.721 0.0993538 -1.90541 0
M  V30 7286 C 700.861 -0.282336 -3.43943 0
M  V30 7287 C 699.974 -1.37902 -4.09398 0
M  V30 7288 C 699.109 -0.809066 -5.25002 0
M  V30 7289 C 698.148 -1.88419 -5.82379 0
M  V30 7290 N 697.285 -1.33221 -6.89345 0
M  V30 7291 H 702.125 -1.72397 -2.43071 0
M  V30 7292 H 699.662 -0.860564 -1.19301 0
M  V30 7293 H 701.62 0.0421189 -4.17179 0
M  V30 7294 H 700.25 0.594083 -3.17286 0
M  V30 7295 H 699.302 -1.82008 -3.34032 0
M  V30 7296 H 700.614 -2.19161 -4.48074 0
M  V30 7297 H 699.768 -0.435867 -6.05132 0
M  V30 7298 H 698.507 0.0346058 -4.87688 0
M  V30 7299 H 697.512 -2.26646 -5.00911 0
M  V30 7300 H 698.737 -2.73125 -6.21755 0
M  V30 7301 H 696.683 -0.510535 -6.5401 0
M  V30 7302 H 696.6 -2.08129 -7.26786 0
M  V30 7303 H 697.868 -0.986565 -7.73232 0
M  V30 7304 N 702.098 1.27442 -0.927168 0
M  V30 7305 C 703.344 1.94679 -0.568164 0
M  V30 7306 C 703.677 1.72697 0.888219 0
M  V30 7307 O 702.952 1.05573 1.63354 0
M  V30 7308 C 703.235 3.4882 -0.894253 0
M  V30 7309 C 703.088 3.80146 -2.40435 0
M  V30 7310 C 704.407 4.38281 -0.399766 0
M  V30 7311 H 701.526 0.707071 -0.207892 0
M  V30 7312 H 704.168 1.50568 -1.15885 0
M  V30 7313 H 702.318 3.86522 -0.391566 0
M  V30 7314 H 703.99 3.52238 -2.97869 0
M  V30 7315 H 702.233 3.26716 -2.85375 0
M  V30 7316 H 702.904 4.87835 -2.58304 0
M  V30 7317 H 705.38 4.07726 -0.83058 0
M  V30 7318 H 704.256 5.44955 -0.656885 0
M  V30 7319 H 704.517 4.36521 0.700153 0
M  V30 7320 N 703.576 0.692616 1.41565 0
M  V30 7321 C 704.806 0.230943 2.05305 0
M  V30 7322 C 705.214 -1.12379 1.52209 0
M  V30 7323 O 704.557 -1.71281 0.663968 0
M  V30 7324 C 704.619 0.107894 3.59338 0
M  V30 7325 C 704.283 1.39419 4.35214 0
M  V30 7326 C 705.28 2.33143 4.64694 0
M  V30 7327 C 702.965 1.64674 4.74539 0
M  V30 7328 C 704.959 3.50385 5.32456 0
M  V30 7329 C 702.646 2.82202 5.42038 0
M  V30 7330 C 703.644 3.74881 5.70923 0
M  V30 7331 O 703.332 4.90351 6.37033 0
M  V30 7332 H 703.064 0.105708 0.667684 0
M  V30 7333 H 705.618 0.94488 1.82376 0
M  V30 7334 H 703.848 -0.661785 3.80995 0
M  V30 7335 H 705.537 -0.316213 4.04666 0
M  V30 7336 H 706.303 2.14887 4.34797 0
M  V30 7337 H 702.182 0.934007 4.51439 0
M  V30 7338 H 705.726 4.22743 5.54918 0
M  V30 7339 H 701.623 3.00376 5.71353 0
M  V30 7340 H 702.391 4.90128 6.55528 0
M  V30 7341 N 705.054 -1.51416 0.437162 0
M  V30 7342 C 705.964 -2.31493 -0.380537 0
M  V30 7343 C 706.98 -1.40399 -1.02782 0
M  V30 7344 O 708.156 -1.73471 -1.02323 0
M  V30 7345 C 705.221 -3.1413 -1.46709 0
M  V30 7346 C 704.282 -4.21003 -0.839953 0
M  V30 7347 C 703.515 -4.9969 -1.87473 0
M  V30 7348 O 703.738 -4.79008 -3.09689 0
M  V30 7349 O 702.672 -5.8379 -1.46536 0
M  V30 7350 H 706.498 -3.02469 0.273183 0
M  V30 7351 H 704.083 -1.48059 0.199706 0
M  V30 7352 H 705.965 -3.65505 -2.09724 0
M  V30 7353 H 704.64 -2.45919 -2.10489 0
M  V30 7354 H 703.547 -3.73706 -0.171752 0
M  V30 7355 H 704.88 -4.91587 -0.245638 0
M  V30 7356 N 706.532 -0.168513 -1.56696 0
M  V30 7357 C 707.442 0.775435 -2.21414 0
M  V30 7358 C 708.458 1.25529 -1.20492 0
M  V30 7359 O 709.634 1.30801 -1.53144 0
M  V30 7360 C 706.699 1.9886 -2.83999 0
M  V30 7361 C 705.76 1.5559 -4.00113 0
M  V30 7362 C 704.993 2.71124 -4.59704 0
M  V30 7363 O 705.216 3.87917 -4.18182 0
M  V30 7364 O 704.15 2.4536 -5.4962 0
M  V30 7365 H 707.976 0.254416 -3.02632 0
M  V30 7366 H 705.561 0.0595507 -1.49281 0
M  V30 7367 H 707.443 2.69816 -3.23693 0
M  V30 7368 H 706.118 2.49874 -2.05779 0
M  V30 7369 H 705.025 0.815924 -3.65094 0
M  V30 7370 H 706.358 1.09271 -4.79917 0
M  V30 7371 N 708.01 1.57248 0.105221 0
M  V30 7372 C 709.256 1.85845 0.811753 0
M  V30 7373 C 709.589 0.756219 1.78871 0
M  V30 7374 O 708.864 -0.236736 1.93054 0
M  V30 7375 C 709.147 3.25059 1.54947 0
M  V30 7376 C 709 4.45898 0.591185 0
M  V30 7377 C 710.319 3.6203 2.50245 0
M  V30 7378 H 707.438 0.675973 0.293649 0
M  V30 7379 H 710.08 1.89849 0.0756269 0
M  V30 7380 H 708.23 3.21776 2.17698 0
M  V30 7381 H 709.902 4.61291 -0.0285352 0
M  V30 7382 H 708.145 4.33693 -0.0962343 0
M  V30 7383 H 708.816 5.40009 1.1443 0
M  V30 7384 H 711.292 3.66192 1.97593 0
M  V30 7385 H 710.168 4.60389 2.98886 0
M  V30 7386 H 710.429 2.90176 3.33542 0
M  V30 7387 N 709.488 -0.375779 1.53054 0
M  V30 7388 C 710.418 -1.46598 1.81745 0
M  V30 7389 C 711.399 -1.56337 0.670286 0
M  V30 7390 O 712.584 -1.71071 0.919158 0
M  V30 7391 C 709.714 -2.84058 1.99821 0
M  V30 7392 C 708.668 -2.8915 3.15557 0
M  V30 7393 C 707.994 -4.29187 3.18908 0
M  V30 7394 C 709.294 -2.57595 4.54359 0
M  V30 7395 H 710.988 -1.22837 2.73041 0
M  V30 7396 H 708.534 -0.589485 1.31381 0
M  V30 7397 H 710.487 -3.60342 2.18475 0
M  V30 7398 H 709.211 -3.09184 1.05226 0
M  V30 7399 H 707.87 -2.15316 2.96706 0
M  V30 7400 H 707.518 -4.51374 2.2197 0
M  V30 7401 H 707.218 -4.33512 3.96662 0
M  V30 7402 H 708.742 -5.07359 3.39734 0
M  V30 7403 H 710.156 -3.23595 4.73243 0
M  V30 7404 H 708.553 -2.73252 5.34279 0
M  V30 7405 H 709.623 -1.52882 4.60169 0
M  V30 7406 N 710.966 -1.44241 -0.634997 0
M  V30 7407 C 712.191 -1.50516 -1.42687 0
M  V30 7408 C 712.616 -0.129864 -1.87651 0
M  V30 7409 O 711.974 0.880164 -1.58502 0
M  V30 7410 C 712.022 -2.4714 -2.62591 0
M  V30 7411 O 711.126 -1.97025 -3.62291 0
M  V30 7412 H 710.467 -0.50841 -0.427101 0
M  V30 7413 H 712.997 -1.89337 -0.775408 0
M  V30 7414 H 713.007 -2.65048 -3.10183 0
M  V30 7415 H 711.682 -3.47039 -2.29209 0
M  V30 7416 H 710.259 -1.88866 -3.21534 0
M  V30 7417 N 712.444 0.87505 -1.31075 0
M  V30 7418 C 713.69 1.63009 -1.20647 0
M  V30 7419 C 714.023 1.9276 0.236045 0
M  V30 7420 O 713.298 1.55559 1.16754 0
M  V30 7421 C 713.581 2.96357 -2.0456 0
M  V30 7422 C 713.434 2.73516 -3.57084 0
M  V30 7423 C 714.753 3.974 -1.89107 0
M  V30 7424 H 711.872 0.591518 -0.439631 0
M  V30 7425 H 714.514 1.0119 -1.60812 0
M  V30 7426 H 712.664 3.49119 -1.70435 0
M  V30 7427 H 714.336 2.27465 -4.01319 0
M  V30 7428 H 712.579 2.0784 -3.80769 0
M  V30 7429 H 713.25 3.68377 -4.11099 0
M  V30 7430 H 715.726 3.5383 -2.18961 0
M  V30 7431 H 714.602 4.88596 -2.5013 0
M  V30 7432 H 714.863 4.33794 -0.85296 0
M  V30 7433 N 713.922 1.13953 1.08869 0
M  V30 7434 C 715.15 0.92817 1.84912 0
M  V30 7435 C 715.565 -0.523197 1.81406 0
M  V30 7436 O 714.922 -1.36237 1.21432 0
M  V30 7437 C 714.973 1.41509 3.32652 0
M  V30 7438 O 714.694 2.80959 3.36145 0
M  V30 7439 C 716.195 1.243 4.25517 0
M  V30 7440 H 713.415 0.330612 0.583898 0
M  V30 7441 H 715.959 1.51349 1.37527 0
M  V30 7442 H 714.114 0.872648 3.77444 0
M  V30 7443 H 714.528 3.02704 4.28335 0
M  V30 7444 H 716.002 1.63237 5.27312 0
M  V30 7445 H 716.479 0.18532 4.38809 0
M  V30 7446 H 717.085 1.77375 3.86546 0
M  V30 7447 N 715.4 -1.26948 0.933913 0
M  V30 7448 C 716.811 -1.76058 0.621324 0
M  V30 7449 C 717.162 -1.76175 -0.863522 0
M  V30 7450 O 716.287 -1.36921 -1.67576 0
M  V30 7451 C 716.882 -3.19713 1.12111 0
M  V30 7452 C 715.441 -3.66465 0.859074 0
M  V30 7453 C 714.588 -2.46186 1.27624 0
M  V30 7454 H 717.539 -1.13127 1.11301 0
M  V30 7455 H 717.56 -3.77566 0.471608 0
M  V30 7456 H 717.072 -3.19596 2.20182 0
M  V30 7457 H 715.173 -3.72021 -0.207566 0
M  V30 7458 H 715.286 -4.55636 1.48098 0
M  V30 7459 H 713.65 -2.45042 0.694727 0
M  V30 7460 H 714.433 -2.48774 2.36572 0
M  V30 7461 N 716.879 -0.700114 -1.41195 0
M  V30 7462 C 717.827 -0.0263301 -2.32585 0
M  V30 7463 C 718.821 0.763683 -1.51209 0
M  V30 7464 O 720.027 0.668793 -1.67114 0
M  V30 7465 H 716.402 0.0102869 -0.75193 0
M  V30 7466 H 718.373 -0.814087 -2.8708 0
M  V30 7467 C 717.122 0.892793 -3.36042 0
M  V30 7468 H 716.445 0.294306 -3.98715 0
M  V30 7469 H 717.885 1.33247 -4.02518 0
M  V30 7470 C 716.344 2.01109 -2.7029 0
M  V30 7471 O 716.874 3.10035 -2.55423 0
M  V30 7472 N 715.08 1.79015 -2.28915 0
M  V30 7473 H 714.627 0.904275 -2.41207 0
M  V30 7474 H 714.585 2.54022 -1.85257 0
M  V30 7475 N 718.357 1.51182 -0.445186 0
M  V30 7476 C 719.634 1.9478 0.178965 0
M  V30 7477 C 720.014 1.38428 1.59376 0
M  V30 7478 O 719.362 0.574552 2.21159 0
M  V30 7479 C 719.572 3.48683 0.148711 0
M  V30 7480 C 720.92 4.23152 0.35042 0
M  V30 7481 O 721.944 3.55479 0.226474 0
M  V30 7482 O 720.803 5.4322 0.597893 0
M  V30 7483 H 717.897 0.817387 0.12573 0
M  V30 7484 H 720.443 1.62051 -0.503729 0
M  V30 7485 H 719.215 3.82176 -0.84009 0
M  V30 7486 H 718.838 3.87875 0.873979 0
M  V30 7487 N 719.835 0.176821 1.56605 0
M  V30 7488 C 721.083 -0.465793 1.96659 0
M  V30 7489 C 721.404 -1.63406 1.06412 0
M  V30 7490 O 720.674 -1.95457 0.131603 0
M  V30 7491 H 719.254 -0.175072 0.726195 0
M  V30 7492 H 721.916 0.25929 1.93168 0
M  V30 7493 H 721.012 -0.822138 3.01077 0
M  V30 7494 N 721.313 -1.57302 -0.09688 0
M  V30 7495 C 722.56 -1.85997 -0.800699 0
M  V30 7496 C 722.888 -0.765089 -1.7882 0
M  V30 7497 O 722.143 0.241492 -1.94204 0
M  V30 7498 C 722.442 -3.21272 -1.56586 0
M  V30 7499 C 722.108 -4.45104 -0.72064 0
M  V30 7500 C 720.77 -4.78723 -0.487632 0
M  V30 7501 C 723.122 -5.2103 -0.132948 0
M  V30 7502 C 720.45 -5.85697 0.34296 0
M  V30 7503 C 722.802 -6.28881 0.684957 0
M  V30 7504 C 721.466 -6.61017 0.928073 0
M  V30 7505 H 720.736 -0.680613 -0.292997 0
M  V30 7506 H 723.383 -1.91399 -0.0622474 0
M  V30 7507 H 721.688 -3.11547 -2.37583 0
M  V30 7508 H 723.385 -3.40702 -2.11478 0
M  V30 7509 H 719.975 -4.18777 -0.912359 0
M  V30 7510 H 724.159 -4.95392 -0.300132 0
M  V30 7511 H 719.415 -6.09008 0.540317 0
M  V30 7512 H 723.589 -6.86886 1.14721 0
M  V30 7513 H 721.216 -7.43738 1.57348 0
M  V30 7514 N 722.791 0.367657 -1.53252 0
M  V30 7515 C 723.754 1.43308 -1.78873 0
M  V30 7516 C 724.754 1.46671 -0.659115 0
M  V30 7517 O 725.944 1.47468 -0.927306 0
M  V30 7518 C 723.076 2.82442 -1.90892 0
M  V30 7519 H 724.269 1.21864 -2.74024 0
M  V30 7520 H 721.822 0.600668 -1.44297 0
M  V30 7521 H 722.557 3.09202 -0.978 0
M  V30 7522 H 722.342 2.81399 -2.73051 0
M  V30 7523 H 723.832 3.59601 -2.12314 0
M  V30 7524 N 724.269 1.44576 0.627338 0
M  V30 7525 C 725.216 1.51734 1.73912 0
M  V30 7526 C 726.186 0.364745 1.62046 0
M  V30 7527 O 727.371 0.575503 1.81914 0
M  V30 7528 C 724.511 1.47116 3.12171 0
M  V30 7529 C 723.624 2.72778 3.34986 0
M  V30 7530 C 722.759 2.59968 4.63239 0
M  V30 7531 C 721.798 3.80776 4.79245 0
M  V30 7532 N 720.935 3.66618 5.98778 0
M  V30 7533 H 725.775 2.46722 1.6713 0
M  V30 7534 H 723.312 1.22444 0.815224 0
M  V30 7535 H 725.27 1.42429 3.92135 0
M  V30 7536 H 723.9 0.556928 3.17959 0
M  V30 7537 H 722.952 2.87637 2.48936 0
M  V30 7538 H 724.264 3.62441 3.42692 0
M  V30 7539 H 723.418 2.53135 5.51369 0
M  V30 7540 H 722.157 1.67872 4.57898 0
M  V30 7541 H 721.162 3.87989 3.89544 0
M  V30 7542 H 722.387 4.73913 4.86398 0
M  V30 7543 H 720.333 2.77277 5.9452 0
M  V30 7544 H 720.25 4.499 6.07557 0
M  V30 7545 H 721.518 3.63684 6.89459 0
M  V30 7546 N 725.747 -0.868086 1.31537 0
M  V30 7547 C 726.993 -1.62367 1.2151 0
M  V30 7548 C 727.326 -1.92883 -0.225819 0
M  V30 7549 O 726.601 -1.56176 -1.15927 0
M  V30 7550 C 726.884 -2.95268 2.06129 0
M  V30 7551 C 726.737 -2.71619 3.58529 0
M  V30 7552 C 728.056 -3.96391 1.91212 0
M  V30 7553 H 725.175 -0.589178 0.442762 0
M  V30 7554 H 727.817 -1.00336 1.61347 0
M  V30 7555 H 725.967 -3.4821 1.72284 0
M  V30 7556 H 727.639 -2.25334 4.0252 0
M  V30 7557 H 725.882 -2.05817 3.81866 0
M  V30 7558 H 726.553 -3.66192 4.13047 0
M  V30 7559 H 729.029 -3.52663 2.20834 0
M  V30 7560 H 727.905 -4.87263 2.52718 0
M  V30 7561 H 728.166 -4.33335 0.875953 0
M  V30 7562 N 727.225 -1.14528 -1.08264 0
M  V30 7563 C 728.175 -0.802141 -2.13424 0
M  V30 7564 C 729.159 0.209362 -1.59532 0
M  V30 7565 O 730.351 0.0114859 -1.76996 0
M  V30 7566 C 727.48 -0.282938 -3.42132 0
M  V30 7567 C 726.566 -1.32405 -4.02902 0
M  V30 7568 N 726.957 -2.52861 -4.38058 0
M  V30 7569 C 725.255 -1.17462 -4.30254 0
M  V30 7570 C 725.956 -3.1952 -4.86088 0
M  V30 7571 N 724.932 -2.46921 -4.84284 0
M  V30 7572 H 728.734 -1.71843 -2.38426 0
M  V30 7573 H 726.248 -1.02936 -1.2561 0
M  V30 7574 H 728.245 -0.0188053 -4.16896 0
M  V30 7575 H 726.905 0.627533 -3.18578 0
M  V30 7576 H 727.916 -2.90078 -4.2904 0
M  V30 7577 H 724.593 -0.323283 -4.16246 0
M  V30 7578 H 725.983 -4.2223 -5.22658 0
M  V30 7579 N 728.703 1.26451 -0.940633 0
M  V30 7580 C 729.933 1.97581 -0.603766 0
M  V30 7581 C 730.341 1.70246 0.825395 0
M  V30 7582 O 729.684 0.967001 1.56188 0
M  V30 7583 C 729.746 3.51256 -0.765463 0
M  V30 7584 C 729.41 4.0224 -2.16915 0
M  V30 7585 C 730.407 4.1402 -3.14457 0
M  V30 7586 C 728.092 4.36263 -2.48958 0
M  V30 7587 C 730.086 4.59117 -4.42143 0
M  V30 7588 C 727.773 4.81048 -3.76877 0
M  V30 7589 C 728.771 4.92436 -4.73282 0
M  V30 7590 O 728.459 5.36234 -5.98923 0
M  V30 7591 H 728.191 0.636948 -0.226436 0
M  V30 7592 H 730.745 1.61941 -1.2635 0
M  V30 7593 H 728.975 3.86669 -0.0485956 0
M  V30 7594 H 730.664 4.03597 -0.431738 0
M  V30 7595 H 731.43 3.87981 -2.91026 0
M  V30 7596 H 727.309 4.26634 -1.74656 0
M  V30 7597 H 730.853 4.6792 -5.17394 0
M  V30 7598 H 726.75 5.06531 -4.00121 0
M  V30 7599 H 727.518 5.54456 -6.02097 0
M  V30 7600 N 730.181 0.707592 1.40822 0
M  V30 7601 C 731.429 0.243189 2.00632 0
M  V30 7602 C 731.75 -1.16512 1.56365 0
M  V30 7603 O 731.02 -1.78841 0.799553 0
M  V30 7604 H 729.6 0.0869203 0.741926 0
M  V30 7605 H 732.262 0.911438 1.72275 0
M  V30 7606 H 731.358 0.270014 3.1093 0
M  V30 7607 N 731.66 -1.50943 0.453197 0
M  V30 7608 C 732.907 -2.02212 -0.107922 0
M  V30 7609 C 733.235 -1.33639 -1.41318 0
M  V30 7610 O 732.49 -0.445154 -1.9057 0
M  V30 7611 C 732.789 -3.55603 -0.357944 0
M  V30 7612 C 732.455 -4.42556 0.863427 0
M  V30 7613 C 731.117 -4.6604 1.19834 0
M  V30 7614 C 733.469 -4.93468 1.67747 0
M  V30 7615 C 730.797 -5.37681 2.34768 0
M  V30 7616 C 733.149 -5.6637 2.81793 0
M  V30 7617 C 731.813 -5.88113 3.1572 0
M  V30 7618 H 731.083 -0.739947 -0.0394916 0
M  V30 7619 H 733.73 -1.81738 0.60363 0
M  V30 7620 H 732.035 -3.74495 -1.15156 0
M  V30 7621 H 733.732 -3.92821 -0.805781 0
M  V30 7622 H 730.322 -4.24485 0.592478 0
M  V30 7623 H 734.506 -4.75194 1.43192 0
M  V30 7624 H 729.762 -5.52727 2.61348 0
M  V30 7625 H 733.936 -6.04806 3.45229 0
M  V30 7626 H 731.563 -6.43404 4.04889 0
M  V30 7627 N 733.138 -0.185124 -1.56509 0
M  V30 7628 C 734.387 0.456421 -1.96468 0
M  V30 7629 C 734.7 1.63448 -1.07444 0
M  V30 7630 O 735.906 2.34316 -1.37143 0
M  V30 7631 C 734.362 0.863404 -3.4939 0
M  V30 7632 C 733.97 -0.289815 -4.47062 0
M  V30 7633 C 735.714 1.47259 -3.98139 0
M  V30 7634 C 733.621 0.137571 -5.9124 0
M  V30 7635 H 732.551 0.17429 -0.733579 0
M  V30 7636 H 735.202 -0.275554 -1.81419 0
M  V30 7637 H 733.584 1.65176 -3.59907 0
M  V30 7638 H 734.758 -1.06728 -4.4827 0
M  V30 7639 H 733.073 -0.809851 -4.08449 0
M  V30 7640 H 735.67 1.80463 -5.03326 0
M  V30 7641 H 736.013 2.3755 -3.41871 0
M  V30 7642 H 736.546 0.748405 -3.90696 0
M  V30 7643 H 733.285 -0.730907 -6.51412 0
M  V30 7644 H 732.805 0.8801 -5.93308 0
M  V30 7645 H 734.484 0.576771 -6.44424 0
M  V30 7646 N 734.616 1.57351 0.0885366 0
M  V30 7647 C 735.546 2.05561 1.10757 0
M  V30 7648 C 736.527 0.945789 1.41382 0
M  V30 7649 O 737.712 1.21747 1.51299 0
M  V30 7650 C 734.842 2.48554 2.42566 0
M  V30 7651 C 733.796 3.63259 2.26334 0
M  V30 7652 C 733.122 3.9225 3.63378 0
M  V30 7653 C 734.422 4.93913 1.69844 0
M  V30 7654 H 736.116 2.90946 0.706468 0
M  V30 7655 H 733.662 1.39968 0.338385 0
M  V30 7656 H 735.615 2.8089 3.14132 0
M  V30 7657 H 734.339 1.60176 2.84625 0
M  V30 7658 H 732.998 3.31179 1.57213 0
M  V30 7659 H 732.646 3.0103 4.02976 0
M  V30 7660 H 732.346 4.69478 3.53362 0
M  V30 7661 H 733.87 4.27067 4.36401 0
M  V30 7662 H 735.284 5.24588 2.31258 0
M  V30 7663 H 733.681 5.75349 1.70569 0
M  V30 7664 H 734.751 4.80409 0.65843 0
M  V30 7665 N 736.094 -0.359525 1.53444 0
M  V30 7666 C 737.041 -1.44073 1.8031 0
M  V30 7667 C 738.011 -1.52946 0.647811 0
M  V30 7668 O 739.196 -1.68739 0.890614 0
M  V30 7669 C 736.336 -2.80941 2.00416 0
M  V30 7670 C 735.449 -2.80986 3.28132 0
M  V30 7671 C 734.584 -4.09468 3.38393 0
M  V30 7672 C 733.623 -4.03679 4.60119 0
M  V30 7673 N 732.76 -5.23821 4.675 0
M  V30 7674 H 737.6 -1.20464 2.72566 0
M  V30 7675 H 735.137 -0.583859 1.35017 0
M  V30 7676 H 737.095 -3.60459 2.1006 0
M  V30 7677 H 735.725 -3.02936 1.11489 0
M  V30 7678 H 734.777 -1.93666 3.27411 0
M  V30 7679 H 736.089 -2.72583 4.17732 0
M  V30 7680 H 735.243 -4.97404 3.47382 0
M  V30 7681 H 733.982 -4.20632 2.4682 0
M  V30 7682 H 732.987 -3.14129 4.51224 0
M  V30 7683 H 734.212 -3.94112 5.5304 0
M  V30 7684 H 732.158 -5.35559 3.7883 0
M  V30 7685 H 732.075 -5.17611 5.51013 0
M  V30 7686 H 733.343 -6.13572 4.8078 0
M  V30 7687 N 737.572 -1.44907 -0.619662 0
M  V30 7688 C 738.535 -1.52282 -1.71297 0
M  V30 7689 C 739.535 -0.40359 -1.55653 0
M  V30 7690 O 740.725 -0.666638 -1.6094 0
M  V30 7691 C 737.857 -1.40778 -3.10474 0
M  V30 7692 H 739.05 -2.49683 -1.66128 0
M  V30 7693 H 736.603 -1.32168 -0.834339 0
M  V30 7694 H 737.338 -0.445156 -3.2123 0
M  V30 7695 H 737.123 -2.21947 -3.23237 0
M  V30 7696 H 738.613 -1.48946 -3.90135 0
M  V30 7697 N 739.05 0.861098 -1.31996 0
M  V30 7698 C 739.982 1.97551 -1.16216 0
M  V30 7699 C 740.995 1.625 -0.0988527 0
M  V30 7700 O 742.184 1.75091 -0.3472 0
M  V30 7701 C 739.284 3.30376 -0.755307 0
M  V30 7702 C 738.457 3.93711 -1.90552 0
M  V30 7703 C 737.516 5.04862 -1.48328 0
M  V30 7704 O 736.542 5.25204 -2.19431 0
M  V30 7705 N 737.744 5.79283 -0.375656 0
M  V30 7706 H 740.509 2.11632 -2.12208 0
M  V30 7707 H 738.07 1.03559 -1.24448 0
M  V30 7708 H 740.062 4.0213 -0.455364 0
M  V30 7709 H 738.632 3.12395 0.113269 0
M  V30 7710 H 737.852 3.14825 -2.37231 0
M  V30 7711 H 739.14 4.32762 -2.67571 0
M  V30 7712 H 738.538 5.65286 0.216284 0
M  V30 7713 H 737.095 6.5166 -0.135289 0
M  V30 7714 N 740.528 1.15101 1.07655 0
M  V30 7715 C 741.476 0.840714 2.16875 0
M  V30 7716 C 742.47 -0.184594 1.68391 0
M  V30 7717 O 743.676 -0.0399315 1.79956 0
M  V30 7718 H 740.051 0.254192 0.707736 0
M  V30 7719 H 742.022 1.76959 2.40266 0
M  V30 7720 C 740.771 0.343018 3.46004 0
M  V30 7721 H 740.094 1.12335 3.83694 0
M  V30 7722 H 741.534 0.16453 4.23681 0
M  V30 7723 C 739.993 -0.934881 3.23669 0
M  V30 7724 O 740.523 -2.00706 3.47965 0
M  V30 7725 N 738.729 -0.873167 2.77172 0
M  V30 7726 H 738.276 -0.000479072 2.576 0
M  V30 7727 H 738.234 -1.72873 2.62607 0
M  V30 7728 N 742.006 -1.2595 0.947325 0
M  V30 7729 C 742.953 -2.26159 0.460497 0
M  V30 7730 C 743.923 -1.58919 -0.483125 0
M  V30 7731 O 745.108 -1.86603 -0.397983 0
M  V30 7732 C 742.248 -3.441 -0.26247 0
M  V30 7733 C 741.361 -4.25999 0.717539 0
M  V30 7734 C 740.496 -5.31193 -0.0272486 0
M  V30 7735 C 739.535 -6.04774 0.944177 0
M  V30 7736 N 738.672 -7.01721 0.230741 0
M  V30 7737 H 743.512 -2.67173 1.31995 0
M  V30 7738 H 741.049 -1.31358 0.662088 0
M  V30 7739 H 743.007 -4.11317 -0.698137 0
M  V30 7740 H 741.637 -3.03983 -1.08602 0
M  V30 7741 H 740.689 -3.58513 1.27171 0
M  V30 7742 H 742.001 -4.76981 1.45913 0
M  V30 7743 H 741.155 -6.04451 -0.521903 0
M  V30 7744 H 739.894 -4.81066 -0.801682 0
M  V30 7745 H 738.899 -5.30338 1.4499 0
M  V30 7746 H 740.124 -6.56991 1.71872 0
M  V30 7747 H 738.07 -6.53895 -0.525088 0
M  V30 7748 H 737.987 -7.50484 0.911556 0
M  V30 7749 H 739.255 -7.79122 -0.242616 0
M  V30 7750 N 743.484 -0.715051 -1.40445 0
M  V30 7751 C 744.733 -0.251322 -2.00128 0
M  V30 7752 C 745.046 1.16194 -1.57347 0
M  V30 7753 O 746.252 1.72416 -2.09726 0
M  V30 7754 C 744.708 -0.398407 -3.57688 0
M  V30 7755 C 744.316 -1.81828 -4.09442 0
M  V30 7756 C 746.06 0.00455625 -4.245 0
M  V30 7757 C 743.967 -1.91598 -5.59503 0
M  V30 7758 H 742.897 -0.0902081 -0.748584 0
M  V30 7759 H 745.548 -0.886062 -1.6069 0
M  V30 7760 H 743.93 0.304908 -3.94824 0
M  V30 7761 H 745.104 -2.55193 -3.83684 0
M  V30 7762 H 743.419 -2.17266 -3.55225 0
M  V30 7763 H 746.016 -0.0477303 -5.34679 0
M  V30 7764 H 746.359 1.04636 -4.02935 0
M  V30 7765 H 746.892 -0.649184 -3.92467 0
M  V30 7766 H 743.631 -2.93898 -5.85922 0
M  V30 7767 H 743.151 -1.22644 -5.87127 0
M  V30 7768 H 744.83 -1.68785 -6.24596 0
M  V30 7769 N 744.962 1.50701 -0.461195 0
M  V30 7770 C 745.925 2.2686 0.326679 0
M  V30 7771 C 746.925 1.31243 0.929085 0
M  V30 7772 O 748.115 1.54754 0.799807 0
M  V30 7773 C 745.247 3.07844 1.46441 0
M  V30 7774 H 746.44 2.97954 -0.341095 0
M  V30 7775 H 743.993 1.54814 -0.214984 0
M  V30 7776 H 744.728 2.41223 2.16753 0
M  V30 7777 H 744.513 3.78101 1.03836 0
M  V30 7778 H 746.003 3.65469 2.02044 0
M  V30 7779 N 746.441 0.193421 1.56409 0
M  V30 7780 C 747.351 -0.740112 2.2262 0
M  V30 7781 C 748.367 -1.23597 1.22474 0
M  V30 7782 O 749.543 -1.28348 1.55206 0
M  V30 7783 C 746.608 -1.94317 2.87127 0
M  V30 7784 C 745.669 -1.49205 4.02538 0
M  V30 7785 C 744.902 -2.63776 4.63959 0
M  V30 7786 O 745.125 -3.81215 4.24301 0
M  V30 7787 O 744.059 -2.36585 5.53454 0
M  V30 7788 H 747.885 -0.206238 3.02999 0
M  V30 7789 H 745.47 -0.0357938 1.49357 0
M  V30 7790 H 747.352 -2.64633 3.27944 0
M  V30 7791 H 746.027 -2.46568 2.09728 0
M  V30 7792 H 744.934 -0.757738 3.66346 0
M  V30 7793 H 746.267 -1.01622 4.81595 0
M  V30 7794 N 747.919 -1.57396 -0.0801906 0
M  V30 7795 C 749.144 -1.91437 -0.797909 0
M  V30 7796 C 749.569 -0.789075 -1.70749 0
M  V30 7797 O 748.927 0.25857 -1.79447 0
M  V30 7798 C 748.975 -3.24402 -1.57467 0
M  V30 7799 O 748.079 -3.13043 -2.68473 0
M  V30 7800 H 747.42 -0.627109 -0.218243 0
M  V30 7801 H 749.95 -2.04537 -0.050949 0
M  V30 7802 H 749.96 -3.58072 -1.95571 0
M  V30 7803 H 748.635 -4.05884 -0.907229 0
M  V30 7804 H 747.212 -2.90915 -2.33287 0
M  V30 7805 N 749.397 0.351382 -1.53633 0
M  V30 7806 C 750.646 1.08988 -1.69719 0
M  V30 7807 C 750.959 1.90043 -0.462948 0
M  V30 7808 O 752.165 2.66769 -0.504613 0
M  V30 7809 C 750.621 1.98691 -3.00083 0
M  V30 7810 C 750.229 1.22881 -4.30818 0
M  V30 7811 C 751.973 2.72446 -3.25536 0
M  V30 7812 C 749.88 2.11568 -5.52262 0
M  V30 7813 H 748.81 0.410588 -0.632403 0
M  V30 7814 H 751.461 0.349886 -1.80133 0
M  V30 7815 H 749.843 2.76478 -2.83506 0
M  V30 7816 H 751.017 0.500582 -4.58073 0
M  V30 7817 H 749.332 0.60928 -4.11918 0
M  V30 7818 H 751.929 3.39055 -4.13456 0
M  V30 7819 H 752.272 3.38588 -2.42206 0
M  V30 7820 H 752.805 2.01735 -3.42852 0
M  V30 7821 H 749.544 1.4998 -6.38111 0
M  V30 7822 H 749.064 2.82201 -5.29266 0
M  V30 7823 H 750.743 2.70802 -5.87601 0
M  V30 7824 N 750.875 1.45233 0.611969 0
M  V30 7825 C 752.286 1.4354 1.19387 0
M  V30 7826 C 752.637 0.160713 1.95541 0
M  V30 7827 O 751.762 -0.737954 2.03429 0
M  V30 7828 C 752.357 2.60045 2.17169 0
M  V30 7829 C 750.916 2.61486 2.70744 0
M  V30 7830 C 750.063 2.35708 1.46072 0
M  V30 7831 H 753.014 1.53536 0.401529 0
M  V30 7832 H 753.035 2.33893 3.00124 0
M  V30 7833 H 752.547 3.52803 1.61714 0
M  V30 7834 H 750.648 1.72721 3.30149 0
M  V30 7835 H 750.761 3.60572 3.15476 0
M  V30 7836 H 749.125 1.85178 1.74875 0
M  V30 7837 H 749.908 3.30606 0.924922 0
M  V30 7838 N 752.353 -0.854086 1.3245 0
M  V30 7839 C 753.583 -1.63836 1.25862 0
M  V30 7840 C 753.991 -1.88383 -0.175588 0
M  V30 7841 O 753.334 -1.45353 -1.1233 0
M  V30 7842 C 753.396 -3.02068 1.94923 0
M  V30 7843 C 753.06 -3.0056 3.44257 0
M  V30 7844 C 754.057 -2.77368 4.39731 0
M  V30 7845 C 751.742 -3.21177 3.862 0
M  V30 7846 C 753.736 -2.74797 5.75122 0
M  V30 7847 C 751.423 -3.18234 5.217 0
M  V30 7848 C 752.421 -2.95072 6.15972 0
M  V30 7849 O 752.109 -2.92003 7.48992 0
M  V30 7850 H 751.841 -0.517007 0.435523 0
M  V30 7851 H 754.395 -1.07314 1.75137 0
M  V30 7852 H 752.625 -3.60382 1.40219 0
M  V30 7853 H 754.314 -3.62791 1.82037 0
M  V30 7854 H 755.08 -2.61205 4.08653 0
M  V30 7855 H 750.959 -3.38231 3.13243 0
M  V30 7856 H 754.503 -2.56638 6.48678 0
M  V30 7857 H 750.4 -3.33941 5.52407 0
M  V30 7858 H 751.168 -3.07953 7.58358 0
M  V30 7859 N 753.831 -1.1567 -1.07043 0
M  V30 7860 C 754.761 -0.879348 -2.16309 0
M  V30 7861 C 755.742 0.171311 -1.69235 0
M  V30 7862 O 756.927 0.0250175 -1.94184 0
M  V30 7863 C 754.057 -0.371307 -3.45309 0
M  V30 7864 C 753.011 -1.359 -4.05851 0
M  V30 7865 C 752.337 -0.709678 -5.29969 0
M  V30 7866 C 753.637 -2.72606 -4.45514 0
M  V30 7867 H 755.331 -1.79308 -2.39768 0
M  V30 7868 H 752.877 -0.863558 -1.15233 0
M  V30 7869 H 754.83 -0.164798 -4.21078 0
M  V30 7870 H 753.554 0.577906 -3.21446 0
M  V30 7871 H 752.213 -1.55193 -3.32131 0
M  V30 7872 H 751.861 0.245782 -5.02399 0
M  V30 7873 H 751.561 -1.36886 -5.71433 0
M  V30 7874 H 753.085 -0.513015 -6.08441 0
M  V30 7875 H 754.499 -2.57141 -5.12398 0
M  V30 7876 H 752.896 -3.34927 -4.97939 0
M  V30 7877 H 753.966 -3.28434 -3.56734 0
M  V30 7878 N 755.309 1.25446 -0.953992 0
M  V30 7879 C 756.256 2.25912 -0.472485 0
M  V30 7880 C 757.226 1.59173 0.47469 0
M  V30 7881 O 758.411 1.86812 0.388082 0
M  V30 7882 C 755.551 3.44235 0.244218 0
M  V30 7883 C 754.664 4.25613 -0.740121 0
M  V30 7884 C 753.799 5.312 -0.000922267 0
M  V30 7885 C 752.838 6.04265 -0.976236 0
M  V30 7886 N 751.975 7.01589 -0.267952 0
M  V30 7887 H 756.815 2.66469 -1.3341 0
M  V30 7888 H 754.352 1.31005 -0.669045 0
M  V30 7889 H 756.31 4.11682 0.676314 0
M  V30 7890 H 754.94 3.04554 1.06988 0
M  V30 7891 H 753.992 3.57834 -1.2907 0
M  V30 7892 H 755.304 4.762 -1.48441 0
M  V30 7893 H 754.458 6.04719 0.48984 0
M  V30 7894 H 753.197 4.81484 0.776159 0
M  V30 7895 H 752.202 5.29561 -1.478 0
M  V30 7896 H 753.427 6.5607 -1.75354 0
M  V30 7897 H 751.373 6.54164 0.490403 0
M  V30 7898 H 751.29 7.4999 -0.951344 0
M  V30 7899 H 752.558 7.7924 0.201294 0
M  V30 7900 N 756.787 0.722489 1.40064 0
M  V30 7901 C 757.697 0.0755984 2.34478 0
M  V30 7902 C 758.713 -0.736046 1.57665 0
M  V30 7903 O 759.889 -0.667407 1.9002 0
M  V30 7904 C 756.954 -0.830075 3.36616 0
M  V30 7905 C 756.015 -0.00759884 4.29299 0
M  V30 7906 C 755.248 -0.870139 5.26559 0
M  V30 7907 O 755.471 -2.10921 5.2997 0
M  V30 7908 O 754.405 -0.305454 6.01124 0
M  V30 7909 H 758.231 0.854545 2.9143 0
M  V30 7910 H 755.816 0.483032 1.41376 0
M  V30 7911 H 757.698 -1.34864 3.99236 0
M  V30 7912 H 756.373 -1.58805 2.82069 0
M  V30 7913 H 755.28 0.556199 3.69942 0
M  V30 7914 H 756.613 0.712312 4.87018 0
M  V30 7915 N 758.265 -1.50454 0.469181 0
M  V30 7916 C 759.513 -2.01916 -0.0862982 0
M  V30 7917 C 759.834 -1.35337 -1.40388 0
M  V30 7918 O 759.104 -0.498096 -1.89462 0
M  V30 7919 H 757.684 -0.746185 -0.0348825 0
M  V30 7920 H 760.346 -1.84804 0.619167 0
M  V30 7921 H 759.442 -3.11182 -0.239189 0
M  V30 7922 N 759.743 -0.201713 -1.56304 0
M  V30 7923 C 760.992 0.435557 -1.96941 0
M  V30 7924 C 761.305 1.62299 -1.09172 0
M  V30 7925 O 762.511 2.32849 -1.3962 0
M  V30 7926 C 760.967 0.826298 -3.50286 0
M  V30 7927 C 760.575 -0.337216 -4.46729 0
M  V30 7928 C 762.319 1.43028 -3.99679 0
M  V30 7929 C 760.226 0.0748539 -5.91353 0
M  V30 7930 H 759.156 0.1665 -0.735387 0
M  V30 7931 H 761.807 -0.294781 -1.81117 0
M  V30 7932 H 760.189 1.61349 -3.61639 0
M  V30 7933 H 761.363 -1.11476 -4.47113 0
M  V30 7934 H 759.678 -0.853126 -4.07567 0
M  V30 7935 H 762.275 1.75115 -5.05212 0
M  V30 7936 H 762.618 2.33911 -3.44371 0
M  V30 7937 H 763.151 0.706924 -3.91468 0
M  V30 7938 H 759.89 -0.799957 -6.506 0
M  V30 7939 H 759.41 0.817122 -5.94208 0
M  V30 7940 H 761.089 0.508389 -6.45 0
M  V30 7941 N 761.222 1.57436 0.0718424 0
M  V30 7942 C 762.132 2.07039 1.10326 0
M  V30 7943 C 763.148 0.999918 1.424 0
M  V30 7944 O 764.324 1.31462 1.52577 0
M  V30 7945 C 761.389 2.50439 2.39752 0
M  V30 7946 C 760.45 3.71784 2.14651 0
M  V30 7947 C 759.683 4.13104 3.37906 0
M  V30 7948 O 759.906 3.54298 4.47023 0
M  V30 7949 O 758.84 5.05894 3.26121 0
M  V30 7950 H 762.666 2.95239 0.711872 0
M  V30 7951 H 760.251 1.46638 0.28597 0
M  V30 7952 H 762.133 2.78876 3.15921 0
M  V30 7953 H 760.808 1.65368 2.78271 0
M  V30 7954 H 759.715 3.48431 1.36187 0
M  V30 7955 H 761.048 4.57707 1.81012 0
M  V30 7956 N 762.7 -0.34323 1.53817 0
M  V30 7957 C 763.925 -1.1079 1.75329 0
M  V30 7958 C 764.35 -1.81571 0.491293 0
M  V30 7959 O 763.708 -1.72561 -0.556089 0
M  V30 7960 C 763.756 -2.09681 2.9337 0
M  V30 7961 O 762.86 -3.17207 2.63541 0
M  V30 7962 H 762.201 -0.320402 0.581583 0
M  V30 7963 H 764.731 -0.393525 2.0078 0
M  V30 7964 H 764.741 -2.52897 3.20168 0
M  V30 7965 H 763.416 -1.5756 3.84899 0
M  V30 7966 H 761.993 -2.78806 2.47632 0
M  V30 7967 N 764.178 -1.45556 -0.604258 0
M  V30 7968 C 765.426 -1.4945 -1.36048 0
M  V30 7969 C 765.747 -0.138933 -1.94504 0
M  V30 7970 O 765.017 0.832097 -1.7735 0
M  V30 7971 H 763.597 -0.550381 -0.505064 0
M  V30 7972 H 766.259 -1.81535 -0.709308 0
M  V30 7973 H 765.355 -2.23519 -2.17821 0
M  V30 7974 N 765.656 0.84705 -1.32902 0
M  V30 7975 C 766.933 1.58583 -1.14503 0
M  V30 7976 C 767.313 2.09075 0.291724 0
M  V30 7977 O 766.661 1.88636 1.28952 0
M  V30 7978 C 766.871 2.72605 -2.17916 0
M  V30 7979 C 768.219 3.41993 -2.51646 0
M  V30 7980 O 769.243 2.82838 -2.1652 0
M  V30 7981 O 768.102 4.48761 -3.1189 0
M  V30 7982 H 765.196 0.698756 -0.442345 0
M  V30 7983 H 767.742 0.890516 -1.44457 0
M  V30 7984 H 766.514 2.32876 -3.14459 0
M  V30 7985 H 766.137 3.49807 -1.89 0
M  V30 7986 N 767.134 1.16236 1.06428 0
M  V30 7987 C 768.545 0.950942 1.60667 0
M  V30 7988 C 768.896 -0.505491 1.89576 0
M  V30 7989 O 768.021 -1.37843 1.66818 0
M  V30 7990 C 768.616 1.71982 2.91904 0
M  V30 7991 C 767.175 1.55342 3.4285 0
M  V30 7992 C 766.322 1.72942 2.16763 0
M  V30 7993 H 769.273 1.31126 0.893959 0
M  V30 7994 H 769.294 1.19483 3.61253 0
M  V30 7995 H 768.806 2.77978 2.70831 0
M  V30 7996 H 766.907 0.5178 3.68985 0
M  V30 7997 H 767.02 2.33643 4.18267 0
M  V30 7998 H 765.384 1.15673 2.26918 0
M  V30 7999 H 766.167 2.80324 1.98175 0
M  V30 8000 N 768.612 -1.24939 0.960631 0
M  V30 8001 C 769.86 -1.92437 0.617441 0
M  V30 8002 C 770.181 -1.75543 -0.849101 0
M  V30 8003 O 769.451 -1.12269 -1.60538 0
M  V30 8004 H 768.031 -0.712192 0.225371 0
M  V30 8005 H 770.693 -1.5198 1.22017 0
M  V30 8006 H 769.789 -3.00247 0.851933 0
M  V30 8007 N 770.09 -0.729906 -1.39679 0
M  V30 8008 C 771.318 -0.285709 -2.04918 0
M  V30 8009 C 771.733 1.07765 -1.55023 0
M  V30 8010 O 771.09 1.67999 -0.712923 0
M  V30 8011 C 771.141 -0.272793 -3.60469 0
M  V30 8012 O 770.862 -1.58233 -4.08527 0
M  V30 8013 C 772.363 0.188199 -4.429 0
M  V30 8014 H 769.583 -0.125758 -0.65911 0
M  V30 8015 H 772.127 -0.992129 -1.78821 0
M  V30 8016 H 770.282 0.384699 -3.85485 0
M  V30 8017 H 770.696 -1.49245 -5.02818 0
M  V30 8018 H 772.17 0.14608 -5.51807 0
M  V30 8019 H 772.647 1.2326 -4.21549 0
M  V30 8020 H 773.253 -0.439541 -4.23023 0
M  V30 8021 N 771.568 1.50203 -0.477153 0
M  V30 8022 C 772.845 1.95115 0.137609 0
M  V30 8023 C 773.225 1.41778 1.56404 0
M  V30 8024 O 772.573 0.621333 2.1989 0
M  V30 8025 C 772.783 3.4892 0.0747168 0
M  V30 8026 C 774.131 4.238 0.260585 0
M  V30 8027 O 775.155 3.5588 0.151021 0
M  V30 8028 O 774.014 5.44366 0.482534 0
M  V30 8029 H 771.108 0.81987 0.108364 0
M  V30 8030 H 773.654 1.60946 -0.537989 0
M  V30 8031 H 772.426 3.80308 -0.920966 0
M  V30 8032 H 772.049 3.89642 0.791509 0
M  V30 8033 N 773.046 0.209999 1.56195 0
M  V30 8034 C 774.323 -0.473214 1.89789 0
M  V30 8035 C 774.703 -1.78581 1.1257 0
M  V30 8036 O 774.051 -2.27325 0.231398 0
M  V30 8037 C 774.261 -0.677458 3.42362 0
M  V30 8038 C 775.609 -0.990114 4.12895 0
M  V30 8039 O 776.633 -0.764655 3.47896 0
M  V30 8040 O 775.492 -1.41737 5.278 0
M  V30 8041 H 772.586 -0.248622 0.788743 0
M  V30 8042 H 775.132 0.251324 1.67829 0
M  V30 8043 H 773.904 0.248878 3.90508 0
M  V30 8044 H 773.527 -1.45391 3.70064 0
M  V30 8045 N 774.524 -1.57472 -0.0634922 0
M  V30 8046 C 775.772 -1.87283 -0.759563 0
M  V30 8047 C 776.093 -0.803135 -1.77693 0
M  V30 8048 O 775.363 0.167293 -1.95184 0
M  V30 8049 H 773.943 -0.691106 -0.283516 0
M  V30 8050 H 776.605 -1.94864 -0.0376091 0
M  V30 8051 H 775.701 -2.85064 -1.27062 0
M  V30 8052 N 776.003 0.335068 -1.53997 0
M  V30 8053 C 777.419 0.678704 -1.4445 0
M  V30 8054 C 777.619 1.92106 -0.608078 0
M  V30 8055 O 776.675 2.52292 -0.102373 0
M  V30 8056 C 777.988 0.863435 -2.88037 0
M  V30 8057 C 779.536 0.961513 -2.97866 0
M  V30 8058 C 780.011 1.1785 -4.42578 0
M  V30 8059 N 781.502 1.2455 -4.46141 0
M  V30 8060 C 782.237 1.43106 -5.55255 0
M  V30 8061 N 781.733 1.5878 -6.74359 0
M  V30 8062 N 783.526 1.45722 -5.42883 0
M  V30 8063 H 775.677 -0.481656 -2.06867 0
M  V30 8064 H 777.94 -0.153615 -0.935471 0
M  V30 8065 H 777.646 0.0219511 -3.51693 0
M  V30 8066 H 777.52 1.76268 -3.33481 0
M  V30 8067 H 779.907 1.79351 -2.34344 0
M  V30 8068 H 779.988 0.0389862 -2.5577 0
M  V30 8069 H 779.632 0.351397 -5.06683 0
M  V30 8070 H 779.562 2.11472 -4.82273 0
M  V30 8071 H 782.053 1.13928 -3.60318 0
M  V30 8072 H 782.366 1.72599 -7.53279 0
M  V30 8073 H 780.711 1.559 -6.77289 0
M  V30 8074 H 783.902 1.33065 -4.48789 0
M  V30 8075 H 784.075 1.59841 -6.27977 0
M  V30 8076 N 777.481 1.45874 0.596531 0
M  V30 8077 C 778.728 1.50467 1.35521 0
M  V30 8078 C 779.056 0.150802 1.93915 0
M  V30 8079 O 778.311 -0.851913 1.76184 0
M  V30 8080 C 778.61 2.54034 2.51399 0
M  V30 8081 C 778.276 3.9844 2.11085 0
M  V30 8082 C 776.938 4.37758 1.99804 0
M  V30 8083 C 779.29 4.89209 1.79788 0
M  V30 8084 C 776.618 5.65727 1.55465 0
M  V30 8085 C 778.97 6.17602 1.36931 0
M  V30 8086 C 777.634 6.5584 1.24218 0
M  V30 8087 H 776.904 0.550597 0.495907 0
M  V30 8088 H 779.551 1.79279 0.673145 0
M  V30 8089 H 777.856 2.18832 3.24992 0
M  V30 8090 H 779.553 2.54822 3.09624 0
M  V30 8091 H 776.143 3.67353 2.20794 0
M  V30 8092 H 780.327 4.59562 1.87395 0
M  V30 8093 H 775.583 5.94139 1.44253 0
M  V30 8094 H 779.757 6.87373 1.11764 0
M  V30 8095 H 777.384 7.54897 0.896353 0
M  V30 8096 N 778.959 -0.83999 1.33349 0
M  V30 8097 C 780.189 -1.62492 1.27593 0
M  V30 8098 C 780.597 -1.88559 -0.155597 0
M  V30 8099 O 779.94 -1.46537 -1.10782 0
M  V30 8100 C 780.002 -2.99984 1.98116 0
M  V30 8101 C 779.666 -2.96892 3.47425 0
M  V30 8102 C 780.663 -2.72688 4.42648 0
M  V30 8103 C 778.348 -3.17063 3.89585 0
M  V30 8104 C 780.342 -2.68681 5.78004 0
M  V30 8105 C 778.029 -3.12682 5.25046 0
M  V30 8106 C 779.027 -2.88522 6.19067 0
M  V30 8107 O 778.715 -2.84042 7.52047 0
M  V30 8108 H 778.447 -0.512358 0.440982 0
M  V30 8109 H 781.001 -1.0545 1.76265 0
M  V30 8110 H 779.231 -3.58875 1.44034 0
M  V30 8111 H 780.92 -3.6084 1.85875 0
M  V30 8112 H 781.686 -2.56856 4.114 0
M  V30 8113 H 777.565 -3.34889 3.16813 0
M  V30 8114 H 781.109 -2.49743 6.51363 0
M  V30 8115 H 777.006 -3.28063 5.55918 0
M  V30 8116 H 777.774 -2.99892 7.61582 0
M  V30 8117 N 780.437 -1.16799 -1.0581 0
M  V30 8118 C 781.684 -0.952524 -1.78699 0
M  V30 8119 C 782.012 0.51931 -1.87439 0
M  V30 8120 O 781.267 1.40151 -1.36587 0
M  V30 8121 C 781.566 -1.53111 -3.22942 0
M  V30 8122 C 781.232 -3.0261 -3.34273 0
M  V30 8123 C 779.894 -3.43418 -3.37072 0
M  V30 8124 C 782.246 -3.98611 -3.35795 0
M  V30 8125 C 779.574 -4.78838 -3.39015 0
M  V30 8126 C 781.926 -5.33923 -3.39277 0
M  V30 8127 C 780.59 -5.74205 -3.40361 0
M  V30 8128 H 779.86 -0.348553 -0.653905 0
M  V30 8129 H 782.507 -1.45591 -1.244 0
M  V30 8130 H 780.812 -0.949286 -3.80126 0
M  V30 8131 H 782.509 -1.34002 -3.77948 0
M  V30 8132 H 779.099 -2.70075 -3.32803 0
M  V30 8133 H 783.283 -3.68146 -3.32839 0
M  V30 8134 H 778.539 -5.09369 -3.38161 0
M  V30 8135 H 782.713 -6.08094 -3.39403 0
M  V30 8136 H 780.34 -6.79117 -3.4162 0
M  V30 8137 N 781.915 1.24427 -0.967243 0
M  V30 8138 C 782.865 2.23143 -0.468106 0
M  V30 8139 C 783.849 1.5449 0.449633 0
M  V30 8140 O 785.041 1.74761 0.28063 0
M  V30 8141 C 782.17 3.42454 0.240867 0
M  V30 8142 C 781.256 4.18355 -0.695674 0
M  V30 8143 N 781.647 4.71428 -1.83273 0
M  V30 8144 C 779.945 4.43116 -0.506365 0
M  V30 8145 C 780.646 5.29041 -2.41849 0
M  V30 8146 N 779.622 5.16213 -1.70369 0
M  V30 8147 H 783.424 2.61795 -1.3357 0
M  V30 8148 H 780.938 1.39809 -0.826277 0
M  V30 8149 H 782.935 4.12329 0.615668 0
M  V30 8150 H 781.595 3.05323 1.10491 0
M  V30 8151 H 782.606 4.68177 -2.21428 0
M  V30 8152 H 779.283 4.16319 0.313747 0
M  V30 8153 H 780.673 5.80811 -3.37799 0
M  V30 8154 N 783.393 0.737304 1.3929 0
M  V30 8155 C 784.323 0.113988 2.33222 0
M  V30 8156 C 785.304 -0.721695 1.54031 0
M  V30 8157 O 786.489 -0.666206 1.82415 0
M  V30 8158 C 783.619 -0.792319 3.38141 0
M  V30 8159 C 782.573 -0.0606178 4.27957 0
M  V30 8160 C 781.899 -1.08409 5.23595 0
M  V30 8161 C 783.199 1.09817 5.10625 0
M  V30 8162 H 784.893 0.898611 2.85596 0
M  V30 8163 H 782.439 0.433571 1.37318 0
M  V30 8164 H 784.392 -1.23793 4.02807 0
M  V30 8165 H 783.116 -1.60908 2.84211 0
M  V30 8166 H 781.775 0.365393 3.64775 0
M  V30 8167 H 781.423 -1.89449 4.6596 0
M  V30 8168 H 781.123 -0.599269 5.84536 0
M  V30 8169 H 782.647 -1.52936 5.91137 0
M  V30 8170 H 784.061 0.730892 5.68622 0
M  V30 8171 H 782.458 1.51278 5.80719 0
M  V30 8172 H 783.528 1.91878 4.45321 0
M  V30 8173 N 784.871 -1.49948 0.485112 0
M  V30 8174 C 786.119 -2.01996 -0.0648775 0
M  V30 8175 C 786.44 -1.36819 -1.38945 0
M  V30 8176 O 785.71 -0.518163 -1.88923 0
M  V30 8177 H 784.29 -0.746513 -0.0269662 0
M  V30 8178 H 786.952 -1.84136 0.638733 0
M  V30 8179 H 786.048 -3.11418 -0.20617 0
M  V30 8180 N 786.349 -0.21828 -1.56081 0
M  V30 8181 C 787.626 0.463143 -1.90038 0
M  V30 8182 C 788.006 1.77982 -1.13515 0
M  V30 8183 O 787.354 2.27199 -0.24345 0
M  V30 8184 C 787.564 0.659292 -3.42716 0
M  V30 8185 C 788.912 0.968203 -4.13414 0
M  V30 8186 O 789.936 0.746195 -3.48296 0
M  V30 8187 O 788.795 1.38936 -5.28544 0
M  V30 8188 H 785.889 0.244435 -0.790051 0
M  V30 8189 H 788.435 -0.260221 -1.67693 0
M  V30 8190 H 787.207 -0.269584 -3.9037 0
M  V30 8191 H 786.83 1.43426 -3.7083 0
M  V30 8192 N 787.827 1.57504 0.0551401 0
M  V30 8193 C 788.79 2.03826 1.04821 0
M  V30 8194 C 789.79 0.937968 1.30609 0
M  V30 8195 O 790.98 1.20237 1.2605 0
M  V30 8196 C 788.112 2.43309 2.38775 0
M  V30 8197 H 789.305 2.92802 0.6486 0
M  V30 8198 H 786.858 1.53368 0.301315 0
M  V30 8199 H 787.593 1.5741 2.83536 0
M  V30 8200 H 787.378 3.23615 2.21395 0
M  V30 8201 H 788.868 2.79666 3.10124 0
M  V30 8202 N 789.305 -0.326896 1.54172 0
M  V30 8203 C 790.238 -1.42591 1.78166 0
M  V30 8204 C 791.216 -1.49837 0.631484 0
M  V30 8205 O 792.4 -1.67298 0.868544 0
M  V30 8206 C 789.527 -2.8071 1.89524 0
M  V30 8207 C 788.573 -2.91012 3.11792 0
M  V30 8208 S 789.406 -2.55763 4.70474 0
M  V30 8209 C 790.562 -3.9596 4.84733 0
M  V30 8210 H 790.795 -1.22024 2.71104 0
M  V30 8211 H 788.328 -0.523539 1.45253 0
M  V30 8212 H 790.286 -3.60276 1.96753 0
M  V30 8213 H 788.947 -2.98562 0.975696 0
M  V30 8214 H 788.14 -3.92258 3.16464 0
M  V30 8215 H 787.742 -2.19414 3.02876 0
M  V30 8216 H 790.034 -4.90676 4.67166 0
M  V30 8217 H 790.977 -3.96273 5.86833 0
M  V30 8218 H 791.385 -3.8476 4.13062 0
M  V30 8219 N 790.784 -1.46188 -0.588786 0
M  V30 8220 C 791.716 -1.52319 -1.71265 0
M  V30 8221 C 792.729 -0.412096 -1.57498 0
M  V30 8222 O 793.918 -0.680146 -1.65034 0
M  V30 8223 C 791.018 -1.38164 -3.09458 0
M  V30 8224 C 790.191 -2.63284 -3.49286 0
M  V30 8225 C 789.25 -2.43415 -4.66514 0
M  V30 8226 O 788.276 -3.17113 -4.72682 0
M  V30 8227 N 789.478 -1.49187 -5.61002 0
M  V30 8228 H 792.243 -2.49219 -1.66463 0
M  V30 8229 H 789.804 -1.42167 -0.774601 0
M  V30 8230 H 791.796 -1.22653 -3.85666 0
M  V30 8231 H 790.366 -0.494678 -3.08661 0
M  V30 8232 H 789.586 -2.93779 -2.62845 0
M  V30 8233 H 790.874 -3.46413 -3.7266 0
M  V30 8234 H 790.272 -0.884027 -5.5875 0
M  V30 8235 H 788.829 -1.39642 -6.36666 0
M  V30 8236 N 792.262 0.832906 -1.33792 0
M  V30 8237 C 793.678 1.1245 -1.13257 0
M  V30 8238 C 793.878 2.01369 0.0725832 0
M  V30 8239 O 792.934 2.41071 0.751082 0
M  V30 8240 C 794.247 1.78084 -2.42294 0
M  V30 8241 C 795.795 1.90624 -2.48257 0
M  V30 8242 C 796.27 2.59673 -3.77271 0
M  V30 8243 N 797.761 2.67181 -3.78376 0
M  V30 8244 C 798.496 3.21313 -4.74916 0
M  V30 8245 N 797.992 3.76086 -5.81835 0
M  V30 8246 N 799.785 3.19621 -4.62384 0
M  V30 8247 H 791.936 0.241244 -2.11026 0
M  V30 8248 H 794.199 0.169557 -0.932713 0
M  V30 8249 H 793.905 1.20209 -3.30519 0
M  V30 8250 H 793.779 2.78049 -2.5489 0
M  V30 8251 H 796.166 2.4765 -1.60478 0
M  V30 8252 H 796.247 0.89591 -2.39598 0
M  V30 8253 H 795.891 2.03304 -4.65435 0
M  V30 8254 H 795.821 3.61189 -3.8321 0
M  V30 8255 H 798.312 2.28346 -3.01108 0
M  V30 8256 H 798.625 4.15612 -6.51526 0
M  V30 8257 H 796.97 3.74357 -5.85561 0
M  V30 8258 H 800.161 2.76091 -3.7801 0
M  V30 8259 H 800.334 3.61504 -5.37791 0
M  V30 8260 N 793.74 1.17359 1.05189 0
M  V30 8261 C 794.986 0.963413 1.78455 0
M  V30 8262 C 795.319 -0.506703 1.87473 0
M  V30 8263 O 794.594 -1.37611 1.37453 0
M  V30 8264 C 794.877 1.60519 3.22344 0
M  V30 8265 C 794.73 3.14741 3.21338 0
M  V30 8266 C 796.049 1.3091 4.20179 0
M  V30 8267 H 793.168 0.351412 0.647826 0
M  V30 8268 H 795.81 1.44858 1.22948 0
M  V30 8269 H 793.96 1.19265 3.69741 0
M  V30 8270 H 795.632 3.65053 2.82017 0
M  V30 8271 H 793.875 3.4749 2.59679 0
M  V30 8272 H 794.546 3.54775 4.22894 0
M  V30 8273 H 797.022 1.66635 3.81277 0
M  V30 8274 H 795.898 1.784 5.191 0
M  V30 8275 H 796.159 0.229908 4.41502 0
M  V30 8276 N 795.218 -1.23913 0.973828 0
M  V30 8277 C 796.466 -1.91771 0.637817 0
M  V30 8278 C 796.787 -1.76434 -0.830435 0
M  V30 8279 O 796.057 -1.13965 -1.59339 0
M  V30 8280 H 794.637 -0.709761 0.232912 0
M  V30 8281 H 797.299 -1.50677 1.23622 0
M  V30 8282 H 796.395 -2.99327 0.883731 0
M  V30 8283 N 796.696 -0.74468 -1.38897 0
M  V30 8284 C 797.644 -0.100312 -2.32384 0
M  V30 8285 C 798.638 0.715191 -1.53562 0
M  V30 8286 O 799.844 0.615288 -1.69157 0
M  V30 8287 H 796.219 -0.0136403 -0.751876 0
M  V30 8288 H 798.19 -0.905007 -2.84345 0
M  V30 8289 C 796.939 0.785432 -3.38713 0
M  V30 8290 H 796.262 0.167308 -3.9945 0
M  V30 8291 H 797.702 1.20374 -4.06554 0
M  V30 8292 C 796.161 1.92408 -2.76552 0
M  V30 8293 O 796.691 3.01752 -2.65157 0
M  V30 8294 N 794.897 1.71642 -2.34494 0
M  V30 8295 H 794.444 0.827079 -2.43961 0
M  V30 8296 H 794.402 2.48 -1.93244 0
M  V30 8297 N 798.174 1.49689 -0.493057 0
M  V30 8298 C 799.121 2.28976 0.28959 0
M  V30 8299 C 800.091 1.35011 0.967536 0
M  V30 8300 O 801.276 1.63964 0.975736 0
M  V30 8301 C 798.416 3.1748 1.35279 0
M  V30 8302 C 797.529 4.26496 0.687418 0
M  V30 8303 C 796.664 5.02226 1.73038 0
M  V30 8304 C 795.703 6.03089 1.04645 0
M  V30 8305 N 794.84 6.72014 2.03325 0
M  V30 8306 H 799.68 2.954 -0.392798 0
M  V30 8307 H 797.217 1.45657 -0.205554 0
M  V30 8308 H 799.175 3.67162 1.98111 0
M  V30 8309 H 797.805 2.53057 2.00405 0
M  V30 8310 H 796.857 3.80362 -0.0540001 0
M  V30 8311 H 798.169 4.98578 0.14864 0
M  V30 8312 H 797.323 5.55737 2.43395 0
M  V30 8313 H 796.062 4.29899 2.303 0
M  V30 8314 H 795.067 5.48817 0.328606 0
M  V30 8315 H 796.292 6.77398 0.480428 0
M  V30 8316 H 794.238 6.02464 2.59564 0
M  V30 8317 H 794.155 7.40046 1.54492 0
M  V30 8318 H 795.423 7.30133 2.72995 0
M  V30 8319 N 799.652 0.226554 1.55963 0
M  V30 8320 C 800.562 -0.692725 2.24139 0
M  V30 8321 C 801.578 -1.20971 1.25068 0
M  V30 8322 O 802.754 -1.25027 1.57893 0
M  V30 8323 C 799.819 -1.88183 2.91184 0
M  V30 8324 C 798.88 -1.40633 4.05612 0
M  V30 8325 C 798.113 -2.53875 4.6945 0
M  V30 8326 O 798.336 -3.72129 4.32292 0
M  V30 8327 O 797.27 -2.24792 5.58348 0
M  V30 8328 H 801.096 -0.141921 3.03368 0
M  V30 8329 H 798.681 -0.0041049 1.49399 0
M  V30 8330 H 800.563 -2.57617 3.33484 0
M  V30 8331 H 799.238 -2.42064 2.14911 0
M  V30 8332 H 798.145 -0.67986 3.67871 0
M  V30 8333 H 799.478 -0.913838 4.83642 0
M  V30 8334 N 801.13 -1.57531 -0.0467866 0
M  V30 8335 C 802.093 -2.04379 -1.03738 0
M  V30 8336 C 803.093 -0.944881 -1.3011 0
M  V30 8337 O 804.283 -1.20904 -1.25411 0
M  V30 8338 C 801.415 -2.44572 -2.37482 0
M  V30 8339 H 802.608 -2.93142 -0.633063 0
M  V30 8340 H 800.161 -1.53526 -0.293177 0
M  V30 8341 H 800.896 -1.58911 -2.82697 0
M  V30 8342 H 800.681 -3.24785 -2.19675 0
M  V30 8343 H 802.171 -2.81307 -3.08636 0
M  V30 8344 N 802.608 0.318715 -1.54344 0
M  V30 8345 C 803.838 1.07394 -1.76494 0
M  V30 8346 C 804.246 1.82031 -0.515881 0
M  V30 8347 O 803.589 1.7609 0.52325 0
M  V30 8348 C 803.651 2.11401 -2.90775 0
M  V30 8349 C 803.315 1.56118 -4.29507 0
M  V30 8350 C 804.312 1.00043 -5.10184 0
M  V30 8351 C 801.997 1.60215 -4.76063 0
M  V30 8352 C 803.991 0.487993 -6.35529 0
M  V30 8353 C 801.678 1.08584 -6.01376 0
M  V30 8354 C 802.676 0.529714 -6.80943 0
M  V30 8355 O 802.364 0.0211823 -8.03897 0
M  V30 8356 H 802.096 0.325061 -0.592715 0
M  V30 8357 H 804.65 0.36901 -2.02058 0
M  V30 8358 H 802.88 2.85524 -2.60793 0
M  V30 8359 H 804.569 2.72683 -3.00664 0
M  V30 8360 H 805.335 0.961811 -4.75367 0
M  V30 8361 H 801.214 2.02441 -4.14172 0
M  V30 8362 H 804.758 0.0532608 -6.9758 0
M  V30 8363 H 800.655 1.12155 -6.35682 0
M  V30 8364 H 801.423 0.136151 -8.18387 0
M  V30 8365 N 804.086 1.46499 0.581025 0
M  V30 8366 C 805.033 1.5719 1.68997 0
M  V30 8367 C 806.003 0.416114 1.60803 0
M  V30 8368 O 807.188 0.633086 1.79991 0
M  V30 8369 C 804.328 1.56973 3.07333 0
M  V30 8370 C 803.441 2.83298 3.26139 0
M  V30 8371 C 802.576 2.74574 4.54734 0
M  V30 8372 C 801.615 3.9583 4.66889 0
M  V30 8373 N 800.752 3.85482 5.86811 0
M  V30 8374 H 805.592 2.51914 1.59196 0
M  V30 8375 H 803.129 1.24975 0.775857 0
M  V30 8376 H 805.087 1.54832 3.87405 0
M  V30 8377 H 803.717 0.657803 3.16027 0
M  V30 8378 H 802.769 2.95411 2.3966 0
M  V30 8379 H 804.081 3.7316 3.30988 0
M  V30 8380 H 803.235 2.70548 5.43036 0
M  V30 8381 H 801.974 1.82354 4.52325 0
M  V30 8382 H 800.979 4.00186 3.77003 0
M  V30 8383 H 802.204 4.89148 4.71075 0
M  V30 8384 H 800.15 2.96051 5.85397 0
M  V30 8385 H 800.067 4.69002 5.92936 0
M  V30 8386 H 801.335 3.85434 6.7754 0
M  V30 8387 N 805.565 -0.825799 1.34232 0
M  V30 8388 C 806.811 -1.58379 1.27623 0
M  V30 8389 C 807.166 -1.91789 -0.15323 0
M  V30 8390 O 806.459 -1.56965 -1.09875 0
M  V30 8391 C 806.653 -2.89362 2.09772 0
M  V30 8392 C 806.482 -2.68747 3.60562 0
M  V30 8393 C 805.252 -2.6563 4.29848 0
M  V30 8394 C 807.45 -2.40463 4.54623 0
M  V30 8395 N 805.432 -2.3653 5.66504 0
M  V30 8396 C 806.803 -2.21032 5.79262 0
M  V30 8397 C 808.858 -2.26168 4.43568 0
M  V30 8398 C 807.561 -1.88754 6.94093 0
M  V30 8399 C 809.587 -1.95284 5.58228 0
M  V30 8400 C 808.949 -1.76674 6.81884 0
M  V30 8401 H 805.048 -0.582062 0.522234 0
M  V30 8402 H 807.632 -0.968308 1.68914 0
M  V30 8403 H 805.803 -3.48838 1.70783 0
M  V30 8404 H 807.535 -3.54716 1.94831 0
M  V30 8405 H 804.29 -2.79601 3.82257 0
M  V30 8406 H 804.714 -2.24827 6.38578 0
M  V30 8407 H 809.356 -2.39262 3.48588 0
M  V30 8408 H 807.074 -1.74397 7.89057 0
M  V30 8409 H 810.66 -1.84959 5.51617 0
M  V30 8410 H 809.54 -1.53123 7.69105 0
M  V30 8411 N 807.043 -1.17915 -1.04565 0
M  V30 8412 C 808.273 -0.994716 -1.81077 0
M  V30 8413 C 808.681 0.460146 -1.83519 0
M  V30 8414 O 808.024 1.33136 -1.26572 0
M  V30 8415 C 808.086 -1.46698 -3.28207 0
M  V30 8416 C 807.75 -2.94523 -3.49436 0
M  V30 8417 C 808.747 -3.92414 -3.41038 0
M  V30 8418 C 806.432 -3.32841 -3.76194 0
M  V30 8419 C 808.426 -5.2662 -3.59096 0
M  V30 8420 C 806.113 -4.67212 -3.93899 0
M  V30 8421 C 807.111 -5.6391 -3.8535 0
M  V30 8422 O 806.799 -6.95849 -4.02554 0
M  V30 8423 H 806.531 -0.351797 -0.577248 0
M  V30 8424 H 809.085 -1.56772 -1.32709 0
M  V30 8425 H 807.315 -0.837592 -3.7752 0
M  V30 8426 H 809.004 -1.24724 -3.86263 0
M  V30 8427 H 809.77 -3.64157 -3.20336 0
M  V30 8428 H 805.649 -2.58139 -3.81949 0
M  V30 8429 H 809.193 -6.02082 -3.52339 0
M  V30 8430 H 805.09 -4.95172 -4.14095 0
M  V30 8431 H 805.858 -7.02679 -4.19743 0
M  V30 8432 N 808.521 1.23394 -0.980386 0
M  V30 8433 C 809.431 2.28561 -0.528864 0
M  V30 8434 C 810.447 1.68946 0.416329 0
M  V30 8435 O 811.623 1.99355 0.286251 0
M  V30 8436 C 808.688 3.46323 0.16155 0
M  V30 8437 C 807.749 4.21297 -0.825044 0
M  V30 8438 C 806.982 5.33437 -0.167483 0
M  V30 8439 O 807.205 5.60812 1.04146 0
M  V30 8440 O 806.139 5.95637 -0.866047 0
M  V30 8441 H 809.965 2.69326 -1.40346 0
M  V30 8442 H 807.55 1.29325 -0.748019 0
M  V30 8443 H 809.432 4.17811 0.548841 0
M  V30 8444 H 808.107 3.0751 1.01092 0
M  V30 8445 H 807.014 3.52134 -1.26303 0
M  V30 8446 H 808.347 4.6396 -1.64322 0
M  V30 8447 N 809.999 0.752036 1.385 0
M  V30 8448 C 810.929 0.138718 2.33088 0
M  V30 8449 C 811.91 -0.705318 1.54788 0
M  V30 8450 O 813.095 -0.646821 1.83112 0
M  V30 8451 C 810.225 -0.75641 3.38963 0
M  V30 8452 C 809.179 -0.0152239 4.27997 0
M  V30 8453 C 808.505 -1.0285 5.24715 0
M  V30 8454 C 809.805 1.15226 5.09431 0
M  V30 8455 H 811.499 0.928852 2.84627 0
M  V30 8456 H 809.045 0.448111 1.3685 0
M  V30 8457 H 810.998 -1.19513 4.04097 0
M  V30 8458 H 809.722 -1.57885 2.85902 0
M  V30 8459 H 808.381 0.404061 3.64366 0
M  V30 8460 H 808.029 -1.84496 4.67943 0
M  V30 8461 H 807.729 -0.537238 5.85139 0
M  V30 8462 H 809.253 -1.46657 5.92726 0
M  V30 8463 H 810.667 0.791161 5.67815 0
M  V30 8464 H 809.064 1.57428 5.79082 0
M  V30 8465 H 810.134 1.9659 4.43261 0
M  V30 8466 N 811.477 -1.49425 0.500989 0
M  V30 8467 C 812.725 -2.02053 -0.0434495 0
M  V30 8468 C 813.046 -1.38285 -1.37486 0
M  V30 8469 O 812.316 -0.538171 -1.88363 0
M  V30 8470 H 810.896 -0.746757 -0.0190469 0
M  V30 8471 H 813.558 -1.83449 0.658227 0
M  V30 8472 H 812.654 -3.11619 -0.173129 0
M  V30 8473 N 812.955 -0.234822 -1.55841 0
M  V30 8474 C 813.905 0.68346 -2.17515 0
M  V30 8475 C 814.889 1.14798 -1.1274 0
M  V30 8476 O 816.081 1.09976 -1.38688 0
M  V30 8477 C 813.21 1.88551 -2.86886 0
M  V30 8478 C 812.296 1.44006 -3.98903 0
M  V30 8479 N 812.687 0.708034 -5.0082 0
M  V30 8480 C 810.985 1.7263 -4.11236 0
M  V30 8481 C 811.686 0.479036 -5.79724 0
M  V30 8482 N 810.662 1.03968 -5.33565 0
M  V30 8483 H 814.464 0.115897 -2.93671 0
M  V30 8484 H 811.978 -0.0366273 -1.62359 0
M  V30 8485 H 813.975 2.55425 -3.2949 0
M  V30 8486 H 812.635 2.45742 -2.12229 0
M  V30 8487 H 813.646 0.359363 -5.16652 0
M  V30 8488 H 810.323 2.31046 -3.47741 0
M  V30 8489 H 811.713 -0.104514 -6.71819 0
M  V30 8490 N 814.433 1.57553 0.0384317 0
M  V30 8491 C 815.38 2.05942 1.04194 0
M  V30 8492 C 816.35 0.946637 1.36484 0
M  V30 8493 O 817.535 1.21658 1.46983 0
M  V30 8494 C 814.675 2.53588 2.34066 0
M  V30 8495 C 813.788 3.7862 2.08017 0
M  V30 8496 C 812.923 4.14915 3.31692 0
M  V30 8497 C 811.962 5.32891 3.01155 0
M  V30 8498 N 811.099 5.64662 4.17254 0
M  V30 8499 H 815.939 2.91429 0.622341 0
M  V30 8500 H 813.476 1.44098 0.295684 0
M  V30 8501 H 815.434 2.79276 3.09937 0
M  V30 8502 H 814.064 1.71031 2.73767 0
M  V30 8503 H 813.116 3.60073 1.22686 0
M  V30 8504 H 814.428 4.64613 1.81484 0
M  V30 8505 H 813.582 4.41681 4.15936 0
M  V30 8506 H 812.321 3.27555 3.6133 0
M  V30 8507 H 811.326 5.05887 2.15311 0
M  V30 8508 H 812.551 6.21896 2.72804 0
M  V30 8509 H 810.497 4.80261 4.46861 0
M  V30 8510 H 810.414 6.45145 3.94112 0
M  V30 8511 H 811.682 5.96 5.02399 0
M  V30 8512 N 815.911 -0.310526 1.54511 0
M  V30 8513 C 817.327 -0.655637 1.45511 0
M  V30 8514 C 817.527 -1.91114 0.638564 0
M  V30 8515 O 816.583 -2.52098 0.142497 0
M  V30 8516 C 817.896 -0.817501 2.89374 0
M  V30 8517 C 819.444 -0.914003 2.99358 0
M  V30 8518 C 819.919 -1.10794 4.44397 0
M  V30 8519 N 821.41 -1.17437 4.48066 0
M  V30 8520 C 822.145 -1.34255 5.57461 0
M  V30 8521 N 821.641 -1.48032 6.768 0
M  V30 8522 N 823.434 -1.37067 5.45132 0
M  V30 8523 H 815.585 0.514506 2.06074 0
M  V30 8524 H 817.848 0.168478 0.932909 0
M  V30 8525 H 817.554 0.034003 3.51684 0
M  V30 8526 H 817.428 -1.7094 3.36243 0
M  V30 8527 H 819.815 -1.756 2.37168 0
M  V30 8528 H 819.896 0.00170958 2.558 0
M  V30 8529 H 819.54 -0.270743 5.07178 0
M  V30 8530 H 819.47 -2.03773 4.85576 0
M  V30 8531 H 821.961 -1.08181 3.62084 0
M  V30 8532 H 822.274 -1.60593 7.5593 0
M  V30 8533 H 820.619 -1.45105 6.79683 0
M  V30 8534 H 823.81 -1.25909 4.50849 0
M  V30 8535 H 823.983 -1.49831 6.3044 0
M  V30 8536 N 817.389 -1.46805 -0.573248 0
M  V30 8537 C 818.637 -1.52302 -1.32847 0
M  V30 8538 C 818.958 -0.180159 -1.94166 0
M  V30 8539 O 818.228 0.794291 -1.79075 0
M  V30 8540 H 816.808 -0.56097 -0.493276 0
M  V30 8541 H 819.47 -1.82998 -0.670642 0
M  V30 8542 H 818.566 -2.28089 -2.13031 0
M  V30 8543 N 818.867 0.818669 -1.34668 0
M  V30 8544 C 819.817 1.91882 -1.23147 0
M  V30 8545 C 820.801 1.60378 -0.129509 0
M  V30 8546 O 821.993 1.73309 -0.359581 0
M  V30 8547 C 819.122 3.28612 -0.993436 0
M  V30 8548 C 818.208 3.66221 -2.13876 0
M  V30 8549 N 818.599 3.75361 -3.39024 0
M  V30 8550 C 816.897 3.96098 -2.04994 0
M  V30 8551 C 817.598 4.0836 -4.14266 0
M  V30 8552 N 816.574 4.21806 -3.429 0
M  V30 8553 H 820.376 1.97133 -2.17981 0
M  V30 8554 H 817.89 1.01257 -1.26967 0
M  V30 8555 H 819.887 4.0725 -0.891797 0
M  V30 8556 H 818.547 3.24655 -0.053824 0
M  V30 8557 H 819.558 3.58747 -3.73525 0
M  V30 8558 H 816.235 4.00236 -1.18816 0
M  V30 8559 H 817.625 4.226 -5.22359 0
M  V30 8560 N 820.346 1.18468 1.03938 0
M  V30 8561 C 821.593 0.980833 1.77161 0
M  V30 8562 C 821.921 -0.489425 1.88242 0
M  V30 8563 O 821.176 -1.37961 1.388 0
M  V30 8564 C 821.475 1.58229 3.20466 0
M  V30 8565 C 821.141 3.07889 3.29416 0
M  V30 8566 C 819.803 3.48737 3.31566 0
M  V30 8567 C 822.155 4.03903 3.29411 0
M  V30 8568 C 819.483 4.84171 3.31355 0
M  V30 8569 C 821.835 5.39253 3.3074 0
M  V30 8570 C 820.499 5.79547 3.31182 0
M  V30 8571 H 819.769 0.358912 0.648277 0
M  V30 8572 H 822.416 1.47552 1.22069 0
M  V30 8573 H 820.721 1.00964 3.78568 0
M  V30 8574 H 822.418 1.39998 3.75768 0
M  V30 8575 H 819.008 2.75335 3.28464 0
M  V30 8576 H 823.192 3.73395 3.2694 0
M  V30 8577 H 818.448 5.14685 3.30015 0
M  V30 8578 H 822.622 6.13417 3.29686 0
M  V30 8579 H 820.249 6.84466 3.30772 0
M  V30 8580 N 821.824 -1.22873 0.986916 0
M  V30 8581 C 822.787 -2.2281 0.537442 0
M  V30 8582 C 823.787 -1.56331 -0.37646 0
M  V30 8583 O 824.977 -1.73376 -0.169247 0
M  V30 8584 C 822.109 -3.40195 -0.219082 0
M  V30 8585 H 823.302 -2.64089 1.42116 0
M  V30 8586 H 820.855 -1.35819 0.773488 0
M  V30 8587 H 821.59 -3.04381 -1.11905 0
M  V30 8588 H 821.375 -3.89657 0.437026 0
M  V30 8589 H 822.865 -4.14326 -0.521926 0
M  V30 8590 N 823.302 -0.75937 -1.38099 0
M  V30 8591 C 824.527 -0.327859 -2.04792 0
M  V30 8592 C 824.952 1.03752 -1.56899 0
M  V30 8593 O 824.31 1.66235 -0.723581 0
M  V30 8594 C 824.358 -0.366264 -3.58735 0
M  V30 8595 O 823.462 0.637697 -4.0744 0
M  V30 8596 H 822.803 -0.144092 -0.648177 0
M  V30 8597 H 825.333 -1.03211 -1.7666 0
M  V30 8598 H 825.343 -0.219179 -4.07411 0
M  V30 8599 H 824.018 -1.36243 -3.92951 0
M  V30 8600 H 822.595 0.454749 -3.70117 0
M  V30 8601 N 824.78 1.49157 -0.508906 0
M  V30 8602 C 826.026 2.02773 0.0328469 0
M  V30 8603 C 826.359 1.38714 1.35912 0
M  V30 8604 O 825.634 0.525536 1.87266 0
M  V30 8605 C 825.917 3.59664 0.177088 0
M  V30 8606 C 825.77 4.34239 -1.17287 0
M  V30 8607 C 827.089 4.30505 0.913977 0
M  V30 8608 H 824.208 0.736926 0.0104631 0
M  V30 8609 H 826.85 1.781 -0.661851 0
M  V30 8610 H 825 3.80818 0.768774 0
M  V30 8611 H 826.672 4.24561 -1.80404 0
M  V30 8612 H 824.915 3.96486 -1.76016 0
M  V30 8613 H 825.586 5.42397 -1.02516 0
M  V30 8614 H 828.062 4.14054 0.412084 0
M  V30 8615 H 826.938 5.40012 0.983759 0
M  V30 8616 H 827.199 3.96302 1.95951 0
M  V30 8617 N 826.258 0.243083 1.55714 0
M  V30 8618 C 827.504 -0.376428 1.99886 0
M  V30 8619 C 827.859 -1.55843 1.12831 0
M  V30 8620 O 827.152 -1.90724 0.182996 0
M  V30 8621 C 827.346 -0.839621 3.47398 0
M  V30 8622 C 827.175 0.295954 4.48725 0
M  V30 8623 C 825.945 0.769392 4.99408 0
M  V30 8624 C 828.143 1.12165 5.0192 0
M  V30 8625 N 826.125 1.87778 5.84477 0
M  V30 8626 C 827.496 2.07848 5.84123 0
M  V30 8627 C 829.551 1.15864 4.84231 0
M  V30 8628 C 828.254 3.06937 6.50524 0
M  V30 8629 C 830.28 2.13782 5.51409 0
M  V30 8630 C 829.642 3.08202 6.33396 0
M  V30 8631 H 825.741 -0.103809 0.775079 0
M  V30 8632 H 828.325 0.359788 1.91347 0
M  V30 8633 H 826.496 -1.54514 3.56343 0
M  V30 8634 H 828.228 -1.43376 3.78451 0
M  V30 8635 H 824.983 0.354201 4.72274 0
M  V30 8636 H 825.407 2.43462 6.31708 0
M  V30 8637 H 830.049 0.442532 4.20478 0
M  V30 8638 H 827.767 3.79499 7.13447 0
M  V30 8639 H 831.353 2.17345 5.39678 0
M  V30 8640 H 830.233 3.82732 6.8446 0
M  V30 8641 N 827.736 -1.57571 -0.0300757 0
M  V30 8642 C 828.668 -2.0329 -1.05857 0
M  V30 8643 C 829.681 -0.945543 -1.32527 0
M  V30 8644 O 830.87 -1.22287 -1.30032 0
M  V30 8645 C 827.97 -2.39234 -2.40042 0
M  V30 8646 C 827.143 -3.70337 -2.32743 0
M  V30 8647 C 826.202 -3.93482 -3.49369 0
M  V30 8648 O 825.228 -4.64551 -3.28909 0
M  V30 8649 N 826.43 -3.39042 -4.71201 0
M  V30 8650 H 829.195 -2.9214 -0.668897 0
M  V30 8651 H 826.756 -1.60425 -0.218038 0
M  V30 8652 H 828.748 -2.51856 -3.16782 0
M  V30 8653 H 827.318 -1.5606 -2.70858 0
M  V30 8654 H 826.538 -3.68079 -1.41109 0
M  V30 8655 H 827.826 -4.56343 -2.25007 0
M  V30 8656 H 827.224 -2.81434 -4.90725 0
M  V30 8657 H 825.781 -3.57045 -5.45309 0
M  V30 8658 N 829.214 0.302327 -1.54673 0
M  V30 8659 C 830.63 0.647911 -1.45857 0
M  V30 8660 C 830.83 1.90773 -0.64869 0
M  V30 8661 O 829.886 2.52018 -0.155865 0
M  V30 8662 C 831.199 0.802144 -2.89804 0
M  V30 8663 C 832.747 0.898114 -2.99838 0
M  V30 8664 C 833.222 1.08436 -4.44978 0
M  V30 8665 N 834.713 1.15059 -4.48682 0
M  V30 8666 C 835.448 1.31296 -5.58166 0
M  V30 8667 N 834.944 1.4444 -6.77576 0
M  V30 8668 N 836.737 1.34174 -5.45851 0
M  V30 8669 H 828.888 -0.525428 -2.05798 0
M  V30 8670 H 831.151 -0.173423 -0.932002 0
M  V30 8671 H 830.857 -0.0526531 -3.51661 0
M  V30 8672 H 830.731 1.69155 -3.37145 0
M  V30 8673 H 833.118 1.7434 -2.38096 0
M  V30 8674 H 833.199 -0.0152752 -2.55795 0
M  V30 8675 H 832.843 0.243843 -5.07314 0
M  V30 8676 H 832.773 2.01195 -4.8665 0
M  V30 8677 H 835.264 1.0626 -3.62653 0
M  V30 8678 H 835.577 1.56582 -7.56771 0
M  V30 8679 H 833.922 1.41499 -6.80443 0
M  V30 8680 H 837.113 1.23516 -4.5151 0
M  V30 8681 H 837.286 1.46485 -6.31226 0
M  V30 8682 N 830.692 1.47107 0.565454 0
M  V30 8683 C 831.917 1.57153 1.35343 0
M  V30 8684 C 832.342 0.219247 1.86818 0
M  V30 8685 O 831.7 -0.803539 1.62521 0
M  V30 8686 C 831.748 2.59387 2.50501 0
M  V30 8687 O 830.852 2.14086 3.52478 0
M  V30 8688 H 830.193 0.528209 0.402357 0
M  V30 8689 H 832.723 1.92821 0.684189 0
M  V30 8690 H 832.733 2.79546 2.97184 0
M  V30 8691 H 831.408 3.57579 2.12391 0
M  V30 8692 H 829.985 2.03991 3.12157 0
M  V30 8693 N 832.17 -0.811516 1.35101 0
M  V30 8694 C 833.1 -1.9378 1.30275 0
M  V30 8695 C 834.081 -1.69165 0.178075 0
M  V30 8696 O 835.266 -1.90599 0.372256 0
M  V30 8697 C 832.396 -3.30439 1.06899 0
M  V30 8698 C 831.35 -3.69523 2.15955 0
M  V30 8699 C 830.676 -5.0429 1.77751 0
M  V30 8700 C 831.976 -3.80419 3.57881 0
M  V30 8701 H 833.67 -1.98075 2.24514 0
M  V30 8702 H 831.216 -0.951586 1.08078 0
M  V30 8703 H 833.169 -4.08828 1.02164 0
M  V30 8704 H 831.893 -3.26473 0.0910462 0
M  V30 8705 H 830.552 -2.93416 2.19778 0
M  V30 8706 H 830.2 -4.96823 0.785876 0
M  V30 8707 H 829.9 -5.31411 2.5075 0
M  V30 8708 H 831.424 -5.85125 1.74533 0
M  V30 8709 H 832.838 -4.49051 3.56407 0
M  V30 8710 H 831.235 -4.19005 4.29598 0
M  V30 8711 H 832.305 -2.82105 3.94391 0
M  V30 8712 N 833.648 -1.19017 -1.03309 0
M  V30 8713 C 834.878 -1.01387 -1.80012 0
M  V30 8714 C 835.286 0.440655 -1.83997 0
M  V30 8715 O 834.629 1.31786 -1.27977 0
M  V30 8716 C 834.691 -1.50171 -3.26633 0
M  V30 8717 C 834.355 -2.98213 -3.46292 0
M  V30 8718 C 835.352 -3.96009 -3.36857 0
M  V30 8719 C 833.037 -3.36812 -3.72643 0
M  V30 8720 C 835.031 -5.30399 -3.5349 0
M  V30 8721 C 832.718 -4.71363 -3.88922 0
M  V30 8722 C 833.716 -5.67966 -3.79347 0
M  V30 8723 O 833.404 -7.00079 -3.95151 0
M  V30 8724 H 833.136 -0.357899 -0.573484 0
M  V30 8725 H 835.69 -1.58171 -1.31039 0
M  V30 8726 H 833.92 -0.877586 -3.7661 0
M  V30 8727 H 835.609 -1.28814 -3.84918 0
M  V30 8728 H 836.375 -3.67534 -3.16455 0
M  V30 8729 H 832.254 -2.62175 -3.7919 0
M  V30 8730 H 835.798 -6.05786 -3.45933 0
M  V30 8731 H 831.695 -4.99536 -4.0882 0
M  V30 8732 H 832.463 -7.07092 -4.12266 0
M  V30 8733 N 835.127 1.22348 -0.993418 0
M  V30 8734 C 836.075 2.26315 -0.537052 0
M  V30 8735 C 837.069 1.643 0.412545 0
M  V30 8736 O 838.275 1.77729 0.285008 0
M  V30 8737 H 834.65 0.735792 -0.155286 0
M  V30 8738 H 836.621 2.62157 -1.42535 0
M  V30 8739 C 835.37 3.47449 0.132118 0
M  V30 8740 H 834.693 3.9543 -0.589519 0
M  V30 8741 H 836.133 4.21965 0.414884 0
M  V30 8742 C 834.592 3.07893 1.36761 0
M  V30 8743 O 835.122 3.17338 2.46291 0
M  V30 8744 N 833.328 2.62672 1.24305 0
M  V30 8745 H 832.875 2.55186 0.351826 0
M  V30 8746 H 832.833 2.36574 2.07076 0
M  V30 8747 N 836.605 0.766683 1.37694 0
M  V30 8748 C 837.851 0.329201 2.0011 0
M  V30 8749 C 838.184 -1.09004 1.60723 0
M  V30 8750 O 837.459 -1.74895 0.850989 0
M  V30 8751 C 837.742 0.466989 3.57059 0
M  V30 8752 C 837.595 1.92828 4.06371 0
M  V30 8753 C 838.914 -0.131792 4.39903 0
M  V30 8754 H 836.033 0.12109 0.726984 0
M  V30 8755 H 838.675 0.968779 1.63446 0
M  V30 8756 H 836.825 -0.0775023 3.88423 0
M  V30 8757 H 838.497 2.53208 3.85595 0
M  V30 8758 H 836.74 2.43884 3.58752 0
M  V30 8759 H 837.411 1.97577 5.15429 0
M  V30 8760 H 839.887 0.332731 4.14768 0
M  V30 8761 H 838.763 -0.005217 5.489 0
M  V30 8762 H 839.024 -1.22156 4.24889 0
M  V30 8763 N 838.083 -1.48885 0.516809 0
M  V30 8764 C 839.031 -2.31066 -0.266656 0
M  V30 8765 C 840.025 -1.40393 -0.94795 0
M  V30 8766 O 841.231 -1.57366 -0.873836 0
M  V30 8767 H 837.606 -0.744654 -0.104858 0
M  V30 8768 H 839.577 -2.95045 0.446236 0
M  V30 8769 C 838.326 -3.22131 -1.3087 0
M  V30 8770 H 837.649 -3.91839 -0.793865 0
M  V30 8771 H 839.089 -3.82544 -1.82856 0
M  V30 8772 C 837.548 -2.42825 -2.33533 0
M  V30 8773 O 838.078 -2.14364 -3.39722 0
M  V30 8774 N 836.284 -2.04559 -2.06407 0
M  V30 8775 H 835.831 -2.27905 -1.20071 0
M  V30 8776 H 835.789 -1.51807 -2.75322 0
M  V30 8777 N 839.561 -0.251338 -1.55583 0
M  V30 8778 C 840.809 0.371434 -1.98657 0
M  V30 8779 C 841.13 1.58143 -1.14087 0
M  V30 8780 O 840.4 1.94607 -0.224708 0
M  V30 8781 H 838.98 0.140225 -0.733721 0
M  V30 8782 H 841.642 -0.351157 -1.9171 0
M  V30 8783 H 840.738 0.677554 -3.04657 0
M  V30 8784 N 841.039 1.57585 0.0217189 0
M  V30 8785 C 841.969 2.10073 1.01939 0
M  V30 8786 C 842.95 1.0049 1.37243 0
M  V30 8787 O 844.135 1.28055 1.45999 0
M  V30 8788 C 841.265 2.58618 2.31806 0
M  V30 8789 C 840.219 3.72531 2.10724 0
M  V30 8790 C 839.545 4.07309 3.46415 0
M  V30 8791 C 840.845 5.00672 1.48743 0
M  V30 8792 H 842.539 2.9368 0.582432 0
M  V30 8793 H 840.085 1.41277 0.278715 0
M  V30 8794 H 842.038 2.9396 3.01936 0
M  V30 8795 H 840.762 1.72104 2.77575 0
M  V30 8796 H 839.421 3.37549 1.43025 0
M  V30 8797 H 839.069 3.17851 3.89846 0
M  V30 8798 H 838.769 4.84042 3.33132 0
M  V30 8799 H 840.293 4.45192 4.17895 0
M  V30 8800 H 841.707 5.33925 2.088 0
M  V30 8801 H 840.104 5.82065 1.46013 0
M  V30 8802 H 841.174 4.82769 0.45408 0
M  V30 8803 N 842.517 -0.29412 1.54831 0
M  V30 8804 C 843.464 -1.36296 1.86258 0
M  V30 8805 C 844.434 -1.50061 0.712097 0
M  V30 8806 O 845.619 -1.64809 0.961381 0
M  V30 8807 C 842.759 -2.72187 2.12151 0
M  V30 8808 C 841.872 -2.66816 3.39755 0
M  V30 8809 C 841.007 -3.94747 3.55455 0
M  V30 8810 C 840.046 -3.838 4.76827 0
M  V30 8811 N 839.183 -5.03521 4.89296 0
M  V30 8812 H 844.023 -1.08796 2.7743 0
M  V30 8813 H 841.56 -0.526069 1.37371 0
M  V30 8814 H 843.518 -3.51225 2.25159 0
M  V30 8815 H 842.148 -2.97934 1.24237 0
M  V30 8816 H 841.2 -1.79605 3.3533 0
M  V30 8817 H 842.512 -2.5462 4.28917 0
M  V30 8818 H 841.666 -4.82223 3.68166 0
M  V30 8819 H 840.405 -4.09785 2.64438 0
M  V30 8820 H 839.41 -2.94708 4.64141 0
M  V30 8821 H 840.635 -3.70301 5.69258 0
M  V30 8822 H 838.581 -5.1901 4.01204 0
M  V30 8823 H 838.498 -4.93775 5.72471 0
M  V30 8824 H 839.766 -5.92629 5.06371 0
M  V30 8825 N 843.995 -1.47404 -0.557645 0
M  V30 8826 C 844.958 -1.59411 -1.64684 0
M  V30 8827 C 845.958 -0.469244 -1.53801 0
M  V30 8828 O 847.148 -0.734298 -1.57967 0
M  V30 8829 C 844.28 -1.5382 -3.04224 0
M  V30 8830 H 845.473 -2.56504 -1.55389 0
M  V30 8831 H 843.026 -1.35588 -0.777531 0
M  V30 8832 H 843.761 -0.581 -3.19053 0
M  V30 8833 H 843.546 -2.35456 -3.13533 0
M  V30 8834 H 845.036 -1.65358 -3.83466 0
M  V30 8835 N 845.473 0.80434 -1.35529 0
M  V30 8836 C 846.405 1.92445 -1.2449 0
M  V30 8837 C 847.418 1.61934 -0.167685 0
M  V30 8838 O 848.607 1.73461 -0.42115 0
M  V30 8839 C 845.707 3.26875 -0.894751 0
M  V30 8840 C 844.88 3.85275 -2.07079 0
M  V30 8841 C 843.939 4.98116 -1.69607 0
M  V30 8842 O 842.965 5.15424 -2.41509 0
M  V30 8843 N 844.167 5.77169 -0.621012 0
M  V30 8844 H 846.932 2.02441 -2.20993 0
M  V30 8845 H 844.493 0.981874 -1.28728 0
M  V30 8846 H 846.485 3.99837 -0.625511 0
M  V30 8847 H 845.055 3.12594 -0.0193306 0
M  V30 8848 H 844.275 3.0448 -2.5037 0
M  V30 8849 H 845.563 4.21024 -2.85685 0
M  V30 8850 H 844.961 5.65695 -0.0236679 0
M  V30 8851 H 843.518 6.50499 -0.411558 0
M  V30 8852 N 846.951 1.19563 1.02676 0
M  V30 8853 C 848.362 1.00158 1.57561 0
M  V30 8854 C 848.713 -0.444922 1.91089 0
M  V30 8855 O 847.838 -1.32466 1.71119 0
M  V30 8856 C 848.433 1.81181 2.86284 0
M  V30 8857 C 846.992 1.66171 3.37734 0
M  V30 8858 C 846.139 1.7975 2.11152 0
M  V30 8859 H 849.09 1.33904 0.85179 0
M  V30 8860 H 849.111 1.30916 3.57269 0
M  V30 8861 H 848.623 2.86454 2.6185 0
M  V30 8862 H 846.724 0.634927 3.6715 0
M  V30 8863 H 846.837 2.46832 4.10622 0
M  V30 8864 H 845.201 1.22833 2.23123 0
M  V30 8865 H 845.984 2.86487 1.89157 0
M  V30 8866 N 848.429 -1.21819 0.999893 0
M  V30 8867 C 849.675 -1.91325 0.690373 0
M  V30 8868 C 850.03 -1.76323 -0.769929 0
M  V30 8869 O 849.323 -1.12585 -1.55033 0
M  V30 8870 C 849.517 -3.4193 1.04012 0
M  V30 8871 C 849.346 -3.71585 2.53287 0
M  V30 8872 C 848.116 -3.91219 3.19806 0
M  V30 8873 C 850.314 -3.75502 3.5143 0
M  V30 8874 N 848.296 -4.08246 4.58485 0
M  V30 8875 C 849.667 -3.97753 4.75597 0
M  V30 8876 C 851.722 -3.58383 3.45638 0
M  V30 8877 C 850.425 -4.04662 5.94677 0
M  V30 8878 C 852.451 -3.66555 4.64103 0
M  V30 8879 C 851.813 -3.89263 5.87072 0
M  V30 8880 H 847.912 -0.720484 0.304018 0
M  V30 8881 H 850.496 -1.46595 1.28133 0
M  V30 8882 H 848.667 -3.85452 0.477671 0
M  V30 8883 H 850.399 -3.98846 0.685864 0
M  V30 8884 H 847.154 -3.88917 2.7026 0
M  V30 8885 H 847.578 -4.20673 5.30437 0
M  V30 8886 H 852.22 -3.39807 2.51576 0
M  V30 8887 H 849.938 -4.22039 6.89136 0
M  V30 8888 H 853.524 -3.54639 4.61218 0
M  V30 8889 H 852.404 -3.95424 6.77207 0
M  V30 8890 N 849.908 -0.773975 -1.37286 0
M  V30 8891 C 851.154 -0.348833 -2.00386 0
M  V30 8892 C 851.509 1.06347 -1.60337 0
M  V30 8893 O 850.802 1.72178 -0.840545 0
M  V30 8894 C 850.996 -0.432651 -3.54772 0
M  V30 8895 C 850.825 -1.85155 -4.09814 0
M  V30 8896 C 849.595 -2.47272 -4.40664 0
M  V30 8897 C 851.793 -2.8114 -4.30656 0
M  V30 8898 N 849.775 -3.80912 -4.81435 0
M  V30 8899 C 851.146 -3.99582 -4.74061 0
M  V30 8900 C 853.201 -2.78398 -4.12794 0
M  V30 8901 C 851.904 -5.1567 -5.01475 0
M  V30 8902 C 853.93 -3.9366 -4.41345 0
M  V30 8903 C 853.292 -5.10844 -4.84992 0
M  V30 8904 H 849.391 -0.174738 -0.762227 0
M  V30 8905 H 851.975 -1.00828 -1.66559 0
M  V30 8906 H 850.146 0.19663 -3.87902 0
M  V30 8907 H 851.878 0.0147601 -4.04697 0
M  V30 8908 H 848.633 -1.98872 -4.29822 0
M  V30 8909 H 849.057 -4.49628 -5.06126 0
M  V30 8910 H 853.699 -1.8897 -3.7822 0
M  V30 8911 H 851.417 -6.05696 -5.34938 0
M  V30 8912 H 855.003 -3.92882 -4.2911 0
M  V30 8913 H 853.883 -5.98553 -5.0666 0
M  V30 8914 N 851.386 1.48609 -0.524698 0
M  V30 8915 C 852.614 2.06899 0.00742946 0
M  V30 8916 C 853.029 1.38196 1.28637 0
M  V30 8917 O 852.386 0.467771 1.76403 0
M  V30 8918 C 852.437 3.60699 0.240548 0
M  V30 8919 O 852.158 4.26821 -0.987715 0
M  V30 8920 C 853.659 4.35769 0.813652 0
M  V30 8921 H 850.879 0.670278 -0.0311294 0
M  V30 8922 H 853.423 1.91071 -0.728832 0
M  V30 8923 H 851.578 3.76149 0.926845 0
M  V30 8924 H 851.992 5.18889 -0.765175 0
M  V30 8925 H 853.466 5.44174 0.926219 0
M  V30 8926 H 853.943 3.9984 1.81728 0
M  V30 8927 H 854.549 4.24983 0.164086 0
M  V30 8928 N 852.864 0.259585 1.55447 0
M  V30 8929 C 854.275 -0.241165 1.85136 0
M  V30 8930 C 854.626 -1.56634 1.18153 0
M  V30 8931 O 853.751 -2.11359 0.464351 0
M  V30 8932 C 854.346 -0.444355 3.35873 0
M  V30 8933 C 852.905 -0.889354 3.65742 0
M  V30 8934 C 852.052 0.0262474 2.77288 0
M  V30 8935 H 855.003 0.481808 1.51209 0
M  V30 8936 H 855.024 -1.28517 3.58139 0
M  V30 8937 H 854.536 0.520289 3.84597 0
M  V30 8938 H 852.637 -1.86602 3.22507 0
M  V30 8939 H 852.75 -0.737432 4.73391 0
M  V30 8940 H 851.114 -0.487361 2.49994 0
M  V30 8941 H 851.897 0.986494 3.28821 0
M  V30 8942 N 854.342 -1.57594 -0.0133615 0
M  V30 8943 C 855.289 -2.07574 -1.00905 0
M  V30 8944 C 856.259 -0.968231 -1.34961 0
M  V30 8945 O 857.444 -1.23981 -1.45028 0
M  V30 8946 C 854.584 -2.5728 -2.30002 0
M  V30 8947 C 853.697 -3.81881 -2.01967 0
M  V30 8948 C 852.832 -4.20139 -3.25049 0
M  V30 8949 C 851.871 -5.37614 -2.92639 0
M  V30 8950 N 851.008 -5.71229 -4.08218 0
M  V30 8951 H 855.848 -2.92382 -0.575899 0
M  V30 8952 H 853.385 -1.4455 -0.272722 0
M  V30 8953 H 855.343 -2.84171 -3.05454 0
M  V30 8954 H 853.973 -1.75365 -2.71011 0
M  V30 8955 H 853.025 -3.61979 -1.16942 0
M  V30 8956 H 854.337 -4.67441 -1.74069 0
M  V30 8957 H 853.491 -4.48242 -4.08857 0
M  V30 8958 H 852.23 -3.33262 -3.56073 0
M  V30 8959 H 851.235 -5.09248 -2.07235 0
M  V30 8960 H 852.46 -6.26157 -2.62876 0
M  V30 8961 H 850.406 -4.8731 -4.39164 0
M  V30 8962 H 850.323 -6.51333 -3.83799 0
M  V30 8963 H 851.591 -6.03917 -4.92854 0
M  V30 8964 N 855.82 0.285905 -1.54985 0
M  V30 8965 C 856.73 1.37534 -1.90057 0
M  V30 8966 C 857.746 1.54707 -0.796348 0
M  V30 8967 O 858.922 1.69082 -1.09423 0
M  V30 8968 C 855.987 2.7167 -2.15398 0
M  V30 8969 C 855.048 2.63354 -3.39033 0
M  V30 8970 C 854.281 3.91093 -3.63155 0
M  V30 8971 O 854.504 4.91169 -2.90015 0
M  V30 8972 O 853.438 3.92075 -4.56685 0
M  V30 8973 H 857.264 1.10791 -2.8277 0
M  V30 8974 H 854.849 0.483303 -1.41367 0
M  V30 8975 H 856.731 3.51006 -2.33179 0
M  V30 8976 H 855.406 2.98226 -1.25868 0
M  V30 8977 H 854.313 1.82438 -3.26599 0
M  V30 8978 H 855.646 2.41749 -4.2874 0
M  V30 8979 N 857.298 1.47698 0.54982 0
M  V30 8980 C 858.526 1.5833 1.33188 0
M  V30 8981 C 858.941 0.236193 1.87317 0
M  V30 8982 O 858.298 -0.77167 1.65383 0
M  V30 8983 C 858.349 2.61438 2.49664 0
M  V30 8984 O 858.07 3.9092 1.97771 0
M  V30 8985 C 859.571 2.82324 3.41772 0
M  V30 8986 H 856.791 0.53443 0.405741 0
M  V30 8987 H 859.335 1.93375 0.665309 0
M  V30 8988 H 857.49 2.29307 3.12245 0
M  V30 8989 H 857.904 4.47323 2.73866 0
M  V30 8990 H 859.378 3.58316 4.19897 0
M  V30 8991 H 859.855 1.90416 3.95776 0
M  V30 8992 H 860.461 3.15682 2.85 0
M  V30 8993 N 858.776 -0.797141 1.35954 0
M  V30 8994 C 860.024 -1.55161 1.29497 0
M  V30 8995 C 860.345 -1.94582 -0.127659 0
M  V30 8996 O 859.615 -1.64343 -1.06622 0
M  V30 8997 H 858.195 -0.575413 0.47635 0
M  V30 8998 H 860.857 -0.950282 1.70164 0
M  V30 8999 H 859.953 -2.46272 1.9172 0
M  V30 9000 N 860.254 -1.20106 -1.0204 0
M  V30 9001 C 861.484 -1.0329 -1.78927 0
M  V30 9002 C 861.892 0.421115 -1.84454 0
M  V30 9003 O 861.235 1.30422 -1.29367 0
M  V30 9004 C 861.297 -1.53627 -3.25021 0
M  V30 9005 C 860.961 -3.01869 -3.4311 0
M  V30 9006 C 861.958 -3.9956 -3.32638 0
M  V30 9007 C 859.643 -3.40746 -3.6905 0
M  V30 9008 C 861.637 -5.34119 -3.47844 0
M  V30 9009 C 859.324 -4.75462 -3.839 0
M  V30 9010 C 860.322 -5.71957 -3.73302 0
M  V30 9011 O 860.01 -7.04231 -3.87703 0
M  V30 9012 H 859.742 -0.363962 -0.569656 0
M  V30 9013 H 862.296 -1.59551 -1.29354 0
M  V30 9014 H 860.526 -0.917481 -3.75658 0
M  V30 9015 H 862.215 -1.32889 -3.8353 0
M  V30 9016 H 862.981 -3.70869 -3.12539 0
M  V30 9017 H 858.86 -2.66182 -3.76388 0
M  V30 9018 H 862.404 -6.09421 -3.39488 0
M  V30 9019 H 858.301 -5.03844 -4.03499 0
M  V30 9020 H 859.069 -7.11425 -4.04744 0
M  V30 9021 N 861.732 1.21287 -1.00634 0
M  V30 9022 C 862.96 1.94385 -0.708678 0
M  V30 9023 C 863.375 1.7416 0.728957 0
M  V30 9024 O 862.732 1.04906 1.49335 0
M  V30 9025 C 862.783 3.46755 -1.02193 0
M  V30 9026 O 862.504 3.6631 -2.40309 0
M  V30 9027 C 864.005 4.37014 -0.743867 0
M  V30 9028 H 861.225 0.618136 -0.261052 0
M  V30 9029 H 863.769 1.54067 -1.34475 0
M  V30 9030 H 861.924 3.8499 -0.431441 0
M  V30 9031 H 862.338 4.60393 -2.51274 0
M  V30 9032 H 863.812 5.42621 -1.01321 0
M  V30 9033 H 864.289 4.38017 0.322084 0
M  V30 9034 H 864.895 4.04426 -1.31603 0
M  V30 9035 N 863.21 0.781244 1.36873 0
M  V30 9036 C 864.12 0.174981 2.33947 0
M  V30 9037 C 865.136 -0.668512 1.60645 0
M  V30 9038 O 866.312 -0.586213 1.9268 0
M  V30 9039 C 863.377 -0.686557 3.39834 0
M  V30 9040 C 862.438 0.174489 4.28945 0
M  V30 9041 C 861.671 -0.646024 5.29776 0
M  V30 9042 O 861.894 -1.88254 5.38439 0
M  V30 9043 O 860.828 -0.0502214 6.01879 0
M  V30 9044 H 864.654 0.977382 2.87543 0
M  V30 9045 H 862.239 0.542559 1.392 0
M  V30 9046 H 864.121 -1.1781 4.04597 0
M  V30 9047 H 862.796 -1.46699 2.8855 0
M  V30 9048 H 861.703 0.712604 3.6725 0
M  V30 9049 H 863.036 0.918232 4.83559 0
M  V30 9050 N 864.689 -1.48329 0.532571 0
M  V30 9051 C 865.619 -2.32485 -0.217511 0
M  V30 9052 C 866.6 -1.42255 -0.932598 0
M  V30 9053 O 867.785 -1.7114 -0.917873 0
M  V30 9054 C 864.915 -3.23509 -1.26329 0
M  V30 9055 C 863.869 -4.22784 -0.666191 0
M  V30 9056 C 863.195 -5.0296 -1.81482 0
M  V30 9057 C 864.495 -5.21031 0.363813 0
M  V30 9058 H 866.189 -2.95445 0.485014 0
M  V30 9059 H 863.735 -1.42075 0.234694 0
M  V30 9060 H 865.688 -3.81211 -1.79601 0
M  V30 9061 H 864.412 -2.58554 -1.99543 0
M  V30 9062 H 863.071 -3.66272 -0.15498 0
M  V30 9063 H 862.719 -4.34427 -2.5354 0
M  V30 9064 H 862.419 -5.70154 -1.4212 0
M  V30 9065 H 863.943 -5.63514 -2.35126 0
M  V30 9066 H 865.357 -5.73241 -0.0819079 0
M  V30 9067 H 863.754 -5.96292 0.674956 0
M  V30 9068 H 864.824 -4.6801 1.26865 0
M  V30 9069 N 866.167 -0.267825 -1.55308 0
M  V30 9070 C 867.413 0.351556 -1.9973 0
M  V30 9071 C 867.746 1.56049 -1.15596 0
M  V30 9072 O 867.021 1.93203 -0.224274 0
M  V30 9073 C 867.304 0.74091 -3.52395 0
M  V30 9074 C 867.157 -0.474861 -4.47286 0
M  V30 9075 C 868.476 1.5801 -4.10756 0
M  V30 9076 H 865.595 0.126308 -0.726096 0
M  V30 9077 H 868.237 -0.373316 -1.86296 0
M  V30 9078 H 866.387 1.35851 -3.63973 0
M  V30 9079 H 868.059 -1.1134 -4.47662 0
M  V30 9080 H 866.302 -1.11425 -4.19246 0
M  V30 9081 H 866.973 -0.158782 -5.51772 0
M  V30 9082 H 869.449 1.05857 -4.0241 0
M  V30 9083 H 868.325 1.82135 -5.17801 0
M  V30 9084 H 868.586 2.55878 -3.60526 0
M  V30 9085 N 867.645 1.57599 0.00500368 0
M  V30 9086 C 868.592 2.08106 0.998025 0
M  V30 9087 C 869.562 0.975374 1.34446 0
M  V30 9088 O 870.747 1.24749 1.44369 0
M  V30 9089 C 867.887 2.58496 2.28635 0
M  V30 9090 C 867 3.82947 1.99939 0
M  V30 9091 C 866.135 4.21857 3.22816 0
M  V30 9092 C 865.174 5.39159 2.89783 0
M  V30 9093 N 864.311 5.73386 4.05183 0
M  V30 9094 H 869.151 2.92684 0.560385 0
M  V30 9095 H 866.688 1.44692 0.265053 0
M  V30 9096 H 868.646 2.85787 3.03943 0
M  V30 9097 H 867.276 1.768 2.70077 0
M  V30 9098 H 866.328 3.62594 1.1502 0
M  V30 9099 H 867.64 4.68358 1.71588 0
M  V30 9100 H 866.794 4.50404 4.06474 0
M  V30 9101 H 865.533 3.35145 3.54301 0
M  V30 9102 H 864.538 5.1034 2.04532 0
M  V30 9103 H 865.763 6.27543 2.59551 0
M  V30 9104 H 863.709 4.89632 4.36574 0
M  V30 9105 H 863.626 6.53359 3.80339 0
M  V30 9106 H 864.894 6.06522 4.89644 0
M  V30 9107 N 869.123 -0.277682 1.55134 0
M  V30 9108 C 870.348 -1.03254 1.7987 0
M  V30 9109 C 870.773 -1.79324 0.567861 0
M  V30 9110 O 870.131 -1.74764 -0.4824 0
M  V30 9111 C 870.179 -1.9705 3.02 0
M  V30 9112 O 869.283 -3.05744 2.76757 0
M  V30 9113 H 868.624 -0.295447 0.594649 0
M  V30 9114 H 871.154 -0.308013 2.02268 0
M  V30 9115 H 871.164 -2.3909 3.30606 0
M  V30 9116 H 869.839 -1.41094 3.91236 0
M  V30 9117 H 868.416 -2.68052 2.59235 0
M  V30 9118 N 870.601 -1.47988 -0.541979 0
M  V30 9119 C 871.531 -1.64503 -1.65713 0
M  V30 9120 C 872.512 -0.494116 -1.62765 0
M  V30 9121 O 873.697 -0.725256 -1.80149 0
M  V30 9122 C 870.827 -1.67337 -3.04328 0
M  V30 9123 C 869.781 -2.81809 -3.2213 0
M  V30 9124 C 869.107 -2.69724 -4.61685 0
M  V30 9125 C 870.407 -4.23241 -3.06046 0
M  V30 9126 H 872.101 -2.5786 -1.52147 0
M  V30 9127 H 869.647 -1.24094 -0.730529 0
M  V30 9128 H 871.6 -1.77481 -3.82202 0
M  V30 9129 H 870.324 -0.705514 -3.18889 0
M  V30 9130 H 868.983 -2.71201 -2.46669 0
M  V30 9131 H 868.631 -1.70934 -4.73065 0
M  V30 9132 H 868.331 -3.4653 -4.74543 0
M  V30 9133 H 869.855 -2.81818 -5.41674 0
M  V30 9134 H 871.269 -4.34746 -3.73723 0
M  V30 9135 H 869.666 -5.00952 -3.30405 0
M  V30 9136 H 870.736 -4.40543 -2.02609 0
M  V30 9137 N 872.079 0.78992 -1.36375 0
M  V30 9138 C 872.989 1.93386 -1.32812 0
M  V30 9139 C 874.005 1.72468 -0.230377 0
M  V30 9140 O 875.181 1.96014 -0.462657 0
M  V30 9141 C 872.246 3.2824 -1.11621 0
M  V30 9142 C 871.307 3.61939 -2.30865 0
M  V30 9143 C 870.54 4.90359 -2.10675 0
M  V30 9144 O 870.763 5.6005 -1.08168 0
M  V30 9145 O 869.697 5.22702 -2.9844 0
M  V30 9146 H 873.523 1.99342 -2.29121 0
M  V30 9147 H 871.108 0.9301 -1.16917 0
M  V30 9148 H 872.99 4.08939 -1.01719 0
M  V30 9149 H 871.665 3.23178 -0.183732 0
M  V30 9150 H 870.572 2.81549 -2.46335 0
M  V30 9151 H 871.905 3.71725 -3.22617 0
M  V30 9152 N 873.557 1.20646 1.01402 0
M  V30 9153 C 874.973 0.961866 1.27359 0
M  V30 9154 C 875.173 -0.357083 1.98311 0
M  V30 9155 O 874.229 -1.08498 2.28001 0
M  V30 9156 C 875.542 2.14627 2.10609 0
M  V30 9157 C 877.09 2.18753 2.23866 0
M  V30 9158 C 877.565 3.36686 3.10494 0
M  V30 9159 N 879.056 3.36716 3.18083 0
M  V30 9160 C 879.791 4.24615 3.85343 0
M  V30 9161 N 879.287 5.22697 4.54708 0
M  V30 9162 N 881.08 4.12449 3.81893 0
M  V30 9163 H 873.231 2.05481 0.537721 0
M  V30 9164 H 875.494 0.899292 0.299963 0
M  V30 9165 H 875.2 3.10159 1.65814 0
M  V30 9166 H 875.074 2.12935 3.11349 0
M  V30 9167 H 877.461 1.23782 2.67885 0
M  V30 9168 H 877.542 2.24492 1.22626 0
M  V30 9169 H 877.186 4.31945 2.67181 0
M  V30 9170 H 877.116 3.28185 4.11828 0
M  V30 9171 H 879.607 2.65728 2.68695 0
M  V30 9172 H 879.92 5.86087 5.03708 0
M  V30 9173 H 878.265 5.26631 4.53525 0
M  V30 9174 H 881.456 3.35091 3.26851 0
M  V30 9175 H 881.629 4.81162 4.34035 0
M  V30 9176 N 875.035 -1.20752 1.01276 0
M  V30 9177 C 875.983 -2.25432 0.572989 0
M  V30 9178 C 876.977 -1.64935 -0.386354 0
M  V30 9179 O 878.183 -1.7816 -0.256696 0
M  V30 9180 H 874.558 -0.733229 0.166972 0
M  V30 9181 H 876.529 -2.59856 1.46687 0
M  V30 9182 C 875.278 -3.47615 -0.0768249 0
M  V30 9183 H 874.601 -3.94442 0.652354 0
M  V30 9184 H 876.041 -4.22572 -0.3477 0
M  V30 9185 C 874.5 -3.1003 -1.31845 0
M  V30 9186 O 875.03 -3.21216 -2.41211 0
M  V30 9187 N 873.236 -2.64616 -1.20111 0
M  V30 9188 H 872.783 -2.55714 -0.311184 0
M  V30 9189 H 872.741 -2.39838 -2.03286 0
M  V30 9190 N 876.513 -0.788492 -1.36457 0
M  V30 9191 C 877.759 -0.370067 -2.00005 0
M  V30 9192 C 878.114 1.0464 -1.61456 0
M  V30 9193 O 877.407 1.71277 -0.85876 0
M  V30 9194 C 877.601 -0.470255 -3.54293 0
M  V30 9195 C 877.43 -1.89492 -4.07827 0
M  V30 9196 C 876.2 -2.51932 -4.38016 0
M  V30 9197 C 878.398 -2.85692 -4.2765 0
M  V30 9198 N 876.38 -3.85997 -4.77368 0
M  V30 9199 C 877.751 -4.04588 -4.69796 0
M  V30 9200 C 879.806 -2.8276 -4.09818 0
M  V30 9201 C 878.509 -5.2096 -4.95977 0
M  V30 9202 C 880.535 -3.98319 -4.37145 0
M  V30 9203 C 879.897 -5.1596 -4.79547 0
M  V30 9204 H 875.996 -0.182813 -0.760331 0
M  V30 9205 H 878.58 -1.02589 -1.6548 0
M  V30 9206 H 876.751 0.155476 -3.88089 0
M  V30 9207 H 878.483 -0.0281643 -4.0469 0
M  V30 9208 H 875.238 -2.0342 -4.27688 0
M  V30 9209 H 875.662 -4.54971 -5.01329 0
M  V30 9210 H 880.304 -1.92971 -3.76194 0
M  V30 9211 H 878.022 -6.11335 -5.28483 0
M  V30 9212 H 881.608 -3.97411 -4.24919 0
M  V30 9213 H 880.488 -6.03893 -5.00283 0
M  V30 9214 N 877.991 1.48044 -0.54043 0
M  V30 9215 C 878.938 2.29781 0.216597 0
M  V30 9216 C 879.908 1.38021 0.924094 0
M  V30 9217 O 881.093 1.66985 0.923078 0
M  V30 9218 C 878.233 3.21623 1.2511 0
M  V30 9219 C 877.346 4.28467 0.551384 0
M  V30 9220 C 876.481 5.07477 1.56972 0
M  V30 9221 C 875.52 6.06113 0.854048 0
M  V30 9222 N 874.657 6.78143 1.81842 0
M  V30 9223 H 879.497 2.94001 -0.486578 0
M  V30 9224 H 877.034 1.44929 -0.251789 0
M  V30 9225 H 878.992 3.73279 1.8633 0
M  V30 9226 H 877.622 2.59305 1.92252 0
M  V30 9227 H 876.674 3.79997 -0.174982 0
M  V30 9228 H 877.986 4.98799 -0.0100542 0
M  V30 9229 H 877.14 5.63199 2.25592 0
M  V30 9230 H 875.879 4.37008 2.16507 0
M  V30 9231 H 874.884 5.49585 0.153838 0
M  V30 9232 H 876.109 6.78584 0.264675 0
M  V30 9233 H 874.055 6.10417 2.40265 0
M  V30 9234 H 873.972 7.44587 1.3087 0
M  V30 9235 H 875.24 7.38448 2.49628 0
M  V30 9236 N 879.47 0.276058 1.55163 0
M  V30 9237 C 880.4 -0.604633 2.25536 0
M  V30 9238 C 881.381 -1.15813 1.24585 0
M  V30 9239 O 882.566 -1.1921 1.53306 0
M  V30 9240 C 879.696 -1.78836 2.97716 0
M  V30 9241 C 878.65 -1.36635 4.05604 0
M  V30 9242 C 877.976 -2.63325 4.65364 0
M  V30 9243 C 879.276 -0.515858 5.19746 0
M  V30 9244 H 880.97 -0.0177483 2.99395 0
M  V30 9245 H 878.516 -0.00709627 1.43998 0
M  V30 9246 H 880.469 -2.41036 3.45658 0
M  V30 9247 H 879.193 -2.40109 2.21394 0
M  V30 9248 H 877.852 -0.767541 3.58475 0
M  V30 9249 H 877.5 -3.22858 3.85709 0
M  V30 9250 H 877.2 -2.358 5.38212 0
M  V30 9251 H 878.724 -3.26372 5.16056 0
M  V30 9252 H 880.138 -1.04289 5.63735 0
M  V30 9253 H 878.535 -0.335449 5.99162 0
M  V30 9254 H 879.605 0.465137 4.82664 0
M  V30 9255 N 880.948 -1.576 0.00335426 0
M  V30 9256 C 882.197 -1.89892 -0.680001 0
M  V30 9257 C 882.51 -0.878731 -1.7475 0
M  V30 9258 O 883.716 -1.09199 -2.48572 0
M  V30 9259 C 882.172 -3.37098 -1.26066 0
M  V30 9260 C 881.78 -4.4742 -0.227807 0
M  V30 9261 C 883.524 -3.78495 -1.92202 0
M  V30 9262 C 881.431 -5.85706 -0.81865 0
M  V30 9263 H 880.361 -0.708578 -0.257746 0
M  V30 9264 H 883.012 -1.83387 0.0644472 0
M  V30 9265 H 881.394 -3.38451 -2.05589 0
M  V30 9266 H 882.568 -4.57589 0.54307 0
M  V30 9267 H 880.883 -4.15064 0.333297 0
M  V30 9268 H 883.48 -4.7915 -2.37318 0
M  V30 9269 H 883.823 -3.12187 -2.75399 0
M  V30 9270 H 884.356 -3.79456 -1.19408 0
M  V30 9271 H 881.095 -6.55495 -0.0253787 0
M  V30 9272 H 880.615 -5.79196 -1.55861 0
M  V30 9273 H 882.294 -6.33469 -1.31627 0
M  V30 9274 N 882.426 0.269451 -1.5528 0
M  V30 9275 C 883.842 0.616827 -1.47199 0
M  V30 9276 C 884.042 1.89354 -0.68901 0
M  V30 9277 O 883.098 2.51631 -0.209287 0
M  V30 9278 C 884.411 0.740492 -2.9144 0
M  V30 9279 C 885.959 0.834312 -3.01676 0
M  V30 9280 C 886.434 0.989725 -4.47178 0
M  V30 9281 N 887.925 1.05516 -4.51022 0
M  V30 9282 C 888.66 1.19427 -5.60825 0
M  V30 9283 N 888.156 1.30035 -6.80487 0
M  V30 9284 N 889.949 1.22566 -5.48575 0
M  V30 9285 H 882.1 -0.568962 -2.04638 0
M  V30 9286 H 884.363 -0.193153 -0.928114 0
M  V30 9287 H 884.069 -0.127234 -3.5147 0
M  V30 9288 H 883.943 1.61965 -3.40657 0
M  V30 9289 H 886.33 1.6925 -2.4174 0
M  V30 9290 H 886.411 -0.0695298 -2.55705 0
M  V30 9291 H 886.055 0.136179 -5.07717 0
M  V30 9292 H 885.985 1.90827 -4.90808 0
M  V30 9293 H 888.476 0.985434 -3.64825 0
M  V30 9294 H 888.789 1.40494 -7.59922 0
M  V30 9295 H 887.134 1.27033 -6.83292 0
M  V30 9296 H 890.325 1.13911 -4.54029 0
M  V30 9297 H 890.498 1.33063 -6.34191 0
M  V30 9298 N 883.904 1.48273 0.534124 0
M  V30 9299 C 885.181 1.46567 1.29528 0
M  V30 9300 C 885.561 0.17509 2.10373 0
M  V30 9301 O 884.909 -0.843228 2.12372 0
M  V30 9302 C 885.119 2.72519 2.18023 0
M  V30 9303 C 886.467 3.2068 2.78298 0
M  V30 9304 O 887.491 2.73408 2.28313 0
M  V30 9305 O 886.35 4.02924 3.69208 0
M  V30 9306 H 883.444 0.585151 0.584403 0
M  V30 9307 H 885.99 1.60502 0.551119 0
M  V30 9308 H 884.762 3.57965 1.5804 0
M  V30 9309 H 884.385 2.61285 2.99693 0
M  V30 9310 N 885.382 -0.782676 1.36792 0
M  V30 9311 C 886.292 -1.92679 1.33835 0
M  V30 9312 C 887.308 -1.72344 0.23952 0
M  V30 9313 O 888.484 -1.95766 0.473045 0
M  V30 9314 C 885.549 -3.27644 1.1336 0
M  V30 9315 C 884.61 -3.6071 2.32781 0
M  V30 9316 C 883.843 -4.89234 2.13273 0
M  V30 9317 O 884.066 -5.59468 1.11136 0
M  V30 9318 O 883 -5.21112 3.01208 0
M  V30 9319 H 886.826 -1.98124 2.30175 0
M  V30 9320 H 884.411 -0.923887 1.17408 0
M  V30 9321 H 886.293 -4.08394 1.03886 0
M  V30 9322 H 884.968 -3.23076 0.200868 0
M  V30 9323 H 883.875 -2.80238 2.47825 0
M  V30 9324 H 885.208 -3.70008 3.24584 0
M  V30 9325 N 886.86 -1.21182 -1.00761 0
M  V30 9326 C 888.108 -1.02543 -1.74153 0
M  V30 9327 C 888.429 0.442372 -1.89916 0
M  V30 9328 O 887.699 1.31927 -1.44818 0
M  V30 9329 H 886.279 -0.37644 -0.645214 0
M  V30 9330 H 888.941 -1.52446 -1.21434 0
M  V30 9331 H 888.037 -1.49122 -2.7417 0
M  V30 9332 N 888.338 1.20213 -1.01915 0
M  V30 9333 C 889.268 2.25336 -0.612023 0
M  V30 9334 C 890.249 1.65933 0.374186 0
M  V30 9335 O 891.434 1.92464 0.259053 0
M  V30 9336 C 888.564 3.47267 0.047904 0
M  V30 9337 C 887.518 4.1928 -0.859557 0
M  V30 9338 C 886.844 5.3466 -0.0652655 0
M  V30 9339 C 888.144 4.75143 -2.1688 0
M  V30 9340 H 889.838 2.59645 -1.49079 0
M  V30 9341 H 887.384 1.24808 -0.718263 0
M  V30 9342 H 889.337 4.19991 0.344294 0
M  V30 9343 H 888.061 3.12129 0.961404 0
M  V30 9344 H 886.72 3.48425 -1.13999 0
M  V30 9345 H 886.368 4.95767 0.849964 0
M  V30 9346 H 886.068 5.83772 -0.669618 0
M  V30 9347 H 887.592 6.10187 0.224612 0
M  V30 9348 H 889.006 5.39672 -1.9346 0
M  V30 9349 H 887.403 5.34702 -2.72422 0
M  V30 9350 H 888.473 3.93744 -2.83008 0
M  V30 9351 N 889.816 0.795718 1.36037 0
M  V30 9352 C 890.779 0.204318 2.28287 0
M  V30 9353 C 891.779 -0.602017 1.49105 0
M  V30 9354 O 892.969 -0.422089 1.69009 0
M  V30 9355 C 890.101 -0.716431 3.33287 0
M  V30 9356 H 891.294 1.01781 2.821 0
M  V30 9357 H 888.847 0.565588 1.45708 0
M  V30 9358 H 889.582 -1.55403 2.84641 0
M  V30 9359 H 889.367 -0.140096 3.9185 0
M  V30 9360 H 890.857 -1.12488 4.02164 0
M  V30 9361 N 891.294 -1.47756 0.548274 0
M  V30 9362 C 892.54 -2.02789 0.0209265 0
M  V30 9363 C 892.873 -1.42268 -1.32187 0
M  V30 9364 O 892.148 -0.575001 -1.85806 0
M  V30 9365 C 892.431 -3.60007 -0.0816674 0
M  V30 9366 C 892.284 -4.30977 1.28759 0
M  V30 9367 C 893.603 -4.32777 -0.799515 0
M  V30 9368 H 890.722 -0.736944 0.00907884 0
M  V30 9369 H 893.364 -1.76282 0.708839 0
M  V30 9370 H 891.514 -3.82722 -0.667537 0
M  V30 9371 H 893.186 -4.19629 1.91597 0
M  V30 9372 H 891.429 -3.9168 1.86466 0
M  V30 9373 H 892.1 -5.39488 1.16861 0
M  V30 9374 H 894.576 -4.15001 -0.30216 0
M  V30 9375 H 893.452 -5.42431 -0.840239 0
M  V30 9376 H 893.713 -4.01358 -1.85375 0
M  V30 9377 N 892.772 -0.284283 -1.55015 0
M  V30 9378 C 893.705 0.640779 -2.19019 0
M  V30 9379 C 894.683 1.14541 -1.15409 0
M  V30 9380 O 895.867 1.21669 -1.43975 0
M  V30 9381 C 892.994 1.87488 -2.82074 0
M  V30 9382 C 892.04 1.50494 -3.99066 0
M  V30 9383 S 892.873 0.575218 -5.32402 0
M  V30 9384 C 894.029 1.81749 -5.98931 0
M  V30 9385 H 894.262 0.0969761 -2.97142 0
M  V30 9386 H 891.795 -0.0684929 -1.54248 0
M  V30 9387 H 893.753 2.58319 -3.19032 0
M  V30 9388 H 892.414 2.38984 -2.03828 0
M  V30 9389 H 891.607 2.42349 -4.41908 0
M  V30 9390 H 891.209 0.876741 -3.63578 0
M  V30 9391 H 893.501 2.76026 -6.18721 0
M  V30 9392 H 894.444 1.43192 -6.93471 0
M  V30 9393 H 894.852 1.98661 -5.28388 0
M  V30 9394 N 894.251 1.57596 -0.0117121 0
M  V30 9395 C 895.528 1.82323 0.708356 0
M  V30 9396 C 895.908 0.891947 1.91331 0
M  V30 9397 O 895.256 -0.0565984 2.2843 0
M  V30 9398 C 895.466 3.31111 1.10303 0
M  V30 9399 C 896.814 3.97147 1.50199 0
M  V30 9400 O 897.838 3.35503 1.1965 0
M  V30 9401 O 896.697 5.0576 2.07049 0
M  V30 9402 H 893.791 0.751173 0.345931 0
M  V30 9403 H 896.337 1.69657 -0.0380632 0
M  V30 9404 H 895.109 3.90534 0.24467 0
M  V30 9405 H 894.732 3.48818 1.90818 0
M  V30 9406 N 895.729 -0.261212 1.5542 0
M  V30 9407 C 896.676 -1.32315 1.89107 0
M  V30 9408 C 897.646 -1.48517 0.743767 0
M  V30 9409 O 898.831 -1.62733 0.996123 0
M  V30 9410 C 895.971 -2.67626 2.17877 0
M  V30 9411 C 895.084 -2.59549 3.45338 0
M  V30 9412 C 894.219 -3.87118 3.63748 0
M  V30 9413 C 893.258 -3.736 4.8486 0
M  V30 9414 N 892.395 -4.93029 4.99867 0
M  V30 9415 H 897.235 -1.02886 2.79675 0
M  V30 9416 H 894.772 -0.496812 1.38456 0
M  V30 9417 H 896.73 -3.4637 2.32559 0
M  V30 9418 H 895.36 -2.95232 1.30529 0
M  V30 9419 H 894.412 -1.72452 3.39064 0
M  V30 9420 H 895.724 -2.45465 4.34222 0
M  V30 9421 H 894.878 -4.74305 3.78312 0
M  V30 9422 H 893.617 -4.04084 2.73071 0
M  V30 9423 H 892.622 -2.84797 4.70288 0
M  V30 9424 H 893.847 -3.58143 5.76984 0
M  V30 9425 H 891.793 -5.10383 4.12123 0
M  V30 9426 H 891.71 -4.81521 5.82815 0
M  V30 9427 H 892.978 -5.81754 5.18828 0
M  V30 9428 N 897.207 -1.48554 -0.526253 0
M  V30 9429 C 898.17 -1.62868 -1.61266 0
M  V30 9430 C 899.17 -0.501762 -1.52771 0
M  V30 9431 O 900.36 -0.76764 -1.56374 0
M  V30 9432 C 897.492 -1.60238 -3.00893 0
M  V30 9433 H 898.685 -2.59742 -1.49913 0
M  V30 9434 H 896.238 -1.37207 -0.748595 0
M  V30 9435 H 896.973 -0.648545 -3.17749 0
M  V30 9436 H 896.758 -2.42054 -3.08468 0
M  V30 9437 H 898.248 -1.73455 -3.79872 0
M  V30 9438 N 898.685 0.775411 -1.37205 0
M  V30 9439 C 899.632 1.88857 -1.32671 0
M  V30 9440 C 900.602 1.64976 -0.192899 0
M  V30 9441 O 901.787 1.86944 -0.381673 0
M  V30 9442 C 898.927 3.25871 -1.13588 0
M  V30 9443 C 898.04 3.61731 -2.36167 0
M  V30 9444 C 897.175 4.87934 -2.09985 0
M  V30 9445 C 896.214 5.16514 -3.2845 0
M  V30 9446 N 895.351 6.33905 -3.01842 0
M  V30 9447 H 900.191 1.92068 -2.27846 0
M  V30 9448 H 897.728 0.939066 -1.13225 0
M  V30 9449 H 899.686 4.04903 -1.00546 0
M  V30 9450 H 898.316 3.22045 -0.220613 0
M  V30 9451 H 897.368 2.77712 -2.59962 0
M  V30 9452 H 898.68 3.78792 -3.24528 0
M  V30 9453 H 897.834 5.74863 -1.93953 0
M  V30 9454 H 896.573 4.7297 -1.18956 0
M  V30 9455 H 895.578 4.28063 -3.45025 0
M  V30 9456 H 896.803 5.33389 -4.20325 0
M  V30 9457 H 894.749 6.20306 -2.13439 0
M  V30 9458 H 894.666 6.51364 -3.83746 0
M  V30 9459 H 895.934 7.23779 -2.8942 0
M  V30 9460 N 900.163 1.21714 1.00117 0
M  V30 9461 C 901.411 1.03465 1.73607 0
M  V30 9462 C 901.732 -0.432295 1.90148 0
M  V30 9463 O 901.002 -1.31157 1.45515 0
M  V30 9464 H 899.582 0.379857 0.643209 0
M  V30 9465 H 902.244 1.53088 1.20624 0
M  V30 9466 H 901.34 1.50574 2.73375 0
M  V30 9467 N 901.641 -1.19671 1.02551 0
M  V30 9468 C 902.571 -2.25009 0.623965 0
M  V30 9469 C 903.552 -1.66129 -0.36538 0
M  V30 9470 O 904.737 -1.92599 -0.248842 0
M  V30 9471 C 901.867 -3.47287 -0.0294869 0
M  V30 9472 C 900.821 -4.18818 0.881781 0
M  V30 9473 C 900.147 -5.34618 0.0936189 0
M  V30 9474 C 901.447 -4.73986 2.19396 0
M  V30 9475 H 903.141 -2.58851 1.50454 0
M  V30 9476 H 900.687 -1.24425 0.724872 0
M  V30 9477 H 902.64 -4.20168 -0.322016 0
M  V30 9478 H 901.364 -3.12635 -0.944838 0
M  V30 9479 H 900.023 -3.47815 1.15845 0
M  V30 9480 H 899.671 -4.9621 -0.823661 0
M  V30 9481 H 899.371 -5.83409 0.700568 0
M  V30 9482 H 900.895 -6.10297 -0.192249 0
M  V30 9483 H 902.309 -5.38639 1.96319 0
M  V30 9484 H 900.706 -5.3325 2.75254 0
M  V30 9485 H 901.776 -3.92238 2.85092 0
M  V30 9486 N 903.119 -0.802921 -1.35613 0
M  V30 9487 C 904.366 -0.381576 -1.98872 0
M  V30 9488 C 904.694 1.0503 -1.63704 0
M  V30 9489 O 903.949 1.7427 -0.890418 0
M  V30 9490 C 904.248 -0.507806 -3.53774 0
M  V30 9491 C 903.914 -1.90245 -4.088 0
M  V30 9492 C 902.576 -2.28401 -4.2354 0
M  V30 9493 C 904.928 -2.81504 -4.3864 0
M  V30 9494 C 902.256 -3.57192 -4.65436 0
M  V30 9495 C 904.608 -4.09737 -4.81973 0
M  V30 9496 C 903.272 -4.47897 -4.94919 0
M  V30 9497 H 902.542 -0.139629 -0.727726 0
M  V30 9498 H 905.189 -1.023 -1.61886 0
M  V30 9499 H 903.494 0.21708 -3.91198 0
M  V30 9500 H 905.191 -0.162625 -4.0067 0
M  V30 9501 H 901.781 -1.596 -3.97776 0
M  V30 9502 H 905.965 -2.53276 -4.26808 0
M  V30 9503 H 901.221 -3.86611 -4.73648 0
M  V30 9504 H 905.395 -4.80555 -5.04024 0
M  V30 9505 H 903.022 -5.47747 -5.27141 0
M  V30 9506 N 904.597 1.47463 -0.556102 0
M  V30 9507 C 905.527 2.32801 0.180497 0
M  V30 9508 C 906.508 1.43721 0.909848 0
M  V30 9509 O 907.693 1.72578 0.89053 0
M  V30 9510 C 904.823 3.25478 1.21167 0
M  V30 9511 C 903.777 4.2379 0.598846 0
M  V30 9512 C 903.103 5.05783 1.73457 0
M  V30 9513 C 904.403 5.20387 -0.446659 0
M  V30 9514 H 906.097 2.94636 -0.531956 0
M  V30 9515 H 903.643 1.41683 -0.257267 0
M  V30 9516 H 905.596 3.8402 1.73513 0
M  V30 9517 H 904.32 2.61695 1.95405 0
M  V30 9518 H 902.979 3.66472 0.0966897 0
M  V30 9519 H 902.627 4.38405 2.46596 0
M  V30 9520 H 902.327 5.72343 1.33031 0
M  V30 9521 H 903.851 5.67183 2.26131 0
M  V30 9522 H 905.265 5.73299 -0.00930019 0
M  V30 9523 H 903.662 5.95143 -0.769735 0
M  V30 9524 H 904.732 4.65932 -1.34295 0
M  V30 9525 N 906.075 0.2925 1.54862 0
M  V30 9526 C 907.486 -0.201841 1.85606 0
M  V30 9527 C 907.837 -1.54093 1.21449 0
M  V30 9528 O 906.962 -2.10327 0.509079 0
M  V30 9529 C 907.557 -0.373011 3.3674 0
M  V30 9530 C 906.116 -0.811574 3.67547 0
M  V30 9531 C 905.263 0.0850583 2.7717 0
M  V30 9532 H 908.214 0.513774 1.50153 0
M  V30 9533 H 908.235 -1.20892 3.60785 0
M  V30 9534 H 907.747 0.601751 3.83407 0
M  V30 9535 H 905.848 -1.79719 3.26392 0
M  V30 9536 H 905.961 -0.636853 4.74848 0
M  V30 9537 H 904.325 -0.434224 2.50971 0
M  V30 9538 H 905.108 1.05602 3.26654 0
M  V30 9539 N 907.553 -1.57587 0.0200696 0
M  V30 9540 C 908.463 -2.13119 -0.980676 0
M  V30 9541 C 909.479 -1.08124 -1.36328 0
M  V30 9542 O 910.655 -1.40134 -1.44653 0
M  V30 9543 C 907.72 -2.63991 -2.24743 0
M  V30 9544 C 906.781 -3.83667 -1.9261 0
M  V30 9545 C 906.014 -4.32103 -3.13246 0
M  V30 9546 O 906.237 -3.79758 -4.25606 0
M  V30 9547 O 905.171 -5.24047 -2.96072 0
M  V30 9548 H 908.997 -2.98887 -0.538528 0
M  V30 9549 H 906.582 -1.48055 -0.19999 0
M  V30 9550 H 908.464 -2.9682 -2.99125 0
M  V30 9551 H 907.139 -1.81311 -2.68157 0
M  V30 9552 H 906.046 -3.55778 -1.15641 0
M  V30 9553 H 907.379 -4.67482 -1.54019 0
M  V30 9554 N 909.032 0.252966 -1.55557 0
M  V30 9555 C 910.309 1.00432 -1.67847 0
M  V30 9556 C 910.689 2.03587 -0.55816 0
M  V30 9557 O 910.037 2.24239 0.439197 0
M  V30 9558 C 910.247 1.64313 -3.079 0
M  V30 9559 C 911.595 2.14726 -3.66303 0
M  V30 9560 O 912.619 1.74264 -3.10661 0
M  V30 9561 O 911.478 2.89 -4.63833 0
M  V30 9562 H 908.572 0.467102 -0.682455 0
M  V30 9563 H 911.118 0.247233 -1.67889 0
M  V30 9564 H 909.89 0.896681 -3.80888 0
M  V30 9565 H 909.513 2.46657 -3.11843 0
M  V30 9566 N 910.51 1.48831 0.518367 0
M  V30 9567 C 911.42 1.6692 1.64848 0
M  V30 9568 C 912.436 0.551711 1.65022 0
M  V30 9569 O 913.612 0.824251 1.83761 0
M  V30 9570 C 910.677 1.71559 3.01278 0
M  V30 9571 C 909.738 2.9502 3.11868 0
M  V30 9572 C 908.971 2.99428 4.4179 0
M  V30 9573 O 909.194 2.11914 5.29574 0
M  V30 9574 O 908.128 3.91719 4.5699 0
M  V30 9575 H 911.954 2.62623 1.52521 0
M  V30 9576 H 909.539 1.32368 0.692749 0
M  V30 9577 H 911.421 1.77064 3.82396 0
M  V30 9578 H 910.096 0.790316 3.13904 0
M  V30 9579 H 909.003 2.95042 2.30003 0
M  V30 9580 H 910.336 3.8697 3.04163 0
M  V30 9581 N 911.988 -0.768124 1.37614 0
M  V30 9582 C 912.936 -1.9029 1.33763 0
M  V30 9583 C 913.93 -1.67888 0.225814 0
M  V30 9584 O 915.136 -1.75634 0.394043 0
M  V30 9585 H 911.511 -0.625828 0.416945 0
M  V30 9586 H 913.482 -1.90654 2.29551 0
M  V30 9587 C 912.231 -3.27598 1.16511 0
M  V30 9588 H 911.554 -3.45414 2.01318 0
M  V30 9589 H 912.994 -4.07288 1.17867 0
M  V30 9590 C 911.453 -3.36653 -0.129001 0
M  V30 9591 O 911.983 -3.86023 -1.11128 0
M  V30 9592 N 910.189 -2.90036 -0.180926 0
M  V30 9593 H 909.736 -2.5005 0.619076 0
M  V30 9594 H 909.694 -2.96475 -1.04641 0
M  V30 9595 N 913.466 -1.22244 -0.994698 0
M  V30 9596 C 914.396 -1.01513 -2.10279 0
M  V30 9597 C 915.377 0.0633365 -1.69982 0
M  V30 9598 O 916.562 -0.0985268 -1.9395 0
M  V30 9599 C 913.692 -0.59016 -3.42249 0
M  V30 9600 C 912.646 -1.61436 -3.96387 0
M  V30 9601 C 911.972 -1.04528 -5.24383 0
M  V30 9602 C 913.272 -3.00388 -4.27276 0
M  V30 9603 H 914.966 -1.94194 -2.2788 0
M  V30 9604 H 912.512 -0.935094 -1.09508 0
M  V30 9605 H 914.465 -0.432254 -4.19177 0
M  V30 9606 H 913.189 0.372308 -3.24471 0
M  V30 9607 H 911.848 -1.76001 -3.21589 0
M  V30 9608 H 911.496 -0.0742225 -5.02945 0
M  V30 9609 H 911.196 -1.72949 -5.61571 0
M  V30 9610 H 912.72 -0.898922 -6.03947 0
M  V30 9611 H 914.134 -2.89207 -4.95007 0
M  V30 9612 H 912.531 -3.65916 -4.75631 0
M  V30 9613 H 913.601 -3.50456 -3.35125 0
M  V30 9614 N 914.944 1.19125 -1.03184 0
M  V30 9615 C 916.36 1.40909 -0.749447 0
M  V30 9616 C 916.56 1.9022 0.664729 0
M  V30 9617 O 915.616 2.08085 1.43028 0
M  V30 9618 C 916.929 2.41761 -1.78807 0
M  V30 9619 C 918.477 2.55503 -1.80796 0
M  V30 9620 C 918.952 3.59612 -2.83626 0
M  V30 9621 N 920.443 3.6711 -2.82461 0
M  V30 9622 C 921.178 4.47366 -3.5868 0
M  V30 9623 N 920.674 5.31302 -4.44623 0
M  V30 9624 N 922.467 4.42044 -3.47208 0
M  V30 9625 H 914.618 0.854399 -1.94458 0
M  V30 9626 H 916.881 0.437753 -0.840878 0
M  V30 9627 H 916.587 2.12559 -2.80199 0
M  V30 9628 H 916.461 3.40981 -1.61283 0
M  V30 9629 H 918.848 2.84027 -0.800803 0
M  V30 9630 H 918.929 1.56427 -2.02396 0
M  V30 9631 H 918.573 3.3183 -3.84515 0
M  V30 9632 H 918.503 4.58345 -2.59283 0
M  V30 9633 H 920.994 3.07166 -2.2013 0
M  V30 9634 H 921.307 5.89667 -4.99512 0
M  V30 9635 H 919.652 5.30753 -4.48694 0
M  V30 9636 H 922.843 3.75513 -2.79477 0
M  V30 9637 H 923.016 5.0435 -4.06859 0
M  V30 9638 N 916.422 0.810101 1.35185 0
M  V30 9639 C 917.332 0.224565 2.33523 0
M  V30 9640 C 918.348 -0.634287 1.62027 0
M  V30 9641 O 919.524 -0.545211 1.9388 0
M  V30 9642 C 916.589 -0.614319 3.41214 0
M  V30 9643 C 915.65 0.265435 4.28479 0
M  V30 9644 C 914.883 -0.533506 5.31027 0
M  V30 9645 O 915.106 -1.7679 5.42311 0
M  V30 9646 O 914.04 0.0774573 6.0185 0
M  V30 9647 H 917.866 1.03815 2.85405 0
M  V30 9648 H 915.451 0.571964 1.38018 0
M  V30 9649 H 917.333 -1.09201 4.07005 0
M  V30 9650 H 916.008 -1.40545 2.91597 0
M  V30 9651 H 914.915 0.790343 3.65656 0
M  V30 9652 H 916.248 1.0206 4.81503 0
M  V30 9653 N 917.9 -1.47166 0.563914 0
M  V30 9654 C 918.847 -2.30097 -0.180013 0
M  V30 9655 C 919.817 -1.39473 -0.902019 0
M  V30 9656 O 921.002 -1.68432 -0.896396 0
M  V30 9657 C 918.142 -3.23573 -1.19978 0
M  V30 9658 C 917.255 -4.2929 -0.483149 0
M  V30 9659 C 916.39 -5.0991 -1.48879 0
M  V30 9660 C 915.429 -6.07395 -0.757513 0
M  V30 9661 N 914.566 -6.8095 -1.71031 0
M  V30 9662 H 919.406 -2.93189 0.53329 0
M  V30 9663 H 916.943 -1.4451 0.274814 0
M  V30 9664 H 918.901 -3.76196 -1.80368 0
M  V30 9665 H 917.531 -2.6233 -1.88103 0
M  V30 9666 H 916.583 -3.79671 0.235414 0
M  V30 9667 H 917.895 -4.9872 0.0894075 0
M  V30 9668 H 917.049 -5.66717 -2.16603 0
M  V30 9669 H 915.788 -4.40397 -2.09527 0
M  V30 9670 H 914.793 -5.4976 -0.0663841 0
M  V30 9671 H 916.018 -6.78919 -0.156685 0
M  V30 9672 H 913.964 -6.14162 -2.30524 0
M  V30 9673 H 913.881 -7.46574 -1.19007 0
M  V30 9674 H 915.149 -7.42326 -2.37849 0
M  V30 9675 N 919.378 -0.300708 -1.54705 0
M  V30 9676 C 920.626 0.308044 -1.99739 0
M  V30 9677 C 920.947 1.54433 -1.19061 0
M  V30 9678 O 920.217 1.93794 -0.286507 0
M  V30 9679 H 918.797 0.116811 -0.73781 0
M  V30 9680 H 921.459 -0.41197 -1.90496 0
M  V30 9681 H 920.555 0.580287 -3.06658 0
M  V30 9682 N 920.856 1.57574 -0.0284266 0
M  V30 9683 C 922.133 1.83064 0.688979 0
M  V30 9684 C 922.513 0.91219 1.90374 0
M  V30 9685 O 921.861 -0.0323672 2.28477 0
M  V30 9686 C 922.071 3.32262 1.06785 0
M  V30 9687 C 923.419 3.98717 1.45978 0
M  V30 9688 O 924.443 3.36753 1.16085 0
M  V30 9689 O 923.302 5.07927 2.01673 0
M  V30 9690 H 920.396 0.7548 0.337944 0
M  V30 9691 H 922.942 1.69607 -0.0560555 0
M  V30 9692 H 921.714 3.90772 0.203235 0
M  V30 9693 H 921.337 3.50823 1.87107 0
M  V30 9694 N 922.334 -0.244713 1.55689 0
M  V30 9695 C 923.58 -0.969623 1.78801 0
M  V30 9696 C 923.935 -1.8288 0.597716 0
M  V30 9697 O 923.228 -1.87184 -0.408978 0
M  V30 9698 C 923.422 -1.8617 3.05083 0
M  V30 9699 C 923.251 -1.09036 4.36281 0
M  V30 9700 C 922.021 -0.794585 4.99013 0
M  V30 9701 C 924.219 -0.466883 5.12176 0
M  V30 9702 N 922.201 0.000579944 6.139 0
M  V30 9703 C 923.572 0.192755 6.197 0
M  V30 9704 C 925.627 -0.377571 4.96466 0
M  V30 9705 C 924.33 0.933132 7.13222 0
M  V30 9706 C 926.356 0.349281 5.90368 0
M  V30 9707 C 925.718 0.997549 6.97301 0
M  V30 9708 H 921.817 -0.335845 0.70621 0
M  V30 9709 H 924.401 -0.242559 1.93183 0
M  V30 9710 H 922.572 -2.56077 2.92026 0
M  V30 9711 H 924.304 -2.52234 3.16481 0
M  V30 9712 H 921.059 -1.10691 4.60483 0
M  V30 9713 H 921.483 0.38632 6.75897 0
M  V30 9714 H 926.125 -0.86443 4.13869 0
M  V30 9715 H 923.843 1.43159 7.95318 0
M  V30 9716 H 927.429 0.419082 5.80289 0
M  V30 9717 H 926.309 1.551 7.68709 0
M  V30 9718 N 923.813 -1.49104 -0.510467 0
M  V30 9719 C 925.038 -1.62068 -1.29417 0
M  V30 9720 C 925.463 -0.288432 -1.85875 0
M  V30 9721 O 924.821 0.742667 -1.65391 0
M  V30 9722 C 924.869 -2.68506 -2.40701 0
M  V30 9723 O 923.973 -2.27021 -3.4429 0
M  V30 9724 H 923.314 -0.542778 -0.382476 0
M  V30 9725 H 925.844 -1.95228 -0.612154 0
M  V30 9726 H 925.854 -2.90383 -2.86604 0
M  V30 9727 H 924.529 -3.65216 -1.98973 0
M  V30 9728 H 923.106 -2.15436 -3.04371 0
M  V30 9729 N 925.291 0.760815 -1.38019 0
M  V30 9730 C 926.223 1.88387 -1.30549 0
M  V30 9731 C 927.236 1.61319 -0.219119 0
M  V30 9732 O 928.425 1.72033 -0.476122 0
M  V30 9733 C 925.525 3.23863 -0.998291 0
M  V30 9734 C 924.698 3.78492 -2.19232 0
M  V30 9735 C 923.757 4.92468 -1.85368 0
M  V30 9736 O 922.783 5.0748 -2.57785 0
M  V30 9737 N 923.985 5.74901 -0.804319 0
M  V30 9738 H 926.75 1.95308 -2.27322 0
M  V30 9739 H 924.311 0.940423 -1.31786 0
M  V30 9740 H 926.303 3.97644 -0.7524 0
M  V30 9741 H 924.873 3.12374 -0.11877 0
M  V30 9742 H 924.093 2.96361 -2.5993 0
M  V30 9743 H 925.381 4.11722 -2.98935 0
M  V30 9744 H 924.779 5.65333 -0.203628 0
M  V30 9745 H 923.336 6.48861 -0.618301 0
M  V30 9746 N 926.769 1.22769 0.988202 0
M  V30 9747 C 928.016 1.05509 1.72841 0
M  V30 9748 C 928.344 -0.409145 1.90148 0
M  V30 9749 O 927.599 -1.3195 1.44526 0
M  V30 9750 C 927.898 1.71679 3.13466 0
M  V30 9751 C 927.564 3.21584 3.16061 0
M  V30 9752 C 926.226 3.62486 3.16476 0
M  V30 9753 C 928.578 4.17511 3.11984 0
M  V30 9754 C 925.906 4.97789 3.10521 0
M  V30 9755 C 928.258 5.52796 3.0757 0
M  V30 9756 C 926.922 5.93072 3.06304 0
M  V30 9757 H 926.192 0.386085 0.632471 0
M  V30 9758 H 928.839 1.52596 1.157 0
M  V30 9759 H 927.144 1.1693 3.73945 0
M  V30 9760 H 928.841 1.55809 3.69492 0
M  V30 9761 H 925.431 2.89019 3.1649 0
M  V30 9762 H 929.615 3.86926 3.10809 0
M  V30 9763 H 924.871 5.28218 3.07888 0
M  V30 9764 H 929.045 6.26848 3.03372 0
M  V30 9765 H 926.672 6.97879 3.01444 0
M  V30 9766 N 928.247 -1.18576 1.03814 0
M  V30 9767 C 929.475 -1.92437 0.759966 0
M  V30 9768 C 929.89 -1.76031 -0.682526 0
M  V30 9769 O 929.247 -1.08829 -1.46501 0
M  V30 9770 C 929.298 -3.43923 1.11351 0
M  V30 9771 O 929.019 -3.5981 2.49937 0
M  V30 9772 C 930.52 -4.34888 0.859472 0
M  V30 9773 H 927.74 -0.610998 0.277349 0
M  V30 9774 H 930.284 -1.50448 1.38512 0
M  V30 9775 H 928.439 -3.83711 0.533362 0
M  V30 9776 H 928.853 -4.53569 2.63393 0
M  V30 9777 H 930.327 -5.39744 1.15672 0
M  V30 9778 H 930.804 -4.38717 -0.205839 0
M  V30 9779 H 931.41 -4.00795 1.42279 0
M  V30 9780 N 929.725 -0.817259 -1.34754 0
M  V30 9781 C 930.655 -0.249769 -2.3216 0
M  V30 9782 C 931.636 0.630663 -1.57977 0
M  V30 9783 O 932.821 0.558719 -1.85989 0
M  V30 9784 C 929.951 0.593825 -3.42186 0
M  V30 9785 C 928.905 -0.188997 -4.27583 0
M  V30 9786 C 928.231 0.776979 -5.29025 0
M  V30 9787 C 929.531 -1.39401 -5.03354 0
M  V30 9788 H 931.225 -1.06359 -2.79872 0
M  V30 9789 H 928.771 -0.512894 -1.34556 0
M  V30 9790 H 930.724 1.00097 -4.09339 0
M  V30 9791 H 929.448 1.44064 -2.93109 0
M  V30 9792 H 928.107 -0.577445 -3.62024 0
M  V30 9793 H 927.755 1.61959 -4.76212 0
M  V30 9794 H 927.455 0.257448 -5.87036 0
M  V30 9795 H 928.979 1.18211 -5.99048 0
M  V30 9796 H 930.393 -1.06117 -5.63393 0
M  V30 9797 H 928.79 -1.84878 -5.70912 0
M  V30 9798 H 929.86 -2.17515 -4.33377 0
M  V30 9799 N 931.203 1.46865 -0.571711 0
M  V30 9800 C 932.449 2.03307 -0.0614759 0
M  V30 9801 C 932.804 1.43657 1.27986 0
M  V30 9802 O 932.097 0.588186 1.82348 0
M  V30 9803 C 932.291 3.57323 0.0742311 0
M  V30 9804 C 932.12 4.31909 -1.2524 0
M  V30 9805 C 930.89 4.71246 -1.82361 0
M  V30 9806 C 933.088 4.66137 -2.17304 0
M  V30 9807 N 931.07 5.30535 -3.08878 0
M  V30 9808 C 932.441 5.25881 -3.28404 0
M  V30 9809 C 934.496 4.48066 -2.1712 0
M  V30 9810 C 933.199 5.69461 -4.39439 0
M  V30 9811 C 935.225 4.92656 -3.27176 0
M  V30 9812 C 934.587 5.52461 -4.36997 0
M  V30 9813 H 930.686 0.779293 -0.0650098 0
M  V30 9814 H 933.27 1.79161 -0.762192 0
M  V30 9815 H 931.441 3.81206 0.744095 0
M  V30 9816 H 933.173 4.00408 0.587849 0
M  V30 9817 H 929.928 4.53658 -1.35985 0
M  V30 9818 H 930.352 5.64711 -3.73404 0
M  V30 9819 H 934.994 4.01173 -1.33492 0
M  V30 9820 H 932.712 6.15338 -5.23817 0
M  V30 9821 H 936.298 4.80433 -3.28139 0
M  V30 9822 H 935.178 5.86334 -5.20752 0
M  V30 9823 N 932.681 0.308908 1.54543 0
M  V30 9824 C 933.613 -0.597453 2.21276 0
M  V30 9825 C 934.626 -1.09137 1.20801 0
M  V30 9826 O 935.815 -1.00747 1.47351 0
M  V30 9827 C 932.915 -1.83085 2.85189 0
M  V30 9828 C 932.088 -1.4781 4.11669 0
M  V30 9829 C 931.147 -2.56748 4.59311 0
M  V30 9830 O 930.173 -2.21507 5.24331 0
M  V30 9831 N 931.375 -3.87427 4.32297 0
M  V30 9832 H 934.14 -0.0261183 2.99689 0
M  V30 9833 H 931.701 0.131456 1.61365 0
M  V30 9834 H 933.693 -2.55326 3.13992 0
M  V30 9835 H 932.263 -2.31039 2.1057 0
M  V30 9836 H 931.483 -0.587974 3.8979 0
M  V30 9837 H 932.771 -1.2179 4.94009 0
M  V30 9838 H 932.169 -4.18863 3.80224 0
M  V30 9839 H 930.726 -4.55942 4.6579 0
M  V30 9840 N 934.159 -1.57557 0.0367827 0
M  V30 9841 C 935.091 -2.07597 -0.971395 0
M  V30 9842 C 936.104 -1.0009 -1.28397 0
M  V30 9843 O 937.293 -1.27692 -1.24728 0
M  V30 9844 C 934.393 -2.492 -2.2968 0
M  V30 9845 C 933.566 -3.79875 -2.16826 0
M  V30 9846 C 932.625 -4.07946 -3.32366 0
M  V30 9847 O 931.651 -4.78083 -3.0891 0
M  V30 9848 N 932.853 -3.58722 -4.56397 0
M  V30 9849 H 935.618 -2.94714 -0.544389 0
M  V30 9850 H 933.179 -1.61205 -0.1498 0
M  V30 9851 H 935.171 -2.65065 -3.05815 0
M  V30 9852 H 933.741 -1.67407 -2.63995 0
M  V30 9853 H 932.961 -3.73732 -1.2537 0
M  V30 9854 H 934.249 -4.65476 -2.0545 0
M  V30 9855 H 933.647 -3.01994 -4.78347 0
M  V30 9856 H 932.204 -3.79852 -5.29675 0
M  V30 9857 N 935.637 0.236453 -1.55816 0
M  V30 9858 C 936.885 0.96111 -1.77784 0
M  V30 9859 C 937.206 1.85454 -0.602648 0
M  V30 9860 O 936.476 1.92157 0.381137 0
M  V30 9861 H 935.056 0.35787 -0.655697 0
M  V30 9862 H 937.718 0.251888 -1.93265 0
M  V30 9863 H 936.814 1.5767 -2.69345 0
M  V30 9864 N 937.115 1.49373 0.502552 0
M  V30 9865 C 938.531 1.36101 0.833591 0
M  V30 9866 C 938.731 0.392911 1.97632 0
M  V30 9867 O 937.787 -0.175975 2.51886 0
M  V30 9868 C 939.1 2.76782 1.17526 0
M  V30 9869 C 940.648 2.85471 1.28356 0
M  V30 9870 C 941.123 4.26915 1.65853 0
M  V30 9871 N 942.614 4.29719 1.72905 0
M  V30 9872 C 943.349 5.36127 2.0336 0
M  V30 9873 N 942.845 6.52782 2.32049 0
M  V30 9874 N 944.638 5.23542 2.04598 0
M  V30 9875 H 936.789 2.10912 -0.251008 0
M  V30 9876 H 939.052 0.946696 -0.0497037 0
M  V30 9877 H 938.758 3.49314 0.408965 0
M  V30 9878 H 938.632 3.1205 2.11907 0
M  V30 9879 H 941.019 2.13177 2.04058 0
M  V30 9880 H 941.1 2.53787 0.320304 0
M  V30 9881 H 940.744 4.99735 0.907022 0
M  V30 9882 H 940.674 4.56063 2.63276 0
M  V30 9883 H 943.165 3.45586 1.529 0
M  V30 9884 H 943.478 7.29701 2.54471 0
M  V30 9885 H 941.823 6.56011 2.29509 0
M  V30 9886 H 945.014 4.31413 1.8166 0
M  V30 9887 H 945.187 6.06565 2.27998 0
M  V30 9888 N 938.594 -0.753485 1.38421 0
M  V30 9889 C 940.01 -1.05656 1.1962 0
M  V30 9890 C 940.21 -2.0145 0.0449443 0
M  V30 9891 O 939.266 -2.45039 -0.609253 0
M  V30 9892 C 940.579 -1.63655 2.52265 0
M  V30 9893 C 942.127 -1.75825 2.58949 0
M  V30 9894 C 942.602 -2.37236 3.91769 0
M  V30 9895 N 944.093 -2.44666 3.9331 0
M  V30 9896 C 944.828 -2.93077 4.92842 0
M  V30 9897 N 944.324 -3.41523 6.02772 0
M  V30 9898 N 946.117 -2.92118 4.80232 0
M  V30 9899 H 938.268 -0.117799 2.12073 0
M  V30 9900 H 940.531 -0.114889 0.941012 0
M  V30 9901 H 940.237 -1.00734 3.36965 0
M  V30 9902 H 940.111 -2.62715 2.70667 0
M  V30 9903 H 942.498 -2.37873 1.74644 0
M  V30 9904 H 942.579 -0.754693 2.44414 0
M  V30 9905 H 942.223 -1.75822 4.76497 0
M  V30 9906 H 942.153 -3.38233 4.03616 0
M  V30 9907 H 944.644 -2.10403 3.1391 0
M  V30 9908 H 944.957 -3.76919 6.74649 0
M  V30 9909 H 943.302 -3.3958 6.06391 0
M  V30 9910 H 946.493 -2.53582 3.93464 0
M  V30 9911 H 946.666 -3.29535 5.57952 0
M  V30 9912 N 940.072 -1.23292 -0.981677 0
M  V30 9913 C 941.02 -1.0104 -2.09508 0
M  V30 9914 C 942.014 0.0501977 -1.69326 0
M  V30 9915 O 943.22 -0.103197 -1.79704 0
M  V30 9916 H 939.595 -0.309629 -0.685298 0
M  V30 9917 H 941.566 -1.95493 -2.25444 0
M  V30 9918 C 940.315 -0.616885 -3.42184 0
M  V30 9919 H 939.638 -1.4247 -3.73554 0
M  V30 9920 H 941.078 -0.500688 -4.21033 0
M  V30 9921 C 939.537 0.674721 -3.30074 0
M  V30 9922 O 940.067 1.72421 -3.62814 0
M  V30 9923 N 938.273 0.650151 -2.83234 0
M  V30 9924 H 937.82 -0.204225 -2.56789 0
M  V30 9925 H 937.778 1.51458 -2.75514 0
M  V30 9926 N 941.55 1.18024 -1.04442 0
M  V30 9927 C 942.46 2.25436 -0.649276 0
M  V30 9928 C 943.476 1.70915 0.326189 0
M  V30 9929 O 944.652 2.00592 0.180174 0
M  V30 9930 C 941.717 3.46693 -0.0222558 0
M  V30 9931 C 940.778 4.16332 -1.0472 0
M  V30 9932 C 940.011 5.31799 -0.450011 0
M  V30 9933 O 940.234 5.65544 0.742717 0
M  V30 9934 O 939.168 5.90209 -1.18056 0
M  V30 9935 H 942.994 2.61508 -1.54426 0
M  V30 9936 H 940.579 1.25178 -0.81552 0
M  V30 9937 H 942.461 4.20132 0.326597 0
M  V30 9938 H 941.136 3.12436 0.84649 0
M  V30 9939 H 940.043 3.44944 -1.44792 0
M  V30 9940 H 941.376 4.54598 -1.88684 0
M  V30 9941 N 943.028 0.824394 1.34319 0
M  V30 9942 C 943.976 0.235628 2.31403 0
M  V30 9943 C 944.97 -0.624443 1.57471 0
M  V30 9944 O 946.176 -0.515618 1.72457 0
M  V30 9945 H 942.551 0.0574537 0.749802 0
M  V30 9946 H 944.522 1.06925 2.78585 0
M  V30 9947 C 943.271 -0.586617 3.42716 0
M  V30 9948 H 942.594 0.0658669 3.99746 0
M  V30 9949 H 944.034 -0.964661 4.1288 0
M  V30 9950 C 942.493 -1.75957 2.87299 0
M  V30 9951 O 943.023 -2.8578 2.82299 0
M  V30 9952 N 941.229 -1.57678 2.44102 0
M  V30 9953 H 940.776 -0.683436 2.48369 0
M  V30 9954 H 940.734 -2.36311 2.07375 0
M  V30 9955 N 944.506 -1.46559 0.579492 0
M  V30 9956 C 945.469 -2.28739 -0.145371 0
M  V30 9957 C 946.469 -1.38211 -0.821854 0
M  V30 9958 O 947.659 -1.6062 -0.674302 0
M  V30 9959 C 944.791 -3.18507 -1.21515 0
M  V30 9960 H 945.984 -2.94301 0.576786 0
M  V30 9961 H 943.537 -1.52616 0.337327 0
M  V30 9962 H 944.272 -2.57685 -1.96899 0
M  V30 9963 H 944.057 -3.85157 -0.734616 0
M  V30 9964 H 945.547 -3.80369 -1.72363 0
M  V30 9965 N 945.984 -0.3171 -1.54377 0
M  V30 9966 C 947.224 0.288083 -2.0236 0
M  V30 9967 C 947.588 1.4985 -1.20038 0
M  V30 9968 O 948.789 2.17611 -1.57794 0
M  V30 9969 C 947.06 0.620192 -3.51978 0
M  V30 9970 S 948.619 1.20595 -4.21903 0
M  V30 9971 H 945.437 0.0875231 -0.705592 0
M  V30 9972 H 948.039 -0.448719 -1.90281 0
M  V30 9973 H 946.743 -0.268982 -4.09518 0
M  V30 9974 H 946.274 1.38736 -3.68125 0
M  V30 9975 H 948.289 2.49308 -4.29022 0
M  V30 9976 N 947.462 1.57535 -0.0451378 0
M  V30 9977 C 948.409 2.11176 0.931313 0
M  V30 9978 C 949.379 1.01765 1.31275 0
M  V30 9979 O 950.564 1.29279 1.40327 0
M  V30 9980 C 947.704 2.65639 2.20295 0
M  V30 9981 C 946.817 3.89114 1.87654 0
M  V30 9982 C 945.952 4.31914 3.09232 0
M  V30 9983 C 944.991 5.48105 2.72484 0
M  V30 9984 N 944.128 5.85986 3.86736 0
M  V30 9985 H 948.968 2.94318 0.466986 0
M  V30 9986 H 946.505 1.45462 0.218886 0
M  V30 9987 H 948.463 2.95312 2.94697 0
M  V30 9988 H 947.093 1.85303 2.64316 0
M  V30 9989 H 946.145 3.6607 1.03427 0
M  V30 9990 H 947.457 4.7358 1.56601 0
M  V30 9991 H 946.611 4.63108 3.91939 0
M  V30 9992 H 945.35 3.46247 3.43459 0
M  V30 9993 H 944.355 5.16589 1.88192 0
M  V30 9994 H 945.58 6.35482 2.39455 0
M  V30 9995 H 943.526 5.03273 4.20775 0
M  V30 9996 H 943.443 6.65129 3.5936 0
M  V30 9997 H 944.711 6.21793 4.701 0
M  V30 9998 N 948.94 -0.228186 1.55939 0
M  V30 9999 C 950.188 -0.951668 1.78291 0
M  V30 10000 C 950.509 -1.85132 0.612474 0
M  V30 10001 O 949.779 -1.92356 -0.370942 0
M  V30 10002 H 948.359 -0.354388 0.657585 0
M  V30 10003 H 951.021 -0.241635 1.93396 0
M  V30 10004 H 950.117 -1.56239 2.70177 0
M  V30 10005 N 950.418 -1.49637 -0.494624 0
M  V30 10006 C 951.381 -1.66252 -1.57775 0
M  V30 10007 C 952.381 -0.534054 -1.51672 0
M  V30 10008 O 953.571 -0.800637 -1.54711 0
M  V30 10009 C 950.703 -1.66584 -2.97426 0
M  V30 10010 H 951.896 -2.62864 -1.4437 0
M  V30 10011 H 949.449 -1.38764 -0.719323 0
M  V30 10012 H 950.184 -0.715798 -3.16302 0
M  V30 10013 H 949.969 -2.48543 -3.03264 0
M  V30 10014 H 951.459 -1.81474 -3.76108 0
M  V30 10015 N 951.896 0.746133 -1.38819 0
M  V30 10016 C 953.307 1.32384 -1.31648 0
M  V30 10017 C 953.658 1.96185 0.0243086 0
M  V30 10018 O 952.783 1.95567 0.92641 0
M  V30 10019 C 953.378 2.40712 -2.38418 0
M  V30 10020 C 951.937 2.94185 -2.34803 0
M  V30 10021 C 951.084 1.67639 -2.20891 0
M  V30 10022 H 954.035 0.544457 -1.49068 0
M  V30 10023 H 954.056 3.20833 -2.04564 0
M  V30 10024 H 953.568 1.94247 -3.3599 0
M  V30 10025 H 951.669 3.44959 -1.40834 0
M  V30 10026 H 951.782 3.48057 -3.29231 0
M  V30 10027 H 950.146 1.9155 -1.67871 0
M  V30 10028 H 950.929 1.23242 -3.20416 0
M  V30 10029 N 953.375 1.23811 0.975125 0
M  V30 10030 C 954.322 1.02394 2.06843 0
M  V30 10031 C 955.292 -0.060337 1.6599 0
M  V30 10032 O 956.477 0.0928187 1.90574 0
M  V30 10033 C 953.617 0.626882 3.39359 0
M  V30 10034 C 952.73 1.78385 3.9345 0
M  V30 10035 C 951.865 1.33307 5.14201 0
M  V30 10036 C 950.904 2.46045 5.60471 0
M  V30 10037 N 950.041 2.01888 6.72448 0
M  V30 10038 H 954.881 1.95973 2.24496 0
M  V30 10039 H 952.418 0.976206 1.10039 0
M  V30 10040 H 954.376 0.377742 4.15486 0
M  V30 10041 H 953.006 -0.271907 3.21653 0
M  V30 10042 H 952.058 2.14685 3.14029 0
M  V30 10043 H 953.37 2.63122 4.23755 0
M  V30 10044 H 952.524 1.04237 5.97678 0
M  V30 10045 H 951.263 0.456143 4.85562 0
M  V30 10046 H 950.268 2.75884 4.75571 0
M  V30 10047 H 951.493 3.34283 5.91127 0
M  V30 10048 H 949.439 1.16583 6.45558 0
M  V30 10049 H 949.356 2.80182 7.02164 0
M  V30 10050 H 950.624 1.75937 7.59386 0
M  V30 10051 N 954.853 -1.17469 1.05066 0
M  V30 10052 C 956.081 -1.9162 0.780334 0
M  V30 10053 C 956.496 -1.76745 -0.663817 0
M  V30 10054 O 955.853 -1.10377 -1.45338 0
M  V30 10055 C 955.904 -3.42723 1.14992 0
M  V30 10056 O 955.625 -3.57139 2.53739 0
M  V30 10057 C 957.126 -4.33952 0.905549 0
M  V30 10058 H 954.346 -0.608022 0.283814 0
M  V30 10059 H 956.89 -1.4897 1.401 0
M  V30 10060 H 955.045 -3.83124 0.57403 0
M  V30 10061 H 955.459 -4.5075 2.68189 0
M  V30 10062 H 956.933 -5.38487 1.21391 0
M  V30 10063 H 957.41 -4.38911 -0.159295 0
M  V30 10064 H 958.016 -3.99263 1.46522 0
M  V30 10065 N 956.331 -0.831506 -1.3388 0
M  V30 10066 C 957.571 -0.429648 -1.99833 0
M  V30 10067 C 957.935 0.990796 -1.6446 0
M  V30 10068 O 959.136 1.49599 -2.23324 0
M  V30 10069 C 957.407 -0.635558 -3.51704 0
M  V30 10070 S 958.966 -0.327824 -4.37574 0
M  V30 10071 H 955.784 -0.161939 -0.692313 0
M  V30 10072 H 958.386 -1.07919 -1.63015 0
M  V30 10073 H 957.09 -1.66887 -3.74936 0
M  V30 10074 H 956.621 0.0284073 -3.9339 0
M  V30 10075 H 958.636 0.855231 -4.88774 0
M  V30 10076 N 957.809 1.4625 -0.587256 0
M  V30 10077 C 959.037 2.06744 -0.08033 0
M  V30 10078 C 959.452 1.43527 1.2266 0
M  V30 10079 O 958.809 0.542168 1.74261 0
M  V30 10080 C 958.86 3.61394 0.0873469 0
M  V30 10081 O 958.581 4.22247 -1.16785 0
M  V30 10082 C 960.082 4.38828 0.628095 0
M  V30 10083 H 957.302 0.668354 -0.0595301 0
M  V30 10084 H 959.846 1.87808 -0.809217 0
M  V30 10085 H 958.001 3.79742 0.766473 0
M  V30 10086 H 958.415 5.15176 -0.984565 0
M  V30 10087 H 959.889 5.47613 0.694583 0
M  V30 10088 H 960.366 4.07188 1.64606 0
M  V30 10089 H 960.972 4.25297 -0.0163115 0
M  V30 10090 N 959.287 0.325282 1.54207 0
M  V30 10091 C 960.217 -0.532574 2.27345 0
M  V30 10092 C 961.198 -1.11791 1.28206 0
M  V30 10093 O 962.383 -1.14272 1.57021 0
M  V30 10094 C 959.513 -1.69274 3.03255 0
M  V30 10095 C 958.467 -1.23662 4.09746 0
M  V30 10096 C 957.793 -2.48386 4.73506 0
M  V30 10097 C 959.093 -0.350244 5.21124 0
M  V30 10098 H 960.787 0.0775108 2.993 0
M  V30 10099 H 958.333 0.0387193 1.43948 0
M  V30 10100 H 960.286 -2.29917 3.53152 0
M  V30 10101 H 959.01 -2.32944 2.28921 0
M  V30 10102 H 957.669 -0.653106 3.60735 0
M  V30 10103 H 957.317 -3.10424 3.95786 0
M  V30 10104 H 957.017 -2.18558 5.45441 0
M  V30 10105 H 958.541 -3.09789 5.26178 0
M  V30 10106 H 959.955 -0.863011 5.66767 0
M  V30 10107 H 958.352 -0.14466 5.99926 0
M  V30 10108 H 959.422 0.618457 4.8094 0
M  V30 10109 N 960.765 -1.57509 0.0534917 0
M  V30 10110 C 961.695 -2.14698 -0.917999 0
M  V30 10111 C 962.676 -1.06924 -1.32292 0
M  V30 10112 O 963.861 -1.34875 -1.39723 0
M  V30 10113 C 960.991 -2.69383 -2.19203 0
M  V30 10114 C 959.945 -3.82161 -1.9271 0
M  V30 10115 C 959.271 -4.23373 -3.26587 0
M  V30 10116 C 960.571 -5.07199 -1.24686 0
M  V30 10117 H 962.265 -2.96125 -0.44165 0
M  V30 10118 H 959.811 -1.42446 -0.210993 0
M  V30 10119 H 961.764 -3.08031 -2.87567 0
M  V30 10120 H 960.488 -1.85151 -2.69048 0
M  V30 10121 H 959.147 -3.43989 -1.26757 0
M  V30 10122 H 958.795 -3.36089 -3.74237 0
M  V30 10123 H 958.495 -4.99385 -3.09658 0
M  V30 10124 H 960.019 -4.64623 -3.96178 0
M  V30 10125 H 961.433 -5.43279 -1.83088 0
M  V30 10126 H 959.83 -5.88369 -1.18076 0
M  V30 10127 H 960.9 -4.84386 -0.223227 0
M  V30 10128 N 962.243 0.219913 -1.56058 0
M  V30 10129 C 963.153 1.29349 -1.95719 0
M  V30 10130 C 964.169 1.5119 -0.861248 0
M  V30 10131 O 965.345 1.64289 -1.16495 0
M  V30 10132 C 962.41 2.6229 -2.26726 0
M  V30 10133 C 961.471 2.48738 -3.49897 0
M  V30 10134 C 960.704 3.75339 -3.79416 0
M  V30 10135 O 960.927 4.78427 -3.10586 0
M  V30 10136 O 959.861 3.72352 -4.72903 0
M  V30 10137 H 963.687 0.986979 -2.87215 0
M  V30 10138 H 961.272 0.42291 -1.43289 0
M  V30 10139 H 963.154 3.408 -2.47857 0
M  V30 10140 H 961.829 2.92619 -1.38404 0
M  V30 10141 H 960.736 1.68422 -3.34043 0
M  V30 10142 H 962.069 2.23347 -4.38608 0
M  V30 10143 N 963.721 1.49897 0.486681 0
M  V30 10144 C 964.668 1.67619 1.58658 0
M  V30 10145 C 965.638 0.517537 1.57831 0
M  V30 10146 O 966.823 0.746272 1.756 0
M  V30 10147 C 963.963 1.762 2.96728 0
M  V30 10148 C 963.076 3.03465 3.07462 0
M  V30 10149 C 962.211 3.02937 4.36351 0
M  V30 10150 C 961.25 4.24721 4.4077 0
M  V30 10151 N 960.387 4.22021 5.61108 0
M  V30 10152 H 965.227 2.61528 1.42853 0
M  V30 10153 H 962.764 1.29657 0.694807 0
M  V30 10154 H 964.722 1.79156 3.76774 0
M  V30 10155 H 963.352 0.857452 3.11203 0
M  V30 10156 H 962.404 3.10054 2.20387 0
M  V30 10157 H 963.716 3.93454 3.06586 0
M  V30 10158 H 962.87 3.04536 5.24731 0
M  V30 10159 H 961.609 2.10751 4.39813 0
M  V30 10160 H 960.614 4.23352 3.5079 0
M  V30 10161 H 961.839 5.18116 4.39013 0
M  V30 10162 H 959.785 3.3268 5.65385 0
M  V30 10163 H 959.702 5.05761 5.61909 0
M  V30 10164 H 960.97 4.27743 6.51656 0
M  V30 10165 N 965.199 -0.738761 1.39212 0
M  V30 10166 C 966.446 -1.49824 1.36231 0
M  V30 10167 C 966.774 -1.94453 -0.0429552 0
M  V30 10168 O 966.029 -1.6683 -1.02304 0
M  V30 10169 C 966.328 -2.75435 2.2775 0
M  V30 10170 C 965.994 -2.49694 3.75451 0
M  V30 10171 C 964.656 -2.42383 4.15697 0
M  V30 10172 C 967.008 -2.27587 4.68885 0
M  V30 10173 C 964.336 -2.11001 5.47444 0
M  V30 10174 C 966.688 -1.97723 6.00906 0
M  V30 10175 C 965.352 -1.88879 6.4022 0
M  V30 10176 H 964.622 -0.548247 0.498504 0
M  V30 10177 H 967.269 -0.848244 1.71689 0
M  V30 10178 H 965.574 -3.45159 1.85398 0
M  V30 10179 H 967.271 -3.33449 2.22739 0
M  V30 10180 H 963.861 -2.56261 3.43552 0
M  V30 10181 H 968.045 -2.32206 4.38628 0
M  V30 10182 H 963.301 -2.02673 5.76831 0
M  V30 10183 H 967.475 -1.79625 6.72836 0
M  V30 10184 H 965.102 -1.64327 7.42227 0
M  V30 10185 N 966.677 -1.24326 -0.968545 0
M  V30 10186 C 968.088 -1.07561 -1.52603 0
M  V30 10187 C 968.439 0.353245 -1.92994 0
M  V30 10188 O 967.564 1.24151 -1.77244 0
M  V30 10189 C 968.159 -1.94634 -2.77314 0
M  V30 10190 C 966.718 -1.82095 -3.29421 0
M  V30 10191 C 965.865 -1.8962 -2.02335 0
M  V30 10192 H 968.816 -1.37815 -0.786932 0
M  V30 10193 H 968.837 -1.47812 -3.50616 0
M  V30 10194 H 968.349 -2.98621 -2.47885 0
M  V30 10195 H 966.45 -0.809376 -3.63703 0
M  V30 10196 H 966.563 -2.66142 -3.98378 0
M  V30 10197 H 964.927 -1.33339 -2.17009 0
M  V30 10198 H 965.71 -2.95185 -1.75273 0
M  V30 10199 N 968.156 1.1691 -1.05688 0
M  V30 10200 C 969.066 2.24735 -0.67315 0
M  V30 10201 C 970.082 1.71252 0.308043 0
M  V30 10202 O 971.258 2.00772 0.158889 0
M  V30 10203 C 968.323 3.4665 -0.059026 0
M  V30 10204 C 967.384 4.15198 -1.0913 0
M  V30 10205 C 966.617 5.31292 -0.50639 0
M  V30 10206 O 966.84 5.663 0.682692 0
M  V30 10207 O 965.774 5.88923 -1.2431 0
M  V30 10208 H 969.6 2.59855 -1.57191 0
M  V30 10209 H 967.185 1.24306 -0.828751 0
M  V30 10210 H 969.067 4.20455 0.282018 0
M  V30 10211 H 967.742 3.13316 0.813304 0
M  V30 10212 H 966.649 3.43389 -1.48442 0
M  V30 10213 H 967.982 4.52571 -1.93495 0
M  V30 10214 N 969.634 0.838594 1.33437 0
M  V30 10215 C 970.862 0.447644 2.01999 0
M  V30 10216 C 971.277 -0.951053 1.63096 0
M  V30 10217 O 970.634 -1.61802 0.844169 0
M  V30 10218 C 970.685 0.558378 3.57162 0
M  V30 10219 O 970.406 1.90196 3.94661 0
M  V30 10220 C 971.907 0.164348 4.42995 0
M  V30 10221 H 969.127 0.177736 0.647032 0
M  V30 10222 H 971.671 1.13109 1.70372 0
M  V30 10223 H 969.826 -0.0771563 3.87323 0
M  V30 10224 H 970.24 1.88729 4.89369 0
M  V30 10225 H 971.714 0.292876 5.51222 0
M  V30 10226 H 972.191 -0.893713 4.30011 0
M  V30 10227 H 972.797 0.774306 4.18192 0
M  V30 10228 N 971.112 -1.45937 0.595003 0
M  V30 10229 C 972.34 -2.06698 0.091293 0
M  V30 10230 C 972.755 -1.44176 -1.21897 0
M  V30 10231 O 972.112 -0.551402 -1.73971 0
M  V30 10232 C 972.163 -3.61436 -0.0681801 0
M  V30 10233 O 971.884 -4.21622 1.19023 0
M  V30 10234 C 973.385 -4.39155 -0.604814 0
M  V30 10235 H 970.605 -0.668029 0.0630737 0
M  V30 10236 H 973.149 -1.87376 0.819165 0
M  V30 10237 H 971.304 -3.80143 -0.746324 0
M  V30 10238 H 971.718 -5.14647 1.01187 0
M  V30 10239 H 973.192 -5.47973 -0.665532 0
M  V30 10240 H 973.669 -4.08055 -1.62444 0
M  V30 10241 H 974.275 -4.25282 0.0388658 0
M  V30 10242 N 972.59 -0.333456 -1.54032 0
M  V30 10243 C 973.838 0.265608 -2.00347 0
M  V30 10244 C 974.159 1.51873 -1.2231 0
M  V30 10245 O 973.429 1.93142 -0.327549 0
M  V30 10246 H 972.009 0.101135 -0.740122 0
M  V30 10247 H 974.671 -0.452285 -1.8958 0
M  V30 10248 H 973.767 0.51511 -3.0782 0
M  V30 10249 N 974.068 1.57479 -0.061844 0
M  V30 10250 C 975.308 1.94982 0.613309 0
M  V30 10251 C 975.672 0.940729 1.67375 0
M  V30 10252 O 976.873 1.20307 2.40374 0
M  V30 10253 C 975.144 3.37208 1.18429 0
M  V30 10254 S 976.703 3.96678 1.87596 0
M  V30 10255 H 973.521 0.681969 0.201096 0
M  V30 10256 H 976.123 1.95045 -0.133328 0
M  V30 10257 H 974.827 4.08441 0.400522 0
M  V30 10258 H 974.358 3.40665 1.96751 0
M  V30 10259 H 976.373 3.82772 3.15754 0
M  V30 10260 N 975.546 -0.211634 1.56173 0
M  V30 10261 C 976.962 -0.56177 1.49386 0
M  V30 10262 C 977.162 -1.86666 0.758813 0
M  V30 10263 O 976.218 -2.50681 0.302534 0
M  V30 10264 C 977.531 -0.631815 2.93987 0
M  V30 10265 C 979.079 -0.721773 3.04564 0
M  V30 10266 C 979.554 -0.823075 4.50544 0
M  V30 10267 N 981.045 -0.887038 4.54627 0
M  V30 10268 C 981.78 -0.985304 5.64871 0
M  V30 10269 N 981.276 -1.0469 6.84844 0
M  V30 10270 N 983.069 -1.02121 5.52746 0
M  V30 10271 H 975.22 0.64452 2.02385 0
M  V30 10272 H 977.483 0.227466 0.920306 0
M  V30 10273 H 977.189 0.257592 3.50755 0
M  V30 10274 H 977.063 -1.4921 3.46433 0
M  V30 10275 H 979.45 -1.60162 2.47855 0
M  V30 10276 H 979.531 0.164385 2.55271 0
M  V30 10277 H 979.175 0.0523511 5.07873 0
M  V30 10278 H 979.105 -1.72479 4.97552 0
M  V30 10279 H 981.596 -0.849352 3.68231 0
M  V30 10280 H 981.909 -1.12193 7.64613 0
M  V30 10281 H 980.254 -1.01586 6.87536 0
M  V30 10282 H 983.445 -0.969814 4.57943 0
M  V30 10283 H 983.618 -1.09434 6.38693 0
M  V30 10284 N 977.024 -1.50153 -0.478725 0
M  V30 10285 C 978.44 -1.3741 -0.811833 0
M  V30 10286 C 978.64 -0.424303 -1.96982 0
M  V30 10287 O 977.696 0.13588 -2.52134 0
M  V30 10288 C 979.009 -2.78616 -1.13108 0
M  V30 10289 C 980.557 -2.87477 -1.23798 0
M  V30 10290 C 981.032 -4.295 -1.5904 0
M  V30 10291 N 982.523 -4.32415 -1.66047 0
M  V30 10292 C 983.258 -5.39295 -1.94805 0
M  V30 10293 N 982.754 -6.56392 -2.21635 0
M  V30 10294 N 984.547 -5.26731 -1.96243 0
M  V30 10295 H 976.698 -2.10486 0.284531 0
M  V30 10296 H 978.961 -0.945786 0.0647585 0
M  V30 10297 H 978.667 -3.49921 -0.35334 0
M  V30 10298 H 978.541 -3.15382 -2.06915 0
M  V30 10299 H 980.928 -2.16396 -2.00641 0
M  V30 10300 H 981.009 -2.54264 -0.279888 0
M  V30 10301 H 980.653 -5.01115 -0.827404 0
M  V30 10302 H 980.583 -4.60194 -2.55987 0
M  V30 10303 H 983.074 -3.47975 -1.47383 0
M  V30 10304 H 983.387 -7.33658 -2.4283 0
M  V30 10305 H 981.732 -6.59579 -2.19043 0
M  V30 10306 H 984.923 -4.34249 -1.74773 0
M  V30 10307 H 985.096 -6.10115 -2.1832 0
M  V30 10308 N 978.502 0.731368 -1.39602 0
M  V30 10309 C 979.75 1.48805 -1.36753 0
M  V30 10310 C 980.071 1.94969 0.034676 0
M  V30 10311 O 979.341 1.69243 0.986591 0
M  V30 10312 H 977.921 0.55203 -0.503261 0
M  V30 10313 H 980.583 0.868013 -1.74504 0
M  V30 10314 H 979.679 2.36844 -2.03252 0
M  V30 10315 N 979.98 1.24838 0.961938 0
M  V30 10316 C 980.912 1.00369 2.06055 0
M  V30 10317 C 981.925 -0.0288583 1.62774 0
M  V30 10318 O 983.114 0.208853 1.77274 0
M  V30 10319 C 980.214 0.493953 3.35281 0
M  V30 10320 C 979.387 1.59097 4.07439 0
M  V30 10321 C 978.446 1.08288 5.14937 0
M  V30 10322 O 977.472 1.77577 5.40791 0
M  V30 10323 N 978.674 -0.0796836 5.80445 0
M  V30 10324 H 981.439 1.94962 2.27618 0
M  V30 10325 H 979 1.15945 1.12997 0
M  V30 10326 H 980.992 0.138675 4.04462 0
M  V30 10327 H 979.562 -0.357851 3.10545 0
M  V30 10328 H 978.782 2.11817 3.32456 0
M  V30 10329 H 980.07 2.32817 4.52409 0
M  V30 10330 H 979.468 -0.658827 5.6185 0
M  V30 10331 H 978.025 -0.376057 6.50714 0
M  V30 10332 N 981.458 -1.16348 1.06306 0
M  V30 10333 C 982.707 -1.8622 0.774909 0
M  V30 10334 C 983.02 -1.82598 -0.701245 0
M  V30 10335 O 984.226 -2.48051 -1.10377 0
M  V30 10336 C 982.682 -3.34182 1.33604 0
M  V30 10337 C 982.29 -3.46279 2.84245 0
M  V30 10338 C 984.034 -4.09309 1.12544 0
M  V30 10339 C 981.941 -4.88327 3.33602 0
M  V30 10340 H 980.871 -0.697574 0.286194 0
M  V30 10341 H 983.522 -1.31311 1.28179 0
M  V30 10342 H 981.904 -3.88698 0.756937 0
M  V30 10343 H 983.078 -3.01923 3.48108 0
M  V30 10344 H 981.393 -2.84585 3.03974 0
M  V30 10345 H 983.99 -5.14123 1.46909 0
M  V30 10346 H 984.333 -4.16251 0.0638129 0
M  V30 10347 H 984.866 -3.61032 1.67034 0
M  V30 10348 H 981.605 -4.86565 4.39244 0
M  V30 10349 H 981.125 -5.33307 2.74487 0
M  V30 10350 H 982.804 -5.57144 3.28937 0
M  V30 10351 N 982.937 -0.845659 -1.3299 0
M  V30 10352 C 983.884 -0.281761 -2.29074 0
M  V30 10353 C 984.854 0.606237 -1.54641 0
M  V30 10354 O 986.039 0.543063 -1.82908 0
M  V30 10355 C 983.179 0.531451 -3.40983 0
M  V30 10356 C 982.292 -0.381328 -4.30314 0
M  V30 10357 C 981.427 0.443643 -5.29344 0
M  V30 10358 C 980.466 -0.467101 -6.10315 0
M  V30 10359 N 979.603 0.320148 -7.0137 0
M  V30 10360 H 984.443 -1.10641 -2.76699 0
M  V30 10361 H 981.98 -0.55706 -1.36144 0
M  V30 10362 H 983.938 1.01848 -4.04577 0
M  V30 10363 H 982.568 1.32101 -2.94532 0
M  V30 10364 H 981.62 -0.986701 -3.6738 0
M  V30 10365 H 982.932 -1.08067 -4.86953 0
M  V30 10366 H 982.086 0.994212 -5.98498 0
M  V30 10367 H 980.825 1.17639 -4.73299 0
M  V30 10368 H 979.83 -1.02963 -5.40073 0
M  V30 10369 H 981.055 -1.19832 -6.68444 0
M  V30 10370 H 979.001 1.03615 -6.47765 0
M  V30 10371 H 978.918 -0.320338 -7.55321 0
M  V30 10372 H 980.186 0.852735 -7.74822 0
M  V30 10373 N 984.415 1.45619 -0.602734 0
M  V30 10374 C 985.645 2.06348 -0.102105 0
M  V30 10375 C 986.053 1.44884 1.21677 0
M  V30 10376 O 985.396 0.555559 1.75098 0
M  V30 10377 C 985.458 3.59309 0.117026 0
M  V30 10378 C 985.122 4.43081 -1.11931 0
M  V30 10379 C 986.119 4.78364 -2.03627 0
M  V30 10380 C 983.804 4.83908 -1.34677 0
M  V30 10381 C 985.798 5.53325 -3.16403 0
M  V30 10382 C 983.485 5.58624 -2.47754 0
M  V30 10383 C 984.483 5.93249 -3.38445 0
M  V30 10384 O 984.171 6.6645 -4.49555 0
M  V30 10385 H 983.903 0.672988 -0.0637478 0
M  V30 10386 H 986.457 1.87928 -0.828983 0
M  V30 10387 H 984.687 3.76111 0.898742 0
M  V30 10388 H 986.376 4.01897 0.568649 0
M  V30 10389 H 987.142 4.47384 -1.87277 0
M  V30 10390 H 983.021 4.56396 -0.649875 0
M  V30 10391 H 986.565 5.80268 -3.87214 0
M  V30 10392 H 982.462 5.89019 -2.64059 0
M  V30 10393 H 983.23 6.84895 -4.48175 0
M  V30 10394 N 985.893 0.34162 1.53853 0
M  V30 10395 C 987.118 -0.259608 2.05769 0
M  V30 10396 C 987.543 -1.43588 1.21507 0
M  V30 10397 O 986.901 -1.79856 0.228364 0
M  V30 10398 C 986.949 -0.654455 3.54611 0
M  V30 10399 O 986.053 -1.75472 3.73207 0
M  V30 10400 H 985.394 -0.0434621 0.662576 0
M  V30 10401 H 987.924 0.495274 1.98515 0
M  V30 10402 H 987.934 -0.932142 3.97209 0
M  V30 10403 H 986.609 0.205779 4.15391 0
M  V30 10404 H 985.186 -1.47444 3.42512 0
M  V30 10405 N 987.371 -1.57444 0.0701946 0
M  V30 10406 C 988.62 -1.92605 -0.598849 0
M  V30 10407 C 988.933 -0.952058 -1.70866 0
M  V30 10408 O 990.139 -1.19643 -2.43716 0
M  V30 10409 C 988.595 -3.42142 -1.11655 0
M  V30 10410 C 988.203 -4.47984 -0.0378355 0
M  V30 10411 C 989.947 -3.86307 -1.75975 0
M  V30 10412 C 987.854 -5.88652 -0.569495 0
M  V30 10413 H 986.784 -0.718873 -0.22746 0
M  V30 10414 H 989.435 -1.82948 0.14217 0
M  V30 10415 H 987.817 -3.46866 -1.91049 0
M  V30 10416 H 988.991 -4.54874 0.736661 0
M  V30 10417 H 987.306 -4.13277 0.50904 0
M  V30 10418 H 989.903 -4.88784 -2.16782 0
M  V30 10419 H 990.246 -3.23587 -2.61911 0
M  V30 10420 H 990.779 -3.84179 -1.03206 0
M  V30 10421 H 987.518 -6.55013 0.252662 0
M  V30 10422 H 987.038 -5.85285 -1.31155 0
M  V30 10423 H 988.717 -6.38482 -1.04641 0
M  V30 10424 N 988.849 0.203349 -1.56283 0
M  V30 10425 C 989.782 1.27982 -1.88934 0
M  V30 10426 C 990.76 1.44345 -0.748555 0
M  V30 10427 O 991.944 1.59867 -0.998741 0
M  V30 10428 C 989.071 2.64762 -2.11231 0
M  V30 10429 C 988.117 2.65315 -3.33932 0
M  V30 10430 S 988.95 2.17568 -4.8931 0
M  V30 10431 C 990.106 3.56189 -5.14665 0
M  V30 10432 H 990.339 1.00095 -2.79943 0
M  V30 10433 H 987.872 0.406458 -1.48954 0
M  V30 10434 H 989.83 3.43501 -2.2476 0
M  V30 10435 H 988.491 2.89864 -1.20986 0
M  V30 10436 H 987.684 3.6587 -3.46634 0
M  V30 10437 H 987.286 1.94652 -3.19353 0
M  V30 10438 H 989.578 4.52001 -5.0468 0
M  V30 10439 H 990.521 3.48387 -6.16467 0
M  V30 10440 H 990.929 3.50719 -4.42331 0
M  V30 10441 N 990.327 1.50405 0.470755 0
M  V30 10442 C 991.277 1.65681 1.56633 0
M  V30 10443 C 992.261 0.511424 1.52556 0
M  V30 10444 O 993.453 0.765844 1.59574 0
M  V30 10445 C 990.582 1.7546 2.95074 0
M  V30 10446 C 989.668 2.95676 3.04034 0
M  V30 10447 N 990.059 4.1935 2.82807 0
M  V30 10448 C 988.357 2.94241 3.35169 0
M  V30 10449 C 989.058 5.0032 2.96741 0
M  V30 10450 N 988.034 4.34282 3.26956 0
M  V30 10451 H 991.836 2.58994 1.38922 0
M  V30 10452 H 989.35 1.47593 0.67749 0
M  V30 10453 H 991.347 1.84508 3.73848 0
M  V30 10454 H 990.007 0.833057 3.13832 0
M  V30 10455 H 991.018 4.48842 2.58382 0
M  V30 10456 H 987.695 2.11587 3.59913 0
M  V30 10457 H 989.085 6.08664 2.84566 0
M  V30 10458 N 991.805 -0.723954 1.39988 0
M  V30 10459 C 993.216 -1.30273 1.33738 0
M  V30 10460 C 993.567 -1.96199 0.00690581 0
M  V30 10461 O 992.692 -1.97016 -0.895179 0
M  V30 10462 C 993.287 -2.36889 2.42217 0
M  V30 10463 C 991.846 -2.90412 2.39453 0
M  V30 10464 C 990.993 -1.64103 2.2353 0
M  V30 10465 H 993.944 -0.520672 1.49916 0
M  V30 10466 H 993.965 -3.17538 2.09642 0
M  V30 10467 H 993.477 -1.88878 3.39038 0
M  V30 10468 H 991.578 -3.42674 1.46304 0
M  V30 10469 H 991.691 -3.42775 3.34727 0
M  V30 10470 H 990.055 -1.88855 1.70897 0
M  V30 10471 H 990.838 -1.18128 3.22336 0
M  V30 10472 N 993.283 -1.25346 -0.955304 0
M  V30 10473 C 994.531 -1.09837 -1.69647 0
M  V30 10474 C 994.852 0.361425 -1.91621 0
M  V30 10475 O 994.122 1.25666 -1.50283 0
M  V30 10476 H 992.702 -0.403467 -0.628668 0
M  V30 10477 H 995.364 -1.57459 -1.14859 0
M  V30 10478 H 994.46 -1.60616 -2.67598 0
M  V30 10479 N 994.761 1.15782 -1.06922 0
M  V30 10480 C 995.989 1.90355 -0.81072 0
M  V30 10481 C 996.404 1.77779 0.635614 0
M  V30 10482 O 995.761 1.12675 1.43564 0
M  V30 10483 C 995.812 3.4085 -1.2043 0
M  V30 10484 O 995.533 3.53057 -2.59388 0
M  V30 10485 C 997.034 4.32457 -0.974473 0
M  V30 10486 H 994.254 0.60343 -0.293451 0
M  V30 10487 H 996.798 1.46723 -1.42452 0
M  V30 10488 H 994.953 3.82162 -0.634909 0
M  V30 10489 H 995.367 4.46426 -2.75326 0
M  V30 10490 H 996.841 5.36488 -1.29942 0
M  V30 10491 H 997.318 4.39109 0.0894481 0
M  V30 10492 H 997.924 3.96882 -1.52856 0
M  V30 10493 N 996.239 0.8527 1.3254 0
M  V30 10494 C 997.189 0.267711 2.26423 0
M  V30 10495 C 998.173 -0.585305 1.49877 0
M  V30 10496 O 999.365 -0.435008 1.71571 0
M  V30 10497 C 996.494 -0.544605 3.38953 0
M  V30 10498 C 995.58 0.32069 4.22886 0
M  V30 10499 N 995.971 1.40601 4.85865 0
M  V30 10500 C 994.269 0.110101 4.45864 0
M  V30 10501 C 994.97 1.93819 5.48461 0
M  V30 10502 N 993.946 1.23764 5.29324 0
M  V30 10503 H 997.748 1.09747 2.7264 0
M  V30 10504 H 995.262 0.698607 1.46606 0
M  V30 10505 H 997.259 -0.98009 4.05216 0
M  V30 10506 H 995.919 -1.37218 2.94281 0
M  V30 10507 H 996.93 1.78894 4.86022 0
M  V30 10508 H 993.607 -0.682917 4.11877 0
M  V30 10509 H 994.997 2.84783 6.08562 0
M  V30 10510 N 997.718 -1.45297 0.610449 0
M  V30 10511 C 998.964 -2.02518 0.106917 0
M  V30 10512 C 999.297 -1.47747 -1.26034 0
M  V30 10513 O 998.572 -0.65329 -1.832 0
M  V30 10514 C 998.855 -3.6003 0.0710975 0
M  V30 10515 C 998.708 -4.25128 1.46922 0
M  V30 10516 C 1000.03 -4.35778 -0.61524 0
M  V30 10517 H 997.146 -0.735896 0.040327 0
M  V30 10518 H 999.788 -1.73117 0.782968 0
M  V30 10519 H 997.938 -3.85209 -0.504611 0
M  V30 10520 H 999.61 -4.11125 2.09223 0
M  V30 10521 H 997.853 -3.83418 2.02911 0
M  V30 10522 H 998.524 -5.34046 1.39637 0
M  V30 10523 H 1001 -4.1591 -0.125871 0
M  V30 10524 H 999.876 -5.45506 -0.609419 0
M  V30 10525 H 1000.14 -4.08859 -1.68186 0
M  V30 10526 N 999.196 -0.349774 -1.5367 0
M  V30 10527 C 1000.44 0.237837 -2.02005 0
M  V30 10528 C 1000.8 1.477 -1.23298 0
M  V30 10529 O 1000.09 1.8901 -0.313947 0
M  V30 10530 C 1000.28 0.598311 -3.52356 0
M  V30 10531 C 1000.11 -0.604368 -4.4562 0
M  V30 10532 C 998.883 -1.1116 -4.92922 0
M  V30 10533 C 1001.08 -1.46474 -4.93001 0
M  V30 10534 N 999.063 -2.27595 -5.70152 0
M  V30 10535 C 1000.43 -2.47593 -5.68417 0
M  V30 10536 C 1002.49 -1.48947 -4.75099 0
M  V30 10537 C 1001.19 -3.51021 -6.27835 0
M  V30 10538 C 1003.22 -2.51259 -5.35372 0
M  V30 10539 C 1002.58 -3.51103 -6.1066 0
M  V30 10540 H 998.679 0.0501688 -0.780389 0
M  V30 10541 H 1001.26 -0.490748 -1.88414 0
M  V30 10542 H 999.434 1.29599 -3.6614 0
M  V30 10543 H 1001.17 1.16965 -3.87429 0
M  V30 10544 H 997.921 -0.678699 -4.68712 0
M  V30 10545 H 998.345 -2.864 -6.13436 0
M  V30 10546 H 1002.99 -0.731138 -4.1643 0
M  V30 10547 H 1000.7 -4.27745 -6.85609 0
M  V30 10548 H 1004.29 -2.54006 -5.23423 0
M  V30 10549 H 1003.17 -4.28974 -6.56469 0
M  V30 10550 N 1000.67 1.57404 -0.0785433 0
M  V30 10551 C 1002.08 1.81118 0.45311 0
M  V30 10552 C 1002.44 0.992963 1.69218 0
M  V30 10553 O 1001.56 0.217448 2.15305 0
M  V30 10554 C 1002.16 3.28506 0.82882 0
M  V30 10555 C 1000.71 3.53042 1.3053 0
M  V30 10556 C 999.862 2.75739 0.29378 0
M  V30 10557 H 1002.81 1.55758 -0.304171 0
M  V30 10558 H 1002.83 3.40924 1.68971 0
M  V30 10559 H 1002.35 3.88031 -0.0731826 0
M  V30 10560 H 1000.45 2.98829 2.22558 0
M  V30 10561 H 1000.56 4.61724 1.27857 0
M  V30 10562 H 998.924 2.42703 0.772477 0
M  V30 10563 H 999.707 3.38005 -0.600613 0
M  V30 10564 N 1002.15 -0.195058 1.56388 0
M  V30 10565 C 1003.1 -1.24584 1.90952 0
M  V30 10566 C 1004.09 -1.40993 0.77522 0
M  V30 10567 O 1005.28 -1.43363 1.03808 0
M  V30 10568 C 1002.41 -2.59064 2.25258 0
M  V30 10569 C 1001.49 -2.46447 3.45145 0
M  V30 10570 N 1001.88 -2.0351 4.63052 0
M  V30 10571 C 1000.18 -2.77339 3.49283 0
M  V30 10572 C 1000.88 -2.02785 5.45209 0
M  V30 10573 N 999.859 -2.4429 4.85616 0
M  V30 10574 H 1003.66 -0.9052 2.79613 0
M  V30 10575 H 1001.17 -0.403493 1.57308 0
M  V30 10576 H 1003.17 -3.34963 2.48205 0
M  V30 10577 H 1001.83 -2.93951 1.37924 0
M  V30 10578 H 1002.84 -1.74219 4.87717 0
M  V30 10579 H 999.52 -3.16423 2.72365 0
M  V30 10580 H 1000.91 -1.71489 6.49647 0
M  V30 10581 N 1003.63 -1.50653 -0.462772 0
M  V30 10582 C 1004.86 -1.65826 -1.23731 0
M  V30 10583 C 1005.27 -0.345002 -1.85621 0
M  V30 10584 O 1004.63 0.673935 -1.69601 0
M  V30 10585 C 1004.68 -2.7555 -2.33997 0
M  V30 10586 O 1004.4 -4.01785 -1.74643 0
M  V30 10587 C 1005.9 -3.0177 -3.2473 0
M  V30 10588 H 1003.12 -0.557177 -0.373892 0
M  V30 10589 H 1005.67 -1.96925 -0.551434 0
M  V30 10590 H 1003.82 -2.47122 -2.98345 0
M  V30 10591 H 1004.24 -4.62529 -2.4732 0
M  V30 10592 H 1005.71 -3.82188 -3.98292 0
M  V30 10593 H 1006.19 -2.13167 -3.84001 0
M  V30 10594 H 1006.79 -3.31761 -2.66111 0
M  V30 10595 N 1005.11 0.71652 -1.4037 0
M  V30 10596 C 1006.36 1.47347 -1.38324 0
M  V30 10597 C 1006.68 1.94995 0.0139949 0
M  V30 10598 O 1005.95 1.7028 0.968585 0
M  V30 10599 H 1004.53 0.546662 -0.509087 0
M  V30 10600 H 1007.19 0.849455 -1.75415 0
M  V30 10601 H 1006.29 2.34675 -2.05752 0
M  V30 10602 N 1006.59 1.25851 0.948643 0
M  V30 10603 C 1008 1.09975 1.50872 0
M  V30 10604 C 1008.35 -0.322497 1.93531 0
M  V30 10605 O 1007.47 -1.21316 1.79197 0
M  V30 10606 C 1008.07 1.99021 2.74182 0
M  V30 10607 C 1006.63 1.87313 3.26483 0
M  V30 10608 C 1005.77 1.92815 1.99293 0
M  V30 10609 H 1008.73 1.3905 0.764908 0
M  V30 10610 H 1008.75 1.53372 3.4822 0
M  V30 10611 H 1008.26 3.02527 2.43103 0
M  V30 10612 H 1006.36 0.867136 3.62369 0
M  V30 10613 H 1006.47 2.72446 3.94094 0
M  V30 10614 H 1004.84 1.36774 2.1486 0
M  V30 10615 H 1005.62 2.97936 1.70554 0
M  V30 10616 N 1008.06 -1.15214 1.07534 0
M  V30 10617 C 1009.29 -1.89922 0.820804 0
M  V30 10618 C 1009.71 -1.78114 -0.626177 0
M  V30 10619 O 1009.06 -1.13435 -1.42964 0
M  V30 10620 C 1009.12 -3.40207 1.22236 0
M  V30 10621 O 1008.84 -3.51676 2.61257 0
M  V30 10622 C 1010.34 -4.31934 0.997393 0
M  V30 10623 H 1007.56 -0.601865 0.296647 0
M  V30 10624 H 1010.1 -1.45965 1.43229 0
M  V30 10625 H 1008.26 -3.8182 0.655167 0
M  V30 10626 H 1008.67 -4.44959 2.77689 0
M  V30 10627 H 1010.14 -5.35791 1.32785 0
M  V30 10628 H 1010.62 -4.3915 -0.0661599 0
M  V30 10629 H 1011.23 -3.96066 1.54958 0
M  V30 10630 N 1009.54 -0.859717 -1.32086 0
M  V30 10631 C 1010.49 -0.296897 -2.30697 0
M  V30 10632 C 1011.48 0.582473 -1.59071 0
M  V30 10633 O 1012.69 0.469713 -1.73763 0
M  V30 10634 H 1009.07 -0.0773132 -0.748015 0
M  V30 10635 H 1011.04 -1.14273 -2.75652 0
M  V30 10636 C 1009.79 0.495546 -3.44151 0
M  V30 10637 H 1009.11 -0.171829 -3.99431 0
M  V30 10638 H 1010.55 0.854854 -4.15293 0
M  V30 10639 C 1009.01 1.68278 -2.91863 0
M  V30 10640 O 1009.54 2.78194 -2.89777 0
M  V30 10641 N 1007.74 1.51151 -2.48197 0
M  V30 10642 H 1007.29 0.617345 -2.50093 0
M  V30 10643 H 1007.25 2.3073 -2.13567 0
M  V30 10644 N 1011.02 1.44971 -0.618145 0
M  V30 10645 C 1012.26 2.04044 -0.120625 0
M  V30 10646 C 1012.62 1.47472 1.22947 0
M  V30 10647 O 1013.83 1.97965 1.81834 0
M  V30 10648 C 1012.1 3.57279 -0.0930863 0
M  V30 10649 S 1013.66 4.37468 0.341705 0
M  V30 10650 H 1010.47 0.708891 -0.0547272 0
M  V30 10651 H 1013.08 1.77535 -0.818621 0
M  V30 10652 H 1011.78 3.95961 -1.07903 0
M  V30 10653 H 1011.31 3.88378 0.62657 0
M  V30 10654 H 1013.33 4.70073 1.58888 0
M  V30 10655 N 1012.5 0.357919 1.53482 0
M  V30 10656 C 1013.91 0.00655107 1.59599 0
M  V30 10657 C 1014.11 -1.47449 1.37336 0
M  V30 10658 O 1013.17 -2.2351 1.17472 0
M  V30 10659 C 1014.48 0.455617 2.97228 0
M  V30 10660 C 1016.03 0.409183 3.10314 0
M  V30 10661 C 1016.51 0.833941 4.50344 0
M  V30 10662 N 1018 0.788695 4.56436 0
M  V30 10663 C 1018.73 1.08914 5.62961 0
M  V30 10664 N 1018.23 1.45847 6.77274 0
M  V30 10665 N 1020.02 1.01243 5.52907 0
M  V30 10666 H 1012.17 1.32248 1.66206 0
M  V30 10667 H 1014.44 0.540047 0.779136 0
M  V30 10668 H 1014.14 1.48881 3.18634 0
M  V30 10669 H 1014.02 -0.161751 3.76853 0
M  V30 10670 H 1016.4 -0.614863 2.88623 0
M  V30 10671 H 1016.48 1.06195 2.32715 0
M  V30 10672 H 1016.13 1.85607 4.72771 0
M  V30 10673 H 1016.06 0.158507 5.26361 0
M  V30 10674 H 1018.55 0.516497 3.74354 0
M  V30 10675 H 1018.86 1.67218 7.54492 0
M  V30 10676 H 1017.21 1.49705 6.78685 0
M  V30 10677 H 1020.4 0.723137 4.62481 0
M  V30 10678 H 1020.57 1.24991 6.35831 0
M  V30 10679 N 1013.98 -1.5736 0.0868897 0
M  V30 10680 C 1014.91 -2.16596 -0.872252 0
M  V30 10681 C 1015.89 -1.09706 -1.29995 0
M  V30 10682 O 1017.07 -1.37808 -1.36831 0
M  V30 10683 C 1014.2 -2.73972 -2.1344 0
M  V30 10684 C 1013.16 -3.86163 -1.8456 0
M  V30 10685 C 1012.48 -4.30206 -3.17533 0
M  V30 10686 C 1013.78 -5.0973 -1.13899 0
M  V30 10687 H 1015.48 -2.96995 -0.378738 0
M  V30 10688 H 1013.02 -1.42861 -0.18073 0
M  V30 10689 H 1014.98 -3.14062 -2.80968 0
M  V30 10690 H 1013.7 -1.90817 -2.6506 0
M  V30 10691 H 1012.36 -3.466 -1.19432 0
M  V30 10692 H 1012.01 -3.43951 -3.67024 0
M  V30 10693 H 1011.71 -5.05841 -2.98996 0
M  V30 10694 H 1013.23 -4.72922 -3.86234 0
M  V30 10695 H 1014.64 -5.4704 -1.71523 0
M  V30 10696 H 1013.04 -5.90741 -1.05569 0
M  V30 10697 H 1014.11 -4.8475 -0.120432 0
M  V30 10698 N 1015.45 0.186762 -1.56489 0
M  V30 10699 C 1016.87 0.537933 -1.50261 0
M  V30 10700 C 1017.07 1.85435 -0.788414 0
M  V30 10701 O 1016.13 2.50168 -0.342377 0
M  V30 10702 C 1017.44 0.584965 -2.94955 0
M  V30 10703 C 1018.99 0.673228 -3.05674 0
M  V30 10704 C 1019.46 0.751294 -4.51796 0
M  V30 10705 N 1020.95 0.814599 -4.55981 0
M  V30 10706 C 1021.69 0.895313 -5.66367 0
M  V30 10707 N 1021.18 0.937814 -6.86423 0
M  V30 10708 N 1022.98 0.933145 -5.543 0
M  V30 10709 H 1015.13 -0.676636 -2.01334 0
M  V30 10710 H 1017.39 -0.242079 -0.916571 0
M  V30 10711 H 1017.1 -0.313361 -3.50301 0
M  V30 10712 H 1016.97 1.4368 -3.48763 0
M  V30 10713 H 1019.36 1.56198 -2.50372 0
M  V30 10714 H 1019.44 -0.204976 -2.54977 0
M  V30 10715 H 1019.08 -0.133143 -5.07725 0
M  V30 10716 H 1019.01 1.64542 -5.00233 0
M  V30 10717 H 1021.5 0.790662 -3.69536 0
M  V30 10718 H 1021.82 1.00015 -7.66301 0
M  V30 10719 H 1020.16 0.906351 -6.89065 0
M  V30 10720 H 1023.35 0.896836 -4.59428 0
M  V30 10721 H 1023.53 0.992588 -6.40353 0
M  V30 10722 N 1016.93 1.50896 0.454776 0
M  V30 10723 C 1017.87 1.65608 1.57001 0
M  V30 10724 C 1018.84 0.50387 1.54596 0
M  V30 10725 O 1020.03 0.725485 1.7398 0
M  V30 10726 C 1017.15 1.65366 2.95587 0
M  V30 10727 C 1016.2 2.86344 3.16085 0
M  V30 10728 S 1017.03 4.47418 2.9424 0
M  V30 10729 C 1018.19 4.49895 4.35138 0
M  V30 10730 H 1018.42 2.59941 1.44285 0
M  V30 10731 H 1015.96 1.40362 0.643264 0
M  V30 10732 H 1017.91 1.65911 3.75478 0
M  V30 10733 H 1016.57 0.722407 3.0568 0
M  V30 10734 H 1015.77 2.82526 4.17367 0
M  V30 10735 H 1015.37 2.8345 2.43992 0
M  V30 10736 H 1017.66 4.24462 5.28051 0
M  V30 10737 H 1018.6 5.5161 4.43995 0
M  V30 10738 H 1019.01 3.79412 4.17979 0
M  V30 10739 N 1018.41 -0.709066 1.40748 0
M  V30 10740 C 1019.36 -1.8149 1.38005 0
M  V30 10741 C 1020.34 -1.58842 0.256544 0
M  V30 10742 O 1021.54 -1.69904 0.496164 0
M  V30 10743 C 1018.67 -3.19678 1.25143 0
M  V30 10744 C 1017.75 -3.48067 2.42301 0
M  V30 10745 N 1018.14 -3.47234 3.6778 0
M  V30 10746 C 1016.44 -3.78555 2.35822 0
M  V30 10747 C 1017.14 -3.74149 4.45407 0
M  V30 10748 N 1016.12 -3.93224 3.75335 0
M  V30 10749 H 1019.92 -1.79188 2.32957 0
M  V30 10750 H 1017.43 -0.908477 1.34612 0
M  V30 10751 H 1019.43 -3.98875 1.2126 0
M  V30 10752 H 1018.09 -3.23201 0.311642 0
M  V30 10753 H 1019.1 -3.2793 4.00852 0
M  V30 10754 H 1015.78 -3.89529 1.50245 0
M  V30 10755 H 1017.17 -3.79755 5.54289 0
M  V30 10756 N 1019.89 -1.26353 -0.941956 0
M  V30 10757 C 1020.82 -1.10341 -2.05784 0
M  V30 10758 C 1021.8 -0.00881565 -1.70098 0
M  V30 10759 O 1022.99 -0.180699 -1.93357 0
M  V30 10760 C 1020.12 -0.734788 -3.39438 0
M  V30 10761 C 1019.07 -1.78103 -3.89183 0
M  V30 10762 C 1018.4 -1.26675 -5.19478 0
M  V30 10763 C 1019.7 -3.1824 -4.14151 0
M  V30 10764 H 1021.39 -2.03684 -2.19438 0
M  V30 10765 H 1018.94 -0.980698 -1.05443 0
M  V30 10766 H 1020.89 -0.609653 -4.16967 0
M  V30 10767 H 1019.61 0.234354 -3.25758 0
M  V30 10768 H 1018.27 -1.89482 -3.13835 0
M  V30 10769 H 1017.92 -0.287472 -5.02178 0
M  V30 10770 H 1017.62 -1.96612 -5.53731 0
M  V30 10771 H 1019.14 -1.15427 -5.99591 0
M  V30 10772 H 1020.56 -3.09942 -4.82296 0
M  V30 10773 H 1018.95 -3.8576 -4.59684 0
M  V30 10774 H 1020.02 -3.64354 -3.19959 0
M  V30 10775 N 1021.37 1.14642 -1.08144 0
M  V30 10776 C 1022.62 1.8525 -0.807885 0
M  V30 10777 C 1022.94 1.83194 0.668213 0
M  V30 10778 O 1022.21 1.27848 1.48431 0
M  V30 10779 H 1020.79 0.685909 -0.295868 0
M  V30 10780 H 1023.45 1.38935 -1.36686 0
M  V30 10781 H 1022.54 2.90155 -1.14964 0
M  V30 10782 N 1022.85 0.866709 1.31628 0
M  V30 10783 C 1023.78 0.335762 2.31073 0
M  V30 10784 C 1024.76 -0.571597 1.60209 0
M  V30 10785 O 1025.94 -0.489306 1.87935 0
M  V30 10786 C 1023.07 -0.466416 3.44154 0
M  V30 10787 C 1022.03 0.347561 4.26586 0
M  V30 10788 C 1021.35 -0.5801 5.31544 0
M  V30 10789 C 1022.65 1.57986 4.97833 0
M  V30 10790 H 1024.35 1.16673 2.75731 0
M  V30 10791 H 1021.89 0.56248 1.3256 0
M  V30 10792 H 1023.84 -0.84836 4.12772 0
M  V30 10793 H 1022.57 -1.33086 2.98254 0
M  V30 10794 H 1021.23 0.71141 3.59631 0
M  V30 10795 H 1020.88 -1.44174 4.81895 0
M  V30 10796 H 1020.58 -0.0393965 5.87587 0
M  V30 10797 H 1022.1 -0.958958 6.03023 0
M  V30 10798 H 1023.51 1.26954 5.59067 0
M  V30 10799 H 1021.91 2.05939 5.63657 0
M  V30 10800 H 1022.98 2.3345 4.25005 0
M  V30 10801 N 1024.32 -1.44642 0.625825 0
M  V30 10802 C 1025.57 -2.02393 0.128391 0
M  V30 10803 C 1025.9 -1.49075 -1.2446 0
M  V30 10804 O 1025.18 -0.672684 -1.82497 0
M  V30 10805 C 1025.46 -3.59934 0.109279 0
M  V30 10806 C 1025.31 -4.23546 1.51423 0
M  V30 10807 C 1026.63 -4.36406 -0.568985 0
M  V30 10808 H 1023.75 -0.735427 0.0481299 0
M  V30 10809 H 1026.39 -1.72277 0.801286 0
M  V30 10810 H 1024.54 -3.85722 -0.463726 0
M  V30 10811 H 1026.22 -4.08882 2.13572 0
M  V30 10812 H 1024.46 -3.81245 2.06966 0
M  V30 10813 H 1025.13 -5.32535 1.45294 0
M  V30 10814 H 1027.61 -4.1602 -0.0817516 0
M  V30 10815 H 1026.48 -5.46122 -0.551527 0
M  V30 10816 H 1026.74 -4.1062 -1.6384 0
M  V30 10817 N 1025.8 -0.366053 -1.5329 0
M  V30 10818 C 1027.05 0.224614 -2.00445 0
M  V30 10819 C 1027.36 1.49829 -1.2574 0
M  V30 10820 O 1028.57 2.16759 -1.63487 0
M  V30 10821 C 1027.03 0.450818 -3.57065 0
M  V30 10822 C 1026.63 -0.808257 -4.40649 0
M  V30 10823 C 1028.38 0.999116 -4.12575 0
M  V30 10824 C 1026.28 -0.551612 -5.88822 0
M  V30 10825 H 1025.21 0.0877114 -0.748881 0
M  V30 10826 H 1027.87 -0.484866 -1.76978 0
M  V30 10827 H 1026.25 1.22157 -3.76688 0
M  V30 10828 H 1027.42 -1.58184 -4.32798 0
M  V30 10829 H 1025.74 -1.27981 -3.96245 0
M  V30 10830 H 1028.33 1.20646 -5.20911 0
M  V30 10831 H 1028.68 1.96139 -3.67199 0
M  V30 10832 H 1029.21 0.288518 -3.96752 0
M  V30 10833 H 1025.95 -1.48423 -6.38475 0
M  V30 10834 H 1025.47 0.183462 -5.99519 0
M  V30 10835 H 1027.15 -0.177307 -6.46757 0
M  V30 10836 N 1027.28 1.57312 -0.0952337 0
M  V30 10837 C 1028.69 1.81589 0.433875 0
M  V30 10838 C 1029.04 1.01086 1.68155 0
M  V30 10839 O 1028.17 0.240272 2.15062 0
M  V30 10840 C 1028.76 3.29366 0.793931 0
M  V30 10841 C 1027.32 3.54407 1.26778 0
M  V30 10842 C 1026.47 2.76035 0.264518 0
M  V30 10843 H 1029.42 1.55426 -0.320675 0
M  V30 10844 H 1029.44 3.42697 1.65345 0
M  V30 10845 H 1028.95 3.87932 -0.114334 0
M  V30 10846 H 1027.05 3.01173 2.19376 0
M  V30 10847 H 1027.17 4.63055 1.22952 0
M  V30 10848 H 1025.53 2.43509 0.746691 0
M  V30 10849 H 1026.31 3.37349 -0.636429 0
M  V30 10850 N 1028.76 -0.17846 1.56586 0
M  V30 10851 C 1029.7 -1.22104 1.95855 0
M  V30 10852 C 1030.67 -1.44366 0.821447 0
M  V30 10853 O 1031.86 -1.57224 1.08098 0
M  V30 10854 C 1029 -2.55701 2.31757 0
M  V30 10855 C 1028.11 -2.40879 3.5861 0
M  V30 10856 C 1027.25 -3.67293 3.83757 0
M  V30 10857 C 1026.29 -3.47373 5.03982 0
M  V30 10858 N 1025.42 -4.65839 5.25298 0
M  V30 10859 H 1030.26 -0.879168 2.84736 0
M  V30 10860 H 1027.8 -0.422721 1.40895 0
M  V30 10861 H 1029.76 -3.33556 2.50592 0
M  V30 10862 H 1028.39 -2.87898 1.45995 0
M  V30 10863 H 1027.44 -1.54236 3.47729 0
M  V30 10864 H 1028.75 -2.22102 4.46623 0
M  V30 10865 H 1027.91 -4.53584 4.02922 0
M  V30 10866 H 1026.65 -3.89041 2.94107 0
M  V30 10867 H 1025.65 -2.59467 4.84723 0
M  V30 10868 H 1026.88 -3.27055 5.95157 0
M  V30 10869 H 1024.82 -4.8782 4.38598 0
M  V30 10870 H 1024.74 -4.4995 6.0752 0
M  V30 10871 H 1026.01 -5.53435 5.48936 0
M  V30 10872 N 1030.24 -1.51135 -0.446768 0
M  V30 10873 C 1031.15 -1.74595 -1.56696 0
M  V30 10874 C 1032.16 -0.629816 -1.62201 0
M  V30 10875 O 1033.34 -0.910987 -1.79619 0
M  V30 10876 C 1030.4 -1.85738 -2.9275 0
M  V30 10877 C 1029.46 -3.09564 -2.97437 0
M  V30 10878 C 1028.7 -3.20165 -4.27001 0
M  V30 10879 O 1028.92 -2.36939 -5.1886 0
M  V30 10880 O 1027.85 -4.13077 -4.3778 0
M  V30 10881 H 1031.68 -2.69601 -1.39817 0
M  V30 10882 H 1029.26 -1.35523 -0.628805 0
M  V30 10883 H 1031.15 -1.95107 -3.73512 0
M  V30 10884 H 1029.82 -0.939184 -3.09776 0
M  V30 10885 H 1028.73 -3.05679 -2.15664 0
M  V30 10886 H 1030.06 -4.01041 -2.85353 0
M  V30 10887 N 1031.71 0.701592 -1.41122 0
M  V30 10888 C 1032.96 1.45871 -1.39879 0
M  V30 10889 C 1033.28 1.94999 -0.00668769 0
M  V30 10890 O 1032.55 1.71298 0.95047 0
M  V30 10891 H 1031.13 0.541231 -0.514857 0
M  V30 10892 H 1033.79 0.830803 -1.76306 0
M  V30 10893 H 1032.89 2.32479 -2.0823 0
M  V30 10894 N 1033.19 1.2685 0.935242 0
M  V30 10895 C 1034.43 1.13972 1.69675 0
M  V30 10896 C 1034.8 -0.310655 1.8947 0
M  V30 10897 O 1036 -0.561692 2.62866 0
M  V30 10898 C 1034.27 1.89387 3.03096 0
M  V30 10899 S 1035.83 1.92633 3.94256 0
M  V30 10900 H 1032.64 0.407009 0.582979 0
M  V30 10901 H 1035.25 1.60653 1.11404 0
M  V30 10902 H 1033.95 2.9397 2.86374 0
M  V30 10903 H 1033.48 1.43171 3.66423 0
M  V30 10904 H 1035.5 1.01732 4.85659 0
M  V30 10905 N 1034.67 -1.14067 1.0875 0
M  V30 10906 C 1035.62 -2.19261 0.720633 0
M  V30 10907 C 1036.59 -1.63462 -0.294847 0
M  V30 10908 O 1037.77 -1.89967 -0.178058 0
M  V30 10909 C 1034.91 -3.44816 0.139873 0
M  V30 10910 C 1034.03 -4.1475 1.20856 0
M  V30 10911 C 1033.16 -5.27899 0.591285 0
M  V30 10912 C 1032.2 -5.89672 1.64176 0
M  V30 10913 N 1031.34 -6.94264 1.04603 0
M  V30 10914 H 1036.18 -2.49991 1.62198 0
M  V30 10915 H 1033.71 -1.22757 0.810497 0
M  V30 10916 H 1035.67 -4.16648 -0.214587 0
M  V30 10917 H 1034.3 -3.14558 -0.724774 0
M  V30 10918 H 1033.35 -3.41272 1.6804 0
M  V30 10919 H 1034.67 -4.56753 2.00446 0
M  V30 10920 H 1033.82 -6.06417 0.185271 0
M  V30 10921 H 1032.56 -4.87128 -0.236236 0
M  V30 10922 H 1031.56 -5.09854 2.05739 0
M  V30 10923 H 1032.79 -6.32517 2.47182 0
M  V30 10924 H 1030.73 -6.55562 0.239664 0
M  V30 10925 H 1030.65 -7.34771 1.77898 0
M  V30 10926 H 1031.92 -7.7665 0.665989 0
M  V30 10927 N 1036.15 -0.873678 -1.31166 0
M  V30 10928 C 1037.4 -0.482577 -1.95842 0
M  V30 10929 C 1037.71 0.970881 -1.69804 0
M  V30 10930 O 1038.92 1.4683 -2.28371 0
M  V30 10931 C 1037.37 -0.812074 -3.50619 0
M  V30 10932 C 1036.98 -2.28254 -3.85492 0
M  V30 10933 C 1038.72 -0.489624 -4.21667 0
M  V30 10934 C 1036.63 -2.55426 -5.33396 0
M  V30 10935 H 1035.56 -0.176736 -0.732994 0
M  V30 10936 H 1038.21 -1.06709 -1.49283 0
M  V30 10937 H 1036.59 -0.156769 -3.9569 0
M  V30 10938 H 1037.77 -2.98122 -3.51369 0
M  V30 10939 H 1036.08 -2.5714 -3.27518 0
M  V30 10940 H 1038.68 -0.669811 -5.30488 0
M  V30 10941 H 1039.02 0.570204 -4.12376 0
M  V30 10942 H 1039.56 -1.10163 -3.82242 0
M  V30 10943 H 1036.3 -3.60106 -5.47726 0
M  V30 10944 H 1035.82 -1.90156 -5.68859 0
M  V30 10945 H 1037.49 -2.40345 -6.00702 0
M  V30 10946 N 1037.63 1.44308 -0.633487 0
M  V30 10947 C 1039.04 1.56768 -0.29931 0
M  V30 10948 C 1039.24 1.62061 1.19743 0
M  V30 10949 O 1038.3 1.56492 1.98158 0
M  V30 10950 C 1039.61 2.8382 -0.993307 0
M  V30 10951 C 1041.16 2.97536 -0.971674 0
M  V30 10952 C 1041.63 4.27393 -1.64618 0
M  V30 10953 N 1043.13 4.34212 -1.61288 0
M  V30 10954 C 1043.86 5.33415 -2.1037 0
M  V30 10955 N 1043.36 6.3901 -2.67653 0
M  V30 10956 N 1045.15 5.24939 -2.00985 0
M  V30 10957 H 1037.3 1.39115 -1.60501 0
M  V30 10958 H 1039.56 0.666804 -0.673852 0
M  V30 10959 H 1039.27 2.85902 -2.04823 0
M  V30 10960 H 1039.14 3.73422 -0.532537 0
M  V30 10961 H 1041.53 2.95005 0.0747854 0
M  V30 10962 H 1041.61 2.09276 -1.47096 0
M  V30 10963 H 1041.26 4.30683 -2.6921 0
M  V30 10964 H 1041.19 5.14515 -1.12171 0
M  V30 10965 H 1043.68 3.58519 -1.19468 0
M  V30 10966 H 1043.99 7.10994 -3.02831 0
M  V30 10967 H 1042.33 6.39689 -2.71705 0
M  V30 10968 H 1045.53 4.41357 -1.55953 0
M  V30 10969 H 1045.7 6.02097 -2.39547 0
M  V30 10970 N 1039.1 0.374177 1.53094 0
M  V30 10971 C 1040.34 -0.21278 2.03289 0
M  V30 10972 C 1040.71 -1.45291 1.25517 0
M  V30 10973 O 1041.91 -2.11605 1.65761 0
M  V30 10974 C 1040.18 -0.48913 3.54037 0
M  V30 10975 S 1041.74 -1.04853 4.26088 0
M  V30 10976 H 1038.56 -0.0612752 0.708355 0
M  V30 10977 H 1041.16 0.519031 1.88484 0
M  V30 10978 H 1039.86 0.420786 4.08237 0
M  V30 10979 H 1039.39 -1.24978 3.7302 0
M  V30 10980 H 1041.41 -2.33213 4.3798 0
M  V30 10981 N 1040.58 -1.57259 0.103575 0
M  V30 10982 C 1041.55 -2.13337 -0.837859 0
M  V30 10983 C 1042.55 -1.06459 -1.20512 0
M  V30 10984 O 1043.74 -1.32307 -1.13316 0
M  V30 10985 C 1040.87 -2.66093 -2.13089 0
M  V30 10986 H 1042.06 -2.97842 -0.350775 0
M  V30 10987 H 1039.61 -1.55621 -0.145511 0
M  V30 10988 H 1040.35 -1.85133 -2.66264 0
M  V30 10989 H 1040.13 -3.44244 -1.87719 0
M  V30 10990 H 1041.62 -3.09443 -2.80419 0
M  V30 10991 N 1042.06 0.170153 -1.56679 0
M  V30 10992 C 1043.01 1.22997 -1.9742 0
M  V30 10993 C 1044 1.45762 -0.863117 0
M  V30 10994 O 1045.21 1.46328 -1.04824 0
M  V30 10995 H 1041.58 0.413482 -0.628122 0
M  V30 10996 H 1043.55 0.859502 -2.85754 0
M  V30 10997 C 1042.3 2.5615 -2.35122 0
M  V30 10998 H 1041.63 2.39456 -3.20158 0
M  V30 10999 H 1043.07 3.28991 -2.67471 0
M  V30 11000 C 1041.53 3.14992 -1.19507 0
M  V30 11001 O 1042.06 3.98781 -0.483357 0
M  V30 11002 N 1040.26 2.74098 -0.965332 0
M  V30 11003 H 1039.81 2.06062 -1.54585 0
M  V30 11004 H 1039.77 3.13803 -0.193611 0
M  V30 11005 N 1043.54 1.5137 0.438746 0
M  V30 11006 C 1044.45 1.75424 1.55768 0
M  V30 11007 C 1045.46 0.638409 1.61865 0
M  V30 11008 O 1046.64 0.9205 1.79133 0
M  V30 11009 C 1043.71 1.87288 2.9176 0
M  V30 11010 C 1042.77 3.11137 2.95791 0
M  V30 11011 C 1042 3.22425 4.25297 0
M  V30 11012 O 1042.22 2.39688 5.17596 0
M  V30 11013 O 1041.16 4.15393 4.35583 0
M  V30 11014 H 1044.98 2.70339 1.38386 0
M  V30 11015 H 1042.57 1.35854 0.621609 0
M  V30 11016 H 1044.45 1.97085 3.72472 0
M  V30 11017 H 1043.12 0.955599 3.09273 0
M  V30 11018 H 1042.03 3.06819 2.1404 0
M  V30 11019 H 1043.36 4.02549 2.83223 0
M  V30 11020 N 1045.02 -0.694098 1.41492 0
M  V30 11021 C 1046.24 -1.48286 1.44288 0
M  V30 11022 C 1046.66 -1.88737 0.0485783 0
M  V30 11023 O 1046.02 -1.56881 -0.932449 0
M  V30 11024 C 1046.07 -2.74446 2.3529 0
M  V30 11025 O 1045.79 -2.35698 3.69294 0
M  V30 11026 C 1047.29 -3.68175 2.46905 0
M  V30 11027 H 1044.51 -0.45692 0.491391 0
M  V30 11028 H 1047.05 -0.854477 1.85793 0
M  V30 11029 H 1045.21 -3.33518 1.9709 0
M  V30 11030 H 1045.62 -3.17029 4.17843 0
M  V30 11031 H 1047.1 -4.53476 3.14743 0
M  V30 11032 H 1047.57 -4.12763 1.50078 0
M  V30 11033 H 1048.18 -3.15006 2.85747 0
M  V30 11034 N 1046.49 -1.27344 -0.928501 0
M  V30 11035 C 1047.44 -1.10001 -2.029 0
M  V30 11036 C 1048.41 -0.00131084 -1.661 0
M  V30 11037 O 1049.6 -0.163485 -1.90098 0
M  V30 11038 C 1046.74 -0.7524 -3.36798 0
M  V30 11039 C 1045.85 -1.92865 -3.86558 0
M  V30 11040 C 1044.98 -1.52299 -5.08899 0
M  V30 11041 C 1044.02 -2.66677 -5.50953 0
M  V30 11042 N 1043.16 -2.26706 -6.64491 0
M  V30 11043 H 1048 -2.0417 -2.17068 0
M  V30 11044 H 1045.54 -1.01637 -1.0634 0
M  V30 11045 H 1047.5 -0.531687 -4.13798 0
M  V30 11046 H 1046.13 0.15234 -3.2244 0
M  V30 11047 H 1045.18 -2.26192 -3.05845 0
M  V30 11048 H 1046.49 -2.78668 -4.13698 0
M  V30 11049 H 1045.64 -1.26348 -5.93398 0
M  V30 11050 H 1044.38 -0.636042 -4.83535 0
M  V30 11051 H 1043.39 -2.93344 -4.65004 0
M  V30 11052 H 1044.61 -3.55992 -5.78313 0
M  V30 11053 H 1042.56 -1.40462 -6.40786 0
M  V30 11054 H 1042.48 -3.06049 -6.91281 0
M  V30 11055 H 1043.74 -2.04 -7.52333 0
M  V30 11056 N 1047.97 1.13488 -1.09353 0
M  V30 11057 C 1049.2 1.88592 -0.850915 0
M  V30 11058 C 1049.62 1.79087 0.597761 0
M  V30 11059 O 1048.97 1.15695 1.41142 0
M  V30 11060 C 1049.02 3.38219 -1.27633 0
M  V30 11061 O 1048.74 3.47476 -2.66819 0
M  V30 11062 C 1050.25 4.30293 -1.06598 0
M  V30 11063 H 1047.47 0.597069 -0.306185 0
M  V30 11064 H 1050.01 1.43668 -1.45533 0
M  V30 11065 H 1048.16 3.80729 -0.715828 0
M  V30 11066 H 1048.58 4.40485 -2.84733 0
M  V30 11067 H 1050.05 5.33611 -1.41293 0
M  V30 11068 H 1050.53 4.392 -0.0037135 0
M  V30 11069 H 1051.14 3.9355 -1.6124 0
M  V30 11070 N 1049.45 0.880621 1.30701 0
M  V30 11071 C 1050.7 0.506967 1.96981 0
M  V30 11072 C 1051.05 -0.932694 1.68281 0
M  V30 11073 O 1050.35 -1.64954 0.974709 0
M  V30 11074 C 1050.54 0.713203 3.50212 0
M  V30 11075 C 1050.37 2.17136 3.93805 0
M  V30 11076 C 1049.14 2.81508 4.19621 0
M  V30 11077 C 1051.34 3.14473 4.06954 0
M  V30 11078 N 1049.32 4.17965 4.49643 0
M  V30 11079 C 1050.69 4.3599 4.40809 0
M  V30 11080 C 1052.74 3.1032 3.89366 0
M  V30 11081 C 1051.45 5.53889 4.58911 0
M  V30 11082 C 1053.47 4.27487 4.08667 0
M  V30 11083 C 1052.84 5.47769 4.42864 0
M  V30 11084 H 1048.93 0.234756 0.745931 0
M  V30 11085 H 1051.52 1.13745 1.5802 0
M  V30 11086 H 1049.69 0.112239 3.88238 0
M  V30 11087 H 1051.42 0.30688 4.03535 0
M  V30 11088 H 1048.18 2.32399 4.12659 0
M  V30 11089 H 1048.6 4.88425 4.68796 0
M  V30 11090 H 1053.24 2.18428 3.62007 0
M  V30 11091 H 1050.96 6.46289 4.85114 0
M  V30 11092 H 1054.55 4.25738 3.96533 0
M  V30 11093 H 1053.43 6.36922 4.57493 0
M  V30 11094 N 1050.93 -1.4397 0.641131 0
M  V30 11095 C 1051.84 -2.34526 -0.058742 0
M  V30 11096 C 1052.86 -1.53194 -0.825088 0
M  V30 11097 O 1054.03 -1.85888 -0.775081 0
M  V30 11098 C 1051.1 -3.31313 -1.02139 0
M  V30 11099 C 1050.16 -4.28552 -0.253319 0
M  V30 11100 C 1049.39 -5.20715 -1.17012 0
M  V30 11101 O 1049.61 -5.17028 -2.40911 0
M  V30 11102 O 1048.55 -5.9839 -0.649039 0
M  V30 11103 H 1052.37 -2.95843 0.686329 0
M  V30 11104 H 1049.96 -1.43909 0.401316 0
M  V30 11105 H 1051.84 -3.90862 -1.57496 0
M  V30 11106 H 1050.52 -2.72516 -1.7469 0
M  V30 11107 H 1049.42 -3.72519 0.343531 0
M  V30 11108 H 1050.76 -4.90297 0.432372 0
M  V30 11109 N 1052.41 -0.382291 -1.52893 0
M  V30 11110 C 1053.32 0.463745 -2.29971 0
M  V30 11111 C 1054.33 1.07777 -1.36602 0
M  V30 11112 O 1055.51 1.0851 -1.69669 0
M  V30 11113 C 1052.57 1.57938 -3.08637 0
M  V30 11114 C 1051.64 0.991182 -4.17701 0
M  V30 11115 C 1050.87 2.05365 -4.92606 0
M  V30 11116 O 1051.09 3.26757 -4.67532 0
M  V30 11117 O 1050.03 1.67487 -5.78128 0
M  V30 11118 H 1053.85 -0.163962 -3.03257 0
M  V30 11119 H 1051.44 -0.146199 -1.48683 0
M  V30 11120 H 1053.32 2.22765 -3.57706 0
M  V30 11121 H 1051.99 2.19218 -2.3817 0
M  V30 11122 H 1050.9 0.306364 -3.72843 0
M  V30 11123 H 1052.23 0.422699 -4.90382 0
M  V30 11124 N 1053.89 1.57202 -0.111913 0
M  V30 11125 C 1055.13 1.94565 0.546713 0
M  V30 11126 C 1055.45 0.995644 1.67666 0
M  V30 11127 O 1054.72 0.0506681 1.95834 0
M  V30 11128 H 1053.3 0.718334 0.204951 0
M  V30 11129 H 1055.97 1.94074 -0.179193 0
M  V30 11130 H 1055.06 2.9742 0.945931 0
M  V30 11131 N 1055.36 -0.161842 1.56767 0
M  V30 11132 C 1056.31 -1.2002 1.97139 0
M  V30 11133 C 1057.28 -1.43486 0.836713 0
M  V30 11134 O 1058.47 -1.56069 1.0976 0
M  V30 11135 C 1055.61 -2.53228 2.34456 0
M  V30 11136 C 1054.72 -2.37062 3.61145 0
M  V30 11137 C 1053.85 -3.63202 3.87631 0
M  V30 11138 C 1052.89 -3.42008 5.07638 0
M  V30 11139 N 1052.03 -4.60242 5.30209 0
M  V30 11140 H 1056.87 -0.848918 2.85653 0
M  V30 11141 H 1054.41 -0.407753 1.41336 0
M  V30 11142 H 1056.36 -3.30879 2.54116 0
M  V30 11143 H 1054.99 -2.86333 1.4904 0
M  V30 11144 H 1054.05 -1.50539 3.49345 0
M  V30 11145 H 1055.36 -2.17353 4.48953 0
M  V30 11146 H 1054.51 -4.49285 4.0771 0
M  V30 11147 H 1053.25 -3.85899 2.98216 0
M  V30 11148 H 1052.26 -2.54312 4.87448 0
M  V30 11149 H 1053.48 -3.20724 5.98593 0
M  V30 11150 H 1051.43 -4.8314 4.43747 0
M  V30 11151 H 1051.34 -4.43481 6.12259 0
M  V30 11152 H 1052.61 -5.47581 5.54775 0
M  V30 11153 N 1056.84 -1.516 -0.430713 0
M  V30 11154 C 1058.09 -1.6484 -1.18134 0
M  V30 11155 C 1058.42 -0.366725 -1.90706 0
M  V30 11156 O 1057.7 0.63398 -1.83878 0
M  V30 11157 C 1057.98 -2.85617 -2.19306 0
M  V30 11158 C 1057.83 -4.23778 -1.50773 0
M  V30 11159 C 1059.15 -3.01909 -3.20217 0
M  V30 11160 H 1056.27 -0.599907 -0.428113 0
M  V30 11161 H 1058.91 -1.84102 -0.46973 0
M  V30 11162 H 1057.06 -2.69325 -2.79993 0
M  V30 11163 H 1058.73 -4.51752 -0.93371 0
M  V30 11164 H 1056.98 -4.26171 -0.809966 0
M  V30 11165 H 1057.65 -5.04291 -2.24487 0
M  V30 11166 H 1060.12 -3.16956 -2.69589 0
M  V30 11167 H 1059 -3.87968 -3.88293 0
M  V30 11168 H 1059.26 -2.1427 -3.86705 0
M  V30 11169 N 1058.32 0.686584 -1.41858 0
M  V30 11170 C 1059.25 1.81264 -1.47193 0
M  V30 11171 C 1060.23 1.66875 -0.329657 0
M  V30 11172 O 1061.42 1.86473 -0.542347 0
M  V30 11173 C 1058.55 3.19472 -1.36216 0
M  V30 11174 C 1057.5 3.4858 -2.48347 0
M  V30 11175 C 1056.83 4.86239 -2.22432 0
M  V30 11176 C 1058.13 3.46653 -3.90678 0
M  V30 11177 H 1059.82 1.77057 -2.41436 0
M  V30 11178 H 1057.37 0.850415 -1.16206 0
M  V30 11179 H 1059.32 3.97969 -1.38558 0
M  V30 11180 H 1058.04 3.24327 -0.384611 0
M  V30 11181 H 1056.7 2.72437 -2.45303 0
M  V30 11182 H 1056.35 4.8773 -1.22999 0
M  V30 11183 H 1056.05 5.06677 -2.97577 0
M  V30 11184 H 1057.57 5.67034 -2.26505 0
M  V30 11185 H 1058.99 4.15139 -3.95389 0
M  V30 11186 H 1057.38 3.78625 -4.65578 0
M  V30 11187 H 1058.45 2.45451 -4.18189 0
M  V30 11188 N 1059.8 1.27835 0.921735 0
M  V30 11189 C 1061.05 1.13904 1.6646 0
M  V30 11190 C 1061.36 -0.313379 1.93073 0
M  V30 11191 O 1062.57 -0.573687 2.6537 0
M  V30 11192 C 1061.02 1.99064 2.99836 0
M  V30 11193 C 1060.63 3.48998 2.80899 0
M  V30 11194 C 1062.37 1.93797 3.77681 0
M  V30 11195 C 1060.28 4.26337 4.09867 0
M  V30 11196 H 1059.21 0.422681 0.624385 0
M  V30 11197 H 1061.86 1.52303 1.02352 0
M  V30 11198 H 1060.24 1.53514 3.65034 0
M  V30 11199 H 1061.42 4.02452 2.24431 0
M  V30 11200 H 1059.73 3.55707 2.16476 0
M  V30 11201 H 1062.33 2.48852 4.73262 0
M  V30 11202 H 1062.67 0.912928 4.06167 0
M  V30 11203 H 1063.21 2.37275 3.19289 0
M  V30 11204 H 1059.94 5.2939 3.86557 0
M  V30 11205 H 1059.46 3.77659 4.65976 0
M  V30 11206 H 1061.14 4.3583 4.78185 0
M  V30 11207 N 1061.28 -1.12907 1.09954 0
M  V30 11208 C 1062.52 -1.84306 0.838912 0
M  V30 11209 C 1062.85 -1.83825 -0.635508 0
M  V30 11210 O 1062.11 -1.27556 -1.48418 0
M  V30 11211 C 1062.4 -3.31885 1.32616 0
M  V30 11212 C 1062.07 -3.52542 2.81114 0
M  V30 11213 C 1060.73 -3.57888 3.21667 0
M  V30 11214 C 1063.08 -3.60065 3.76833 0
M  V30 11215 C 1060.41 -3.68296 4.567 0
M  V30 11216 C 1062.76 -3.72001 5.11662 0
M  V30 11217 C 1061.43 -3.75602 5.51797 0
M  V30 11218 H 1060.7 -0.674422 0.30698 0
M  V30 11219 H 1063.35 -1.33261 1.37527 0
M  V30 11220 H 1061.65 -3.85318 0.709719 0
M  V30 11221 H 1063.35 -3.85588 1.10105 0
M  V30 11222 H 1059.94 -3.4904 2.48735 0
M  V30 11223 H 1064.12 -3.55209 3.46612 0
M  V30 11224 H 1059.38 -3.69352 4.87226 0
M  V30 11225 H 1063.55 -3.76765 5.8568 0
M  V30 11226 H 1061.18 -3.83419 6.56425 0
M  V30 11227 N 1062.75 -0.88754 -1.30232 0
M  V30 11228 C 1064.03 -0.427249 -1.90877 0
M  V30 11229 C 1064.41 1.0922 -1.80649 0
M  V30 11230 O 1063.76 1.92866 -1.22536 0
M  V30 11231 C 1063.97 -0.928219 -3.3643 0
M  V30 11232 C 1065.32 -0.964706 -4.13496 0
M  V30 11233 O 1066.34 -0.875057 -3.45284 0
M  V30 11234 O 1065.2 -1.09754 -5.35366 0
M  V30 11235 H 1062.29 -0.131107 -0.816541 0
M  V30 11236 H 1064.84 -0.976609 -1.38782 0
M  V30 11237 H 1063.61 -1.97209 -3.37971 0
M  V30 11238 H 1063.23 -0.358169 -3.95983 0
M  V30 11239 N 1064.23 1.43628 -0.648757 0
M  V30 11240 C 1065.51 1.95391 -0.0904551 0
M  V30 11241 C 1065.89 1.59021 1.38837 0
M  V30 11242 O 1065.24 0.873078 2.11163 0
M  V30 11243 C 1065.45 3.47418 -0.33196 0
M  V30 11244 C 1066.8 4.23952 -0.234521 0
M  V30 11245 O 1067.82 3.55218 -0.264276 0
M  V30 11246 O 1066.68 5.46282 -0.154428 0
M  V30 11247 H 1063.77 0.82691 0.0121884 0
M  V30 11248 H 1066.32 1.5359 -0.721685 0
M  V30 11249 H 1065.09 3.67001 -1.35741 0
M  V30 11250 H 1064.71 3.96207 0.332556 0
M  V30 11251 N 1065.71 0.390394 1.52688 0
M  V30 11252 C 1066.94 -0.194013 2.06491 0
M  V30 11253 C 1067.36 -1.3965 1.26014 0
M  V30 11254 O 1066.72 -1.79038 0.285468 0
M  V30 11255 C 1066.77 -0.541306 3.56514 0
M  V30 11256 O 1065.87 -1.63509 3.78601 0
M  V30 11257 H 1065.21 -0.0223608 0.663623 0
M  V30 11258 H 1067.74 0.558179 1.96839 0
M  V30 11259 H 1067.75 -0.805301 3.99974 0
M  V30 11260 H 1066.43 0.337828 4.14526 0
M  V30 11261 H 1065 -1.36473 3.4703 0
M  V30 11262 N 1067.19 -1.57141 0.120249 0
M  V30 11263 C 1068.44 -1.95238 -0.537449 0
M  V30 11264 C 1068.76 -1.00361 -1.66607 0
M  V30 11265 O 1068.02 -0.0277306 -1.9568 0
M  V30 11266 C 1068.32 -3.39745 -1.10941 0
M  V30 11267 C 1067.98 -4.50785 -0.102012 0
M  V30 11268 C 1066.65 -4.80882 0.174994 0
M  V30 11269 C 1069 -5.17913 0.584462 0
M  V30 11270 C 1066.33 -5.75424 1.14474 0
M  V30 11271 C 1068.68 -6.13497 1.54284 0
M  V30 11272 C 1067.34 -6.41987 1.82782 0
M  V30 11273 H 1066.61 -0.714425 -0.196666 0
M  V30 11274 H 1069.26 -1.90438 0.201418 0
M  V30 11275 H 1067.56 -3.41246 -1.92506 0
M  V30 11276 H 1069.26 -3.66536 -1.62642 0
M  V30 11277 H 1065.85 -4.27342 -0.328097 0
M  V30 11278 H 1070.03 -4.94815 0.383625 0
M  V30 11279 H 1065.29 -5.95801 1.37226 0
M  V30 11280 H 1069.46 -6.64598 2.08044 0
M  V30 11281 H 1067.09 -7.15052 2.5808 0
M  V30 11282 N 1068.67 0.153526 -1.5685 0
M  V30 11283 C 1069.58 1.20932 -2.01029 0
M  V30 11284 C 1070.59 1.47401 -0.924598 0
M  V30 11285 O 1071.77 1.592 -1.23359 0
M  V30 11286 C 1068.83 2.52438 -2.37647 0
M  V30 11287 C 1067.89 2.33673 -3.60132 0
M  V30 11288 C 1067.13 3.58909 -3.94994 0
M  V30 11289 O 1067.35 4.64823 -3.30599 0
M  V30 11290 O 1066.28 3.5196 -4.8827 0
M  V30 11291 H 1070.11 0.864273 -2.91143 0
M  V30 11292 H 1067.7 0.361755 -1.44954 0
M  V30 11293 H 1069.58 3.29981 -2.62088 0
M  V30 11294 H 1068.25 2.86486 -1.5069 0
M  V30 11295 H 1067.16 1.54102 -3.40886 0
M  V30 11296 H 1068.49 2.04544 -4.47686 0
M  V30 11297 N 1070.14 1.51827 0.422667 0
M  V30 11298 C 1071.09 1.7058 1.51282 0
M  V30 11299 C 1072.08 0.5597 1.50851 0
M  V30 11300 O 1073.27 0.816223 1.57057 0
M  V30 11301 C 1070.4 1.84759 2.89342 0
M  V30 11302 C 1069.49 3.05199 2.94473 0
M  V30 11303 N 1069.88 4.28135 2.69322 0
M  V30 11304 C 1068.17 3.04755 3.25638 0
M  V30 11305 C 1068.88 5.09507 2.80674 0
M  V30 11306 N 1067.85 4.44464 3.12974 0
M  V30 11307 H 1071.65 2.63283 1.30611 0
M  V30 11308 H 1069.17 1.49674 0.630191 0
M  V30 11309 H 1071.16 1.96308 3.67789 0
M  V30 11310 H 1069.82 0.932478 3.11022 0
M  V30 11311 H 1070.84 4.56835 2.43972 0
M  V30 11312 H 1067.51 2.2293 3.52999 0
M  V30 11313 H 1068.9 6.17409 2.65058 0
M  V30 11314 N 1071.62 -0.679052 1.4222 0
M  V30 11315 C 1072.53 -1.82221 1.47759 0
M  V30 11316 C 1073.55 -1.70092 0.3667 0
M  V30 11317 O 1074.72 -1.91718 0.616957 0
M  V30 11318 C 1071.79 -3.18332 1.37351 0
M  V30 11319 C 1070.85 -3.42449 2.58896 0
M  V30 11320 C 1070.08 -4.72067 2.48976 0
M  V30 11321 O 1070.31 -5.49683 1.5233 0
M  V30 11322 O 1069.24 -4.97333 3.39033 0
M  V30 11323 H 1073.07 -1.80504 2.44238 0
M  V30 11324 H 1070.65 -0.834251 1.23938 0
M  V30 11325 H 1072.53 -3.99563 1.33893 0
M  V30 11326 H 1071.21 -3.20696 0.439965 0
M  V30 11327 H 1070.12 -2.61083 2.6793 0
M  V30 11328 H 1071.45 -3.44912 3.51136 0
M  V30 11329 N 1073.1 -1.28322 -0.914942 0
M  V30 11330 C 1074.35 -1.15578 -1.66642 0
M  V30 11331 C 1074.68 0.295209 -1.91943 0
M  V30 11332 O 1073.95 1.21482 -1.51896 0
M  V30 11333 C 1074.24 -1.9535 -3.02507 0
M  V30 11334 C 1074.09 -3.48504 -2.84367 0
M  V30 11335 C 1075.41 -1.76798 -4.03027 0
M  V30 11336 H 1072.53 -0.421234 -0.604757 0
M  V30 11337 H 1075.17 -1.57625 -1.06087 0
M  V30 11338 H 1073.32 -1.59619 -3.54195 0
M  V30 11339 H 1074.99 -3.94135 -2.39699 0
M  V30 11340 H 1073.24 -3.74198 -2.1945 0
M  V30 11341 H 1073.91 -3.99576 -3.80845 0
M  V30 11342 H 1076.38 -2.07977 -3.60395 0
M  V30 11343 H 1075.26 -2.34987 -4.96057 0
M  V30 11344 H 1075.52 -0.719162 -4.36211 0
M  V30 11345 N 1074.58 1.12322 -1.10551 0
M  V30 11346 C 1075.82 1.84333 -0.859826 0
M  V30 11347 C 1076.18 1.82539 0.608052 0
M  V30 11348 O 1075.47 1.26086 1.44267 0
M  V30 11349 C 1075.67 3.31177 -1.34375 0
M  V30 11350 C 1075.5 3.47272 -2.85714 0
M  V30 11351 C 1074.27 3.60837 -3.5373 0
M  V30 11352 C 1076.46 3.42336 -3.83811 0
M  V30 11353 N 1074.45 3.65309 -4.93378 0
M  V30 11354 C 1075.82 3.53318 -5.09477 0
M  V30 11355 C 1077.87 3.25809 -3.76501 0
M  V30 11356 C 1076.57 3.49477 -6.28695 0
M  V30 11357 C 1078.6 3.23282 -4.9522 0
M  V30 11358 C 1077.96 3.34826 -6.19735 0
M  V30 11359 H 1074.06 0.690186 -0.367651 0
M  V30 11360 H 1076.65 1.34463 -1.40811 0
M  V30 11361 H 1074.82 3.79585 -0.822767 0
M  V30 11362 H 1076.55 3.91051 -1.04217 0
M  V30 11363 H 1073.3 3.63005 -3.04178 0
M  V30 11364 H 1073.73 3.71207 -5.66157 0
M  V30 11365 H 1078.37 3.15777 -2.81149 0
M  V30 11366 H 1076.09 3.5828 -7.24335 0
M  V30 11367 H 1079.67 3.11674 -4.91274 0
M  V30 11368 H 1078.55 3.32847 -7.10058 0
M  V30 11369 N 1076.06 0.894434 1.2976 0
M  V30 11370 C 1076.99 0.325525 2.26877 0
M  V30 11371 C 1078 -0.525218 1.54095 0
M  V30 11372 O 1079.19 -0.343231 1.75169 0
M  V30 11373 C 1076.29 -0.554952 3.34325 0
M  V30 11374 C 1075.46 0.268868 4.36573 0
M  V30 11375 C 1074.52 -0.543601 5.23385 0
M  V30 11376 O 1073.55 0.0370454 5.69188 0
M  V30 11377 N 1074.75 -1.85079 5.50205 0
M  V30 11378 H 1077.52 1.16021 2.76332 0
M  V30 11379 H 1075.08 0.758382 1.43039 0
M  V30 11380 H 1077.07 -1.10476 3.89329 0
M  V30 11381 H 1075.64 -1.29031 2.84727 0
M  V30 11382 H 1074.86 1.0001 3.81302 0
M  V30 11383 H 1076.15 0.833248 5.01931 0
M  V30 11384 H 1075.54 -2.34533 5.14792 0
M  V30 11385 H 1074.1 -2.34784 6.08046 0
M  V30 11386 N 1077.53 -1.43282 0.656365 0
M  V30 11387 C 1078.81 -1.9534 0.100816 0
M  V30 11388 C 1079.19 -1.59755 -1.37992 0
M  V30 11389 O 1078.54 -0.884264 -2.10697 0
M  V30 11390 C 1078.75 -3.47237 0.35038 0
M  V30 11391 C 1080.1 -4.23822 0.257001 0
M  V30 11392 O 1081.12 -3.55073 0.283111 0
M  V30 11393 O 1079.98 -5.46192 0.183397 0
M  V30 11394 H 1077.07 -0.826963 -0.00780287 0
M  V30 11395 H 1079.62 -1.53205 0.72982 0
M  V30 11396 H 1078.39 -3.66276 1.37685 0
M  V30 11397 H 1078.02 -3.96378 -0.311539 0
M  V30 11398 N 1079.01 -0.398486 -1.52479 0
M  V30 11399 C 1079.98 0.420206 -2.25315 0
M  V30 11400 C 1080.98 0.982559 -1.27289 0
M  V30 11401 O 1082.17 0.863113 -1.51314 0
M  V30 11402 C 1079.3 1.59045 -3.01525 0
M  V30 11403 H 1080.49 -0.217599 -2.9911 0
M  V30 11404 H 1078.04 -0.150784 -1.55571 0
M  V30 11405 H 1078.78 2.26542 -2.32054 0
M  V30 11406 H 1078.56 1.19382 -3.73484 0
M  V30 11407 H 1080.05 2.16984 -3.56802 0
M  V30 11408 N 1080.49 1.57075 -0.12858 0
M  V30 11409 C 1081.72 2.00305 0.537839 0
M  V30 11410 C 1082.14 1.00787 1.58819 0
M  V30 11411 O 1081.5 -0.0190839 1.8129 0
M  V30 11412 C 1081.55 3.42371 1.13201 0
M  V30 11413 O 1080.65 3.45786 2.24735 0
M  V30 11414 H 1079.99 0.650456 0.133428 0
M  V30 11415 H 1082.52 2.03415 -0.219882 0
M  V30 11416 H 1082.53 3.80783 1.4652 0
M  V30 11417 H 1081.21 4.14315 0.362713 0
M  V30 11418 H 1079.78 3.19201 1.92783 0
M  V30 11419 N 1081.97 -0.145205 1.5693 0
M  V30 11420 C 1083.19 -0.876386 1.87974 0
M  V30 11421 C 1083.62 -1.73866 0.717795 0
M  V30 11422 O 1082.98 -1.78224 -0.332551 0
M  V30 11423 C 1083.03 -1.70746 3.17613 0
M  V30 11424 O 1082.13 -2.81188 3.01674 0
M  V30 11425 H 1081.47 -0.243987 0.617549 0
M  V30 11426 H 1084 -0.135482 2.04151 0
M  V30 11427 H 1084.01 -2.1021 3.49679 0
M  V30 11428 H 1082.69 -1.07429 4.01786 0
M  V30 11429 H 1081.26 -2.45117 2.81019 0
M  V30 11430 N 1083.45 -1.52049 -0.414609 0
M  V30 11431 C 1084.69 -1.65838 -1.16206 0
M  V30 11432 C 1085.02 -0.385623 -1.90639 0
M  V30 11433 O 1084.28 0.631214 -1.85241 0
M  V30 11434 C 1084.58 -2.82735 -2.18622 0
M  V30 11435 C 1084.24 -4.21163 -1.61037 0
M  V30 11436 C 1082.9 -4.58816 -1.45056 0
M  V30 11437 C 1085.26 -5.0745 -1.18928 0
M  V30 11438 C 1082.58 -5.8044 -0.854761 0
M  V30 11439 C 1084.94 -6.29674 -0.607686 0
M  V30 11440 C 1083.6 -6.66081 -0.434968 0
M  V30 11441 H 1082.87 -0.606845 -0.425229 0
M  V30 11442 H 1085.52 -1.86137 -0.450009 0
M  V30 11443 H 1083.82 -2.56749 -2.95952 0
M  V30 11444 H 1085.52 -2.90601 -2.76319 0
M  V30 11445 H 1082.11 -3.91488 -1.74457 0
M  V30 11446 H 1086.29 -4.78948 -1.30086 0
M  V30 11447 H 1081.55 -6.07276 -0.70891 0
M  V30 11448 H 1085.72 -6.95865 -0.272988 0
M  V30 11449 H 1083.35 -7.60195 0.0288116 0
M  V30 11450 N 1084.93 0.6715 -1.42579 0
M  V30 11451 C 1086.34 0.985019 -1.25577 0
M  V30 11452 C 1086.54 2.00845 -0.162319 0
M  V30 11453 O 1085.6 2.48175 0.465352 0
M  V30 11454 C 1086.91 1.48668 -2.61377 0
M  V30 11455 C 1088.46 1.60429 -2.68759 0
M  V30 11456 C 1088.93 2.13991 -4.04935 0
M  V30 11457 N 1090.42 2.21319 -4.06906 0
M  V30 11458 C 1091.16 2.63845 -5.09091 0
M  V30 11459 N 1090.66 3.05799 -6.21658 0
M  V30 11460 N 1092.45 2.63623 -4.96447 0
M  V30 11461 H 1084.6 -0.00604561 -2.12399 0
M  V30 11462 H 1086.86 0.0598299 -0.94611 0
M  V30 11463 H 1086.57 0.80917 -3.42265 0
M  V30 11464 H 1086.44 2.46487 -2.85524 0
M  V30 11465 H 1088.83 2.27286 -1.88216 0
M  V30 11466 H 1088.91 0.610909 -2.48398 0
M  V30 11467 H 1088.55 1.47741 -4.85937 0
M  V30 11468 H 1088.48 3.14126 -4.2265 0
M  V30 11469 H 1090.98 1.91743 -3.25643 0
M  V30 11470 H 1091.29 3.36944 -6.95477 0
M  V30 11471 H 1089.63 3.03648 -6.25158 0
M  V30 11472 H 1092.82 2.30211 -4.07579 0
M  V30 11473 H 1093 2.96444 -5.76216 0
M  V30 11474 N 1086.4 1.28806 0.908124 0
M  V30 11475 C 1087.33 1.15758 2.02787 0
M  V30 11476 C 1088.31 0.053911 1.70015 0
M  V30 11477 O 1089.5 0.231901 1.9281 0
M  V30 11478 C 1086.63 0.824526 3.37371 0
M  V30 11479 C 1085.58 1.88359 3.84324 0
M  V30 11480 C 1084.91 1.40404 5.15937 0
M  V30 11481 C 1086.21 3.29108 4.05568 0
M  V30 11482 H 1087.9 2.09431 2.13961 0
M  V30 11483 H 1085.45 1.00831 1.02806 0
M  V30 11484 H 1087.4 0.71999 4.15204 0
M  V30 11485 H 1086.13 -0.147902 3.26265 0
M  V30 11486 H 1084.79 1.97736 3.087 0
M  V30 11487 H 1084.43 0.420515 5.01239 0
M  V30 11488 H 1084.13 2.11224 5.48323 0
M  V30 11489 H 1085.66 1.31283 5.9632 0
M  V30 11490 H 1087.07 3.2262 4.73909 0
M  V30 11491 H 1085.47 3.97812 4.49294 0
M  V30 11492 H 1086.54 3.72709 3.10187 0
M  V30 11493 N 1087.88 -1.11734 1.11145 0
M  V30 11494 C 1089.13 -1.82766 0.853194 0
M  V30 11495 C 1089.44 -1.85408 -0.623168 0
M  V30 11496 O 1090.65 -2.52509 -0.997574 0
M  V30 11497 C 1089.11 -3.28215 1.47658 0
M  V30 11498 C 1088.71 -3.33911 2.98676 0
M  V30 11499 C 1090.46 -4.04168 1.29803 0
M  V30 11500 C 1088.36 -4.73739 3.54013 0
M  V30 11501 H 1087.29 -0.684807 0.315523 0
M  V30 11502 H 1089.95 -1.25756 1.33633 0
M  V30 11503 H 1088.33 -3.85138 0.921116 0
M  V30 11504 H 1089.5 -2.86887 3.606 0
M  V30 11505 H 1087.82 -2.71437 3.15771 0
M  V30 11506 H 1090.41 -5.07429 1.68582 0
M  V30 11507 H 1090.76 -4.15606 0.240302 0
M  V30 11508 H 1091.29 -3.53623 1.82196 0
M  V30 11509 H 1088.03 -4.67497 4.59485 0
M  V30 11510 H 1087.55 -5.21186 2.9686 0
M  V30 11511 H 1089.23 -5.42691 3.52271 0
M  V30 11512 N 1089.36 -0.901303 -1.29284 0
M  V30 11513 C 1090.61 -0.528043 -1.95494 0
M  V30 11514 C 1090.93 0.92597 -1.71044 0
M  V30 11515 O 1090.19 1.67185 -1.01723 0
M  V30 11516 C 1090.49 -0.768828 -3.49033 0
M  V30 11517 C 1090.15 -2.20045 -3.93562 0
M  V30 11518 C 1088.82 -2.59189 -4.05431 0
M  V30 11519 C 1091.17 -3.13266 -4.1655 0
M  V30 11520 C 1088.5 -3.90733 -4.37658 0
M  V30 11521 C 1090.85 -4.4436 -4.50252 0
M  V30 11522 C 1089.51 -4.83375 -4.60331 0
M  V30 11523 H 1088.78 -0.193225 -0.715364 0
M  V30 11524 H 1091.43 -1.14027 -1.53851 0
M  V30 11525 H 1089.73 -0.0736997 -3.91731 0
M  V30 11526 H 1091.43 -0.459384 -3.9836 0
M  V30 11527 H 1088.02 -1.88666 -3.84842 0
M  V30 11528 H 1092.21 -2.84237 -4.06845 0
M  V30 11529 H 1087.46 -4.2068 -4.43665 0
M  V30 11530 H 1091.64 -5.16618 -4.66989 0
M  V30 11531 H 1089.26 -5.8534 -4.85058 0
M  V30 11532 N 1090.84 1.42931 -0.663954 0
M  V30 11533 C 1092.09 2.00904 -0.179011 0
M  V30 11534 C 1092.4 1.53056 1.21791 0
M  V30 11535 O 1093.61 2.03374 1.79865 0
M  V30 11536 C 1092.06 3.58892 -0.269198 0
M  V30 11537 C 1091.67 4.15731 -1.66949 0
M  V30 11538 C 1093.41 4.24207 0.157589 0
M  V30 11539 C 1091.32 5.66047 -1.71303 0
M  V30 11540 H 1090.25 0.75135 -0.0631623 0
M  V30 11541 H 1092.9 1.6378 -0.827556 0
M  V30 11542 H 1091.28 3.93469 0.447048 0
M  V30 11543 H 1092.46 3.92634 -2.41195 0
M  V30 11544 H 1090.77 3.62826 -2.04318 0
M  V30 11545 H 1093.37 5.34503 0.145057 0
M  V30 11546 H 1093.71 3.98901 1.19095 0
M  V30 11547 H 1094.25 3.94552 -0.507274 0
M  V30 11548 H 1090.98 5.96136 -2.72584 0
M  V30 11549 H 1090.5 5.91167 -1.01398 0
M  V30 11550 H 1092.18 6.30275 -1.46158 0
M  V30 11551 N 1092.32 0.406567 1.52266 0
M  V30 11552 C 1093.56 -0.170305 2.02084 0
M  V30 11553 C 1093.89 -1.45008 1.29176 0
M  V30 11554 O 1093.17 -1.90399 0.39731 0
M  V30 11555 C 1093.45 -0.420627 3.57635 0
M  V30 11556 C 1093.31 0.87564 4.41194 0
M  V30 11557 C 1094.62 -1.20387 4.23314 0
M  V30 11558 H 1091.74 -0.0604219 0.734519 0
M  V30 11559 H 1094.39 0.539529 1.82179 0
M  V30 11560 H 1092.54 -1.0253 3.74726 0
M  V30 11561 H 1094.21 1.51192 4.35819 0
M  V30 11562 H 1092.45 1.48718 4.07511 0
M  V30 11563 H 1093.12 0.654916 5.48101 0
M  V30 11564 H 1095.6 -0.691972 4.10306 0
M  V30 11565 H 1094.47 -1.34776 5.32096 0
M  V30 11566 H 1094.73 -2.2238 3.82099 0
M  V30 11567 N 1093.79 -1.57004 0.136909 0
M  V30 11568 C 1095.07 -1.87375 -0.561233 0
M  V30 11569 C 1095.45 -1.04117 -1.83638 0
M  V30 11570 O 1094.8 -0.125103 -2.28157 0
M  V30 11571 C 1095.01 -3.38829 -0.836426 0
M  V30 11572 C 1096.36 -4.07826 -1.18164 0
M  V30 11573 O 1097.38 -3.4395 -0.92611 0
M  V30 11574 O 1096.24 -5.20614 -1.66204 0
M  V30 11575 H 1093.33 -0.776287 -0.285145 0
M  V30 11576 H 1095.88 -1.68818 0.172761 0
M  V30 11577 H 1094.65 -3.91244 0.066442 0
M  V30 11578 H 1094.28 -3.62879 -1.62496 0
M  V30 11579 N 1095.27 0.136881 -1.57004 0
M  V30 11580 C 1096.52 0.849031 -1.84172 0
M  V30 11581 C 1096.85 1.80359 -0.720027 0
M  V30 11582 O 1096.13 1.92538 0.275584 0
M  V30 11583 C 1096.41 1.61465 -3.21871 0
M  V30 11584 C 1096.26 0.680902 -4.44616 0
M  V30 11585 C 1097.58 2.57488 -3.56914 0
M  V30 11586 H 1094.7 0.307209 -0.669919 0
M  V30 11587 H 1097.34 0.113862 -1.89659 0
M  V30 11588 H 1095.49 2.24137 -3.17325 0
M  V30 11589 H 1097.16 0.0644094 -4.61255 0
M  V30 11590 H 1095.41 -0.00883629 -4.33799 0
M  V30 11591 H 1096.08 1.25286 -5.37594 0
M  V30 11592 H 1098.55 2.0493 -3.62136 0
M  V30 11593 H 1097.43 3.08101 -4.54274 0
M  V30 11594 H 1097.69 3.39321 -2.83397 0
M  V30 11595 N 1096.75 1.52266 0.40654 0
M  V30 11596 C 1098 1.67654 1.15168 0
M  V30 11597 C 1098.35 0.402751 1.88137 0
M  V30 11598 O 1097.64 -0.60291 1.81867 0
M  V30 11599 C 1097.84 2.8389 2.1712 0
M  V30 11600 C 1097.67 4.2245 1.54162 0
M  V30 11601 C 1096.44 4.87937 1.31322 0
M  V30 11602 C 1098.64 5.04462 1.00112 0
M  V30 11603 N 1096.62 6.10525 0.642842 0
M  V30 11604 C 1097.99 6.18307 0.457805 0
M  V30 11605 C 1100.04 4.89775 0.89583 0
M  V30 11606 C 1098.75 7.19074 -0.180477 0
M  V30 11607 C 1100.77 5.90777 0.271397 0
M  V30 11608 C 1100.13 7.03915 -0.261225 0
M  V30 11609 H 1096.23 0.667121 0.408012 0
M  V30 11610 H 1098.82 1.89577 0.443695 0
M  V30 11611 H 1096.99 2.63578 2.85274 0
M  V30 11612 H 1098.72 2.88302 2.84014 0
M  V30 11613 H 1095.48 4.46345 1.58344 0
M  V30 11614 H 1095.9 6.76223 0.324204 0
M  V30 11615 H 1100.54 4.0253 1.29344 0
M  V30 11616 H 1098.26 8.05942 -0.590141 0
M  V30 11617 H 1101.85 5.81485 0.191417 0
M  V30 11618 H 1100.73 7.80731 -0.736791 0
M  V30 11619 N 1098.23 -0.663929 1.42933 0
M  V30 11620 C 1099.18 -1.77007 1.4371 0
M  V30 11621 C 1100.16 -1.57945 0.306948 0
M  V30 11622 O 1101.35 -1.68239 0.549967 0
M  V30 11623 C 1098.48 -3.15535 1.3525 0
M  V30 11624 C 1097.57 -3.40183 2.53252 0
M  V30 11625 N 1097.96 -3.35357 3.78641 0
M  V30 11626 C 1096.26 -3.70861 2.47746 0
M  V30 11627 C 1096.96 -3.5979 4.57085 0
M  V30 11628 N 1095.94 -3.81084 3.87655 0
M  V30 11629 H 1099.74 -1.71686 2.3854 0
M  V30 11630 H 1097.25 -0.865191 1.37434 0
M  V30 11631 H 1099.25 -3.94816 1.33888 0
M  V30 11632 H 1097.91 -3.22046 0.414308 0
M  V30 11633 H 1098.92 -3.15011 4.11082 0
M  V30 11634 H 1095.6 -3.84552 1.62561 0
M  V30 11635 H 1096.99 -3.61928 5.6609 0
M  V30 11636 N 1099.71 -1.29285 -0.901281 0
M  V30 11637 C 1101.12 -1.15499 -1.46686 0
M  V30 11638 C 1101.47 0.250446 -1.94595 0
M  V30 11639 O 1100.59 1.14581 -1.83576 0
M  V30 11640 C 1101.19 -2.0906 -2.66607 0
M  V30 11641 C 1099.75 -1.99301 -3.19306 0
M  V30 11642 C 1098.89 -2.00079 -1.91999 0
M  V30 11643 H 1101.85 -1.41793 -0.712773 0
M  V30 11644 H 1101.87 -1.6619 -3.42288 0
M  V30 11645 H 1101.38 -3.11341 -2.31707 0
M  V30 11646 H 1099.48 -1.00103 -3.58901 0
M  V30 11647 H 1099.59 -2.86885 -3.8371 0
M  V30 11648 H 1097.96 -1.44655 -2.09636 0
M  V30 11649 H 1098.74 -3.04061 -1.59379 0
M  V30 11650 N 1101.18 1.11143 -1.11736 0
M  V30 11651 C 1102.09 2.20851 -0.791331 0
M  V30 11652 C 1103.11 1.72644 0.216833 0
M  V30 11653 O 1104.29 2.01332 0.0522401 0
M  V30 11654 C 1101.35 3.4585 -0.242694 0
M  V30 11655 C 1100.41 4.08829 -1.30986 0
M  V30 11656 C 1099.65 5.27861 -0.787305 0
M  V30 11657 O 1099.87 5.69122 0.381549 0
M  V30 11658 O 1098.8 5.81506 -1.55352 0
M  V30 11659 H 1102.63 2.51158 -1.70744 0
M  V30 11660 H 1100.21 1.19739 -0.893478 0
M  V30 11661 H 1102.1 4.21359 0.0587472 0
M  V30 11662 H 1100.77 3.17187 0.646079 0
M  V30 11663 H 1099.68 3.35037 -1.66436 0
M  V30 11664 H 1101.01 4.41678 -2.17213 0
M  V30 11665 N 1102.66 0.908147 1.28804 0
M  V30 11666 C 1103.59 0.409106 2.29888 0
M  V30 11667 C 1104.57 -0.520338 1.61946 0
M  V30 11668 O 1105.76 -0.429268 1.89396 0
M  V30 11669 C 1102.89 -0.35669 3.45463 0
M  V30 11670 C 1101.84 0.4831 4.25265 0
M  V30 11671 C 1101.17 -0.4107 5.3312 0
M  V30 11672 C 1102.47 1.73744 4.92555 0
M  V30 11673 H 1104.16 1.25386 2.7188 0
M  V30 11674 H 1101.71 0.604368 1.30703 0
M  V30 11675 H 1103.66 -0.71661 4.15262 0
M  V30 11676 H 1102.39 -1.2353 3.02337 0
M  V30 11677 H 1101.04 0.825464 3.57186 0
M  V30 11678 H 1100.69 -1.28769 4.86238 0
M  V30 11679 H 1100.39 0.14756 5.87415 0
M  V30 11680 H 1101.92 -0.766626 6.05768 0
M  V30 11681 H 1103.33 1.44676 5.54745 0
M  V30 11682 H 1101.73 2.23767 5.5682 0
M  V30 11683 H 1102.8 2.46853 4.17363 0
M  V30 11684 N 1104.14 -1.42577 0.671525 0
M  V30 11685 C 1105.37 -2.05924 0.200731 0
M  V30 11686 C 1105.78 -1.50434 -1.14083 0
M  V30 11687 O 1105.14 -0.642845 -1.70803 0
M  V30 11688 C 1105.19 -3.61289 0.123505 0
M  V30 11689 O 1104.91 -4.1472 1.41205 0
M  V30 11690 C 1106.41 -4.41743 -0.371178 0
M  V30 11691 H 1103.63 -0.663746 0.0983958 0
M  V30 11692 H 1106.18 -1.82771 0.917338 0
M  V30 11693 H 1104.33 -3.83565 -0.543769 0
M  V30 11694 H 1104.75 -5.0856 1.28325 0
M  V30 11695 H 1106.22 -5.50731 -0.374128 0
M  V30 11696 H 1106.7 -4.16092 -1.40585 0
M  V30 11697 H 1107.3 -4.24478 0.264244 0
M  V30 11698 N 1105.62 -0.414636 -1.52048 0
M  V30 11699 C 1107.03 0.0537107 -1.86623 0
M  V30 11700 C 1107.38 1.43955 -1.3331 0
M  V30 11701 O 1106.51 2.05616 -0.674606 0
M  V30 11702 C 1107.1 0.104241 -3.3864 0
M  V30 11703 C 1105.66 0.516936 -3.72833 0
M  V30 11704 C 1104.81 -0.305042 -2.75617 0
M  V30 11705 H 1107.76 -0.631469 -1.45596 0
M  V30 11706 H 1107.78 0.918395 -3.6925 0
M  V30 11707 H 1107.29 -0.904523 -3.77412 0
M  V30 11708 H 1105.39 1.53214 -3.39641 0
M  V30 11709 H 1105.5 0.2575 -4.78408 0
M  V30 11710 H 1103.87 0.233416 -2.53628 0
M  V30 11711 H 1104.65 -1.31226 -3.1723 0
M  V30 11712 N 1107.1 1.56929 -0.145233 0
M  V30 11713 C 1108.03 2.13796 0.826078 0
M  V30 11714 C 1109.04 1.08697 1.21197 0
M  V30 11715 O 1110.23 1.3598 1.15635 0
M  V30 11716 C 1107.33 2.6443 2.11967 0
M  V30 11717 C 1106.5 3.9391 1.90142 0
M  V30 11718 C 1105.56 4.29872 3.03474 0
M  V30 11719 O 1104.59 4.98227 2.75242 0
M  V30 11720 N 1105.79 3.8931 4.30602 0
M  V30 11721 H 1108.56 2.97764 0.340073 0
M  V30 11722 H 1106.12 1.61854 0.0383928 0
M  V30 11723 H 1108.11 2.85502 2.86829 0
M  V30 11724 H 1106.68 1.85196 2.51836 0
M  V30 11725 H 1105.9 3.81481 0.993268 0
M  V30 11726 H 1107.19 4.78523 1.72896 0
M  V30 11727 H 1106.58 3.34229 4.56407 0
M  V30 11728 H 1105.14 4.15438 5.0225 0
M  V30 11729 N 1108.58 -0.128553 1.57075 0
M  V30 11730 C 1109.51 -1.18362 1.96273 0
M  V30 11731 C 1110.52 -1.3818 0.860818 0
M  V30 11732 O 1111.71 -1.37424 1.13916 0
M  V30 11733 C 1108.81 -2.54533 2.23755 0
M  V30 11734 C 1107.98 -2.55446 3.55058 0
M  V30 11735 C 1107.04 -3.73291 3.70864 0
M  V30 11736 O 1106.07 -3.57315 4.43074 0
M  V30 11737 N 1107.27 -4.91481 3.08912 0
M  V30 11738 H 1110.03 -0.850276 2.87385 0
M  V30 11739 H 1107.6 -0.317931 1.58748 0
M  V30 11740 H 1109.59 -3.31912 2.31553 0
M  V30 11741 H 1108.16 -2.80087 1.38816 0
M  V30 11742 H 1107.38 -1.6385 3.58534 0
M  V30 11743 H 1108.67 -2.53104 4.4138 0
M  V30 11744 H 1108.06 -5.07364 2.50196 0
M  V30 11745 H 1106.62 -5.6657 3.22245 0
M  V30 11746 N 1110.05 -1.5248 -0.398459 0
M  V30 11747 C 1111.47 -1.4152 -0.737854 0
M  V30 11748 C 1111.67 -0.528122 -1.94456 0
M  V30 11749 O 1110.73 0.00203799 -2.525 0
M  V30 11750 C 1112.04 -2.8422 -0.9818 0
M  V30 11751 C 1113.59 -2.93635 -1.08386 0
M  V30 11752 C 1114.06 -4.37327 -1.3605 0
M  V30 11753 N 1115.55 -4.40609 -1.42892 0
M  V30 11754 C 1116.29 -5.48863 -1.65944 0
M  V30 11755 N 1115.78 -6.67217 -1.86529 0
M  V30 11756 N 1117.58 -5.36393 -1.68046 0
M  V30 11757 H 1109.73 -2.08681 0.395705 0
M  V30 11758 H 1111.99 -0.941023 0.114801 0
M  V30 11759 H 1111.7 -3.51302 -0.167358 0
M  V30 11760 H 1111.57 -3.25907 -1.89907 0
M  V30 11761 H 1113.96 -2.26728 -1.88888 0
M  V30 11762 H 1114.04 -2.5539 -0.144714 0
M  V30 11763 H 1113.68 -5.04797 -0.56061 0
M  V30 11764 H 1113.61 -4.73116 -2.31233 0
M  V30 11765 H 1116.1 -3.55298 -1.2873 0
M  V30 11766 H 1116.42 -7.45498 -2.03599 0
M  V30 11767 H 1114.76 -6.70263 -1.83773 0
M  V30 11768 H 1117.95 -4.42903 -1.51509 0
M  V30 11769 H 1118.13 -6.2083 -1.85672 0
M  V30 11770 N 1111.53 0.65634 -1.43283 0
M  V30 11771 C 1112.95 0.971645 -1.26614 0
M  V30 11772 C 1113.15 2.00662 -0.183612 0
M  V30 11773 O 1112.2 2.48654 0.439003 0
M  V30 11774 C 1113.52 1.45888 -2.6294 0
M  V30 11775 C 1115.06 1.57569 -2.70446 0
M  V30 11776 C 1115.54 2.09684 -4.07181 0
M  V30 11777 N 1117.03 2.16991 -4.0923 0
M  V30 11778 C 1117.77 2.5843 -5.11861 0
M  V30 11779 N 1117.26 2.99188 -6.24867 0
M  V30 11780 N 1119.05 2.58342 -4.99215 0
M  V30 11781 H 1111.21 -0.028573 -2.12381 0
M  V30 11782 H 1113.47 0.0497918 -0.946691 0
M  V30 11783 H 1113.17 0.772823 -3.43104 0
M  V30 11784 H 1113.05 2.43445 -2.88122 0
M  V30 11785 H 1115.44 2.25277 -1.90616 0
M  V30 11786 H 1115.52 0.584529 -2.49032 0
M  V30 11787 H 1115.16 1.42579 -4.87477 0
M  V30 11788 H 1115.09 3.09625 -4.25958 0
M  V30 11789 H 1117.58 1.88278 -3.27658 0
M  V30 11790 H 1117.89 3.29549 -6.99012 0
M  V30 11791 H 1116.24 2.97 -6.28344 0
M  V30 11792 H 1119.43 2.25875 -4.09998 0
M  V30 11793 H 1119.6 2.90316 -5.79328 0
M  V30 11794 N 1113.01 1.29761 0.894412 0
M  V30 11795 C 1114.23 1.21064 1.68399 0
M  V30 11796 C 1114.66 -0.224608 1.86754 0
M  V30 11797 O 1114.02 -1.16199 1.39167 0
M  V30 11798 C 1114.07 1.93468 3.04306 0
M  V30 11799 O 1113.17 1.25533 3.9283 0
M  V30 11800 H 1112.51 0.419223 0.514925 0
M  V30 11801 H 1115.04 1.71421 1.11696 0
M  V30 11802 H 1115.05 2.02127 3.54413 0
M  V30 11803 H 1113.73 2.97857 2.90265 0
M  V30 11804 H 1112.3 1.25168 3.51266 0
M  V30 11805 N 1114.49 -1.10549 1.12324 0
M  V30 11806 C 1115.42 -2.18911 0.812416 0
M  V30 11807 C 1116.4 -1.68628 -0.22327 0
M  V30 11808 O 1117.58 -1.94015 -0.0847184 0
M  V30 11809 C 1114.71 -3.46288 0.264947 0
M  V30 11810 C 1113.67 -4.09838 1.23356 0
M  V30 11811 C 1112.99 -5.31901 0.546374 0
M  V30 11812 C 1114.29 -4.53686 2.58778 0
M  V30 11813 H 1115.99 -2.45169 1.71851 0
M  V30 11814 H 1113.53 -1.17834 0.827715 0
M  V30 11815 H 1115.49 -4.21385 0.0352364 0
M  V30 11816 H 1114.21 -3.19517 -0.676479 0
M  V30 11817 H 1112.87 -3.36746 1.44906 0
M  V30 11818 H 1112.52 -5.01406 -0.400157 0
M  V30 11819 H 1112.22 -5.75372 1.19249 0
M  V30 11820 H 1113.74 -6.09731 0.325673 0
M  V30 11821 H 1115.16 -5.20063 2.41263 0
M  V30 11822 H 1113.55 -5.08003 3.19457 0
M  V30 11823 H 1114.62 -3.66665 3.17309 0
M  V30 11824 N 1115.97 -0.914965 -1.28321 0
M  V30 11825 C 1117.38 -0.59512 -1.76961 0
M  V30 11826 C 1117.73 0.88958 -1.74874 0
M  V30 11827 O 1116.85 1.6959 -1.34418 0
M  V30 11828 C 1117.45 -1.07353 -3.21342 0
M  V30 11829 C 1116.01 -0.804577 -3.677 0
M  V30 11830 C 1115.15 -1.23955 -2.48053 0
M  V30 11831 H 1118.1 -1.0961 -1.14767 0
M  V30 11832 H 1118.13 -0.415506 -3.78225 0
M  V30 11833 H 1117.64 -2.15413 -3.22829 0
M  V30 11834 H 1115.74 0.26277 -3.71672 0
M  V30 11835 H 1115.85 -1.41317 -4.57784 0
M  V30 11836 H 1114.22 -0.658274 -2.46046 0
M  V30 11837 H 1115 -2.32853 -2.52258 0
M  V30 11838 N 1117.44 1.42219 -0.679077 0
M  V30 11839 C 1118.41 2.29197 -0.0125475 0
M  V30 11840 C 1119.41 1.43544 0.724691 0
M  V30 11841 O 1120.6 1.64884 0.562052 0
M  V30 11842 C 1117.73 3.26122 0.992846 0
M  V30 11843 H 1118.92 2.89629 -0.778154 0
M  V30 11844 H 1116.47 1.4993 -0.44166 0
M  V30 11845 H 1117.21 2.70637 1.78679 0
M  V30 11846 H 1116.99 3.89302 0.467544 0
M  V30 11847 H 1118.48 3.91339 1.45751 0
M  V30 11848 N 1118.92 0.422693 1.51826 0
M  V30 11849 C 1120.17 -0.150066 2.01141 0
M  V30 11850 C 1120.48 -1.45059 1.31214 0
M  V30 11851 O 1121.69 -2.10542 1.71419 0
M  V30 11852 C 1120.15 -0.317985 3.58492 0
M  V30 11853 C 1119.75 0.971244 4.37345 0
M  V30 11854 C 1121.5 -0.845303 4.15999 0
M  V30 11855 C 1119.4 0.769769 5.86369 0
M  V30 11856 H 1118.33 -0.0598567 0.75162 0
M  V30 11857 H 1120.99 0.550217 1.75057 0
M  V30 11858 H 1119.37 -1.08092 3.80962 0
M  V30 11859 H 1120.54 1.74138 4.26629 0
M  V30 11860 H 1118.86 1.42599 3.91222 0
M  V30 11861 H 1121.45 -1.01229 5.2503 0
M  V30 11862 H 1121.8 -1.82375 3.74226 0
M  V30 11863 H 1122.33 -0.141067 3.9755 0
M  V30 11864 H 1119.07 1.72017 6.32527 0
M  V30 11865 H 1118.59 0.0391717 5.99787 0
M  V30 11866 H 1120.27 0.417225 6.45653 0
M  V30 11867 O 1120.44 -1.58794 0.294418 0
M  V30 11868 H 1121.13 -1.91787 -0.271585 0
M  V30 END ATOM
M  V30 BEGIN BOND
M  V30 END BOND
M  V30 END CTAB
M  END
$$$$
