drugbank_target|Q12884 Prolyl endopeptidase FAP (DB06474)
 OpenBabel12092120333D

  0  0  0     0  0            999 V3000
M  V30 BEGIN CTAB
M  V30 COUNTS 12218 12399 0 0 0
M  V30 BEGIN ATOM
M  V30 1 H -0.908 1.98254 -0.117106 0
M  V30 2 N 0 1.576 0 0
M  V30 3 C 0.933 2.03868 1.02534 0
M  V30 4 C 1.911 0.928543 1.3348 0
M  V30 5 O 3.095 1.19667 1.45644 0
M  V30 6 C 0.222 2.43627 2.35294 0
M  V30 7 C -0.732 3.65373 2.2001 0
M  V30 8 S 0.101 5.13292 1.52614 0
M  V30 9 C 1.257 5.56322 2.86805 0
M  V30 10 H 1.49 2.90518 0.631377 0
M  V30 11 H -0.977 1.52953 0.210867 0
M  V30 12 H 0.981 2.67203 3.11629 0
M  V30 13 H -0.358 1.57376 2.7183 0
M  V30 14 H -1.165 3.90944 3.18086 0
M  V30 15 H -1.563 3.418 1.51819 0
M  V30 16 H 0.729 5.58782 3.83104 0
M  V30 17 H 1.672 6.56266 2.65933 0
M  V30 18 H 2.08 4.83886 2.90714 0
M  V30 19 N 1.4781 -0.272755 1.55222 0
M  V30 20 C 2.4251 -1.33716 1.88119 0
M  V30 21 C 3.3951 -1.49066 0.73271 0
M  V30 22 O 4.5801 -1.63469 0.984002 0
M  V30 23 C 1.7201 -2.69238 2.15882 0
M  V30 24 C 0.8331 -2.62108 3.43399 0
M  V30 25 C -0.0319 -3.89811 3.60861 0
M  V30 26 C -0.9929 -3.77193 4.8207 0
M  V30 27 N -1.8559 -4.9673 4.96189 0
M  V30 28 H 2.9841 -1.04962 2.78903 0
M  V30 29 H 0.5211 -0.507088 1.38083 0
M  V30 30 H 2.4791 -3.48089 2.29978 0
M  V30 31 H 1.1091 -2.96194 1.28331 0
M  V30 32 H 0.1611 -1.74967 3.37773 0
M  V30 33 H 1.4731 -2.48685 4.32386 0
M  V30 34 H 0.6271 -4.77103 3.74777 0
M  V30 35 H -0.6339 -4.06102 2.7006 0
M  V30 36 H -1.6289 -2.88284 4.68159 0
M  V30 37 H -0.4039 -3.62421 5.74307 0
M  V30 38 H -2.4579 -5.13431 4.08319 0
M  V30 39 H -2.5409 -4.85839 5.79221 0
M  V30 40 H -1.2729 -5.85594 5.1449 0
M  V30 41 N 2.9562 -1.48159 -0.537278 0
M  V30 42 C 4.1842 -1.59454 -1.31841 0
M  V30 43 C 4.5992 -0.252065 -1.8711 0
M  V30 44 O 3.9562 0.757621 -1.66031 0
M  V30 45 C 4.0072 -2.63546 -2.47439 0
M  V30 46 O 3.7282 -3.92583 -1.94449 0
M  V30 47 C 5.2292 -2.85212 -3.39366 0
M  V30 48 H 2.4492 -0.53785 -0.401196 0
M  V30 49 H 4.9932 -1.93932 -0.648891 0
M  V30 50 H 3.1482 -2.31946 -3.1029 0
M  V30 51 H 3.5622 -4.49629 -2.70063 0
M  V30 52 H 5.0362 -3.61863 -4.16844 0
M  V30 53 H 5.5132 -1.93765 -3.94147 0
M  V30 54 H 6.1192 -3.18086 -2.82314 0
M  V30 55 N 4.4343 0.785586 -1.36625 0
M  V30 56 C 5.6803 1.5452 -1.32269 0
M  V30 57 C 6.0353 1.92159 0.0962266 0
M  V30 58 O 5.3283 1.60158 1.05167 0
M  V30 59 C 5.5223 2.83007 -2.1827 0
M  V30 60 C 5.3513 2.57925 -3.68382 0
M  V30 61 C 4.1213 2.52752 -4.37544 0
M  V30 62 C 6.3193 2.26861 -4.61561 0
M  V30 63 N 4.3013 2.19608 -5.73276 0
M  V30 64 C 5.6723 2.03738 -5.85569 0
M  V30 65 C 7.7273 2.129 -4.50087 0
M  V30 66 C 6.4303 1.68065 -6.9939 0
M  V30 67 C 8.4563 1.78626 -5.63779 0
M  V30 68 C 7.8183 1.56353 -6.86828 0
M  V30 69 H 3.9173 0.566301 -0.539283 0
M  V30 70 H 6.5013 0.917736 -1.71714 0
M  V30 71 H 4.6723 3.43614 -1.81063 0
M  V30 72 H 6.4043 3.48775 -2.05275 0
M  V30 73 H 3.1593 2.6813 -3.90389 0
M  V30 74 H 3.5833 2.05771 -6.44971 0
M  V30 75 H 8.2253 2.28808 -3.55537 0
M  V30 76 H 5.9433 1.50895 -7.93887 0
M  V30 77 H 9.5293 1.68502 -5.56865 0
M  V30 78 H 8.4093 1.30223 -7.73312 0
M  V30 79 N 5.9124 1.20967 1.01018 0
M  V30 80 C 7.1584 1.02526 1.74975 0
M  V30 81 C 7.4914 -0.4408 1.89131 0
M  V30 82 O 6.7664 -1.32718 1.42184 0
M  V30 83 C 7.0494 1.71699 3.1653 0
M  V30 84 C 6.9024 3.25791 3.10129 0
M  V30 85 C 8.2214 1.45531 4.15342 0
M  V30 86 H 5.3404 0.373863 0.635134 0
M  V30 87 H 7.9824 1.49071 1.17805 0
M  V30 88 H 6.1324 1.32128 3.65341 0
M  V30 89 H 7.8044 3.74697 2.69072 0
M  V30 90 H 6.0474 3.56363 2.47362 0
M  V30 91 H 6.7184 3.69353 4.10222 0
M  V30 92 H 9.1944 1.79872 3.75213 0
M  V30 93 H 8.0704 1.96453 5.1254 0
M  V30 94 H 8.3314 0.384237 4.40427 0
M  V30 95 N 7.3905 -1.2043 1.01659 0
M  V30 96 C 8.3375 -2.23215 0.586822 0
M  V30 97 C 9.3075 -1.61382 -0.393085 0
M  V30 98 O 10.4925 -1.88544 -0.292525 0
M  V30 99 C 7.6325 -3.45032 -0.0687464 0
M  V30 100 C 6.7455 -4.21296 0.955724 0
M  V30 101 C 5.8805 -5.30507 0.271208 0
M  V30 102 C 4.9195 -5.98515 1.28244 0
M  V30 103 N 4.0565 -6.99316 0.62459 0
M  V30 104 H 8.8965 -2.59336 1.46796 0
M  V30 105 H 6.4335 -1.27431 0.734836 0
M  V30 106 H 8.3915 -4.1459 -0.465965 0
M  V30 107 H 7.0215 -3.09604 -0.913529 0
M  V30 108 H 6.0735 -3.50803 1.4711 0
M  V30 109 H 7.3855 -4.6803 1.72479 0
M  V30 110 H 6.5395 -6.06428 -0.18151 0
M  V30 111 H 5.2785 -4.8481 -0.530163 0
M  V30 112 H 4.2835 -5.21355 1.74554 0
M  V30 113 H 5.5085 -6.46298 2.08509 0
M  V30 114 H 3.4545 -6.55812 -0.156914 0
M  V30 115 H 3.3715 -7.44178 1.33172 0
M  V30 116 H 4.6395 -7.79255 0.195462 0
M  V30 117 N 8.8686 -0.792821 -1.36206 0
M  V30 118 C 10.1176 -0.363353 -1.984 0
M  V30 119 C 10.4306 1.07172 -1.63626 0
M  V30 120 O 11.6366 1.60362 -2.19081 0
M  V30 121 C 10.0926 -0.59872 -3.54885 0
M  V30 122 C 9.7006 -2.04543 -3.9858 0
M  V30 123 C 11.4446 -0.233926 -4.23855 0
M  V30 124 C 9.3516 -2.22727 -5.47856 0
M  V30 125 H 8.2816 -0.13212 -0.742334 0
M  V30 126 H 10.9326 -0.974935 -1.55458 0
M  V30 127 H 9.3146 0.0826222 -3.95914 0
M  V30 128 H 10.4886 -2.76345 -3.68741 0
M  V30 129 H 8.8036 -2.36879 -3.42458 0
M  V30 130 H 11.4006 -0.348027 -5.33566 0
M  V30 131 H 11.7436 0.818351 -4.08177 0
M  V30 132 H 12.2766 -0.868639 -3.882 0
M  V30 133 H 9.0156 -3.2635 -5.68486 0
M  V30 134 H 8.5356 -1.55434 -5.7931 0
M  V30 135 H 10.2146 -2.03607 -6.14128 0
M  V30 136 N 10.3467 1.47872 -0.545128 0
M  V30 137 C 11.5927 2.02793 -0.0166104 0
M  V30 138 C 11.9257 1.41987 1.32489 0
M  V30 139 O 11.2007 0.571045 1.85928 0
M  V30 140 C 11.4837 3.59989 0.0893294 0
M  V30 141 C 11.3367 4.3125 -1.27841 0
M  V30 142 C 12.6557 4.32606 0.808724 0
M  V30 143 H 9.7747 0.736962 -0.00751035 0
M  V30 144 H 12.4167 1.76433 -0.705085 0
M  V30 145 H 10.5667 3.82579 0.675681 0
M  V30 146 H 12.2387 4.20035 -1.90704 0
M  V30 147 H 10.4817 3.92076 -1.85632 0
M  V30 148 H 11.1527 5.39736 -1.15713 0
M  V30 149 H 13.6287 4.14936 0.310992 0
M  V30 150 H 12.5047 5.42251 0.851782 0
M  V30 151 H 12.7657 4.00963 1.86229 0
M  V30 152 N 11.8248 0.280983 1.55075 0
M  V30 153 C 13.0718 -0.334115 1.99725 0
M  V30 154 C 13.3998 -1.5542 1.1694 0
M  V30 155 O 12.6548 -1.94361 0.228531 0
M  V30 156 C 12.9538 -0.754656 3.49342 0
M  V30 157 C 12.6198 0.361445 4.49449 0
M  V30 158 C 11.2818 0.667893 4.76542 0
M  V30 159 C 13.6338 1.11322 5.09173 0
M  V30 160 C 10.9618 1.7296 5.60626 0
M  V30 161 C 13.3138 2.1647 5.9441 0
M  V30 162 C 11.9778 2.47742 6.19822 0
M  V30 163 H 11.2478 -0.122261 0.730844 0
M  V30 164 H 13.8948 0.395917 1.87363 0
M  V30 165 H 12.1998 -1.56446 3.5921 0
M  V30 166 H 13.8968 -1.24142 3.813 0
M  V30 167 H 10.4868 0.112481 4.28452 0
M  V30 168 H 14.6708 0.88973 4.8826 0
M  V30 169 H 9.9268 1.97684 5.78559 0
M  V30 170 H 14.1008 2.75193 6.3972 0
M  V30 171 H 11.7278 3.30145 6.84769 0
M  V30 172 N 13.3029 -1.57598 0.00835791 0
M  V30 173 C 14.5509 -1.90551 -0.6734 0
M  V30 174 C 14.8719 -0.883301 -1.73847 0
M  V30 175 O 14.1419 0.0781442 -1.95744 0
M  V30 176 H 12.7219 -0.703312 -0.251717 0
M  V30 177 H 15.3839 -1.94833 0.0512592 0
M  V30 178 H 14.4799 -2.9056 -1.13935 0
M  V30 179 N 14.781 0.264519 -1.55364 0
M  V30 180 C 16.027 0.99646 -1.76631 0
M  V30 181 C 16.36 1.85632 -0.570478 0
M  V30 182 O 15.635 1.89647 0.43175 0
M  V30 183 C 15.918 1.87187 -3.07625 0
M  V30 184 C 15.771 1.04138 -4.37579 0
M  V30 185 C 17.09 2.85749 -3.34717 0
M  V30 186 H 14.209 0.360841 -0.642622 0
M  V30 187 H 16.851 0.268218 -1.88097 0
M  V30 188 H 15.001 2.49279 -2.9798 0
M  V30 189 H 16.673 0.440517 -4.59192 0
M  V30 190 H 14.916 0.345115 -4.32425 0
M  V30 191 H 15.587 1.68729 -5.2558 0
M  V30 192 H 18.063 2.33793 -3.4421 0
M  V30 193 H 16.939 3.44136 -4.27623 0
M  V30 194 H 17.2 3.61311 -2.54768 0
M  V30 195 N 16.2591 1.48442 0.529413 0
M  V30 196 C 17.2221 1.62524 1.61612 0
M  V30 197 C 18.2221 0.498509 1.52877 0
M  V30 198 O 19.4121 0.76431 1.56537 0
M  V30 199 C 16.5441 1.59597 3.01233 0
M  V30 200 H 17.7371 2.59423 1.50465 0
M  V30 201 H 15.2901 1.37047 0.751514 0
M  V30 202 H 16.0251 0.641781 3.17886 0
M  V30 203 H 15.8101 2.41397 3.08982 0
M  V30 204 H 17.3001 1.72646 3.80241 0
M  V30 205 N 17.7372 -0.778329 1.37039 0
M  V30 206 C 18.9652 -1.56734 1.35063 0
M  V30 207 C 19.3802 -1.88686 -0.0655597 0
M  V30 208 O 18.7372 -1.5096 -1.02554 0
M  V30 209 C 18.7882 -2.88163 2.18276 0
M  V30 210 O 18.5092 -2.57583 3.54376 0
M  V30 211 C 20.0102 -3.82422 2.24206 0
M  V30 212 H 17.2302 -0.485778 0.462883 0
M  V30 213 H 19.7742 -0.965185 1.8029 0
M  V30 214 H 17.9292 -3.44818 1.76576 0
M  V30 215 H 18.3432 -3.41699 3.97922 0
M  V30 216 H 19.8172 -4.71667 2.86765 0
M  V30 217 H 20.2942 -4.21078 1.24861 0
M  V30 218 H 20.9002 -3.31697 2.6619 0
M  V30 219 N 19.2153 -1.21501 -1.00376 0
M  V30 220 C 20.4403 -1.05977 -1.78279 0
M  V30 221 C 20.8653 0.385994 -1.84097 0
M  V30 222 O 20.2233 1.27849 -1.28547 0
M  V30 223 C 20.2713 -1.66302 -3.19963 0
M  V30 224 O 19.3753 -0.909333 -4.0225 0
M  V30 225 H 18.7163 -0.372906 -0.549397 0
M  V30 226 H 21.2463 -1.6107 -1.26165 0
M  V30 227 H 21.2563 -1.70574 -3.70632 0
M  V30 228 H 19.9313 -2.71515 -3.15043 0
M  V30 229 H 18.5083 -0.941795 -3.60811 0
M  V30 230 N 20.6934 1.19889 -1.02296 0
M  V30 231 C 21.6564 2.21116 -0.603351 0
M  V30 232 C 22.6564 1.5738 0.329884 0
M  V30 233 O 23.8464 1.73802 0.117702 0
M  V30 234 C 20.9784 3.40696 0.117992 0
M  V30 235 H 22.1714 2.59754 -1.49893 0
M  V30 236 H 19.7244 1.33463 -0.813468 0
M  V30 237 H 20.4594 3.07569 1.0282 0
M  V30 238 H 20.2444 3.88188 -0.552511 0
M  V30 239 H 21.7344 4.15692 0.398696 0
M  V30 240 N 22.1715 0.800033 1.35784 0
M  V30 241 C 23.4175 0.377901 1.99248 0
M  V30 242 C 23.7505 -1.05052 1.63333 0
M  V30 243 O 23.0255 -1.72768 0.893385 0
M  V30 244 C 23.3085 0.553922 3.55814 0
M  V30 245 C 23.1615 2.0268 4.01548 0
M  V30 246 C 24.4805 -0.0244802 4.40093 0
M  V30 247 H 21.5995 0.138782 0.723815 0
M  V30 248 H 24.2415 1.00835 1.61035 0
M  V30 249 H 22.3915 0.0172398 3.88496 0
M  V30 250 H 24.0635 2.62536 3.79305 0
M  V30 251 H 22.3065 2.5256 3.52698 0
M  V30 252 H 22.9775 2.10087 5.10458 0
M  V30 253 H 25.4535 0.433775 4.13833 0
M  V30 254 H 24.3295 0.128637 5.48749 0
M  V30 255 H 24.5905 -1.11758 4.27741 0
M  V30 256 N 23.6496 -1.47581 0.552962 0
M  V30 257 C 24.5796 -2.32762 -0.185451 0
M  V30 258 C 25.5606 -1.43527 -0.912905 0
M  V30 259 O 26.7456 -1.72388 -0.894201 0
M  V30 260 C 23.8756 -3.25219 -1.21859 0
M  V30 261 C 22.8296 -4.23661 -0.607864 0
M  V30 262 C 22.1556 -5.05413 -1.74533 0
M  V30 263 C 23.4556 -5.20481 0.435582 0
M  V30 264 H 25.1496 -2.94749 0.525684 0
M  V30 265 H 22.6956 -1.41738 0.254251 0
M  V30 266 H 24.6486 -3.8365 -1.7433 0
M  V30 267 H 23.3726 -2.61279 -1.95961 0
M  V30 268 H 22.0316 -3.66451 -0.104489 0
M  V30 269 H 21.6796 -4.3788 -2.47529 0
M  V30 270 H 21.3796 -5.72059 -1.34249 0
M  V30 271 H 22.9036 -5.66701 -2.27338 0
M  V30 272 H 24.3176 -5.733 -0.00290157 0
M  V30 273 H 22.7146 -5.95305 0.757067 0
M  V30 274 H 23.7846 -4.66217 1.33303 0
M  V30 275 N 25.1277 -0.289203 -1.54924 0
M  V30 276 C 26.0907 0.579144 -2.21762 0
M  V30 277 C 27.0907 1.07047 -1.1999 0
M  V30 278 O 28.2807 0.968384 -1.44803 0
M  V30 279 C 25.4127 1.80055 -2.8947 0
M  V30 280 H 26.6057 -0.00464908 -2.999 0
M  V30 281 H 24.1587 -0.0399306 -1.56249 0
M  V30 282 H 24.8937 2.42449 -2.15381 0
M  V30 283 H 24.6787 1.45602 -3.64064 0
M  V30 284 H 26.1687 2.41773 -3.40493 0
M  V30 285 N 26.6058 1.57591 -0.0167156 0
M  V30 286 C 27.5358 2.12496 0.967858 0
M  V30 287 C 28.5168 1.03807 1.34752 0
M  V30 288 O 29.7018 1.31577 1.42833 0
M  V30 289 C 26.8318 2.64194 2.25431 0
M  V30 290 C 25.7858 3.77559 2.01576 0
M  V30 291 C 25.1118 4.15636 3.36379 0
M  V30 292 C 26.4118 5.04151 1.36489 0
M  V30 293 H 28.1058 2.95013 0.510643 0
M  V30 294 H 25.6518 1.41915 0.244181 0
M  V30 295 H 27.6048 3.01236 2.94678 0
M  V30 296 H 26.3288 1.78821 2.73296 0
M  V30 297 H 24.9878 3.40937 1.34751 0
M  V30 298 H 24.6358 3.27263 3.81979 0
M  V30 299 H 24.3358 4.92022 3.21229 0
M  V30 300 H 25.8598 4.5525 4.06915 0
M  V30 301 H 27.2738 5.38857 1.95718 0
M  V30 302 H 25.6708 5.85453 1.31776 0
M  V30 303 H 26.7408 4.83733 0.336219 0
M  V30 304 N 28.0839 -0.256276 1.55502 0
M  V30 305 C 29.0139 -1.32102 1.92539 0
M  V30 306 C 29.9949 -1.50684 0.789194 0
M  V30 307 O 31.1799 -1.63449 1.04872 0
M  V30 308 C 28.3099 -2.67752 2.21192 0
M  V30 309 C 27.2639 -2.63878 3.36975 0
M  V30 310 C 26.5899 -4.03236 3.51147 0
M  V30 311 C 27.8899 -2.21682 4.72921 0
M  V30 312 H 29.5839 -1.01351 2.81724 0
M  V30 313 H 27.1299 -0.486105 1.35547 0
M  V30 314 H 29.0829 -3.42365 2.45691 0
M  V30 315 H 27.8069 -3.0012 1.28824 0
M  V30 316 H 26.4659 -1.91722 3.12471 0
M  V30 317 H 26.1139 -4.32854 2.56216 0
M  V30 318 H 25.8139 -4.01535 4.29003 0
M  V30 319 H 27.3379 -4.79563 3.77957 0
M  V30 320 H 28.7519 -2.86023 4.96854 0
M  V30 321 H 27.1489 -2.3111 5.53812 0
M  V30 322 H 28.2189 -1.16833 4.70615 0
M  V30 323 N 29.562 -1.4872 -0.521534 0
M  V30 324 C 30.808 -1.574 -1.27879 0
M  V30 325 C 31.141 -0.250817 -1.92573 0
M  V30 326 O 30.416 0.743934 -1.79711 0
M  V30 327 C 30.699 -2.71843 -2.36164 0
M  V30 328 C 30.552 -4.13893 -1.76105 0
M  V30 329 C 31.871 -2.82008 -3.37875 0
M  V30 330 H 28.99 -0.572941 -0.463581 0
M  V30 331 H 31.632 -1.80927 -0.580119 0
M  V30 332 H 29.782 -2.51914 -2.95756 0
M  V30 333 H 31.454 -4.45284 -1.20499 0
M  V30 334 H 29.697 -4.20498 -1.06601 0
M  V30 335 H 30.368 -4.89804 -2.5455 0
M  V30 336 H 32.844 -3.00086 -2.88249 0
M  V30 337 H 31.72 -3.63796 -4.11028 0
M  V30 338 H 31.981 -1.90511 -3.98946 0
M  V30 339 N 31.0401 0.771051 -1.3745 0
M  V30 340 C 31.9731 1.89166 -1.27638 0
M  V30 341 C 32.9511 1.61842 -0.156782 0
M  V30 342 O 34.1351 1.85569 -0.331111 0
M  V30 343 C 31.2621 3.24405 -0.973621 0
M  V30 344 C 30.3081 3.70638 -2.1102 0
M  V30 345 S 31.1411 3.84228 -3.73 0
M  V30 346 C 32.2971 5.22313 -3.44876 0
M  V30 347 H 32.5301 1.972 -2.22485 0
M  V30 348 H 30.0631 0.932224 -1.23081 0
M  V30 349 H 32.0211 4.02514 -0.805766 0
M  V30 350 H 30.6821 3.14071 -0.0426279 0
M  V30 351 H 29.8751 4.68685 -1.85338 0
M  V30 352 H 29.4771 2.99632 -2.23822 0
M  V30 353 H 31.7691 6.07505 -2.99908 0
M  V30 354 H 32.7121 5.53008 -4.42253 0
M  V30 355 H 33.1201 4.90284 -2.79789 0
M  V30 356 N 32.5182 1.22032 0.997298 0
M  V30 357 C 33.7582 1.05375 1.75144 0
M  V30 358 C 34.1222 -0.404696 1.87686 0
M  V30 359 O 35.3232 -0.691998 2.5974 0
M  V30 360 C 33.5942 1.74046 3.12158 0
M  V30 361 S 35.1532 1.72745 4.03366 0
M  V30 362 H 31.9712 0.377449 0.602539 0
M  V30 363 H 34.5732 1.54902 1.19272 0
M  V30 364 H 33.2772 2.79332 3.00669 0
M  V30 365 H 32.8082 1.24731 3.73103 0
M  V30 366 H 34.8232 0.774015 4.90126 0
M  V30 367 N 33.9963 -1.19345 1.0293 0
M  V30 368 C 35.2453 -1.88363 0.721256 0
M  V30 369 C 35.5583 -1.80514 -0.753254 0
M  V30 370 O 36.7643 -2.44788 -1.17436 0
M  V30 371 C 35.2203 -3.37872 1.23978 0
M  V30 372 C 34.8283 -3.54278 2.74211 0
M  V30 373 C 36.5723 -4.12365 1.00775 0
M  V30 374 C 34.4793 -4.97682 3.19479 0
M  V30 375 H 33.4093 -0.705484 0.266098 0
M  V30 376 H 36.0603 -1.34928 1.24365 0
M  V30 377 H 34.4423 -3.90707 0.6453 0
M  V30 378 H 35.6163 -3.11769 3.39318 0
M  V30 379 H 33.9313 -2.93174 2.95699 0
M  V30 380 H 36.5283 -5.18119 1.32123 0
M  V30 381 H 36.8713 -4.16263 -0.0554308 0
M  V30 382 H 37.4043 -3.65668 1.56625 0
M  V30 383 H 34.1433 -4.98945 4.25128 0
M  V30 384 H 33.6633 -5.4095 2.591 0
M  V30 385 H 35.3423 -5.66337 3.12845 0
M  V30 386 N 35.4744 -0.807222 -1.35358 0
M  V30 387 C 36.7204 -0.388463 -1.99045 0
M  V30 388 C 37.0534 1.04184 -1.63888 0
M  V30 389 O 36.3284 1.72292 -0.902535 0
M  V30 390 C 36.6114 -0.572783 -3.55515 0
M  V30 391 C 36.4644 -2.04807 -4.00468 0
M  V30 392 C 37.7834 0.00114064 -4.401 0
M  V30 393 H 34.9024 -0.142619 -0.723069 0
M  V30 394 H 37.5444 -1.01687 -1.60498 0
M  V30 395 H 35.6944 -0.0378425 -3.88482 0
M  V30 396 H 37.3664 -2.64544 -3.77908 0
M  V30 397 H 35.6094 -2.54427 -3.51353 0
M  V30 398 H 36.2804 -2.12792 -5.09337 0
M  V30 399 H 38.7564 -0.455716 -4.13597 0
M  V30 400 H 37.6324 -0.157737 -5.48673 0
M  V30 401 H 37.8934 1.09488 -4.28328 0
M  V30 402 N 36.9525 1.47285 -0.560781 0
M  V30 403 C 37.8825 2.32857 0.173105 0
M  V30 404 C 38.8635 1.44009 0.905281 0
M  V30 405 O 40.0485 1.7286 0.885046 0
M  V30 406 C 37.1785 3.25861 1.20133 0
M  V30 407 C 36.1325 4.23978 0.585388 0
M  V30 408 C 35.4585 5.06332 1.7185 0
M  V30 409 C 36.7585 5.20242 -0.463178 0
M  V30 410 H 38.4525 2.94466 -0.541307 0
M  V30 411 H 35.9985 1.41601 -0.261764 0
M  V30 412 H 37.9515 3.84569 1.72293 0
M  V30 413 H 36.6755 2.62315 1.94573 0
M  V30 414 H 35.3345 3.66501 0.085054 0
M  V30 415 H 34.9825 4.39186 2.45203 0
M  V30 416 H 34.6825 5.72762 1.31213 0
M  V30 417 H 36.2065 5.67899 2.24329 0
M  V30 418 H 37.6205 5.73293 -0.027502 0
M  V30 419 H 36.0175 5.94896 -0.788627 0
M  V30 420 H 37.0875 4.65504 -1.35773 0
M  V30 421 N 38.4306 0.297415 1.54768 0
M  V30 422 C 39.8466 -0.0560823 1.59501 0
M  V30 423 C 40.0466 -1.52725 1.31444 0
M  V30 424 O 39.1026 -2.27947 1.08611 0
M  V30 425 C 40.4156 0.338631 2.98787 0
M  V30 426 C 41.9636 0.287097 3.11681 0
M  V30 427 C 42.4386 0.656579 4.53269 0
M  V30 428 N 43.9296 0.608977 4.59179 0
M  V30 429 C 44.6646 0.867385 5.66802 0
M  V30 430 N 44.1606 1.19157 6.82476 0
M  V30 431 N 45.9536 0.794687 5.56454 0
M  V30 432 H 38.1046 1.25624 1.71267 0
M  V30 433 H 40.3676 0.509057 0.799728 0
M  V30 434 H 40.0736 1.36263 3.2423 0
M  V30 435 H 39.9476 -0.309508 3.75928 0
M  V30 436 H 42.3346 -0.727649 2.85988 0
M  V30 437 H 42.4156 0.969809 2.36703 0
M  V30 438 H 42.0596 1.66912 4.7969 0
M  V30 439 H 41.9896 -0.0481649 5.26578 0
M  V30 440 H 44.4806 0.369198 3.76092 0
M  V30 441 H 44.7936 1.37482 7.60473 0
M  V30 442 H 43.1386 1.22958 6.84037 0
M  V30 443 H 46.3296 0.541098 4.64962 0
M  V30 444 H 46.5026 0.999445 6.40246 0
M  V30 445 N 39.9087 -1.5758 0.0250728 0
M  V30 446 C 41.3197 -1.79476 -0.514323 0
M  V30 447 C 41.6707 -0.934956 -1.72491 0
M  V30 448 O 40.7957 -0.144245 -2.15919 0
M  V30 449 C 41.3907 -3.25503 -0.939842 0
M  V30 450 C 39.9497 -3.48408 -1.42438 0
M  V30 451 C 39.0967 -2.74583 -0.387201 0
M  V30 452 H 42.0477 -1.567 0.25113 0
M  V30 453 H 42.0687 -3.34992 -1.80445 0
M  V30 454 H 41.5807 -3.88056 -0.0585628 0
M  V30 455 H 39.6817 -2.91103 -2.32572 0
M  V30 456 H 39.7947 -4.57119 -1.43455 0
M  V30 457 H 38.1587 -2.39942 -0.854409 0
M  V30 458 H 38.9417 -3.39849 0.485543 0
M  V30 459 N 41.3868 0.248026 -1.55636 0
M  V30 460 C 42.6118 0.998028 -1.81808 0
M  V30 461 C 43.0368 1.78207 -0.601979 0
M  V30 462 O 42.3948 1.75653 0.448961 0
M  V30 463 C 42.4428 1.9125 -3.05705 0
M  V30 464 O 41.5468 3.00406 -2.82542 0
M  V30 465 H 40.8878 0.284045 -0.600179 0
M  V30 466 H 43.4178 0.269357 -2.02819 0
M  V30 467 H 43.4278 2.32737 -3.35108 0
M  V30 468 H 42.1028 1.33602 -3.93857 0
M  V30 469 H 40.6798 2.63056 -2.64303 0
M  V30 470 N 42.8649 1.48995 0.513639 0
M  V30 471 C 44.2809 1.35478 0.843682 0
M  V30 472 C 44.4809 0.378213 1.97919 0
M  V30 473 O 43.5369 -0.194689 2.51748 0
M  V30 474 C 44.8499 2.75901 1.1958 0
M  V30 475 C 46.3979 2.84509 1.30474 0
M  V30 476 C 46.8729 4.25671 1.69021 0
M  V30 477 N 48.3639 4.28422 1.76094 0
M  V30 478 C 49.0989 5.34601 2.07338 0
M  V30 479 N 48.5949 6.5104 2.36894 0
M  V30 480 N 50.3879 5.22007 2.08483 0
M  V30 481 H 42.5389 2.11092 -0.235328 0
M  V30 482 H 44.8019 0.947039 -0.0426669 0
M  V30 483 H 44.5079 3.49001 0.434913 0
M  V30 484 H 44.3819 3.10467 2.1422 0
M  V30 485 H 46.7689 2.11655 2.05637 0
M  V30 486 H 46.8499 2.53542 0.339155 0
M  V30 487 H 46.4939 4.99048 0.944135 0
M  V30 488 H 46.4239 4.54094 2.66658 0
M  V30 489 H 48.9149 3.44441 1.55464 0
M  V30 490 H 49.2279 7.2779 2.59887 0
M  V30 491 H 47.5729 6.54287 2.34378 0
M  V30 492 H 50.7639 4.30051 1.84861 0
M  V30 493 H 50.9369 6.04854 2.325 0
M  V30 494 N 44.343 -0.763751 1.37857 0
M  V30 495 C 45.589 -1.52483 1.33704 0
M  V30 496 C 45.922 -1.94051 -0.0759612 0
M  V30 497 O 45.197 -1.64675 -1.03501 0
M  V30 498 C 45.48 -2.78441 2.28348 0
M  V30 499 C 45.333 -2.43075 3.78463 0
M  V30 500 C 46.652 -3.80415 2.21298 0
M  V30 501 H 43.771 -0.553169 0.487005 0
M  V30 502 H 46.413 -0.875562 1.68624 0
M  V30 503 H 44.563 -3.33842 1.987 0
M  V30 504 H 46.235 -1.93527 4.18742 0
M  V30 505 H 44.478 -1.75666 3.96641 0
M  V30 506 H 45.149 -3.33149 4.40132 0
M  V30 507 H 47.625 -3.34527 2.47449 0
M  V30 508 H 46.501 -4.66257 2.89647 0
M  V30 509 H 46.762 -4.25262 1.20849 0
M  V30 510 N 45.8211 -1.22559 -0.990812 0
M  V30 511 C 46.7711 -0.964807 -2.0658 0
M  V30 512 C 47.7551 0.0853472 -1.60673 0
M  V30 513 O 48.9471 -0.125443 -1.76555 0
M  V30 514 C 46.0761 -0.546707 -3.38919 0
M  V30 515 C 45.1621 -1.6317 -3.91454 0
M  V30 516 N 45.5531 -2.85985 -4.17189 0
M  V30 517 C 43.8511 -1.50387 -4.19881 0
M  V30 518 C 44.5521 -3.56159 -4.59919 0
M  V30 519 N 43.5281 -2.83637 -4.63736 0
M  V30 520 H 47.3301 -1.89769 -2.24421 0
M  V30 521 H 44.8441 -1.12343 -1.17273 0
M  V30 522 H 46.8411 -0.34119 -4.15502 0
M  V30 523 H 45.5011 0.379254 -3.22478 0
M  V30 524 H 46.5121 -3.22392 -4.05319 0
M  V30 525 H 43.1891 -0.644254 -4.12499 0
M  V30 526 H 44.5791 -4.6139 -4.88435 0
M  V30 527 N 47.2992 1.18797 -1.03562 0
M  V30 528 C 48.2472 2.24297 -0.615905 0
M  V30 529 C 49.2412 1.65643 0.354808 0
M  V30 530 O 50.4472 1.78618 0.22265 0
M  V30 531 H 46.8222 0.729909 -0.180934 0
M  V30 532 H 48.7932 2.5701 -1.5162 0
M  V30 533 C 47.5422 3.47698 0.0104735 0
M  V30 534 H 46.8652 3.93125 -0.727509 0
M  V30 535 H 48.3052 4.23159 0.266995 0
M  V30 536 C 46.7642 3.12489 1.25905 0
M  V30 537 O 47.2942 3.25761 2.35038 0
M  V30 538 N 45.5002 2.6686 1.15039 0
M  V30 539 H 45.0472 2.56261 0.262328 0
M  V30 540 H 45.0052 2.43674 1.98672 0
M  V30 541 N 48.7773 0.814389 1.34928 0
M  V30 542 C 50.0023 0.410097 2.03305 0
M  V30 543 C 50.4273 -0.973464 1.60951 0
M  V30 544 O 49.7853 -1.63185 0.789964 0
M  V30 545 C 49.8333 0.51049 3.56968 0
M  V30 546 O 48.9373 -0.473035 4.09678 0
M  V30 547 H 48.2783 0.170088 0.641846 0
M  V30 548 H 50.8083 1.10244 1.72358 0
M  V30 549 H 50.8183 0.383135 4.06197 0
M  V30 550 H 49.4933 1.51963 3.87144 0
M  V30 551 H 48.0703 -0.305272 3.71648 0
M  V30 552 N 50.2554 -1.46986 0.568584 0
M  V30 553 C 51.1654 -2.33942 -0.17555 0
M  V30 554 C 52.1814 -1.48891 -0.90041 0
M  V30 555 O 53.3574 -1.81794 -0.86676 0
M  V30 556 C 50.4224 -3.25811 -1.18524 0
M  V30 557 C 49.4834 -4.26757 -0.466582 0
M  V30 558 C 48.7164 -5.14236 -1.42817 0
M  V30 559 O 48.9394 -5.04379 -2.66379 0
M  V30 560 O 47.8734 -5.94412 -0.946453 0
M  V30 561 H 51.6994 -2.98896 0.538036 0
M  V30 562 H 49.2844 -1.4573 0.329097 0
M  V30 563 H 51.1664 -3.82527 -1.76779 0
M  V30 564 H 49.8414 -2.63471 -1.88055 0
M  V30 565 H 48.7484 -3.73769 0.157451 0
M  V30 566 H 50.0814 -4.91843 0.187485 0
M  V30 567 N 51.7335 -0.305618 -1.54608 0
M  V30 568 C 52.6435 0.57778 -2.27374 0
M  V30 569 C 53.6595 1.14451 -1.31061 0
M  V30 570 O 54.8355 1.16831 -1.6405 0
M  V30 571 C 51.9005 1.73123 -3.00382 0
M  V30 572 C 50.9615 1.19812 -4.12242 0
M  V30 573 C 50.1945 2.2966 -4.81759 0
M  V30 574 O 50.4175 3.49651 -4.50666 0
M  V30 575 O 49.3515 1.96091 -5.69062 0
M  V30 576 H 53.1775 -0.012624 -3.03697 0
M  V30 577 H 50.7625 -0.0719184 -1.49227 0
M  V30 578 H 52.6445 2.40315 -3.4616 0
M  V30 579 H 51.3195 2.30815 -2.26949 0
M  V30 580 H 50.2265 0.491798 -3.70853 0
M  V30 581 H 51.5595 0.666566 -4.87666 0
M  V30 582 N 53.2116 1.57565 -0.0334293 0
M  V30 583 C 54.1596 2.1164 0.96496 0
M  V30 584 C 55.1536 1.04398 1.33407 0
M  V30 585 O 56.3596 1.22828 1.3158 0
M  V30 586 H 52.7346 0.676222 0.32898 0
M  V30 587 H 54.7056 2.94455 0.483614 0
M  V30 588 C 53.4546 2.66207 2.23672 0
M  V30 589 H 52.7776 3.48378 1.96145 0
M  V30 590 H 54.2176 3.07685 2.9173 0
M  V30 591 C 52.6766 1.59151 2.96939 0
M  V30 592 O 53.2066 0.993858 3.89211 0
M  V30 593 N 51.4126 1.31093 2.59351 0
M  V30 594 H 50.9596 1.7988 1.84393 0
M  V30 595 H 50.9176 0.596889 3.08682 0
M  V30 596 N 54.6897 -0.239769 1.55765 0
M  V30 597 C 55.9177 -0.98417 1.81994 0
M  V30 598 C 56.3327 -1.7867 0.610124 0
M  V30 599 O 55.6897 -1.77571 -0.421271 0
M  V30 600 C 55.7407 -1.91635 3.06526 0
M  V30 601 O 55.4617 -1.14629 4.22838 0
M  V30 602 C 56.9627 -2.77616 3.45607 0
M  V30 603 H 54.1827 -0.28928 0.605441 0
M  V30 604 H 56.7267 -0.260499 2.02834 0
M  V30 605 H 54.8817 -2.5942 2.87715 0
M  V30 606 H 55.2957 -1.77745 4.93464 0
M  V30 607 H 56.7697 -3.38759 4.35828 0
M  V30 608 H 57.2467 -3.4909 2.6652 0
M  V30 609 H 57.8527 -2.15271 3.66795 0
M  V30 610 N 56.1678 -1.49265 -0.50573 0
M  V30 611 C 57.1008 -1.60183 -1.62532 0
M  V30 612 C 58.0788 -0.451107 -1.56217 0
M  V30 613 O 59.2628 -0.666016 -1.76342 0
M  V30 614 C 56.3898 -1.55238 -3.01029 0
M  V30 615 C 55.4358 -2.7545 -3.25621 0
M  V30 616 S 56.2688 -4.37174 -3.09256 0
M  V30 617 C 57.4248 -4.34866 -4.50158 0
M  V30 618 H 57.6578 -2.54894 -1.53025 0
M  V30 619 H 55.1908 -1.38098 -0.690535 0
M  V30 620 H 57.1488 -1.53071 -3.80893 0
M  V30 621 H 55.8098 -0.618238 -3.07956 0
M  V30 622 H 55.0028 -2.68197 -4.26716 0
M  V30 623 H 54.6048 -2.75005 -2.53472 0
M  V30 624 H 56.8968 -4.06295 -5.42154 0
M  V30 625 H 57.8398 -5.36223 -4.62462 0
M  V30 626 H 58.2478 -3.65007 -4.30616 0
M  V30 627 N 57.6459 0.756429 -1.3826 0
M  V30 628 C 59.0619 1.0591 -1.19395 0
M  V30 629 C 59.2619 2.01459 -0.0406567 0
M  V30 630 O 58.3179 2.44909 0.614467 0
M  V30 631 C 59.6309 1.64191 -2.51916 0
M  V30 632 C 61.1789 1.76376 -2.58574 0
M  V30 633 C 61.6539 2.38069 -3.91264 0
M  V30 634 N 63.1449 2.45503 -3.92788 0
M  V30 635 C 63.8799 2.94126 -4.92217 0
M  V30 636 N 63.3759 3.42805 -6.02043 0
M  V30 637 N 65.1689 2.9314 -4.7961 0
M  V30 638 H 57.3199 0.122313 -2.12048 0
M  V30 639 H 59.5829 0.116892 -0.940766 0
M  V30 640 H 59.2889 1.01451 -3.3675 0
M  V30 641 H 59.1629 2.6329 -2.70108 0
M  V30 642 H 61.5499 2.38244 -1.74137 0
M  V30 643 H 61.6309 0.759894 -2.44252 0
M  V30 644 H 61.2749 1.76835 -4.76121 0
M  V30 645 H 61.2049 3.39091 -4.02895 0
M  V30 646 H 63.6959 2.1107 -3.13461 0
M  V30 647 H 64.0089 3.78354 -6.73846 0
M  V30 648 H 62.3539 3.4087 -6.05667 0
M  V30 649 H 65.5449 2.54419 -3.92923 0
M  V30 650 H 65.7179 3.30721 -5.5725 0
M  V30 651 N 59.124 1.23083 0.984299 0
M  V30 652 C 60.087 1.00979 2.05757 0
M  V30 653 C 61.087 -0.0269573 1.60777 0
M  V30 654 O 62.277 0.212403 1.729 0
M  V30 655 C 59.409 0.527072 3.36801 0
M  V30 656 H 60.602 1.9622 2.26799 0
M  V30 657 H 58.155 1.05072 1.15714 0
M  V30 658 H 58.89 -0.429294 3.21446 0
M  V30 659 H 58.675 1.27515 3.70786 0
M  V30 660 H 60.165 0.392942 4.15747 0
M  V30 661 N 60.6021 -1.18246 1.0419 0
M  V30 662 C 61.5321 -2.24127 0.654914 0
M  V30 663 C 62.5131 -1.66617 -0.342451 0
M  V30 664 O 63.6981 -1.92924 -0.222277 0
M  V30 665 C 60.8281 -3.47295 0.0183757 0
M  V30 666 C 59.7821 -4.17563 0.939414 0
M  V30 667 C 59.1081 -5.34438 0.167286 0
M  V30 668 C 60.4081 -4.70917 2.25908 0
M  V30 669 H 62.1021 -2.56753 1.54007 0
M  V30 670 H 59.6481 -1.23414 0.74195 0
M  V30 671 H 61.6011 -4.20572 -0.264082 0
M  V30 672 H 60.3251 -3.13907 -0.901664 0
M  V30 673 H 58.9841 -3.46186 1.20628 0
M  V30 674 H 58.6321 -4.97298 -0.7552 0
M  V30 675 H 58.3321 -5.82388 0.780901 0
M  V30 676 H 59.8561 -6.10504 -0.108125 0
M  V30 677 H 61.2701 -5.35882 2.03724 0
M  V30 678 H 59.6671 -5.29406 2.82577 0
M  V30 679 H 60.7371 -3.88272 2.9047 0
M  V30 680 N 62.0802 -0.821533 -1.34494 0
M  V30 681 C 63.3082 -0.421884 -2.02553 0
M  V30 682 C 63.7232 0.971745 -1.61872 0
M  V30 683 O 63.0802 1.62864 -0.823496 0
M  V30 684 C 63.1312 -0.51285 -3.57844 0
M  V30 685 O 62.8522 -1.85155 -3.97051 0
M  V30 686 C 64.3532 -0.107921 -4.43169 0
M  V30 687 H 61.5732 -0.169482 -0.649243 0
M  V30 688 H 64.1172 -1.1093 -1.71798 0
M  V30 689 H 62.2722 0.126474 -3.87193 0
M  V30 690 H 62.6862 -1.82482 -4.91732 0
M  V30 691 H 64.1602 -0.222657 -5.51551 0
M  V30 692 H 64.6372 0.948401 -4.28838 0
M  V30 693 H 65.2432 -0.720989 -4.19144 0
M  V30 694 N 63.5583 1.46682 -0.576371 0
M  V30 695 C 64.4883 2.33028 0.148397 0
M  V30 696 C 65.4693 1.44961 0.889956 0
M  V30 697 O 66.6543 1.73789 0.866662 0
M  V30 698 C 63.7843 3.27117 1.1667 0
M  V30 699 C 62.7383 4.24575 0.540386 0
M  V30 700 C 62.0643 5.08126 1.6647 0
M  V30 701 C 63.3643 5.19722 -0.518331 0
M  V30 702 H 65.0583 2.93875 -0.572509 0
M  V30 703 H 62.6043 1.41315 -0.276768 0
M  V30 704 H 64.5573 3.86374 1.68204 0
M  V30 705 H 63.2813 2.64364 1.9178 0
M  V30 706 H 61.9403 3.66571 0.0461769 0
M  V30 707 H 61.5883 4.41762 2.40531 0
M  V30 708 H 61.2883 5.74122 1.25131 0
M  V30 709 H 62.8123 5.70246 2.18293 0
M  V30 710 H 64.2263 5.73232 -0.0883058 0
M  V30 711 H 62.6233 5.94026 -0.851679 0
M  V30 712 H 63.6933 4.64037 -1.40703 0
M  V30 713 N 65.0364 0.313813 1.54444 0
M  V30 714 C 65.9834 -0.55655 2.23989 0
M  V30 715 C 66.9534 -1.11943 1.22711 0
M  V30 716 O 68.1384 -1.16158 1.51367 0
M  V30 717 C 65.2784 -1.71635 2.99392 0
M  V30 718 C 64.3914 -1.18364 4.15468 0
M  V30 719 C 63.5264 -2.30834 4.78424 0
M  V30 720 C 62.5654 -1.74762 5.86622 0
M  V30 721 N 61.7024 -2.80855 6.43479 0
M  V30 722 H 66.5424 0.0430893 2.97969 0
M  V30 723 H 64.0794 0.0330359 1.47063 0
M  V30 724 H 66.0374 -2.39868 3.41349 0
M  V30 725 H 64.6674 -2.28742 2.27765 0
M  V30 726 H 63.7194 -0.393163 3.78363 0
M  V30 727 H 65.0314 -0.733262 4.93381 0
M  V30 728 H 64.1854 -3.0699 5.23299 0
M  V30 729 H 62.9244 -2.79204 3.99871 0
M  V30 730 H 61.9294 -0.970995 5.41158 0
M  V30 731 H 63.1544 -1.2728 6.67066 0
M  V30 732 H 61.1004 -3.28535 5.67804 0
M  V30 733 H 61.0174 -2.40351 7.16776 0
M  V30 734 H 62.2854 -3.5687 6.93011 0
M  V30 735 N 66.5145 -1.57545 0.0417849 0
M  V30 736 C 67.7915 -1.83642 -0.673433 0
M  V30 737 C 68.1715 -0.928298 -1.89594 0
M  V30 738 O 67.5195 0.0129955 -2.28496 0
M  V30 739 C 67.7295 -3.33155 -1.03964 0
M  V30 740 C 69.0775 -3.99941 -1.42592 0
M  V30 741 O 70.1015 -3.37725 -1.13226 0
M  V30 742 O 68.9605 -5.09619 -1.9736 0
M  V30 743 H 66.0545 -0.757638 -0.331533 0
M  V30 744 H 68.6005 -1.69554 0.070433 0
M  V30 745 H 67.3725 -3.9093 -0.170098 0
M  V30 746 H 66.9955 -3.52396 -1.84126 0
M  V30 747 N 67.9926 0.231505 -1.5589 0
M  V30 748 C 69.2416 0.955346 -1.7764 0
M  V30 749 C 69.5546 1.85893 -0.608546 0
M  V30 750 O 70.7606 2.62067 -0.70943 0
M  V30 751 C 69.2166 1.74886 -3.14552 0
M  V30 752 C 68.8246 0.891915 -4.39032 0
M  V30 753 C 70.5686 2.46452 -3.45633 0
M  V30 754 C 68.4756 1.68221 -5.66971 0
M  V30 755 H 67.4056 0.360446 -0.662265 0
M  V30 756 H 70.0566 0.209516 -1.823 0
M  V30 757 H 68.4386 2.53723 -3.04041 0
M  V30 758 H 69.6126 0.144793 -4.60572 0
M  V30 759 H 67.9276 0.288863 -4.15397 0
M  V30 760 H 70.5246 3.06061 -4.38441 0
M  V30 761 H 70.8676 3.18841 -2.67668 0
M  V30 762 H 71.4006 1.74613 -3.57428 0
M  V30 763 H 68.1396 1.00178 -6.478 0
M  V30 764 H 67.6596 2.4042 -5.49507 0
M  V30 765 H 69.3386 2.24544 -6.06786 0
M  V30 766 N 69.4707 1.49531 0.497807 0
M  V30 767 C 70.4007 1.6935 1.60757 0
M  V30 768 C 71.3817 0.542218 1.61227 0
M  V30 769 O 72.5667 0.778417 1.77917 0
M  V30 770 C 69.6967 1.76298 2.99226 0
M  V30 771 C 68.6507 2.91248 3.13622 0
M  V30 772 C 67.9767 2.83312 4.53474 0
M  V30 773 C 69.2767 4.3214 2.93346 0
M  V30 774 H 70.9707 2.62263 1.44425 0
M  V30 775 H 68.5167 1.26208 0.693367 0
M  V30 776 H 70.4697 1.88749 3.76765 0
M  V30 777 H 69.1937 0.799871 3.16654 0
M  V30 778 H 67.8527 2.78404 2.38509 0
M  V30 779 H 67.5007 1.84902 4.67782 0
M  V30 780 H 67.2007 3.60465 4.64046 0
M  V30 781 H 68.7247 2.97775 5.33069 0
M  V30 782 H 70.1387 4.45649 3.60652 0
M  V30 783 H 68.5357 5.1054 3.15387 0
M  V30 784 H 69.6057 4.46363 1.89441 0
M  V30 785 N 70.9488 -0.749086 1.3866 0
M  V30 786 C 71.8968 -1.88428 1.36373 0
M  V30 787 C 72.8908 -1.67561 0.248929 0
M  V30 788 O 74.0968 -1.75074 0.41821 0
M  V30 789 H 70.4718 -0.620023 0.42553 0
M  V30 790 H 72.4428 -1.87473 2.32156 0
M  V30 791 C 71.1918 -3.25961 1.21014 0
M  V30 792 H 70.5148 -3.42607 2.06059 0
M  V30 793 H 71.9548 -4.05625 1.23469 0
M  V30 794 C 70.4138 -3.36799 -0.0825941 0
M  V30 795 O 70.9438 -3.87517 -1.05797 0
M  V30 796 N 69.1498 -2.90258 -0.140939 0
M  V30 797 H 68.6968 -2.49174 0.653477 0
M  V30 798 H 68.6548 -2.97889 -1.00545 0
M  V30 799 N 72.4269 -1.23603 -0.977757 0
M  V30 800 C 73.6749 -1.06759 -1.71601 0
M  V30 801 C 73.9959 0.395929 -1.90938 0
M  V30 802 O 73.2659 1.28356 -1.47992 0
M  V30 803 H 71.8459 -0.392062 -0.635843 0
M  V30 804 H 74.5079 -1.55362 -1.1768 0
M  V30 805 H 73.6039 -1.55763 -2.70452 0
M  V30 806 N 73.905 1.17692 -1.04816 0
M  V30 807 C 75.133 1.91786 -0.776254 0
M  V30 808 C 75.548 1.76604 0.667577 0
M  V30 809 O 74.905 1.10067 1.45573 0
M  V30 810 C 74.956 3.42967 -1.14263 0
M  V30 811 O 74.677 3.57678 -2.52978 0
M  V30 812 C 76.178 4.34144 -0.896311 0
M  V30 813 H 73.398 0.608624 -0.282519 0
M  V30 814 H 75.942 1.49268 -1.39783 0
M  V30 815 H 74.097 3.83245 -0.565874 0
M  V30 816 H 74.511 4.51319 -2.67229 0
M  V30 817 H 75.985 5.38744 -1.20244 0
M  V30 818 H 76.462 4.38876 0.168636 0
M  V30 819 H 77.068 3.99574 -1.45672 0
M  V30 820 N 75.3831 0.828654 1.34056 0
M  V30 821 C 76.6301 0.419458 1.98108 0
M  V30 822 C 76.9581 -1.01886 1.65679 0
M  V30 823 O 76.2131 -1.72539 0.923512 0
M  V30 824 C 76.5121 0.575226 3.52741 0
M  V30 825 C 76.1781 1.98012 4.05095 0
M  V30 826 C 74.8401 2.36442 4.19104 0
M  V30 827 C 77.1921 2.89824 4.33188 0
M  V30 828 C 74.5201 3.66009 4.58535 0
M  V30 829 C 76.8721 4.1886 4.74066 0
M  V30 830 C 75.5361 4.5726 4.86281 0
M  V30 831 H 74.8061 0.153491 0.724929 0
M  V30 832 H 77.4531 1.05371 1.59904 0
M  V30 833 H 75.7581 -0.142385 3.91541 0
M  V30 834 H 77.4551 0.239057 4.00287 0
M  V30 835 H 74.0451 1.67162 3.94658 0
M  V30 836 H 78.2291 2.61375 4.21897 0
M  V30 837 H 73.4851 3.95579 4.66184 0
M  V30 838 H 77.6591 4.90086 4.94761 0
M  V30 839 H 75.2861 5.57707 5.16592 0
M  V30 840 N 76.8612 -1.46375 0.584142 0
M  V30 841 C 78.0862 -2.07268 0.0740405 0
M  V30 842 C 78.5112 -1.42979 -1.22223 0
M  V30 843 O 77.8692 -0.514092 -1.73859 0
M  V30 844 C 77.9172 -3.60518 -0.0767769 0
M  V30 845 O 77.0212 -3.96533 -1.13292 0
M  V30 846 H 76.3622 -0.660961 0.0634524 0
M  V30 847 H 78.8922 -1.87991 0.807492 0
M  V30 848 H 78.9022 -4.07021 -0.282489 0
M  V30 849 H 77.5772 -4.06702 0.86986 0
M  V30 850 H 76.1542 -3.61738 -0.905553 0
M  V30 851 N 78.3393 -0.321999 -1.54275 0
M  V30 852 C 79.5693 0.282642 -2.04658 0
M  V30 853 C 79.9773 1.46453 -1.19784 0
M  V30 854 O 79.3203 1.82367 -0.220932 0
M  V30 855 C 79.3823 0.781857 -3.50895 0
M  V30 856 C 79.0463 -0.277517 -4.56157 0
M  V30 857 C 80.0433 -1.11307 -5.07845 0
M  V30 858 C 77.7283 -0.425256 -5.00497 0
M  V30 859 C 79.7223 -2.08211 -6.02434 0
M  V30 860 C 77.4093 -1.39771 -5.94901 0
M  V30 861 C 78.4073 -2.2246 -6.45756 0
M  V30 862 O 78.0953 -3.18054 -7.38307 0
M  V30 863 H 77.8273 0.0622636 -0.673126 0
M  V30 864 H 80.3813 -0.465792 -2.00049 0
M  V30 865 H 78.6113 1.58118 -3.52896 0
M  V30 866 H 80.3003 1.30467 -3.84361 0
M  V30 867 H 81.0663 -1.00991 -4.74369 0
M  V30 868 H 76.9453 0.20847 -4.60528 0
M  V30 869 H 80.4893 -2.72791 -6.42052 0
M  V30 870 H 76.3863 -1.50152 -6.27794 0
M  V30 871 H 77.1543 -3.13275 -7.56175 0
M  V30 872 N 79.8174 1.5752 -0.0501392 0
M  V30 873 C 80.7644 2.1147 0.924603 0
M  V30 874 C 81.7344 1.02182 1.30951 0
M  V30 875 O 82.9194 1.29723 1.39916 0
M  V30 876 C 80.0594 2.66337 2.19451 0
M  V30 877 C 79.1724 3.89708 1.86418 0
M  V30 878 C 78.3074 4.32893 3.07859 0
M  V30 879 C 77.3464 5.48967 2.70742 0
M  V30 880 N 76.4834 5.87211 3.84874 0
M  V30 881 H 81.3234 2.94465 0.457639 0
M  V30 882 H 78.8604 1.45531 0.214266 0
M  V30 883 H 80.8184 2.96247 2.93758 0
M  V30 884 H 79.4484 1.86141 2.63726 0
M  V30 885 H 78.5004 3.66396 1.02264 0
M  V30 886 H 79.8124 4.74074 1.55096 0
M  V30 887 H 78.9664 4.6435 3.90466 0
M  V30 888 H 77.7054 3.47336 3.42358 0
M  V30 889 H 76.7104 5.17183 1.86551 0
M  V30 890 H 77.9354 6.3624 2.37436 0
M  V30 891 H 75.8814 5.04607 4.19175 0
M  V30 892 H 75.7984 6.66266 3.57247 0
M  V30 893 H 77.0664 6.23282 4.68123 0
M  V30 894 N 81.2955 -0.223234 1.56011 0
M  V30 895 C 82.5235 -0.964812 1.83027 0
M  V30 896 C 82.9385 -1.78013 0.62904 0
M  V30 897 O 82.2955 -1.78008 -0.402414 0
M  V30 898 C 82.3465 -1.88373 3.08542 0
M  V30 899 O 82.0675 -1.10137 4.2403 0
M  V30 900 C 83.5685 -2.73934 3.48533 0
M  V30 901 H 80.7885 -0.282842 0.608475 0
M  V30 902 H 83.3325 -0.238971 2.03099 0
M  V30 903 H 81.4875 -2.56354 2.9045 0
M  V30 904 H 81.9015 -1.72501 4.95322 0
M  V30 905 H 83.3755 -3.34117 4.39397 0
M  V30 906 H 83.8525 -3.46244 2.70207 0
M  V30 907 H 84.4585 -2.11369 3.69057 0
M  V30 908 N 82.7736 -1.49793 -0.48987 0
M  V30 909 C 84.0206 -1.59841 -1.24327 0
M  V30 910 C 84.3486 -0.290135 -1.92324 0
M  V30 911 O 83.6036 0.722749 -1.81865 0
M  V30 912 C 83.9026 -2.71488 -2.32441 0
M  V30 913 C 83.5686 -4.12614 -1.81826 0
M  V30 914 C 82.2306 -4.51017 -1.67742 0
M  V30 915 C 84.5826 -5.00892 -1.4407 0
M  V30 916 C 81.9106 -5.75459 -1.14297 0
M  V30 917 C 84.2626 -6.25863 -0.920742 0
M  V30 918 C 82.9266 -6.63086 -0.766383 0
M  V30 919 H 82.1966 -0.584899 -0.454944 0
M  V30 920 H 84.8436 -1.83663 -0.542215 0
M  V30 921 H 83.1486 -2.4168 -3.0838 0
M  V30 922 H 84.8456 -2.76469 -2.90458 0
M  V30 923 H 81.4356 -3.82307 -1.93751 0
M  V30 924 H 85.6196 -4.7187 -1.53794 0
M  V30 925 H 80.8756 -6.02989 -1.01068 0
M  V30 926 H 85.0496 -6.9364 -0.619448 0
M  V30 927 H 82.6766 -7.59393 -0.350083 0
M  V30 928 N 84.2517 0.741722 -1.39055 0
M  V30 929 C 85.4987 1.50114 -1.35912 0
M  V30 930 C 85.8267 1.94443 0.0470937 0
M  V30 931 O 85.0817 1.66612 1.02659 0
M  V30 932 C 85.3807 2.7592 -2.27163 0
M  V30 933 C 85.0467 2.50493 -3.74919 0
M  V30 934 C 83.7087 2.43267 -4.1518 0
M  V30 935 C 86.0607 2.28585 -4.684 0
M  V30 936 C 83.3887 2.12166 -5.46994 0
M  V30 937 C 85.7407 1.99002 -6.00484 0
M  V30 938 C 84.4047 1.90241 -6.39816 0
M  V30 939 H 83.6747 0.549306 -0.497336 0
M  V30 940 H 86.3217 0.851896 -1.71508 0
M  V30 941 H 84.6267 3.45553 -1.84663 0
M  V30 942 H 86.3237 3.33923 -2.22028 0
M  V30 943 H 82.9137 2.56992 -3.43006 0
M  V30 944 H 87.0977 2.33139 -4.38132 0
M  V30 945 H 82.3537 2.03901 -5.76398 0
M  V30 946 H 86.5277 1.81057 -6.72452 0
M  V30 947 H 84.1547 1.65907 -7.41875 0
M  V30 948 N 85.7298 1.2412 0.971189 0
M  V30 949 C 87.1408 1.07236 1.52831 0
M  V30 950 C 87.4918 -0.357352 1.92918 0
M  V30 951 O 86.6168 -1.24528 1.76979 0
M  V30 952 C 87.2118 1.94043 2.77728 0
M  V30 953 C 85.7708 1.81394 3.29808 0
M  V30 954 C 84.9178 1.89189 2.02738 0
M  V30 955 H 87.8688 1.37648 0.789864 0
M  V30 956 H 87.8898 1.47066 3.5093 0
M  V30 957 H 87.4018 2.98093 2.4852 0
M  V30 958 H 85.5028 0.801634 3.63874 0
M  V30 959 H 85.6158 2.65294 3.98944 0
M  V30 960 H 83.9798 1.32877 2.17292 0
M  V30 961 H 84.7628 2.94812 1.759 0
M  V30 962 N 87.2079 -1.17134 1.05439 0
M  V30 963 C 88.1559 -2.23289 0.651511 0
M  V30 964 C 89.1499 -1.66186 -0.328411 0
M  V30 965 O 90.3559 -1.78949 -0.194206 0
M  V30 966 H 86.7309 -0.726938 0.192523 0
M  V30 967 H 88.7019 -2.54565 1.55689 0
M  V30 968 C 87.4509 -3.47671 0.0448436 0
M  V30 969 H 86.7739 -3.91918 0.78996 0
M  V30 970 H 88.2139 -4.2353 -0.19964 0
M  V30 971 C 86.6729 -3.14453 -1.20918 0
M  V30 972 O 87.2029 -3.29459 -2.29825 0
M  V30 973 N 85.4089 -2.68657 -1.10779 0
M  V30 974 H 84.9559 -2.56646 -0.221526 0
M  V30 975 H 84.9139 -2.46804 -1.9477 0
M  V30 976 N 88.686 -0.835752 -1.33615 0
M  V30 977 C 89.932 -0.439817 -1.98588 0
M  V30 978 C 90.287 0.989274 -1.65019 0
M  V30 979 O 89.58 1.68168 -0.918159 0
M  V30 980 C 89.774 -0.593925 -3.52431 0
M  V30 981 C 89.603 -2.03644 -4.00948 0
M  V30 982 C 88.373 -2.67103 -4.28934 0
M  V30 983 C 90.571 -3.00479 -4.17393 0
M  V30 984 N 88.553 -4.02462 -4.6357 0
M  V30 985 C 89.924 -4.20777 -4.55353 0
M  V30 986 C 91.979 -2.96926 -3.99674 0
M  V30 987 C 90.682 -5.37994 -4.77447 0
M  V30 988 C 92.708 -4.1337 -4.22941 0
M  V30 989 C 92.07 -5.32422 -4.61201 0
M  V30 990 H 88.169 -0.209303 -0.75347 0
M  V30 991 H 90.753 -1.08316 -1.61789 0
M  V30 992 H 88.924 0.019599 -3.88395 0
M  V30 993 H 90.656 -0.169738 -4.04344 0
M  V30 994 H 87.411 -2.18259 -4.20309 0
M  V30 995 H 87.835 -4.72232 -4.85104 0
M  V30 996 H 92.477 -2.06015 -3.69212 0
M  V30 997 H 90.195 -6.29451 -5.06771 0
M  V30 998 H 93.781 -4.12034 -4.10754 0
M  V30 999 H 92.661 -6.21027 -4.78848 0
M  V30 1000 N 90.1641 1.46063 -0.591896 0
M  V30 1001 C 91.4131 2.01547 -0.0786637 0
M  V30 1002 C 91.7261 1.46796 1.29268 0
M  V30 1003 O 92.9321 1.94157 1.89777 0
M  V30 1004 C 91.3881 3.59787 -0.0900024 0
M  V30 1005 C 90.9961 4.23534 -1.46023 0
M  V30 1006 C 92.7401 4.22895 0.368806 0
M  V30 1007 C 90.6471 5.73881 -1.4288 0
M  V30 1008 H 89.5771 0.753564 -0.0256388 0
M  V30 1009 H 92.2281 1.677 -0.744905 0
M  V30 1010 H 90.6101 3.90752 0.642586 0
M  V30 1011 H 91.7841 4.04167 -2.21328 0
M  V30 1012 H 90.0991 3.72558 -1.85982 0
M  V30 1013 H 92.6961 5.33116 0.411258 0
M  V30 1014 H 93.0391 3.9247 1.38827 0
M  V30 1015 H 93.5721 3.9659 -0.31001 0
M  V30 1016 H 90.3111 6.0898 -2.42536 0
M  V30 1017 H 89.8311 5.95486 -0.718095 0
M  V30 1018 H 91.5101 6.36776 -1.14565 0
M  V30 1019 N 91.6422 0.330177 1.54103 0
M  V30 1020 C 92.8672 -0.274893 2.0557 0
M  V30 1021 C 93.2922 -1.44487 1.20437 0
M  V30 1022 O 92.6502 -1.80021 0.214991 0
M  V30 1023 C 92.6982 -0.68079 3.54115 0
M  V30 1024 O 91.8022 -1.7824 3.71893 0
M  V30 1025 H 91.1432 -0.0483849 0.662235 0
M  V30 1026 H 93.6732 0.480508 1.98878 0
M  V30 1027 H 93.6832 -0.961635 3.96505 0
M  V30 1028 H 92.3582 0.174903 4.15532 0
M  V30 1029 H 90.9352 -1.49985 3.41407 0
M  V30 1030 N 93.1203 -1.57491 0.0584922 0
M  V30 1031 C 94.3683 -1.92597 -0.612436 0
M  V30 1032 C 94.6893 -0.938162 -1.70949 0
M  V30 1033 O 93.9593 0.0158301 -1.95894 0
M  V30 1034 H 92.5393 -0.710964 -0.229214 0
M  V30 1035 H 95.2013 -1.94571 0.113218 0
M  V30 1036 H 94.2973 -2.94038 -1.04633 0
M  V30 1037 N 94.5984 0.214957 -1.56127 0
M  V30 1038 C 95.5304 1.29004 -1.89448 0
M  V30 1039 C 96.5434 1.42716 -0.783326 0
M  V30 1040 O 97.7324 1.43496 -1.06166 0
M  V30 1041 C 94.8324 2.66482 -2.09381 0
M  V30 1042 C 94.0054 2.74633 -3.40434 0
M  V30 1043 C 93.0644 3.9317 -3.49719 0
M  V30 1044 O 92.0904 3.812 -4.227 0
M  V30 1045 N 93.2924 5.07765 -2.81346 0
M  V30 1046 H 96.0574 1.00743 -2.82261 0
M  V30 1047 H 93.6184 0.40497 -1.56753 0
M  V30 1048 H 95.6104 3.44173 -2.12901 0
M  V30 1049 H 94.1804 2.87314 -1.23163 0
M  V30 1050 H 93.4004 1.83368 -3.48955 0
M  V30 1051 H 94.6884 2.77054 -4.26754 0
M  V30 1052 H 94.0864 5.20386 -2.21843 0
M  V30 1053 H 92.6434 5.83474 -2.90519 0
M  V30 1054 N 96.0765 1.50051 0.48192 0
M  V30 1055 C 96.9865 1.7089 1.60728 0
M  V30 1056 C 98.0025 0.591788 1.63627 0
M  V30 1057 O 99.1785 0.868817 1.81696 0
M  V30 1058 C 96.2435 1.78855 2.97005 0
M  V30 1059 C 95.3045 3.02537 3.04581 0
M  V30 1060 C 94.5375 3.10112 4.34357 0
M  V30 1061 O 94.7605 2.24765 5.24249 0
M  V30 1062 O 93.6945 4.02747 4.47301 0
M  V30 1063 H 97.5205 2.66264 1.46072 0
M  V30 1064 H 95.1055 1.34018 0.660264 0
M  V30 1065 H 96.9875 1.86336 3.77964 0
M  V30 1066 H 95.6625 0.866628 3.11883 0
M  V30 1067 H 94.5695 3.00563 2.22739 0
M  V30 1068 H 95.9025 3.94272 2.94636 0
M  V30 1069 N 97.5546 -0.734337 1.39446 0
M  V30 1070 C 98.7846 -1.52137 1.39778 0
M  V30 1071 C 99.1926 -1.89198 -0.00929312 0
M  V30 1072 O 98.5356 -1.54666 -0.991168 0
M  V30 1073 C 98.5976 -2.83762 2.20724 0
M  V30 1074 C 98.2616 -2.69131 3.69347 0
M  V30 1075 C 99.2586 -2.37635 4.62413 0
M  V30 1076 C 96.9436 -2.85982 4.1294 0
M  V30 1077 C 98.9376 -2.23172 5.97054 0
M  V30 1078 C 96.6246 -2.71137 5.47657 0
M  V30 1079 C 97.6226 -2.39777 6.39528 0
M  V30 1080 O 97.3106 -2.25026 7.71763 0
M  V30 1081 H 97.0426 -0.476717 0.479288 0
M  V30 1082 H 99.5966 -0.915012 1.83893 0
M  V30 1083 H 97.8266 -3.4666 1.71359 0
M  V30 1084 H 99.5156 -3.45383 2.13226 0
M  V30 1085 H 100.282 -2.24267 4.30034 0
M  V30 1086 H 96.1606 -3.09383 3.41765 0
M  V30 1087 H 99.7046 -1.98617 6.68728 0
M  V30 1088 H 95.6016 -2.84083 5.79626 0
M  V30 1089 H 96.3696 -2.40091 7.82495 0
M  V30 1090 N 99.0327 -1.24633 -0.964593 0
M  V30 1091 C 99.9627 -1.06611 -2.07741 0
M  V30 1092 C 100.944 0.0218666 -1.70086 0
M  V30 1093 O 102.129 -0.145793 -1.93652 0
M  V30 1094 C 99.2587 -0.673444 -3.40708 0
M  V30 1095 C 98.2127 -1.71054 -3.92332 0
M  V30 1096 C 97.5387 -1.17285 -5.21678 0
M  V30 1097 C 98.8387 -3.10718 -4.19824 0
M  V30 1098 H 100.533 -1.99693 -2.23076 0
M  V30 1099 H 98.0787 -0.96152 -1.07195 0
M  V30 1100 H 100.032 -0.534345 -4.17998 0
M  V30 1101 H 98.7557 0.293073 -3.25282 0
M  V30 1102 H 97.4147 -1.83791 -3.17201 0
M  V30 1103 H 97.0627 -0.196847 -5.02615 0
M  V30 1104 H 96.7627 -1.86592 -5.57187 0
M  V30 1105 H 98.2867 -1.04593 -6.01575 0
M  V30 1106 H 99.7007 -3.01192 -4.87808 0
M  V30 1107 H 98.0977 -3.77406 -4.66567 0
M  V30 1108 H 99.1677 -3.58524 -3.26479 0
M  V30 1109 N 100.511 1.16574 -1.06058 0
M  V30 1110 C 101.461 2.18854 -0.63929 0
M  V30 1111 C 102.445 1.57505 0.328798 0
M  V30 1112 O 103.637 1.76408 0.144623 0
M  V30 1113 C 100.766 3.43291 -0.0247203 0
M  V30 1114 C 99.8518 4.11722 -1.01716 0
M  V30 1115 N 100.243 4.55841 -2.19186 0
M  V30 1116 C 98.5408 4.37872 -0.847569 0
M  V30 1117 C 99.2418 5.08751 -2.82042 0
M  V30 1118 N 98.2178 5.01489 -2.09784 0
M  V30 1119 H 102.02 2.5068 -1.53417 0
M  V30 1120 H 99.5338 1.32999 -0.931935 0
M  V30 1121 H 101.531 4.15856 0.294915 0
M  V30 1122 H 100.191 3.12954 0.865448 0
M  V30 1123 H 101.202 4.49649 -2.56975 0
M  V30 1124 H 97.8788 4.17499 -0.00918848 0
M  V30 1125 H 99.2688 5.52944 -3.81709 0
M  V30 1126 N 101.989 0.842826 1.3317 0
M  V30 1127 C 102.921 0.236245 2.27979 0
M  V30 1128 C 103.934 -0.585282 1.51915 0
M  V30 1129 O 105.123 -0.411705 1.73687 0
M  V30 1130 C 102.223 -0.685717 3.3189 0
M  V30 1131 C 101.396 0.0973448 4.37292 0
M  V30 1132 C 100.455 -0.748565 5.20848 0
M  V30 1133 O 99.4809 -0.186339 5.68895 0
M  V30 1134 N 100.683 -2.06527 5.42519 0
M  V30 1135 H 103.448 1.05088 2.80672 0
M  V30 1136 H 101.009 0.701667 1.45905 0
M  V30 1137 H 103.001 -1.25669 3.84694 0
M  V30 1138 H 101.571 -1.40105 2.79445 0
M  V30 1139 H 100.791 0.849706 3.84933 0
M  V30 1140 H 102.079 0.635643 5.04814 0
M  V30 1141 H 101.477 -2.54554 5.05192 0
M  V30 1142 H 100.034 -2.58464 5.98364 0
M  V30 1143 N 103.467 -1.45747 0.599634 0
M  V30 1144 C 104.692 -2.07178 0.0960198 0
M  V30 1145 C 105.117 -1.44268 -1.207 0
M  V30 1146 O 104.475 -0.532503 -1.73303 0
M  V30 1147 C 104.523 -3.60579 -0.0385348 0
M  V30 1148 O 103.627 -3.97713 -1.0908 0
M  V30 1149 H 102.968 -0.660251 0.0704593 0
M  V30 1150 H 105.498 -1.87124 0.827385 0
M  V30 1151 H 105.508 -4.07298 -0.239304 0
M  V30 1152 H 104.183 -4.05756 0.912947 0
M  V30 1153 H 102.76 -3.62678 -0.867135 0
M  V30 1154 N 104.945 -0.338344 -1.53925 0
M  V30 1155 C 105.908 0.508299 -2.23493 0
M  V30 1156 C 106.908 1.03175 -1.23335 0
M  V30 1157 O 108.098 0.921826 -1.47811 0
M  V30 1158 C 105.23 1.70754 -2.95052 0
M  V30 1159 H 106.423 -0.100058 -2.99733 0
M  V30 1160 H 103.976 -0.0896198 -1.56043 0
M  V30 1161 H 104.711 2.35474 -2.22986 0
M  V30 1162 H 104.496 1.33946 -3.68512 0
M  V30 1163 H 105.986 2.30818 -3.48013 0
M  V30 1164 N 106.423 1.57458 -0.0668435 0
M  V30 1165 C 107.7 1.8469 0.644132 0
M  V30 1166 C 108.08 0.958343 1.88093 0
M  V30 1167 O 107.428 0.0233579 2.28488 0
M  V30 1168 C 107.638 3.34767 0.986509 0
M  V30 1169 C 108.986 4.02159 1.36212 0
M  V30 1170 O 110.01 3.39484 1.07839 0
M  V30 1171 O 108.869 5.12694 1.89227 0
M  V30 1172 H 105.963 0.762816 0.319437 0
M  V30 1173 H 108.509 1.6942 -0.0973986 0
M  V30 1174 H 107.281 3.91151 0.107883 0
M  V30 1175 H 106.904 3.55281 1.78497 0
M  V30 1176 N 107.901 -0.206675 1.56239 0
M  V30 1177 C 108.849 -1.27571 1.94495 0
M  V30 1178 C 109.843 -1.47737 0.828862 0
M  V30 1179 O 111.049 -1.48735 1.0138 0
M  V30 1180 H 107.424 -0.428029 0.6183 0
M  V30 1181 H 109.395 -0.925961 2.8367 0
M  V30 1182 C 108.144 -2.61568 2.29079 0
M  V30 1183 H 107.467 -2.46863 3.14482 0
M  V30 1184 H 108.907 -3.35144 2.5972 0
M  V30 1185 C 107.366 -3.17695 1.12123 0
M  V30 1186 O 107.896 -3.99801 0.390153 0
M  V30 1187 N 106.102 -2.76276 0.901097 0
M  V30 1188 H 105.649 -2.09613 1.49733 0
M  V30 1189 H 105.607 -3.1417 0.120319 0
M  V30 1190 N 109.379 -1.50304 -0.473955 0
M  V30 1191 C 110.327 -1.69482 -1.59307 0
M  V30 1192 C 111.321 -0.560669 -1.59853 0
M  V30 1193 O 112.527 -0.741087 -1.64036 0
M  V30 1194 H 108.902 -0.534892 -0.528578 0
M  V30 1195 H 110.873 -2.63364 -1.40293 0
M  V30 1196 C 109.622 -1.80354 -2.97267 0
M  V30 1197 H 108.945 -2.67012 -2.97564 0
M  V30 1198 H 110.385 -1.97798 -3.75036 0
M  V30 1199 C 108.844 -0.55448 -3.32306 0
M  V30 1200 O 109.374 0.307661 -4.0052 0
M  V30 1201 N 107.58 -0.409354 -2.87702 0
M  V30 1202 H 107.127 -1.11196 -2.32364 0
M  V30 1203 H 107.085 0.425223 -3.11511 0
M  V30 1204 N 110.857 0.726932 -1.39834 0
M  V30 1205 C 112.106 1.48214 -1.36805 0
M  V30 1206 C 112.419 1.95576 0.0305291 0
M  V30 1207 O 113.625 2.7088 0.183417 0
M  V30 1208 C 112.081 2.67854 -2.40379 0
M  V30 1209 C 111.689 2.27408 -3.85992 0
M  V30 1210 C 113.433 3.45641 -2.46439 0
M  V30 1211 C 111.34 3.43819 -4.81189 0
M  V30 1212 H 110.27 0.556606 -0.508631 0
M  V30 1213 H 112.921 0.792216 -1.65518 0
M  V30 1214 H 111.303 3.3896 -2.04749 0
M  V30 1215 H 112.477 1.63795 -4.30706 0
M  V30 1216 H 110.792 1.62692 -3.83302 0
M  V30 1217 H 113.389 4.32244 -3.14753 0
M  V30 1218 H 113.732 3.88669 -1.49139 0
M  V30 1219 H 114.265 2.8157 -2.81004 0
M  V30 1220 H 111.004 3.05834 -5.79781 0
M  V30 1221 H 110.524 4.06385 -4.41148 0
M  V30 1222 H 112.203 4.10043 -5.00474 0
M  V30 1223 N 112.336 1.25143 0.95797 0
M  V30 1224 C 113.582 1.09855 1.70469 0
M  V30 1225 C 113.915 -0.360187 1.90831 0
M  V30 1226 O 113.19 -1.26568 1.47685 0
M  V30 1227 C 113.473 1.8497 3.08963 0
M  V30 1228 C 113.326 3.38652 2.96032 0
M  V30 1229 C 114.645 1.63016 4.08795 0
M  V30 1230 H 111.764 0.400465 0.618706 0
M  V30 1231 H 114.406 1.53933 1.11376 0
M  V30 1232 H 112.556 1.47505 3.59409 0
M  V30 1233 H 114.228 3.85772 2.52938 0
M  V30 1234 H 112.471 3.66534 2.32025 0
M  V30 1235 H 113.142 3.8642 3.94187 0
M  V30 1236 H 115.618 1.95625 3.67247 0
M  V30 1237 H 114.494 2.18015 5.03747 0
M  V30 1238 H 114.755 0.570692 4.38401 0
M  V30 1239 N 113.814 -1.1601 1.06675 0
M  V30 1240 C 114.744 -2.22688 0.702307 0
M  V30 1241 C 115.725 -1.67306 -0.307032 0
M  V30 1242 O 116.91 -1.93352 -0.181305 0
M  V30 1243 C 114.04 -3.47178 0.092038 0
M  V30 1244 C 112.994 -4.15477 1.02777 0
M  V30 1245 C 112.32 -5.33963 0.28061 0
M  V30 1246 C 113.62 -4.66019 2.35846 0
M  V30 1247 H 115.314 -2.53429 1.59419 0
M  V30 1248 H 112.86 -1.21813 0.767961 0
M  V30 1249 H 114.813 -4.21037 -0.174814 0
M  V30 1250 H 113.537 -3.15749 -0.834877 0
M  V30 1251 H 112.196 -3.43549 1.27944 0
M  V30 1252 H 111.844 -4.98788 -0.649545 0
M  V30 1253 H 111.544 -5.806 0.904258 0
M  V30 1254 H 113.068 -6.10596 0.021396 0
M  V30 1255 H 114.482 -5.3144 2.15045 0
M  V30 1256 H 112.879 -5.23293 2.93743 0
M  V30 1257 H 113.949 -3.82023 2.98641 0
M  V30 1258 N 115.292 -0.849877 -1.32721 0
M  V30 1259 C 116.522 -0.46408 -2.0132 0
M  V30 1260 C 116.93 0.94246 -1.64056 0
M  V30 1261 O 116.273 1.6257 -0.855379 0
M  V30 1262 C 116.335 -0.517887 -3.5575 0
M  V30 1263 C 115.999 -1.88248 -4.16427 0
M  V30 1264 C 116.996 -2.84726 -4.35002 0
M  V30 1265 C 114.681 -2.17832 -4.52609 0
M  V30 1266 C 116.675 -4.08945 -4.8892 0
M  V30 1267 C 114.362 -3.42304 -5.06232 0
M  V30 1268 C 115.36 -4.37677 -5.24335 0
M  V30 1269 O 115.048 -5.59946 -5.76815 0
M  V30 1270 H 114.78 -0.181327 -0.651227 0
M  V30 1271 H 117.334 -1.14713 -1.70382 0
M  V30 1272 H 115.564 0.221997 -3.86062 0
M  V30 1273 H 117.253 -0.148366 -4.05629 0
M  V30 1274 H 118.019 -2.63174 -4.07388 0
M  V30 1275 H 113.898 -1.44385 -4.37806 0
M  V30 1276 H 117.442 -4.83396 -5.02966 0
M  V30 1277 H 113.339 -3.63709 -5.33278 0
M  V30 1278 H 114.107 -5.61838 -5.95214 0
M  V30 1279 N 116.77 1.45427 -0.607355 0
M  V30 1280 C 117.718 2.32269 0.12411 0
M  V30 1281 C 118.712 1.45955 0.859854 0
M  V30 1282 O 119.918 1.6244 0.775447 0
M  V30 1283 H 116.293 0.749691 0.0588839 0
M  V30 1284 H 118.264 2.91743 -0.626762 0
M  V30 1285 C 117.013 3.29567 1.1082 0
M  V30 1286 H 116.336 3.95978 0.551492 0
M  V30 1287 H 117.776 3.93061 1.58995 0
M  V30 1288 C 116.235 2.56722 2.18164 0
M  V30 1289 O 116.765 2.34842 3.25902 0
M  V30 1290 N 114.971 2.16861 1.93442 0
M  V30 1291 H 114.518 2.34855 1.05834 0
M  V30 1292 H 114.476 1.68444 2.65469 0
M  V30 1293 N 118.248 0.346503 1.53744 0
M  V30 1294 C 119.497 -0.250122 2.00143 0
M  V30 1295 C 119.81 -1.51418 1.23822 0
M  V30 1296 O 121.016 -2.18823 1.60713 0
M  V30 1297 C 119.472 -0.496252 3.56462 0
M  V30 1298 C 119.08 0.752077 4.41642 0
M  V30 1299 C 120.824 -1.05157 4.11269 0
M  V30 1300 C 118.731 0.476583 5.89477 0
M  V30 1301 H 117.661 -0.0972409 0.747703 0
M  V30 1302 H 120.312 0.46229 1.77581 0
M  V30 1303 H 118.694 -1.26944 3.75102 0
M  V30 1304 H 119.868 1.5266 4.34778 0
M  V30 1305 H 118.183 1.22925 3.97842 0
M  V30 1306 H 120.78 -1.27269 5.19333 0
M  V30 1307 H 121.123 -2.00799 3.64672 0
M  V30 1308 H 121.656 -0.339019 3.96353 0
M  V30 1309 H 118.395 1.4028 6.40314 0
M  V30 1310 H 117.915 -0.259794 5.99237 0
M  V30 1311 H 119.594 0.0949315 6.4693 0
M  V30 1312 N 119.726 -1.57421 0.075193 0
M  V30 1313 C 120.636 -2.1642 -0.905511 0
M  V30 1314 C 121.652 -1.12828 -1.32461 0
M  V30 1315 O 122.828 -1.45109 -1.39661 0
M  V30 1316 C 119.893 -2.71693 -2.15369 0
M  V30 1317 C 118.954 -3.90171 -1.79068 0
M  V30 1318 C 118.187 -4.42798 -2.97936 0
M  V30 1319 O 118.41 -3.94416 -4.12058 0
M  V30 1320 O 117.344 -5.34085 -2.77555 0
M  V30 1321 H 121.17 -3.00588 -0.433626 0
M  V30 1322 H 118.755 -1.48664 -0.148067 0
M  V30 1323 H 120.637 -3.07104 -2.88557 0
M  V30 1324 H 119.312 -1.90582 -2.61649 0
M  V30 1325 H 118.219 -3.59606 -1.03122 0
M  V30 1326 H 119.552 -4.72584 -1.37569 0
M  V30 1327 N 121.204 0.198386 -1.56346 0
M  V30 1328 C 122.432 0.935572 -1.84539 0
M  V30 1329 C 122.847 1.76989 -0.657281 0
M  V30 1330 O 122.204 1.78626 0.374043 0
M  V30 1331 C 122.255 1.8344 -3.11499 0
M  V30 1332 O 121.976 1.03377 -4.25728 0
M  V30 1333 C 123.477 2.68355 -3.52846 0
M  V30 1334 H 120.697 0.273126 -0.612897 0
M  V30 1335 H 123.241 0.20663 -2.03453 0
M  V30 1336 H 121.396 2.51701 -2.94492 0
M  V30 1337 H 121.81 1.64599 -4.98003 0
M  V30 1338 H 123.284 3.27085 -4.44657 0
M  V30 1339 H 123.761 3.41901 -2.75681 0
M  V30 1340 H 124.367 2.05471 -3.72373 0
M  V30 1341 N 122.682 1.50554 0.465978 0
M  V30 1342 C 123.93 1.61479 1.21528 0
M  V30 1343 C 124.251 0.319596 1.92363 0
M  V30 1344 O 123.521 -0.663194 1.84333 0
M  V30 1345 H 122.101 0.595055 0.451573 0
M  V30 1346 H 124.763 1.87355 0.53704 0
M  V30 1347 H 123.859 2.42846 1.96042 0
M  V30 1348 N 124.16 -0.719506 1.40217 0
M  V30 1349 C 125.092 -1.84428 1.36084 0
M  V30 1350 C 126.105 -1.60597 0.266913 0
M  V30 1351 O 127.294 -1.70544 0.526983 0
M  V30 1352 C 124.394 -3.20757 1.094 0
M  V30 1353 C 123.567 -3.71817 2.30372 0
M  V30 1354 C 122.626 -4.86748 1.99907 0
M  V30 1355 O 121.652 -4.99603 2.72737 0
M  V30 1356 N 122.854 -5.7226 0.974635 0
M  V30 1357 H 125.619 -1.88473 2.33019 0
M  V30 1358 H 123.18 -0.900885 1.3452 0
M  V30 1359 H 125.172 -3.95235 0.870116 0
M  V30 1360 H 123.742 -3.11884 0.211452 0
M  V30 1361 H 122.962 -2.88514 2.68614 0
M  V30 1362 H 124.25 -4.02666 3.11026 0
M  V30 1363 H 123.648 -5.6448 0.371368 0
M  V30 1364 H 122.205 -6.46739 0.810656 0
M  V30 1365 N 125.638 -1.25649 -0.95132 0
M  V30 1366 C 126.863 -1.13443 -1.73624 0
M  V30 1367 C 127.288 0.307565 -1.85568 0
M  V30 1368 O 126.646 1.22282 -1.33854 0
M  V30 1369 C 126.694 -1.79723 -3.12621 0
M  V30 1370 O 125.798 -1.07912 -3.98031 0
M  V30 1371 H 125.139 -0.395872 -0.533086 0
M  V30 1372 H 127.669 -1.66276 -1.1922 0
M  V30 1373 H 127.679 -1.86141 -3.63064 0
M  V30 1374 H 126.354 -2.84633 -3.03244 0
M  V30 1375 H 124.931 -1.09398 -3.56492 0
M  V30 1376 N 127.117 1.15442 -1.07289 0
M  V30 1377 C 128.347 1.89821 -0.815576 0
M  V30 1378 C 128.755 1.7823 0.634867 0
M  V30 1379 O 128.098 1.13152 1.44715 0
M  V30 1380 C 128.16 3.40817 -1.14385 0
M  V30 1381 C 127.824 3.76193 -2.59476 0
M  V30 1382 C 128.821 3.77269 -3.57721 0
M  V30 1383 C 126.506 4.0652 -2.95037 0
M  V30 1384 C 128.5 4.08176 -4.89562 0
M  V30 1385 C 126.187 4.37092 -4.27076 0
M  V30 1386 C 127.185 4.37902 -5.24148 0
M  V30 1387 O 126.873 4.67741 -6.53815 0
M  V30 1388 H 126.605 0.608465 -0.294528 0
M  V30 1389 H 129.159 1.472 -1.43252 0
M  V30 1390 H 127.389 3.83835 -0.469865 0
M  V30 1391 H 129.078 3.96485 -0.869179 0
M  V30 1392 H 129.844 3.5394 -3.3159 0
M  V30 1393 H 125.723 4.05049 -2.20128 0
M  V30 1394 H 129.267 4.08723 -5.65324 0
M  V30 1395 H 125.164 4.59889 -4.5296 0
M  V30 1396 H 125.932 4.85509 -6.58957 0
M  V30 1397 N 128.595 0.856903 1.32268 0
M  V30 1398 C 129.823 0.475439 2.01363 0
M  V30 1399 C 130.238 -0.928486 1.64392 0
M  V30 1400 O 129.595 -1.60624 0.866387 0
M  V30 1401 C 129.646 0.607545 3.56358 0
M  V30 1402 O 129.367 1.95617 3.92002 0
M  V30 1403 C 130.868 0.225382 4.42727 0
M  V30 1404 H 128.088 0.186636 0.644521 0
M  V30 1405 H 130.632 1.15446 1.68797 0
M  V30 1406 H 128.787 -0.0237719 3.87393 0
M  V30 1407 H 129.201 1.95455 4.86721 0
M  V30 1408 H 130.675 0.368813 5.50767 0
M  V30 1409 H 131.152 -0.834369 4.31202 0
M  V30 1410 H 131.758 0.831864 4.17085 0
M  V30 1411 N 130.073 -1.45103 0.615059 0
M  V30 1412 C 131.322 -2.01396 0.110718 0
M  V30 1413 C 131.635 -1.48834 -1.26916 0
M  V30 1414 O 132.841 -1.97152 -1.86664 0
M  V30 1415 C 131.297 -3.59599 0.14723 0
M  V30 1416 C 130.905 -4.21158 1.52743 0
M  V30 1417 C 132.649 -4.23428 -0.30148 0
M  V30 1418 C 130.556 -5.71535 1.51992 0
M  V30 1419 H 129.486 -0.753061 0.0376241 0
M  V30 1420 H 132.137 -1.66494 0.77149 0
M  V30 1421 H 130.519 -3.91724 -0.580339 0
M  V30 1422 H 131.693 -4.00594 2.2773 0
M  V30 1423 H 130.008 -3.69552 1.91886 0
M  V30 1424 H 132.605 -5.33703 -0.326392 0
M  V30 1425 H 132.948 -3.94629 -1.32565 0
M  V30 1426 H 133.481 -3.96047 0.373065 0
M  V30 1427 H 130.22 -6.05044 2.52193 0
M  V30 1428 H 129.74 -5.94268 0.81274 0
M  V30 1429 H 131.419 -6.34873 1.24681 0
M  V30 1430 N 131.551 -0.354651 -1.53558 0
M  V30 1431 C 132.481 0.489091 -2.2832 0
M  V30 1432 C 133.462 1.09324 -1.30316 0
M  V30 1433 O 134.647 1.11255 -1.59173 0
M  V30 1434 C 131.777 1.63456 -3.0643 0
M  V30 1435 C 130.731 1.1582 -4.12031 0
M  V30 1436 C 130.057 2.39305 -4.7816 0
M  V30 1437 C 131.357 0.250731 -5.21698 0
M  V30 1438 H 133.051 -0.134614 -2.99097 0
M  V30 1439 H 130.597 -0.0661826 -1.43848 0
M  V30 1440 H 132.55 2.23136 -3.57475 0
M  V30 1441 H 131.274 2.28533 -2.33325 0
M  V30 1442 H 129.933 0.584146 -3.61916 0
M  V30 1443 H 129.581 3.02814 -4.01637 0
M  V30 1444 H 129.281 2.08109 -5.49513 0
M  V30 1445 H 130.805 2.99691 -5.31994 0
M  V30 1446 H 132.219 0.754695 -5.68311 0
M  V30 1447 H 130.616 0.0301468 -6.00092 0
M  V30 1448 H 131.686 -0.710125 -4.79672 0
M  V30 1449 N 133.029 1.57378 -0.0835403 0
M  V30 1450 C 134.254 1.98682 0.594987 0
M  V30 1451 C 134.679 0.961969 1.61641 0
M  V30 1452 O 134.037 -0.0709989 1.81161 0
M  V30 1453 C 134.085 3.38988 1.2296 0
M  V30 1454 O 133.189 3.39208 2.34546 0
M  V30 1455 H 132.53 0.646368 0.152002 0
M  V30 1456 H 135.06 2.03961 -0.161533 0
M  V30 1457 H 135.07 3.76431 1.57366 0
M  V30 1458 H 133.745 4.13107 0.481228 0
M  V30 1459 H 132.322 3.13548 2.01846 0
M  V30 1460 N 134.507 -0.190092 1.56449 0
M  V30 1461 C 135.455 -1.25501 1.95837 0
M  V30 1462 C 136.449 -1.4685 0.844485 0
M  V30 1463 O 137.655 -1.47651 1.02952 0
M  V30 1464 H 134.03 -0.421447 0.622805 0
M  V30 1465 H 136.001 -0.895821 2.84636 0
M  V30 1466 C 134.75 -2.59124 2.31841 0
M  V30 1467 H 134.073 -2.43514 3.17082 0
M  V30 1468 H 135.513 -3.32371 2.6326 0
M  V30 1469 C 133.972 -3.16488 1.15486 0
M  V30 1470 O 134.502 -3.99365 0.432535 0
M  V30 1471 N 132.708 -2.75305 0.930349 0
M  V30 1472 H 132.255 -2.08013 1.51948 0
M  V30 1473 H 132.213 -3.14024 0.153634 0
M  V30 1474 N 135.985 -1.50799 -0.457987 0
M  V30 1475 C 137.401 -1.38515 -0.792819 0
M  V30 1476 C 137.601 -0.451409 -1.96379 0
M  V30 1477 O 136.657 0.10112 -2.52297 0
M  V30 1478 C 137.97 -2.80149 -1.09258 0
M  V30 1479 C 139.518 -2.89156 -1.19825 0
M  V30 1480 C 139.993 -4.31651 -1.53106 0
M  V30 1481 N 141.484 -4.34662 -1.60072 0
M  V30 1482 C 142.219 -5.41928 -1.87354 0
M  V30 1483 N 141.715 -6.59384 -2.12568 0
M  V30 1484 N 143.508 -5.29385 -1.88965 0
M  V30 1485 H 135.659 -2.10073 0.313511 0
M  V30 1486 H 137.922 -0.944803 0.0777862 0
M  V30 1487 H 137.628 -3.50374 -0.305084 0
M  V30 1488 H 137.502 -3.18204 -2.02549 0
M  V30 1489 H 139.889 -2.19141 -1.97639 0
M  V30 1490 H 139.97 -2.54626 -0.244821 0
M  V30 1491 H 139.614 -5.02208 -0.758266 0
M  V30 1492 H 139.544 -4.63678 -2.49621 0
M  V30 1493 H 142.035 -3.49973 -1.42573 0
M  V30 1494 H 142.348 -7.36934 -2.32696 0
M  V30 1495 H 140.693 -6.62535 -2.09933 0
M  V30 1496 H 143.884 -4.36616 -1.68772 0
M  V30 1497 H 144.057 -6.13066 -2.09891 0
M  V30 1498 N 137.463 0.71206 -1.40597 0
M  V30 1499 C 138.691 1.50111 -1.42388 0
M  V30 1500 C 139.106 1.88784 -0.0245395 0
M  V30 1501 O 138.463 1.55681 0.952351 0
M  V30 1502 C 138.514 2.7742 -2.31776 0
M  V30 1503 O 138.235 2.40382 -3.66262 0
M  V30 1504 C 139.736 3.7129 -2.42196 0
M  V30 1505 H 136.956 0.46314 -0.485533 0
M  V30 1506 H 139.5 0.878068 -1.8469 0
M  V30 1507 H 137.655 3.36001 -1.92827 0
M  V30 1508 H 138.069 3.22324 -4.13772 0
M  V30 1509 H 139.543 4.57448 -3.08943 0
M  V30 1510 H 140.02 4.14641 -1.44809 0
M  V30 1511 H 140.626 3.18619 -2.81712 0
M  V30 1512 N 138.941 1.26152 0.944643 0
M  V30 1513 C 139.874 1.01729 2.04271 0
M  V30 1514 C 140.852 -0.0568101 1.62501 0
M  V30 1515 O 142.036 0.0848987 1.88309 0
M  V30 1516 C 139.163 0.539792 3.34371 0
M  V30 1517 C 138.209 1.60593 3.9511 0
M  V30 1518 S 139.042 3.19392 4.29825 0
M  V30 1519 C 140.198 2.73402 5.63029 0
M  V30 1520 H 140.431 1.94703 2.24673 0
M  V30 1521 H 137.964 1.09793 1.08558 0
M  V30 1522 H 139.922 0.270956 4.09605 0
M  V30 1523 H 138.583 -0.369609 3.11918 0
M  V30 1524 H 137.776 1.22275 4.88943 0
M  V30 1525 H 137.378 1.82596 3.26397 0
M  V30 1526 H 139.67 2.1765 6.41588 0
M  V30 1527 H 140.613 3.65913 6.06229 0
M  V30 1528 H 141.021 2.13077 5.22741 0
M  V30 1529 N 140.419 -1.14872 1.07899 0
M  V30 1530 C 141.366 -2.19791 0.704319 0
M  V30 1531 C 142.336 -1.63238 -0.306987 0
M  V30 1532 O 143.521 -1.8983 -0.192171 0
M  V30 1533 C 140.661 -3.44911 0.114244 0
M  V30 1534 C 139.774 -4.15637 1.1777 0
M  V30 1535 C 138.909 -5.28324 0.552037 0
M  V30 1536 C 137.948 -5.90875 1.59789 0
M  V30 1537 N 137.085 -6.95022 0.994404 0
M  V30 1538 H 141.925 -2.5119 1.60336 0
M  V30 1539 H 139.462 -1.23356 0.801352 0
M  V30 1540 H 141.42 -4.16477 -0.245544 0
M  V30 1541 H 140.05 -3.14011 -0.74813 0
M  V30 1542 H 139.102 -3.42512 1.65499 0
M  V30 1543 H 140.414 -4.5823 1.97046 0
M  V30 1544 H 139.568 -6.06538 0.1402 0
M  V30 1545 H 138.307 -4.86939 -0.272431 0
M  V30 1546 H 137.312 -5.11369 2.01945 0
M  V30 1547 H 138.537 -6.34337 2.42474 0
M  V30 1548 H 136.483 -6.55722 0.190939 0
M  V30 1549 H 136.4 -7.36073 1.72432 0
M  V30 1550 H 137.668 -7.77123 0.608253 0
M  V30 1551 N 141.898 -0.863906 -1.31812 0
M  V30 1552 C 143.123 -0.48527 -2.01643 0
M  V30 1553 C 143.548 0.913058 -1.64453 0
M  V30 1554 O 142.906 1.6014 -0.849985 0
M  V30 1555 C 142.954 -0.642625 -3.54828 0
M  V30 1556 O 142.058 0.320659 -4.11151 0
M  V30 1557 H 141.399 -0.193793 -0.635091 0
M  V30 1558 H 143.929 -1.16565 -1.68148 0
M  V30 1559 H 143.939 -0.533628 -4.04495 0
M  V30 1560 H 142.614 -1.66227 -3.81237 0
M  V30 1561 H 141.191 0.167126 -3.72525 0
M  V30 1562 N 143.376 1.44774 -0.622745 0
M  V30 1563 C 144.622 2.0242 -0.124083 0
M  V30 1564 C 144.955 1.4881 1.24777 0
M  V30 1565 O 144.23 0.668799 1.8264 0
M  V30 1566 C 144.513 3.59957 -0.101619 0
M  V30 1567 C 144.366 4.23867 -1.50521 0
M  V30 1568 C 145.685 4.36284 0.578272 0
M  V30 1569 H 142.804 0.735528 -0.0465645 0
M  V30 1570 H 145.446 1.72447 -0.797617 0
M  V30 1571 H 143.596 3.85623 0.471934 0
M  V30 1572 H 145.268 4.09336 -2.12701 0
M  V30 1573 H 143.511 3.81684 -2.06154 0
M  V30 1574 H 144.182 5.32843 -1.4416 0
M  V30 1575 H 146.658 4.16001 0.0906057 0
M  V30 1576 H 145.534 5.46004 0.563149 0
M  V30 1577 H 145.795 4.10271 1.64713 0
M  V30 1578 N 144.854 0.36279 1.53368 0
M  V30 1579 C 145.802 -0.500155 2.27159 0
M  V30 1580 C 146.796 -1.08575 1.3003 0
M  V30 1581 O 148.002 -1.02927 1.47668 0
M  V30 1582 H 144.377 -0.180009 0.730138 0
M  V30 1583 H 146.348 0.14401 2.98052 0
M  V30 1584 C 145.097 -1.62937 3.07159 0
M  V30 1585 H 144.42 -1.18806 3.8174 0
M  V30 1586 H 145.86 -2.20795 3.61975 0
M  V30 1587 C 144.319 -2.57007 2.17829 0
M  V30 1588 O 144.849 -3.59752 1.78721 0
M  V30 1589 N 143.055 -2.26131 1.82518 0
M  V30 1590 H 142.602 -1.42616 2.14519 0
M  V30 1591 H 142.56 -2.89327 1.23034 0
M  V30 1592 N 146.332 -1.57332 0.0918853 0
M  V30 1593 C 147.295 -2.12708 -0.85369 0
M  V30 1594 C 148.295 -1.05561 -1.213 0
M  V30 1595 O 149.485 -1.31461 -1.14296 0
M  V30 1596 C 146.617 -2.64503 -2.15061 0
M  V30 1597 H 147.81 -2.97573 -0.3729 0
M  V30 1598 H 145.363 -1.55509 -0.157072 0
M  V30 1599 H 146.098 -1.83149 -2.67632 0
M  V30 1600 H 145.883 -3.4284 -1.90272 0
M  V30 1601 H 147.373 -3.07351 -2.82711 0
M  V30 1602 N 147.81 0.181792 -1.56548 0
M  V30 1603 C 149.035 0.920019 -1.85877 0
M  V30 1604 C 149.46 1.75494 -0.677021 0
M  V30 1605 O 148.818 1.77399 0.374056 0
M  V30 1606 C 148.866 1.78112 -3.13542 0
M  V30 1607 O 147.97 2.88152 -2.95029 0
M  V30 1608 H 147.311 0.258334 -0.611686 0
M  V30 1609 H 149.841 0.183092 -2.03779 0
M  V30 1610 H 149.851 2.18314 -3.44678 0
M  V30 1611 H 148.526 1.16777 -3.99169 0
M  V30 1612 H 147.103 2.51609 -2.75222 0
M  V30 1613 N 149.288 1.51039 0.449983 0
M  V30 1614 C 150.236 1.71995 1.5659 0
M  V30 1615 C 151.23 0.586029 1.5894 0
M  V30 1616 O 152.436 0.76709 1.62837 0
M  V30 1617 H 148.811 0.543233 0.520001 0
M  V30 1618 H 150.782 2.65562 1.36085 0
M  V30 1619 C 149.531 1.8506 2.9436 0
M  V30 1620 H 148.854 2.71712 2.93279 0
M  V30 1621 H 150.294 2.0374 3.71842 0
M  V30 1622 C 148.753 0.607277 3.31382 0
M  V30 1623 O 149.283 -0.243903 4.00959 0
M  V30 1624 N 147.489 0.455073 2.87015 0
M  V30 1625 H 147.036 1.14879 2.30566 0
M  V30 1626 H 146.994 -0.375611 3.12148 0
M  V30 1627 N 150.766 -0.704594 1.40972 0
M  V30 1628 C 151.996 -1.49138 1.42974 0
M  V30 1629 C 152.404 -1.89175 0.0308406 0
M  V30 1630 O 151.747 -1.56734 -0.958138 0
M  V30 1631 C 151.809 -2.79016 2.26694 0
M  V30 1632 C 151.473 -2.61236 3.74973 0
M  V30 1633 C 152.47 -2.27773 4.67349 0
M  V30 1634 C 150.155 -2.77158 4.18914 0
M  V30 1635 C 152.149 -2.10457 6.01653 0
M  V30 1636 C 149.836 -2.59459 5.53285 0
M  V30 1637 C 150.834 -2.26158 6.4447 0
M  V30 1638 O 150.522 -2.08605 7.76363 0
M  V30 1639 H 150.254 -0.466443 0.489292 0
M  V30 1640 H 152.808 -0.8758 1.85793 0
M  V30 1641 H 151.038 -3.42947 1.78673 0
M  V30 1642 H 152.727 -3.40782 2.20504 0
M  V30 1643 H 153.493 -2.15095 4.34694 0
M  V30 1644 H 149.372 -3.02064 3.48251 0
M  V30 1645 H 152.916 -1.84387 6.72791 0
M  V30 1646 H 148.813 -2.71725 5.85522 0
M  V30 1647 H 149.581 -2.23439 7.87412 0
M  V30 1648 N 152.244 -1.26651 -0.937939 0
M  V30 1649 C 153.492 -1.12165 -1.68118 0
M  V30 1650 C 153.813 0.334983 -1.92101 0
M  V30 1651 O 153.083 1.23583 -1.52 0
M  V30 1652 H 151.663 -0.412093 -0.623048 0
M  V30 1653 H 154.325 -1.59027 -1.12678 0
M  V30 1654 H 153.421 -1.64289 -2.6536 0
M  V30 1655 N 153.722 1.14298 -1.08507 0
M  V30 1656 C 154.652 2.21542 -0.737646 0
M  V30 1657 C 155.633 1.67773 0.280377 0
M  V30 1658 O 156.818 1.93616 0.150521 0
M  V30 1659 C 153.948 3.46988 -0.147259 0
M  V30 1660 C 152.902 4.13789 -1.09374 0
M  V30 1661 C 152.228 5.33449 -0.365524 0
M  V30 1662 C 153.528 4.62208 -2.4323 0
M  V30 1663 H 155.222 2.5086 -1.6343 0
M  V30 1664 H 152.768 1.20576 -0.787243 0
M  V30 1665 H 154.721 4.21262 0.107808 0
M  V30 1666 H 153.445 3.17037 0.784538 0
M  V30 1667 H 152.104 3.4147 -1.33393 0
M  V30 1668 H 151.752 4.99759 0.57011 0
M  V30 1669 H 151.452 5.79088 -0.996512 0
M  V30 1670 H 152.976 6.10485 -0.118534 0
M  V30 1671 H 154.39 5.27952 -2.23472 0
M  V30 1672 H 152.787 5.18553 -3.02031 0
M  V30 1673 H 153.857 3.77224 -3.04681 0
M  V30 1674 N 155.201 0.870884 1.31352 0
M  V30 1675 C 156.426 0.495957 2.01383 0
M  V30 1676 C 156.851 -0.904324 1.64935 0
M  V30 1677 O 156.209 -1.59687 0.858466 0
M  V30 1678 C 156.257 0.661433 3.54482 0
M  V30 1679 O 155.361 -0.298851 4.11316 0
M  V30 1680 H 154.702 0.197158 0.634054 0
M  V30 1681 H 157.232 1.17455 1.67527 0
M  V30 1682 H 157.242 0.555072 4.04207 0
M  V30 1683 H 155.917 1.68246 3.8035 0
M  V30 1684 H 154.494 -0.147368 3.72609 0
M  V30 1685 N 156.679 -1.44442 0.630414 0
M  V30 1686 C 158.09 -1.85434 0.217063 0
M  V30 1687 C 158.441 -1.52748 -1.23136 0
M  V30 1688 O 157.566 -0.965205 -1.93682 0
M  V30 1689 C 158.161 -3.36581 0.387168 0
M  V30 1690 C 156.72 -3.76389 0.0283297 0
M  V30 1691 C 155.867 -2.68296 0.700889 0
M  V30 1692 H 158.818 -1.34919 0.83562 0
M  V30 1693 H 158.839 -3.78657 -0.374086 0
M  V30 1694 H 158.351 -3.60339 1.44144 0
M  V30 1695 H 156.452 -3.58246 -1.02423 0
M  V30 1696 H 156.565 -4.77095 0.437892 0
M  V30 1697 H 154.929 -2.54335 0.136267 0
M  V30 1698 H 155.712 -2.94887 1.75774 0
M  V30 1699 N 158.157 -0.370918 -1.53173 0
M  V30 1700 C 159.434 0.273754 -1.93675 0
M  V30 1701 C 159.814 1.65938 -1.3049 0
M  V30 1702 O 159.162 2.23698 -0.465999 0
M  V30 1703 C 159.372 0.318602 -3.47543 0
M  V30 1704 C 160.72 0.556392 -4.20939 0
M  V30 1705 O 161.744 0.399587 -3.53952 0
M  V30 1706 O 160.603 0.862133 -5.39657 0
M  V30 1707 H 157.697 0.165448 -0.810281 0
M  V30 1708 H 160.243 -0.42409 -1.64315 0
M  V30 1709 H 159.015 -0.652687 -3.85818 0
M  V30 1710 H 158.638 1.06212 -3.83151 0
M  V30 1711 N 159.635 1.57281 -0.100228 0
M  V30 1712 C 161.051 1.57527 0.256416 0
M  V30 1713 C 161.251 1.11173 1.68056 0
M  V30 1714 O 160.307 0.79053 2.39806 0
M  V30 1715 C 161.62 3.00673 0.0401747 0
M  V30 1716 C 163.168 3.12815 0.107528 0
M  V30 1717 C 163.643 4.57929 -0.0807834 0
M  V30 1718 N 165.134 4.63193 -0.0261207 0
M  V30 1719 C 165.869 5.73212 -0.146999 0
M  V30 1720 N 165.365 6.92047 -0.322999 0
M  V30 1721 N 167.158 5.62031 -0.0879044 0
M  V30 1722 H 159.309 1.85718 -1.03065 0
M  V30 1723 H 161.572 0.857446 -0.404339 0
M  V30 1724 H 161.278 3.38804 -0.943649 0
M  V30 1725 H 161.152 3.69042 0.780262 0
M  V30 1726 H 163.539 2.74554 1.08186 0
M  V30 1727 H 163.62 2.47028 -0.664134 0
M  V30 1728 H 163.264 4.96886 -1.05201 0
M  V30 1729 H 163.194 5.21783 0.710635 0
M  V30 1730 H 165.685 3.77748 0.107161 0
M  V30 1731 H 165.998 7.7173 -0.406608 0
M  V30 1732 H 164.343 6.94074 -0.358733 0
M  V30 1733 H 167.534 4.68075 0.048498 0
M  V30 1734 H 167.707 6.47734 -0.185557 0
M  V30 1735 N 161.113 -0.173488 1.56642 0
M  V30 1736 C 162.045 -1.23935 1.92802 0
M  V30 1737 C 163.058 -1.40589 0.820889 0
M  V30 1738 O 164.247 -1.40631 1.09933 0
M  V30 1739 C 161.347 -2.60837 2.16373 0
M  V30 1740 C 160.52 -2.6551 3.47596 0
M  V30 1741 C 159.579 -3.8376 3.60021 0
M  V30 1742 O 158.605 -3.69859 4.32658 0
M  V30 1743 N 159.807 -5.00127 2.94709 0
M  V30 1744 H 162.572 -0.932236 2.84832 0
M  V30 1745 H 160.133 -0.363268 1.57772 0
M  V30 1746 H 162.125 -3.38407 2.21952 0
M  V30 1747 H 160.695 -2.83948 1.30738 0
M  V30 1748 H 159.915 -1.74052 3.53694 0
M  V30 1749 H 161.203 -2.65641 4.33949 0
M  V30 1750 H 160.601 -5.14322 2.35563 0
M  V30 1751 H 159.158 -5.75567 3.05886 0
M  V30 1752 N 162.591 -1.51276 -0.441967 0
M  V30 1753 C 163.838 -1.63715 -1.19179 0
M  V30 1754 C 164.166 -0.351175 -1.91303 0
M  V30 1755 O 163.421 0.664524 -1.84072 0
M  V30 1756 C 163.72 -2.78746 -2.23686 0
M  V30 1757 C 163.386 -4.18189 -1.68607 0
M  V30 1758 C 162.048 -4.56125 -1.53308 0
M  V30 1759 C 164.4 -5.05222 -1.28062 0
M  V30 1760 C 161.728 -5.78804 -0.959317 0
M  V30 1761 C 164.08 -6.28476 -0.721162 0
M  V30 1762 C 162.744 -6.65188 -0.55504 0
M  V30 1763 H 162.014 -0.599076 -0.436106 0
M  V30 1764 H 164.661 -1.85296 -0.48351 0
M  V30 1765 H 162.966 -2.51369 -3.00535 0
M  V30 1766 H 164.663 -2.8557 -2.81515 0
M  V30 1767 H 161.253 -3.88277 -1.8149 0
M  V30 1768 H 165.437 -4.76524 -1.38704 0
M  V30 1769 H 160.693 -6.05899 -0.81833 0
M  V30 1770 H 164.867 -6.95259 -0.398458 0
M  V30 1771 H 162.494 -7.60123 -0.108311 0
M  V30 1772 N 164.069 0.697108 -1.41344 0
M  V30 1773 C 165.315 1.4593 -1.40827 0
M  V30 1774 C 165.648 1.94193 -0.0167098 0
M  V30 1775 O 164.923 1.69425 0.955263 0
M  V30 1776 C 165.206 2.67229 -2.41373 0
M  V30 1777 C 165.059 2.24741 -3.8963 0
M  V30 1778 C 166.378 3.69423 -2.39196 0
M  V30 1779 H 163.497 0.529303 -0.512842 0
M  V30 1780 H 166.139 0.794112 -1.72609 0
M  V30 1781 H 164.289 3.23982 -2.14401 0
M  V30 1782 H 165.961 1.73327 -4.27499 0
M  V30 1783 H 164.204 1.56542 -4.0457 0
M  V30 1784 H 164.875 3.1177 -4.55525 0
M  V30 1785 H 167.351 3.2234 -2.63128 0
M  V30 1786 H 166.227 4.51907 -3.11563 0
M  V30 1787 H 166.488 4.19012 -1.41001 0
M  V30 1788 N 165.547 1.27147 0.931209 0
M  V30 1789 C 166.777 1.15914 1.71019 0
M  V30 1790 C 167.185 -0.287112 1.87009 0
M  V30 1791 O 166.528 -1.20761 1.38429 0
M  V30 1792 C 166.59 1.76647 3.13107 0
M  V30 1793 C 166.254 3.25807 3.20467 0
M  V30 1794 C 167.251 4.22489 3.02983 0
M  V30 1795 C 164.936 3.66452 3.43538 0
M  V30 1796 C 166.93 5.57794 3.08454 0
M  V30 1797 C 164.617 5.01888 3.48643 0
M  V30 1798 C 165.615 5.97369 3.31119 0
M  V30 1799 O 165.303 7.30337 3.35952 0
M  V30 1800 H 165.035 0.404062 0.54195 0
M  V30 1801 H 167.589 1.68457 1.17521 0
M  V30 1802 H 165.819 1.18578 3.68071 0
M  V30 1803 H 167.508 1.60179 3.72958 0
M  V30 1804 H 168.274 3.92425 2.85004 0
M  V30 1805 H 164.153 2.92611 3.5623 0
M  V30 1806 H 167.697 6.32298 2.94694 0
M  V30 1807 H 163.594 5.31609 3.66145 0
M  V30 1808 H 164.362 7.38739 3.5243 0
M  V30 1809 N 167.025 -1.13721 1.09112 0
M  V30 1810 C 167.955 -2.21148 0.749385 0
M  V30 1811 C 168.936 -1.6792 -0.271475 0
M  V30 1812 O 170.121 -1.93693 -0.140251 0
M  V30 1813 C 167.251 -3.46905 0.165659 0
M  V30 1814 C 166.205 -4.13203 1.11567 0
M  V30 1815 C 165.531 -5.33248 0.393809 0
M  V30 1816 C 166.831 -4.60912 2.45678 0
M  V30 1817 H 168.525 -2.4999 1.64758 0
M  V30 1818 H 166.071 -1.20156 0.793626 0
M  V30 1819 H 168.024 -4.21313 -0.085466 0
M  V30 1820 H 166.748 -3.17449 -0.767714 0
M  V30 1821 H 165.407 -3.40758 1.35202 0
M  V30 1822 H 165.055 -5.00054 -0.543599 0
M  V30 1823 H 164.755 -5.78552 1.02721 0
M  V30 1824 H 166.279 -6.10413 0.150908 0
M  V30 1825 H 167.693 -5.26759 2.26269 0
M  V30 1826 H 166.09 -5.16944 3.04776 0
M  V30 1827 H 167.16 -3.75603 3.06677 0
M  V30 1828 N 168.503 -0.877838 -1.30888 0
M  V30 1829 C 169.413 -0.343096 -2.32078 0
M  V30 1830 C 170.429 0.551022 -1.65045 0
M  V30 1831 O 171.605 0.445854 -1.96403 0
M  V30 1832 C 168.67 0.439905 -3.43898 0
M  V30 1833 C 167.731 -0.483111 -4.26573 0
M  V30 1834 C 166.964 0.262616 -5.33053 0
M  V30 1835 O 167.187 1.48967 -5.50604 0
M  V30 1836 O 166.121 -0.383593 -6.00676 0
M  V30 1837 H 169.947 -1.18203 -2.79753 0
M  V30 1838 H 167.532 -0.64145 -1.34929 0
M  V30 1839 H 169.414 0.883504 -4.12034 0
M  V30 1840 H 168.089 1.25526 -2.98371 0
M  V30 1841 H 166.996 -0.975374 -3.61161 0
M  V30 1842 H 168.329 -1.26427 -4.75686 0
M  V30 1843 N 169.982 1.44106 -0.638065 0
M  V30 1844 C 171.207 2.0685 -0.150916 0
M  V30 1845 C 171.632 1.47417 1.16833 0
M  V30 1846 O 170.99 0.578264 1.71831 0
M  V30 1847 C 171.038 3.60555 -0.05708 0
M  V30 1848 O 170.142 4.00465 0.984972 0
M  V30 1849 H 169.483 0.658151 -0.0879399 0
M  V30 1850 H 172.013 1.84865 -0.876707 0
M  V30 1851 H 172.023 4.07789 0.131232 0
M  V30 1852 H 170.698 4.03193 -1.02021 0
M  V30 1853 H 169.275 3.64849 0.770672 0
M  V30 1854 N 171.46 0.379036 1.52974 0
M  V30 1855 C 172.737 -0.263479 1.93817 0
M  V30 1856 C 173.117 -1.65244 1.31368 0
M  V30 1857 O 172.465 -2.23448 0.477856 0
M  V30 1858 C 172.675 -0.300166 3.47707 0
M  V30 1859 C 174.023 -0.534061 4.21228 0
M  V30 1860 O 175.047 -0.38081 3.54159 0
M  V30 1861 O 173.906 -0.833501 5.40106 0
M  V30 1862 H 171 -0.161149 0.811147 0
M  V30 1863 H 173.546 0.432798 1.64088 0
M  V30 1864 H 172.318 0.673138 3.85467 0
M  V30 1865 H 171.941 -1.04179 3.83709 0
M  V30 1866 N 172.938 -1.57226 0.108567 0
M  V30 1867 C 174.168 -1.9889 -0.559142 0
M  V30 1868 C 174.576 -0.986889 -1.61422 0
M  V30 1869 O 173.919 0.0298705 -1.83676 0
M  V30 1870 C 173.981 -3.36952 -1.25315 0
M  V30 1871 C 173.645 -4.55679 -0.347248 0
M  V30 1872 C 174.642 -5.18281 0.409996 0
M  V30 1873 C 172.327 -5.0162 -0.261367 0
M  V30 1874 C 174.321 -6.25203 1.24096 0
M  V30 1875 C 172.008 -6.08405 0.573238 0
M  V30 1876 C 173.006 -6.70063 1.32304 0
M  V30 1877 O 172.694 -7.74788 2.14381 0
M  V30 1878 H 172.426 -0.658343 -0.153492 0
M  V30 1879 H 174.98 -2.04532 0.188584 0
M  V30 1880 H 173.21 -3.28032 -2.04773 0
M  V30 1881 H 174.899 -3.62974 -1.81673 0
M  V30 1882 H 175.665 -4.8371 0.353457 0
M  V30 1883 H 171.544 -4.53381 -0.834656 0
M  V30 1884 H 175.088 -6.73259 1.82669 0
M  V30 1885 H 170.985 -6.42406 0.631208 0
M  V30 1886 H 171.753 -7.91837 2.07209 0
M  V30 1887 N 174.416 0.165178 -1.56732 0
M  V30 1888 C 175.641 0.900253 -1.86843 0
M  V30 1889 C 176.066 1.74766 -0.695596 0
M  V30 1890 O 175.424 1.77786 0.35522 0
M  V30 1891 C 175.472 1.74777 -3.15413 0
M  V30 1892 O 174.576 2.85007 -2.98068 0
M  V30 1893 H 173.917 0.251832 -0.614391 0
M  V30 1894 H 176.447 0.161468 -2.03962 0
M  V30 1895 H 176.457 2.14646 -3.46974 0
M  V30 1896 H 175.132 1.12537 -4.00385 0
M  V30 1897 H 173.709 2.48676 -2.77875 0
M  V30 1898 N 175.894 1.51508 0.433938 0
M  V30 1899 C 176.841 1.73068 1.52696 0
M  V30 1900 C 177.811 0.572441 1.55924 0
M  V30 1901 O 178.996 0.807253 1.72882 0
M  V30 1902 C 176.136 1.86474 2.90381 0
M  V30 1903 C 175.249 3.14037 2.96656 0
M  V30 1904 C 174.384 3.18019 4.25485 0
M  V30 1905 C 173.423 4.39882 4.2564 0
M  V30 1906 N 172.56 4.41394 5.45999 0
M  V30 1907 H 177.4 2.66366 1.33615 0
M  V30 1908 H 174.937 1.32008 0.649018 0
M  V30 1909 H 176.895 1.92229 3.70275 0
M  V30 1910 H 175.525 0.965809 3.08013 0
M  V30 1911 H 174.577 3.17575 2.09404 0
M  V30 1912 H 175.889 4.0394 2.92633 0
M  V30 1913 H 175.043 3.22708 5.13755 0
M  V30 1914 H 173.782 2.2601 4.3217 0
M  V30 1915 H 172.787 4.35366 3.35763 0
M  V30 1916 H 174.012 5.33159 4.20617 0
M  V30 1917 H 171.958 3.52258 5.53399 0
M  V30 1918 H 171.875 5.25111 5.4387 0
M  V30 1919 H 173.143 4.50281 6.36292 0
M  V30 1920 N 177.372 -0.689602 1.41712 0
M  V30 1921 C 178.302 -1.81577 1.46806 0
M  V30 1922 C 179.283 -1.66945 0.326105 0
M  V30 1923 O 180.468 -1.86588 0.538377 0
M  V30 1924 C 177.598 -3.19762 1.35535 0
M  V30 1925 C 176.552 -3.49107 2.47605 0
M  V30 1926 C 175.878 -4.86711 2.21397 0
M  V30 1927 C 177.178 -3.47483 3.89939 0
M  V30 1928 H 178.872 -1.7757 2.41058 0
M  V30 1929 H 176.418 -0.852887 1.16025 0
M  V30 1930 H 178.371 -3.98263 1.3771 0
M  V30 1931 H 177.095 -3.24409 0.377708 0
M  V30 1932 H 175.754 -2.72959 2.44722 0
M  V30 1933 H 175.402 -4.8799 1.21961 0
M  V30 1934 H 175.102 -5.0731 2.96497 0
M  V30 1935 H 176.626 -5.67515 2.25297 0
M  V30 1936 H 178.04 -4.1598 3.94505 0
M  V30 1937 H 176.437 -3.79615 4.64771 0
M  V30 1938 H 177.507 -2.46341 4.17665 0
M  V30 1939 N 178.85 -1.27639 -0.924453 0
M  V30 1940 C 180.096 -1.15345 -1.67532 0
M  V30 1941 C 180.451 0.297096 -1.90092 0
M  V30 1942 O 179.744 1.21374 -1.48253 0
M  V30 1943 C 179.938 -1.87407 -3.04325 0
M  V30 1944 C 179.767 -3.3932 -2.95114 0
M  V30 1945 C 178.537 -4.08644 -2.97218 0
M  V30 1946 C 180.735 -4.35242 -2.73987 0
M  V30 1947 N 178.717 -5.47102 -2.78482 0
M  V30 1948 C 180.088 -5.6099 -2.63988 0
M  V30 1949 C 182.143 -4.25294 -2.589 0
M  V30 1950 C 180.846 -6.77924 -2.40442 0
M  V30 1951 C 182.872 -5.41952 -2.36731 0
M  V30 1952 C 182.234 -6.66658 -2.27478 0
M  V30 1953 H 178.333 -0.47696 -0.619704 0
M  V30 1954 H 180.917 -1.6115 -1.09265 0
M  V30 1955 H 179.088 -1.44053 -3.60699 0
M  V30 1956 H 180.82 -1.6759 -3.68369 0
M  V30 1957 H 177.575 -3.60136 -3.07569 0
M  V30 1958 H 177.999 -6.19852 -2.72236 0
M  V30 1959 H 182.641 -3.29598 -2.64811 0
M  V30 1960 H 180.359 -7.73699 -2.3327 0
M  V30 1961 H 183.945 -5.36137 -2.25938 0
M  V30 1962 H 182.825 -7.55405 -2.10555 0
M  V30 1963 N 180.328 1.1314 -1.09713 0
M  V30 1964 C 181.744 1.36477 -0.827423 0
M  V30 1965 C 181.944 1.93654 0.556817 0
M  V30 1966 O 181 2.15791 1.31112 0
M  V30 1967 C 182.313 2.31334 -1.92106 0
M  V30 1968 C 183.861 2.44943 -1.94864 0
M  V30 1969 C 184.336 3.4311 -3.0338 0
M  V30 1970 N 185.827 3.50662 -3.02639 0
M  V30 1971 C 186.562 4.2651 -3.83246 0
M  V30 1972 N 186.058 5.05485 -4.73768 0
M  V30 1973 N 187.851 4.2184 -3.71493 0
M  V30 1974 H 180.002 0.743807 -1.9895 0
M  V30 1975 H 182.265 0.389823 -0.864143 0
M  V30 1976 H 181.971 1.96483 -2.91698 0
M  V30 1977 H 181.845 3.31381 -1.80184 0
M  V30 1978 H 184.232 2.79079 -0.959099 0
M  V30 1979 H 184.313 1.4481 -2.10864 0
M  V30 1980 H 183.957 3.09704 -4.02549 0
M  V30 1981 H 183.887 4.43055 -2.84622 0
M  V30 1982 H 186.378 2.94315 -2.37039 0
M  V30 1983 H 186.691 5.60675 -5.3185 0
M  V30 1984 H 185.036 5.04708 -4.77802 0
M  V30 1985 H 188.227 3.5922 -3.00131 0
M  V30 1986 H 188.4 4.80697 -4.3455 0
M  V30 1987 N 181.806 0.884767 1.30421 0
M  V30 1988 C 183.036 0.517293 2.00019 0
M  V30 1989 C 183.444 -0.898632 1.66497 0
M  V30 1990 O 182.787 -1.60245 0.898181 0
M  V30 1991 C 182.849 0.612025 3.54252 0
M  V30 1992 C 182.513 1.99222 4.1129 0
M  V30 1993 C 183.51 2.9616 4.273 0
M  V30 1994 C 181.195 2.29755 4.46674 0
M  V30 1995 C 183.189 4.21764 4.77906 0
M  V30 1996 C 180.876 3.55606 4.96979 0
M  V30 1997 C 181.874 4.51425 5.12547 0
M  V30 1998 O 181.562 5.75043 5.61766 0
M  V30 1999 H 181.294 0.198529 0.64619 0
M  V30 2000 H 183.848 1.1919 1.67281 0
M  V30 2001 H 182.078 -0.119561 3.86515 0
M  V30 2002 H 183.767 0.255859 4.05093 0
M  V30 2003 H 184.533 2.73882 4.00267 0
M  V30 2004 H 180.412 1.55942 4.33824 0
M  V30 2005 H 183.956 4.96561 4.89972 0
M  V30 2006 H 179.853 3.7772 5.23448 0
M  V30 2007 H 180.621 5.77422 5.80109 0
M  V30 2008 N 183.284 -1.43765 0.645699 0
M  V30 2009 C 184.509 -2.06767 0.161883 0
M  V30 2010 C 184.934 -1.48034 -1.16049 0
M  V30 2011 O 184.292 -0.587369 -1.71522 0
M  V30 2012 C 184.34 -3.60519 0.0762003 0
M  V30 2013 O 183.444 -4.00982 -0.963721 0
M  V30 2014 H 182.785 -0.657675 0.091429 0
M  V30 2015 H 185.315 -1.84397 0.886499 0
M  V30 2016 H 185.325 -4.07853 -0.109604 0
M  V30 2017 H 184 -4.02646 1.04157 0
M  V30 2018 H 182.577 -3.65253 -0.751312 0
M  V30 2019 N 184.763 -0.387143 -1.52771 0
M  V30 2020 C 185.993 0.195585 -2.05672 0
M  V30 2021 C 186.401 1.41241 -1.25887 0
M  V30 2022 O 185.744 1.81265 -0.298081 0
M  V30 2023 C 185.806 0.632327 -3.53895 0
M  V30 2024 C 185.47 -0.470739 -4.54569 0
M  V30 2025 C 186.467 -1.32746 -5.02667 0
M  V30 2026 C 184.152 -0.637151 -4.98243 0
M  V30 2027 C 186.146 -2.33574 -5.93061 0
M  V30 2028 C 183.833 -1.64877 -5.88438 0
M  V30 2029 C 184.831 -2.49649 -6.35739 0
M  V30 2030 O 184.519 -3.49082 -7.24153 0
M  V30 2031 H 184.251 0.033658 -0.675162 0
M  V30 2032 H 186.805 -0.550221 -1.97893 0
M  V30 2033 H 185.035 1.43008 -3.59285 0
M  V30 2034 H 186.724 1.14048 -3.89548 0
M  V30 2035 H 187.49 -1.21019 -4.69659 0
M  V30 2036 H 183.369 0.0129567 -4.60998 0
M  V30 2037 H 186.913 -2.99777 -6.29904 0
M  V30 2038 H 182.81 -1.76643 -6.2086 0
M  V30 2039 H 183.578 -3.45065 -7.42208 0
M  V30 2040 N 186.241 1.57166 -0.116904 0
M  V30 2041 C 187.469 1.99473 0.549383 0
M  V30 2042 C 187.884 0.996541 1.60357 0
M  V30 2043 O 187.241 -0.0108731 1.82497 0
M  V30 2044 C 187.292 3.41788 1.17741 0
M  V30 2045 O 187.013 4.37788 0.165362 0
M  V30 2046 C 188.514 3.99216 1.92722 0
M  V30 2047 H 185.734 0.655009 0.145616 0
M  V30 2048 H 188.278 2.03494 -0.202625 0
M  V30 2049 H 186.433 3.38713 1.88021 0
M  V30 2050 H 186.847 5.20806 0.621403 0
M  V30 2051 H 188.321 5.00882 2.31995 0
M  V30 2052 H 188.798 3.3824 2.80161 0
M  V30 2053 H 189.404 4.0583 1.27209 0
M  V30 2054 N 187.719 -0.156864 1.56817 0
M  V30 2055 C 188.682 -1.17781 1.96622 0
M  V30 2056 C 189.682 -1.36401 0.851555 0
M  V30 2057 O 190.872 -1.33561 1.11836 0
M  V30 2058 C 188.004 -2.54008 2.27361 0
M  V30 2059 H 189.197 -0.836564 2.87996 0
M  V30 2060 H 186.75 -0.39985 1.51099 0
M  V30 2061 H 187.485 -2.9312 1.38748 0
M  V30 2062 H 187.27 -2.41856 3.08623 0
M  V30 2063 H 188.76 -3.27558 2.59029 0
M  V30 2064 N 189.197 -1.51736 -0.425897 0
M  V30 2065 C 190.425 -1.68794 -1.1965 0
M  V30 2066 C 190.84 -0.390164 -1.84725 0
M  V30 2067 O 190.197 0.632376 -1.71194 0
M  V30 2068 C 190.248 -2.81174 -2.27208 0
M  V30 2069 O 189.969 -4.05925 -1.64793 0
M  V30 2070 C 191.47 -3.09599 -3.17275 0
M  V30 2071 H 188.69 -0.566128 -0.360194 0
M  V30 2072 H 191.234 -1.98211 -0.503249 0
M  V30 2073 H 189.389 -2.54324 -2.9223 0
M  V30 2074 H 189.803 -4.68423 -2.35967 0
M  V30 2075 H 191.277 -3.91786 -3.88854 0
M  V30 2076 H 191.754 -2.22468 -3.78688 0
M  V30 2077 H 192.36 -3.38151 -2.57941 0
M  V30 2078 N 190.675 0.682077 -1.42076 0
M  V30 2079 C 191.905 1.46844 -1.45329 0
M  V30 2080 C 192.313 1.89102 -0.0609328 0
M  V30 2081 O 191.656 1.58238 0.933082 0
M  V30 2082 C 191.718 2.75375 -2.31104 0
M  V30 2083 C 191.382 2.55238 -3.79081 0
M  V30 2084 C 192.379 2.20309 -4.70914 0
M  V30 2085 C 190.064 2.70459 -4.2327 0
M  V30 2086 C 192.058 2.00859 -6.04925 0
M  V30 2087 C 189.745 2.50624 -5.57343 0
M  V30 2088 C 190.743 2.15876 -6.47986 0
M  V30 2089 O 190.431 1.96227 -7.79583 0
M  V30 2090 H 190.163 0.4586 -0.496651 0
M  V30 2091 H 192.717 0.846131 -1.87162 0
M  V30 2092 H 190.947 3.40061 -1.84107 0
M  V30 2093 H 192.636 3.37231 -2.25898 0
M  V30 2094 H 193.402 2.08153 -4.38061 0
M  V30 2095 H 189.281 2.96485 -3.53012 0
M  V30 2096 H 192.825 1.7366 -6.75639 0
M  V30 2097 H 188.722 2.62375 -5.89771 0
M  V30 2098 H 189.49 2.10883 -7.90867 0
M  V30 2099 N 192.153 1.28127 0.917671 0
M  V30 2100 C 193.383 1.17722 1.6978 0
M  V30 2101 C 193.791 -0.267261 1.87303 0
M  V30 2102 O 193.134 -1.19286 1.39702 0
M  V30 2103 C 193.196 1.79958 3.11216 0
M  V30 2104 C 192.86 3.29187 3.16993 0
M  V30 2105 C 193.857 4.25679 2.98485 0
M  V30 2106 C 191.542 3.70075 3.39632 0
M  V30 2107 C 193.536 5.61035 3.02521 0
M  V30 2108 C 191.223 5.05557 3.433 0
M  V30 2109 C 192.221 6.00847 3.24764 0
M  V30 2110 O 191.909 7.33859 3.28187 0
M  V30 2111 H 191.641 0.409788 0.537634 0
M  V30 2112 H 194.195 1.69694 1.15728 0
M  V30 2113 H 192.425 1.22475 3.66793 0
M  V30 2114 H 194.114 1.64125 3.71238 0
M  V30 2115 H 194.88 3.95426 2.80826 0
M  V30 2116 H 190.759 2.96373 3.53106 0
M  V30 2117 H 194.303 6.35388 2.87971 0
M  V30 2118 H 190.2 5.35462 3.60486 0
M  V30 2119 H 190.968 7.42436 3.44575 0
M  V30 2120 N 193.631 -1.12557 1.10312 0
M  V30 2121 C 194.88 -1.83395 0.839588 0
M  V30 2122 C 195.193 -1.84939 -0.636929 0
M  V30 2123 O 196.399 -2.51761 -1.01631 0
M  V30 2124 C 194.855 -3.29303 1.45215 0
M  V30 2125 C 194.463 -3.36122 2.96186 0
M  V30 2126 C 196.207 -4.05121 1.26796 0
M  V30 2127 C 194.114 -4.76357 3.50483 0
M  V30 2128 H 193.044 -0.687133 0.310425 0
M  V30 2129 H 195.695 -1.26746 1.32694 0
M  V30 2130 H 194.077 -3.85812 0.892469 0
M  V30 2131 H 195.251 -2.89559 3.58458 0
M  V30 2132 H 193.566 -2.73776 3.13745 0
M  V30 2133 H 196.163 -5.08668 1.64806 0
M  V30 2134 H 196.506 -4.15773 0.209409 0
M  V30 2135 H 197.039 -3.54967 1.79563 0
M  V30 2136 H 193.778 -4.70899 4.55998 0
M  V30 2137 H 193.298 -5.23377 2.92978 0
M  V30 2138 H 194.977 -5.45294 3.48228 0
M  V30 2139 N 195.109 -0.891671 -1.2995 0
M  V30 2140 C 196.339 -0.527893 -1.99742 0
M  V30 2141 C 196.747 0.88979 -1.66971 0
M  V30 2142 O 196.09 1.59766 -0.906667 0
M  V30 2143 C 196.152 -0.630804 -3.53922 0
M  V30 2144 C 195.816 -2.01401 -4.10228 0
M  V30 2145 C 196.813 -2.98422 -4.25724 0
M  V30 2146 C 194.498 -2.32121 -4.45449 0
M  V30 2147 C 196.492 -4.24293 -4.75662 0
M  V30 2148 C 194.179 -3.58237 -4.95086 0
M  V30 2149 C 195.177 -4.54137 -5.10146 0
M  V30 2150 O 194.865 -5.78014 -5.58708 0
M  V30 2151 H 194.597 -0.201953 -0.645129 0
M  V30 2152 H 197.151 -1.20076 -1.66646 0
M  V30 2153 H 195.381 0.0990616 -3.86573 0
M  V30 2154 H 197.07 -0.277338 -4.04951 0
M  V30 2155 H 197.836 -2.76001 -3.98809 0
M  V30 2156 H 193.715 -1.5824 -4.32991 0
M  V30 2157 H 197.259 -4.99153 -4.87332 0
M  V30 2158 H 193.156 -3.80491 -5.21437 0
M  V30 2159 H 193.924 -5.8049 -5.77039 0
M  V30 2160 N 196.587 1.43421 -0.653314 0
M  V30 2161 C 197.864 1.95361 -0.0966581 0
M  V30 2162 C 198.244 1.59461 1.38331 0
M  V30 2163 O 197.592 0.879777 2.10884 0
M  V30 2164 C 197.802 3.47311 -0.342988 0
M  V30 2165 C 199.15 4.23875 -0.24798 0
M  V30 2166 O 200.174 3.55133 -0.275553 0
M  V30 2167 O 199.033 5.4623 -0.171771 0
M  V30 2168 H 196.127 0.826945 0.00956291 0
M  V30 2169 H 198.673 1.5336 -0.726558 0
M  V30 2170 H 197.445 3.66569 -1.36906 0
M  V30 2171 H 197.068 3.9631 0.319975 0
M  V30 2172 N 198.065 0.39524 1.52563 0
M  V30 2173 C 198.995 -0.428384 2.29537 0
M  V30 2174 C 199.976 -1.05831 1.33169 0
M  V30 2175 O 201.161 -1.06995 1.62067 0
M  V30 2176 C 198.291 -1.55274 3.10656 0
M  V30 2177 C 197.245 -1.04855 4.14957 0
M  V30 2178 C 196.571 -2.26543 4.84337 0
M  V30 2179 C 197.871 -0.112324 5.22179 0
M  V30 2180 H 199.565 0.213867 2.98635 0
M  V30 2181 H 197.111 0.104298 1.43622 0
M  V30 2182 H 199.064 -2.1358 3.63265 0
M  V30 2183 H 197.788 -2.22266 2.39302 0
M  V30 2184 H 196.447 -0.487985 3.63338 0
M  V30 2185 H 196.095 -2.92059 4.09525 0
M  V30 2186 H 195.795 -1.93466 5.54837 0
M  V30 2187 H 197.319 -2.85481 5.39753 0
M  V30 2188 H 198.733 -0.603752 5.70112 0
M  V30 2189 H 197.13 0.128968 5.99961 0
M  V30 2190 H 198.2 0.837052 4.77621 0
M  V30 2191 N 199.544 -1.57102 0.125237 0
M  V30 2192 C 200.769 -2.0019 -0.542101 0
M  V30 2193 C 201.194 -1.00449 -1.59034 0
M  V30 2194 O 200.552 0.0229423 -1.81285 0
M  V30 2195 C 200.6 -3.42129 -1.13929 0
M  V30 2196 O 199.704 -3.45307 -2.2547 0
M  V30 2197 H 199.045 -0.650171 -0.134812 0
M  V30 2198 H 201.575 -2.03461 0.215553 0
M  V30 2199 H 201.585 -3.80471 -1.4733 0
M  V30 2200 H 200.26 -4.14237 -0.371531 0
M  V30 2201 H 198.837 -3.1879 -1.93462 0
M  V30 2202 N 201.022 0.148545 -1.56898 0
M  V30 2203 C 201.97 1.20265 -1.99096 0
M  V30 2204 C 202.964 1.44559 -0.883123 0
M  V30 2205 O 204.17 1.4487 -1.0683 0
M  V30 2206 H 200.545 0.404786 -0.63376 0
M  V30 2207 H 202.516 0.82004 -2.86911 0
M  V30 2208 C 201.265 2.52886 -2.3863 0
M  V30 2209 H 200.588 2.35021 -3.23427 0
M  V30 2210 H 202.028 3.25274 -2.7198 0
M  V30 2211 C 200.487 3.13315 -1.23837 0
M  V30 2212 O 201.017 3.98077 -0.538268 0
M  V30 2213 N 199.223 2.72742 -1.00301 0
M  V30 2214 H 198.77 2.03912 -1.5741 0
M  V30 2215 H 198.728 3.13507 -0.236838 0
M  V30 2216 N 202.5 1.5196 0.417844 0
M  V30 2217 C 203.748 1.65263 1.16329 0
M  V30 2218 C 204.069 0.380634 1.91249 0
M  V30 2219 O 203.339 -0.604214 1.86349 0
M  V30 2220 H 201.919 0.60912 0.432414 0
M  V30 2221 H 204.581 1.88969 0.477162 0
M  V30 2222 H 203.677 2.4896 1.88217 0
M  V30 2223 N 203.978 -0.674533 1.42435 0
M  V30 2224 C 204.888 -1.81751 1.48337 0
M  V30 2225 C 205.904 -1.69975 0.372099 0
M  V30 2226 O 207.08 -1.91521 0.62304 0
M  V30 2227 C 204.145 -3.17895 1.38361 0
M  V30 2228 C 203.206 -3.41625 2.59982 0
M  V30 2229 C 202.439 -4.71274 2.50473 0
M  V30 2230 O 202.662 -5.49197 1.54075 0
M  V30 2231 O 201.596 -4.96254 3.4061 0
M  V30 2232 H 205.422 -1.79728 2.44809 0
M  V30 2233 H 203.007 -0.830312 1.24202 0
M  V30 2234 H 204.889 -3.99136 1.35161 0
M  V30 2235 H 203.564 -3.20555 0.450144 0
M  V30 2236 H 202.471 -2.60231 2.68757 0
M  V30 2237 H 203.804 -3.43796 3.52229 0
M  V30 2238 N 205.456 -1.28612 -0.910864 0
M  V30 2239 C 206.703 -1.15934 -1.66029 0
M  V30 2240 C 207.031 0.291483 -1.92303 0
M  V30 2241 O 206.286 1.22816 -1.52364 0
M  V30 2242 C 206.585 -1.90624 -3.0232 0
M  V30 2243 C 206.251 -3.40405 -2.95695 0
M  V30 2244 C 204.913 -3.81255 -2.93595 0
M  V30 2245 C 207.265 -4.359 -2.85728 0
M  V30 2246 C 204.593 -5.15936 -2.79334 0
M  V30 2247 C 206.945 -5.70657 -2.73007 0
M  V30 2248 C 205.609 -6.10779 -2.69267 0
M  V30 2249 H 204.879 -0.424234 -0.607541 0
M  V30 2250 H 207.526 -1.5942 -1.06101 0
M  V30 2251 H 205.831 -1.39696 -3.6605 0
M  V30 2252 H 207.528 -1.78228 -3.59215 0
M  V30 2253 H 204.118 -3.07927 -2.98125 0
M  V30 2254 H 208.302 -4.053 -2.86436 0
M  V30 2255 H 203.558 -5.46146 -2.74835 0
M  V30 2256 H 207.732 -6.44311 -2.64264 0
M  V30 2257 H 205.359 -7.1509 -2.57974 0
M  V30 2258 N 206.934 1.1197 -1.10907 0
M  V30 2259 C 208.18 1.8386 -0.855773 0
M  V30 2260 C 208.513 1.84134 0.617103 0
M  V30 2261 O 207.788 1.29041 1.45529 0
M  V30 2262 C 208.071 3.31305 -1.411 0
M  V30 2263 C 207.924 3.39456 -2.9511 0
M  V30 2264 C 209.243 4.2721 -1.05736 0
M  V30 2265 H 206.362 0.667545 -0.312334 0
M  V30 2266 H 209.004 1.31331 -1.37303 0
M  V30 2267 H 207.154 3.76169 -0.97105 0
M  V30 2268 H 208.826 3.03191 -3.47668 0
M  V30 2269 H 207.069 2.79849 -3.31462 0
M  V30 2270 H 207.74 4.43209 -3.29044 0
M  V30 2271 H 210.216 3.90497 -1.43706 0
M  V30 2272 H 209.092 5.28775 -1.47269 0
M  V30 2273 H 209.353 4.42088 0.0325958 0
M  V30 2274 N 208.412 0.89855 1.29475 0
M  V30 2275 C 209.828 0.594483 1.48115 0
M  V30 2276 C 210.028 -0.86431 1.82022 0
M  V30 2277 O 209.084 -1.64457 1.91599 0
M  V30 2278 C 210.397 1.51932 2.59494 0
M  V30 2279 C 211.945 1.5244 2.7337 0
M  V30 2280 C 212.42 2.43548 3.87877 0
M  V30 2281 N 213.911 2.41589 3.95208 0
M  V30 2282 C 214.646 3.08789 4.83153 0
M  V30 2283 N 214.142 3.85265 5.75798 0
M  V30 2284 N 215.935 2.97952 4.76635 0
M  V30 2285 H 208.086 1.84207 1.05742 0
M  V30 2286 H 210.349 0.789251 0.525154 0
M  V30 2287 H 210.055 2.55865 2.41301 0
M  V30 2288 H 209.929 1.23899 3.56271 0
M  V30 2289 H 212.316 0.492518 2.90961 0
M  V30 2290 H 212.397 1.8451 1.77172 0
M  V30 2291 H 212.041 3.46829 3.71041 0
M  V30 2292 H 211.971 2.08788 4.83441 0
M  V30 2293 H 214.462 1.86025 3.28943 0
M  V30 2294 H 214.775 4.33598 6.39697 0
M  V30 2295 H 213.12 3.89371 5.75687 0
M  V30 2296 H 216.311 2.37723 4.03244 0
M  V30 2297 H 216.484 3.50599 5.44962 0
M  V30 2298 N 209.89 -1.43072 0.660911 0
M  V30 2299 C 211.138 -2.01323 0.177094 0
M  V30 2300 C 211.459 -1.5245 -1.2159 0
M  V30 2301 O 210.729 -0.740322 -1.81373 0
M  V30 2302 H 209.309 -0.744382 0.0624804 0
M  V30 2303 H 211.971 -1.75179 0.854305 0
M  V30 2304 H 211.067 -3.11649 0.167641 0
M  V30 2305 N 211.368 -0.403325 -1.52352 0
M  V30 2306 C 212.316 0.439752 -2.28405 0
M  V30 2307 C 213.31 1.05089 -1.32863 0
M  V30 2308 O 214.516 0.989759 -1.50345 0
M  V30 2309 H 210.891 0.160587 -0.734653 0
M  V30 2310 H 212.862 -0.222983 -2.97566 0
M  V30 2311 C 211.611 1.54736 -3.11371 0
M  V30 2312 H 210.934 1.08643 -3.84755 0
M  V30 2313 H 212.374 2.1112 -3.67701 0
M  V30 2314 C 210.833 2.51141 -2.24566 0
M  V30 2315 O 211.363 3.54887 -1.88196 0
M  V30 2316 N 209.569 2.21213 -1.8845 0
M  V30 2317 H 209.116 1.36878 -2.18225 0
M  V30 2318 H 209.074 2.85963 -1.30662 0
M  V30 2319 N 212.846 1.57033 -0.133567 0
M  V30 2320 C 213.756 2.19632 0.824564 0
M  V30 2321 C 214.772 1.17666 1.28182 0
M  V30 2322 O 215.948 1.50193 1.3418 0
M  V30 2323 C 213.013 2.79499 2.05137 0
M  V30 2324 C 212.074 3.96548 1.64464 0
M  V30 2325 C 211.307 4.5355 2.81297 0
M  V30 2326 O 211.53 4.09438 3.97136 0
M  V30 2327 O 210.464 5.44018 2.57542 0
M  V30 2328 H 214.29 3.01991 0.321766 0
M  V30 2329 H 211.875 1.49112 0.0927889 0
M  V30 2330 H 213.757 3.17602 2.7696 0
M  V30 2331 H 212.432 2.00162 2.54395 0
M  V30 2332 H 211.339 3.63186 0.897048 0
M  V30 2333 H 212.672 4.77364 1.19934 0
M  V30 2334 N 214.325 -0.140222 1.56975 0
M  V30 2335 C 215.255 -1.17456 2.01808 0
M  V30 2336 C 216.236 -1.44415 0.898794 0
M  V30 2337 O 217.421 -1.5522 1.16707 0
M  V30 2338 C 214.551 -2.50607 2.40444 0
M  V30 2339 C 213.505 -2.38155 3.55621 0
M  V30 2340 C 212.831 -3.76078 3.80091 0
M  V30 2341 C 214.131 -1.85991 4.88062 0
M  V30 2342 H 215.825 -0.801743 2.88466 0
M  V30 2343 H 213.371 -0.38422 1.38779 0
M  V30 2344 H 215.324 -3.23197 2.7041 0
M  V30 2345 H 214.048 -2.89737 1.50732 0
M  V30 2346 H 212.707 -1.68016 3.25832 0
M  V30 2347 H 212.355 -4.12656 2.87618 0
M  V30 2348 H 212.055 -3.68606 4.57606 0
M  V30 2349 H 213.579 -4.50206 4.12488 0
M  V30 2350 H 214.993 -2.4838 5.16701 0
M  V30 2351 H 213.39 -1.89393 5.6943 0
M  V30 2352 H 214.46 -0.816023 4.77984 0
M  V30 2353 N 215.803 -1.52179 -0.40978 0
M  V30 2354 C 217.214 -1.58377 -0.988615 0
M  V30 2355 C 217.565 -0.423879 -1.91566 0
M  V30 2356 O 216.69 0.455844 -2.11544 0
M  V30 2357 C 217.285 -2.87044 -1.79976 0
M  V30 2358 C 215.844 -2.95722 -2.32863 0
M  V30 2359 C 214.991 -2.53309 -1.12828 0
M  V30 2360 H 217.942 -1.57558 -0.190039 0
M  V30 2361 H 217.963 -2.7236 -2.65707 0
M  V30 2362 H 217.475 -3.71444 -1.12478 0
M  V30 2363 H 215.576 -2.15814 -3.03735 0
M  V30 2364 H 215.689 -3.99951 -2.63773 0
M  V30 2365 H 214.053 -2.07142 -1.48204 0
M  V30 2366 H 214.836 -3.40082 -0.46897 0
M  V30 2367 N 217.281 0.66697 -1.42791 0
M  V30 2368 C 218.697 0.981027 -1.25889 0
M  V30 2369 C 218.897 2.00793 -0.168695 0
M  V30 2370 O 217.953 2.48321 0.45747 0
M  V30 2371 C 219.266 1.47838 -2.61848 0
M  V30 2372 C 220.814 1.59575 -2.69267 0
M  V30 2373 C 221.289 2.12704 -4.05612 0
M  V30 2374 N 222.78 2.20026 -4.07606 0
M  V30 2375 C 223.515 2.62227 -5.09926 0
M  V30 2376 N 223.011 3.03824 -6.22626 0
M  V30 2377 N 224.804 2.62045 -4.97281 0
M  V30 2378 H 216.955 -0.0127891 -2.12396 0
M  V30 2379 H 219.218 0.0568258 -0.946295 0
M  V30 2380 H 218.924 0.798299 -3.4252 0
M  V30 2381 H 218.798 2.45579 -2.86305 0
M  V30 2382 H 221.185 2.26687 -1.88936 0
M  V30 2383 H 221.266 0.60302 -2.48591 0
M  V30 2384 H 220.91 1.46198 -4.86404 0
M  V30 2385 H 220.84 3.12782 -4.23645 0
M  V30 2386 H 223.331 1.90708 -3.2625 0
M  V30 2387 H 223.644 3.34734 -6.96544 0
M  V30 2388 H 221.989 3.01662 -6.26119 0
M  V30 2389 H 225.18 2.28916 -4.08308 0
M  V30 2390 H 225.353 2.94613 -5.77154 0
M  V30 2391 N 218.759 1.29093 0.90403 0
M  V30 2392 C 220.17 1.15186 1.46932 0
M  V30 2393 C 220.521 -0.254587 1.94541 0
M  V30 2394 O 219.646 -1.14972 1.83332 0
M  V30 2395 C 220.241 2.08492 2.67051 0
M  V30 2396 C 218.8 1.98621 3.19729 0
M  V30 2397 C 217.947 1.9967 1.92425 0
M  V30 2398 H 220.898 1.41641 0.715789 0
M  V30 2399 H 220.919 1.65461 3.42641 0
M  V30 2400 H 220.431 3.10847 2.3237 0
M  V30 2401 H 218.532 0.993389 3.59114 0
M  V30 2402 H 218.645 2.86068 3.8432 0
M  V30 2403 H 217.009 1.44208 2.09943 0
M  V30 2404 H 217.792 3.03721 1.60026 0
M  V30 2405 N 220.237 -1.11381 1.11499 0
M  V30 2406 C 221.486 -1.82494 0.858993 0
M  V30 2407 C 221.799 -1.85605 -0.617278 0
M  V30 2408 O 223.005 -2.52824 -0.989552 0
M  V30 2409 C 221.461 -3.27745 1.48699 0
M  V30 2410 C 221.069 -3.32961 2.99735 0
M  V30 2411 C 222.813 -4.03754 1.31085 0
M  V30 2412 C 220.72 -4.72612 3.55516 0
M  V30 2413 H 219.65 -0.683802 0.317696 0
M  V30 2414 H 222.301 -1.25331 1.34031 0
M  V30 2415 H 220.683 -3.84844 0.933339 0
M  V30 2416 H 221.857 -2.85741 3.61509 0
M  V30 2417 H 220.172 -2.70433 3.16631 0
M  V30 2418 H 222.769 -5.06891 1.70192 0
M  V30 2419 H 223.112 -4.15527 0.253496 0
M  V30 2420 H 223.645 -3.53043 1.83318 0
M  V30 2421 H 220.384 -4.66036 4.60967 0
M  V30 2422 H 219.904 -5.2024 2.98513 0
M  V30 2423 H 221.583 -5.4157 3.53992 0
M  V30 2424 N 221.715 -0.905404 -1.28997 0
M  V30 2425 C 222.647 -0.344748 -2.26592 0
M  V30 2426 C 223.66 0.512135 -1.54535 0
M  V30 2427 O 224.849 0.328368 -1.75454 0
M  V30 2428 C 221.949 0.526587 -3.34784 0
M  V30 2429 C 221.122 -0.305871 -4.36329 0
M  V30 2430 C 220.181 0.499209 -5.23827 0
M  V30 2431 O 219.207 -0.0853004 -5.69136 0
M  V30 2432 N 220.409 1.80408 -5.51755 0
M  V30 2433 H 223.174 -1.18359 -2.75338 0
M  V30 2434 H 220.735 -0.770481 -1.42391 0
M  V30 2435 H 222.727 1.07171 -3.90252 0
M  V30 2436 H 221.297 1.26613 -2.85811 0
M  V30 2437 H 220.517 -1.0324 -3.80441 0
M  V30 2438 H 221.805 -0.875773 -5.01206 0
M  V30 2439 H 221.203 2.3016 -5.16762 0
M  V30 2440 H 219.76 2.29621 -6.10014 0
M  V30 2441 N 223.193 1.4272 -0.668489 0
M  V30 2442 C 224.423 2.05668 -0.196063 0
M  V30 2443 C 224.831 1.5028 1.14946 0
M  V30 2444 O 224.174 0.6348 1.72383 0
M  V30 2445 C 224.236 3.59469 -0.0468879 0
M  V30 2446 C 223.9 4.37518 -1.32012 0
M  V30 2447 C 224.897 4.68584 -2.25222 0
M  V30 2448 C 222.582 4.77266 -1.56596 0
M  V30 2449 C 224.576 5.38326 -3.41297 0
M  V30 2450 C 222.263 5.4675 -2.72962 0
M  V30 2451 C 223.261 5.77204 -3.65137 0
M  V30 2452 O 222.949 6.45264 -4.79468 0
M  V30 2453 H 222.681 0.669382 -0.0943599 0
M  V30 2454 H 225.235 1.83954 -0.913788 0
M  V30 2455 H 223.465 3.79817 0.726357 0
M  V30 2456 H 225.154 4.04071 0.384852 0
M  V30 2457 H 225.92 4.38382 -2.07477 0
M  V30 2458 H 221.799 4.52959 -0.857249 0
M  V30 2459 H 225.343 5.62014 -4.13263 0
M  V30 2460 H 221.24 5.76369 -2.90635 0
M  V30 2461 H 222.008 6.63753 -4.78931 0
M  V30 2462 N 224.671 0.411399 1.52136 0
M  V30 2463 C 225.601 -0.404015 2.29978 0
M  V30 2464 C 226.582 -1.04412 1.34284 0
M  V30 2465 O 227.767 -1.0527 1.63192 0
M  V30 2466 C 224.897 -1.5197 3.12286 0
M  V30 2467 C 223.851 -1.00448 4.16046 0
M  V30 2468 C 223.177 -2.21393 4.86712 0
M  V30 2469 C 224.477 -0.0569336 5.22269 0
M  V30 2470 H 226.171 0.245529 2.98392 0
M  V30 2471 H 223.717 0.119525 1.43503 0
M  V30 2472 H 225.67 -2.09715 3.6551 0
M  V30 2473 H 224.394 -2.19716 2.41646 0
M  V30 2474 H 223.053 -0.449421 3.63835 0
M  V30 2475 H 222.701 -2.87699 4.12599 0
M  V30 2476 H 222.401 -1.87571 5.56858 0
M  V30 2477 H 223.925 -2.7974 5.4275 0
M  V30 2478 H 225.339 -0.54325 5.7072 0
M  V30 2479 H 223.736 0.192594 5.99791 0
M  V30 2480 H 224.806 0.887663 4.76706 0
M  V30 2481 N 226.149 -1.5696 0.141893 0
M  V30 2482 C 227.389 -1.9785 -0.513304 0
M  V30 2483 C 227.753 -1.02467 -1.62371 0
M  V30 2484 O 228.954 -1.32382 -2.33941 0
M  V30 2485 C 227.225 -3.42797 -1.01118 0
M  V30 2486 S 228.784 -4.05709 -1.67169 0
M  V30 2487 H 225.602 -0.691318 -0.166135 0
M  V30 2488 H 228.204 -1.94114 0.232398 0
M  V30 2489 H 226.908 -4.0995 -0.192179 0
M  V30 2490 H 226.439 -3.50235 -1.79162 0
M  V30 2491 H 228.454 -3.98342 -2.95868 0
M  V30 2492 N 227.627 0.131896 -1.57047 0
M  V30 2493 C 228.873 0.838268 -1.85323 0
M  V30 2494 C 229.228 1.78098 -0.727937 0
M  V30 2495 O 228.521 1.89645 0.27304 0
M  V30 2496 C 228.715 1.63703 -3.17704 0
M  V30 2497 C 228.544 0.773167 -4.43004 0
M  V30 2498 C 227.314 0.432956 -5.03442 0
M  V30 2499 C 229.512 0.0966216 -5.14209 0
M  V30 2500 N 227.494 -0.442924 -6.123 0
M  V30 2501 C 228.865 -0.638778 -6.16701 0
M  V30 2502 C 230.92 0.018861 -4.97896 0
M  V30 2503 C 229.623 -1.44462 -7.04644 0
M  V30 2504 C 231.649 -0.773762 -5.86316 0
M  V30 2505 C 231.011 -1.4974 -6.883 0
M  V30 2506 H 227.11 0.284086 -0.728573 0
M  V30 2507 H 229.694 0.102731 -1.94429 0
M  V30 2508 H 227.865 2.3437 -3.09718 0
M  V30 2509 H 229.597 2.28774 -3.33833 0
M  V30 2510 H 226.352 0.772237 -4.67262 0
M  V30 2511 H 226.776 -0.872332 -6.71356 0
M  V30 2512 H 231.418 0.56397 -4.19022 0
M  V30 2513 H 229.136 -2.00093 -7.82936 0
M  V30 2514 H 232.722 -0.83612 -5.75761 0
M  V30 2515 H 231.602 -2.10087 -7.55535 0
M  V30 2516 N 229.106 1.52395 0.401703 0
M  V30 2517 C 230.331 1.70972 1.17403 0
M  V30 2518 C 230.756 0.421615 1.83314 0
M  V30 2519 O 230.114 -0.621564 1.70312 0
M  V30 2520 C 230.162 2.85151 2.20728 0
M  V30 2521 O 229.266 2.51238 3.27037 0
M  V30 2522 H 228.607 0.568927 0.342372 0
M  V30 2523 H 231.137 1.99131 0.469891 0
M  V30 2524 H 231.147 3.10279 2.64936 0
M  V30 2525 H 229.822 3.78603 1.7214 0
M  V30 2526 H 228.399 2.36808 2.88057 0
M  V30 2527 N 230.584 -0.659388 1.43143 0
M  V30 2528 C 231.995 -1.24041 1.39537 0
M  V30 2529 C 232.346 -1.95963 0.0963364 0
M  V30 2530 O 231.471 -2.00892 -0.804438 0
M  V30 2531 C 232.066 -2.25601 2.52764 0
M  V30 2532 C 230.625 -2.79195 2.52443 0
M  V30 2533 C 229.772 -1.53743 2.30778 0
M  V30 2534 H 232.723 -0.451792 1.52133 0
M  V30 2535 H 232.744 -3.07651 2.23899 0
M  V30 2536 H 232.256 -1.73226 3.47296 0
M  V30 2537 H 230.357 -3.35649 1.61773 0
M  V30 2538 H 230.47 -3.2716 3.50004 0
M  V30 2539 H 228.834 -1.80869 1.79328 0
M  V30 2540 H 229.617 -1.03312 3.27386 0
M  V30 2541 N 232.062 -1.29571 -0.897171 0
M  V30 2542 C 233.308 -1.17863 -1.65034 0
M  V30 2543 C 233.641 0.268729 -1.92332 0
M  V30 2544 O 232.916 1.19378 -1.53555 0
M  V30 2545 C 233.199 -1.995 -2.99786 0
M  V30 2546 C 233.052 -3.5239 -2.79538 0
M  V30 2547 C 234.371 -1.82335 -4.00552 0
M  V30 2548 H 231.49 -0.429528 -0.598895 0
M  V30 2549 H 234.132 -1.59072 -1.03905 0
M  V30 2550 H 232.282 -1.64485 -3.51962 0
M  V30 2551 H 233.954 -3.97401 -2.34244 0
M  V30 2552 H 232.197 -3.77187 -2.14273 0
M  V30 2553 H 232.868 -4.04787 -3.75302 0
M  V30 2554 H 235.344 -2.12924 -3.57495 0
M  V30 2555 H 234.22 -2.41801 -4.92771 0
M  V30 2556 H 234.481 -0.779209 -4.35179 0
M  V30 2557 N 233.54 1.10788 -1.12088 0
M  V30 2558 C 234.788 1.8231 -0.872205 0
M  V30 2559 C 235.109 1.85419 0.603709 0
M  V30 2560 O 234.379 1.32963 1.43867 0
M  V30 2561 H 232.959 0.675137 -0.319686 0
M  V30 2562 H 235.621 1.34068 -1.41463 0
M  V30 2563 H 234.717 2.85955 -1.25045 0
M  V30 2564 N 235.018 0.912232 1.28515 0
M  V30 2565 C 236.243 0.559774 1.99703 0
M  V30 2566 C 236.668 -0.851393 1.67729 0
M  V30 2567 O 236.026 -1.56875 0.908834 0
M  V30 2568 C 236.074 0.773874 3.52198 0
M  V30 2569 O 235.178 -0.167842 4.12058 0
M  V30 2570 H 234.519 0.21723 0.627461 0
M  V30 2571 H 237.049 1.22725 1.63706 0
M  V30 2572 H 237.059 0.683386 4.02236 0
M  V30 2573 H 235.734 1.80261 3.74805 0
M  V30 2574 H 234.311 -0.0287509 3.72889 0
M  V30 2575 N 236.496 -1.42363 0.676048 0
M  V30 2576 C 237.443 -2.308 -0.00150904 0
M  V30 2577 C 238.413 -1.46032 -0.791444 0
M  V30 2578 O 239.598 -1.74861 -0.76344 0
M  V30 2579 C 236.738 -3.31883 -0.945919 0
M  V30 2580 C 235.851 -4.31741 -0.149675 0
M  V30 2581 C 234.986 -5.19898 -1.08995 0
M  V30 2582 C 234.025 -6.11434 -0.285465 0
M  V30 2583 N 233.162 -6.92138 -1.17851 0
M  V30 2584 H 238.002 -2.88187 0.758455 0
M  V30 2585 H 235.539 -1.41952 0.38576 0
M  V30 2586 H 237.497 -3.89019 -1.50731 0
M  V30 2587 H 236.127 -2.76093 -1.6725 0
M  V30 2588 H 235.179 -3.76713 0.528359 0
M  V30 2589 H 236.491 -4.96534 0.474866 0
M  V30 2590 H 235.645 -5.81772 -1.72123 0
M  V30 2591 H 234.384 -4.55284 -1.74837 0
M  V30 2592 H 233.389 -5.48627 0.359018 0
M  V30 2593 H 234.614 -6.78097 0.368883 0
M  V30 2594 H 232.56 -6.30152 -1.82332 0
M  V30 2595 H 232.477 -7.53542 -0.609082 0
M  V30 2596 H 233.745 -7.58499 -1.79722 0
M  V30 2597 N 237.974 -0.419461 -1.51915 0
M  V30 2598 C 238.904 0.391813 -2.30189 0
M  V30 2599 C 239.885 1.03699 -1.34836 0
M  V30 2600 O 241.07 1.04403 -1.63748 0
M  V30 2601 C 238.2 1.50312 -3.13087 0
M  V30 2602 C 237.154 0.9824 -4.16573 0
M  V30 2603 C 236.48 2.18809 -4.8788 0
M  V30 2604 C 237.78 0.0292356 -5.22292 0
M  V30 2605 H 239.474 -0.26135 -2.98257 0
M  V30 2606 H 237.02 -0.127134 -1.43438 0
M  V30 2607 H 238.973 2.07773 -3.66617 0
M  V30 2608 H 237.697 2.18431 -2.42807 0
M  V30 2609 H 236.356 0.430119 -3.64068 0
M  V30 2610 H 236.004 2.85507 -4.14119 0
M  V30 2611 H 235.704 1.84615 -5.57845 0
M  V30 2612 H 237.228 2.76858 -5.44226 0
M  V30 2613 H 238.642 0.512976 -5.71 0
M  V30 2614 H 237.039 -0.2244 -5.9968 0
M  V30 2615 H 238.109 -0.912931 -4.76228 0
M  V30 2616 N 239.452 1.56882 -0.150215 0
M  V30 2617 C 240.415 2.1573 0.774157 0
M  V30 2618 C 241.415 1.0999 1.17298 0
M  V30 2619 O 242.605 1.35613 1.09338 0
M  V30 2620 C 239.737 2.72302 2.05096 0
M  V30 2621 H 240.93 2.98752 0.262201 0
M  V30 2622 H 238.483 1.55985 0.099248 0
M  V30 2623 H 239.218 1.92956 2.6065 0
M  V30 2624 H 239.003 3.49665 1.77416 0
M  V30 2625 H 240.493 3.17632 2.71109 0
M  V30 2626 N 240.93 -0.123565 1.57115 0
M  V30 2627 C 242.16 -0.845233 1.88519 0
M  V30 2628 C 242.568 -1.74168 0.739064 0
M  V30 2629 O 241.911 -1.81244 -0.299355 0
M  V30 2630 C 241.973 -1.73452 3.14888 0
M  V30 2631 C 241.637 -1.01285 4.45635 0
M  V30 2632 C 242.634 -0.355774 5.18681 0
M  V30 2633 C 240.319 -0.99538 4.92339 0
M  V30 2634 C 242.313 0.309114 6.3665 0
M  V30 2635 C 240 -0.32669 6.10226 0
M  V30 2636 C 240.998 0.324406 6.82229 0
M  V30 2637 O 240.686 0.982437 7.97874 0
M  V30 2638 H 240.418 -0.248534 0.628655 0
M  V30 2639 H 242.972 -0.113907 2.05084 0
M  V30 2640 H 241.202 -2.50737 2.94394 0
M  V30 2641 H 242.891 -2.33021 3.32349 0
M  V30 2642 H 243.657 -0.360918 4.83655 0
M  V30 2643 H 239.536 -1.49159 4.36202 0
M  V30 2644 H 243.08 0.8179 6.92789 0
M  V30 2645 H 238.977 -0.319294 6.4471 0
M  V30 2646 H 239.745 0.886454 8.13686 0
M  V30 2647 N 242.408 -1.52605 -0.393616 0
M  V30 2648 C 243.654 -1.67672 -1.14079 0
M  V30 2649 C 243.987 -0.413121 -1.89755 0
M  V30 2650 O 243.262 0.588952 -1.85369 0
M  V30 2651 C 243.545 -2.9088 -2.12276 0
M  V30 2652 C 243.398 -4.27329 -1.40394 0
M  V30 2653 C 244.717 -3.09628 -3.12759 0
M  V30 2654 H 241.836 -0.610168 -0.413356 0
M  V30 2655 H 244.478 -1.85193 -0.424696 0
M  V30 2656 H 242.628 -2.76073 -2.73342 0
M  V30 2657 H 244.3 -4.53894 -0.82327 0
M  V30 2658 H 242.543 -4.2802 -0.705801 0
M  V30 2659 H 243.214 -5.09615 -2.12123 0
M  V30 2660 H 245.69 -3.23436 -2.61779 0
M  V30 2661 H 244.566 -3.97322 -3.78717 0
M  V30 2662 H 244.827 -2.23637 -3.81365 0
M  V30 2663 N 243.887 0.651787 -1.4349 0
M  V30 2664 C 245.117 1.43728 -1.48411 0
M  V30 2665 C 245.525 1.8893 -0.10103 0
M  V30 2666 O 244.868 1.60182 0.899307 0
M  V30 2667 C 244.93 2.70411 -2.36893 0
M  V30 2668 C 244.594 2.4714 -3.8441 0
M  V30 2669 C 245.591 2.10271 -4.75481 0
M  V30 2670 C 243.276 2.6142 -4.28912 0
M  V30 2671 C 245.27 1.87982 -6.0905 0
M  V30 2672 C 242.957 2.38746 -5.62533 0
M  V30 2673 C 243.955 2.02083 -6.5242 0
M  V30 2674 O 243.643 1.79647 -7.8357 0
M  V30 2675 H 243.375 0.447962 -0.506267 0
M  V30 2676 H 245.929 0.80624 -1.88915 0
M  V30 2677 H 244.159 3.36079 -1.91278 0
M  V30 2678 H 245.848 3.32364 -2.33 0
M  V30 2679 H 246.614 1.98814 -4.42378 0
M  V30 2680 H 242.493 2.88931 -3.59222 0
M  V30 2681 H 246.037 1.5929 -6.7917 0
M  V30 2682 H 241.934 2.49806 -5.95203 0
M  V30 2683 H 242.702 1.9406 -7.95162 0
M  V30 2684 N 245.365 1.30045 0.890287 0
M  V30 2685 C 246.297 1.11786 2.00091 0
M  V30 2686 C 247.31 0.0626307 1.62679 0
M  V30 2687 O 248.499 0.308112 1.75821 0
M  V30 2688 C 245.599 0.681527 3.31977 0
M  V30 2689 C 244.772 1.81735 3.97858 0
M  V30 2690 C 243.831 1.37045 5.08041 0
M  V30 2691 O 242.857 2.07677 5.29961 0
M  V30 2692 N 244.059 0.246525 5.79976 0
M  V30 2693 H 246.824 2.07441 2.16306 0
M  V30 2694 H 244.385 1.2211 1.06305 0
M  V30 2695 H 246.377 0.365675 4.03045 0
M  V30 2696 H 244.947 -0.182828 3.12065 0
M  V30 2697 H 244.167 2.30159 3.20032 0
M  V30 2698 H 245.455 2.57865 4.38615 0
M  V30 2699 H 244.853 -0.34215 5.64664 0
M  V30 2700 H 243.41 -0.00990438 6.51799 0
M  V30 2701 N 246.843 -1.10192 1.12674 0
M  V30 2702 C 247.791 -2.18694 0.792196 0
M  V30 2703 C 248.785 -1.67938 -0.222058 0
M  V30 2704 O 249.991 -1.79822 -0.0800074 0
M  V30 2705 H 246.366 -0.713223 0.238364 0
M  V30 2706 H 248.337 -2.44149 1.71564 0
M  V30 2707 C 247.086 -3.46682 0.265859 0
M  V30 2708 H 246.409 -3.86101 1.03761 0
M  V30 2709 H 247.849 -4.23942 0.0701128 0
M  V30 2710 C 246.308 -3.21506 -1.00675 0
M  V30 2711 O 246.838 -3.43408 -2.08408 0
M  V30 2712 N 245.044 -2.75158 -0.934692 0
M  V30 2713 H 244.591 -2.57535 -0.0578604 0
M  V30 2714 H 244.549 -2.58691 -1.7868 0
M  V30 2715 N 248.321 -0.919034 -1.28029 0
M  V30 2716 C 249.269 -0.401753 -2.29104 0
M  V30 2717 C 250.263 0.509354 -1.61561 0
M  V30 2718 O 251.469 0.390014 -1.75724 0
M  V30 2719 H 247.844 -0.111331 -0.743713 0
M  V30 2720 H 249.815 -1.2672 -2.70156 0
M  V30 2721 C 248.564 0.338148 -3.46052 0
M  V30 2722 H 247.887 -0.353732 -3.98232 0
M  V30 2723 H 249.327 0.664653 -4.18758 0
M  V30 2724 C 247.786 1.54798 -2.99231 0
M  V30 2725 O 248.316 2.64696 -3.02157 0
M  V30 2726 N 246.522 1.3968 -2.54829 0
M  V30 2727 H 246.069 0.502698 -2.52647 0
M  V30 2728 H 246.027 2.20755 -2.23863 0
M  V30 2729 N 249.799 1.42003 -0.683588 0
M  V30 2730 C 251.048 2.00638 -0.206681 0
M  V30 2731 C 251.361 1.5472 1.19671 0
M  V30 2732 O 252.567 2.05833 1.77045 0
M  V30 2733 C 251.023 3.58487 -0.318632 0
M  V30 2734 C 250.631 4.1339 -1.72663 0
M  V30 2735 C 252.375 4.24384 0.0991141 0
M  V30 2736 C 250.282 5.63633 -1.79087 0
M  V30 2737 H 249.212 0.750408 -0.0735107 0
M  V30 2738 H 251.863 1.62624 -0.850048 0
M  V30 2739 H 250.245 3.94047 0.392781 0
M  V30 2740 H 251.419 3.89273 -2.46583 0
M  V30 2741 H 249.734 3.59976 -2.09299 0
M  V30 2742 H 252.331 5.34652 0.0713833 0
M  V30 2743 H 252.674 4.00505 1.13586 0
M  V30 2744 H 253.207 3.93816 -0.561599 0
M  V30 2745 H 249.946 5.92323 -2.80774 0
M  V30 2746 H 249.466 5.89714 -1.09535 0
M  V30 2747 H 251.145 6.28201 -1.5483 0
M  V30 2748 N 251.277 0.427512 1.51691 0
M  V30 2749 C 252.507 -0.140986 2.06118 0
M  V30 2750 C 252.915 -1.37854 1.29588 0
M  V30 2751 O 252.258 -1.80411 0.346036 0
M  V30 2752 C 252.32 -0.538276 3.55447 0
M  V30 2753 C 251.984 0.591095 4.53161 0
M  V30 2754 C 252.981 1.46027 4.98971 0
M  V30 2755 C 250.666 0.769028 4.96378 0
M  V30 2756 C 252.66 2.49216 5.8666 0
M  V30 2757 C 250.347 1.80421 5.83859 0
M  V30 2758 C 251.345 2.66417 6.28897 0
M  V30 2759 O 251.033 3.68159 7.14643 0
M  V30 2760 H 250.765 -0.0157455 0.675817 0
M  V30 2761 H 253.319 0.602495 1.96365 0
M  V30 2762 H 251.549 -1.33432 3.6295 0
M  V30 2763 H 253.238 -1.0368 3.92435 0
M  V30 2764 H 254.004 1.33429 4.66285 0
M  V30 2765 H 249.883 0.109273 4.6087 0
M  V30 2766 H 253.427 3.16372 6.21735 0
M  V30 2767 H 249.324 1.93042 6.15959 0
M  V30 2768 H 250.092 3.64622 7.32798 0
M  V30 2769 N 252.755 -1.56801 0.158532 0
M  V30 2770 C 253.685 -2.20347 -0.772609 0
M  V30 2771 C 254.666 -1.15518 -1.24859 0
M  V30 2772 O 255.851 -1.43902 -1.30406 0
M  V30 2773 C 252.981 -2.83417 -2.00729 0
M  V30 2774 C 251.935 -3.94174 -1.66765 0
M  V30 2775 C 251.261 -4.44233 -2.97592 0
M  V30 2776 C 252.561 -5.14392 -0.905447 0
M  V30 2777 H 254.255 -2.98413 -0.242959 0
M  V30 2778 H 251.801 -1.43537 -0.115419 0
M  V30 2779 H 253.754 -3.26543 -2.6636 0
M  V30 2780 H 252.478 -2.02701 -2.56086 0
M  V30 2781 H 251.137 -3.51684 -1.03508 0
M  V30 2782 H 250.785 -3.60325 -3.50963 0
M  V30 2783 H 250.485 -5.18945 -2.75626 0
M  V30 2784 H 252.009 -4.90037 -3.64274 0
M  V30 2785 H 253.423 -5.5429 -1.46408 0
M  V30 2786 H 251.82 -5.9494 -0.7853 0
M  V30 2787 H 252.89 -4.84795 0.100668 0
M  V30 2788 N 254.233 0.115231 -1.57178 0
M  V30 2789 C 255.18 1.14115 -2.00615 0
M  V30 2790 C 256.15 1.40939 -0.878941 0
M  V30 2791 O 257.335 1.52741 -1.14345 0
M  V30 2792 C 254.475 2.46156 -2.4187 0
M  V30 2793 C 253.588 2.26236 -3.68024 0
M  V30 2794 C 252.723 3.51534 -3.98243 0
M  V30 2795 C 251.762 3.26787 -5.17568 0
M  V30 2796 N 250.899 4.44298 -5.43639 0
M  V30 2797 H 255.739 0.763743 -2.88047 0
M  V30 2798 H 253.276 0.365615 -1.42484 0
M  V30 2799 H 255.234 3.23189 -2.63827 0
M  V30 2800 H 253.864 2.81783 -1.57475 0
M  V30 2801 H 252.916 1.40102 -3.5366 0
M  V30 2802 H 254.228 2.03929 -4.55208 0
M  V30 2803 H 253.382 4.36984 -4.20868 0
M  V30 2804 H 252.121 3.76876 -3.09541 0
M  V30 2805 H 251.126 2.39729 -4.94783 0
M  V30 2806 H 252.351 3.02812 -6.0785 0
M  V30 2807 H 250.297 4.69754 -4.57895 0
M  V30 2808 H 250.214 4.25109 -6.25154 0
M  V30 2809 H 251.482 5.3087 -5.70786 0
M  V30 2810 N 255.711 1.52812 0.385517 0
M  V30 2811 C 256.643 1.74096 1.49074 0
M  V30 2812 C 257.656 0.621462 1.50472 0
M  V30 2813 O 258.845 0.897245 1.54311 0
M  V30 2814 C 255.945 1.78774 2.87911 0
M  V30 2815 C 255.118 3.08134 3.10439 0
M  V30 2816 C 254.177 3.04313 4.29278 0
M  V30 2817 O 253.203 3.78168 4.25415 0
M  V30 2818 N 254.405 2.23741 5.35649 0
M  V30 2819 H 257.17 2.69455 1.31202 0
M  V30 2820 H 254.731 1.51343 0.575065 0
M  V30 2821 H 256.723 1.73721 3.65518 0
M  V30 2822 H 255.293 0.907869 2.99126 0
M  V30 2823 H 254.513 3.26649 2.20667 0
M  V30 2824 H 255.801 3.93662 3.22347 0
M  V30 2825 H 255.199 1.63211 5.41645 0
M  V30 2826 H 253.756 2.24524 6.11909 0
M  V30 2827 N 257.189 -0.644168 1.43834 0
M  V30 2828 C 258.605 -0.960875 1.27434 0
M  V30 2829 C 258.805 -2.00499 0.200618 0
M  V30 2830 O 257.861 -2.49018 -0.417906 0
M  V30 2831 C 259.174 -1.43653 2.64167 0
M  V30 2832 C 260.722 -1.55271 2.71772 0
M  V30 2833 C 261.197 -2.06224 4.08944 0
M  V30 2834 N 262.688 -2.13513 4.11055 0
M  V30 2835 C 263.423 -2.54081 5.14033 0
M  V30 2836 N 262.919 -2.9388 6.27381 0
M  V30 2837 N 264.712 -2.54101 5.01387 0
M  V30 2838 H 256.863 0.0465779 2.12349 0
M  V30 2839 H 259.126 -0.0417638 0.94708 0
M  V30 2840 H 258.832 -0.743706 3.43747 0
M  V30 2841 H 258.706 -2.40993 2.90176 0
M  V30 2842 H 261.093 -2.23653 1.92519 0
M  V30 2843 H 261.174 -0.563395 2.49519 0
M  V30 2844 H 260.818 -1.38441 4.88668 0
M  V30 2845 H 260.748 -3.06003 4.28567 0
M  V30 2846 H 263.239 -1.85493 3.29242 0
M  V30 2847 H 263.552 -3.2361 7.01781 0
M  V30 2848 H 261.897 -2.91663 6.30839 0
M  V30 2849 H 265.088 -2.22391 4.11898 0
M  V30 2850 H 265.261 -2.85394 5.81768 0
M  V30 2851 N 258.668 -1.30515 -0.883378 0
M  V30 2852 C 260.079 -1.17509 -1.45081 0
M  V30 2853 C 260.43 0.223605 -1.94922 0
M  V30 2854 O 259.555 1.12041 -1.85137 0
M  V30 2855 C 260.15 -2.12715 -2.63701 0
M  V30 2856 C 258.709 -2.03682 -3.16529 0
M  V30 2857 C 257.856 -2.02706 -1.89224 0
M  V30 2858 H 260.807 -1.42762 -0.693165 0
M  V30 2859 H 260.828 -1.70891 -3.39965 0
M  V30 2860 H 260.34 -3.14505 -2.27395 0
M  V30 2861 H 258.441 -1.05039 -3.57488 0
M  V30 2862 H 258.554 -2.92146 -3.7972 0
M  V30 2863 H 256.918 -1.4753 -2.07622 0
M  V30 2864 H 257.701 -3.06229 -1.55174 0
M  V30 2865 N 260.146 1.09593 -1.13257 0
M  V30 2866 C 261.394 1.81375 -0.891492 0
M  V30 2867 C 261.715 1.86049 0.584009 0
M  V30 2868 O 260.985 1.34481 1.42449 0
M  V30 2869 H 259.565 0.671708 -0.326828 0
M  V30 2870 H 262.227 1.3256 -1.42877 0
M  V30 2871 H 261.323 2.84612 -1.28071 0
M  V30 2872 N 261.624 0.925811 1.2754 0
M  V30 2873 C 262.901 0.483726 1.89524 0
M  V30 2874 C 263.281 -1.03809 1.83812 0
M  V30 2875 O 262.629 -1.89143 1.28207 0
M  V30 2876 C 262.839 1.02769 3.33526 0
M  V30 2877 C 264.187 1.08703 4.10449 0
M  V30 2878 O 265.211 0.977175 3.42534 0
M  V30 2879 O 264.07 1.25599 5.31871 0
M  V30 2880 H 261.164 0.15529 0.812289 0
M  V30 2881 H 263.71 1.01738 1.35822 0
M  V30 2882 H 262.482 2.07155 3.31967 0
M  V30 2883 H 262.105 0.475567 3.94746 0
M  V30 2884 N 263.102 -1.41638 0.69111 0
M  V30 2885 C 264.513 -1.84346 0.295517 0
M  V30 2886 C 264.864 -1.57833 -1.16547 0
M  V30 2887 O 263.989 -1.04648 -1.89414 0
M  V30 2888 C 264.584 -3.34636 0.529575 0
M  V30 2889 C 263.143 -3.7593 0.187944 0
M  V30 2890 C 262.29 -2.65082 0.814052 0
M  V30 2891 H 265.241 -1.31253 0.892092 0
M  V30 2892 H 265.262 -3.79903 -0.213148 0
M  V30 2893 H 264.774 -3.53901 1.59297 0
M  V30 2894 H 262.875 -3.62268 -0.871367 0
M  V30 2895 H 262.988 -4.74808 0.63985 0
M  V30 2896 H 261.352 -2.53528 0.244017 0
M  V30 2897 H 262.135 -2.87167 1.88123 0
M  V30 2898 N 264.58 -0.43555 -1.51462 0
M  V30 2899 C 265.991 0.0279871 -1.86679 0
M  V30 2900 C 266.342 1.42104 -1.35281 0
M  V30 2901 O 265.467 2.04667 -0.702878 0
M  V30 2902 C 266.062 0.0575626 -3.38751 0
M  V30 2903 C 264.621 0.465507 -3.7351 0
M  V30 2904 C 263.768 -0.342996 -2.75171 0
M  V30 2905 H 266.719 -0.651473 -1.44712 0
M  V30 2906 H 266.74 0.867421 -3.70481 0
M  V30 2907 H 266.252 -0.956448 -3.7613 0
M  V30 2908 H 264.353 1.48519 -3.41721 0
M  V30 2909 H 264.466 0.191546 -4.78717 0
M  V30 2910 H 262.83 0.198442 -2.53926 0
M  V30 2911 H 263.613 -1.35585 -3.15391 0
M  V30 2912 N 266.058 1.56714 -0.166846 0
M  V30 2913 C 267.305 1.96747 0.479252 0
M  V30 2914 C 267.633 1.05263 1.63554 0
M  V30 2915 O 266.888 0.0858098 1.95512 0
M  V30 2916 C 267.187 3.42889 1.00806 0
M  V30 2917 C 266.853 4.50889 -0.0318574 0
M  V30 2918 C 265.515 4.8015 -0.317675 0
M  V30 2919 C 267.867 5.15949 -0.737956 0
M  V30 2920 C 265.195 5.71772 -1.31506 0
M  V30 2921 C 267.547 6.08647 -1.72429 0
M  V30 2922 C 266.211 6.36277 -2.0176 0
M  V30 2923 H 265.481 0.719949 0.175371 0
M  V30 2924 H 268.128 1.89756 -0.257864 0
M  V30 2925 H 266.433 3.4681 1.82291 0
M  V30 2926 H 268.13 3.71203 1.51689 0
M  V30 2927 H 264.72 4.28128 0.201088 0
M  V30 2928 H 268.904 4.93458 -0.530351 0
M  V30 2929 H 264.16 5.91465 -1.54853 0
M  V30 2930 H 268.334 6.58129 -2.27682 0
M  V30 2931 H 265.961 7.07075 -2.79194 0
M  V30 2932 N 267.536 -0.106894 1.57237 0
M  V30 2933 C 268.468 -1.15646 1.97885 0
M  V30 2934 C 269.481 -1.36981 0.879779 0
M  V30 2935 O 270.67 -1.35841 1.15799 0
M  V30 2936 C 267.77 -2.51425 2.27241 0
M  V30 2937 C 266.943 -2.50529 3.58545 0
M  V30 2938 C 266.002 -3.68145 3.75973 0
M  V30 2939 O 265.028 -3.51176 4.47956 0
M  V30 2940 N 266.23 -4.87177 3.15656 0
M  V30 2941 H 268.995 -0.81059 2.8853 0
M  V30 2942 H 266.556 -0.296024 1.59171 0
M  V30 2943 H 268.548 -3.28689 2.36105 0
M  V30 2944 H 267.118 -2.78147 1.42663 0
M  V30 2945 H 266.338 -1.58894 3.60758 0
M  V30 2946 H 267.626 -2.46997 4.44826 0
M  V30 2947 H 267.024 -5.03868 2.57165 0
M  V30 2948 H 265.581 -5.62075 3.30023 0
M  V30 2949 N 269.014 -1.53014 -0.377408 0
M  V30 2950 C 270.263 -1.67845 -1.11853 0
M  V30 2951 C 270.576 -0.430625 -1.90801 0
M  V30 2952 O 271.782 -0.459261 -2.67587 0
M  V30 2953 C 270.238 -2.96668 -2.03756 0
M  V30 2954 C 269.846 -4.28671 -1.30175 0
M  V30 2955 C 271.59 -3.20865 -2.77932 0
M  V30 2956 C 269.497 -5.48591 -2.20911 0
M  V30 2957 H 268.427 -0.625343 -0.421263 0
M  V30 2958 H 271.078 -1.79514 -0.380409 0
M  V30 2959 H 269.46 -2.78773 -2.8125 0
M  V30 2960 H 270.634 -4.57157 -0.578259 0
M  V30 2961 H 268.949 -4.10825 -0.679108 0
M  V30 2962 H 271.546 -4.07642 -3.46024 0
M  V30 2963 H 271.889 -2.36424 -3.4265 0
M  V30 2964 H 272.422 -3.39379 -2.07525 0
M  V30 2965 H 269.161 -6.35474 -1.6079 0
M  V30 2966 H 268.681 -5.244 -2.91144 0
M  V30 2967 H 270.36 -5.8292 -2.80736 0
M  V30 2968 N 270.492 0.636531 -1.44174 0
M  V30 2969 C 271.72 1.42353 -1.50144 0
M  V30 2970 C 272.135 1.88389 -0.124575 0
M  V30 2971 O 271.492 1.6051 0.868489 0
M  V30 2972 C 271.543 2.64744 -2.46156 0
M  V30 2973 O 271.264 2.20629 -3.7849 0
M  V30 2974 C 272.765 3.57929 -2.61537 0
M  V30 2975 H 269.985 0.436752 -0.5094 0
M  V30 2976 H 272.529 0.778933 -1.89084 0
M  V30 2977 H 270.684 3.25307 -2.10366 0
M  V30 2978 H 271.098 2.99938 -4.30276 0
M  V30 2979 H 272.572 4.40428 -3.32757 0
M  V30 2980 H 273.049 4.06382 -1.66585 0
M  V30 2981 H 273.655 3.03238 -2.98206 0
M  V30 2982 N 271.97 1.30982 0.876444 0
M  V30 2983 C 273.217 1.20296 1.62896 0
M  V30 2984 C 273.545 -0.240395 1.93009 0
M  V30 2985 O 272.8 -1.18733 1.55567 0
M  V30 2986 C 273.099 1.98572 2.9716 0
M  V30 2987 C 272.765 3.48125 2.86566 0
M  V30 2988 C 271.427 3.88905 2.83383 0
M  V30 2989 C 273.779 4.43322 2.74071 0
M  V30 2990 C 271.107 5.2316 2.65556 0
M  V30 2991 C 273.459 5.77695 2.57781 0
M  V30 2992 C 272.123 6.17704 2.52979 0
M  V30 2993 H 271.393 0.440193 0.59608 0
M  V30 2994 H 274.04 1.62177 1.01837 0
M  V30 2995 H 272.345 1.49352 3.62217 0
M  V30 2996 H 274.042 1.8769 3.54364 0
M  V30 2997 H 270.632 3.15723 2.89856 0
M  V30 2998 H 274.816 4.12752 2.75589 0
M  V30 2999 H 270.072 5.53241 2.60259 0
M  V30 3000 H 274.246 6.51091 2.47089 0
M  V30 3001 H 271.873 7.21678 2.38924 0
M  V30 3002 N 273.449 -1.08991 1.13837 0
M  V30 3003 C 274.397 -2.17841 0.815347 0
M  V30 3004 C 275.391 -1.68164 -0.204233 0
M  V30 3005 O 276.597 -1.79897 -0.0609304 0
M  V30 3006 H 272.972 -0.710654 0.245915 0
M  V30 3007 H 274.943 -2.42315 1.74143 0
M  V30 3008 C 273.692 -3.46381 0.302614 0
M  V30 3009 H 273.015 -3.84979 1.0785 0
M  V30 3010 H 274.455 -4.23844 0.115074 0
M  V30 3011 C 272.914 -3.22556 -0.972591 0
M  V30 3012 O 273.444 -3.45599 -2.04754 0
M  V30 3013 N 271.65 -2.76134 -0.905455 0
M  V30 3014 H 271.197 -2.57582 -0.0305421 0
M  V30 3015 H 271.155 -2.60571 -1.75926 0
M  V30 3016 N 274.927 -0.932562 -1.27047 0
M  V30 3017 C 276.175 -0.574422 -1.93765 0
M  V30 3018 C 276.496 0.887993 -1.73608 0
M  V30 3019 O 275.766 1.62999 -1.08665 0
M  V30 3020 H 274.346 -0.209451 -0.717035 0
M  V30 3021 H 277.008 -1.18601 -1.5466 0
M  V30 3022 H 276.104 -0.784841 -3.02071 0
M  V30 3023 N 276.405 1.4127 -0.698611 0
M  V30 3024 C 277.821 1.55241 -0.370462 0
M  V30 3025 C 278.021 1.67351 1.12231 0
M  V30 3026 O 277.077 1.65363 1.90818 0
M  V30 3027 C 278.39 2.78997 -1.12165 0
M  V30 3028 C 279.938 2.92797 -1.1063 0
M  V30 3029 C 280.413 4.19445 -1.8393 0
M  V30 3030 N 281.904 4.26409 -1.80914 0
M  V30 3031 C 282.639 5.23271 -2.34467 0
M  V30 3032 N 282.135 6.26145 -2.96504 0
M  V30 3033 N 283.928 5.15232 -2.24706 0
M  V30 3034 H 276.079 1.31654 -1.66676 0
M  V30 3035 H 278.342 0.635393 -0.703548 0
M  V30 3036 H 278.048 2.76268 -2.17644 0
M  V30 3037 H 277.922 3.70606 -0.702209 0
M  V30 3038 H 280.309 2.95039 -0.0597713 0
M  V30 3039 H 280.39 2.02353 -1.56483 0
M  V30 3040 H 280.034 4.17964 -2.88563 0
M  V30 3041 H 279.964 5.08866 -1.35509 0
M  V30 3042 H 282.455 3.527 -1.35687 0
M  V30 3043 H 282.768 6.96451 -3.34927 0
M  V30 3044 H 281.113 6.26638 -3.00583 0
M  V30 3045 H 284.304 4.33789 -1.7591 0
M  V30 3046 H 284.477 5.90552 -2.66745 0
M  V30 3047 N 277.883 0.443576 1.51229 0
M  V30 3048 C 278.793 -0.370721 2.31652 0
M  V30 3049 C 279.809 -1.02186 1.40833 0
M  V30 3050 O 280.985 -1.01586 1.73903 0
M  V30 3051 C 278.05 -1.45376 3.14749 0
M  V30 3052 C 277.111 -0.822099 4.21355 0
M  V30 3053 C 276.344 -1.85353 5.0048 0
M  V30 3054 O 276.567 -3.07656 4.80316 0
M  V30 3055 O 275.501 -1.4406 5.84406 0
M  V30 3056 H 279.327 0.286002 3.0235 0
M  V30 3057 H 276.912 0.20598 1.47973 0
M  V30 3058 H 278.794 -2.08173 3.66391 0
M  V30 3059 H 277.469 -2.09445 2.46809 0
M  V30 3060 H 276.376 -0.155909 3.73775 0
M  V30 3061 H 277.709 -0.224797 4.91686 0
M  V30 3062 N 279.361 -1.56624 0.175154 0
M  V30 3063 C 280.309 -2.19468 -0.770495 0
M  V30 3064 C 281.303 -1.15985 -1.23466 0
M  V30 3065 O 282.509 -1.34176 -1.19987 0
M  V30 3066 H 278.884 -0.703095 -0.266761 0
M  V30 3067 H 280.855 -2.97613 -0.216542 0
M  V30 3068 C 279.604 -2.85264 -1.98796 0
M  V30 3069 H 278.927 -3.64623 -1.63983 0
M  V30 3070 H 280.367 -3.327 -2.62843 0
M  V30 3071 C 278.826 -1.85239 -2.81404 0
M  V30 3072 O 279.356 -1.34024 -3.78682 0
M  V30 3073 N 277.562 -1.53911 -2.46495 0
M  V30 3074 H 277.109 -1.95751 -1.67449 0
M  V30 3075 H 277.067 -0.872382 -3.02054 0
M  V30 3076 N 280.839 0.0985539 -1.57292 0
M  V30 3077 C 281.786 1.11981 -2.01814 0
M  V30 3078 C 282.756 1.39999 -0.89384 0
M  V30 3079 O 283.941 1.5152 -1.15958 0
M  V30 3080 C 281.081 2.43577 -2.44467 0
M  V30 3081 C 280.194 2.2232 -3.70402 0
M  V30 3082 C 279.329 3.4729 -4.01949 0
M  V30 3083 C 278.368 3.2128 -5.21005 0
M  V30 3084 N 277.505 4.38507 -5.48321 0
M  V30 3085 H 282.345 0.733149 -2.88841 0
M  V30 3086 H 279.882 0.350482 -1.42864 0
M  V30 3087 H 281.84 3.20373 -2.6724 0
M  V30 3088 H 280.47 2.80097 -1.60455 0
M  V30 3089 H 279.522 1.36343 -3.55126 0
M  V30 3090 H 280.834 1.99089 -4.57345 0
M  V30 3091 H 279.988 4.32495 -4.25479 0
M  V30 3092 H 278.727 3.73572 -3.13521 0
M  V30 3093 H 277.732 2.34468 -4.97298 0
M  V30 3094 H 278.957 2.96348 -6.11028 0
M  V30 3095 H 276.903 4.64871 -4.62851 0
M  V30 3096 H 276.82 4.18455 -6.29628 0
M  V30 3097 H 278.088 5.24787 -5.76385 0
M  V30 3098 N 282.317 1.53212 0.369288 0
M  V30 3099 C 283.566 1.68436 1.10961 0
M  V30 3100 C 283.879 0.440738 1.9057 0
M  V30 3101 O 285.085 0.473446 2.6734 0
M  V30 3102 C 283.541 2.97744 2.0218 0
M  V30 3103 C 283.149 4.29355 1.279 0
M  V30 3104 C 284.893 3.22334 2.76226 0
M  V30 3105 C 282.8 5.49755 2.17999 0
M  V30 3106 H 281.73 0.627568 0.41794 0
M  V30 3107 H 284.381 1.79713 0.370884 0
M  V30 3108 H 282.763 2.8026 2.79768 0
M  V30 3109 H 283.937 4.57458 0.554007 0
M  V30 3110 H 282.252 4.11179 0.657311 0
M  V30 3111 H 284.849 4.09471 3.43857 0
M  V30 3112 H 285.192 2.38238 3.41392 0
M  V30 3113 H 285.725 3.40475 2.05723 0
M  V30 3114 H 282.464 6.36318 1.57417 0
M  V30 3115 H 281.984 5.25937 2.88359 0
M  V30 3116 H 283.663 5.84401 2.77641 0
M  V30 3117 N 283.795 -0.628877 1.44509 0
M  V30 3118 C 285.042 -1.38839 1.47411 0
M  V30 3119 C 285.37 -1.94202 0.10757 0
M  V30 3120 O 284.625 -1.74243 -0.890947 0
M  V30 3121 C 284.924 -2.56995 2.48371 0
M  V30 3122 C 284.59 -2.19908 3.93639 0
M  V30 3123 C 283.252 -2.09506 4.33198 0
M  V30 3124 C 285.604 -1.9064 4.85083 0
M  V30 3125 C 282.932 -1.68028 5.62124 0
M  V30 3126 C 285.284 -1.50655 6.14399 0
M  V30 3127 C 283.948 -1.38796 6.5291 0
M  V30 3128 H 283.218 -0.508048 0.539414 0
M  V30 3129 H 285.865 -0.712913 1.77735 0
M  V30 3130 H 284.17 -3.29786 2.11538 0
M  V30 3131 H 285.867 -3.15223 2.47861 0
M  V30 3132 H 282.457 -2.28922 3.62343 0
M  V30 3133 H 286.641 -1.97585 4.55273 0
M  V30 3134 H 281.897 -1.57452 5.90778 0
M  V30 3135 H 286.071 -1.27048 6.84713 0
M  V30 3136 H 283.698 -1.06429 7.52713 0
M  V30 3137 N 285.273 -1.31445 -0.869486 0
M  V30 3138 C 286.221 -1.19067 -1.99814 0
M  V30 3139 C 287.215 -0.0988569 -1.69111 0
M  V30 3140 O 288.421 -0.260781 -1.78101 0
M  V30 3141 H 284.796 -0.368677 -0.655425 0
M  V30 3142 H 286.767 -2.14555 -2.07385 0
M  V30 3143 C 285.516 -0.915323 -3.35436 0
M  V30 3144 H 284.839 -1.74759 -3.59582 0
M  V30 3145 H 286.279 -0.868895 -4.15001 0
M  V30 3146 C 284.738 0.381928 -3.34728 0
M  V30 3147 O 285.268 1.39857 -3.76567 0
M  V30 3148 N 283.474 0.398633 -2.87853 0
M  V30 3149 H 283.021 -0.429186 -2.54 0
M  V30 3150 H 282.979 1.26651 -2.87762 0
M  V30 3151 N 286.751 1.08385 -1.14413 0
M  V30 3152 C 287.999 1.80419 -0.910679 0
M  V30 3153 C 288.32 1.86658 0.564243 0
M  V30 3154 O 287.59 1.35985 1.41014 0
M  V30 3155 H 286.17 0.668204 -0.333934 0
M  V30 3156 H 288.832 1.31037 -1.44275 0
M  V30 3157 H 287.928 2.83238 -1.31082 0
M  V30 3158 N 288.23 0.939286 1.26551 0
M  V30 3159 C 289.479 0.581601 1.93133 0
M  V30 3160 C 289.792 -0.883224 1.74524 0
M  V30 3161 O 290.998 -1.3502 2.35546 0
M  V30 3162 C 289.454 0.989425 3.46032 0
M  V30 3163 C 289.062 2.47573 3.73379 0
M  V30 3164 C 290.806 0.703544 4.18629 0
M  V30 3165 C 288.713 2.82235 5.19709 0
M  V30 3166 H 287.643 0.213803 0.723052 0
M  V30 3167 H 290.294 1.14167 1.4366 0
M  V30 3168 H 288.676 0.357902 3.94379 0
M  V30 3169 H 289.85 3.15614 3.35744 0
M  V30 3170 H 288.165 2.73471 3.1401 0
M  V30 3171 H 290.762 0.938869 5.26393 0
M  V30 3172 H 291.105 -0.359639 4.14744 0
M  V30 3173 H 291.638 1.2947 3.76141 0
M  V30 3174 H 288.377 3.87509 5.28694 0
M  V30 3175 H 287.897 2.18854 5.58447 0
M  V30 3176 H 289.576 2.70599 5.87695 0
M  V30 3177 N 289.708 -1.40897 0.706093 0
M  V30 3178 C 291.119 -1.84023 0.315052 0
M  V30 3179 C 291.47 -1.5906 -1.14866 0
M  V30 3180 O 290.595 -1.06651 -1.88293 0
M  V30 3181 C 291.19 -3.34055 0.565038 0
M  V30 3182 C 289.749 -3.7571 0.227806 0
M  V30 3183 C 288.896 -2.64204 0.842122 0
M  V30 3184 H 291.847 -1.303 0.905963 0
M  V30 3185 H 291.868 -3.80107 -0.172843 0
M  V30 3186 H 291.38 -3.52192 1.63042 0
M  V30 3187 H 289.481 -3.63172 -0.832895 0
M  V30 3188 H 289.594 -4.74103 0.690174 0
M  V30 3189 H 287.958 -2.53255 0.270893 0
M  V30 3190 H 288.741 -2.85155 1.91158 0
M  V30 3191 N 291.186 -0.45159 -1.50991 0
M  V30 3192 C 292.463 0.170707 -1.94854 0
M  V30 3193 C 292.843 1.58788 -1.39103 0
M  V30 3194 O 292.191 2.20913 -0.583921 0
M  V30 3195 C 292.401 0.133929 -3.48743 0
M  V30 3196 C 293.749 0.33248 -4.23296 0
M  V30 3197 O 294.773 0.211403 -3.55572 0
M  V30 3198 O 293.632 0.57486 -5.43468 0
M  V30 3199 H 290.726 0.122264 -0.817912 0
M  V30 3200 H 293.272 -0.510594 -1.61836 0
M  V30 3201 H 292.044 -0.856283 -3.81816 0
M  V30 3202 H 291.667 0.857529 -3.88242 0
M  V30 3203 N 292.664 1.56529 -0.183458 0
M  V30 3204 C 293.91 1.98304 0.452466 0
M  V30 3205 C 294.265 1.06799 1.60037 0
M  V30 3206 O 293.558 0.110049 1.91284 0
M  V30 3207 C 293.752 3.43939 0.971637 0
M  V30 3208 C 293.581 4.49528 -0.124425 0
M  V30 3209 C 292.351 5.01981 -0.578168 0
M  V30 3210 C 294.549 5.05836 -0.929207 0
M  V30 3211 N 292.531 5.91219 -1.65327 0
M  V30 3212 C 293.902 5.91632 -1.85396 0
M  V30 3213 C 295.957 4.88302 -0.972929 0
M  V30 3214 C 294.66 6.61768 -2.81878 0
M  V30 3215 C 296.686 5.59168 -1.92574 0
M  V30 3216 C 296.048 6.44701 -2.83795 0
M  V30 3217 H 292.147 0.770551 0.133324 0
M  V30 3218 H 294.731 1.92581 -0.286473 0
M  V30 3219 H 292.902 3.50184 1.68006 0
M  V30 3220 H 294.634 3.72702 1.5772 0
M  V30 3221 H 291.389 4.73282 -0.173639 0
M  V30 3222 H 291.813 6.40543 -2.19167 0
M  V30 3223 H 296.455 4.21861 -0.28168 0
M  V30 3224 H 294.173 7.27415 -3.51984 0
M  V30 3225 H 297.759 5.47582 -1.96583 0
M  V30 3226 H 296.639 6.98573 -3.56322 0
M  V30 3227 N 294.142 -0.090211 1.57342 0
M  V30 3228 C 295.388 -0.793982 1.86611 0
M  V30 3229 C 295.721 -1.78142 0.773252 0
M  V30 3230 O 294.996 -1.93271 -0.218304 0
M  V30 3231 C 295.279 -1.51839 3.26523 0
M  V30 3232 C 295.132 -0.548609 4.46442 0
M  V30 3233 C 296.451 -2.46779 3.64401 0
M  V30 3234 H 293.57 -0.287186 0.678744 0
M  V30 3235 H 296.212 -0.0575076 1.89913 0
M  V30 3236 H 294.362 -2.14617 3.23839 0
M  V30 3237 H 296.034 0.0725513 4.61243 0
M  V30 3238 H 294.277 0.137614 4.33582 0
M  V30 3239 H 294.948 -1.09271 5.41076 0
M  V30 3240 H 297.424 -1.94089 3.68061 0
M  V30 3241 H 296.3 -2.94479 4.63221 0
M  V30 3242 H 296.561 -3.30758 2.93346 0
M  V30 3243 N 295.62 -1.53406 -0.361157 0
M  V30 3244 C 296.85 -1.73465 -1.1222 0
M  V30 3245 C 297.258 -0.465486 -1.83384 0
M  V30 3246 O 296.601 0.571611 -1.7458 0
M  V30 3247 C 296.663 -2.84834 -2.19339 0
M  V30 3248 C 296.327 -4.25038 -1.67903 0
M  V30 3249 C 297.324 -5.07231 -1.14074 0
M  V30 3250 C 295.009 -4.71464 -1.73282 0
M  V30 3251 C 297.003 -6.33942 -0.663068 0
M  V30 3252 C 294.69 -5.98153 -1.25127 0
M  V30 3253 C 295.688 -6.79223 -0.717296 0
M  V30 3254 O 295.376 -8.03533 -0.242865 0
M  V30 3255 H 295.108 -0.583526 -0.341283 0
M  V30 3256 H 297.662 -2.00964 -0.424591 0
M  V30 3257 H 295.892 -2.5282 -2.92607 0
M  V30 3258 H 297.581 -2.9303 -2.80871 0
M  V30 3259 H 298.347 -4.72534 -1.09254 0
M  V30 3260 H 294.226 -4.08432 -2.13786 0
M  V30 3261 H 297.77 -6.97167 -0.245612 0
M  V30 3262 H 293.667 -6.32347 -1.29642 0
M  V30 3263 H 294.435 -8.177 -0.361786 0
M  V30 3264 N 297.098 0.621204 -1.44841 0
M  V30 3265 C 298.008 1.7612 -1.5498 0
M  V30 3266 C 299.024 1.68477 -0.434927 0
M  V30 3267 O 300.2 1.89076 -0.693693 0
M  V30 3268 C 297.265 3.1254 -1.50065 0
M  V30 3269 C 296.326 3.31741 -2.72482 0
M  V30 3270 C 295.559 4.61653 -2.67792 0
M  V30 3271 O 295.782 5.431 -1.74352 0
M  V30 3272 O 294.716 4.83271 -3.58794 0
M  V30 3273 H 298.542 1.70518 -2.51311 0
M  V30 3274 H 296.127 0.783643 -1.27198 0
M  V30 3275 H 298.009 3.93844 -1.49882 0
M  V30 3276 H 296.684 3.18663 -0.568806 0
M  V30 3277 H 295.591 2.50077 -2.7823 0
M  V30 3278 H 296.924 3.30486 -3.64746 0
M  V30 3279 N 298.576 1.31904 0.862503 0
M  V30 3280 C 299.486 1.22161 2.00285 0
M  V30 3281 C 300.502 0.136785 1.73462 0
M  V30 3282 O 301.678 0.355994 1.98229 0
M  V30 3283 C 298.743 0.937093 3.33796 0
M  V30 3284 C 297.804 2.10957 3.73893 0
M  V30 3285 C 297.037 1.83853 5.01033 0
M  V30 3286 O 297.26 0.777274 5.65079 0
M  V30 3287 O 296.194 2.69741 5.38074 0
M  V30 3288 H 300.02 2.18008 2.11439 0
M  V30 3289 H 297.605 1.11716 0.991957 0
M  V30 3290 H 299.487 0.794583 4.13841 0
M  V30 3291 H 298.162 0.00871894 3.23699 0
M  V30 3292 H 297.069 2.30752 2.94456 0
M  V30 3293 H 298.402 3.02046 3.88625 0
M  V30 3294 N 300.054 -1.07777 1.14986 0
M  V30 3295 C 300.964 -2.18404 0.856546 0
M  V30 3296 C 301.98 -1.73211 -0.165485 0
M  V30 3297 O 303.156 -2.01399 0.00755219 0
M  V30 3298 C 300.221 -3.44977 0.34526 0
M  V30 3299 C 299.282 -4.0476 1.43065 0
M  V30 3300 C 298.515 -5.25291 0.943663 0
M  V30 3301 O 298.738 -5.70004 -0.212426 0
M  V30 3302 O 297.672 -5.76638 1.72547 0
M  V30 3303 H 301.498 -2.45978 1.78125 0
M  V30 3304 H 299.083 -1.17033 0.928631 0
M  V30 3305 H 300.965 -4.21348 0.0663671 0
M  V30 3306 H 299.64 -3.18965 -0.551631 0
M  V30 3307 H 298.547 -3.29949 1.76309 0
M  V30 3308 H 299.88 -4.35035 2.30229 0
M  V30 3309 N 301.532 -0.945985 -1.26051 0
M  V30 3310 C 302.465 -0.403619 -2.24602 0
M  V30 3311 C 303.443 0.510241 -1.54387 0
M  V30 3312 O 304.627 0.446593 -1.83133 0
M  V30 3313 C 301.754 0.419564 -3.36091 0
M  V30 3314 C 300.8 -0.433454 -4.24292 0
M  V30 3315 S 301.633 -1.86037 -5.02146 0
M  V30 3316 C 302.789 -1.04538 -6.17108 0
M  V30 3317 H 303.022 -1.23883 -2.7026 0
M  V30 3318 H 300.555 -0.749438 -1.34992 0
M  V30 3319 H 302.513 0.888595 -4.00767 0
M  V30 3320 H 301.174 1.22951 -2.89036 0
M  V30 3321 H 300.367 0.197486 -5.03613 0
M  V30 3322 H 299.969 -0.837357 -3.64506 0
M  V30 3323 H 302.261 -0.289923 -6.76879 0
M  V30 3324 H 303.204 -1.81222 -6.84518 0
M  V30 3325 H 303.612 -0.579319 -5.61519 0
M  V30 3326 N 303.011 1.40521 -0.713556 0
M  V30 3327 C 303.941 2.33381 -0.0743864 0
M  V30 3328 C 304.922 1.52784 0.747735 0
M  V30 3329 O 306.107 1.81258 0.697071 0
M  V30 3330 C 303.237 3.36748 0.849598 0
M  V30 3331 C 302.191 4.27793 0.133247 0
M  V30 3332 C 301.517 5.21679 1.17281 0
M  V30 3333 C 302.817 5.12415 -1.01134 0
M  V30 3334 H 304.511 2.87081 -0.850007 0
M  V30 3335 H 302.057 1.38034 -0.410201 0
M  V30 3336 H 304.01 4.00648 1.30612 0
M  V30 3337 H 302.734 2.81439 1.65709 0
M  V30 3338 H 301.393 3.65342 -0.303426 0
M  V30 3339 H 301.041 4.62677 1.9733 0
M  V30 3340 H 300.741 5.83435 0.698397 0
M  V30 3341 H 302.265 5.88456 1.62947 0
M  V30 3342 H 303.679 5.69781 -0.634274 0
M  V30 3343 H 302.076 5.83203 -1.41399 0
M  V30 3344 H 303.146 4.48514 -1.84292 0
M  V30 3345 N 304.489 0.459591 1.5075 0
M  V30 3346 C 305.452 -0.329093 2.26825 0
M  V30 3347 C 306.452 -0.930481 1.31144 0
M  V30 3348 O 307.642 -0.801453 1.54669 0
M  V30 3349 C 304.774 -1.46768 3.07688 0
M  V30 3350 H 305.967 0.337924 2.9799 0
M  V30 3351 H 303.52 0.213336 1.54837 0
M  V30 3352 H 304.255 -2.17009 2.40993 0
M  V30 3353 H 304.04 -1.04238 3.77991 0
M  V30 3354 H 305.53 -2.02433 3.65254 0
M  V30 3355 N 305.967 -1.56429 0.191757 0
M  V30 3356 C 307.195 -2.01867 -0.453586 0
M  V30 3357 C 307.61 -1.07191 -1.5542 0
M  V30 3358 O 306.967 -0.0762108 -1.82341 0
M  V30 3359 C 307.018 -3.47017 -1.013 0
M  V30 3360 O 306.739 -4.38078 0.0437005 0
M  V30 3361 C 308.24 -4.07956 -1.73456 0
M  V30 3362 H 305.46 -0.661211 -0.114199 0
M  V30 3363 H 308.004 -2.02295 0.299483 0
M  V30 3364 H 306.159 -3.47298 -1.71647 0
M  V30 3365 H 306.573 -5.23178 -0.372212 0
M  V30 3366 H 308.047 -5.1138 -2.07833 0
M  V30 3367 H 308.524 -3.51222 -2.63704 0
M  V30 3368 H 309.13 -4.11437 -1.07702 0
M  V30 3369 N 307.445 0.0818655 -1.57387 0
M  V30 3370 C 308.392 1.09834 -2.0299 0
M  V30 3371 C 309.362 1.39043 -0.908639 0
M  V30 3372 O 310.547 1.50282 -1.17559 0
M  V30 3373 C 307.687 2.40971 -2.47037 0
M  V30 3374 C 306.8 2.18379 -3.7274 0
M  V30 3375 C 305.935 3.43008 -4.0561 0
M  V30 3376 C 304.974 3.15736 -5.24383 0
M  V30 3377 N 304.111 4.32667 -5.52941 0
M  V30 3378 H 308.951 0.702472 -2.89602 0
M  V30 3379 H 306.488 0.33531 -1.43227 0
M  V30 3380 H 308.446 3.1752 -2.70623 0
M  V30 3381 H 307.076 2.78379 -1.63417 0
M  V30 3382 H 306.128 1.32569 -3.56552 0
M  V30 3383 H 307.44 1.94227 -4.59431 0
M  V30 3384 H 306.594 4.27958 -4.30043 0
M  V30 3385 H 305.333 3.70225 -3.17466 0
M  V30 3386 H 304.338 2.2918 -4.99757 0
M  V30 3387 H 305.563 2.8985 -6.14136 0
M  V30 3388 H 303.509 4.59935 -4.67756 0
M  V30 3389 H 303.426 4.11753 -6.34031 0
M  V30 3390 H 304.694 5.18644 -5.81918 0
M  V30 3391 N 308.923 1.53595 0.353017 0
M  V30 3392 C 310.153 1.74058 1.11299 0
M  V30 3393 C 310.561 0.475205 1.83135 0
M  V30 3394 O 309.904 -0.562344 1.74881 0
M  V30 3395 C 309.966 2.85994 2.17825 0
M  V30 3396 C 309.63 4.25923 1.65647 0
M  V30 3397 C 310.627 5.07829 1.11383 0
M  V30 3398 C 308.312 4.72377 1.7078 0
M  V30 3399 C 310.306 6.34285 0.629439 0
M  V30 3400 C 307.993 5.98808 1.21953 0
M  V30 3401 C 308.991 6.79594 0.681265 0
M  V30 3402 O 308.679 8.03651 0.200248 0
M  V30 3403 H 308.411 0.585327 0.338183 0
M  V30 3404 H 310.965 2.01186 0.413927 0
M  V30 3405 H 309.195 2.54368 2.91262 0
M  V30 3406 H 310.884 2.94515 2.79313 0
M  V30 3407 H 311.65 4.73107 1.06746 0
M  V30 3408 H 307.529 4.0956 2.11617 0
M  V30 3409 H 311.073 6.97288 0.208636 0
M  V30 3410 H 306.97 6.33026 1.26287 0
M  V30 3411 H 307.738 8.1788 0.318416 0
M  V30 3412 N 310.401 -0.613514 1.45168 0
M  V30 3413 C 311.364 -1.7065 1.53007 0
M  V30 3414 C 312.364 -1.5548 0.410184 0
M  V30 3415 O 313.554 -1.60656 0.673455 0
M  V30 3416 C 310.686 -3.09875 1.42093 0
M  V30 3417 H 311.879 -1.65068 2.50385 0
M  V30 3418 H 309.432 -0.828728 1.32521 0
M  V30 3419 H 310.167 -3.21039 0.458769 0
M  V30 3420 H 309.952 -3.22293 2.23315 0
M  V30 3421 H 311.442 -3.895 1.50598 0
M  V30 3422 N 311.879 -1.3236 -0.855495 0
M  V30 3423 C 312.809 -1.23833 -1.97958 0
M  V30 3424 C 313.79 -0.122361 -1.69659 0
M  V30 3425 O 314.975 -0.30939 -1.9172 0
M  V30 3426 C 312.105 -0.959772 -3.33775 0
M  V30 3427 C 311.059 -2.03689 -3.76424 0
M  V30 3428 C 310.385 -1.61075 -5.09862 0
M  V30 3429 C 311.685 -3.4518 -3.9198 0
M  V30 3430 H 313.379 -2.1788 -2.0535 0
M  V30 3431 H 310.925 -1.04891 -0.986605 0
M  V30 3432 H 312.878 -0.886678 -4.11966 0
M  V30 3433 H 311.602 0.0163404 -3.26596 0
M  V30 3434 H 310.261 -2.10012 -3.00484 0
M  V30 3435 H 309.909 -0.622107 -4.99138 0
M  V30 3436 H 309.609 -2.33143 -5.39368 0
M  V30 3437 H 311.133 -1.55201 -5.90546 0
M  V30 3438 H 312.547 -3.4145 -4.60526 0
M  V30 3439 H 310.944 -4.1559 -4.32903 0
M  V30 3440 H 312.014 -3.84903 -2.94919 0
M  V30 3441 N 313.357 1.07166 -1.15556 0
M  V30 3442 C 314.603 1.80222 -0.942961 0
M  V30 3443 C 314.958 1.85121 0.524209 0
M  V30 3444 O 314.251 1.32531 1.38369 0
M  V30 3445 C 314.445 3.24707 -1.49332 0
M  V30 3446 C 314.274 3.33887 -3.01247 0
M  V30 3447 C 313.044 3.44337 -3.69811 0
M  V30 3448 C 315.242 3.24484 -3.99017 0
M  V30 3449 N 313.224 3.42439 -5.09518 0
M  V30 3450 C 314.595 3.29726 -5.25053 0
M  V30 3451 C 316.65 3.08307 -3.90962 0
M  V30 3452 C 315.353 3.20455 -6.43973 0
M  V30 3453 C 317.379 3.00371 -5.09442 0
M  V30 3454 C 316.741 3.06227 -6.34354 0
M  V30 3455 H 312.84 0.672709 -0.398731 0
M  V30 3456 H 315.424 1.27905 -1.46794 0
M  V30 3457 H 313.595 3.7544 -0.994946 0
M  V30 3458 H 315.327 3.85894 -1.21935 0
M  V30 3459 H 312.082 3.48762 -3.20409 0
M  V30 3460 H 312.506 3.45013 -5.8249 0
M  V30 3461 H 317.148 3.02633 -2.95251 0
M  V30 3462 H 314.866 3.24888 -7.39914 0
M  V30 3463 H 318.452 2.88955 -5.04971 0
M  V30 3464 H 317.332 3.00132 -7.24493 0
M  V30 3465 N 314.835 0.952656 1.25548 0
M  V30 3466 C 316.081 0.616826 1.93822 0
M  V30 3467 C 316.436 -0.836684 1.73255 0
M  V30 3468 O 315.729 -1.59218 1.06584 0
M  V30 3469 C 315.923 0.908818 3.45652 0
M  V30 3470 C 315.752 2.38916 3.80984 0
M  V30 3471 C 314.522 3.04637 4.03143 0
M  V30 3472 C 316.72 3.36838 3.88645 0
M  V30 3473 N 314.702 4.42565 4.25453 0
M  V30 3474 C 316.073 4.60065 4.1562 0
M  V30 3475 C 318.128 3.31704 3.71318 0
M  V30 3476 C 316.831 5.78795 4.2707 0
M  V30 3477 C 318.857 4.4977 3.84006 0
M  V30 3478 C 318.219 5.71783 4.11392 0
M  V30 3479 H 314.318 0.27629 0.731565 0
M  V30 3480 H 316.902 1.22443 1.5138 0
M  V30 3481 H 315.073 0.330166 3.86994 0
M  V30 3482 H 316.805 0.533093 4.01174 0
M  V30 3483 H 313.56 2.55215 3.98952 0
M  V30 3484 H 313.984 5.1399 4.40617 0
M  V30 3485 H 318.626 2.3842 3.49164 0
M  V30 3486 H 316.344 6.72521 4.48041 0
M  V30 3487 H 319.93 4.47342 3.71989 0
M  V30 3488 H 318.81 6.61617 4.2099 0
M  V30 3489 N 316.313 -1.40141 0.720998 0
M  V30 3490 C 317.538 -2.05618 0.271258 0
M  V30 3491 C 317.963 -1.53978 -1.08039 0
M  V30 3492 O 317.321 -0.677463 -1.68167 0
M  V30 3493 C 317.369 -3.59609 0.267197 0
M  V30 3494 O 316.473 -4.05526 -0.749814 0
M  V30 3495 H 315.814 -0.651904 0.126162 0
M  V30 3496 H 318.344 -1.79439 0.982997 0
M  V30 3497 H 318.354 -4.0786 0.106744 0
M  V30 3498 H 317.029 -3.96559 1.25354 0
M  V30 3499 H 315.606 -3.68722 -0.556644 0
M  V30 3500 N 317.792 -0.46758 -1.50504 0
M  V30 3501 C 319.203 -0.0116166 -1.86696 0
M  V30 3502 C 319.554 1.39202 -1.38265 0
M  V30 3503 O 318.679 2.0313 -0.746132 0
M  V30 3504 C 319.274 -0.0143044 -3.38797 0
M  V30 3505 C 317.833 0.386175 -3.74414 0
M  V30 3506 C 316.98 -0.401287 -2.74381 0
M  V30 3507 H 319.931 -0.682022 -1.43297 0
M  V30 3508 H 319.952 0.788641 -3.72237 0
M  V30 3509 H 319.464 -1.03602 -3.74016 0
M  V30 3510 H 317.565 1.41237 -3.44794 0
M  V30 3511 H 317.678 0.0899596 -4.79016 0
M  V30 3512 H 316.042 0.144536 -2.5429 0
M  V30 3513 H 316.825 -1.42244 -3.12444 0
M  V30 3514 N 319.27 1.56325 -0.20005 0
M  V30 3515 C 320.218 2.20666 0.735482 0
M  V30 3516 C 321.212 1.17934 1.21605 0
M  V30 3517 O 322.418 1.36068 1.17837 0
M  V30 3518 H 318.793 0.70725 0.255542 0
M  V30 3519 H 320.764 2.9792 0.169166 0
M  V30 3520 C 319.513 2.88391 1.94232 0
M  V30 3521 H 318.836 3.67185 1.58161 0
M  V30 3522 H 320.276 3.3684 2.57517 0
M  V30 3523 C 318.735 1.89692 2.78421 0
M  V30 3524 O 319.265 1.40032 3.76502 0
M  V30 3525 N 317.471 1.57813 2.44015 0
M  V30 3526 H 317.018 1.9839 1.64314 0
M  V30 3527 H 316.976 0.920325 3.00628 0
M  V30 3528 N 320.748 -0.0735177 1.57428 0
M  V30 3529 C 321.996 -0.771472 1.86796 0
M  V30 3530 C 322.317 -1.78201 0.791804 0
M  V30 3531 O 321.587 -1.95074 -0.179718 0
M  V30 3532 H 320.167 -0.28791 0.689287 0
M  V30 3533 H 322.829 -0.0500161 1.94836 0
M  V30 3534 H 321.925 -1.28874 2.8425 0
M  V30 3535 N 322.226 -1.5378 -0.344866 0
M  V30 3536 C 323.173 -1.81676 -1.42346 0
M  V30 3537 C 324.143 -0.662376 -1.52321 0
M  V30 3538 O 325.328 -0.906675 -1.67881 0
M  V30 3539 C 322.468 -2.03087 -2.79015 0
M  V30 3540 C 321.581 -3.30799 -2.77842 0
M  V30 3541 C 320.716 -3.42285 -4.0622 0
M  V30 3542 C 319.755 -4.6395 -3.9927 0
M  V30 3543 N 318.892 -4.72477 -5.19336 0
M  V30 3544 H 323.732 -2.73703 -1.17858 0
M  V30 3545 H 321.269 -1.35568 -0.570949 0
M  V30 3546 H 323.227 -2.1349 -3.58438 0
M  V30 3547 H 321.857 -1.14375 -3.01858 0
M  V30 3548 H 320.909 -3.29244 -1.90533 0
M  V30 3549 H 322.221 -4.20314 -2.68584 0
M  V30 3550 H 321.375 -3.52113 -4.94066 0
M  V30 3551 H 320.114 -2.50823 -4.18258 0
M  V30 3552 H 319.119 -4.54201 -3.09809 0
M  V30 3553 H 320.344 -5.56775 -3.88817 0
M  V30 3554 H 318.29 -3.83924 -5.3192 0
M  V30 3555 H 318.207 -5.55927 -5.12329 0
M  V30 3556 H 319.475 -4.86613 -6.08957 0
M  V30 3557 N 323.704 0.605807 -1.45491 0
M  V30 3558 C 324.951 1.36476 -1.49601 0
M  V30 3559 C 325.279 1.94007 -0.138452 0
M  V30 3560 O 324.534 1.75638 0.863114 0
M  V30 3561 C 324.833 2.53012 -2.52428 0
M  V30 3562 C 324.499 2.13617 -3.97087 0
M  V30 3563 C 323.161 2.02587 -4.36477 0
M  V30 3564 C 325.513 1.82899 -4.88055 0
M  V30 3565 C 322.841 1.59064 -5.64726 0
M  V30 3566 C 325.193 1.40861 -6.16718 0
M  V30 3567 C 323.857 1.28391 -6.55036 0
M  V30 3568 H 323.127 0.499402 -0.547429 0
M  V30 3569 H 325.774 0.684546 -1.78847 0
M  V30 3570 H 324.079 3.26379 -2.16758 0
M  V30 3571 H 325.776 3.1124 -2.52845 0
M  V30 3572 H 322.366 2.23129 -3.65939 0
M  V30 3573 H 326.55 1.90317 -4.58359 0
M  V30 3574 H 321.806 1.48034 -5.93208 0
M  V30 3575 H 325.98 1.16138 -6.86648 0
M  V30 3576 H 323.607 0.944403 -7.54311 0
M  V30 3577 N 325.182 1.32811 0.848464 0
M  V30 3578 C 326.112 1.24882 1.97299 0
M  V30 3579 C 327.093 0.131357 1.69592 0
M  V30 3580 O 328.278 0.319553 1.91553 0
M  V30 3581 C 325.408 0.97746 3.33261 0
M  V30 3582 C 324.362 2.05682 3.75338 0
M  V30 3583 C 323.688 1.63777 5.09 0
M  V30 3584 C 324.988 3.47254 3.90144 0
M  V30 3585 H 326.682 2.18966 2.04191 0
M  V30 3586 H 324.228 1.05413 0.981029 0
M  V30 3587 H 326.181 0.908513 4.1149 0
M  V30 3588 H 324.905 0.000980011 3.266 0
M  V30 3589 H 323.564 2.11603 2.99366 0
M  V30 3590 H 323.212 0.648569 4.98801 0
M  V30 3591 H 322.912 2.36 5.38124 0
M  V30 3592 H 324.436 1.5833 5.89715 0
M  V30 3593 H 325.85 3.43888 4.58709 0
M  V30 3594 H 324.247 4.1788 4.30693 0
M  V30 3595 H 325.317 3.86462 2.92874 0
M  V30 3596 N 326.66 -1.06551 1.16123 0
M  V30 3597 C 327.623 -2.12132 0.867906 0
M  V30 3598 C 328.623 -1.60224 -0.135944 0
M  V30 3599 O 329.813 -1.73943 0.0946422 0
M  V30 3600 C 326.945 -3.396 0.297419 0
M  V30 3601 H 328.138 -2.39586 1.80385 0
M  V30 3602 H 325.691 -1.22574 0.969812 0
M  V30 3603 H 326.426 -3.17794 -0.64633 0
M  V30 3604 H 326.211 -3.78581 1.02073 0
M  V30 3605 H 327.701 -4.17455 0.110052 0
M  V30 3606 N 328.138 -0.959301 -1.25041 0
M  V30 3607 C 329.368 -0.63303 -1.96663 0
M  V30 3608 C 329.776 0.800031 -1.71453 0
M  V30 3609 O 329.119 1.54736 -0.99008 0
M  V30 3610 C 329.181 -0.817523 -3.50081 0
M  V30 3611 C 328.845 -2.22863 -3.98975 0
M  V30 3612 C 329.842 -3.20569 -4.09306 0
M  V30 3613 C 327.527 -2.55407 -4.32519 0
M  V30 3614 C 329.521 -4.4891 -4.52503 0
M  V30 3615 C 327.208 -3.83976 -4.754 0
M  V30 3616 C 328.206 -4.8054 -4.85356 0
M  V30 3617 O 327.894 -6.06817 -5.27284 0
M  V30 3618 H 327.626 -0.235866 -0.633516 0
M  V30 3619 H 330.18 -1.2874 -1.60047 0
M  V30 3620 H 328.41 -0.105992 -3.86555 0
M  V30 3621 H 330.099 -0.491604 -4.02912 0
M  V30 3622 H 330.865 -2.96753 -3.83618 0
M  V30 3623 H 326.744 -1.8097 -4.23994 0
M  V30 3624 H 330.288 -5.24283 -4.60188 0
M  V30 3625 H 326.185 -4.07596 -5.00535 0
M  V30 3626 H 326.953 -6.10262 -5.45457 0
M  V30 3627 N 329.616 1.39756 -0.72842 0
M  V30 3628 C 330.579 2.29012 -0.0927297 0
M  V30 3629 C 331.579 1.45992 0.674025 0
M  V30 3630 O 332.769 1.66749 0.50402 0
M  V30 3631 C 329.901 3.29396 0.878137 0
M  V30 3632 H 331.094 2.86729 -0.879011 0
M  V30 3633 H 328.647 1.48293 -0.493847 0
M  V30 3634 H 329.382 2.76722 1.69101 0
M  V30 3635 H 329.167 3.907 0.331051 0
M  V30 3636 H 330.657 3.96199 1.3197 0
M  V30 3637 N 331.094 0.475555 1.50254 0
M  V30 3638 C 332.004 -0.321501 2.32387 0
M  V30 3639 C 333.02 -0.991755 1.42969 0
M  V30 3640 O 334.196 -0.978747 1.76018 0
M  V30 3641 C 331.261 -1.38667 3.17762 0
M  V30 3642 C 330.322 -0.732538 4.23004 0
M  V30 3643 C 329.555 -1.74695 5.04299 0
M  V30 3644 O 329.778 -2.97399 4.86734 0
M  V30 3645 O 328.712 -1.31631 5.8733 0
M  V30 3646 H 332.538 0.350071 3.01676 0
M  V30 3647 H 330.123 0.237321 1.47503 0
M  V30 3648 H 332.005 -2.00354 3.70724 0
M  V30 3649 H 330.68 -2.04163 2.51196 0
M  V30 3650 H 329.587 -0.0765902 3.74022 0
M  V30 3651 H 330.92 -0.120452 4.92053 0
M  V30 3652 N 332.573 -1.56217 0.208337 0
M  V30 3653 C 333.82 -1.97949 -0.42692 0
M  V30 3654 C 334.148 -1.09562 -1.60706 0
M  V30 3655 O 333.403 -0.137616 -1.95216 0
M  V30 3656 C 333.702 -3.45441 -0.916797 0
M  V30 3657 C 333.368 -4.50646 0.151391 0
M  V30 3658 C 332.03 -4.79139 0.444867 0
M  V30 3659 C 334.382 -5.13811 0.874492 0
M  V30 3660 C 331.71 -5.68084 1.46619 0
M  V30 3661 C 334.062 -6.03861 1.88506 0
M  V30 3662 C 332.726 -6.30704 2.18559 0
M  V30 3663 H 331.996 -0.724345 -0.156221 0
M  V30 3664 H 334.643 -1.89006 0.308084 0
M  V30 3665 H 332.948 -3.51521 -1.73032 0
M  V30 3666 H 334.645 -3.75094 -1.41794 0
M  V30 3667 H 331.235 -4.28511 -0.0875068 0
M  V30 3668 H 335.419 -4.91879 0.660996 0
M  V30 3669 H 330.675 -5.87151 1.7048 0
M  V30 3670 H 334.849 -6.51861 2.45051 0
M  V30 3671 H 332.476 -6.99424 2.97843 0
M  V30 3672 N 334.051 0.0651679 -1.57465 0
M  V30 3673 C 334.999 1.09542 -2.05191 0
M  V30 3674 C 335.993 1.39675 -0.958509 0
M  V30 3675 O 337.199 1.39003 -1.14359 0
M  V30 3676 H 333.574 0.370623 -0.654326 0
M  V30 3677 H 335.545 0.666802 -2.90854 0
M  V30 3678 C 334.294 2.39881 -2.51699 0
M  V30 3679 H 333.617 2.17547 -3.3543 0
M  V30 3680 H 335.057 3.104 -2.88839 0
M  V30 3681 C 333.516 3.0631 -1.40271 0
M  V30 3682 O 334.046 3.94664 -0.748523 0
M  V30 3683 N 332.252 2.67041 -1.14618 0
M  V30 3684 H 331.799 1.95281 -1.67997 0
M  V30 3685 H 331.757 3.1181 -0.402688 0
M  V30 3686 N 335.529 1.53961 0.336706 0
M  V30 3687 C 336.806 1.62171 1.09361 0
M  V30 3688 C 337.186 0.447263 2.06307 0
M  V30 3689 O 336.534 -0.559802 2.21537 0
M  V30 3690 C 336.744 2.98565 1.80721 0
M  V30 3691 C 338.092 3.54157 2.34218 0
M  V30 3692 O 339.116 3.00784 1.90807 0
M  V30 3693 O 337.975 4.47528 3.13657 0
M  V30 3694 H 335.069 0.6562 0.503319 0
M  V30 3695 H 337.615 1.66307 0.33765 0
M  V30 3696 H 336.387 3.75482 1.10132 0
M  V30 3697 H 336.01 2.9805 2.63158 0
M  V30 3698 N 337.007 -0.598083 1.45811 0
M  V30 3699 C 338.235 -1.38322 1.53866 0
M  V30 3700 C 338.65 -1.87992 0.174479 0
M  V30 3701 O 338.007 -1.62756 -0.825627 0
M  V30 3702 C 338.058 -2.58125 2.53089 0
M  V30 3703 O 337.779 -2.10516 3.84206 0
M  V30 3704 C 339.28 -3.50869 2.70935 0
M  V30 3705 H 336.5 -0.423093 0.520801 0
M  V30 3706 H 339.044 -0.728527 1.91083 0
M  V30 3707 H 337.199 -3.19615 2.18917 0
M  V30 3708 H 337.613 -2.88425 4.38077 0
M  V30 3709 H 339.087 -4.31451 3.44317 0
M  V30 3710 H 339.564 -4.01822 1.77301 0
M  V30 3711 H 340.17 -2.95225 3.06141 0
M  V30 3712 N 338.485 -1.33259 -0.841409 0
M  V30 3713 C 339.762 -1.15174 -1.58096 0
M  V30 3714 C 340.142 0.282858 -2.09196 0
M  V30 3715 O 339.49 1.28151 -1.89181 0
M  V30 3716 C 339.7 -2.1907 -2.71679 0
M  V30 3717 C 341.048 -2.53093 -3.40924 0
M  V30 3718 O 342.072 -2.17717 -2.81918 0
M  V30 3719 O 340.931 -3.1379 -4.47435 0
M  V30 3720 H 338.025 -0.445303 -0.696875 0
M  V30 3721 H 340.571 -1.44833 -0.884385 0
M  V30 3722 H 339.343 -3.15443 -2.31541 0
M  V30 3723 H 338.966 -1.90481 -3.49002 0
M  V30 3724 N 339.963 1.05934 -1.16686 0
M  V30 3725 C 341.212 1.78188 -0.945085 0
M  V30 3726 C 341.525 1.88338 0.528021 0
M  V30 3727 O 342.731 2.57258 0.867799 0
M  V30 3728 C 341.187 3.20277 -1.64167 0
M  V30 3729 C 340.795 3.18281 -3.15279 0
M  V30 3730 C 342.539 3.97039 -1.502 0
M  V30 3731 C 340.446 4.55112 -3.7766 0
M  V30 3732 H 339.376 0.667866 -0.349959 0
M  V30 3733 H 342.027 1.18794 -1.39858 0
M  V30 3734 H 340.409 3.79952 -1.11589 0
M  V30 3735 H 341.583 2.68167 -3.74731 0
M  V30 3736 H 339.898 2.55018 -3.29173 0
M  V30 3737 H 342.495 4.98194 -1.94183 0
M  V30 3738 H 342.838 4.13845 -0.451461 0
M  V30 3739 H 343.371 3.43894 -1.99954 0
M  V30 3740 H 340.11 4.43512 -4.82677 0
M  V30 3741 H 339.63 5.05406 -3.22994 0
M  V30 3742 H 341.309 5.24064 -3.79428 0
M  V30 3743 N 341.441 0.965919 1.2453 0
M  V30 3744 C 342.852 0.665929 1.7442 0
M  V30 3745 C 343.203 -0.818407 1.78316 0
M  V30 3746 O 342.328 -1.64037 1.41141 0
M  V30 3747 C 342.923 1.20211 3.16757 0
M  V30 3748 C 341.482 0.952059 3.6416 0
M  V30 3749 C 340.629 1.33848 2.42858 0
M  V30 3750 H 343.58 1.14144 1.10258 0
M  V30 3751 H 343.601 0.567544 3.76244 0
M  V30 3752 H 343.113 2.28244 3.13889 0
M  V30 3753 H 341.214 -0.112821 3.72429 0
M  V30 3754 H 341.327 1.59645 4.51719 0
M  V30 3755 H 339.691 0.756864 2.43195 0
M  V30 3756 H 340.474 2.42827 2.42673 0
M  V30 3757 N 342.919 -1.39368 0.735821 0
M  V30 3758 C 344.165 -2.00794 0.284544 0
M  V30 3759 C 344.498 -1.58255 -1.12557 0
M  V30 3760 O 343.773 -0.811819 -1.76748 0
M  V30 3761 C 344.056 -3.58011 0.387337 0
M  V30 3762 C 343.909 -4.10566 1.83728 0
M  V30 3763 C 345.228 -4.395 -0.22975 0
M  V30 3764 H 342.347 -0.729501 0.104866 0
M  V30 3765 H 344.989 -1.65564 0.93213 0
M  V30 3766 H 343.139 -3.88154 -0.164006 0
M  V30 3767 H 344.811 -3.91139 2.44556 0
M  V30 3768 H 343.054 -3.64095 2.35833 0
M  V30 3769 H 343.725 -5.19702 1.86047 0
M  V30 3770 H 346.201 -4.15406 0.240257 0
M  V30 3771 H 345.077 -5.48752 -0.127485 0
M  V30 3772 H 345.338 -4.22062 -1.3159 0
M  V30 3773 N 344.397 -0.483516 -1.5 0
M  V30 3774 C 345.646 0.0689102 -2.01582 0
M  V30 3775 C 345.959 1.39655 -1.36952 0
M  V30 3776 O 347.165 2.03465 -1.79762 0
M  V30 3777 C 345.621 0.173302 -3.59483 0
M  V30 3778 C 345.229 -1.14665 -4.33077 0
M  V30 3779 C 346.973 0.677024 -4.19066 0
M  V30 3780 C 344.88 -1.00537 -5.82792 0
M  V30 3781 H 343.81 0.0295277 -0.753422 0
M  V30 3782 H 346.461 -0.620295 -1.72698 0
M  V30 3783 H 344.843 0.926569 -3.85007 0
M  V30 3784 H 346.017 -1.91184 -4.19268 0
M  V30 3785 H 344.332 -1.58244 -3.85159 0
M  V30 3786 H 346.929 0.799952 -5.28682 0
M  V30 3787 H 347.272 1.67151 -3.81269 0
M  V30 3788 H 347.805 -0.0192083 -3.97795 0
M  V30 3789 H 344.544 -1.9736 -6.25083 0
M  V30 3790 H 344.064 -0.280776 -5.99142 0
M  V30 3791 H 345.743 -0.677 -6.43448 0
M  V30 3792 N 345.875 1.56104 -0.216619 0
M  V30 3793 C 346.838 2.18819 0.681962 0
M  V30 3794 C 347.838 1.14866 1.12528 0
M  V30 3795 O 349.028 1.40128 1.03488 0
M  V30 3796 C 346.16 2.80756 1.93362 0
M  V30 3797 H 347.353 2.99595 0.135254 0
M  V30 3798 H 344.906 1.56265 0.0330003 0
M  V30 3799 H 345.641 2.03837 2.52232 0
M  V30 3800 H 345.426 3.56876 1.62426 0
M  V30 3801 H 346.916 3.28844 2.57393 0
M  V30 3802 N 347.353 -0.0568162 1.57498 0
M  V30 3803 C 348.583 -0.764515 1.91934 0
M  V30 3804 C 348.991 -1.70877 0.81227 0
M  V30 3805 O 348.334 -1.82351 -0.222213 0
M  V30 3806 C 348.396 -1.5994 3.21962 0
M  V30 3807 C 348.06 -0.822925 4.4953 0
M  V30 3808 C 349.057 -0.135464 5.19723 0
M  V30 3809 C 346.742 -0.785666 4.96117 0
M  V30 3810 C 348.736 0.578861 6.34766 0
M  V30 3811 C 346.423 -0.0675784 6.11063 0
M  V30 3812 C 347.421 0.613471 6.80239 0
M  V30 3813 O 347.109 1.31996 7.92989 0
M  V30 3814 H 346.841 -0.221647 0.63863 0
M  V30 3815 H 349.395 -0.0268218 2.05382 0
M  V30 3816 H 347.625 -2.38026 3.04763 0
M  V30 3817 H 349.314 -2.18715 3.41934 0
M  V30 3818 H 350.08 -0.155458 4.84751 0
M  V30 3819 H 345.959 -1.30524 4.42136 0
M  V30 3820 H 349.503 1.111 6.88696 0
M  V30 3821 H 345.4 -0.0455636 6.45484 0
M  V30 3822 H 346.168 1.23077 8.09194 0
M  V30 3823 N 348.832 -1.54138 -0.328536 0
M  V30 3824 C 350.057 -1.76378 -1.09112 0
M  V30 3825 C 350.482 -0.508596 -1.81094 0
M  V30 3826 O 349.84 0.539598 -1.73084 0
M  V30 3827 C 349.888 -2.95358 -2.06872 0
M  V30 3828 O 348.992 -2.66556 -3.14677 0
M  V30 3829 H 348.333 -0.584614 -0.314838 0
M  V30 3830 H 350.863 -2.01146 -0.374348 0
M  V30 3831 H 350.873 -3.22566 -2.4983 0
M  V30 3832 H 349.548 -3.86385 -1.5388 0
M  V30 3833 H 348.125 -2.50282 -2.7643 0
M  V30 3834 N 350.31 0.590341 -1.46126 0
M  V30 3835 C 351.54 1.37304 -1.54373 0
M  V30 3836 C 351.948 1.88332 -0.181071 0
M  V30 3837 O 351.291 1.63852 0.830559 0
M  V30 3838 C 351.353 2.6012 -2.48149 0
M  V30 3839 C 351.017 2.30613 -3.94546 0
M  V30 3840 C 352.014 1.89915 -4.83971 0
M  V30 3841 C 349.699 2.42993 -4.39613 0
M  V30 3842 C 351.693 1.61981 -6.16475 0
M  V30 3843 C 349.38 2.14672 -5.72153 0
M  V30 3844 C 350.378 1.7423 -6.60404 0
M  V30 3845 O 350.066 1.46251 -7.90485 0
M  V30 3846 H 349.798 0.426086 -0.524811 0
M  V30 3847 H 352.352 0.72539 -1.92165 0
M  V30 3848 H 350.582 3.27664 -2.05361 0
M  V30 3849 H 352.271 3.22182 -2.46887 0
M  V30 3850 H 353.037 1.79872 -4.50412 0
M  V30 3851 H 348.916 2.73435 -3.71153 0
M  V30 3852 H 352.46 1.30341 -6.85315 0
M  V30 3853 H 348.357 2.24337 -6.05263 0
M  V30 3854 H 349.125 1.6016 -8.02677 0
M  V30 3855 N 351.788 1.33704 0.83433 0
M  V30 3856 C 353.018 1.28281 1.6195 0
M  V30 3857 C 353.426 -0.147603 1.88623 0
M  V30 3858 O 352.769 -1.1016 1.47005 0
M  V30 3859 C 352.831 1.99386 2.99141 0
M  V30 3860 C 352.495 3.48681 2.95416 0
M  V30 3861 C 353.492 4.438 2.70809 0
M  V30 3862 C 351.177 3.90925 3.15409 0
M  V30 3863 C 353.171 5.79138 2.66229 0
M  V30 3864 C 350.858 5.26366 3.10454 0
M  V30 3865 C 351.856 6.20284 2.85895 0
M  V30 3866 O 351.544 7.53245 2.80852 0
M  V30 3867 H 351.276 0.44315 0.510484 0
M  V30 3868 H 353.83 1.76711 1.04702 0
M  V30 3869 H 352.06 1.45554 3.58261 0
M  V30 3870 H 353.749 1.87403 3.60049 0
M  V30 3871 H 354.515 4.12485 2.5511 0
M  V30 3872 H 350.394 3.18229 3.33543 0
M  V30 3873 H 353.938 6.52416 2.4698 0
M  V30 3874 H 349.835 5.57304 3.25703 0
M  V30 3875 H 350.603 7.62846 2.96661 0
M  V30 3876 N 353.266 -1.05314 1.17247 0
M  V30 3877 C 354.514 -1.77941 0.958194 0
M  V30 3878 C 354.835 -1.88089 -0.514556 0
M  V30 3879 O 354.105 -1.39676 -1.37359 0
M  V30 3880 H 352.685 -0.659116 0.351533 0
M  V30 3881 H 355.347 -1.27166 1.47699 0
M  V30 3882 H 354.443 -2.79663 1.38546 0
M  V30 3883 N 354.744 -0.972509 -1.24016 0
M  V30 3884 C 356.021 -0.553733 -1.87598 0
M  V30 3885 C 356.401 0.969158 -1.87538 0
M  V30 3886 O 355.749 1.84255 -1.35139 0
M  V30 3887 C 355.959 -1.15076 -3.29482 0
M  V30 3888 C 357.307 -1.23862 -4.06132 0
M  V30 3889 O 358.331 -1.10363 -3.38672 0
M  V30 3890 O 357.19 -1.45252 -5.26844 0
M  V30 3891 H 354.284 -0.185331 -0.805966 0
M  V30 3892 H 356.83 -1.06709 -1.31952 0
M  V30 3893 H 355.602 -2.19333 -3.2405 0
M  V30 3894 H 355.225 -0.621746 -3.92709 0
M  V30 3895 N 356.222 1.38976 -0.743202 0
M  V30 3896 C 357.132 2.3434 -0.110399 0
M  V30 3897 C 358.148 1.58741 0.712559 0
M  V30 3898 O 359.324 1.9099 0.639125 0
M  V30 3899 C 356.389 3.37812 0.780012 0
M  V30 3900 C 355.45 4.29263 -0.0561319 0
M  V30 3901 C 354.683 5.27793 0.791875 0
M  V30 3902 O 354.906 5.33043 2.03031 0
M  V30 3903 O 353.84 6.01512 0.216183 0
M  V30 3904 H 357.666 2.90129 -0.897714 0
M  V30 3905 H 355.251 1.40643 -0.503966 0
M  V30 3906 H 357.133 4.01194 1.28923 0
M  V30 3907 H 355.808 2.84395 1.546 0
M  V30 3908 H 354.715 3.69076 -0.611056 0
M  V30 3909 H 356.048 4.85907 -0.784531 0
M  V30 3910 N 357.7 0.491464 1.49741 0
M  V30 3911 C 358.632 -0.328609 2.26832 0
M  V30 3912 C 359.645 -0.939113 1.32983 0
M  V30 3913 O 360.834 -0.824067 1.58339 0
M  V30 3914 C 357.934 -1.47675 3.05033 0
M  V30 3915 C 357.107 -0.975305 4.26388 0
M  V30 3916 C 356.166 -1.99991 4.86714 0
M  V30 3917 O 355.192 -1.57229 5.47054 0
M  V30 3918 N 356.394 -3.32962 4.75517 0
M  V30 3919 H 359.159 0.332377 2.97851 0
M  V30 3920 H 356.72 0.323441 1.58636 0
M  V30 3921 H 358.712 -2.15954 3.42266 0
M  V30 3922 H 357.282 -2.04206 2.36683 0
M  V30 3923 H 356.502 -0.117723 3.94024 0
M  V30 3924 H 357.79 -0.618531 5.05026 0
M  V30 3925 H 357.188 -3.70399 4.27576 0
M  V30 3926 H 355.745 -3.96982 5.16961 0
M  V30 3927 N 359.178 -1.55987 0.224894 0
M  V30 3928 C 360.408 -2.02489 -0.41007 0
M  V30 3929 C 360.816 -1.10391 -1.53657 0
M  V30 3930 O 360.159 -0.106458 -1.83391 0
M  V30 3931 C 360.221 -3.45319 -0.999757 0
M  V30 3932 C 359.885 -4.56999 -0.00827976 0
M  V30 3933 C 360.882 -5.13812 0.793314 0
M  V30 3934 C 358.567 -5.02176 0.111442 0
M  V30 3935 C 360.561 -6.14276 1.7013 0
M  V30 3936 C 358.248 -6.02477 1.02296 0
M  V30 3937 C 359.246 -6.58403 1.81643 0
M  V30 3938 O 358.934 -7.56751 2.71262 0
M  V30 3939 H 358.666 -0.667915 -0.104235 0
M  V30 3940 H 361.22 -2.0257 0.339782 0
M  V30 3941 H 359.45 -3.42318 -1.79876 0
M  V30 3942 H 361.139 -3.7545 -1.54248 0
M  V30 3943 H 361.905 -4.79756 0.711288 0
M  V30 3944 H 357.784 -4.58323 -0.49605 0
M  V30 3945 H 361.328 -6.57854 2.32107 0
M  V30 3946 H 357.225 -6.35954 1.10599 0
M  V30 3947 H 357.993 -7.74286 2.65375 0
M  V30 3948 N 360.656 0.0484629 -1.57525 0
M  V30 3949 C 362.067 0.597486 -1.76881 0
M  V30 3950 C 362.418 1.76664 -0.853475 0
M  V30 3951 O 361.543 2.16357 -0.0433656 0
M  V30 3952 C 362.138 1.09066 -3.20765 0
M  V30 3953 C 360.697 1.58535 -3.41385 0
M  V30 3954 C 359.844 0.514868 -2.72478 0
M  V30 3955 H 362.795 -0.177758 -1.57701 0
M  V30 3956 H 362.816 1.95875 -3.2621 0
M  V30 3957 H 362.328 0.239521 -3.8736 0
M  V30 3958 H 360.429 2.45898 -2.79937 0
M  V30 3959 H 360.542 1.64622 -4.49929 0
M  V30 3960 H 358.906 0.965407 -2.35695 0
M  V30 3961 H 359.689 -0.32648 -3.41744 0
M  V30 3962 N 362.134 1.5431 0.320358 0
M  V30 3963 C 363.55 1.45091 0.664889 0
M  V30 3964 C 363.75 0.626382 1.91517 0
M  V30 3965 O 362.806 0.126443 2.52183 0
M  V30 3966 C 364.119 2.88848 0.83591 0
M  V30 3967 C 365.667 2.9877 0.933046 0
M  V30 3968 C 366.142 4.43683 1.13621 0
M  V30 3969 N 367.633 4.47309 1.20287 0
M  V30 3970 C 368.368 5.56595 1.37801 0
M  V30 3971 N 367.864 6.75844 1.52338 0
M  V30 3972 N 369.657 5.44248 1.40535 0
M  V30 3973 H 361.808 2.06398 -0.501374 0
M  V30 3974 H 364.071 0.933963 -0.162534 0
M  V30 3975 H 363.777 3.51698 -0.0116092 0
M  V30 3976 H 363.651 3.35148 1.73078 0
M  V30 3977 H 366.038 2.36045 1.77107 0
M  V30 3978 H 366.119 2.55796 0.0145782 0
M  V30 3979 H 365.763 5.06995 0.303032 0
M  V30 3980 H 365.693 4.84269 2.0686 0
M  V30 3981 H 368.184 3.61388 1.10485 0
M  V30 3982 H 368.497 7.54892 1.65403 0
M  V30 3983 H 366.842 6.78746 1.4943 0
M  V30 3984 H 370.033 4.50038 1.28777 0
M  V30 3985 H 370.206 6.29473 1.53842 0
M  V30 3986 N 363.613 -0.582584 1.46437 0
M  V30 3987 C 364.841 -1.36682 1.55324 0
M  V30 3988 C 365.256 -1.87796 0.194409 0
M  V30 3989 O 364.613 -1.63623 -0.808318 0
M  V30 3990 C 364.664 -2.55426 2.55812 0
M  V30 3991 O 364.385 -2.0643 3.86417 0
M  V30 3992 C 365.886 -3.47976 2.74641 0
M  V30 3993 H 363.106 -0.417545 0.525259 0
M  V30 3994 H 365.65 -0.708219 1.91845 0
M  V30 3995 H 363.805 -3.17275 2.22295 0
M  V30 3996 H 364.219 -2.83762 4.41111 0
M  V30 3997 H 365.693 -4.27775 3.48874 0
M  V30 3998 H 366.17 -3.99919 1.81553 0
M  V30 3999 H 366.776 -2.91962 3.09255 0
M  V30 4000 N 365.091 -1.34144 -0.827227 0
M  V30 4001 C 366.34 -1.25602 -1.5782 0
M  V30 4002 C 366.653 0.173445 -1.94829 0
M  V30 4003 O 367.859 0.380984 -2.68814 0
M  V30 4004 C 366.315 -2.20151 -2.84713 0
M  V30 4005 C 365.923 -3.68331 -2.55021 0
M  V30 4006 C 367.667 -2.20508 -3.62735 0
M  V30 4007 C 365.574 -4.54762 -3.78082 0
M  V30 4008 H 364.504 -0.466573 -0.592306 0
M  V30 4009 H 367.155 -1.59283 -0.911116 0
M  V30 4010 H 365.537 -1.79417 -3.53023 0
M  V30 4011 H 366.711 -4.17577 -1.94849 0
M  V30 4012 H 365.026 -3.7038 -1.90283 0
M  V30 4013 H 367.623 -2.82306 -4.54101 0
M  V30 4014 H 367.966 -1.20322 -3.98533 0
M  V30 4015 H 368.499 -2.59664 -3.01362 0
M  V30 4016 H 365.238 -5.55867 -3.47407 0
M  V30 4017 H 364.758 -4.10254 -4.37552 0
M  V30 4018 H 366.437 -4.69153 -4.45538 0
M  V30 4019 N 366.569 1.04691 -1.17803 0
M  V30 4020 C 367.517 2.14665 -0.895635 0
M  V30 4021 C 368.511 1.68806 0.141679 0
M  V30 4022 O 369.717 1.79999 -0.00587914 0
M  V30 4023 H 366.092 0.701038 -0.272121 0
M  V30 4024 H 368.063 2.35685 -1.83017 0
M  V30 4025 C 366.812 3.45019 -0.430962 0
M  V30 4026 H 366.135 3.8071 -1.22064 0
M  V30 4027 H 367.575 4.23125 -0.272301 0
M  V30 4028 C 366.034 3.25943 0.852207 0
M  V30 4029 O 366.564 3.5296 1.91786 0
M  V30 4030 N 364.77 2.79304 0.802346 0
M  V30 4031 H 364.317 2.57518 -0.0650788 0
M  V30 4032 H 364.275 2.66921 1.66134 0
M  V30 4033 N 368.047 0.979072 1.23499 0
M  V30 4034 C 369.296 0.642751 1.91185 0
M  V30 4035 C 369.609 -0.827253 1.77245 0
M  V30 4036 O 370.815 -1.27458 2.39722 0
M  V30 4037 C 369.271 1.09901 3.42709 0
M  V30 4038 C 368.879 2.59327 3.65313 0
M  V30 4039 C 370.623 0.836371 4.16179 0
M  V30 4040 C 368.53 2.98627 5.10467 0
M  V30 4041 H 367.46 0.236698 0.715884 0
M  V30 4042 H 370.111 1.1868 1.39955 0
M  V30 4043 H 368.493 0.48319 3.93041 0
M  V30 4044 H 369.667 3.26136 3.25533 0
M  V30 4045 H 367.982 2.83323 3.05151 0
M  V30 4046 H 370.579 1.10586 5.23139 0
M  V30 4047 H 370.922 -0.227509 4.15678 0
M  V30 4048 H 371.455 1.41371 3.71832 0
M  V30 4049 H 368.194 4.04133 5.16098 0
M  V30 4050 H 367.714 2.3651 5.51201 0
M  V30 4051 H 369.393 2.89159 5.78788 0
M  V30 4052 N 369.525 -1.3858 0.750561 0
M  V30 4053 C 370.936 -1.82927 0.373438 0
M  V30 4054 C 371.287 -1.62634 -1.09748 0
M  V30 4055 O 370.412 -1.12588 -1.84805 0
M  V30 4056 C 371.007 -3.32088 0.671029 0
M  V30 4057 C 369.566 -3.74795 0.34722 0
M  V30 4058 C 368.713 -2.61391 0.92575 0
M  V30 4059 H 371.664 -1.27351 0.946958 0
M  V30 4060 H 371.685 -3.80465 -0.0518269 0
M  V30 4061 H 371.197 -3.46826 1.74164 0
M  V30 4062 H 369.298 -3.65638 -0.716933 0
M  V30 4063 H 369.411 -4.71667 0.840656 0
M  V30 4064 H 367.775 -2.52265 0.351327 0
M  V30 4065 H 368.558 -2.78929 2.00133 0
M  V30 4066 N 371.003 -0.499398 -1.49478 0
M  V30 4067 C 372.233 0.0424839 -2.06556 0
M  V30 4068 C 372.641 1.31514 -1.36018 0
M  V30 4069 O 371.984 1.78555 -0.431718 0
M  V30 4070 C 372.046 0.368074 -3.57611 0
M  V30 4071 C 371.71 -0.806631 -4.49825 0
M  V30 4072 C 372.707 -1.69667 -4.91436 0
M  V30 4073 C 370.392 -1.00498 -4.92144 0
M  V30 4074 C 372.386 -2.76923 -5.74101 0
M  V30 4075 C 370.073 -2.08072 -5.74586 0
M  V30 4076 C 371.071 -2.96119 -6.15469 0
M  V30 4077 O 370.759 -4.01836 -6.96264 0
M  V30 4078 H 370.491 -0.0165165 -0.675798 0
M  V30 4079 H 373.045 -0.695497 -1.93267 0
M  V30 4080 H 371.275 1.15963 -3.68903 0
M  V30 4081 H 372.964 0.848381 -3.96935 0
M  V30 4082 H 373.73 -1.55524 -4.59388 0
M  V30 4083 H 369.609 -0.329036 -4.59824 0
M  V30 4084 H 373.153 -3.45676 -6.05932 0
M  V30 4085 H 369.05 -2.22211 -6.06047 0
M  V30 4086 H 369.818 -3.9917 -7.14567 0
M  V30 4087 N 372.481 1.55866 -0.233164 0
M  V30 4088 C 373.892 1.847 0.272554 0
M  V30 4089 C 374.243 1.15477 1.58617 0
M  V30 4090 O 373.368 0.42841 2.12117 0
M  V30 4091 C 373.963 3.35071 0.501299 0
M  V30 4092 C 372.522 3.6418 0.951304 0
M  V30 4093 C 371.669 2.77292 0.0208209 0
M  V30 4094 H 374.62 1.52005 -0.456074 0
M  V30 4095 H 374.641 3.55906 1.34577 0
M  V30 4096 H 374.153 3.85424 -0.454936 0
M  V30 4097 H 372.254 3.19293 1.92049 0
M  V30 4098 H 372.367 4.72071 0.817675 0
M  V30 4099 H 370.731 2.49131 0.529723 0
M  V30 4100 H 371.514 3.30448 -0.93054 0
M  V30 4101 N 373.959 -0.0401083 1.57549 0
M  V30 4102 C 374.906 -1.04413 2.05831 0
M  V30 4103 C 375.876 -1.36585 0.945184 0
M  V30 4104 O 377.061 -1.47112 1.21502 0
M  V30 4105 C 374.201 -2.34336 2.53339 0
M  V30 4106 C 373.314 -2.08419 3.78398 0
M  V30 4107 C 372.449 -3.32133 4.14561 0
M  V30 4108 C 371.488 -3.01721 5.3257 0
M  V30 4109 N 370.625 -4.17855 5.64218 0
M  V30 4110 H 375.465 -0.625442 2.91363 0
M  V30 4111 H 373.002 -0.297218 1.44066 0
M  V30 4112 H 374.96 -3.10234 2.78946 0
M  V30 4113 H 373.59 -2.73948 1.7074 0
M  V30 4114 H 372.642 -1.23069 3.59942 0
M  V30 4115 H 373.954 -1.81978 4.64419 0
M  V30 4116 H 373.108 -4.16406 4.41238 0
M  V30 4117 H 371.847 -3.61678 3.2717 0
M  V30 4118 H 370.852 -2.15849 5.05657 0
M  V30 4119 H 372.077 -2.73466 6.21605 0
M  V30 4120 H 370.023 -4.47372 4.79786 0
M  V30 4121 H 369.94 -3.94798 6.44725 0
M  V30 4122 H 371.208 -5.03033 5.95465 0
M  V30 4123 N 375.437 -1.54477 -0.31217 0
M  V30 4124 C 376.4 -1.83923 -1.36766 0
M  V30 4125 C 377.4 -0.711563 -1.44199 0
M  V30 4126 O 378.59 -0.979866 -1.44029 0
M  V30 4127 C 375.722 -2.0095 -2.75376 0
M  V30 4128 H 376.915 -2.78239 -1.11906 0
M  V30 4129 H 374.468 -1.46369 -0.548257 0
M  V30 4130 H 375.203 -1.08883 -3.05475 0
M  V30 4131 H 374.988 -2.83018 -2.71373 0
M  V30 4132 H 376.478 -2.2514 -3.51713 0
M  V30 4133 N 376.915 0.57481 -1.46744 0
M  V30 4134 C 378.163 1.33009 -1.52161 0
M  V30 4135 C 378.484 1.94185 -0.178092 0
M  V30 4136 O 377.754 1.7899 0.796196 0
M  V30 4137 H 376.334 0.493873 -0.560445 0
M  V30 4138 H 378.996 0.672589 -1.82927 0
M  V30 4139 H 378.092 2.13273 -2.27862 0
M  V30 4140 N 378.394 1.34581 0.820102 0
M  V30 4141 C 379.357 1.2628 1.91275 0
M  V30 4142 C 380.357 0.177344 1.59819 0
M  V30 4143 O 381.547 0.430156 1.68806 0
M  V30 4144 C 378.679 0.950327 3.27386 0
M  V30 4145 H 379.872 2.23421 2.00057 0
M  V30 4146 H 377.425 1.1891 1.0144 0
M  V30 4147 H 378.16 -0.0177938 3.24295 0
M  V30 4148 H 377.945 1.73549 3.51601 0
M  V30 4149 H 379.435 0.917492 4.07396 0
M  V30 4150 N 379.872 -1.04064 1.18357 0
M  V30 4151 C 380.819 -2.12077 0.910603 0
M  V30 4152 C 381.789 -1.65421 -0.15 0
M  V30 4153 O 382.974 -1.90797 -0.0103614 0
M  V30 4154 C 380.114 -3.42252 0.442472 0
M  V30 4155 C 379.227 -4.0252 1.5685 0
M  V30 4156 C 378.362 -5.20657 1.05309 0
M  V30 4157 C 377.401 -5.72955 2.1538 0
M  V30 4158 N 376.538 -6.8238 1.65233 0
M  V30 4159 H 381.378 -2.34764 1.83548 0
M  V30 4160 H 378.915 -1.15157 0.915279 0
M  V30 4161 H 380.873 -4.16921 0.152534 0
M  V30 4162 H 379.503 -3.19712 -0.445428 0
M  V30 4163 H 378.555 -3.25178 1.97391 0
M  V30 4164 H 379.867 -4.37362 2.39824 0
M  V30 4165 H 379.021 -6.0244 0.717677 0
M  V30 4166 H 377.76 -4.87318 0.19293 0
M  V30 4167 H 376.765 -4.89793 2.49766 0
M  V30 4168 H 377.99 -6.08337 3.01832 0
M  V30 4169 H 375.936 -6.50917 0.815064 0
M  V30 4170 H 375.853 -7.16286 2.41805 0
M  V30 4171 H 377.121 -7.67788 1.34619 0
M  V30 4172 N 381.35 -0.985608 -1.22978 0
M  V30 4173 C 382.298 -0.522631 -2.26652 0
M  V30 4174 C 383.292 0.422998 -1.64034 0
M  V30 4175 O 384.498 0.296319 -1.77544 0
M  V30 4176 H 380.873 -0.150597 -0.736766 0
M  V30 4177 H 382.844 -1.40863 -2.63059 0
M  V30 4178 C 381.593 0.154238 -3.47358 0
M  V30 4179 H 380.916 -0.564329 -3.95797 0
M  V30 4180 H 382.356 0.441744 -4.21693 0
M  V30 4181 C 380.815 1.38719 -3.07016 0
M  V30 4182 O 381.345 2.48307 -3.15764 0
M  V30 4183 N 379.551 1.25975 -2.61875 0
M  V30 4184 H 379.098 0.368068 -2.54957 0
M  V30 4185 H 379.056 2.08578 -2.3525 0
M  V30 4186 N 382.828 1.3818 -0.7579 0
M  V30 4187 C 384.239 1.82726 -0.383134 0
M  V30 4188 C 384.59 1.63214 1.08884 0
M  V30 4189 O 383.715 1.13566 1.84205 0
M  V30 4190 C 384.31 3.31728 -0.688631 0
M  V30 4191 C 382.869 3.74606 -0.367091 0
M  V30 4192 C 382.016 2.60896 -0.939599 0
M  V30 4193 H 384.967 1.26847 -0.953699 0
M  V30 4194 H 384.988 3.80487 0.0316492 0
M  V30 4195 H 384.5 3.45898 -1.76001 0
M  V30 4196 H 382.601 3.66013 0.697532 0
M  V30 4197 H 382.714 4.71215 -0.865658 0
M  V30 4198 H 381.078 2.52075 -0.3647 0
M  V30 4199 H 381.861 2.77864 -2.0161 0
M  V30 4200 N 384.306 0.507319 1.49211 0
M  V30 4201 C 385.552 -0.0350047 2.0277 0
M  V30 4202 C 385.885 -1.3606 1.38569 0
M  V30 4203 O 385.16 -1.87321 0.523542 0
M  V30 4204 C 385.443 -0.180916 3.59645 0
M  V30 4205 C 385.296 1.16825 4.34364 0
M  V30 4206 C 386.615 -0.918558 4.30407 0
M  V30 4207 H 383.734 -0.0112473 0.736914 0
M  V30 4208 H 386.376 0.659956 1.7817 0
M  V30 4209 H 384.526 -0.772826 3.80736 0
M  V30 4210 H 386.198 1.79952 4.24753 0
M  V30 4211 H 384.441 1.75594 3.96673 0
M  V30 4212 H 385.112 1.01939 5.42506 0
M  V30 4213 H 387.588 -0.41649 4.1401 0
M  V30 4214 H 386.464 -0.989505 5.39907 0
M  V30 4215 H 386.725 -1.96373 3.96093 0
M  V30 4216 N 385.784 -1.5574 0.241426 0
M  V30 4217 C 387.03 -1.99104 -0.385406 0
M  V30 4218 C 387.363 -1.1293 -1.57988 0
M  V30 4219 O 386.638 -0.191449 -1.93555 0
M  V30 4220 C 386.921 -3.51087 -0.800616 0
M  V30 4221 C 386.774 -4.48028 0.398874 0
M  V30 4222 C 388.093 -4.08015 -1.64959 0
M  V30 4223 H 385.212 -0.723848 -0.138614 0
M  V30 4224 H 387.854 -1.86903 0.341642 0
M  V30 4225 H 386.004 -3.61615 -1.4201 0
M  V30 4226 H 387.676 -4.49487 1.03726 0
M  V30 4227 H 385.919 -4.21077 1.04293 0
M  V30 4228 H 386.59 -5.51962 0.0651056 0
M  V30 4229 H 389.066 -4.00555 -1.12672 0
M  V30 4230 H 387.942 -5.14635 -1.90898 0
M  V30 4231 H 388.203 -3.56131 -2.61961 0
M  V30 4232 N 387.262 0.0317525 -1.57568 0
M  V30 4233 C 388.678 0.38735 -1.54828 0
M  V30 4234 C 388.878 1.7677 -0.967187 0
M  V30 4235 O 387.934 2.45581 -0.587063 0
M  V30 4236 C 389.247 0.291667 -2.99282 0
M  V30 4237 C 390.795 0.368946 -3.10818 0
M  V30 4238 C 391.27 0.302741 -4.56998 0
M  V30 4239 N 392.761 0.361617 -4.61786 0
M  V30 4240 C 393.496 0.333238 -5.72431 0
M  V30 4241 N 392.992 0.257308 -6.92322 0
M  V30 4242 N 394.785 0.382769 -5.60795 0
M  V30 4243 H 386.936 -0.871609 -1.93692 0
M  V30 4244 H 389.199 -0.331161 -0.888277 0
M  V30 4245 H 388.905 -0.656794 -3.45513 0
M  V30 4246 H 388.779 1.08638 -3.61217 0
M  V30 4247 H 391.166 1.30784 -2.64536 0
M  V30 4248 H 391.247 -0.455066 -2.5172 0
M  V30 4249 H 390.891 -0.632473 -5.03947 0
M  V30 4250 H 390.821 1.14482 -5.14005 0
M  V30 4251 H 393.312 0.422923 -3.75526 0
M  V30 4252 H 393.625 0.24068 -7.72425 0
M  V30 4253 H 391.97 0.223396 -6.94641 0
M  V30 4254 H 395.161 0.44006 -4.66027 0
M  V30 4255 H 395.334 0.357184 -6.47015 0
M  V30 4256 N 388.74 1.54641 0.303973 0
M  V30 4257 C 389.989 1.7299 1.03717 0
M  V30 4258 C 390.302 0.521168 1.88529 0
M  V30 4259 O 391.508 0.586408 2.65092 0
M  V30 4260 C 389.964 3.06051 1.89369 0
M  V30 4261 C 389.572 4.34393 1.09574 0
M  V30 4262 C 391.316 3.3376 2.62306 0
M  V30 4263 C 389.223 5.58506 1.94486 0
M  V30 4264 H 388.153 0.64473 0.390947 0
M  V30 4265 H 390.804 1.81124 0.294328 0
M  V30 4266 H 389.186 2.91874 2.67629 0
M  V30 4267 H 390.36 4.59396 0.359485 0
M  V30 4268 H 388.675 4.13597 0.482324 0
M  V30 4269 H 391.272 4.23687 3.26181 0
M  V30 4270 H 391.615 2.52503 3.3098 0
M  V30 4271 H 392.148 3.48894 1.91097 0
M  V30 4272 H 388.887 6.42422 1.30287 0
M  V30 4273 H 388.407 5.37694 2.65792 0
M  V30 4274 H 390.086 5.95651 2.52605 0
M  V30 4275 N 390.218 -0.567019 1.47046 0
M  V30 4276 C 391.465 -1.32462 1.53167 0
M  V30 4277 C 391.793 -1.93571 0.189841 0
M  V30 4278 O 391.048 -1.77865 -0.816243 0
M  V30 4279 C 391.347 -2.4623 2.59047 0
M  V30 4280 C 391.013 -2.03014 4.02612 0
M  V30 4281 C 389.675 -1.90944 4.41694 0
M  V30 4282 C 392.027 -1.69895 4.92732 0
M  V30 4283 C 389.355 -1.44035 5.68745 0
M  V30 4284 C 391.707 -1.2446 6.20236 0
M  V30 4285 C 390.371 -1.10979 6.5821 0
M  V30 4286 H 389.641 -0.484713 0.560477 0
M  V30 4287 H 392.288 -0.636888 1.80599 0
M  V30 4288 H 390.593 -3.20517 2.25335 0
M  V30 4289 H 392.29 -3.04427 2.61008 0
M  V30 4290 H 388.88 -2.13348 3.71726 0
M  V30 4291 H 393.064 -1.78098 4.63244 0
M  V30 4292 H 388.32 -1.32254 5.96925 0
M  V30 4293 H 392.494 -0.978924 6.89485 0
M  V30 4294 H 390.121 -0.744078 7.5655 0
M  V30 4295 N 391.696 -1.35014 -0.812953 0
M  V30 4296 C 392.945 -1.27269 -1.56479 0
M  V30 4297 C 393.258 0.152771 -1.95002 0
M  V30 4298 O 394.464 0.352451 -2.69203 0
M  V30 4299 C 392.92 -2.23159 -2.82362 0
M  V30 4300 C 392.528 -3.71016 -2.511 0
M  V30 4301 C 394.272 -2.24342 -3.60376 0
M  V30 4302 C 392.179 -4.58746 -3.73237 0
M  V30 4303 H 391.109 -0.472829 -0.587324 0
M  V30 4304 H 393.76 -1.6024 -0.894171 0
M  V30 4305 H 392.142 -1.83151 -3.51101 0
M  V30 4306 H 393.316 -4.1962 -1.90409 0
M  V30 4307 H 391.631 -3.72378 -1.86343 0
M  V30 4308 H 394.228 -2.87107 -4.51081 0
M  V30 4309 H 394.571 -1.24542 -3.97234 0
M  V30 4310 H 395.104 -2.62846 -2.98591 0
M  V30 4311 H 391.843 -5.59521 -3.41492 0
M  V30 4312 H 391.363 -4.14871 -4.33176 0
M  V30 4313 H 393.042 -4.73852 -4.40537 0
M  V30 4314 N 393.175 1.03435 -1.18907 0
M  V30 4315 C 394.424 1.76143 -0.982669 0
M  V30 4316 C 394.737 1.89416 0.487953 0
M  V30 4317 O 395.943 2.59041 0.813036 0
M  V30 4318 C 394.399 3.16722 -1.70924 0
M  V30 4319 C 394.007 3.11522 -3.21959 0
M  V30 4320 C 395.751 3.93764 -1.58588 0
M  V30 4321 C 393.658 4.46999 -3.87228 0
M  V30 4322 H 392.588 0.660292 -0.364047 0
M  V30 4323 H 395.239 1.158 -1.42347 0
M  V30 4324 H 393.621 3.775 -1.19623 0
M  V30 4325 H 394.795 2.60158 -3.80335 0
M  V30 4326 H 393.11 2.47978 -3.34508 0
M  V30 4327 H 395.707 4.93963 -2.04707 0
M  V30 4328 H 396.05 4.12794 -0.539142 0
M  V30 4329 H 396.583 3.39576 -2.07203 0
M  V30 4330 H 393.322 4.33174 -4.91976 0
M  V30 4331 H 392.842 4.98441 -3.33642 0
M  V30 4332 H 394.521 5.15898 -3.90459 0
M  V30 4333 N 394.653 0.992116 1.22453 0
M  V30 4334 C 395.93 0.583508 1.86694 0
M  V30 4335 C 396.31 -0.9392 1.89056 0
M  V30 4336 O 395.658 -1.82081 1.38053 0
M  V30 4337 C 395.868 1.20304 3.2761 0
M  V30 4338 C 397.216 1.30308 4.0411 0
M  V30 4339 O 398.24 1.15737 3.36873 0
M  V30 4340 O 397.099 1.53615 5.24466 0
M  V30 4341 H 394.193 0.198129 0.802916 0
M  V30 4342 H 396.739 1.08794 1.30238 0
M  V30 4343 H 395.511 2.24461 3.2052 0
M  V30 4344 H 395.134 0.684144 3.9167 0
M  V30 4345 N 396.131 -1.37776 0.765217 0
M  V30 4346 C 397.359 -2.04124 0.337767 0
M  V30 4347 C 397.774 -1.57715 -1.03785 0
M  V30 4348 O 397.131 -0.755447 -1.6613 0
M  V30 4349 C 397.182 -3.59658 0.364442 0
M  V30 4350 O 396.903 -4.04367 1.68579 0
M  V30 4351 C 398.404 -4.43236 -0.0754221 0
M  V30 4352 H 395.624 -0.655696 0.142491 0
M  V30 4353 H 398.168 -1.76238 1.03732 0
M  V30 4354 H 396.323 -3.86339 -0.286471 0
M  V30 4355 H 396.737 -4.98857 1.61993 0
M  V30 4356 H 398.211 -5.52 -0.00560067 0
M  V30 4357 H 398.688 -4.2455 -1.12491 0
M  V30 4358 H 399.294 -4.21767 0.547055 0
M  V30 4359 N 397.609 -0.515225 -1.4894 0
M  V30 4360 C 398.837 0.0206034 -2.0689 0
M  V30 4361 C 399.252 1.29514 -1.37374 0
M  V30 4362 O 398.609 1.76698 -0.456529 0
M  V30 4363 C 398.66 0.26351 -3.60538 0
M  V30 4364 O 398.381 -0.960517 -4.27441 0
M  V30 4365 C 399.882 0.841383 -4.35242 0
M  V30 4366 H 397.102 -0.0268608 -0.670462 0
M  V30 4367 H 399.646 -0.716651 -1.91532 0
M  V30 4368 H 397.801 0.950777 -3.75552 0
M  V30 4369 H 398.215 -0.73212 -5.19365 0
M  V30 4370 H 399.689 0.96085 -5.43573 0
M  V30 4371 H 400.166 1.8427 -3.98674 0
M  V30 4372 H 400.772 0.191143 -4.2487 0
M  V30 4373 N 399.087 1.5561 -0.249682 0
M  V30 4374 C 400.317 2.03116 0.377803 0
M  V30 4375 C 400.725 1.12822 1.51881 0
M  V30 4376 O 400.068 0.13562 1.83199 0
M  V30 4377 C 400.13 3.46866 0.944693 0
M  V30 4378 C 399.794 4.56955 -0.0644259 0
M  V30 4379 C 400.791 5.12485 -0.874957 0
M  V30 4380 C 398.476 5.01936 -0.19132 0
M  V30 4381 C 400.47 6.11491 -1.79881 0
M  V30 4382 C 398.157 6.00773 -1.11868 0
M  V30 4383 C 399.155 6.5543 -1.92095 0
M  V30 4384 O 398.843 7.5234 -2.83267 0
M  V30 4385 H 398.575 0.669489 0.0935961 0
M  V30 4386 H 401.129 2.02004 -0.371966 0
M  V30 4387 H 399.359 3.45136 1.74407 0
M  V30 4388 H 401.048 3.77856 1.48255 0
M  V30 4389 H 401.814 4.78564 -0.787523 0
M  V30 4390 H 397.693 4.59055 0.423072 0
M  V30 4391 H 401.237 6.54078 -2.42543 0
M  V30 4392 H 397.134 6.34114 -1.20703 0
M  V30 4393 H 397.902 7.69966 -2.7766 0
M  V30 4394 N 400.565 -0.0233959 1.57583 0
M  V30 4395 C 401.976 -0.56927 1.77809 0
M  V30 4396 C 402.327 -1.75284 0.881472 0
M  V30 4397 O 401.452 -2.1626 0.0777805 0
M  V30 4398 C 402.047 -1.03949 3.22459 0
M  V30 4399 C 400.606 -1.53084 3.43864 0
M  V30 4400 C 399.753 -0.471454 2.73263 0
M  V30 4401 H 402.704 0.202825 1.57399 0
M  V30 4402 H 402.725 -1.90661 3.29285 0
M  V30 4403 H 402.237 -0.177865 3.87692 0
M  V30 4404 H 400.338 -2.41414 2.83814 0
M  V30 4405 H 400.451 -1.57443 4.52491 0
M  V30 4406 H 398.815 -0.927788 2.37201 0
M  V30 4407 H 399.598 0.380808 3.41181 0
M  V30 4408 N 402.043 -1.548 -0.295768 0
M  V30 4409 C 403.006 -1.85363 -1.34808 0
M  V30 4410 C 404.006 -0.726817 -1.43436 0
M  V30 4411 O 405.196 -0.995088 -1.42981 0
M  V30 4412 C 402.328 -2.03859 -2.73229 0
M  V30 4413 H 403.521 -2.7941 -1.08949 0
M  V30 4414 H 401.074 -1.46942 -0.532702 0
M  V30 4415 H 401.809 -1.12117 -3.04303 0
M  V30 4416 H 401.594 -2.8588 -2.68356 0
M  V30 4417 H 403.084 -2.28857 -3.49305 0
M  V30 4418 N 403.521 0.559213 -1.47345 0
M  V30 4419 C 404.751 1.33999 -1.57251 0
M  V30 4420 C 405.159 1.87905 -0.220978 0
M  V30 4421 O 404.502 1.65577 0.795617 0
M  V30 4422 C 404.564 2.54798 -2.53611 0
M  V30 4423 C 404.228 2.22192 -3.99349 0
M  V30 4424 C 405.225 1.79607 -4.87891 0
M  V30 4425 C 402.91 2.33613 -4.44669 0
M  V30 4426 C 404.904 1.48868 -6.19772 0
M  V30 4427 C 402.591 2.02487 -5.76578 0
M  V30 4428 C 403.589 1.60183 -6.63951 0
M  V30 4429 O 403.277 1.29451 -7.93409 0
M  V30 4430 H 403.009 0.414858 -0.533731 0
M  V30 4431 H 405.563 0.684465 -1.9366 0
M  V30 4432 H 403.793 3.23235 -2.12265 0
M  V30 4433 H 405.482 3.16873 -2.53666 0
M  V30 4434 H 406.248 1.70278 -4.54126 0
M  V30 4435 H 402.127 2.65501 -3.76869 0
M  V30 4436 H 405.671 1.15775 -6.87926 0
M  V30 4437 H 401.568 2.11448 -6.09885 0
M  V30 4438 H 402.336 1.43098 -8.05894 0
M  V30 4439 N 404.999 1.35443 0.805782 0
M  V30 4440 C 406.245 1.28952 1.56522 0
M  V30 4441 C 406.578 -0.135597 1.93726 0
M  V30 4442 O 405.853 -1.08516 1.61414 0
M  V30 4443 C 406.136 2.19678 2.85331 0
M  V30 4444 C 405.989 3.7081 2.54598 0
M  V30 4445 C 407.308 2.09495 3.8704 0
M  V30 4446 H 404.427 0.469764 0.567883 0
M  V30 4447 H 407.069 1.65851 0.927001 0
M  V30 4448 H 405.219 1.8834 3.39795 0
M  V30 4449 H 406.891 4.12593 2.06312 0
M  V30 4450 H 405.134 3.91051 1.8778 0
M  V30 4451 H 405.805 4.29679 3.46525 0
M  V30 4452 H 408.281 2.37045 3.41978 0
M  V30 4453 H 407.157 2.75173 4.74943 0
M  V30 4454 H 407.418 1.07714 4.28777 0
M  V30 4455 N 406.477 -1.02803 1.19454 0
M  V30 4456 C 407.725 -1.75869 0.995722 0
M  V30 4457 C 408.046 -1.89138 -0.474543 0
M  V30 4458 O 407.316 -1.42558 -1.34366 0
M  V30 4459 H 405.896 -0.651511 0.365435 0
M  V30 4460 H 408.558 -1.24004 1.50363 0
M  V30 4461 H 407.654 -2.76661 1.44447 0
M  V30 4462 N 407.956 -0.998596 -1.21925 0
M  V30 4463 C 409.367 -0.711939 -1.72593 0
M  V30 4464 C 409.718 0.770842 -1.80423 0
M  V30 4465 O 408.843 1.60237 -1.4544 0
M  V30 4466 C 409.438 -1.28567 -3.13458 0
M  V30 4467 C 407.997 -1.04828 -3.61508 0
M  V30 4468 C 407.144 -1.4024 -2.39224 0
M  V30 4469 H 410.095 -1.17027 -1.07193 0
M  V30 4470 H 410.116 -0.667098 -3.74607 0
M  V30 4471 H 409.628 -2.36486 -3.07727 0
M  V30 4472 H 407.729 0.0140383 -3.72597 0
M  V30 4473 H 407.842 -1.71566 -4.47328 0
M  V30 4474 H 406.206 -0.821077 -2.41103 0
M  V30 4475 H 406.989 -2.49176 -2.36149 0
M  V30 4476 N 409.434 1.37368 -0.772513 0
M  V30 4477 C 410.366 2.28899 -0.117502 0
M  V30 4478 C 411.379 1.4867 0.663405 0
M  V30 4479 O 412.568 1.71314 0.501372 0
M  V30 4480 C 409.668 3.2788 0.857192 0
M  V30 4481 C 408.841 4.37207 0.129938 0
M  V30 4482 C 407.9 5.16257 1.01811 0
M  V30 4483 O 406.926 5.67159 0.481601 0
M  V30 4484 N 408.128 5.31058 2.3443 0
M  V30 4485 H 410.893 2.85752 -0.903662 0
M  V30 4486 H 408.454 1.49353 -0.62493 0
M  V30 4487 H 410.446 3.77647 1.45482 0
M  V30 4488 H 409.016 2.7179 1.54432 0
M  V30 4489 H 408.236 3.88827 -0.648605 0
M  V30 4490 H 409.524 5.07434 -0.372559 0
M  V30 4491 H 408.922 4.91287 2.80452 0
M  V30 4492 H 407.479 5.84131 2.89197 0
M  V30 4493 N 410.912 0.523116 1.48665 0
M  V30 4494 C 411.822 -0.247406 2.33292 0
M  V30 4495 C 412.838 -0.945769 1.46052 0
M  V30 4496 O 414.014 -0.922253 1.79043 0
M  V30 4497 C 411.079 -1.28487 3.22012 0
M  V30 4498 C 410.14 -0.597592 4.2512 0
M  V30 4499 C 409.373 -1.58563 5.09601 0
M  V30 4500 O 409.596 -2.81763 4.95949 0
M  V30 4501 O 408.53 -1.12879 5.91221 0
M  V30 4502 H 412.356 0.445869 3.00409 0
M  V30 4503 H 409.941 0.284128 1.46673 0
M  V30 4504 H 411.823 -1.88459 3.7691 0
M  V30 4505 H 410.498 -1.96068 2.57564 0
M  V30 4506 H 409.405 0.0424407 3.74076 0
M  V30 4507 H 410.738 0.0361517 4.92187 0
M  V30 4508 N 412.39 -1.55475 0.257931 0
M  V30 4509 C 413.636 -1.99502 -0.364266 0
M  V30 4510 C 413.969 -1.146 -1.56782 0
M  V30 4511 O 413.244 -0.211968 -1.93342 0
M  V30 4512 C 413.527 -3.51917 -0.763333 0
M  V30 4513 C 413.38 -4.4758 0.446371 0
M  V30 4514 C 414.699 -4.09742 -1.60623 0
M  V30 4515 H 411.818 -0.725277 -0.130929 0
M  V30 4516 H 414.46 -1.8653 0.361446 0
M  V30 4517 H 412.61 -3.63101 -1.38166 0
M  V30 4518 H 414.282 -4.48362 1.08487 0
M  V30 4519 H 412.525 -4.19947 1.08753 0
M  V30 4520 H 413.196 -5.51862 0.123645 0
M  V30 4521 H 415.672 -4.01727 -1.08418 0
M  V30 4522 H 414.548 -5.16631 -1.85429 0
M  V30 4523 H 414.809 -3.58889 -2.58169 0
M  V30 4524 N 413.868 0.0150385 -1.57593 0
M  V30 4525 C 415.279 0.559832 -1.78109 0
M  V30 4526 C 415.63 1.74814 -0.890756 0
M  V30 4527 O 414.755 2.16216 -0.0892482 0
M  V30 4528 C 415.35 1.02238 -3.23006 0
M  V30 4529 C 413.909 1.51258 -3.44671 0
M  V30 4530 C 413.056 0.456955 -2.73509 0
M  V30 4531 H 416.007 -0.211169 -1.57289 0
M  V30 4532 H 416.028 1.88912 -3.30292 0
M  V30 4533 H 415.54 0.157302 -3.87781 0
M  V30 4534 H 413.641 2.39905 -2.8509 0
M  V30 4535 H 413.754 1.55042 -4.5332 0
M  V30 4536 H 412.118 0.915196 -2.37689 0
M  V30 4537 H 412.901 -0.398896 -3.40975 0
M  V30 4538 N 415.346 1.54954 0.287554 0
M  V30 4539 C 416.592 1.75132 1.02257 0
M  V30 4540 C 416.925 0.542858 1.86458 0
M  V30 4541 O 416.2 -0.459856 1.88986 0
M  V30 4542 C 416.483 3.04812 1.91733 0
M  V30 4543 C 416.336 4.35985 1.10622 0
M  V30 4544 C 417.655 3.30438 2.90687 0
M  V30 4545 H 414.774 0.637194 0.370341 0
M  V30 4546 H 417.416 1.87678 0.296111 0
M  V30 4547 H 415.566 2.94247 2.53675 0
M  V30 4548 H 417.238 4.58487 0.508636 0
M  V30 4549 H 415.481 4.31865 0.409271 0
M  V30 4550 H 416.152 5.23017 1.76513 0
M  V30 4551 H 418.628 3.40701 2.38877 0
M  V30 4552 H 417.504 4.22467 3.50447 0
M  V30 4553 H 417.765 2.49377 3.65053 0
M  V30 4554 N 416.824 -0.551391 1.4764 0
M  V30 4555 C 418.235 -1.13349 1.48354 0
M  V30 4556 C 418.586 -1.94709 0.241432 0
M  V30 4557 O 417.711 -2.06306 -0.653205 0
M  V30 4558 C 418.306 -2.0623 2.68802 0
M  V30 4559 C 416.865 -2.597 2.72457 0
M  V30 4560 C 416.012 -1.36201 2.41546 0
M  V30 4561 H 418.963 -0.337698 1.55065 0
M  V30 4562 H 418.984 -2.90196 2.46103 0
M  V30 4563 H 418.496 -1.46987 3.59188 0
M  V30 4564 H 416.597 -3.22724 1.86225 0
M  V30 4565 H 416.71 -3.00296 3.73308 0
M  V30 4566 H 415.074 -1.67068 1.9225 0
M  V30 4567 H 415.857 -0.787425 3.34147 0
M  V30 4568 N 418.302 -1.35869 -0.798587 0
M  V30 4569 C 419.265 -1.29307 -1.89242 0
M  V30 4570 C 420.265 -0.202747 -1.59517 0
M  V30 4571 O 421.455 -0.456957 -1.681 0
M  V30 4572 C 418.587 -1.00229 -3.25833 0
M  V30 4573 H 419.78 -2.26576 -1.96478 0
M  V30 4574 H 417.333 -1.20509 -0.995358 0
M  V30 4575 H 418.068 -0.033801 -3.24282 0
M  V30 4576 H 417.853 -1.79121 -3.48795 0
M  V30 4577 H 419.343 -0.98219 -4.05885 0
M  V30 4578 N 419.78 1.02168 -1.19998 0
M  V30 4579 C 420.713 2.10232 -0.887558 0
M  V30 4580 C 421.691 1.61827 0.158317 0
M  V30 4581 O 422.875 1.88471 0.0330249 0
M  V30 4582 C 420.002 3.37092 -0.32964 0
M  V30 4583 C 419.048 4.0438 -1.3557 0
M  V30 4584 S 419.881 4.48956 -2.91888 0
M  V30 4585 C 421.037 5.79024 -2.37658 0
M  V30 4586 H 421.27 2.36409 -1.80272 0
M  V30 4587 H 418.803 1.15211 -1.0279 0
M  V30 4588 H 420.761 4.10498 -0.0142824 0
M  V30 4589 H 419.422 3.08996 0.563941 0
M  V30 4590 H 418.615 4.95632 -0.9146 0
M  V30 4591 H 418.217 3.37176 -1.61828 0
M  V30 4592 H 420.509 6.53942 -1.77103 0
M  V30 4593 H 421.452 6.27924 -3.27287 0
M  V30 4594 H 421.86 5.35043 -1.79971 0
M  V30 4595 N 421.258 1.00505 1.21394 0
M  V30 4596 C 422.507 0.683159 1.89778 0
M  V30 4597 C 422.82 -0.789471 1.7896 0
M  V30 4598 O 424.026 -1.22344 2.42372 0
M  V30 4599 C 422.482 1.17146 3.40301 0
M  V30 4600 C 422.09 2.67017 3.5973 0
M  V30 4601 C 423.834 0.924461 4.14311 0
M  V30 4602 C 421.741 3.09387 5.04017 0
M  V30 4603 H 420.671 0.25183 0.710702 0
M  V30 4604 H 423.322 1.21622 1.37406 0
M  V30 4605 H 421.704 0.566451 3.91928 0
M  V30 4606 H 422.878 3.32968 3.18542 0
M  V30 4607 H 421.193 2.89732 2.99073 0
M  V30 4608 H 423.79 1.21658 5.20676 0
M  V30 4609 H 424.133 -0.139286 4.16067 0
M  V30 4610 H 424.666 1.49226 3.6875 0
M  V30 4611 H 421.405 4.14989 5.07409 0
M  V30 4612 H 420.925 2.48149 5.46061 0
M  V30 4613 H 422.604 3.01371 5.72525 0
M  V30 4614 N 422.737 -1.36956 0.779787 0
M  V30 4615 C 423.7 -2.2851 0.177662 0
M  V30 4616 C 424.7 -1.48393 -0.619377 0
M  V30 4617 O 425.89 -1.68505 -0.441785 0
M  V30 4618 C 423.022 -3.32428 -0.755279 0
M  V30 4619 H 424.215 -2.83269 0.984823 0
M  V30 4620 H 421.768 -1.46358 0.548544 0
M  V30 4621 H 422.503 -2.82808 -1.58714 0
M  V30 4622 H 422.288 -3.91659 -0.185817 0
M  V30 4623 H 423.778 -4.00824 -1.17174 0
M  V30 4624 N 424.215 -0.530993 -1.48385 0
M  V30 4625 C 425.44 0.000729535 -2.074 0
M  V30 4626 C 425.865 1.27298 -1.3848 0
M  V30 4627 O 425.223 1.75599 -0.451081 0
M  V30 4628 C 425.271 0.206697 -3.60007 0
M  V30 4629 O 424.375 1.27514 -3.92191 0
M  V30 4630 H 423.716 -0.039583 -0.662819 0
M  V30 4631 H 426.246 -0.739194 -1.9078 0
M  V30 4632 H 426.256 0.42904 -4.05738 0
M  V30 4633 H 424.931 -0.722675 -4.09573 0
M  V30 4634 H 423.508 1.03537 -3.58238 0
M  V30 4635 N 425.693 1.55336 -0.266172 0
M  V30 4636 C 426.918 2.04258 0.359661 0
M  V30 4637 C 427.343 1.14359 1.49344 0
M  V30 4638 O 426.701 0.140369 1.80756 0
M  V30 4639 C 426.749 3.50997 0.826635 0
M  V30 4640 O 425.853 3.64204 1.93466 0
M  V30 4641 H 425.194 0.659668 0.075727 0
M  V30 4642 H 427.724 2.00694 -0.39786 0
M  V30 4643 H 427.734 3.9219 1.12477 0
M  V30 4644 H 426.409 4.159 -0.00293032 0
M  V30 4645 H 424.986 3.34913 1.63974 0
M  V30 4646 N 427.171 -0.0066808 1.57599 0
M  V30 4647 C 428.448 -0.729586 1.81484 0
M  V30 4648 C 428.828 -1.92359 0.869558 0
M  V30 4649 O 428.176 -2.28348 -0.0832533 0
M  V30 4650 C 428.386 -1.1416 3.29801 0
M  V30 4651 C 429.734 -1.54823 3.95367 0
M  V30 4652 O 430.758 -1.23558 3.34084 0
M  V30 4653 O 429.617 -2.12937 5.03309 0
M  V30 4654 H 426.711 -0.354674 0.747085 0
M  V30 4655 H 429.257 0.0182609 1.6969 0
M  V30 4656 H 428.029 -0.290231 3.90222 0
M  V30 4657 H 427.652 -1.94876 3.46568 0
M  V30 4658 N 428.649 -1.55105 -0.279332 0
M  V30 4659 C 429.879 -1.7917 -1.02867 0
M  V30 4660 C 430.287 -0.56204 -1.80659 0
M  V30 4661 O 429.63 0.478266 -1.77365 0
M  V30 4662 C 429.692 -2.96061 -2.03932 0
M  V30 4663 C 429.356 -4.33341 -1.45137 0
M  V30 4664 C 430.353 -5.12565 -0.870266 0
M  V30 4665 C 428.038 -4.79987 -1.48048 0
M  V30 4666 C 430.032 -6.36565 -0.326097 0
M  V30 4667 C 427.719 -6.03944 -0.932443 0
M  V30 4668 C 428.717 -6.8207 -0.356247 0
M  V30 4669 O 428.405 -8.03691 0.183412 0
M  V30 4670 H 428.137 -0.600796 -0.309872 0
M  V30 4671 H 430.691 -2.02932 -0.317468 0
M  V30 4672 H 428.921 -2.67975 -2.78794 0
M  V30 4673 H 430.61 -3.07506 -2.64943 0
M  V30 4674 H 431.376 -4.77661 -0.840521 0
M  V30 4675 H 427.255 -4.1919 -1.91835 0
M  V30 4676 H 430.799 -6.97489 0.124286 0
M  V30 4677 H 426.696 -6.3833 -0.959407 0
M  V30 4678 H 427.464 -8.18468 0.0721681 0
M  V30 4679 N 430.127 0.543554 -1.4793 0
M  V30 4680 C 431.357 1.32324 -1.58663 0
M  V30 4681 C 431.765 1.8766 -0.240896 0
M  V30 4682 O 431.108 1.66411 0.778011 0
M  V30 4683 C 431.17 2.52094 -2.56299 0
M  V30 4684 C 430.834 2.17944 -4.01683 0
M  V30 4685 C 431.831 1.74422 -4.89768 0
M  V30 4686 C 429.516 2.28884 -4.47121 0
M  V30 4687 C 431.51 1.42287 -6.21316 0
M  V30 4688 C 429.197 1.96361 -5.78693 0
M  V30 4689 C 430.195 1.53132 -6.65612 0
M  V30 4690 O 429.883 1.21029 -7.94737 0
M  V30 4691 H 429.615 0.409174 -0.538101 0
M  V30 4692 H 432.169 0.663887 -1.94375 0
M  V30 4693 H 430.399 3.20965 -2.15681 0
M  V30 4694 H 432.088 3.14165 -2.57012 0
M  V30 4695 H 432.854 1.65452 -4.55907 0
M  V30 4696 H 428.733 2.61488 -3.79664 0
M  V30 4697 H 432.277 1.08472 -6.89115 0
M  V30 4698 H 428.174 2.04967 -6.12094 0
M  V30 4699 H 428.942 1.34543 -8.07366 0
M  V30 4700 N 431.605 1.3629 0.791371 0
M  V30 4701 C 432.852 1.30412 1.54916 0
M  V30 4702 C 433.18 -0.117162 1.94147 0
M  V30 4703 O 432.435 -1.08599 1.62803 0
M  V30 4704 C 432.734 2.17068 2.8393 0
M  V30 4705 C 432.4 3.65645 2.63846 0
M  V30 4706 C 431.062 4.0614 2.58077 0
M  V30 4707 C 433.414 4.59855 2.45322 0
M  V30 4708 C 430.742 5.3899 2.31748 0
M  V30 4709 C 433.094 5.9292 2.2052 0
M  V30 4710 C 431.758 6.32542 2.13183 0
M  V30 4711 H 431.028 0.47721 0.566879 0
M  V30 4712 H 433.675 1.68325 0.913172 0
M  V30 4713 H 431.98 1.72085 3.51986 0
M  V30 4714 H 433.677 2.09846 3.4171 0
M  V30 4715 H 430.267 3.33518 2.69191 0
M  V30 4716 H 434.451 4.29443 2.48782 0
M  V30 4717 H 429.707 5.68672 2.24548 0
M  V30 4718 H 433.881 6.65487 2.05182 0
M  V30 4719 H 431.508 7.35412 1.92544 0
M  V30 4720 N 433.083 -1.0153 1.20538 0
M  V30 4721 C 434.308 -1.79283 1.04271 0
M  V30 4722 C 434.733 -1.8372 -0.403544 0
M  V30 4723 O 434.091 -1.27321 -1.2907 0
M  V30 4724 C 434.139 -3.21535 1.63241 0
M  V30 4725 O 433.243 -4.03099 0.870908 0
M  V30 4726 H 432.584 -0.55293 0.367647 0
M  V30 4727 H 435.114 -1.27696 1.59859 0
M  V30 4728 H 435.124 -3.72243 1.6703 0
M  V30 4729 H 433.799 -3.1762 2.68497 0
M  V30 4730 H 432.376 -3.61693 0.907323 0
M  V30 4731 N 434.561 -1.01147 -1.20859 0
M  V30 4732 C 435.807 -0.708598 -1.90658 0
M  V30 4733 C 436.162 0.753069 -1.7705 0
M  V30 4734 O 435.455 1.53952 -1.14059 0
M  V30 4735 C 435.649 -1.0727 -3.40922 0
M  V30 4736 C 435.478 -2.56821 -3.69152 0
M  V30 4737 C 434.248 -3.23524 -3.8815 0
M  V30 4738 C 436.446 -3.54997 -3.72131 0
M  V30 4739 N 434.428 -4.62359 -4.03853 0
M  V30 4740 C 435.799 -4.79371 -3.93196 0
M  V30 4741 C 437.854 -3.49042 -3.55069 0
M  V30 4742 C 436.557 -5.98512 -3.98969 0
M  V30 4743 C 438.583 -4.67579 -3.6211 0
M  V30 4744 C 437.945 -5.9076 -3.83643 0
M  V30 4745 H 434.044 -0.31088 -0.71755 0
M  V30 4746 H 436.628 -1.29526 -1.45366 0
M  V30 4747 H 434.799 -0.51443 -3.84978 0
M  V30 4748 H 436.531 -0.723891 -3.98173 0
M  V30 4749 H 433.286 -2.73958 -3.86321 0
M  V30 4750 H 433.71 -5.34427 -4.15592 0
M  V30 4751 H 438.352 -2.54808 -3.37391 0
M  V30 4752 H 436.07 -6.93132 -4.15444 0
M  V30 4753 H 439.656 -4.64581 -3.50222 0
M  V30 4754 H 438.536 -6.8095 -3.88944 0
M  V30 4755 N 436.039 1.36541 -0.78704 0
M  V30 4756 C 436.969 2.32659 -0.197992 0
M  V30 4757 C 437.95 1.56533 0.665697 0
M  V30 4758 O 439.135 1.84698 0.60001 0
M  V30 4759 C 436.265 3.40778 0.669901 0
M  V30 4760 C 435.219 4.27897 -0.0937039 0
M  V30 4761 C 434.545 5.27163 0.894629 0
M  V30 4762 C 435.845 5.06334 -1.28154 0
M  V30 4763 H 437.539 2.82171 -1.00099 0
M  V30 4764 H 435.085 1.35665 -0.482793 0
M  V30 4765 H 437.038 4.07008 1.09191 0
M  V30 4766 H 435.762 2.89827 1.50558 0
M  V30 4767 H 434.421 3.6322 -0.49666 0
M  V30 4768 H 434.069 4.72486 1.72527 0
M  V30 4769 H 433.769 5.86317 0.388149 0
M  V30 4770 H 435.293 5.96266 1.31525 0
M  V30 4771 H 436.707 5.65617 -0.93541 0
M  V30 4772 H 435.104 5.74888 -1.72115 0
M  V30 4773 H 436.174 4.38114 -2.07807 0
M  V30 4774 N 437.518 0.538854 1.48102 0
M  V30 4775 C 438.746 0.0123136 2.06896 0
M  V30 4776 C 439.161 -1.27312 1.39417 0
M  V30 4777 O 438.518 -1.75949 0.484582 0
M  V30 4778 C 438.569 -0.206118 3.60912 0
M  V30 4779 O 438.29 1.0284 4.25859 0
M  V30 4780 C 439.791 -0.772033 4.36526 0
M  V30 4781 H 437.011 0.0375239 0.66995 0
M  V30 4782 H 439.555 0.747032 1.90367 0
M  V30 4783 H 437.71 -0.89091 3.77017 0
M  V30 4784 H 438.124 0.814654 5.18135 0
M  V30 4785 H 439.598 -0.874251 5.45033 0
M  V30 4786 H 440.075 -1.77904 4.01555 0
M  V30 4787 H 440.681 -0.123526 4.25121 0
M  V30 4788 N 438.996 -1.55193 0.274407 0
M  V30 4789 C 440.242 -2.00604 -0.33608 0
M  V30 4790 C 440.597 -1.15948 -1.53538 0
M  V30 4791 O 439.89 -0.221385 -1.90317 0
M  V30 4792 C 440.084 -3.49019 -0.769458 0
M  V30 4793 C 439.913 -4.48038 0.386301 0
M  V30 4794 C 438.683 -4.97757 0.869854 0
M  V30 4795 C 440.881 -4.99558 1.22254 0
M  V30 4796 N 438.863 -5.80575 1.99515 0
M  V30 4797 C 440.234 -5.79816 2.19575 0
M  V30 4798 C 442.289 -4.81799 1.25597 0
M  V30 4799 C 440.992 -6.44208 3.19981 0
M  V30 4800 C 443.018 -5.46989 2.24848 0
M  V30 4801 C 442.38 -6.27058 3.20901 0
M  V30 4802 H 438.479 -0.777013 -0.088172 0
M  V30 4803 H 441.063 -1.90583 0.398266 0
M  V30 4804 H 439.234 -3.59383 -1.47303 0
M  V30 4805 H 440.966 -3.81263 -1.35722 0
M  V30 4806 H 437.721 -4.71464 0.449281 0
M  V30 4807 H 438.145 -6.26675 2.5614 0
M  V30 4808 H 442.787 -4.19501 0.527158 0
M  V30 4809 H 440.505 -7.05656 3.93796 0
M  V30 4810 H 444.091 -5.35189 2.28174 0
M  V30 4811 H 442.971 -6.7661 3.96445 0
M  V30 4812 N 440.474 -0.00167713 -1.576 0
M  V30 4813 C 441.72 0.683832 -1.90923 0
M  V30 4814 C 442.053 1.7333 -0.875799 0
M  V30 4815 O 441.328 1.94215 0.10525 0
M  V30 4816 C 441.611 1.32543 -3.3482 0
M  V30 4817 C 441.464 0.287387 -4.48881 0
M  V30 4818 C 442.783 2.25114 -3.78169 0
M  V30 4819 H 439.902 0.247125 -0.694333 0
M  V30 4820 H 442.544 -0.0533149 -1.89925 0
M  V30 4821 H 440.694 1.95372 -3.35801 0
M  V30 4822 H 442.366 -0.341346 -4.60035 0
M  V30 4823 H 440.609 -0.39017 -4.32042 0
M  V30 4824 H 441.28 0.775393 -5.46527 0
M  V30 4825 H 443.756 1.723 -3.7875 0
M  V30 4826 H 442.632 2.66971 -4.79602 0
M  V30 4827 H 442.893 3.13092 -3.12131 0
M  V30 4828 N 441.952 1.55251 0.271103 0
M  V30 4829 C 443.18 1.79974 1.02064 0
M  V30 4830 C 443.595 0.574003 1.79863 0
M  V30 4831 O 442.952 -0.456962 1.76686 0
M  V30 4832 C 443.003 3.02603 1.97772 0
M  V30 4833 O 442.724 4.20443 1.23124 0
M  V30 4834 C 444.225 3.39944 2.84522 0
M  V30 4835 H 441.445 0.599489 0.301419 0
M  V30 4836 H 443.989 2.02268 0.301313 0
M  V30 4837 H 442.144 2.8243 2.65165 0
M  V30 4838 H 442.558 4.89783 1.87651 0
M  V30 4839 H 444.032 4.28915 3.47471 0
M  V30 4840 H 444.509 2.59432 3.54389 0
M  V30 4841 H 445.115 3.62383 2.22618 0
M  V30 4842 N 443.43 -0.535701 1.48216 0
M  V30 4843 C 444.707 -1.29683 1.46429 0
M  V30 4844 C 445.087 -2.10391 0.172852 0
M  V30 4845 O 444.435 -2.12282 -0.845488 0
M  V30 4846 C 444.645 -2.18313 2.72287 0
M  V30 4847 C 445.993 -2.78639 3.20383 0
M  V30 4848 O 447.017 -2.28604 2.73164 0
M  V30 4849 O 445.876 -3.69636 4.02531 0
M  V30 4850 H 442.97 -0.585026 0.584529 0
M  V30 4851 H 445.516 -0.552827 1.60443 0
M  V30 4852 H 444.288 -1.58421 3.57797 0
M  V30 4853 H 443.911 -2.99971 2.60966 0
M  V30 4854 N 444.908 -1.36708 -0.784132 0
M  V30 4855 C 445.818 -1.3363 -1.92822 0
M  V30 4856 C 446.834 -0.237686 -1.72369 0
M  V30 4857 O 448.01 -0.470962 -1.95816 0
M  V30 4858 C 445.075 -1.13011 -3.27764 0
M  V30 4859 C 444.136 -2.32397 -3.60957 0
M  V30 4860 C 443.369 -2.12752 -4.89461 0
M  V30 4861 O 443.592 -1.10541 -5.59586 0
M  V30 4862 O 442.526 -3.00653 -5.21432 0
M  V30 4863 H 446.352 -2.29964 -1.98369 0
M  V30 4864 H 443.937 -1.1731 -0.925136 0
M  V30 4865 H 445.819 -1.03451 -4.08504 0
M  V30 4866 H 444.494 -0.19743 -3.23097 0
M  V30 4867 H 443.401 -2.47527 -2.80502 0
M  V30 4868 H 444.734 -3.2419 -3.70354 0
M  V30 4869 N 446.386 1.0089 -1.21074 0
M  V30 4870 C 447.802 1.2695 -0.967257 0
M  V30 4871 C 448.002 1.9846 0.348673 0
M  V30 4872 O 447.058 2.28459 1.0753 0
M  V30 4873 C 448.371 2.09697 -2.15517 0
M  V30 4874 C 449.919 2.22937 -2.197 0
M  V30 4875 C 450.394 3.09064 -3.37999 0
M  V30 4876 N 451.885 3.16653 -3.38061 0
M  V30 4877 C 452.62 3.8354 -4.26245 0
M  V30 4878 N 452.116 4.52488 -5.2462 0
M  V30 4879 N 453.909 3.80141 -4.14064 0
M  V30 4880 H 446.06 0.529005 -2.05707 0
M  V30 4881 H 448.323 0.296148 -0.900556 0
M  V30 4882 H 448.029 1.64497 -3.10859 0
M  V30 4883 H 447.903 3.10444 -2.14253 0
M  V30 4884 H 450.29 2.67357 -1.24916 0
M  V30 4885 H 450.371 1.21673 -2.2501 0
M  V30 4886 H 450.015 2.65347 -4.33074 0
M  V30 4887 H 449.945 4.10433 -3.29928 0
M  V30 4888 H 452.436 2.67566 -2.66865 0
M  V30 4889 H 452.749 5.01219 -5.88217 0
M  V30 4890 H 451.094 4.51288 -5.28549 0
M  V30 4891 H 454.285 3.25427 -3.36474 0
M  V30 4892 H 454.458 4.31992 -4.82998 0
M  V30 4893 N 447.864 1.01787 1.20321 0
M  V30 4894 C 449.11 0.708985 1.90003 0
M  V30 4895 C 449.443 -0.759572 1.78729 0
M  V30 4896 O 448.718 -1.55198 1.17234 0
M  V30 4897 C 449.001 1.1469 3.41348 0
M  V30 4898 C 448.854 2.67586 3.61549 0
M  V30 4899 C 450.173 0.71915 4.34185 0
M  V30 4900 H 447.292 0.259034 0.689978 0
M  V30 4901 H 449.934 1.26584 1.41692 0
M  V30 4902 H 448.084 0.673128 3.82624 0
M  V30 4903 H 449.756 3.22826 3.29517 0
M  V30 4904 H 447.999 3.085 3.04976 0
M  V30 4905 H 448.67 2.93281 4.67643 0
M  V30 4906 H 451.146 1.12647 4.00562 0
M  V30 4907 H 450.022 1.05358 5.38694 0
M  V30 4908 H 450.283 -0.379111 4.40472 0
M  V30 4909 N 449.342 -1.36122 0.79427 0
M  V30 4910 C 450.582 -2.00942 0.374376 0
M  V30 4911 C 450.946 -1.61666 -1.03577 0
M  V30 4912 O 452.147 -2.19113 -1.55701 0
M  V30 4913 C 450.418 -3.53323 0.538327 0
M  V30 4914 S 451.977 -4.38311 0.20703 0
M  V30 4915 H 448.795 -0.696515 0.142785 0
M  V30 4916 H 451.397 -1.65929 1.03382 0
M  V30 4917 H 450.101 -3.79395 1.56484 0
M  V30 4918 H 449.632 -3.93162 -0.136882 0
M  V30 4919 H 451.647 -4.8623 -0.989695 0
M  V30 4920 N 450.82 -0.546701 -1.47814 0
M  V30 4921 C 451.75 0.195317 -2.32682 0
M  V30 4922 C 452.731 0.918981 -1.43139 0
M  V30 4923 O 453.916 0.901501 -1.72008 0
M  V30 4924 C 451.046 1.23237 -3.247 0
M  V30 4925 C 450 0.625818 -4.234 0
M  V30 4926 C 449.326 1.76674 -5.04669 0
M  V30 4927 C 450.626 -0.413515 -5.2066 0
M  V30 4928 H 452.32 -0.513184 -2.94969 0
M  V30 4929 H 449.866 -0.248241 -1.41844 0
M  V30 4930 H 451.819 1.75955 -3.82907 0
M  V30 4931 H 450.543 1.97067 -2.60446 0
M  V30 4932 H 449.202 0.120023 -3.66403 0
M  V30 4933 H 448.85 2.49383 -4.36826 0
M  V30 4934 H 448.55 1.36673 -5.71484 0
M  V30 4935 H 450.074 2.29738 -5.65732 0
M  V30 4936 H 451.488 0.0272042 -5.73294 0
M  V30 4937 H 449.885 -0.731825 -5.95621 0
M  V30 4938 H 450.955 -1.31325 -4.66778 0
M  V30 4939 N 452.299 1.55045 -0.282633 0
M  V30 4940 C 453.231 2.2023 0.634924 0
M  V30 4941 C 454.244 1.18931 1.11172 0
M  V30 4942 O 455.433 1.4562 1.03233 0
M  V30 4943 C 452.533 2.82041 1.87899 0
M  V30 4944 C 451.706 4.091 1.54776 0
M  V30 4945 C 450.765 4.54887 2.64507 0
M  V30 4946 O 449.791 5.20496 2.30375 0
M  V30 4947 N 450.993 4.25659 3.94709 0
M  V30 4948 H 453.758 2.99601 0.0769811 0
M  V30 4949 H 451.319 1.61565 -0.104048 0
M  V30 4950 H 453.311 3.09613 2.60619 0
M  V30 4951 H 451.881 2.06618 2.3458 0
M  V30 4952 H 451.101 3.88736 0.654049 0
M  V30 4953 H 452.389 4.9187 1.30158 0
M  V30 4954 H 451.787 3.7306 4.25256 0
M  V30 4955 H 450.344 4.57984 4.63782 0
M  V30 4956 N 453.777 0.010035 1.57597 0
M  V30 4957 C 455.023 -0.668011 1.92118 0
M  V30 4958 C 455.378 -1.70821 0.885328 0
M  V30 4959 O 454.671 -1.91333 -0.101187 0
M  V30 4960 C 454.865 -1.34434 3.31153 0
M  V30 4961 C 454.694 -0.371176 4.48166 0
M  V30 4962 C 453.464 0.0220686 5.05295 0
M  V30 4963 C 455.662 0.366731 5.12991 0
M  V30 4964 N 453.644 0.9924 6.05826 0
M  V30 4965 C 455.015 1.19142 6.08445 0
M  V30 4966 C 457.07 0.429489 4.96044 0
M  V30 4967 C 455.773 2.07317 6.88776 0
M  V30 4968 C 457.799 1.2985 5.76969 0
M  V30 4969 C 457.161 2.11101 6.72023 0
M  V30 4970 H 453.26 -0.217337 0.751192 0
M  V30 4971 H 455.844 0.0727375 1.94564 0
M  V30 4972 H 454.015 -2.05533 3.29561 0
M  V30 4973 H 455.747 -1.97789 3.53075 0
M  V30 4974 H 452.502 -0.348409 4.72317 0
M  V30 4975 H 452.926 1.47324 6.60776 0
M  V30 4976 H 457.568 -0.18442 4.22398 0
M  V30 4977 H 455.286 2.69771 7.61741 0
M  V30 4978 H 458.872 1.3511 5.65894 0
M  V30 4979 H 457.752 2.77257 7.33552 0
M  V30 4980 N 455.255 -1.55392 -0.262866 0
M  V30 4981 C 456.185 -1.91978 -1.32917 0
M  V30 4982 C 457.166 -0.7828 -1.51017 0
M  V30 4983 O 458.351 -1.04178 -1.63892 0
M  V30 4984 C 455.481 -2.20055 -2.68687 0
M  V30 4985 C 454.435 -3.35854 -2.65304 0
M  V30 4986 C 453.761 -3.49435 -4.04721 0
M  V30 4987 C 455.061 -4.71977 -2.23685 0
M  V30 4988 H 456.755 -2.81292 -1.02544 0
M  V30 4989 H 454.301 -1.3534 -0.491846 0
M  V30 4990 H 456.254 -2.44237 -3.43404 0
M  V30 4991 H 454.978 -1.27551 -3.00663 0
M  V30 4992 H 453.637 -3.11655 -1.93045 0
M  V30 4993 H 453.285 -2.54379 -4.33936 0
M  V30 4994 H 452.985 -4.27297 -4.0335 0
M  V30 4995 H 454.509 -3.7592 -4.81161 0
M  V30 4996 H 455.923 -4.95637 -2.88127 0
M  V30 4997 H 454.32 -5.52828 -2.33456 0
M  V30 4998 H 455.39 -4.70115 -1.18827 0
M  V30 4999 N 456.733 0.527833 -1.48498 0
M  V30 5000 C 457.68 1.6322 -1.6318 0
M  V30 5001 C 458.65 1.59199 -0.473815 0
M  V30 5002 O 459.835 1.77591 -0.697563 0
M  V30 5003 C 456.975 3.01474 -1.67951 0
M  V30 5004 C 456.088 3.15713 -2.94871 0
M  V30 5005 C 455.223 4.44539 -2.90789 0
M  V30 5006 C 454.262 4.52315 -4.12404 0
M  V30 5007 N 453.399 5.72533 -4.06387 0
M  V30 5008 H 458.239 1.50011 -2.57489 0
M  V30 5009 H 455.776 0.730298 -1.27691 0
M  V30 5010 H 457.734 3.81572 -1.68698 0
M  V30 5011 H 456.364 3.1345 -0.771306 0
M  V30 5012 H 455.416 2.28854 -3.03859 0
M  V30 5013 H 456.728 3.1732 -3.8485 0
M  V30 5014 H 455.882 5.3293 -2.89949 0
M  V30 5015 H 454.621 4.45457 -1.98542 0
M  V30 5016 H 453.626 3.62331 -4.13517 0
M  V30 5017 H 454.851 4.53134 -5.05812 0
M  V30 5018 H 452.797 5.74344 -3.16962 0
M  V30 5019 H 452.714 5.75643 -4.90073 0
M  V30 5020 H 453.982 6.63204 -4.0961 0
M  V30 5021 N 458.211 1.37122 0.776871 0
M  V30 5022 C 459.627 1.1781 1.07671 0
M  V30 5023 C 459.827 0.0107454 2.01497 0
M  V30 5024 O 458.883 -0.650756 2.4397 0
M  V30 5025 C 460.196 2.49451 1.67913 0
M  V30 5026 C 461.744 2.55927 1.80195 0
M  V30 5027 C 462.219 3.87686 2.43851 0
M  V30 5028 N 463.71 3.891 2.51307 0
M  V30 5029 C 464.445 4.87797 3.014 0
M  V30 5030 N 463.941 5.96888 3.51705 0
M  V30 5031 N 465.734 4.75205 3.00227 0
M  V30 5032 H 457.885 2.11843 0.153778 0
M  V30 5033 H 460.148 0.938927 0.130844 0
M  V30 5034 H 459.854 3.35207 1.06439 0
M  V30 5035 H 459.728 2.66169 2.67271 0
M  V30 5036 H 462.115 1.70582 2.40803 0
M  V30 5037 H 462.196 2.43097 0.796069 0
M  V30 5038 H 461.84 4.73444 1.83884 0
M  V30 5039 H 461.77 3.97817 3.45035 0
M  V30 5040 H 464.261 3.10293 2.157 0
M  V30 5041 H 464.574 6.68155 3.88316 0
M  V30 5042 H 462.919 6.0054 3.49824 0
M  V30 5043 H 466.11 3.89103 2.60224 0
M  V30 5044 H 466.283 5.52279 3.38957 0
M  V30 5045 N 459.689 -1.00246 1.21608 0
M  V30 5046 C 460.935 -1.74319 1.03638 0
M  V30 5047 C 461.268 -1.89408 -0.428749 0
M  V30 5048 O 460.543 -1.43026 -1.3181 0
M  V30 5049 C 460.826 -3.15431 1.73711 0
M  V30 5050 C 460.679 -3.08049 3.27759 0
M  V30 5051 C 461.998 -4.14407 1.48173 0
M  V30 5052 H 459.117 -0.632741 0.377899 0
M  V30 5053 H 461.759 -1.16853 1.49818 0
M  V30 5054 H 459.909 -3.64493 1.34452 0
M  V30 5055 H 461.581 -2.66681 3.76403 0
M  V30 5056 H 459.824 -2.45088 3.57931 0
M  V30 5057 H 460.495 -4.07862 3.71958 0
M  V30 5058 H 462.971 -3.74061 1.82258 0
M  V30 5059 H 461.847 -5.11279 1.99713 0
M  V30 5060 H 462.108 -4.40174 0.412273 0
M  V30 5061 N 461.167 -1.02423 -1.1978 0
M  V30 5062 C 462.099 -0.559152 -2.22275 0
M  V30 5063 C 463.112 0.36251 -1.58713 0
M  V30 5064 O 464.301 0.159641 -1.77785 0
M  V30 5065 C 461.401 0.205094 -3.38279 0
M  V30 5066 C 460.574 -0.720361 -4.31427 0
M  V30 5067 C 459.633 -0.00234368 -5.262 0
M  V30 5068 O 458.659 -0.627378 -5.65732 0
M  V30 5069 N 459.861 1.26996 -5.66438 0
M  V30 5070 H 462.626 -1.44064 -2.62804 0
M  V30 5071 H 460.187 -0.902692 -1.34399 0
M  V30 5072 H 462.179 0.694868 -3.9869 0
M  V30 5073 H 460.749 0.987947 -2.96578 0
M  V30 5074 H 459.969 -1.39031 -3.68869 0
M  V30 5075 H 461.257 -1.3495 -4.90577 0
M  V30 5076 H 460.655 1.79858 -5.36347 0
M  V30 5077 H 459.212 1.70432 -6.29123 0
M  V30 5078 N 462.645 1.35699 -0.801477 0
M  V30 5079 C 463.593 2.3177 -0.196317 0
M  V30 5080 C 464.587 1.56388 0.651081 0
M  V30 5081 O 465.793 1.71557 0.544815 0
M  V30 5082 H 462.168 0.750669 -0.0447189 0
M  V30 5083 H 464.139 2.8036 -1.02181 0
M  V30 5084 C 462.888 3.41671 0.644702 0
M  V30 5085 H 462.211 3.998 0.0019921 0
M  V30 5086 H 463.651 4.11184 1.0346 0
M  V30 5087 C 462.11 2.84271 1.80808 0
M  V30 5088 O 462.64 2.77408 2.9053 0
M  V30 5089 N 460.846 2.41391 1.61799 0
M  V30 5090 H 460.393 2.47173 0.725493 0
M  V30 5091 H 460.351 2.03334 2.39797 0
M  V30 5092 N 464.123 0.554532 1.47522 0
M  V30 5093 C 465.369 0.0295227 2.02779 0
M  V30 5094 C 465.702 -1.31582 1.42828 0
M  V30 5095 O 464.977 -1.85561 0.582872 0
M  V30 5096 C 465.26 -0.0664057 3.60039 0
M  V30 5097 C 465.113 1.30585 4.30427 0
M  V30 5098 C 466.432 -0.781162 4.33112 0
M  V30 5099 H 463.551 0.0122027 0.736899 0
M  V30 5100 H 466.193 0.716305 1.7598 0
M  V30 5101 H 464.343 -0.651307 3.83002 0
M  V30 5102 H 466.015 1.93374 4.18813 0
M  V30 5103 H 464.258 1.88125 3.90886 0
M  V30 5104 H 464.929 1.19147 5.38988 0
M  V30 5105 H 467.405 -0.284565 4.15126 0
M  V30 5106 H 466.281 -0.817237 5.42782 0
M  V30 5107 H 466.542 -1.83672 4.0214 0
M  V30 5108 N 465.601 -1.54893 0.290851 0
M  V30 5109 C 466.826 -2.04804 -0.32712 0
M  V30 5110 C 467.251 -1.16721 -1.47506 0
M  V30 5111 O 466.609 -0.169107 -1.8051 0
M  V30 5112 C 466.657 -3.52268 -0.770689 0
M  V30 5113 O 465.761 -3.67236 -1.87647 0
M  V30 5114 H 465.102 -0.660789 -0.0652227 0
M  V30 5115 H 467.632 -2.00036 0.429739 0
M  V30 5116 H 467.642 -3.9393 -1.06223 0
M  V30 5117 H 466.317 -4.15843 0.069096 0
M  V30 5118 H 464.894 -3.37479 -1.58626 0
M  V30 5119 N 467.08 -0.0183926 -1.57589 0
M  V30 5120 C 468.326 0.663543 -1.91638 0
M  V30 5121 C 468.659 1.72392 -0.894134 0
M  V30 5122 O 467.934 1.94316 0.0846449 0
M  V30 5123 C 468.217 1.28984 -3.36207 0
M  V30 5124 C 468.07 0.239761 -4.49161 0
M  V30 5125 C 469.389 2.2109 -3.80536 0
M  V30 5126 H 466.508 0.239746 -0.696915 0
M  V30 5127 H 469.15 -0.073456 -1.89858 0
M  V30 5128 H 467.3 1.91799 -3.37854 0
M  V30 5129 H 468.972 -0.390119 -4.59647 0
M  V30 5130 H 467.215 -0.435972 -4.31604 0
M  V30 5131 H 467.886 0.717383 -5.47319 0
M  V30 5132 H 470.362 1.68273 -3.80557 0
M  V30 5133 H 469.238 2.61869 -4.82406 0
M  V30 5134 H 469.499 3.09764 -3.15434 0
M  V30 5135 N 468.558 1.5553 0.254621 0
M  V30 5136 C 469.488 1.9268 1.31897 0
M  V30 5137 C 470.469 0.790797 1.506 0
M  V30 5138 O 471.654 1.05045 1.63337 0
M  V30 5139 C 468.784 2.21477 2.67517 0
M  V30 5140 C 467.738 3.37256 2.63519 0
M  V30 5141 C 467.064 3.51576 4.02862 0
M  V30 5142 C 468.364 4.73157 2.21179 0
M  V30 5143 H 470.058 2.81832 1.01051 0
M  V30 5144 H 467.604 1.35599 0.484662 0
M  V30 5145 H 469.557 2.46055 3.42104 0
M  V30 5146 H 468.281 1.29144 2.99982 0
M  V30 5147 H 466.94 3.12675 1.9139 0
M  V30 5148 H 466.588 2.56676 4.32581 0
M  V30 5149 H 466.288 4.2943 4.01078 0
M  V30 5150 H 467.812 3.78467 4.79161 0
M  V30 5151 H 469.226 4.97158 2.85494 0
M  V30 5152 H 467.623 5.54058 2.30521 0
M  V30 5153 H 468.693 4.70739 1.16332 0
M  V30 5154 N 470.036 -0.519951 1.48776 0
M  V30 5155 C 471.261 -1.30447 1.6124 0
M  V30 5156 C 471.686 -1.86055 0.276591 0
M  V30 5157 O 471.044 -1.64915 -0.753183 0
M  V30 5158 C 471.092 -2.42406 2.66967 0
M  V30 5159 O 470.196 -3.45728 2.24824 0
M  V30 5160 H 469.537 -0.385924 0.540332 0
M  V30 5161 H 472.067 -0.624572 1.94834 0
M  V30 5162 H 472.077 -2.88447 2.88552 0
M  V30 5163 H 470.752 -2.01294 3.63941 0
M  V30 5164 H 469.329 -3.05737 2.13494 0
M  V30 5165 N 471.514 -1.37532 -0.769588 0
M  V30 5166 C 472.763 -1.32183 -1.5235 0
M  V30 5167 C 473.076 0.0906555 -1.9539 0
M  V30 5168 O 474.282 0.266628 -2.70188 0
M  V30 5169 C 472.738 -2.32029 -2.75119 0
M  V30 5170 C 472.346 -3.78816 -2.3917 0
M  V30 5171 C 474.09 -2.35694 -3.53056 0
M  V30 5172 C 471.997 -4.70388 -3.58453 0
M  V30 5173 H 470.927 -0.491275 -0.571984 0
M  V30 5174 H 473.578 -1.63004 -0.842739 0
M  V30 5175 H 471.96 -1.94229 -3.45096 0
M  V30 5176 H 473.134 -4.25466 -1.76962 0
M  V30 5177 H 471.449 -3.78117 -1.74402 0
M  V30 5178 H 474.046 -3.01312 -4.41718 0
M  V30 5179 H 474.389 -1.37117 -3.93071 0
M  V30 5180 H 474.922 -2.72212 -2.90078 0
M  V30 5181 H 471.661 -5.70102 -3.23518 0
M  V30 5182 H 471.181 -4.28442 -4.19758 0
M  V30 5183 H 472.86 -4.87628 -4.25239 0
M  V30 5184 N 472.992 0.995999 -1.22138 0
M  V30 5185 C 474.232 1.75032 -1.05561 0
M  V30 5186 C 474.596 1.87729 0.402698 0
M  V30 5187 O 475.797 2.59813 0.689234 0
M  V30 5188 C 474.068 3.11973 -1.74379 0
M  V30 5189 S 475.627 4.03182 -1.73175 0
M  V30 5190 H 472.445 0.602137 -0.37809 0
M  V30 5191 H 475.047 1.19107 -1.55028 0
M  V30 5192 H 473.751 3.00371 -2.79652 0
M  V30 5193 H 473.282 3.7297 -1.25128 0
M  V30 5194 H 475.297 4.90043 -0.77923 0
M  V30 5195 N 474.47 1.03057 1.19235 0
M  V30 5196 C 475.747 0.642608 1.84743 0
M  V30 5197 C 476.127 -0.878577 1.91948 0
M  V30 5198 O 475.475 -1.77597 1.43776 0
M  V30 5199 C 475.685 1.30665 3.23616 0
M  V30 5200 C 477.033 1.43098 3.9976 0
M  V30 5201 O 478.057 1.26396 3.3302 0
M  V30 5202 O 476.916 1.70223 5.19313 0
M  V30 5203 H 474.01 0.223573 0.796206 0
M  V30 5204 H 476.556 1.12883 1.26711 0
M  V30 5205 H 475.328 2.34544 3.13217 0
M  V30 5206 H 474.951 0.808405 3.89295 0
M  V30 5207 N 475.948 -1.35272 0.808662 0
M  V30 5208 C 477.195 -1.98709 0.390003 0
M  V30 5209 C 477.523 -1.64148 -1.04335 0
M  V30 5210 O 476.778 -0.897797 -1.73891 0
M  V30 5211 C 477.077 -3.53556 0.522798 0
M  V30 5212 C 476.743 -4.0799 1.91977 0
M  V30 5213 C 475.405 -4.22568 2.30195 0
M  V30 5214 C 477.757 -4.37442 2.83361 0
M  V30 5215 C 475.085 -4.63918 3.59162 0
M  V30 5216 C 477.437 -4.80232 4.11776 0
M  V30 5217 C 476.101 -4.93016 4.49991 0
M  V30 5218 H 475.371 -0.727127 0.142712 0
M  V30 5219 H 478.018 -1.6145 1.02985 0
M  V30 5220 H 476.323 -3.91287 -0.200494 0
M  V30 5221 H 478.02 -4.00598 0.179608 0
M  V30 5222 H 474.61 -3.97096 1.61284 0
M  V30 5223 H 478.794 -4.25731 2.55083 0
M  V30 5224 H 474.05 -4.72005 3.88615 0
M  V30 5225 H 478.224 -5.01982 4.82687 0
M  V30 5226 H 475.851 -5.24814 5.49976 0
M  V30 5227 N 477.426 -0.562348 -1.47226 0
M  V30 5228 C 478.842 -0.222492 -1.58042 0
M  V30 5229 C 479.042 1.27505 -1.56028 0
M  V30 5230 O 478.098 2.05555 -1.46641 0
M  V30 5231 C 479.411 -0.853694 -2.88327 0
M  V30 5232 C 480.959 -0.825397 -3.01921 0
M  V30 5233 C 481.434 -1.43576 -4.34914 0
M  V30 5234 N 482.925 -1.39918 -4.41562 0
M  V30 5235 C 483.66 -1.84103 -5.43041 0
M  V30 5236 N 483.156 -2.36167 -6.51304 0
M  V30 5237 N 484.949 -1.75142 -5.34118 0
M  V30 5238 H 477.1 -1.53525 -1.46778 0
M  V30 5239 H 479.363 -0.640527 -0.698877 0
M  V30 5240 H 479.069 -1.90635 -2.95552 0
M  V30 5241 H 478.943 -0.34977 -3.75575 0
M  V30 5242 H 481.33 0.218583 -2.94289 0
M  V30 5243 H 481.411 -1.36713 -2.16202 0
M  V30 5244 H 481.055 -2.47884 -4.43301 0
M  V30 5245 H 480.985 -0.869427 -5.19373 0
M  V30 5246 H 483.476 -1.0184 -3.63919 0
M  V30 5247 H 483.789 -2.67793 -7.24919 0
M  V30 5248 H 482.134 -2.40181 -6.52179 0
M  V30 5249 H 485.325 -1.34241 -4.48439 0
M  V30 5250 H 485.498 -2.09895 -6.13065 0
M  V30 5251 N 478.904 1.54736 -0.299062 0
M  V30 5252 C 479.814 2.27127 0.587413 0
M  V30 5253 C 480.83 1.30575 1.15005 0
M  V30 5254 O 482.006 1.63554 1.17525 0
M  V30 5255 C 479.071 2.99645 1.74395 0
M  V30 5256 C 478.132 4.11731 1.21559 0
M  V30 5257 C 477.365 4.80781 2.317 0
M  V30 5258 O 477.588 4.4918 3.51558 0
M  V30 5259 O 476.522 5.68226 1.98501 0
M  V30 5260 H 480.348 3.037 0.000250109 0
M  V30 5261 H 477.933 1.49256 -0.0655919 0
M  V30 5262 H 479.815 3.45138 2.4178 0
M  V30 5263 H 478.49 2.25969 2.31775 0
M  V30 5264 H 477.397 3.70641 0.507514 0
M  V30 5265 H 478.73 4.87379 0.687233 0
M  V30 5266 N 480.382 0.0267497 1.57577 0
M  V30 5267 C 481.659 -0.690926 1.82991 0
M  V30 5268 C 482.039 -1.90471 0.910164 0
M  V30 5269 O 481.387 -2.28474 -0.0347985 0
M  V30 5270 C 481.597 -1.07139 3.32148 0
M  V30 5271 C 482.945 -1.46402 3.98562 0
M  V30 5272 O 483.969 -1.16443 3.36629 0
M  V30 5273 O 482.828 -2.02214 5.07712 0
M  V30 5274 H 479.922 -0.338747 0.75444 0
M  V30 5275 H 482.468 0.0542506 1.69613 0
M  V30 5276 H 481.24 -0.207394 3.9075 0
M  V30 5277 H 480.863 -1.87481 3.50623 0
M  V30 5278 N 481.861 -1.55662 -0.24637 0
M  V30 5279 C 483.107 -1.78698 -0.971525 0
M  V30 5280 C 483.462 -0.59577 -1.82944 0
M  V30 5281 O 482.755 0.41097 -1.87141 0
M  V30 5282 C 482.949 -3.04885 -1.86494 0
M  V30 5283 C 482.778 -4.36165 -1.09501 0
M  V30 5284 C 481.548 -4.98929 -0.799895 0
M  V30 5285 C 483.746 -5.12126 -0.472334 0
M  V30 5286 N 481.728 -6.139 -0.00595299 0
M  V30 5287 C 483.099 -6.1972 0.18616 0
M  V30 5288 C 485.154 -4.96426 -0.382854 0
M  V30 5289 C 483.857 -7.13321 0.925542 0
M  V30 5290 C 485.883 -5.90405 0.342999 0
M  V30 5291 C 485.245 -6.97407 0.990128 0
M  V30 5292 H 481.344 -0.705852 -0.336597 0
M  V30 5293 H 483.928 -1.93157 -0.244615 0
M  V30 5294 H 482.099 -2.91753 -2.56388 0
M  V30 5295 H 483.831 -3.16212 -2.5257 0
M  V30 5296 H 480.586 -4.60365 -1.11181 0
M  V30 5297 H 481.01 -6.75938 0.379127 0
M  V30 5298 H 485.652 -4.13777 -0.868834 0
M  V30 5299 H 483.37 -7.9547 1.42312 0
M  V30 5300 H 486.956 -5.80333 0.412907 0
M  V30 5301 H 485.836 -7.68874 1.54282 0
M  V30 5302 N 483.339 0.512053 -1.4905 0
M  V30 5303 C 484.271 1.63121 -1.6101 0
M  V30 5304 C 485.284 1.55145 -0.493352 0
M  V30 5305 O 486.473 1.61278 -0.764955 0
M  V30 5306 C 483.573 3.01863 -1.54052 0
M  V30 5307 C 482.746 3.35138 -2.81072 0
M  V30 5308 C 481.805 4.5324 -2.67319 0
M  V30 5309 O 480.831 4.55571 -3.41238 0
M  V30 5310 N 482.033 5.52495 -1.78127 0
M  V30 5311 H 484.798 1.53292 -2.5753 0
M  V30 5312 H 482.359 0.699706 -1.45999 0
M  V30 5313 H 484.351 3.78774 -1.42521 0
M  V30 5314 H 482.921 3.05675 -0.654345 0
M  V30 5315 H 482.141 2.4723 -3.07036 0
M  V30 5316 H 483.429 3.54162 -3.65304 0
M  V30 5317 H 482.827 5.53403 -1.17308 0
M  V30 5318 H 481.384 6.28553 -1.72525 0
M  V30 5319 N 484.817 1.37938 0.762283 0
M  V30 5320 C 486.045 1.36883 1.55147 0
M  V30 5321 C 486.46 -0.0435348 1.8875 0
M  V30 5322 O 485.817 -1.00786 1.52146 0
M  V30 5323 C 485.868 2.21624 2.85596 0
M  V30 5324 O 485.589 3.57358 2.5343 0
M  V30 5325 C 487.09 2.28653 3.7978 0
M  V30 5326 H 484.31 0.468521 0.480343 0
M  V30 5327 H 486.854 1.81404 0.944079 0
M  V30 5328 H 485.009 1.80588 3.42734 0
M  V30 5329 H 485.423 4.01883 3.37032 0
M  V30 5330 H 486.897 2.9225 4.68288 0
M  V30 5331 H 487.374 1.29767 4.19592 0
M  V30 5332 H 487.98 2.70043 3.28568 0
M  V30 5333 N 486.295 -0.989507 1.22664 0
M  V30 5334 C 487.541 -1.73298 1.06487 0
M  V30 5335 C 487.896 -1.88292 -0.395438 0
M  V30 5336 O 487.189 -1.41748 -1.28911 0
M  V30 5337 C 487.383 -3.13649 1.71345 0
M  V30 5338 C 487.212 -3.12341 3.23532 0
M  V30 5339 C 485.982 -3.18044 3.92653 0
M  V30 5340 C 488.18 -2.96226 4.20422 0
M  V30 5341 N 486.162 -3.06526 5.31898 0
M  V30 5342 C 487.533 -2.92773 5.4652 0
M  V30 5343 C 489.588 -2.80642 4.11271 0
M  V30 5344 C 488.291 -2.75332 6.64519 0
M  V30 5345 C 490.317 -2.64563 5.28924 0
M  V30 5346 C 489.679 -2.618 6.53942 0
M  V30 5347 H 485.778 -0.643643 0.444126 0
M  V30 5348 H 488.362 -1.17489 1.55256 0
M  V30 5349 H 486.533 -3.67694 1.25122 0
M  V30 5350 H 488.265 -3.76577 1.48229 0
M  V30 5351 H 485.02 -3.25861 3.43673 0
M  V30 5352 H 485.444 -3.04067 6.04874 0
M  V30 5353 H 490.086 -2.81574 3.15398 0
M  V30 5354 H 487.804 -2.73145 7.60538 0
M  V30 5355 H 491.39 -2.53482 5.23677 0
M  V30 5356 H 490.27 -2.49511 7.43447 0
M  V30 5357 N 487.773 -1.03688 -1.18687 0
M  V30 5358 C 489.05 -0.652397 -1.84399 0
M  V30 5359 C 489.43 0.868386 -1.92412 0
M  V30 5360 O 488.778 1.76832 -1.44716 0
M  V30 5361 C 488.988 -1.3238 -3.22919 0
M  V30 5362 C 490.336 -1.45216 -3.98996 0
M  V30 5363 O 491.36 -1.2816 -3.32345 0
M  V30 5364 O 490.219 -1.72975 -5.18403 0
M  V30 5365 H 487.313 -0.227793 -0.795009 0
M  V30 5366 H 489.859 -1.13553 -1.2611 0
M  V30 5367 H 488.631 -2.36202 -3.11968 0
M  V30 5368 H 488.254 -0.829039 -3.88861 0
M  V30 5369 N 489.251 1.34841 -0.815825 0
M  V30 5370 C 490.491 2.00321 -0.406297 0
M  V30 5371 C 490.855 1.63293 1.00992 0
M  V30 5372 O 492.056 2.21563 1.52195 0
M  V30 5373 C 490.327 3.52421 -0.594469 0
M  V30 5374 S 491.886 4.37926 -0.276735 0
M  V30 5375 H 488.704 0.694155 -0.153848 0
M  V30 5376 H 491.306 1.64263 -1.06009 0
M  V30 5377 H 490.01 3.76858 -1.625 0
M  V30 5378 H 489.541 3.9333 0.0743157 0
M  V30 5379 H 491.556 4.87743 0.912215 0
M  V30 5380 N 490.729 0.570148 1.46925 0
M  V30 5381 C 492.14 0.1402 1.86173 0
M  V30 5382 C 492.491 -1.29347 1.47526 0
M  V30 5383 O 491.616 -1.97508 0.884292 0
M  V30 5384 C 492.211 0.247661 3.37894 0
M  V30 5385 C 490.77 -0.127332 3.76185 0
M  V30 5386 C 489.917 0.589349 2.70965 0
M  V30 5387 H 492.868 0.779117 1.38259 0
M  V30 5388 H 492.889 -0.530341 3.76786 0
M  V30 5389 H 492.401 1.29121 3.65991 0
M  V30 5390 H 490.502 -1.17149 3.53704 0
M  V30 5391 H 490.615 0.240238 4.78497 0
M  V30 5392 H 488.979 0.0309824 2.54681 0
M  V30 5393 H 489.762 1.6343 3.01903 0
M  V30 5394 N 492.207 -1.54576 0.307264 0
M  V30 5395 C 493.154 -2.23751 -0.56604 0
M  V30 5396 C 494.124 -1.22235 -1.12462 0
M  V30 5397 O 495.309 -1.50873 -1.16799 0
M  V30 5398 C 492.449 -2.98661 -1.72903 0
M  V30 5399 C 491.562 -4.14963 -1.20124 0
M  V30 5400 C 490.697 -4.77441 -2.3286 0
M  V30 5401 C 489.736 -5.85875 -1.77247 0
M  V30 5402 N 488.873 -6.42282 -2.8358 0
M  V30 5403 H 493.713 -2.97984 0.0304578 0
M  V30 5404 H 491.25 -1.47076 0.0268015 0
M  V30 5405 H 493.208 -3.40329 -2.41313 0
M  V30 5406 H 491.838 -2.26793 -2.29706 0
M  V30 5407 H 490.89 -3.78193 -0.409198 0
M  V30 5408 H 492.202 -4.93066 -0.754171 0
M  V30 5409 H 491.356 -5.21993 -3.09205 0
M  V30 5410 H 490.095 -3.98684 -2.80896 0
M  V30 5411 H 489.1 -5.40741 -0.993926 0
M  V30 5412 H 490.325 -6.6652 -1.30107 0
M  V30 5413 H 488.271 -5.66406 -3.30939 0
M  V30 5414 H 488.188 -7.1575 -2.43388 0
M  V30 5415 H 489.456 -6.91492 -3.59804 0
M  V30 5416 N 493.685 -0.035106 -1.57561 0
M  V30 5417 C 494.913 0.652258 -1.9635 0
M  V30 5418 C 495.328 1.65317 -0.911897 0
M  V30 5419 O 494.685 1.82194 0.105657 0
M  V30 5420 C 494.736 1.35337 -3.35211 0
M  V30 5421 O 494.457 0.392548 -4.36338 0
M  V30 5422 C 495.958 2.13199 -3.88666 0
M  V30 5423 H 493.178 0.179444 -0.646561 0
M  V30 5424 H 495.722 -0.0966459 -2.04271 0
M  V30 5425 H 493.877 2.05362 -3.28489 0
M  V30 5426 H 494.291 0.891097 -5.16875 0
M  V30 5427 H 495.765 2.577 -4.88154 0
M  V30 5428 H 496.242 2.97353 -3.23231 0
M  V30 5429 H 496.848 1.48118 -3.98674 0
M  V30 5430 N 495.163 1.55791 0.238111 0
M  V30 5431 C 496.095 1.87513 1.31802 0
M  V30 5432 C 497.108 0.762053 1.43863 0
M  V30 5433 O 498.297 1.04024 1.45056 0
M  V30 5434 C 495.397 2.05402 2.69561 0
M  V30 5435 C 494.57 3.3632 2.79656 0
M  V30 5436 C 493.629 3.43844 3.98319 0
M  V30 5437 O 492.655 4.16994 3.87433 0
M  V30 5438 N 493.857 2.73777 5.11885 0
M  V30 5439 H 496.622 2.80734 1.04922 0
M  V30 5440 H 494.183 1.56135 0.428196 0
M  V30 5441 H 496.175 2.07769 3.47296 0
M  V30 5442 H 494.745 1.18884 2.89111 0
M  V30 5443 H 493.965 3.46195 1.88528 0
M  V30 5444 H 495.253 4.22594 2.83358 0
M  V30 5445 H 494.651 2.14094 5.23622 0
M  V30 5446 H 493.208 2.81825 5.87723 0
M  V30 5447 N 496.642 -0.504142 1.49319 0
M  V30 5448 C 497.552 -1.63248 1.68486 0
M  V30 5449 C 498.568 -1.64488 0.567432 0
M  V30 5450 O 499.744 -1.82966 0.841749 0
M  V30 5451 C 496.809 -2.99627 1.74426 0
M  V30 5452 C 495.87 -3.09039 2.97982 0
M  V30 5453 C 495.103 -4.38913 3.0363 0
M  V30 5454 O 495.326 -5.27528 2.16958 0
M  V30 5455 O 494.26 -4.53231 3.96062 0
M  V30 5456 H 498.086 -1.50008 2.64067 0
M  V30 5457 H 495.671 -0.680086 1.33023 0
M  V30 5458 H 497.553 -3.80689 1.80705 0
M  V30 5459 H 496.228 -3.13136 0.820233 0
M  V30 5460 H 495.135 -2.27177 2.97223 0
M  V30 5461 H 496.468 -3.00456 3.89855 0
M  V30 5462 N 498.12 -1.38341 -0.754957 0
M  V30 5463 C 499.07 -1.31964 -1.85929 0
M  V30 5464 C 500.054 -0.204181 -1.59599 0
M  V30 5465 O 501.246 -0.440036 -1.71443 0
M  V30 5466 C 498.375 -1.14565 -3.2362 0
M  V30 5467 C 497.461 -2.30727 -3.55846 0
M  V30 5468 N 497.852 -3.56165 -3.59138 0
M  V30 5469 C 496.15 -2.23249 -3.86104 0
M  V30 5470 C 496.851 -4.32865 -3.88591 0
M  V30 5471 N 495.827 -3.62203 -4.05351 0
M  V30 5472 H 499.629 -2.2694 -1.8675 0
M  V30 5473 H 497.143 -1.31553 -0.952243 0
M  V30 5474 H 499.14 -1.0808 -4.02647 0
M  V30 5475 H 497.8 -0.205212 -3.24051 0
M  V30 5476 H 498.811 -3.89854 -3.40932 0
M  V30 5477 H 495.488 -1.37357 -3.94258 0
M  V30 5478 H 496.878 -5.41504 -3.97773 0
M  V30 5479 N 499.598 0.982988 -1.23187 0
M  V30 5480 C 500.847 1.71817 -1.05649 0
M  V30 5481 C 501.16 1.91315 0.407176 0
M  V30 5482 O 502.366 2.62256 0.702436 0
M  V30 5483 C 500.822 3.09188 -1.84203 0
M  V30 5484 C 500.43 2.97586 -3.34882 0
M  V30 5485 C 502.174 3.86684 -1.75146 0
M  V30 5486 C 500.081 4.30173 -4.05839 0
M  V30 5487 H 499.011 0.644258 -0.391724 0
M  V30 5488 H 501.662 1.09659 -1.4713 0
M  V30 5489 H 500.044 3.72087 -1.35527 0
M  V30 5490 H 501.218 2.43793 -3.91026 0
M  V30 5491 H 499.533 2.33567 -3.44725 0
M  V30 5492 H 502.13 4.84836 -2.25473 0
M  V30 5493 H 502.473 4.10136 -0.713737 0
M  V30 5494 H 503.006 3.30482 -2.21419 0
M  V30 5495 H 499.745 4.11918 -5.09906 0
M  V30 5496 H 499.265 4.83841 -3.54482 0
M  V30 5497 H 500.944 4.98873 -4.11989 0
M  V30 5498 N 501.076 1.04316 1.18135 0
M  V30 5499 C 501.986 0.646876 2.25505 0
M  V30 5500 C 503.002 -0.328008 1.7088 0
M  V30 5501 O 504.178 -0.182309 2.00573 0
M  V30 5502 C 501.243 0.0185664 3.46695 0
M  V30 5503 C 500.304 1.04277 4.16443 0
M  V30 5504 C 499.537 0.444352 5.31847 0
M  V30 5505 O 499.76 -0.748735 5.65465 0
M  V30 5506 O 498.694 1.17428 5.90334 0
M  V30 5507 H 502.52 1.54147 2.61672 0
M  V30 5508 H 500.105 0.814188 1.25265 0
M  V30 5509 H 501.987 -0.331068 4.20097 0
M  V30 5510 H 500.662 -0.849814 3.12346 0
M  V30 5511 H 499.569 1.44425 3.45098 0
M  V30 5512 H 500.902 1.882 4.54798 0
M  V30 5513 N 502.554 -1.34406 0.822964 0
M  V30 5514 C 503.464 -2.33298 0.246838 0
M  V30 5515 C 504.48 -1.62625 -0.618797 0
M  V30 5516 O 505.656 -1.94391 -0.526685 0
M  V30 5517 C 502.721 -3.41785 -0.581731 0
M  V30 5518 C 501.782 -4.28206 0.306309 0
M  V30 5519 C 501.015 -5.31512 -0.48281 0
M  V30 5520 O 501.238 -5.43973 -1.71607 0
M  V30 5521 O 500.172 -6.01749 0.134884 0
M  V30 5522 H 503.998 -2.84401 1.06534 0
M  V30 5523 H 501.583 -1.37466 0.585108 0
M  V30 5524 H 503.465 -4.08028 -1.05313 0
M  V30 5525 H 502.14 -2.92925 -1.37756 0
M  V30 5526 H 501.047 -3.64885 0.825199 0
M  V30 5527 H 502.38 -4.80507 1.06649 0
M  V30 5528 N 504.032 -0.577932 -1.46621 0
M  V30 5529 C 505.257 -0.0652536 -2.07297 0
M  V30 5530 C 505.682 1.22828 -1.4246 0
M  V30 5531 O 505.04 1.74075 -0.506718 0
M  V30 5532 C 505.088 0.0920589 -3.60482 0
M  V30 5533 O 504.192 1.14972 -3.96049 0
M  V30 5534 H 503.533 -0.06065 -0.661224 0
M  V30 5535 H 506.063 -0.799515 -1.88332 0
M  V30 5536 H 506.073 0.299741 -4.06897 0
M  V30 5537 H 504.748 -0.852612 -4.07067 0
M  V30 5538 H 503.325 0.920879 -3.61351 0
M  V30 5539 N 505.51 1.54411 -0.315457 0
M  V30 5540 C 506.926 1.59556 0.037464 0
M  V30 5541 C 507.126 1.33217 1.5118 0
M  V30 5542 O 506.182 1.11264 2.26664 0
M  V30 5543 C 507.495 2.98372 -0.373477 0
M  V30 5544 C 509.043 3.11324 -0.323452 0
M  V30 5545 C 509.518 4.52472 -0.709433 0
M  V30 5546 N 511.009 4.58437 -0.662524 0
M  V30 5547 C 511.744 5.65751 -0.933474 0
M  V30 5548 N 511.24 6.81039 -1.27114 0
M  V30 5549 N 513.033 5.55489 -0.859573 0
M  V30 5550 H 505.184 1.6979 -1.27614 0
M  V30 5551 H 507.447 0.793732 -0.518356 0
M  V30 5552 H 507.153 3.22618 -1.40037 0
M  V30 5553 H 507.027 3.76264 0.265615 0
M  V30 5554 H 509.414 2.86818 0.694223 0
M  V30 5555 H 509.495 2.35555 -0.997367 0
M  V30 5556 H 509.139 4.7771 -1.72498 0
M  V30 5557 H 509.069 5.26598 -0.0132923 0
M  V30 5558 H 511.56 3.75636 -0.413065 0
M  V30 5559 H 511.873 7.58816 -1.46348 0
M  V30 5560 H 510.218 6.82555 -1.30932 0
M  V30 5561 H 513.409 4.64299 -0.595324 0
M  V30 5562 H 513.582 6.39036 -1.0741 0
M  V30 5563 N 506.988 0.0434614 1.5754 0
M  V30 5564 C 508.216 -0.641835 1.96693 0
M  V30 5565 C 508.631 -1.64832 0.920652 0
M  V30 5566 O 507.988 -1.82247 -0.095993 0
M  V30 5567 C 508.039 -1.33557 3.35924 0
M  V30 5568 O 507.76 -0.369403 4.3654 0
M  V30 5569 C 509.261 -2.11135 3.89791 0
M  V30 5570 H 506.481 -0.176013 0.647503 0
M  V30 5571 H 509.025 0.107478 2.04217 0
M  V30 5572 H 507.18 -2.03617 3.29574 0
M  V30 5573 H 507.594 -0.863674 5.1734 0
M  V30 5574 H 509.068 -2.55107 4.89514 0
M  V30 5575 H 509.545 -2.95634 3.24803 0
M  V30 5576 H 510.151 -1.46002 3.99454 0
M  V30 5577 N 508.466 -1.55915 -0.229846 0
M  V30 5578 C 509.714 -1.7819 -0.953565 0
M  V30 5579 C 510.035 -0.610504 -1.85197 0
M  V30 5580 O 509.305 0.372988 -1.92316 0
M  V30 5581 H 507.885 -0.657208 -0.355087 0
M  V30 5582 H 510.547 -1.9337 -0.243693 0
M  V30 5583 H 509.643 -2.70011 -1.56527 0
M  V30 5584 N 509.944 0.496216 -1.49584 0
M  V30 5585 C 511.19 1.24918 -1.60521 0
M  V30 5586 C 511.545 1.90197 -0.290352 0
M  V30 5587 O 510.838 1.77967 0.709813 0
M  V30 5588 C 511.032 2.3359 -2.705 0
M  V30 5589 C 510.861 1.78969 -4.12553 0
M  V30 5590 C 509.631 1.60057 -4.79281 0
M  V30 5591 C 511.829 1.29883 -4.97629 0
M  V30 5592 N 509.811 1.00415 -6.05632 0
M  V30 5593 C 511.182 0.824057 -6.14499 0
M  V30 5594 C 513.237 1.18501 -4.83593 0
M  V30 5595 C 511.94 0.246721 -7.18877 0
M  V30 5596 C 513.966 0.621634 -5.88124 0
M  V30 5597 C 513.328 0.157116 -7.04225 0
M  V30 5598 H 509.427 0.446896 -0.641722 0
M  V30 5599 H 512.011 0.555456 -1.86609 0
M  V30 5600 H 510.182 3.00418 -2.46178 0
M  V30 5601 H 511.914 3.00628 -2.70933 0
M  V30 5602 H 508.669 1.84562 -4.36158 0
M  V30 5603 H 509.093 0.725074 -6.73106 0
M  V30 5604 H 513.735 1.53012 -3.94141 0
M  V30 5605 H 511.453 -0.110651 -8.08024 0
M  V30 5606 H 515.039 0.536279 -5.79323 0
M  V30 5607 H 513.919 -0.272009 -7.83728 0
M  V30 5608 N 511.423 1.38739 0.74761 0
M  V30 5609 C 512.386 1.36241 1.84312 0
M  V30 5610 C 513.386 0.261811 1.58654 0
M  V30 5611 O 514.576 0.519031 1.66288 0
M  V30 5612 C 511.708 1.12253 3.21888 0
M  V30 5613 H 512.901 2.33712 1.87933 0
M  V30 5614 H 510.454 1.2412 0.949946 0
M  V30 5615 H 511.189 0.154133 3.23934 0
M  V30 5616 H 510.974 1.91943 3.41907 0
M  V30 5617 H 512.464 1.13215 4.0196 0
M  V30 5618 N 512.901 -0.976442 1.23707 0
M  V30 5619 C 514.149 -1.71487 1.06942 0
M  V30 5620 C 514.47 -1.9098 -0.393897 0
M  V30 5621 O 513.74 -1.48128 -1.28198 0
M  V30 5622 H 512.32 -0.635425 0.392739 0
M  V30 5623 H 514.982 -1.17515 1.55487 0
M  V30 5624 H 514.078 -2.70286 1.56051 0
M  V30 5625 N 514.379 -1.04941 -1.1758 0
M  V30 5626 C 515.627 -0.756492 -1.87408 0
M  V30 5627 C 515.948 0.718478 -1.81281 0
M  V30 5628 O 515.218 1.519 -1.23706 0
M  V30 5629 H 513.798 -0.276841 -0.693807 0
M  V30 5630 H 516.46 -1.32803 -1.42652 0
M  V30 5631 H 515.556 -1.06918 -2.93215 0
M  V30 5632 N 515.857 1.33968 -0.830081 0
M  V30 5633 C 517.104 1.98063 -0.421566 0
M  V30 5634 C 517.432 1.65787 1.0171 0
M  V30 5635 O 516.687 0.925348 1.72441 0
M  V30 5636 C 516.986 3.52679 -0.57898 0
M  V30 5637 C 516.652 4.04884 -1.98443 0
M  V30 5638 C 515.314 4.18852 -2.36888 0
M  V30 5639 C 517.666 4.32879 -2.90285 0
M  V30 5640 C 514.994 4.58145 -3.66497 0
M  V30 5641 C 517.346 4.7362 -4.19364 0
M  V30 5642 C 516.01 4.85794 -4.57778 0
M  V30 5643 H 515.28 0.724765 -0.154262 0
M  V30 5644 H 517.927 1.59792 -1.05541 0
M  V30 5645 H 516.232 3.91556 0.138219 0
M  V30 5646 H 517.929 4.00261 -0.243317 0
M  V30 5647 H 514.519 3.9448 -1.67581 0
M  V30 5648 H 518.703 4.21619 -2.61823 0
M  V30 5649 H 513.959 4.65762 -3.96075 0
M  V30 5650 H 518.133 4.9424 -4.90612 0
M  V30 5651 H 515.76 5.15998 -5.58256 0
M  V30 5652 N 517.335 0.585699 1.46312 0
M  V30 5653 C 518.582 0.0724211 2.0237 0
M  V30 5654 C 518.91 -1.28868 1.45683 0
M  V30 5655 O 518.165 -1.85853 0.612945 0
M  V30 5656 C 518.464 -0.0401312 3.57377 0
M  V30 5657 C 518.13 1.25376 4.33119 0
M  V30 5658 C 516.792 1.60824 4.5353 0
M  V30 5659 C 519.144 2.10987 4.76586 0
M  V30 5660 C 516.472 2.81676 5.14661 0
M  V30 5661 C 518.824 3.31068 5.39052 0
M  V30 5662 C 517.488 3.66794 5.5769 0
M  V30 5663 H 516.758 0.0265007 0.740526 0
M  V30 5664 H 519.405 0.762935 1.75646 0
M  V30 5665 H 517.71 -0.813791 3.83255 0
M  V30 5666 H 519.407 -0.453078 3.98432 0
M  V30 5667 H 515.997 0.967808 4.1753 0
M  V30 5668 H 520.181 1.84904 4.60569 0
M  V30 5669 H 515.437 3.0949 5.27282 0
M  V30 5670 H 519.611 3.97672 5.71691 0
M  V30 5671 H 517.238 4.60529 6.04828 0
M  V30 5672 N 518.813 -1.54241 0.323641 0
M  V30 5673 C 520.059 -2.00867 -0.279323 0
M  V30 5674 C 520.392 -1.21146 -1.5178 0
M  V30 5675 O 519.667 -0.29378 -1.92269 0
M  V30 5676 C 519.95 -3.54837 -0.613387 0
M  V30 5677 C 519.803 -4.45284 0.635803 0
M  V30 5678 C 521.122 -4.16186 -1.43099 0
M  V30 5679 H 518.241 -0.730177 -0.100049 0
M  V30 5680 H 520.883 -1.84829 0.440235 0
M  V30 5681 H 519.033 -3.68634 -1.22641 0
M  V30 5682 H 520.705 -4.43357 1.27406 0
M  V30 5683 H 518.948 -4.14956 1.26466 0
M  V30 5684 H 519.619 -5.5084 0.357597 0
M  V30 5685 H 522.095 -4.05964 -0.912814 0
M  V30 5686 H 520.971 -5.24031 -1.6335 0
M  V30 5687 H 521.232 -3.69516 -2.42715 0
M  V30 5688 N 520.291 -0.0518155 -1.57515 0
M  V30 5689 C 521.516 0.634896 -1.97443 0
M  V30 5690 C 521.941 1.63546 -0.929207 0
M  V30 5691 O 521.299 1.80981 0.107484 0
M  V30 5692 C 521.347 1.29765 -3.36442 0
M  V30 5693 O 520.451 2.41333 -3.34413 0
M  V30 5694 H 519.792 0.164994 -0.643174 0
M  V30 5695 H 522.322 -0.120407 -2.04245 0
M  V30 5696 H 522.332 1.64918 -3.73184 0
M  V30 5697 H 521.007 0.564361 -4.12053 0
M  V30 5698 H 519.584 2.08122 -3.09418 0
M  V30 5699 N 521.769 1.56035 0.221574 0
M  V30 5700 C 522.997 1.8313 0.962864 0
M  V30 5701 C 523.412 0.630934 1.77946 0
M  V30 5702 O 522.769 -0.400519 1.78051 0
M  V30 5703 C 522.82 3.08742 1.88045 0
M  V30 5704 O 522.541 4.24147 1.09686 0
M  V30 5705 C 524.042 3.48824 2.73563 0
M  V30 5706 H 521.262 0.608775 0.282194 0
M  V30 5707 H 523.806 2.03124 0.23681 0
M  V30 5708 H 521.961 2.90723 2.56045 0
M  V30 5709 H 522.375 4.95505 1.71974 0
M  V30 5710 H 523.849 4.39752 3.3365 0
M  V30 5711 H 524.326 2.70575 3.45956 0
M  V30 5712 H 524.932 3.69282 2.10976 0
M  V30 5713 N 523.247 -0.488276 1.49845 0
M  V30 5714 C 524.658 -1.06955 1.53028 0
M  V30 5715 C 525.009 -1.9351 0.323797 0
M  V30 5716 O 524.134 -2.08891 -0.565116 0
M  V30 5717 C 524.729 -1.94643 2.77307 0
M  V30 5718 C 523.288 -2.4791 2.83227 0
M  V30 5719 C 522.435 -1.25833 2.47106 0
M  V30 5720 H 525.386 -0.271626 1.56358 0
M  V30 5721 H 525.407 -2.79496 2.5819 0
M  V30 5722 H 524.919 -1.31621 3.65099 0
M  V30 5723 H 523.02 -3.14535 1.99745 0
M  V30 5724 H 523.133 -2.84193 3.85709 0
M  V30 5725 H 521.497 -1.58764 1.99163 0
M  V30 5726 H 522.28 -0.644993 3.37186 0
M  V30 5727 N 524.725 -1.39134 -0.740242 0
M  V30 5728 C 525.971 -1.36273 -1.50192 0
M  V30 5729 C 526.304 0.0430136 -1.94152 0
M  V30 5730 O 525.579 1.00691 -1.66408 0
M  V30 5731 C 525.862 -2.33041 -2.74525 0
M  V30 5732 C 525.715 -3.82535 -2.36617 0
M  V30 5733 C 527.034 -2.27723 -3.76604 0
M  V30 5734 H 524.153 -0.496323 -0.544823 0
M  V30 5735 H 526.795 -1.70085 -0.846815 0
M  V30 5736 H 524.945 -2.04337 -3.30422 0
M  V30 5737 H 526.617 -4.21967 -1.86391 0
M  V30 5738 H 524.86 -3.99565 -1.68909 0
M  V30 5739 H 525.531 -4.45723 -3.2563 0
M  V30 5740 H 528.007 -2.53091 -3.30279 0
M  V30 5741 H 526.883 -2.97519 -4.61274 0
M  V30 5742 H 527.144 -1.28049 -4.2315 0
M  V30 5743 N 526.204 0.969867 -1.24223 0
M  V30 5744 C 527.451 1.71256 -1.08063 0
M  V30 5745 C 527.779 1.90734 0.380872 0
M  V30 5746 O 527.034 1.46469 1.29789 0
M  V30 5747 C 527.333 3.10883 -1.76314 0
M  V30 5748 C 526.999 3.11252 -3.26241 0
M  V30 5749 C 525.661 3.1106 -3.67144 0
M  V30 5750 C 528.013 3.05751 -4.22097 0
M  V30 5751 C 525.341 3.03097 -5.02344 0
M  V30 5752 C 527.693 2.9933 -5.57301 0
M  V30 5753 C 526.357 2.97466 -5.97554 0
M  V30 5754 H 525.627 0.62667 -0.395431 0
M  V30 5755 H 528.274 1.13422 -1.54297 0
M  V30 5756 H 526.579 3.72168 -1.22468 0
M  V30 5757 H 528.276 3.67138 -1.61277 0
M  V30 5758 H 524.866 3.12165 -2.93685 0
M  V30 5759 H 529.05 3.05031 -3.91497 0
M  V30 5760 H 524.306 3.00013 -5.32731 0
M  V30 5761 H 528.48 2.94033 -6.31283 0
M  V30 5762 H 526.107 2.91051 -7.02277 0
M  V30 5763 N 527.682 1.05563 1.17022 0
M  V30 5764 C 528.907 0.788437 1.91829 0
M  V30 5765 C 529.332 -0.650356 1.76499 0
M  V30 5766 O 528.69 -1.45229 1.08527 0
M  V30 5767 C 528.738 1.1786 3.40795 0
M  V30 5768 O 527.842 0.312965 4.11211 0
M  V30 5769 H 527.183 0.288794 0.597908 0
M  V30 5770 H 529.713 1.40948 1.48307 0
M  V30 5771 H 529.723 1.14697 3.91546 0
M  V30 5772 H 528.398 2.22666 3.51273 0
M  V30 5773 H 526.975 0.405515 3.70689 0
M  V30 5774 N 529.16 -1.33526 0.837174 0
M  V30 5775 C 530.39 -2.01754 0.444848 0
M  V30 5776 C 530.798 -1.63149 -0.958072 0
M  V30 5777 O 530.141 -0.839827 -1.63379 0
M  V30 5778 C 530.203 -3.56228 0.483917 0
M  V30 5779 C 529.867 -4.18205 1.84265 0
M  V30 5780 C 530.864 -4.37699 2.80563 0
M  V30 5781 C 528.549 -4.54667 2.13503 0
M  V30 5782 C 530.543 -4.928 4.04261 0
M  V30 5783 C 528.23 -5.09475 3.37458 0
M  V30 5784 C 529.228 -5.28488 4.32654 0
M  V30 5785 O 528.916 -5.82132 5.54417 0
M  V30 5786 H 528.648 -0.652928 0.175104 0
M  V30 5787 H 531.202 -1.71469 1.13082 0
M  V30 5788 H 529.432 -3.85833 -0.258826 0
M  V30 5789 H 531.121 -4.05752 0.109653 0
M  V30 5790 H 531.887 -4.0988 2.59274 0
M  V30 5791 H 527.766 -4.39164 1.40201 0
M  V30 5792 H 531.31 -5.07555 4.78574 0
M  V30 5793 H 527.207 -5.36725 3.58604 0
M  V30 5794 H 527.975 -6.00548 5.56133 0
M  V30 5795 N 530.638 -0.59345 -1.46 0
M  V30 5796 C 531.915 -0.0157933 -1.95594 0
M  V30 5797 C 532.295 1.44807 -1.53604 0
M  V30 5798 O 531.643 2.14342 -0.791824 0
M  V30 5799 C 531.853 -0.199081 -3.48432 0
M  V30 5800 C 533.201 -0.0724943 -4.24538 0
M  V30 5801 O 534.225 -0.128469 -3.55968 0
M  V30 5802 O 533.084 0.0542426 -5.46473 0
M  V30 5803 H 530.178 0.043749 -0.825842 0
M  V30 5804 H 532.724 -0.662522 -1.56233 0
M  V30 5805 H 531.496 -1.21631 -3.71916 0
M  V30 5806 H 531.119 0.483576 -3.94648 0
M  V30 5807 N 532.116 1.54067 -0.331816 0
M  V30 5808 C 533.079 2.23275 0.517768 0
M  V30 5809 C 534.079 1.22897 1.03697 0
M  V30 5810 O 535.269 1.47419 0.928084 0
M  V30 5811 C 532.401 2.94326 1.72004 0
M  V30 5812 H 533.594 2.99773 -0.0873507 0
M  V30 5813 H 531.147 1.56079 -0.0830042 0
M  V30 5814 H 531.882 2.21986 2.36417 0
M  V30 5815 H 531.667 3.67941 1.35507 0
M  V30 5816 H 533.157 3.47031 2.32291 0
M  V30 5817 N 533.594 0.0601682 1.57485 0
M  V30 5818 C 534.843 -0.611101 1.9222 0
M  V30 5819 C 535.156 -1.71469 0.941159 0
M  V30 5820 O 536.362 -2.44473 1.18089 0
M  V30 5821 C 534.818 -1.13832 3.41424 0
M  V30 5822 C 534.426 -0.0663596 4.47951 0
M  V30 5823 C 536.17 -1.78432 3.85178 0
M  V30 5824 C 534.077 -0.606965 5.88277 0
M  V30 5825 H 533.007 -0.232033 0.71741 0
M  V30 5826 H 535.658 0.130518 1.83035 0
M  V30 5827 H 534.04 -1.93254 3.45643 0
M  V30 5828 H 535.214 0.707682 4.55333 0
M  V30 5829 H 533.529 0.482715 4.13593 0
M  V30 5830 H 536.126 -2.1989 4.87394 0
M  V30 5831 H 536.469 -2.63966 3.21913 0
M  V30 5832 H 537.002 -1.05651 3.83514 0
M  V30 5833 H 533.741 0.21095 6.5516 0
M  V30 5834 H 533.261 -1.34879 5.84438 0
M  V30 5835 H 534.94 -1.08704 6.37803 0
M  V30 5836 N 535.072 -1.5615 -0.213296 0
M  V30 5837 C 536.297 -1.83986 -0.957282 0
M  V30 5838 C 536.722 -0.641526 -1.76822 0
M  V30 5839 O 536.08 0.409722 -1.7661 0
M  V30 5840 C 536.128 -3.09889 -1.84393 0
M  V30 5841 O 535.232 -2.89163 -2.94038 0
M  V30 5842 H 534.573 -0.606357 -0.270605 0
M  V30 5843 H 537.103 -2.03369 -0.224111 0
M  V30 5844 H 537.113 -3.40209 -2.25215 0
M  V30 5845 H 535.788 -3.96735 -1.24795 0
M  V30 5846 H 534.365 -2.70097 -2.57103 0
M  V30 5847 N 536.55 0.480323 -1.50102 0
M  V30 5848 C 537.78 1.25475 -1.64133 0
M  V30 5849 C 538.188 1.8647 -0.320272 0
M  V30 5850 O 537.531 1.69561 0.70673 0
M  V30 5851 C 537.593 2.40996 -2.6676 0
M  V30 5852 C 537.257 2.00711 -4.10565 0
M  V30 5853 C 538.254 1.53492 -4.96725 0
M  V30 5854 C 535.939 2.09714 -4.56427 0
M  V30 5855 C 537.933 1.15806 -6.26792 0
M  V30 5856 C 535.62 1.7164 -5.86501 0
M  V30 5857 C 536.618 1.24763 -6.71508 0
M  V30 5858 O 536.306 0.872122 -7.99155 0
M  V30 5859 H 536.038 0.385983 -0.554971 0
M  V30 5860 H 538.592 0.580848 -1.97016 0
M  V30 5861 H 536.822 3.11528 -2.291 0
M  V30 5862 H 538.511 3.02981 -2.70106 0
M  V30 5863 H 539.277 1.45966 -4.62514 0
M  V30 5864 H 535.156 2.4515 -3.90413 0
M  V30 5865 H 538.7 0.791465 -6.93096 0
M  V30 5866 H 534.597 1.78822 -6.20236 0
M  V30 5867 H 535.365 1.00178 -8.12346 0
M  V30 5868 N 538.028 1.39524 0.732853 0
M  V30 5869 C 539.258 1.3994 1.51988 0
M  V30 5870 C 539.666 -0.00727973 1.89199 0
M  V30 5871 O 539.009 -0.989521 1.54771 0
M  V30 5872 C 539.071 2.21026 2.83527 0
M  V30 5873 C 538.735 3.69633 2.68738 0
M  V30 5874 C 539.732 4.62665 2.37143 0
M  V30 5875 C 537.417 4.13244 2.85542 0
M  V30 5876 C 539.411 5.97291 2.22536 0
M  V30 5877 C 537.098 5.47945 2.70554 0
M  V30 5878 C 538.096 6.39783 2.39097 0
M  V30 5879 O 537.784 7.72002 2.24204 0
M  V30 5880 H 537.516 0.479795 0.476206 0
M  V30 5881 H 540.07 1.8399 0.913054 0
M  V30 5882 H 538.3 1.71728 3.46477 0
M  V30 5883 H 539.989 2.13594 3.45156 0
M  V30 5884 H 540.755 4.30272 2.2381 0
M  V30 5885 H 536.634 3.42094 3.09019 0
M  V30 5886 H 540.178 6.68939 1.97905 0
M  V30 5887 H 536.075 5.79928 2.83466 0
M  V30 5888 H 536.843 7.8275 2.39258 0
M  V30 5889 N 539.506 -0.963266 1.24736 0
M  V30 5890 C 540.453 -2.05857 1.04363 0
M  V30 5891 C 541.423 -1.6604 -0.0444951 0
M  V30 5892 O 542.608 -1.90477 0.110999 0
M  V30 5893 C 539.748 -3.38745 0.659235 0
M  V30 5894 C 538.861 -3.9173 1.82131 0
M  V30 5895 C 537.996 -5.12906 1.38208 0
M  V30 5896 C 537.035 -5.58098 2.51382 0
M  V30 5897 N 536.172 -6.7049 2.08295 0
M  V30 5898 H 541.012 -2.22616 1.98107 0
M  V30 5899 H 538.549 -1.09103 0.986661 0
M  V30 5900 H 540.507 -4.15107 0.417371 0
M  V30 5901 H 539.137 -3.21898 -0.241201 0
M  V30 5902 H 538.189 -3.11966 2.17672 0
M  V30 5903 H 539.501 -4.21225 2.67153 0
M  V30 5904 H 538.655 -5.96657 1.09935 0
M  V30 5905 H 537.394 -4.85105 0.502456 0
M  V30 5906 H 536.399 -4.72917 2.80409 0
M  V30 5907 H 537.624 -5.87911 3.39909 0
M  V30 5908 H 535.57 -6.44416 1.22737 0
M  V30 5909 H 535.487 -6.99458 2.86869 0
M  V30 5910 H 536.755 -7.57672 1.83175 0
M  V30 5911 N 540.985 -1.06182 -1.16461 0
M  V30 5912 C 542.234 -0.772927 -1.86303 0
M  V30 5913 C 542.547 0.703187 -1.82523 0
M  V30 5914 O 543.753 1.10641 -2.47933 0
M  V30 5915 C 542.209 -1.33249 -3.34324 0
M  V30 5916 C 541.817 -2.83876 -3.46581 0
M  V30 5917 C 543.561 -1.12108 -4.09429 0
M  V30 5918 C 541.468 -3.33082 -4.88682 0
M  V30 5919 H 540.398 -0.285452 -0.697878 0
M  V30 5920 H 543.049 -1.28039 -1.31447 0
M  V30 5921 H 541.431 -0.7528 -3.88779 0
M  V30 5922 H 542.605 -3.47786 -3.02293 0
M  V30 5923 H 540.92 -3.03671 -2.84909 0
M  V30 5924 H 543.517 -1.46361 -5.14279 0
M  V30 5925 H 543.86 -0.0593832 -4.16258 0
M  V30 5926 H 544.393 -1.6665 -3.6121 0
M  V30 5927 H 541.132 -4.38726 -4.87032 0
M  V30 5928 H 540.652 -2.73919 -5.33599 0
M  V30 5929 H 542.331 -3.28344 -5.57494 0
M  V30 5930 N 542.463 1.3308 -0.844243 0
M  V30 5931 C 543.71 1.97605 -0.44255 0
M  V30 5932 C 544.038 1.66856 0.999458 0
M  V30 5933 O 543.293 0.943586 1.7145 0
M  V30 5934 C 543.592 3.52045 -0.616354 0
M  V30 5935 C 543.258 4.02757 -2.02726 0
M  V30 5936 C 541.92 4.16316 -2.41317 0
M  V30 5937 C 544.272 4.29776 -2.9486 0
M  V30 5938 C 541.6 4.54232 -3.71335 0
M  V30 5939 C 543.952 4.69146 -4.24364 0
M  V30 5940 C 542.616 4.80911 -4.62904 0
M  V30 5941 H 541.886 0.723088 -0.161941 0
M  V30 5942 H 544.533 1.58663 -1.0723 0
M  V30 5943 H 542.838 3.91681 0.0966812 0
M  V30 5944 H 544.535 3.99981 -0.285756 0
M  V30 5945 H 541.125 3.9268 -1.71756 0
M  V30 5946 H 545.309 4.18818 -2.6628 0
M  V30 5947 H 540.565 4.61535 -4.00993 0
M  V30 5948 H 544.739 4.89008 -4.95827 0
M  V30 5949 H 542.366 5.10048 -5.63698 0
M  V30 5950 N 543.941 0.601185 1.45683 0
M  V30 5951 C 545.166 0.0982245 2.07167 0
M  V30 5952 C 545.591 -1.20546 1.44396 0
M  V30 5953 O 544.949 -1.73247 0.534347 0
M  V30 5954 C 544.997 -0.0346976 3.60583 0
M  V30 5955 O 544.101 -1.08657 3.97828 0
M  V30 5956 H 543.442 0.0711618 0.660176 0
M  V30 5957 H 545.972 0.829376 1.87036 0
M  V30 5958 H 545.982 -0.234969 4.07323 0
M  V30 5959 H 544.657 0.917265 4.05659 0
M  V30 5960 H 543.234 -0.863275 3.6277 0
M  V30 5961 N 545.419 -1.53889 0.339982 0
M  V30 5962 C 546.696 -1.93084 -0.312719 0
M  V30 5963 C 547.076 -1.2712 -1.68534 0
M  V30 5964 O 546.424 -0.420835 -2.24591 0
M  V30 5965 C 546.634 -3.4683 -0.388558 0
M  V30 5966 C 547.982 -4.19732 -0.641088 0
M  V30 5967 O 549.006 -3.53075 -0.470818 0
M  V30 5968 O 547.865 -5.3781 -0.970685 0
M  V30 5969 H 544.959 -0.806784 -0.18174 0
M  V30 5970 H 547.505 -1.65137 0.390898 0
M  V30 5971 H 546.277 -3.87055 0.574821 0
M  V30 5972 H 545.9 -3.80933 -1.1391 0
M  V30 5973 N 546.897 -0.0685191 -1.57451 0
M  V30 5974 C 547.844 0.899861 -2.12535 0
M  V30 5975 C 548.814 1.29749 -1.03703 0
M  V30 5976 O 549.999 1.38392 -1.31348 0
M  V30 5977 C 547.139 2.16328 -2.6888 0
M  V30 5978 C 546.252 1.81857 -3.91857 0
M  V30 5979 C 545.387 3.02786 -4.36457 0
M  V30 5980 C 544.426 2.64317 -5.5209 0
M  V30 5981 N 543.563 3.77994 -5.91663 0
M  V30 5982 H 548.403 0.423243 -2.94979 0
M  V30 5983 H 545.94 0.197268 -1.45771 0
M  V30 5984 H 547.898 2.90281 -2.99655 0
M  V30 5985 H 546.528 2.61536 -1.89206 0
M  V30 5986 H 545.58 0.979808 -3.67565 0
M  V30 5987 H 546.892 1.49553 -4.75852 0
M  V30 5988 H 546.046 3.85021 -4.68875 0
M  V30 5989 H 544.785 3.38281 -3.51308 0
M  V30 5990 H 543.79 1.80503 -5.19325 0
M  V30 5991 H 545.015 2.29995 -6.38967 0
M  V30 5992 H 542.961 4.13258 -5.09464 0
M  V30 5993 H 542.878 3.49447 -6.7039 0
M  V30 5994 H 544.146 4.60818 -6.28703 0
M  V30 5995 N 548.375 1.56261 0.205012 0
M  V30 5996 C 549.652 1.70856 0.952233 0
M  V30 5997 C 550.032 0.620501 2.01775 0
M  V30 5998 O 549.38 -0.370035 2.25484 0
M  V30 5999 C 549.59 3.12807 1.54767 0
M  V30 6000 C 550.938 3.72733 2.0336 0
M  V30 6001 O 551.962 3.15873 1.64629 0
M  V30 6002 O 550.821 4.72501 2.746 0
M  V30 6003 H 547.915 0.696496 0.445895 0
M  V30 6004 H 550.461 1.6857 0.195489 0
M  V30 6005 H 549.233 3.83465 0.779132 0
M  V30 6006 H 548.856 3.1928 2.36951 0
M  V30 6007 N 549.853 -0.472356 1.50355 0
M  V30 6008 C 551.101 -1.22211 1.60962 0
M  V30 6009 C 551.422 -1.92497 0.311439 0
M  V30 6010 O 550.692 -1.8405 -0.671002 0
M  V30 6011 H 549.272 -0.454092 0.593135 0
M  V30 6012 H 551.934 -0.544977 1.87126 0
M  V30 6013 H 551.03 -1.9707 2.42012 0
M  V30 6014 N 551.331 -1.39911 -0.725443 0
M  V30 6015 C 552.561 -1.40744 -1.51244 0
M  V30 6016 C 552.969 -0.00275403 -1.892 0
M  V30 6017 O 552.312 0.981299 -1.55294 0
M  V30 6018 C 552.374 -2.22527 -2.82351 0
M  V30 6019 C 552.038 -3.71053 -2.66774 0
M  V30 6020 C 553.035 -4.63916 -2.34686 0
M  V30 6021 C 550.72 -4.14753 -2.83347 0
M  V30 6022 C 552.714 -5.98463 -2.19366 0
M  V30 6023 C 550.401 -5.49372 -2.67644 0
M  V30 6024 C 551.399 -6.41042 -2.357 0
M  V30 6025 O 551.087 -7.73181 -2.20107 0
M  V30 6026 H 550.819 -0.482314 -0.473655 0
M  V30 6027 H 553.373 -1.84472 -0.903284 0
M  V30 6028 H 551.603 -1.73563 -3.45562 0
M  V30 6029 H 553.292 -2.15421 -3.44018 0
M  V30 6030 H 554.058 -4.31453 -2.21525 0
M  V30 6031 H 549.937 -3.43728 -3.072 0
M  V30 6032 H 553.481 -6.69979 -1.94354 0
M  V30 6033 H 549.378 -5.81424 -2.80387 0
M  V30 6034 H 550.146 -7.84008 -2.35103 0
M  V30 6035 N 552.809 0.956637 -1.25245 0
M  V30 6036 C 553.756 2.053 -1.05454 0
M  V30 6037 C 554.726 1.66062 0.0356889 0
M  V30 6038 O 555.911 1.90415 -0.121099 0
M  V30 6039 C 553.051 3.38391 -0.677191 0
M  V30 6040 C 552.164 3.90758 -1.84206 0
M  V30 6041 C 551.299 5.12165 -1.40926 0
M  V30 6042 C 550.338 5.56757 -2.54338 0
M  V30 6043 N 549.475 6.69376 -2.11848 0
M  V30 6044 H 554.315 2.21562 -1.99284 0
M  V30 6045 H 551.852 1.08578 -0.992434 0
M  V30 6046 H 553.81 4.1488 -0.43938 0
M  V30 6047 H 552.44 3.22021 0.224127 0
M  V30 6048 H 551.492 3.10808 -2.19323 0
M  V30 6049 H 552.804 4.19802 -2.69383 0
M  V30 6050 H 551.958 5.96065 -1.13098 0
M  V30 6051 H 550.697 4.84832 -0.528175 0
M  V30 6052 H 549.702 4.71423 -2.82913 0
M  V30 6053 H 550.927 5.861 -3.43022 0
M  V30 6054 H 548.873 6.43756 -1.26153 0
M  V30 6055 H 548.79 6.97927 -2.90574 0
M  V30 6056 H 550.058 7.5669 -1.87191 0
M  V30 6057 N 554.287 1.06798 1.15896 0
M  V30 6058 C 555.237 0.653213 2.18443 0
M  V30 6059 C 556.221 -0.318763 1.57711 0
M  V30 6060 O 557.413 -0.133388 1.76497 0
M  V30 6061 C 554.542 0.0465785 3.43268 0
M  V30 6062 C 553.628 1.04336 4.11066 0
M  V30 6063 N 554.019 2.22084 4.54436 0
M  V30 6064 C 552.317 0.875433 4.37324 0
M  V30 6065 C 553.018 2.85276 5.06944 0
M  V30 6066 N 551.994 2.12973 5.00143 0
M  V30 6067 H 555.796 1.55011 2.49698 0
M  V30 6068 H 553.31 0.940384 1.32403 0
M  V30 6069 H 555.307 -0.26843 4.16035 0
M  V30 6070 H 553.967 -0.845504 3.13499 0
M  V30 6071 H 554.978 2.59833 4.48004 0
M  V30 6072 H 551.655 0.0357721 4.17485 0
M  V30 6073 H 553.045 3.85223 5.50503 0
M  V30 6074 N 555.766 -1.3263 0.851289 0
M  V30 6075 C 557.015 -1.96633 0.449267 0
M  V30 6076 C 557.328 -1.68131 -0.999562 0
M  V30 6077 O 558.534 -2.25845 -1.50685 0
M  V30 6078 C 556.99 -3.51946 0.752446 0
M  V30 6079 C 556.598 -3.89311 2.21678 0
M  V30 6080 C 558.342 -4.22437 0.417983 0
M  V30 6081 C 556.249 -5.37655 2.46336 0
M  V30 6082 H 555.179 -0.735888 0.164269 0
M  V30 6083 H 557.83 -1.51073 1.0416 0
M  V30 6084 H 556.212 -3.95899 0.0895858 0
M  V30 6085 H 557.386 -3.56378 2.92115 0
M  V30 6086 H 555.701 -3.31836 2.51543 0
M  V30 6087 H 558.298 -5.31549 0.579674 0
M  V30 6088 H 558.641 -4.11349 -0.640115 0
M  V30 6089 H 559.174 -3.84057 1.03659 0
M  V30 6090 H 555.913 -5.5376 3.50757 0
M  V30 6091 H 555.433 -5.72005 1.80473 0
M  V30 6092 H 557.112 -6.04695 2.30115 0
M  V30 6093 N 557.244 -0.608902 -1.45362 0
M  V30 6094 C 558.194 0.130616 -2.27626 0
M  V30 6095 C 559.178 0.837323 -1.37396 0
M  V30 6096 O 560.37 0.727096 -1.61376 0
M  V30 6097 C 557.499 1.12646 -3.24293 0
M  V30 6098 C 556.585 0.42052 -4.2201 0
M  V30 6099 N 556.976 -0.538569 -5.02925 0
M  V30 6100 C 555.274 0.667901 -4.40971 0
M  V30 6101 C 555.975 -0.953625 -5.7383 0
M  V30 6102 N 554.951 -0.297097 -5.42788 0
M  V30 6103 H 558.753 -0.605996 -2.87585 0
M  V30 6104 H 556.267 -0.432672 -1.5653 0
M  V30 6105 H 558.264 1.67066 -3.81961 0
M  V30 6106 H 556.924 1.86361 -2.65894 0
M  V30 6107 H 557.935 -0.915375 -5.09746 0
M  V30 6108 H 554.612 1.38963 -3.93695 0
M  V30 6109 H 556.002 -1.74473 -6.48852 0
M  V30 6110 N 558.722 1.53707 -0.348139 0
M  V30 6111 C 559.952 2.05108 0.247864 0
M  V30 6112 C 560.36 1.22252 1.44399 0
M  V30 6113 O 559.703 0.251853 1.81965 0
M  V30 6114 C 559.765 3.52171 0.722187 0
M  V30 6115 C 559.429 4.5562 -0.354902 0
M  V30 6116 C 560.426 5.05883 -1.19911 0
M  V30 6117 C 558.111 4.99703 -0.510145 0
M  V30 6118 C 560.105 5.98814 -2.18406 0
M  V30 6119 C 557.792 5.92443 -1.49848 0
M  V30 6120 C 558.79 6.41887 -2.33389 0
M  V30 6121 O 558.478 7.32802 -3.3054 0
M  V30 6122 H 558.21 0.674086 0.0508296 0
M  V30 6123 H 560.764 1.99229 -0.49968 0
M  V30 6124 H 558.994 3.55529 1.52105 0
M  V30 6125 H 560.683 3.8652 1.23925 0
M  V30 6126 H 561.449 4.72586 -1.09028 0
M  V30 6127 H 557.328 4.60816 0.130274 0
M  V30 6128 H 560.872 6.3733 -2.83649 0
M  V30 6129 H 556.769 6.25155 -1.60786 0
M  V30 6130 H 557.537 7.50749 -3.26064 0
M  V30 6131 N 560.2 0.0768682 1.57412 0
M  V30 6132 C 561.449 -0.590679 1.92857 0
M  V30 6133 C 561.762 -1.70461 0.959293 0
M  V30 6134 O 562.968 -2.43207 1.20675 0
M  V30 6135 C 561.424 -1.10204 3.42612 0
M  V30 6136 C 561.032 -0.0188447 4.47996 0
M  V30 6137 C 562.776 -1.74336 3.87049 0
M  V30 6138 C 560.683 -0.544536 5.88888 0
M  V30 6139 H 559.613 -0.224411 0.71983 0
M  V30 6140 H 562.264 0.149924 1.82887 0
M  V30 6141 H 560.646 -1.89577 3.47673 0
M  V30 6142 H 561.82 0.755936 4.54557 0
M  V30 6143 H 560.135 0.526555 4.13057 0
M  V30 6144 H 562.732 -2.14708 4.89699 0
M  V30 6145 H 563.075 -2.60537 3.24694 0
M  V30 6146 H 563.608 -1.01577 3.84613 0
M  V30 6147 H 560.347 0.280426 6.549 0
M  V30 6148 H 559.867 -1.28673 5.85836 0
M  V30 6149 H 561.546 -1.01933 6.3892 0
M  V30 6150 N 561.678 -1.56367 -0.196722 0
M  V30 6151 C 562.625 -1.94417 -1.24382 0
M  V30 6152 C 563.595 -0.804543 -1.45315 0
M  V30 6153 O 564.78 -1.06256 -1.58475 0
M  V30 6154 C 561.92 -2.28757 -2.58388 0
M  V30 6155 C 561.033 -3.55775 -2.45047 0
M  V30 6156 C 560.168 -3.79445 -3.71746 0
M  V30 6157 C 559.207 -4.99894 -3.53231 0
M  V30 6158 N 558.344 -5.19826 -4.71938 0
M  V30 6159 H 563.184 -2.83691 -0.912338 0
M  V30 6160 H 560.721 -1.40392 -0.439135 0
M  V30 6161 H 562.679 -2.46682 -3.36457 0
M  V30 6162 H 561.309 -1.42625 -2.89582 0
M  V30 6163 H 560.361 -3.45905 -1.58284 0
M  V30 6164 H 561.673 -4.44 -2.27299 0
M  V30 6165 H 560.827 -3.97601 -4.58256 0
M  V30 6166 H 559.566 -2.89546 -3.92446 0
M  V30 6167 H 558.571 -4.81662 -2.65107 0
M  V30 6168 H 559.796 -5.913 -3.33978 0
M  V30 6169 H 557.742 -4.32875 -4.92905 0
M  V30 6170 H 557.659 -6.02228 -4.57009 0
M  V30 6171 H 558.927 -5.42439 -5.59803 0
M  V30 6172 N 563.156 0.464375 -1.50603 0
M  V30 6173 C 564.433 1.22549 -1.5245 0
M  V30 6174 C 564.813 2.09327 -0.273035 0
M  V30 6175 O 564.161 2.16074 0.743242 0
M  V30 6176 C 564.371 2.05074 -2.82393 0
M  V30 6177 C 565.719 2.63036 -3.33313 0
M  V30 6178 O 566.743 2.1531 -2.8376 0
M  V30 6179 O 565.602 3.5001 -4.19709 0
M  V30 6180 H 562.696 0.556471 -0.611775 0
M  V30 6181 H 565.242 0.475648 -1.62898 0
M  V30 6182 H 564.014 1.41169 -3.64948 0
M  V30 6183 H 563.637 2.87179 -2.7498 0
M  V30 6184 N 564.634 1.40294 0.718013 0
M  V30 6185 C 565.862 1.4175 1.50714 0
M  V30 6186 C 566.277 0.0165366 1.88793 0
M  V30 6187 O 565.634 -0.958942 1.55276 0
M  V30 6188 C 565.685 2.30598 2.784 0
M  V30 6189 O 565.406 3.6524 2.41932 0
M  V30 6190 C 566.907 2.4062 3.72313 0
M  V30 6191 H 564.127 0.483565 0.465194 0
M  V30 6192 H 566.671 1.84316 0.885889 0
M  V30 6193 H 564.826 1.91401 3.36815 0
M  V30 6194 H 565.24 4.12402 3.24076 0
M  V30 6195 H 566.714 3.07001 4.58753 0
M  V30 6196 H 567.191 1.4305 4.15251 0
M  V30 6197 H 567.797 2.80359 3.19811 0
M  V30 6198 N 566.112 -0.949982 1.2575 0
M  V30 6199 C 567.358 -1.69766 1.10938 0
M  V30 6200 C 567.691 -1.91056 -0.348028 0
M  V30 6201 O 566.966 -1.48488 -1.25625 0
M  V30 6202 C 567.249 -3.07779 1.86933 0
M  V30 6203 C 567.102 -2.9387 3.4053 0
M  V30 6204 C 568.421 -4.07749 1.65616 0
M  V30 6205 H 565.54 -0.616144 0.404396 0
M  V30 6206 H 568.182 -1.10394 1.54639 0
M  V30 6207 H 566.332 -3.58462 1.4979 0
M  V30 6208 H 568.004 -2.50476 3.87375 0
M  V30 6209 H 566.247 -2.29686 3.68004 0
M  V30 6210 H 566.918 -3.91719 3.88922 0
M  V30 6211 H 569.394 -3.65994 1.97959 0
M  V30 6212 H 568.27 -5.02348 2.21218 0
M  V30 6213 H 568.531 -4.38029 0.598595 0
M  V30 6214 N 567.59 -1.07411 -1.15328 0
M  V30 6215 C 568.5 -0.706438 -2.23711 0
M  V30 6216 C 569.516 0.282586 -1.7169 0
M  V30 6217 O 570.692 0.129066 -2.00986 0
M  V30 6218 C 567.757 -0.11048 -3.46524 0
M  V30 6219 C 566.818 -1.15282 -4.13532 0
M  V30 6220 C 566.051 -0.585205 -5.30482 0
M  V30 6221 O 566.274 0.598549 -5.67251 0
M  V30 6222 O 565.208 -1.33039 -5.87013 0
M  V30 6223 H 569.034 -1.61031 -2.57493 0
M  V30 6224 H 566.619 -0.847113 -1.23062 0
M  V30 6225 H 568.501 0.21957 -4.20828 0
M  V30 6226 H 567.176 0.766703 -3.14489 0
M  V30 6227 H 566.083 -1.53523 -3.41147 0
M  V30 6228 H 567.416 -2.00192 -4.49649 0
M  V30 6229 N 569.068 1.32177 -0.85831 0
M  V30 6230 C 570.016 2.30729 -0.294442 0
M  V30 6231 C 571.01 1.59009 0.584165 0
M  V30 6232 O 572.216 1.73713 0.471562 0
M  V30 6233 H 568.591 0.748097 -0.0765171 0
M  V30 6234 H 570.562 2.75774 -1.1398 0
M  V30 6235 C 569.311 3.44098 0.499208 0
M  V30 6236 H 568.634 3.99449 -0.167579 0
M  V30 6237 H 570.074 4.15202 0.859273 0
M  V30 6238 C 568.533 2.91684 1.68588 0
M  V30 6239 O 569.063 2.89481 2.78503 0
M  V30 6240 N 567.269 2.48036 1.51415 0
M  V30 6241 H 566.816 2.50027 0.620006 0
M  V30 6242 H 566.774 2.13322 2.30957 0
M  V30 6243 N 570.547 0.616602 1.45037 0
M  V30 6244 C 571.51 -0.0871112 2.29034 0
M  V30 6245 C 572.51 -0.786414 1.40258 0
M  V30 6246 O 573.7 -0.633207 1.62284 0
M  V30 6247 C 570.832 -1.13369 3.21497 0
M  V30 6248 H 572.025 0.651497 2.92738 0
M  V30 6249 H 569.578 0.376058 1.51709 0
M  V30 6250 H 570.313 -1.90277 2.62612 0
M  V30 6251 H 570.098 -0.636358 3.86902 0
M  V30 6252 H 571.588 -1.62627 3.84633 0
M  V30 6253 N 572.025 -1.5352 0.356285 0
M  V30 6254 C 573.274 -2.00298 -0.237373 0
M  V30 6255 C 573.587 -1.24784 -1.50627 0
M  V30 6256 O 574.793 -1.62103 -2.17795 0
M  V30 6257 C 573.249 -3.56771 -0.473545 0
M  V30 6258 C 572.857 -4.41154 0.780183 0
M  V30 6259 C 574.601 -4.1193 -1.02537 0
M  V30 6260 C 572.508 -5.89161 0.514108 0
M  V30 6261 H 571.438 -0.748307 -0.092478 0
M  V30 6262 H 574.089 -1.77283 0.473588 0
M  V30 6263 H 572.471 -3.75902 -1.24553 0
M  V30 6264 H 573.645 -4.33797 1.55425 0
M  V30 6265 H 571.96 -3.97052 1.25455 0
M  V30 6266 H 574.557 -5.20133 -1.2396 0
M  V30 6267 H 574.9 -3.65943 -1.98473 0
M  V30 6268 H 575.433 -3.96561 -0.313775 0
M  V30 6269 H 572.172 -6.39408 1.44355 0
M  V30 6270 H 571.692 -5.9939 -0.221632 0
M  V30 6271 H 573.371 -6.46857 0.136122 0
M  V30 6272 N 573.503 -0.0852151 -1.57369 0
M  V30 6273 C 574.435 0.907099 -2.10486 0
M  V30 6274 C 575.448 1.25259 -1.03991 0
M  V30 6275 O 576.637 1.20743 -1.31467 0
M  V30 6276 C 573.737 2.21908 -2.56145 0
M  V30 6277 C 572.91 2.05042 -3.86363 0
M  V30 6278 C 571.969 3.19664 -4.17973 0
M  V30 6279 O 570.995 2.94062 -4.87356 0
M  V30 6280 N 572.197 4.45151 -3.72587 0
M  V30 6281 H 574.962 0.453505 -2.96249 0
M  V30 6282 H 572.523 0.100157 -1.6159 0
M  V30 6283 H 574.515 2.97519 -2.74343 0
M  V30 6284 H 573.085 2.58723 -1.75446 0
M  V30 6285 H 572.305 1.13819 -3.77411 0
M  V30 6286 H 573.593 1.91039 -4.71574 0
M  V30 6287 H 572.991 4.68834 -3.16561 0
M  V30 6288 H 571.548 5.17744 -3.9596 0
M  V30 6289 N 574.981 1.5647 0.188427 0
M  V30 6290 C 576.23 1.80207 0.905995 0
M  V30 6291 C 576.543 0.659579 1.84144 0
M  V30 6292 O 577.749 0.781431 2.60011 0
M  V30 6293 C 576.205 3.19255 1.66145 0
M  V30 6294 C 575.813 4.41324 0.770504 0
M  V30 6295 C 577.557 3.52298 2.36826 0
M  V30 6296 C 575.464 5.71394 1.52521 0
M  V30 6297 H 574.394 0.671953 0.342045 0
M  V30 6298 H 577.045 1.82808 0.159164 0
M  V30 6299 H 575.427 3.10922 2.45242 0
M  V30 6300 H 576.601 4.60797 0.0177261 0
M  V30 6301 H 574.916 4.16035 0.174199 0
M  V30 6302 H 577.513 4.46715 2.93854 0
M  V30 6303 H 577.856 2.76359 3.11338 0
M  V30 6304 H 578.389 3.62108 1.6469 0
M  V30 6305 H 575.128 6.50316 0.82275 0
M  V30 6306 H 574.648 5.55928 2.25175 0
M  V30 6307 H 576.327 6.12747 2.07725 0
M  V30 6308 N 576.459 -0.456382 1.50847 0
M  V30 6309 C 577.687 -1.23026 1.66349 0
M  V30 6310 C 578.102 -1.85473 0.352868 0
M  V30 6311 O 577.459 -1.69885 -0.666739 0
M  V30 6312 C 577.51 -2.32827 2.76539 0
M  V30 6313 O 577.231 -1.72938 4.02522 0
M  V30 6314 C 578.732 -3.23448 3.03144 0
M  V30 6315 H 575.952 -0.371527 0.558756 0
M  V30 6316 H 578.496 -0.543082 1.97157 0
M  V30 6317 H 576.651 -2.97294 2.48384 0
M  V30 6318 H 577.065 -2.45357 4.63573 0
M  V30 6319 H 578.539 -3.96669 3.83872 0
M  V30 6320 H 579.016 -3.83094 2.14793 0
M  V30 6321 H 579.622 -2.64702 3.32886 0
M  V30 6322 N 577.937 -1.40673 -0.710563 0
M  V30 6323 C 579.162 -1.42741 -1.50465 0
M  V30 6324 C 579.587 -0.0302116 -1.88076 0
M  V30 6325 O 578.945 0.962945 -1.53613 0
M  V30 6326 C 578.993 -2.32873 -2.75322 0
M  V30 6327 O 578.097 -1.77544 -3.72226 0
M  V30 6328 H 577.438 -0.485056 -0.45345 0
M  V30 6329 H 579.968 -1.84961 -0.874681 0
M  V30 6330 H 579.978 -2.48233 -3.23797 0
M  V30 6331 H 578.653 -3.34401 -2.47283 0
M  V30 6332 H 577.23 -1.71556 -3.31093 0
M  V30 6333 N 579.415 0.9433 -1.26252 0
M  V30 6334 C 580.663 1.68592 -1.11451 0
M  V30 6335 C 580.984 1.91957 0.343123 0
M  V30 6336 O 580.254 1.51475 1.24226 0
M  V30 6337 H 578.834 0.624789 -0.409448 0
M  V30 6338 H 581.496 1.13351 -1.58548 0
M  V30 6339 H 580.592 2.66054 -1.63162 0
M  V30 6340 N 580.893 1.08022 1.14757 0
M  V30 6341 C 581.84 0.706657 2.19716 0
M  V30 6342 C 582.81 -0.30525 1.63271 0
M  V30 6343 O 583.995 -0.19015 1.8985 0
M  V30 6344 C 581.135 0.117914 3.44898 0
M  V30 6345 C 580.248 1.18212 4.15512 0
M  V30 6346 C 579.383 0.557659 5.28265 0
M  V30 6347 C 578.422 1.60418 5.90705 0
M  V30 6348 N 577.559 1.0018 6.94916 0
M  V30 6349 H 582.399 1.60603 2.51019 0
M  V30 6350 H 579.936 0.802664 1.23271 0
M  V30 6351 H 581.894 -0.241112 4.16503 0
M  V30 6352 H 580.524 -0.744788 3.1409 0
M  V30 6353 H 579.576 1.65863 3.42335 0
M  V30 6354 H 580.888 1.97533 4.5802 0
M  V30 6355 H 580.042 0.146654 6.06523 0
M  V30 6356 H 578.781 -0.267249 4.86967 0
M  V30 6357 H 577.786 2.02489 5.11154 0
M  V30 6358 H 579.011 2.43149 6.34078 0
M  V30 6359 H 576.957 0.197917 6.55701 0
M  V30 6360 H 576.874 1.73216 7.35889 0
M  V30 6361 H 578.142 0.616523 7.77058 0
M  V30 6362 N 582.371 -1.3172 0.865308 0
M  V30 6363 C 583.617 -1.97559 0.483944 0
M  V30 6364 C 583.972 -1.67181 -0.95227 0
M  V30 6365 O 583.265 -0.955392 -1.66081 0
M  V30 6366 C 583.459 -3.5102 0.672283 0
M  V30 6367 C 583.288 -3.96312 2.12525 0
M  V30 6368 C 582.058 -4.22877 2.76591 0
M  V30 6369 C 584.256 -4.10596 3.09702 0
M  V30 6370 N 582.238 -4.5449 4.12689 0
M  V30 6371 C 583.609 -4.45867 4.30816 0
M  V30 6372 C 585.664 -3.92961 3.05755 0
M  V30 6373 C 584.367 -4.65344 5.48495 0
M  V30 6374 C 586.393 -4.13628 4.22688 0
M  V30 6375 C 585.755 -4.49227 5.42563 0
M  V30 6376 H 581.854 -0.74862 0.226035 0
M  V30 6377 H 584.438 -1.59336 1.11893 0
M  V30 6378 H 582.609 -3.88342 0.0669224 0
M  V30 6379 H 584.341 -4.03865 0.259765 0
M  V30 6380 H 581.096 -4.15343 2.27567 0
M  V30 6381 H 581.52 -4.74464 4.82921 0
M  V30 6382 H 586.162 -3.64531 2.14188 0
M  V30 6383 H 583.88 -4.92624 6.40584 0
M  V30 6384 H 587.466 -4.01474 4.21082 0
M  V30 6385 H 586.346 -4.64895 6.31539 0
M  V30 6386 N 583.85 -0.624285 -1.44708 0
M  V30 6387 C 584.76 0.0861083 -2.34442 0
M  V30 6388 C 585.776 0.84291 -1.5222 0
M  V30 6389 O 586.952 0.796723 -1.84971 0
M  V30 6390 C 584.017 1.05999 -3.30099 0
M  V30 6391 C 583.077 0.303316 -4.28227 0
M  V30 6392 C 582.311 1.23081 -5.19314 0
M  V30 6393 O 582.534 2.46929 -5.14181 0
M  V30 6394 O 581.468 0.71883 -5.97592 0
M  V30 6395 H 585.293 -0.651756 -2.96624 0
M  V30 6396 H 582.879 -0.384493 -1.44368 0
M  V30 6397 H 584.76 1.62046 -3.88997 0
M  V30 6398 H 583.436 1.77859 -2.70459 0
M  V30 6399 H 582.343 -0.300033 -3.72895 0
M  V30 6400 H 583.676 -0.375123 -4.90768 0
M  V30 6401 N 585.328 1.53329 -0.364422 0
M  V30 6402 C 586.291 2.24323 0.470292 0
M  V30 6403 C 587.291 1.25068 1.01067 0
M  V30 6404 O 588.481 1.49354 0.896605 0
M  V30 6405 C 585.613 2.97908 1.65722 0
M  V30 6406 H 586.806 2.9952 -0.150917 0
M  V30 6407 H 584.359 1.55868 -0.116092 0
M  V30 6408 H 585.094 2.2695 2.31655 0
M  V30 6409 H 584.879 3.70732 1.27671 0
M  V30 6410 H 586.369 3.5188 2.24878 0
M  V30 6411 N 586.806 0.0935595 1.57322 0
M  V30 6412 C 588.055 -0.570191 1.93473 0
M  V30 6413 C 588.368 -1.69434 0.977318 0
M  V30 6414 O 589.574 -2.41914 1.23248 0
M  V30 6415 C 588.03 -1.06564 3.43762 0
M  V30 6416 C 587.638 0.0286723 4.47991 0
M  V30 6417 C 589.382 -1.70221 3.88877 0
M  V30 6418 C 587.289 -0.482046 5.89432 0
M  V30 6419 H 586.219 -0.216764 0.72217 0
M  V30 6420 H 588.87 0.169313 1.82717 0
M  V30 6421 H 587.252 -1.85878 3.49664 0
M  V30 6422 H 588.426 0.804106 4.5373 0
M  V30 6423 H 586.741 0.570336 4.12476 0
M  V30 6424 H 589.338 -2.09502 4.91948 0
M  V30 6425 H 589.681 -2.57078 3.27439 0
M  V30 6426 H 590.214 -0.974919 3.85668 0
M  V30 6427 H 586.953 0.349871 6.54566 0
M  V30 6428 H 586.473 -1.22452 5.87167 0
M  V30 6429 H 588.152 -0.951508 6.39965 0
M  V30 6430 N 588.284 -1.56567 -0.180126 0
M  V30 6431 C 589.232 -1.96632 -1.24251 0
M  V30 6432 C 590.226 -0.853818 -1.46309 0
M  V30 6433 O 591.432 -1.0389 -1.46993 0
M  V30 6434 H 587.807 -0.625476 -0.417473 0
M  V30 6435 H 589.778 -2.85201 -0.877679 0
M  V30 6436 C 588.527 -2.33486 -2.57642 0
M  V30 6437 H 587.85 -3.18626 -2.4149 0
M  V30 6438 H 589.29 -2.65371 -3.30688 0
M  V30 6439 C 587.749 -1.17499 -3.15746 0
M  V30 6440 O 588.279 -0.457956 -3.99081 0
M  V30 6441 N 586.485 -0.94786 -2.74707 0
M  V30 6442 H 586.032 -1.53269 -2.07042 0
M  V30 6443 H 585.99 -0.173626 -3.1392 0
M  V30 6444 N 589.762 0.448376 -1.51087 0
M  V30 6445 C 591.011 1.19561 -1.62444 0
M  V30 6446 C 591.324 1.92602 -0.341151 0
M  V30 6447 O 592.53 2.69439 -0.333936 0
M  V30 6448 C 590.986 2.17373 -2.8684 0
M  V30 6449 C 590.594 1.5003 -4.22131 0
M  V30 6450 C 592.338 2.92597 -3.0755 0
M  V30 6451 C 590.245 2.46262 -5.37689 0
M  V30 6452 H 589.175 0.449975 -0.605011 0
M  V30 6453 H 591.826 0.463735 -1.77544 0
M  V30 6454 H 590.208 2.93948 -2.65349 0
M  V30 6455 H 591.382 0.790886 -4.53962 0
M  V30 6456 H 589.697 0.870011 -4.0721 0
M  V30 6457 H 592.294 3.64663 -3.91056 0
M  V30 6458 H 592.637 3.53306 -2.20183 0
M  V30 6459 H 593.17 2.23131 -3.29329 0
M  V30 6460 H 589.909 1.90258 -6.27281 0
M  V30 6461 H 589.429 3.15289 -5.10248 0
M  V30 6462 H 591.108 3.07623 -5.6919 0
M  V30 6463 N 591.24 1.41047 0.703093 0
M  V30 6464 C 592.487 1.4 1.46309 0
M  V30 6465 C 592.815 0.00654574 1.94499 0
M  V30 6466 O 592.07 -0.980255 1.6938 0
M  V30 6467 C 592.369 2.34686 2.6955 0
M  V30 6468 C 592.035 3.81684 2.40058 0
M  V30 6469 C 590.697 4.21731 2.31725 0
M  V30 6470 C 593.049 4.74525 2.15581 0
M  V30 6471 C 590.377 5.52637 1.97001 0
M  V30 6472 C 592.729 6.05744 1.82366 0
M  V30 6473 C 591.393 6.44819 1.72524 0
M  V30 6474 H 590.663 0.512295 0.535382 0
M  V30 6475 H 593.31 1.73792 0.804275 0
M  V30 6476 H 591.615 1.94122 3.40329 0
M  V30 6477 H 593.312 2.31152 3.27673 0
M  V30 6478 H 589.902 3.49963 2.47435 0
M  V30 6479 H 594.086 4.44395 2.20968 0
M  V30 6480 H 589.342 5.81802 1.87928 0
M  V30 6481 H 593.516 6.77189 1.62444 0
M  V30 6482 H 591.143 7.46168 1.45385 0
M  V30 6483 N 592.718 -0.936591 1.26751 0
M  V30 6484 C 594.134 -1.21095 1.03963 0
M  V30 6485 C 594.334 -2.00156 -0.232372 0
M  V30 6486 O 593.39 -2.3434 -0.940274 0
M  V30 6487 C 594.703 -1.96775 2.27377 0
M  V30 6488 C 596.251 -2.09749 2.32324 0
M  V30 6489 C 596.726 -2.88832 3.55443 0
M  V30 6490 N 598.217 -2.96404 3.55948 0
M  V30 6491 C 598.952 -3.58036 4.47881 0
M  V30 6492 N 598.448 -4.21132 5.50109 0
M  V30 6493 N 600.241 -3.55353 4.35523 0
M  V30 6494 H 592.392 -0.408173 2.08441 0
M  V30 6495 H 594.655 -0.243139 0.91629 0
M  V30 6496 H 594.361 -1.46094 3.19921 0
M  V30 6497 H 594.235 -2.97424 2.31989 0
M  V30 6498 H 596.622 -2.5962 1.40291 0
M  V30 6499 H 596.703 -1.08347 2.31721 0
M  V30 6500 H 596.347 -2.39647 4.47808 0
M  V30 6501 H 596.277 -3.90499 3.53296 0
M  V30 6502 H 598.768 -2.51552 2.82011 0
M  V30 6503 H 599.081 -4.66071 6.16439 0
M  V30 6504 H 597.426 -4.19705 5.53961 0
M  V30 6505 H 600.617 -3.05256 3.54875 0
M  V30 6506 H 600.79 -4.03097 5.07363 0
M  V30 6507 N 594.196 -1.08629 -1.14182 0
M  V30 6508 C 595.442 -0.818556 -1.85546 0
M  V30 6509 C 595.775 0.654076 -1.82854 0
M  V30 6510 O 595.05 1.48099 -1.26083 0
M  V30 6511 C 595.333 -1.34397 -3.3408 0
M  V30 6512 C 595.186 -2.8821 -3.45333 0
M  V30 6513 C 596.505 -0.971069 -4.29253 0
M  V30 6514 H 593.624 -0.298821 -0.673702 0
M  V30 6515 H 596.266 -1.34629 -1.34071 0
M  V30 6516 H 594.416 -0.895064 -3.78049 0
M  V30 6517 H 596.088 -3.41488 -3.10134 0
M  V30 6518 H 594.331 -3.25756 -2.86471 0
M  V30 6519 H 595.002 -3.20047 -4.49749 0
M  V30 6520 H 597.478 -1.35809 -3.93313 0
M  V30 6521 H 596.354 -1.36586 -5.31635 0
M  V30 6522 H 596.615 0.121659 -4.41933 0
M  V30 6523 N 595.674 1.31259 -0.872281 0
M  V30 6524 C 596.902 2.00795 -0.498907 0
M  V30 6525 C 597.317 1.65464 0.909238 0
M  V30 6526 O 596.674 0.885073 1.59602 0
M  V30 6527 C 596.725 3.55625 -0.649092 0
M  V30 6528 O 596.446 3.89692 -2.00179 0
M  V30 6529 C 597.947 4.42434 -0.277034 0
M  V30 6530 H 595.167 0.642299 -0.194145 0
M  V30 6531 H 597.711 1.67438 -1.17408 0
M  V30 6532 H 595.866 3.87394 -0.0214402 0
M  V30 6533 H 596.28 4.84407 -2.01122 0
M  V30 6534 H 597.754 5.50299 -0.433064 0
M  V30 6535 H 598.231 4.32146 0.783989 0
M  V30 6536 H 598.837 4.16086 -0.880483 0
M  V30 6537 N 597.152 0.631951 1.44375 0
M  V30 6538 C 598.084 -0.110911 2.28931 0
M  V30 6539 C 599.097 -0.808086 1.41329 0
M  V30 6540 O 600.286 -0.669396 1.65473 0
M  V30 6541 C 597.386 -1.17928 3.1772 0
M  V30 6542 C 596.559 -0.564458 4.33743 0
M  V30 6543 C 595.618 -1.5269 5.0356 0
M  V30 6544 O 594.644 -1.04372 5.59549 0
M  V30 6545 N 595.846 -2.86123 5.05088 0
M  V30 6546 H 598.611 0.614758 2.93327 0
M  V30 6547 H 596.172 0.473171 1.54831 0
M  V30 6548 H 598.164 -1.82348 3.61291 0
M  V30 6549 H 596.734 -1.80717 2.55069 0
M  V30 6550 H 595.954 0.258373 3.93352 0
M  V30 6551 H 597.242 -0.134355 5.08623 0
M  V30 6552 H 596.64 -3.27959 4.60933 0
M  V30 6553 H 595.197 -3.45901 5.52445 0
M  V30 6554 N 598.631 -1.53133 0.372548 0
M  V30 6555 C 599.908 -1.93704 -0.271693 0
M  V30 6556 C 600.288 -1.30667 -1.65799 0
M  V30 6557 O 599.636 -0.46838 -2.23648 0
M  V30 6558 C 599.846 -3.47576 -0.314903 0
M  V30 6559 C 601.194 -4.20998 -0.551912 0
M  V30 6560 O 602.218 -3.53994 -0.39582 0
M  V30 6561 O 601.077 -5.39748 -0.85639 0
M  V30 6562 H 598.171 -0.810457 -0.164586 0
M  V30 6563 H 600.717 -1.6427 0.425838 0
M  V30 6564 H 599.489 -3.85749 0.656792 0
M  V30 6565 H 599.112 -3.83264 -1.05804 0
M  V30 6566 N 600.109 -0.101901 -1.5727 0
M  V30 6567 C 601.334 0.571759 -1.99363 0
M  V30 6568 C 601.759 1.60507 -0.980768 0
M  V30 6569 O 601.117 1.81231 0.0498517 0
M  V30 6570 C 601.165 1.18996 -3.404 0
M  V30 6571 O 600.269 2.30572 -3.41922 0
M  V30 6572 H 599.61 0.144449 -0.648098 0
M  V30 6573 H 602.14 -0.185325 -2.03759 0
M  V30 6574 H 602.15 1.52962 -3.78241 0
M  V30 6575 H 600.825 0.432984 -4.1364 0
M  V30 6576 H 599.402 1.98173 -3.15883 0
M  V30 6577 N 601.587 1.56661 0.17182 0
M  V30 6578 C 602.517 1.99401 1.21498 0
M  V30 6579 C 603.498 0.869516 1.46197 0
M  V30 6580 O 604.683 1.13556 1.57539 0
M  V30 6581 C 601.813 2.35346 2.55401 0
M  V30 6582 C 600.767 3.5075 2.45272 0
M  V30 6583 C 600.093 3.72437 3.8366 0
M  V30 6584 C 601.393 4.84216 1.95787 0
M  V30 6585 H 603.087 2.86792 0.859699 0
M  V30 6586 H 600.633 1.37977 0.412103 0
M  V30 6587 H 602.586 2.63843 3.2858 0
M  V30 6588 H 601.31 1.44864 2.92715 0
M  V30 6589 H 599.969 3.2238 1.74547 0
M  V30 6590 H 599.617 2.79246 4.18367 0
M  V30 6591 H 599.317 4.50087 3.77751 0
M  V30 6592 H 600.841 4.03334 4.58426 0
M  V30 6593 H 602.255 5.11592 2.5874 0
M  V30 6594 H 600.652 5.65498 2.00827 0
M  V30 6595 H 601.722 4.76243 0.912159 0
M  V30 6596 N 603.065 -0.440357 1.51323 0
M  V30 6597 C 604.312 -1.19004 1.63842 0
M  V30 6598 C 604.64 -1.91266 0.35321 0
M  V30 6599 O 603.895 -1.84143 -0.662565 0
M  V30 6600 C 604.194 -2.2339 2.78984 0
M  V30 6601 C 603.86 -1.68162 4.18369 0
M  V30 6602 C 602.522 -1.52823 4.56288 0
M  V30 6603 C 604.874 -1.27524 5.05358 0
M  V30 6604 C 602.202 -0.953157 5.78906 0
M  V30 6605 C 604.554 -0.714474 6.28552 0
M  V30 6606 C 603.218 -0.547961 6.65247 0
M  V30 6607 H 602.488 -0.435468 0.59954 0
M  V30 6608 H 605.135 -0.481538 1.85347 0
M  V30 6609 H 603.44 -3.00267 2.51688 0
M  V30 6610 H 605.137 -2.81211 2.85869 0
M  V30 6611 H 601.727 -1.81077 3.8847 0
M  V30 6612 H 605.911 -1.38197 4.76671 0
M  V30 6613 H 601.167 -0.811882 6.05986 0
M  V30 6614 H 605.341 -0.391059 6.95301 0
M  V30 6615 H 602.968 -0.100222 7.60134 0
M  V30 6616 N 604.543 -1.41418 -0.695603 0
M  V30 6617 C 605.773 -1.43921 -1.48224 0
M  V30 6618 C 606.181 -0.0428855 -1.89151 0
M  V30 6619 O 605.524 0.948138 -1.5734 0
M  V30 6620 C 605.586 -2.28466 -2.77567 0
M  V30 6621 C 605.25 -3.76629 -2.58844 0
M  V30 6622 C 606.247 -4.6879 -2.24793 0
M  V30 6623 C 603.932 -4.2067 -2.74485 0
M  V30 6624 C 605.926 -6.02981 -2.06622 0
M  V30 6625 C 603.613 -5.54926 -2.55931 0
M  V30 6626 C 604.611 -6.45897 -2.2205 0
M  V30 6627 O 604.299 -7.77675 -2.03657 0
M  V30 6628 H 604.031 -0.492252 -0.463318 0
M  V30 6629 H 606.585 -1.86347 -0.863952 0
M  V30 6630 H 604.815 -1.80853 -3.41802 0
M  V30 6631 H 606.504 -2.2267 -3.39371 0
M  V30 6632 H 607.27 -4.36055 -2.12323 0
M  V30 6633 H 603.149 -3.50167 -2.9984 0
M  V30 6634 H 606.693 -6.73951 -1.80099 0
M  V30 6635 H 602.59 -5.8724 -2.67991 0
M  V30 6636 H 603.358 -7.88819 -2.1842 0
M  V30 6637 N 606.021 0.929856 -1.27246 0
M  V30 6638 C 607.246 1.71674 -1.16374 0
M  V30 6639 C 607.671 1.86064 0.276024 0
M  V30 6640 O 607.029 1.3591 1.19992 0
M  V30 6641 C 607.077 3.09526 -1.85003 0
M  V30 6642 O 606.181 3.96142 -1.14653 0
M  V30 6643 H 605.522 0.52629 -0.404863 0
M  V30 6644 H 608.052 1.16381 -1.68276 0
M  V30 6645 H 608.062 3.59852 -1.92276 0
M  V30 6646 H 606.737 2.98369 -2.89739 0
M  V30 6647 H 605.314 3.54584 -1.15433 0
M  V30 6648 N 607.499 1.09233 1.13605 0
M  V30 6649 C 608.724 0.849067 1.89224 0
M  V30 6650 C 609.149 -0.593875 1.78479 0
M  V30 6651 O 608.507 -1.41703 1.13092 0
M  V30 6652 C 608.555 1.28642 3.36873 0
M  V30 6653 O 607.659 0.44363 4.10007 0
M  V30 6654 H 607 0.30767 0.588417 0
M  V30 6655 H 609.53 1.45595 1.43748 0
M  V30 6656 H 609.54 1.27096 3.87699 0
M  V30 6657 H 608.215 2.33729 3.44011 0
M  V30 6658 H 606.792 0.523241 3.69211 0
M  V30 6659 N 608.977 -1.30795 0.87923 0
M  V30 6660 C 609.925 -2.30231 0.331112 0
M  V30 6661 C 610.919 -1.59918 -0.558794 0
M  V30 6662 O 612.125 -1.74441 -0.443866 0
M  V30 6663 H 608.5 -0.746785 0.088409 0
M  V30 6664 H 610.471 -2.73925 1.18353 0
M  V30 6665 C 609.22 -3.44848 -0.444401 0
M  V30 6666 H 608.543 -3.99131 0.231106 0
M  V30 6667 H 609.983 -4.16516 -0.793109 0
M  V30 6668 C 608.442 -2.94329 -1.63926 0
M  V30 6669 O 608.972 -2.93875 -2.73862 0
M  V30 6670 N 607.178 -2.50413 -1.4745 0
M  V30 6671 H 606.725 -2.50982 -0.58015 0
M  V30 6672 H 606.683 -2.16969 -2.27534 0
M  V30 6673 N 610.455 -0.639598 -1.44038 0
M  V30 6674 C 611.365 0.0612377 -2.3452 0
M  V30 6675 C 612.381 0.826717 -1.53106 0
M  V30 6676 O 613.557 0.777059 -1.85806 0
M  V30 6677 C 610.622 1.02492 -3.31204 0
M  V30 6678 C 609.683 0.25788 -4.28525 0
M  V30 6679 C 608.916 1.17566 -5.2059 0
M  V30 6680 O 609.139 2.41461 -5.16771 0
M  V30 6681 O 608.073 0.655407 -5.98321 0
M  V30 6682 H 611.899 -0.68318 -2.95916 0
M  V30 6683 H 609.484 -0.399784 -1.43952 0
M  V30 6684 H 611.366 1.57911 -3.90694 0
M  V30 6685 H 610.041 1.7498 -2.7233 0
M  V30 6686 H 608.948 -0.339566 -3.72556 0
M  V30 6687 H 610.281 -0.427154 -4.90343 0
M  V30 6688 N 611.933 1.52934 -0.380664 0
M  V30 6689 C 613.18 2.01467 0.204278 0
M  V30 6690 C 613.508 1.26744 1.47533 0
M  V30 6691 O 612.763 0.353723 1.92477 0
M  V30 6692 C 613.062 3.5349 0.527199 0
M  V30 6693 C 612.728 4.46171 -0.651295 0
M  V30 6694 C 611.39 4.71227 -0.974619 0
M  V30 6695 C 613.742 5.00909 -1.44012 0
M  V30 6696 C 611.07 5.4827 -2.08847 0
M  V30 6697 C 613.422 5.7917 -2.5445 0
M  V30 6698 C 612.086 6.02507 -2.87301 0
M  V30 6699 H 611.356 0.73722 0.0747504 0
M  V30 6700 H 614.003 1.84411 -0.516234 0
M  V30 6701 H 612.308 3.68574 1.32892 0
M  V30 6702 H 614.005 3.88529 0.992283 0
M  V30 6703 H 610.595 4.26829 -0.389276 0
M  V30 6704 H 614.779 4.81485 -1.20357 0
M  V30 6705 H 610.035 5.64567 -2.34679 0
M  V30 6706 H 614.209 6.20588 -3.1598 0
M  V30 6707 H 611.836 6.61989 -3.7373 0
M  V30 6708 N 613.412 0.11024 1.57214 0
M  V30 6709 C 614.322 -0.857077 2.18383 0
M  V30 6710 C 615.338 -1.29915 1.1575 0
M  V30 6711 O 616.514 -1.36394 1.48184 0
M  V30 6712 C 613.579 -2.09264 2.76423 0
M  V30 6713 C 612.64 -1.70333 3.94063 0
M  V30 6714 C 611.873 -2.87999 4.49324 0
M  V30 6715 O 612.096 -4.0317 4.03497 0
M  V30 6716 O 611.03 -2.6559 5.40135 0
M  V30 6717 H 614.856 -0.366561 3.0148 0
M  V30 6718 H 612.441 -0.114914 1.48957 0
M  V30 6719 H 614.323 -2.81644 3.13456 0
M  V30 6720 H 612.998 -2.57339 1.96363 0
M  V30 6721 H 611.905 -0.950864 3.61814 0
M  V30 6722 H 613.238 -1.27007 4.75531 0
M  V30 6723 N 614.89 -1.56749 -0.16351 0
M  V30 6724 C 615.8 -2.00255 -1.2221 0
M  V30 6725 C 616.816 -0.915194 -1.47987 0
M  V30 6726 O 617.992 -1.22342 -1.59982 0
M  V30 6727 C 615.057 -2.36035 -2.53946 0
M  V30 6728 C 614.118 -3.58637 -2.35962 0
M  V30 6729 C 613.351 -3.92701 -3.61416 0
M  V30 6730 O 613.574 -3.27632 -4.66919 0
M  V30 6731 O 612.508 -4.86019 -3.55062 0
M  V30 6732 H 616.334 -2.90586 -0.882794 0
M  V30 6733 H 613.919 -1.44721 -0.370978 0
M  V30 6734 H 615.801 -2.59982 -3.31643 0
M  V30 6735 H 614.476 -1.48863 -2.8744 0
M  V30 6736 H 613.383 -3.39898 -1.5627 0
M  V30 6737 H 614.716 -4.46374 -2.0739 0
M  V30 6738 N 616.368 0.432326 -1.51554 0
M  V30 6739 C 617.598 1.2019 -1.68042 0
M  V30 6740 C 618.006 1.85356 -0.379434 0
M  V30 6741 O 617.349 1.71724 0.652427 0
M  V30 6742 C 617.411 2.32387 -2.74292 0
M  V30 6743 C 617.075 1.87548 -4.16743 0
M  V30 6744 C 618.072 1.37611 -5.01357 0
M  V30 6745 C 615.757 1.95087 -4.62868 0
M  V30 6746 C 617.751 0.958069 -6.30159 0
M  V30 6747 C 615.438 1.52894 -5.91664 0
M  V30 6748 C 616.436 1.03336 -6.75137 0
M  V30 6749 O 616.124 0.617435 -8.01525 0
M  V30 6750 H 615.856 0.368132 -0.56697 0
M  V30 6751 H 618.41 0.517875 -1.98764 0
M  V30 6752 H 616.64 3.04082 -2.38895 0
M  V30 6753 H 618.329 2.94235 -2.79608 0
M  V30 6754 H 619.095 1.31178 -4.66923 0
M  V30 6755 H 614.974 2.32606 -3.98015 0
M  V30 6756 H 618.518 0.570562 -6.95263 0
M  V30 6757 H 614.415 1.58999 -6.25611 0
M  V30 6758 H 615.183 0.742835 -8.15122 0
M  V30 6759 N 617.846 1.41785 0.688094 0
M  V30 6760 C 619.257 1.3701 1.26828 0
M  V30 6761 C 619.608 0.056835 1.96118 0
M  V30 6762 O 618.733 -0.84475 1.99231 0
M  V30 6763 C 619.328 2.48168 2.30648 0
M  V30 6764 C 617.887 2.46766 2.84224 0
M  V30 6765 C 617.034 2.27633 1.58361 0
M  V30 6766 H 619.985 1.51192 0.482351 0
M  V30 6767 H 620.006 2.17655 3.121 0
M  V30 6768 H 619.518 3.43735 1.80188 0
M  V30 6769 H 617.619 1.54978 3.3884 0
M  V30 6770 H 617.732 3.43342 3.34145 0
M  V30 6771 H 616.096 1.75648 1.84445 0
M  V30 6772 H 616.879 3.25238 1.09887 0
M  V30 6773 N 619.324 -0.923095 1.27737 0
M  V30 6774 C 620.572 -1.66797 1.14119 0
M  V30 6775 C 620.893 -1.92479 -0.312541 0
M  V30 6776 O 620.163 -1.53432 -1.218 0
M  V30 6777 H 618.743 -0.618196 0.419336 0
M  V30 6778 H 621.405 -1.10815 1.60331 0
M  V30 6779 H 620.501 -2.63424 1.67374 0
M  V30 6780 N 620.802 -1.09834 -1.13024 0
M  V30 6781 C 622.218 -0.828875 -1.36388 0
M  V30 6782 C 622.418 0.554756 -1.93713 0
M  V30 6783 O 621.474 1.30882 -2.15931 0
M  V30 6784 C 622.787 -1.92352 -2.3113 0
M  V30 6785 C 624.335 -1.95124 -2.44735 0
M  V30 6786 C 624.81 -3.03745 -3.42787 0
M  V30 6787 N 626.301 -3.03012 -3.5034 0
M  V30 6788 C 627.036 -3.83699 -4.26101 0
M  V30 6789 N 626.532 -4.74306 -5.04981 0
M  V30 6790 N 628.325 -3.71942 -4.21445 0
M  V30 6791 H 620.476 -1.99029 -0.74169 0
M  V30 6792 H 622.739 -0.864557 -0.388903 0
M  V30 6793 H 622.445 -2.91906 -1.96172 0
M  V30 6794 H 622.319 -1.80536 -3.3119 0
M  V30 6795 H 624.706 -0.962069 -2.78977 0
M  V30 6796 H 624.787 -2.11018 -1.44586 0
M  V30 6797 H 624.431 -4.02878 -3.09276 0
M  V30 6798 H 624.361 -2.85094 -4.42752 0
M  V30 6799 H 626.852 -2.37352 -2.94062 0
M  V30 6800 H 627.165 -5.32446 -5.60108 0
M  V30 6801 H 625.51 -4.78339 -5.04199 0
M  V30 6802 H 628.701 -3.00513 -3.589 0
M  V30 6803 H 628.874 -4.35062 -4.80235 0
M  V30 6804 N 622.28 1.30327 -0.886154 0
M  V30 6805 C 623.696 1.48676 -0.580323 0
M  V30 6806 C 623.896 1.81189 0.881639 0
M  V30 6807 O 622.952 1.90021 1.66278 0
M  V30 6808 C 624.265 2.60932 -1.49449 0
M  V30 6809 C 625.813 2.74812 -1.49824 0
M  V30 6810 C 626.288 3.90183 -2.39836 0
M  V30 6811 N 627.779 3.97495 -2.37806 0
M  V30 6812 C 628.514 4.86078 -3.04165 0
M  V30 6813 N 628.01 5.79448 -3.79753 0
M  V30 6814 N 629.803 4.79456 -2.93391 0
M  V30 6815 H 621.954 1.07495 -1.8319 0
M  V30 6816 H 624.217 0.532661 -0.784204 0
M  V30 6817 H 623.923 2.43731 -2.5355 0
M  V30 6818 H 623.797 3.57437 -1.20494 0
M  V30 6819 H 626.184 2.91418 -0.464731 0
M  V30 6820 H 626.265 1.78924 -1.82811 0
M  V30 6821 H 625.909 3.74334 -3.43273 0
M  V30 6822 H 625.839 4.85411 -2.04166 0
M  V30 6823 H 628.33 3.30703 -1.82877 0
M  V30 6824 H 628.643 6.43805 -4.27475 0
M  V30 6825 H 626.988 5.79376 -3.8386 0
M  V30 6826 H 630.179 4.05494 -2.33864 0
M  V30 6827 H 630.352 5.48283 -3.45383 0
M  V30 6828 N 623.758 0.647228 1.43697 0
M  V30 6829 C 624.706 -0.0600105 2.32523 0
M  V30 6830 C 625.7 -0.819277 1.48271 0
M  V30 6831 O 626.906 -0.730356 1.64517 0
M  V30 6832 H 623.281 -0.0381872 0.75103 0
M  V30 6833 H 625.252 0.706978 2.89904 0
M  V30 6834 C 624.001 -1.0169 3.32497 0
M  V30 6835 H 623.324 -0.442083 3.97348 0
M  V30 6836 H 624.764 -1.48095 3.97296 0
M  V30 6837 C 623.223 -2.11002 2.6264 0
M  V30 6838 O 623.753 -3.19302 2.4374 0
M  V30 6839 N 621.959 -1.87388 2.22113 0
M  V30 6840 H 621.506 -0.993174 2.37684 0
M  V30 6841 H 621.464 -2.60723 1.75701 0
M  V30 6842 N 625.236 -1.5273 0.388769 0
M  V30 6843 C 626.485 -2.00757 -0.194833 0
M  V30 6844 C 626.798 -1.27951 -1.47946 0
M  V30 6845 O 628.004 -1.66686 -2.14308 0
M  V30 6846 C 626.46 -3.57695 -0.397762 0
M  V30 6847 C 626.068 -4.394 0.873583 0
M  V30 6848 C 627.812 -4.14012 -0.937759 0
M  V30 6849 C 625.719 -5.87938 0.638962 0
M  V30 6850 H 624.649 -0.750101 -0.0765845 0
M  V30 6851 H 627.3 -1.76239 0.511086 0
M  V30 6852 H 625.682 -3.7846 -1.16552 0
M  V30 6853 H 626.856 -4.30403 1.64591 0
M  V30 6854 H 625.171 -3.94301 1.33849 0
M  V30 6855 H 627.768 -5.22645 -1.12899 0
M  V30 6856 H 628.111 -3.7007 -1.90666 0
M  V30 6857 H 628.644 -3.97137 -0.229588 0
M  V30 6858 H 625.383 -6.36202 1.57885 0
M  V30 6859 H 624.903 -5.99726 -0.094443 0
M  V30 6860 H 626.582 -6.46423 0.273299 0
M  V30 6861 N 626.714 -0.118576 -1.57153 0
M  V30 6862 C 627.944 0.546466 -1.99242 0
M  V30 6863 C 628.352 1.60791 -0.997148 0
M  V30 6864 O 627.695 1.83691 0.0181745 0
M  V30 6865 C 627.757 1.23167 -3.37743 0
M  V30 6866 C 627.421 0.318226 -4.55891 0
M  V30 6867 C 628.418 -0.442988 -5.18009 0
M  V30 6868 C 626.103 0.229421 -5.01776 0
M  V30 6869 C 628.097 -1.28074 -6.244 0
M  V30 6870 C 625.784 -0.611966 -6.08028 0
M  V30 6871 C 626.782 -1.36568 -6.69207 0
M  V30 6872 O 626.47 -2.1931 -7.73407 0
M  V30 6873 H 626.202 0.149297 -0.659307 0
M  V30 6874 H 628.756 -0.201603 -2.04408 0
M  V30 6875 H 626.986 2.0268 -3.29329 0
M  V30 6876 H 628.675 1.79358 -3.64123 0
M  V30 6877 H 629.441 -0.38425 -4.83475 0
M  V30 6878 H 625.32 0.805771 -4.53903 0
M  V30 6879 H 628.864 -1.86952 -6.72082 0
M  V30 6880 H 624.761 -0.6721 -6.41991 0
M  V30 6881 H 625.529 -2.12247 -7.90502 0
M  V30 6882 N 628.193 1.56834 0.155195 0
M  V30 6883 C 629.609 1.51315 0.50755 0
M  V30 6884 C 629.809 0.825614 1.83809 0
M  V30 6885 O 628.865 0.39271 2.49427 0
M  V30 6886 C 630.178 2.96074 0.52542 0
M  V30 6887 C 631.726 3.06968 0.611505 0
M  V30 6888 C 632.201 4.53218 0.660115 0
M  V30 6889 N 633.692 4.5753 0.722564 0
M  V30 6890 C 634.427 5.68056 0.781023 0
M  V30 6891 N 633.923 6.88173 0.799327 0
M  V30 6892 N 635.716 5.56068 0.821278 0
M  V30 6893 H 627.867 1.9993 -0.717063 0
M  V30 6894 H 630.13 0.911507 -0.260496 0
M  V30 6895 H 629.836 3.49599 -0.383875 0
M  V30 6896 H 629.71 3.51587 1.36624 0
M  V30 6897 H 632.097 2.53468 1.51122 0
M  V30 6898 H 632.178 2.54513 -0.256306 0
M  V30 6899 H 631.822 5.07354 -0.23541 0
M  V30 6900 H 631.752 5.03447 1.5443 0
M  V30 6901 H 634.243 3.71054 0.716049 0
M  V30 6902 H 634.556 7.6816 0.845553 0
M  V30 6903 H 632.901 6.90751 0.767337 0
M  V30 6904 H 636.092 4.61142 0.804091 0
M  V30 6905 H 636.265 6.42223 0.863372 0
M  V30 6906 N 629.671 -0.424282 1.51781 0
M  V30 6907 C 630.92 -1.16961 1.64326 0
M  V30 6908 C 631.233 -1.92035 0.371749 0
M  V30 6909 O 632.439 -2.68873 0.37676 0
M  V30 6910 C 630.895 -2.12782 2.90262 0
M  V30 6911 C 630.503 -1.43295 4.24465 0
M  V30 6912 C 632.247 -2.87667 3.12166 0
M  V30 6913 C 630.154 -2.37676 5.41538 0
M  V30 6914 H 629.084 -0.440293 0.612093 0
M  V30 6915 H 631.735 -0.435431 1.78259 0
M  V30 6916 H 630.117 -2.8969 2.69992 0
M  V30 6917 H 631.291 -0.718564 4.55163 0
M  V30 6918 H 629.606 -0.805118 4.08542 0
M  V30 6919 H 632.203 -3.58395 3.96808 0
M  V30 6920 H 632.546 -3.49758 2.25776 0
M  V30 6921 H 633.079 -2.17863 3.32837 0
M  V30 6922 H 629.818 -1.80255 6.30229 0
M  V30 6923 H 629.338 -3.07132 5.15199 0
M  V30 6924 H 631.017 -2.98529 5.74012 0
M  V30 6925 N 631.149 -1.42148 -0.680565 0
M  V30 6926 C 632.374 -1.45901 -1.47403 0
M  V30 6927 C 632.799 -0.0700985 -1.87969 0
M  V30 6928 O 632.157 0.930145 -1.55621 0
M  V30 6929 C 632.205 -2.38661 -2.70321 0
M  V30 6930 O 631.309 -1.85399 -3.68376 0
M  V30 6931 H 630.65 -0.494565 -0.443059 0
M  V30 6932 H 633.18 -1.86774 -0.835251 0
M  V30 6933 H 633.19 -2.55046 -3.18458 0
M  V30 6934 H 631.865 -3.39571 -2.40134 0
M  V30 6935 H 630.442 -1.78541 -3.2738 0
M  V30 6936 N 632.627 0.916307 -1.28225 0
M  V30 6937 C 633.876 1.65975 -1.14608 0
M  V30 6938 C 634.189 1.93204 0.305191 0
M  V30 6939 O 635.395 2.65611 0.562432 0
M  V30 6940 C 633.851 2.98989 -2.00333 0
M  V30 6941 C 633.459 2.79417 -3.50186 0
M  V30 6942 C 635.203 3.76856 -1.95397 0
M  V30 6943 C 633.11 4.08056 -4.28071 0
M  V30 6944 H 632.04 0.622587 -0.425324 0
M  V30 6945 H 634.691 1.01705 -1.52736 0
M  V30 6946 H 633.073 3.6438 -1.5506 0
M  V30 6947 H 634.247 2.22723 -4.034 0
M  V30 6948 H 632.562 2.14966 -3.56621 0
M  V30 6949 H 635.159 4.72203 -2.50856 0
M  V30 6950 H 635.502 4.05776 -0.930137 0
M  V30 6951 H 636.035 3.1828 -2.38626 0
M  V30 6952 H 632.774 3.8431 -5.31024 0
M  V30 6953 H 632.294 4.64371 -3.79631 0
M  V30 6954 H 633.973 4.76333 -4.37854 0
M  V30 6955 N 634.105 1.10431 1.1244 0
M  V30 6956 C 635.353 0.845045 1.83585 0
M  V30 6957 C 635.674 -0.631168 1.84503 0
M  V30 6958 O 634.944 -1.45825 1.30813 0
M  V30 6959 H 633.524 0.309628 0.679809 0
M  V30 6960 H 636.186 1.39458 1.36153 0
M  V30 6961 H 635.282 1.20786 2.8778 0
M  V30 6962 N 635.583 -1.29855 0.893053 0
M  V30 6963 C 636.808 -2.00512 0.530066 0
M  V30 6964 C 637.233 -1.66446 -0.876199 0
M  V30 6965 O 636.591 -0.885446 -1.58207 0
M  V30 6966 C 636.639 -3.53308 0.721505 0
M  V30 6967 O 635.743 -4.11764 -0.228994 0
M  V30 6968 H 635.084 -0.630617 0.207891 0
M  V30 6969 H 637.614 -1.6551 1.20282 0
M  V30 6970 H 637.624 -4.03206 0.623599 0
M  V30 6971 H 636.299 -3.77439 1.74678 0
M  V30 6972 H 634.876 -3.72805 -0.0841034 0
M  V30 6973 N 637.061 -0.65484 -1.43351 0
M  V30 6974 C 638.291 -0.176429 -2.05845 0
M  V30 6975 C 638.699 1.16375 -1.49176 0
M  V30 6976 O 638.042 1.72981 -0.618322 0
M  V30 6977 C 638.104 -0.0125844 -3.59498 0
M  V30 6978 C 637.768 -1.27831 -4.38758 0
M  V30 6979 C 638.765 -2.2074 -4.70712 0
M  V30 6980 C 636.45 -1.52035 -4.78739 0
M  V30 6981 C 638.444 -3.36145 -5.41558 0
M  V30 6982 C 636.131 -2.67732 -5.49329 0
M  V30 6983 C 637.129 -3.59612 -5.80662 0
M  V30 6984 O 636.817 -4.73289 -6.4981 0
M  V30 6985 H 636.549 -0.0879682 -0.670252 0
M  V30 6986 H 639.103 -0.896193 -1.84818 0
M  V30 6987 H 637.333 0.762567 -3.79107 0
M  V30 6988 H 639.022 0.423392 -4.03686 0
M  V30 6989 H 639.788 -2.03284 -4.40341 0
M  V30 6990 H 635.667 -0.813987 -4.53757 0
M  V30 6991 H 639.211 -4.07881 -5.65932 0
M  V30 6992 H 635.108 -2.85122 -5.79116 0
M  V30 6993 H 635.876 -4.72575 -6.68293 0
M  V30 6994 N 638.539 1.52521 -0.396863 0
M  V30 6995 C 639.95 1.86547 0.0754868 0
M  V30 6996 C 640.301 1.31621 1.45501 0
M  V30 6997 O 639.426 0.650563 2.0639 0
M  V30 6998 C 640.021 3.38495 0.143754 0
M  V30 6999 C 638.58 3.72205 0.560413 0
M  V30 7000 C 637.727 2.75954 -0.272856 0
M  V30 7001 H 640.678 1.46323 -0.614434 0
M  V30 7002 H 640.699 3.68153 0.961425 0
M  V30 7003 H 640.211 3.78442 -0.860415 0
M  V30 7004 H 638.312 3.3783 1.57167 0
M  V30 7005 H 638.425 4.78074 0.313314 0
M  V30 7006 H 636.789 2.53339 0.263 0
M  V30 7007 H 637.572 3.1874 -1.27515 0
M  V30 7008 N 640.017 0.126909 1.57088 0
M  V30 7009 C 641.428 -0.397201 1.82426 0
M  V30 7010 C 641.779 -1.66084 1.04453 0
M  V30 7011 O 640.904 -2.14534 0.283552 0
M  V30 7012 C 641.499 -0.727411 3.30899 0
M  V30 7013 C 640.058 -1.19612 3.56889 0
M  V30 7014 C 639.205 -0.20885 2.76512 0
M  V30 7015 H 642.156 0.351924 1.54749 0
M  V30 7016 H 642.177 -1.58407 3.45959 0
M  V30 7017 H 641.689 0.19247 3.87622 0
M  V30 7018 H 639.79 -2.13263 3.05532 0
M  V30 7019 H 639.903 -1.13598 4.65438 0
M  V30 7020 H 638.267 -0.697479 2.44964 0
M  V30 7021 H 639.05 0.704267 3.35998 0
M  V30 7022 N 641.495 -1.56914 -0.146875 0
M  V30 7023 C 642.72 -1.87881 -0.878386 0
M  V30 7024 C 643.145 -0.715945 -1.73942 0
M  V30 7025 O 642.503 0.334447 -1.78189 0
M  V30 7026 C 642.551 -3.17431 -1.71084 0
M  V30 7027 O 641.655 -3.01374 -2.81509 0
M  V30 7028 H 640.996 -0.617289 -0.244644 0
M  V30 7029 H 643.526 -2.04136 -0.137654 0
M  V30 7030 H 643.536 -3.49455 -2.10582 0
M  V30 7031 H 642.211 -4.01671 -1.07856 0
M  V30 7032 H 640.788 -2.80758 -2.45416 0
M  V30 7033 N 642.974 0.416227 -1.52004 0
M  V30 7034 C 643.921 1.50666 -1.74838 0
M  V30 7035 C 644.891 1.55245 -0.590599 0
M  V30 7036 O 646.076 1.71928 -0.827374 0
M  V30 7037 C 643.216 2.88185 -1.89851 0
M  V30 7038 C 642.329 2.92971 -3.17478 0
M  V30 7039 C 641.464 4.21745 -3.22962 0
M  V30 7040 C 640.503 4.20478 -4.4482 0
M  V30 7041 N 639.64 5.40811 -4.47736 0
M  V30 7042 H 644.48 1.30498 -2.67907 0
M  V30 7043 H 642.017 0.633568 -1.32757 0
M  V30 7044 H 643.975 3.68007 -1.96537 0
M  V30 7045 H 642.605 3.06865 -1.00169 0
M  V30 7046 H 641.657 2.05684 -3.19997 0
M  V30 7047 H 642.969 2.87899 -4.07328 0
M  V30 7048 H 642.123 5.09954 -3.28682 0
M  V30 7049 H 640.862 4.29503 -2.31038 0
M  V30 7050 H 639.867 3.30659 -4.39254 0
M  V30 7051 H 641.092 4.14366 -5.38031 0
M  V30 7052 H 639.038 5.4925 -3.58692 0
M  V30 7053 H 638.955 5.37705 -5.31422 0
M  V30 7054 H 640.223 6.30993 -4.57676 0
M  V30 7055 N 644.452 1.42507 0.673017 0
M  V30 7056 C 645.399 1.46124 1.78651 0
M  V30 7057 C 646.369 0.313007 1.63124 0
M  V30 7058 O 647.554 0.517337 1.83653 0
M  V30 7059 C 644.694 1.3711 3.16694 0
M  V30 7060 C 643.807 2.61983 3.43495 0
M  V30 7061 C 642.942 2.45098 4.71275 0
M  V30 7062 C 641.981 3.65336 4.91117 0
M  V30 7063 N 641.118 3.47383 6.10139 0
M  V30 7064 H 645.958 2.4128 1.74895 0
M  V30 7065 H 643.495 1.19788 0.853766 0
M  V30 7066 H 645.453 1.29881 3.96468 0
M  V30 7067 H 644.083 0.45549 3.1957 0
M  V30 7068 H 643.135 2.79571 2.57961 0
M  V30 7069 H 644.447 3.51355 3.5405 0
M  V30 7070 H 643.601 2.35466 5.59143 0
M  V30 7071 H 642.34 1.53219 4.63007 0
M  V30 7072 H 641.345 3.754 4.0169 0
M  V30 7073 H 642.57 4.58199 5.01229 0
M  V30 7074 H 640.516 2.58222 6.0304 0
M  V30 7075 H 640.433 4.30344 6.21563 0
M  V30 7076 H 641.701 3.41565 7.00681 0
M  V30 7077 N 645.93 -0.909495 1.28709 0
M  V30 7078 C 647.17 -1.67344 1.17368 0
M  V30 7079 C 647.534 -1.90058 -0.272419 0
M  V30 7080 O 648.735 -2.63944 -0.508617 0
M  V30 7081 C 647.006 -2.99219 1.95455 0
M  V30 7082 S 648.565 -3.90295 2.00538 0
M  V30 7083 H 645.383 -0.57466 0.418672 0
M  V30 7084 H 647.985 -1.08144 1.62865 0
M  V30 7085 H 646.689 -2.80393 2.9968 0
M  V30 7086 H 646.22 -3.63464 1.50524 0
M  V30 7087 H 648.235 -4.83511 1.11496 0
M  V30 7088 N 647.408 -1.11026 -1.11852 0
M  V30 7089 C 648.654 -0.857729 -1.83768 0
M  V30 7090 C 648.987 0.615143 -1.842 0
M  V30 7091 O 648.262 1.45391 -1.29196 0
M  V30 7092 C 648.545 -1.41453 -3.31154 0
M  V30 7093 C 648.398 -2.95471 -3.39142 0
M  V30 7094 C 649.717 -1.0619 -4.27097 0
M  V30 7095 H 646.836 -0.313044 -0.667212 0
M  V30 7096 H 649.478 -1.37443 -1.31185 0
M  V30 7097 H 647.628 -0.975052 -3.76065 0
M  V30 7098 H 649.3 -3.4799 -3.02821 0
M  V30 7099 H 647.543 -3.31759 -2.79497 0
M  V30 7100 H 648.214 -3.29515 -4.42859 0
M  V30 7101 H 650.69 -1.44122 -3.90344 0
M  V30 7102 H 649.566 -1.47832 -5.28618 0
M  V30 7103 H 649.827 0.0278912 -4.42091 0
M  V30 7104 N 648.886 1.2938 -0.899927 0
M  V30 7105 C 650.114 1.99691 -0.541386 0
M  V30 7106 C 650.529 1.67355 0.873936 0
M  V30 7107 O 649.886 0.918728 1.57688 0
M  V30 7108 C 649.937 3.54168 -0.72438 0
M  V30 7109 O 649.658 3.85359 -2.08399 0
M  V30 7110 C 651.159 4.41746 -0.370819 0
M  V30 7111 H 648.379 0.638037 -0.207726 0
M  V30 7112 H 650.923 1.6491 -1.20934 0
M  V30 7113 H 649.078 3.87261 -0.103607 0
M  V30 7114 H 649.492 4.80032 -2.11352 0
M  V30 7115 H 650.966 5.49256 -0.549693 0
M  V30 7116 H 651.443 4.33712 0.692148 0
M  V30 7117 H 652.049 4.14125 -0.968543 0
M  V30 7118 N 650.364 0.662433 1.43002 0
M  V30 7119 C 651.604 0.183312 2.03576 0
M  V30 7120 C 651.968 -1.18354 1.51183 0
M  V30 7121 O 653.169 -1.7566 2.03462 0
M  V30 7122 C 651.44 0.202908 3.56824 0
M  V30 7123 S 652.999 -0.20702 4.38311 0
M  V30 7124 H 649.817 0.0765001 0.706872 0
M  V30 7125 H 652.419 0.872827 1.74934 0
M  V30 7126 H 651.123 1.20028 3.92456 0
M  V30 7127 H 650.654 -0.506845 3.90121 0
M  V30 7128 H 652.669 -1.44358 4.74737 0
M  V30 7129 N 651.842 -1.52309 0.404946 0
M  V30 7130 C 652.792 -2.23717 -0.439864 0
M  V30 7131 C 653.776 -1.24692 -1.0169 0
M  V30 7132 O 654.968 -1.49951 -0.940409 0
M  V30 7133 C 652.097 -3.05898 -1.55825 0
M  V30 7134 C 651.183 -4.12331 -0.992188 0
M  V30 7135 N 651.574 -5.0557 -0.152424 0
M  V30 7136 C 649.872 -4.2774 -1.26312 0
M  V30 7137 C 650.573 -5.81474 0.162041 0
M  V30 7138 N 649.549 -5.41767 -0.44601 0
M  V30 7139 H 653.351 -2.93162 0.208084 0
M  V30 7140 H 650.865 -1.60969 0.215131 0
M  V30 7141 H 652.862 -3.55605 -2.17603 0
M  V30 7142 H 651.522 -2.37991 -2.20886 0
M  V30 7143 H 652.533 -5.17468 0.211556 0
M  V30 7144 H 649.21 -3.71062 -1.91362 0
M  V30 7145 H 650.6 -6.66585 0.843423 0
M  V30 7146 N 653.32 -0.135238 -1.57019 0
M  V30 7147 C 654.25 0.805235 -2.19176 0
M  V30 7148 C 655.231 1.2656 -1.13651 0
M  V30 7149 O 656.416 1.32528 -1.4195 0
M  V30 7150 C 653.546 2.04914 -2.80406 0
M  V30 7151 C 652.5 1.72598 -3.91655 0
M  V30 7152 C 651.826 3.04154 -4.39766 0
M  V30 7153 C 653.126 0.981709 -5.12991 0
M  V30 7154 H 654.82 0.287232 -2.98019 0
M  V30 7155 H 652.366 0.136714 -1.4335 0
M  V30 7156 H 654.319 2.71178 -3.22553 0
M  V30 7157 H 653.043 2.59067 -1.98877 0
M  V30 7158 H 651.702 1.08717 -3.50109 0
M  V30 7159 H 651.35 3.56274 -3.55075 0
M  V30 7160 H 651.05 2.83299 -5.14796 0
M  V30 7161 H 652.574 3.71509 -4.84576 0
M  V30 7162 H 653.988 1.5462 -5.52056 0
M  V30 7163 H 652.385 0.873533 -5.93708 0
M  V30 7164 H 653.455 -0.0286887 -4.84892 0
M  V30 7165 N 654.798 1.5699 0.138552 0
M  V30 7166 C 656.214 1.51844 0.491472 0
M  V30 7167 C 656.414 0.845063 1.82923 0
M  V30 7168 O 655.47 0.419143 2.48997 0
M  V30 7169 C 656.783 2.96615 0.493987 0
M  V30 7170 C 658.331 3.076 0.578913 0
M  V30 7171 C 658.806 4.53893 0.612009 0
M  V30 7172 N 660.297 4.5827 0.673997 0
M  V30 7173 C 661.032 5.68852 0.720729 0
M  V30 7174 N 660.528 6.88982 0.726292 0
M  V30 7175 N 662.321 5.56908 0.762253 0
M  V30 7176 H 654.472 1.99158 -0.738228 0
M  V30 7177 H 656.735 0.908693 -0.270149 0
M  V30 7178 H 656.441 3.49172 -0.420933 0
M  V30 7179 H 656.315 3.53017 1.32887 0
M  V30 7180 H 658.702 2.55057 1.48425 0
M  V30 7181 H 658.783 2.54227 -0.283286 0
M  V30 7182 H 658.427 5.07076 -0.289208 0
M  V30 7183 H 658.357 5.05057 1.49082 0
M  V30 7184 H 660.848 3.71793 0.676654 0
M  V30 7185 H 661.161 7.69014 0.764032 0
M  V30 7186 H 659.506 6.91526 0.69403 0
M  V30 7187 H 662.697 4.61969 0.755135 0
M  V30 7188 H 662.87 6.43102 0.795207 0
M  V30 7189 N 656.276 -0.40816 1.52223 0
M  V30 7190 C 657.223 -1.49737 1.75635 0
M  V30 7191 C 658.193 -1.5493 0.598824 0
M  V30 7192 O 659.378 -1.71487 0.83648 0
M  V30 7193 C 656.518 -2.87174 1.91376 0
M  V30 7194 C 655.631 -2.91283 3.19027 0
M  V30 7195 C 654.766 -4.20026 3.25195 0
M  V30 7196 C 653.805 -4.18113 4.47044 0
M  V30 7197 N 652.942 -5.38429 4.50598 0
M  V30 7198 H 657.782 -1.29075 2.68596 0
M  V30 7199 H 655.319 -0.626518 1.33091 0
M  V30 7200 H 657.277 -3.66959 1.98486 0
M  V30 7201 H 655.907 -3.06329 1.01795 0
M  V30 7202 H 654.959 -2.03984 3.21084 0
M  V30 7203 H 656.271 -2.85734 4.08849 0
M  V30 7204 H 655.425 -5.08204 3.31382 0
M  V30 7205 H 654.164 -4.28271 2.33313 0
M  V30 7206 H 653.169 -3.28325 4.41002 0
M  V30 7207 H 654.394 -4.11507 5.40221 0
M  V30 7208 H 652.34 -5.4734 3.616 0
M  V30 7209 H 652.257 -5.34879 5.34266 0
M  V30 7210 H 653.525 -6.28557 4.61016 0
M  V30 7211 N 657.755 -1.42862 -0.66545 0
M  V30 7212 C 658.665 -1.49491 -1.80803 0
M  V30 7213 C 659.681 -0.382914 -1.69734 0
M  V30 7214 O 660.857 -0.635223 -1.9112 0
M  V30 7215 C 657.922 -1.40383 -3.17007 0
M  V30 7216 C 656.983 -2.62152 -3.39963 0
M  V30 7217 C 656.216 -2.53469 -4.69669 0
M  V30 7218 O 656.439 -1.57568 -5.48205 0
M  V30 7219 O 655.373 -3.43763 -4.94075 0
M  V30 7220 H 659.199 -2.45949 -1.78165 0
M  V30 7221 H 656.784 -1.24728 -0.822387 0
M  V30 7222 H 658.666 -1.377 -3.98267 0
M  V30 7223 H 657.341 -0.470546 -3.20262 0
M  V30 7224 H 656.248 -2.70409 -2.58515 0
M  V30 7225 H 657.581 -3.54411 -3.41546 0
M  V30 7226 N 659.233 0.902656 -1.29189 0
M  V30 7227 C 660.649 1.18296 -1.07137 0
M  V30 7228 C 660.849 2.00701 0.179223 0
M  V30 7229 O 659.905 2.3675 0.877812 0
M  V30 7230 C 661.218 1.90677 -2.32514 0
M  V30 7231 C 662.766 2.03515 -2.37804 0
M  V30 7232 C 663.241 2.79307 -3.62976 0
M  V30 7233 N 664.732 2.86862 -3.63681 0
M  V30 7234 C 665.467 3.46035 -4.57217 0
M  V30 7235 N 664.963 4.06399 -5.61081 0
M  V30 7236 N 666.756 3.43681 -4.44792 0
M  V30 7237 H 658.907 0.352765 -2.0945 0
M  V30 7238 H 661.17 0.21876 -0.922414 0
M  V30 7239 H 660.876 1.3756 -3.23682 0
M  V30 7240 H 660.75 2.91169 -2.39793 0
M  V30 7241 H 663.137 2.55809 -1.47125 0
M  V30 7242 H 663.218 1.02166 -2.34512 0
M  V30 7243 H 662.862 2.2769 -4.54004 0
M  V30 7244 H 662.792 3.80995 -3.63525 0
M  V30 7245 H 665.283 2.43987 -2.88581 0
M  V30 7246 H 665.596 4.49564 -6.2858 0
M  V30 7247 H 663.941 4.0487 -5.64894 0
M  V30 7248 H 667.132 2.9574 -3.62843 0
M  V30 7249 H 667.305 3.89503 -5.17872 0
M  V30 7250 N 660.711 1.11618 1.11262 0
M  V30 7251 C 661.951 0.876154 1.8467 0
M  V30 7252 C 662.315 -0.587551 1.82789 0
M  V30 7253 O 663.516 -0.944411 2.51663 0
M  V30 7254 C 661.787 1.42461 3.2778 0
M  V30 7255 S 663.346 1.32185 4.18417 0
M  V30 7256 H 660.164 0.31628 0.636779 0
M  V30 7257 H 662.766 1.42404 1.33946 0
M  V30 7258 H 661.47 2.48367 3.26714 0
M  V30 7259 H 661.001 0.873844 3.83572 0
M  V30 7260 H 663.016 0.287607 4.95366 0
M  V30 7261 N 662.189 -1.289 0.906776 0
M  V30 7262 C 663.121 -2.26556 0.347159 0
M  V30 7263 C 664.134 -1.54589 -0.51049 0
M  V30 7264 O 665.323 -1.75489 -0.326501 0
M  V30 7265 C 662.423 -3.3484 -0.523024 0
M  V30 7266 C 661.596 -4.36296 0.310515 0
M  V30 7267 C 660.655 -5.23879 -0.493634 0
M  V30 7268 O 659.681 -5.69127 0.0913569 0
M  V30 7269 N 660.883 -5.51946 -1.7982 0
M  V30 7270 H 663.648 -2.75212 1.18652 0
M  V30 7271 H 661.209 -1.42309 0.771996 0
M  V30 7272 H 663.201 -3.90366 -1.06756 0
M  V30 7273 H 661.771 -2.85946 -1.26309 0
M  V30 7274 H 660.991 -3.80331 1.03644 0
M  V30 7275 H 662.279 -5.01113 0.881106 0
M  V30 7276 H 661.677 -5.17006 -2.2961 0
M  V30 7277 H 660.234 -6.10258 -2.28971 0
M  V30 7278 N 663.667 -0.670007 -1.42649 0
M  V30 7279 C 664.897 -0.198252 -2.05647 0
M  V30 7280 C 665.305 1.14786 -1.50402 0
M  V30 7281 O 664.648 1.72316 -0.636634 0
M  V30 7282 C 664.71 -0.0507132 -3.59464 0
M  V30 7283 C 664.374 -1.32478 -4.37377 0
M  V30 7284 C 665.371 -2.2572 -4.68344 0
M  V30 7285 C 663.056 -1.57104 -4.77099 0
M  V30 7286 C 665.05 -3.4187 -5.37963 0
M  V30 7287 C 662.737 -2.73543 -5.46459 0
M  V30 7288 C 663.735 -3.65751 -5.76815 0
M  V30 7289 O 663.423 -4.80154 -6.44753 0
M  V30 7290 H 663.155 -0.0950721 -0.669281 0
M  V30 7291 H 665.709 -0.915745 -1.83857 0
M  V30 7292 H 663.939 0.722314 -3.79894 0
M  V30 7293 H 665.628 0.380552 -4.04112 0
M  V30 7294 H 666.394 -2.07943 -4.38161 0
M  V30 7295 H 662.273 -0.862069 -4.52868 0
M  V30 7296 H 665.817 -4.13861 -5.61574 0
M  V30 7297 H 661.714 -2.91248 -5.7606 0
M  V30 7298 H 662.482 -4.79637 -6.63243 0
M  V30 7299 N 665.145 1.52092 -0.413018 0
M  V30 7300 C 666.375 2.05974 0.160648 0
M  V30 7301 C 666.783 1.28267 1.39084 0
M  V30 7302 O 666.126 0.328805 1.80733 0
M  V30 7303 C 666.188 3.54918 0.572169 0
M  V30 7304 C 665.852 4.53705 -0.547826 0
M  V30 7305 C 666.849 5.00342 -1.41259 0
M  V30 7306 C 664.534 4.97089 -0.721627 0
M  V30 7307 C 666.528 5.89011 -2.43607 0
M  V30 7308 C 664.215 5.85554 -1.74841 0
M  V30 7309 C 665.213 6.3141 -2.60403 0
M  V30 7310 O 664.901 7.18123 -3.61323 0
M  V30 7311 H 664.633 0.675636 0.0221936 0
M  V30 7312 H 667.187 1.96931 -0.58373 0
M  V30 7313 H 665.417 3.61661 1.36889 0
M  V30 7314 H 667.106 3.91428 1.0742 0
M  V30 7315 H 667.872 4.67537 -1.28974 0
M  V30 7316 H 663.751 4.60954 -0.0652911 0
M  V30 7317 H 667.295 6.24725 -3.10425 0
M  V30 7318 H 663.192 6.17773 -1.87156 0
M  V30 7319 H 663.96 7.36244 -3.57613 0
M  V30 7320 N 666.623 0.143563 1.56945 0
M  V30 7321 C 667.851 -0.515447 2.00377 0
M  V30 7322 C 668.266 -1.58643 1.02361 0
M  V30 7323 O 667.623 -1.82489 0.0201039 0
M  V30 7324 C 667.674 -1.11923 3.43737 0
M  V30 7325 O 667.395 -0.0910318 4.38005 0
M  V30 7326 C 668.896 -1.85918 4.02429 0
M  V30 7327 H 666.116 -0.134478 0.657386 0
M  V30 7328 H 668.66 0.237135 2.0312 0
M  V30 7329 H 666.815 -1.82245 3.41856 0
M  V30 7330 H 667.229 -0.532916 5.21786 0
M  V30 7331 H 668.703 -2.2346 5.04747 0
M  V30 7332 H 669.18 -2.7438 3.42947 0
M  V30 7333 H 669.786 -1.20303 4.07931 0
M  V30 7334 N 668.101 -1.57061 -0.130224 0
M  V30 7335 C 669.064 -1.98593 -1.14426 0
M  V30 7336 C 670.064 -0.874584 -1.34936 0
M  V30 7337 O 671.254 -1.14086 -1.31643 0
M  V30 7338 C 668.386 -2.31639 -2.50112 0
M  V30 7339 H 669.579 -2.89374 -0.787561 0
M  V30 7340 H 667.132 -1.51756 -0.374146 0
M  V30 7341 H 667.867 -1.43703 -2.90723 0
M  V30 7342 H 667.652 -3.12684 -2.36583 0
M  V30 7343 H 669.142 -2.64551 -3.23114 0
M  V30 7344 N 669.579 0.400081 -1.52437 0
M  V30 7345 C 670.804 1.17221 -1.71096 0
M  V30 7346 C 671.229 1.83269 -0.423565 0
M  V30 7347 O 670.587 1.70378 0.619751 0
M  V30 7348 C 670.635 2.20425 -2.85386 0
M  V30 7349 O 669.739 3.26769 -2.51586 0
M  V30 7350 H 669.08 0.341766 -0.569291 0
M  V30 7351 H 671.61 0.467772 -1.99181 0
M  V30 7352 H 671.62 2.64605 -3.10561 0
M  V30 7353 H 670.295 1.71737 -3.78786 0
M  V30 7354 H 668.872 2.87804 -2.37114 0
M  V30 7355 N 671.057 1.43213 0.657864 0
M  V30 7356 C 672.304 1.44584 1.41781 0
M  V30 7357 C 672.632 0.0684208 1.9438 0
M  V30 7358 O 671.887 -0.925872 1.72413 0
M  V30 7359 C 672.186 2.43143 2.61947 0
M  V30 7360 C 671.852 3.89128 2.27794 0
M  V30 7361 C 670.514 4.28889 2.18191 0
M  V30 7362 C 672.866 4.81144 2.00375 0
M  V30 7363 C 670.194 5.58625 1.79319 0
M  V30 7364 C 672.546 6.11239 1.63003 0
M  V30 7365 C 671.21 6.49981 1.51922 0
M  V30 7366 H 670.48 0.529069 0.518813 0
M  V30 7367 H 673.127 1.76263 0.748577 0
M  V30 7368 H 671.432 2.04851 3.33981 0
M  V30 7369 H 673.129 2.4146 3.20153 0
M  V30 7370 H 669.719 3.57657 2.36176 0
M  V30 7371 H 673.903 4.512 2.06718 0
M  V30 7372 H 669.159 5.87486 1.69323 0
M  V30 7373 H 673.333 6.82014 1.40817 0
M  V30 7374 H 670.96 7.50416 1.21572 0
M  V30 7375 N 672.536 -0.895792 1.29666 0
M  V30 7376 C 673.761 -1.68528 1.20885 0
M  V30 7377 C 674.186 -1.8673 -0.226595 0
M  V30 7378 O 673.544 -1.39044 -1.16347 0
M  V30 7379 C 673.592 -3.04512 1.93144 0
M  V30 7380 O 672.696 -3.92963 1.25115 0
M  V30 7381 H 672.037 -0.515371 0.418675 0
M  V30 7382 H 674.567 -1.11878 1.71302 0
M  V30 7383 H 674.577 -3.54628 2.0175 0
M  V30 7384 H 673.252 -2.90582 2.97548 0
M  V30 7385 H 671.829 -3.51399 1.24794 0
M  V30 7386 N 674.014 -1.12206 -1.10668 0
M  V30 7387 C 675.291 -0.787382 -1.79052 0
M  V30 7388 C 675.671 0.723267 -1.98323 0
M  V30 7389 O 675.019 1.6561 -1.57434 0
M  V30 7390 C 675.229 -1.55968 -3.1221 0
M  V30 7391 C 676.577 -1.74413 -3.87125 0
M  V30 7392 O 677.601 -1.5246 -3.21923 0
M  V30 7393 O 676.46 -2.10952 -5.04144 0
M  V30 7394 H 673.554 -0.286137 -0.775922 0
M  V30 7395 H 676.1 -1.22595 -1.1734 0
M  V30 7396 H 674.872 -2.58692 -2.93588 0
M  V30 7397 H 674.495 -1.1152 -3.8164 0
M  V30 7398 N 675.492 1.28418 -0.913599 0
M  V30 7399 C 676.722 1.98817 -0.56172 0
M  V30 7400 C 677.13 1.68457 0.861321 0
M  V30 7401 O 676.473 0.933653 1.58204 0
M  V30 7402 C 676.535 3.52801 -0.690785 0
M  V30 7403 C 676.199 4.0675 -2.08334 0
M  V30 7404 C 677.196 4.20597 -3.05604 0
M  V30 7405 C 674.881 4.41445 -2.39648 0
M  V30 7406 C 676.875 4.68392 -4.32305 0
M  V30 7407 C 674.562 4.88934 -3.66588 0
M  V30 7408 C 675.56 5.02364 -4.6273 0
M  V30 7409 O 675.248 5.48817 -5.87414 0
M  V30 7410 H 674.98 0.641608 -0.212874 0
M  V30 7411 H 677.534 1.64584 -1.22887 0
M  V30 7412 H 675.764 3.86686 0.0334336 0
M  V30 7413 H 677.453 4.04422 -0.346031 0
M  V30 7414 H 678.219 3.94067 -2.8273 0
M  V30 7415 H 674.098 4.30242 -1.65567 0
M  V30 7416 H 677.642 4.7879 -5.07352 0
M  V30 7417 H 673.539 5.14904 -3.89287 0
M  V30 7418 H 674.307 5.67103 -5.90201 0
M  V30 7419 N 676.97 0.677563 1.42291 0
M  V30 7420 C 677.933 0.0101085 2.29198 0
M  V30 7421 C 678.933 -0.726219 1.43467 0
M  V30 7422 O 680.123 -0.563807 1.64824 0
M  V30 7423 C 677.255 -0.996316 3.26016 0
M  V30 7424 H 678.448 0.775071 2.89711 0
M  V30 7425 H 676.001 0.440065 1.49977 0
M  V30 7426 H 676.736 -1.78967 2.70446 0
M  V30 7427 H 676.521 -0.471687 3.89253 0
M  V30 7428 H 678.011 -1.46167 3.91184 0
M  V30 7429 N 678.448 -1.51871 0.421078 0
M  V30 7430 C 679.395 -2.27334 -0.398508 0
M  V30 7431 C 680.365 -1.30241 -1.03085 0
M  V30 7432 O 681.55 -1.59121 -1.05285 0
M  V30 7433 C 678.69 -3.10664 -1.50272 0
M  V30 7434 C 677.803 -4.2273 -0.890122 0
M  V30 7435 C 676.938 -4.93399 -1.96803 0
M  V30 7436 C 675.977 -5.97409 -1.333 0
M  V30 7437 N 675.114 -6.61548 -2.35156 0
M  V30 7438 H 679.954 -2.96938 0.251411 0
M  V30 7439 H 677.491 -1.46472 0.135825 0
M  V30 7440 H 679.449 -3.57292 -2.15403 0
M  V30 7441 H 678.079 -2.43207 -2.1225 0
M  V30 7442 H 677.131 -3.80186 -0.127537 0
M  V30 7443 H 678.443 -4.97302 -0.386349 0
M  V30 7444 H 677.597 -5.43491 -2.69633 0
M  V30 7445 H 676.336 -4.18421 -2.50549 0
M  V30 7446 H 675.341 -5.46624 -0.59008 0
M  V30 7447 H 676.566 -6.74335 -0.803076 0
M  V30 7448 H 674.512 -5.89394 -2.88012 0
M  V30 7449 H 674.429 -7.31832 -1.89624 0
M  V30 7450 H 675.697 -7.16276 -3.0752 0
M  V30 7451 N 679.926 -0.151884 -1.56866 0
M  V30 7452 C 681.156 0.504081 -2.00356 0
M  V30 7453 C 681.564 1.58639 -1.03103 0
M  V30 7454 O 680.907 1.83688 -0.0207931 0
M  V30 7455 C 680.969 1.15975 -3.40279 0
M  V30 7456 C 680.633 0.221453 -4.56463 0
M  V30 7457 C 681.63 -0.552766 -5.16953 0
M  V30 7458 C 679.315 0.122936 -5.0215 0
M  V30 7459 C 681.309 -1.4129 -6.21543 0
M  V30 7460 C 678.996 -0.740801 -6.06593 0
M  V30 7461 C 679.994 -1.50732 -6.6616 0
M  V30 7462 O 679.682 -2.35666 -7.68581 0
M  V30 7463 H 679.414 0.135279 -0.662326 0
M  V30 7464 H 681.968 -0.244916 -2.03935 0
M  V30 7465 H 680.198 1.95649 -3.33554 0
M  V30 7466 H 681.887 1.71594 -3.67846 0
M  V30 7467 H 682.653 -0.486716 -4.82552 0
M  V30 7468 H 678.532 0.70931 -4.5551 0
M  V30 7469 H 682.076 -2.01166 -6.67966 0
M  V30 7470 H 677.973 -0.808125 -6.40421 0
M  V30 7471 H 678.741 -2.28967 -7.85822 0
M  V30 7472 N 681.404 1.57128 0.121893 0
M  V30 7473 C 682.634 1.88609 0.843227 0
M  V30 7474 C 683.042 0.740917 1.74089 0
M  V30 7475 O 682.385 -0.297426 1.81276 0
M  V30 7476 C 682.447 3.15073 1.73117 0
M  V30 7477 C 682.111 4.45742 1.0081 0
M  V30 7478 C 683.108 5.18719 0.350255 0
M  V30 7479 C 680.793 4.92444 0.99014 0
M  V30 7480 C 682.787 6.36617 -0.315889 0
M  V30 7481 C 680.474 6.10261 0.320196 0
M  V30 7482 C 681.472 6.82194 -0.331666 0
M  V30 7483 O 681.16 7.97769 -0.990927 0
M  V30 7484 H 680.892 0.628919 0.247865 0
M  V30 7485 H 683.446 2.05096 0.111725 0
M  V30 7486 H 681.676 2.9466 2.50424 0
M  V30 7487 H 683.365 3.32597 2.32667 0
M  V30 7488 H 684.131 4.83693 0.35577 0
M  V30 7489 H 680.01 4.36361 1.48695 0
M  V30 7490 H 683.554 6.92701 -0.825272 0
M  V30 7491 H 679.451 6.44743 0.312433 0
M  V30 7492 H 680.219 8.13591 -0.895113 0
M  V30 7493 N 682.882 -0.391992 1.52647 0
M  V30 7494 C 683.845 -1.46135 1.7657 0
M  V30 7495 C 684.845 -1.47701 0.635698 0
M  V30 7496 O 686.035 -1.48924 0.903728 0
M  V30 7497 C 683.167 -2.85443 1.86374 0
M  V30 7498 H 684.36 -1.26208 2.72051 0
M  V30 7499 H 681.913 -0.623549 1.43323 0
M  V30 7500 H 682.648 -3.10718 0.928685 0
M  V30 7501 H 682.433 -2.85708 2.68539 0
M  V30 7502 H 683.923 -3.62933 2.06566 0
M  V30 7503 N 684.36 -1.4356 -0.65026 0
M  V30 7504 C 685.29 -1.51758 -1.77459 0
M  V30 7505 C 686.271 -0.372019 -1.65982 0
M  V30 7506 O 687.456 -0.589627 -1.85033 0
M  V30 7507 C 684.586 -1.44302 -3.15902 0
M  V30 7508 C 683.54 -2.57138 -3.42146 0
M  V30 7509 C 682.866 -2.34735 -4.8042 0
M  V30 7510 C 684.166 -3.99373 -3.36598 0
M  V30 7511 H 685.86 -2.45863 -1.70855 0
M  V30 7512 H 683.406 -1.18333 -0.820566 0
M  V30 7513 H 685.359 -1.48641 -3.94314 0
M  V30 7514 H 684.083 -0.467026 -3.23244 0
M  V30 7515 H 682.742 -2.52157 -2.66106 0
M  V30 7516 H 682.39 -1.35372 -4.84441 0
M  V30 7517 H 682.09 -3.10375 -4.9894 0
M  V30 7518 H 683.614 -2.40862 -5.61086 0
M  V30 7519 H 685.028 -4.05826 -4.04942 0
M  V30 7520 H 683.425 -4.75063 -3.66654 0
M  V30 7521 H 684.495 -4.243 -2.34729 0
M  V30 7522 N 685.838 0.888903 -1.30139 0
M  V30 7523 C 687.084 1.6428 -1.18912 0
M  V30 7524 C 687.417 1.92499 0.256477 0
M  V30 7525 O 686.692 1.54312 1.18397 0
M  V30 7526 C 686.975 2.9851 -2.01405 0
M  V30 7527 C 686.828 2.77288 -3.54163 0
M  V30 7528 C 688.147 3.99383 -1.84882 0
M  V30 7529 H 685.266 0.596148 -0.433333 0
M  V30 7530 H 687.908 1.0289 -1.5973 0
M  V30 7531 H 686.058 3.50907 -1.66722 0
M  V30 7532 H 687.73 2.31709 -3.98884 0
M  V30 7533 H 685.973 2.11867 -3.78543 0
M  V30 7534 H 686.644 3.72717 -4.07168 0
M  V30 7535 H 689.12 3.56132 -2.15196 0
M  V30 7536 H 687.996 4.91222 -2.44934 0
M  V30 7537 H 688.257 4.34674 -0.806902 0
M  V30 7538 N 687.317 1.12792 1.10072 0
M  V30 7539 C 688.557 0.895691 1.8373 0
M  V30 7540 C 688.921 -0.568131 1.83402 0
M  V30 7541 O 690.122 -0.917666 2.52651 0
M  V30 7542 C 688.393 1.4593 3.2625 0
M  V30 7543 S 689.952 1.36615 4.16991 0
M  V30 7544 H 686.77 0.323017 0.633389 0
M  V30 7545 H 689.372 1.43816 1.32428 0
M  V30 7546 H 688.076 2.51818 3.24062 0
M  V30 7547 H 687.607 0.914478 3.82624 0
M  V30 7548 H 689.622 0.340131 4.95033 0
M  V30 7549 N 688.795 -1.27931 0.920396 0
M  V30 7550 C 690.025 -1.98516 0.572256 0
M  V30 7551 C 690.433 -1.68912 -0.852375 0
M  V30 7552 O 689.776 -0.94203 -1.57707 0
M  V30 7553 C 689.838 -3.5243 0.709485 0
M  V30 7554 C 689.502 -4.0564 2.10489 0
M  V30 7555 C 690.499 -4.1897 3.07831 0
M  V30 7556 C 688.184 -4.40168 2.41986 0
M  V30 7557 C 690.178 -4.66093 4.34783 0
M  V30 7558 C 687.865 -4.86983 3.69176 0
M  V30 7559 C 688.863 -4.99903 4.65388 0
M  V30 7560 O 688.551 -5.45694 5.90316 0
M  V30 7561 H 688.283 -0.64047 0.216274 0
M  V30 7562 H 690.837 -1.6393 1.23758 0
M  V30 7563 H 689.067 -3.86698 -0.0129263 0
M  V30 7564 H 690.756 -4.04233 0.367474 0
M  V30 7565 H 691.522 -3.92562 2.84816 0
M  V30 7566 H 687.401 -4.29358 1.67846 0
M  V30 7567 H 690.945 -4.76092 5.09884 0
M  V30 7568 H 686.842 -5.12832 3.92012 0
M  V30 7569 H 687.61 -5.63965 5.932 0
M  V30 7570 N 690.273 -0.685099 -1.4193 0
M  V30 7571 C 691.521 -0.21124 -2.00993 0
M  V30 7572 C 691.842 1.18985 -1.54491 0
M  V30 7573 O 691.112 1.8009 -0.771 0
M  V30 7574 H 689.692 -0.0751059 -0.743215 0
M  V30 7575 H 692.354 -0.883915 -1.73704 0
M  V30 7576 H 691.45 -0.220513 -3.1132 0
M  V30 7577 N 691.751 1.51645 -0.429126 0
M  V30 7578 C 693.162 1.86665 0.0359003 0
M  V30 7579 C 693.513 1.34677 1.42676 0
M  V30 7580 O 692.638 0.694195 2.04963 0
M  V30 7581 C 693.233 3.38724 0.0719221 0
M  V30 7582 C 691.792 3.7331 0.481336 0
M  V30 7583 C 690.939 2.75313 -0.331329 0
M  V30 7584 H 693.89 1.44987 -0.645333 0
M  V30 7585 H 693.911 3.7011 0.883118 0
M  V30 7586 H 693.423 3.76532 -0.940495 0
M  V30 7587 H 691.524 3.41088 1.49966 0
M  V30 7588 H 691.637 4.78631 0.211837 0
M  V30 7589 H 690.001 2.53839 0.209204 0
M  V30 7590 H 690.784 3.15963 -1.34247 0
M  V30 7591 N 693.229 0.160201 1.56784 0
M  V30 7592 C 694.477 -0.486625 1.96154 0
M  V30 7593 C 694.798 -1.64525 1.04673 0
M  V30 7594 O 694.068 -1.95586 0.110864 0
M  V30 7595 H 692.648 -0.182764 0.724297 0
M  V30 7596 H 695.31 0.238787 1.93432 0
M  V30 7597 H 694.406 -0.854025 3.00188 0
M  V30 7598 N 694.707 -1.5719 -0.113559 0
M  V30 7599 C 695.956 -1.84325 -0.818984 0
M  V30 7600 C 696.269 -0.746685 -1.80787 0
M  V30 7601 O 697.475 -0.904596 -2.55987 0
M  V30 7602 C 695.931 -3.26818 -1.50724 0
M  V30 7603 C 695.539 -4.44498 -0.559065 0
M  V30 7604 C 697.283 -3.63196 -2.19748 0
M  V30 7605 C 695.19 -5.7802 -1.25086 0
M  V30 7606 H 694.12 -0.687507 -0.309596 0
M  V30 7607 H 696.771 -1.8336 -0.0717621 0
M  V30 7608 H 695.153 -3.22269 -2.30128 0
M  V30 7609 H 696.327 -4.60356 0.202146 0
M  V30 7610 H 694.642 -4.16393 0.024495 0
M  V30 7611 H 697.239 -4.60226 -2.72206 0
M  V30 7612 H 697.582 -2.90899 -2.97798 0
M  V30 7613 H 698.115 -3.69553 -1.47226 0
M  V30 7614 H 694.854 -6.53501 -0.511539 0
M  V30 7615 H 694.374 -5.66038 -1.98395 0
M  V30 7616 H 696.053 -6.2196 -1.78253 0
M  V30 7617 N 696.185 0.383891 -1.52853 0
M  V30 7618 C 697.596 0.961591 -1.60032 0
M  V30 7619 C 697.947 1.90819 -0.456333 0
M  V30 7620 O 697.072 2.12288 0.419873 0
M  V30 7621 C 697.667 1.75078 -2.90057 0
M  V30 7622 C 696.226 2.2781 -2.99632 0
M  V30 7623 C 695.373 1.08512 -2.55187 0
M  V30 7624 H 698.324 0.163269 -1.57858 0
M  V30 7625 H 698.345 2.61046 -2.7683 0
M  V30 7626 H 697.857 1.06157 -3.73299 0
M  V30 7627 H 695.958 3.00028 -2.20939 0
M  V30 7628 H 696.071 2.56947 -4.0437 0
M  V30 7629 H 694.435 1.44667 -2.09627 0
M  V30 7630 H 695.218 0.41118 -3.40829 0
M  V30 7631 N 697.663 1.43903 0.642637 0
M  V30 7632 C 698.912 1.45362 1.39831 0
M  V30 7633 C 699.225 0.0856289 1.95412 0
M  V30 7634 O 700.431 -0.0222856 2.71491 0
M  V30 7635 C 698.887 2.55857 2.53111 0
M  V30 7636 C 698.495 3.98811 2.04092 0
M  V30 7637 C 700.239 2.66524 3.30402 0
M  V30 7638 C 698.146 5.00751 3.14647 0
M  V30 7639 H 697.076 0.540777 0.52543 0
M  V30 7640 H 699.727 1.69929 0.692559 0
M  V30 7641 H 698.109 2.2451 3.26207 0
M  V30 7642 H 699.283 4.3967 1.37938 0
M  V30 7643 H 697.598 3.92284 1.39651 0
M  V30 7644 H 700.195 3.39858 4.12796 0
M  V30 7645 H 700.538 1.71949 3.79129 0
M  V30 7646 H 701.071 2.97224 2.64392 0
M  V30 7647 H 697.81 5.96914 2.70876 0
M  V30 7648 H 697.33 4.64495 3.79479 0
M  V30 7649 H 699.009 5.23933 3.79609 0
M  V30 7650 N 699.141 -0.881989 1.30609 0
M  V30 7651 C 700.366 -1.67236 1.22665 0
M  V30 7652 C 700.791 -1.8696 -0.206777 0
M  V30 7653 O 700.149 -1.4027 -1.14865 0
M  V30 7654 C 700.197 -3.02446 1.96363 0
M  V30 7655 O 699.301 -3.91614 1.29276 0
M  V30 7656 H 698.642 -0.510902 0.424117 0
M  V30 7657 H 701.172 -1.10055 1.72479 0
M  V30 7658 H 701.182 -3.52468 2.055 0
M  V30 7659 H 699.857 -2.8741 3.00613 0
M  V30 7660 H 698.434 -3.50055 1.28514 0
M  V30 7661 N 700.619 -1.13374 -1.09472 0
M  V30 7662 C 701.847 -0.918351 -1.85402 0
M  V30 7663 C 702.262 0.53281 -1.81126 0
M  V30 7664 O 701.619 1.36879 -1.20708 0
M  V30 7665 C 701.67 -1.39743 -3.33398 0
M  V30 7666 O 701.391 -2.79172 -3.37631 0
M  V30 7667 C 702.892 -1.22042 -4.2617 0
M  V30 7668 H 700.112 -0.327511 -0.585643 0
M  V30 7669 H 702.656 -1.50617 -1.38328 0
M  V30 7670 H 700.811 -0.852619 -3.77901 0
M  V30 7671 H 701.225 -3.00428 -4.29934 0
M  V30 7672 H 702.699 -1.60438 -5.2817 0
M  V30 7673 H 703.176 -0.162047 -4.38901 0
M  V30 7674 H 703.782 -1.75323 -3.87482 0
M  V30 7675 N 702.098 1.27442 -0.927168 0
M  V30 7676 C 703.028 2.29256 -0.443188 0
M  V30 7677 C 704.009 1.62701 0.49624 0
M  V30 7678 O 705.194 1.90013 0.401105 0
M  V30 7679 C 702.324 3.45955 0.305366 0
M  V30 7680 C 701.278 4.24501 -0.546178 0
M  V30 7681 C 700.604 5.33671 0.331512 0
M  V30 7682 C 701.904 4.89921 -1.81037 0
M  V30 7683 H 703.598 2.69988 -1.29409 0
M  V30 7684 H 701.144 1.29792 -0.623705 0
M  V30 7685 H 703.097 4.1628 0.654885 0
M  V30 7686 H 701.821 3.04138 1.19029 0
M  V30 7687 H 700.48 3.55921 -0.878398 0
M  V30 7688 H 700.128 4.88096 1.21537 0
M  V30 7689 H 699.828 5.87131 -0.234746 0
M  V30 7690 H 701.352 6.0684 0.676614 0
M  V30 7691 H 702.766 5.52536 -1.52895 0
M  V30 7692 H 701.163 5.53436 -2.32009 0
M  V30 7693 H 702.233 4.13652 -2.53021 0
M  V30 7694 N 703.576 0.692616 1.41565 0
M  V30 7695 C 704.526 0.00231847 2.28 0
M  V30 7696 C 705.51 -0.755793 1.42044 0
M  V30 7697 O 706.702 -0.631772 1.65341 0
M  V30 7698 C 703.831 -0.935468 3.30309 0
M  V30 7699 C 702.917 -0.173761 4.23744 0
M  V30 7700 N 703.308 0.830872 4.98929 0
M  V30 7701 C 701.606 -0.409666 4.44115 0
M  V30 7702 C 702.307 1.28656 5.67294 0
M  V30 7703 N 701.283 0.613053 5.40132 0
M  V30 7704 H 705.085 0.772635 2.83562 0
M  V30 7705 H 702.599 0.523198 1.53741 0
M  V30 7706 H 704.596 -1.44513 3.91052 0
M  V30 7707 H 703.256 -1.70542 2.76307 0
M  V30 7708 H 704.267 1.21101 5.03542 0
M  V30 7709 H 700.944 -1.15773 4.01127 0
M  V30 7710 H 702.334 2.12006 6.37576 0
M  V30 7711 N 705.054 -1.51416 0.437162 0
M  V30 7712 C 706.331 -1.94682 -0.189292 0
M  V30 7713 C 706.711 -1.37581 -1.60108 0
M  V30 7714 O 706.059 -0.562815 -2.2146 0
M  V30 7715 C 706.269 -3.48599 -0.167201 0
M  V30 7716 C 707.617 -4.2296 -0.372856 0
M  V30 7717 O 708.641 -3.55354 -0.245323 0
M  V30 7718 O 707.5 -5.42895 -0.626693 0
M  V30 7719 H 704.594 -0.816708 -0.130063 0
M  V30 7720 H 707.14 -1.62316 0.495128 0
M  V30 7721 H 705.912 -3.82616 0.81981 0
M  V30 7722 H 705.535 -3.87406 -0.894537 0
M  V30 7723 N 706.532 -0.168513 -1.56696 0
M  V30 7724 C 707.78 0.476216 -1.96409 0
M  V30 7725 C 708.101 1.63968 -1.05544 0
M  V30 7726 O 707.371 1.95525 -0.121235 0
M  V30 7727 H 705.951 0.178921 -0.725256 0
M  V30 7728 H 708.613 -0.249042 -1.93302 0
M  V30 7729 H 707.709 0.838094 -3.00637 0
M  V30 7730 N 708.01 1.57248 0.105221 0
M  V30 7731 C 709.426 1.52853 0.459153 0
M  V30 7732 C 709.626 0.883674 1.8109 0
M  V30 7733 O 708.682 0.471864 2.48052 0
M  V30 7734 C 709.995 2.97596 0.43096 0
M  V30 7735 C 711.543 3.08758 0.513536 0
M  V30 7736 C 712.018 4.55089 0.515593 0
M  V30 7737 N 713.509 4.59597 0.576639 0
M  V30 7738 C 714.244 5.70253 0.599904 0
M  V30 7739 N 713.74 6.90368 0.579985 0
M  V30 7740 N 715.533 5.58399 0.643953 0
M  V30 7741 H 707.684 1.97547 -0.780306 0
M  V30 7742 H 709.947 0.902758 -0.289363 0
M  V30 7743 H 709.653 3.48201 -0.494903 0
M  V30 7744 H 709.527 3.55756 1.2537 0
M  V30 7745 H 711.914 2.58148 1.42982 0
M  V30 7746 H 711.995 2.53568 -0.337148 0
M  V30 7747 H 711.639 5.06348 -0.396701 0
M  V30 7748 H 711.569 5.08105 1.38335 0
M  V30 7749 H 714.06 3.73144 0.597639 0
M  V30 7750 H 714.373 7.70462 0.600741 0
M  V30 7751 H 712.718 6.92843 0.547191 0
M  V30 7752 H 715.909 4.63467 0.656975 0
M  V30 7753 H 716.082 6.44644 0.658616 0
M  V30 7754 N 709.488 -0.375779 1.53054 0
M  V30 7755 C 710.716 -1.14036 1.72637 0
M  V30 7756 C 711.131 -1.83342 0.450687 0
M  V30 7757 O 710.488 -1.7318 -0.575749 0
M  V30 7758 C 710.539 -2.17841 2.88492 0
M  V30 7759 O 710.26 -1.51358 4.11123 0
M  V30 7760 C 711.761 -3.06924 3.19863 0
M  V30 7761 H 708.981 -0.341386 0.577665 0
M  V30 7762 H 711.525 -0.437809 1.99759 0
M  V30 7763 H 709.68 -2.8371 2.63794 0
M  V30 7764 H 710.094 -2.20439 4.75928 0
M  V30 7765 H 711.568 -3.75763 4.04359 0
M  V30 7766 H 712.045 -3.71169 2.34798 0
M  V30 7767 H 712.651 -2.46684 3.46449 0
M  V30 7768 N 710.966 -1.44241 -0.634997 0
M  V30 7769 C 712.243 -1.37296 -1.39317 0
M  V30 7770 C 712.623 -0.0297532 -2.11079 0
M  V30 7771 O 711.971 0.987524 -2.06059 0
M  V30 7772 C 712.181 -2.56853 -2.36279 0
M  V30 7773 C 713.529 -3.00747 -2.99728 0
M  V30 7774 O 714.553 -2.5703 -2.46605 0
M  V30 7775 O 713.412 -3.76533 -3.96087 0
M  V30 7776 H 710.506 -0.543503 -0.623325 0
M  V30 7777 H 713.052 -1.56324 -0.660376 0
M  V30 7778 H 711.824 -3.46228 -1.82324 0
M  V30 7779 H 711.447 -2.40019 -3.16981 0
M  V30 7780 N 712.444 0.87505 -1.31075 0
M  V30 7781 C 713.376 1.98773 -1.14114 0
M  V30 7782 C 714.389 1.62595 -0.0816119 0
M  V30 7783 O 715.578 1.75449 -0.32861 0
M  V30 7784 C 712.678 3.31159 -0.720224 0
M  V30 7785 C 711.851 3.9571 -1.86366 0
M  V30 7786 C 710.91 5.06407 -1.42965 0
M  V30 7787 O 709.936 5.27501 -2.13848 0
M  V30 7788 N 711.138 5.79649 -0.314194 0
M  V30 7789 H 713.903 2.1387 -2.09951 0
M  V30 7790 H 711.464 1.04873 -1.23342 0
M  V30 7791 H 713.456 4.0259 -0.412687 0
M  V30 7792 H 712.026 3.12257 0.146396 0
M  V30 7793 H 711.246 3.17324 -2.33879 0
M  V30 7794 H 712.534 4.35576 -2.62966 0
M  V30 7795 H 711.932 5.65025 0.276228 0
M  V30 7796 H 710.489 6.51766 -0.0661641 0
M  V30 7797 N 713.922 1.13953 1.08869 0
M  V30 7798 C 714.832 0.835666 2.19212 0
M  V30 7799 C 715.848 -0.182005 1.73045 0
M  V30 7800 O 717.024 -0.0116661 2.01397 0
M  V30 7801 C 714.089 0.312325 3.4529 0
M  V30 7802 C 713.15 1.39196 4.06107 0
M  V30 7803 C 712.383 0.893496 5.26168 0
M  V30 7804 O 712.606 -0.266807 5.69776 0
M  V30 7805 O 711.54 1.67037 5.78258 0
M  V30 7806 H 715.366 1.75769 2.47667 0
M  V30 7807 H 712.951 0.917421 1.17914 0
M  V30 7808 H 714.833 0.0261582 4.21392 0
M  V30 7809 H 713.508 -0.582042 3.18424 0
M  V30 7810 H 712.415 1.73152 3.31616 0
M  V30 7811 H 713.748 2.26068 4.37212 0
M  V30 7812 N 715.4 -1.26948 0.933913 0
M  V30 7813 C 716.649 -1.93378 0.573409 0
M  V30 7814 C 716.962 -1.74148 -0.890614 0
M  V30 7815 O 718.168 -2.34971 -1.36017 0
M  V30 7816 C 716.624 -3.46449 0.974747 0
M  V30 7817 C 716.232 -3.74425 2.45988 0
M  V30 7818 C 717.976 -4.18924 0.685791 0
M  V30 7819 C 715.883 -5.209 2.8003 0
M  V30 7820 H 714.813 -0.723952 0.210736 0
M  V30 7821 H 717.464 -1.44143 1.13557 0
M  V30 7822 H 715.846 -3.94528 0.341181 0
M  V30 7823 H 717.02 -3.37079 3.14188 0
M  V30 7824 H 715.335 -3.15167 2.72138 0
M  V30 7825 H 717.932 -5.26786 0.916546 0
M  V30 7826 H 718.275 -4.14587 -0.377217 0
M  V30 7827 H 718.808 -3.76687 1.27874 0
M  V30 7828 H 715.547 -5.30332 3.85264 0
M  V30 7829 H 715.067 -5.59369 2.16485 0
M  V30 7830 H 716.746 -5.88837 2.68105 0
M  V30 7831 N 716.879 -0.700114 -1.41195 0
M  V30 7832 C 717.826 -0.0376652 -2.30769 0
M  V30 7833 C 718.796 0.766544 -1.47354 0
M  V30 7834 O 719.981 0.73365 -1.76131 0
M  V30 7835 C 717.121 0.889452 -3.33441 0
M  V30 7836 C 716.234 0.076373 -4.31932 0
M  V30 7837 C 715.369 1.00155 -5.21673 0
M  V30 7838 C 714.408 0.181644 -6.1183 0
M  V30 7839 N 713.545 1.06087 -6.94039 0
M  V30 7840 H 718.385 -0.80726 -2.86858 0
M  V30 7841 H 715.922 -0.409798 -1.41277 0
M  V30 7842 H 717.88 1.44107 -3.91522 0
M  V30 7843 H 716.51 1.6254 -2.78892 0
M  V30 7844 H 715.562 -0.592223 -3.75762 0
M  V30 7845 H 716.874 -0.559076 -4.95657 0
M  V30 7846 H 716.028 1.62223 -5.8461 0
M  V30 7847 H 714.767 1.67085 -4.58186 0
M  V30 7848 H 713.772 -0.452085 -5.47938 0
M  V30 7849 H 714.997 -0.483925 -6.77374 0
M  V30 7850 H 712.943 1.7161 -6.33156 0
M  V30 7851 H 712.86 0.481094 -7.54468 0
M  V30 7852 H 714.128 1.66822 -7.6144 0
M  V30 7853 N 718.357 1.51182 -0.445186 0
M  V30 7854 C 719.606 2.01342 0.120189 0
M  V30 7855 C 719.919 1.33353 1.43095 0
M  V30 7856 O 721.125 1.74525 2.07974 0
M  V30 7857 C 719.581 3.58925 0.264732 0
M  V30 7858 C 719.189 4.35855 -1.03606 0
M  V30 7859 C 720.933 4.17208 0.783455 0
M  V30 7860 C 718.84 5.85162 -0.856731 0
M  V30 7861 H 717.77 0.752426 0.0486922 0
M  V30 7862 H 720.421 1.74221 -0.576143 0
M  V30 7863 H 718.803 3.82525 1.02425 0
M  V30 7864 H 719.977 4.23997 -1.80452 0
M  V30 7865 H 718.292 3.89062 -1.48391 0
M  V30 7866 H 720.889 5.26475 0.934239 0
M  V30 7867 H 721.232 3.76892 1.768 0
M  V30 7868 H 721.765 3.97715 0.0820346 0
M  V30 7869 H 718.504 6.29904 -1.81388 0
M  V30 7870 H 718.024 5.99663 -0.128206 0
M  V30 7871 H 719.703 6.44963 -0.513027 0
M  V30 7872 N 719.835 0.176821 1.56605 0
M  V30 7873 C 720.765 -0.746841 2.21234 0
M  V30 7874 C 721.746 -1.23502 1.16967 0
M  V30 7875 O 722.931 -1.28718 1.45414 0
M  V30 7876 C 720.061 -1.97407 2.8574 0
M  V30 7877 C 719.015 -1.62153 3.96094 0
M  V30 7878 C 718.341 -2.92387 4.47676 0
M  V30 7879 C 719.641 -0.845353 5.15413 0
M  V30 7880 H 721.335 -0.208116 2.98676 0
M  V30 7881 H 718.881 -0.0986594 1.43662 0
M  V30 7882 H 720.834 -2.62531 3.2963 0
M  V30 7883 H 719.558 -2.53703 2.05676 0
M  V30 7884 H 718.217 -0.993964 3.52868 0
M  V30 7885 H 717.865 -3.46734 3.64396 0
M  V30 7886 H 717.565 -2.69551 5.22127 0
M  V30 7887 H 719.089 -3.5853 4.94255 0
M  V30 7888 H 720.503 -1.39929 5.55961 0
M  V30 7889 H 718.9 -0.715814 5.95815 0
M  V30 7890 H 719.97 0.157239 4.84645 0
M  V30 7891 N 721.313 -1.57302 -0.09688 0
M  V30 7892 C 722.223 -2.05258 -1.13606 0
M  V30 7893 C 723.239 -0.977137 -1.43972 0
M  V30 7894 O 724.415 -1.29018 -1.54649 0
M  V30 7895 C 721.48 -2.46593 -2.43706 0
M  V30 7896 C 720.541 -3.68322 -2.20538 0
M  V30 7897 C 719.774 -4.07676 -3.44435 0
M  V30 7898 O 719.997 -3.47141 -4.52603 0
M  V30 7899 O 718.931 -5.00641 -3.34129 0
M  V30 7900 H 722.757 -2.94069 -0.758752 0
M  V30 7901 H 720.342 -1.46164 -0.309263 0
M  V30 7902 H 722.224 -2.73814 -3.20318 0
M  V30 7903 H 720.899 -1.6092 -2.80867 0
M  V30 7904 H 719.806 -3.4622 -1.41713 0
M  V30 7905 H 721.139 -4.54769 -1.88271 0
M  V30 7906 N 722.791 0.367657 -1.53252 0
M  V30 7907 C 723.701 1.47415 -1.82499 0
M  V30 7908 C 724.717 1.58711 -0.713222 0
M  V30 7909 O 725.893 1.74644 -1.00306 0
M  V30 7910 C 722.958 2.82706 -2.00694 0
M  V30 7911 C 722.019 2.80955 -3.24596 0
M  V30 7912 C 721.252 4.09793 -3.41914 0
M  V30 7913 O 721.475 5.05852 -2.63572 0
M  V30 7914 O 720.409 4.15731 -4.3526 0
M  V30 7915 H 724.235 1.25624 -2.765 0
M  V30 7916 H 721.82 0.557559 -1.38606 0
M  V30 7917 H 723.702 3.62873 -2.14246 0
M  V30 7918 H 722.377 3.04479 -1.09883 0
M  V30 7919 H 721.284 1.99494 -3.16469 0
M  V30 7920 H 722.617 2.64136 -4.15323 0
M  V30 7921 N 724.269 1.44576 0.627338 0
M  V30 7922 C 725.217 1.52039 1.76031 0
M  V30 7923 C 726.211 0.391796 1.64807 0
M  V30 7924 O 727.417 0.5669 1.7084 0
M  V30 7925 H 723.792 0.477165 0.581221 0
M  V30 7926 H 725.763 2.47387 1.6686 0
M  V30 7927 C 724.512 1.48539 3.14375 0
M  V30 7928 H 723.835 2.34699 3.23661 0
M  V30 7929 H 725.275 1.57821 3.93534 0
M  V30 7930 C 723.734 0.20672 3.36265 0
M  V30 7931 O 724.264 -0.72154 3.95167 0
M  V30 7932 N 722.47 0.108654 2.90397 0
M  V30 7933 H 722.017 0.864884 2.42647 0
M  V30 7934 H 721.975 -0.746121 3.05418 0
M  V30 7935 N 725.747 -0.868086 1.31537 0
M  V30 7936 C 726.694 -1.97548 1.19346 0
M  V30 7937 C 727.664 -1.65913 0.0787922 0
M  V30 7938 O 728.849 -1.89129 0.251985 0
M  V30 7939 C 725.989 -3.32922 0.908692 0
M  V30 7940 C 725.102 -3.77141 2.10687 0
M  V30 7941 C 724.237 -5.01241 1.75873 0
M  V30 7942 C 723.276 -5.37914 2.92088 0
M  V30 7943 N 722.413 -6.53192 2.57457 0
M  V30 7944 H 727.253 -2.07307 2.14074 0
M  V30 7945 H 724.79 -1.01483 1.06487 0
M  V30 7946 H 726.748 -4.10867 0.724138 0
M  V30 7947 H 725.378 -3.228 -0.0017611 0
M  V30 7948 H 724.43 -2.94961 2.40213 0
M  V30 7949 H 725.742 -4.00248 2.97663 0
M  V30 7950 H 724.896 -5.86858 1.53891 0
M  V30 7951 H 723.635 -4.80041 0.86091 0
M  V30 7952 H 722.64 -4.50814 3.14717 0
M  V30 7953 H 723.865 -5.61077 3.82582 0
M  V30 7954 H 721.811 -6.33536 1.702 0
M  V30 7955 H 721.728 -6.76252 3.37963 0
M  V30 7956 H 722.996 -7.41997 2.38873 0
M  V30 7957 N 727.225 -1.14528 -1.08264 0
M  V30 7958 C 728.135 -0.84728 -2.18765 0
M  V30 7959 C 729.151 0.172826 -1.7314 0
M  V30 7960 O 730.327 0.000985336 -2.014 0
M  V30 7961 C 727.392 -0.330633 -3.4512 0
M  V30 7962 C 726.453 -1.41348 -4.05363 0
M  V30 7963 C 725.686 -0.921387 -5.25686 0
M  V30 7964 O 725.909 0.236587 -5.69909 0
M  V30 7965 O 724.843 -1.70101 -5.77364 0
M  V30 7966 H 728.669 -1.7708 -2.46731 0
M  V30 7967 H 726.254 -0.923661 -1.17426 0
M  V30 7968 H 728.136 -0.0485053 -4.21372 0
M  V30 7969 H 726.811 0.565147 -3.18728 0
M  V30 7970 H 725.718 -1.74908 -3.30693 0
M  V30 7971 H 727.051 -2.28383 -4.36007 0
M  V30 7972 N 728.703 1.26451 -0.940633 0
M  V30 7973 C 729.633 2.28773 -0.467479 0
M  V30 7974 C 730.614 1.63218 0.478955 0
M  V30 7975 O 731.799 1.90427 0.380929 0
M  V30 7976 C 728.929 3.46259 0.268656 0
M  V30 7977 C 727.883 4.23898 -0.591171 0
M  V30 7978 C 727.209 5.33993 0.274891 0
M  V30 7979 C 728.509 4.87974 -1.86223 0
M  V30 7980 H 730.203 2.68601 -1.32265 0
M  V30 7981 H 727.749 1.29123 -0.637436 0
M  V30 7982 H 729.702 4.16951 0.610696 0
M  V30 7983 H 728.426 3.05383 1.15796 0
M  V30 7984 H 727.085 3.54969 -0.916098 0
M  V30 7985 H 726.733 4.89358 1.16353 0
M  V30 7986 H 726.433 5.86849 -0.297006 0
M  V30 7987 H 727.957 6.07523 0.612213 0
M  V30 7988 H 729.371 5.50883 -1.58747 0
M  V30 7989 H 727.768 5.50945 -2.37866 0
M  V30 7990 H 728.838 4.10945 -2.57394 0
M  V30 7991 N 730.181 0.707592 1.40822 0
M  V30 7992 C 731.091 0.0507246 2.34545 0
M  V30 7993 C 732.107 -0.752727 1.56876 0
M  V30 7994 O 733.283 -0.687524 1.89302 0
M  V30 7995 C 730.348 -0.865731 3.35717 0
M  V30 7996 C 729.409 -0.0531313 4.29267 0
M  V30 7997 C 728.642 -0.925939 5.25606 0
M  V30 7998 O 728.865 -2.16531 5.27703 0
M  V30 7999 O 727.799 -0.369194 6.00767 0
M  V30 8000 H 731.625 0.823587 2.9232 0
M  V30 8001 H 729.21 0.46801 1.4188 0
M  V30 8002 H 731.092 -1.39091 3.97783 0
M  V30 8003 H 729.767 -1.61788 2.80368 0
M  V30 8004 H 728.674 0.516931 3.70511 0
M  V30 8005 H 730.007 0.660617 4.87747 0
M  V30 8006 N 731.66 -1.50943 0.453197 0
M  V30 8007 C 732.608 -2.29728 -0.364419 0
M  V30 8008 C 733.602 -1.36246 -1.00664 0
M  V30 8009 O 734.808 -1.53518 -0.939794 0
M  V30 8010 H 731.183 -0.739536 -0.136347 0
M  V30 8011 H 733.154 -2.96672 0.320696 0
M  V30 8012 C 731.903 -3.1629 -1.44415 0
M  V30 8013 H 731.226 -3.88119 -0.959343 0
M  V30 8014 H 732.666 -3.74444 -1.98917 0
M  V30 8015 C 731.125 -2.32702 -2.43622 0
M  V30 8016 O 731.655 -1.99763 -3.48508 0
M  V30 8017 N 729.861 -1.95621 -2.14897 0
M  V30 8018 H 729.408 -2.22607 -1.29629 0
M  V30 8019 H 729.366 -1.39993 -2.81513 0
M  V30 8020 N 733.138 -0.185124 -1.56509 0
M  V30 8021 C 734.101 0.72591 -2.17401 0
M  V30 8022 C 735.101 1.14819 -1.12575 0
M  V30 8023 O 736.291 1.0629 -1.38015 0
M  V30 8024 C 733.423 1.98979 -2.76803 0
M  V30 8025 H 734.616 0.195588 -2.99262 0
M  V30 8026 H 732.169 0.0644772 -1.56167 0
M  V30 8027 H 732.904 2.56287 -1.98714 0
M  V30 8028 H 732.689 1.69583 -3.53531 0
M  V30 8029 H 734.179 2.63966 -3.23592 0
M  V30 8030 N 734.616 1.57351 0.0885366 0
M  V30 8031 C 735.546 2.05561 1.10757 0
M  V30 8032 C 736.527 0.945789 1.41382 0
M  V30 8033 O 737.712 1.21747 1.51299 0
M  V30 8034 C 734.842 2.48554 2.42566 0
M  V30 8035 C 733.796 3.63259 2.26334 0
M  V30 8036 C 733.122 3.9225 3.63378 0
M  V30 8037 C 734.422 4.93913 1.69844 0
M  V30 8038 H 736.116 2.90946 0.706468 0
M  V30 8039 H 733.662 1.39968 0.338385 0
M  V30 8040 H 735.615 2.8089 3.14132 0
M  V30 8041 H 734.339 1.60176 2.84625 0
M  V30 8042 H 732.998 3.31179 1.57213 0
M  V30 8043 H 732.646 3.0103 4.02976 0
M  V30 8044 H 732.346 4.69478 3.53362 0
M  V30 8045 H 733.87 4.27067 4.36401 0
M  V30 8046 H 735.284 5.24588 2.31258 0
M  V30 8047 H 733.681 5.75349 1.70569 0
M  V30 8048 H 734.751 4.80409 0.65843 0
M  V30 8049 N 736.094 -0.359525 1.53444 0
M  V30 8050 C 737.041 -1.44073 1.8031 0
M  V30 8051 C 738.011 -1.52946 0.647811 0
M  V30 8052 O 739.196 -1.68739 0.890614 0
M  V30 8053 C 736.336 -2.80941 2.00416 0
M  V30 8054 C 735.449 -2.80986 3.28132 0
M  V30 8055 C 734.584 -4.09468 3.38393 0
M  V30 8056 C 733.623 -4.03679 4.60119 0
M  V30 8057 N 732.76 -5.23821 4.675 0
M  V30 8058 H 737.6 -1.20464 2.72566 0
M  V30 8059 H 735.137 -0.583859 1.35017 0
M  V30 8060 H 737.095 -3.60459 2.1006 0
M  V30 8061 H 735.725 -3.02936 1.11489 0
M  V30 8062 H 734.777 -1.93666 3.27411 0
M  V30 8063 H 736.089 -2.72583 4.17732 0
M  V30 8064 H 735.243 -4.97404 3.47382 0
M  V30 8065 H 733.982 -4.20632 2.4682 0
M  V30 8066 H 732.987 -3.14129 4.51224 0
M  V30 8067 H 734.212 -3.94112 5.5304 0
M  V30 8068 H 732.158 -5.35559 3.7883 0
M  V30 8069 H 732.075 -5.17611 5.51013 0
M  V30 8070 H 733.343 -6.13572 4.8078 0
M  V30 8071 N 737.572 -1.44907 -0.619662 0
M  V30 8072 C 738.52 -1.52971 -1.75222 0
M  V30 8073 C 739.514 -0.400531 -1.64597 0
M  V30 8074 O 740.72 -0.575952 -1.70537 0
M  V30 8075 H 737.095 -0.480241 -0.578682 0
M  V30 8076 H 739.066 -2.48269 -1.65545 0
M  V30 8077 C 737.815 -1.50204 -3.13583 0
M  V30 8078 H 737.138 -2.36412 -3.22412 0
M  V30 8079 H 738.578 -1.59905 -3.92691 0
M  V30 8080 C 737.037 -0.22455 -3.36151 0
M  V30 8081 O 737.567 0.700574 -3.95544 0
M  V30 8082 N 735.773 -0.124052 -2.90335 0
M  V30 8083 H 735.32 -0.87774 -2.42185 0
M  V30 8084 H 735.278 0.729914 -3.0581 0
M  V30 8085 N 739.05 0.861098 -1.31996 0
M  V30 8086 C 740.299 1.60965 -1.21545 0
M  V30 8087 C 740.612 1.94325 0.222972 0
M  V30 8088 O 741.818 2.67757 0.449272 0
M  V30 8089 C 740.274 2.90223 -2.12834 0
M  V30 8090 C 739.882 2.64313 -3.61722 0
M  V30 8091 C 741.626 3.68229 -2.11205 0
M  V30 8092 C 739.533 3.89532 -4.44993 0
M  V30 8093 H 738.463 0.603988 -0.451348 0
M  V30 8094 H 741.114 0.951358 -1.56912 0
M  V30 8095 H 739.496 3.57475 -1.70375 0
M  V30 8096 H 740.67 2.05413 -4.12483 0
M  V30 8097 H 738.985 1.99647 -3.65418 0
M  V30 8098 H 741.582 4.61138 -2.70658 0
M  V30 8099 H 741.925 4.01466 -1.1014 0
M  V30 8100 H 742.458 3.07873 -2.51911 0
M  V30 8101 H 739.197 3.61441 -5.46846 0
M  V30 8102 H 738.717 4.47851 -3.98985 0
M  V30 8103 H 740.396 4.57334 -4.57663 0
M  V30 8104 N 740.528 1.15101 1.07655 0
M  V30 8105 C 741.46 0.802722 2.14684 0
M  V30 8106 C 742.473 -0.183874 1.61758 0
M  V30 8107 O 743.662 0.0389349 1.78458 0
M  V30 8108 C 740.762 0.172135 3.38463 0
M  V30 8109 C 739.935 1.19538 4.20749 0
M  V30 8110 C 738.994 0.58714 5.22914 0
M  V30 8111 O 738.02 1.25224 5.55255 0
M  V30 8112 N 739.222 -0.632566 5.77043 0
M  V30 8113 H 741.987 1.72379 2.45164 0
M  V30 8114 H 739.548 1.04647 1.23534 0
M  V30 8115 H 741.54 -0.247465 4.03943 0
M  V30 8116 H 740.11 -0.652214 3.0572 0
M  V30 8117 H 739.33 1.79165 3.51132 0
M  V30 8118 H 740.618 1.88636 4.7254 0
M  V30 8119 H 740.016 -1.19135 5.53013 0
M  V30 8120 H 738.573 -0.994566 6.44167 0
M  V30 8121 N 742.006 -1.2595 0.947325 0
M  V30 8122 C 742.936 -2.28521 0.479604 0
M  V30 8123 C 743.917 -1.63469 -0.470293 0
M  V30 8124 O 745.102 -1.90627 -0.370824 0
M  V30 8125 C 742.232 -3.46397 -0.250289 0
M  V30 8126 C 741.186 -4.23578 0.613643 0
M  V30 8127 C 740.512 -5.34131 -0.246568 0
M  V30 8128 C 741.812 -4.86979 1.88809 0
M  V30 8129 H 743.506 -2.67895 1.33688 0
M  V30 8130 H 741.052 -1.28783 0.644274 0
M  V30 8131 H 743.005 -4.17269 -0.588576 0
M  V30 8132 H 741.729 -3.05993 -1.14175 0
M  V30 8133 H 740.388 -3.54478 0.93491 0
M  V30 8134 H 740.036 -4.89968 -1.13756 0
M  V30 8135 H 739.736 -5.86683 0.328123 0
M  V30 8136 H 741.26 -6.07839 -0.579986 0
M  V30 8137 H 742.674 -5.50034 1.61666 0
M  V30 8138 H 741.071 -5.49675 2.40784 0
M  V30 8139 H 742.141 -4.09575 2.5957 0
M  V30 8140 N 743.484 -0.715051 -1.40445 0
M  V30 8141 C 744.895 -0.326763 -1.83818 0
M  V30 8142 C 745.246 1.13851 -1.59789 0
M  V30 8143 O 744.371 1.87611 -1.07848 0
M  V30 8144 C 744.966 -0.586297 -3.33688 0
M  V30 8145 C 743.525 -0.251724 -3.75557 0
M  V30 8146 C 742.672 -0.858928 -2.63662 0
M  V30 8147 H 745.623 -0.914241 -1.2972 0
M  V30 8148 H 745.644 0.148636 -3.8021 0
M  V30 8149 H 745.156 -1.65281 -3.51146 0
M  V30 8150 H 743.257 0.809754 -3.63695 0
M  V30 8151 H 743.37 -0.720348 -4.73654 0
M  V30 8152 H 741.734 -0.287013 -2.53078 0
M  V30 8153 H 742.517 -1.9297 -2.83932 0
M  V30 8154 N 744.962 1.50701 -0.461195 0
M  V30 8155 C 745.909 2.2831 0.338094 0
M  V30 8156 C 746.879 1.32928 0.995957 0
M  V30 8157 O 748.064 1.61857 1.0103 0
M  V30 8158 C 745.204 3.14539 1.41983 0
M  V30 8159 C 744.317 4.24942 0.77773 0
M  V30 8160 C 743.452 4.98443 1.83652 0
M  V30 8161 C 742.491 6.00733 1.17413 0
M  V30 8162 N 741.628 6.6755 2.17533 0
M  V30 8163 H 746.468 2.96167 -0.330051 0
M  V30 8164 H 744.005 1.4606 -0.174611 0
M  V30 8165 H 745.963 3.62877 2.05855 0
M  V30 8166 H 744.593 2.48749 2.05727 0
M  V30 8167 H 743.645 3.80391 0.0266924 0
M  V30 8168 H 744.957 4.98151 0.254362 0
M  V30 8169 H 744.111 5.50449 2.55129 0
M  V30 8170 H 742.85 4.24917 2.39367 0
M  V30 8171 H 741.855 5.47997 0.444944 0
M  V30 8172 H 743.08 6.76227 0.624006 0
M  V30 8173 H 741.026 5.96823 2.72284 0
M  V30 8174 H 740.943 7.36603 1.70154 0
M  V30 8175 H 742.211 7.24178 2.88421 0
M  V30 8176 N 746.441 0.193421 1.56409 0
M  V30 8177 C 747.351 -0.740112 2.2262 0
M  V30 8178 C 748.367 -1.23597 1.22474 0
M  V30 8179 O 749.543 -1.28348 1.55206 0
M  V30 8180 C 746.608 -1.94317 2.87127 0
M  V30 8181 C 745.669 -1.49205 4.02538 0
M  V30 8182 C 744.902 -2.63776 4.63959 0
M  V30 8183 O 745.125 -3.81215 4.24301 0
M  V30 8184 O 744.059 -2.36585 5.53454 0
M  V30 8185 H 747.885 -0.206238 3.02999 0
M  V30 8186 H 745.47 -0.0357938 1.49357 0
M  V30 8187 H 747.352 -2.64633 3.27944 0
M  V30 8188 H 746.027 -2.46568 2.09728 0
M  V30 8189 H 744.934 -0.757738 3.66346 0
M  V30 8190 H 746.267 -1.01622 4.81595 0
M  V30 8191 N 747.919 -1.57396 -0.0801906 0
M  V30 8192 C 748.829 -2.06451 -1.11423 0
M  V30 8193 C 749.845 -0.992352 -1.42928 0
M  V30 8194 O 751.021 -1.30651 -1.53272 0
M  V30 8195 C 748.086 -2.49164 -2.41077 0
M  V30 8196 C 747.147 -3.70641 -2.16619 0
M  V30 8197 C 746.38 -4.11307 -3.40092 0
M  V30 8198 O 746.603 -3.51922 -4.48895 0
M  V30 8199 O 745.537 -5.04157 -3.288 0
M  V30 8200 H 749.363 -2.94857 -0.727519 0
M  V30 8201 H 746.948 -1.46484 -0.293743 0
M  V30 8202 H 748.83 -2.77196 -3.17396 0
M  V30 8203 H 747.505 -1.6389 -2.79145 0
M  V30 8204 H 746.412 -3.47703 -1.38033 0
M  V30 8205 H 747.745 -4.5674 -1.83437 0
M  V30 8206 N 749.397 0.351382 -1.53633 0
M  V30 8207 C 750.646 1.08988 -1.69719 0
M  V30 8208 C 750.959 1.90043 -0.462948 0
M  V30 8209 O 752.165 2.66769 -0.504613 0
M  V30 8210 C 750.621 1.98691 -3.00083 0
M  V30 8211 C 750.229 1.22881 -4.30818 0
M  V30 8212 C 751.973 2.72446 -3.25536 0
M  V30 8213 C 749.88 2.11568 -5.52262 0
M  V30 8214 H 748.81 0.410588 -0.632403 0
M  V30 8215 H 751.461 0.349886 -1.80133 0
M  V30 8216 H 749.843 2.76478 -2.83506 0
M  V30 8217 H 751.017 0.500582 -4.58073 0
M  V30 8218 H 749.332 0.60928 -4.11918 0
M  V30 8219 H 751.929 3.39055 -4.13456 0
M  V30 8220 H 752.272 3.38588 -2.42206 0
M  V30 8221 H 752.805 2.01735 -3.42852 0
M  V30 8222 H 749.544 1.4998 -6.38111 0
M  V30 8223 H 749.064 2.82201 -5.29266 0
M  V30 8224 H 750.743 2.70802 -5.87601 0
M  V30 8225 N 750.875 1.45233 0.611969 0
M  V30 8226 C 751.822 1.5357 1.72293 0
M  V30 8227 C 752.792 0.381912 1.6165 0
M  V30 8228 O 753.977 0.594765 1.81293 0
M  V30 8229 C 751.117 1.50419 3.10593 0
M  V30 8230 C 750.23 2.76316 3.32074 0
M  V30 8231 C 749.365 2.64866 4.60456 0
M  V30 8232 C 748.404 3.85838 4.7518 0
M  V30 8233 N 747.541 3.72949 5.94856 0
M  V30 8234 H 752.381 2.4848 1.64504 0
M  V30 8235 H 749.918 1.23302 0.802191 0
M  V30 8236 H 751.876 1.4658 3.90602 0
M  V30 8237 H 750.506 0.590621 3.17351 0
M  V30 8238 H 749.558 2.90261 2.45872 0
M  V30 8239 H 750.87 3.66055 3.38829 0
M  V30 8240 H 750.024 2.58969 5.48653 0
M  V30 8241 H 748.763 1.72719 4.56092 0
M  V30 8242 H 747.768 3.92099 3.85407 0
M  V30 8243 H 748.993 4.79045 4.81344 0
M  V30 8244 H 746.939 2.83567 5.91545 0
M  V30 8245 H 746.856 4.56319 6.02751 0
M  V30 8246 H 748.124 3.70976 6.85563 0
M  V30 8247 N 752.353 -0.854086 1.3245 0
M  V30 8248 C 753.3 -1.96271 1.21434 0
M  V30 8249 C 754.27 -1.6582 0.0963851 0
M  V30 8250 O 755.455 -1.88851 0.27203 0
M  V30 8251 C 752.595 -3.31939 0.943952 0
M  V30 8252 C 751.708 -3.74885 2.14675 0
M  V30 8253 C 750.843 -4.99347 1.81179 0
M  V30 8254 C 749.882 -5.34785 2.97777 0
M  V30 8255 N 749.019 -6.50425 2.6437 0
M  V30 8256 H 753.859 -2.05025 2.16261 0
M  V30 8257 H 751.396 -1.00348 1.07558 0
M  V30 8258 H 753.354 -4.10076 0.767675 0
M  V30 8259 H 751.984 -3.22784 0.0324763 0
M  V30 8260 H 751.036 -2.92396 2.43328 0
M  V30 8261 H 752.348 -3.97068 3.01891 0
M  V30 8262 H 751.502 -5.85193 1.60107 0
M  V30 8263 H 750.241 -4.79101 0.911777 0
M  V30 8264 H 749.246 -4.47451 3.1948 0
M  V30 8265 H 750.471 -5.56988 3.88511 0
M  V30 8266 H 748.417 -6.31695 1.7691 0
M  V30 8267 H 748.334 -6.7263 3.45116 0
M  V30 8268 H 749.602 -7.39422 2.46729 0
M  V30 8269 N 753.831 -1.1567 -1.07043 0
M  V30 8270 C 754.761 -0.879348 -2.16309 0
M  V30 8271 C 755.742 0.171311 -1.69235 0
M  V30 8272 O 756.927 0.0250175 -1.94184 0
M  V30 8273 C 754.057 -0.371307 -3.45309 0
M  V30 8274 C 753.011 -1.359 -4.05851 0
M  V30 8275 C 752.337 -0.709678 -5.29969 0
M  V30 8276 C 753.637 -2.72606 -4.45514 0
M  V30 8277 H 755.331 -1.79308 -2.39768 0
M  V30 8278 H 752.877 -0.863558 -1.15233 0
M  V30 8279 H 754.83 -0.164798 -4.21078 0
M  V30 8280 H 753.554 0.577906 -3.21446 0
M  V30 8281 H 752.213 -1.55193 -3.32131 0
M  V30 8282 H 751.861 0.245782 -5.02399 0
M  V30 8283 H 751.561 -1.36886 -5.71433 0
M  V30 8284 H 753.085 -0.513015 -6.08441 0
M  V30 8285 H 754.499 -2.57141 -5.12398 0
M  V30 8286 H 752.896 -3.34927 -4.97939 0
M  V30 8287 H 753.966 -3.28434 -3.56734 0
M  V30 8288 N 755.309 1.25446 -0.953992 0
M  V30 8289 C 756.219 2.29632 -0.480264 0
M  V30 8290 C 757.235 1.68025 0.452071 0
M  V30 8291 O 758.411 1.98703 0.328472 0
M  V30 8292 C 755.476 3.45903 0.234974 0
M  V30 8293 C 754.537 4.22953 -0.735495 0
M  V30 8294 C 753.77 5.33672 -0.0542957 0
M  V30 8295 O 753.993 5.58477 1.16018 0
M  V30 8296 O 752.927 5.9734 -0.739509 0
M  V30 8297 H 756.753 2.72242 -1.34602 0
M  V30 8298 H 754.338 1.30883 -0.720419 0
M  V30 8299 H 756.22 4.16552 0.637341 0
M  V30 8300 H 754.895 3.05296 1.07592 0
M  V30 8301 H 753.802 3.54734 -1.18806 0
M  V30 8302 H 755.135 4.67341 -1.54444 0
M  V30 8303 N 756.787 0.722489 1.40064 0
M  V30 8304 C 758.033 0.265371 2.01056 0
M  V30 8305 C 758.366 -1.14062 1.57174 0
M  V30 8306 O 757.641 -1.77514 0.794916 0
M  V30 8307 C 757.924 0.353157 3.58364 0
M  V30 8308 C 757.777 1.79802 4.123 0
M  V30 8309 C 759.096 -0.271677 4.39261 0
M  V30 8310 H 756.215 0.0979002 0.730469 0
M  V30 8311 H 758.857 0.916289 1.66446 0
M  V30 8312 H 757.007 -0.201037 3.87979 0
M  V30 8313 H 758.679 2.40813 3.93455 0
M  V30 8314 H 756.922 2.32348 3.66329 0
M  V30 8315 H 757.593 1.81079 5.21454 0
M  V30 8316 H 760.069 0.200607 4.15616 0
M  V30 8317 H 758.945 -0.179843 5.48605 0
M  V30 8318 H 759.206 -1.35611 4.20787 0
M  V30 8319 N 758.265 -1.50454 0.469181 0
M  V30 8320 C 759.542 -1.9504 -0.147955 0
M  V30 8321 C 759.922 -1.40946 -1.57154 0
M  V30 8322 O 759.27 -0.609663 -2.20217 0
M  V30 8323 C 759.48 -3.48875 -0.0932198 0
M  V30 8324 C 760.828 -4.23655 -0.283056 0
M  V30 8325 O 761.852 -3.55795 -0.169892 0
M  V30 8326 O 760.711 -5.44102 -0.511396 0
M  V30 8327 H 757.805 -0.819283 -0.11271 0
M  V30 8328 H 760.351 -1.6123 0.529446 0
M  V30 8329 H 759.123 -3.80791 0.900784 0
M  V30 8330 H 758.746 -3.89217 -0.812161 0
M  V30 8331 N 759.743 -0.201713 -1.56304 0
M  V30 8332 C 760.653 0.728296 -2.23009 0
M  V30 8333 C 761.669 1.22945 -1.23128 0
M  V30 8334 O 762.845 1.27523 -1.55884 0
M  V30 8335 C 759.91 1.92792 -2.88153 0
M  V30 8336 C 758.971 1.47068 -4.03323 0
M  V30 8337 C 758.204 2.61312 -4.65351 0
M  V30 8338 O 758.427 3.7896 -4.26317 0
M  V30 8339 O 757.361 2.33646 -5.54701 0
M  V30 8340 H 761.187 0.190166 -3.03104 0
M  V30 8341 H 758.772 0.0278725 -1.49374 0
M  V30 8342 H 760.654 2.6289 -3.29343 0
M  V30 8343 H 759.329 2.45452 -2.11033 0
M  V30 8344 H 758.236 0.738299 -3.66742 0
M  V30 8345 H 759.569 0.990666 -4.82127 0
M  V30 8346 N 761.222 1.57436 0.0718424 0
M  V30 8347 C 762.471 1.86431 0.769826 0
M  V30 8348 C 762.784 0.794355 1.78744 0
M  V30 8349 O 763.99 0.972148 2.53499 0
M  V30 8350 C 762.446 3.307 1.42006 0
M  V30 8351 C 762.054 4.45824 0.441017 0
M  V30 8352 C 763.798 3.68894 2.10041 0
M  V30 8353 C 761.705 5.81134 1.09717 0
M  V30 8354 H 760.635 0.695474 0.291259 0
M  V30 8355 H 763.286 1.83485 0.0231224 0
M  V30 8356 H 761.668 3.28257 2.21502 0
M  V30 8357 H 762.842 4.59659 -0.32413 0
M  V30 8358 H 761.157 4.16181 -0.134886 0
M  V30 8359 H 763.754 4.67281 2.59908 0
M  V30 8360 H 764.097 2.98692 2.89981 0
M  V30 8361 H 764.63 3.73326 1.37376 0
M  V30 8362 H 761.369 6.54628 0.338095 0
M  V30 8363 H 760.889 5.711 1.83317 0
M  V30 8364 H 762.568 6.26468 1.617 0
M  V30 8365 N 762.7 -0.34323 1.53817 0
M  V30 8366 C 763.928 -1.10348 1.75017 0
M  V30 8367 C 764.343 -1.82345 0.489475 0
M  V30 8368 O 763.7 -1.74362 -0.538886 0
M  V30 8369 C 763.751 -2.11672 2.93048 0
M  V30 8370 O 763.472 -1.42603 4.14241 0
M  V30 8371 C 764.973 -3.0007 3.26301 0
M  V30 8372 H 762.193 -0.329056 0.584776 0
M  V30 8373 H 764.737 -0.395339 2.00642 0
M  V30 8374 H 762.892 -2.78051 2.69753 0
M  V30 8375 H 763.306 -2.10294 4.80496 0
M  V30 8376 H 764.78 -3.67101 4.12239 0
M  V30 8377 H 765.257 -3.66105 2.42618 0
M  V30 8378 H 765.863 -2.3928 3.51604 0
M  V30 8379 N 764.178 -1.45556 -0.604258 0
M  V30 8380 C 765.108 -1.57327 -1.72541 0
M  V30 8381 C 766.089 -0.424637 -1.64714 0
M  V30 8382 O 767.274 -0.648196 -1.83063 0
M  V30 8383 C 764.404 -1.54279 -3.11152 0
M  V30 8384 C 763.358 -2.67893 -3.33792 0
M  V30 8385 C 762.684 -2.499 -4.72709 0
M  V30 8386 C 763.984 -4.0988 -3.23722 0
M  V30 8387 H 765.678 -2.51175 -1.62947 0
M  V30 8388 H 763.224 -1.20884 -0.782504 0
M  V30 8389 H 765.177 -1.6111 -3.89386 0
M  V30 8390 H 763.901 -0.569627 -3.21594 0
M  V30 8391 H 762.56 -2.60495 -2.57949 0
M  V30 8392 H 762.208 -1.50715 -4.79889 0
M  V30 8393 H 761.908 -3.26091 -4.88813 0
M  V30 8394 H 763.432 -2.5859 -5.5314 0
M  V30 8395 H 764.846 -4.18503 -3.91826 0
M  V30 8396 H 763.243 -4.86487 -3.51355 0
M  V30 8397 H 764.313 -4.31553 -2.21111 0
M  V30 8398 N 765.656 0.84705 -1.32902 0
M  V30 8399 C 766.902 1.60389 -1.25088 0
M  V30 8400 C 767.257 1.91521 0.183723 0
M  V30 8401 O 766.55 1.55197 1.12359 0
M  V30 8402 C 766.744 2.92663 -2.05142 0
M  V30 8403 C 766.573 2.74449 -3.56241 0
M  V30 8404 C 765.343 2.72434 -4.25567 0
M  V30 8405 C 767.541 2.47666 -4.5074 0
M  V30 8406 N 765.523 2.45512 -5.62669 0
M  V30 8407 C 766.894 2.30219 -5.75673 0
M  V30 8408 C 768.949 2.33196 -4.39914 0
M  V30 8409 C 767.652 1.99772 -6.91002 0
M  V30 8410 C 769.678 2.0414 -5.5505 0
M  V30 8411 C 769.04 1.875 -6.78987 0
M  V30 8412 H 765.139 0.590296 -0.512908 0
M  V30 8413 H 767.723 0.995058 -1.67352 0
M  V30 8414 H 765.894 3.51511 -1.65211 0
M  V30 8415 H 767.626 3.5777 -1.89163 0
M  V30 8416 H 764.381 2.85647 -3.7776 0
M  V30 8417 H 764.805 2.34958 -6.3492 0
M  V30 8418 H 769.447 2.44777 -3.44738 0
M  V30 8419 H 767.165 1.86928 -7.86183 0
M  V30 8420 H 770.751 1.93711 -5.48605 0
M  V30 8421 H 769.631 1.65339 -7.66572 0
M  V30 8422 N 767.134 1.16236 1.06428 0
M  V30 8423 C 768.364 0.965782 1.82637 0
M  V30 8424 C 768.772 -0.489284 1.82764 0
M  V30 8425 O 768.115 -1.35133 1.24438 0
M  V30 8426 C 768.177 1.41458 3.30499 0
M  V30 8427 C 767.841 2.88926 3.54077 0
M  V30 8428 C 768.838 3.86939 3.47238 0
M  V30 8429 C 766.523 3.26814 3.81442 0
M  V30 8430 C 768.517 5.20841 3.67428 0
M  V30 8431 C 766.204 4.60886 4.01282 0
M  V30 8432 C 767.202 5.57708 3.94272 0
M  V30 8433 O 766.89 6.89357 4.13573 0
M  V30 8434 H 766.622 0.342569 0.582772 0
M  V30 8435 H 769.176 1.54641 1.35187 0
M  V30 8436 H 767.406 0.777426 3.78805 0
M  V30 8437 H 769.095 1.18563 3.88198 0
M  V30 8438 H 769.861 3.59014 3.26089 0
M  V30 8439 H 765.74 2.5203 3.86008 0
M  V30 8440 H 769.284 5.96401 3.61873 0
M  V30 8441 H 765.181 4.88522 4.21921 0
M  V30 8442 H 765.949 6.95913 4.30869 0
M  V30 8443 N 768.612 -1.24939 0.960631 0
M  V30 8444 C 769.559 -2.25658 0.484459 0
M  V30 8445 C 770.529 -1.59422 -0.466242 0
M  V30 8446 O 771.714 -1.87015 -0.378169 0
M  V30 8447 C 768.854 -3.44359 -0.225958 0
M  V30 8448 C 767.967 -4.25214 0.762682 0
M  V30 8449 C 767.102 -5.31192 0.0290931 0
M  V30 8450 C 766.141 -6.03739 1.00827 0
M  V30 8451 N 765.278 -7.01437 0.305155 0
M  V30 8452 H 770.118 -2.65758 1.34821 0
M  V30 8453 H 767.655 -1.30648 0.675983 0
M  V30 8454 H 769.613 -4.12035 -0.654472 0
M  V30 8455 H 768.243 -3.05118 -1.05371 0
M  V30 8456 H 767.295 -3.57144 1.30966 0
M  V30 8457 H 768.607 -4.75406 1.50964 0
M  V30 8458 H 767.761 -6.04971 -0.457763 0
M  V30 8459 H 766.5 -4.81889 -0.750614 0
M  V30 8460 H 765.505 -5.2877 1.50607 0
M  V30 8461 H 766.73 -6.55131 1.7883 0
M  V30 8462 H 764.676 -6.54415 -0.455704 0
M  V30 8463 H 764.593 -7.49475 0.991104 0
M  V30 8464 H 765.861 -7.79336 -0.159966 0
M  V30 8465 N 770.09 -0.729906 -1.39679 0
M  V30 8466 C 771.023 -0.0354454 -2.28172 0
M  V30 8467 C 772.001 0.752968 -1.44115 0
M  V30 8468 O 773.185 0.736599 -1.73512 0
M  V30 8469 C 770.312 0.957047 -3.24897 0
M  V30 8470 C 769.358 0.257734 -4.25721 0
M  V30 8471 S 770.191 -1.02466 -5.25605 0
M  V30 8472 C 771.347 -0.0346322 -6.2589 0
M  V30 8473 H 771.58 -0.785922 -2.86724 0
M  V30 8474 H 769.113 -0.521497 -1.45326 0
M  V30 8475 H 771.071 1.52441 -3.81146 0
M  V30 8476 H 769.732 1.68033 -2.65375 0
M  V30 8477 H 768.925 1.00854 -4.93806 0
M  V30 8478 H 768.527 -0.237454 -3.73245 0
M  V30 8479 H 770.819 0.807464 -6.72671 0
M  V30 8480 H 771.762 -0.682491 -7.04803 0
M  V30 8481 H 772.17 0.335492 -5.63502 0
M  V30 8482 N 771.568 1.50203 -0.477153 0
M  V30 8483 C 772.817 2.01551 0.0774548 0
M  V30 8484 C 773.13 1.36359 1.40234 0
M  V30 8485 O 774.336 1.78898 2.04225 0
M  V30 8486 C 772.792 3.59406 0.188539 0
M  V30 8487 C 772.4 4.3356 -1.12828 0
M  V30 8488 C 774.144 4.18776 0.694782 0
M  V30 8489 C 772.051 5.83213 -0.98066 0
M  V30 8490 H 770.981 0.75329 0.0327212 0
M  V30 8491 H 773.632 1.72959 -0.612969 0
M  V30 8492 H 772.014 3.84611 0.942881 0
M  V30 8493 H 773.188 4.20074 -1.89405 0
M  V30 8494 H 771.503 3.85827 -1.5661 0
M  V30 8495 H 774.1 5.28338 0.822356 0
M  V30 8496 H 774.443 3.80557 1.68766 0
M  V30 8497 H 774.976 3.978 -0.00234519 0
M  V30 8498 H 771.715 6.25914 -1.94709 0
M  V30 8499 H 771.235 5.99256 -0.255375 0
M  V30 8500 H 772.914 6.4373 -0.649717 0
M  V30 8501 N 773.046 0.209999 1.56195 0
M  V30 8502 C 773.976 -0.699746 2.22769 0
M  V30 8503 C 774.957 -1.20993 1.1956 0
M  V30 8504 O 776.142 -1.25605 1.48112 0
M  V30 8505 C 773.272 -1.91302 2.89863 0
M  V30 8506 C 772.226 -1.53715 3.99444 0
M  V30 8507 C 771.552 -2.82826 4.53777 0
M  V30 8508 C 772.852 -0.735836 5.17091 0
M  V30 8509 H 774.546 -0.144716 2.9905 0
M  V30 8510 H 772.092 -0.0681645 1.43839 0
M  V30 8511 H 774.045 -2.5548 3.35124 0
M  V30 8512 H 772.769 -2.49283 2.11011 0
M  V30 8513 H 771.428 -0.918892 3.54897 0
M  V30 8514 H 771.076 -3.38927 3.71669 0
M  V30 8515 H 770.776 -2.58415 5.27727 0
M  V30 8516 H 772.3 -3.47966 5.01749 0
M  V30 8517 H 773.714 -1.28105 5.58804 0
M  V30 8518 H 772.111 -0.589272 5.972 0
M  V30 8519 H 773.181 0.260004 4.84202 0
M  V30 8520 N 774.524 -1.57472 -0.0634922 0
M  V30 8521 C 775.935 -1.76303 -0.614337 0
M  V30 8522 C 776.286 -0.836578 -1.77471 0
M  V30 8523 O 775.411 -0.0227184 -2.16388 0
M  V30 8524 C 776.006 -3.19709 -1.12122 0
M  V30 8525 C 774.565 -3.39856 -1.61786 0
M  V30 8526 C 773.712 -2.71975 -0.540845 0
M  V30 8527 H 776.663 -1.57864 0.162702 0
M  V30 8528 H 776.684 -3.24326 -1.98979 0
M  V30 8529 H 776.196 -3.87114 -0.276472 0
M  V30 8530 H 774.297 -2.77578 -2.48558 0
M  V30 8531 H 774.41 -4.48338 -1.68908 0
M  V30 8532 H 772.774 -2.34763 -0.987854 0
M  V30 8533 H 773.557 -3.4204 0.293856 0
M  V30 8534 N 776.003 0.335068 -1.53997 0
M  V30 8535 C 777.414 0.910191 -1.6301 0
M  V30 8536 C 777.765 1.89271 -0.516809 0
M  V30 8537 O 776.89 2.13516 0.352123 0
M  V30 8538 C 777.485 1.65761 -2.9548 0
M  V30 8539 C 776.044 2.18163 -3.06728 0
M  V30 8540 C 775.191 1.00338 -2.5851 0
M  V30 8541 H 778.142 0.112965 -1.58297 0
M  V30 8542 H 778.163 2.52107 -2.84995 0
M  V30 8543 H 777.675 0.94227 -3.76488 0
M  V30 8544 H 775.776 2.92847 -2.30372 0
M  V30 8545 H 775.889 2.43952 -4.1234 0
M  V30 8546 H 774.253 1.37925 -2.14124 0
M  V30 8547 H 775.036 0.30254 -3.41964 0
M  V30 8548 N 777.481 1.45874 0.596531 0
M  V30 8549 C 778.413 1.51408 1.7207 0
M  V30 8550 C 779.426 0.403738 1.57714 0
M  V30 8551 O 780.615 0.671384 1.65393 0
M  V30 8552 C 777.715 1.3652 3.10186 0
M  V30 8553 C 776.888 2.61428 3.50677 0
M  V30 8554 C 775.947 2.40937 4.67799 0
M  V30 8555 O 774.973 3.14602 4.74357 0
M  V30 8556 N 776.175 1.4621 5.61785 0
M  V30 8557 H 778.94 2.48333 1.67782 0
M  V30 8558 H 776.501 1.41755 0.782129 0
M  V30 8559 H 778.493 1.20606 3.86311 0
M  V30 8560 H 777.063 0.478302 3.08919 0
M  V30 8561 H 776.283 2.92381 2.644 0
M  V30 8562 H 777.571 3.44432 3.74491 0
M  V30 8563 H 776.969 0.854382 5.59211 0
M  V30 8564 H 775.526 1.36264 6.37397 0
M  V30 8565 N 778.959 -0.83999 1.33349 0
M  V30 8566 C 780.206 -1.59517 1.24742 0
M  V30 8567 C 780.534 -1.93598 -0.187077 0
M  V30 8568 O 779.789 -1.58782 -1.14398 0
M  V30 8569 C 780.088 -2.91571 2.06691 0
M  V30 8570 C 779.754 -2.76856 3.55895 0
M  V30 8571 C 778.416 -2.72551 3.96572 0
M  V30 8572 C 780.768 -2.61741 4.50712 0
M  V30 8573 C 778.096 -2.51028 5.30285 0
M  V30 8574 C 780.448 -2.41752 5.84584 0
M  V30 8575 C 779.112 -2.35848 6.24445 0
M  V30 8576 H 778.382 -0.583714 0.456463 0
M  V30 8577 H 781.029 -0.973261 1.64924 0
M  V30 8578 H 779.334 -3.57961 1.59284 0
M  V30 8579 H 781.031 -3.49053 1.9739 0
M  V30 8580 H 777.621 -2.81039 3.23597 0
M  V30 8581 H 781.805 -2.64102 4.20195 0
M  V30 8582 H 777.061 -2.44903 5.60208 0
M  V30 8583 H 781.235 -2.2904 6.57658 0
M  V30 8584 H 778.862 -2.18931 7.27993 0
M  V30 8585 N 780.437 -1.16799 -1.0581 0
M  V30 8586 C 781.714 -0.862616 -1.75551 0
M  V30 8587 C 782.094 0.6385 -2.01212 0
M  V30 8588 O 781.442 1.58784 -1.64317 0
M  V30 8589 C 781.652 -1.6907 -3.05314 0
M  V30 8590 C 783 -1.90675 -3.79379 0
M  V30 8591 O 784.024 -1.65976 -3.15167 0
M  V30 8592 O 782.883 -2.32145 -4.94743 0
M  V30 8593 H 779.977 -0.318789 -0.763088 0
M  V30 8594 H 782.523 -1.27461 -1.12034 0
M  V30 8595 H 781.295 -2.70912 -2.82352 0
M  V30 8596 H 780.918 -1.27606 -3.76567 0
M  V30 8597 N 781.915 1.24427 -0.967243 0
M  V30 8598 C 783.331 1.44684 -0.6737 0
M  V30 8599 C 783.531 1.86429 0.764625 0
M  V30 8600 O 782.587 2.00211 1.53857 0
M  V30 8601 C 783.9 2.509 -1.6574 0
M  V30 8602 C 785.448 2.64728 -1.66998 0
M  V30 8603 C 785.923 3.7414 -2.64165 0
M  V30 8604 N 787.414 3.81567 -2.62604 0
M  V30 8605 C 788.149 4.6575 -3.34462 0
M  V30 8606 N 787.645 5.54124 -4.15835 0
M  V30 8607 N 789.438 4.59827 -3.23288 0
M  V30 8608 H 781.589 0.956276 -1.89655 0
M  V30 8609 H 783.852 0.48171 -0.816492 0
M  V30 8610 H 783.558 2.27113 -2.68538 0
M  V30 8611 H 783.432 3.4905 -1.42981 0
M  V30 8612 H 785.819 2.87872 -0.649121 0
M  V30 8613 H 785.9 1.66936 -1.93819 0
M  V30 8614 H 785.544 3.51745 -3.66384 0
M  V30 8615 H 785.474 4.71444 -2.34623 0
M  V30 8616 H 787.965 3.18403 -2.03539 0
M  V30 8617 H 788.278 6.15316 -4.67553 0
M  V30 8618 H 786.623 5.53791 -4.19929 0
M  V30 8619 H 789.814 3.898 -2.59179 0
M  V30 8620 H 789.987 5.25208 -3.79553 0
M  V30 8621 N 783.393 0.737304 1.3929 0
M  V30 8622 C 784.618 0.295237 2.05288 0
M  V30 8623 C 785.043 -1.06235 1.55228 0
M  V30 8624 O 784.401 -1.67365 0.697043 0
M  V30 8625 C 784.449 0.309146 3.59272 0
M  V30 8626 O 783.553 -0.702437 4.06374 0
M  V30 8627 H 782.894 0.133762 0.650387 0
M  V30 8628 H 785.424 1.00387 1.78279 0
M  V30 8629 H 785.434 0.154336 4.07708 0
M  V30 8630 H 784.109 1.29974 3.95069 0
M  V30 8631 H 782.686 -0.513574 3.69346 0
M  V30 8632 N 784.871 -1.49948 0.485112 0
M  V30 8633 C 785.818 -2.28819 -0.301729 0
M  V30 8634 C 786.788 -1.34496 -0.974683 0
M  V30 8635 O 787.973 -1.63444 -0.984418 0
M  V30 8636 C 785.113 -3.16758 -1.36961 0
M  V30 8637 C 784.226 -4.26125 -0.710027 0
M  V30 8638 C 783.361 -5.01302 -1.75699 0
M  V30 8639 C 782.4 -6.02525 -1.07841 0
M  V30 8640 N 781.537 -6.70927 -2.06886 0
M  V30 8641 H 786.377 -2.95604 0.377127 0
M  V30 8642 H 783.914 -1.45764 0.197826 0
M  V30 8643 H 785.872 -3.66106 -2.00056 0
M  V30 8644 H 784.502 -2.51991 -2.01744 0
M  V30 8645 H 783.554 -3.80385 0.0338278 0
M  V30 8646 H 784.866 -4.98493 -0.175079 0
M  V30 8647 H 784.02 -5.54438 -2.46339 0
M  V30 8648 H 782.759 -4.28672 -2.32577 0
M  V30 8649 H 781.764 -5.48635 -0.357706 0
M  V30 8650 H 782.989 -6.77134 -0.516345 0
M  V30 8651 H 780.935 -6.01079 -2.62755 0
M  V30 8652 H 780.852 -7.39216 -1.58414 0
M  V30 8653 H 782.12 -7.28675 -2.76863 0
M  V30 8654 N 786.349 -0.21828 -1.56081 0
M  V30 8655 C 787.296 0.693189 -2.20144 0
M  V30 8656 C 788.266 1.19274 -1.15598 0
M  V30 8657 O 789.451 1.25243 -1.4394 0
M  V30 8658 C 786.591 1.89715 -2.88275 0
M  V30 8659 C 785.704 1.4368 -4.07407 0
M  V30 8660 C 784.839 2.59807 -4.63329 0
M  V30 8661 C 783.878 2.10492 -5.74769 0
M  V30 8662 N 783.015 3.1988 -6.24997 0
M  V30 8663 H 787.855 0.14016 -2.9767 0
M  V30 8664 H 785.392 0.0574292 -1.46988 0
M  V30 8665 H 787.35 2.60398 -3.25958 0
M  V30 8666 H 785.98 2.42311 -2.13273 0
M  V30 8667 H 785.032 0.625007 -3.7523 0
M  V30 8668 H 786.344 1.03517 -4.8794 0
M  V30 8669 H 785.498 3.38577 -5.03438 0
M  V30 8670 H 784.237 3.03256 -3.81951 0
M  V30 8671 H 783.242 1.30182 -5.34165 0
M  V30 8672 H 784.467 1.68045 -6.5798 0
M  V30 8673 H 782.413 3.62817 -5.46534 0
M  V30 8674 H 782.33 2.83958 -7.00645 0
M  V30 8675 H 783.598 3.98796 -6.69763 0
M  V30 8676 N 787.827 1.57504 0.0551401 0
M  V30 8677 C 789.057 1.92015 0.762472 0
M  V30 8678 C 789.465 0.814088 1.7079 0
M  V30 8679 O 788.808 -0.220273 1.82375 0
M  V30 8680 C 788.87 3.22132 1.59598 0
M  V30 8681 C 788.534 4.49617 0.818141 0
M  V30 8682 C 789.531 5.19738 0.129933 0
M  V30 8683 C 787.216 4.96201 0.780387 0
M  V30 8684 C 789.21 6.34704 -0.585616 0
M  V30 8685 C 786.897 6.11069 0.0610756 0
M  V30 8686 C 787.895 6.80174 -0.62071 0
M  V30 8687 O 787.583 7.92849 -1.3284 0
M  V30 8688 H 787.315 0.638866 0.220967 0
M  V30 8689 H 789.869 2.05385 0.0246362 0
M  V30 8690 H 788.099 3.05016 2.37701 0
M  V30 8691 H 789.788 3.42166 2.18351 0
M  V30 8692 H 790.554 4.84767 0.150299 0
M  V30 8693 H 786.433 4.42275 1.30054 0
M  V30 8694 H 789.977 6.88578 -1.11833 0
M  V30 8695 H 785.874 6.45488 0.0386945 0
M  V30 8696 H 786.642 8.09062 -1.23938 0
M  V30 8697 N 789.305 -0.326896 1.54172 0
M  V30 8698 C 790.716 -0.901533 1.63491 0
M  V30 8699 C 791.067 -1.88994 0.52684 0
M  V30 8700 O 790.192 -2.137 -0.340794 0
M  V30 8701 C 790.787 -1.64192 2.96355 0
M  V30 8702 C 789.346 -2.16533 3.07881 0
M  V30 8703 C 788.493 -0.98966 2.59039 0
M  V30 8704 H 791.444 -0.104568 1.58355 0
M  V30 8705 H 791.465 -2.50592 2.86328 0
M  V30 8706 H 790.977 -0.922291 3.76982 0
M  V30 8707 H 789.078 -2.91622 2.31922 0
M  V30 8708 H 789.191 -2.41762 4.13628 0
M  V30 8709 H 787.555 -1.36787 2.14852 0
M  V30 8710 H 788.338 -0.284401 3.4212 0
M  V30 8711 N 790.784 -1.46188 -0.588786 0
M  V30 8712 C 791.714 -1.59148 -1.70863 0
M  V30 8713 C 792.695 -0.442083 -1.64255 0
M  V30 8714 O 793.88 -0.667575 -1.82365 0
M  V30 8715 C 791.01 -1.5757 -3.09498 0
M  V30 8716 C 789.964 -2.71418 -3.30932 0
M  V30 8717 C 789.29 -2.549 -4.70032 0
M  V30 8718 C 790.59 -4.1329 -3.19356 0
M  V30 8719 H 792.284 -2.52889 -1.60274 0
M  V30 8720 H 789.83 -1.21707 -0.769638 0
M  V30 8721 H 791.783 -1.65231 -3.87655 0
M  V30 8722 H 790.507 -0.603705 -3.20972 0
M  V30 8723 H 789.166 -2.63216 -2.55172 0
M  V30 8724 H 788.814 -1.55797 -4.78264 0
M  V30 8725 H 788.514 -3.31257 -4.85327 0
M  V30 8726 H 790.038 -2.64443 -5.50366 0
M  V30 8727 H 791.452 -4.22636 -3.87365 0
M  V30 8728 H 789.849 -4.90187 -3.46175 0
M  V30 8729 H 790.919 -4.33874 -2.16522 0
M  V30 8730 N 792.262 0.832906 -1.33792 0
M  V30 8731 C 793.192 1.95828 -1.27176 0
M  V30 8732 C 794.173 1.69427 -0.15114 0
M  V30 8733 O 795.358 1.91167 -0.341886 0
M  V30 8734 C 792.488 3.32098 -1.01629 0
M  V30 8735 C 791.442 3.72912 -2.10049 0
M  V30 8736 C 790.768 5.07054 -1.69706 0
M  V30 8737 C 792.068 3.86064 -3.51783 0
M  V30 8738 H 793.762 2.01622 -2.21334 0
M  V30 8739 H 791.308 0.96866 -1.0655 0
M  V30 8740 H 793.261 4.10402 -0.956474 0
M  V30 8741 H 791.985 3.26577 -0.0390956 0
M  V30 8742 H 790.644 2.96876 -2.15082 0
M  V30 8743 H 790.292 4.9801 -0.706737 0
M  V30 8744 H 789.992 5.35333 -2.42264 0
M  V30 8745 H 791.516 5.87827 -1.65202 0
M  V30 8746 H 792.93 4.54665 -3.49218 0
M  V30 8747 H 791.327 4.25787 -4.22878 0
M  V30 8748 H 792.397 2.88344 -3.89854 0
M  V30 8749 N 793.74 1.17359 1.05189 0
M  V30 8750 C 794.989 0.956412 1.77583 0
M  V30 8751 C 795.302 -0.516018 1.88671 0
M  V30 8752 O 796.508 -0.851401 2.57805 0
M  V30 8753 C 794.964 1.66203 3.19225 0
M  V30 8754 C 794.572 3.17299 3.16267 0
M  V30 8755 C 796.316 1.52725 3.96075 0
M  V30 8756 C 794.223 3.8055 4.52698 0
M  V30 8757 H 793.153 0.354204 0.665624 0
M  V30 8758 H 795.804 1.40612 1.17901 0
M  V30 8759 H 794.186 1.14006 3.79234 0
M  V30 8760 H 795.36 3.76431 2.65776 0
M  V30 8761 H 793.675 3.3079 2.52917 0
M  V30 8762 H 796.272 1.97351 4.96947 0
M  V30 8763 H 796.615 0.477803 4.13549 0
M  V30 8764 H 797.148 2.02139 3.42614 0
M  V30 8765 H 793.887 4.85492 4.4043 0
M  V30 8766 H 793.407 3.26206 5.03339 0
M  V30 8767 H 795.086 3.82757 5.21638 0
M  V30 8768 N 795.218 -1.23913 0.973828 0
M  V30 8769 C 796.15 -2.24397 0.466763 0
M  V30 8770 C 797.163 -1.57078 -0.427828 0
M  V30 8771 O 798.352 -1.76973 -0.233019 0
M  V30 8772 C 795.452 -3.37141 -0.344798 0
M  V30 8773 C 794.625 -4.34037 0.541349 0
M  V30 8774 C 793.684 -5.2576 -0.215243 0
M  V30 8775 O 792.71 -5.67842 0.39291 0
M  V30 8776 N 793.912 -5.60702 -1.5031 0
M  V30 8777 H 796.677 -2.68536 1.33074 0
M  V30 8778 H 794.238 -1.38017 0.846346 0
M  V30 8779 H 796.23 -3.95476 -0.859133 0
M  V30 8780 H 794.8 -2.92239 -1.10974 0
M  V30 8781 H 794.02 -3.74302 1.23659 0
M  V30 8782 H 795.308 -4.95738 1.1455 0
M  V30 8783 H 794.706 -5.28451 -2.01882 0
M  V30 8784 H 793.263 -6.21538 -1.96301 0
M  V30 8785 N 796.696 -0.74468 -1.38897 0
M  V30 8786 C 797.942 -0.297324 -2.00609 0
M  V30 8787 C 798.275 1.11547 -1.58968 0
M  V30 8788 O 797.55 1.76227 -0.823057 0
M  V30 8789 C 797.833 -0.410125 -3.57757 0
M  V30 8790 C 797.686 -1.86338 -4.09387 0
M  V30 8791 C 799.005 0.20176 -4.39637 0
M  V30 8792 H 796.124 -0.109509 -0.728819 0
M  V30 8793 H 798.766 -0.942653 -1.64967 0
M  V30 8794 H 796.916 0.139287 -3.8825 0
M  V30 8795 H 798.588 -2.47042 -3.89574 0
M  V30 8796 H 796.831 -2.38146 -3.62586 0
M  V30 8797 H 797.502 -1.89352 -5.18507 0
M  V30 8798 H 799.978 -0.266703 -4.15244 0
M  V30 8799 H 798.854 0.0925415 -5.48822 0
M  V30 8800 H 799.115 1.289 -4.22891 0
M  V30 8801 N 798.174 1.49689 -0.493057 0
M  V30 8802 C 799.404 2.06536 0.0512397 0
M  V30 8803 C 799.812 1.35459 1.32089 0
M  V30 8804 O 799.155 0.424145 1.78736 0
M  V30 8805 C 799.217 3.57452 0.383231 0
M  V30 8806 C 798.881 4.50163 -0.787555 0
M  V30 8807 C 799.878 4.92151 -1.67582 0
M  V30 8808 C 797.563 4.92565 -0.984109 0
M  V30 8809 C 799.557 5.7527 -2.74487 0
M  V30 8810 C 797.244 5.75463 -2.05634 0
M  V30 8811 C 798.242 6.16719 -2.93507 0
M  V30 8812 O 797.93 6.97961 -3.98881 0
M  V30 8813 H 797.662 0.675862 -0.0136516 0
M  V30 8814 H 800.216 1.9356 -0.687298 0
M  V30 8815 H 798.446 3.68408 1.17526 0
M  V30 8816 H 800.135 3.96572 0.8652 0
M  V30 8817 H 800.901 4.60043 -1.53575 0
M  V30 8818 H 796.78 4.5996 -0.309541 0
M  V30 8819 H 800.324 6.07392 -3.43104 0
M  V30 8820 H 796.221 6.06983 -2.19639 0
M  V30 8821 H 796.989 7.16253 -3.96137 0
M  V30 8822 N 799.652 0.226554 1.55963 0
M  V30 8823 C 800.9 -0.402991 1.98041 0
M  V30 8824 C 801.221 -1.59938 1.11557 0
M  V30 8825 O 800.491 -1.9494 0.193719 0
M  V30 8826 H 799.071 -0.15188 0.731397 0
M  V30 8827 H 801.733 0.320613 1.92245 0
M  V30 8828 H 800.829 -0.725937 3.0354 0
M  V30 8829 N 801.13 -1.57531 -0.0467866 0
M  V30 8830 C 802.378 -1.88078 -0.739656 0
M  V30 8831 C 802.699 -0.821936 -1.76831 0
M  V30 8832 O 801.969 0.146582 -1.95351 0
M  V30 8833 H 800.549 -0.694075 -0.276169 0
M  V30 8834 H 803.211 -1.94893 -0.0169391 0
M  V30 8835 H 802.307 -2.86396 -1.24031 0
M  V30 8836 N 802.608 0.318715 -1.54344 0
M  V30 8837 C 804.019 0.89285 -1.63967 0
M  V30 8838 C 804.37 1.88712 -0.536855 0
M  V30 8839 O 803.495 2.13877 0.329457 0
M  V30 8840 C 804.09 1.62618 -2.97222 0
M  V30 8841 C 802.649 2.14897 -3.09025 0
M  V30 8842 C 801.796 0.975909 -2.5956 0
M  V30 8843 H 804.747 0.0961687 -1.58408 0
M  V30 8844 H 804.768 2.4907 -2.87653 0
M  V30 8845 H 804.28 0.902286 -3.77466 0
M  V30 8846 H 802.381 2.90387 -2.33465 0
M  V30 8847 H 802.494 2.39565 -4.14904 0
M  V30 8848 H 800.858 1.35646 -2.15574 0
M  V30 8849 H 801.641 0.266253 -3.42266 0
M  V30 8850 N 804.086 1.46499 0.581025 0
M  V30 8851 C 805.326 1.53456 1.35021 0
M  V30 8852 C 805.69 0.182542 1.9113 0
M  V30 8853 O 806.891 0.126874 2.685 0
M  V30 8854 C 805.162 2.60387 2.44812 0
M  V30 8855 S 806.721 2.86762 3.32134 0
M  V30 8856 H 803.539 0.54216 0.459982 0
M  V30 8857 H 806.141 1.83742 0.667754 0
M  V30 8858 H 804.845 3.57253 2.01986 0
M  V30 8859 H 804.376 2.31839 3.17828 0
M  V30 8860 H 806.391 2.2216 4.43688 0
M  V30 8861 N 805.565 -0.825799 1.34232 0
M  V30 8862 C 806.79 -1.61883 1.29648 0
M  V30 8863 C 807.215 -1.87669 -0.127295 0
M  V30 8864 O 806.573 -1.45016 -1.08813 0
M  V30 8865 C 806.621 -2.93846 2.09014 0
M  V30 8866 O 805.725 -3.85778 1.4577 0
M  V30 8867 H 805.066 -0.492454 0.445405 0
M  V30 8868 H 807.596 -1.02641 1.76992 0
M  V30 8869 H 807.606 -3.43435 2.20264 0
M  V30 8870 H 806.281 -2.74401 3.12533 0
M  V30 8871 H 804.858 -3.4429 1.43245 0
M  V30 8872 N 807.043 -1.17915 -1.04565 0
M  V30 8873 C 807.975 -0.859359 -2.1248 0
M  V30 8874 C 808.988 0.140922 -1.62189 0
M  V30 8875 O 810.177 -0.0862361 -1.78292 0
M  V30 8876 C 807.277 -0.261811 -3.37887 0
M  V30 8877 C 806.45 -1.30651 -4.17431 0
M  V30 8878 C 805.509 -0.725575 -5.21174 0
M  V30 8879 O 804.535 -1.39901 -5.51739 0
M  V30 8880 N 805.737 0.479351 -5.78517 0
M  V30 8881 H 808.502 -1.78818 -2.40508 0
M  V30 8882 H 806.063 -1.07885 -1.20716 0
M  V30 8883 H 808.055 0.14028 -4.04457 0
M  V30 8884 H 806.625 0.570929 -3.07342 0
M  V30 8885 H 805.845 -1.88412 -3.46258 0
M  V30 8886 H 807.133 -2.01099 -4.67372 0
M  V30 8887 H 806.531 1.04431 -5.55977 0
M  V30 8888 H 805.088 0.823427 -6.46578 0
M  V30 8889 N 808.521 1.23394 -0.980386 0
M  V30 8890 C 809.746 1.96384 -0.666935 0
M  V30 8891 C 810.171 1.72087 0.759456 0
M  V30 8892 O 809.529 0.992328 1.51732 0
M  V30 8893 C 809.577 3.47499 -0.963177 0
M  V30 8894 O 808.681 4.12363 -0.0552051 0
M  V30 8895 H 808.022 0.614797 -0.250839 0
M  V30 8896 H 810.552 1.56831 -1.31398 0
M  V30 8897 H 810.562 3.97953 -0.899877 0
M  V30 8898 H 809.237 3.6451 -2.00264 0
M  V30 8899 H 807.814 3.72499 -0.172914 0
M  V30 8900 N 809.999 0.752036 1.385 0
M  V30 8901 C 811.245 0.307958 2.00448 0
M  V30 8902 C 811.578 -1.10702 1.59558 0
M  V30 8903 O 810.853 -1.75788 0.832391 0
M  V30 8904 C 811.136 0.429092 3.57534 0
M  V30 8905 C 810.989 1.88507 4.08393 0
M  V30 8906 C 812.308 -0.178442 4.39738 0
M  V30 8907 H 809.427 0.113373 0.728228 0
M  V30 8908 H 812.069 0.951389 1.64465 0
M  V30 8909 H 810.219 -0.118695 3.88319 0
M  V30 8910 H 811.891 2.49104 3.88259 0
M  V30 8911 H 810.134 2.40066 3.61318 0
M  V30 8912 H 810.805 1.92099 5.17496 0
M  V30 8913 H 813.281 0.28872 4.15097 0
M  V30 8914 H 812.157 -0.0634349 5.48863 0
M  V30 8915 H 812.418 -1.26655 4.23569 0
M  V30 8916 N 811.477 -1.49425 0.500989 0
M  V30 8917 C 812.893 -1.58826 0.156951 0
M  V30 8918 C 813.093 -1.50622 -1.33848 0
M  V30 8919 O 812.149 -1.38016 -2.11442 0
M  V30 8920 C 813.462 -2.91611 0.73374 0
M  V30 8921 C 815.01 -3.05076 0.699846 0
M  V30 8922 C 815.485 -4.40479 1.2547 0
M  V30 8923 N 816.976 -4.4697 1.2154 0
M  V30 8924 C 817.711 -5.50189 1.6149 0
M  V30 8925 N 817.207 -6.60512 2.09034 0
M  V30 8926 N 819 -5.40903 1.52907 0
M  V30 8927 H 811.151 -1.53001 1.47324 0
M  V30 8928 H 813.414 -0.724765 0.61108 0
M  V30 8929 H 813.12 -3.03182 1.78251 0
M  V30 8930 H 812.994 -3.767 0.19417 0
M  V30 8931 H 815.381 -2.93134 -0.340085 0
M  V30 8932 H 815.462 -2.2167 1.27656 0
M  V30 8933 H 815.106 -4.53172 2.29341 0
M  V30 8934 H 815.036 -5.22524 0.653921 0
M  V30 8935 H 817.527 -3.67819 0.867043 0
M  V30 8936 H 817.84 -7.35372 2.37588 0
M  V30 8937 H 816.185 -6.61553 2.13008 0
M  V30 8938 H 819.376 -4.53606 1.15583 0
M  V30 8939 H 819.549 -6.21219 1.84365 0
M  V30 8940 N 812.955 -0.234822 -1.55841 0
M  V30 8941 C 814.18 0.400741 -2.03492 0
M  V30 8942 C 814.605 1.51618 -1.11327 0
M  V30 8943 O 813.963 1.81002 -0.103922 0
M  V30 8944 C 814.011 0.897184 -3.49261 0
M  V30 8945 O 813.115 2.00764 -3.60233 0
M  V30 8946 H 812.456 0.0890023 -0.658008 0
M  V30 8947 H 814.986 -0.357345 -2.01455 0
M  V30 8948 H 814.996 1.20356 -3.89844 0
M  V30 8949 H 813.671 0.0808639 -4.15821 0
M  V30 8950 H 812.248 1.70689 -3.31541 0
M  V30 8951 N 814.433 1.57553 0.0384317 0
M  V30 8952 C 815.679 1.89121 0.732199 0
M  V30 8953 C 816.012 0.831404 1.75503 0
M  V30 8954 O 815.287 -0.154642 1.93884 0
M  V30 8955 C 815.57 3.31338 1.41021 0
M  V30 8956 C 815.423 4.48004 0.401532 0
M  V30 8957 C 816.742 3.72318 2.34665 0
M  V30 8958 H 813.861 0.687819 0.264715 0
M  V30 8959 H 816.503 1.89999 -0.00496279 0
M  V30 8960 H 814.653 3.3072 2.03854 0
M  V30 8961 H 816.325 4.60755 -0.224159 0
M  V30 8962 H 814.568 4.32895 -0.280092 0
M  V30 8963 H 815.239 5.44377 0.91423 0
M  V30 8964 H 817.715 3.74243 1.81883 0
M  V30 8965 H 816.591 4.72652 2.7909 0
M  V30 8966 H 816.852 3.04062 3.20934 0
M  V30 8967 N 815.911 -0.310526 1.54511 0
M  V30 8968 C 817.158 -1.04691 1.73338 0
M  V30 8969 C 817.486 -1.87584 0.514038 0
M  V30 8970 O 816.741 -1.89096 -0.504119 0
M  V30 8971 C 817.04 -1.98942 2.96912 0
M  V30 8972 C 816.706 -1.321 4.31115 0
M  V30 8973 C 815.368 -1.13603 4.67598 0
M  V30 8974 C 817.72 -0.842362 5.14348 0
M  V30 8975 C 815.048 -0.459102 5.84901 0
M  V30 8976 C 817.4 -0.179202 6.32346 0
M  V30 8977 C 816.064 0.0178111 6.67498 0
M  V30 8978 H 815.334 -0.38309 0.634289 0
M  V30 8979 H 817.981 -0.322723 1.88761 0
M  V30 8980 H 816.286 -2.77856 2.76231 0
M  V30 8981 H 817.983 -2.55972 3.08674 0
M  V30 8982 H 814.573 -1.47502 4.02419 0
M  V30 8983 H 818.757 -0.973013 4.86668 0
M  V30 8984 H 814.013 -0.295385 6.10686 0
M  V30 8985 H 818.187 0.199619 6.96114 0
M  V30 8986 H 815.814 0.544356 7.58249 0
M  V30 8987 N 817.389 -1.46805 -0.573248 0
M  V30 8988 C 818.352 -1.57655 -1.66366 0
M  V30 8989 C 819.352 -0.452905 -1.5429 0
M  V30 8990 O 820.542 -0.717502 -1.58737 0
M  V30 8991 C 817.674 -1.50584 -3.05839 0
M  V30 8992 H 818.867 -2.54842 -1.581 0
M  V30 8993 H 816.42 -1.34756 -0.791868 0
M  V30 8994 H 817.155 -0.547127 -3.19651 0
M  V30 8995 H 816.94 -2.32118 -3.16012 0
M  V30 8996 H 818.43 -1.61282 -3.85199 0
M  V30 8997 N 818.867 0.818669 -1.34668 0
M  V30 8998 C 820.113 1.57746 -1.27453 0
M  V30 8999 C 820.446 1.93588 0.154077 0
M  V30 9000 O 819.721 1.60371 1.10051 0
M  V30 9001 C 820.004 2.87414 -2.16945 0
M  V30 9002 C 819.857 2.58125 -3.68363 0
M  V30 9003 C 821.176 3.89021 -2.05792 0
M  V30 9004 H 818.295 0.572339 -0.464324 0
M  V30 9005 H 820.937 0.942784 -1.64959 0
M  V30 9006 H 819.087 3.41576 -1.85089 0
M  V30 9007 H 820.759 2.10239 -4.10606 0
M  V30 9008 H 819.002 1.91503 -3.89242 0
M  V30 9009 H 819.673 3.5061 -4.26353 0
M  V30 9010 H 822.149 3.44224 -2.33771 0
M  V30 9011 H 821.025 4.77548 -2.70628 0
M  V30 9012 H 821.286 4.29786 -1.03618 0
M  V30 9013 N 820.346 1.18468 1.03938 0
M  V30 9014 C 821.294 0.909286 2.14091 0
M  V30 9015 C 822.288 -0.130928 1.68893 0
M  V30 9016 O 823.494 0.0173403 1.79992 0
M  V30 9017 H 819.869 0.27658 0.699291 0
M  V30 9018 H 821.84 1.84514 2.34515 0
M  V30 9019 C 820.589 0.452922 3.44737 0
M  V30 9020 H 819.912 1.24485 3.79926 0
M  V30 9021 H 821.352 0.299238 4.22943 0
M  V30 9022 C 819.811 -0.831435 3.26479 0
M  V30 9023 O 820.341 -1.89535 3.54174 0
M  V30 9024 N 818.547 -0.784545 2.79809 0
M  V30 9025 H 818.094 0.0814746 2.57471 0
M  V30 9026 H 818.052 -1.64431 2.67973 0
M  V30 9027 N 821.824 -1.22873 0.986916 0
M  V30 9028 C 823.07 -1.92047 0.670042 0
M  V30 9029 C 823.425 -1.75497 -0.788587 0
M  V30 9030 O 822.718 -1.10934 -1.56218 0
M  V30 9031 C 822.912 -3.43014 1.00379 0
M  V30 9032 C 822.741 -3.74251 2.49332 0
M  V30 9033 C 821.511 -3.94589 3.15638 0
M  V30 9034 C 823.709 -3.79208 3.47428 0
M  V30 9035 N 821.691 -4.13086 4.54129 0
M  V30 9036 C 823.062 -4.02775 4.71352 0
M  V30 9037 C 825.117 -3.62029 3.41818 0
M  V30 9038 C 823.82 -4.10946 5.90352 0
M  V30 9039 C 825.846 -3.71457 4.60189 0
M  V30 9040 C 825.208 -3.95468 5.82911 0
M  V30 9041 H 821.307 -0.723668 0.29636 0
M  V30 9042 H 823.891 -1.47946 1.26571 0
M  V30 9043 H 822.062 -3.85936 0.436762 0
M  V30 9044 H 823.794 -3.99551 0.643522 0
M  V30 9045 H 820.549 -3.91762 2.66119 0
M  V30 9046 H 820.973 -4.26275 5.25945 0
M  V30 9047 H 825.615 -3.42457 2.47958 0
M  V30 9048 H 823.333 -4.29324 6.84621 0
M  V30 9049 H 826.919 -3.59511 4.57431 0
M  V30 9050 H 825.799 -4.02584 6.72975 0
M  V30 9051 N 823.302 -0.75937 -1.38099 0
M  V30 9052 C 824.551 -0.314864 -1.99227 0
M  V30 9053 C 824.864 1.1113 -1.60964 0
M  V30 9054 O 826.07 1.65657 -2.15105 0
M  V30 9055 C 824.526 -0.512001 -3.56239 0
M  V30 9056 C 824.134 -1.94762 -4.0345 0
M  V30 9057 C 825.878 -0.130497 -4.24299 0
M  V30 9058 C 823.785 -2.09301 -5.53125 0
M  V30 9059 H 822.715 -0.113978 -0.745335 0
M  V30 9060 H 825.366 -0.936736 -1.57789 0
M  V30 9061 H 823.748 0.179144 -3.95595 0
M  V30 9062 H 824.922 -2.67271 -3.75371 0
M  V30 9063 H 823.237 -2.28457 -3.48133 0
M  V30 9064 H 825.834 -0.21781 -5.34256 0
M  V30 9065 H 826.177 0.917644 -4.0606 0
M  V30 9066 H 826.71 -0.773716 -3.90203 0
M  V30 9067 H 823.449 -3.1239 -5.76275 0
M  V30 9068 H 822.969 -1.41261 -5.82928 0
M  V30 9069 H 824.648 -1.88571 -6.1891 0
M  V30 9070 N 824.78 1.49157 -0.508906 0
M  V30 9071 C 826.005 2.07376 0.0315182 0
M  V30 9072 C 826.43 1.36575 1.2934 0
M  V30 9073 O 825.788 0.424963 1.76249 0
M  V30 9074 C 825.836 3.59661 0.260118 0
M  V30 9075 O 824.94 3.90255 1.33322 0
M  V30 9076 H 824.281 0.663334 -0.029739 0
M  V30 9077 H 826.811 1.91857 -0.710791 0
M  V30 9078 H 826.821 4.05056 0.489225 0
M  V30 9079 H 825.496 4.10601 -0.661794 0
M  V30 9080 H 824.073 3.56661 1.08844 0
M  V30 9081 N 826.258 0.243083 1.55714 0
M  V30 9082 C 827.488 -0.38641 2.02954 0
M  V30 9083 C 827.896 -1.52358 1.12177 0
M  V30 9084 O 827.239 -1.83255 0.127853 0
M  V30 9085 C 827.301 -0.959388 3.46462 0
M  V30 9086 C 826.965 0.0450546 4.56978 0
M  V30 9087 C 827.962 0.853224 5.12851 0
M  V30 9088 C 825.647 0.170041 5.02012 0
M  V30 9089 C 827.641 1.77288 6.12248 0
M  V30 9090 C 825.328 1.0932 6.01242 0
M  V30 9091 C 826.326 1.89315 6.56238 0
M  V30 9092 O 826.014 2.80075 7.53534 0
M  V30 9093 H 825.746 -0.0964333 0.669086 0
M  V30 9094 H 828.3 0.363399 2.0216 0
M  V30 9095 H 826.53 -1.75869 3.44394 0
M  V30 9096 H 828.219 -1.49856 3.77224 0
M  V30 9097 H 828.985 0.767229 4.78893 0
M  V30 9098 H 824.864 -0.442528 4.58871 0
M  V30 9099 H 828.408 2.39768 6.55101 0
M  V30 9100 H 824.305 1.18013 6.3462 0
M  V30 9101 H 825.073 2.74393 7.71136 0
M  V30 9102 N 827.736 -1.57571 -0.0300757 0
M  V30 9103 C 828.666 -2.0953 -1.03051 0
M  V30 9104 C 829.647 -0.99761 -1.37774 0
M  V30 9105 O 830.832 -1.27279 -1.46676 0
M  V30 9106 C 827.962 -2.57385 -2.33174 0
M  V30 9107 C 826.916 -3.71409 -2.12696 0
M  V30 9108 C 826.242 -4.05467 -3.4857 0
M  V30 9109 C 827.542 -4.99877 -1.51396 0
M  V30 9110 H 829.236 -2.93367 -0.597999 0
M  V30 9111 H 826.782 -1.41127 -0.286203 0
M  V30 9112 H 828.735 -2.92355 -3.03491 0
M  V30 9113 H 827.459 -1.70629 -2.78484 0
M  V30 9114 H 826.118 -3.36786 -1.44813 0
M  V30 9115 H 825.766 -3.15779 -3.91526 0
M  V30 9116 H 825.466 -4.82269 -3.35694 0
M  V30 9117 H 826.99 -4.4297 -4.2025 0
M  V30 9118 H 828.404 -5.3281 -2.11629 0
M  V30 9119 H 826.801 -5.81283 -1.49098 0
M  V30 9120 H 827.871 -4.82522 -0.479676 0
M  V30 9121 N 829.214 0.302327 -1.54673 0
M  V30 9122 C 830.177 1.35592 -1.8479 0
M  V30 9123 C 831.177 1.43743 -0.72073 0
M  V30 9124 O 832.367 1.43402 -0.989017 0
M  V30 9125 C 829.499 2.74091 -2.02699 0
M  V30 9126 H 830.692 1.10132 -2.78946 0
M  V30 9127 H 828.245 0.538926 -1.46715 0
M  V30 9128 H 828.98 3.04775 -1.10826 0
M  V30 9129 H 828.765 2.69565 -2.8474 0
M  V30 9130 H 830.255 3.50272 -2.27374 0
M  V30 9131 N 830.692 1.47107 0.565454 0
M  V30 9132 C 831.917 1.57153 1.35343 0
M  V30 9133 C 832.342 0.219247 1.86818 0
M  V30 9134 O 831.7 -0.803539 1.62521 0
M  V30 9135 C 831.748 2.59387 2.50501 0
M  V30 9136 O 830.852 2.14086 3.52478 0
M  V30 9137 H 830.193 0.528209 0.402357 0
M  V30 9138 H 832.723 1.92821 0.684189 0
M  V30 9139 H 832.733 2.79546 2.97184 0
M  V30 9140 H 831.408 3.57579 2.12391 0
M  V30 9141 H 829.985 2.03991 3.12157 0
M  V30 9142 N 832.17 -0.811516 1.35101 0
M  V30 9143 C 833.117 -1.92308 1.27617 0
M  V30 9144 C 834.087 -1.6543 0.149091 0
M  V30 9145 O 835.272 -1.8789 0.331974 0
M  V30 9146 C 832.412 -3.28768 1.04908 0
M  V30 9147 C 831.525 -3.67865 2.26493 0
M  V30 9148 C 830.66 -4.9333 1.96974 0
M  V30 9149 C 829.699 -5.25041 3.1464 0
M  V30 9150 N 828.836 -6.41685 2.84929 0
M  V30 9151 H 833.676 -1.98041 2.22674 0
M  V30 9152 H 831.213 -0.968755 1.10696 0
M  V30 9153 H 833.171 -4.07426 0.897749 0
M  V30 9154 H 831.801 -3.22517 0.135151 0
M  V30 9155 H 830.853 -2.84507 2.52507 0
M  V30 9156 H 832.165 -3.87263 3.14371 0
M  V30 9157 H 831.319 -5.79803 1.78643 0
M  V30 9158 H 830.058 -4.75958 1.06374 0
M  V30 9159 H 829.063 -4.3706 3.33554 0
M  V30 9160 H 830.288 -5.44346 4.06035 0
M  V30 9161 H 828.234 -6.25747 1.96918 0
M  V30 9162 H 828.151 -6.6131 3.66341 0
M  V30 9163 H 829.419 -7.31198 2.70128 0
M  V30 9164 N 833.648 -1.19017 -1.03309 0
M  V30 9165 C 834.558 -0.939303 -2.14975 0
M  V30 9166 C 835.574 0.0992359 -1.73717 0
M  V30 9167 O 836.75 -0.0844362 -2.01223 0
M  V30 9168 C 833.815 -0.476712 -3.43407 0
M  V30 9169 C 832.876 -1.58413 -3.99003 0
M  V30 9170 C 832.109 -1.14352 -5.21305 0
M  V30 9171 O 832.332 -0.00534408 -5.704 0
M  V30 9172 O 831.266 -1.94436 -5.6963 0
M  V30 9173 H 835.092 -1.87386 -2.38998 0
M  V30 9174 H 832.677 -0.972635 -1.13403 0
M  V30 9175 H 834.559 -0.22718 -4.20787 0
M  V30 9176 H 833.234 0.429455 -3.20839 0
M  V30 9177 H 832.141 -1.88777 -3.22977 0
M  V30 9178 H 833.474 -2.4667 -4.25928 0
M  V30 9179 N 835.127 1.22348 -0.993418 0
M  V30 9180 C 836.375 1.90733 -0.668246 0
M  V30 9181 C 836.696 1.77732 0.802261 0
M  V30 9182 O 835.966 1.16486 1.57505 0
M  V30 9183 H 834.546 0.705966 -0.244174 0
M  V30 9184 H 837.208 1.48691 -1.26004 0
M  V30 9185 H 836.304 2.97883 -0.931239 0
M  V30 9186 N 836.605 0.766683 1.37694 0
M  V30 9187 C 837.538 0.0959288 2.27998 0
M  V30 9188 C 838.516 -0.714493 1.46061 0
M  V30 9189 O 839.7 -0.690337 1.75404 0
M  V30 9190 C 836.827 -0.87057 3.27321 0
M  V30 9191 C 835.873 -0.144771 4.26254 0
M  V30 9192 S 836.706 1.16365 5.22704 0
M  V30 9193 C 837.862 0.200564 6.25579 0
M  V30 9194 H 838.095 0.861666 2.84539 0
M  V30 9195 H 835.628 0.559845 1.43893 0
M  V30 9196 H 837.586 -1.42282 3.85053 0
M  V30 9197 H 836.247 -1.60938 2.69737 0
M  V30 9198 H 835.44 -0.877259 4.96307 0
M  V30 9199 H 835.042 0.33633 3.72485 0
M  V30 9200 H 837.334 -0.628833 6.74575 0
M  V30 9201 H 838.277 0.869117 7.02746 0
M  V30 9202 H 838.685 -0.185972 5.64194 0
M  V30 9203 N 838.083 -1.48885 0.516809 0
M  V30 9204 C 839.329 -2.02788 -0.0220928 0
M  V30 9205 C 839.662 -1.39433 -1.35175 0
M  V30 9206 O 838.937 -0.535459 -1.86984 0
M  V30 9207 C 839.22 -3.59753 -0.158012 0
M  V30 9208 C 839.073 -4.33611 1.19588 0
M  V30 9209 C 840.392 -4.30984 -0.891133 0
M  V30 9210 H 837.511 -0.736971 -0.00655488 0
M  V30 9211 H 840.153 -1.77746 0.671287 0
M  V30 9212 H 838.303 -3.8122 -0.748568 0
M  V30 9213 H 839.975 -4.23598 1.82653 0
M  V30 9214 H 838.218 -3.95547 1.78116 0
M  V30 9215 H 838.889 -5.41846 1.05391 0
M  V30 9216 H 841.365 -4.14267 -0.39012 0
M  V30 9217 H 840.241 -5.40527 -0.955107 0
M  V30 9218 H 840.502 -3.97336 -1.93847 0
M  V30 9219 N 839.561 -0.251338 -1.55583 0
M  V30 9220 C 840.81 0.372681 -1.98227 0
M  V30 9221 C 841.123 1.58743 -1.1428 0
M  V30 9222 O 842.329 2.28289 -1.46957 0
M  V30 9223 C 840.785 0.714439 -3.52738 0
M  V30 9224 C 840.393 -0.479168 -4.4543 0
M  V30 9225 C 842.137 1.3024 -4.04027 0
M  V30 9226 C 840.044 -0.113318 -5.91291 0
M  V30 9227 H 838.974 0.14302 -0.740312 0
M  V30 9228 H 841.625 -0.352253 -1.80087 0
M  V30 9229 H 840.007 1.49762 -3.66589 0
M  V30 9230 H 841.181 -1.25644 -4.4334 0
M  V30 9231 H 839.496 -0.982359 -4.04646 0
M  V30 9232 H 842.093 1.58953 -5.10527 0
M  V30 9233 H 842.436 2.22837 -3.51638 0
M  V30 9234 H 842.969 0.582024 -3.93519 0
M  V30 9235 H 839.708 -1.00654 -6.47726 0
M  V30 9236 H 839.228 0.627666 -5.96507 0
M  V30 9237 H 840.907 0.30293 -6.4629 0
M  V30 9238 N 841.039 1.57585 0.0217189 0
M  V30 9239 C 842.002 2.06004 1.00474 0
M  V30 9240 C 843.002 0.965461 1.2859 0
M  V30 9241 O 844.192 1.22884 1.23471 0
M  V30 9242 C 841.324 2.48319 2.33561 0
M  V30 9243 H 842.517 2.94112 0.586346 0
M  V30 9244 H 840.07 1.53973 0.268716 0
M  V30 9245 H 840.805 1.63389 2.80133 0
M  V30 9246 H 840.59 3.28239 2.1448 0
M  V30 9247 H 842.08 2.86181 3.04122 0
M  V30 9248 N 842.517 -0.29412 1.54831 0
M  V30 9249 C 843.447 -1.36757 1.89261 0
M  V30 9250 C 844.428 -1.52564 0.752214 0
M  V30 9251 O 845.613 -1.65958 1.00855 0
M  V30 9252 C 842.743 -2.73066 2.14597 0
M  V30 9253 C 841.697 -2.72017 3.3044 0
M  V30 9254 C 841.023 -4.11679 3.4121 0
M  V30 9255 C 842.323 -2.33149 4.67375 0
M  V30 9256 H 844.017 -1.08191 2.79169 0
M  V30 9257 H 841.563 -0.519014 1.34321 0
M  V30 9258 H 843.516 -3.48255 2.37269 0
M  V30 9259 H 842.24 -3.03172 1.21467 0
M  V30 9260 H 840.899 -1.99285 3.07703 0
M  V30 9261 H 840.547 -4.38973 2.45584 0
M  V30 9262 H 840.247 -4.11877 4.19084 0
M  V30 9263 H 841.771 -4.88637 3.6615 0
M  V30 9264 H 843.185 -2.98054 4.89731 0
M  V30 9265 H 841.582 -2.44546 5.48012 0
M  V30 9266 H 842.652 -1.28275 4.67626 0
M  V30 9267 N 843.995 -1.47404 -0.557645 0
M  V30 9268 C 845.241 -1.54235 -1.31679 0
M  V30 9269 C 845.574 -0.203782 -1.93128 0
M  V30 9270 O 844.849 0.787536 -1.77843 0
M  V30 9271 C 845.132 -2.66003 -2.42723 0
M  V30 9272 C 844.985 -4.09475 -1.86145 0
M  V30 9273 C 846.304 -2.73685 -3.44652 0
M  V30 9274 H 843.423 -0.561466 -0.477415 0
M  V30 9275 H 846.065 -1.79459 -0.624067 0
M  V30 9276 H 844.215 -2.44627 -3.01811 0
M  V30 9277 H 845.887 -4.42213 -1.31321 0
M  V30 9278 H 844.13 -4.17774 -1.16823 0
M  V30 9279 H 844.801 -4.83451 -2.66418 0
M  V30 9280 H 847.277 -2.92968 -2.95481 0
M  V30 9281 H 846.153 -3.53665 -4.19777 0
M  V30 9282 H 846.414 -1.80726 -4.03473 0
M  V30 9283 N 845.473 0.80434 -1.35529 0
M  V30 9284 C 846.75 1.5486 -1.1949 0
M  V30 9285 C 847.13 2.09897 0.22506 0
M  V30 9286 O 846.478 1.92643 1.22886 0
M  V30 9287 C 846.688 2.65535 -2.26478 0
M  V30 9288 C 848.036 3.33814 -2.62399 0
M  V30 9289 O 849.06 2.75807 -2.25409 0
M  V30 9290 O 847.919 4.38612 -3.26009 0
M  V30 9291 H 845.013 0.68433 -0.464351 0
M  V30 9292 H 847.559 0.844107 -1.47217 0
M  V30 9293 H 846.331 2.22754 -3.21709 0
M  V30 9294 H 845.954 3.43617 -2.00033 0
M  V30 9295 N 846.951 1.19563 1.02676 0
M  V30 9296 C 848.199 0.997593 1.75763 0
M  V30 9297 C 848.52 -0.47253 1.89188 0
M  V30 9298 O 847.79 -1.34214 1.42701 0
M  V30 9299 H 846.37 0.366128 0.651122 0
M  V30 9300 H 849.032 1.50495 1.23844 0
M  V30 9301 H 848.128 1.44741 2.76508 0
M  V30 9302 N 848.429 -1.21819 0.999893 0
M  V30 9303 C 849.845 -1.42847 0.711824 0
M  V30 9304 C 850.045 -1.88391 -0.714928 0
M  V30 9305 O 849.101 -2.0422 -1.48494 0
M  V30 9306 C 850.414 -2.46417 1.72334 0
M  V30 9307 C 851.962 -2.60207 1.73958 0
M  V30 9308 C 852.437 -3.67005 2.73992 0
M  V30 9309 N 853.928 -3.7447 2.72628 0
M  V30 9310 C 854.663 -4.56718 3.46693 0
M  V30 9311 N 854.159 -5.42904 4.3038 0
M  V30 9312 N 855.952 -4.51094 3.35366 0
M  V30 9313 H 848.103 -0.905656 1.92124 0
M  V30 9314 H 850.366 -0.459893 0.828977 0
M  V30 9315 H 850.072 -2.19914 2.74465 0
M  V30 9316 H 849.946 -3.45137 1.52186 0
M  V30 9317 H 852.333 -2.8605 0.725217 0
M  V30 9318 H 852.414 -1.61739 1.98177 0
M  V30 9319 H 852.058 -3.41908 3.75582 0
M  V30 9320 H 851.988 -4.65058 2.4704 0
M  V30 9321 H 854.479 -3.12895 2.11909 0
M  V30 9322 H 854.792 -6.02704 4.83702 0
M  V30 9323 H 853.137 -5.42463 4.34464 0
M  V30 9324 H 856.328 -3.82791 2.69423 0
M  V30 9325 H 856.501 -5.1496 3.93344 0
M  V30 9326 N 849.908 -0.773975 -1.37286 0
M  V30 9327 C 851.156 -0.338636 -1.99243 0
M  V30 9328 C 851.477 1.08919 -1.61746 0
M  V30 9329 O 850.747 1.74822 -0.88397 0
M  V30 9330 H 849.327 -0.12222 -0.736934 0
M  V30 9331 H 851.989 -0.992595 -1.67731 0
M  V30 9332 H 851.085 -0.418055 -3.09287 0
M  V30 9333 N 851.386 1.48609 -0.524698 0
M  V30 9334 C 852.614 2.06899 0.00742946 0
M  V30 9335 C 853.029 1.38196 1.28637 0
M  V30 9336 O 852.386 0.467771 1.76403 0
M  V30 9337 C 852.437 3.60699 0.240548 0
M  V30 9338 O 852.158 4.26821 -0.987715 0
M  V30 9339 C 853.659 4.35769 0.813652 0
M  V30 9340 H 850.879 0.670278 -0.0311294 0
M  V30 9341 H 853.423 1.91071 -0.728832 0
M  V30 9342 H 851.578 3.76149 0.926845 0
M  V30 9343 H 851.992 5.18889 -0.765175 0
M  V30 9344 H 853.466 5.44174 0.926219 0
M  V30 9345 H 853.943 3.9984 1.81728 0
M  V30 9346 H 854.549 4.24983 0.164086 0
M  V30 9347 N 852.864 0.259585 1.55447 0
M  V30 9348 C 853.827 -0.621359 2.20617 0
M  V30 9349 C 854.827 -1.09317 1.17925 0
M  V30 9350 O 856.017 -0.995842 1.42929 0
M  V30 9351 C 853.149 -1.85546 2.85982 0
M  V30 9352 H 854.342 -0.0525833 2.99854 0
M  V30 9353 H 851.895 0.0101055 1.56297 0
M  V30 9354 H 852.63 -2.46515 2.10715 0
M  V30 9355 H 852.415 -1.52523 3.61219 0
M  V30 9356 H 853.905 -2.48227 3.35817 0
M  V30 9357 N 854.342 -1.57594 -0.0133615 0
M  V30 9358 C 855.589 -1.8998 -0.70098 0
M  V30 9359 C 855.917 -0.858802 -1.74513 0
M  V30 9360 O 855.172 0.138209 -1.95211 0
M  V30 9361 C 855.471 -3.29121 -1.39336 0
M  V30 9362 C 855.137 -4.48298 -0.483687 0
M  V30 9363 C 853.799 -4.80635 -0.233186 0
M  V30 9364 C 856.151 -5.21003 0.143426 0
M  V30 9365 C 853.479 -5.83055 0.652943 0
M  V30 9366 C 855.831 -6.24366 1.01735 0
M  V30 9367 C 854.495 -6.55168 1.27716 0
M  V30 9368 H 853.765 -0.695187 -0.256507 0
M  V30 9369 H 856.412 -1.9146 0.0392965 0
M  V30 9370 H 854.717 -3.23703 -2.20735 0
M  V30 9371 H 856.414 -3.51433 -1.93121 0
M  V30 9372 H 853.004 -4.23024 -0.689092 0
M  V30 9373 H 857.188 -4.96286 -0.0371139 0
M  V30 9374 H 852.444 -6.05288 0.862379 0
M  V30 9375 H 856.618 -6.79839 1.5097 0
M  V30 9376 H 854.245 -7.34351 1.9655 0
M  V30 9377 N 855.82 0.285905 -1.54985 0
M  V30 9378 C 856.752 1.37505 -1.83371 0
M  V30 9379 C 857.765 1.46138 -0.717454 0
M  V30 9380 O 858.954 1.48186 -0.995142 0
M  V30 9381 C 856.054 2.7575 -1.97016 0
M  V30 9382 C 855.227 2.89866 -3.27561 0
M  V30 9383 C 854.286 4.08704 -3.31433 0
M  V30 9384 O 853.312 4.00073 -4.04883 0
M  V30 9385 N 854.514 5.20062 -2.57907 0
M  V30 9386 H 857.279 1.13505 -2.77375 0
M  V30 9387 H 854.84 0.476006 -1.54744 0
M  V30 9388 H 856.832 3.5352 -1.96991 0
M  V30 9389 H 855.402 2.9263 -1.09938 0
M  V30 9390 H 854.622 1.99085 -3.40234 0
M  V30 9391 H 855.91 2.96219 -4.13681 0
M  V30 9392 H 855.308 5.29958 -1.97891 0
M  V30 9393 H 853.865 5.96111 -2.63619 0
M  V30 9394 N 857.298 1.47698 0.54982 0
M  V30 9395 C 858.546 1.54397 1.30407 0
M  V30 9396 C 858.867 0.211026 1.93855 0
M  V30 9397 O 858.137 -0.765701 1.80316 0
M  V30 9398 H 856.717 0.568747 0.484289 0
M  V30 9399 H 859.379 1.84042 0.641444 0
M  V30 9400 H 858.475 2.31449 2.09375 0
M  V30 9401 N 858.776 -0.797141 1.35954 0
M  V30 9402 C 860.053 -1.54224 1.2031 0
M  V30 9403 C 860.433 -2.10013 -0.213926 0
M  V30 9404 O 859.781 -1.93292 -1.21862 0
M  V30 9405 C 859.991 -2.6433 2.27883 0
M  V30 9406 C 861.339 -3.32418 2.64165 0
M  V30 9407 O 862.363 -2.74607 2.26868 0
M  V30 9408 O 861.222 -4.36876 3.28331 0
M  V30 9409 H 858.316 -0.681857 0.467974 0
M  V30 9410 H 860.862 -0.836288 1.47663 0
M  V30 9411 H 859.634 -2.21044 3.22885 0
M  V30 9412 H 859.257 -3.42551 2.01853 0
M  V30 9413 N 860.254 -1.20106 -1.0204 0
M  V30 9414 C 861.201 -0.946468 -2.10501 0
M  V30 9415 C 862.171 0.121902 -1.65652 0
M  V30 9416 O 863.356 -0.0220244 -1.90787 0
M  V30 9417 C 860.496 -0.500499 -3.41451 0
M  V30 9418 C 859.609 -1.63659 -3.998 0
M  V30 9419 C 858.744 -1.14131 -5.18794 0
M  V30 9420 C 857.783 -2.25074 -5.69217 0
M  V30 9421 N 856.92 -1.76791 -6.79477 0
M  V30 9422 H 861.76 -1.87506 -2.31615 0
M  V30 9423 H 859.297 -0.934693 -1.13587 0
M  V30 9424 H 861.255 -0.223276 -4.16602 0
M  V30 9425 H 859.885 0.391099 -3.20422 0
M  V30 9426 H 858.937 -2.02882 -3.21781 0
M  V30 9427 H 860.249 -2.47213 -4.33229 0
M  V30 9428 H 859.403 -0.819826 -6.01135 0
M  V30 9429 H 858.142 -0.275615 -4.86921 0
M  V30 9430 H 857.147 -2.58043 -4.85483 0
M  V30 9431 H 858.372 -3.12114 -6.03127 0
M  V30 9432 H 856.318 -0.925428 -6.4944 0
M  V30 9433 H 856.235 -2.53928 -7.12079 0
M  V30 9434 H 857.503 -1.47631 -7.65392 0
M  V30 9435 N 861.732 1.21287 -1.00634 0
M  V30 9436 C 862.662 2.25973 -0.588089 0
M  V30 9437 C 863.643 1.65527 0.391764 0
M  V30 9438 O 864.828 1.92179 0.279452 0
M  V30 9439 C 861.958 3.47197 0.0847336 0
M  V30 9440 C 860.912 4.20168 -0.815039 0
M  V30 9441 C 860.238 5.34699 -0.00855393 0
M  V30 9442 C 861.538 4.77416 -2.11828 0
M  V30 9443 H 863.232 2.61212 -1.46317 0
M  V30 9444 H 860.778 1.25563 -0.704985 0
M  V30 9445 H 862.731 4.19602 0.388821 0
M  V30 9446 H 861.455 3.11092 0.994456 0
M  V30 9447 H 860.114 3.49614 -1.10297 0
M  V30 9448 H 859.762 4.94837 0.902499 0
M  V30 9449 H 859.462 5.84449 -0.607664 0
M  V30 9450 H 860.986 6.09914 0.289317 0
M  V30 9451 H 862.4 5.41694 -1.87725 0
M  V30 9452 H 860.797 5.37561 -2.66736 0
M  V30 9453 H 861.867 3.96724 -2.78816 0
M  V30 9454 N 863.21 0.781244 1.36873 0
M  V30 9455 C 864.14 0.188128 2.32741 0
M  V30 9456 C 865.121 -0.672326 1.56249 0
M  V30 9457 O 866.306 -0.607835 1.84442 0
M  V30 9458 C 863.436 -0.684341 3.40491 0
M  V30 9459 C 862.39 0.0755641 4.27933 0
M  V30 9460 C 861.716 -0.916968 5.26779 0
M  V30 9461 C 863.016 1.26006 5.06873 0
M  V30 9462 H 864.71 0.989016 2.82593 0
M  V30 9463 H 862.256 0.477038 1.35869 0
M  V30 9464 H 864.209 -1.10915 4.06541 0
M  V30 9465 H 862.933 -1.51785 2.89187 0
M  V30 9466 H 861.592 0.481258 3.63427 0
M  V30 9467 H 861.24 -1.74528 4.71751 0
M  V30 9468 H 860.94 -0.413 5.86147 0
M  V30 9469 H 862.464 -1.34052 5.95703 0
M  V30 9470 H 863.878 0.911425 5.66009 0
M  V30 9471 H 862.275 1.69676 5.75613 0
M  V30 9472 H 863.345 2.05948 4.38991 0
M  V30 9473 N 864.689 -1.48329 0.532571 0
M  V30 9474 C 865.919 -2.066 0.00353785 0
M  V30 9475 C 866.327 -1.38913 -1.28451 0
M  V30 9476 O 865.67 -0.471385 -1.77549 0
M  V30 9477 C 865.732 -3.58342 -0.288324 0
M  V30 9478 C 865.396 -4.47917 0.906631 0
M  V30 9479 C 866.393 -4.87534 1.80572 0
M  V30 9480 C 864.078 -4.89783 1.11436 0
M  V30 9481 C 866.072 -5.6779 2.89642 0
M  V30 9482 C 863.759 -5.69809 2.20819 0
M  V30 9483 C 864.757 -6.08721 3.09755 0
M  V30 9484 O 864.445 -6.8714 4.17246 0
M  V30 9485 H 864.177 -0.675263 0.0315661 0
M  V30 9486 H 866.731 -1.91669 0.738375 0
M  V30 9487 H 864.961 -3.71395 -1.07717 0
M  V30 9488 H 866.65 -3.98726 -0.759752 0
M  V30 9489 H 867.416 -4.5581 1.65719 0
M  V30 9490 H 863.295 -4.58977 0.431382 0
M  V30 9491 H 866.839 -5.98082 3.59087 0
M  V30 9492 H 862.736 -6.00947 2.35655 0
M  V30 9493 H 863.504 -7.05498 4.14988 0
M  V30 9494 N 866.167 -0.267825 -1.55308 0
M  V30 9495 C 867.13 0.60965 -2.20943 0
M  V30 9496 C 868.13 1.0869 -1.18504 0
M  V30 9497 O 869.32 0.988248 -1.43455 0
M  V30 9498 C 866.452 1.84027 -2.86961 0
M  V30 9499 H 867.645 0.0366806 -2.99878 0
M  V30 9500 H 865.198 -0.0183941 -1.56289 0
M  V30 9501 H 865.933 2.45394 -2.1202 0
M  V30 9502 H 865.718 1.50605 -3.62023 0
M  V30 9503 H 867.208 2.46442 -3.37129 0
M  V30 9504 N 867.645 1.57599 0.00500368 0
M  V30 9505 C 868.891 1.90631 0.691919 0
M  V30 9506 C 869.224 0.868443 1.737 0
M  V30 9507 O 868.499 -0.113482 1.94169 0
M  V30 9508 C 868.782 3.34255 1.33961 0
M  V30 9509 C 868.635 4.48755 0.306413 0
M  V30 9510 C 869.954 3.77211 2.26715 0
M  V30 9511 H 867.073 0.693279 0.250066 0
M  V30 9512 H 869.715 1.89946 -0.0452634 0
M  V30 9513 H 867.865 3.3497 1.96793 0
M  V30 9514 H 869.537 4.60176 -0.321841 0
M  V30 9515 H 867.78 4.32203 -0.371852 0
M  V30 9516 H 868.451 5.46193 0.798554 0
M  V30 9517 H 870.927 3.78017 1.73904 0
M  V30 9518 H 869.803 4.78466 2.69002 0
M  V30 9519 H 870.064 3.10801 3.14413 0
M  V30 9520 N 869.123 -0.277682 1.55134 0
M  V30 9521 C 870.353 -1.02677 1.79279 0
M  V30 9522 C 870.761 -1.80599 0.563962 0
M  V30 9523 O 870.104 -1.77416 -0.476378 0
M  V30 9524 C 870.166 -2.03617 2.96277 0
M  V30 9525 C 869.83 -1.44676 4.33495 0
M  V30 9526 C 870.827 -0.864811 5.12657 0
M  V30 9527 C 868.512 -1.47537 4.80144 0
M  V30 9528 C 870.506 -0.319322 6.366 0
M  V30 9529 C 868.193 -0.926016 6.04043 0
M  V30 9530 C 869.191 -0.348988 6.82108 0
M  V30 9531 O 868.879 0.191964 8.03671 0
M  V30 9532 H 868.611 -0.309232 0.601125 0
M  V30 9533 H 871.165 -0.315308 2.02965 0
M  V30 9534 H 869.395 -2.78509 2.68272 0
M  V30 9535 H 871.084 -2.64616 3.07788 0
M  V30 9536 H 871.85 -0.835438 4.7775 0
M  V30 9537 H 867.729 -1.91389 4.19394 0
M  V30 9538 H 871.273 0.131709 6.97476 0
M  V30 9539 H 867.17 -0.952613 6.38432 0
M  V30 9540 H 867.938 0.0808779 8.1846 0
M  V30 9541 N 870.601 -1.47988 -0.541979 0
M  V30 9542 C 872.017 -1.33843 -0.869383 0
M  V30 9543 C 872.217 -0.340374 -1.98604 0
M  V30 9544 O 871.273 0.242696 -2.51331 0
M  V30 9545 C 872.586 -2.73568 -1.24823 0
M  V30 9546 C 874.134 -2.81967 -1.3588 0
M  V30 9547 C 874.609 -4.22368 -1.77114 0
M  V30 9548 N 876.1 -4.24983 -1.84237 0
M  V30 9549 C 876.835 -5.30547 -2.17503 0
M  V30 9550 N 876.331 -6.46401 -2.49275 0
M  V30 9551 N 878.124 -5.17933 -2.18406 0
M  V30 9552 H 870.275 -2.11503 0.195001 0
M  V30 9553 H 872.538 -0.947681 0.0245862 0
M  V30 9554 H 872.244 -3.48107 -0.501435 0
M  V30 9555 H 872.118 -3.06322 -2.20106 0
M  V30 9556 H 874.505 -2.07692 -2.09638 0
M  V30 9557 H 874.586 -2.52848 -0.387478 0
M  V30 9558 H 874.23 -4.97155 -1.0392 0
M  V30 9559 H 874.16 -4.48922 -2.75275 0
M  V30 9560 H 876.651 -3.41411 -1.62009 0
M  V30 9561 H 876.964 -7.22698 -2.73729 0
M  V30 9562 H 875.309 -6.49696 -2.46821 0
M  V30 9563 H 878.5 -4.26445 -1.93034 0
M  V30 9564 H 878.673 -6.00307 -2.44 0
M  V30 9565 N 872.079 0.78992 -1.36375 0
M  V30 9566 C 873.026 1.90254 -1.3066 0
M  V30 9567 C 873.996 1.65171 -0.17539 0
M  V30 9568 O 875.181 1.87338 -0.361824 0
M  V30 9569 C 872.321 3.27057 -1.10125 0
M  V30 9570 C 871.434 3.64215 -2.32317 0
M  V30 9571 C 870.569 4.90134 -2.04798 0
M  V30 9572 C 869.608 5.19969 -3.22953 0
M  V30 9573 N 868.745 6.37071 -2.95102 0
M  V30 9574 H 873.585 1.94474 -2.25796 0
M  V30 9575 H 871.122 0.951022 -1.12223 0
M  V30 9576 H 873.08 4.05947 -0.962453 0
M  V30 9577 H 871.71 3.22261 -0.186444 0
M  V30 9578 H 870.762 2.80454 -2.57002 0
M  V30 9579 H 872.074 3.82212 -3.20492 0
M  V30 9580 H 871.228 5.76888 -1.87845 0
M  V30 9581 H 869.967 4.74205 -1.13932 0
M  V30 9582 H 868.972 4.31699 -3.40465 0
M  V30 9583 H 870.197 5.37817 -4.14644 0
M  V30 9584 H 868.143 6.22535 -2.06848 0
M  V30 9585 H 868.06 6.55398 -3.76815 0
M  V30 9586 H 869.328 7.26808 -2.81727 0
M  V30 9587 N 873.557 1.20646 1.01402 0
M  V30 9588 C 874.487 0.98155 2.11867 0
M  V30 9589 C 875.468 -0.0903712 1.6986 0
M  V30 9590 O 876.653 0.0676586 1.94082 0
M  V30 9591 C 873.783 0.535636 3.43145 0
M  V30 9592 C 872.737 1.55109 3.98905 0
M  V30 9593 C 872.063 0.961725 5.2598 0
M  V30 9594 C 873.363 2.93552 4.32001 0
M  V30 9595 H 875.057 1.90544 2.3094 0
M  V30 9596 H 872.603 0.917554 1.10982 0
M  V30 9597 H 874.556 0.365512 4.19812 0
M  V30 9598 H 873.28 -0.423882 3.23838 0
M  V30 9599 H 871.939 1.70862 3.24348 0
M  V30 9600 H 871.587 -0.00580108 5.03 0
M  V30 9601 H 871.287 1.63993 5.64252 0
M  V30 9602 H 872.811 0.802726 6.053 0
M  V30 9603 H 874.225 2.81295 4.99546 0
M  V30 9604 H 872.622 3.58303 4.81393 0
M  V30 9605 H 873.692 3.4508 3.40658 0
M  V30 9606 N 875.035 -1.20752 1.01276 0
M  V30 9607 C 876.283 -1.89645 0.698505 0
M  V30 9608 C 876.604 -1.78986 -0.773883 0
M  V30 9609 O 875.874 -1.18977 -1.55632 0
M  V30 9610 H 874.454 -0.701992 0.255375 0
M  V30 9611 H 877.116 -1.46668 1.28353 0
M  V30 9612 H 876.212 -2.96364 0.978512 0
M  V30 9613 N 876.513 -0.788492 -1.36457 0
M  V30 9614 C 877.759 -0.360995 -1.99561 0
M  V30 9615 C 878.092 1.06433 -1.62437 0
M  V30 9616 O 877.367 1.7352 -0.878705 0
M  V30 9617 C 877.65 -0.523735 -3.56271 0
M  V30 9618 C 877.503 -1.99268 -4.03252 0
M  V30 9619 C 878.822 0.0617908 -4.40057 0
M  V30 9620 H 875.941 -0.13264 -0.724966 0
M  V30 9621 H 878.583 -0.994659 -1.61884 0
M  V30 9622 H 876.733 0.0156979 -3.88497 0
M  V30 9623 H 878.405 -2.59311 -3.81518 0
M  V30 9624 H 876.648 -2.49561 -3.54826 0
M  V30 9625 H 877.319 -2.05752 -5.12221 0
M  V30 9626 H 879.795 -0.398674 -4.14186 0
M  V30 9627 H 878.671 -0.0821089 -5.48839 0
M  V30 9628 H 878.932 1.15381 -4.26778 0
M  V30 9629 N 877.991 1.48044 -0.54043 0
M  V30 9630 C 879.221 2.06595 -0.0144943 0
M  V30 9631 C 879.629 1.39593 1.27713 0
M  V30 9632 O 878.972 0.480794 1.77297 0
M  V30 9633 C 879.034 3.5849 0.269316 0
M  V30 9634 C 878.698 4.47429 -0.930372 0
M  V30 9635 C 879.695 4.8657 -1.83155 0
M  V30 9636 C 877.38 4.89185 -1.14032 0
M  V30 9637 C 879.374 5.66246 -2.92649 0
M  V30 9638 C 877.061 5.6863 -2.23838 0
M  V30 9639 C 878.059 6.07069 -3.12979 0
M  V30 9640 O 877.747 6.84917 -4.20884 0
M  V30 9641 H 877.479 0.675086 -0.0351467 0
M  V30 9642 H 880.033 1.91275 -0.74853 0
M  V30 9643 H 878.263 3.71961 1.05745 0
M  V30 9644 H 879.952 3.99124 0.738595 0
M  V30 9645 H 880.718 4.54924 -1.68134 0
M  V30 9646 H 876.597 4.58742 -0.455717 0
M  V30 9647 H 880.141 5.96169 -3.62254 0
M  V30 9648 H 876.038 5.99688 -2.38839 0
M  V30 9649 H 876.806 7.03287 -4.18723 0
M  V30 9650 N 879.47 0.276058 1.55163 0
M  V30 9651 C 880.38 -0.621066 2.2623 0
M  V30 9652 C 881.396 -1.16931 1.28853 0
M  V30 9653 O 882.572 -1.1994 1.61791 0
M  V30 9654 C 879.637 -1.78824 2.97023 0
M  V30 9655 C 878.698 -1.27657 4.09881 0
M  V30 9656 C 877.931 -2.38812 4.77289 0
M  V30 9657 O 878.154 -3.58188 4.43912 0
M  V30 9658 O 877.088 -2.06915 5.65217 0
M  V30 9659 H 880.914 -0.0453346 3.03666 0
M  V30 9660 H 878.499 0.0434275 1.49337 0
M  V30 9661 H 880.381 -2.46877 3.41511 0
M  V30 9662 H 879.056 -2.35104 2.22503 0
M  V30 9663 H 877.963 -0.56248 3.69847 0
M  V30 9664 H 879.296 -0.759509 4.86305 0
M  V30 9665 N 880.948 -1.576 0.00335426 0
M  V30 9666 C 882.194 -1.90996 -0.681799 0
M  V30 9667 C 882.527 -0.877643 -1.73237 0
M  V30 9668 O 881.802 0.103183 -1.94226 0
M  V30 9669 C 882.085 -3.34961 -1.32187 0
M  V30 9670 C 881.938 -4.48911 -0.28261 0
M  V30 9671 C 883.257 -3.78408 -2.24711 0
M  V30 9672 H 880.376 -0.694596 -0.246386 0
M  V30 9673 H 883.018 -1.89919 0.055336 0
M  V30 9674 H 881.168 -3.36008 -1.95014 0
M  V30 9675 H 882.84 -4.59999 0.346241 0
M  V30 9676 H 881.083 -4.32 0.394768 0
M  V30 9677 H 881.754 -5.46609 -0.769576 0
M  V30 9678 H 884.23 -3.78934 -1.71897 0
M  V30 9679 H 883.106 -4.79885 -2.66461 0
M  V30 9680 H 883.367 -3.12464 -3.1276 0
M  V30 9681 N 882.426 0.269451 -1.5528 0
M  V30 9682 C 883.336 1.35511 -1.91505 0
M  V30 9683 C 884.352 1.53854 -0.812712 0
M  V30 9684 O 885.528 1.67912 -1.1121 0
M  V30 9685 C 882.593 2.6937 -2.18267 0
M  V30 9686 C 881.654 2.59743 -3.41807 0
M  V30 9687 C 880.887 3.87219 -3.67283 0
M  V30 9688 O 881.11 4.88066 -2.95208 0
M  V30 9689 O 880.044 3.87209 -4.60818 0
M  V30 9690 H 883.87 1.07785 -2.8393 0
M  V30 9691 H 881.455 0.468282 -1.41871 0
M  V30 9692 H 883.337 3.48513 -2.36889 0
M  V30 9693 H 882.012 2.96874 -1.29024 0
M  V30 9694 H 880.919 1.78964 -3.28516 0
M  V30 9695 H 882.252 2.37188 -4.3128 0
M  V30 9696 N 883.904 1.48273 0.534124 0
M  V30 9697 C 885.181 1.46567 1.29528 0
M  V30 9698 C 885.561 0.17509 2.10373 0
M  V30 9699 O 884.909 -0.843228 2.12372 0
M  V30 9700 C 885.119 2.72519 2.18023 0
M  V30 9701 C 886.467 3.2068 2.78298 0
M  V30 9702 O 887.491 2.73408 2.28313 0
M  V30 9703 O 886.35 4.02924 3.69208 0
M  V30 9704 H 883.444 0.585151 0.584403 0
M  V30 9705 H 885.99 1.60502 0.551119 0
M  V30 9706 H 884.762 3.57965 1.5804 0
M  V30 9707 H 884.385 2.61285 2.99693 0
M  V30 9708 N 885.382 -0.782676 1.36792 0
M  V30 9709 C 886.314 -1.9044 1.27536 0
M  V30 9710 C 887.327 -1.61647 0.193426 0
M  V30 9711 O 888.516 -1.72769 0.448692 0
M  V30 9712 C 885.616 -3.2541 0.946641 0
M  V30 9713 C 884.789 -3.81932 2.13183 0
M  V30 9714 C 883.848 -4.95355 1.7751 0
M  V30 9715 O 882.874 -5.11517 2.49678 0
M  V30 9716 N 884.076 -5.76108 0.712755 0
M  V30 9717 H 886.841 -1.98899 2.24186 0
M  V30 9718 H 884.402 -0.96127 1.30274 0
M  V30 9719 H 886.394 -3.98791 0.689043 0
M  V30 9720 H 884.964 -3.12524 0.0690591 0
M  V30 9721 H 884.184 -3.00459 2.55183 0
M  V30 9722 H 885.472 -4.16426 2.92347 0
M  V30 9723 H 884.87 -5.65586 0.113662 0
M  V30 9724 H 883.427 -6.49762 0.514995 0
M  V30 9725 N 886.86 -1.21182 -1.00761 0
M  V30 9726 C 888.109 -1.02166 -1.73911 0
M  V30 9727 C 888.422 0.445638 -1.90456 0
M  V30 9728 O 889.628 0.755132 -2.60787 0
M  V30 9729 C 888.084 -1.77936 -3.12837 0
M  V30 9730 C 887.692 -3.28819 -3.04273 0
M  V30 9731 C 889.436 -1.67319 -3.90134 0
M  V30 9732 C 887.343 -3.97089 -4.38262 0
M  V30 9733 H 886.273 -0.378665 -0.652019 0
M  V30 9734 H 888.924 -1.44891 -1.12601 0
M  V30 9735 H 887.306 -1.28003 -3.74742 0
M  V30 9736 H 888.48 -3.86035 -2.51622 0
M  V30 9737 H 886.795 -3.39949 -2.40465 0
M  V30 9738 H 889.392 -2.15659 -4.8928 0
M  V30 9739 H 889.735 -0.630959 -4.11491 0
M  V30 9740 H 890.268 -2.14716 -3.34876 0
M  V30 9741 H 887.007 -5.01503 -4.22107 0
M  V30 9742 H 886.527 -3.44662 -4.90885 0
M  V30 9743 H 888.206 -4.01854 -5.07072 0
M  V30 9744 N 888.338 1.20213 -1.01915 0
M  V30 9745 C 889.566 1.93622 -0.729255 0
M  V30 9746 C 889.981 1.74923 0.710444 0
M  V30 9747 O 889.338 1.06484 1.48214 0
M  V30 9748 C 889.389 3.45651 -1.05865 0
M  V30 9749 O 889.11 3.63741 -2.44181 0
M  V30 9750 C 890.611 4.36201 -0.790176 0
M  V30 9751 H 887.831 0.615333 -0.267594 0
M  V30 9752 H 890.375 1.52633 -1.36101 0
M  V30 9753 H 888.53 3.84511 -0.47225 0
M  V30 9754 H 888.944 4.57702 -2.56143 0
M  V30 9755 H 890.418 5.41516 -1.07071 0
M  V30 9756 H 890.895 4.38334 0.275609 0
M  V30 9757 H 891.501 4.03008 -1.35885 0
M  V30 9758 N 889.816 0.795718 1.36037 0
M  V30 9759 C 890.779 0.204318 2.28287 0
M  V30 9760 C 891.779 -0.602017 1.49105 0
M  V30 9761 O 892.969 -0.422089 1.69009 0
M  V30 9762 C 890.101 -0.716431 3.33287 0
M  V30 9763 H 891.294 1.01781 2.821 0
M  V30 9764 H 888.847 0.565588 1.45708 0
M  V30 9765 H 889.582 -1.55403 2.84641 0
M  V30 9766 H 889.367 -0.140096 3.9185 0
M  V30 9767 H 890.857 -1.12488 4.02164 0
M  V30 9768 N 891.294 -1.47756 0.548274 0
M  V30 9769 C 892.54 -2.02789 0.0209265 0
M  V30 9770 C 892.873 -1.42268 -1.32187 0
M  V30 9771 O 892.148 -0.575001 -1.85806 0
M  V30 9772 C 892.431 -3.60007 -0.0816674 0
M  V30 9773 C 892.284 -4.30977 1.28759 0
M  V30 9774 C 893.603 -4.32777 -0.799515 0
M  V30 9775 H 890.722 -0.736944 0.00907884 0
M  V30 9776 H 893.364 -1.76282 0.708839 0
M  V30 9777 H 891.514 -3.82722 -0.667537 0
M  V30 9778 H 893.186 -4.19629 1.91597 0
M  V30 9779 H 891.429 -3.9168 1.86466 0
M  V30 9780 H 892.1 -5.39488 1.16861 0
M  V30 9781 H 894.576 -4.15001 -0.30216 0
M  V30 9782 H 893.452 -5.42431 -0.840239 0
M  V30 9783 H 893.713 -4.01358 -1.85375 0
M  V30 9784 N 892.772 -0.284283 -1.55015 0
M  V30 9785 C 894.188 0.069603 -1.59448 0
M  V30 9786 C 894.388 1.53833 -1.30144 0
M  V30 9787 O 893.444 2.2886 -1.06674 0
M  V30 9788 C 894.757 -0.313287 -2.99064 0
M  V30 9789 C 896.305 -0.260662 -3.11913 0
M  V30 9790 C 896.78 -0.618127 -4.5381 0
M  V30 9791 N 898.271 -0.570026 -4.59679 0
M  V30 9792 C 899.006 -0.8193 -5.67517 0
M  V30 9793 N 898.502 -1.13367 -6.83462 0
M  V30 9794 N 900.295 -0.747482 -5.57108 0
M  V30 9795 H 892.446 -1.24167 -1.72326 0
M  V30 9796 H 894.709 -0.502259 -0.804015 0
M  V30 9797 H 894.415 -1.33509 -3.25374 0
M  V30 9798 H 894.289 0.341369 -3.75652 0
M  V30 9799 H 896.676 0.751869 -2.85361 0
M  V30 9800 H 896.757 -0.949706 -2.37517 0
M  V30 9801 H 896.401 -1.62839 -4.81088 0
M  V30 9802 H 896.331 0.092807 -5.26518 0
M  V30 9803 H 898.822 -0.3373 -3.76392 0
M  V30 9804 H 899.135 -1.3103 -7.61611 0
M  V30 9805 H 897.48 -1.17154 -6.85055 0
M  V30 9806 H 900.671 -0.501658 -4.65404 0
M  V30 9807 H 900.844 -0.945128 -6.4107 0
M  V30 9808 N 894.251 1.57596 -0.0117121 0
M  V30 9809 C 895.198 2.09153 0.975897 0
M  V30 9810 C 896.168 0.989579 1.33404 0
M  V30 9811 O 897.353 1.26273 1.43038 0
M  V30 9812 C 894.493 2.60906 2.2588 0
M  V30 9813 C 893.606 3.85046 1.95866 0
M  V30 9814 C 892.741 4.25257 3.18323 0
M  V30 9815 C 891.78 5.42202 2.84049 0
M  V30 9816 N 890.917 5.77651 3.99079 0
M  V30 9817 H 895.757 2.93261 0.52931 0
M  V30 9818 H 893.294 1.44965 0.249691 0
M  V30 9819 H 895.252 2.88995 3.00895 0
M  V30 9820 H 893.882 1.79654 2.68187 0
M  V30 9821 H 892.934 3.63794 1.11168 0
M  V30 9822 H 894.246 4.70151 1.66611 0
M  V30 9823 H 893.4 4.5469 4.01674 0
M  V30 9824 H 892.139 3.38884 3.50726 0
M  V30 9825 H 891.144 5.1248 1.99107 0
M  V30 9826 H 892.369 6.3026 2.52881 0
M  V30 9827 H 890.315 4.94235 4.31356 0
M  V30 9828 H 890.232 6.57356 3.73388 0
M  V30 9829 H 891.5 6.11681 4.83183 0
M  V30 9830 N 895.729 -0.261212 1.5542 0
M  V30 9831 C 896.976 -0.99123 1.76581 0
M  V30 9832 C 897.304 -1.85854 0.573457 0
M  V30 9833 O 896.559 -1.90604 -0.443705 0
M  V30 9834 C 896.858 -1.89395 3.03091 0
M  V30 9835 C 896.524 -1.18318 4.351 0
M  V30 9836 C 895.186 -0.986688 4.70975 0
M  V30 9837 C 897.538 -0.678299 5.16767 0
M  V30 9838 C 894.866 -0.272788 5.86065 0
M  V30 9839 C 897.218 0.0220646 6.32596 0
M  V30 9840 C 895.882 0.230161 6.67103 0
M  V30 9841 H 895.152 -0.362717 0.646156 0
M  V30 9842 H 897.799 -0.262506 1.89692 0
M  V30 9843 H 896.104 -2.68927 2.8493 0
M  V30 9844 H 897.801 -2.46022 3.16661 0
M  V30 9845 H 894.391 -1.34625 4.06908 0
M  V30 9846 H 898.575 -0.817691 4.89518 0
M  V30 9847 H 893.831 -0.10095 6.11317 0
M  V30 9848 H 898.005 0.420981 6.95126 0
M  V30 9849 H 895.632 0.785312 7.56133 0
M  V30 9850 N 897.207 -1.48554 -0.526253 0
M  V30 9851 C 898.456 -1.56014 -1.27837 0
M  V30 9852 C 898.769 -0.240643 -1.94114 0
M  V30 9853 O 899.975 -0.193525 -2.70809 0
M  V30 9854 C 898.431 -2.75161 -2.31979 0
M  V30 9855 C 898.039 -4.13768 -1.71755 0
M  V30 9856 C 899.783 -2.91936 -3.08178 0
M  V30 9857 C 897.69 -5.24171 -2.7386 0
M  V30 9858 H 896.62 -0.58082 -0.480795 0
M  V30 9859 H 899.271 -1.74895 -0.555335 0
M  V30 9860 H 897.653 -2.49722 -3.07335 0
M  V30 9861 H 898.827 -4.49241 -1.02563 0
M  V30 9862 H 897.142 -4.02141 -1.08036 0
M  V30 9863 H 899.739 -3.71586 -3.84484 0
M  V30 9864 H 900.082 -2.01533 -3.64267 0
M  V30 9865 H 900.615 -3.17294 -2.39937 0
M  V30 9866 H 897.354 -6.16552 -2.22586 0
M  V30 9867 H 896.874 -4.93181 -3.41368 0
M  V30 9868 H 898.553 -5.52442 -3.36774 0
M  V30 9869 N 898.685 0.775411 -1.37205 0
M  V30 9870 C 899.595 1.91967 -1.34855 0
M  V30 9871 C 900.611 1.72214 -0.248656 0
M  V30 9872 O 901.787 1.95512 -0.483421 0
M  V30 9873 C 898.852 3.27038 -1.15096 0
M  V30 9874 C 897.913 3.5947 -2.34691 0
M  V30 9875 C 897.146 4.88097 -2.15865 0
M  V30 9876 O 897.369 5.58871 -1.14102 0
M  V30 9877 O 896.303 5.19507 -3.03967 0
M  V30 9878 H 900.129 1.969 -2.31223 0
M  V30 9879 H 897.714 0.917647 -1.17897 0
M  V30 9880 H 899.596 4.07837 -1.0605 0
M  V30 9881 H 898.271 3.22965 -0.217999 0
M  V30 9882 H 897.178 2.7892 -2.49308 0
M  V30 9883 H 898.511 3.68282 -3.26541 0
M  V30 9884 N 900.163 1.21714 1.00117 0
M  V30 9885 C 901.096 0.923113 2.08696 0
M  V30 9886 C 902.074 -0.130827 1.62073 0
M  V30 9887 O 903.258 -0.00103064 1.885 0
M  V30 9888 C 900.385 0.386807 3.36484 0
M  V30 9889 C 899.431 1.42414 4.0202 0
M  V30 9890 S 900.264 2.99466 4.43937 0
M  V30 9891 C 901.42 2.47452 5.74907 0
M  V30 9892 H 901.653 1.84258 2.33315 0
M  V30 9893 H 899.186 1.0473 1.1345 0
M  V30 9894 H 901.144 0.0839547 4.10414 0
M  V30 9895 H 899.805 -0.511413 3.09909 0
M  V30 9896 H 898.998 0.998593 4.94008 0
M  V30 9897 H 898.6 1.67527 3.34381 0
M  V30 9898 H 900.892 1.88177 6.50842 0
M  V30 9899 H 901.835 3.37898 6.22279 0
M  V30 9900 H 902.243 1.89027 5.31911 0
M  V30 9901 N 901.641 -1.19671 1.02551 0
M  V30 9902 C 902.889 -1.88894 0.71858 0
M  V30 9903 C 903.21 -1.79797 -0.754856 0
M  V30 9904 O 902.48 -1.20621 -1.54362 0
M  V30 9905 H 901.06 -0.699244 0.262806 0
M  V30 9906 H 903.722 -1.45298 1.29902 0
M  V30 9907 H 902.818 -2.95309 1.00989 0
M  V30 9908 N 903.119 -0.802921 -1.35613 0
M  V30 9909 C 904.366 -0.381576 -1.98872 0
M  V30 9910 C 904.694 1.0503 -1.63704 0
M  V30 9911 O 903.949 1.7427 -0.890418 0
M  V30 9912 C 904.248 -0.507806 -3.53774 0
M  V30 9913 C 903.914 -1.90245 -4.088 0
M  V30 9914 C 902.576 -2.28401 -4.2354 0
M  V30 9915 C 904.928 -2.81504 -4.3864 0
M  V30 9916 C 902.256 -3.57192 -4.65436 0
M  V30 9917 C 904.608 -4.09737 -4.81973 0
M  V30 9918 C 903.272 -4.47897 -4.94919 0
M  V30 9919 H 902.542 -0.139629 -0.727726 0
M  V30 9920 H 905.189 -1.023 -1.61886 0
M  V30 9921 H 903.494 0.21708 -3.91198 0
M  V30 9922 H 905.191 -0.162625 -4.0067 0
M  V30 9923 H 901.781 -1.596 -3.97776 0
M  V30 9924 H 905.965 -2.53276 -4.26808 0
M  V30 9925 H 901.221 -3.86611 -4.73648 0
M  V30 9926 H 905.395 -4.80555 -5.04024 0
M  V30 9927 H 903.022 -5.47747 -5.27141 0
M  V30 9928 N 904.597 1.47463 -0.556102 0
M  V30 9929 C 905.846 2.01678 -0.029492 0
M  V30 9930 C 906.159 1.436 1.32809 0
M  V30 9931 O 907.365 1.89472 1.94455 0
M  V30 9932 C 905.821 3.599 -0.00223937 0
M  V30 9933 C 905.429 4.26969 -1.35651 0
M  V30 9934 C 907.173 4.2187 0.471822 0
M  V30 9935 C 905.08 5.77194 -1.28843 0
M  V30 9936 H 904.01 0.753965 -0.00725504 0
M  V30 9937 H 906.661 1.69467 -0.703789 0
M  V30 9938 H 905.043 3.89068 0.737682 0
M  V30 9939 H 906.217 4.09444 -2.11406 0
M  V30 9940 H 904.532 3.76983 -1.76842 0
M  V30 9941 H 907.129 5.31955 0.541139 0
M  V30 9942 H 907.472 3.88968 1.48356 0
M  V30 9943 H 908.005 3.97228 -0.213207 0
M  V30 9944 H 904.744 6.14713 -2.27613 0
M  V30 9945 H 904.264 5.9706 -0.572668 0
M  V30 9946 H 905.943 6.3938 -0.990031 0
M  V30 9947 N 906.075 0.2925 1.54862 0
M  V30 9948 C 907.352 -0.371946 1.92031 0
M  V30 9949 C 907.732 -1.72363 1.21878 0
M  V30 9950 O 907.08 -2.25779 0.351573 0
M  V30 9951 C 907.29 -0.495027 3.45471 0
M  V30 9952 C 908.638 -0.769855 4.17562 0
M  V30 9953 O 909.662 -0.579168 3.5146 0
M  V30 9954 O 908.521 -1.13561 5.34571 0
M  V30 9955 H 905.615 -0.206463 0.800813 0
M  V30 9956 H 908.161 0.339933 1.6626 0
M  V30 9957 H 906.933 0.455528 3.88639 0
M  V30 9958 H 906.556 -1.2557 3.7725 0
M  V30 9959 N 907.553 -1.57587 0.0200696 0
M  V30 9960 C 908.463 -2.13119 -0.980676 0
M  V30 9961 C 909.479 -1.08124 -1.36328 0
M  V30 9962 O 910.655 -1.40134 -1.44653 0
M  V30 9963 C 907.72 -2.63991 -2.24743 0
M  V30 9964 C 906.781 -3.83667 -1.9261 0
M  V30 9965 C 906.014 -4.32103 -3.13246 0
M  V30 9966 O 906.237 -3.79758 -4.25606 0
M  V30 9967 O 905.171 -5.24047 -2.96072 0
M  V30 9968 H 908.997 -2.98887 -0.538528 0
M  V30 9969 H 906.582 -1.48055 -0.19999 0
M  V30 9970 H 908.464 -2.9682 -2.99125 0
M  V30 9971 H 907.139 -1.81311 -2.68157 0
M  V30 9972 H 906.046 -3.55778 -1.15641 0
M  V30 9973 H 907.379 -4.67482 -1.54019 0
M  V30 9974 N 909.032 0.252966 -1.55557 0
M  V30 9975 C 909.979 1.3131 -1.89806 0
M  V30 9976 C 910.949 1.48121 -0.751633 0
M  V30 9977 O 912.134 1.62202 -1.00474 0
M  V30 9978 C 909.274 2.66467 -2.19293 0
M  V30 9979 C 908.387 2.57714 -3.46709 0
M  V30 9980 C 907.522 3.85184 -3.65796 0
M  V30 9981 C 906.561 3.71023 -4.86835 0
M  V30 9982 N 905.698 4.90371 -5.02474 0
M  V30 9983 H 910.538 1.01402 -2.80217 0
M  V30 9984 H 908.075 0.489462 -1.38718 0
M  V30 9985 H 910.033 3.45132 -2.34392 0
M  V30 9986 H 908.663 2.94536 -1.32093 0
M  V30 9987 H 907.715 1.70651 -3.39974 0
M  V30 9988 H 909.027 2.43158 -4.35517 0
M  V30 9989 H 908.181 4.72292 -3.80822 0
M  V30 9990 H 906.92 4.0263 -2.7521 0
M  V30 9991 H 905.925 2.82299 -4.71792 0
M  V30 9992 H 907.15 3.55078 -5.78875 0
M  V30 9993 H 905.096 5.0819 -4.14824 0
M  V30 9994 H 905.013 4.78423 -5.85361 0
M  V30 9995 H 906.281 5.78995 -5.21905 0
M  V30 9996 N 910.51 1.48831 0.518367 0
M  V30 9997 C 911.926 1.35209 0.847979 0
M  V30 9998 C 912.126 0.371927 1.98038 0
M  V30 9999 O 911.182 -0.202681 2.51685 0
M  V30 10000 C 912.495 2.7552 1.20455 0
M  V30 10001 C 914.043 2.84094 1.31377 0
M  V30 10002 C 914.518 4.25132 1.70372 0
M  V30 10003 N 916.009 4.27861 1.77453 0
M  V30 10004 C 916.744 5.3394 2.09035 0
M  V30 10005 N 916.24 6.50285 2.3896 0
M  V30 10006 N 918.033 5.21343 2.10139 0
M  V30 10007 H 910.184 2.11166 -0.228624 0
M  V30 10008 H 912.447 0.94717 -0.0396599 0
M  V30 10009 H 912.153 3.48861 0.445991 0
M  V30 10010 H 912.027 3.09785 2.15204 0
M  V30 10011 H 914.414 2.11001 2.06307 0
M  V30 10012 H 914.495 2.53433 0.347203 0
M  V30 10013 H 914.139 4.98745 0.959975 0
M  V30 10014 H 914.069 4.53245 2.68098 0
M  V30 10015 H 916.56 3.43945 1.56557 0
M  V30 10016 H 916.873 7.26961 2.62196 0
M  V30 10017 H 915.218 6.5354 2.36454 0
M  V30 10018 H 918.409 4.29462 1.86225 0
M  V30 10019 H 918.582 6.04112 2.34419 0
M  V30 10020 N 911.988 -0.768124 1.37614 0
M  V30 10021 C 913.237 -1.5221 1.32345 0
M  V30 10022 C 913.55 -1.95399 -0.0885761 0
M  V30 10023 O 914.756 -2.70216 -0.263752 0
M  V30 10024 C 913.212 -2.74872 2.32322 0
M  V30 10025 C 912.82 -2.38767 3.79071 0
M  V30 10026 C 914.564 -3.52805 2.36069 0
M  V30 10027 C 912.471 -3.57953 4.7077 0
M  V30 10028 H 911.401 -0.571461 0.491883 0
M  V30 10029 H 914.052 -0.841004 1.63093 0
M  V30 10030 H 912.434 -3.44889 1.94596 0
M  V30 10031 H 913.608 -1.7651 4.25654 0
M  V30 10032 H 911.923 -1.74 3.78303 0
M  V30 10033 H 914.52 -4.41397 3.01782 0
M  V30 10034 H 914.863 -3.92925 1.37535 0
M  V30 10035 H 915.396 -2.89788 2.72521 0
M  V30 10036 H 912.135 -3.22911 5.70446 0
M  V30 10037 H 911.655 -4.19302 4.28889 0
M  V30 10038 H 913.334 -4.2472 4.8808 0
M  V30 10039 N 913.466 -1.22244 -0.994698 0
M  V30 10040 C 914.429 -0.992308 -2.06606 0
M  V30 10041 C 915.429 0.0405872 -1.60749 0
M  V30 10042 O 916.619 -0.197737 -1.73074 0
M  V30 10043 C 913.751 -0.498499 -3.37236 0
M  V30 10044 H 914.944 -1.9429 -2.28455 0
M  V30 10045 H 912.497 -1.04087 -1.166 0
M  V30 10046 H 913.232 0.456531 -3.21071 0
M  V30 10047 H 913.017 -1.24367 -3.71854 0
M  V30 10048 H 914.507 -0.35768 -4.16065 0
M  V30 10049 N 914.944 1.19125 -1.03184 0
M  V30 10050 C 916.193 1.8821 -0.725264 0
M  V30 10051 C 916.506 1.80674 0.749411 0
M  V30 10052 O 917.712 2.45037 1.16915 0
M  V30 10053 C 916.168 3.37607 -1.24697 0
M  V30 10054 C 915.776 3.53693 -2.74964 0
M  V30 10055 C 917.52 4.12149 -1.01652 0
M  V30 10056 C 915.427 4.97001 -3.20538 0
M  V30 10057 H 914.357 0.704916 -0.267599 0
M  V30 10058 H 917.008 1.34663 -1.24652 0
M  V30 10059 H 915.39 3.90569 -0.653614 0
M  V30 10060 H 916.564 3.11046 -3.39981 0
M  V30 10061 H 914.879 2.92544 -2.96322 0
M  V30 10062 H 917.476 5.17837 -1.33226 0
M  V30 10063 H 917.819 4.16274 0.0465712 0
M  V30 10064 H 918.352 3.65334 -1.57403 0
M  V30 10065 H 915.091 4.9804 -4.26189 0
M  V30 10066 H 914.611 5.40398 -2.60251 0
M  V30 10067 H 916.29 5.65669 -3.14049 0
M  V30 10068 N 916.422 0.810101 1.35185 0
M  V30 10069 C 917.668 0.401839 1.99391 0
M  V30 10070 C 918.023 -1.02059 1.63101 0
M  V30 10071 O 917.316 -1.69889 0.8859 0
M  V30 10072 C 917.51 0.526561 3.535 0
M  V30 10073 C 917.339 1.95956 4.04761 0
M  V30 10074 C 916.109 2.58869 4.33953 0
M  V30 10075 C 918.307 2.92459 4.23051 0
M  V30 10076 N 916.289 3.93542 4.71166 0
M  V30 10077 C 917.66 4.12011 4.633 0
M  V30 10078 C 919.715 2.89244 4.05268 0
M  V30 10079 C 918.418 5.28784 4.87627 0
M  V30 10080 C 920.444 4.05223 4.30753 0
M  V30 10081 C 919.806 5.23524 4.71277 0
M  V30 10082 H 915.905 0.194886 0.757327 0
M  V30 10083 H 918.489 1.05209 1.63827 0
M  V30 10084 H 916.66 -0.0937151 3.88287 0
M  V30 10085 H 918.392 0.0925434 4.04594 0
M  V30 10086 H 915.147 2.10198 4.24398 0
M  V30 10087 H 915.571 4.62889 4.94027 0
M  V30 10088 H 920.213 1.98932 3.73076 0
M  V30 10089 H 917.931 6.19666 5.18691 0
M  V30 10090 H 921.517 4.04121 4.18542 0
M  V30 10091 H 920.397 6.11776 4.90612 0
M  V30 10092 N 917.9 -1.47166 0.563914 0
M  V30 10093 C 919.148 -2.02056 0.0422873 0
M  V30 10094 C 919.469 -1.43992 -1.31497 0
M  V30 10095 O 918.739 -0.617578 -1.85911 0
M  V30 10096 H 917.319 -0.746893 0.0126427 0
M  V30 10097 H 919.981 -1.80492 0.735441 0
M  V30 10098 H 919.077 -3.12073 -0.0408044 0
M  V30 10099 N 919.378 -0.300708 -1.54705 0
M  V30 10100 C 920.624 0.301982 -2.01146 0
M  V30 10101 C 920.979 1.51548 -1.18537 0
M  V30 10102 O 920.272 1.89914 -0.253656 0
M  V30 10103 C 920.466 0.710108 -3.50275 0
M  V30 10104 C 920.295 -0.462291 -4.47318 0
M  V30 10105 C 919.065 -0.954214 -4.96208 0
M  V30 10106 C 921.263 -1.30716 -4.97411 0
M  V30 10107 N 919.245 -2.09341 -5.77105 0
M  V30 10108 C 920.616 -2.29384 -5.76006 0
M  V30 10109 C 922.671 -1.33756 -4.79597 0
M  V30 10110 C 921.374 -3.30869 -6.38685 0
M  V30 10111 C 923.4 -2.34099 -5.43094 0
M  V30 10112 C 922.762 -3.31498 -6.21521 0
M  V30 10113 H 918.861 0.0749709 -0.778398 0
M  V30 10114 H 921.445 -0.430557 -1.8988 0
M  V30 10115 H 919.616 1.41182 -3.61832 0
M  V30 10116 H 921.348 1.29231 -3.83512 0
M  V30 10117 H 918.103 -0.529238 -4.70634 0
M  V30 10118 H 918.527 -2.66739 -6.22237 0
M  V30 10119 H 923.169 -0.598284 -4.18546 0
M  V30 10120 H 920.887 -4.05717 -6.9887 0
M  V30 10121 H 924.473 -2.37225 -5.31239 0
M  V30 10122 H 923.353 -4.07872 -6.69784 0
M  V30 10123 N 920.856 1.57574 -0.0284266 0
M  V30 10124 C 922.081 1.96479 0.664137 0
M  V30 10125 C 922.506 0.904826 1.64908 0
M  V30 10126 O 921.864 -0.134339 1.80802 0
M  V30 10127 C 921.912 3.34479 1.34745 0
M  V30 10128 O 921.016 3.30794 2.46271 0
M  V30 10129 H 920.357 0.640654 0.174524 0
M  V30 10130 H 922.887 2.04402 -0.0900729 0
M  V30 10131 H 922.897 3.70694 1.7044 0
M  V30 10132 H 921.572 4.1117 0.625468 0
M  V30 10133 H 920.149 3.06294 2.12693 0
M  V30 10134 N 922.334 -0.244713 1.55689 0
M  V30 10135 C 923.564 -0.988508 1.81417 0
M  V30 10136 C 923.972 -1.79362 0.602143 0
M  V30 10137 O 923.315 -1.78386 -0.438639 0
M  V30 10138 C 923.377 -1.97287 3.0053 0
M  V30 10139 C 923.041 -1.35448 4.36466 0
M  V30 10140 C 924.038 -0.755874 5.14376 0
M  V30 10141 C 921.723 -1.37319 4.83165 0
M  V30 10142 C 923.717 -0.184218 6.37134 0
M  V30 10143 C 921.404 -0.797681 6.05871 0
M  V30 10144 C 922.402 -0.204224 6.82695 0
M  V30 10145 O 922.09 0.362392 8.03083 0
M  V30 10146 H 921.822 -0.296412 0.607549 0
M  V30 10147 H 924.376 -0.272185 2.03589 0
M  V30 10148 H 922.606 -2.72756 2.74119 0
M  V30 10149 H 924.295 -2.58028 3.13331 0
M  V30 10150 H 925.061 -0.733912 4.79415 0
M  V30 10151 H 920.94 -1.8245 4.23359 0
M  V30 10152 H 924.484 0.279624 6.97039 0
M  V30 10153 H 920.381 -0.816978 6.40309 0
M  V30 10154 H 921.149 0.254467 8.18104 0
M  V30 10155 N 923.813 -1.49104 -0.510467 0
M  V30 10156 C 925.061 -1.578 -1.26268 0
M  V30 10157 C 925.382 -0.262349 -1.93227 0
M  V30 10158 O 924.652 0.717624 -1.82283 0
M  V30 10159 H 923.232 -0.581387 -0.46904 0
M  V30 10160 H 925.894 -1.85678 -0.592423 0
M  V30 10161 H 924.99 -2.36919 -2.03165 0
M  V30 10162 N 925.291 0.760815 -1.38019 0
M  V30 10163 C 926.539 1.51673 -1.33566 0
M  V30 10164 C 926.86 1.94852 0.076024 0
M  V30 10165 O 926.13 1.67112 1.02227 0
M  V30 10166 H 924.71 0.562581 -0.491438 0
M  V30 10167 H 927.372 0.904832 -1.72623 0
M  V30 10168 H 926.468 2.41102 -1.98182 0
M  V30 10169 N 926.769 1.22769 0.988202 0
M  V30 10170 C 927.999 1.07998 1.76125 0
M  V30 10171 C 928.407 -0.372062 1.85506 0
M  V30 10172 O 927.75 -1.26946 1.3278 0
M  V30 10173 C 927.812 1.6219 3.20834 0
M  V30 10174 C 927.476 3.1086 3.34986 0
M  V30 10175 C 928.473 4.08239 3.21927 0
M  V30 10176 C 926.158 3.50411 3.59886 0
M  V30 10177 C 928.152 5.43154 3.33561 0
M  V30 10178 C 925.839 4.85473 3.71159 0
M  V30 10179 C 926.837 5.81653 3.58006 0
M  V30 10180 O 926.525 7.14263 3.68895 0
M  V30 10181 H 926.257 0.378937 0.559806 0
M  V30 10182 H 928.811 1.62925 1.25078 0
M  V30 10183 H 927.041 1.01676 3.73094 0
M  V30 10184 H 928.73 1.43011 3.79872 0
M  V30 10185 H 929.496 3.79025 3.02597 0
M  V30 10186 H 925.375 2.76068 3.69198 0
M  V30 10187 H 928.919 6.18207 3.23211 0
M  V30 10188 H 924.816 5.14365 3.89998 0
M  V30 10189 H 925.584 7.21906 3.85739 0
M  V30 10190 N 928.247 -1.18576 1.03814 0
M  V30 10191 C 929.493 -1.88773 0.741132 0
M  V30 10192 C 929.826 -1.79993 -0.729127 0
M  V30 10193 O 929.101 -1.19851 -1.53186 0
M  V30 10194 C 929.384 -3.39352 1.20468 0
M  V30 10195 C 929.237 -3.56955 2.73684 0
M  V30 10196 C 930.556 -4.32901 0.792741 0
M  V30 10197 H 927.675 -0.685482 0.270708 0
M  V30 10198 H 930.317 -1.39523 1.2897 0
M  V30 10199 H 928.467 -3.81427 0.737974 0
M  V30 10200 H 930.139 -3.2399 3.28372 0
M  V30 10201 H 928.382 -2.99696 3.13632 0
M  V30 10202 H 929.053 -4.62598 3.01176 0
M  V30 10203 H 931.529 -3.98592 1.1943 0
M  V30 10204 H 930.405 -5.36828 1.14486 0
M  V30 10205 H 930.666 -4.41052 -0.304295 0
M  V30 10206 N 929.725 -0.817259 -1.34754 0
M  V30 10207 C 930.95 -0.414423 -2.03217 0
M  V30 10208 C 931.375 0.970037 -1.61158 0
M  V30 10209 O 930.733 1.63016 -0.793436 0
M  V30 10210 C 930.781 -0.518087 -3.56859 0
M  V30 10211 O 929.885 0.464314 -4.09778 0
M  V30 10212 H 929.226 -0.171454 -0.641482 0
M  V30 10213 H 931.756 -1.10611 -1.72123 0
M  V30 10214 H 931.766 -0.391779 -4.06115 0
M  V30 10215 H 930.441 -1.52786 -3.86819 0
M  V30 10216 H 929.018 0.297361 -3.71712 0
M  V30 10217 N 931.203 1.46865 -0.571711 0
M  V30 10218 C 932.428 2.07323 -0.0564655 0
M  V30 10219 C 932.853 1.41938 1.23431 0
M  V30 10220 O 932.211 0.499334 1.74288 0
M  V30 10221 C 932.259 3.6044 0.107339 0
M  V30 10222 O 931.363 3.95558 1.1665 0
M  V30 10223 H 930.704 0.661475 -0.0578465 0
M  V30 10224 H 933.234 1.88669 -0.791524 0
M  V30 10225 H 933.244 4.06767 0.316987 0
M  V30 10226 H 931.919 4.07425 -0.835348 0
M  V30 10227 H 930.496 3.60957 0.936189 0
M  V30 10228 N 932.681 0.308908 1.54543 0
M  V30 10229 C 933.611 -0.556657 2.26768 0
M  V30 10230 C 934.592 -1.13145 1.27013 0
M  V30 10231 O 935.777 -1.15931 1.558 0
M  V30 10232 C 932.907 -1.72481 3.01443 0
M  V30 10233 C 931.861 -1.28001 4.08411 0
M  V30 10234 C 931.187 -2.53395 4.70845 0
M  V30 10235 C 932.487 -0.405497 5.20724 0
M  V30 10236 H 934.181 0.0457618 2.99365 0
M  V30 10237 H 931.727 0.0234495 1.43981 0
M  V30 10238 H 933.68 -2.3365 3.50693 0
M  V30 10239 H 932.404 -2.35359 2.26437 0
M  V30 10240 H 931.063 -0.69133 3.60022 0
M  V30 10241 H 930.711 -3.14604 3.92471 0
M  V30 10242 H 930.411 -2.2433 5.43093 0
M  V30 10243 H 931.935 -3.15352 5.22863 0
M  V30 10244 H 933.349 -0.923076 5.6582 0
M  V30 10245 H 931.746 -0.208282 5.99738 0
M  V30 10246 H 932.816 0.567412 4.81569 0
M  V30 10247 N 934.159 -1.57557 0.0367827 0
M  V30 10248 C 935.122 -2.09591 -0.927589 0
M  V30 10249 C 936.122 -1.01252 -1.24919 0
M  V30 10250 O 937.312 -1.27382 -1.18825 0
M  V30 10251 C 934.444 -2.56816 -2.24184 0
M  V30 10252 H 935.637 -2.96086 -0.476784 0
M  V30 10253 H 933.19 -1.54864 -0.211385 0
M  V30 10254 H 933.925 -1.73673 -2.73876 0
M  V30 10255 H 933.71 -3.35973 -2.0215 0
M  V30 10256 H 935.2 -2.97271 -2.93291 0
M  V30 10257 N 935.637 0.236453 -1.55816 0
M  V30 10258 C 936.567 1.29639 -1.94206 0
M  V30 10259 C 937.548 1.49667 -0.808319 0
M  V30 10260 O 938.733 1.621 -1.06945 0
M  V30 10261 C 935.863 2.64914 -2.24584 0
M  V30 10262 C 934.817 2.59565 -3.40308 0
M  V30 10263 C 934.143 3.98732 -3.56254 0
M  V30 10264 C 935.443 2.15642 -4.75706 0
M  V30 10265 H 937.137 0.977552 -2.82992 0
M  V30 10266 H 934.683 0.468804 -1.36155 0
M  V30 10267 H 936.636 3.39209 -2.50031 0
M  V30 10268 H 935.36 2.98455 -1.32636 0
M  V30 10269 H 934.019 1.87728 -3.14887 0
M  V30 10270 H 933.667 4.29556 -2.61707 0
M  V30 10271 H 933.367 3.96039 -4.34082 0
M  V30 10272 H 934.891 4.74711 -3.84033 0
M  V30 10273 H 936.305 2.79673 -5.00456 0
M  V30 10274 H 934.702 2.24039 -5.56711 0
M  V30 10275 H 935.772 1.10831 -4.72064 0
M  V30 10276 N 937.115 1.49373 0.502552 0
M  V30 10277 C 938.078 1.65413 1.58654 0
M  V30 10278 C 939.078 0.526003 1.51953 0
M  V30 10279 O 940.268 0.792421 1.55133 0
M  V30 10280 C 937.4 1.65005 2.98306 0
M  V30 10281 H 938.593 2.62095 1.45762 0
M  V30 10282 H 936.146 1.38381 0.726672 0
M  V30 10283 H 936.881 0.699014 3.16677 0
M  V30 10284 H 936.666 2.46931 3.04578 0
M  V30 10285 H 938.156 1.79477 3.77065 0
M  V30 10286 N 938.594 -0.753485 1.38421 0
M  V30 10287 C 939.819 -1.54783 1.38047 0
M  V30 10288 C 940.244 -1.8808 -0.0276371 0
M  V30 10289 O 939.602 -1.5058 -1.00973 0
M  V30 10290 C 939.65 -2.82353 2.24297 0
M  V30 10291 O 938.754 -3.77509 1.66014 0
M  V30 10292 H 938.095 -0.468151 0.470883 0
M  V30 10293 H 940.625 -0.931144 1.82184 0
M  V30 10294 H 940.635 -3.31277 2.38159 0
M  V30 10295 H 939.31 -2.57449 3.26639 0
M  V30 10296 H 937.887 -3.36212 1.61294 0
M  V30 10297 N 940.072 -1.23292 -0.981677 0
M  V30 10298 C 941.32 -1.06214 -1.71939 0
M  V30 10299 C 941.641 0.401989 -1.90812 0
M  V30 10300 O 940.911 1.28825 -1.47584 0
M  V30 10301 H 939.491 -0.390042 -0.637084 0
M  V30 10302 H 942.153 -1.54988 -1.18173 0
M  V30 10303 H 941.249 -1.54904 -2.70945 0
M  V30 10304 N 941.55 1.18024 -1.04442 0
M  V30 10305 C 942.778 1.92032 -0.770161 0
M  V30 10306 C 943.193 1.76391 0.673181 0
M  V30 10307 O 942.55 1.09604 1.45922 0
M  V30 10308 C 942.601 3.43328 -1.13173 0
M  V30 10309 O 942.322 3.5848 -2.51841 0
M  V30 10310 C 943.823 4.34427 -0.882523 0
M  V30 10311 H 941.043 0.609518 -0.280586 0
M  V30 10312 H 943.587 1.49711 -1.39308 0
M  V30 10313 H 941.742 3.83423 -0.553704 0
M  V30 10314 H 942.156 4.52166 -2.65794 0
M  V30 10315 H 943.63 5.39123 -1.18533 0
M  V30 10316 H 944.107 4.3882 0.18257 0
M  V30 10317 H 944.713 4.00035 -1.44403 0
M  V30 10318 N 943.028 0.824394 1.34319 0
M  V30 10319 C 944.276 0.41235 1.97849 0
M  V30 10320 C 944.597 -1.02841 1.65677 0
M  V30 10321 O 943.867 -1.71421 0.948245 0
M  V30 10322 H 942.447 0.149486 0.73189 0
M  V30 10323 H 945.109 1.05416 1.63931 0
M  V30 10324 H 944.205 0.532557 3.07523 0
M  V30 10325 N 944.506 -1.46559 0.579492 0
M  V30 10326 C 945.436 -2.33059 -0.143437 0
M  V30 10327 C 946.417 -1.4515 -0.886868 0
M  V30 10328 O 947.602 -1.73973 -0.862961 0
M  V30 10329 C 944.732 -3.27364 -1.15973 0
M  V30 10330 C 943.686 -4.24689 -0.531348 0
M  V30 10331 C 943.012 -5.08479 -1.65388 0
M  V30 10332 C 944.312 -5.1961 0.529391 0
M  V30 10333 H 946.006 -2.93753 0.578762 0
M  V30 10334 H 943.552 -1.41256 0.279775 0
M  V30 10335 H 945.505 -3.86732 -1.67382 0
M  V30 10336 H 944.229 -2.64771 -1.91217 0
M  V30 10337 H 942.888 -3.6658 -0.0383749 0
M  V30 10338 H 942.536 -4.42273 -2.3959 0
M  V30 10339 H 942.236 -5.74387 -1.23909 0
M  V30 10340 H 943.76 -5.70709 -2.17079 0
M  V30 10341 H 945.174 -5.73212 0.100506 0
M  V30 10342 H 943.571 -5.93843 0.86432 0
M  V30 10343 H 944.641 -4.63737 1.4169 0
M  V30 10344 N 945.984 -0.3171 -1.54377 0
M  V30 10345 C 947.231 0.28741 -2.0045 0
M  V30 10346 C 947.559 1.52648 -1.20535 0
M  V30 10347 O 946.814 1.93775 -0.273831 0
M  V30 10348 C 947.113 0.672917 -3.51008 0
M  V30 10349 C 946.779 -0.466245 -4.48483 0
M  V30 10350 C 945.441 -0.778933 -4.74854 0
M  V30 10351 C 947.793 -1.23176 -5.06436 0
M  V30 10352 C 945.121 -1.85997 -5.56437 0
M  V30 10353 C 947.473 -2.30284 -5.89196 0
M  V30 10354 C 946.137 -2.62141 -6.13872 0
M  V30 10355 H 945.407 0.105171 -0.733499 0
M  V30 10356 H 948.054 -0.439538 -1.86388 0
M  V30 10357 H 946.359 1.48019 -3.62764 0
M  V30 10358 H 948.056 1.15209 -3.84094 0
M  V30 10359 H 944.646 -0.212449 -4.28073 0
M  V30 10360 H 948.83 -1.00344 -4.8605 0
M  V30 10361 H 944.086 -2.11134 -5.73788 0
M  V30 10362 H 948.26 -2.90048 -6.33123 0
M  V30 10363 H 945.887 -3.46037 -6.76877 0
M  V30 10364 N 947.462 1.57535 -0.0451378 0
M  V30 10365 C 948.409 2.11176 0.931313 0
M  V30 10366 C 949.379 1.01765 1.31275 0
M  V30 10367 O 950.564 1.29279 1.40327 0
M  V30 10368 C 947.704 2.65639 2.20295 0
M  V30 10369 C 946.817 3.89114 1.87654 0
M  V30 10370 C 945.952 4.31914 3.09232 0
M  V30 10371 C 944.991 5.48105 2.72484 0
M  V30 10372 N 944.128 5.85986 3.86736 0
M  V30 10373 H 948.968 2.94318 0.466986 0
M  V30 10374 H 946.505 1.45462 0.218886 0
M  V30 10375 H 948.463 2.95312 2.94697 0
M  V30 10376 H 947.093 1.85303 2.64316 0
M  V30 10377 H 946.145 3.6607 1.03427 0
M  V30 10378 H 947.457 4.7358 1.56601 0
M  V30 10379 H 946.611 4.63108 3.91939 0
M  V30 10380 H 945.35 3.46247 3.43459 0
M  V30 10381 H 944.355 5.16589 1.88192 0
M  V30 10382 H 945.58 6.35482 2.39455 0
M  V30 10383 H 943.526 5.03273 4.20775 0
M  V30 10384 H 943.443 6.65129 3.5936 0
M  V30 10385 H 944.711 6.21793 4.701 0
M  V30 10386 N 948.94 -0.228186 1.55939 0
M  V30 10387 C 950.18 -0.960695 1.80416 0
M  V30 10388 C 950.544 -1.81795 0.617615 0
M  V30 10389 O 951.745 -2.58369 0.741545 0
M  V30 10390 C 950.016 -1.78298 3.09749 0
M  V30 10391 S 951.575 -2.57203 3.55517 0
M  V30 10392 H 948.393 -0.322825 0.633486 0
M  V30 10393 H 950.995 -0.226852 1.94179 0
M  V30 10394 H 949.699 -1.14323 3.94155 0
M  V30 10395 H 949.23 -2.55924 2.98775 0
M  V30 10396 H 951.245 -3.80632 3.1833 0
M  V30 10397 N 950.418 -1.49637 -0.494624 0
M  V30 10398 C 951.666 -1.5913 -1.24587 0
M  V30 10399 C 951.987 -0.282828 -1.92938 0
M  V30 10400 O 951.257 0.69825 -1.83034 0
M  V30 10401 H 949.837 -0.586329 -0.462847 0
M  V30 10402 H 952.499 -1.86296 -0.572696 0
M  V30 10403 H 951.595 -2.3906 -2.00641 0
M  V30 10404 N 951.896 0.746133 -1.38819 0
M  V30 10405 C 953.145 1.50085 -1.34749 0
M  V30 10406 C 953.458 1.95516 0.0574786 0
M  V30 10407 O 954.664 2.70601 0.22073 0
M  V30 10408 C 953.12 2.71141 -2.36665 0
M  V30 10409 C 952.728 2.32706 -3.82821 0
M  V30 10410 C 954.472 3.49005 -2.41652 0
M  V30 10411 C 952.379 3.50418 -4.76405 0
M  V30 10412 H 951.309 0.563563 -0.500912 0
M  V30 10413 H 953.96 0.814951 -1.6441 0
M  V30 10414 H 952.342 3.4175 -2.00058 0
M  V30 10415 H 953.516 1.69715 -4.28408 0
M  V30 10416 H 951.831 1.67959 -3.81023 0
M  V30 10417 H 954.428 4.36541 -3.08766 0
M  V30 10418 H 954.771 3.90687 -1.43769 0
M  V30 10419 H 955.304 2.85416 -2.77097 0
M  V30 10420 H 952.043 3.13795 -5.75511 0
M  V30 10421 H 951.563 4.12426 -4.35505 0
M  V30 10422 H 953.242 4.16901 -4.94775 0
M  V30 10423 N 953.375 1.23811 0.975125 0
M  V30 10424 C 954.338 1.02505 2.05001 0
M  V30 10425 C 955.338 -0.0150084 1.60793 0
M  V30 10426 O 956.528 0.225246 1.72738 0
M  V30 10427 C 953.66 0.552087 3.364 0
M  V30 10428 H 954.853 1.979 2.25335 0
M  V30 10429 H 952.406 1.05929 1.1493 0
M  V30 10430 H 953.141 -0.405394 3.21756 0
M  V30 10431 H 952.926 1.30267 3.69828 0
M  V30 10432 H 954.416 0.423828 4.15444 0
M  V30 10433 N 954.853 -1.17469 1.05066 0
M  V30 10434 C 956.099 -1.87976 0.761113 0
M  V30 10435 C 956.432 -1.80756 -0.709995 0
M  V30 10436 O 955.707 -1.21469 -1.51906 0
M  V30 10437 C 955.99 -3.38055 1.2406 0
M  V30 10438 C 955.843 -3.54032 2.77455 0
M  V30 10439 C 957.162 -4.32036 0.838612 0
M  V30 10440 H 954.281 -0.682573 0.277963 0
M  V30 10441 H 956.923 -1.38147 1.30443 0
M  V30 10442 H 955.073 -3.80622 0.778388 0
M  V30 10443 H 956.745 -3.20489 3.3179 0
M  V30 10444 H 954.988 -2.96352 3.16793 0
M  V30 10445 H 955.659 -4.59377 3.06066 0
M  V30 10446 H 958.135 -3.97303 1.23651 0
M  V30 10447 H 957.011 -5.35583 1.20173 0
M  V30 10448 H 957.272 -4.41349 -0.257498 0
M  V30 10449 N 956.331 -0.831506 -1.3388 0
M  V30 10450 C 957.294 -0.264773 -2.27666 0
M  V30 10451 C 958.294 0.562273 -1.50649 0
M  V30 10452 O 959.484 0.377131 -1.70069 0
M  V30 10453 C 956.616 0.627814 -3.35069 0
M  V30 10454 H 957.809 -1.09225 -2.79303 0
M  V30 10455 H 955.362 -0.604021 -1.44157 0
M  V30 10456 H 956.097 1.47802 -2.88661 0
M  V30 10457 H 955.882 0.0361552 -3.92083 0
M  V30 10458 H 957.372 1.01786 -4.05005 0
M  V30 10459 N 957.809 1.4625 -0.587256 0
M  V30 10460 C 959.22 1.85997 -0.161918 0
M  V30 10461 C 959.571 1.49025 1.27616 0
M  V30 10462 O 958.696 0.907282 1.96462 0
M  V30 10463 C 959.291 3.37582 -0.287077 0
M  V30 10464 C 957.85 3.76308 0.0834211 0
M  V30 10465 C 956.997 2.70259 -0.620932 0
M  V30 10466 H 959.948 1.3734 -0.795199 0
M  V30 10467 H 959.969 3.77379 0.486333 0
M  V30 10468 H 959.481 3.64459 -1.33383 0
M  V30 10469 H 957.582 3.55047 1.13013 0
M  V30 10470 H 957.695 4.78184 -0.296064 0
M  V30 10471 H 956.059 2.54628 -0.0607027 0
M  V30 10472 H 956.842 2.99975 -1.66942 0
M  V30 10473 N 959.287 0.325282 1.54207 0
M  V30 10474 C 960.533 -0.277185 2.00897 0
M  V30 10475 C 960.866 -1.51651 1.21308 0
M  V30 10476 O 960.141 -1.92237 0.295825 0
M  V30 10477 C 960.424 -0.60961 3.54902 0
M  V30 10478 C 960.277 0.640542 4.45216 0
M  V30 10479 C 961.596 -1.42656 4.16338 0
M  V30 10480 H 958.715 -0.0992722 0.730284 0
M  V30 10481 H 961.357 0.442201 1.84783 0
M  V30 10482 H 959.507 -1.22249 3.68765 0
M  V30 10483 H 961.179 1.27878 4.43221 0
M  V30 10484 H 959.422 1.26908 4.14821 0
M  V30 10485 H 960.093 0.363459 5.50802 0
M  V30 10486 H 962.569 -0.908494 4.06061 0
M  V30 10487 H 961.445 -1.62792 5.24204 0
M  V30 10488 H 961.706 -2.42321 3.69774 0
M  V30 10489 N 960.765 -1.57509 0.0534917 0
M  V30 10490 C 961.99 -1.97511 -0.632794 0
M  V30 10491 C 962.415 -0.930947 -1.63447 0
M  V30 10492 O 961.773 0.105558 -1.80992 0
M  V30 10493 C 961.821 -3.3658 -1.29407 0
M  V30 10494 O 960.925 -3.3467 -2.40977 0
M  V30 10495 H 960.266 -0.643349 -0.16431 0
M  V30 10496 H 962.796 -2.04232 0.12258 0
M  V30 10497 H 962.806 -3.73359 -1.64521 0
M  V30 10498 H 961.481 -4.12113 -0.559976 0
M  V30 10499 H 960.058 -3.09639 -2.07793 0
M  V30 10500 N 962.243 0.219913 -1.56058 0
M  V30 10501 C 963.468 0.965073 -1.83579 0
M  V30 10502 C 963.893 1.77092 -0.634024 0
M  V30 10503 O 963.251 1.76434 0.417205 0
M  V30 10504 C 963.299 1.85705 -3.09105 0
M  V30 10505 O 962.403 2.95261 -2.87914 0
M  V30 10506 H 961.744 0.273173 -0.605204 0
M  V30 10507 H 964.274 0.23273 -2.03272 0
M  V30 10508 H 964.284 2.26655 -3.39252 0
M  V30 10509 H 962.959 1.26476 -3.96203 0
M  V30 10510 H 961.536 2.58246 -2.69005 0
M  V30 10511 N 963.721 1.49897 0.486681 0
M  V30 10512 C 964.967 1.61313 1.23893 0
M  V30 10513 C 965.322 0.302457 1.90008 0
M  V30 10514 O 964.615 -0.698466 1.78415 0
M  V30 10515 C 964.809 2.71982 2.31863 0
M  V30 10516 C 964.638 4.13685 1.76338 0
M  V30 10517 C 963.408 4.8029 1.57002 0
M  V30 10518 C 965.606 4.98446 1.26711 0
M  V30 10519 N 963.588 6.06259 0.965564 0
M  V30 10520 C 964.959 6.15011 0.784912 0
M  V30 10521 C 967.014 4.84338 1.15419 0
M  V30 10522 C 965.717 7.19019 0.200942 0
M  V30 10523 C 967.743 5.88508 0.584173 0
M  V30 10524 C 967.105 7.04311 0.112272 0
M  V30 10525 H 963.204 0.644555 0.442801 0
M  V30 10526 H 965.788 1.86959 0.543562 0
M  V30 10527 H 963.959 2.48086 2.98844 0
M  V30 10528 H 965.691 2.72842 2.98897 0
M  V30 10529 H 962.446 4.37324 1.81781 0
M  V30 10530 H 962.87 6.73554 0.6822 0
M  V30 10531 H 967.512 3.95107 1.50499 0
M  V30 10532 H 965.23 8.07937 -0.162099 0
M  V30 10533 H 968.816 5.79653 0.49938 0
M  V30 10534 H 967.696 7.83539 -0.321907 0
M  V30 10535 N 965.199 -0.738761 1.39212 0
M  V30 10536 C 966.109 -1.88324 1.39897 0
M  V30 10537 C 967.125 -1.71494 0.294229 0
M  V30 10538 O 968.301 -1.94162 0.535087 0
M  V30 10539 C 965.366 -3.23871 1.23726 0
M  V30 10540 C 964.427 -3.53121 2.44139 0
M  V30 10541 C 963.66 -4.82202 2.2873 0
M  V30 10542 O 963.883 -5.55649 1.28879 0
M  V30 10543 O 962.817 -5.11265 3.17634 0
M  V30 10544 H 966.643 -1.90701 2.36362 0
M  V30 10545 H 964.228 -0.886067 1.20288 0
M  V30 10546 H 966.11 -4.04882 1.16826 0
M  V30 10547 H 964.785 -3.22274 0.303551 0
M  V30 10548 H 963.692 -2.72212 2.56615 0
M  V30 10549 H 965.025 -3.59495 3.36191 0
M  V30 10550 N 966.677 -1.24326 -0.968545 0
M  V30 10551 C 967.907 -1.10786 -1.74385 0
M  V30 10552 C 968.315 0.342503 -1.86074 0
M  V30 10553 O 967.658 1.24817 -1.34782 0
M  V30 10554 C 967.72 -1.67274 -3.18213 0
M  V30 10555 C 967.384 -3.1615 -3.29998 0
M  V30 10556 C 968.381 -4.13309 -3.15392 0
M  V30 10557 C 966.066 -3.56092 -3.54265 0
M  V30 10558 C 968.06 -5.48392 -3.24878 0
M  V30 10559 C 965.747 -4.91316 -3.63389 0
M  V30 10560 C 966.745 -5.87275 -3.48707 0
M  V30 10561 O 966.433 -7.20041 -3.57485 0
M  V30 10562 H 966.165 -0.387795 -0.553706 0
M  V30 10563 H 968.719 -1.64894 -1.22471 0
M  V30 10564 H 966.949 -1.07598 -3.71429 0
M  V30 10565 H 968.638 -1.49036 -3.77549 0
M  V30 10566 H 969.404 -3.83792 -2.96528 0
M  V30 10567 H 965.283 -2.81907 -3.6476 0
M  V30 10568 H 968.827 -6.23271 -3.13335 0
M  V30 10569 H 964.724 -5.20505 -3.81766 0
M  V30 10570 H 965.492 -7.27951 -3.74205 0
M  V30 10571 N 968.156 1.1691 -1.05688 0
M  V30 10572 C 969.386 1.90927 -0.789339 0
M  V30 10573 C 969.794 1.77339 0.659369 0
M  V30 10574 O 969.137 1.11147 1.4626 0
M  V30 10575 C 969.199 3.42361 -1.09677 0
M  V30 10576 C 968.863 3.79733 -2.54267 0
M  V30 10577 C 969.86 3.82163 -3.52487 0
M  V30 10578 C 967.545 4.10547 -2.89406 0
M  V30 10579 C 969.539 4.14884 -4.8389 0
M  V30 10580 C 967.226 4.42936 -4.21011 0
M  V30 10581 C 968.224 4.45084 -5.18063 0
M  V30 10582 O 967.912 4.76707 -6.47307 0
M  V30 10583 H 967.644 0.612466 -0.286115 0
M  V30 10584 H 970.198 1.4916 -1.4121 0
M  V30 10585 H 968.428 3.84446 -0.416924 0
M  V30 10586 H 970.117 3.97645 -0.814456 0
M  V30 10587 H 970.883 3.58476 -3.26681 0
M  V30 10588 H 966.762 4.08044 -2.14525 0
M  V30 10589 H 970.306 4.16475 -5.59638 0
M  V30 10590 H 966.203 4.66088 -4.46579 0
M  V30 10591 H 966.971 4.94544 -6.52203 0
M  V30 10592 N 969.634 0.838594 1.33437 0
M  V30 10593 C 970.597 0.276843 2.27522 0
M  V30 10594 C 971.597 -0.554275 1.50945 0
M  V30 10595 O 972.787 -0.368107 1.70266 0
M  V30 10596 C 969.919 -0.610036 3.35397 0
M  V30 10597 H 971.112 1.10705 2.78719 0
M  V30 10598 H 968.665 0.611657 1.43835 0
M  V30 10599 H 969.4 -1.46269 2.89441 0
M  V30 10600 H 969.185 -0.0153615 3.92097 0
M  V30 10601 H 970.675 -0.996368 4.05539 0
M  V30 10602 N 971.112 -1.45937 0.595003 0
M  V30 10603 C 972.337 -2.07207 0.0894416 0
M  V30 10604 C 972.762 -1.43884 -1.21157 0
M  V30 10605 O 972.12 -0.526998 -1.73472 0
M  V30 10606 C 972.168 -3.60565 -0.0499828 0
M  V30 10607 O 971.272 -3.97364 -1.10342 0
M  V30 10608 H 970.613 -0.660471 0.0683627 0
M  V30 10609 H 973.143 -1.87386 0.82144 0
M  V30 10610 H 973.153 -4.0722 -0.252234 0
M  V30 10611 H 971.828 -4.06044 0.90006 0
M  V30 10612 H 970.405 -3.62401 -0.878645 0
M  V30 10613 N 972.59 -0.333456 -1.54032 0
M  V30 10614 C 973.836 0.266527 -2.01041 0
M  V30 10615 C 974.169 1.51006 -1.2211 0
M  V30 10616 O 973.444 1.92078 -0.306016 0
M  V30 10617 C 973.727 0.59078 -3.55221 0
M  V30 10618 C 973.58 -0.664143 -4.4487 0
M  V30 10619 C 974.899 1.40447 -4.17088 0
M  V30 10620 H 972.018 0.0953979 -0.7308 0
M  V30 10621 H 974.66 -0.451995 -1.84545 0
M  V30 10622 H 972.81 1.20292 -3.69408 0
M  V30 10623 H 974.482 -1.30227 -4.42537 0
M  V30 10624 H 972.725 -1.29106 -4.14143 0
M  V30 10625 H 973.396 -0.392664 -5.50602 0
M  V30 10626 H 975.872 0.886946 -4.06537 0
M  V30 10627 H 974.748 1.6001 -5.2506 0
M  V30 10628 H 975.009 2.40357 -3.71054 0
M  V30 10629 N 974.068 1.57479 -0.061844 0
M  V30 10630 C 975.298 1.97142 0.61794 0
M  V30 10631 C 975.706 0.938533 1.64281 0
M  V30 10632 O 975.049 -0.084385 1.83506 0
M  V30 10633 C 975.111 3.33083 1.35263 0
M  V30 10634 C 974.775 4.54447 0.482372 0
M  V30 10635 C 975.772 5.1927 -0.255954 0
M  V30 10636 C 973.457 5.00623 0.410167 0
M  V30 10637 C 975.451 6.28612 -1.05481 0
M  V30 10638 C 973.138 6.09839 -0.392369 0
M  V30 10639 C 974.136 6.73696 -1.12354 0
M  V30 10640 O 973.824 7.80811 -1.91285 0
M  V30 10641 H 973.556 0.653497 0.172969 0
M  V30 10642 H 976.11 2.05002 -0.127781 0
M  V30 10643 H 974.34 3.21808 2.14421 0
M  V30 10644 H 976.029 3.5742 1.92368 0
M  V30 10645 H 976.795 4.84546 -0.209703 0
M  V30 10646 H 972.674 4.50704 0.968883 0
M  V30 10647 H 976.218 6.78385 -1.62602 0
M  V30 10648 H 972.115 6.43997 -0.44022 0
M  V30 10649 H 972.883 7.9764 -1.83611 0
M  V30 10650 N 975.546 -0.211634 1.56173 0
M  V30 10651 C 976.774 -0.951184 1.83739 0
M  V30 10652 C 977.189 -1.7754 0.642252 0
M  V30 10653 O 976.546 -1.78302 -0.389174 0
M  V30 10654 C 976.597 -1.86075 3.09933 0
M  V30 10655 O 976.318 -1.06983 4.24837 0
M  V30 10656 C 977.819 -2.71337 3.50559 0
M  V30 10657 H 975.039 -0.278312 0.61056 0
M  V30 10658 H 977.583 -0.223871 2.03271 0
M  V30 10659 H 975.738 -2.54189 2.92347 0
M  V30 10660 H 976.152 -1.68815 4.9659 0
M  V30 10661 H 977.626 -3.30843 4.41868 0
M  V30 10662 H 978.103 -3.44226 2.72773 0
M  V30 10663 H 978.709 -2.0862 3.70618 0
M  V30 10664 N 977.024 -1.50153 -0.478725 0
M  V30 10665 C 977.934 -1.71232 -1.60364 0
M  V30 10666 C 978.95 -0.595269 -1.63501 0
M  V30 10667 O 980.126 -0.872683 -1.81511 0
M  V30 10668 C 977.191 -1.79487 -2.96623 0
M  V30 10669 C 976.252 -3.03185 -3.03937 0
M  V30 10670 C 975.485 -3.11036 -4.33696 0
M  V30 10671 O 975.708 -2.2588 -5.23769 0
M  V30 10672 O 974.642 -4.03698 -4.46443 0
M  V30 10673 H 978.468 -2.66575 -1.45505 0
M  V30 10674 H 976.053 -1.34158 -0.65741 0
M  V30 10675 H 977.935 -1.8714 -3.77567 0
M  V30 10676 H 976.61 -0.873264 -3.11698 0
M  V30 10677 H 975.517 -3.01036 -2.22099 0
M  V30 10678 H 976.85 -3.94898 -2.93796 0
M  V30 10679 N 978.502 0.731368 -1.39602 0
M  V30 10680 C 979.918 1.03739 -1.21286 0
M  V30 10681 C 980.118 2.01353 -0.0769875 0
M  V30 10682 O 979.174 2.45978 0.570193 0
M  V30 10683 C 980.487 1.59621 -2.54837 0
M  V30 10684 C 982.035 1.71683 -2.61713 0
M  V30 10685 C 982.51 2.30973 -3.95494 0
M  V30 10686 N 984.001 2.38378 -3.97153 0
M  V30 10687 C 984.736 2.852 -4.97442 0
M  V30 10688 N 984.232 3.31891 -6.08129 0
M  V30 10689 N 986.025 2.84441 -4.84819 0
M  V30 10690 H 978.176 0.0840456 -2.12234 0
M  V30 10691 H 980.439 0.0999038 -0.942721 0
M  V30 10692 H 980.145 0.953608 -3.38525 0
M  V30 10693 H 980.019 2.58375 -2.74813 0
M  V30 10694 H 982.406 2.35064 -1.78406 0
M  V30 10695 H 982.487 0.715714 -2.45583 0
M  V30 10696 H 982.131 1.68219 -4.79234 0
M  V30 10697 H 982.061 3.31769 -4.08946 0
M  V30 10698 H 984.552 2.05382 -3.17217 0
M  V30 10699 H 984.865 3.66138 -6.8056 0
M  V30 10700 H 983.21 3.2989 -6.11717 0
M  V30 10701 H 986.401 2.4729 -3.97448 0
M  V30 10702 H 986.574 3.20616 -5.63124 0
M  V30 10703 N 979.98 1.24838 0.961938 0
M  V30 10704 C 981.227 1.09151 1.70564 0
M  V30 10705 C 981.555 -0.368719 1.90973 0
M  V30 10706 O 980.81 -1.28854 1.47293 0
M  V30 10707 C 981.109 1.78289 3.09754 0
M  V30 10708 C 980.775 3.28216 3.09169 0
M  V30 10709 C 979.437 3.69118 3.08716 0
M  V30 10710 C 981.789 4.24035 3.03058 0
M  V30 10711 C 979.117 5.04263 2.99892 0
M  V30 10712 C 981.469 5.59195 2.95776 0
M  V30 10713 C 980.133 5.99436 2.93655 0
M  V30 10714 H 979.403 0.399414 0.624139 0
M  V30 10715 H 982.05 1.55016 1.12438 0
M  V30 10716 H 980.355 1.24835 3.7138 0
M  V30 10717 H 982.052 1.63612 3.66104 0
M  V30 10718 H 978.642 2.95667 3.10289 0
M  V30 10719 H 982.826 3.93431 3.02532 0
M  V30 10720 H 978.082 5.3463 2.96615 0
M  V30 10721 H 982.256 6.33142 2.90007 0
M  V30 10722 H 979.883 7.04116 2.86573 0
M  V30 10723 N 981.458 -1.16348 1.06306 0
M  V30 10724 C 982.391 -2.19667 0.618197 0
M  V30 10725 C 983.369 -1.58586 -0.359078 0
M  V30 10726 O 984.553 -1.86585 -0.268023 0
M  V30 10727 C 981.68 -3.3857 -0.0937091 0
M  V30 10728 C 980.726 -4.18139 0.840339 0
M  V30 10729 S 981.559 -4.81879 2.33565 0
M  V30 10730 C 982.715 -6.04161 1.63524 0
M  V30 10731 H 982.948 -2.57063 1.49352 0
M  V30 10732 H 980.481 -1.27141 0.876046 0
M  V30 10733 H 982.439 -4.07465 -0.498227 0
M  V30 10734 H 981.1 -2.9954 -0.94523 0
M  V30 10735 H 980.293 -5.03172 0.288781 0
M  V30 10736 H 979.895 -3.54739 1.18474 0
M  V30 10737 H 982.187 -6.70935 0.940904 0
M  V30 10738 H 983.13 -6.63866 2.46347 0
M  V30 10739 H 983.538 -5.53323 1.11778 0
M  V30 10740 N 982.937 -0.845659 -1.3299 0
M  V30 10741 C 984.185 -0.443774 -1.97168 0
M  V30 10742 C 984.506 1.00192 -1.67292 0
M  V30 10743 O 983.776 1.69891 -0.975397 0
M  V30 10744 H 982.356 -0.161111 -0.729419 0
M  V30 10745 H 985.018 -1.08011 -1.62233 0
M  V30 10746 H 984.114 -0.581414 -3.06637 0
M  V30 10747 N 984.415 1.45619 -0.602734 0
M  V30 10748 C 985.345 2.33258 0.106342 0
M  V30 10749 C 986.326 1.46543 0.863664 0
M  V30 10750 O 987.511 1.75324 0.835175 0
M  V30 10751 C 984.641 3.29168 1.10751 0
M  V30 10752 C 983.595 4.25481 0.463717 0
M  V30 10753 C 982.921 5.11046 1.57278 0
M  V30 10754 C 984.221 5.18702 -0.61199 0
M  V30 10755 H 985.915 2.92795 -0.625423 0
M  V30 10756 H 983.461 1.40793 -0.302213 0
M  V30 10757 H 985.414 3.89346 1.61208 0
M  V30 10758 H 984.138 2.6778 1.8698 0
M  V30 10759 H 982.797 3.66595 -0.0199496 0
M  V30 10760 H 982.445 4.46029 2.32524 0
M  V30 10761 H 982.145 5.76286 1.14755 0
M  V30 10762 H 983.669 5.74091 2.07972 0
M  V30 10763 H 985.083 5.72979 -0.191686 0
M  V30 10764 H 983.48 5.92393 -0.958686 0
M  V30 10765 H 984.55 4.61424 -1.4905 0
M  V30 10766 N 985.893 0.34162 1.53853 0
M  V30 10767 C 987.304 -0.14269 1.86154 0
M  V30 10768 C 987.655 -1.50151 1.2629 0
M  V30 10769 O 986.78 -2.08601 0.575735 0
M  V30 10770 C 987.375 -0.265691 3.37757 0
M  V30 10771 C 985.934 -0.694231 3.69942 0
M  V30 10772 C 985.081 0.173195 2.76759 0
M  V30 10773 H 988.032 0.561284 1.48443 0
M  V30 10774 H 988.053 -1.09352 3.64448 0
M  V30 10775 H 987.565 0.723424 3.81298 0
M  V30 10776 H 985.666 -1.69244 3.31945 0
M  V30 10777 H 985.779 -0.485461 4.76634 0
M  V30 10778 H 984.143 -0.35416 2.52226 0
M  V30 10779 H 984.926 1.15941 3.23129 0
M  V30 10780 N 987.371 -1.57444 0.0701946 0
M  V30 10781 C 988.599 -1.97754 -0.608358 0
M  V30 10782 C 989.014 -0.948496 -1.63245 0
M  V30 10783 O 988.371 0.065046 -1.82384 0
M  V30 10784 C 988.422 -3.38142 -1.27836 0
M  V30 10785 O 988.143 -4.37104 -0.295255 0
M  V30 10786 C 989.644 -3.93318 -2.04489 0
M  V30 10787 H 986.864 -0.650398 -0.164997 0
M  V30 10788 H 989.408 -2.04006 0.142124 0
M  V30 10789 H 987.563 -3.32982 -1.97994 0
M  V30 10790 H 987.977 -5.18732 -0.77574 0
M  V30 10791 H 989.451 -4.93774 -2.46762 0
M  V30 10792 H 989.928 -3.29774 -2.90079 0
M  V30 10793 H 990.534 -4.01875 -1.39201 0
M  V30 10794 N 988.849 0.203349 -1.56283 0
M  V30 10795 C 989.796 1.25205 -1.93888 0
M  V30 10796 C 990.766 1.45654 -0.798376 0
M  V30 10797 O 991.951 1.58924 -1.05583 0
M  V30 10798 C 989.091 2.59355 -2.27659 0
M  V30 10799 C 988.204 2.46553 -3.54733 0
M  V30 10800 C 987.339 3.73351 -3.77865 0
M  V30 10801 C 986.378 3.55347 -4.98392 0
M  V30 10802 N 985.515 4.74137 -5.17821 0
M  V30 10803 H 990.355 0.924356 -2.83301 0
M  V30 10804 H 987.892 0.445082 -1.40205 0
M  V30 10805 H 989.85 3.375 -2.45254 0
M  V30 10806 H 988.48 2.90184 -1.41396 0
M  V30 10807 H 987.532 1.59749 -3.45231 0
M  V30 10808 H 988.844 2.2918 -4.43033 0
M  V30 10809 H 987.998 4.59937 -3.95655 0
M  V30 10810 H 986.737 3.9367 -2.8788 0
M  V30 10811 H 985.742 2.67146 -4.80534 0
M  V30 10812 H 986.967 3.36482 -5.89879 0
M  V30 10813 H 984.913 4.94735 -4.30782 0
M  V30 10814 H 984.83 4.59558 -6.00285 0
M  V30 10815 H 986.098 5.62098 -5.40061 0
M  V30 10816 N 990.327 1.50405 0.470755 0
M  V30 10817 C 991.604 1.51929 1.23195 0
M  V30 10818 C 991.984 0.264159 2.09441 0
M  V30 10819 O 991.332 -0.752395 2.15757 0
M  V30 10820 C 991.542 2.81521 2.06269 0
M  V30 10821 C 992.89 3.32195 2.64446 0
M  V30 10822 O 993.914 2.82845 2.16511 0
M  V30 10823 O 992.773 4.18221 3.51786 0
M  V30 10824 H 989.867 0.609411 0.559059 0
M  V30 10825 H 992.413 1.62695 0.482549 0
M  V30 10826 H 991.185 3.64346 1.42715 0
M  V30 10827 H 990.808 2.7376 2.88342 0
M  V30 10828 N 991.805 -0.723954 1.39988 0
M  V30 10829 C 993.082 -1.4763 1.28316 0
M  V30 10830 C 993.462 -2.10852 -0.102302 0
M  V30 10831 O 992.81 -1.9948 -1.11445 0
M  V30 10832 C 993.02 -2.51878 2.41574 0
M  V30 10833 C 994.368 -3.17948 2.81415 0
M  V30 10834 O 995.392 -2.62195 2.41106 0
M  V30 10835 O 994.251 -4.18858 3.51027 0
M  V30 10836 H 991.345 -0.656092 0.50346 0
M  V30 10837 H 993.891 -0.75684 1.51888 0
M  V30 10838 H 992.663 -2.03618 3.34149 0
M  V30 10839 H 992.286 -3.3137 2.19727 0
M  V30 10840 N 993.283 -1.25346 -0.955304 0
M  V30 10841 C 994.231 -1.05461 -2.07318 0
M  V30 10842 C 995.225 0.0142699 -1.69394 0
M  V30 10843 O 996.431 -0.141292 -1.79445 0
M  V30 10844 H 992.806 -0.324095 -0.678577 0
M  V30 10845 H 994.777 -2.00231 -2.21247 0
M  V30 10846 C 993.526 -0.689329 -3.40798 0
M  V30 10847 H 992.849 -1.50362 -3.70447 0
M  V30 10848 H 994.289 -0.589883 -4.19877 0
M  V30 10849 C 992.748 0.604556 -3.31431 0
M  V30 10850 O 993.278 1.64686 -3.6639 0
M  V30 10851 N 991.484 0.589927 -2.84549 0
M  V30 10852 H 991.031 -0.258647 -2.56298 0
M  V30 10853 H 990.989 1.4558 -2.78664 0
M  V30 10854 N 994.761 1.15782 -1.06922 0
M  V30 10855 C 995.691 2.22538 -0.707045 0
M  V30 10856 C 996.672 1.67371 0.303471 0
M  V30 10857 O 997.857 1.9339 0.177189 0
M  V30 10858 C 994.987 3.47158 -0.0994269 0
M  V30 10859 C 993.941 4.15257 -1.03661 0
M  V30 10860 C 993.267 5.33902 -0.291974 0
M  V30 10861 C 994.567 4.65516 -2.36837 0
M  V30 10862 H 996.261 2.53089 -1.59958 0
M  V30 10863 H 993.807 1.21649 -0.770552 0
M  V30 10864 H 995.76 4.21073 0.165852 0
M  V30 10865 H 994.484 3.15926 0.828155 0
M  V30 10866 H 993.143 3.43276 -1.28674 0
M  V30 10867 H 992.791 4.98926 0.638928 0
M  V30 10868 H 992.491 5.80407 -0.916613 0
M  V30 10869 H 994.015 6.1059 -0.0343915 0
M  V30 10870 H 995.429 5.30981 -2.16175 0
M  V30 10871 H 993.826 5.22666 -2.94856 0
M  V30 10872 H 994.896 3.81387 -2.99453 0
M  V30 10873 N 996.239 0.8527 1.3254 0
M  V30 10874 C 997.149 0.298744 2.3269 0
M  V30 10875 C 998.165 -0.582418 1.63963 0
M  V30 10876 O 999.341 -0.483253 1.95516 0
M  V30 10877 C 996.406 -0.505453 3.42996 0
M  V30 10878 C 995.467 0.401618 4.27417 0
M  V30 10879 C 994.7 -0.364294 5.32455 0
M  V30 10880 O 994.923 -1.59448 5.47661 0
M  V30 10881 O 993.857 0.268892 6.01299 0
M  V30 10882 H 997.683 1.12843 2.81958 0
M  V30 10883 H 995.268 0.615584 1.36128 0
M  V30 10884 H 997.15 -0.961974 4.10273 0
M  V30 10885 H 995.825 -1.31197 2.95921 0
M  V30 10886 H 994.732 0.906274 3.62957 0
M  V30 10887 H 996.065 1.17327 4.78012 0
M  V30 10888 N 997.718 -1.45297 0.610449 0
M  V30 10889 C 998.668 -2.27639 -0.128194 0
M  V30 10890 C 999.652 -1.37485 -0.835861 0
M  V30 10891 O 1000.84 -1.61454 -0.725378 0
M  V30 10892 C 997.973 -3.24413 -1.123 0
M  V30 10893 C 997.059 -4.22055 -0.416029 0
M  V30 10894 N 997.45 -5.02867 0.543921 0
M  V30 10895 C 995.748 -4.41041 -0.663208 0
M  V30 10896 C 996.449 -5.73728 0.959731 0
M  V30 10897 N 995.425 -5.42756 0.302873 0
M  V30 10898 H 999.227 -2.8752 0.609056 0
M  V30 10899 H 996.741 -1.56484 0.434338 0
M  V30 10900 H 998.738 -3.82139 -1.6666 0
M  V30 10901 H 997.398 -2.66092 -1.86078 0
M  V30 10902 H 998.409 -5.09649 0.920799 0
M  V30 10903 H 995.086 -3.93842 -1.38544 0
M  V30 10904 H 996.476 -6.48666 1.75163 0
M  V30 10905 N 999.196 -0.349774 -1.5367 0
M  V30 10906 C 1000.43 0.245682 -2.05134 0
M  V30 10907 C 1000.83 1.44269 -1.22406 0
M  V30 10908 O 1000.18 1.81938 -0.25379 0
M  V30 10909 C 1000.24 0.718439 -3.52248 0
M  V30 10910 C 999.903 -0.35975 -4.55582 0
M  V30 10911 C 1000.9 -1.20449 -5.05755 0
M  V30 10912 C 998.585 -0.515463 -4.99648 0
M  V30 10913 C 1000.58 -2.19043 -5.98581 0
M  V30 10914 C 998.266 -1.50479 -5.92283 0
M  V30 10915 C 999.264 -2.34072 -6.41638 0
M  V30 10916 O 998.952 -3.31319 -7.3245 0
M  V30 10917 H 998.684 0.0501122 -0.67414 0
M  V30 10918 H 1001.24 -0.5018 -1.99176 0
M  V30 10919 H 999.468 1.51727 -3.55691 0
M  V30 10920 H 1001.16 1.23513 -3.86651 0
M  V30 10921 H 1001.92 -1.09531 -4.7247 0
M  V30 10922 H 997.802 0.12537 -4.60829 0
M  V30 10923 H 1001.35 -2.84327 -6.37027 0
M  V30 10924 H 997.243 -1.61451 -6.24983 0
M  V30 10925 H 998.011 -3.26863 -7.50402 0
M  V30 10926 N 1000.67 1.57404 -0.0785433 0
M  V30 10927 C 1001.62 2.13104 0.88631 0
M  V30 10928 C 1002.59 1.04527 1.29086 0
M  V30 10929 O 1003.78 1.32226 1.37553 0
M  V30 10930 C 1000.92 2.70252 2.14611 0
M  V30 10931 C 1000.03 3.93007 1.79358 0
M  V30 10932 C 999.164 4.38376 3 0
M  V30 10933 C 998.203 5.53761 2.60796 0
M  V30 10934 N 997.34 5.94058 3.74219 0
M  V30 10935 H 1002.18 2.95243 0.404452 0
M  V30 10936 H 999.717 1.45894 0.187982 0
M  V30 10937 H 1001.67 3.01497 2.88367 0
M  V30 10938 H 1000.3 1.90868 2.60326 0
M  V30 10939 H 999.357 3.68181 0.956384 0
M  V30 10940 H 1000.67 4.76795 1.4652 0
M  V30 10941 H 999.823 4.71317 3.82027 0
M  V30 10942 H 998.562 3.53455 3.36037 0
M  V30 10943 H 997.567 5.20464 1.77192 0
M  V30 10944 H 998.792 6.40419 2.25922 0
M  V30 10945 H 996.738 5.12085 4.10005 0
M  V30 10946 H 996.655 6.72602 3.45171 0
M  V30 10947 H 997.923 6.31624 4.56805 0
M  V30 10948 N 1002.15 -0.195058 1.56388 0
M  V30 10949 C 1003.1 -1.26122 1.95438 0
M  V30 10950 C 1004.09 -1.47117 0.839818 0
M  V30 10951 O 1005.3 -1.47978 1.02482 0
M  V30 10952 H 1001.67 -0.423422 0.621464 0
M  V30 10953 H 1003.65 -0.904854 2.8435 0
M  V30 10954 C 1002.39 -2.59858 2.31017 0
M  V30 10955 H 1001.72 -2.44519 3.16308 0
M  V30 10956 H 1003.16 -3.33205 2.62203 0
M  V30 10957 C 1001.62 -3.16853 1.14481 0
M  V30 10958 O 1002.15 -3.995 0.419853 0
M  V30 10959 N 1000.35 -2.75599 0.921604 0
M  V30 10960 H 999.9 -2.08495 1.51287 0
M  V30 10961 H 999.858 -3.14072 0.143663 0
M  V30 10962 N 1003.63 -1.50653 -0.462772 0
M  V30 10963 C 1004.85 -1.66103 -1.24196 0
M  V30 10964 C 1005.28 -0.347421 -1.84864 0
M  V30 10965 O 1004.64 0.689673 -1.6767 0
M  V30 10966 C 1004.69 -2.76027 -2.32037 0
M  V30 10967 O 1003.79 -2.37859 -3.36893 0
M  V30 10968 H 1003.13 -0.554672 -0.365014 0
M  V30 10969 H 1005.66 -1.97076 -0.549734 0
M  V30 10970 H 1005.67 -2.99354 -2.77221 0
M  V30 10971 H 1004.35 -3.71361 -1.87253 0
M  V30 10972 H 1002.92 -2.2501 -2.97363 0
M  V30 10973 N 1005.11 0.71652 -1.4037 0
M  V30 10974 C 1006.34 1.50563 -1.4191 0
M  V30 10975 C 1006.75 1.88791 -0.0185456 0
M  V30 10976 O 1006.11 1.55378 0.957289 0
M  V30 10977 C 1006.16 2.78155 -2.30894 0
M  V30 10978 O 1005.88 2.41543 -3.65497 0
M  V30 10979 C 1007.38 3.72057 -2.41016 0
M  V30 10980 H 1004.6 0.464679 -0.48406 0
M  V30 10981 H 1007.15 0.883927 -1.8441 0
M  V30 10982 H 1005.3 3.36611 -1.91759 0
M  V30 10983 H 1005.71 3.23636 -4.12747 0
M  V30 10984 H 1007.19 4.58426 -3.07489 0
M  V30 10985 H 1007.67 4.15098 -1.43492 0
M  V30 10986 H 1008.27 3.19512 -2.80699 0
M  V30 10987 N 1006.59 1.25851 0.948643 0
M  V30 10988 C 1007.83 1.11119 1.69648 0
M  V30 10989 C 1008.17 -0.345995 1.91093 0
M  V30 10990 O 1007.44 -1.25467 1.48621 0
M  V30 10991 C 1007.72 1.87261 3.0758 0
M  V30 10992 C 1007.58 3.40842 2.93507 0
M  V30 10993 C 1008.9 1.6605 4.07573 0
M  V30 10994 H 1006.01 0.405052 0.615713 0
M  V30 10995 H 1008.66 1.54756 1.10229 0
M  V30 10996 H 1006.81 1.50172 3.58303 0
M  V30 10997 H 1008.48 3.87641 2.50064 0
M  V30 10998 H 1006.72 3.68248 2.29294 0
M  V30 10999 H 1007.39 3.89339 3.91305 0
M  V30 11000 H 1009.87 1.98348 3.65783 0
M  V30 11001 H 1008.74 2.21753 5.02113 0
M  V30 11002 H 1009.01 0.603256 4.37965 0
M  V30 11003 N 1008.06 -1.15214 1.07534 0
M  V30 11004 C 1009 -2.18999 0.641461 0
M  V30 11005 C 1009.98 -1.58958 -0.342238 0
M  V30 11006 O 1011.16 -1.86859 -0.248218 0
M  V30 11007 C 1008.29 -3.38651 -0.0577939 0
M  V30 11008 C 1007.33 -4.17225 0.884641 0
M  V30 11009 S 1008.17 -4.79375 2.38663 0
M  V30 11010 C 1009.32 -6.02393 1.69923 0
M  V30 11011 H 1009.55 -2.55464 1.52071 0
M  V30 11012 H 1007.09 -1.26205 0.889481 0
M  V30 11013 H 1009.05 -4.07971 -0.454982 0
M  V30 11014 H 1007.71 -3.00526 -0.913407 0
M  V30 11015 H 1006.9 -5.02837 0.342133 0
M  V30 11016 H 1006.5 -3.53463 1.2223 0
M  V30 11017 H 1008.79 -6.69899 1.01201 0
M  V30 11018 H 1009.74 -6.61216 2.53375 0
M  V30 11019 H 1010.14 -5.52106 1.1764 0
M  V30 11020 N 1009.54 -0.859717 -1.32086 0
M  V30 11021 C 1010.51 -0.313005 -2.27053 0
M  V30 11022 C 1011.51 0.530191 -1.51808 0
M  V30 11023 O 1012.7 0.340972 -1.7083 0
M  V30 11024 C 1009.83 0.5566 -3.36325 0
M  V30 11025 H 1011.02 -1.15125 -2.76923 0
M  V30 11026 H 1008.57 -0.634463 -1.42843 0
M  V30 11027 H 1009.31 1.41645 -2.91731 0
M  V30 11028 H 1009.09 -0.0470197 -3.92072 0
M  V30 11029 H 1010.58 0.931725 -4.07073 0
M  V30 11030 N 1011.02 1.44971 -0.618145 0
M  V30 11031 C 1012.44 1.57077 -0.282666 0
M  V30 11032 C 1012.64 1.60782 1.21456 0
M  V30 11033 O 1011.69 1.54382 1.99806 0
M  V30 11034 C 1013.01 2.84858 -0.963148 0
M  V30 11035 C 1014.55 2.9855 -0.940062 0
M  V30 11036 C 1015.03 4.29115 -1.60076 0
M  V30 11037 N 1016.52 4.35899 -1.56674 0
M  V30 11038 C 1017.25 5.35617 -2.04701 0
M  V30 11039 N 1016.75 6.41813 -2.6086 0
M  V30 11040 N 1018.54 5.27042 -1.95406 0
M  V30 11041 H 1010.69 1.4081 -1.59017 0
M  V30 11042 H 1012.96 0.673914 -0.666741 0
M  V30 11043 H 1012.66 2.88059 -2.0178 0
M  V30 11044 H 1012.54 3.73966 -0.492901 0
M  V30 11045 H 1014.92 2.94909 0.10607 0
M  V30 11046 H 1015.01 2.10825 -1.44868 0
M  V30 11047 H 1014.65 4.33514 -2.64627 0
M  V30 11048 H 1014.58 5.15675 -1.06708 0
M  V30 11049 H 1017.07 3.59766 -1.15659 0
M  V30 11050 H 1017.38 7.14166 -2.95273 0
M  V30 11051 H 1015.73 6.42534 -2.64905 0
M  V30 11052 H 1018.92 4.42987 -1.51263 0
M  V30 11053 H 1019.09 6.04604 -2.33147 0
M  V30 11054 N 1012.5 0.357919 1.53482 0
M  V30 11055 C 1013.46 -0.479797 2.24122 0
M  V30 11056 C 1014.46 -1.01596 1.24639 0
M  V30 11057 O 1015.65 -0.902928 1.48973 0
M  V30 11058 C 1012.78 -1.66983 2.97203 0
M  V30 11059 H 1013.98 0.138219 2.99581 0
M  V30 11060 H 1011.53 0.109484 1.55916 0
M  V30 11061 H 1012.26 -2.32615 2.25966 0
M  V30 11062 H 1012.05 -1.29242 3.70188 0
M  V30 11063 H 1013.54 -2.26367 3.50924 0
M  V30 11064 N 1013.98 -1.5736 0.0868897 0
M  V30 11065 C 1014.89 -2.17087 -0.889402 0
M  V30 11066 C 1015.9 -1.13809 -1.31619 0
M  V30 11067 O 1017.08 -1.46143 -1.38579 0
M  V30 11068 C 1014.14 -2.73286 -2.13344 0
M  V30 11069 C 1013.2 -3.91491 -1.76164 0
M  V30 11070 C 1012.44 -4.45 -2.94637 0
M  V30 11071 O 1012.66 -3.97467 -4.09116 0
M  V30 11072 O 1011.59 -5.36133 -2.73579 0
M  V30 11073 H 1015.42 -3.00902 -0.411275 0
M  V30 11074 H 1013.01 -1.4877 -0.137015 0
M  V30 11075 H 1014.89 -3.0924 -2.86266 0
M  V30 11076 H 1013.56 -1.92521 -2.60225 0
M  V30 11077 H 1012.47 -3.60363 -1.00447 0
M  V30 11078 H 1013.8 -4.73593 -1.34053 0
M  V30 11079 N 1015.45 0.186762 -1.56489 0
M  V30 11080 C 1016.68 0.920495 -1.84961 0
M  V30 11081 C 1017.09 1.77004 -0.668297 0
M  V30 11082 O 1016.44 1.79891 0.37213 0
M  V30 11083 C 1016.5 1.85997 -3.07645 0
M  V30 11084 C 1016.16 1.19156 -4.41193 0
M  V30 11085 C 1017.16 0.564446 -5.16827 0
M  V30 11086 C 1014.84 1.19292 -4.87929 0
M  V30 11087 C 1016.84 -0.0523768 -6.37378 0
M  V30 11088 C 1014.52 0.572266 -6.08415 0
M  V30 11089 C 1015.52 -0.049294 -6.82982 0
M  V30 11090 O 1015.21 -0.660201 -8.01184 0
M  V30 11091 H 1014.94 0.273659 -0.618132 0
M  V30 11092 H 1017.5 0.196437 -2.04459 0
M  V30 11093 H 1015.73 2.62394 -2.84053 0
M  V30 11094 H 1017.42 2.46221 -3.22692 0
M  V30 11095 H 1018.18 0.555474 -4.81809 0
M  V30 11096 H 1014.06 1.66611 -4.29839 0
M  V30 11097 H 1017.6 -0.538133 -6.95521 0
M  V30 11098 H 1013.5 0.578769 -6.429 0
M  V30 11099 H 1014.27 -0.557926 -8.16596 0
M  V30 11100 N 1016.93 1.50896 0.454776 0
M  V30 11101 C 1018.18 1.62699 1.20562 0
M  V30 11102 C 1018.51 0.334943 1.91594 0
M  V30 11103 O 1017.76 -0.680106 1.83502 0
M  V30 11104 C 1018.06 2.76839 2.26042 0
M  V30 11105 C 1017.73 4.16745 1.72147 0
M  V30 11106 C 1016.39 4.54809 1.5717 0
M  V30 11107 C 1018.74 5.04118 1.32341 0
M  V30 11108 C 1016.07 5.7797 1.00835 0
M  V30 11109 C 1018.42 6.27842 0.774419 0
M  V30 11110 C 1017.09 6.64694 0.611415 0
M  V30 11111 H 1016.36 0.595358 0.441169 0
M  V30 11112 H 1019 1.84879 0.499202 0
M  V30 11113 H 1017.31 2.48812 3.02655 0
M  V30 11114 H 1019 2.83173 2.83926 0
M  V30 11115 H 1015.59 3.86725 1.84775 0
M  V30 11116 H 1019.78 4.75331 1.42739 0
M  V30 11117 H 1015.03 6.05183 0.869669 0
M  V30 11118 H 1019.21 6.94896 0.457389 0
M  V30 11119 H 1016.84 7.60004 0.172751 0
M  V30 11120 N 1018.41 -0.709066 1.40748 0
M  V30 11121 C 1019.83 -1.01797 1.22921 0
M  V30 11122 C 1020.03 -2.01205 0.109011 0
M  V30 11123 O 1019.08 -2.46854 -0.530987 0
M  V30 11124 C 1020.4 -1.55546 2.57344 0
M  V30 11125 C 1021.94 -1.67498 2.64412 0
M  V30 11126 C 1022.42 -2.24652 3.99119 0
M  V30 11127 N 1023.91 -2.3203 4.00895 0
M  V30 11128 C 1024.64 -2.7725 5.01917 0
M  V30 11129 N 1024.14 -3.22174 6.13332 0
M  V30 11130 N 1025.93 -2.76692 4.89283 0
M  V30 11131 H 1018.08 -0.0502704 2.12341 0
M  V30 11132 H 1020.35 -0.0848933 0.944191 0
M  V30 11133 H 1020.05 -0.899631 3.39999 0
M  V30 11134 H 1019.93 -2.53971 2.78888 0
M  V30 11135 H 1022.31 -2.32196 1.82123 0
M  V30 11136 H 1022.4 -0.676553 2.46691 0
M  V30 11137 H 1022.04 -1.60573 4.81849 0
M  V30 11138 H 1021.97 -3.25221 4.14173 0
M  V30 11139 H 1024.46 -2.00309 3.20444 0
M  V30 11140 H 1024.77 -3.55265 6.86299 0
M  V30 11141 H 1023.12 -3.20116 6.16888 0
M  V30 11142 H 1026.31 -2.40936 4.01332 0
M  V30 11143 H 1026.48 -3.11617 5.68154 0
M  V30 11144 N 1019.89 -1.26353 -0.941956 0
M  V30 11145 C 1020.84 -1.07654 -2.06188 0
M  V30 11146 C 1021.83 -0.00369741 -1.694 0
M  V30 11147 O 1023.04 -0.160316 -1.79285 0
M  V30 11148 H 1019.41 -0.331274 -0.675101 0
M  V30 11149 H 1021.38 -2.02566 -2.19111 0
M  V30 11150 C 1020.13 -0.725436 -3.40048 0
M  V30 11151 H 1019.46 -1.54283 -3.68832 0
M  V30 11152 H 1020.9 -0.634383 -4.19227 0
M  V30 11153 C 1019.35 0.569369 -3.32054 0
M  V30 11154 O 1019.88 1.60791 -3.68116 0
M  V30 11155 N 1018.09 0.559714 -2.85159 0
M  V30 11156 H 1017.64 -0.285817 -2.56009 0
M  V30 11157 H 1017.6 1.42617 -2.80193 0
M  V30 11158 N 1021.37 1.14642 -1.08144 0
M  V30 11159 C 1022.61 1.85892 -0.810683 0
M  V30 11160 C 1022.95 1.82575 0.661821 0
M  V30 11161 O 1022.22 1.25454 1.48632 0
M  V30 11162 C 1022.5 3.34647 -1.32979 0
M  V30 11163 C 1022.36 3.46551 -2.86744 0
M  V30 11164 C 1023.68 4.29661 -0.952864 0
M  V30 11165 H 1020.8 0.674963 -0.295963 0
M  V30 11166 H 1023.44 1.3464 -1.3406 0
M  V30 11167 H 1021.59 3.78425 -0.87903 0
M  V30 11168 H 1023.26 3.11579 -3.40171 0
M  V30 11169 H 1021.5 2.87849 -3.24539 0
M  V30 11170 H 1022.17 4.51101 -3.18138 0
M  V30 11171 H 1024.65 3.93885 -1.34141 0
M  V30 11172 H 1023.53 5.32209 -1.34331 0
M  V30 11173 H 1023.79 4.41877 0.140392 0
M  V30 11174 N 1022.85 0.866709 1.31628 0
M  V30 11175 C 1024.12 0.396828 1.91532 0
M  V30 11176 C 1024.5 -1.12081 1.78889 0
M  V30 11177 O 1023.85 -1.94791 1.19452 0
M  V30 11178 C 1024.06 0.874578 3.37864 0
M  V30 11179 C 1025.41 0.8988 4.14978 0
M  V30 11180 O 1026.43 0.820014 3.46633 0
M  V30 11181 O 1025.29 1.01223 5.37044 0
M  V30 11182 H 1022.39 0.1181 0.818524 0
M  V30 11183 H 1024.93 0.954407 1.40318 0
M  V30 11184 H 1023.7 1.91807 3.41066 0
M  V30 11185 H 1023.33 0.295126 3.96503 0
M  V30 11186 N 1024.32 -1.44642 0.625825 0
M  V30 11187 C 1025.55 -2.06159 0.13492 0
M  V30 11188 C 1025.96 -1.46801 -1.19357 0
M  V30 11189 O 1025.3 -0.583345 -1.74192 0
M  V30 11190 C 1025.37 -3.5945 -0.0598481 0
M  V30 11191 C 1025.03 -4.41244 1.18965 0
M  V30 11192 C 1026.03 -4.75064 2.11212 0
M  V30 11193 C 1023.71 -4.81705 1.42359 0
M  V30 11194 C 1025.71 -5.48221 3.25165 0
M  V30 11195 C 1023.39 -5.54612 2.5661 0
M  V30 11196 C 1024.39 -5.87789 3.4784 0
M  V30 11197 O 1024.08 -6.59213 4.60101 0
M  V30 11198 H 1023.81 -0.671888 0.0744464 0
M  V30 11199 H 1026.37 -1.86586 0.858775 0
M  V30 11200 H 1024.6 -3.77493 -0.838792 0
M  V30 11201 H 1026.28 -4.02751 -0.504639 0
M  V30 11202 H 1027.05 -4.44348 1.94371 0
M  V30 11203 H 1022.93 -4.55305 0.722401 0
M  V30 11204 H 1026.47 -5.74035 3.96396 0
M  V30 11205 H 1022.37 -5.84743 2.73396 0
M  V30 11206 H 1023.14 -6.77678 4.59015 0
M  V30 11207 N 1025.8 -0.366053 -1.5329 0
M  V30 11208 C 1026.73 0.47211 -2.28677 0
M  V30 11209 C 1027.71 1.08353 -1.31125 0
M  V30 11210 O 1028.9 1.10069 -1.59995 0
M  V30 11211 C 1026.03 1.61174 -3.07637 0
M  V30 11212 C 1024.98 1.12755 -4.12881 0
M  V30 11213 C 1024.31 2.35745 -4.79925 0
M  V30 11214 C 1025.61 0.211954 -5.2187 0
M  V30 11215 H 1027.3 -0.156838 -2.98989 0
M  V30 11216 H 1024.85 -0.0768709 -1.43795 0
M  V30 11217 H 1026.8 2.20473 -3.59123 0
M  V30 11218 H 1025.52 2.26793 -2.35016 0
M  V30 11219 H 1024.18 0.557234 -3.6234 0
M  V30 11220 H 1023.83 2.99821 -4.03877 0
M  V30 11221 H 1023.53 2.04019 -5.51044 0
M  V30 11222 H 1025.06 2.95729 -5.34207 0
M  V30 11223 H 1026.47 0.71244 -5.68856 0
M  V30 11224 H 1024.87 -0.0144501 -6.00098 0
M  V30 11225 H 1025.94 -0.745753 -4.79131 0
M  V30 11226 N 1027.28 1.57312 -0.0952337 0
M  V30 11227 C 1028.21 2.17056 0.860753 0
M  V30 11228 C 1029.19 1.10394 1.29411 0
M  V30 11229 O 1030.38 1.38532 1.36098 0
M  V30 11230 C 1027.51 2.751 2.11984 0
M  V30 11231 C 1026.46 3.87136 1.8251 0
M  V30 11232 C 1025.79 4.31883 3.15247 0
M  V30 11233 C 1027.09 5.10326 1.11194 0
M  V30 11234 H 1028.78 2.97192 0.362983 0
M  V30 11235 H 1026.33 1.42955 0.173151 0
M  V30 11236 H 1028.28 3.15547 2.79299 0
M  V30 11237 H 1027 1.92219 2.64044 0
M  V30 11238 H 1025.66 3.47229 1.17592 0
M  V30 11239 H 1025.31 3.45893 3.65195 0
M  V30 11240 H 1025.01 5.0742 2.96309 0
M  V30 11241 H 1026.53 4.74964 3.83721 0
M  V30 11242 H 1027.95 5.47942 1.6862 0
M  V30 11243 H 1026.34 5.91293 1.02435 0
M  V30 11244 H 1027.41 4.84807 0.0947227 0
M  V30 11245 N 1028.76 -0.17846 1.56586 0
M  V30 11246 C 1030.01 -0.894502 1.8078 0
M  V30 11247 C 1030.32 -1.8372 0.67129 0
M  V30 11248 O 1031.53 -2.59509 0.797971 0
M  V30 11249 C 1029.98 -1.64109 3.20306 0
M  V30 11250 C 1029.59 -0.742387 4.41806 0
M  V30 11251 C 1031.33 -2.34578 3.53798 0
M  V30 11252 C 1029.24 -1.4888 5.72354 0
M  V30 11253 H 1028.17 -0.33776 0.674117 0
M  V30 11254 H 1030.82 -0.14752 1.82906 0
M  V30 11255 H 1029.2 -2.43257 3.12477 0
M  V30 11256 H 1030.38 0.011615 4.60799 0
M  V30 11257 H 1028.69 -0.147705 4.16138 0
M  V30 11258 H 1031.29 -2.91004 4.48577 0
M  V30 11259 H 1031.63 -3.09572 2.78336 0
M  V30 11260 H 1032.17 -1.62381 3.63149 0
M  V30 11261 H 1028.9 -0.781325 6.50827 0
M  V30 11262 H 1028.42 -2.21631 5.57351 0
M  V30 11263 H 1030.1 -2.03819 6.14058 0
M  V30 11264 N 1030.24 -1.51135 -0.446768 0
M  V30 11265 C 1031.19 -1.68152 -1.53977 0
M  V30 11266 C 1032.17 -0.53563 -1.51723 0
M  V30 11267 O 1033.36 -0.791134 -1.58335 0
M  V30 11268 C 1030.49 -1.80133 -2.92245 0
M  V30 11269 C 1029.58 -3.00476 -2.99291 0
M  V30 11270 N 1029.97 -4.23796 -2.76099 0
M  V30 11271 C 1028.27 -2.99536 -3.30445 0
M  V30 11272 C 1028.97 -5.04977 -2.88744 0
M  V30 11273 N 1027.94 -4.39428 -3.20006 0
M  V30 11274 H 1031.74 -2.61172 -1.34784 0
M  V30 11275 H 1029.26 -1.48653 -0.653923 0
M  V30 11276 H 1031.26 -1.90432 -3.70866 0
M  V30 11277 H 1029.92 -0.882879 -3.12467 0
M  V30 11278 H 1030.93 -4.52896 -2.51209 0
M  V30 11279 H 1027.6 -2.17286 -3.56501 0
M  V30 11280 H 1028.99 -6.13114 -2.74847 0
M  V30 11281 N 1031.71 0.701592 -1.41122 0
M  V30 11282 C 1032.96 1.45871 -1.39879 0
M  V30 11283 C 1033.28 1.94999 -0.00668769 0
M  V30 11284 O 1032.55 1.71298 0.95047 0
M  V30 11285 H 1031.13 0.541231 -0.514857 0
M  V30 11286 H 1033.79 0.830803 -1.76306 0
M  V30 11287 H 1032.89 2.32479 -2.0823 0
M  V30 11288 N 1033.19 1.2685 0.935242 0
M  V30 11289 C 1034.42 1.15538 1.71635 0
M  V30 11290 C 1034.83 -0.288698 1.8658 0
M  V30 11291 O 1034.19 -1.19721 1.37743 0
M  V30 11292 C 1034.24 1.8259 3.11999 0
M  V30 11293 O 1033.96 3.21355 2.97763 0
M  V30 11294 C 1035.46 1.77307 4.06297 0
M  V30 11295 H 1032.68 0.402055 0.537208 0
M  V30 11296 H 1035.23 1.67582 1.17203 0
M  V30 11297 H 1033.38 1.3447 3.63313 0
M  V30 11298 H 1033.8 3.54626 3.86446 0
M  V30 11299 H 1035.27 2.28851 5.02326 0
M  V30 11300 H 1035.75 0.740823 4.32907 0
M  V30 11301 H 1036.35 2.25007 3.60904 0
M  V30 11302 N 1034.67 -1.14067 1.0875 0
M  V30 11303 C 1035.63 -2.17453 0.724341 0
M  V30 11304 C 1036.63 -1.58959 -0.242614 0
M  V30 11305 O 1037.82 -1.74186 -0.0217008 0
M  V30 11306 C 1034.96 -3.40828 0.0700236 0
M  V30 11307 H 1036.15 -2.51094 1.63987 0
M  V30 11308 H 1033.7 -1.28775 0.885813 0
M  V30 11309 H 1034.44 -3.1277 -0.857061 0
M  V30 11310 H 1034.22 -3.84551 0.76569 0
M  V30 11311 H 1035.71 -4.17258 -0.168905 0
M  V30 11312 N 1036.15 -0.873678 -1.31166 0
M  V30 11313 C 1037.43 -0.40698 -1.91319 0
M  V30 11314 C 1037.81 1.1113 -1.79481 0
M  V30 11315 O 1037.15 1.94155 -1.20483 0
M  V30 11316 C 1037.36 -0.892484 -3.37396 0
M  V30 11317 C 1038.71 -0.920795 -4.14496 0
M  V30 11318 O 1039.74 -0.838386 -3.46193 0
M  V30 11319 O 1038.59 -1.04069 -5.365 0
M  V30 11320 H 1035.69 -0.122439 -0.817886 0
M  V30 11321 H 1038.23 -0.961835 -1.3981 0
M  V30 11322 H 1037.01 -1.93613 -3.40044 0
M  V30 11323 H 1036.63 -0.31615 -3.96341 0
M  V30 11324 N 1037.63 1.44308 -0.633487 0
M  V30 11325 C 1038.9 1.95476 -0.0697262 0
M  V30 11326 C 1039.28 1.57539 1.40516 0
M  V30 11327 O 1038.63 0.850632 2.12077 0
M  V30 11328 C 1038.84 3.4775 -0.295093 0
M  V30 11329 C 1040.19 4.24177 -0.189542 0
M  V30 11330 O 1041.21 3.55479 -0.226586 0
M  V30 11331 O 1040.07 5.46415 -0.096479 0
M  V30 11332 H 1037.17 0.826734 0.0209582 0
M  V30 11333 H 1039.71 1.54347 -0.705354 0
M  V30 11334 H 1038.48 3.6842 -1.31841 0
M  V30 11335 H 1038.11 3.95832 0.37456 0
M  V30 11336 N 1039.1 0.374177 1.53094 0
M  V30 11337 C 1040.05 -0.48326 2.27524 0
M  V30 11338 C 1041.05 -1.07606 1.30833 0
M  V30 11339 O 1042.25 -1.01827 1.48429 0
M  V30 11340 H 1038.63 -0.174578 0.731455 0
M  V30 11341 H 1040.6 0.166156 2.97937 0
M  V30 11342 C 1039.35 -1.6065 3.08362 0
M  V30 11343 H 1038.67 -1.15966 3.82612 0
M  V30 11344 H 1040.11 -2.18099 3.63606 0
M  V30 11345 C 1038.57 -2.55381 2.19732 0
M  V30 11346 O 1039.1 -3.58414 1.8139 0
M  V30 11347 N 1037.31 -2.24769 1.84194 0
M  V30 11348 H 1036.85 -1.41018 2.15573 0
M  V30 11349 H 1036.81 -2.88404 1.25181 0
M  V30 11350 N 1040.58 -1.57259 0.103575 0
M  V30 11351 C 1041.83 -1.94945 -0.558953 0
M  V30 11352 C 1042.16 -0.986038 -1.67305 0
M  V30 11353 O 1041.44 -0.0205464 -1.94489 0
M  V30 11354 C 1041.72 -3.42689 -1.10617 0
M  V30 11355 C 1041.57 -4.498 0.00345246 0
M  V30 11356 C 1042.89 -3.91933 -2.00191 0
M  V30 11357 H 1040.01 -0.708859 -0.201713 0
M  V30 11358 H 1042.65 -1.89183 0.176006 0
M  V30 11359 H 1040.8 -3.4773 -1.73251 0
M  V30 11360 H 1042.47 -4.56866 0.638082 0
M  V30 11361 H 1040.72 -4.28615 0.668705 0
M  V30 11362 H 1041.39 -5.50397 -0.420396 0
M  V30 11363 H 1043.86 -3.89098 -1.4745 0
M  V30 11364 H 1042.74 -4.9586 -2.35402 0
M  V30 11365 H 1043 -3.31722 -2.92255 0
M  V30 11366 N 1042.06 0.170153 -1.56679 0
M  V30 11367 C 1043.01 1.21531 -1.9291 0
M  V30 11368 C 1043.99 1.39742 -0.797553 0
M  V30 11369 O 1045.19 1.41693 -1.06075 0
M  V30 11370 C 1042.32 2.55447 -2.29351 0
M  V30 11371 C 1041.4 2.40925 -3.49022 0
M  V30 11372 N 1041.79 1.96118 -4.66231 0
M  V30 11373 C 1040.09 2.71747 -3.53652 0
M  V30 11374 C 1040.79 1.94086 -5.48366 0
M  V30 11375 N 1039.77 2.36533 -4.89441 0
M  V30 11376 H 1043.57 0.860602 -2.81018 0
M  V30 11377 H 1041.08 0.378415 -1.5793 0
M  V30 11378 H 1043.08 3.30972 -2.53502 0
M  V30 11379 H 1041.74 2.9172 -1.42583 0
M  V30 11380 H 1042.75 1.66438 -4.90427 0
M  V30 11381 H 1039.43 3.1205 -2.77365 0
M  V30 11382 H 1040.82 1.61132 -6.52293 0
M  V30 11383 N 1043.54 1.5137 0.438746 0
M  V30 11384 C 1044.79 1.63969 1.1883 0
M  V30 11385 C 1045.11 0.355245 1.91228 0
M  V30 11386 O 1044.37 -0.660605 1.84213 0
M  V30 11387 C 1044.67 2.79221 2.23093 0
M  V30 11388 C 1044.33 4.18547 1.67717 0
M  V30 11389 C 1043 4.5645 1.52337 0
M  V30 11390 C 1045.35 5.05494 1.26986 0
M  V30 11391 C 1042.68 5.79007 0.946996 0
M  V30 11392 C 1045.03 6.28628 0.707785 0
M  V30 11393 C 1043.69 6.65305 0.540881 0
M  V30 11394 H 1042.96 0.600003 0.43483 0
M  V30 11395 H 1045.61 1.85398 0.479565 0
M  V30 11396 H 1043.91 2.52008 2.99999 0
M  V30 11397 H 1045.61 2.86168 2.80907 0
M  V30 11398 H 1042.2 3.88663 1.80663 0
M  V30 11399 H 1046.38 4.76818 1.37689 0
M  V30 11400 H 1041.64 6.06072 0.805432 0
M  V30 11401 H 1045.81 6.95342 0.38366 0
M  V30 11402 H 1043.44 7.60144 0.0921324 0
M  V30 11403 N 1045.02 -0.694098 1.41492 0
M  V30 11404 C 1045.95 -1.81943 1.39389 0
M  V30 11405 C 1046.96 -1.6009 0.295836 0
M  V30 11406 O 1048.15 -1.69565 0.557658 0
M  V30 11407 C 1045.25 -3.18731 1.15167 0
M  V30 11408 C 1044.42 -3.67601 2.37041 0
M  V30 11409 C 1043.48 -4.83063 2.08654 0
M  V30 11410 O 1042.51 -4.94603 2.81704 0
M  V30 11411 N 1043.71 -5.70409 1.0777 0
M  V30 11412 H 1046.48 -1.84239 2.36381 0
M  V30 11413 H 1044.04 -0.876475 1.36123 0
M  V30 11414 H 1046.03 -3.93602 0.941264 0
M  V30 11415 H 1044.6 -3.11452 0.267673 0
M  V30 11416 H 1043.82 -2.83622 2.73774 0
M  V30 11417 H 1045.11 -3.96991 3.18239 0
M  V30 11418 H 1044.5 -5.63718 0.473123 0
M  V30 11419 H 1043.06 -6.45172 0.927177 0
M  V30 11420 N 1046.49 -1.27344 -0.928501 0
M  V30 11421 C 1047.44 -1.09835 -2.05034 0
M  V30 11422 C 1048.44 -0.0216643 -1.69386 0
M  V30 11423 O 1049.64 -0.179323 -1.79105 0
M  V30 11424 H 1046.02 -0.338416 -0.671549 0
M  V30 11425 H 1047.99 -2.04879 -2.1695 0
M  V30 11426 C 1046.74 -0.761462 -3.3926 0
M  V30 11427 H 1046.06 -1.58186 -3.67175 0
M  V30 11428 H 1047.5 -0.678812 -4.18531 0
M  V30 11429 C 1045.96 0.534118 -3.32639 0
M  V30 11430 O 1046.49 1.56877 -3.69801 0
M  V30 11431 N 1044.7 0.529437 -2.85736 0
M  V30 11432 H 1044.24 -0.312954 -2.55692 0
M  V30 11433 H 1044.2 1.39637 -2.81689 0
M  V30 11434 N 1047.97 1.13488 -1.09353 0
M  V30 11435 C 1049.2 1.89133 -0.85108 0
M  V30 11436 C 1049.62 1.78542 0.591976 0
M  V30 11437 O 1048.98 1.13243 1.41583 0
M  V30 11438 C 1049.03 3.36736 -1.29001 0
M  V30 11439 O 1048.13 4.09959 -0.447993 0
M  V30 11440 H 1047.47 0.58809 -0.308296 0
M  V30 11441 H 1050 1.43593 -1.45747 0
M  V30 11442 H 1050.01 3.87564 -1.27508 0
M  V30 11443 H 1048.69 3.43762 -2.34095 0
M  V30 11444 H 1047.27 3.69155 -0.52717 0
M  V30 11445 N 1049.45 0.880621 1.30701 0
M  V30 11446 C 1050.41 0.349087 2.26526 0
M  V30 11447 C 1051.41 -0.505973 1.52632 0
M  V30 11448 O 1052.6 -0.313751 1.71351 0
M  V30 11449 C 1049.74 -0.503023 3.37168 0
M  V30 11450 H 1050.93 1.19516 2.75056 0
M  V30 11451 H 1048.48 0.657107 1.41816 0
M  V30 11452 H 1049.22 -1.36986 2.93948 0
M  V30 11453 H 1049 0.109389 3.91947 0
M  V30 11454 H 1050.49 -0.866845 4.08504 0
M  V30 11455 N 1050.93 -1.4397 0.641131 0
M  V30 11456 C 1051.86 -2.28997 -0.0963315 0
M  V30 11457 C 1052.87 -1.4184 -0.799071 0
M  V30 11458 O 1054.06 -1.65896 -0.658846 0
M  V30 11459 C 1051.16 -3.18465 -1.15903 0
M  V30 11460 C 1050.34 -4.34093 -0.536828 0
M  V30 11461 C 1049.4 -5.04522 -1.4948 0
M  V30 11462 O 1048.42 -5.60202 -1.00807 0
M  V30 11463 N 1049.62 -5.06899 -2.82901 0
M  V30 11464 H 1052.39 -2.9293 0.633422 0
M  V30 11465 H 1049.95 -1.54527 0.48302 0
M  V30 11466 H 1051.94 -3.62445 -1.80044 0
M  V30 11467 H 1050.51 -2.56214 -1.79089 0
M  V30 11468 H 1049.73 -3.9318 0.283414 0
M  V30 11469 H 1051.02 -5.08698 -0.101966 0
M  V30 11470 H 1050.42 -4.63012 -3.25017 0
M  V30 11471 H 1048.97 -5.54637 -3.42376 0
M  V30 11472 N 1052.41 -0.382291 -1.52893 0
M  V30 11473 C 1053.66 0.203342 -2.00672 0
M  V30 11474 C 1053.97 1.48487 -1.27322 0
M  V30 11475 O 1055.18 2.15013 -1.65776 0
M  V30 11476 C 1053.63 0.412922 -3.57523 0
M  V30 11477 C 1053.24 -0.854949 -4.39767 0
M  V30 11478 C 1054.98 0.955301 -4.13611 0
M  V30 11479 C 1052.89 -0.614033 -5.88204 0
M  V30 11480 H 1051.82 0.0797635 -0.749769 0
M  V30 11481 H 1054.47 -0.50361 -1.76454 0
M  V30 11482 H 1052.85 1.18155 -3.77962 0
M  V30 11483 H 1054.03 -1.62765 -4.31096 0
M  V30 11484 H 1052.34 -1.32176 -3.94865 0
M  V30 11485 H 1054.94 1.15114 -5.22162 0
M  V30 11486 H 1055.28 1.92233 -3.69259 0
M  V30 11487 H 1055.82 0.24642 -3.97036 0
M  V30 11488 H 1052.55 -1.55187 -6.36865 0
M  V30 11489 H 1052.07 0.119865 -5.9968 0
M  V30 11490 H 1053.75 -0.245895 -6.46533 0
M  V30 11491 N 1053.89 1.57202 -0.111913 0
M  V30 11492 C 1054.85 2.13778 0.826534 0
M  V30 11493 C 1055.85 1.07097 1.19945 0
M  V30 11494 O 1057.04 1.32906 1.12613 0
M  V30 11495 C 1054.17 2.6722 2.11675 0
M  V30 11496 H 1055.36 2.98023 0.334975 0
M  V30 11497 H 1052.92 1.55696 0.137256 0
M  V30 11498 H 1053.65 1.86542 2.65278 0
M  V30 11499 H 1053.44 3.45235 1.8589 0
M  V30 11500 H 1054.93 3.10926 2.78774 0
M  V30 11501 N 1055.36 -0.161842 1.56767 0
M  V30 11502 C 1056.31 -1.2002 1.97139 0
M  V30 11503 C 1057.28 -1.43486 0.836713 0
M  V30 11504 O 1058.47 -1.56069 1.0976 0
M  V30 11505 C 1055.61 -2.53228 2.34456 0
M  V30 11506 C 1054.72 -2.37062 3.61145 0
M  V30 11507 C 1053.85 -3.63202 3.87631 0
M  V30 11508 C 1052.89 -3.42008 5.07638 0
M  V30 11509 N 1052.03 -4.60242 5.30209 0
M  V30 11510 H 1056.87 -0.848918 2.85653 0
M  V30 11511 H 1054.41 -0.407753 1.41336 0
M  V30 11512 H 1056.36 -3.30879 2.54116 0
M  V30 11513 H 1054.99 -2.86333 1.4904 0
M  V30 11514 H 1054.05 -1.50539 3.49345 0
M  V30 11515 H 1055.36 -2.17353 4.48953 0
M  V30 11516 H 1054.51 -4.49285 4.0771 0
M  V30 11517 H 1053.25 -3.85899 2.98216 0
M  V30 11518 H 1052.26 -2.54312 4.87448 0
M  V30 11519 H 1053.48 -3.20724 5.98593 0
M  V30 11520 H 1051.43 -4.8314 4.43747 0
M  V30 11521 H 1051.34 -4.43481 6.12259 0
M  V30 11522 H 1052.61 -5.47581 5.54775 0
M  V30 11523 N 1056.84 -1.516 -0.430713 0
M  V30 11524 C 1057.8 -1.72794 -1.50582 0
M  V30 11525 C 1058.8 -0.597903 -1.49271 0
M  V30 11526 O 1059.99 -0.865535 -1.51176 0
M  V30 11527 C 1057.13 -1.79049 -2.90093 0
M  V30 11528 H 1058.32 -2.68751 -1.33091 0
M  V30 11529 H 1055.87 -1.4169 -0.659822 0
M  V30 11530 H 1056.61 -0.849309 -3.12981 0
M  V30 11531 H 1056.39 -2.61181 -2.92449 0
M  V30 11532 H 1057.88 -1.97262 -3.68072 0
M  V30 11533 N 1058.32 0.686584 -1.41858 0
M  V30 11534 C 1059.25 1.81264 -1.47193 0
M  V30 11535 C 1060.23 1.66875 -0.329657 0
M  V30 11536 O 1061.42 1.86473 -0.542347 0
M  V30 11537 C 1058.55 3.19472 -1.36216 0
M  V30 11538 C 1057.5 3.4858 -2.48347 0
M  V30 11539 C 1056.83 4.86239 -2.22432 0
M  V30 11540 C 1058.13 3.46653 -3.90678 0
M  V30 11541 H 1059.82 1.77057 -2.41436 0
M  V30 11542 H 1057.37 0.850415 -1.16206 0
M  V30 11543 H 1059.32 3.97969 -1.38558 0
M  V30 11544 H 1058.04 3.24327 -0.384611 0
M  V30 11545 H 1056.7 2.72437 -2.45303 0
M  V30 11546 H 1056.35 4.8773 -1.22999 0
M  V30 11547 H 1056.05 5.06677 -2.97577 0
M  V30 11548 H 1057.57 5.67034 -2.26505 0
M  V30 11549 H 1058.99 4.15139 -3.95389 0
M  V30 11550 H 1057.38 3.78625 -4.65578 0
M  V30 11551 H 1058.45 2.45451 -4.18189 0
M  V30 11552 N 1059.8 1.27835 0.921735 0
M  V30 11553 C 1061.04 1.14692 1.67253 0
M  V30 11554 C 1061.38 -0.305384 1.91784 0
M  V30 11555 O 1060.65 -1.22286 1.51249 0
M  V30 11556 C 1060.93 1.93743 3.03539 0
M  V30 11557 C 1060.79 3.46991 2.86212 0
M  V30 11558 C 1062.11 1.74658 4.03959 0
M  V30 11559 H 1059.23 0.418021 0.606983 0
M  V30 11560 H 1061.87 1.5706 1.06922 0
M  V30 11561 H 1060.02 1.57738 3.55037 0
M  V30 11562 H 1061.69 3.92858 2.41785 0
M  V30 11563 H 1059.93 3.73029 2.21432 0
M  V30 11564 H 1060.6 3.97551 3.82958 0
M  V30 11565 H 1063.08 2.06063 3.61493 0
M  V30 11566 H 1061.96 2.32353 4.97296 0
M  V30 11567 H 1062.22 0.696019 4.36587 0
M  V30 11568 N 1061.28 -1.12907 1.09954 0
M  V30 11569 C 1062.22 -2.20561 0.73863 0
M  V30 11570 C 1063.22 -1.67347 -0.262944 0
M  V30 11571 O 1064.42 -1.79574 -0.123834 0
M  V30 11572 H 1060.8 -0.718823 0.220901 0
M  V30 11573 H 1062.77 -2.4826 1.65559 0
M  V30 11574 C 1061.52 -3.47227 0.181239 0
M  V30 11575 H 1060.84 -3.88516 0.943144 0
M  V30 11576 H 1062.28 -4.23987 -0.0332888 0
M  V30 11577 C 1060.74 -3.18956 -1.08485 0
M  V30 11578 O 1061.27 -3.38224 -2.1672 0
M  V30 11579 N 1059.48 -2.72797 -1.00151 0
M  V30 11580 H 1059.02 -2.57317 -0.120645 0
M  V30 11581 H 1058.98 -2.54256 -1.84935 0
M  V30 11582 N 1062.75 -0.88754 -1.30232 0
M  V30 11583 C 1063.72 -0.361095 -2.26338 0
M  V30 11584 C 1064.72 0.497871 -1.52898 0
M  V30 11585 O 1065.91 0.30466 -1.71515 0
M  V30 11586 C 1063.04 0.485135 -3.3743 0
M  V30 11587 H 1064.23 -1.20973 -2.74419 0
M  V30 11588 H 1061.78 -0.664619 -1.41466 0
M  V30 11589 H 1062.52 1.35425 -2.9467 0
M  V30 11590 H 1062.3 -0.130173 -3.91884 0
M  V30 11591 H 1063.79 0.845169 -4.08958 0
M  V30 11592 N 1064.23 1.43628 -0.648757 0
M  V30 11593 C 1065.16 2.29045 0.0841858 0
M  V30 11594 C 1066.18 1.42262 0.791537 0
M  V30 11595 O 1067.37 1.66243 0.650039 0
M  V30 11596 C 1064.47 3.19075 1.14212 0
M  V30 11597 C 1063.64 4.34372 0.513799 0
M  V30 11598 C 1062.7 5.05307 1.46803 0
M  V30 11599 O 1061.72 5.60729 0.978346 0
M  V30 11600 N 1062.93 5.08393 2.80209 0
M  V30 11601 H 1065.69 2.9259 -0.648948 0
M  V30 11602 H 1063.25 1.54268 -0.491209 0
M  V30 11603 H 1065.24 3.63395 1.78119 0
M  V30 11604 H 1063.81 2.57161 1.77728 0
M  V30 11605 H 1063.03 3.93024 -0.304262 0
M  V30 11606 H 1064.32 5.08745 0.0749871 0
M  V30 11607 H 1063.72 4.64729 3.22557 0
M  V30 11608 H 1062.28 5.56445 3.3943 0
M  V30 11609 N 1065.71 0.390394 1.52688 0
M  V30 11610 C 1066.96 -0.191729 2.01892 0
M  V30 11611 C 1067.29 -1.4637 1.27631 0
M  V30 11612 O 1066.56 -1.90809 0.377094 0
M  V30 11613 C 1066.85 -0.458535 3.57169 0
M  V30 11614 C 1066.7 0.828796 4.42098 0
M  V30 11615 C 1068.02 -1.2487 4.22014 0
M  V30 11616 H 1065.14 -0.0682091 0.733837 0
M  V30 11617 H 1067.78 0.520176 1.82741 0
M  V30 11618 H 1065.93 -1.06498 3.73618 0
M  V30 11619 H 1067.6 1.46562 4.37398 0
M  V30 11620 H 1065.85 1.44388 4.09066 0
M  V30 11621 H 1066.52 0.596746 5.48765 0
M  V30 11622 H 1068.99 -0.735452 4.09549 0
M  V30 11623 H 1067.87 -1.40412 5.30637 0
M  V30 11624 H 1068.13 -2.2642 3.79719 0
M  V30 11625 N 1067.19 -1.57141 0.120249 0
M  V30 11626 C 1068.47 -1.8677 -0.581075 0
M  V30 11627 C 1068.85 -1.02163 -1.84732 0
M  V30 11628 O 1068.19 -0.100897 -2.28277 0
M  V30 11629 C 1068.4 -3.37923 -0.872316 0
M  V30 11630 C 1069.75 -4.0655 -1.22483 0
M  V30 11631 O 1070.78 -3.42948 -0.962539 0
M  V30 11632 O 1069.63 -5.18821 -1.71717 0
M  V30 11633 H 1066.73 -0.773219 -0.293362 0
M  V30 11634 H 1069.27 -1.68992 0.154846 0
M  V30 11635 H 1068.05 -3.91292 0.0249416 0
M  V30 11636 H 1067.67 -3.61135 -1.66335 0
M  V30 11637 N 1068.67 0.153526 -1.5685 0
M  V30 11638 C 1069.91 0.867232 -1.8299 0
M  V30 11639 C 1070.24 1.81462 -0.700125 0
M  V30 11640 O 1069.5 1.93207 0.311348 0
M  V30 11641 C 1069.8 1.68066 -3.15418 0
M  V30 11642 C 1069.46 0.880635 -4.42217 0
M  V30 11643 C 1068.12 0.659899 -4.76654 0
M  V30 11644 C 1070.48 0.320698 -5.20212 0
M  V30 11645 C 1067.8 -0.131588 -5.86552 0
M  V30 11646 C 1070.16 -0.457794 -6.30941 0
M  V30 11647 C 1068.82 -0.689168 -6.63933 0
M  V30 11648 H 1068.09 0.317343 -0.669608 0
M  V30 11649 H 1070.74 0.131208 -1.9105 0
M  V30 11650 H 1069.04 2.4866 -3.02779 0
M  V30 11651 H 1070.74 2.23623 -3.32857 0
M  V30 11652 H 1067.33 1.06274 -4.15215 0
M  V30 11653 H 1071.51 0.47853 -4.93988 0
M  V30 11654 H 1066.77 -0.320413 -6.1056 0
M  V30 11655 H 1070.94 -0.898839 -6.90575 0
M  V30 11656 H 1068.57 -1.30433 -7.48927 0
M  V30 11657 N 1070.14 1.51827 0.422667 0
M  V30 11658 C 1071.08 1.70409 1.53275 0
M  V30 11659 C 1072.09 0.584584 1.51942 0
M  V30 11660 O 1073.28 0.859349 1.56453 0
M  V30 11661 C 1070.38 1.717 2.92185 0
M  V30 11662 C 1069.55 3.00472 3.17861 0
M  V30 11663 C 1068.61 2.93755 4.36571 0
M  V30 11664 O 1067.64 3.67682 4.3451 0
M  V30 11665 N 1068.84 2.10612 5.40946 0
M  V30 11666 H 1071.6 2.66176 1.37734 0
M  V30 11667 H 1069.16 1.49895 0.611799 0
M  V30 11668 H 1071.16 1.64756 3.69645 0
M  V30 11669 H 1069.73 0.834655 3.01251 0
M  V30 11670 H 1068.95 3.21171 2.28567 0
M  V30 11671 H 1070.23 3.85684 3.31851 0
M  V30 11672 H 1069.63 1.49954 5.45463 0
M  V30 11673 H 1068.19 2.09535 6.17202 0
M  V30 11674 N 1071.62 -0.679052 1.4222 0
M  V30 11675 C 1072.59 -1.77448 1.45069 0
M  V30 11676 C 1073.59 -1.57189 0.338882 0
M  V30 11677 O 1074.78 -1.63559 0.599519 0
M  V30 11678 C 1071.91 -3.1603 1.27819 0
M  V30 11679 H 1073.1 -1.7631 2.426 0
M  V30 11680 H 1070.65 -0.888277 1.28605 0
M  V30 11681 H 1071.39 -3.22796 0.311946 0
M  V30 11682 H 1071.17 -3.32138 2.08391 0
M  V30 11683 H 1072.66 -3.9596 1.32686 0
M  V30 11684 N 1073.1 -1.28322 -0.914942 0
M  V30 11685 C 1074.03 -1.06469 -2.01841 0
M  V30 11686 C 1075.01 0.0188681 -1.62589 0
M  V30 11687 O 1076.2 -0.128825 -1.88059 0
M  V30 11688 C 1073.32 -0.617685 -3.3302 0
M  V30 11689 C 1072.37 -1.6977 -3.91255 0
M  V30 11690 S 1073.2 -3.29337 -4.22253 0
M  V30 11691 C 1074.36 -2.86468 -5.56495 0
M  V30 11692 H 1074.59 -1.99893 -2.20068 0
M  V30 11693 H 1072.12 -1.12297 -1.05966 0
M  V30 11694 H 1074.08 -0.366481 -4.08861 0
M  V30 11695 H 1072.74 0.296709 -3.12695 0
M  V30 11696 H 1071.94 -1.33653 -4.85956 0
M  V30 11697 H 1071.54 -1.90164 -3.22046 0
M  V30 11698 H 1073.83 -2.32565 -6.36333 0
M  V30 11699 H 1074.77 -3.79962 -5.97523 0
M  V30 11700 H 1075.18 -2.2522 -5.17626 0
M  V30 11701 N 1074.58 1.12322 -1.10551 0
M  V30 11702 C 1075.82 1.84333 -0.859826 0
M  V30 11703 C 1076.18 1.82539 0.608052 0
M  V30 11704 O 1075.47 1.26086 1.44267 0
M  V30 11705 C 1075.67 3.31177 -1.34375 0
M  V30 11706 C 1075.5 3.47272 -2.85714 0
M  V30 11707 C 1074.27 3.60837 -3.5373 0
M  V30 11708 C 1076.46 3.42336 -3.83811 0
M  V30 11709 N 1074.45 3.65309 -4.93378 0
M  V30 11710 C 1075.82 3.53318 -5.09477 0
M  V30 11711 C 1077.87 3.25809 -3.76501 0
M  V30 11712 C 1076.57 3.49477 -6.28695 0
M  V30 11713 C 1078.6 3.23282 -4.9522 0
M  V30 11714 C 1077.96 3.34826 -6.19735 0
M  V30 11715 H 1074.06 0.690186 -0.367651 0
M  V30 11716 H 1076.65 1.34463 -1.40811 0
M  V30 11717 H 1074.82 3.79585 -0.822767 0
M  V30 11718 H 1076.55 3.91051 -1.04217 0
M  V30 11719 H 1073.3 3.63005 -3.04178 0
M  V30 11720 H 1073.73 3.71207 -5.66157 0
M  V30 11721 H 1078.37 3.15777 -2.81149 0
M  V30 11722 H 1076.09 3.5828 -7.24335 0
M  V30 11723 H 1079.67 3.11674 -4.91274 0
M  V30 11724 H 1078.55 3.32847 -7.10058 0
M  V30 11725 N 1076.06 0.894434 1.2976 0
M  V30 11726 C 1077.29 0.532143 1.99629 0
M  V30 11727 C 1077.69 -0.886234 1.6716 0
M  V30 11728 O 1077.04 -1.59573 0.910065 0
M  V30 11729 C 1077.1 0.638335 3.53787 0
M  V30 11730 C 1076.76 2.02273 4.09798 0
M  V30 11731 C 1077.76 2.99327 4.25087 0
M  V30 11732 C 1075.45 2.33069 4.44954 0
M  V30 11733 C 1077.44 4.25304 4.74758 0
M  V30 11734 C 1075.13 3.59289 4.94322 0
M  V30 11735 C 1076.12 4.55222 5.09178 0
M  V30 11736 O 1075.81 5.79202 5.57477 0
M  V30 11737 H 1075.54 0.203326 0.644697 0
M  V30 11738 H 1078.1 1.2043 1.6639 0
M  V30 11739 H 1076.33 -0.0908338 3.86593 0
M  V30 11740 H 1078.02 0.285956 4.04891 0
M  V30 11741 H 1078.78 2.76849 3.9822 0
M  V30 11742 H 1074.66 1.59162 4.32653 0
M  V30 11743 H 1078.21 5.00189 4.86269 0
M  V30 11744 H 1074.1 3.816 5.20626 0
M  V30 11745 H 1074.87 5.81717 5.75802 0
M  V30 11746 N 1077.53 -1.43282 0.656365 0
M  V30 11747 C 1078.76 -2.06641 0.177245 0
M  V30 11748 C 1079.18 -1.48893 -1.14946 0
M  V30 11749 O 1078.54 -0.600099 -1.7108 0
M  V30 11750 C 1078.59 -3.60453 0.10299 0
M  V30 11751 O 1077.69 -4.01687 -0.933895 0
M  V30 11752 H 1077.04 -0.656978 0.096314 0
M  V30 11753 H 1079.57 -1.83733 0.900178 0
M  V30 11754 H 1079.58 -4.07923 -0.079291 0
M  V30 11755 H 1078.25 -4.01861 1.07147 0
M  V30 11756 H 1076.83 -3.65801 -0.724148 0
M  V30 11757 N 1079.01 -0.398486 -1.52479 0
M  V30 11758 C 1080.29 0.238776 -1.94137 0
M  V30 11759 C 1080.67 1.63558 -1.33462 0
M  V30 11760 O 1080.02 2.22821 -0.506272 0
M  V30 11761 C 1080.23 0.255863 -3.48061 0
M  V30 11762 C 1081.58 0.480376 -4.21874 0
M  V30 11763 O 1082.6 0.335679 -3.54615 0
M  V30 11764 O 1081.46 0.764654 -5.41124 0
M  V30 11765 H 1078.55 0.150806 -0.813134 0
M  V30 11766 H 1081.1 -0.453659 -1.63524 0
M  V30 11767 H 1079.87 -0.722171 -3.84578 0
M  V30 11768 H 1079.49 0.99284 -3.85004 0
M  V30 11769 N 1080.49 1.57075 -0.12858 0
M  V30 11770 C 1081.42 2.12907 0.848708 0
M  V30 11771 C 1082.44 1.07406 1.22343 0
M  V30 11772 O 1083.63 1.34746 1.17071 0
M  V30 11773 C 1080.73 2.62167 2.1476 0
M  V30 11774 C 1079.9 3.91871 1.94309 0
M  V30 11775 C 1078.96 4.26629 3.08016 0
M  V30 11776 O 1077.98 4.9528 2.80511 0
M  V30 11777 N 1079.19 3.84721 4.34706 0
M  V30 11778 H 1081.95 2.97387 0.371636 0
M  V30 11779 H 1079.51 1.61805 0.0555574 0
M  V30 11780 H 1081.5 2.82444 2.89841 0
M  V30 11781 H 1080.07 1.82514 2.53786 0
M  V30 11782 H 1079.29 3.80406 1.03367 0
M  V30 11783 H 1080.58 4.76662 1.77962 0
M  V30 11784 H 1079.98 3.2937 4.59926 0
M  V30 11785 H 1078.54 4.10087 5.06628 0
M  V30 11786 N 1081.97 -0.145205 1.5693 0
M  V30 11787 C 1082.92 -1.19841 1.99351 0
M  V30 11788 C 1083.91 -1.44371 0.886197 0
M  V30 11789 O 1085.12 -1.44642 1.07138 0
M  V30 11790 H 1081.49 -0.403437 0.63462 0
M  V30 11791 H 1083.46 -0.813932 2.87085 0
M  V30 11792 C 1082.21 -2.52377 2.39167 0
M  V30 11793 H 1081.54 -2.34332 3.23927 0
M  V30 11794 H 1082.98 -3.24694 2.72671 0
M  V30 11795 C 1081.43 -3.1305 1.24503 0
M  V30 11796 O 1081.96 -3.97962 0.546739 0
M  V30 11797 N 1080.17 -2.72528 1.00882 0
M  V30 11798 H 1079.72 -2.03576 1.57843 0
M  V30 11799 H 1079.68 -3.13456 0.24351 0
M  V30 11800 N 1083.45 -1.52049 -0.414609 0
M  V30 11801 C 1084.4 -1.7138 -1.50376 0
M  V30 11802 C 1085.38 -0.567692 -1.50553 0
M  V30 11803 O 1086.57 -0.824541 -1.56622 0
M  V30 11804 C 1083.7 -1.86291 -2.88358 0
M  V30 11805 C 1082.79 -3.06757 -2.9285 0
M  V30 11806 N 1083.18 -4.29557 -2.67048 0
M  V30 11807 C 1081.48 -3.06478 -3.24018 0
M  V30 11808 C 1082.18 -5.10988 -2.77968 0
M  V30 11809 N 1081.15 -4.46117 -3.10613 0
M  V30 11810 H 1084.96 -2.63972 -1.29213 0
M  V30 11811 H 1082.47 -1.50006 -0.622244 0
M  V30 11812 H 1084.47 -1.98256 -3.66743 0
M  V30 11813 H 1083.13 -0.948959 -3.10524 0
M  V30 11814 H 1084.14 -4.58122 -2.41546 0
M  V30 11815 H 1080.82 -2.24799 -3.51812 0
M  V30 11816 H 1082.21 -6.18806 -2.6178 0
M  V30 11817 N 1084.93 0.6715 -1.42579 0
M  V30 11818 C 1086.17 1.42871 -1.42941 0
M  V30 11819 C 1086.49 1.94941 -0.0480483 0
M  V30 11820 O 1085.76 1.73275 0.913921 0
M  V30 11821 H 1084.34 0.530189 -0.526221 0
M  V30 11822 H 1087.01 0.793219 -1.78028 0
M  V30 11823 H 1086.1 2.2801 -2.13114 0
M  V30 11824 N 1086.4 1.28806 0.908124 0
M  V30 11825 C 1087.33 1.15758 2.02787 0
M  V30 11826 C 1088.31 0.053911 1.70015 0
M  V30 11827 O 1089.5 0.231901 1.9281 0
M  V30 11828 C 1086.63 0.824526 3.37371 0
M  V30 11829 C 1085.58 1.88359 3.84324 0
M  V30 11830 C 1084.91 1.40404 5.15937 0
M  V30 11831 C 1086.21 3.29108 4.05568 0
M  V30 11832 H 1087.9 2.09431 2.13961 0
M  V30 11833 H 1085.45 1.00831 1.02806 0
M  V30 11834 H 1087.4 0.71999 4.15204 0
M  V30 11835 H 1086.13 -0.147902 3.26265 0
M  V30 11836 H 1084.79 1.97736 3.087 0
M  V30 11837 H 1084.43 0.420515 5.01239 0
M  V30 11838 H 1084.13 2.11224 5.48323 0
M  V30 11839 H 1085.66 1.31283 5.9632 0
M  V30 11840 H 1087.07 3.2262 4.73909 0
M  V30 11841 H 1085.47 3.97812 4.49294 0
M  V30 11842 H 1086.54 3.72709 3.10187 0
M  V30 11843 N 1087.88 -1.11734 1.11145 0
M  V30 11844 C 1089.11 -1.87755 0.881062 0
M  V30 11845 C 1089.53 -1.79461 -0.563496 0
M  V30 11846 O 1088.89 -1.15481 -1.39763 0
M  V30 11847 C 1088.94 -3.34641 1.34342 0
M  V30 11848 O 1088.04 -4.09195 0.513157 0
M  V30 11849 H 1087.38 -0.583111 0.317613 0
M  V30 11850 H 1089.91 -1.41256 1.48013 0
M  V30 11851 H 1089.92 -3.85486 1.33658 0
M  V30 11852 H 1088.6 -3.39994 2.39534 0
M  V30 11853 H 1087.17 -3.68269 0.585833 0
M  V30 11854 N 1089.36 -0.901303 -1.29284 0
M  V30 11855 C 1090.61 -0.527 -1.95108 0
M  V30 11856 C 1090.93 0.930065 -1.71391 0
M  V30 11857 O 1090.2 1.65601 -1.04658 0
M  V30 11858 H 1088.78 -0.191903 -0.721929 0
M  V30 11859 H 1091.44 -1.14795 -1.57506 0
M  V30 11860 H 1090.54 -0.710945 -3.03895 0
M  V30 11861 N 1090.84 1.42931 -0.663954 0
M  V30 11862 C 1091.77 2.33499 0.00731327 0
M  V30 11863 C 1092.75 1.50074 0.800733 0
M  V30 11864 O 1093.93 1.78708 0.760062 0
M  V30 11865 C 1091.06 3.33569 0.966897 0
M  V30 11866 C 1090.02 4.27064 0.282839 0
M  V30 11867 C 1089.34 5.17257 1.35461 0
M  V30 11868 C 1090.64 5.1564 -0.831438 0
M  V30 11869 H 1092.34 2.89879 -0.749044 0
M  V30 11870 H 1089.88 1.39385 -0.361656 0
M  V30 11871 H 1091.84 3.95833 1.44549 0
M  V30 11872 H 1090.56 2.75469 1.75455 0
M  V30 11873 H 1089.22 3.6618 -0.175417 0
M  V30 11874 H 1088.87 4.5549 2.13397 0
M  V30 11875 H 1088.57 5.80634 0.902098 0
M  V30 11876 H 1090.09 5.82395 1.83436 0
M  V30 11877 H 1091.51 5.71651 -0.434534 0
M  V30 11878 H 1089.9 5.87794 -1.20908 0
M  V30 11879 H 1090.97 4.54687 -1.68487 0
M  V30 11880 N 1092.32 0.406567 1.52266 0
M  V30 11881 C 1093.54 -0.172101 2.06685 0
M  V30 11882 C 1093.97 -1.38306 1.27488 0
M  V30 11883 O 1093.32 -1.78726 0.304441 0
M  V30 11884 C 1093.37 -0.503463 3.57068 0
M  V30 11885 O 1092.48 -1.59485 3.80314 0
M  V30 11886 H 1091.82 -0.0153209 0.663823 0
M  V30 11887 H 1094.35 0.579025 1.96236 0
M  V30 11888 H 1094.36 -0.762833 4.00805 0
M  V30 11889 H 1093.03 0.381775 4.14144 0
M  V30 11890 H 1091.61 -1.32784 3.48458 0
M  V30 11891 N 1093.79 -1.57004 0.136909 0
M  V30 11892 C 1095.02 -2.00156 -0.523936 0
M  V30 11893 C 1095.44 -1.01688 -1.59075 0
M  V30 11894 O 1094.79 -0.0123678 -1.82496 0
M  V30 11895 C 1094.85 -3.4326 -1.13379 0
M  V30 11896 O 1094.57 -4.37963 -0.109598 0
M  V30 11897 C 1096.07 -4.01637 -1.87623 0
M  V30 11898 H 1093.29 -0.65681 -0.137263 0
M  V30 11899 H 1095.83 -2.03219 0.228522 0
M  V30 11900 H 1093.99 -3.4108 -1.83693 0
M  V30 11901 H 1094.4 -5.21555 -0.55503 0
M  V30 11902 H 1095.87 -5.03795 -2.25597 0
M  V30 11903 H 1096.35 -3.41781 -2.75831 0
M  V30 11904 H 1096.96 -4.07417 -1.22031 0
M  V30 11905 N 1095.27 0.136881 -1.57004 0
M  V30 11906 C 1096.22 1.18782 -1.99984 0
M  V30 11907 C 1097.21 1.43899 -0.893841 0
M  V30 11908 O 1098.42 1.44072 -1.07904 0
M  V30 11909 H 1094.8 0.400065 -0.636751 0
M  V30 11910 H 1096.77 0.798696 -2.87512 0
M  V30 11911 C 1095.52 2.51105 -2.40502 0
M  V30 11912 H 1094.84 2.32611 -3.25165 0
M  V30 11913 H 1096.28 3.23244 -2.74389 0
M  V30 11914 C 1094.74 3.12386 -1.26161 0
M  V30 11915 O 1095.27 3.97666 -0.567836 0
M  V30 11916 N 1093.47 2.71989 -1.02326 0
M  V30 11917 H 1093.02 2.02736 -1.58921 0
M  V30 11918 H 1092.98 3.13322 -0.26013 0
M  V30 11919 N 1096.75 1.52266 0.40654 0
M  V30 11920 C 1097.7 1.72175 1.49465 0
M  V30 11921 C 1098.68 0.575668 1.50249 0
M  V30 11922 O 1099.88 0.832835 1.56182 0
M  V30 11923 C 1097.01 1.87818 2.87366 0
M  V30 11924 C 1096.09 3.08305 2.91219 0
M  V30 11925 N 1096.48 4.30967 2.64766 0
M  V30 11926 C 1094.78 3.08192 3.22388 0
M  V30 11927 C 1095.48 5.12455 2.75254 0
M  V30 11928 N 1094.46 4.47758 3.08242 0
M  V30 11929 H 1098.26 2.64653 1.27812 0
M  V30 11930 H 1095.77 1.50334 0.61428 0
M  V30 11931 H 1097.77 2.00198 3.65686 0
M  V30 11932 H 1096.43 0.965414 3.10016 0
M  V30 11933 H 1097.44 4.59397 2.39113 0
M  V30 11934 H 1094.12 2.26662 3.50615 0
M  V30 11935 H 1095.51 6.20186 2.58495 0
M  V30 11936 N 1098.23 -0.663929 1.42933 0
M  V30 11937 C 1099.16 -1.78899 1.50058 0
M  V30 11938 C 1100.14 -1.66329 0.356164 0
M  V30 11939 O 1101.32 -1.85587 0.571944 0
M  V30 11940 C 1098.45 -3.17265 1.41281 0
M  V30 11941 C 1097.41 -3.44584 2.53861 0
M  V30 11942 C 1096.73 -4.82638 2.3014 0
M  V30 11943 C 1098.03 -3.40394 3.96143 0
M  V30 11944 H 1099.73 -1.73194 2.44222 0
M  V30 11945 H 1097.27 -0.83182 1.17545 0
M  V30 11946 H 1099.23 -3.95715 1.44872 0
M  V30 11947 H 1097.95 -3.23675 0.43616 0
M  V30 11948 H 1096.61 -2.685 2.49606 0
M  V30 11949 H 1096.26 -4.85711 1.30743 0
M  V30 11950 H 1095.96 -5.01879 3.056 0
M  V30 11951 H 1097.48 -5.63359 2.35497 0
M  V30 11952 H 1098.9 -4.08796 4.01943 0
M  V30 11953 H 1097.29 -3.7117 4.71543 0
M  V30 11954 H 1098.36 -2.38767 4.22041 0
M  V30 11955 N 1099.71 -1.29285 -0.901281 0
M  V30 11956 C 1100.94 -1.19874 -1.68267 0
M  V30 11957 C 1101.34 0.243387 -1.87628 0
M  V30 11958 O 1100.69 1.17497 -1.41209 0
M  V30 11959 C 1100.75 -1.83907 -3.08899 0
M  V30 11960 C 1100.41 -3.33198 -3.12775 0
M  V30 11961 C 1101.41 -4.29446 -2.9304 0
M  V30 11962 C 1099.1 -3.7437 -3.34892 0
M  V30 11963 C 1101.09 -5.64842 -2.95352 0
M  V30 11964 C 1098.78 -5.09888 -3.36834 0
M  V30 11965 C 1099.77 -6.04934 -3.17087 0
M  V30 11966 O 1099.46 -7.37979 -3.18815 0
M  V30 11967 H 1099.19 -0.416601 -0.532372 0
M  V30 11968 H 1101.75 -1.71154 -1.13558 0
M  V30 11969 H 1099.98 -1.27136 -3.65203 0
M  V30 11970 H 1101.67 -1.6884 -3.69118 0
M  V30 11971 H 1102.43 -3.9897 -2.75767 0
M  V30 11972 H 1098.31 -3.00846 -3.49303 0
M  V30 11973 H 1101.86 -6.39004 -2.79856 0
M  V30 11974 H 1097.75 -5.40009 -3.53638 0
M  V30 11975 H 1098.52 -7.46763 -3.35092 0
M  V30 11976 N 1101.18 1.11143 -1.11736 0
M  V30 11977 C 1102.41 1.86745 -0.890727 0
M  V30 11978 C 1102.83 1.80315 0.55964 0
M  V30 11979 O 1102.18 1.18663 1.38656 0
M  V30 11980 C 1102.24 3.35436 -1.34779 0
M  V30 11981 O 1101.96 3.41738 -2.74129 0
M  V30 11982 C 1103.46 4.27935 -1.15702 0
M  V30 11983 H 1100.68 0.59044 -0.318781 0
M  V30 11984 H 1103.22 1.40549 -1.48547 0
M  V30 11985 H 1101.38 3.79125 -0.796425 0
M  V30 11986 H 1101.79 4.34347 -2.94012 0
M  V30 11987 H 1103.26 5.30494 -1.52579 0
M  V30 11988 H 1103.74 4.39093 -0.0968735 0
M  V30 11989 H 1104.35 3.90042 -1.69551 0
M  V30 11990 N 1102.66 0.908147 1.28804 0
M  V30 11991 C 1103.61 0.363504 2.25084 0
M  V30 11992 C 1104.6 -0.52121 1.52224 0
M  V30 11993 O 1105.79 -0.361848 1.73262 0
M  V30 11994 C 1102.92 -0.400353 3.40958 0
M  V30 11995 C 1102 0.499761 4.21145 0
M  V30 11996 N 1102.39 1.61082 4.79464 0
M  V30 11997 C 1100.69 0.299108 4.44996 0
M  V30 11998 C 1101.39 2.16906 5.39747 0
M  V30 11999 N 1100.37 1.46103 5.23598 0
M  V30 12000 H 1104.17 1.21212 2.6774 0
M  V30 12001 H 1101.69 0.760159 1.43511 0
M  V30 12002 H 1103.68 -0.807343 4.09008 0
M  V30 12003 H 1102.34 -1.24613 2.99836 0
M  V30 12004 H 1103.35 1.99347 4.77997 0
M  V30 12005 H 1100.03 -0.507611 4.14403 0
M  V30 12006 H 1101.42 3.10338 5.95936 0
M  V30 12007 N 1104.14 -1.42577 0.671525 0
M  V30 12008 C 1105.07 -2.28124 -0.0589347 0
M  V30 12009 C 1106.05 -1.40878 -0.811915 0
M  V30 12010 O 1107.24 -1.70318 -0.807717 0
M  V30 12011 C 1104.36 -3.20662 -1.09057 0
M  V30 12012 C 1103.41 -4.24291 -0.43355 0
M  V30 12013 S 1104.24 -5.29393 0.806442 0
M  V30 12014 C 1105.4 -6.25498 -0.224204 0
M  V30 12015 H 1105.63 -2.89728 0.666689 0
M  V30 12016 H 1103.16 -1.47359 0.460959 0
M  V30 12017 H 1105.12 -3.74516 -1.68071 0
M  V30 12018 H 1103.78 -2.582 -1.78862 0
M  V30 12019 H 1102.98 -4.89213 -1.21186 0
M  V30 12020 H 1102.58 -3.73908 0.0829136 0
M  V30 12021 H 1104.87 -6.68757 -1.08492 0
M  V30 12022 H 1105.81 -7.07023 0.390469 0
M  V30 12023 H 1106.22 -5.61633 -0.568214 0
M  V30 12024 N 1105.62 -0.414636 -1.52048 0
M  V30 12025 C 1106.85 0.158686 -2.06291 0
M  V30 12026 C 1107.26 1.38397 -1.2842 0
M  V30 12027 O 1106.62 1.79351 -0.337539 0
M  V30 12028 C 1106.67 0.503634 -3.57975 0
M  V30 12029 O 1106.39 -0.672996 -4.329 0
M  V30 12030 C 1107.89 1.13009 -4.28653 0
M  V30 12031 H 1105.11 0.0179622 -0.67076 0
M  V30 12032 H 1107.66 -0.587177 -1.95889 0
M  V30 12033 H 1105.81 1.19939 -3.68366 0
M  V30 12034 H 1106.22 -0.383735 -5.23094 0
M  V30 12035 H 1107.7 1.32162 -5.35945 0
M  V30 12036 H 1108.18 2.10476 -3.85482 0
M  V30 12037 H 1108.78 0.474379 -4.22646 0
M  V30 12038 N 1107.1 1.56929 -0.145233 0
M  V30 12039 C 1108.05 2.13246 0.806846 0
M  V30 12040 C 1109.03 1.05984 1.21063 0
M  V30 12041 O 1110.22 1.32165 1.17734 0
M  V30 12042 C 1107.35 2.75622 2.04663 0
M  V30 12043 C 1106.44 3.90006 1.66603 0
M  V30 12044 N 1106.83 4.95946 0.993545 0
M  V30 12045 C 1105.13 4.0068 1.95886 0
M  V30 12046 C 1105.83 5.76032 0.810087 0
M  V30 12047 N 1104.8 5.26739 1.34339 0
M  V30 12048 H 1108.61 2.92527 0.283806 0
M  V30 12049 H 1106.12 1.62302 0.0563676 0
M  V30 12050 H 1108.12 3.14329 2.73867 0
M  V30 12051 H 1106.78 1.97815 2.57487 0
M  V30 12052 H 1107.79 5.13748 0.654508 0
M  V30 12053 H 1104.46 3.33946 2.50572 0
M  V30 12054 H 1105.85 6.71315 0.280209 0
M  V30 12055 N 1108.58 -0.128553 1.57075 0
M  V30 12056 C 1109.82 -0.83801 1.84347 0
M  V30 12057 C 1110.15 -1.80325 0.728906 0
M  V30 12058 O 1109.41 -1.93678 -0.280571 0
M  V30 12059 C 1109.7 -1.63027 3.18052 0
M  V30 12060 C 1109.37 -0.810171 4.43562 0
M  V30 12061 C 1108.03 -0.583984 4.77643 0
M  V30 12062 C 1110.38 -0.237896 5.20657 0
M  V30 12063 C 1107.71 0.224887 5.86269 0
M  V30 12064 C 1110.06 0.558114 6.30133 0
M  V30 12065 C 1108.73 0.794706 6.62752 0
M  V30 12066 H 1108 -0.30665 0.674572 0
M  V30 12067 H 1110.65 -0.100797 1.91235 0
M  V30 12068 H 1108.95 -2.43812 3.06697 0
M  V30 12069 H 1110.65 -2.183 3.36372 0
M  V30 12070 H 1107.24 -0.996547 4.16854 0
M  V30 12071 H 1111.42 -0.399881 4.94686 0
M  V30 12072 H 1106.68 0.417507 6.09973 0
M  V30 12073 H 1110.85 1.00859 6.89058 0
M  V30 12074 H 1108.48 1.42331 7.46757 0
M  V30 12075 N 1110.05 -1.5248 -0.398459 0
M  V30 12076 C 1110.98 -1.79549 -1.49279 0
M  V30 12077 C 1111.96 -0.647004 -1.57315 0
M  V30 12078 O 1113.15 -0.893661 -1.72416 0
M  V30 12079 C 1110.28 -1.95582 -2.86993 0
M  V30 12080 C 1109.23 -3.1123 -2.93803 0
M  V30 12081 C 1108.56 -3.12501 -4.33874 0
M  V30 12082 C 1109.86 -4.50485 -2.64312 0
M  V30 12083 H 1111.55 -2.71187 -1.26877 0
M  V30 12084 H 1109.1 -1.30492 -0.608924 0
M  V30 12085 H 1111.05 -2.13102 -3.63546 0
M  V30 12086 H 1109.78 -1.00625 -3.10712 0
M  V30 12087 H 1108.44 -2.93477 -2.19697 0
M  V30 12088 H 1108.08 -2.15245 -4.54619 0
M  V30 12089 H 1107.78 -3.90183 -4.39353 0
M  V30 12090 H 1109.31 -3.32164 -5.12347 0
M  V30 12091 H 1110.72 -4.68387 -3.30585 0
M  V30 12092 H 1109.12 -5.30163 -2.81153 0
M  V30 12093 H 1110.19 -4.57848 -1.59696 0
M  V30 12094 N 1111.53 0.65634 -1.43283 0
M  V30 12095 C 1112.48 1.76934 -1.48199 0
M  V30 12096 C 1113.45 1.62748 -0.332023 0
M  V30 12097 O 1114.63 1.83036 -0.538735 0
M  V30 12098 C 1111.77 3.15072 -1.40797 0
M  V30 12099 C 1110.89 3.40414 -2.65974 0
M  V30 12100 C 1110.02 4.68383 -2.50582 0
M  V30 12101 C 1109.06 4.8682 -3.71043 0
M  V30 12102 N 1108.2 6.06043 -3.5448 0
M  V30 12103 H 1113.04 1.72067 -2.43304 0
M  V30 12104 H 1110.57 0.839728 -1.20777 0
M  V30 12105 H 1112.53 3.94925 -1.345 0
M  V30 12106 H 1111.16 3.19017 -0.492754 0
M  V30 12107 H 1110.21 2.54681 -2.82563 0
M  V30 12108 H 1111.53 3.49925 -3.55463 0
M  V30 12109 H 1110.68 5.56357 -2.41975 0
M  V30 12110 H 1109.42 4.61187 -1.58612 0
M  V30 12111 H 1108.42 3.97282 -3.80062 0
M  V30 12112 H 1109.65 4.95847 -4.64017 0
M  V30 12113 H 1107.6 5.99985 -2.65242 0
M  V30 12114 H 1107.51 6.16498 -4.37568 0
M  V30 12115 H 1108.78 6.96647 -3.49719 0
M  V30 12116 N 1113.01 1.29761 0.894412 0
M  V30 12117 C 1113.94 1.1115 2.00445 0
M  V30 12118 C 1114.95 0.0574655 1.62699 0
M  V30 12119 O 1116.14 0.302528 1.75918 0
M  V30 12120 C 1113.24 0.670984 3.32191 0
M  V30 12121 C 1112.42 1.80471 3.98433 0
M  V30 12122 C 1111.48 1.35431 5.08473 0
M  V30 12123 O 1110.5 2.05994 5.30618 0
M  V30 12124 N 1111.7 0.22811 5.80052 0
M  V30 12125 H 1114.47 2.06753 2.16964 0
M  V30 12126 H 1112.03 1.21772 1.06692 0
M  V30 12127 H 1114.02 0.352877 4.03159 0
M  V30 12128 H 1112.59 -0.192735 3.12005 0
M  V30 12129 H 1111.81 2.29142 3.20761 0
M  V30 12130 H 1113.1 2.56471 4.39431 0
M  V30 12131 H 1112.5 -0.360076 5.64553 0
M  V30 12132 H 1111.05 -0.0305985 6.51793 0
M  V30 12133 N 1114.49 -1.10549 1.12324 0
M  V30 12134 C 1115.73 -1.84108 0.887895 0
M  V30 12135 C 1116.09 -1.83159 -0.5759 0
M  V30 12136 O 1117.29 -2.52259 -0.928367 0
M  V30 12137 C 1115.56 -3.26866 1.44545 0
M  V30 12138 S 1117.12 -4.17567 1.34846 0
M  V30 12139 H 1113.94 -0.634752 0.320329 0
M  V30 12140 H 1116.54 -1.33036 1.43254 0
M  V30 12141 H 1115.25 -3.25126 2.50442 0
M  V30 12142 H 1114.78 -3.83008 0.89825 0
M  V30 12143 H 1116.79 -4.95173 0.319143 0
M  V30 12144 N 1115.97 -0.914965 -1.28321 0
M  V30 12145 C 1117.21 -0.548749 -1.94923 0
M  V30 12146 C 1117.54 0.907776 -1.72016 0
M  V30 12147 O 1116.8 1.66097 -1.03491 0
M  V30 12148 C 1117.09 -0.805805 -3.48198 0
M  V30 12149 C 1116.76 -2.24207 -3.91206 0
M  V30 12150 C 1115.42 -2.63475 -4.02659 0
M  V30 12151 C 1117.77 -3.17667 -4.13204 0
M  V30 12152 C 1115.1 -3.95353 -4.3349 0
M  V30 12153 C 1117.45 -4.4911 -4.45514 0
M  V30 12154 C 1116.12 -4.8823 -4.55179 0
M  V30 12155 H 1115.39 -0.200801 -0.713274 0
M  V30 12156 H 1118.04 -1.15652 -1.52633 0
M  V30 12157 H 1116.34 -0.115244 -3.9163 0
M  V30 12158 H 1118.04 -0.501609 -3.9785 0
M  V30 12159 H 1114.63 -1.92737 -3.82819 0
M  V30 12160 H 1118.81 -2.88537 -4.03807 0
M  V30 12161 H 1114.07 -4.25362 -4.39178 0
M  V30 12162 H 1118.24 -5.21542 -4.61483 0
M  V30 12163 H 1115.87 -5.90451 -4.78823 0
M  V30 12164 N 1117.44 1.42219 -0.679077 0
M  V30 12165 C 1118.67 2.06333 -0.210097 0
M  V30 12166 C 1119.09 1.50703 1.12562 0
M  V30 12167 O 1118.45 0.627241 1.70104 0
M  V30 12168 C 1118.5 3.60243 -0.160322 0
M  V30 12169 O 1117.6 4.03122 0.869872 0
M  V30 12170 H 1116.94 0.655362 -0.106754 0
M  V30 12171 H 1119.47 1.82278 -0.929294 0
M  V30 12172 H 1119.48 4.07997 0.014384 0
M  V30 12173 H 1118.16 4.00106 -1.13526 0
M  V30 12174 H 1116.74 3.66907 0.66586 0
M  V30 12175 N 1118.92 0.422693 1.51826 0
M  V30 12176 C 1119.85 -0.386913 2.30272 0
M  V30 12177 C 1120.83 -1.03411 1.35056 0
M  V30 12178 O 1122.02 -1.04055 1.6397 0
M  V30 12179 C 1119.15 -1.49645 3.13407 0
M  V30 12180 C 1118.1 -0.973532 4.16781 0
M  V30 12181 C 1117.43 -2.1777 4.88344 0
M  V30 12182 C 1118.73 -0.0181194 5.22297 0
M  V30 12183 H 1120.42 0.267697 2.98201 0
M  V30 12184 H 1117.97 0.130186 1.4341 0
M  V30 12185 H 1119.92 -2.06993 3.67059 0
M  V30 12186 H 1118.64 -2.17914 2.43272 0
M  V30 12187 H 1117.3 -0.42237 3.64159 0
M  V30 12188 H 1116.95 -2.84625 4.14726 0
M  V30 12189 H 1116.65 -1.83427 5.58237 0
M  V30 12190 H 1118.18 -2.75699 5.44814 0
M  V30 12191 H 1119.59 -0.500822 5.71108 0
M  V30 12192 H 1117.99 0.237163 5.99631 0
M  V30 12193 H 1119.06 0.923065 4.76033 0
M  V30 12194 N 1120.4 -1.5685 0.153553 0
M  V30 12195 C 1121.62 -2.01135 -0.505904 0
M  V30 12196 C 1122.05 -1.03301 -1.57196 0
M  V30 12197 O 1121.41 -0.00976022 -1.81297 0
M  V30 12198 C 1121.46 -3.44129 -1.0774 0
M  V30 12199 O 1120.56 -3.49318 -2.19205 0
M  V30 12200 H 1119.9 -0.652496 -0.123062 0
M  V30 12201 H 1122.43 -2.03039 0.252216 0
M  V30 12202 H 1122.44 -3.83066 -1.40444 0
M  V30 12203 H 1121.12 -4.1484 -0.296754 0
M  V30 12204 H 1119.69 -3.22227 -1.8768 0
M  V30 12205 N 1121.88 0.120221 -1.57141 0
M  V30 12206 C 1123.15 0.858458 -1.75755 0
M  V30 12207 C 1123.53 1.98124 -0.728693 0
M  V30 12208 O 1122.88 2.27155 0.247573 0
M  V30 12209 C 1123.09 1.37627 -3.20718 0
M  V30 12210 C 1124.44 1.82909 -3.83183 0
M  V30 12211 O 1125.46 1.47309 -3.24312 0
M  V30 12212 O 1124.32 2.4865 -4.86657 0
M  V30 12213 H 1121.42 0.407583 -0.719587 0
M  V30 12214 H 1123.96 0.104057 -1.69381 0
M  V30 12215 H 1122.74 0.570651 -3.87117 0
M  V30 12216 H 1122.36 2.19341 -3.31625 0
M  V30 12217 O 1123.39 1.59318 0.264567 0
M  V30 12218 H 1124.09 1.71039 0.909141 0
M  V30 END ATOM
M  V30 BEGIN BOND
M  V30 END BOND
M  V30 END CTAB
M  END
$$$$
