drugbank_target|Q12866 Tyrosine-protein kinase Mer (DB08325; DB12010)
 OpenBabel12092120503D

  0  0  0     0  0            999 V3000
M  V30 BEGIN CTAB
M  V30 COUNTS 15469 15658 0 0 0
M  V30 BEGIN ATOM
M  V30 1 H -0.908 1.98254 -0.117106 0
M  V30 2 N 0 1.576 0 0
M  V30 3 C 0.933 2.03868 1.02534 0
M  V30 4 C 1.911 0.928543 1.3348 0
M  V30 5 O 3.095 1.19667 1.45644 0
M  V30 6 C 0.222 2.43627 2.35294 0
M  V30 7 C -0.732 3.65373 2.2001 0
M  V30 8 S 0.101 5.13292 1.52614 0
M  V30 9 C 1.257 5.56322 2.86805 0
M  V30 10 H 1.49 2.90518 0.631377 0
M  V30 11 H -0.977 1.52953 0.210867 0
M  V30 12 H 0.981 2.67203 3.11629 0
M  V30 13 H -0.358 1.57376 2.7183 0
M  V30 14 H -1.165 3.90944 3.18086 0
M  V30 15 H -1.563 3.418 1.51819 0
M  V30 16 H 0.729 5.58782 3.83104 0
M  V30 17 H 1.672 6.56266 2.65933 0
M  V30 18 H 2.08 4.83886 2.90714 0
M  V30 19 N 1.4781 -0.272755 1.55222 0
M  V30 20 C 2.7261 -1.00234 1.75492 0
M  V30 21 C 3.0471 -1.8681 0.5592 0
M  V30 22 O 2.3171 -1.91215 -0.425882 0
M  V30 23 H 0.8971 -0.373076 0.647166 0
M  V30 24 H 3.5591 -0.296926 1.92625 0
M  V30 25 H 2.6551 -1.63913 2.65592 0
M  V30 26 N 2.9562 -1.48159 -0.537278 0
M  V30 27 C 4.3672 -1.49429 -1.11928 0
M  V30 28 C 4.7182 -0.26 -1.9447 0
M  V30 29 O 3.8432 0.633489 -2.0692 0
M  V30 30 C 4.4382 -2.70758 -2.03656 0
M  V30 31 C 2.9972 -2.74923 -2.57088 0
M  V30 32 C 2.1442 -2.42835 -1.3389 0
M  V30 33 H 5.0952 -1.55381 -0.322886 0
M  V30 34 H 5.1162 -2.48861 -2.87834 0
M  V30 35 H 4.6282 -3.60575 -1.43553 0
M  V30 36 H 2.7292 -1.89296 -3.20933 0
M  V30 37 H 2.8422 -3.76157 -2.9672 0
M  V30 38 H 1.2062 -1.93836 -1.65226 0
M  V30 39 H 1.9892 -3.34884 -0.755504 0
M  V30 40 N 4.4343 0.785586 -1.36625 0
M  V30 41 C 5.3973 1.87999 -1.31107 0
M  V30 42 C 6.3973 1.59316 -0.217959 0
M  V30 43 O 7.5873 1.67656 -0.472977 0
M  V30 44 C 4.7193 3.24861 -1.03334 0
M  V30 45 H 5.9123 1.94307 -2.2844 0
M  V30 46 H 3.4653 0.983813 -1.21453 0
M  V30 47 H 4.2003 3.24235 -0.0647432 0
M  V30 48 H 3.9853 3.4707 -1.82441 0
M  V30 49 H 5.4753 4.04929 -1.02088 0
M  V30 50 N 5.9124 1.20967 1.01018 0
M  V30 51 C 7.3234 1.02319 1.56165 0
M  V30 52 C 7.6744 -0.418546 1.91684 0
M  V30 53 O 6.7994 -1.30096 1.72928 0
M  V30 54 C 7.3944 1.85109 2.8376 0
M  V30 55 C 5.9534 1.70809 3.35412 0
M  V30 56 C 5.1004 1.82643 2.08655 0
M  V30 57 H 8.0514 1.35065 0.833255 0
M  V30 58 H 8.0724 1.35827 3.55431 0
M  V30 59 H 7.5844 2.90035 2.57878 0
M  V30 60 H 5.6854 0.685464 3.66241 0
M  V30 61 H 5.7984 2.52467 4.07182 0
M  V30 62 H 4.1624 1.25896 2.21409 0
M  V30 63 H 4.9454 2.89066 1.85191 0
M  V30 64 N 7.3905 -1.2043 1.01659 0
M  V30 65 C 8.3205 -2.25466 0.607226 0
M  V30 66 C 9.3015 -1.65853 -0.377716 0
M  V30 67 O 10.4865 -1.92409 -0.263149 0
M  V30 68 C 7.6165 -3.47256 -0.0552949 0
M  V30 69 C 6.5705 -4.19462 0.850632 0
M  V30 70 C 5.8965 -5.34673 0.0538859 0
M  V30 71 C 7.1965 -4.75603 2.15868 0
M  V30 72 H 8.8905 -2.59962 1.48526 0
M  V30 73 H 6.4365 -1.2496 0.715605 0
M  V30 74 H 8.3895 -4.19917 -0.353233 0
M  V30 75 H 7.1135 -3.11924 -0.968045 0
M  V30 76 H 5.7725 -3.48667 1.13257 0
M  V30 77 H 5.4205 -4.95585 -0.860514 0
M  V30 78 H 5.1205 -5.83913 0.657192 0
M  V30 79 H 6.6445 -6.10138 -0.237598 0
M  V30 80 H 8.0585 -5.40083 1.92311 0
M  V30 81 H 6.4555 -5.3528 2.71284 0
M  V30 82 H 7.5255 -3.94346 2.82169 0
M  V30 83 N 8.8686 -0.792821 -1.36206 0
M  V30 84 C 10.2796 -0.429513 -1.81692 0
M  V30 85 C 10.6306 1.04695 -1.65932 0
M  V30 86 O 9.7556 1.81256 -1.18218 0
M  V30 87 C 10.3506 -0.772831 -3.29868 0
M  V30 88 C 8.9096 -0.462307 -3.7355 0
M  V30 89 C 8.0566 -1.00569 -2.5842 0
M  V30 90 H 11.0076 -0.985672 -1.24379 0
M  V30 91 H 11.0286 -0.0651928 -3.80444 0
M  V30 92 H 10.5406 -1.84747 -3.41307 0
M  V30 93 H 8.6416 0.604158 -3.67669 0
M  V30 94 H 8.7546 -0.985299 -4.68859 0
M  V30 95 H 7.1186 -0.428734 -2.51066 0
M  V30 96 H 7.9016 -2.08616 -2.72643 0
M  V30 97 N 10.3467 1.47872 -0.545128 0
M  V30 98 C 11.2767 2.32661 0.197793 0
M  V30 99 C 12.2577 1.43041 0.920504 0
M  V30 100 O 13.4427 1.71912 0.90333 0
M  V30 101 C 10.5727 3.24569 1.23582 0
M  V30 102 C 9.5267 4.23333 0.630323 0
M  V30 103 C 8.8527 5.0448 1.77211 0
M  V30 104 C 10.1527 5.20704 -0.407974 0
M  V30 105 H 11.8467 2.95024 -0.510045 0
M  V30 106 H 9.3927 1.4187 -0.246731 0
M  V30 107 H 11.3457 3.8272 1.76362 0
M  V30 108 H 10.0697 2.60236 1.97344 0
M  V30 109 H 8.7287 3.6639 0.123922 0
M  V30 110 H 8.3767 4.36561 2.49847 0
M  V30 111 H 8.0767 5.71339 1.37281 0
M  V30 112 H 9.6007 5.65487 2.3034 0
M  V30 113 H 11.0147 5.7329 0.033305 0
M  V30 114 H 9.4117 5.95699 -0.725486 0
M  V30 115 H 10.4817 4.66917 -1.30828 0
M  V30 116 N 11.8248 0.280983 1.55075 0
M  V30 117 C 12.7548 -0.597469 2.25727 0
M  V30 118 C 13.7358 -1.15417 1.24952 0
M  V30 119 O 14.9208 -1.18722 1.53684 0
M  V30 120 C 12.0508 -1.7789 2.98283 0
M  V30 121 C 11.0048 -1.35347 4.06036 0
M  V30 122 C 10.3308 -2.61846 4.66198 0
M  V30 123 C 11.6308 -0.499354 5.19907 0
M  V30 124 H 13.3248 -0.00824265 2.99399 0
M  V30 125 H 10.8708 -0.0025244 1.44 0
M  V30 126 H 12.8238 -2.39937 3.46422 0
M  V30 127 H 11.5478 -2.39405 2.22155 0
M  V30 128 H 10.2068 -0.756156 3.58717 0
M  V30 129 H 9.8548 -3.21632 3.86732 0
M  V30 130 H 9.5548 -2.3409 5.38958 0
M  V30 131 H 11.0788 -3.24732 5.1709 0
M  V30 132 H 12.4928 -1.02498 5.64063 0
M  V30 133 H 10.8898 -0.316424 5.99265 0
M  V30 134 H 11.9598 0.480459 4.82514 0
M  V30 135 N 13.3029 -1.57598 0.00835791 0
M  V30 136 C 14.2329 -2.1198 -0.979113 0
M  V30 137 C 15.2139 -1.03091 -1.35301 0
M  V30 138 O 16.3989 -1.30818 -1.43528 0
M  V30 139 C 13.5289 -2.62995 -2.26828 0
M  V30 140 C 12.4829 -3.76485 -2.03576 0
M  V30 141 C 11.8089 -4.13846 -3.38579 0
M  V30 142 C 13.1089 -5.0342 -1.39161 0
M  V30 143 H 14.8029 -2.94738 -0.526281 0
M  V30 144 H 12.3489 -1.41783 -0.251704 0
M  V30 145 H 14.3019 -2.99669 -2.96271 0
M  V30 146 H 13.0259 -1.7737 -2.7424 0
M  V30 147 H 11.6849 -3.40217 -1.36557 0
M  V30 148 H 11.3329 -3.25232 -3.83709 0
M  V30 149 H 11.0329 -4.90312 -3.23834 0
M  V30 150 H 12.5569 -4.53086 -4.09323 0
M  V30 151 H 13.9709 -5.37812 -1.98573 0
M  V30 152 H 12.3679 -5.84746 -1.34878 0
M  V30 153 H 13.4379 -4.83548 -0.361868 0
M  V30 154 N 14.781 0.264519 -1.55364 0
M  V30 155 C 16.029 0.993021 -1.76021 0
M  V30 156 C 16.35 1.86511 -0.569099 0
M  V30 157 O 15.62 1.91438 0.415735 0
M  V30 158 H 14.2 0.369639 -0.649135 0
M  V30 159 H 16.862 0.286707 -1.9278 0
M  V30 160 H 15.958 1.62502 -2.66457 0
M  V30 161 N 16.2591 1.48442 0.529413 0
M  V30 162 C 17.1891 1.65902 1.64313 0
M  V30 163 C 18.1701 0.507897 1.6234 0
M  V30 164 O 19.3551 0.740503 1.79528 0
M  V30 165 C 16.4851 1.69911 3.02898 0
M  V30 166 C 15.4391 2.8453 3.19729 0
M  V30 167 C 14.7651 2.73629 4.59381 0
M  V30 168 C 16.0651 4.25821 3.02447 0
M  V30 169 H 17.7591 2.5914 1.49955 0
M  V30 170 H 15.3051 1.24709 0.719982 0
M  V30 171 H 17.2581 1.80715 3.80684 0
M  V30 172 H 15.9821 0.732524 3.18279 0
M  V30 173 H 14.6411 2.73283 2.44361 0
M  V30 174 H 14.2891 1.74938 4.71599 0
M  V30 175 H 13.9891 3.50541 4.71588 0
M  V30 176 H 15.5131 2.86401 5.39265 0
M  V30 177 H 16.9271 4.37898 3.70024 0
M  V30 178 H 15.3241 5.03735 3.26146 0
M  V30 179 H 16.3941 4.42244 1.98867 0
M  V30 180 N 17.7372 -0.778329 1.37039 0
M  V30 181 C 18.9842 -1.53665 1.31884 0
M  V30 182 C 19.3122 -1.9425 -0.0986303 0
M  V30 183 O 18.5672 -1.63832 -1.07041 0
M  V30 184 C 18.8662 -2.81845 2.19768 0
M  V30 185 C 18.5322 -2.60345 3.68146 0
M  V30 186 C 17.1942 -2.5419 4.08584 0
M  V30 187 C 19.5462 -2.40923 4.62175 0
M  V30 188 C 16.8742 -2.26594 5.41177 0
M  V30 189 C 19.2262 -2.14852 5.94997 0
M  V30 190 C 17.8902 -2.07137 6.34547 0
M  V30 191 H 17.1602 -0.562299 0.482598 0
M  V30 192 H 19.8072 -0.897069 1.69189 0
M  V30 193 H 18.1122 -3.50328 1.75436 0
M  V30 194 H 19.8092 -3.39692 2.13097 0
M  V30 195 H 16.3992 -2.65996 3.36072 0
M  V30 196 H 20.5832 -2.44673 4.31797 0
M  V30 197 H 15.8392 -2.19111 5.70789 0
M  V30 198 H 20.0132 -1.98822 6.67415 0
M  V30 199 H 17.6402 -1.85518 7.37216 0
M  V30 200 N 19.2153 -1.21501 -1.00376 0
M  V30 201 C 20.1453 -0.999478 -2.11028 0
M  V30 202 C 21.1263 0.0759671 -1.6993 0
M  V30 203 O 22.3113 -0.0841106 -1.94018 0
M  V30 204 C 19.4413 -0.564709 -3.42678 0
M  V30 205 C 18.3953 -1.58486 -3.97576 0
M  V30 206 C 17.7213 -1.00628 -5.25146 0
M  V30 207 C 19.0213 -2.97204 -4.29496 0
M  V30 208 H 20.7153 -1.92495 -2.29317 0
M  V30 209 H 18.2613 -0.92693 -1.102 0
M  V30 210 H 20.2143 -0.401091 -4.19487 0
M  V30 211 H 18.9383 0.396411 -3.24185 0
M  V30 212 H 17.5973 -1.73606 -3.22888 0
M  V30 213 H 17.2453 -0.0368439 -5.02987 0
M  V30 214 H 16.9453 -1.68771 -5.62841 0
M  V30 215 H 18.4693 -0.854015 -6.04598 0
M  V30 216 H 19.8833 -2.8552 -4.97143 0
M  V30 217 H 18.2803 -3.62372 -4.78338 0
M  V30 218 H 19.3503 -3.47956 -3.3772 0
M  V30 219 N 20.6934 1.19889 -1.02296 0
M  V30 220 C 22.1044 1.71124 -0.746568 0
M  V30 221 C 22.4554 1.81939 0.734335 0
M  V30 222 O 21.5804 1.48639 1.57275 0
M  V30 223 C 22.1754 3.10804 -1.34857 0
M  V30 224 C 20.7344 3.59323 -1.1209 0
M  V30 225 C 19.8814 2.3635 -1.45031 0
M  V30 226 H 22.8324 1.04813 -1.19163 0
M  V30 227 H 22.8534 3.73186 -0.742437 0
M  V30 228 H 22.3654 3.029 -2.42638 0
M  V30 229 H 20.4664 3.7255 -0.0610337 0
M  V30 230 H 20.5794 4.4378 -1.80544 0
M  V30 231 H 18.9434 2.39399 -0.869487 0
M  V30 232 H 19.7264 2.31081 -2.53883 0
M  V30 233 N 22.1715 0.800033 1.35784 0
M  V30 234 C 23.1345 0.211565 2.28221 0
M  V30 235 C 24.1345 -0.59728 1.49296 0
M  V30 236 O 25.3245 -0.416721 1.69142 0
M  V30 237 C 22.4565 -0.705846 3.33513 0
M  V30 238 H 23.6495 1.02677 2.81776 0
M  V30 239 H 21.2025 0.570211 1.45528 0
M  V30 240 H 21.9375 -1.54498 2.85133 0
M  V30 241 H 21.7225 -0.127655 3.91892 0
M  V30 242 H 23.2125 -1.11211 4.02519 0
M  V30 243 N 23.6496 -1.47581 0.552962 0
M  V30 244 C 24.5796 -2.32762 -0.185451 0
M  V30 245 C 25.5606 -1.43527 -0.912905 0
M  V30 246 O 26.7456 -1.72388 -0.894201 0
M  V30 247 C 23.8756 -3.25219 -1.21859 0
M  V30 248 C 22.8296 -4.23661 -0.607864 0
M  V30 249 C 22.1556 -5.05413 -1.74533 0
M  V30 250 C 23.4556 -5.20481 0.435582 0
M  V30 251 H 25.1496 -2.94749 0.525684 0
M  V30 252 H 22.6956 -1.41738 0.254251 0
M  V30 253 H 24.6486 -3.8365 -1.7433 0
M  V30 254 H 23.3726 -2.61279 -1.95961 0
M  V30 255 H 22.0316 -3.66451 -0.104489 0
M  V30 256 H 21.6796 -4.3788 -2.47529 0
M  V30 257 H 21.3796 -5.72059 -1.34249 0
M  V30 258 H 22.9036 -5.66701 -2.27338 0
M  V30 259 H 24.3176 -5.733 -0.00290157 0
M  V30 260 H 22.7146 -5.95305 0.757067 0
M  V30 261 H 23.7846 -4.66217 1.33303 0
M  V30 262 N 25.1277 -0.289203 -1.54924 0
M  V30 263 C 26.3737 0.316922 -2.00916 0
M  V30 264 C 26.7287 1.52424 -1.17408 0
M  V30 265 O 26.0217 1.90097 -0.239536 0
M  V30 266 C 26.2157 0.736119 -3.49737 0
M  V30 267 C 26.0447 -0.429036 -4.47649 0
M  V30 268 C 24.8147 -0.917311 -4.96904 0
M  V30 269 C 27.0127 -1.27016 -4.98369 0
M  V30 270 N 24.9947 -2.05046 -5.78644 0
M  V30 271 C 26.3657 -2.25097 -5.77695 0
M  V30 272 C 28.4207 -1.30188 -4.80578 0
M  V30 273 C 27.1237 -3.26114 -6.41126 0
M  V30 274 C 29.1497 -2.30057 -5.44819 0
M  V30 275 C 28.5117 -3.2687 -6.23968 0
M  V30 276 H 24.6107 0.0807535 -0.777819 0
M  V30 277 H 27.1947 -0.416434 -1.90194 0
M  V30 278 H 25.3657 1.43867 -3.60773 0
M  V30 279 H 27.0977 1.32078 -3.82541 0
M  V30 280 H 23.8527 -0.494248 -4.71014 0
M  V30 281 H 24.2767 -2.62108 -6.24202 0
M  V30 282 H 28.9187 -0.567163 -4.18979 0
M  V30 283 H 26.6367 -4.00512 -7.01866 0
M  V30 284 H 30.2227 -2.33271 -5.32988 0
M  V30 285 H 29.1027 -4.02883 -6.72796 0
M  V30 286 N 26.6058 1.57591 -0.0167156 0
M  V30 287 C 28.0218 1.55946 0.339557 0
M  V30 288 C 28.2218 1.02109 1.73713 0
M  V30 289 O 27.2778 0.662303 2.43659 0
M  V30 290 C 28.5908 3.00037 0.199499 0
M  V30 291 C 30.1388 3.11805 0.273193 0
M  V30 292 C 30.6138 4.57713 0.162068 0
M  V30 293 N 32.1048 4.6268 0.219444 0
M  V30 294 C 32.8398 5.73185 0.157054 0
M  V30 295 N 32.3358 6.92786 0.0442936 0
M  V30 296 N 34.1288 5.61707 0.21014 0
M  V30 297 H 26.2798 1.90921 -0.930758 0
M  V30 298 H 28.5428 0.877674 -0.358319 0
M  V30 299 H 28.2488 3.4333 -0.76273 0
M  V30 300 H 28.1228 3.64387 0.974786 0
M  V30 301 H 30.5098 2.68433 1.22587 0
M  V30 302 H 30.5908 2.50201 -0.532256 0
M  V30 303 H 30.2348 5.01763 -0.78714 0
M  V30 304 H 30.1648 5.17283 0.986222 0
M  V30 305 H 32.6558 3.76649 0.307246 0
M  V30 306 H 32.9688 7.728 0.00304069 0
M  V30 307 H 31.3138 6.94999 0.00968457 0
M  V30 308 H 34.5048 4.6716 0.296546 0
M  V30 309 H 34.6778 6.47807 0.158054 0
M  V30 310 N 28.0839 -0.256276 1.55502 0
M  V30 311 C 29.4999 -0.604325 1.47716 0
M  V30 312 C 29.6999 -1.88763 0.705039 0
M  V30 313 O 28.7559 -2.51445 0.230613 0
M  V30 314 C 30.0689 -0.715756 2.92057 0
M  V30 315 C 31.6169 -0.808706 3.02372 0
M  V30 316 C 32.0919 -0.951777 4.48001 0
M  V30 317 N 33.5829 -1.01688 4.519 0
M  V30 318 C 34.3179 -1.14668 5.61817 0
M  V30 319 N 33.8139 -1.24261 6.81565 0
M  V30 320 N 35.6069 -1.1791 5.49594 0
M  V30 321 H 27.7579 0.586291 2.04148 0
M  V30 322 H 30.0209 0.201015 0.926443 0
M  V30 323 H 29.7269 0.157027 3.51349 0
M  V30 324 H 29.6009 -1.59071 3.42018 0
M  V30 325 H 31.9879 -1.67195 2.43166 0
M  V30 326 H 32.0689 0.0912063 2.55637 0
M  V30 327 H 31.7129 -0.0931291 5.07815 0
M  V30 328 H 31.6429 -1.86659 4.92408 0
M  V30 329 H 34.1339 -0.954468 3.65648 0
M  V30 330 H 34.4469 -1.34046 7.61086 0
M  V30 331 H 32.7919 -1.21236 6.84344 0
M  V30 332 H 35.9829 -1.10057 4.54978 0
M  V30 333 H 36.1559 -1.27681 6.35296 0
M  V30 334 N 29.562 -1.4872 -0.521534 0
M  V30 335 C 30.525 -1.63379 -1.60748 0
M  V30 336 C 31.525 -0.50661 -1.52611 0
M  V30 337 O 32.715 -0.772601 -1.5613 0
M  V30 338 C 29.847 -1.61192 -3.00383 0
M  V30 339 H 31.04 -2.60217 -1.49087 0
M  V30 340 H 28.593 -1.37444 -0.744235 0
M  V30 341 H 29.328 -0.65863 -3.17541 0
M  V30 342 H 29.113 -2.43032 -3.07698 0
M  V30 343 H 30.603 -1.7466 -3.7932 0
M  V30 344 N 31.0401 0.771051 -1.3745 0
M  V30 345 C 32.2891 1.52491 -1.3202 0
M  V30 346 C 32.6021 1.9538 0.0927347 0
M  V30 347 O 33.8081 2.70159 0.269503 0
M  V30 348 C 32.2641 2.75366 -2.31736 0
M  V30 349 C 31.8721 2.39573 -3.78562 0
M  V30 350 C 33.6161 3.53307 -2.35318 0
M  V30 351 C 31.5231 3.58954 -4.70007 0
M  V30 352 H 30.4531 0.572506 -0.490666 0
M  V30 353 H 33.1041 0.844474 -1.62914 0
M  V30 354 H 31.4861 3.45303 -1.93861 0
M  V30 355 H 32.6601 1.77415 -4.25277 0
M  V30 356 H 30.9751 1.74805 -3.77932 0
M  V30 357 H 33.5721 4.42039 -3.00842 0
M  V30 358 H 33.9151 3.93217 -1.36698 0
M  V30 359 H 34.4481 2.90367 -2.71904 0
M  V30 360 H 31.1871 3.24125 -5.69757 0
M  V30 361 H 30.7071 4.20214 -4.27996 0
M  V30 362 H 32.3861 4.25758 -4.87175 0
M  V30 363 N 32.5182 1.22032 0.997298 0
M  V30 364 C 33.7462 1.06841 1.7718 0
M  V30 365 C 34.1612 -0.381325 1.84909 0
M  V30 366 O 33.5182 -1.26437 1.31605 0
M  V30 367 C 33.5692 1.66814 3.20711 0
M  V30 368 O 33.2902 3.06116 3.13408 0
M  V30 369 C 34.7912 1.56838 4.14628 0
M  V30 370 H 32.0112 0.374782 0.556578 0
M  V30 371 H 34.5552 1.61532 1.2541 0
M  V30 372 H 32.7102 1.16196 3.69564 0
M  V30 373 H 33.1242 3.34926 4.0364 0
M  V30 374 H 34.5982 2.03532 5.13107 0
M  V30 375 H 35.0752 0.524155 4.36061 0
M  V30 376 H 35.6812 2.06741 3.7167 0
M  V30 377 N 33.9963 -1.19345 1.0293 0
M  V30 378 C 34.9063 -2.26245 0.620515 0
M  V30 379 C 35.9223 -1.70486 -0.347928 0
M  V30 380 O 37.0983 -2.00347 -0.205704 0
M  V30 381 C 34.1633 -3.46693 -0.0218957 0
M  V30 382 C 33.2243 -4.17632 0.994102 0
M  V30 383 C 32.4573 -5.32329 0.382253 0
M  V30 384 O 32.6803 -5.64552 -0.814676 0
M  V30 385 O 31.6143 -5.91664 1.10531 0
M  V30 386 H 35.4403 -2.63453 1.51083 0
M  V30 387 H 33.0253 -1.26207 0.799513 0
M  V30 388 H 34.9073 -4.19683 -0.380072 0
M  V30 389 H 33.5823 -3.11333 -0.886209 0
M  V30 390 H 32.4893 -3.4676 1.40387 0
M  V30 391 H 33.8223 -4.56964 1.8288 0
M  V30 392 N 35.4744 -0.807222 -1.35358 0
M  V30 393 C 36.4374 -0.223665 -2.28106 0
M  V30 394 C 37.4374 0.589354 -1.4961 0
M  V30 395 O 38.6274 0.407745 -1.69361 0
M  V30 396 C 35.7594 0.688149 -3.33882 0
M  V30 397 H 36.9524 -1.04169 -2.81227 0
M  V30 398 H 34.5054 -0.577921 -1.45223 0
M  V30 399 H 35.2404 1.52984 -2.85948 0
M  V30 400 H 35.0254 0.10687 -3.91954 0
M  V30 401 H 36.5154 1.09075 -4.03104 0
M  V30 402 N 36.9525 1.47285 -0.560781 0
M  V30 403 C 38.3685 1.58065 -0.22081 0
M  V30 404 C 38.5685 1.55892 1.27671 0
M  V30 405 O 37.6245 1.46422 2.0571 0
M  V30 406 C 38.9375 2.88418 -0.850625 0
M  V30 407 C 40.4855 3.02009 -0.822184 0
M  V30 408 C 40.9605 4.35066 -1.43113 0
M  V30 409 N 42.4515 4.41711 -1.39448 0
M  V30 410 C 43.1865 5.43237 -1.83525 0
M  V30 411 N 42.6825 6.51555 -2.35474 0
M  V30 412 N 44.4755 5.34304 -1.74574 0
M  V30 413 H 36.6265 1.46941 -1.53369 0
M  V30 414 H 38.8895 0.699558 -0.639783 0
M  V30 415 H 38.5955 2.95755 -1.9032 0
M  V30 416 H 38.4695 3.75612 -0.345773 0
M  V30 417 H 40.8565 2.94266 0.221714 0
M  V30 418 H 40.9375 2.16347 -1.36483 0
M  V30 419 H 40.5815 4.43565 -2.47412 0
M  V30 420 H 40.5115 5.19465 -0.863899 0
M  V30 421 H 43.0025 3.64027 -1.01452 0
M  V30 422 H 43.3155 7.25203 -2.67021 0
M  V30 423 H 41.6605 6.52435 -2.39487 0
M  V30 424 H 44.8515 4.48581 -1.33763 0
M  V30 425 H 45.0245 6.13288 -2.09242 0
M  V30 426 N 38.4306 0.297415 1.54768 0
M  V30 427 C 39.3406 -0.58983 2.27064 0
M  V30 428 C 40.3566 -1.15144 1.30453 0
M  V30 429 O 41.5326 -1.17699 1.63428 0
M  V30 430 C 38.5976 -1.74714 2.9946 0
M  V30 431 C 37.6586 -1.21997 4.11601 0
M  V30 432 C 36.8916 -2.32212 4.80535 0
M  V30 433 O 37.1146 -3.52036 4.48806 0
M  V30 434 O 36.0486 -1.99106 5.68014 0
M  V30 435 H 39.8746 -0.00348199 3.037 0
M  V30 436 H 37.4596 0.0640035 1.49263 0
M  V30 437 H 39.3416 -2.42147 3.44881 0
M  V30 438 H 38.0166 -2.32016 2.25722 0
M  V30 439 H 36.9236 -0.511458 3.70587 0
M  V30 440 H 38.2566 -0.692419 4.87305 0
M  V30 441 N 39.9087 -1.5758 0.0250728 0
M  V30 442 C 40.8187 -2.1343 -0.973905 0
M  V30 443 C 41.8347 -1.08556 -1.35984 0
M  V30 444 O 43.0107 -1.40592 -1.44207 0
M  V30 445 C 40.0757 -2.64703 -2.23904 0
M  V30 446 C 39.1367 -3.84276 -1.91391 0
M  V30 447 C 38.3697 -4.33095 -3.11873 0
M  V30 448 O 38.5927 -3.81107 -4.24398 0
M  V30 449 O 37.5267 -5.24984 -2.94406 0
M  V30 450 H 41.3527 -2.99057 -0.529036 0
M  V30 451 H 38.9377 -1.48118 -0.195288 0
M  V30 452 H 40.8197 -2.97769 -2.98181 0
M  V30 453 H 39.4947 -1.82161 -2.6758 0
M  V30 454 H 38.4017 -3.56143 -1.14511 0
M  V30 455 H 39.7347 -4.67968 -1.52534 0
M  V30 456 N 41.3868 0.248026 -1.55636 0
M  V30 457 C 42.3498 1.29044 -1.89421 0
M  V30 458 C 43.3498 1.41134 -0.770581 0
M  V30 459 O 44.5398 1.39854 -1.03858 0
M  V30 460 C 41.6718 2.66831 -2.12165 0
M  V30 461 H 42.8648 1.00305 -2.82629 0
M  V30 462 H 40.4178 0.487265 -1.48511 0
M  V30 463 H 41.1528 3.00711 -1.21422 0
M  V30 464 H 40.9378 2.59438 -2.93997 0
M  V30 465 H 42.4278 3.42103 -2.3949 0
M  V30 466 N 42.8649 1.48995 0.513639 0
M  V30 467 C 43.8119 1.6473 1.61656 0
M  V30 468 C 44.7819 0.488984 1.58739 0
M  V30 469 O 45.9669 0.714478 1.76918 0
M  V30 470 C 43.1069 1.7082 2.99858 0
M  V30 471 C 42.2199 2.9787 3.12885 0
M  V30 472 C 41.3549 2.95017 4.41744 0
M  V30 473 C 40.3939 4.16702 4.48359 0
M  V30 474 N 39.5309 4.11832 5.68629 0
M  V30 475 H 44.3709 2.58909 1.47547 0
M  V30 476 H 41.9079 1.28382 0.71808 0
M  V30 477 H 43.8659 1.72331 3.79944 0
M  V30 478 H 42.4959 0.801181 3.12699 0
M  V30 479 H 41.5479 3.06029 2.25944 0
M  V30 480 H 42.8599 3.8786 3.13633 0
M  V30 481 H 42.0139 2.95021 5.30139 0
M  V30 482 H 40.7529 2.02784 4.43542 0
M  V30 483 H 39.7579 4.16955 3.58369 0
M  V30 484 H 40.9829 5.10113 4.48287 0
M  V30 485 H 38.9289 3.22428 5.71293 0
M  V30 486 H 38.8459 4.95543 5.7094 0
M  V30 487 H 40.1139 4.1592 6.59266 0
M  V30 488 N 44.343 -0.763751 1.37857 0
M  V30 489 C 45.754 -1.3405 1.29952 0
M  V30 490 C 46.105 -1.96138 -0.0492898 0
M  V30 491 O 45.23 -1.94372 -0.951239 0
M  V30 492 C 45.825 -2.43729 2.35333 0
M  V30 493 C 44.384 -2.97151 2.31037 0
M  V30 494 C 43.531 -1.70438 2.18738 0
M  V30 495 H 46.482 -0.563396 1.48363 0
M  V30 496 H 46.503 -3.23412 2.00462 0
M  V30 497 H 46.015 -1.9851 3.33489 0
M  V30 498 H 44.116 -3.46724 1.3643 0
M  V30 499 H 44.229 -3.52221 3.24772 0
M  V30 500 H 42.593 -1.93673 1.65418 0
M  V30 501 H 43.376 -1.27312 3.18821 0
M  V30 502 N 45.8211 -1.22559 -0.990812 0
M  V30 503 C 47.0511 -1.07623 -1.76355 0
M  V30 504 C 47.4591 0.37601 -1.85426 0
M  V30 505 O 46.8021 1.27228 -1.32509 0
M  V30 506 C 46.8641 -1.61507 -3.21179 0
M  V30 507 C 46.5281 -3.10146 -3.35646 0
M  V30 508 C 47.5251 -4.07553 -3.22796 0
M  V30 509 C 45.2101 -3.49644 -3.60631 0
M  V30 510 C 47.2041 -5.42442 -3.34716 0
M  V30 511 C 44.8911 -4.84682 -3.72192 0
M  V30 512 C 45.8891 -5.8089 -3.59243 0
M  V30 513 O 45.5771 -7.13476 -3.70415 0
M  V30 514 H 45.3091 -0.377745 -0.560611 0
M  V30 515 H 47.8631 -1.62658 -1.25425 0
M  V30 516 H 46.0931 -1.00881 -3.73309 0
M  V30 517 H 47.7821 -1.42202 -3.80175 0
M  V30 518 H 48.5481 -3.78381 -3.03403 0
M  V30 519 H 44.4271 -2.75282 -3.69785 0
M  V30 520 H 47.9711 -6.17518 -3.24526 0
M  V30 521 H 43.8681 -5.13534 -3.91092 0
M  V30 522 H 44.6361 -7.21083 -3.87275 0
M  V30 523 N 47.2992 1.18797 -1.03562 0
M  V30 524 C 48.7102 1.70322 -0.764676 0
M  V30 525 C 49.0612 1.82708 0.714996 0
M  V30 526 O 48.1862 1.50299 1.55689 0
M  V30 527 C 48.7812 3.09356 -1.38145 0
M  V30 528 C 47.3402 3.58114 -1.15895 0
M  V30 529 C 46.4872 2.34798 -1.4753 0
M  V30 530 H 49.4382 1.03543 -1.20268 0
M  V30 531 H 49.4592 3.72378 -0.781977 0
M  V30 532 H 48.9712 3.00309 -2.45837 0
M  V30 533 H 47.0722 3.72464 -0.100544 0
M  V30 534 H 47.1852 4.4184 -1.8524 0
M  V30 535 H 45.5492 2.38464 -0.894829 0
M  V30 536 H 46.3322 2.28375 -2.56319 0
M  V30 537 N 48.7773 0.814389 1.34928 0
M  V30 538 C 49.7073 0.244827 2.32213 0
M  V30 539 C 50.6883 -0.634024 1.57842 0
M  V30 540 O 51.8733 -0.562676 1.8587 0
M  V30 541 C 49.0033 -0.601106 3.42058 0
M  V30 542 C 47.9573 0.179896 4.27622 0
M  V30 543 C 47.2833 -0.788237 5.28858 0
M  V30 544 C 48.5833 1.38329 5.03649 0
M  V30 545 H 50.2773 1.05763 2.80097 0
M  V30 546 H 47.8233 0.510029 1.34665 0
M  V30 547 H 49.7763 -1.00968 4.09125 0
M  V30 548 H 48.5003 -1.44688 2.92802 0
M  V30 549 H 47.1593 0.569739 3.62146 0
M  V30 550 H 46.8073 -1.62973 4.75866 0
M  V30 551 H 46.5073 -0.269942 5.8698 0
M  V30 552 H 48.0313 -1.19485 5.98795 0
M  V30 553 H 49.4453 1.04918 5.63618 0
M  V30 554 H 47.8423 1.83662 5.71304 0
M  V30 555 H 48.9123 2.16592 4.33839 0
M  V30 556 N 50.2554 -1.46986 0.568584 0
M  V30 557 C 51.5024 -2.02441 0.0487986 0
M  V30 558 C 51.8304 -1.44169 -1.30559 0
M  V30 559 O 51.0854 -0.591213 -1.86556 0
M  V30 560 C 51.3844 -3.57306 -0.081836 0
M  V30 561 C 51.0504 -4.34552 1.20313 0
M  V30 562 C 49.7124 -4.55376 1.5552 0
M  V30 563 C 52.0644 -4.79016 2.05411 0
M  V30 564 C 49.3924 -5.17913 2.7565 0
M  V30 565 C 51.7444 -5.42879 3.24754 0
M  V30 566 C 50.4084 -5.61933 3.60261 0
M  V30 567 H 49.6784 -0.740785 0.0178567 0
M  V30 568 H 52.3254 -1.76525 0.742384 0
M  V30 569 H 50.6304 -3.8228 -0.858463 0
M  V30 570 H 52.3274 -3.97876 -0.499546 0
M  V30 571 H 48.9174 -4.18631 0.919014 0
M  V30 572 H 53.1014 -4.62696 1.79516 0
M  V30 573 H 48.3574 -5.30858 3.03315 0
M  V30 574 H 52.5314 -5.76293 3.90973 0
M  V30 575 H 50.1584 -6.10161 4.53439 0
M  V30 576 N 51.7335 -0.305618 -1.54608 0
M  V30 577 C 53.1445 0.186098 -1.8577 0
M  V30 578 C 53.4955 1.53058 -1.22751 0
M  V30 579 O 52.6205 2.09888 -0.526893 0
M  V30 580 C 53.2155 0.344449 -3.37044 0
M  V30 581 C 51.7745 0.780384 -3.68221 0
M  V30 582 C 50.9215 -0.108554 -2.77087 0
M  V30 583 H 53.8725 -0.526485 -1.49712 0
M  V30 584 H 53.8935 1.17828 -3.61796 0
M  V30 585 H 53.4055 -0.634235 -3.82883 0
M  V30 586 H 51.5065 1.76945 -3.27904 0
M  V30 587 H 51.6195 0.596572 -4.75371 0
M  V30 588 H 49.9835 0.412931 -2.5133 0
M  V30 589 H 50.7665 -1.08368 -3.25747 0
M  V30 590 N 53.2116 1.57565 -0.0334293 0
M  V30 591 C 54.4596 1.91598 0.642999 0
M  V30 592 C 54.7806 0.910847 1.7242 0
M  V30 593 O 54.0506 -0.0469931 1.95844 0
M  V30 594 H 52.6306 0.707228 0.240496 0
M  V30 595 H 55.2926 1.94726 -0.0822488 0
M  V30 596 H 54.3886 2.92336 1.09298 0
M  V30 597 N 54.6897 -0.239769 1.55765 0
M  V30 598 C 56.1007 -0.808263 1.68297 0
M  V30 599 C 56.4517 -1.85736 0.632181 0
M  V30 600 O 55.5767 -2.15277 -0.220204 0
M  V30 601 C 56.1717 -1.47284 3.05111 0
M  V30 602 C 54.7307 -1.98895 3.19559 0
M  V30 603 C 53.8777 -0.842575 2.64189 0
M  V30 604 H 56.8287 -0.0154422 1.58692 0
M  V30 605 H 56.8497 -2.34111 2.99954 0
M  V30 606 H 56.3617 -0.709053 3.81568 0
M  V30 607 H 54.4627 -2.78132 2.47938 0
M  V30 608 H 54.5757 -2.18143 4.26556 0
M  V30 609 H 52.9397 -1.24501 2.22197 0
M  V30 610 H 53.7227 -0.0917552 3.43177 0
M  V30 611 N 56.1678 -1.49265 -0.50573 0
M  V30 612 C 57.4148 -1.58513 -1.26015 0
M  V30 613 C 57.7428 -0.26972 -1.92621 0
M  V30 614 O 56.9978 0.741997 -1.81088 0
M  V30 615 C 57.2968 -2.69008 -2.35308 0
M  V30 616 C 56.9628 -4.10662 -1.86192 0
M  V30 617 C 55.6248 -4.49212 -1.72516 0
M  V30 618 C 57.9768 -4.99336 -1.49375 0
M  V30 619 C 55.3048 -5.74214 -1.20394 0
M  V30 620 C 57.6568 -6.24852 -0.987072 0
M  V30 621 C 56.3208 -6.62236 -0.836669 0
M  V30 622 H 55.5908 -0.580041 -0.461122 0
M  V30 623 H 58.2378 -1.83078 -0.561665 0
M  V30 624 H 56.5428 -2.38396 -3.10926 0
M  V30 625 H 58.2398 -2.73373 -2.93374 0
M  V30 626 H 54.8298 -3.8023 -1.97795 0
M  V30 627 H 59.0138 -4.70212 -1.5879 0
M  V30 628 H 54.2698 -6.01883 -1.07458 0
M  V30 629 H 58.4438 -6.92944 -0.692983 0
M  V30 630 H 56.0708 -7.58979 -0.430607 0
M  V30 631 N 57.6459 0.756429 -1.3826 0
M  V30 632 C 59.0569 1.33359 -1.30661 0
M  V30 633 C 59.4079 1.96161 0.0388875 0
M  V30 634 O 58.5329 1.94874 0.940918 0
M  V30 635 C 59.1279 2.42477 -2.36622 0
M  V30 636 C 57.6869 2.95922 -2.3261 0
M  V30 637 C 56.8339 1.69275 -2.19639 0
M  V30 638 H 59.7849 0.55552 -1.4866 0
M  V30 639 H 59.8059 3.22345 -2.02174 0
M  V30 640 H 59.3179 1.96739 -3.34538 0
M  V30 641 H 57.4189 3.45996 -1.38267 0
M  V30 642 H 57.5319 3.50494 -3.26636 0
M  V30 643 H 55.8959 1.92793 -1.66442 0
M  V30 644 H 56.6789 1.25619 -3.19491 0
M  V30 645 N 59.124 1.23083 0.984299 0
M  V30 646 C 60.372 1.05848 1.72165 0
M  V30 647 C 60.693 -0.406049 1.90726 0
M  V30 648 O 59.963 -1.29139 1.47309 0
M  V30 649 H 58.543 0.388685 0.637913 0
M  V30 650 H 61.205 1.54736 1.18503 0
M  V30 651 H 60.301 1.54327 2.71274 0
M  V30 652 N 60.6021 -1.18246 1.0419 0
M  V30 653 C 61.8271 -1.92736 0.765996 0
M  V30 654 C 62.2521 -1.75728 -0.67091 0
M  V30 655 O 61.6101 -1.06825 -1.46486 0
M  V30 656 C 61.6581 -3.42148 1.13875 0
M  V30 657 O 60.7621 -4.11548 0.264954 0
M  V30 658 H 60.1031 -0.601238 0.281797 0
M  V30 659 H 62.6331 -1.49942 1.39207 0
M  V30 660 H 62.6431 -3.92858 1.1012 0
M  V30 661 H 61.3181 -3.53848 2.18551 0
M  V30 662 H 59.8951 -3.71137 0.362226 0
M  V30 663 N 62.0802 -0.821533 -1.34494 0
M  V30 664 C 63.0102 -0.257138 -2.3208 0
M  V30 665 C 63.9912 0.625645 -1.58176 0
M  V30 666 O 65.1762 0.552811 -1.86166 0
M  V30 667 C 62.3062 0.582958 -3.42372 0
M  V30 668 C 61.2602 -0.202571 -4.2752 0
M  V30 669 C 60.5862 0.760179 -5.29269 0
M  V30 670 C 61.8862 -1.40998 -5.02908 0
M  V30 671 H 63.5802 -1.07247 -2.79532 0
M  V30 672 H 61.1262 -0.517163 -1.34393 0
M  V30 673 H 63.0792 0.987972 -4.09655 0
M  V30 674 H 61.8032 1.43133 -2.93565 0
M  V30 675 H 60.4622 -0.588936 -3.61838 0
M  V30 676 H 60.1102 1.60447 -4.76724 0
M  V30 677 H 59.8102 0.238809 -5.87115 0
M  V30 678 H 61.3342 1.16308 -5.9942 0
M  V30 679 H 62.7482 -1.07905 -5.63054 0
M  V30 680 H 61.1452 -1.86689 -5.70322 0
M  V30 681 H 62.2152 -2.1889 -4.32684 0
M  V30 682 N 63.5583 1.46682 -0.576371 0
M  V30 683 C 64.4903 2.28341 0.198231 0
M  V30 684 C 65.5033 1.38141 0.861453 0
M  V30 685 O 66.6923 1.62797 0.732082 0
M  V30 686 C 63.7923 3.12986 1.29972 0
M  V30 687 C 62.9653 4.31271 0.729639 0
M  V30 688 C 62.0243 4.97363 1.71803 0
M  V30 689 O 61.0503 5.55156 1.25658 0
M  V30 690 N 62.2523 4.93796 3.05198 0
M  V30 691 H 65.0173 2.9546 -0.502324 0
M  V30 692 H 62.5783 1.56525 -0.413715 0
M  V30 693 H 64.5703 3.54066 1.96008 0
M  V30 694 H 63.1403 2.47984 1.90323 0
M  V30 695 H 62.3603 3.94052 -0.108012 0
M  V30 696 H 63.6483 5.07739 0.328438 0
M  V30 697 H 63.0463 4.48077 3.45317 0
M  V30 698 H 61.6033 5.38837 3.6674 0
M  V30 699 N 65.0364 0.313813 1.54444 0
M  V30 700 C 66.2644 -0.293918 2.04802 0
M  V30 701 C 66.6794 -1.46537 1.19047 0
M  V30 702 O 66.0364 -1.81182 0.218939 0
M  V30 703 C 66.0874 -0.737806 3.53891 0
M  V30 704 O 65.8084 0.387038 4.36387 0
M  V30 705 C 67.3094 -1.40936 4.203 0
M  V30 706 H 64.5294 -0.0620057 0.668129 0
M  V30 707 H 67.0734 0.457169 1.99324 0
M  V30 708 H 65.2284 -1.43889 3.59687 0
M  V30 709 H 65.6424 0.0391274 5.24485 0
M  V30 710 H 67.1164 -1.67099 5.26101 0
M  V30 711 H 67.5934 -2.35355 3.70816 0
M  V30 712 H 68.1994 -0.751117 4.18615 0
M  V30 713 N 66.5145 -1.57545 0.0417849 0
M  V30 714 C 67.7915 -1.83642 -0.673433 0
M  V30 715 C 68.1715 -0.928298 -1.89594 0
M  V30 716 O 67.5195 0.0129955 -2.28496 0
M  V30 717 C 67.7295 -3.33155 -1.03964 0
M  V30 718 C 69.0775 -3.99941 -1.42592 0
M  V30 719 O 70.1015 -3.37725 -1.13226 0
M  V30 720 O 68.9605 -5.09619 -1.9736 0
M  V30 721 H 66.0545 -0.757638 -0.331533 0
M  V30 722 H 68.6005 -1.69554 0.070433 0
M  V30 723 H 67.3725 -3.9093 -0.170098 0
M  V30 724 H 66.9955 -3.52396 -1.84126 0
M  V30 725 N 67.9926 0.231505 -1.5589 0
M  V30 726 C 68.9426 1.29007 -1.87993 0
M  V30 727 C 69.9266 1.42764 -0.742102 0
M  V30 728 O 71.1186 1.45747 -1.00433 0
M  V30 729 C 68.2476 2.6425 -2.1915 0
M  V30 730 C 67.3336 2.54435 -3.39299 0
M  V30 731 N 67.7246 2.14262 -4.58176 0
M  V30 732 C 66.0226 2.85416 -3.42715 0
M  V30 733 C 66.7236 2.15455 -5.40328 0
M  V30 734 N 65.6996 2.55558 -4.79783 0
M  V30 735 H 69.5016 0.970213 -2.77424 0
M  V30 736 H 67.0156 0.440097 -1.56323 0
M  V30 737 H 69.0126 3.40665 -2.40319 0
M  V30 738 H 67.6726 2.9709 -1.31025 0
M  V30 739 H 68.6836 1.85554 -4.83518 0
M  V30 740 H 65.3606 3.22693 -2.64906 0
M  V30 741 H 66.7506 1.86605 -6.45467 0
M  V30 742 N 69.4707 1.49531 0.497807 0
M  V30 743 C 70.6987 1.62893 1.27567 0
M  V30 744 C 71.1137 0.301585 1.86376 0
M  V30 745 O 70.4707 -0.713335 1.67982 0
M  V30 746 C 70.5217 2.70013 2.40364 0
M  V30 747 O 70.2427 3.976 1.83972 0
M  V30 748 C 71.7437 2.94109 3.31685 0
M  V30 749 H 68.9637 0.548298 0.386794 0
M  V30 750 H 71.5077 1.95584 0.597245 0
M  V30 751 H 69.6627 2.40092 3.04031 0
M  V30 752 H 70.0767 4.56631 2.58047 0
M  V30 753 H 71.5507 3.72788 4.07104 0
M  V30 754 H 72.0277 2.04147 3.88871 0
M  V30 755 H 72.6337 3.2546 2.73781 0
M  V30 756 N 70.9488 -0.749086 1.3866 0
M  V30 757 C 72.3598 -1.32664 1.31366 0
M  V30 758 C 72.7108 -1.96179 -0.028484 0
M  V30 759 O 71.8358 -1.9537 -0.93057 0
M  V30 760 C 72.4308 -2.41219 2.37905 0
M  V30 761 C 70.9898 -2.94684 2.34176 0
M  V30 762 C 70.1368 -1.68108 2.20533 0
M  V30 763 H 73.0878 -0.547628 1.48952 0
M  V30 764 H 73.1088 -3.21268 2.0388 0
M  V30 765 H 72.6208 -1.94962 3.35576 0
M  V30 766 H 70.7218 -3.45258 1.401 0
M  V30 767 H 70.8348 -3.48757 3.2849 0
M  V30 768 H 69.1988 -1.91907 1.67463 0
M  V30 769 H 69.9818 -1.23923 3.20153 0
M  V30 770 N 72.4269 -1.23603 -0.977757 0
M  V30 771 C 73.3569 -1.04401 -2.0886 0
M  V30 772 C 74.3379 0.0399052 -1.70053 0
M  V30 773 O 75.5229 -0.125246 -1.93796 0
M  V30 774 C 72.6529 -0.637269 -3.41403 0
M  V30 775 C 71.6069 -1.66883 -3.94124 0
M  V30 776 C 70.9329 -1.11745 -5.22893 0
M  V30 777 C 72.2329 -3.06247 -4.23096 0
M  V30 778 H 73.9269 -1.97316 -2.25182 0
M  V30 779 H 71.4729 -0.950096 -1.08209 0
M  V30 780 H 73.4259 -0.48998 -4.18542 0
M  V30 781 H 72.1499 0.327557 -3.24953 0
M  V30 782 H 70.8089 -1.80416 -3.19133 0
M  V30 783 H 70.4569 -0.143527 -5.02795 0
M  V30 784 H 70.1569 -1.80672 -5.59134 0
M  V30 785 H 71.6809 -0.982067 -6.02651 0
M  V30 786 H 73.0949 -2.96001 -4.90975 0
M  V30 787 H 71.4919 -3.72436 -4.70544 0
M  V30 788 H 72.5619 -3.55041 -3.30263 0
M  V30 789 N 73.905 1.17692 -1.04816 0
M  V30 790 C 74.835 2.23777 -0.666791 0
M  V30 791 C 75.816 1.66796 0.33361 0
M  V30 792 O 77.001 1.93039 0.212042 0
M  V30 793 C 74.131 3.47281 -0.0367933 0
M  V30 794 C 73.085 4.17059 -0.961546 0
M  V30 795 C 72.411 5.34342 -0.195626 0
M  V30 796 C 73.711 4.69713 -2.28402 0
M  V30 797 H 75.405 2.55933 -1.55367 0
M  V30 798 H 72.951 1.23019 -0.748484 0
M  V30 799 H 74.904 4.20706 0.241775 0
M  V30 800 H 73.628 3.14381 0.885004 0
M  V30 801 H 72.287 3.45541 -1.22462 0
M  V30 802 H 71.935 4.97692 0.728816 0
M  V30 803 H 71.635 5.81966 -0.811775 0
M  V30 804 H 73.159 6.10553 0.0757473 0
M  V30 805 H 74.573 5.34794 -2.06563 0
M  V30 806 H 72.97 5.279 -2.8538 0
M  V30 807 H 74.04 3.86726 -2.92525 0
M  V30 808 N 75.3831 0.828654 1.34056 0
M  V30 809 C 76.6081 0.431637 2.02859 0
M  V30 810 C 77.0331 -0.956339 1.61975 0
M  V30 811 O 76.3911 -1.62338 0.807228 0
M  V30 812 C 76.4391 0.548323 3.56407 0
M  V30 813 O 75.5431 -0.429556 4.10157 0
M  V30 814 H 74.8841 0.176886 0.640006 0
M  V30 815 H 77.4141 1.12066 1.71179 0
M  V30 816 H 77.4241 0.426196 4.05768 0
M  V30 817 H 76.0991 1.5606 3.8551 0
M  V30 818 H 74.6761 -0.265836 3.71951 0
M  V30 819 N 76.8612 -1.46375 0.584142 0
M  V30 820 C 77.7912 -2.33103 -0.136037 0
M  V30 821 C 78.7722 -1.45431 -0.882255 0
M  V30 822 O 79.9572 -1.74246 -0.857434 0
M  V30 823 C 77.0872 -3.27731 -1.14933 0
M  V30 824 C 76.0412 -4.24855 -0.517862 0
M  V30 825 C 75.3672 -5.09001 -1.63773 0
M  V30 826 C 76.6672 -5.19439 0.545886 0
M  V30 827 H 78.3612 -2.93568 0.588086 0
M  V30 828 H 75.9072 -1.41166 0.284259 0
M  V30 829 H 77.8602 -3.87261 -1.66153 0
M  V30 830 H 76.5842 -2.65377 -1.90375 0
M  V30 831 H 75.2432 -3.6659 -0.0267361 0
M  V30 832 H 74.8912 -4.43031 -2.38185 0
M  V30 833 H 74.5912 -5.74777 -1.22085 0
M  V30 834 H 76.1152 -5.71396 -2.15266 0
M  V30 835 H 77.5292 -5.73177 0.118704 0
M  V30 836 H 75.9262 -5.93566 0.88317 0
M  V30 837 H 76.9962 -4.63285 1.43162 0
M  V30 838 N 78.3393 -0.321999 -1.54275 0
M  V30 839 C 79.7503 0.166384 -1.85957 0
M  V30 840 C 80.1013 1.51747 -1.24367 0
M  V30 841 O 79.2263 2.09317 -0.549124 0
M  V30 842 C 79.8213 0.308681 -3.37391 0
M  V30 843 C 78.3803 0.741286 -3.69028 0
M  V30 844 C 77.5273 -0.137937 -2.76957 0
M  V30 845 H 80.4783 -0.542335 -1.49146 0
M  V30 846 H 80.4993 1.13984 -3.63026 0
M  V30 847 H 80.0113 -0.674809 -3.82188 0
M  V30 848 H 78.1123 1.73458 -3.29762 0
M  V30 849 H 78.2253 0.546118 -4.75977 0
M  V30 850 H 76.5893 0.386251 -2.51754 0
M  V30 851 H 77.3723 -1.11816 -3.2458 0
M  V30 852 N 79.8174 1.5752 -0.0501392 0
M  V30 853 C 80.7674 2.07981 0.934231 0
M  V30 854 C 81.7514 0.984745 1.27246 0
M  V30 855 O 82.9434 1.24809 1.25506 0
M  V30 856 C 80.0724 2.62751 2.20945 0
M  V30 857 C 79.1584 3.79225 1.89865 0
M  V30 858 N 79.5494 4.89036 1.29142 0
M  V30 859 C 77.8474 3.88111 2.19741 0
M  V30 860 C 78.5484 5.70084 1.15669 0
M  V30 861 N 77.5244 5.17659 1.65923 0
M  V30 862 H 81.3264 2.90277 0.460053 0
M  V30 863 H 78.8404 1.61665 0.15434 0
M  V30 864 H 80.8374 2.97205 2.9236 0
M  V30 865 H 79.4974 1.81894 2.6897 0
M  V30 866 H 80.5084 5.08854 0.963756 0
M  V30 867 H 77.1854 3.18194 2.70293 0
M  V30 868 H 78.5754 6.68395 0.685356 0
M  V30 869 N 81.2955 -0.223234 1.56011 0
M  V30 870 C 82.2585 -1.26014 1.9145 0
M  V30 871 C 83.2585 -1.3989 0.792937 0
M  V30 872 O 84.4485 -1.38184 1.0607 0
M  V30 873 C 81.5805 -2.63422 2.16383 0
M  V30 874 H 82.7735 -0.95796 2.84189 0
M  V30 875 H 80.3265 -0.463576 1.49267 0
M  V30 876 H 81.0615 -2.98741 1.2619 0
M  V30 877 H 80.8465 -2.54728 2.98088 0
M  V30 878 H 82.3365 -3.38249 2.44903 0
M  V30 879 N 82.7736 -1.49793 -0.48987 0
M  V30 880 C 83.9986 -1.63836 -1.27172 0
M  V30 881 C 84.4236 -0.31402 -1.8546 0
M  V30 882 O 83.7816 0.719803 -1.66399 0
M  V30 883 C 83.8296 -2.71797 -2.36978 0
M  V30 884 O 82.9336 -2.31744 -3.41128 0
M  V30 885 H 82.2746 -0.547997 -0.37496 0
M  V30 886 H 84.8046 -1.96053 -0.585191 0
M  V30 887 H 84.8146 -2.94305 -2.82575 0
M  V30 888 H 83.4896 -3.67923 -1.93921 0
M  V30 889 H 82.0666 -2.1961 -3.01373 0
M  V30 890 N 84.2517 0.741722 -1.39055 0
M  V30 891 C 85.4997 1.49818 -1.35643 0
M  V30 892 C 85.8207 1.94938 0.0491642 0
M  V30 893 O 85.0907 1.68505 0.999141 0
M  V30 894 H 83.6707 0.555755 -0.499144 0
M  V30 895 H 86.3327 0.880957 -1.73854 0
M  V30 896 H 85.4287 2.38348 -2.01486 0
M  V30 897 N 85.7298 1.2412 0.971189 0
M  V30 898 C 86.9598 1.10415 1.7462 0
M  V30 899 C 87.3678 -0.346462 1.86001 0
M  V30 900 O 86.7108 -1.25104 1.34517 0
M  V30 901 C 86.7728 1.66596 3.18568 0
M  V30 902 C 86.4368 3.15446 3.3067 0
M  V30 903 C 87.4338 4.12636 3.16271 0
M  V30 904 C 85.1188 3.55337 3.55022 0
M  V30 905 C 87.1128 5.47699 3.26044 0
M  V30 906 C 84.7998 4.90542 3.64434 0
M  V30 907 C 85.7978 5.86532 3.49956 0
M  V30 908 O 85.4858 7.19279 3.59017 0
M  V30 909 H 85.2178 0.386616 0.55453 0
M  V30 910 H 87.7718 1.64633 1.22821 0
M  V30 911 H 86.0018 1.06808 3.71657 0
M  V30 912 H 87.6908 1.48232 3.77865 0
M  V30 913 H 88.4568 3.8316 2.97344 0
M  V30 914 H 84.3358 2.8113 3.65359 0
M  V30 915 H 87.8798 6.22603 3.14661 0
M  V30 916 H 83.7768 5.19691 3.82873 0
M  V30 917 H 84.5448 7.27153 3.75754 0
M  V30 918 N 87.2079 -1.17134 1.05439 0
M  V30 919 C 88.1399 -2.2078 0.615539 0
M  V30 920 C 89.1529 -1.59584 -0.322001 0
M  V30 921 O 90.3419 -1.78133 -0.114344 0
M  V30 922 C 87.4419 -3.38691 -0.118938 0
M  V30 923 C 86.6149 -4.29454 0.829924 0
M  V30 924 C 85.6739 -5.26024 0.136258 0
M  V30 925 O 84.6999 -5.63952 0.77115 0
M  V30 926 N 85.9019 -5.69487 -1.1254 0
M  V30 927 H 88.6669 -2.59052 1.50705 0
M  V30 928 H 86.2279 -1.32058 0.936603 0
M  V30 929 H 88.2199 -4.00329 -0.593179 0
M  V30 930 H 86.7899 -2.98996 -0.91215 0
M  V30 931 H 86.0099 -3.65211 1.48373 0
M  V30 932 H 87.2979 -4.86984 1.47392 0
M  V30 933 H 86.6959 -5.4075 -1.6615 0
M  V30 934 H 85.2529 -6.33257 -1.54366 0
M  V30 935 N 88.686 -0.835752 -1.33615 0
M  V30 936 C 90.097 -0.487099 -1.80234 0
M  V30 937 C 90.448 0.993627 -1.69179 0
M  V30 938 O 89.573 1.77403 -1.23924 0
M  V30 939 C 90.168 -0.877385 -3.27242 0
M  V30 940 C 88.727 -0.580915 -3.7189 0
M  V30 941 C 87.874 -1.0874 -2.5509 0
M  V30 942 H 90.825 -1.02474 -1.2118 0
M  V30 943 H 90.846 -0.186195 -3.80044 0
M  V30 944 H 90.358 -1.95512 -3.35256 0
M  V30 945 H 88.459 0.486881 -3.69405 0
M  V30 946 H 88.572 -1.13396 -4.65487 0
M  V30 947 H 86.936 -0.508392 -2.49575 0
M  V30 948 H 87.719 -2.17184 -2.65868 0
M  V30 949 N 90.1641 1.46063 -0.591896 0
M  V30 950 C 91.1271 2.28854 0.125973 0
M  V30 951 C 92.1271 1.38903 0.810107 0
M  V30 952 O 93.3171 1.61186 0.66066 0
M  V30 953 C 90.4491 3.19526 1.1881 0
M  V30 954 H 91.6421 2.93802 -0.601717 0
M  V30 955 H 89.1951 1.52325 -0.350254 0
M  V30 956 H 89.9301 2.59345 1.94707 0
M  V30 957 H 89.7151 3.85766 0.701936 0
M  V30 958 H 91.2051 3.81817 1.69132 0
M  V30 959 N 91.6422 0.330177 1.54103 0
M  V30 960 C 92.5722 -0.525353 2.27513 0
M  V30 961 C 93.5532 -1.11383 1.2856 0
M  V30 962 O 94.7382 -1.13773 1.57383 0
M  V30 963 C 91.8682 -1.6831 3.03791 0
M  V30 964 C 90.8222 -1.2236 4.10137 0
M  V30 965 C 90.1482 -2.46882 4.74293 0
M  V30 966 C 91.4482 -0.333697 5.21233 0
M  V30 967 H 93.1422 0.087013 2.99274 0
M  V30 968 H 90.6882 0.0432893 1.43935 0
M  V30 969 H 92.6412 -2.28795 3.5388 0
M  V30 970 H 91.3652 -2.32216 2.29659 0
M  V30 971 H 90.0242 -0.64165 3.60941 0
M  V30 972 H 89.6722 -3.09165 3.96769 0
M  V30 973 H 89.3722 -2.16825 5.46133 0
M  V30 974 H 90.8962 -3.08117 5.27159 0
M  V30 975 H 92.3102 -0.845013 5.67038 0
M  V30 976 H 90.7072 -0.125612 5.99969 0
M  V30 977 H 91.7772 0.633724 4.80741 0
M  V30 978 N 93.1203 -1.57491 0.0584922 0
M  V30 979 C 94.0533 -2.07533 -0.948969 0
M  V30 980 C 95.0313 -0.977444 -1.29942 0
M  V30 981 O 96.2153 -1.2499 -1.41102 0
M  V30 982 C 93.3423 -2.52192 -2.2609 0
M  V30 983 C 92.3883 -3.73287 -2.06298 0
M  V30 984 S 93.2213 -5.18603 -1.33459 0
M  V30 985 C 94.3773 -5.66583 -2.65959 0
M  V30 986 H 94.6103 -2.92662 -0.523118 0
M  V30 987 H 92.1433 -1.53631 -0.153954 0
M  V30 988 H 94.1013 -2.78585 -3.01498 0
M  V30 989 H 92.7623 -1.67356 -2.65802 0
M  V30 990 H 91.9553 -4.0248 -3.03357 0
M  V30 991 H 91.5573 -3.47199 -1.39029 0
M  V30 992 H 93.8493 -5.72616 -3.62101 0
M  V30 993 H 94.7923 -6.65684 -2.41393 0
M  V30 994 H 95.2003 -4.94342 -2.72554 0
M  V30 995 N 94.5984 0.214957 -1.56127 0
M  V30 996 C 95.8454 0.938372 -1.79446 0
M  V30 997 C 96.1734 1.8407 -0.628378 0
M  V30 998 O 95.4284 1.91837 0.386925 0
M  V30 999 C 95.7274 1.80314 -3.0858 0
M  V30 1000 C 95.3934 1.05349 -4.3842 0
M  V30 1001 C 94.0554 0.846435 -4.73697 0
M  V30 1002 C 96.4074 0.524588 -5.18553 0
M  V30 1003 C 93.7354 0.098683 -5.86617 0
M  V30 1004 C 96.0874 -0.209853 -6.32252 0
M  V30 1005 C 94.7514 -0.428102 -6.66126 0
M  V30 1006 H 94.0214 0.343375 -0.656639 0
M  V30 1007 H 96.6684 0.206077 -1.90388 0
M  V30 1008 H 94.9734 2.6035 -2.92789 0
M  V30 1009 H 96.6704 2.36513 -3.23825 0
M  V30 1010 H 93.2604 1.22486 -4.10725 0
M  V30 1011 H 97.4444 0.672008 -4.91729 0
M  V30 1012 H 92.7004 -0.0805753 -6.11347 0
M  V30 1013 H 96.8744 -0.627157 -6.9357 0
M  V30 1014 H 94.5014 -1.00944 -7.53468 0
M  V30 1015 N 96.0765 1.50051 0.48192 0
M  V30 1016 C 97.3015 1.64508 1.26301 0
M  V30 1017 C 97.7265 0.323851 1.85291 0
M  V30 1018 O 97.0845 -0.710969 1.66778 0
M  V30 1019 C 97.1325 2.7305 2.35533 0
M  V30 1020 O 96.2365 2.3355 3.39895 0
M  V30 1021 H 95.5775 0.549978 0.372048 0
M  V30 1022 H 98.1075 1.9636 0.574786 0
M  V30 1023 H 98.1175 2.95799 2.8101 0
M  V30 1024 H 96.7925 3.68946 1.91967 0
M  V30 1025 H 95.3695 2.21205 3.00204 0
M  V30 1026 N 97.5546 -0.734337 1.39446 0
M  V30 1027 C 98.9656 -1.31264 1.32766 0
M  V30 1028 C 99.3166 -1.96198 -0.00767497 0
M  V30 1029 O 98.4416 -1.96346 -0.909796 0
M  V30 1030 C 99.0366 -2.38682 2.4045 0
M  V30 1031 C 97.5956 -2.92184 2.37288 0
M  V30 1032 C 96.7426 -1.6576 2.22304 0
M  V30 1033 H 99.6936 -0.531799 1.49525 0
M  V30 1034 H 99.7146 -3.19087 2.07276 0
M  V30 1035 H 99.2266 -1.91392 3.37625 0
M  V30 1036 H 97.3276 -3.43752 1.43754 0
M  V30 1037 H 97.4406 -3.45253 3.3217 0
M  V30 1038 H 95.8046 -1.9012 1.69489 0
M  V30 1039 H 96.5876 -1.20521 3.21449 0
M  V30 1040 N 99.0327 -1.24633 -0.964593 0
M  V30 1041 C 100.261 -1.11501 -1.74285 0
M  V30 1042 C 100.676 0.332165 -1.85855 0
M  V30 1043 O 100.033 1.22903 -1.34911 0
M  V30 1044 C 100.084 -1.75258 -3.16175 0
M  V30 1045 O 99.8047 -3.14318 -3.05182 0
M  V30 1046 C 101.306 -1.67776 -4.10324 0
M  V30 1047 H 98.5257 -0.389407 -0.546446 0
M  V30 1048 H 101.07 -1.64801 -1.21083 0
M  V30 1049 H 99.2247 -1.25954 -3.66353 0
M  V30 1050 H 99.6387 -3.4551 -3.94618 0
M  V30 1051 H 101.113 -2.17064 -5.0753 0
M  V30 1052 H 101.59 -0.639584 -4.34518 0
M  V30 1053 H 102.196 -2.16522 -3.66058 0
M  V30 1054 N 100.511 1.16574 -1.06058 0
M  V30 1055 C 101.443 2.2045 -0.627239 0
M  V30 1056 C 102.456 1.59752 0.313534 0
M  V30 1057 O 103.645 1.78192 0.104896 0
M  V30 1058 C 100.745 3.3875 0.100974 0
M  V30 1059 C 99.9178 4.29008 -0.852687 0
M  V30 1060 C 98.9768 5.25944 -0.164152 0
M  V30 1061 O 98.0028 5.63535 -0.801047 0
M  V30 1062 N 99.2048 5.70075 1.09518 0
M  V30 1063 H 101.97 2.58249 -1.52077 0
M  V30 1064 H 99.5308 1.3156 -0.943594 0
M  V30 1065 H 101.523 4.00638 0.57194 0
M  V30 1066 H 100.093 2.99476 0.89628 0
M  V30 1067 H 99.3128 3.64419 -1.50308 0
M  V30 1068 H 100.601 4.86195 -1.49972 0
M  V30 1069 H 99.9988 5.41624 1.6328 0
M  V30 1070 H 98.5558 6.34067 1.51006 0
M  V30 1071 N 101.989 0.842826 1.3317 0
M  V30 1072 C 103.4 0.496651 1.79973 0
M  V30 1073 C 103.751 -0.984641 1.69703 0
M  V30 1074 O 102.876 -1.76743 1.24863 0
M  V30 1075 C 103.471 0.894727 3.26772 0
M  V30 1076 C 102.03 0.600629 3.71577 0
M  V30 1077 C 101.177 1.10091 2.5451 0
M  V30 1078 H 104.128 1.03116 1.20635 0
M  V30 1079 H 104.149 0.206347 3.7994 0
M  V30 1080 H 103.661 1.97287 3.34215 0
M  V30 1081 H 101.762 -0.467284 3.69658 0
M  V30 1082 H 101.875 1.15863 4.64879 0
M  V30 1083 H 100.239 0.52162 2.49301 0
M  V30 1084 H 101.022 2.18591 2.64713 0
M  V30 1085 N 103.467 -1.45747 0.599634 0
M  V30 1086 C 104.715 -2.01893 0.0915472 0
M  V30 1087 C 105.036 -1.47155 -1.27946 0
M  V30 1088 O 104.306 -0.66273 -1.84349 0
M  V30 1089 H 102.886 -0.746363 0.0308524 0
M  V30 1090 H 105.548 -1.78645 0.779237 0
M  V30 1091 H 104.644 -3.1208 0.0353086 0
M  V30 1092 N 104.945 -0.338344 -1.53925 0
M  V30 1093 C 106.361 0.0137736 -1.59594 0
M  V30 1094 C 106.561 1.49186 -1.35447 0
M  V30 1095 O 105.617 2.24987 -1.14616 0
M  V30 1096 C 106.93 -0.41773 -2.97784 0
M  V30 1097 C 108.478 -0.369633 -3.1081 0
M  V30 1098 C 108.953 -0.776524 -4.51369 0
M  V30 1099 N 110.444 -0.730506 -4.57403 0
M  V30 1100 C 111.179 -1.01736 -5.64303 0
M  V30 1101 N 110.675 -1.3721 -6.79077 0
M  V30 1102 N 112.468 -0.941942 -5.54151 0
M  V30 1103 H 104.619 -1.3012 -1.67876 0
M  V30 1104 H 106.882 -0.530082 -0.78595 0
M  V30 1105 H 106.588 -1.44811 -3.20504 0
M  V30 1106 H 106.462 0.209729 -3.76616 0
M  V30 1107 H 108.849 0.651568 -2.87817 0
M  V30 1108 H 108.93 -1.03223 -2.34049 0
M  V30 1109 H 108.574 -1.79571 -4.75096 0
M  V30 1110 H 108.504 -0.0914649 -5.26521 0
M  V30 1111 H 110.995 -0.468783 -3.74981 0
M  V30 1112 H 111.308 -1.57597 -7.5656 0
M  V30 1113 H 109.653 -1.4105 -6.80536 0
M  V30 1114 H 112.844 -0.664184 -4.63364 0
M  V30 1115 H 113.017 -1.16884 -6.37371 0
M  V30 1116 N 106.423 1.57458 -0.0668435 0
M  V30 1117 C 107.834 1.80776 0.466558 0
M  V30 1118 C 108.185 0.980361 1.69951 0
M  V30 1119 O 107.31 0.201441 2.1546 0
M  V30 1120 C 107.905 3.27881 0.85321 0
M  V30 1121 C 106.464 3.52062 1.3315 0
M  V30 1122 C 105.611 2.75513 0.314264 0
M  V30 1123 H 108.562 1.5598 -0.292588 0
M  V30 1124 H 108.583 3.39659 1.715 0
M  V30 1125 H 108.095 3.88075 -0.0443439 0
M  V30 1126 H 106.196 2.97167 2.24772 0
M  V30 1127 H 106.309 4.60762 1.31285 0
M  V30 1128 H 104.673 2.42123 0.790492 0
M  V30 1129 H 105.456 3.38442 -0.575477 0
M  V30 1130 N 107.901 -0.206675 1.56239 0
M  V30 1131 C 108.851 -1.26 1.90021 0
M  V30 1132 C 109.835 -1.41566 0.764721 0
M  V30 1133 O 111.027 -1.44131 1.02739 0
M  V30 1134 C 108.156 -2.6073 2.23326 0
M  V30 1135 C 107.242 -2.49005 3.43304 0
M  V30 1136 N 107.633 -2.06946 4.61527 0
M  V30 1137 C 105.931 -2.79927 3.47213 0
M  V30 1138 C 106.632 -2.06832 5.43687 0
M  V30 1139 N 105.608 -2.47892 4.83788 0
M  V30 1140 H 109.41 -0.925955 2.78932 0
M  V30 1141 H 106.924 -0.415172 1.57003 0
M  V30 1142 H 108.921 -3.36798 2.45708 0
M  V30 1143 H 107.581 -2.94968 1.35735 0
M  V30 1144 H 108.592 -1.77839 4.86409 0
M  V30 1145 H 105.269 -3.18438 2.70006 0
M  V30 1146 H 106.659 -1.76312 6.48354 0
M  V30 1147 N 109.379 -1.50304 -0.473955 0
M  V30 1148 C 110.607 -1.64902 -1.24959 0
M  V30 1149 C 111.022 -0.331198 -1.85872 0
M  V30 1150 O 110.379 0.68652 -1.69095 0
M  V30 1151 C 110.43 -2.73803 -2.36038 0
M  V30 1152 O 110.151 -4.00477 -1.77624 0
M  V30 1153 C 111.652 -2.99349 -3.26964 0
M  V30 1154 H 108.872 -0.554383 -0.378022 0
M  V30 1155 H 111.416 -1.9651 -0.566054 0
M  V30 1156 H 109.571 -2.44898 -3.00173 0
M  V30 1157 H 109.985 -4.60678 -2.5075 0
M  V30 1158 H 111.459 -3.79217 -4.01121 0
M  V30 1159 H 111.936 -2.10307 -3.85574 0
M  V30 1160 H 112.542 -3.29774 -2.68569 0
M  V30 1161 N 110.857 0.726932 -1.39834 0
M  V30 1162 C 112.105 1.4837 -1.37225 0
M  V30 1163 C 112.426 1.94979 0.0284857 0
M  V30 1164 O 111.696 1.69555 0.981213 0
M  V30 1165 H 110.276 0.55043 -0.505011 0
M  V30 1166 H 112.938 0.862468 -1.74778 0
M  V30 1167 H 112.034 2.36198 -2.04003 0
M  V30 1168 N 112.336 1.25143 0.95797 0
M  V30 1169 C 113.284 1.05019 2.07542 0
M  V30 1170 C 114.278 -0.0178751 1.69391 0
M  V30 1171 O 115.484 0.137472 1.79474 0
M  V30 1172 H 111.859 0.32265 0.679265 0
M  V30 1173 H 113.83 1.99759 2.21673 0
M  V30 1174 C 112.579 0.682074 3.40944 0
M  V30 1175 H 111.902 1.49573 3.70767 0
M  V30 1176 H 113.342 0.580945 4.20001 0
M  V30 1177 C 111.801 -0.611608 3.31302 0
M  V30 1178 O 112.331 -1.65465 3.66038 0
M  V30 1179 N 110.537 -0.595982 2.84423 0
M  V30 1180 H 110.084 0.253192 2.56353 0
M  V30 1181 H 110.042 -1.46173 2.78354 0
M  V30 1182 N 113.814 -1.1601 1.06675 0
M  V30 1183 C 115.06 -1.86909 0.786945 0
M  V30 1184 C 115.393 -1.81717 -0.685018 0
M  V30 1185 O 114.668 -1.23551 -1.50218 0
M  V30 1186 C 114.951 -3.36313 1.28707 0
M  V30 1187 C 114.804 -3.50175 2.82308 0
M  V30 1188 C 116.123 -4.3084 0.898071 0
M  V30 1189 H 113.242 -0.678677 0.287343 0
M  V30 1190 H 115.884 -1.36336 1.32334 0
M  V30 1191 H 114.034 -3.79513 0.830768 0
M  V30 1192 H 115.706 -3.15886 3.36175 0
M  V30 1193 H 113.949 -2.91959 3.20847 0
M  V30 1194 H 114.62 -4.55116 3.12368 0
M  V30 1195 H 117.096 -3.95561 1.29114 0
M  V30 1196 H 115.972 -5.33876 1.27543 0
M  V30 1197 H 116.233 -4.41662 -0.196651 0
M  V30 1198 N 115.292 -0.849877 -1.32721 0
M  V30 1199 C 116.255 -0.296122 -2.27279 0
M  V30 1200 C 117.255 0.541458 -1.5141 0
M  V30 1201 O 118.445 0.353658 -1.70572 0
M  V30 1202 C 115.577 0.581579 -3.35902 0
M  V30 1203 H 116.77 -1.13064 -2.77771 0
M  V30 1204 H 114.323 -0.62383 -1.43311 0
M  V30 1205 H 115.058 1.43809 -2.9067 0
M  V30 1206 H 114.843 -0.0178814 -3.92096 0
M  V30 1207 H 116.333 0.961951 -4.0637 0
M  V30 1208 N 116.77 1.45427 -0.607355 0
M  V30 1209 C 118.019 2.01452 -0.100036 0
M  V30 1210 C 118.332 1.48159 1.27704 0
M  V30 1211 O 119.538 1.96159 1.87707 0
M  V30 1212 C 117.994 3.59672 -0.128158 0
M  V30 1213 C 117.602 4.21962 -1.50507 0
M  V30 1214 C 119.346 4.23262 0.323932 0
M  V30 1215 C 117.253 5.72333 -1.48959 0
M  V30 1216 H 116.183 0.75325 -0.0336299 0
M  V30 1217 H 118.834 1.66901 -0.76265 0
M  V30 1218 H 117.216 3.91411 0.601105 0
M  V30 1219 H 118.39 4.01796 -2.25602 0
M  V30 1220 H 116.705 3.70565 -1.89923 0
M  V30 1221 H 119.302 5.33522 0.354691 0
M  V30 1222 H 119.645 3.93921 1.34656 0
M  V30 1223 H 120.178 3.96239 -0.352056 0
M  V30 1224 H 116.917 6.06373 -2.48981 0
M  V30 1225 H 116.437 5.94691 -0.781214 0
M  V30 1226 H 118.116 6.35525 -1.21313 0
M  V30 1227 N 118.248 0.346503 1.53744 0
M  V30 1228 C 119.659 -0.136779 1.86198 0
M  V30 1229 C 120.01 -1.49749 1.26766 0
M  V30 1230 O 119.135 -2.08417 0.582355 0
M  V30 1231 C 119.73 -0.254966 3.37839 0
M  V30 1232 C 118.289 -0.682482 3.70161 0
M  V30 1233 C 117.436 0.181981 2.76702 0
M  V30 1234 H 120.387 0.565994 1.48264 0
M  V30 1235 H 120.408 -1.08195 3.64793 0
M  V30 1236 H 119.92 0.735526 3.81066 0
M  V30 1237 H 118.021 -1.68189 3.3248 0
M  V30 1238 H 118.134 -0.470326 4.76786 0
M  V30 1239 H 116.498 -0.34615 2.52337 0
M  V30 1240 H 117.281 1.16966 3.2276 0
M  V30 1241 N 119.726 -1.57421 0.075193 0
M  V30 1242 C 120.658 -2.09904 -0.920483 0
M  V30 1243 C 121.671 -1.03191 -1.25918 0
M  V30 1244 O 122.86 -1.30695 -1.21577 0
M  V30 1245 C 119.96 -2.54726 -2.23534 0
M  V30 1246 C 119.133 -3.8505 -2.07498 0
M  V30 1247 C 118.192 -4.15929 -3.22319 0
M  V30 1248 O 117.218 -4.85474 -2.9716 0
M  V30 1249 N 118.42 -3.69745 -4.47514 0
M  V30 1250 H 121.185 -2.95954 -0.472359 0
M  V30 1251 H 118.746 -1.61523 -0.110444 0
M  V30 1252 H 120.738 -2.72443 -2.9926 0
M  V30 1253 H 119.308 -1.73795 -2.59835 0
M  V30 1254 H 118.528 -3.76679 -1.16219 0
M  V30 1255 H 119.816 -4.70348 -1.94038 0
M  V30 1256 H 119.214 -3.13569 -4.7084 0
M  V30 1257 H 117.771 -3.92655 -5.20255 0
M  V30 1258 N 121.204 0.198386 -1.56346 0
M  V30 1259 C 122.45 0.920648 -1.80698 0
M  V30 1260 C 122.783 1.83045 -0.648697 0
M  V30 1261 O 122.058 1.91308 0.350925 0
M  V30 1262 C 122.341 1.73971 -3.15287 0
M  V30 1263 C 122.194 0.85485 -4.41602 0
M  V30 1264 C 123.513 2.71296 -3.46535 0
M  V30 1265 H 120.632 0.333261 -0.657348 0
M  V30 1266 H 123.274 0.188198 -1.89066 0
M  V30 1267 H 121.424 2.36416 -3.08285 0
M  V30 1268 H 123.096 0.245362 -4.60647 0
M  V30 1269 H 121.339 0.161398 -4.335 0
M  V30 1270 H 122.01 1.46286 -5.32264 0
M  V30 1271 H 124.486 2.18983 -3.53816 0
M  V30 1272 H 123.362 3.2569 -4.41834 0
M  V30 1273 H 123.623 3.5018 -2.69864 0
M  V30 1274 N 122.682 1.50554 0.465978 0
M  V30 1275 C 123.91 1.65563 1.24083 0
M  V30 1276 C 124.325 0.341051 1.85694 0
M  V30 1277 O 123.682 -0.677543 1.69457 0
M  V30 1278 C 123.733 2.75051 2.34583 0
M  V30 1279 O 123.454 4.01413 1.75497 0
M  V30 1280 C 124.955 3.01078 3.25372 0
M  V30 1281 H 122.175 0.55638 0.375077 0
M  V30 1282 H 124.719 1.96807 0.555624 0
M  V30 1283 H 122.874 2.46486 2.9887 0
M  V30 1284 H 123.288 4.62002 2.48303 0
M  V30 1285 H 124.762 3.81339 3.99105 0
M  V30 1286 H 125.239 2.12349 3.84453 0
M  V30 1287 H 125.845 3.31194 2.66816 0
M  V30 1288 N 124.16 -0.719506 1.40217 0
M  V30 1289 C 125.385 -1.51371 1.4178 0
M  V30 1290 C 125.81 -1.88091 0.0182355 0
M  V30 1291 O 125.168 -1.52997 -0.972707 0
M  V30 1292 C 125.216 -2.768 2.31115 0
M  V30 1293 O 124.32 -3.73349 1.7517 0
M  V30 1294 H 123.661 -0.456529 0.482159 0
M  V30 1295 H 126.191 -0.88644 1.844 0
M  V30 1296 H 126.201 -3.25371 2.46167 0
M  V30 1297 H 124.876 -2.49407 3.3282 0
M  V30 1298 H 123.453 -3.32179 1.69444 0
M  V30 1299 N 125.638 -1.25649 -0.95132 0
M  V30 1300 C 126.884 -1.10757 -1.69884 0
M  V30 1301 C 127.217 0.350061 -1.91019 0
M  V30 1302 O 126.492 1.25783 -1.48354 0
M  V30 1303 C 126.775 -1.86606 -3.07978 0
M  V30 1304 C 126.628 -3.40217 -2.94232 0
M  V30 1305 C 127.947 -1.65182 -4.07925 0
M  V30 1306 H 125.066 -0.40374 -0.616574 0
M  V30 1307 H 127.708 -1.54521 -1.10558 0
M  V30 1308 H 125.858 -1.49409 -3.58621 0
M  V30 1309 H 127.53 -3.87108 -2.50889 0
M  V30 1310 H 125.773 -3.67759 -2.30078 0
M  V30 1311 H 126.444 -3.88505 -3.92133 0
M  V30 1312 H 128.92 -1.9757 -3.66204 0
M  V30 1313 H 127.796 -2.20683 -5.02583 0
M  V30 1314 H 128.057 -0.593933 -4.38092 0
M  V30 1315 N 127.117 1.15442 -1.07289 0
M  V30 1316 C 128.027 2.23786 -0.704057 0
M  V30 1317 C 129.043 1.7166 0.284413 0
M  V30 1318 O 130.219 2.00972 0.131205 0
M  V30 1319 C 127.284 3.46535 -0.106792 0
M  V30 1320 C 126.345 4.13654 -1.14842 0
M  V30 1321 C 125.578 5.30544 -0.57956 0
M  V30 1322 O 125.801 5.67187 0.604585 0
M  V30 1323 O 124.735 5.87154 -1.32414 0
M  V30 1324 H 128.561 2.57664 -1.60757 0
M  V30 1325 H 126.146 1.23152 -0.845803 0
M  V30 1326 H 128.028 4.20804 0.224048 0
M  V30 1327 H 126.703 3.14407 0.770049 0
M  V30 1328 H 125.61 3.4131 -1.5316 0
M  V30 1329 H 126.943 4.49861 -1.99714 0
M  V30 1330 N 128.595 0.856903 1.32268 0
M  V30 1331 C 129.82 0.474569 2.01897 0
M  V30 1332 C 130.245 -0.921766 1.63967 0
M  V30 1333 O 129.603 -1.60589 0.84148 0
M  V30 1334 C 129.651 0.623799 3.55164 0
M  V30 1335 O 128.755 -0.342459 4.10976 0
M  V30 1336 H 128.096 0.190422 0.63611 0
M  V30 1337 H 130.626 1.15672 1.68764 0
M  V30 1338 H 130.636 0.512169 4.04773 0
M  V30 1339 H 129.311 1.64202 3.82113 0
M  V30 1340 H 127.888 -0.18688 3.72431 0
M  V30 1341 N 130.073 -1.45103 0.615059 0
M  V30 1342 C 131.02 -2.30586 -0.0993978 0
M  V30 1343 C 131.99 -1.42544 -0.852669 0
M  V30 1344 O 133.175 -1.71465 -0.836917 0
M  V30 1345 C 130.315 -3.27572 -1.08583 0
M  V30 1346 C 129.428 -4.30717 -0.332656 0
M  V30 1347 C 128.563 -5.14807 -1.30947 0
M  V30 1348 C 127.602 -6.09673 -0.544538 0
M  V30 1349 N 126.739 -6.86517 -1.47101 0
M  V30 1350 H 131.579 -2.91144 0.635542 0
M  V30 1351 H 129.116 -1.4346 0.325206 0
M  V30 1352 H 131.074 -3.82276 -1.67095 0
M  V30 1353 H 129.704 -2.68751 -1.78809 0
M  V30 1354 H 128.756 -3.78615 0.368107 0
M  V30 1355 H 130.068 -4.98102 0.263842 0
M  V30 1356 H 129.222 -5.73948 -1.96643 0
M  V30 1357 H 127.961 -4.47458 -1.9399 0
M  V30 1358 H 126.966 -5.49656 0.126003 0
M  V30 1359 H 128.191 -6.79052 0.080947 0
M  V30 1360 H 126.137 -6.21851 -2.08895 0
M  V30 1361 H 126.054 -7.50281 -0.928137 0
M  V30 1362 H 127.322 -7.50194 -2.11731 0
M  V30 1363 N 131.551 -0.354651 -1.53558 0
M  V30 1364 C 132.962 0.126902 -1.86268 0
M  V30 1365 C 133.313 1.49075 -1.27558 0
M  V30 1366 O 132.438 2.08105 -0.5934 0
M  V30 1367 C 133.033 0.237046 -3.3797 0
M  V30 1368 C 131.592 0.662842 -3.70518 0
M  V30 1369 C 130.739 -0.196652 -2.76602 0
M  V30 1370 H 133.69 -0.573849 -1.47962 0
M  V30 1371 H 133.711 1.06259 -3.65362 0
M  V30 1372 H 133.223 -0.755725 -3.80671 0
M  V30 1373 H 131.324 1.66424 -3.33367 0
M  V30 1374 H 131.437 0.445034 -4.77029 0
M  V30 1375 H 129.801 0.332763 -2.52517 0
M  V30 1376 H 130.584 -1.18676 -3.22135 0
M  V30 1377 N 133.029 1.57378 -0.0835403 0
M  V30 1378 C 133.959 2.1641 0.87686 0
M  V30 1379 C 134.94 1.09429 1.30228 0
M  V30 1380 O 136.125 1.37516 1.37124 0
M  V30 1381 C 133.255 2.73517 2.14022 0
M  V30 1382 C 132.209 3.85769 1.85381 0
M  V30 1383 C 131.535 4.29529 3.18448 0
M  V30 1384 C 132.835 5.09486 1.14984 0
M  V30 1385 H 134.529 2.96914 0.385059 0
M  V30 1386 H 132.075 1.42823 0.18377 0
M  V30 1387 H 134.028 3.13463 2.81636 0
M  V30 1388 H 132.752 1.90252 2.65465 0
M  V30 1389 H 131.411 3.46345 1.20169 0
M  V30 1390 H 131.059 3.43169 3.67755 0
M  V30 1391 H 130.759 5.05204 3.00071 0
M  V30 1392 H 132.283 4.72099 3.8724 0
M  V30 1393 H 133.697 5.46674 1.72687 0
M  V30 1394 H 132.094 5.90515 1.06826 0
M  V30 1395 H 133.164 4.84724 0.130749 0
M  V30 1396 N 134.507 -0.190092 1.56449 0
M  V30 1397 C 135.918 -0.754312 1.70784 0
M  V30 1398 C 136.269 -1.83631 0.690951 0
M  V30 1399 O 135.394 -2.15868 -0.151604 0
M  V30 1400 C 135.989 -1.37503 3.09642 0
M  V30 1401 C 134.548 -1.88628 3.25725 0
M  V30 1402 C 133.695 -0.758098 2.66736 0
M  V30 1403 H 136.646 0.0350524 1.58661 0
M  V30 1404 H 136.667 -2.2445 3.0725 0
M  V30 1405 H 136.179 -0.587302 3.83631 0
M  V30 1406 H 134.28 -2.70103 2.56661 0
M  V30 1407 H 134.393 -2.04462 4.3328 0
M  V30 1408 H 132.757 -1.17369 2.26046 0
M  V30 1409 H 133.54 0.0174705 3.43296 0
M  V30 1410 N 135.985 -1.50799 -0.457987 0
M  V30 1411 C 137.396 -1.55152 -1.0385 0
M  V30 1412 C 137.747 -0.362719 -1.92818 0
M  V30 1413 O 136.872 0.522915 -2.09987 0
M  V30 1414 C 137.467 -2.81173 -1.89017 0
M  V30 1415 C 136.026 -2.88164 -2.42154 0
M  V30 1416 C 135.173 -2.49591 -1.20829 0
M  V30 1417 H 138.124 -1.56874 -0.240068 0
M  V30 1418 H 138.145 -2.63769 -2.74238 0
M  V30 1419 H 137.657 -3.67677 -1.24238 0
M  V30 1420 H 135.758 -2.06042 -3.10447 0
M  V30 1421 H 135.871 -3.91356 -2.76364 0
M  V30 1422 H 134.235 -2.02322 -1.54719 0
M  V30 1423 H 135.018 -3.38418 -0.576927 0
M  V30 1424 N 137.463 0.71206 -1.40597 0
M  V30 1425 C 138.393 1.83889 -1.43899 0
M  V30 1426 C 139.374 1.67442 -0.299504 0
M  V30 1427 O 140.559 1.87421 -0.508624 0
M  V30 1428 C 137.689 3.21877 -1.30431 0
M  V30 1429 C 136.643 3.53002 -2.42019 0
M  V30 1430 C 135.969 4.90172 -2.13626 0
M  V30 1431 C 137.269 3.53643 -3.84362 0
M  V30 1432 H 138.963 1.81383 -2.38203 0
M  V30 1433 H 136.509 0.871237 -1.14654 0
M  V30 1434 H 138.462 4.00404 -1.31357 0
M  V30 1435 H 137.186 3.24968 -0.326049 0
M  V30 1436 H 135.845 2.76818 -2.40349 0
M  V30 1437 H 135.493 4.89869 -1.14182 0
M  V30 1438 H 135.193 5.11962 -2.88389 0
M  V30 1439 H 136.717 5.71028 -2.1624 0
M  V30 1440 H 138.131 4.22203 -3.87837 0
M  V30 1441 H 136.528 3.86961 -4.58673 0
M  V30 1442 H 137.598 2.52954 -4.13693 0
M  V30 1443 N 138.941 1.26152 0.944643 0
M  V30 1444 C 139.904 1.07474 2.0244 0
M  V30 1445 C 140.904 0.0242064 1.60782 0
M  V30 1446 O 142.094 0.267302 1.72137 0
M  V30 1447 C 139.226 0.633956 3.34953 0
M  V30 1448 H 140.419 2.03336 2.20442 0
M  V30 1449 H 137.972 1.087 1.12312 0
M  V30 1450 H 138.707 -0.326811 3.22649 0
M  V30 1451 H 138.492 1.39247 3.66542 0
M  V30 1452 H 139.982 0.52501 4.14287 0
M  V30 1453 N 140.419 -1.14872 1.07899 0
M  V30 1454 C 141.666 -1.85789 0.805532 0
M  V30 1455 C 141.994 -1.82649 -0.668561 0
M  V30 1456 O 141.249 -1.24858 -1.50695 0
M  V30 1457 C 141.548 -3.34223 1.26609 0
M  V30 1458 C 141.214 -3.57555 2.74709 0
M  V30 1459 C 139.876 -3.63631 3.1516 0
M  V30 1460 C 142.228 -3.66803 3.70277 0
M  V30 1461 C 139.556 -3.76473 4.49983 0
M  V30 1462 C 141.908 -3.8117 5.04869 0
M  V30 1463 C 140.572 -3.85494 5.44932 0
M  V30 1464 H 139.842 -0.679849 0.294765 0
M  V30 1465 H 142.489 -1.3572 1.35101 0
M  V30 1466 H 140.794 -3.86536 0.640103 0
M  V30 1467 H 142.491 -3.87511 1.03132 0
M  V30 1468 H 139.081 -3.5347 2.42398 0
M  V30 1469 H 143.265 -3.61404 3.40149 0
M  V30 1470 H 138.521 -3.7808 4.80484 0
M  V30 1471 H 142.695 -3.87268 5.78789 0
M  V30 1472 H 140.322 -3.95197 6.49403 0
M  V30 1473 N 141.898 -0.863906 -1.31812 0
M  V30 1474 C 142.845 -0.313303 -2.28664 0
M  V30 1475 C 143.815 0.584868 -1.55462 0
M  V30 1476 O 145 0.517805 -1.83639 0
M  V30 1477 C 142.14 0.48441 -3.41683 0
M  V30 1478 C 141.253 -0.440594 -4.29747 0
M  V30 1479 C 140.388 0.370652 -5.29905 0
M  V30 1480 C 139.427 -0.551164 -6.09613 0
M  V30 1481 N 138.564 0.223462 -7.01744 0
M  V30 1482 H 143.404 -1.14444 -2.75148 0
M  V30 1483 H 140.941 -0.575769 -1.35364 0
M  V30 1484 H 142.899 0.962627 -4.05943 0
M  V30 1485 H 141.529 1.28029 -2.96325 0
M  V30 1486 H 140.581 -1.03724 -3.65986 0
M  V30 1487 H 141.893 -1.14767 -4.85417 0
M  V30 1488 H 141.047 0.911638 -5.99812 0
M  V30 1489 H 139.786 1.11105 -4.74876 0
M  V30 1490 H 138.791 -1.10396 -5.38603 0
M  V30 1491 H 140.016 -1.29032 -6.66729 0
M  V30 1492 H 137.962 0.946787 -6.49132 0
M  V30 1493 H 137.879 -0.424399 -7.54808 0
M  V30 1494 H 139.147 0.745876 -7.75923 0
M  V30 1495 N 143.376 1.44774 -0.622745 0
M  V30 1496 C 144.326 2.2774 0.108889 0
M  V30 1497 C 145.31 1.38189 0.824175 0
M  V30 1498 O 146.502 1.62063 0.711664 0
M  V30 1499 C 143.631 3.25353 1.09546 0
M  V30 1500 C 142.717 4.22392 0.380232 0
M  V30 1501 N 143.108 5.02388 -0.586535 0
M  V30 1502 C 141.406 4.41588 0.625792 0
M  V30 1503 C 142.107 5.72894 -1.00834 0
M  V30 1504 N 141.083 5.42479 -0.348878 0
M  V30 1505 H 144.885 2.86993 -0.63341 0
M  V30 1506 H 142.399 1.5611 -0.447589 0
M  V30 1507 H 144.396 3.83538 1.63414 0
M  V30 1508 H 143.056 2.6766 1.83815 0
M  V30 1509 H 144.067 5.0885 -0.963975 0
M  V30 1510 H 140.744 3.95003 1.352 0
M  V30 1511 H 142.134 6.47158 -1.80656 0
M  V30 1512 N 144.854 0.36279 1.53368 0
M  V30 1513 C 146.082 -0.228613 2.05633 0
M  V30 1514 C 146.497 -1.42676 1.23649 0
M  V30 1515 O 145.854 -1.80394 0.27647 0
M  V30 1516 C 145.905 -0.624845 3.56059 0
M  V30 1517 O 145.626 0.525675 4.34935 0
M  V30 1518 C 147.127 -1.27493 4.24571 0
M  V30 1519 H 144.347 -0.0407183 0.669763 0
M  V30 1520 H 146.891 0.520352 1.97769 0
M  V30 1521 H 145.046 -1.32373 3.64083 0
M  V30 1522 H 145.46 0.205969 5.24095 0
M  V30 1523 H 146.934 -1.50277 5.31151 0
M  V30 1524 H 147.411 -2.23439 3.78116 0
M  V30 1525 H 148.017 -0.617558 4.20792 0
M  V30 1526 N 146.332 -1.57332 0.0918853 0
M  V30 1527 C 147.578 -1.94524 -0.573425 0
M  V30 1528 C 147.911 -0.973578 -1.68033 0
M  V30 1529 O 147.186 -0.00609226 -1.94499 0
M  V30 1530 C 147.469 -3.41858 -1.13161 0
M  V30 1531 C 147.322 -4.4979 -0.0299747 0
M  V30 1532 C 148.641 -3.90435 -2.03098 0
M  V30 1533 H 145.76 -0.70734 -0.206975 0
M  V30 1534 H 148.402 -1.89309 0.161942 0
M  V30 1535 H 146.552 -3.46433 -1.7583 0
M  V30 1536 H 148.224 -4.57327 0.604112 0
M  V30 1537 H 146.467 -4.291 0.636833 0
M  V30 1538 H 147.138 -5.50069 -0.461287 0
M  V30 1539 H 149.614 -3.87992 -1.50338 0
M  V30 1540 H 148.49 -4.94097 -2.39081 0
M  V30 1541 H 148.751 -3.29541 -2.94712 0
M  V30 1542 N 147.81 0.181792 -1.56548 0
M  V30 1543 C 149.058 0.89832 -1.81038 0
M  V30 1544 C 149.379 1.83232 -0.667164 0
M  V30 1545 O 148.649 1.93372 0.313673 0
M  V30 1546 H 147.229 0.33471 -0.667816 0
M  V30 1547 H 149.891 0.184116 -1.94028 0
M  V30 1548 H 148.987 1.4815 -2.74696 0
M  V30 1549 N 149.288 1.51039 0.449983 0
M  V30 1550 C 150.238 1.67824 1.54335 0
M  V30 1551 C 151.222 0.5324 1.51836 0
M  V30 1552 O 152.414 0.787762 1.58503 0
M  V30 1553 C 149.543 1.7951 2.92628 0
M  V30 1554 C 148.629 2.99838 2.9993 0
M  V30 1555 N 149.02 4.23207 2.77001 0
M  V30 1556 C 147.318 2.98832 3.31082 0
M  V30 1557 C 148.019 5.04361 2.89818 0
M  V30 1558 N 146.995 4.38746 3.2094 0
M  V30 1559 H 150.797 2.60884 1.35339 0
M  V30 1560 H 148.311 1.48513 0.657085 0
M  V30 1561 H 150.308 1.89642 3.7127 0
M  V30 1562 H 148.968 0.876227 3.12654 0
M  V30 1563 H 149.979 4.5236 2.52172 0
M  V30 1564 H 146.656 2.16527 3.56963 0
M  V30 1565 H 148.046 6.12528 2.76151 0
M  V30 1566 N 150.766 -0.704594 1.40972 0
M  V30 1567 C 152.015 -1.46018 1.39146 0
M  V30 1568 C 152.328 -1.956 0.000589254 0
M  V30 1569 O 153.534 -2.71137 -0.1403 0
M  V30 1570 C 151.99 -2.63996 2.4461 0
M  V30 1571 C 151.598 -2.21238 3.89561 0
M  V30 1572 C 153.342 -3.41677 2.51907 0
M  V30 1573 C 151.249 -3.3612 4.86598 0
M  V30 1574 H 150.179 -0.548444 0.517422 0
M  V30 1575 H 152.83 -0.765784 1.66757 0
M  V30 1576 H 151.212 -3.3566 2.10115 0
M  V30 1577 H 152.386 -1.56923 4.33257 0
M  V30 1578 H 150.701 -1.56574 3.85841 0
M  V30 1579 H 153.298 -4.27182 3.2159 0
M  V30 1580 H 153.641 -3.86247 1.55303 0
M  V30 1581 H 154.174 -2.77064 2.85448 0
M  V30 1582 H 150.913 -2.96572 5.84573 0
M  V30 1583 H 150.433 -3.99315 4.47557 0
M  V30 1584 H 152.112 -4.02029 5.06934 0
M  V30 1585 N 152.244 -1.26651 -0.937939 0
M  V30 1586 C 153.493 -1.11775 -1.67897 0
M  V30 1587 C 153.806 0.33794 -1.92659 0
M  V30 1588 O 155.012 0.607434 -2.64618 0
M  V30 1589 C 153.468 -1.9523 -3.02346 0
M  V30 1590 C 153.076 -3.45393 -2.8532 0
M  V30 1591 C 154.82 -1.88972 -3.80118 0
M  V30 1592 C 152.727 -4.21083 -4.15263 0
M  V30 1593 H 151.657 -0.414696 -0.629717 0
M  V30 1594 H 154.308 -1.50988 -1.04283 0
M  V30 1595 H 152.69 -1.48853 -3.66959 0
M  V30 1596 H 153.864 -3.99561 -2.29537 0
M  V30 1597 H 152.179 -3.52921 -2.20988 0
M  V30 1598 H 154.776 -2.42805 -4.76392 0
M  V30 1599 H 155.119 -0.86113 -4.07296 0
M  V30 1600 H 155.652 -2.33189 -3.22285 0
M  V30 1601 H 152.391 -5.24425 -3.93267 0
M  V30 1602 H 151.911 -3.71695 -4.70747 0
M  V30 1603 H 153.59 -4.29706 -4.83696 0
M  V30 1604 N 153.722 1.14298 -1.08507 0
M  V30 1605 C 154.652 2.21542 -0.737646 0
M  V30 1606 C 155.633 1.67773 0.280377 0
M  V30 1607 O 156.818 1.93616 0.150521 0
M  V30 1608 C 153.948 3.46988 -0.147259 0
M  V30 1609 C 152.902 4.13789 -1.09374 0
M  V30 1610 C 152.228 5.33449 -0.365524 0
M  V30 1611 C 153.528 4.62208 -2.4323 0
M  V30 1612 H 155.222 2.5086 -1.6343 0
M  V30 1613 H 152.768 1.20576 -0.787243 0
M  V30 1614 H 154.721 4.21262 0.107808 0
M  V30 1615 H 153.445 3.17037 0.784538 0
M  V30 1616 H 152.104 3.4147 -1.33393 0
M  V30 1617 H 151.752 4.99759 0.57011 0
M  V30 1618 H 151.452 5.79088 -0.996512 0
M  V30 1619 H 152.976 6.10485 -0.118534 0
M  V30 1620 H 154.39 5.27952 -2.23472 0
M  V30 1621 H 152.787 5.18553 -3.02031 0
M  V30 1622 H 153.857 3.77224 -3.04681 0
M  V30 1623 N 155.201 0.870884 1.31352 0
M  V30 1624 C 156.426 0.495957 2.01383 0
M  V30 1625 C 156.851 -0.904324 1.64935 0
M  V30 1626 O 156.209 -1.59687 0.858466 0
M  V30 1627 C 156.257 0.661433 3.54482 0
M  V30 1628 O 155.361 -0.298851 4.11316 0
M  V30 1629 H 154.702 0.197158 0.634054 0
M  V30 1630 H 157.232 1.17455 1.67527 0
M  V30 1631 H 157.242 0.555072 4.04207 0
M  V30 1632 H 155.917 1.68246 3.8035 0
M  V30 1633 H 154.494 -0.147368 3.72609 0
M  V30 1634 N 156.679 -1.44442 0.630414 0
M  V30 1635 C 157.589 -2.34476 -0.0761693 0
M  V30 1636 C 158.605 -1.52576 -0.836449 0
M  V30 1637 O 159.781 -1.85307 -0.788874 0
M  V30 1638 C 156.846 -3.30545 -1.04599 0
M  V30 1639 C 155.907 -4.28352 -0.28516 0
M  V30 1640 C 155.14 -5.19831 -1.20878 0
M  V30 1641 O 155.363 -5.15223 -2.44747 0
M  V30 1642 O 154.297 -5.97892 -0.693491 0
M  V30 1643 H 158.123 -2.96345 0.664324 0
M  V30 1644 H 155.708 -1.44203 0.39061 0
M  V30 1645 H 157.59 -3.89681 -1.60396 0
M  V30 1646 H 156.265 -2.7121 -1.76711 0
M  V30 1647 H 155.172 -3.72764 0.315837 0
M  V30 1648 H 156.505 -4.90605 0.395924 0
M  V30 1649 N 158.157 -0.370918 -1.53173 0
M  V30 1650 C 159.107 0.489588 -2.22681 0
M  V30 1651 C 160.091 1.04442 -1.22395 0
M  V30 1652 O 161.283 0.973578 -1.47819 0
M  V30 1653 C 158.412 1.626 -3.02351 0
M  V30 1654 C 157.498 1.08379 -4.10018 0
M  V30 1655 N 157.889 0.265004 -5.05105 0
M  V30 1656 C 156.187 1.35809 -4.2482 0
M  V30 1657 C 156.888 -0.0324755 -5.81691 0
M  V30 1658 N 155.864 0.566581 -5.40639 0
M  V30 1659 H 159.666 -0.142729 -2.93553 0
M  V30 1660 H 157.18 -0.179221 -1.61408 0
M  V30 1661 H 159.177 2.2547 -3.50669 0
M  V30 1662 H 157.837 2.26132 -2.33011 0
M  V30 1663 H 158.848 -0.0962352 -5.17811 0
M  V30 1664 H 155.525 1.9958 -3.66707 0
M  V30 1665 H 156.915 -0.69473 -6.68299 0
M  V30 1666 N 159.635 1.57281 -0.100228 0
M  V30 1667 C 160.582 2.14305 0.856858 0
M  V30 1668 C 161.552 1.06296 1.27634 0
M  V30 1669 O 162.737 1.34109 1.35718 0
M  V30 1670 C 159.877 2.73184 2.10866 0
M  V30 1671 C 158.99 3.95442 1.73925 0
M  V30 1672 C 158.125 4.42468 2.93931 0
M  V30 1673 C 157.164 5.57303 2.5314 0
M  V30 1674 N 156.301 5.99158 3.65997 0
M  V30 1675 H 161.141 2.95772 0.363726 0
M  V30 1676 H 158.678 1.46139 0.167858 0
M  V30 1677 H 160.636 3.05442 2.84185 0
M  V30 1678 H 159.266 1.94437 2.57671 0
M  V30 1679 H 158.318 3.69464 0.905554 0
M  V30 1680 H 159.63 4.78769 1.39935 0
M  V30 1681 H 158.784 4.76537 3.75496 0
M  V30 1682 H 157.523 3.58052 3.31134 0
M  V30 1683 H 156.528 5.22857 1.70003 0
M  V30 1684 H 157.753 6.43471 2.17075 0
M  V30 1685 H 155.699 5.17687 4.02909 0
M  V30 1686 H 155.616 6.77295 3.35869 0
M  V30 1687 H 156.884 6.3786 4.48057 0
M  V30 1688 N 161.113 -0.173488 1.56642 0
M  V30 1689 C 162.361 -0.888706 1.81512 0
M  V30 1690 C 162.682 -1.82875 0.676872 0
M  V30 1691 O 161.952 -1.93536 -0.303414 0
M  V30 1692 H 160.532 -0.331164 0.669582 0
M  V30 1693 H 163.194 -0.173823 1.94123 0
M  V30 1694 H 162.29 -1.46691 2.75478 0
M  V30 1695 N 162.591 -1.51276 -0.441967 0
M  V30 1696 C 163.837 -1.63958 -1.19355 0
M  V30 1697 C 164.17 -0.352543 -1.90973 0
M  V30 1698 O 163.445 0.647627 -1.83401 0
M  V30 1699 C 163.728 -2.83979 -2.21422 0
M  V30 1700 C 163.581 -4.22646 -1.53918 0
M  V30 1701 C 164.9 -2.99521 -3.22451 0
M  V30 1702 H 162.019 -0.596709 -0.432559 0
M  V30 1703 H 164.661 -1.83748 -0.483398 0
M  V30 1704 H 162.811 -2.67237 -2.81987 0
M  V30 1705 H 164.483 -4.51045 -0.967256 0
M  V30 1706 H 162.726 -4.25558 -0.841615 0
M  V30 1707 H 163.397 -5.02609 -2.28229 0
M  V30 1708 H 165.873 -3.14944 -2.71937 0
M  V30 1709 H 164.749 -3.85072 -3.91166 0
M  V30 1710 H 165.01 -2.11391 -3.88287 0
M  V30 1711 N 164.069 0.697108 -1.41344 0
M  V30 1712 C 165.016 1.81106 -1.43071 0
M  V30 1713 C 165.986 1.63632 -0.285275 0
M  V30 1714 O 167.171 1.84504 -0.486091 0
M  V30 1715 C 164.311 3.18975 -1.31715 0
M  V30 1716 C 163.424 3.47892 -2.56115 0
M  V30 1717 C 162.559 4.75367 -2.37064 0
M  V30 1718 C 161.598 4.97247 -3.56948 0
M  V30 1719 N 160.735 6.15947 -3.36977 0
M  V30 1720 H 165.575 1.78965 -2.38276 0
M  V30 1721 H 163.112 0.873975 -1.18322 0
M  V30 1722 H 165.07 3.98615 -1.23133 0
M  V30 1723 H 163.7 3.20297 -0.401183 0
M  V30 1724 H 162.752 2.62669 -2.75153 0
M  V30 1725 H 164.064 3.59962 -3.45295 0
M  V30 1726 H 163.218 5.63059 -2.25941 0
M  V30 1727 H 161.957 4.65541 -1.45338 0
M  V30 1728 H 160.962 4.08004 -3.68527 0
M  V30 1729 H 162.187 5.08934 -4.49626 0
M  V30 1730 H 160.133 6.07336 -2.47949 0
M  V30 1731 H 160.05 6.28777 -4.19732 0
M  V30 1732 H 161.318 7.06377 -3.29623 0
M  V30 1733 N 165.547 1.27147 0.931209 0
M  V30 1734 C 166.794 1.13278 1.67852 0
M  V30 1735 C 167.122 -0.32204 1.91815 0
M  V30 1736 O 166.377 -1.25224 1.50391 0
M  V30 1737 C 166.676 1.8579 3.05314 0
M  V30 1738 C 166.342 3.35657 3.01073 0
M  V30 1739 C 165.004 3.76536 2.99623 0
M  V30 1740 C 167.356 4.31299 2.92627 0
M  V30 1741 C 164.684 5.11426 2.87506 0
M  V30 1742 C 167.036 5.66242 2.82051 0
M  V30 1743 C 165.7 6.06418 2.7895 0
M  V30 1744 H 164.97 0.414515 0.614214 0
M  V30 1745 H 167.617 1.57712 1.08624 0
M  V30 1746 H 165.922 1.33854 3.68226 0
M  V30 1747 H 167.619 1.72491 3.62005 0
M  V30 1748 H 164.209 3.03146 3.02986 0
M  V30 1749 H 168.393 4.00692 2.92848 0
M  V30 1750 H 163.649 5.41705 2.83489 0
M  V30 1751 H 167.823 6.40026 2.74481 0
M  V30 1752 H 165.45 7.10895 2.69318 0
M  V30 1753 N 167.025 -1.13721 1.09112 0
M  V30 1754 C 167.973 -2.21103 0.722219 0
M  V30 1755 C 168.967 -1.67147 -0.275374 0
M  V30 1756 O 170.173 -1.79477 -0.137176 0
M  V30 1757 H 166.548 -0.720445 0.215553 0
M  V30 1758 H 168.519 -2.49483 1.63709 0
M  V30 1759 C 167.268 -3.47352 0.15543 0
M  V30 1760 H 166.591 -3.89206 0.914246 0
M  V30 1761 H 168.031 -4.2395 -0.0647967 0
M  V30 1762 C 166.49 -3.1814 -1.10852 0
M  V30 1763 O 167.02 -3.36604 -2.19227 0
M  V30 1764 N 165.226 -2.72045 -1.02176 0
M  V30 1765 H 164.773 -2.57221 -0.139764 0
M  V30 1766 H 164.731 -2.52875 -1.8682 0
M  V30 1767 N 168.503 -0.877838 -1.30888 0
M  V30 1768 C 169.743 -0.499301 -1.98208 0
M  V30 1769 C 170.107 0.932649 -1.67826 0
M  V30 1770 O 171.308 1.41694 -2.28421 0
M  V30 1771 C 169.579 -0.758221 -3.49265 0
M  V30 1772 S 171.138 -0.480719 -4.36159 0
M  V30 1773 H 167.956 -0.186062 -0.686223 0
M  V30 1774 H 170.558 -1.13556 -1.59139 0
M  V30 1775 H 169.262 -1.79903 -3.68867 0
M  V30 1776 H 168.793 -0.109247 -3.93248 0
M  V30 1777 H 170.808 0.683698 -4.91467 0
M  V30 1778 N 169.982 1.44106 -0.638065 0
M  V30 1779 C 171.207 2.0685 -0.150916 0
M  V30 1780 C 171.632 1.47417 1.16833 0
M  V30 1781 O 170.99 0.578264 1.71831 0
M  V30 1782 C 171.038 3.60555 -0.05708 0
M  V30 1783 O 170.142 4.00465 0.984972 0
M  V30 1784 H 169.483 0.658151 -0.0879399 0
M  V30 1785 H 172.013 1.84865 -0.876707 0
M  V30 1786 H 172.023 4.07789 0.131232 0
M  V30 1787 H 170.698 4.03193 -1.02021 0
M  V30 1788 H 169.275 3.64849 0.770672 0
M  V30 1789 N 171.46 0.379036 1.52974 0
M  V30 1790 C 172.709 -0.207612 2.00629 0
M  V30 1791 C 173.022 -1.48758 1.27006 0
M  V30 1792 O 174.228 -2.15365 1.65318 0
M  V30 1793 C 172.684 -0.42053 3.57435 0
M  V30 1794 C 172.292 0.845587 4.39948 0
M  V30 1795 C 174.036 -0.964102 4.13407 0
M  V30 1796 C 171.943 0.601513 5.88333 0
M  V30 1797 H 170.873 -0.0813591 0.749598 0
M  V30 1798 H 173.524 0.499853 1.76561 0
M  V30 1799 H 171.906 -1.18959 3.7771 0
M  V30 1800 H 173.08 1.61848 4.31442 0
M  V30 1801 H 171.395 1.31336 3.95145 0
M  V30 1802 H 173.992 -1.16225 5.21916 0
M  V30 1803 H 174.335 -1.93019 3.68849 0
M  V30 1804 H 174.868 -0.25487 3.96983 0
M  V30 1805 H 171.607 1.53831 6.37194 0
M  V30 1806 H 171.127 -0.132628 5.99653 0
M  V30 1807 H 172.806 0.232134 6.46583 0
M  V30 1808 N 172.938 -1.57226 0.108567 0
M  V30 1809 C 174.163 -1.99604 -0.563303 0
M  V30 1810 C 174.588 -0.987563 -1.6009 0
M  V30 1811 O 173.946 0.0421687 -1.81251 0
M  V30 1812 C 173.994 -3.40902 -1.17552 0
M  V30 1813 O 173.098 -3.42896 -2.2912 0
M  V30 1814 H 172.439 -0.648704 -0.1417 0
M  V30 1815 H 174.969 -2.03679 0.193961 0
M  V30 1816 H 174.979 -3.78886 -1.51357 0
M  V30 1817 H 173.654 -4.1382 -0.415445 0
M  V30 1818 H 172.231 -3.1672 -1.96832 0
M  V30 1819 N 174.416 0.165178 -1.56732 0
M  V30 1820 C 175.662 0.882112 -1.82611 0
M  V30 1821 C 175.995 1.81628 -0.687378 0
M  V30 1822 O 175.27 1.92009 0.310267 0
M  V30 1823 C 175.553 1.67245 -3.18906 0
M  V30 1824 C 175.406 0.760987 -4.43316 0
M  V30 1825 C 176.725 2.63884 -3.52212 0
M  V30 1826 H 173.844 0.319242 -0.664269 0
M  V30 1827 H 176.486 0.148052 -1.89422 0
M  V30 1828 H 174.636 2.29824 -3.1323 0
M  V30 1829 H 176.308 0.147596 -4.61064 0
M  V30 1830 H 174.551 0.0694102 -4.33744 0
M  V30 1831 H 175.222 1.34962 -5.35247 0
M  V30 1832 H 177.698 2.11429 -3.58381 0
M  V30 1833 H 176.574 3.16245 -4.48643 0
M  V30 1834 H 176.835 3.44377 -2.77231 0
M  V30 1835 N 175.894 1.51508 0.433938 0
M  V30 1836 C 177.305 1.56784 1.01369 0
M  V30 1837 C 177.656 0.393349 1.92217 0
M  V30 1838 O 176.781 -0.489441 2.10792 0
M  V30 1839 C 177.376 2.84144 1.8452 0
M  V30 1840 C 175.935 2.9198 2.37539 0
M  V30 1841 C 175.082 2.51482 1.16843 0
M  V30 1842 H 178.033 1.57236 0.215081 0
M  V30 1843 H 178.054 2.68098 2.70007 0
M  V30 1844 H 177.566 3.69607 1.18373 0
M  V30 1845 H 175.667 2.10955 3.0713 0
M  V30 1846 H 175.78 3.95704 2.70103 0
M  V30 1847 H 174.144 2.04758 1.51481 0
M  V30 1848 H 174.927 3.39293 0.523015 0
M  V30 1849 N 177.372 -0.689602 1.41712 0
M  V30 1850 C 178.32 -1.82475 1.44242 0
M  V30 1851 C 179.314 -1.66354 0.319774 0
M  V30 1852 O 180.52 -1.73143 0.492089 0
M  V30 1853 H 176.895 -0.601416 0.451445 0
M  V30 1854 H 178.866 -1.77458 2.39899 0
M  V30 1855 C 177.615 -3.20535 1.3473 0
M  V30 1856 H 176.938 -3.33559 2.20405 0
M  V30 1857 H 178.378 -4.00023 1.40562 0
M  V30 1858 C 176.837 -3.36846 0.0603281 0
M  V30 1859 O 177.367 -3.91656 -0.892663 0
M  V30 1860 N 175.573 -2.90595 -0.0177039 0
M  V30 1861 H 175.12 -2.46178 0.758572 0
M  V30 1862 H 175.078 -3.01886 -0.878201 0
M  V30 1863 N 178.85 -1.27639 -0.924453 0
M  V30 1864 C 180.099 -1.13549 -1.66702 0
M  V30 1865 C 180.412 0.317487 -1.93006 0
M  V30 1866 O 181.618 0.579333 -2.65247 0
M  V30 1867 C 180.074 -1.98426 -3.00259 0
M  V30 1868 C 179.682 -3.484 -2.81641 0
M  V30 1869 C 181.426 -1.92993 -3.78092 0
M  V30 1870 C 179.333 -4.25464 -4.10773 0
M  V30 1871 H 178.263 -0.421351 -0.625283 0
M  V30 1872 H 180.914 -1.52085 -1.02676 0
M  V30 1873 H 179.296 -1.52736 -3.6536 0
M  V30 1874 H 180.47 -4.01973 -2.25287 0
M  V30 1875 H 178.785 -3.55245 -2.17232 0
M  V30 1876 H 181.382 -2.47844 -4.7379 0
M  V30 1877 H 181.725 -0.904281 -4.0636 0
M  V30 1878 H 182.258 -2.36595 -3.19793 0
M  V30 1879 H 178.997 -5.28566 -3.87683 0
M  V30 1880 H 178.517 -3.76667 -4.66779 0
M  V30 1881 H 180.196 -4.34812 -4.79111 0
M  V30 1882 N 180.328 1.1314 -1.09713 0
M  V30 1883 C 181.558 1.88048 -0.855656 0
M  V30 1884 C 181.966 1.79537 0.596919 0
M  V30 1885 O 181.309 1.16196 1.42282 0
M  V30 1886 C 181.371 3.38314 -1.21589 0
M  V30 1887 C 181.035 3.70605 -2.67397 0
M  V30 1888 C 182.032 3.69596 -3.65643 0
M  V30 1889 C 179.717 4.0017 -3.03593 0
M  V30 1890 C 181.711 3.977 -4.9811 0
M  V30 1891 C 179.398 4.27935 -4.36251 0
M  V30 1892 C 180.396 4.26685 -5.33318 0
M  V30 1893 O 180.084 4.53767 -6.63589 0
M  V30 1894 H 179.816 0.60208 -0.307368 0
M  V30 1895 H 182.37 1.44128 -1.46343 0
M  V30 1896 H 180.6 3.82752 -0.551177 0
M  V30 1897 H 182.289 3.94552 -0.953083 0
M  V30 1898 H 183.055 3.46826 -3.39023 0
M  V30 1899 H 178.934 4.00289 -2.2867 0
M  V30 1900 H 182.478 3.9664 -5.73866 0
M  V30 1901 H 178.375 4.50178 -4.62613 0
M  V30 1902 H 179.143 4.71422 -6.69107 0
M  V30 1903 N 181.806 0.884767 1.30421 0
M  V30 1904 C 182.738 0.308655 2.27112 0
M  V30 1905 C 183.751 -0.536655 1.53701 0
M  V30 1906 O 184.94 -0.35624 1.74909 0
M  V30 1907 C 182.04 -0.579782 3.33904 0
M  V30 1908 C 181.213 0.236417 4.36761 0
M  V30 1909 C 180.272 -0.582482 5.22966 0
M  V30 1910 O 179.298 -0.00525502 5.692 0
M  V30 1911 N 180.5 -1.89163 5.48815 0
M  V30 1912 H 183.265 1.13964 2.77186 0
M  V30 1913 H 180.826 0.747731 1.43599 0
M  V30 1914 H 182.818 -1.13366 3.88497 0
M  V30 1915 H 181.388 -1.31144 2.83761 0
M  V30 1916 H 180.608 0.97174 3.82035 0
M  V30 1917 H 181.896 0.795924 5.02536 0
M  V30 1918 H 181.294 -2.38352 5.13035 0
M  V30 1919 H 179.851 -2.39296 6.06284 0
M  V30 1920 N 183.284 -1.43765 0.645699 0
M  V30 1921 C 184.561 -1.9541 0.0862963 0
M  V30 1922 C 184.941 -1.58725 -1.39175 0
M  V30 1923 O 184.289 -0.868581 -2.11348 0
M  V30 1924 C 184.499 -3.47488 0.324565 0
M  V30 1925 C 185.847 -4.24001 0.225497 0
M  V30 1926 O 186.871 -3.55274 0.256715 0
M  V30 1927 O 185.73 -5.46313 0.142801 0
M  V30 1928 H 182.824 -0.826882 -0.0139483 0
M  V30 1929 H 185.37 -1.53743 0.718415 0
M  V30 1930 H 184.142 -3.67289 1.3496 0
M  V30 1931 H 183.765 -3.96135 -0.340987 0
M  V30 1932 N 184.763 -0.387143 -1.52771 0
M  V30 1933 C 185.991 0.195869 -2.05971 0
M  V30 1934 C 186.406 1.40691 -1.25903 0
M  V30 1935 O 185.763 1.79931 -0.305134 0
M  V30 1936 C 185.814 0.56812 -3.57008 0
M  V30 1937 O 185.535 -0.594803 -4.34043 0
M  V30 1938 C 187.036 1.20723 -4.26545 0
M  V30 1939 H 184.256 0.0300578 -0.670326 0
M  V30 1940 H 186.8 -0.551749 -1.96916 0
M  V30 1941 H 184.955 1.26564 -3.66143 0
M  V30 1942 H 185.369 -0.289322 -5.23701 0
M  V30 1943 H 186.843 1.41807 -5.33474 0
M  V30 1944 H 187.32 2.17395 -3.81623 0
M  V30 1945 H 187.926 0.550535 -4.21722 0
M  V30 1946 N 186.241 1.57166 -0.116904 0
M  V30 1947 C 187.469 1.99473 0.549383 0
M  V30 1948 C 187.884 0.996541 1.60357 0
M  V30 1949 O 187.241 -0.0108731 1.82497 0
M  V30 1950 C 187.292 3.41788 1.17741 0
M  V30 1951 O 187.013 4.37788 0.165362 0
M  V30 1952 C 188.514 3.99216 1.92722 0
M  V30 1953 H 185.734 0.655009 0.145616 0
M  V30 1954 H 188.278 2.03494 -0.202625 0
M  V30 1955 H 186.433 3.38713 1.88021 0
M  V30 1956 H 186.847 5.20806 0.621403 0
M  V30 1957 H 188.321 5.00882 2.31995 0
M  V30 1958 H 188.798 3.3824 2.80161 0
M  V30 1959 H 189.404 4.0583 1.27209 0
M  V30 1960 N 187.719 -0.156864 1.56817 0
M  V30 1961 C 188.968 -0.869504 1.81996 0
M  V30 1962 C 189.281 -1.82777 0.696545 0
M  V30 1963 O 190.487 -2.58384 0.833658 0
M  V30 1964 C 188.943 -1.59679 3.22538 0
M  V30 1965 C 188.551 -0.681431 4.42787 0
M  V30 1966 C 190.295 -2.2968 3.56997 0
M  V30 1967 C 188.202 -1.40978 5.74351 0
M  V30 1968 H 187.132 -0.328438 0.678708 0
M  V30 1969 H 189.783 -0.1223 1.83092 0
M  V30 1970 H 188.165 -2.38927 3.158 0
M  V30 1971 H 189.339 0.0751166 4.60739 0
M  V30 1972 H 187.654 -0.0903431 4.16302 0
M  V30 1973 H 190.251 -2.84794 4.52544 0
M  V30 1974 H 190.594 -3.05707 2.82576 0
M  V30 1975 H 191.127 -1.57361 3.65352 0
M  V30 1976 H 187.866 -0.691561 6.51842 0
M  V30 1977 H 187.386 -2.13929 5.60352 0
M  V30 1978 H 189.065 -1.95337 6.16808 0
M  V30 1979 N 189.197 -1.51736 -0.425897 0
M  V30 1980 C 190.422 -1.69082 -1.20108 0
M  V30 1981 C 190.847 -0.392398 -1.83962 0
M  V30 1982 O 190.205 0.64858 -1.69302 0
M  V30 1983 C 190.253 -2.81604 -2.25237 0
M  V30 1984 O 189.357 -2.46004 -3.30992 0
M  V30 1985 H 188.698 -0.563408 -0.35138 0
M  V30 1986 H 191.228 -1.98358 -0.501512 0
M  V30 1987 H 191.238 -3.06025 -2.69838 0
M  V30 1988 H 189.913 -3.75817 -1.78142 0
M  V30 1989 H 188.49 -2.32195 -2.91787 0
M  V30 1990 N 190.675 0.682077 -1.42076 0
M  V30 1991 C 191.921 1.44283 -1.43366 0
M  V30 1992 C 192.276 1.92344 -0.0465775 0
M  V30 1993 O 191.569 1.67517 0.929973 0
M  V30 1994 C 191.763 2.66036 -2.38662 0
M  V30 1995 C 191.592 2.29889 -3.86499 0
M  V30 1996 C 190.362 2.19599 -4.55087 0
M  V30 1997 C 192.56 1.91999 -4.77117 0
M  V30 1998 N 190.542 1.76478 -5.87987 0
M  V30 1999 C 191.913 1.59741 -5.99068 0
M  V30 2000 C 193.968 1.78927 -4.64639 0
M  V30 2001 C 192.671 1.15723 -7.0993 0
M  V30 2002 C 194.697 1.36314 -5.75476 0
M  V30 2003 C 194.059 1.04975 -6.96534 0
M  V30 2004 H 190.158 0.524739 -0.579805 0
M  V30 2005 H 192.742 0.787834 -1.78048 0
M  V30 2006 H 190.913 3.29237 -2.06053 0
M  V30 2007 H 192.645 3.32588 -2.30581 0
M  V30 2008 H 189.4 2.38433 -4.09202 0
M  V30 2009 H 189.824 1.57362 -6.58458 0
M  V30 2010 H 194.466 2.01805 -3.7153 0
M  V30 2011 H 192.184 0.91591 -8.02893 0
M  V30 2012 H 195.77 1.26731 -5.6783 0
M  V30 2013 H 194.65 0.725017 -7.80841 0
M  V30 2014 N 192.153 1.28127 0.917671 0
M  V30 2015 C 193.399 1.16232 1.66918 0
M  V30 2016 C 193.754 -0.28701 1.90247 0
M  V30 2017 O 193.047 -1.20586 1.48895 0
M  V30 2018 C 193.241 1.89018 3.03327 0
M  V30 2019 C 193.07 3.4088 2.9331 0
M  V30 2020 C 191.84 4.10214 2.95047 0
M  V30 2021 C 194.038 4.36689 2.71675 0
M  V30 2022 N 192.02 5.48571 2.75577 0
M  V30 2023 C 193.391 5.62382 2.6101 0
M  V30 2024 C 195.446 4.26661 2.56641 0
M  V30 2025 C 194.149 6.79189 2.36843 0
M  V30 2026 C 196.175 5.432 2.33853 0
M  V30 2027 C 195.537 6.67855 2.23939 0
M  V30 2028 H 191.636 0.48024 0.617166 0
M  V30 2029 H 194.22 1.61727 1.08409 0
M  V30 2030 H 192.391 1.45963 3.59929 0
M  V30 2031 H 194.123 1.69541 3.67475 0
M  V30 2032 H 190.878 3.61762 3.05655 0
M  V30 2033 H 191.302 6.21287 2.68945 0
M  V30 2034 H 195.944 3.30998 2.63059 0
M  V30 2035 H 193.662 7.74926 2.29164 0
M  V30 2036 H 197.248 5.37328 2.23091 0
M  V30 2037 H 196.128 7.56511 2.06546 0
M  V30 2038 N 193.631 -1.12557 1.10312 0
M  V30 2039 C 194.578 -2.18247 0.750781 0
M  V30 2040 C 195.548 -1.63853 -0.272293 0
M  V30 2041 O 196.733 -1.90195 -0.151862 0
M  V30 2042 C 193.873 -3.44591 0.187379 0
M  V30 2043 C 192.986 -4.13046 1.2656 0
M  V30 2044 C 192.121 -5.27034 0.663978 0
M  V30 2045 C 191.16 -5.87353 1.72287 0
M  V30 2046 N 190.297 -6.92757 1.1416 0
M  V30 2047 H 195.137 -2.47732 1.65628 0
M  V30 2048 H 192.674 -1.21629 0.827337 0
M  V30 2049 H 194.632 -4.16904 -0.157148 0
M  V30 2050 H 193.262 -3.15527 -0.681355 0
M  V30 2051 H 192.314 -3.38924 1.72727 0
M  V30 2052 H 193.626 -4.53947 2.06721 0
M  V30 2053 H 192.78 -6.06104 0.268824 0
M  V30 2054 H 191.519 -4.87407 -0.169082 0
M  V30 2055 H 190.524 -5.06971 2.12746 0
M  V30 2056 H 191.749 -6.29051 2.55875 0
M  V30 2057 H 189.695 -6.5517 0.329984 0
M  V30 2058 H 189.612 -7.3225 1.88007 0
M  V30 2059 H 190.88 -7.75658 0.772956 0
M  V30 2060 N 195.109 -0.891671 -1.2995 0
M  V30 2061 C 196.386 -0.433307 -1.9074 0
M  V30 2062 C 196.766 1.08646 -1.80995 0
M  V30 2063 O 196.114 1.92476 -1.23147 0
M  V30 2064 C 196.324 -0.938895 -3.36134 0
M  V30 2065 C 197.672 -0.977829 -4.13187 0
M  V30 2066 O 198.696 -0.886015 -3.45005 0
M  V30 2067 O 197.555 -1.11453 -5.35015 0
M  V30 2068 H 194.649 -0.133699 -0.816121 0
M  V30 2069 H 197.195 -0.981011 -1.38471 0
M  V30 2070 H 195.967 -1.98281 -3.37343 0
M  V30 2071 H 195.59 -0.37074 -3.95868 0
M  V30 2072 N 196.587 1.43421 -0.653314 0
M  V30 2073 C 197.835 2.01414 -0.166415 0
M  V30 2074 C 198.156 1.51803 1.22397 0
M  V30 2075 O 197.426 0.730693 1.81763 0
M  V30 2076 H 196.006 0.744703 -0.0585319 0
M  V30 2077 H 198.668 1.75629 -0.845003 0
M  V30 2078 H 197.764 3.11734 -0.151111 0
M  V30 2079 N 198.065 0.39524 1.52563 0
M  V30 2080 C 199.012 -0.437036 2.26624 0
M  V30 2081 C 199.982 -1.05281 1.28472 0
M  V30 2082 O 201.167 -1.07971 1.57311 0
M  V30 2083 C 198.307 -1.55524 3.08069 0
M  V30 2084 C 197.42 -0.961745 4.21158 0
M  V30 2085 C 196.555 -2.05149 4.89987 0
M  V30 2086 C 195.594 -1.4342 5.95061 0
M  V30 2087 N 194.731 -2.46351 6.57462 0
M  V30 2088 H 199.571 0.200976 2.97322 0
M  V30 2089 H 197.108 0.110944 1.46681 0
M  V30 2090 H 199.066 -2.21437 3.53584 0
M  V30 2091 H 197.696 -2.16348 2.3957 0
M  V30 2092 H 196.748 -0.192048 3.79915 0
M  V30 2093 H 198.06 -0.470701 4.96574 0
M  V30 2094 H 197.214 -2.78819 5.38837 0
M  V30 2095 H 195.953 -2.57615 4.14109 0
M  V30 2096 H 194.958 -0.682774 5.45544 0
M  V30 2097 H 196.183 -0.917416 6.72875 0
M  V30 2098 H 194.129 -2.97975 5.8442 0
M  V30 2099 H 194.046 -2.02019 7.28508 0
M  V30 2100 H 195.314 -3.19633 7.10954 0
M  V30 2101 N 199.544 -1.57102 0.125237 0
M  V30 2102 C 200.454 -2.19191 -0.8362 0
M  V30 2103 C 201.47 -1.16985 -1.28805 0
M  V30 2104 O 202.646 -1.49479 -1.34974 0
M  V30 2105 C 199.711 -2.78407 -2.06617 0
M  V30 2106 C 198.772 -3.9567 -1.66565 0
M  V30 2107 C 198.005 -4.52052 -2.83698 0
M  V30 2108 O 198.228 -4.07326 -3.99302 0
M  V30 2109 O 197.162 -5.42645 -2.60423 0
M  V30 2110 H 200.988 -3.01816 -0.337776 0
M  V30 2111 H 198.573 -1.4906 -0.100695 0
M  V30 2112 H 200.455 -3.16129 -2.7864 0
M  V30 2113 H 199.13 -1.9881 -2.55453 0
M  V30 2114 H 198.037 -3.62705 -0.916296 0
M  V30 2115 H 199.37 -4.76722 -1.22464 0
M  V30 2116 N 201.022 0.148545 -1.56898 0
M  V30 2117 C 201.952 1.18524 -2.01182 0
M  V30 2118 C 202.933 1.4489 -0.891123 0
M  V30 2119 O 204.118 1.55836 -1.15882 0
M  V30 2120 C 201.248 2.51879 -2.39112 0
M  V30 2121 C 200.202 2.40038 -3.54353 0
M  V30 2122 C 199.528 3.78089 -3.78091 0
M  V30 2123 C 200.828 1.88577 -4.87069 0
M  V30 2124 H 202.522 0.817029 -2.88036 0
M  V30 2125 H 200.068 0.391575 -1.38574 0
M  V30 2126 H 202.021 3.24627 -2.68692 0
M  V30 2127 H 200.745 2.90532 -1.49193 0
M  V30 2128 H 199.404 1.69742 -3.24936 0
M  V30 2129 H 199.052 4.14175 -2.85426 0
M  V30 2130 H 198.752 3.71028 -4.55645 0
M  V30 2131 H 200.276 4.52387 -4.10095 0
M  V30 2132 H 201.69 2.51117 -5.15377 0
M  V30 2133 H 200.087 1.9241 -5.68417 0
M  V30 2134 H 201.157 0.84136 -4.77545 0
M  V30 2135 N 202.5 1.5196 0.417844 0
M  V30 2136 C 203.43 1.77634 1.51554 0
M  V30 2137 C 204.411 0.626918 1.58126 0
M  V30 2138 O 205.596 0.871632 1.7354 0
M  V30 2139 C 202.726 1.91911 2.8946 0
M  V30 2140 C 201.68 3.07463 2.97743 0
M  V30 2141 C 201.006 3.06951 4.37819 0
M  V30 2142 C 202.306 4.47082 2.70027 0
M  V30 2143 H 204 2.6955 1.3032 0
M  V30 2144 H 201.546 1.29706 0.625492 0
M  V30 2145 H 203.499 2.08455 3.6623 0
M  V30 2146 H 202.223 0.966598 3.11969 0
M  V30 2147 H 200.882 2.90656 2.23416 0
M  V30 2148 H 200.53 2.09438 4.57323 0
M  V30 2149 H 200.23 3.84556 4.44286 0
M  V30 2150 H 201.754 3.25613 5.16535 0
M  V30 2151 H 203.168 4.6414 3.36522 0
M  V30 2152 H 201.565 5.2654 2.87881 0
M  V30 2153 H 202.635 4.55777 1.65514 0
M  V30 2154 N 203.978 -0.674533 1.42435 0
M  V30 2155 C 205.226 -1.43175 1.42637 0
M  V30 2156 C 205.547 -1.94951 0.0438992 0
M  V30 2157 O 204.817 -1.7308 -0.917607 0
M  V30 2158 H 203.397 -0.531307 0.525092 0
M  V30 2159 H 206.059 -0.797006 1.77859 0
M  V30 2160 H 205.155 -2.28463 2.12629 0
M  V30 2161 N 205.456 -1.28612 -0.910864 0
M  V30 2162 C 206.419 -1.12803 -1.9952 0
M  V30 2163 C 207.419 -0.0668264 -1.60661 0
M  V30 2164 O 208.609 -0.312847 -1.71368 0
M  V30 2165 C 205.741 -0.72254 -3.33155 0
M  V30 2166 H 206.934 -2.09109 -2.14973 0
M  V30 2167 H 204.487 -1.11639 -1.09391 0
M  V30 2168 H 205.222 0.241152 -3.23402 0
M  V30 2169 H 205.007 -1.48916 -3.62721 0
M  V30 2170 H 206.497 -0.634666 -4.12749 0
M  V30 2171 N 206.934 1.1197 -1.10907 0
M  V30 2172 C 207.884 2.15946 -0.731538 0
M  V30 2173 C 208.868 1.58758 0.261699 0
M  V30 2174 O 210.06 1.76863 0.0696722 0
M  V30 2175 C 207.189 3.42877 -0.170299 0
M  V30 2176 C 206.275 4.07037 -1.19087 0
M  V30 2177 N 206.666 4.46135 -2.38322 0
M  V30 2178 C 204.964 4.33884 -1.03252 0
M  V30 2179 C 205.665 4.96331 -3.03366 0
M  V30 2180 N 204.641 4.9214 -2.30865 0
M  V30 2181 H 208.443 2.43947 -1.63912 0
M  V30 2182 H 205.957 1.28927 -0.987505 0
M  V30 2183 H 207.954 4.16732 0.118271 0
M  V30 2184 H 206.614 3.16343 0.731935 0
M  V30 2185 H 207.625 4.38345 -2.75815 0
M  V30 2186 H 204.302 4.17084 -0.186256 0
M  V30 2187 H 205.692 5.36257 -4.04818 0
M  V30 2188 N 208.412 0.89855 1.29475 0
M  V30 2189 C 209.362 0.346767 2.25348 0
M  V30 2190 C 210.346 -0.532509 1.51833 0
M  V30 2191 O 211.538 -0.374714 1.72988 0
M  V30 2192 C 208.667 -0.425681 3.40651 0
M  V30 2193 C 207.753 0.46845 4.21505 0
M  V30 2194 N 208.144 1.57514 4.80648 0
M  V30 2195 C 206.442 0.26603 4.45206 0
M  V30 2196 C 207.143 2.12889 5.41344 0
M  V30 2197 N 206.119 1.42208 5.24669 0
M  V30 2198 H 209.921 1.19219 2.68634 0
M  V30 2199 H 207.435 0.749473 1.44072 0
M  V30 2200 H 209.432 -0.837716 4.08397 0
M  V30 2201 H 208.092 -1.26838 2.98902 0
M  V30 2202 H 209.103 1.95789 4.79465 0
M  V30 2203 H 205.78 -0.538394 4.14014 0
M  V30 2204 H 207.17 3.05901 5.98226 0
M  V30 2205 N 209.89 -1.43072 0.660911 0
M  V30 2206 C 210.853 -2.29194 -0.0166406 0
M  V30 2207 C 211.853 -1.42609 -0.742912 0
M  V30 2208 O 213.043 -1.64155 -0.583004 0
M  V30 2209 C 210.175 -3.24831 -1.0343 0
M  V30 2210 H 211.368 -2.90596 0.741208 0
M  V30 2211 H 208.921 -1.5048 0.422532 0
M  V30 2212 H 209.656 -2.68339 -1.82111 0
M  V30 2213 H 209.441 -3.88676 -0.517082 0
M  V30 2214 H 210.931 -3.89451 -1.50723 0
M  V30 2215 N 211.368 -0.403325 -1.52352 0
M  V30 2216 C 212.617 0.175668 -2.00934 0
M  V30 2217 C 212.93 1.46718 -1.29356 0
M  V30 2218 O 214.136 2.12708 -1.68724 0
M  V30 2219 C 212.592 0.363612 -3.58058 0
M  V30 2220 C 212.2 -0.915472 -4.38547 0
M  V30 2221 C 213.944 0.89821 -4.14888 0
M  V30 2222 C 211.851 -0.695035 -5.87302 0
M  V30 2223 H 210.781 0.0694234 -0.750797 0
M  V30 2224 H 213.432 -0.527879 -1.75743 0
M  V30 2225 H 211.814 1.12935 -3.79555 0
M  V30 2226 H 212.988 -1.68691 -4.28812 0
M  V30 2227 H 211.303 -1.37606 -3.93006 0
M  V30 2228 H 213.9 1.07907 -5.23699 0
M  V30 2229 H 214.243 1.87126 -3.71873 0
M  V30 2230 H 214.776 0.191681 -3.97338 0
M  V30 2231 H 211.515 -1.63948 -6.34666 0
M  V30 2232 H 211.035 0.0372116 -5.99788 0
M  V30 2233 H 212.714 -0.33497 -6.46132 0
M  V30 2234 N 212.846 1.57033 -0.133567 0
M  V30 2235 C 214.074 2.00044 0.528195 0
M  V30 2236 C 214.489 1.01349 1.59291 0
M  V30 2237 O 213.846 0.00848369 1.82498 0
M  V30 2238 C 213.897 3.43018 1.1411 0
M  V30 2239 O 213.618 4.37939 0.11892 0
M  V30 2240 C 215.119 4.01237 1.88477 0
M  V30 2241 H 212.339 0.656517 0.138661 0
M  V30 2242 H 214.883 2.03267 -0.224196 0
M  V30 2243 H 213.038 3.40688 1.84418 0
M  V30 2244 H 213.452 5.21436 0.56613 0
M  V30 2245 H 214.926 5.03314 2.26669 0
M  V30 2246 H 215.403 3.41193 2.76558 0
M  V30 2247 H 216.009 4.07156 1.22898 0
M  V30 2248 N 214.325 -0.140222 1.56975 0
M  V30 2249 C 215.257 -1.19818 1.95388 0
M  V30 2250 C 216.27 -1.38816 0.850525 0
M  V30 2251 O 217.459 -1.38267 1.12891 0
M  V30 2252 C 214.559 -2.56189 2.21857 0
M  V30 2253 C 213.732 -2.58077 3.5315 0
M  V30 2254 C 212.791 -3.76037 3.6808 0
M  V30 2255 O 211.817 -3.60598 4.40406 0
M  V30 2256 N 213.019 -4.93763 3.05251 0
M  V30 2257 H 215.784 -0.871609 2.86746 0
M  V30 2258 H 213.345 -0.32972 1.58507 0
M  V30 2259 H 215.337 -3.33623 2.2908 0
M  V30 2260 H 213.907 -2.81111 1.36731 0
M  V30 2261 H 213.127 -1.6651 3.57307 0
M  V30 2262 H 214.415 -2.56377 4.39486 0
M  V30 2263 H 213.813 -5.09209 2.46419 0
M  V30 2264 H 212.37 -5.68949 3.18026 0
M  V30 2265 N 215.803 -1.52179 -0.40978 0
M  V30 2266 C 217.05 -1.66206 -1.15679 0
M  V30 2267 C 217.378 -0.391674 -1.90516 0
M  V30 2268 O 216.633 0.62533 -1.8544 0
M  V30 2269 C 216.932 -2.83428 -2.17723 0
M  V30 2270 C 216.598 -4.21672 -1.59699 0
M  V30 2271 C 215.26 -4.59274 -1.43599 0
M  V30 2272 C 217.612 -5.07825 -1.17317 0
M  V30 2273 C 214.94 -5.80709 -0.836328 0
M  V30 2274 C 217.292 -6.29864 -0.587691 0
M  V30 2275 C 215.956 -6.66216 -0.413818 0
M  V30 2276 H 215.226 -0.608192 -0.423301 0
M  V30 2277 H 217.873 -1.86279 -0.444097 0
M  V30 2278 H 216.178 -2.57687 -2.95135 0
M  V30 2279 H 217.875 -2.91477 -2.75394 0
M  V30 2280 H 214.465 -3.9204 -1.73213 0
M  V30 2281 H 218.649 -4.79359 -1.28565 0
M  V30 2282 H 213.905 -6.07498 -0.689626 0
M  V30 2283 H 218.079 -6.95948 -0.250894 0
M  V30 2284 H 215.706 -7.60182 0.0529471 0
M  V30 2285 N 217.281 0.66697 -1.42791 0
M  V30 2286 C 218.511 1.45294 -1.46878 0
M  V30 2287 C 218.919 1.89027 -0.0809861 0
M  V30 2288 O 218.262 1.59219 0.916246 0
M  V30 2289 C 218.324 2.72908 -2.34012 0
M  V30 2290 C 217.988 2.51203 -3.81767 0
M  V30 2291 C 218.985 2.15302 -4.73224 0
M  V30 2292 C 216.67 2.65954 -4.26115 0
M  V30 2293 C 218.664 1.94431 -6.07022 0
M  V30 2294 C 216.351 2.44699 -5.59969 0
M  V30 2295 C 217.349 2.08992 -6.5024 0
M  V30 2296 O 217.037 1.87948 -7.81621 0
M  V30 2297 H 216.769 0.453306 -0.501487 0
M  V30 2298 H 219.323 0.826232 -1.88049 0
M  V30 2299 H 217.553 3.38089 -1.87703 0
M  V30 2300 H 219.242 3.34816 -2.29462 0
M  V30 2301 H 220.008 2.03495 -4.40244 0
M  V30 2302 H 215.887 2.92724 -3.56137 0
M  V30 2303 H 219.431 1.66484 -6.77443 0
M  V30 2304 H 215.328 2.56105 -5.9252 0
M  V30 2305 H 216.096 2.02483 -7.93059 0
M  V30 2306 N 218.759 1.29093 0.90403 0
M  V30 2307 C 220.17 1.15186 1.46932 0
M  V30 2308 C 220.521 -0.254587 1.94541 0
M  V30 2309 O 219.646 -1.14972 1.83332 0
M  V30 2310 C 220.241 2.08492 2.67051 0
M  V30 2311 C 218.8 1.98621 3.19729 0
M  V30 2312 C 217.947 1.9967 1.92425 0
M  V30 2313 H 220.898 1.41641 0.715789 0
M  V30 2314 H 220.919 1.65461 3.42641 0
M  V30 2315 H 220.431 3.10847 2.3237 0
M  V30 2316 H 218.532 0.993389 3.59114 0
M  V30 2317 H 218.645 2.86068 3.8432 0
M  V30 2318 H 217.009 1.44208 2.09943 0
M  V30 2319 H 217.792 3.03721 1.60026 0
M  V30 2320 N 220.237 -1.11381 1.11499 0
M  V30 2321 C 221.514 -1.7955 0.775965 0
M  V30 2322 C 221.894 -1.97859 -0.73588 0
M  V30 2323 O 221.242 -1.56376 -1.66609 0
M  V30 2324 C 221.452 -3.13196 1.53977 0
M  V30 2325 C 222.8 -3.88227 1.71944 0
M  V30 2326 O 223.824 -3.22887 1.50407 0
M  V30 2327 O 222.683 -5.05477 2.07738 0
M  V30 2328 H 219.777 -0.777728 0.28119 0
M  V30 2329 H 222.323 -1.18118 1.21845 0
M  V30 2330 H 221.095 -2.95229 2.56818 0
M  V30 2331 H 220.718 -3.82342 1.09088 0
M  V30 2332 N 221.715 -0.905404 -1.28997 0
M  V30 2333 C 222.992 -0.453513 -1.9027 0
M  V30 2334 C 223.372 1.06721 -1.82137 0
M  V30 2335 O 222.72 1.91159 -1.25182 0
M  V30 2336 C 222.93 -0.974494 -3.35119 0
M  V30 2337 C 224.278 -1.0216 -4.12127 0
M  V30 2338 O 225.302 -0.922557 -3.44046 0
M  V30 2339 O 224.161 -1.17121 -5.33802 0
M  V30 2340 H 221.255 -0.142347 -0.814657 0
M  V30 2341 H 223.801 -0.995642 -1.37423 0
M  V30 2342 H 222.573 -2.01848 -3.35221 0
M  V30 2343 H 222.196 -0.412706 -3.95452 0
M  V30 2344 N 223.193 1.4272 -0.668489 0
M  V30 2345 C 224.103 2.34596 0.0139753 0
M  V30 2346 C 225.119 1.5474 0.795703 0
M  V30 2347 O 226.295 1.87334 0.739466 0
M  V30 2348 C 223.36 3.33202 0.957982 0
M  V30 2349 C 222.421 4.28957 0.17149 0
M  V30 2350 C 221.654 5.22853 1.07053 0
M  V30 2351 O 221.877 5.21531 2.31001 0
M  V30 2352 O 220.811 5.9952 0.534727 0
M  V30 2353 H 224.637 2.9448 -0.742661 0
M  V30 2354 H 222.222 1.43117 -0.428705 0
M  V30 2355 H 224.104 3.93796 1.50008 0
M  V30 2356 H 222.779 2.758 1.69458 0
M  V30 2357 H 221.686 3.71796 -0.414558 0
M  V30 2358 H 223.019 4.89383 -0.52586 0
M  V30 2359 N 224.671 0.411399 1.52136 0
M  V30 2360 C 225.917 -0.163888 2.02137 0
M  V30 2361 C 226.25 -1.44597 1.29636 0
M  V30 2362 O 225.525 -1.90272 0.403353 0
M  V30 2363 C 225.808 -0.40927 3.57767 0
M  V30 2364 C 225.661 0.889643 4.40914 0
M  V30 2365 C 226.98 -1.19042 4.23694 0
M  V30 2366 H 224.099 -0.0580896 0.734707 0
M  V30 2367 H 226.741 0.54531 1.82007 0
M  V30 2368 H 224.891 -1.0134 3.7505 0
M  V30 2369 H 226.563 1.52575 4.35337 0
M  V30 2370 H 224.806 1.50011 4.07037 0
M  V30 2371 H 225.477 0.672314 5.4789 0
M  V30 2372 H 227.953 -0.678942 4.10524 0
M  V30 2373 H 226.829 -1.33086 5.32522 0
M  V30 2374 H 227.09 -2.21166 3.82803 0
M  V30 2375 N 226.149 -1.5696 0.141893 0
M  V30 2376 C 227.377 -2.00322 -0.517579 0
M  V30 2377 C 227.792 -1.02193 -1.58752 0
M  V30 2378 O 227.149 -0.0181619 -1.82491 0
M  V30 2379 C 227.2 -3.43618 -1.12289 0
M  V30 2380 O 226.921 -4.37995 -0.0956929 0
M  V30 2381 C 228.422 -4.02231 -1.86347 0
M  V30 2382 H 225.642 -0.657243 -0.135177 0
M  V30 2383 H 228.186 -2.03146 0.234973 0
M  V30 2384 H 226.341 -3.41662 -1.82609 0
M  V30 2385 H 226.755 -5.21729 -0.538469 0
M  V30 2386 H 228.229 -5.04509 -2.23997 0
M  V30 2387 H 228.706 -3.42655 -2.74744 0
M  V30 2388 H 229.312 -4.07802 -1.20737 0
M  V30 2389 N 227.627 0.131896 -1.57047 0
M  V30 2390 C 228.59 1.14638 -1.98471 0
M  V30 2391 C 229.59 1.35029 -0.873148 0
M  V30 2392 O 230.78 1.31764 -1.13946 0
M  V30 2393 C 227.912 2.50358 -2.31373 0
M  V30 2394 H 229.105 0.79064 -2.8929 0
M  V30 2395 H 226.658 0.375761 -1.51716 0
M  V30 2396 H 227.393 2.90876 -1.43393 0
M  V30 2397 H 227.178 2.36915 -3.12432 0
M  V30 2398 H 228.668 3.23395 -2.64207 0
M  V30 2399 N 229.106 1.52395 0.401703 0
M  V30 2400 C 230.355 1.66044 1.14509 0
M  V30 2401 C 230.668 0.400216 1.91462 0
M  V30 2402 O 231.874 0.416632 2.68284 0
M  V30 2403 C 230.33 2.93388 2.0845 0
M  V30 2404 C 229.938 4.26545 1.36978 0
M  V30 2405 C 231.682 3.16402 2.83001 0
M  V30 2406 C 229.589 5.45007 2.29611 0
M  V30 2407 H 228.519 0.618562 0.431158 0
M  V30 2408 H 231.17 1.78886 0.40892 0
M  V30 2409 H 229.552 2.74263 2.8565 0
M  V30 2410 H 230.726 4.56179 0.650916 0
M  V30 2411 H 229.041 4.09692 0.74438 0
M  V30 2412 H 231.638 4.02085 3.52465 0
M  V30 2413 H 231.981 2.30943 3.46368 0
M  V30 2414 H 232.514 3.36034 2.12898 0
M  V30 2415 H 229.253 6.32835 1.70879 0
M  V30 2416 H 228.773 5.19702 2.9945 0
M  V30 2417 H 230.452 5.7838 2.89974 0
M  V30 2418 N 230.584 -0.659388 1.43143 0
M  V30 2419 C 231.833 -1.41518 1.43721 0
M  V30 2420 C 232.146 -1.95499 0.0628176 0
M  V30 2421 O 233.352 -2.71446 -0.0539683 0
M  V30 2422 C 231.808 -2.5608 2.52885 0
M  V30 2423 C 231.416 -2.08733 3.96402 0
M  V30 2424 C 233.16 -3.3349 2.62649 0
M  V30 2425 C 231.067 -3.20469 4.97045 0
M  V30 2426 H 229.997 -0.531705 0.534608 0
M  V30 2427 H 232.648 -0.712343 1.69109 0
M  V30 2428 H 231.03 -3.28805 2.20688 0
M  V30 2429 H 232.204 -1.43059 4.3803 0
M  V30 2430 H 230.519 -1.44219 3.90627 0
M  V30 2431 H 233.116 -4.16734 3.35017 0
M  V30 2432 H 233.459 -3.8111 1.67513 0
M  V30 2433 H 233.992 -2.67842 2.94118 0
M  V30 2434 H 230.731 -2.77824 5.93712 0
M  V30 2435 H 230.251 -3.84874 4.60034 0
M  V30 2436 H 231.93 -3.85698 5.19467 0
M  V30 2437 N 232.062 -1.29571 -0.897171 0
M  V30 2438 C 233.025 -1.14913 -1.98312 0
M  V30 2439 C 234.025 -0.0838629 -1.60581 0
M  V30 2440 O 235.215 -0.331006 -1.71026 0
M  V30 2441 C 232.347 -0.757835 -3.3237 0
M  V30 2442 H 233.54 -2.11377 -2.12743 0
M  V30 2443 H 231.093 -1.12793 -1.08201 0
M  V30 2444 H 231.828 0.206837 -3.2364 0
M  V30 2445 H 231.613 -1.52755 -3.61121 0
M  V30 2446 H 233.103 -0.678408 -4.12053 0
M  V30 2447 N 233.54 1.10788 -1.12088 0
M  V30 2448 C 234.765 1.87002 -0.896949 0
M  V30 2449 C 235.19 1.79933 0.548261 0
M  V30 2450 O 234.548 1.16662 1.38779 0
M  V30 2451 C 234.596 3.3349 -1.37174 0
M  V30 2452 O 233.7 4.08745 -0.547831 0
M  V30 2453 H 233.041 0.580397 -0.322545 0
M  V30 2454 H 235.571 1.39996 -1.49206 0
M  V30 2455 H 235.581 3.84339 -1.36922 0
M  V30 2456 H 234.256 3.37951 -2.42408 0
M  V30 2457 H 232.833 3.6776 -0.617034 0
M  V30 2458 N 235.018 0.912232 1.28515 0
M  V30 2459 C 236.265 0.544599 1.95039 0
M  V30 2460 C 236.593 -0.911435 1.71823 0
M  V30 2461 O 235.848 -1.66317 1.03137 0
M  V30 2462 C 236.147 0.798392 3.48368 0
M  V30 2463 C 235.813 2.23374 3.91682 0
M  V30 2464 C 234.475 2.62617 4.03219 0
M  V30 2465 C 236.827 3.16786 4.13879 0
M  V30 2466 C 234.155 3.94429 4.3433 0
M  V30 2467 C 236.507 4.48161 4.46469 0
M  V30 2468 C 235.171 4.8726 4.56217 0
M  V30 2469 H 234.441 0.199283 0.7137 0
M  V30 2470 H 237.088 1.15327 1.52879 0
M  V30 2471 H 235.393 0.106908 3.91654 0
M  V30 2472 H 237.09 0.493141 3.97956 0
M  V30 2473 H 233.68 1.91922 3.83228 0
M  V30 2474 H 237.864 2.87677 4.0442 0
M  V30 2475 H 233.12 4.24426 4.40082 0
M  V30 2476 H 237.294 5.20559 4.62592 0
M  V30 2477 H 234.921 5.89431 4.80078 0
M  V30 2478 N 236.496 -1.42363 0.676048 0
M  V30 2479 C 237.721 -2.06377 0.205705 0
M  V30 2480 C 238.146 -1.50463 -1.12883 0
M  V30 2481 O 237.504 -0.623619 -1.70237 0
M  V30 2482 C 237.552 -3.60277 0.152655 0
M  V30 2483 O 236.656 -4.02935 -0.87845 0
M  V30 2484 H 235.997 -0.655588 0.105359 0
M  V30 2485 H 238.527 -1.82475 0.925412 0
M  V30 2486 H 238.537 -4.07993 -0.0230675 0
M  V30 2487 H 237.212 -4.00346 1.12675 0
M  V30 2488 H 235.789 -3.66764 -0.673668 0
M  V30 2489 N 237.974 -0.419461 -1.51915 0
M  V30 2490 C 239.223 0.154346 -2.01109 0
M  V30 2491 C 239.536 1.45338 -1.30905 0
M  V30 2492 O 240.742 2.10906 -1.7097 0
M  V30 2493 C 239.198 0.325615 -3.58424 0
M  V30 2494 C 238.806 -0.961934 -4.37551 0
M  V30 2495 C 240.55 0.854155 -4.15818 0
M  V30 2496 C 238.457 -0.757287 -5.86531 0
M  V30 2497 H 237.387 0.0614563 -0.751491 0
M  V30 2498 H 240.038 -0.54649 -1.75173 0
M  V30 2499 H 238.42 1.08903 -3.80731 0
M  V30 2500 H 239.594 -1.7323 -4.26999 0
M  V30 2501 H 237.909 -1.41766 -3.91524 0
M  V30 2502 H 240.506 1.02346 -5.24814 0
M  V30 2503 H 240.849 1.83172 -3.73837 0
M  V30 2504 H 241.382 0.149528 -3.97519 0
M  V30 2505 H 238.121 -1.70671 -6.32892 0
M  V30 2506 H 237.641 -0.0264061 -5.99794 0
M  V30 2507 H 239.32 -0.403482 -6.45741 0
M  V30 2508 N 239.452 1.56882 -0.150215 0
M  V30 2509 C 240.68 2.00593 0.506948 0
M  V30 2510 C 241.095 1.03033 1.58208 0
M  V30 2511 O 240.452 0.0278396 1.82479 0
M  V30 2512 C 240.503 3.44209 1.10465 0
M  V30 2513 O 240.224 4.3804 0.0724636 0
M  V30 2514 C 241.725 4.03214 1.84211 0
M  V30 2515 H 238.945 0.65795 0.13169 0
M  V30 2516 H 241.489 2.03018 -0.245743 0
M  V30 2517 H 239.644 3.42625 1.80795 0
M  V30 2518 H 240.058 5.22007 0.510793 0
M  V30 2519 H 241.532 5.0569 2.21318 0
M  V30 2520 H 242.009 3.44107 2.72923 0
M  V30 2521 H 242.615 4.08437 1.18572 0
M  V30 2522 N 240.93 -0.123565 1.57115 0
M  V30 2523 C 242.155 -0.850398 1.89164 0
M  V30 2524 C 242.58 -1.7286 0.741688 0
M  V30 2525 O 241.938 -1.78665 -0.307958 0
M  V30 2526 C 241.986 -1.66353 3.19936 0
M  V30 2527 O 241.09 -2.77004 3.0552 0
M  V30 2528 H 240.431 -0.235454 0.620852 0
M  V30 2529 H 242.961 -0.107335 2.04318 0
M  V30 2530 H 242.971 -2.05372 3.52543 0
M  V30 2531 H 241.646 -1.01881 4.03228 0
M  V30 2532 H 240.223 -2.41221 2.84371 0
M  V30 2533 N 242.408 -1.52605 -0.393616 0
M  V30 2534 C 243.654 -1.67672 -1.14079 0
M  V30 2535 C 243.987 -0.413121 -1.89755 0
M  V30 2536 O 243.262 0.588952 -1.85369 0
M  V30 2537 C 243.545 -2.9088 -2.12276 0
M  V30 2538 C 243.398 -4.27329 -1.40394 0
M  V30 2539 C 244.717 -3.09628 -3.12759 0
M  V30 2540 H 241.836 -0.610168 -0.413356 0
M  V30 2541 H 244.478 -1.85193 -0.424696 0
M  V30 2542 H 242.628 -2.76073 -2.73342 0
M  V30 2543 H 244.3 -4.53894 -0.82327 0
M  V30 2544 H 242.543 -4.2802 -0.705801 0
M  V30 2545 H 243.214 -5.09615 -2.12123 0
M  V30 2546 H 245.69 -3.23436 -2.61779 0
M  V30 2547 H 244.566 -3.97322 -3.78717 0
M  V30 2548 H 244.827 -2.23637 -3.81365 0
M  V30 2549 N 243.887 0.651787 -1.4349 0
M  V30 2550 C 244.819 1.77725 -1.44729 0
M  V30 2551 C 245.832 1.59141 -0.343231 0
M  V30 2552 O 247.021 1.67835 -0.607751 0
M  V30 2553 C 244.121 3.15172 -1.24579 0
M  V30 2554 C 243.294 3.60402 -2.47849 0
M  V30 2555 C 242.353 4.76656 -2.22902 0
M  V30 2556 O 241.379 4.86022 -2.96263 0
M  V30 2557 N 242.581 5.66958 -1.24656 0
M  V30 2558 H 245.346 1.77141 -2.41746 0
M  V30 2559 H 242.907 0.835678 -1.38665 0
M  V30 2560 H 244.899 3.90634 -1.0577 0
M  V30 2561 H 243.469 3.1052 -0.360015 0
M  V30 2562 H 242.689 2.75369 -2.82073 0
M  V30 2563 H 243.977 3.87368 -3.29884 0
M  V30 2564 H 243.375 5.62065 -0.640265 0
M  V30 2565 H 241.932 6.42135 -1.1183 0
M  V30 2566 N 245.365 1.30045 0.890287 0
M  V30 2567 C 246.781 1.08261 1.17268 0
M  V30 2568 C 246.981 -0.160063 2.00863 0
M  V30 2569 O 246.037 -0.855181 2.37577 0
M  V30 2570 C 247.35 2.34323 1.8845 0
M  V30 2571 C 248.898 2.39735 2.01237 0
M  V30 2572 C 249.373 3.65625 2.7583 0
M  V30 2573 N 250.864 3.66402 2.83379 0
M  V30 2574 C 251.599 4.60498 3.41657 0
M  V30 2575 N 251.095 5.64933 4.01026 0
M  V30 2576 N 252.888 4.48051 3.39421 0
M  V30 2577 H 245.039 2.09777 0.332762 0
M  V30 2578 H 247.302 0.92446 0.209948 0
M  V30 2579 H 247.008 3.2498 1.34465 0
M  V30 2580 H 246.882 2.4256 2.88867 0
M  V30 2581 H 249.269 1.4956 2.54393 0
M  V30 2582 H 249.35 2.35476 0.999232 0
M  V30 2583 H 248.994 4.56156 2.23347 0
M  V30 2584 H 248.924 3.67144 3.77509 0
M  V30 2585 H 251.415 2.90896 2.41222 0
M  V30 2586 H 251.728 6.32841 4.43545 0
M  V30 2587 H 250.073 5.68732 3.99461 0
M  V30 2588 H 253.264 3.65649 2.92264 0
M  V30 2589 H 253.437 5.21565 3.84544 0
M  V30 2590 N 246.843 -1.10192 1.12674 0
M  V30 2591 C 248.068 -1.86523 0.906853 0
M  V30 2592 C 248.493 -1.80221 -0.538711 0
M  V30 2593 O 247.851 -1.17396 -1.38158 0
M  V30 2594 C 247.899 -3.32758 1.3894 0
M  V30 2595 O 247.003 -4.08449 0.5695 0
M  V30 2596 H 246.344 -0.578678 0.325619 0
M  V30 2597 H 248.874 -1.39203 1.49946 0
M  V30 2598 H 248.884 -3.83608 1.38958 0
M  V30 2599 H 247.559 -3.36661 2.44197 0
M  V30 2600 H 246.136 -3.67427 0.636528 0
M  V30 2601 N 248.321 -0.919034 -1.28029 0
M  V30 2602 C 249.598 -0.473668 -1.89778 0
M  V30 2603 C 249.978 1.04783 -1.83259 0
M  V30 2604 O 249.326 1.8982 -1.27202 0
M  V30 2605 C 249.536 -1.00998 -3.34066 0
M  V30 2606 C 250.884 -1.06525 -4.1102 0
M  V30 2607 O 251.908 -0.958996 -3.43048 0
M  V30 2608 O 250.767 -1.22776 -5.3253 0
M  V30 2609 H 247.861 -0.15098 -0.813101 0
M  V30 2610 H 250.407 -1.01016 -1.36359 0
M  V30 2611 H 249.179 -2.05392 -3.33061 0
M  V30 2612 H 248.802 -0.454626 -3.94992 0
M  V30 2613 N 249.799 1.42003 -0.683588 0
M  V30 2614 C 250.747 2.326 0.000815408 0
M  V30 2615 C 251.741 1.50308 0.781278 0
M  V30 2616 O 252.947 1.66322 0.688251 0
M  V30 2617 H 249.322 0.751758 0.0190616 0
M  V30 2618 H 251.293 2.88011 -0.780528 0
M  V30 2619 C 250.042 3.34978 0.93195 0
M  V30 2620 H 249.365 3.98345 0.340817 0
M  V30 2621 H 250.805 4.00936 1.37936 0
M  V30 2622 C 249.264 2.67925 2.04249 0
M  V30 2623 O 249.794 2.51788 3.12995 0
M  V30 2624 N 248 2.2681 1.81675 0
M  V30 2625 H 247.547 2.40135 0.932363 0
M  V30 2626 H 247.505 1.8228 2.56167 0
M  V30 2627 N 251.277 0.427512 1.51691 0
M  V30 2628 C 252.525 -0.141948 2.01601 0
M  V30 2629 C 252.846 -1.44067 1.31414 0
M  V30 2630 O 252.116 -1.90763 0.445658 0
M  V30 2631 H 250.696 -0.0554468 0.744939 0
M  V30 2632 H 253.358 0.567968 1.86441 0
M  V30 2633 H 252.454 -0.324913 3.10404 0
M  V30 2634 N 252.755 -1.56801 0.158532 0
M  V30 2635 C 253.98 -2.01295 -0.499516 0
M  V30 2636 C 254.405 -1.03799 -1.56867 0
M  V30 2637 O 253.763 -0.0155162 -1.81293 0
M  V30 2638 C 253.811 -3.44469 -1.06647 0
M  V30 2639 O 252.915 -3.50012 -2.18095 0
M  V30 2640 H 252.256 -0.652884 -0.12099 0
M  V30 2641 H 254.786 -2.02958 0.258661 0
M  V30 2642 H 254.796 -3.8351 -1.39227 0
M  V30 2643 H 253.471 -4.14932 -0.283581 0
M  V30 2644 H 252.048 -3.22822 -1.86656 0
M  V30 2645 N 254.233 0.115231 -1.57178 0
M  V30 2646 C 255.463 0.835224 -1.88964 0
M  V30 2647 C 255.871 1.73774 -0.74829 0
M  V30 2648 O 255.214 1.81401 0.289739 0
M  V30 2649 C 255.276 1.7178 -3.15804 0
M  V30 2650 C 254.94 0.989198 -4.46166 0
M  V30 2651 C 255.937 0.328263 -5.18863 0
M  V30 2652 C 253.622 0.969256 -4.9286 0
M  V30 2653 C 255.616 -0.342873 -6.36477 0
M  V30 2654 C 253.303 0.294324 -6.10391 0
M  V30 2655 C 254.301 -0.360582 -6.82048 0
M  V30 2656 O 253.989 -1.02474 -7.97342 0
M  V30 2657 H 253.721 0.245197 -0.629964 0
M  V30 2658 H 256.275 0.10303 -2.05141 0
M  V30 2659 H 254.505 2.49173 -2.95719 0
M  V30 2660 H 256.194 2.31255 -3.33581 0
M  V30 2661 H 256.96 0.335263 -4.8384 0
M  V30 2662 H 252.839 1.46844 -4.36987 0
M  V30 2663 H 256.383 -0.854629 -6.92345 0
M  V30 2664 H 252.28 0.285099 -6.4487 0
M  V30 2665 H 253.048 -0.929594 -8.13204 0
M  V30 2666 N 255.711 1.52812 0.385517 0
M  V30 2667 C 256.96 1.67249 1.12741 0
M  V30 2668 C 257.273 0.4205 1.91027 0
M  V30 2669 O 258.479 0.445064 2.67827 0
M  V30 2670 C 256.935 2.95583 2.05326 0
M  V30 2671 C 256.543 4.27974 1.32447 0
M  V30 2672 C 258.287 3.19386 2.7963 0
M  V30 2673 C 256.194 5.47412 2.23818 0
M  V30 2674 H 255.124 0.6231 0.424573 0
M  V30 2675 H 257.775 1.79309 0.389924 0
M  V30 2676 H 256.157 2.77277 2.82725 0
M  V30 2677 H 257.331 4.56844 0.602495 0
M  V30 2678 H 255.646 4.10459 0.700885 0
M  V30 2679 H 258.243 4.05801 3.48181 0
M  V30 2680 H 258.586 2.34604 3.43899 0
M  V30 2681 H 259.119 3.38274 2.09322 0
M  V30 2682 H 255.858 6.34612 1.64157 0
M  V30 2683 H 255.378 5.22849 2.93921 0
M  V30 2684 H 257.057 5.81423 2.83824 0
M  V30 2685 N 257.189 -0.644168 1.43834 0
M  V30 2686 C 258.429 -1.41565 1.47441 0
M  V30 2687 C 258.793 -1.91743 0.0992723 0
M  V30 2688 O 259.994 -2.68798 0.0100192 0
M  V30 2689 C 258.265 -2.55902 2.49498 0
M  V30 2690 S 259.824 -3.44287 2.72051 0
M  V30 2691 H 256.642 -0.483118 0.521649 0
M  V30 2692 H 259.244 -0.747008 1.80666 0
M  V30 2693 H 257.948 -2.17327 3.48134 0
M  V30 2694 H 257.479 -3.27607 2.17801 0
M  V30 2695 H 259.494 -4.52927 2.0266 0
M  V30 2696 N 258.668 -1.30515 -0.883378 0
M  V30 2697 C 259.615 -1.17032 -1.98927 0
M  V30 2698 C 260.585 -0.0594241 -1.65994 0
M  V30 2699 O 261.77 -0.229895 -1.8941 0
M  V30 2700 C 258.91 -0.869777 -3.33959 0
M  V30 2701 C 258.023 -2.06271 -3.79574 0
M  V30 2702 C 257.158 -1.70011 -5.03259 0
M  V30 2703 C 256.197 -2.8579 -5.41286 0
M  V30 2704 N 255.334 -2.49816 -6.56153 0
M  V30 2705 H 260.174 -2.1164 -2.09792 0
M  V30 2706 H 257.711 -1.05296 -1.02719 0
M  V30 2707 H 259.669 -0.676138 -4.11685 0
M  V30 2708 H 258.299 0.0394332 -3.22776 0
M  V30 2709 H 257.351 -2.36755 -2.97744 0
M  V30 2710 H 258.663 -2.92971 -4.03694 0
M  V30 2711 H 257.817 -1.47032 -5.88614 0
M  V30 2712 H 256.556 -0.804829 -4.81013 0
M  V30 2713 H 255.561 -3.09434 -4.54456 0
M  V30 2714 H 256.786 -3.76008 -5.65504 0
M  V30 2715 H 254.732 -1.62795 -6.35479 0
M  V30 2716 H 254.649 -3.30048 -6.8015 0
M  V30 2717 H 255.917 -2.30197 -7.44735 0
M  V30 2718 N 260.146 1.09593 -1.13257 0
M  V30 2719 C 261.079 2.15451 -0.752061 0
M  V30 2720 C 262.057 1.60493 0.260913 0
M  V30 2721 O 263.241 1.8788 0.152819 0
M  V30 2722 C 260.368 3.38506 -0.114594 0
M  V30 2723 C 259.414 4.12183 -1.09579 0
M  V30 2724 S 260.247 4.6661 -2.62745 0
M  V30 2725 C 261.403 5.92966 -2.00354 0
M  V30 2726 H 261.636 2.47395 -1.64872 0
M  V30 2727 H 259.169 1.21515 -0.952545 0
M  V30 2728 H 261.127 4.09757 0.246808 0
M  V30 2729 H 259.788 3.04784 0.759309 0
M  V30 2730 H 258.981 5.00445 -0.597545 0
M  V30 2731 H 258.583 3.46785 -1.40057 0
M  V30 2732 H 260.875 6.63882 -1.35156 0
M  V30 2733 H 261.818 6.47467 -2.86691 0
M  V30 2734 H 262.226 5.45405 -1.4558 0
M  V30 2735 N 261.624 0.925811 1.2754 0
M  V30 2736 C 262.571 0.422045 2.26908 0
M  V30 2737 C 263.541 -0.510029 1.58076 0
M  V30 2738 O 264.726 -0.429599 1.85901 0
M  V30 2739 C 261.866 -0.320837 3.43605 0
M  V30 2740 C 260.979 0.64513 4.27156 0
M  V30 2741 C 260.114 -0.117405 5.3107 0
M  V30 2742 C 259.153 0.841391 6.0629 0
M  V30 2743 N 258.29 0.111604 7.02011 0
M  V30 2744 H 263.13 1.27441 2.69375 0
M  V30 2745 H 260.667 0.639697 1.32462 0
M  V30 2746 H 262.625 -0.76785 4.10073 0
M  V30 2747 H 261.255 -1.13745 3.02096 0
M  V30 2748 H 260.307 1.21067 3.6062 0
M  V30 2749 H 261.619 1.37797 4.79389 0
M  V30 2750 H 260.773 -0.624422 6.03478 0
M  V30 2751 H 259.512 -0.883219 4.79636 0
M  V30 2752 H 258.517 1.35967 5.32722 0
M  V30 2753 H 259.742 1.60696 6.59813 0
M  V30 2754 H 257.688 -0.635999 6.5291 0
M  V30 2755 H 257.605 0.784044 7.51923 0
M  V30 2756 H 258.873 -0.374823 7.78598 0
M  V30 2757 N 263.102 -1.41638 0.69111 0
M  V30 2758 C 264.351 -2.00526 0.217318 0
M  V30 2759 C 264.664 -1.55353 -1.18848 0
M  V30 2760 O 265.87 -2.06769 -1.75951 0
M  V30 2761 C 264.326 -3.58313 0.337639 0
M  V30 2762 C 263.934 -4.12469 1.74852 0
M  V30 2763 C 265.678 -4.24431 -0.0766066 0
M  V30 2764 C 263.585 -5.62675 1.82074 0
M  V30 2765 H 262.515 -0.750008 0.0774893 0
M  V30 2766 H 265.166 -1.6217 0.858661 0
M  V30 2767 H 263.548 -3.9425 -0.371879 0
M  V30 2768 H 264.722 -3.8796 2.48644 0
M  V30 2769 H 263.037 -3.58861 2.11205 0
M  V30 2770 H 265.634 -5.34683 -0.0430284 0
M  V30 2771 H 265.977 -4.01101 -1.1146 0
M  V30 2772 H 266.51 -3.93512 0.582476 0
M  V30 2773 H 263.249 -5.90826 2.83911 0
M  V30 2774 H 262.769 -5.89124 1.12661 0
M  V30 2775 H 264.448 -6.27371 1.58159 0
M  V30 2776 N 264.58 -0.43555 -1.51462 0
M  V30 2777 C 265.528 0.391205 -2.29287 0
M  V30 2778 C 266.522 1.02247 -1.35062 0
M  V30 2779 O 267.728 0.957646 -1.52411 0
M  V30 2780 H 264.103 0.144968 -0.737895 0
M  V30 2781 H 266.074 -0.286051 -2.97026 0
M  V30 2782 C 264.823 1.48096 -3.14583 0
M  V30 2783 H 264.146 1.00457 -3.86973 0
M  V30 2784 H 265.586 2.03273 -3.72097 0
M  V30 2785 C 264.045 2.46321 -2.29843 0
M  V30 2786 O 264.575 3.50815 -1.95682 0
M  V30 2787 N 262.781 2.17166 -1.931 0
M  V30 2788 H 262.328 1.32218 -2.21079 0
M  V30 2789 H 262.286 2.83127 -1.36698 0
M  V30 2790 N 266.058 1.56714 -0.166846 0
M  V30 2791 C 267.006 2.19056 0.782123 0
M  V30 2792 C 268 1.15328 1.24079 0
M  V30 2793 O 269.206 1.33537 1.20697 0
M  V30 2794 H 265.581 0.70167 0.270486 0
M  V30 2795 H 267.552 2.97494 0.232322 0
M  V30 2796 C 266.301 2.84206 2.00306 0
M  V30 2797 H 265.624 3.63748 1.65914 0
M  V30 2798 H 267.064 3.31302 2.64604 0
M  V30 2799 C 265.523 1.83744 2.82382 0
M  V30 2800 O 266.053 1.32014 3.79388 0
M  V30 2801 N 264.259 1.52601 2.47308 0
M  V30 2802 H 263.806 1.9486 1.68485 0
M  V30 2803 H 263.764 0.856351 3.02513 0
M  V30 2804 N 267.536 -0.106894 1.57237 0
M  V30 2805 C 268.446 -1.14911 2.0453 0
M  V30 2806 C 269.462 -1.44592 0.96795 0
M  V30 2807 O 270.638 -1.55468 1.2803 0
M  V30 2808 C 267.703 -2.45272 2.45036 0
M  V30 2809 C 266.764 -2.22879 3.66911 0
M  V30 2810 C 265.997 -3.47024 4.05475 0
M  V30 2811 O 266.22 -4.54804 3.44252 0
M  V30 2812 O 265.154 -3.3731 4.98504 0
M  V30 2813 H 268.98 -0.777461 2.9358 0
M  V30 2814 H 266.565 -0.318563 1.45964 0
M  V30 2815 H 268.447 -3.22055 2.71769 0
M  V30 2816 H 267.122 -2.81886 1.59129 0
M  V30 2817 H 266.029 -1.43915 3.45311 0
M  V30 2818 H 267.362 -1.91163 4.53561 0
M  V30 2819 N 269.014 -1.53014 -0.377408 0
M  V30 2820 C 269.924 -1.81557 -1.48574 0
M  V30 2821 C 270.94 -0.703102 -1.59162 0
M  V30 2822 O 272.116 -0.99192 -1.75279 0
M  V30 2823 C 269.181 -1.9889 -2.83978 0
M  V30 2824 C 268.242 -3.22801 -2.83016 0
M  V30 2825 C 267.475 -3.39298 -4.11962 0
M  V30 2826 O 267.698 -2.60345 -5.0752 0
M  V30 2827 O 266.632 -4.32604 -4.18494 0
M  V30 2828 H 270.458 -2.75695 -1.27382 0
M  V30 2829 H 268.043 -1.38248 -0.566373 0
M  V30 2830 H 269.925 -2.11931 -3.6423 0
M  V30 2831 H 268.6 -1.07942 -3.05172 0
M  V30 2832 H 267.507 -3.15193 -2.01505 0
M  V30 2833 H 268.84 -4.13632 -2.66775 0
M  V30 2834 N 270.492 0.636531 -1.44174 0
M  V30 2835 C 271.741 1.39213 -1.45954 0
M  V30 2836 C 272.054 1.95374 -0.0939119 0
M  V30 2837 O 273.26 2.71498 0.0107767 0
M  V30 2838 C 271.716 2.52025 -2.56927 0
M  V30 2839 C 271.324 2.024 -3.99673 0
M  V30 2840 C 273.068 3.29269 -2.67922 0
M  V30 2841 C 270.975 3.12521 -5.0208 0
M  V30 2842 H 269.905 0.523132 -0.542999 0
M  V30 2843 H 272.556 0.685349 -1.70221 0
M  V30 2844 H 270.938 3.25253 -2.25891 0
M  V30 2845 H 272.112 1.36073 -4.40251 0
M  V30 2846 H 270.427 1.37987 -3.92872 0
M  V30 2847 H 273.024 4.11352 -3.41605 0
M  V30 2848 H 273.367 3.78397 -1.73555 0
M  V30 2849 H 273.9 2.63129 -2.98342 0
M  V30 2850 H 270.639 2.68343 -5.98057 0
M  V30 2851 H 270.159 3.77507 -4.66099 0
M  V30 2852 H 271.838 3.77385 -5.25538 0
M  V30 2853 N 271.97 1.30982 0.876444 0
M  V30 2854 C 273.216 1.20474 1.63138 0
M  V30 2855 C 273.549 -0.238096 1.92735 0
M  V30 2856 O 272.824 -1.1692 1.55435 0
M  V30 2857 C 273.107 2.04244 2.96574 0
M  V30 2858 C 272.96 3.56793 2.73896 0
M  V30 2859 C 274.279 1.88684 3.97601 0
M  V30 2860 H 271.398 0.439001 0.591985 0
M  V30 2861 H 274.04 1.60704 1.01361 0
M  V30 2862 H 272.19 1.70063 3.493 0
M  V30 2863 H 273.862 4.01077 2.27892 0
M  V30 2864 H 272.105 3.80548 2.08245 0
M  V30 2865 H 272.776 4.10706 3.68815 0
M  V30 2866 H 275.252 2.18584 3.54062 0
M  V30 2867 H 274.128 2.4961 4.88862 0
M  V30 2868 H 274.389 0.848343 4.33884 0
M  V30 2869 N 273.449 -1.08991 1.13837 0
M  V30 2870 C 274.674 -1.85551 0.926585 0
M  V30 2871 C 275.099 -1.80782 -0.519566 0
M  V30 2872 O 274.457 -1.18855 -1.36906 0
M  V30 2873 C 274.505 -3.31266 1.42462 0
M  V30 2874 O 273.609 -4.07822 0.612789 0
M  V30 2875 H 272.95 -0.575192 0.331738 0
M  V30 2876 H 275.48 -1.37604 1.51414 0
M  V30 2877 H 275.49 -3.82112 1.43019 0
M  V30 2878 H 274.165 -3.34052 2.47754 0
M  V30 2879 H 272.742 -3.66731 0.675463 0
M  V30 2880 N 274.927 -0.932562 -1.27047 0
M  V30 2881 C 276.204 -0.49377 -1.89265 0
M  V30 2882 C 276.584 1.02833 -1.8436 0
M  V30 2883 O 275.932 1.88461 -1.29209 0
M  V30 2884 C 276.142 -1.04536 -3.32976 0
M  V30 2885 C 277.49 -1.10879 -4.09867 0
M  V30 2886 O 278.514 -0.995327 -3.42011 0
M  V30 2887 O 277.373 -1.28417 -5.31198 0
M  V30 2888 H 274.467 -0.159596 -0.811454 0
M  V30 2889 H 277.013 -1.02457 -1.3528 0
M  V30 2890 H 275.785 -2.08913 -3.30864 0
M  V30 2891 H 275.408 -0.496494 -3.94488 0
M  V30 2892 N 276.405 1.4127 -0.698611 0
M  V30 2893 C 277.816 1.84187 -0.305289 0
M  V30 2894 C 278.167 1.58449 1.15708 0
M  V30 2895 O 277.292 1.05651 1.88856 0
M  V30 2896 C 277.887 3.3435 -0.547314 0
M  V30 2897 C 276.446 3.75826 -0.207878 0
M  V30 2898 C 275.593 2.64647 -0.828099 0
M  V30 2899 H 278.544 1.30778 -0.89904 0
M  V30 2900 H 278.565 3.8001 0.192998 0
M  V30 2901 H 278.077 3.53051 -1.61172 0
M  V30 2902 H 276.178 3.62725 0.852143 0
M  V30 2903 H 276.291 4.74462 -0.665021 0
M  V30 2904 H 274.655 2.53395 -0.257458 0
M  V30 2905 H 275.438 2.86165 -1.89643 0
M  V30 2906 N 277.883 0.443576 1.51229 0
M  V30 2907 C 279.132 -0.122332 2.01329 0
M  V30 2908 C 279.445 -1.43237 1.33201 0
M  V30 2909 O 280.651 -2.0816 1.74304 0
M  V30 2910 C 279.107 -0.268551 3.58897 0
M  V30 2911 C 278.715 1.03142 4.35965 0
M  V30 2912 C 280.459 -0.787894 4.17124 0
M  V30 2913 C 278.366 0.850504 5.85252 0
M  V30 2914 H 277.296 -0.0494929 0.752374 0
M  V30 2915 H 279.947 0.574289 1.74282 0
M  V30 2916 H 278.329 -1.02832 3.82415 0
M  V30 2917 H 279.503 1.80001 4.24189 0
M  V30 2918 H 277.818 1.47977 3.89219 0
M  V30 2919 H 280.415 -0.939841 5.26375 0
M  V30 2920 H 280.758 -1.77201 3.76703 0
M  V30 2921 H 281.291 -0.0862669 3.97706 0
M  V30 2922 H 278.03 1.80718 6.30096 0
M  V30 2923 H 277.55 0.121825 5.99676 0
M  V30 2924 H 279.229 0.506163 6.45017 0
M  V30 2925 N 279.361 -1.56624 0.175154 0
M  V30 2926 C 280.591 -2.01082 -0.474283 0
M  V30 2927 C 280.999 -1.05447 -1.57091 0
M  V30 2928 O 280.342 -0.0480595 -1.83637 0
M  V30 2929 C 280.404 -3.41963 -1.10911 0
M  V30 2930 C 280.068 -4.56742 -0.153666 0
M  V30 2931 C 281.065 -5.16076 0.629448 0
M  V30 2932 C 278.75 -5.02277 -0.0483776 0
M  V30 2933 C 280.744 -6.19377 1.50501 0
M  V30 2934 C 278.431 -6.05427 0.830768 0
M  V30 2935 C 279.429 -6.63849 1.60605 0
M  V30 2936 O 279.117 -7.64998 2.47049 0
M  V30 2937 H 278.849 -0.664261 -0.125432 0
M  V30 2938 H 281.403 -2.03549 0.275163 0
M  V30 2939 H 279.633 -3.36422 -1.90676 0
M  V30 2940 H 281.322 -3.70352 -1.66114 0
M  V30 2941 H 282.088 -4.81776 0.558297 0
M  V30 2942 H 277.967 -4.56513 -0.641611 0
M  V30 2943 H 281.511 -6.64906 2.1106 0
M  V30 2944 H 277.408 -6.39151 0.903107 0
M  V30 2945 H 278.176 -7.82336 2.40607 0
M  V30 2946 N 280.839 0.0985539 -1.57292 0
M  V30 2947 C 282.088 0.801358 -1.85098 0
M  V30 2948 C 282.401 1.80066 -0.763902 0
M  V30 2949 O 283.607 2.55112 -0.928981 0
M  V30 2950 C 282.063 1.47599 -3.28242 0
M  V30 2951 C 281.671 0.516624 -4.45011 0
M  V30 2952 C 283.415 2.16272 -3.65276 0
M  V30 2953 C 281.322 1.19564 -5.79188 0
M  V30 2954 H 280.252 0.303022 -0.69043 0
M  V30 2955 H 282.903 0.0542623 -1.8342 0
M  V30 2956 H 281.285 2.27042 -3.2445 0
M  V30 2957 H 282.459 -0.246065 -4.60143 0
M  V30 2958 H 280.774 -0.064227 -4.1635 0
M  V30 2959 H 283.371 2.67802 -4.62803 0
M  V30 2960 H 283.714 2.95009 -2.93727 0
M  V30 2961 H 284.247 1.43693 -3.70941 0
M  V30 2962 H 280.986 0.449157 -6.53959 0
M  V30 2963 H 280.506 1.92984 -5.67906 0
M  V30 2964 H 282.185 1.7231 -6.23633 0
M  V30 2965 N 282.317 1.53212 0.369288 0
M  V30 2966 C 283.227 1.82342 1.47609 0
M  V30 2967 C 284.243 0.711532 1.58787 0
M  V30 2968 O 285.419 1.0012 1.74751 0
M  V30 2969 C 282.484 2.00393 2.8292 0
M  V30 2970 C 281.545 3.24297 2.81301 0
M  V30 2971 C 280.778 3.41478 4.10157 0
M  V30 2972 O 281.001 2.63033 5.06132 0
M  V30 2973 O 279.935 4.34817 4.16194 0
M  V30 2974 H 283.761 2.76366 1.25918 0
M  V30 2975 H 281.346 1.38547 0.559034 0
M  V30 2976 H 283.228 2.13859 3.63101 0
M  V30 2977 H 281.903 1.09559 3.04596 0
M  V30 2978 H 280.81 3.16257 1.99831 0
M  V30 2979 H 282.143 4.15041 2.64578 0
M  V30 2980 N 283.795 -0.628877 1.44509 0
M  V30 2981 C 285.041 -1.39045 1.47629 0
M  V30 2982 C 285.374 -1.93892 0.109343 0
M  V30 2983 O 284.649 -1.7379 -0.87334 0
M  V30 2984 C 284.932 -2.55408 2.53848 0
M  V30 2985 C 284.785 -2.05896 3.99909 0
M  V30 2986 C 286.104 -3.5759 2.56549 0
M  V30 2987 H 283.223 -0.504232 0.537512 0
M  V30 2988 H 285.865 -0.710854 1.76201 0
M  V30 2989 H 284.015 -3.13384 2.29615 0
M  V30 2990 H 285.687 -1.52734 4.35282 0
M  V30 2991 H 283.93 -1.37061 4.11578 0
M  V30 2992 H 284.601 -2.89681 4.69882 0
M  V30 2993 H 287.077 -3.09419 2.78207 0
M  V30 2994 H 285.953 -4.36527 3.32769 0
M  V30 2995 H 286.214 -4.11808 1.60832 0
M  V30 2996 N 285.273 -1.31445 -0.869486 0
M  V30 2997 C 286.205 -1.14955 -1.98287 0
M  V30 2998 C 287.218 -0.0885037 -1.62559 0
M  V30 2999 O 288.407 -0.336044 -1.75308 0
M  V30 3000 C 285.507 -0.734255 -3.3085 0
M  V30 3001 C 284.68 -1.88042 -3.94917 0
M  V30 3002 C 283.739 -1.4511 -5.05796 0
M  V30 3003 O 282.765 -2.16082 -5.2659 0
M  V30 3004 N 283.967 -0.338763 -5.79511 0
M  V30 3005 H 286.732 -2.10856 -2.12979 0
M  V30 3006 H 284.293 -1.23786 -1.04349 0
M  V30 3007 H 286.285 -0.42975 -4.02412 0
M  V30 3008 H 284.855 0.133158 -3.12316 0
M  V30 3009 H 284.075 -2.35222 -3.1633 0
M  V30 3010 H 285.363 -2.6481 -4.34457 0
M  V30 3011 H 284.761 0.252274 -5.65137 0
M  V30 3012 H 283.318 -0.0937925 -6.51733 0
M  V30 3013 N 286.751 1.08385 -1.14413 0
M  V30 3014 C 287.999 1.80419 -0.910679 0
M  V30 3015 C 288.32 1.86658 0.564243 0
M  V30 3016 O 287.59 1.35985 1.41014 0
M  V30 3017 H 286.17 0.668204 -0.333934 0
M  V30 3018 H 288.832 1.31037 -1.44275 0
M  V30 3019 H 287.928 2.83238 -1.31082 0
M  V30 3020 N 288.23 0.939286 1.26551 0
M  V30 3021 C 289.16 0.465044 2.28822 0
M  V30 3022 C 290.141 -0.480692 1.63167 0
M  V30 3023 O 291.326 -0.382955 1.90387 0
M  V30 3024 C 288.456 -0.27234 3.46231 0
M  V30 3025 C 287.41 0.58666 4.2396 0
M  V30 3026 C 286.736 -0.280573 5.33963 0
M  V30 3027 C 288.036 1.85704 4.88171 0
M  V30 3028 H 289.73 1.31979 2.68741 0
M  V30 3029 H 287.276 0.636061 1.29191 0
M  V30 3030 H 289.229 -0.615133 4.16886 0
M  V30 3031 H 287.953 -1.16121 3.0526 0
M  V30 3032 H 286.612 0.91232 3.55067 0
M  V30 3033 H 286.26 -1.16874 4.89234 0
M  V30 3034 H 285.96 0.29076 5.8688 0
M  V30 3035 H 287.484 -0.618678 6.07458 0
M  V30 3036 H 288.898 1.58161 5.51052 0
M  V30 3037 H 287.295 2.37279 5.51197 0
M  V30 3038 H 288.365 2.56957 4.11219 0
M  V30 3039 N 289.708 -1.40897 0.706093 0
M  V30 3040 C 291.119 -1.84023 0.315052 0
M  V30 3041 C 291.47 -1.5906 -1.14866 0
M  V30 3042 O 290.595 -1.06651 -1.88293 0
M  V30 3043 C 291.19 -3.34055 0.565038 0
M  V30 3044 C 289.749 -3.7571 0.227806 0
M  V30 3045 C 288.896 -2.64204 0.842122 0
M  V30 3046 H 291.847 -1.303 0.905963 0
M  V30 3047 H 291.868 -3.80107 -0.172843 0
M  V30 3048 H 291.38 -3.52192 1.63042 0
M  V30 3049 H 289.481 -3.63172 -0.832895 0
M  V30 3050 H 289.594 -4.74103 0.690174 0
M  V30 3051 H 287.958 -2.53255 0.270893 0
M  V30 3052 H 288.741 -2.85155 1.91158 0
M  V30 3053 N 291.186 -0.45159 -1.50991 0
M  V30 3054 C 292.136 0.370861 -2.24964 0
M  V30 3055 C 293.12 0.978074 -1.2776 0
M  V30 3056 O 294.312 0.893854 -1.52772 0
M  V30 3057 C 291.441 1.46344 -3.10545 0
M  V30 3058 C 290.527 0.864924 -4.15187 0
M  V30 3059 N 290.918 -0.00311354 -5.058 0
M  V30 3060 C 289.216 1.13099 -4.31422 0
M  V30 3061 C 289.917 -0.340772 -5.80701 0
M  V30 3062 N 288.893 0.279203 -5.42883 0
M  V30 3063 H 292.695 -0.298134 -2.92384 0
M  V30 3064 H 290.209 -0.264528 -1.60231 0
M  V30 3065 H 292.206 2.06565 -3.62128 0
M  V30 3066 H 290.866 2.13463 -2.4467 0
M  V30 3067 H 291.877 -0.37058 -5.16572 0
M  V30 3068 H 288.554 1.79861 -3.76771 0
M  V30 3069 H 289.944 -1.048 -6.63677 0
M  V30 3070 N 292.664 1.56529 -0.183458 0
M  V30 3071 C 293.911 1.97244 0.458357 0
M  V30 3072 C 294.239 1.06992 1.62428 0
M  V30 3073 O 293.494 0.106542 1.9541 0
M  V30 3074 C 293.793 3.43939 0.971637 0
M  V30 3075 C 293.459 4.5083 -0.0796784 0
M  V30 3076 C 292.121 4.79786 -0.368584 0
M  V30 3077 C 294.473 5.15138 -0.792638 0
M  V30 3078 C 291.801 5.70345 -1.37563 0
M  V30 3079 C 294.153 6.06784 -1.78875 0
M  V30 3080 C 292.817 6.34102 -2.08497 0
M  V30 3081 H 292.087 0.721768 0.167725 0
M  V30 3082 H 294.734 1.89472 -0.277976 0
M  V30 3083 H 293.039 3.48724 1.78602 0
M  V30 3084 H 294.736 3.72791 1.47744 0
M  V30 3085 H 291.326 4.28317 0.155668 0
M  V30 3086 H 295.51 4.92868 -0.582659 0
M  V30 3087 H 290.766 5.89789 -1.61118 0
M  V30 3088 H 294.94 6.55677 -2.3465 0
M  V30 3089 H 292.567 7.04074 -2.86678 0
M  V30 3090 N 294.142 -0.090211 1.57342 0
M  V30 3091 C 295.37 -0.806224 1.90546 0
M  V30 3092 C 295.785 -1.72041 0.777644 0
M  V30 3093 O 295.142 -1.80778 -0.250103 0
M  V30 3094 C 295.193 -1.61546 3.23396 0
M  V30 3095 O 294.914 -0.738043 4.31839 0
M  V30 3096 C 296.415 -2.4341 3.70495 0
M  V30 3097 H 293.635 -0.230256 0.630257 0
M  V30 3098 H 296.179 -0.0659843 2.04394 0
M  V30 3099 H 294.334 -2.30816 3.11131 0
M  V30 3100 H 294.748 -1.29901 5.08159 0
M  V30 3101 H 296.222 -2.95676 4.66133 0
M  V30 3102 H 296.699 -3.22098 2.98579 0
M  V30 3103 H 297.305 -1.79331 3.85643 0
M  V30 3104 N 295.62 -1.53406 -0.361157 0
M  V30 3105 C 296.567 -1.80156 -1.44265 0
M  V30 3106 C 297.537 -0.646183 -1.53015 0
M  V30 3107 O 298.722 -0.888818 -1.68833 0
M  V30 3108 C 295.862 -2.00116 -2.81154 0
M  V30 3109 C 294.975 -3.27833 -2.81335 0
M  V30 3110 C 294.11 -3.37957 -4.09828 0
M  V30 3111 C 293.149 -4.59689 -4.04168 0
M  V30 3112 N 292.286 -4.66942 -5.24318 0
M  V30 3113 H 297.126 -2.72438 -1.20754 0
M  V30 3114 H 294.663 -1.34954 -0.585296 0
M  V30 3115 H 296.621 -2.09677 -3.60682 0
M  V30 3116 H 295.251 -1.11167 -3.03054 0
M  V30 3117 H 294.303 -3.27204 -1.94014 0
M  V30 3118 H 295.615 -4.17442 -2.73027 0
M  V30 3119 H 294.769 -3.46853 -4.97773 0
M  V30 3120 H 293.508 -2.46372 -4.20894 0
M  V30 3121 H 292.513 -4.50889 -3.14609 0
M  V30 3122 H 293.738 -5.5262 -3.947 0
M  V30 3123 H 291.684 -3.7826 -5.35962 0
M  V30 3124 H 291.601 -5.50462 -5.18197 0
M  V30 3125 H 292.869 -4.80127 -6.14084 0
M  V30 3126 N 297.098 0.621204 -1.44841 0
M  V30 3127 C 298.03 1.74615 -1.48466 0
M  V30 3128 C 299.043 1.58377 -0.37691 0
M  V30 3129 O 300.232 1.66508 -0.643215 0
M  V30 3130 C 297.332 3.12459 -1.31236 0
M  V30 3131 C 296.505 3.55064 -2.55438 0
M  V30 3132 C 295.564 4.71821 -2.32963 0
M  V30 3133 O 294.59 4.79628 -3.06505 0
M  V30 3134 N 295.792 5.64186 -1.36654 0
M  V30 3135 H 298.557 1.71973 -2.45449 0
M  V30 3136 H 296.118 0.806077 -1.40407 0
M  V30 3137 H 298.11 3.88302 -1.14032 0
M  V30 3138 H 296.68 3.09686 -0.4258 0
M  V30 3139 H 295.9 2.69324 -2.87851 0
M  V30 3140 H 297.188 3.80284 -3.38026 0
M  V30 3141 H 296.586 5.6058 -0.759344 0
M  V30 3142 H 295.143 6.39618 -1.25425 0
M  V30 3143 N 298.576 1.31904 0.862503 0
M  V30 3144 C 299.987 1.19803 1.43193 0
M  V30 3145 C 300.338 -0.192567 1.95253 0
M  V30 3146 O 299.463 -1.09081 1.86896 0
M  V30 3147 C 300.058 2.16883 2.60283 0
M  V30 3148 C 298.617 2.08692 3.13248 0
M  V30 3149 C 297.764 2.05691 1.85975 0
M  V30 3150 H 300.715 1.43846 0.670365 0
M  V30 3151 H 300.736 1.76278 3.37204 0
M  V30 3152 H 300.248 3.18083 2.22363 0
M  V30 3153 H 298.349 1.10713 3.55771 0
M  V30 3154 H 298.462 2.9815 3.75025 0
M  V30 3155 H 296.826 1.50814 2.05249 0
M  V30 3156 H 297.609 3.08659 1.50282 0
M  V30 3157 N 300.054 -1.07777 1.14986 0
M  V30 3158 C 300.964 -2.18404 0.856546 0
M  V30 3159 C 301.98 -1.73211 -0.165485 0
M  V30 3160 O 303.156 -2.01399 0.00755219 0
M  V30 3161 C 300.221 -3.44977 0.34526 0
M  V30 3162 C 299.282 -4.0476 1.43065 0
M  V30 3163 C 298.515 -5.25291 0.943663 0
M  V30 3164 O 298.738 -5.70004 -0.212426 0
M  V30 3165 O 297.672 -5.76638 1.72547 0
M  V30 3166 H 301.498 -2.45978 1.78125 0
M  V30 3167 H 299.083 -1.17033 0.928631 0
M  V30 3168 H 300.965 -4.21348 0.0663671 0
M  V30 3169 H 299.64 -3.18965 -0.551631 0
M  V30 3170 H 298.547 -3.29949 1.76309 0
M  V30 3171 H 299.88 -4.35035 2.30229 0
M  V30 3172 N 301.532 -0.945985 -1.26051 0
M  V30 3173 C 302.757 -0.612525 -1.98149 0
M  V30 3174 C 303.182 0.806623 -1.69927 0
M  V30 3175 O 302.54 1.54411 -0.950108 0
M  V30 3176 C 302.588 -0.866981 -3.50023 0
M  V30 3177 O 301.692 0.0585333 -4.12358 0
M  V30 3178 H 301.033 -0.23379 -0.621481 0
M  V30 3179 H 303.563 -1.27023 -1.60395 0
M  V30 3180 H 303.573 -0.789792 -4.00283 0
M  V30 3181 H 302.248 -1.90135 -3.69894 0
M  V30 3182 H 300.825 -0.0701241 -3.72834 0
M  V30 3183 N 303.011 1.40521 -0.713556 0
M  V30 3184 C 303.944 2.28198 -0.00881422 0
M  V30 3185 C 304.922 1.43227 0.769735 0
M  V30 3186 O 306.106 1.72641 0.756799 0
M  V30 3187 C 303.233 3.23758 0.994899 0
M  V30 3188 C 302.279 4.25391 0.3074 0
M  V30 3189 S 303.112 5.26765 -0.963247 0
M  V30 3190 C 304.268 6.25888 0.0384143 0
M  V30 3191 H 304.501 2.87622 -0.752407 0
M  V30 3192 H 302.034 1.45925 -0.504502 0
M  V30 3193 H 303.992 3.79341 1.56879 0
M  V30 3194 H 302.653 2.63396 1.71118 0
M  V30 3195 H 301.846 4.92596 1.0661 0
M  V30 3196 H 301.448 3.73497 -0.193879 0
M  V30 3197 H 303.74 6.71683 0.885912 0
M  V30 3198 H 304.683 7.05552 -0.60019 0
M  V30 3199 H 305.091 5.63072 0.401233 0
M  V30 3200 N 304.489 0.459591 1.5075 0
M  V30 3201 C 305.437 -0.354678 2.2988 0
M  V30 3202 C 306.431 -1.00086 1.36672 0
M  V30 3203 O 307.637 -0.933277 1.53915 0
M  V30 3204 H 304.012 -0.13321 0.740107 0
M  V30 3205 H 305.983 0.333269 2.96533 0
M  V30 3206 C 304.732 -1.43073 3.169 0
M  V30 3207 H 304.055 -0.942882 3.88523 0
M  V30 3208 H 305.495 -1.97328 3.75284 0
M  V30 3209 C 303.954 -2.42633 2.33732 0
M  V30 3210 O 304.484 -3.47658 2.01238 0
M  V30 3211 N 302.69 -2.14066 1.9653 0
M  V30 3212 H 302.237 -1.28685 2.23155 0
M  V30 3213 H 302.195 -2.80917 1.41185 0
M  V30 3214 N 305.967 -1.56429 0.191757 0
M  V30 3215 C 307.213 -1.97777 -0.448554 0
M  V30 3216 C 307.546 -1.07847 -1.61501 0
M  V30 3217 O 306.821 -0.129774 -1.94067 0
M  V30 3218 C 307.104 -3.48362 -0.911906 0
M  V30 3219 C 306.957 -4.4907 0.256136 0
M  V30 3220 C 308.276 -4.02561 -1.77857 0
M  V30 3221 H 305.395 -0.719071 -0.161572 0
M  V30 3222 H 308.037 -1.87896 0.282007 0
M  V30 3223 H 306.187 -3.56914 -1.53442 0
M  V30 3224 H 307.859 -4.5256 0.893733 0
M  V30 3225 H 306.102 -4.24181 0.908436 0
M  V30 3226 H 306.773 -5.51889 -0.11053 0
M  V30 3227 H 309.249 -3.96767 -1.25359 0
M  V30 3228 H 308.125 -5.08301 -2.07174 0
M  V30 3229 H 308.386 -3.47616 -2.73158 0
M  V30 3230 N 307.445 0.0818655 -1.57387 0
M  V30 3231 C 308.673 0.796108 -1.9097 0
M  V30 3232 C 309.088 1.71626 -0.786757 0
M  V30 3233 O 308.445 1.80908 0.240513 0
M  V30 3234 C 308.496 1.59829 -3.24248 0
M  V30 3235 O 308.217 0.715131 -4.32224 0
M  V30 3236 C 309.718 2.41442 -3.7178 0
M  V30 3237 H 306.938 0.22691 -0.631469 0
M  V30 3238 H 309.482 0.0551439 -2.04426 0
M  V30 3239 H 307.637 2.29163 -3.12351 0
M  V30 3240 H 308.051 1.27205 -5.08841 0
M  V30 3241 H 309.525 2.932 -4.67694 0
M  V30 3242 H 310.002 3.2051 -3.00283 0
M  V30 3243 H 310.608 1.77283 -3.86589 0
M  V30 3244 N 308.923 1.53595 0.353017 0
M  V30 3245 C 310.339 1.43648 0.695516 0
M  V30 3246 C 310.539 0.585617 1.92802 0
M  V30 3247 O 309.595 0.0729223 2.52395 0
M  V30 3248 C 310.908 2.8701 0.896991 0
M  V30 3249 C 312.456 2.96723 0.996209 0
M  V30 3250 C 312.931 4.41173 1.23007 0
M  V30 3251 N 314.422 4.44657 1.29749 0
M  V30 3252 C 315.157 5.53547 1.49577 0
M  V30 3253 N 314.653 6.72461 1.66639 0
M  V30 3254 N 316.446 5.41145 1.52048 0
M  V30 3255 H 308.597 2.07415 -0.457481 0
M  V30 3256 H 310.86 0.9372 -0.142687 0
M  V30 3257 H 310.566 3.51644 0.0629938 0
M  V30 3258 H 310.44 3.31401 1.80148 0
M  V30 3259 H 312.827 2.32235 1.82074 0
M  V30 3260 H 312.908 2.55707 0.0688331 0
M  V30 3261 H 312.552 5.06238 0.410505 0
M  V30 3262 H 312.482 4.79772 2.17086 0
M  V30 3263 H 314.973 3.58963 1.18126 0
M  V30 3264 H 315.286 7.51214 1.81378 0
M  V30 3265 H 313.631 6.75423 1.63794 0
M  V30 3266 H 316.822 4.47205 1.38294 0
M  V30 3267 H 316.995 6.26068 1.67159 0
M  V30 3268 N 310.401 -0.613514 1.45168 0
M  V30 3269 C 311.349 -1.74572 1.53712 0
M  V30 3270 C 312.343 -1.64426 0.407505 0
M  V30 3271 O 313.549 -1.70291 0.583176 0
M  V30 3272 H 309.924 -0.576641 0.48269 0
M  V30 3273 H 311.895 -1.64492 2.48968 0
M  V30 3274 C 310.644 -3.12943 1.51532 0
M  V30 3275 H 309.967 -3.21407 2.37776 0
M  V30 3276 H 311.407 -3.9201 1.61569 0
M  V30 3277 C 309.866 -3.36053 0.238798 0
M  V30 3278 O 310.396 -3.95837 -0.6838 0
M  V30 3279 N 308.602 -2.9028 0.136359 0
M  V30 3280 H 308.149 -2.41811 0.887999 0
M  V30 3281 H 308.107 -3.06116 -0.716944 0
M  V30 3282 N 311.879 -1.3236 -0.855495 0
M  V30 3283 C 313.107 -1.2587 -1.64208 0
M  V30 3284 C 313.522 0.173457 -1.88002 0
M  V30 3285 O 312.879 1.11027 -1.44842 0
M  V30 3286 C 312.93 -2.01424 -3.00184 0
M  V30 3287 O 312.651 -3.39051 -2.77445 0
M  V30 3288 C 314.152 -2.01948 -3.94629 0
M  V30 3289 H 311.372 -0.434318 -0.511477 0
M  V30 3290 H 313.916 -1.74469 -1.0668 0
M  V30 3291 H 312.071 -1.56549 -3.5436 0
M  V30 3292 H 312.485 -3.77711 -3.63916 0
M  V30 3293 H 313.959 -2.59297 -4.87308 0
M  V30 3294 H 314.436 -1.00554 -4.27534 0
M  V30 3295 H 315.042 -2.46767 -3.4639 0
M  V30 3296 N 313.357 1.07166 -1.15556 0
M  V30 3297 C 314.32 2.12589 -0.856644 0
M  V30 3298 C 315.32 1.6015 0.14444 0
M  V30 3299 O 316.51 1.7399 -0.0854163 0
M  V30 3300 C 313.642 3.39753 -0.279405 0
M  V30 3301 H 314.835 2.40539 -1.79112 0
M  V30 3302 H 312.388 1.23086 -0.963298 0
M  V30 3303 H 313.123 3.17447 0.663174 0
M  V30 3304 H 312.908 3.79117 -1.00063 0
M  V30 3305 H 314.398 4.17507 -0.0879113 0
M  V30 3306 N 314.835 0.952656 1.25548 0
M  V30 3307 C 316.082 0.606373 1.93208 0
M  V30 3308 C 316.41 -0.85631 1.74636 0
M  V30 3309 O 315.665 -1.62951 1.08376 0
M  V30 3310 C 315.964 0.908818 3.45652 0
M  V30 3311 C 315.63 2.35722 3.84378 0
M  V30 3312 C 314.292 2.75312 3.9466 0
M  V30 3313 C 316.644 3.29793 4.03591 0
M  V30 3314 C 313.972 4.08047 4.21562 0
M  V30 3315 C 316.324 4.62138 4.31985 0
M  V30 3316 C 314.988 5.01528 4.40484 0
M  V30 3317 H 314.258 0.221888 0.706998 0
M  V30 3318 H 316.905 1.20132 1.49133 0
M  V30 3319 H 315.21 0.231456 3.91116 0
M  V30 3320 H 316.907 0.619498 3.96186 0
M  V30 3321 H 313.497 2.04017 3.76928 0
M  V30 3322 H 317.681 3.00397 3.95064 0
M  V30 3323 H 312.937 4.38212 4.26357 0
M  V30 3324 H 317.111 5.35012 4.45797 0
M  V30 3325 H 314.738 6.04406 4.61083 0
M  V30 3326 N 316.313 -1.40141 0.720998 0
M  V30 3327 C 317.261 -2.3252 0.0608547 0
M  V30 3328 C 318.255 -1.52326 -0.741152 0
M  V30 3329 O 319.461 -1.68089 -0.643911 0
M  V30 3330 H 315.836 -0.751999 0.000876664 0
M  V30 3331 H 317.807 -2.8584 0.856614 0
M  V30 3332 C 316.556 -3.37331 -0.842809 0
M  V30 3333 H 315.879 -3.99108 -0.235084 0
M  V30 3334 H 317.319 -4.04452 -1.27257 0
M  V30 3335 C 315.778 -2.73246 -1.97074 0
M  V30 3336 O 316.308 -2.59998 -3.06209 0
M  V30 3337 N 314.514 -2.31547 -1.75597 0
M  V30 3338 H 314.061 -2.42522 -0.868368 0
M  V30 3339 H 314.019 -1.89007 -2.51244 0
M  V30 3340 N 317.792 -0.46758 -1.50504 0
M  V30 3341 C 318.722 0.318381 -2.31319 0
M  V30 3342 C 319.703 0.993564 -1.38066 0
M  V30 3343 O 320.888 0.991411 -1.66987 0
M  V30 3344 C 318.018 1.40275 -3.17711 0
M  V30 3345 C 316.972 0.849373 -4.19487 0
M  V30 3346 C 316.298 2.03177 -4.94594 0
M  V30 3347 C 317.598 -0.136942 -5.2212 0
M  V30 3348 H 319.292 -0.356106 -2.97275 0
M  V30 3349 H 316.838 -0.172703 -1.42961 0
M  V30 3350 H 318.791 1.96004 -3.73042 0
M  V30 3351 H 317.515 2.10596 -2.49634 0
M  V30 3352 H 316.174 0.314076 -3.65252 0
M  V30 3353 H 315.822 2.72187 -4.22993 0
M  V30 3354 H 315.522 1.66774 -5.63436 0
M  V30 3355 H 317.046 2.59403 -5.52759 0
M  V30 3356 H 318.46 0.331056 -5.72343 0
M  V30 3357 H 316.857 -0.41507 -5.98663 0
M  V30 3358 H 317.927 -1.06398 -4.73083 0
M  V30 3359 N 319.27 1.56325 -0.20005 0
M  V30 3360 C 320.498 2.02105 0.442874 0
M  V30 3361 C 320.913 1.08014 1.5485 0
M  V30 3362 O 320.27 0.0858797 1.82298 0
M  V30 3363 C 320.321 3.47549 0.994583 0
M  V30 3364 O 320.042 4.38049 -0.0669322 0
M  V30 3365 C 321.543 4.0887 1.7129 0
M  V30 3366 H 318.763 0.661807 0.110691 0
M  V30 3367 H 321.307 2.02134 -0.310207 0
M  V30 3368 H 319.462 3.48204 1.69803 0
M  V30 3369 H 319.876 5.23368 0.344462 0
M  V30 3370 H 321.35 5.12475 2.05118 0
M  V30 3371 H 321.827 3.52615 2.61838 0
M  V30 3372 H 322.433 4.12002 1.05518 0
M  V30 3373 N 320.748 -0.0735177 1.57428 0
M  V30 3374 C 321.988 -0.778363 1.89 0
M  V30 3375 C 322.352 -1.7483 0.793634 0
M  V30 3376 O 323.553 -2.49811 0.992367 0
M  V30 3377 C 321.824 -1.46929 3.25802 0
M  V30 3378 S 323.383 -2.20943 3.79117 0
M  V30 3379 H 320.201 -0.258874 0.662197 0
M  V30 3380 H 322.803 -0.0345338 1.95469 0
M  V30 3381 H 321.507 -0.749532 4.03497 0
M  V30 3382 H 321.038 -2.25258 3.22525 0
M  V30 3383 H 323.053 -3.47435 3.54265 0
M  V30 3384 N 322.226 -1.5378 -0.344866 0
M  V30 3385 C 323.158 -1.77988 -1.44406 0
M  V30 3386 C 324.171 -0.661138 -1.48771 0
M  V30 3387 O 325.36 -0.937842 -1.51877 0
M  V30 3388 C 322.46 -1.86345 -2.8307 0
M  V30 3389 C 321.633 -3.16256 -3.0216 0
M  V30 3390 C 320.692 -3.15588 -4.21059 0
M  V30 3391 O 319.718 -3.89314 -4.15239 0
M  V30 3392 N 320.92 -2.37864 -5.29529 0
M  V30 3393 H 323.685 -2.72839 -1.24012 0
M  V30 3394 H 321.246 -1.52814 -0.534737 0
M  V30 3395 H 323.238 -1.83351 -3.60783 0
M  V30 3396 H 321.808 -0.986858 -2.96614 0
M  V30 3397 H 321.028 -3.32385 -2.11929 0
M  V30 3398 H 322.316 -4.0207 -3.11797 0
M  V30 3399 H 321.714 -1.77514 -5.37127 0
M  V30 3400 H 320.271 -2.40668 -6.05741 0
M  V30 3401 N 323.704 0.605807 -1.45491 0
M  V30 3402 C 324.667 1.69836 -1.5391 0
M  V30 3403 C 325.667 1.55261 -0.418424 0
M  V30 3404 O 326.857 1.60296 -0.681965 0
M  V30 3405 C 323.989 3.09117 -1.43734 0
M  V30 3406 H 325.182 1.63738 -2.51257 0
M  V30 3407 H 322.735 0.821689 -1.32959 0
M  V30 3408 H 323.47 3.20791 -0.475788 0
M  V30 3409 H 323.255 3.21104 -2.25021 0
M  V30 3410 H 324.745 3.88696 -1.52661 0
M  V30 3411 N 325.182 1.32811 0.848464 0
M  V30 3412 C 326.428 1.23907 1.60546 0
M  V30 3413 C 326.761 -0.197161 1.93197 0
M  V30 3414 O 326.036 -1.13596 1.5788 0
M  V30 3415 C 326.319 2.10489 2.92175 0
M  V30 3416 C 326.172 3.62522 2.66266 0
M  V30 3417 C 327.491 1.97075 3.93509 0
M  V30 3418 H 324.61 0.451459 0.58254 0
M  V30 3419 H 327.252 1.62818 0.979296 0
M  V30 3420 H 325.402 1.77434 3.45614 0
M  V30 3421 H 327.074 4.05821 2.19334 0
M  V30 3422 H 325.317 3.84879 2.00126 0
M  V30 3423 H 325.988 4.18437 3.6002 0
M  V30 3424 H 328.464 2.26045 3.49346 0
M  V30 3425 H 327.34 2.59923 4.83457 0
M  V30 3426 H 327.601 0.940186 4.31987 0
M  V30 3427 N 326.66 -1.06551 1.16123 0
M  V30 3428 C 327.908 -1.78947 0.939267 0
M  V30 3429 C 328.229 -1.87532 -0.534476 0
M  V30 3430 O 327.499 -1.38211 -1.38833 0
M  V30 3431 H 326.079 -0.662807 0.344523 0
M  V30 3432 H 328.741 -1.28725 1.46342 0
M  V30 3433 H 327.837 -2.81117 1.35572 0
M  V30 3434 N 328.138 -0.959301 -1.25041 0
M  V30 3435 C 329.549 -0.65667 -1.74771 0
M  V30 3436 C 329.9 0.827852 -1.77879 0
M  V30 3437 O 329.025 1.64783 -1.40269 0
M  V30 3438 C 329.62 -1.1853 -3.1739 0
M  V30 3439 C 328.179 -0.932734 -3.6466 0
M  V30 3440 C 327.326 -1.32558 -2.43564 0
M  V30 3441 H 330.277 -1.13558 -1.10862 0
M  V30 3442 H 330.298 -0.547582 -3.76539 0
M  V30 3443 H 329.81 -2.26576 -3.15095 0
M  V30 3444 H 327.911 0.13257 -3.72364 0
M  V30 3445 H 328.024 -1.57248 -4.52559 0
M  V30 3446 H 326.388 -0.743956 -2.43593 0
M  V30 3447 H 327.171 -2.41537 -2.43957 0
M  V30 3448 N 329.616 1.39756 -0.72842 0
M  V30 3449 C 331.027 1.83498 -0.344289 0
M  V30 3450 C 331.378 1.60868 1.12321 0
M  V30 3451 O 330.503 1.09634 1.86573 0
M  V30 3452 C 331.098 3.33114 -0.618112 0
M  V30 3453 C 329.657 3.753 -0.287549 0
M  V30 3454 C 328.804 2.62831 -0.884048 0
M  V30 3455 H 331.755 1.28842 -0.926578 0
M  V30 3456 H 331.776 3.80334 0.112349 0
M  V30 3457 H 331.288 3.49553 -1.68625 0
M  V30 3458 H 329.389 3.64451 0.775012 0
M  V30 3459 H 329.502 4.72945 -0.765512 0
M  V30 3460 H 327.866 2.52792 -0.311149 0
M  V30 3461 H 328.649 2.82078 -1.95671 0
M  V30 3462 N 331.094 0.475555 1.50254 0
M  V30 3463 C 332.004 -0.321501 2.32387 0
M  V30 3464 C 333.02 -0.991755 1.42969 0
M  V30 3465 O 334.196 -0.978747 1.76018 0
M  V30 3466 C 331.261 -1.38667 3.17762 0
M  V30 3467 C 330.322 -0.732538 4.23004 0
M  V30 3468 C 329.555 -1.74695 5.04299 0
M  V30 3469 O 329.778 -2.97399 4.86734 0
M  V30 3470 O 328.712 -1.31631 5.8733 0
M  V30 3471 H 332.538 0.350071 3.01676 0
M  V30 3472 H 330.123 0.237321 1.47503 0
M  V30 3473 H 332.005 -2.00354 3.70724 0
M  V30 3474 H 330.68 -2.04163 2.51196 0
M  V30 3475 H 329.587 -0.0765902 3.74022 0
M  V30 3476 H 330.92 -0.120452 4.92053 0
M  V30 3477 N 332.573 -1.56217 0.208337 0
M  V30 3478 C 333.984 -1.84243 -0.301904 0
M  V30 3479 C 334.335 -1.12939 -1.60434 0
M  V30 3480 O 333.46 -0.39461 -2.12772 0
M  V30 3481 C 334.055 -3.34231 -0.554543 0
M  V30 3482 C 332.614 -3.62621 -1.00912 0
M  V30 3483 C 331.761 -2.77224 -0.064933 0
M  V30 3484 H 334.712 -1.52712 0.431833 0
M  V30 3485 H 334.733 -3.5372 -1.40223 0
M  V30 3486 H 334.245 -3.86099 0.393561 0
M  V30 3487 H 332.346 -3.16197 -1.97104 0
M  V30 3488 H 332.459 -4.7071 -0.892674 0
M  V30 3489 H 330.823 -2.48256 -0.56929 0
M  V30 3490 H 331.606 -3.31887 0.877851 0
M  V30 3491 N 334.051 0.0651679 -1.57465 0
M  V30 3492 C 335.297 0.764193 -1.87851 0
M  V30 3493 C 335.63 1.76889 -0.801495 0
M  V30 3494 O 334.905 1.93594 0.187528 0
M  V30 3495 C 335.188 1.46625 -3.28897 0
M  V30 3496 C 335.041 0.477515 -4.47258 0
M  V30 3497 C 336.36 2.4095 -3.68281 0
M  V30 3498 H 333.479 0.276351 -0.683227 0
M  V30 3499 H 336.121 0.0272868 -1.8998 0
M  V30 3500 H 334.271 2.09438 -3.27212 0
M  V30 3501 H 335.943 -0.145922 -4.61069 0
M  V30 3502 H 334.186 -0.206576 -4.33308 0
M  V30 3503 H 334.857 1.0065 -5.42746 0
M  V30 3504 H 337.333 1.88209 -3.71102 0
M  V30 3505 H 336.209 2.87072 -4.67847 0
M  V30 3506 H 336.47 3.26049 -2.98571 0
M  V30 3507 N 335.529 1.53961 0.336706 0
M  V30 3508 C 336.477 1.83136 1.43401 0
M  V30 3509 C 337.471 0.702313 1.54156 0
M  V30 3510 O 338.677 0.885765 1.56698 0
M  V30 3511 H 335.052 0.580309 0.478273 0
M  V30 3512 H 337.023 2.74925 1.16012 0
M  V30 3513 C 335.772 2.06385 2.79822 0
M  V30 3514 H 335.095 2.92718 2.72316 0
M  V30 3515 H 336.535 2.30761 3.55704 0
M  V30 3516 C 334.994 0.851414 3.25964 0
M  V30 3517 O 335.524 0.0541904 4.01663 0
M  V30 3518 N 333.73 0.66672 2.82848 0
M  V30 3519 H 333.277 1.31665 2.21409 0
M  V30 3520 H 333.235 -0.143032 3.14074 0
M  V30 3521 N 337.007 -0.598083 1.45811 0
M  V30 3522 C 338.256 -1.35295 1.49594 0
M  V30 3523 C 338.569 -1.95057 0.145679 0
M  V30 3524 O 339.775 -2.71431 0.0612099 0
M  V30 3525 C 338.231 -2.45124 2.63519 0
M  V30 3526 C 337.839 -1.91732 4.04899 0
M  V30 3527 C 339.583 -3.2205 2.76558 0
M  V30 3528 C 337.49 -2.991 5.1019 0
M  V30 3529 H 336.42 -0.508552 0.556679 0
M  V30 3530 H 339.071 -0.639977 1.71978 0
M  V30 3531 H 337.453 -3.19149 2.34435 0
M  V30 3532 H 338.627 -1.24352 4.43704 0
M  V30 3533 H 336.942 -1.27522 3.96393 0
M  V30 3534 H 339.539 -4.0215 3.52391 0
M  V30 3535 H 339.882 -3.73663 1.83526 0
M  V30 3536 H 340.415 -2.55127 3.05213 0
M  V30 3537 H 337.154 -2.52393 6.04961 0
M  V30 3538 H 336.674 -3.65017 4.75944 0
M  V30 3539 H 338.353 -3.63318 5.35359 0
M  V30 3540 N 338.485 -1.33259 -0.841409 0
M  V30 3541 C 339.732 -1.24572 -1.5965 0
M  V30 3542 C 340.06 0.189137 -1.93578 0
M  V30 3543 O 339.315 1.14566 -1.5866 0
M  V30 3544 C 339.614 -2.06381 -2.9179 0
M  V30 3545 C 339.28 -3.556 -2.77235 0
M  V30 3546 C 337.942 -3.96282 -2.72973 0
M  V30 3547 C 340.294 -4.50433 -2.62221 0
M  V30 3548 C 337.622 -5.30017 -2.51592 0
M  V30 3549 C 339.974 -5.84327 -2.42374 0
M  V30 3550 C 338.638 -6.24194 -2.36512 0
M  V30 3551 H 337.908 -0.455842 -0.5842 0
M  V30 3552 H 340.555 -1.6482 -0.975016 0
M  V30 3553 H 338.86 -1.58903 -3.5813 0
M  V30 3554 H 340.557 -1.97019 -3.49263 0
M  V30 3555 H 337.147 -3.23298 -2.81384 0
M  V30 3556 H 341.331 -4.19914 -2.64549 0
M  V30 3557 H 336.587 -5.59947 -2.45499 0
M  V30 3558 H 340.761 -6.57414 -2.29739 0
M  V30 3559 H 338.388 -7.27759 -2.19706 0
M  V30 3560 N 339.963 1.05934 -1.16686 0
M  V30 3561 C 341.209 1.79211 -0.962023 0
M  V30 3562 C 341.564 1.85667 0.504545 0
M  V30 3563 O 340.857 1.33991 1.36956 0
M  V30 3564 C 341.051 3.23105 -1.52767 0
M  V30 3565 C 340.88 3.30673 -3.04771 0
M  V30 3566 C 339.65 3.40395 -3.73442 0
M  V30 3567 C 341.848 3.20234 -4.02436 0
M  V30 3568 N 339.83 3.37015 -5.13122 0
M  V30 3569 C 341.201 3.24138 -5.28521 0
M  V30 3570 C 343.256 3.04143 -3.9421 0
M  V30 3571 C 341.959 3.13607 -6.47336 0
M  V30 3572 C 343.985 2.94951 -5.12599 0
M  V30 3573 C 343.347 2.99481 -6.37566 0
M  V30 3574 H 339.446 0.668442 -0.405844 0
M  V30 3575 H 342.03 1.26341 -1.48142 0
M  V30 3576 H 340.201 3.74364 -1.03471 0
M  V30 3577 H 341.933 3.84579 -1.26021 0
M  V30 3578 H 338.688 3.45344 -3.2409 0
M  V30 3579 H 339.112 3.38815 -5.86117 0
M  V30 3580 H 343.754 2.99484 -2.98445 0
M  V30 3581 H 341.472 3.17022 -7.43319 0
M  V30 3582 H 345.058 2.83583 -5.08008 0
M  V30 3583 H 343.938 2.92431 -7.27636 0
M  V30 3584 N 341.441 0.965919 1.2453 0
M  V30 3585 C 342.687 0.62776 1.92839 0
M  V30 3586 C 343.02 -0.834694 1.75347 0
M  V30 3587 O 342.295 -1.60031 1.10546 0
M  V30 3588 C 342.578 1.00109 3.45905 0
M  V30 3589 C 342.431 2.52011 3.72573 0
M  V30 3590 C 343.75 0.53435 4.36844 0
M  V30 3591 H 340.869 0.229537 0.700344 0
M  V30 3592 H 343.511 1.2046 1.46933 0
M  V30 3593 H 341.661 0.510238 3.85135 0
M  V30 3594 H 343.333 3.08559 3.42912 0
M  V30 3595 H 341.576 2.95287 3.17786 0
M  V30 3596 H 342.247 2.73183 4.79661 0
M  V30 3597 H 344.723 0.955565 4.04979 0
M  V30 3598 H 343.599 0.824152 5.42678 0
M  V30 3599 H 343.86 -0.565589 4.38467 0
M  V30 3600 N 342.919 -1.39368 0.735821 0
M  V30 3601 C 343.851 -2.2913 0.0567723 0
M  V30 3602 C 344.864 -1.46859 -0.702589 0
M  V30 3603 O 346.053 -1.69925 -0.546616 0
M  V30 3604 C 343.153 -3.25492 -0.943823 0
M  V30 3605 C 342.326 -4.36709 -0.24581 0
M  V30 3606 C 341.385 -5.13376 -1.15463 0
M  V30 3607 O 340.411 -5.65683 -0.631803 0
M  V30 3608 N 341.613 -5.24656 -2.48427 0
M  V30 3609 H 344.378 -2.88047 0.827582 0
M  V30 3610 H 341.939 -1.50957 0.585112 0
M  V30 3611 H 343.931 -3.73657 -1.55443 0
M  V30 3612 H 342.501 -2.676 -1.61583 0
M  V30 3613 H 341.721 -3.9041 0.545286 0
M  V30 3614 H 343.009 -5.08244 0.237891 0
M  V30 3615 H 342.407 -4.83679 -2.93379 0
M  V30 3616 H 340.964 -5.76258 -3.04582 0
M  V30 3617 N 344.397 -0.483516 -1.5 0
M  V30 3618 C 345.345 0.318061 -2.30415 0
M  V30 3619 C 346.339 0.978988 -1.38247 0
M  V30 3620 O 347.545 0.908673 -1.55381 0
M  V30 3621 H 343.92 0.121419 -0.742133 0
M  V30 3622 H 345.891 -0.380403 -2.95965 0
M  V30 3623 C 344.64 1.38013 -3.19136 0
M  V30 3624 H 343.963 0.880952 -3.89973 0
M  V30 3625 H 345.403 1.91332 -3.78375 0
M  V30 3626 C 343.862 2.38884 -2.37563 0
M  V30 3627 O 344.392 3.44412 -2.06744 0
M  V30 3628 N 342.598 2.10912 -1.99911 0
M  V30 3629 H 342.145 1.25118 -2.25174 0
M  V30 3630 H 342.103 2.78635 -1.45636 0
M  V30 3631 N 345.875 1.56104 -0.216619 0
M  V30 3632 C 347.1 2.0301 0.424462 0
M  V30 3633 C 347.525 1.0955 1.52907 0
M  V30 3634 O 346.883 0.0827914 1.81111 0
M  V30 3635 C 346.931 3.4819 0.937883 0
M  V30 3636 O 346.035 3.57865 2.04955 0
M  V30 3637 H 345.376 0.656925 0.0966755 0
M  V30 3638 H 347.906 2.01859 -0.33381 0
M  V30 3639 H 347.916 3.88413 1.24897 0
M  V30 3640 H 346.591 4.15699 0.129387 0
M  V30 3641 H 345.168 3.29527 1.74546 0
M  V30 3642 N 347.353 -0.0568162 1.57498 0
M  V30 3643 C 348.578 -0.769402 1.92601 0
M  V30 3644 C 349.003 -1.69559 0.814336 0
M  V30 3645 O 348.361 -1.79811 -0.231903 0
M  V30 3646 C 348.409 -1.52634 3.26704 0
M  V30 3647 O 347.513 -2.63797 3.16994 0
M  V30 3648 H 346.854 -0.208909 0.63028 0
M  V30 3649 H 349.384 -0.0205798 2.0459 0
M  V30 3650 H 349.394 -1.90234 3.60936 0
M  V30 3651 H 348.069 -0.846875 4.07186 0
M  V30 3652 H 346.646 -2.28943 2.94346 0
M  V30 3653 N 348.832 -1.54138 -0.328536 0
M  V30 3654 C 350.248 -1.44736 -0.672574 0
M  V30 3655 C 350.448 -0.616217 -1.91846 0
M  V30 3656 O 349.504 -0.113067 -2.52247 0
M  V30 3657 C 350.817 -2.884 -0.851217 0
M  V30 3658 C 352.365 -2.98271 -0.948877 0
M  V30 3659 C 352.84 -4.43074 -1.15973 0
M  V30 3660 N 354.331 -4.46665 -1.22658 0
M  V30 3661 C 355.066 -5.55857 -1.40751 0
M  V30 3662 N 354.562 -6.75026 -1.5592 0
M  V30 3663 N 356.355 -5.43495 -1.4342 0
M  V30 3664 H 348.506 -2.06661 0.490421 0
M  V30 3665 H 350.769 -0.934812 0.157579 0
M  V30 3666 H 350.475 -3.51699 -0.00704236 0
M  V30 3667 H 350.349 -3.34225 -1.74853 0
M  V30 3668 H 352.736 -2.35102 -1.78356 0
M  V30 3669 H 352.817 -2.55785 -0.0281435 0
M  V30 3670 H 352.461 -5.06827 -0.329915 0
M  V30 3671 H 352.391 -4.83165 -2.09426 0
M  V30 3672 H 354.882 -3.60797 -1.124 0
M  V30 3673 H 355.195 -7.54004 -1.69404 0
M  V30 3674 H 353.54 -6.77944 -1.53027 0
M  V30 3675 H 356.731 -4.49349 -1.31162 0
M  V30 3676 H 356.904 -6.28649 -1.57178 0
M  V30 3677 N 350.31 0.590341 -1.46126 0
M  V30 3678 C 351.556 1.35082 -1.51264 0
M  V30 3679 C 351.889 1.93534 -0.160711 0
M  V30 3680 O 351.164 1.76045 0.826956 0
M  V30 3681 C 351.447 2.48588 -2.6053 0
M  V30 3682 C 351.3 1.95221 -4.05227 0
M  V30 3683 C 352.619 3.50662 -2.6594 0
M  V30 3684 H 349.738 0.489803 -0.550692 0
M  V30 3685 H 352.38 0.663887 -1.78024 0
M  V30 3686 H 350.53 3.07186 -2.37843 0
M  V30 3687 H 352.202 1.41139 -4.39178 0
M  V30 3688 H 350.445 1.26101 -4.15068 0
M  V30 3689 H 351.116 2.77121 -4.77397 0
M  V30 3690 H 353.592 3.01934 -2.86313 0
M  V30 3691 H 352.468 4.27551 -3.44226 0
M  V30 3692 H 352.729 4.07399 -1.71694 0
M  V30 3693 N 351.788 1.33704 0.83433 0
M  V30 3694 C 352.736 1.24323 1.96587 0
M  V30 3695 C 353.73 0.143659 1.6879 0
M  V30 3696 O 354.936 0.30791 1.77347 0
M  V30 3697 H 351.311 0.385925 0.645419 0
M  V30 3698 H 353.282 2.19978 2.01624 0
M  V30 3699 C 352.031 1.00394 3.32891 0
M  V30 3700 H 351.354 1.84231 3.54822 0
M  V30 3701 H 352.794 0.97862 4.12552 0
M  V30 3702 C 351.253 -0.293047 3.35623 0
M  V30 3703 O 351.783 -1.29823 3.80143 0
M  V30 3704 N 349.989 -0.322174 2.88809 0
M  V30 3705 H 349.536 0.496379 2.52772 0
M  V30 3706 H 349.494 -1.18977 2.91019 0
M  V30 3707 N 353.266 -1.05314 1.17247 0
M  V30 3708 C 354.176 -2.16538 0.90268 0
M  V30 3709 C 355.192 -1.73523 -0.128707 0
M  V30 3710 O 356.368 -2.01337 0.0502701 0
M  V30 3711 C 353.433 -3.44167 0.418356 0
M  V30 3712 C 352.494 -4.01635 1.51618 0
M  V30 3713 C 351.727 -5.23171 1.05487 0
M  V30 3714 O 351.95 -5.70327 -0.0914715 0
M  V30 3715 O 350.884 -5.72848 1.8474 0
M  V30 3716 H 354.71 -2.42145 1.83302 0
M  V30 3717 H 352.295 -1.15037 0.953246 0
M  V30 3718 H 354.177 -4.21112 0.155726 0
M  V30 3719 H 352.852 -3.20063 -0.48385 0
M  V30 3720 H 351.759 -3.26135 1.83268 0
M  V30 3721 H 353.092 -4.30053 2.39405 0
M  V30 3722 N 354.744 -0.972509 -1.24016 0
M  V30 3723 C 355.676 -0.464375 -2.24446 0
M  V30 3724 C 356.689 0.4295 -1.57032 0
M  V30 3725 O 357.878 0.234902 -1.76948 0
M  V30 3726 C 354.978 0.348385 -3.37105 0
M  V30 3727 C 354.151 -0.53673 -4.34094 0
M  V30 3728 C 353.21 0.220838 -5.25736 0
M  V30 3729 O 352.236 -0.386867 -5.67884 0
M  V30 3730 N 353.438 1.50907 -5.60542 0
M  V30 3731 H 356.203 -1.32788 -2.68677 0
M  V30 3732 H 353.764 -0.844877 -1.38107 0
M  V30 3733 H 355.756 0.863341 -3.95384 0
M  V30 3734 H 354.326 1.11285 -2.92121 0
M  V30 3735 H 353.546 -1.23261 -3.74433 0
M  V30 3736 H 354.834 -1.14022 -4.95859 0
M  V30 3737 H 354.232 2.02444 -5.28236 0
M  V30 3738 H 352.789 1.96962 -6.21329 0
M  V30 3739 N 356.222 1.38976 -0.743202 0
M  V30 3740 C 357.633 1.83123 -0.363732 0
M  V30 3741 C 357.984 1.6205 1.10609 0
M  V30 3742 O 357.109 1.11606 1.854 0
M  V30 3743 C 357.704 3.32439 -0.653408 0
M  V30 3744 C 356.263 3.74974 -0.327338 0
M  V30 3745 C 355.41 2.61878 -0.911875 0
M  V30 3746 H 358.361 1.27852 -0.940191 0
M  V30 3747 H 358.382 3.80432 0.0720031 0
M  V30 3748 H 357.894 3.47745 -1.72323 0
M  V30 3749 H 355.995 3.65252 0.736314 0
M  V30 3750 H 356.108 4.72106 -0.815631 0
M  V30 3751 H 354.472 2.52448 -0.337944 0
M  V30 3752 H 355.255 2.79987 -1.98651 0
M  V30 3753 N 357.7 0.491464 1.49741 0
M  V30 3754 C 358.61 -0.296835 2.32715 0
M  V30 3755 C 359.626 -0.976536 1.44013 0
M  V30 3756 O 360.802 -0.960023 1.77047 0
M  V30 3757 C 357.867 -1.35288 3.19215 0
M  V30 3758 C 356.928 -0.687632 4.23757 0
M  V30 3759 C 356.161 -1.69336 5.06123 0
M  V30 3760 O 356.384 -2.92219 4.89861 0
M  V30 3761 O 355.318 -1.25394 5.88693 0
M  V30 3762 H 359.144 0.382048 3.01287 0
M  V30 3763 H 356.729 0.252953 1.47243 0
M  V30 3764 H 358.611 -1.96411 3.72828 0
M  V30 3765 H 357.286 -2.01487 2.53347 0
M  V30 3766 H 356.193 -0.0369159 3.74082 0
M  V30 3767 H 357.526 -0.0682566 4.92153 0
M  V30 3768 N 359.178 -1.55987 0.224894 0
M  V30 3769 C 360.125 -2.20436 -0.68385 0
M  V30 3770 C 361.095 -1.16102 -1.18783 0
M  V30 3771 O 362.28 -1.4447 -1.24632 0
M  V30 3772 C 359.42 -2.89076 -1.88491 0
M  V30 3773 C 358.533 -4.08012 -1.41951 0
M  V30 3774 C 357.668 -4.64426 -2.5784 0
M  V30 3775 C 356.707 -5.75656 -2.08053 0
M  V30 3776 N 355.844 -6.26347 -3.17227 0
M  V30 3777 H 360.684 -2.97727 -0.12754 0
M  V30 3778 H 358.221 -1.47011 -0.0511978 0
M  V30 3779 H 360.179 -3.27059 -2.59014 0
M  V30 3780 H 358.809 -2.14298 -2.41405 0
M  V30 3781 H 357.861 -3.75492 -0.609095 0
M  V30 3782 H 359.173 -4.88375 -1.01447 0
M  V30 3783 H 358.327 -5.04869 -3.3644 0
M  V30 3784 H 357.066 -3.83233 -3.01635 0
M  V30 3785 H 356.071 -5.34712 -1.27916 0
M  V30 3786 H 357.296 -6.58686 -1.65255 0
M  V30 3787 H 355.242 -5.48067 -3.60497 0
M  V30 3788 H 355.159 -7.01843 -2.80986 0
M  V30 3789 H 356.427 -6.71447 -3.95953 0
M  V30 3790 N 360.656 0.0484629 -1.57525 0
M  V30 3791 C 361.881 0.759177 -1.93006 0
M  V30 3792 C 362.306 1.69125 -0.823317 0
M  V30 3793 O 361.664 1.79931 0.222364 0
M  V30 3794 C 361.712 1.50899 -3.27509 0
M  V30 3795 O 360.816 2.62112 -3.18388 0
M  V30 3796 H 360.157 0.205564 -0.631379 0
M  V30 3797 H 362.687 0.00972959 -2.04598 0
M  V30 3798 H 362.697 1.88317 -3.6194 0
M  V30 3799 H 361.372 0.825269 -4.0763 0
M  V30 3800 H 359.949 2.27379 -2.95556 0
M  V30 3801 N 362.134 1.5431 0.320358 0
M  V30 3802 C 363.545 1.63872 0.894594 0
M  V30 3803 C 363.896 0.534847 1.88769 0
M  V30 3804 O 363.021 -0.331732 2.13842 0
M  V30 3805 C 363.616 2.97049 1.62934 0
M  V30 3806 C 362.175 3.08796 2.15226 0
M  V30 3807 C 361.322 2.59456 0.978671 0
M  V30 3808 H 364.273 1.58398 0.0978544 0
M  V30 3809 H 364.294 2.87388 2.49376 0
M  V30 3810 H 363.806 3.7737 0.906302 0
M  V30 3811 H 361.907 2.33156 2.90636 0
M  V30 3812 H 362.02 4.14649 2.40006 0
M  V30 3813 H 360.384 2.1543 1.35875 0
M  V30 3814 H 361.167 3.42237 0.269895 0
M  V30 3815 N 363.613 -0.582584 1.46437 0
M  V30 3816 C 364.838 -1.37168 1.55563 0
M  V30 3817 C 365.263 -1.87061 0.19743 0
M  V30 3818 O 364.621 -1.61572 -0.822451 0
M  V30 3819 C 364.669 -2.53511 2.56446 0
M  V30 3820 O 363.773 -3.54953 2.09958 0
M  V30 3821 H 363.114 -0.408494 0.523477 0
M  V30 3822 H 365.644 -0.706646 1.9201 0
M  V30 3823 H 365.654 -3.00426 2.76058 0
M  V30 3824 H 364.329 -2.16549 3.55076 0
M  V30 3825 H 362.906 -3.14516 2.00334 0
M  V30 3826 N 365.091 -1.34144 -0.827227 0
M  V30 3827 C 366.337 -1.26446 -1.58554 0
M  V30 3828 C 366.67 0.1664 -1.93486 0
M  V30 3829 O 365.945 1.1107 -1.59667 0
M  V30 3830 C 366.228 -2.15111 -2.8879 0
M  V30 3831 C 366.081 -3.66712 -2.60465 0
M  V30 3832 C 367.4 -2.03311 -3.90324 0
M  V30 3833 H 364.519 -0.46067 -0.575284 0
M  V30 3834 H 367.161 -1.64356 -0.953269 0
M  V30 3835 H 365.311 -1.8291 -3.42748 0
M  V30 3836 H 366.983 -4.09259 -2.1285 0
M  V30 3837 H 365.226 -3.88014 -1.93978 0
M  V30 3838 H 365.897 -4.24112 -3.53317 0
M  V30 3839 H 368.373 -2.31574 -3.45706 0
M  V30 3840 H 367.249 -2.67582 -4.79261 0
M  V30 3841 H 367.51 -1.00879 -4.30437 0
M  V30 3842 N 366.569 1.04691 -1.17803 0
M  V30 3843 C 367.499 2.14494 -0.92275 0
M  V30 3844 C 368.48 1.69546 0.137179 0
M  V30 3845 O 369.665 1.94195 -0.0141108 0
M  V30 3846 C 366.795 3.44491 -0.440803 0
M  V30 3847 C 365.749 4.03031 -1.4405 0
M  V30 3848 C 365.075 5.28432 -0.81631 0
M  V30 3849 C 366.375 4.39932 -2.81527 0
M  V30 3850 H 368.069 2.36107 -1.84103 0
M  V30 3851 H 365.615 1.1347 -0.886599 0
M  V30 3852 H 367.568 4.2066 -0.249602 0
M  V30 3853 H 366.292 3.22546 0.513025 0
M  V30 3854 H 364.951 3.28937 -1.61853 0
M  V30 3855 H 364.599 5.02792 0.144511 0
M  V30 3856 H 364.299 5.68559 -1.48371 0
M  V30 3857 H 365.823 6.07284 -0.635496 0
M  V30 3858 H 367.237 5.07113 -2.67412 0
M  V30 3859 H 365.634 4.9109 -3.44892 0
M  V30 3860 H 366.704 3.50045 -3.35554 0
M  V30 3861 N 368.047 0.979072 1.23499 0
M  V30 3862 C 369.275 0.665202 1.95915 0
M  V30 3863 C 369.69 -0.767571 1.72493 0
M  V30 3864 O 369.047 -1.51635 1.01554 0
M  V30 3865 C 369.098 0.944438 3.48945 0
M  V30 3866 O 368.819 2.3209 3.71572 0
M  V30 3867 C 370.32 0.646336 4.38563 0
M  V30 3868 H 367.54 0.247218 0.623798 0
M  V30 3869 H 370.084 1.31009 1.57025 0
M  V30 3870 H 368.239 0.345575 3.85856 0
M  V30 3871 H 368.653 2.40957 4.65876 0
M  V30 3872 H 370.127 0.892091 5.44744 0
M  V30 3873 H 370.604 -0.419575 4.37191 0
M  V30 3874 H 371.21 1.22562 4.07258 0
M  V30 3875 N 369.525 -1.3858 0.750561 0
M  V30 3876 C 370.771 -2.00481 0.305825 0
M  V30 3877 C 371.104 -1.5944 -1.10872 0
M  V30 3878 O 370.379 -0.83052 -1.75877 0
M  V30 3879 C 370.662 -3.5758 0.425287 0
M  V30 3880 C 370.515 -4.08594 1.88072 0
M  V30 3881 C 371.834 -4.39719 -0.183122 0
M  V30 3882 H 368.953 -0.728348 0.112598 0
M  V30 3883 H 371.595 -1.64566 0.949638 0
M  V30 3884 H 369.745 -3.88306 -0.122828 0
M  V30 3885 H 371.417 -3.88523 2.48691 0
M  V30 3886 H 369.66 -3.61574 2.39681 0
M  V30 3887 H 370.331 -5.177 1.91548 0
M  V30 3888 H 372.807 -4.15128 0.284303 0
M  V30 3889 H 371.683 -5.48856 -0.0692757 0
M  V30 3890 H 371.944 -4.23434 -1.27106 0
M  V30 3891 N 371.003 -0.499398 -1.49478 0
M  V30 3892 C 372.414 -0.051215 -1.8663 0
M  V30 3893 C 372.765 1.36238 -1.41186 0
M  V30 3894 O 371.89 2.01502 -0.789051 0
M  V30 3895 C 372.485 -0.0861651 -3.3869 0
M  V30 3896 C 371.044 0.30667 -3.75149 0
M  V30 3897 C 370.191 -0.459397 -2.73468 0
M  V30 3898 H 373.142 -0.712264 -1.41818 0
M  V30 3899 H 373.163 0.709507 -3.73826 0
M  V30 3900 H 372.675 -1.11512 -3.71735 0
M  V30 3901 H 370.776 1.33892 -3.47712 0
M  V30 3902 H 370.889 -0.0116669 -4.79099 0
M  V30 3903 H 369.253 0.0905645 -2.54539 0
M  V30 3904 H 370.036 -1.4884 -3.09357 0
M  V30 3905 N 372.481 1.55866 -0.233164 0
M  V30 3906 C 373.729 1.9821 0.394593 0
M  V30 3907 C 374.05 1.12234 1.59463 0
M  V30 3908 O 373.32 0.201981 1.94856 0
M  V30 3909 H 371.9 0.732034 0.148778 0
M  V30 3910 H 374.562 1.92107 -0.32876 0
M  V30 3911 H 373.658 3.03845 0.713063 0
M  V30 3912 N 373.959 -0.0401083 1.57549 0
M  V30 3913 C 374.889 -1.04384 2.08869 0
M  V30 3914 C 375.87 -1.38407 0.988817 0
M  V30 3915 O 377.055 -1.47483 1.26342 0
M  V30 3916 C 374.185 -2.34808 2.55895 0
M  V30 3917 C 373.139 -2.15057 3.70047 0
M  V30 3918 C 372.465 -3.51145 4.03239 0
M  V30 3919 C 373.765 -1.54576 4.98902 0
M  V30 3920 H 375.459 -0.616666 2.92981 0
M  V30 3921 H 373.005 -0.295184 1.40942 0
M  V30 3922 H 374.958 -3.05346 2.90417 0
M  V30 3923 H 373.682 -2.79565 1.68853 0
M  V30 3924 H 372.341 -1.46954 3.35857 0
M  V30 3925 H 371.989 -3.93529 3.13279 0
M  V30 3926 H 371.689 -3.38758 4.80122 0
M  V30 3927 H 373.213 -4.23062 4.40285 0
M  V30 3928 H 374.627 -2.15017 5.31451 0
M  V30 3929 H 373.024 -1.52796 5.80322 0
M  V30 3930 H 374.094 -0.51039 4.82206 0
M  V30 3931 N 375.437 -1.54477 -0.31217 0
M  V30 3932 C 376.665 -1.77205 -1.068 0
M  V30 3933 C 377.08 -0.526114 -1.81321 0
M  V30 3934 O 376.437 0.503647 -1.75413 0
M  V30 3935 C 376.488 -2.97253 -2.05725 0
M  V30 3936 O 376.209 -4.1703 -1.34228 0
M  V30 3937 C 377.71 -3.32281 -2.93435 0
M  V30 3938 H 374.93 -0.591287 -0.317208 0
M  V30 3939 H 377.474 -2.01398 -0.354834 0
M  V30 3940 H 375.629 -2.753 -2.72559 0
M  V30 3941 H 376.043 -4.84636 -2.00571 0
M  V30 3942 H 377.517 -4.19551 -3.58721 0
M  V30 3943 H 377.994 -2.49945 -3.61143 0
M  V30 3944 H 378.6 -3.56353 -2.32147 0
M  V30 3945 N 376.915 0.57481 -1.46744 0
M  V30 3946 C 377.825 1.711 -1.60505 0
M  V30 3947 C 378.841 1.67008 -0.488307 0
M  V30 3948 O 380.017 1.86774 -0.753495 0
M  V30 3949 C 377.082 3.07608 -1.59932 0
M  V30 3950 C 376.143 3.22904 -2.82898 0
M  V30 3951 C 375.376 4.529 -2.82343 0
M  V30 3952 O 375.599 5.37278 -1.91542 0
M  V30 3953 O 374.533 4.71611 -3.73987 0
M  V30 3954 H 378.359 1.62436 -2.56609 0
M  V30 3955 H 375.944 0.742779 -1.29627 0
M  V30 3956 H 377.826 3.88877 -1.62336 0
M  V30 3957 H 376.501 3.16692 -0.669898 0
M  V30 3958 H 375.408 2.41099 -2.86046 0
M  V30 3959 H 376.741 3.18715 -3.75076 0
M  V30 3960 N 378.394 1.34581 0.820102 0
M  V30 3961 C 379.327 1.20735 1.93644 0
M  V30 3962 C 380.305 0.0983343 1.62302 0
M  V30 3963 O 381.489 0.263997 1.86642 0
M  V30 3964 C 378.616 0.856037 3.27704 0
M  V30 3965 C 377.662 1.97521 3.78005 0
M  V30 3966 S 378.495 3.58906 3.97425 0
M  V30 3967 C 379.651 3.25822 5.34407 0
M  V30 3968 H 379.884 2.15231 2.05093 0
M  V30 3969 H 377.417 1.1964 0.97599 0
M  V30 3970 H 379.375 0.660133 4.05157 0
M  V30 3971 H 378.036 -0.0706253 3.14021 0
M  V30 3972 H 377.229 1.68321 4.75062 0
M  V30 3973 H 376.831 2.12875 3.07507 0
M  V30 3974 H 379.123 2.77812 6.17922 0
M  V30 3975 H 380.066 4.22029 5.68592 0
M  V30 3976 H 380.474 2.61932 5.00052 0
M  V30 3977 N 379.872 -1.04064 1.18357 0
M  V30 3978 C 380.835 -2.10243 0.912707 0
M  V30 3979 C 381.835 -1.60477 -0.101928 0
M  V30 3980 O 383.025 -1.73703 0.131517 0
M  V30 3981 C 380.157 -3.38893 0.369387 0
M  V30 3982 H 381.35 -2.35706 1.85426 0
M  V30 3983 H 378.903 -1.20489 0.995594 0
M  V30 3984 H 379.638 -3.19094 -0.578776 0
M  V30 3985 H 379.423 -3.76331 1.1008 0
M  V30 3986 H 380.913 -4.17128 0.198575 0
M  V30 3987 N 381.35 -0.985608 -1.22978 0
M  V30 3988 C 382.596 -0.65836 -1.91816 0
M  V30 3989 C 382.929 0.806692 -1.76653 0
M  V30 3990 O 382.204 1.58252 -1.13078 0
M  V30 3991 C 382.487 -1.056 -3.44268 0
M  V30 3992 C 382.34 -2.57906 -3.68516 0
M  V30 3993 C 383.659 -0.603781 -4.35939 0
M  V30 3994 H 380.778 -0.24065 -0.696604 0
M  V30 3995 H 383.42 -1.22783 -1.44998 0
M  V30 3996 H 381.57 -0.571445 -3.84274 0
M  V30 3997 H 383.242 -3.13976 -3.3796 0
M  V30 3998 H 381.485 -3.00305 -3.13048 0
M  V30 3999 H 382.156 -2.80779 -4.75255 0
M  V30 4000 H 384.632 -1.01987 -4.03408 0
M  V30 4001 H 383.508 -0.910383 -5.41298 0
M  V30 4002 H 383.769 0.495761 -4.39312 0
M  V30 4003 N 382.828 1.3818 -0.7579 0
M  V30 4004 C 384.075 2.00019 -0.315985 0
M  V30 4005 C 384.403 1.60163 1.10355 0
M  V30 4006 O 383.658 0.83264 1.77103 0
M  V30 4007 C 383.957 3.55252 -0.391218 0
M  V30 4008 C 383.623 4.14834 -1.76702 0
M  V30 4009 C 382.285 4.30821 -2.14353 0
M  V30 4010 C 384.637 4.47658 -2.66931 0
M  V30 4011 C 381.965 4.76928 -3.41696 0
M  V30 4012 C 384.317 4.95184 -3.93669 0
M  V30 4013 C 382.981 5.09377 -4.31383 0
M  V30 4014 H 382.251 0.731923 -0.115627 0
M  V30 4015 H 384.898 1.65161 -0.969223 0
M  V30 4016 H 383.203 3.90273 0.34558 0
M  V30 4017 H 384.9 4.00988 -0.030805 0
M  V30 4018 H 381.49 4.02808 -1.46435 0
M  V30 4019 H 385.674 4.34904 -2.39106 0
M  V30 4020 H 380.93 4.86103 -3.70829 0
M  V30 4021 H 385.104 5.19551 -4.63724 0
M  V30 4022 H 382.731 5.44865 -5.30119 0
M  V30 4023 N 384.306 0.507319 1.49211 0
M  V30 4024 C 385.531 -0.033725 2.07373 0
M  V30 4025 C 385.956 -1.29485 1.36437 0
M  V30 4026 O 385.314 -1.76294 0.423087 0
M  V30 4027 C 385.362 -0.263945 3.59633 0
M  V30 4028 O 384.466 -1.33737 3.90113 0
M  V30 4029 H 383.807 0.0290331 0.663365 0
M  V30 4030 H 386.337 0.708749 1.91932 0
M  V30 4031 H 386.347 -0.493536 4.05004 0
M  V30 4032 H 385.022 0.657424 4.10671 0
M  V30 4033 H 383.599 -1.09224 3.56545 0
M  V30 4034 N 385.784 -1.5574 0.241426 0
M  V30 4035 C 387.024 -2.00714 -0.38644 0
M  V30 4036 C 387.388 -1.12586 -1.55526 0
M  V30 4037 O 388.589 -1.46992 -2.25048 0
M  V30 4038 C 386.86 -3.48534 -0.791128 0
M  V30 4039 S 388.419 -4.15519 -1.41029 0
M  V30 4040 H 385.237 -0.700484 -0.121834 0
M  V30 4041 H 387.839 -1.92243 0.355377 0
M  V30 4042 H 386.543 -4.10342 0.0689225 0
M  V30 4043 H 386.074 -3.6092 -1.56526 0
M  V30 4044 H 388.089 -4.16352 -2.69936 0
M  V30 4045 N 387.262 0.0317525 -1.57568 0
M  V30 4046 C 388.172 1.05021 -2.0978 0
M  V30 4047 C 389.188 1.39809 -1.03583 0
M  V30 4048 O 390.364 1.49182 -1.35302 0
M  V30 4049 C 387.429 2.33301 -2.56459 0
M  V30 4050 C 386.49 2.0512 -3.77127 0
M  V30 4051 C 385.723 3.27283 -4.2157 0
M  V30 4052 O 385.946 4.37861 -3.65559 0
M  V30 4053 O 384.88 3.13141 -5.14029 0
M  V30 4054 H 388.706 0.636505 -2.96955 0
M  V30 4055 H 386.291 0.248559 -1.47318 0
M  V30 4056 H 388.173 3.08722 -2.86825 0
M  V30 4057 H 386.848 2.73973 -1.72397 0
M  V30 4058 H 385.755 1.27276 -3.51784 0
M  V30 4059 H 387.088 1.69305 -4.62165 0
M  V30 4060 N 388.74 1.54641 0.303973 0
M  V30 4061 C 389.703 1.84646 1.35789 0
M  V30 4062 C 390.703 0.7192 1.4382 0
M  V30 4063 O 391.893 0.987491 1.43507 0
M  V30 4064 C 389.025 2.02407 2.74307 0
M  V30 4065 H 390.218 2.78829 1.10429 0
M  V30 4066 H 387.771 1.46658 0.540487 0
M  V30 4067 H 388.506 1.10502 3.04893 0
M  V30 4068 H 388.291 2.84453 2.69868 0
M  V30 4069 H 389.781 2.27002 3.50514 0
M  V30 4070 N 390.218 -0.567019 1.47046 0
M  V30 4071 C 391.168 -1.67018 1.55207 0
M  V30 4072 C 392.152 -1.55543 0.411714 0
M  V30 4073 O 393.344 -1.64192 0.661064 0
M  V30 4074 C 390.473 -3.05801 1.56014 0
M  V30 4075 C 389.559 -3.22515 2.75399 0
M  V30 4076 N 389.95 -3.09329 4.00186 0
M  V30 4077 C 388.248 -3.53493 2.71954 0
M  V30 4078 C 388.949 -3.2847 4.80086 0
M  V30 4079 N 387.925 -3.54352 4.12233 0
M  V30 4080 H 391.727 -1.55377 2.4947 0
M  V30 4081 H 389.241 -0.771503 1.42904 0
M  V30 4082 H 391.238 -3.84996 1.59949 0
M  V30 4083 H 389.898 -3.18561 0.628396 0
M  V30 4084 H 390.909 -2.86863 4.31196 0
M  V30 4085 H 387.586 -3.7284 1.87873 0
M  V30 4086 H 388.976 -3.23326 5.88991 0
M  V30 4087 N 391.696 -1.35014 -0.812953 0
M  V30 4088 C 392.644 -1.27435 -1.94585 0
M  V30 4089 C 393.638 -0.170494 -1.6854 0
M  V30 4090 O 394.844 -0.336085 -1.76835 0
M  V30 4091 H 391.219 -0.396144 -0.639198 0
M  V30 4092 H 393.19 -2.23158 -1.98098 0
M  V30 4093 C 391.939 -1.05677 -3.31252 0
M  V30 4094 H 391.262 -1.89853 -3.51846 0
M  V30 4095 H 392.702 -1.04413 -4.10943 0
M  V30 4096 C 391.161 0.239615 -3.36047 0
M  V30 4097 O 391.691 1.23759 -3.8216 0
M  V30 4098 N 389.897 0.276186 -2.89285 0
M  V30 4099 H 389.444 -0.53653 -2.51951 0
M  V30 4100 H 389.402 1.14332 -2.92875 0
M  V30 4101 N 393.175 1.03435 -1.18907 0
M  V30 4102 C 394.452 1.73778 -0.89781 0
M  V30 4103 C 394.832 2.02458 0.597832 0
M  V30 4104 O 394.18 1.67482 1.55441 0
M  V30 4105 C 394.39 3.01845 -1.75187 0
M  V30 4106 C 395.738 3.7546 -1.9828 0
M  V30 4107 O 396.762 3.11759 -1.72293 0
M  V30 4108 O 395.621 4.89966 -2.42065 0
M  V30 4109 H 392.715 0.75651 -0.334098 0
M  V30 4110 H 395.261 1.09444 -1.29693 0
M  V30 4111 H 394.033 2.76836 -2.76545 0
M  V30 4112 H 393.656 3.73919 -1.35167 0
M  V30 4113 N 394.653 0.992116 1.22453 0
M  V30 4114 C 395.6 0.541731 2.24352 0
M  V30 4115 C 396.57 -0.425519 1.60557 0
M  V30 4116 O 397.755 -0.330453 1.87917 0
M  V30 4117 C 394.895 -0.138248 3.44823 0
M  V30 4118 C 394.008 0.870649 4.23136 0
M  V30 4119 C 393.143 0.164269 5.30946 0
M  V30 4120 C 392.182 1.16159 6.00977 0
M  V30 4121 N 391.319 0.483568 7.00433 0
M  V30 4122 H 396.159 1.41541 2.62241 0
M  V30 4123 H 393.696 0.709013 1.28885 0
M  V30 4124 H 395.654 -0.5494 4.13567 0
M  V30 4125 H 394.284 -0.975721 3.077 0
M  V30 4126 H 393.336 1.40013 3.53696 0
M  V30 4127 H 394.648 1.63014 4.7141 0
M  V30 4128 H 393.802 -0.303653 6.0594 0
M  V30 4129 H 392.541 -0.627733 4.83643 0
M  V30 4130 H 391.546 1.64015 5.24766 0
M  V30 4131 H 392.771 1.95445 6.50368 0
M  V30 4132 H 390.717 -0.289012 6.55363 0
M  V30 4133 H 390.634 1.18152 7.4671 0
M  V30 4134 H 391.902 0.0384219 7.79491 0
M  V30 4135 N 396.131 -1.37776 0.765217 0
M  V30 4136 C 397.379 -1.99454 0.325943 0
M  V30 4137 C 397.7 -1.61049 -1.09947 0
M  V30 4138 O 396.97 -0.872821 -1.75381 0
M  V30 4139 H 395.55 -0.737697 0.117525 0
M  V30 4140 H 398.212 -1.68359 0.981895 0
M  V30 4141 H 397.308 -3.09547 0.398353 0
M  V30 4142 N 397.609 -0.515225 -1.4894 0
M  V30 4143 C 398.539 0.244628 -2.32215 0
M  V30 4144 C 399.52 0.949136 -1.41157 0
M  V30 4145 O 400.705 0.937783 -1.70057 0
M  V30 4146 C 397.835 1.30096 -3.22013 0
M  V30 4147 C 396.789 0.715486 -4.21977 0
M  V30 4148 C 396.115 1.87339 -5.00808 0
M  V30 4149 C 397.415 -0.302982 -5.2142 0
M  V30 4150 H 399.109 -0.450501 -2.95991 0
M  V30 4151 H 396.655 -0.218098 -1.42339 0
M  V30 4152 H 398.608 1.84037 -3.79089 0
M  V30 4153 H 397.332 2.02547 -2.56207 0
M  V30 4154 H 395.991 0.197715 -3.66066 0
M  V30 4155 H 395.639 2.58592 -4.31438 0
M  V30 4156 H 395.339 1.48764 -5.68457 0
M  V30 4157 H 396.863 2.41686 -5.60732 0
M  V30 4158 H 398.277 0.148802 -5.73107 0
M  V30 4159 H 396.674 -0.60532 -5.97039 0
M  V30 4160 H 397.744 -1.21395 -4.69459 0
M  V30 4161 N 399.087 1.5561 -0.249682 0
M  V30 4162 C 400.315 2.03411 0.378352 0
M  V30 4163 C 400.73 1.12886 1.51335 0
M  V30 4164 O 400.087 0.143833 1.81932 0
M  V30 4165 C 400.138 3.50537 0.88351 0
M  V30 4166 O 399.859 4.37614 -0.20626 0
M  V30 4167 C 401.36 4.14113 1.58195 0
M  V30 4168 H 398.58 0.664994 0.08958 0
M  V30 4169 H 401.124 2.01044 -0.374357 0
M  V30 4170 H 399.279 3.5343 1.58639 0
M  V30 4171 H 399.693 5.24199 0.177782 0
M  V30 4172 H 401.167 5.18741 1.8871 0
M  V30 4173 H 401.644 3.60767 2.50487 0
M  V30 4174 H 402.25 4.15151 0.923573 0
M  V30 4175 N 400.565 -0.0233959 1.57583 0
M  V30 4176 C 401.811 -0.714119 1.89811 0
M  V30 4177 C 402.144 -1.74702 0.848113 0
M  V30 4178 O 401.419 -1.94023 -0.136135 0
M  V30 4179 C 401.702 -1.37853 3.32669 0
M  V30 4180 C 401.555 -0.358764 4.48367 0
M  V30 4181 C 402.874 -2.31101 3.7454 0
M  V30 4182 H 399.993 -0.25814 0.690314 0
M  V30 4183 H 402.635 0.0230927 1.89986 0
M  V30 4184 H 400.785 -2.00689 3.3265 0
M  V30 4185 H 402.457 0.268115 4.6052 0
M  V30 4186 H 400.7 0.321387 4.32608 0
M  V30 4187 H 401.371 -0.862242 5.45224 0
M  V30 4188 H 403.847 -1.78304 3.75961 0
M  V30 4189 H 402.723 -2.74567 4.75294 0
M  V30 4190 H 402.984 -3.18018 3.0711 0
M  V30 4191 N 402.043 -1.548 -0.295768 0
M  V30 4192 C 403.268 -1.78653 -1.05346 0
M  V30 4193 C 403.693 -0.546894 -1.79974 0
M  V30 4194 O 403.051 0.502763 -1.7419 0
M  V30 4195 C 403.099 -2.99679 -2.00561 0
M  V30 4196 O 402.203 -2.7317 -3.08953 0
M  V30 4197 H 401.544 -0.59116 -0.302367 0
M  V30 4198 H 404.074 -2.01895 -0.331598 0
M  V30 4199 H 404.084 -3.27793 -2.42932 0
M  V30 4200 H 402.759 -3.89562 -1.4565 0
M  V30 4201 H 401.336 -2.56089 -2.71059 0
M  V30 4202 N 403.521 0.559213 -1.47345 0
M  V30 4203 C 404.468 1.66645 -1.59682 0
M  V30 4204 C 405.438 1.60168 -0.43994 0
M  V30 4205 O 406.623 1.79031 -0.659736 0
M  V30 4206 C 403.763 3.04969 -1.61518 0
M  V30 4207 C 402.876 3.21897 -2.88108 0
M  V30 4208 C 402.011 4.50608 -2.81294 0
M  V30 4209 C 401.05 4.60961 -4.02717 0
M  V30 4210 N 400.187 5.81024 -3.94151 0
M  V30 4211 H 405.027 1.55439 -2.54249 0
M  V30 4212 H 402.564 0.757219 -1.26113 0
M  V30 4213 H 404.522 3.85064 -1.60566 0
M  V30 4214 H 403.152 3.15015 -0.704645 0
M  V30 4215 H 402.204 2.35248 -2.98936 0
M  V30 4216 H 403.516 3.25412 -3.78032 0
M  V30 4217 H 402.67 5.3896 -2.7858 0
M  V30 4218 H 401.409 4.49568 -1.89049 0
M  V30 4219 H 400.414 3.71021 -4.05738 0
M  V30 4220 H 401.639 4.63761 -4.96087 0
M  V30 4221 H 399.585 5.80938 -3.04708 0
M  V30 4222 H 399.502 5.85909 -4.77752 0
M  V30 4223 H 400.77 6.71744 -3.9545 0
M  V30 4224 N 404.999 1.35443 0.805782 0
M  V30 4225 C 406.247 1.28507 1.55982 0
M  V30 4226 C 406.568 -0.140046 1.94496 0
M  V30 4227 O 405.838 -1.07666 1.63661 0
M  V30 4228 H 404.418 0.472676 0.578434 0
M  V30 4229 H 407.08 1.69555 0.961098 0
M  V30 4230 H 406.176 1.90148 2.47488 0
M  V30 4231 N 406.477 -1.02803 1.19454 0
M  V30 4232 C 407.723 -1.76478 0.999171 0
M  V30 4233 C 408.056 -1.88456 -0.468828 0
M  V30 4234 O 407.331 -1.40198 -1.34814 0
M  V30 4235 C 407.614 -3.19044 1.66981 0
M  V30 4236 C 407.467 -3.14932 3.21151 0
M  V30 4237 C 408.786 -4.17456 1.39349 0
M  V30 4238 H 405.905 -0.640614 0.364393 0
M  V30 4239 H 408.547 -1.20005 1.47305 0
M  V30 4240 H 406.697 -3.67263 1.2669 0
M  V30 4241 H 408.369 -2.74605 3.70661 0
M  V30 4242 H 406.612 -2.52625 3.52652 0
M  V30 4243 H 407.283 -4.1566 3.63223 0
M  V30 4244 H 409.759 -3.77842 1.74283 0
M  V30 4245 H 408.635 -5.154 1.88823 0
M  V30 4246 H 408.896 -4.40949 0.318813 0
M  V30 4247 N 407.956 -0.998596 -1.21925 0
M  V30 4248 C 408.888 -0.511879 -2.23411 0
M  V30 4249 C 409.901 0.396094 -1.57908 0
M  V30 4250 O 411.09 0.197316 -1.77406 0
M  V30 4251 C 408.19 0.276802 -3.37768 0
M  V30 4252 C 407.363 -0.628687 -4.32858 0
M  V30 4253 C 406.422 0.109272 -5.26087 0
M  V30 4254 O 405.448 -0.507237 -5.66935 0
M  V30 4255 N 406.65 1.38983 -5.63617 0
M  V30 4256 H 409.415 -1.38457 -2.658 0
M  V30 4257 H 406.976 -0.873981 -1.36283 0
M  V30 4258 H 408.968 0.77928 -3.97126 0
M  V30 4259 H 407.538 1.05063 -2.94415 0
M  V30 4260 H 406.758 -1.31175 -3.71735 0
M  V30 4261 H 408.046 -1.24514 -4.93329 0
M  V30 4262 H 407.444 1.91194 -5.32411 0
M  V30 4263 H 406.001 1.83739 -6.25367 0
M  V30 4264 N 409.434 1.37368 -0.772513 0
M  V30 4265 C 410.683 1.98918 -0.333861 0
M  V30 4266 C 410.996 1.62017 1.09589 0
M  V30 4267 O 412.202 2.16676 1.63596 0
M  V30 4268 C 410.658 3.55735 -0.545971 0
M  V30 4269 C 410.266 4.01573 -1.98603 0
M  V30 4270 C 412.01 4.24156 -0.170979 0
M  V30 4271 C 409.917 5.51102 -2.1457 0
M  V30 4272 H 408.847 0.744214 -0.121085 0
M  V30 4273 H 411.498 1.56888 -0.95175 0
M  V30 4274 H 409.88 3.95748 0.141387 0
M  V30 4275 H 411.054 3.72803 -2.7084 0
M  V30 4276 H 409.369 3.45937 -2.31769 0
M  V30 4277 H 411.966 5.34024 -0.26878 0
M  V30 4278 H 412.309 4.06917 0.878855 0
M  V30 4279 H 412.842 3.89447 -0.810914 0
M  V30 4280 H 409.581 5.73268 -3.17875 0
M  V30 4281 H 409.101 5.81554 -1.46817 0
M  V30 4282 H 410.78 6.17083 -1.94468 0
M  V30 4283 N 410.912 0.523116 1.48665 0
M  V30 4284 C 411.86 -0.256859 2.31177 0
M  V30 4285 C 412.854 -0.94199 1.40794 0
M  V30 4286 O 414.06 -0.867157 1.57735 0
M  V30 4287 H 410.435 -0.1017 0.745091 0
M  V30 4288 H 412.406 0.458739 2.94853 0
M  V30 4289 C 411.155 -1.29503 3.22683 0
M  V30 4290 H 410.478 -0.777248 3.92172 0
M  V30 4291 H 411.918 -1.81233 3.83315 0
M  V30 4292 C 410.377 -2.32501 2.43813 0
M  V30 4293 O 410.907 -3.3881 2.15803 0
M  V30 4294 N 409.113 -2.05538 2.05432 0
M  V30 4295 H 408.66 -1.19104 2.28412 0
M  V30 4296 H 408.618 -2.74676 1.52973 0
M  V30 4297 N 412.39 -1.55475 0.257931 0
M  V30 4298 C 413.639 -1.98383 -0.364275 0
M  V30 4299 C 413.952 -1.14952 -1.58258 0
M  V30 4300 O 415.158 -1.47924 -2.27664 0
M  V30 4301 C 413.614 -3.53037 -0.699479 0
M  V30 4302 C 413.222 -4.45223 0.498046 0
M  V30 4303 C 414.966 -4.04575 -1.28526 0
M  V30 4304 C 412.873 -5.91238 0.138383 0
M  V30 4305 H 411.803 -0.740911 -0.13988 0
M  V30 4306 H 414.454 -1.79936 0.359883 0
M  V30 4307 H 412.836 -3.6722 -1.48207 0
M  V30 4308 H 414.01 -4.42803 1.27522 0
M  V30 4309 H 412.325 -4.04226 0.999503 0
M  V30 4310 H 414.922 -5.11196 -1.56788 0
M  V30 4311 H 415.265 -3.5258 -2.21344 0
M  V30 4312 H 415.798 -3.93762 -0.565337 0
M  V30 4313 H 412.537 -6.47294 1.03398 0
M  V30 4314 H 412.057 -5.96768 -0.602374 0
M  V30 4315 H 413.736 -6.46413 -0.27553 0
M  V30 4316 N 413.868 0.0150385 -1.57593 0
M  V30 4317 C 414.815 1.01126 -2.07466 0
M  V30 4318 C 415.785 1.35064 -0.966794 0
M  V30 4319 O 416.97 1.4516 -1.23827 0
M  V30 4320 C 414.11 2.30276 -2.57035 0
M  V30 4321 C 413.223 2.02373 -3.81666 0
M  V30 4322 C 412.358 3.25496 -4.19793 0
M  V30 4323 C 411.397 2.93211 -5.37303 0
M  V30 4324 N 410.534 4.08826 -5.70794 0
M  V30 4325 H 415.374 0.57901 -2.92321 0
M  V30 4326 H 412.911 0.27426 -1.44521 0
M  V30 4327 H 414.869 3.05757 -2.83846 0
M  V30 4328 H 413.499 2.71197 -1.75077 0
M  V30 4329 H 412.551 1.17327 -3.61854 0
M  V30 4330 H 413.863 1.74567 -4.67256 0
M  V30 4331 H 413.017 4.09333 -4.47807 0
M  V30 4332 H 411.756 3.56428 -3.32882 0
M  V30 4333 H 410.761 2.07777 -5.09027 0
M  V30 4334 H 411.986 2.63542 -6.25877 0
M  V30 4335 H 409.932 4.39682 -4.86842 0
M  V30 4336 H 409.849 3.84491 -6.50924 0
M  V30 4337 H 411.117 4.93496 -6.03392 0
M  V30 4338 N 415.346 1.54954 0.287554 0
M  V30 4339 C 416.309 1.86076 1.33823 0
M  V30 4340 C 417.309 0.734414 1.43049 0
M  V30 4341 O 418.499 1.00266 1.42452 0
M  V30 4342 C 415.631 2.05305 2.72144 0
M  V30 4343 H 416.824 2.79984 1.07465 0
M  V30 4344 H 414.377 1.47223 0.524902 0
M  V30 4345 H 415.112 1.1373 3.03704 0
M  V30 4346 H 414.897 2.873 2.66836 0
M  V30 4347 H 416.387 2.30706 3.48087 0
M  V30 4348 N 416.824 -0.551391 1.4764 0
M  V30 4349 C 418.073 -1.30467 1.53822 0
M  V30 4350 C 418.386 -1.94495 0.207661 0
M  V30 4351 O 419.592 -2.71099 0.147533 0
M  V30 4352 C 418.048 -2.36616 2.71184 0
M  V30 4353 C 417.656 -1.78754 4.10793 0
M  V30 4354 C 419.4 -3.13088 2.86663 0
M  V30 4355 C 417.307 -2.82717 5.19447 0
M  V30 4356 H 416.237 -0.490584 0.572576 0
M  V30 4357 H 418.888 -0.58494 1.73927 0
M  V30 4358 H 417.27 -3.11529 2.4447 0
M  V30 4359 H 418.444 -1.10173 4.47435 0
M  V30 4360 H 416.759 -1.14846 4.00249 0
M  V30 4361 H 419.356 -3.90736 3.65007 0
M  V30 4362 H 419.699 -3.67635 1.95321 0
M  V30 4363 H 420.232 -2.45288 3.13175 0
M  V30 4364 H 416.971 -2.33018 6.12685 0
M  V30 4365 H 416.491 -3.4969 4.87316 0
M  V30 4366 H 418.17 -3.46102 5.46646 0
M  V30 4367 N 418.302 -1.35869 -0.798587 0
M  V30 4368 C 419.713 -1.26498 -1.37314 0
M  V30 4369 C 420.064 0.0991899 -1.95949 0
M  V30 4370 O 419.189 1.0004 -1.91888 0
M  V30 4371 C 419.784 -2.29054 -2.49639 0
M  V30 4372 C 418.343 -2.234 -3.02935 0
M  V30 4373 C 417.49 -2.14329 -1.75949 0
M  V30 4374 H 420.441 -1.46881 -0.600971 0
M  V30 4375 H 420.462 -1.92166 -3.28409 0
M  V30 4376 H 419.974 -3.2833 -2.06933 0
M  V30 4377 H 418.075 -1.27562 -3.50084 0
M  V30 4378 H 418.188 -3.15703 -3.60372 0
M  V30 4379 H 416.552 -1.60435 -1.9782 0
M  V30 4380 H 417.335 -3.15477 -1.35384 0
M  V30 4381 N 419.78 1.02168 -1.19998 0
M  V30 4382 C 421.005 1.79833 -1.03319 0
M  V30 4383 C 421.43 1.83504 0.413281 0
M  V30 4384 O 420.788 1.26635 1.29743 0
M  V30 4385 C 420.836 3.22396 -1.61533 0
M  V30 4386 O 419.94 4.03555 -0.849519 0
M  V30 4387 H 419.281 0.554872 -0.364709 0
M  V30 4388 H 421.811 1.28542 -1.59179 0
M  V30 4389 H 421.821 3.73124 -1.65054 0
M  V30 4390 H 420.496 3.19039 -2.66809 0
M  V30 4391 H 419.073 3.62169 -0.888129 0
M  V30 4392 N 421.258 1.00505 1.21394 0
M  V30 4393 C 422.669 0.721082 1.72213 0
M  V30 4394 C 423.02 -0.761263 1.80829 0
M  V30 4395 O 422.145 -1.59464 1.46288 0
M  V30 4396 C 422.74 1.30228 3.12772 0
M  V30 4397 C 421.299 1.06743 3.60947 0
M  V30 4398 C 420.446 1.41507 2.38477 0
M  V30 4399 H 423.397 1.17594 1.06571 0
M  V30 4400 H 423.418 0.686955 3.74247 0
M  V30 4401 H 422.93 2.38115 3.06468 0
M  V30 4402 H 421.031 0.00572162 3.726 0
M  V30 4403 H 421.144 1.73936 4.46411 0
M  V30 4404 H 419.508 0.833852 2.40664 0
M  V30 4405 H 420.291 2.50424 2.34824 0
M  V30 4406 N 422.737 -1.36956 0.779787 0
M  V30 4407 C 424.148 -1.82094 0.412156 0
M  V30 4408 C 424.499 -1.64926 -1.06273 0
M  V30 4409 O 423.624 -1.16483 -1.82375 0
M  V30 4410 C 424.219 -3.3059 0.741319 0
M  V30 4411 C 422.778 -3.73974 0.426641 0
M  V30 4412 C 421.925 -2.59368 0.980987 0
M  V30 4413 H 424.876 -1.25314 0.973758 0
M  V30 4414 H 424.897 -3.80489 0.028887 0
M  V30 4415 H 424.409 -3.43054 1.81482 0
M  V30 4416 H 422.51 -3.67076 -0.639215 0
M  V30 4417 H 422.623 -4.69778 0.940515 0
M  V30 4418 H 420.987 -2.51463 0.404757 0
M  V30 4419 H 421.77 -2.74621 2.06005 0
M  V30 4420 N 424.215 -0.530993 -1.48385 0
M  V30 4421 C 425.443 -0.00134122 -2.069 0
M  V30 4422 C 425.858 1.2805 -1.3874 0
M  V30 4423 O 425.215 1.76204 -0.475244 0
M  V30 4424 C 425.266 0.225256 -3.60798 0
M  V30 4425 O 424.987 -1.0058 -4.26398 0
M  V30 4426 C 426.488 0.795172 -4.3611 0
M  V30 4427 H 423.708 -0.0339704 -0.67014 0
M  V30 4428 H 426.252 -0.736926 -1.90761 0
M  V30 4429 H 424.407 0.910891 -3.76539 0
M  V30 4430 H 424.821 -0.787165 -5.1856 0
M  V30 4431 H 426.295 0.903143 -5.44562 0
M  V30 4432 H 426.772 1.80031 -4.00606 0
M  V30 4433 H 427.378 0.146069 -4.25049 0
M  V30 4434 N 425.693 1.55336 -0.266172 0
M  V30 4435 C 426.603 2.2583 0.635458 0
M  V30 4436 C 427.619 1.28106 1.17749 0
M  V30 4437 O 428.795 1.61024 1.20968 0
M  V30 4438 C 425.86 2.95879 1.80712 0
M  V30 4439 C 424.921 4.09059 1.30265 0
M  V30 4440 C 424.154 4.75759 2.41846 0
M  V30 4441 O 424.377 4.41622 3.61007 0
M  V30 4442 O 423.311 5.63888 2.1051 0
M  V30 4443 H 427.137 3.03631 0.0646693 0
M  V30 4444 H 424.722 1.49361 -0.0339177 0
M  V30 4445 H 426.604 3.39932 2.49047 0
M  V30 4446 H 425.279 2.21002 2.36516 0
M  V30 4447 H 424.186 3.69482 0.586019 0
M  V30 4448 H 425.519 4.85811 0.790458 0
M  V30 4449 N 427.171 -0.0066808 1.57599 0
M  V30 4450 C 428.417 -0.693947 1.90558 0
M  V30 4451 C 428.75 -1.73792 0.866594 0
M  V30 4452 O 428.025 -1.94156 -0.115548 0
M  V30 4453 C 428.308 -1.34317 3.34112 0
M  V30 4454 C 428.161 -0.311189 4.48722 0
M  V30 4455 C 429.48 -2.27116 3.7697 0
M  V30 4456 H 426.599 -0.250803 0.693013 0
M  V30 4457 H 429.241 0.043242 1.89951 0
M  V30 4458 H 427.391 -1.9715 3.3476 0
M  V30 4459 H 429.063 0.316944 4.6021 0
M  V30 4460 H 427.306 0.367253 4.32243 0
M  V30 4461 H 427.977 -0.804366 5.46108 0
M  V30 4462 H 430.453 -1.74306 3.77831 0
M  V30 4463 H 429.329 -2.69511 4.78179 0
M  V30 4464 H 429.59 -3.14743 3.10466 0
M  V30 4465 N 428.649 -1.55105 -0.279332 0
M  V30 4466 C 429.874 -1.7976 -1.03446 0
M  V30 4467 C 430.299 -0.565952 -1.79384 0
M  V30 4468 O 429.657 0.484259 -1.74713 0
M  V30 4469 C 429.705 -3.0179 -1.97371 0
M  V30 4470 O 428.809 -2.76432 -3.06038 0
M  V30 4471 H 428.15 -0.594334 -0.29608 0
M  V30 4472 H 430.68 -2.02235 -0.310165 0
M  V30 4473 H 430.69 -3.30351 -2.39441 0
M  V30 4474 H 429.365 -3.91085 -1.4151 0
M  V30 4475 H 427.942 -2.58949 -2.68328 0
M  V30 4476 N 430.127 0.543554 -1.4793 0
M  V30 4477 C 431.376 1.29649 -1.54512 0
M  V30 4478 C 431.689 1.94382 -0.217973 0
M  V30 4479 O 432.895 2.71017 -0.161908 0
M  V30 4480 C 431.351 2.35175 -2.72435 0
M  V30 4481 C 430.959 1.76572 -4.11736 0
M  V30 4482 C 432.703 3.11564 -2.8832 0
M  V30 4483 C 430.61 2.79958 -5.20939 0
M  V30 4484 H 429.54 0.487541 -0.57517 0
M  V30 4485 H 432.191 0.575708 -1.74235 0
M  V30 4486 H 430.573 3.10229 -2.46118 0
M  V30 4487 H 431.747 1.07799 -4.48013 0
M  V30 4488 H 430.062 1.12722 -4.00852 0
M  V30 4489 H 432.659 3.88794 -3.67074 0
M  V30 4490 H 433.002 3.66594 -1.97268 0
M  V30 4491 H 433.535 2.43623 -3.14472 0
M  V30 4492 H 430.274 2.29766 -6.13912 0
M  V30 4493 H 429.794 3.47101 -4.89164 0
M  V30 4494 H 431.473 3.43198 -5.48474 0
M  V30 4495 N 431.605 1.3629 0.791371 0
M  V30 4496 C 433.021 1.16661 1.08914 0
M  V30 4497 C 433.221 -0.0106266 2.01497 0
M  V30 4498 O 432.277 -0.676596 2.43266 0
M  V30 4499 C 433.59 2.47656 1.70549 0
M  V30 4500 C 435.138 2.54002 1.82899 0
M  V30 4501 C 435.613 3.85078 2.47949 0
M  V30 4502 N 437.104 3.86413 2.5542 0
M  V30 4503 C 437.839 4.84572 3.06557 0
M  V30 4504 N 437.335 5.93124 3.58016 0
M  V30 4505 N 439.128 4.71994 3.05251 0
M  V30 4506 H 431.279 2.11668 0.176238 0
M  V30 4507 H 433.542 0.937486 0.140796 0
M  V30 4508 H 433.248 3.34059 1.09989 0
M  V30 4509 H 433.122 2.63319 2.70079 0
M  V30 4510 H 435.509 1.68018 2.42598 0
M  V30 4511 H 435.59 2.42239 0.821808 0
M  V30 4512 H 435.234 4.71467 1.88895 0
M  V30 4513 H 435.164 3.94135 3.49235 0
M  V30 4514 H 437.655 3.07988 2.18979 0
M  V30 4515 H 437.968 6.63999 3.95381 0
M  V30 4516 H 436.313 5.96796 3.56173 0
M  V30 4517 H 439.504 3.86321 2.64336 0
M  V30 4518 H 439.677 5.48653 3.44796 0
M  V30 4519 N 433.083 -1.0153 1.20538 0
M  V30 4520 C 434.031 -2.12215 0.952235 0
M  V30 4521 C 435.025 -1.69123 -0.0968735 0
M  V30 4522 O 436.231 -1.7992 0.0536006 0
M  V30 4523 H 432.606 -0.693576 0.290613 0
M  V30 4524 H 434.577 -2.3075 1.89201 0
M  V30 4525 C 433.326 -3.43755 0.522287 0
M  V30 4526 H 432.649 -3.7734 1.32115 0
M  V30 4527 H 434.089 -4.22254 0.384389 0
M  V30 4528 C 432.548 -3.28088 -0.765489 0
M  V30 4529 O 433.078 -3.57921 -1.8236 0
M  V30 4530 N 431.284 -2.81333 -0.728011 0
M  V30 4531 H 430.831 -2.57255 0.133332 0
M  V30 4532 H 430.789 -2.71232 -1.58999 0
M  V30 4533 N 434.561 -1.01147 -1.20859 0
M  V30 4534 C 435.786 -0.716698 -1.94623 0
M  V30 4535 C 436.211 0.715415 -1.73964 0
M  V30 4536 O 435.569 1.49157 -1.03062 0
M  V30 4537 C 435.617 -1.0513 -3.44935 0
M  V30 4538 O 434.721 -0.160131 -4.12089 0
M  V30 4539 H 434.062 -0.266404 -0.608214 0
M  V30 4540 H 436.592 -1.35346 -1.53436 0
M  V30 4541 H 436.602 -1.00086 -3.95533 0
M  V30 4542 H 435.277 -2.09475 -3.59295 0
M  V30 4543 H 433.854 -0.267657 -3.71938 0
M  V30 4544 N 436.039 1.36541 -0.78704 0
M  V30 4545 C 437.267 2.03561 -0.370199 0
M  V30 4546 C 437.682 1.59347 1.01263 0
M  V30 4547 O 437.039 0.781781 1.64907 0
M  V30 4548 C 437.09 3.59033 -0.421614 0
M  V30 4549 O 436.811 4.01634 -1.7499 0
M  V30 4550 C 438.312 4.433 0.00489763 0
M  V30 4551 H 435.532 0.653346 -0.152904 0
M  V30 4552 H 438.076 1.74566 -1.06522 0
M  V30 4553 H 436.231 3.86746 0.224971 0
M  V30 4554 H 436.645 4.96217 -1.69909 0
M  V30 4555 H 438.119 5.51939 -0.0822184 0
M  V30 4556 H 438.596 4.26285 1.05723 0
M  V30 4557 H 439.202 4.20843 -0.614085 0
M  V30 4558 N 437.518 0.538854 1.48102 0
M  V30 4559 C 438.481 -0.208395 2.28251 0
M  V30 4560 C 439.481 -0.859656 1.35892 0
M  V30 4561 O 440.671 -0.71834 1.58699 0
M  V30 4562 C 437.803 -1.30252 3.15035 0
M  V30 4563 H 438.996 0.495407 2.9578 0
M  V30 4564 H 436.549 0.295112 1.53489 0
M  V30 4565 H 437.284 -2.0393 2.52157 0
M  V30 4566 H 437.069 -0.840551 3.82985 0
M  V30 4567 H 438.559 -1.82787 3.75471 0
M  V30 4568 N 438.996 -1.55193 0.274407 0
M  V30 4569 C 439.946 -2.19184 -0.627882 0
M  V30 4570 C 440.93 -1.15625 -1.11892 0
M  V30 4571 O 442.122 -1.41441 -1.06411 0
M  V30 4572 C 439.251 -2.91591 -1.81189 0
M  V30 4573 C 438.337 -4.02438 -1.33807 0
M  V30 4574 N 438.728 -5.0246 -0.580349 0
M  V30 4575 C 437.026 -4.15496 -1.62109 0
M  V30 4576 C 437.727 -5.80756 -0.331344 0
M  V30 4577 N 436.703 -5.36038 -0.903556 0
M  V30 4578 H 440.505 -2.93871 -0.0411216 0
M  V30 4579 H 438.019 -1.62213 0.0779348 0
M  V30 4580 H 440.016 -3.35883 -2.46957 0
M  V30 4581 H 438.676 -2.18414 -2.40261 0
M  V30 4582 H 439.687 -5.17399 -0.227762 0
M  V30 4583 H 436.364 -3.53509 -2.22121 0
M  V30 4584 H 437.754 -6.71335 0.275454 0
M  V30 4585 N 440.474 -0.00167713 -1.576 0
M  V30 4586 C 441.699 0.69739 -1.95323 0
M  V30 4587 C 442.124 1.6642 -0.876706 0
M  V30 4588 O 441.482 1.80548 0.165007 0
M  V30 4589 C 441.53 1.40403 -3.32144 0
M  V30 4590 O 440.634 2.5185 -3.26566 0
M  V30 4591 H 439.975 0.185373 -0.637599 0
M  V30 4592 H 442.505 -0.0553665 -2.04525 0
M  V30 4593 H 442.515 1.76707 -3.67748 0
M  V30 4594 H 441.19 0.695167 -4.10049 0
M  V30 4595 H 439.767 2.17861 -3.0264 0
M  V30 4596 N 441.952 1.55251 0.271103 0
M  V30 4597 C 443.201 1.75151 1.00025 0
M  V30 4598 C 443.514 0.561041 1.87381 0
M  V30 4599 O 444.72 0.642506 2.63788 0
M  V30 4600 C 443.176 3.09999 1.82835 0
M  V30 4601 C 442.784 4.3662 1.00336 0
M  V30 4602 C 444.528 3.39249 2.55168 0
M  V30 4603 C 442.435 5.62506 1.82595 0
M  V30 4604 H 441.365 0.652877 0.377183 0
M  V30 4605 H 444.016 1.81708 0.255843 0
M  V30 4606 H 442.398 2.97485 2.61378 0
M  V30 4607 H 443.572 4.60055 0.261959 0
M  V30 4608 H 441.887 4.14527 0.394486 0
M  V30 4609 H 444.484 4.3051 3.1712 0
M  V30 4610 H 444.827 2.59467 3.2555 0
M  V30 4611 H 445.36 3.52869 1.83653 0
M  V30 4612 H 442.099 6.45041 1.16631 0
M  V30 4613 H 441.619 5.43211 2.54327 0
M  V30 4614 H 443.298 6.00875 2.39913 0
M  V30 4615 N 443.43 -0.535701 1.48216 0
M  V30 4616 C 444.36 -1.65014 1.65204 0
M  V30 4617 C 445.341 -1.62554 0.501011 0
M  V30 4618 O 446.526 -1.7984 0.732886 0
M  V30 4619 C 443.656 -3.03616 1.68626 0
M  V30 4620 C 442.61 -3.20932 2.83172 0
M  V30 4621 C 441.936 -4.60537 2.71679 0
M  V30 4622 C 443.236 -3.04249 4.24535 0
M  V30 4623 H 444.93 -1.51053 2.58502 0
M  V30 4624 H 442.476 -0.725262 1.24402 0
M  V30 4625 H 444.429 -3.81446 1.79099 0
M  V30 4626 H 443.153 -3.18587 0.719026 0
M  V30 4627 H 441.812 -2.45517 2.72244 0
M  V30 4628 H 441.46 -4.72336 1.72937 0
M  V30 4629 H 441.16 -4.73069 3.48538 0
M  V30 4630 H 442.684 -5.40475 2.84112 0
M  V30 4631 H 444.098 -3.71877 4.36326 0
M  V30 4632 H 442.495 -3.28278 5.02348 0
M  V30 4633 H 443.565 -2.00739 4.41397 0
M  V30 4634 N 444.908 -1.36708 -0.784132 0
M  V30 4635 C 446.157 -1.30559 -1.53744 0
M  V30 4636 C 446.47 0.111374 -1.95283 0
M  V30 4637 O 447.676 0.29527 -2.6989 0
M  V30 4638 C 446.132 -2.29098 -2.77565 0
M  V30 4639 C 445.74 -3.76258 -2.43174 0
M  V30 4640 C 447.484 -2.31936 -3.55536 0
M  V30 4641 C 445.391 -4.6656 -3.63422 0
M  V30 4642 H 444.321 -0.48518 -0.577162 0
M  V30 4643 H 446.972 -1.62101 -0.859981 0
M  V30 4644 H 445.354 -1.90557 -3.47137 0
M  V30 4645 H 446.528 -4.23565 -1.81465 0
M  V30 4646 H 444.843 -3.76246 -1.78403 0
M  V30 4647 H 447.44 -2.9661 -4.44889 0
M  V30 4648 H 447.783 -1.3294 -3.94503 0
M  V30 4649 H 448.316 -2.6912 -2.92949 0
M  V30 4650 H 445.055 -5.66638 -3.29547 0
M  V30 4651 H 444.575 -4.23966 -4.24279 0
M  V30 4652 H 446.254 -4.8309 -4.30387 0
M  V30 4653 N 446.386 1.0089 -1.21074 0
M  V30 4654 C 447.611 1.78727 -1.05221 0
M  V30 4655 C 448.036 1.83932 0.393795 0
M  V30 4656 O 447.394 1.28004 1.28393 0
M  V30 4657 C 447.442 3.20665 -1.64944 0
M  V30 4658 O 446.546 4.02632 -0.892273 0
M  V30 4659 H 445.887 0.550973 -0.370574 0
M  V30 4660 H 448.417 1.26847 -1.60534 0
M  V30 4661 H 448.427 3.71352 -1.69002 0
M  V30 4662 H 447.102 3.16191 -2.70177 0
M  V30 4663 H 445.679 3.61207 -0.926492 0
M  V30 4664 N 447.864 1.01787 1.20321 0
M  V30 4665 C 449.11 0.718699 1.90279 0
M  V30 4666 C 449.465 -0.743669 1.77447 0
M  V30 4667 O 448.758 -1.53345 1.14874 0
M  V30 4668 C 448.952 1.09076 3.40349 0
M  V30 4669 C 448.781 2.58775 3.67784 0
M  V30 4670 C 447.551 3.25578 3.86428 0
M  V30 4671 C 449.749 3.56966 3.70243 0
M  V30 4672 N 447.731 4.64495 4.01395 0
M  V30 4673 C 449.102 4.8145 3.90649 0
M  V30 4674 C 451.157 3.5092 3.53213 0
M  V30 4675 C 449.86 6.00619 3.95789 0
M  V30 4676 C 451.886 4.69493 3.59625 0
M  V30 4677 C 451.248 5.92786 3.80505 0
M  V30 4678 H 447.347 0.31468 0.715891 0
M  V30 4679 H 449.931 1.30295 1.44677 0
M  V30 4680 H 448.102 0.534839 3.847 0
M  V30 4681 H 449.834 0.744997 3.97784 0
M  V30 4682 H 446.589 2.76003 3.84862 0
M  V30 4683 H 447.013 5.36624 4.12752 0
M  V30 4684 H 451.655 2.56593 3.36035 0
M  V30 4685 H 449.373 6.95326 4.11762 0
M  V30 4686 H 452.959 4.66432 3.47754 0
M  V30 4687 H 451.839 6.83003 3.85327 0
M  V30 4688 N 449.342 -1.36122 0.79427 0
M  V30 4689 C 450.588 -1.99406 0.369452 0
M  V30 4690 C 450.921 -1.62886 -1.05743 0
M  V30 4691 O 450.196 -0.886053 -1.73145 0
M  V30 4692 C 450.479 -3.56046 0.538833 0
M  V30 4693 C 450.332 -4.02404 2.00976 0
M  V30 4694 C 451.651 -4.40079 -0.0431359 0
M  V30 4695 H 448.77 -0.724397 0.135712 0
M  V30 4696 H 451.412 -1.61461 1.00151 0
M  V30 4697 H 449.562 -3.885 0.000771004 0
M  V30 4698 H 451.234 -3.80415 2.60926 0
M  V30 4699 H 449.477 -3.53765 2.51063 0
M  V30 4700 H 450.148 -5.11344 2.07922 0
M  V30 4701 H 452.624 -4.14013 0.416228 0
M  V30 4702 H 451.5 -5.48799 0.105374 0
M  V30 4703 H 451.761 -4.27264 -1.13571 0
M  V30 4704 N 450.82 -0.546701 -1.47814 0
M  V30 4705 C 452.231 -0.110564 -1.86372 0
M  V30 4706 C 452.582 1.31678 -1.45449 0
M  V30 4707 O 451.707 1.98889 -0.852758 0
M  V30 4708 C 452.302 -0.193873 -3.38245 0
M  V30 4709 C 450.861 0.187164 -3.75934 0
M  V30 4710 C 450.008 -0.546166 -2.71868 0
M  V30 4711 H 452.959 -0.757022 -1.39481 0
M  V30 4712 H 452.98 0.590218 -3.75895 0
M  V30 4713 H 452.492 -1.23282 -3.67999 0
M  V30 4714 H 450.593 1.22762 -3.51796 0
M  V30 4715 H 450.706 -0.164083 -4.78819 0
M  V30 4716 H 449.07 0.00953904 -2.54698 0
M  V30 4717 H 449.853 -1.58606 -3.04465 0
M  V30 4718 N 452.299 1.55045 -0.282633 0
M  V30 4719 C 453.547 1.99365 0.331334 0
M  V30 4720 C 453.868 1.1725 1.55812 0
M  V30 4721 O 453.138 0.263871 1.94115 0
M  V30 4722 H 451.718 0.736397 0.125414 0
M  V30 4723 H 454.38 1.90964 -0.389711 0
M  V30 4724 H 453.476 3.0596 0.616036 0
M  V30 4725 N 453.777 0.010035 1.57597 0
M  V30 4726 C 455.024 -0.6727 1.91 0
M  V30 4727 C 455.352 -1.73219 0.884614 0
M  V30 4728 O 454.607 -1.95395 -0.109215 0
M  V30 4729 C 454.906 -1.34434 3.31153 0
M  V30 4730 C 454.572 -0.417083 4.48967 0
M  V30 4731 C 453.234 -0.161809 4.80928 0
M  V30 4732 C 455.586 0.220753 5.20732 0
M  V30 4733 C 452.914 0.739426 5.82022 0
M  V30 4734 C 455.266 1.10993 6.22787 0
M  V30 4735 C 453.93 1.37428 6.532 0
M  V30 4736 H 453.2 -0.246158 0.698918 0
M  V30 4737 H 455.847 0.0677145 1.9138 0
M  V30 4738 H 454.152 -2.15905 3.26944 0
M  V30 4739 H 455.849 -1.87883 3.54261 0
M  V30 4740 H 452.439 -0.626217 4.24001 0
M  V30 4741 H 456.623 0.0365643 4.96287 0
M  V30 4742 H 451.879 0.952139 6.03941 0
M  V30 4743 H 456.053 1.61046 6.77523 0
M  V30 4744 H 453.68 2.0743 7.31353 0
M  V30 4745 N 455.255 -1.55392 -0.262866 0
M  V30 4746 C 456.532 -1.67204 -1.01499 0
M  V30 4747 C 456.912 -0.545186 -2.03939 0
M  V30 4748 O 456.26 0.453467 -2.23955 0
M  V30 4749 C 456.47 -3.06847 -1.6627 0
M  V30 4750 C 457.818 -3.64928 -2.17054 0
M  V30 4751 O 458.842 -3.09545 -1.76239 0
M  V30 4752 O 457.701 -4.61984 -2.91947 0
M  V30 4753 H 454.795 -0.679467 -0.471438 0
M  V30 4754 H 457.341 -1.67729 -0.257918 0
M  V30 4755 H 456.113 -3.80309 -0.920915 0
M  V30 4756 H 455.736 -3.10266 -2.48638 0
M  V30 4757 N 456.733 0.527833 -1.48498 0
M  V30 4758 C 457.981 1.28101 -1.56316 0
M  V30 4759 C 458.302 1.9352 -0.239781 0
M  V30 4760 O 457.572 1.81433 0.738849 0
M  V30 4761 H 456.152 0.475793 -0.575873 0
M  V30 4762 H 458.814 0.614052 -1.84974 0
M  V30 4763 H 457.91 2.05916 -2.34532 0
M  V30 4764 N 458.211 1.37122 0.776871 0
M  V30 4765 C 459.441 1.35034 1.56363 0
M  V30 4766 C 459.849 -0.0674681 1.8908 0
M  V30 4767 O 459.192 -1.03826 1.51545 0
M  V30 4768 C 459.254 2.11894 2.90415 0
M  V30 4769 C 458.918 3.60897 2.80362 0
M  V30 4770 C 459.915 4.54887 2.51742 0
M  V30 4771 C 457.6 4.03951 2.98545 0
M  V30 4772 C 459.594 5.89909 2.41426 0
M  V30 4773 C 457.281 5.3906 2.87849 0
M  V30 4774 C 458.279 6.31852 2.5933 0
M  V30 4775 O 457.967 7.64479 2.48651 0
M  V30 4776 H 457.699 0.464402 0.49123 0
M  V30 4777 H 460.253 1.80992 0.971127 0
M  V30 4778 H 458.483 1.60618 3.51765 0
M  V30 4779 H 460.172 2.02505 3.51776 0
M  V30 4780 H 460.938 4.22934 2.37385 0
M  V30 4781 H 456.817 3.3209 3.19746 0
M  V30 4782 H 460.361 6.62304 2.19086 0
M  V30 4783 H 456.258 5.70617 3.01773 0
M  V30 4784 H 457.026 7.74742 2.64039 0
M  V30 4785 N 459.689 -1.00246 1.21608 0
M  V30 4786 C 460.914 -1.78167 1.06167 0
M  V30 4787 C 461.339 -1.84138 -0.384035 0
M  V30 4788 O 460.697 -1.28683 -1.27712 0
M  V30 4789 C 460.745 -3.19786 1.66642 0
M  V30 4790 O 459.849 -4.02153 0.913613 0
M  V30 4791 H 459.19 -0.549 0.37349 0
M  V30 4792 H 461.72 -1.25994 1.61204 0
M  V30 4793 H 461.73 -3.70451 1.70969 0
M  V30 4794 H 460.405 -3.14754 2.7185 0
M  V30 4795 H 458.982 -3.60711 0.945635 0
M  V30 4796 N 461.167 -1.02423 -1.1978 0
M  V30 4797 C 462.578 -0.748389 -1.71044 0
M  V30 4798 C 462.929 0.732398 -1.82017 0
M  V30 4799 O 462.054 1.57116 -1.48807 0
M  V30 4800 C 462.649 -1.35187 -3.1066 0
M  V30 4801 C 461.208 -1.12472 -3.59203 0
M  V30 4802 C 460.355 -1.45283 -2.36195 0
M  V30 4803 H 463.306 -1.19275 -1.04686 0
M  V30 4804 H 463.327 -0.746408 -3.73107 0
M  V30 4805 H 462.839 -2.4296 -3.02642 0
M  V30 4806 H 460.94 -0.0649983 -3.72543 0
M  V30 4807 H 461.053 -1.81016 -4.43588 0
M  V30 4808 H 459.417 -0.872034 -2.39307 0
M  V30 4809 H 460.2 -2.54129 -2.30811 0
M  V30 4810 N 462.645 1.35699 -0.801477 0
M  V30 4811 C 463.892 1.98913 -0.379459 0
M  V30 4812 C 464.22 1.63592 1.05204 0
M  V30 4813 O 463.475 0.888563 1.74365 0
M  V30 4814 C 463.774 3.53828 -0.504041 0
M  V30 4815 C 463.44 4.09002 -1.8981 0
M  V30 4816 C 462.102 4.23783 -2.27951 0
M  V30 4817 C 464.454 4.38939 -2.81038 0
M  V30 4818 C 461.782 4.65816 -3.56696 0
M  V30 4819 C 464.134 4.82409 -4.09224 0
M  V30 4820 C 462.798 4.95395 -4.4737 0
M  V30 4821 H 462.068 0.727874 -0.138854 0
M  V30 4822 H 464.715 1.61994 -1.02128 0
M  V30 4823 H 463.02 3.91175 0.221242 0
M  V30 4824 H 464.717 4.00687 -0.158361 0
M  V30 4825 H 461.307 3.97946 -1.59176 0
M  V30 4826 H 465.491 4.27077 -2.52821 0
M  V30 4827 H 460.747 4.74059 -3.86106 0
M  V30 4828 H 464.921 5.04535 -4.80018 0
M  V30 4829 H 462.548 5.27724 -5.47185 0
M  V30 4830 N 464.123 0.554532 1.47522 0
M  V30 4831 C 465.539 0.214107 1.58157 0
M  V30 4832 C 465.739 -1.28331 1.55349 0
M  V30 4833 O 464.795 -2.06329 1.45549 0
M  V30 4834 C 466.108 0.838391 2.88776 0
M  V30 4835 C 467.656 0.809374 3.02354 0
M  V30 4836 C 468.131 1.41268 4.35669 0
M  V30 4837 N 469.622 1.37574 4.42298 0
M  V30 4838 C 470.357 1.8122 5.4401 0
M  V30 4839 N 469.853 2.3271 6.52547 0
M  V30 4840 N 471.646 1.72307 5.35039 0
M  V30 4841 H 463.797 1.52744 1.4759 0
M  V30 4842 H 466.06 0.636812 0.702264 0
M  V30 4843 H 465.766 1.89065 2.96559 0
M  V30 4844 H 465.64 0.329847 3.75755 0
M  V30 4845 H 468.027 -0.234187 2.94169 0
M  V30 4846 H 468.108 1.35565 2.16924 0
M  V30 4847 H 467.752 2.45529 4.4461 0
M  V30 4848 H 467.682 0.841871 5.19827 0
M  V30 4849 H 470.173 0.999081 3.64454 0
M  V30 4850 H 470.486 2.63944 7.26329 0
M  V30 4851 H 468.831 2.36719 6.53444 0
M  V30 4852 H 472.022 1.3186 4.49144 0
M  V30 4853 H 472.195 2.06641 6.14169 0
M  V30 4854 N 465.601 -1.54893 0.290851 0
M  V30 4855 C 466.549 -2.24579 -0.605576 0
M  V30 4856 C 467.543 -1.24824 -1.14522 0
M  V30 4857 O 468.749 -1.42706 -1.09704 0
M  V30 4858 H 465.124 -0.720946 -0.213872 0
M  V30 4859 H 467.095 -2.984 0.0048173 0
M  V30 4860 C 465.844 -2.99224 -1.77088 0
M  V30 4861 H 465.167 -3.75782 -1.36484 0
M  V30 4862 H 466.607 -3.51281 -2.3744 0
M  V30 4863 C 465.066 -2.05602 -2.66888 0
M  V30 4864 O 465.596 -1.61745 -3.67698 0
M  V30 4865 N 463.802 -1.71771 -2.34399 0
M  V30 4866 H 463.349 -2.07633 -1.52468 0
M  V30 4867 H 463.307 -1.09403 -2.94751 0
M  V30 4868 N 467.08 -0.0183926 -1.57589 0
M  V30 4869 C 468.32 0.666846 -1.93216 0
M  V30 4870 C 468.684 1.69905 -0.894215 0
M  V30 4871 O 469.885 2.436 -1.13633 0
M  V30 4872 C 468.156 1.27684 -3.33814 0
M  V30 4873 S 469.715 1.98464 -3.91353 0
M  V30 4874 H 466.533 0.219826 -0.676164 0
M  V30 4875 H 469.135 -0.0794893 -1.95338 0
M  V30 4876 H 467.839 0.513006 -4.07181 0
M  V30 4877 H 467.37 2.06071 -3.3511 0
M  V30 4878 H 469.385 3.26189 -3.73918 0
M  V30 4879 N 468.558 1.5553 0.254621 0
M  V30 4880 C 469.783 1.81383 1.00573 0
M  V30 4881 C 470.208 0.594419 1.78461 0
M  V30 4882 O 469.566 -0.456403 1.75461 0
M  V30 4883 C 469.614 3.04892 1.92545 0
M  V30 4884 O 468.718 2.81266 3.01601 0
M  V30 4885 H 468.059 0.598969 0.286587 0
M  V30 4886 H 470.589 2.02703 0.277952 0
M  V30 4887 H 470.599 3.34119 2.34155 0
M  V30 4888 H 469.274 3.93287 1.3527 0
M  V30 4889 H 467.851 2.63185 2.64174 0
M  V30 4890 N 470.036 -0.519951 1.48776 0
M  V30 4891 C 471.285 -1.27175 1.56555 0
M  V30 4892 C 471.598 -1.9401 0.248869 0
M  V30 4893 O 472.804 -2.70725 0.205004 0
M  V30 4894 C 471.26 -2.30811 2.76142 0
M  V30 4895 C 470.868 -1.7 4.14493 0
M  V30 4896 C 472.612 -3.06937 2.9324 0
M  V30 4897 C 470.519 -2.71635 5.25327 0
M  V30 4898 H 469.449 -0.478329 0.582853 0
M  V30 4899 H 472.1 -0.547916 1.75129 0
M  V30 4900 H 470.482 -3.06274 2.51023 0
M  V30 4901 H 471.656 -1.00658 4.49672 0
M  V30 4902 H 469.971 -1.06331 4.02595 0
M  V30 4903 H 472.568 -3.82905 3.73213 0
M  V30 4904 H 472.911 -3.63409 2.03075 0
M  V30 4905 H 473.444 -2.38589 3.18308 0
M  V30 4906 H 470.183 -2.1997 6.1749 0
M  V30 4907 H 469.703 -3.39275 4.94624 0
M  V30 4908 H 471.382 -3.34429 5.53865 0
M  V30 4909 N 471.514 -1.37532 -0.769588 0
M  V30 4910 C 472.446 -1.29347 -1.89214 0
M  V30 4911 C 473.459 -0.208842 -1.61455 0
M  V30 4912 O 474.648 -0.465158 -1.72333 0
M  V30 4913 C 471.748 -0.977649 -3.24492 0
M  V30 4914 C 470.921 -2.16817 -3.7988 0
M  V30 4915 C 469.98 -1.82229 -4.93639 0
M  V30 4916 O 469.006 -2.54548 -5.09111 0
M  V30 4917 N 470.208 -0.767696 -5.75401 0
M  V30 4918 H 472.973 -2.26073 -1.96751 0
M  V30 4919 H 470.534 -1.31185 -0.948795 0
M  V30 4920 H 472.526 -0.727065 -3.98115 0
M  V30 4921 H 471.096 -0.0988777 -3.12444 0
M  V30 4922 H 470.316 -2.58038 -2.9801 0
M  V30 4923 H 471.604 -2.96308 -4.13617 0
M  V30 4924 H 471.002 -0.167626 -5.65452 0
M  V30 4925 H 469.559 -0.576973 -6.49241 0
M  V30 4926 N 472.992 0.995999 -1.22138 0
M  V30 4927 C 474.238 1.73767 -1.04561 0
M  V30 4928 C 474.571 1.89633 0.418698 0
M  V30 4929 O 473.846 1.43723 1.3105 0
M  V30 4930 C 474.129 3.14505 -1.75382 0
M  V30 4931 C 473.982 3.06306 -3.29388 0
M  V30 4932 C 475.301 4.13615 -1.50369 0
M  V30 4933 H 472.42 0.630728 -0.38125 0
M  V30 4934 H 475.062 1.16057 -1.50435 0
M  V30 4935 H 473.212 3.63775 -1.36383 0
M  V30 4936 H 474.884 2.64681 -3.77812 0
M  V30 4937 H 473.127 2.43186 -3.59226 0
M  V30 4938 H 473.798 4.05884 -3.74116 0
M  V30 4939 H 476.274 3.73089 -1.84239 0
M  V30 4940 H 475.15 5.10212 -2.02421 0
M  V30 4941 H 475.411 4.39949 -0.435611 0
M  V30 4942 N 474.47 1.03057 1.19235 0
M  V30 4943 C 475.417 0.612832 2.22515 0
M  V30 4944 C 476.387 -0.374224 1.61829 0
M  V30 4945 O 477.572 -0.270501 1.88873 0
M  V30 4946 C 474.712 -0.028475 3.45088 0
M  V30 4947 C 473.825 1.00483 4.20151 0
M  V30 4948 C 472.96 0.333102 5.30155 0
M  V30 4949 C 471.999 1.3522 5.96977 0
M  V30 4950 N 471.136 0.70616 6.9854 0
M  V30 4951 H 475.976 1.49812 2.57605 0
M  V30 4952 H 473.513 0.749658 1.26564 0
M  V30 4953 H 475.471 -0.417548 4.15105 0
M  V30 4954 H 474.101 -0.877334 3.10649 0
M  V30 4955 H 473.153 1.51194 3.49062 0
M  V30 4956 H 474.465 1.77929 4.65986 0
M  V30 4957 H 473.619 -0.110725 6.06599 0
M  V30 4958 H 472.358 -0.473547 4.85396 0
M  V30 4959 H 471.363 1.80627 5.19282 0
M  V30 4960 H 472.588 2.16037 6.4382 0
M  V30 4961 H 470.534 -0.0803667 6.55951 0
M  V30 4962 H 470.451 1.41848 7.42573 0
M  V30 4963 H 471.719 0.286391 7.78974 0
M  V30 4964 N 475.948 -1.35272 0.808662 0
M  V30 4965 C 476.858 -2.33546 0.222079 0
M  V30 4966 C 477.874 -1.6196 -0.636011 0
M  V30 4967 O 479.05 -1.93822 -0.547274 0
M  V30 4968 C 476.115 -3.41148 -0.61795 0
M  V30 4969 C 475.176 -4.28507 0.260875 0
M  V30 4970 C 474.409 -5.3097 -0.539156 0
M  V30 4971 O 474.632 -5.42123 -1.77367 0
M  V30 4972 O 473.566 -6.01858 0.0710526 0
M  V30 4973 H 477.392 -2.85515 1.03512 0
M  V30 4974 H 474.977 -1.38079 0.570495 0
M  V30 4975 H 476.859 -4.06889 -1.09634 0
M  V30 4976 H 475.534 -2.91447 -1.40855 0
M  V30 4977 H 474.441 -3.6574 0.786451 0
M  V30 4978 H 475.774 -4.81611 1.01547 0
M  V30 4979 N 477.426 -0.562348 -1.47226 0
M  V30 4980 C 478.389 0.172056 -2.28553 0
M  V30 4981 C 479.389 0.837928 -1.37242 0
M  V30 4982 O 480.579 0.693001 -1.59822 0
M  V30 4983 C 477.711 1.25223 -3.17068 0
M  V30 4984 H 478.904 -0.542401 -2.94954 0
M  V30 4985 H 476.457 -0.319493 -1.53 0
M  V30 4986 H 477.192 1.99892 -2.55369 0
M  V30 4987 H 476.977 0.779515 -3.84273 0
M  V30 4988 H 478.467 1.76791 -3.78332 0
M  V30 4989 N 478.904 1.54736 -0.299062 0
M  V30 4990 C 480.181 1.92187 0.363802 0
M  V30 4991 C 480.561 1.22607 1.71845 0
M  V30 4992 O 479.909 0.361141 2.25628 0
M  V30 4993 C 480.119 3.45678 0.480377 0
M  V30 4994 C 481.467 4.17885 0.752147 0
M  V30 4995 O 482.491 3.51702 0.564264 0
M  V30 4996 O 481.35 5.35048 1.11294 0
M  V30 4997 H 478.444 0.801681 0.203066 0
M  V30 4998 H 480.99 1.66115 -0.346978 0
M  V30 4999 H 479.762 3.88443 -0.471999 0
M  V30 5000 H 479.385 3.77779 1.2397 0
M  V30 5001 N 480.382 0.0267497 1.57577 0
M  V30 5002 C 481.793 -0.512413 1.79531 0
M  V30 5003 C 482.144 -1.72391 0.936791 0
M  V30 5004 O 481.269 -2.15903 0.146543 0
M  V30 5005 C 481.864 -0.936378 3.25603 0
M  V30 5006 C 480.423 -1.42067 3.4856 0
M  V30 5007 C 479.57 -0.384278 2.74624 0
M  V30 5008 H 482.521 0.252797 1.56674 0
M  V30 5009 H 482.542 -1.80088 3.35184 0
M  V30 5010 H 482.054 -0.0544332 3.88062 0
M  V30 5011 H 480.155 -2.32262 2.9135 0
M  V30 5012 H 480.268 -1.42968 4.57271 0
M  V30 5013 H 478.632 -0.851855 2.40032 0
M  V30 5014 H 479.415 0.489159 3.39797 0
M  V30 5015 N 481.861 -1.55662 -0.24637 0
M  V30 5016 C 482.791 -1.93377 -1.30873 0
M  V30 5017 C 483.772 -0.798773 -1.50179 0
M  V30 5018 O 484.957 -1.0591 -1.62778 0
M  V30 5019 C 482.087 -2.22893 -2.66338 0
M  V30 5020 C 481.041 -3.38649 -2.61727 0
M  V30 5021 C 480.367 -3.53708 -4.00992 0
M  V30 5022 C 481.667 -4.74323 -2.18666 0
M  V30 5023 H 483.361 -2.82363 -0.995552 0
M  V30 5024 H 480.907 -1.35854 -0.477464 0
M  V30 5025 H 482.86 -2.47866 -3.40794 0
M  V30 5026 H 481.584 -1.30733 -2.99293 0
M  V30 5027 H 480.243 -3.13685 -1.89729 0
M  V30 5028 H 479.891 -2.58967 -4.31214 0
M  V30 5029 H 479.591 -4.31551 -3.98795 0
M  V30 5030 H 481.115 -3.81003 -4.77147 0
M  V30 5031 H 482.529 -4.98665 -2.82854 0
M  V30 5032 H 480.926 -5.55273 -2.27579 0
M  V30 5033 H 481.996 -4.71349 -1.13834 0
M  V30 5034 N 483.339 0.512053 -1.4905 0
M  V30 5035 C 484.564 1.2959 -1.6193 0
M  V30 5036 C 484.989 1.85906 -0.286454 0
M  V30 5037 O 484.347 1.65312 0.744426 0
M  V30 5038 C 484.395 2.40987 -2.68249 0
M  V30 5039 O 483.499 3.44531 -2.26654 0
M  V30 5040 H 482.84 0.383053 -0.542371 0
M  V30 5041 H 485.37 0.614231 -1.95162 0
M  V30 5042 H 485.38 2.86913 -2.90078 0
M  V30 5043 H 484.055 1.99361 -3.65004 0
M  V30 5044 H 482.632 3.046 -2.15112 0
M  V30 5045 N 484.817 1.37938 0.762283 0
M  V30 5046 C 485.765 1.34569 1.89721 0
M  V30 5047 C 486.759 0.232929 1.67791 0
M  V30 5048 O 487.965 0.401485 1.75465 0
M  V30 5049 H 484.34 0.419594 0.624055 0
M  V30 5050 H 486.311 2.30357 1.8968 0
M  V30 5051 C 485.06 1.17898 3.27101 0
M  V30 5052 H 484.383 2.02781 3.44558 0
M  V30 5053 H 485.823 1.19593 4.06784 0
M  V30 5054 C 484.282 -0.114728 3.36705 0
M  V30 5055 O 484.812 -1.0949 3.8649 0
M  V30 5056 N 483.018 -0.16863 2.9011 0
M  V30 5057 H 482.565 0.62967 2.49786 0
M  V30 5058 H 482.523 -1.03383 2.96916 0
M  V30 5059 N 486.295 -0.989507 1.22664 0
M  V30 5060 C 487.543 -1.72612 1.05117 0
M  V30 5061 C 487.864 -1.90552 -0.414131 0
M  V30 5062 O 487.134 -1.4676 -1.29762 0
M  V30 5063 H 485.714 -0.639555 0.385977 0
M  V30 5064 H 488.376 -1.19158 1.54232 0
M  V30 5065 H 487.472 -2.71926 1.53175 0
M  V30 5066 N 487.773 -1.03688 -1.18687 0
M  V30 5067 C 488.998 -0.757819 -1.93059 0
M  V30 5068 C 489.423 0.678353 -1.75442 0
M  V30 5069 O 488.781 1.46938 -1.06203 0
M  V30 5070 C 488.829 -1.12423 -3.42627 0
M  V30 5071 O 487.933 -0.247505 -4.11657 0
M  V30 5072 H 487.274 -0.279245 -0.602427 0
M  V30 5073 H 489.804 -1.3857 -1.5053 0
M  V30 5074 H 489.814 -1.08454 -3.93322 0
M  V30 5075 H 488.489 -2.17049 -3.54771 0
M  V30 5076 H 487.066 -0.34649 -3.71287 0
M  V30 5077 N 489.251 1.34841 -0.815825 0
M  V30 5078 C 490.497 1.98793 -0.401129 0
M  V30 5079 C 490.83 1.64548 1.03139 0
M  V30 5080 O 490.105 0.913487 1.71714 0
M  V30 5081 C 490.388 3.55143 -0.595409 0
M  V30 5082 C 490.241 3.99155 -2.07352 0
M  V30 5083 C 491.56 4.40092 -0.0268823 0
M  V30 5084 H 488.679 0.722146 -0.14722 0
M  V30 5085 H 491.321 1.59847 -1.02707 0
M  V30 5086 H 489.471 3.8845 -0.0625779 0
M  V30 5087 H 491.143 3.76216 -2.66945 0
M  V30 5088 H 489.386 3.49726 -2.56659 0
M  V30 5089 H 490.057 5.07971 -2.1603 0
M  V30 5090 H 492.533 4.13298 -0.482042 0
M  V30 5091 H 491.409 5.48562 -0.19267 0
M  V30 5092 H 491.67 4.29016 1.06759 0
M  V30 5093 N 490.729 0.570148 1.46925 0
M  V30 5094 C 491.662 -0.218362 2.27153 0
M  V30 5095 C 492.64 -0.90847 1.34854 0
M  V30 5096 O 493.824 -0.924875 1.64251 0
M  V30 5097 C 490.951 -1.3122 3.12248 0
M  V30 5098 C 489.997 -0.729277 4.20219 0
M  V30 5099 S 490.83 0.434159 5.33737 0
M  V30 5100 C 491.986 -0.661188 6.22398 0
M  V30 5101 H 492.219 0.462393 2.93682 0
M  V30 5102 H 489.752 0.356753 1.50222 0
M  V30 5103 H 491.71 -1.93856 3.61842 0
M  V30 5104 H 490.371 -1.96485 2.45056 0
M  V30 5105 H 489.564 -1.5511 4.79538 0
M  V30 5106 H 489.166 -0.178836 3.73572 0
M  V30 5107 H 491.458 -1.55006 6.5953 0
M  V30 5108 H 492.401 -0.105046 7.08022 0
M  V30 5109 H 492.809 -0.959682 5.56283 0
M  V30 5110 N 492.207 -1.54576 0.307264 0
M  V30 5111 C 493.456 -1.99442 -0.300976 0
M  V30 5112 C 493.769 -1.19928 -1.5452 0
M  V30 5113 O 494.975 -1.55092 -2.22842 0
M  V30 5114 C 493.431 -3.55084 -0.586809 0
M  V30 5115 C 493.039 -4.43413 0.639438 0
M  V30 5116 C 494.783 -4.0846 -1.1559 0
M  V30 5117 C 492.69 -5.90499 0.326411 0
M  V30 5118 H 491.62 -0.744986 -0.116238 0
M  V30 5119 H 494.271 -1.787 0.416947 0
M  V30 5120 H 492.653 -3.71749 -1.36449 0
M  V30 5121 H 493.827 -4.38522 1.41545 0
M  V30 5122 H 492.142 -4.00842 1.1276 0
M  V30 5123 H 494.739 -5.15926 -1.40445 0
M  V30 5124 H 495.082 -3.59443 -2.10015 0
M  V30 5125 H 495.615 -3.95362 -0.439778 0
M  V30 5126 H 492.354 -6.43676 1.23939 0
M  V30 5127 H 491.874 -5.98382 -0.412212 0
M  V30 5128 H 493.553 -6.46962 -0.0697393 0
M  V30 5129 N 493.685 -0.035106 -1.57561 0
M  V30 5130 C 494.932 0.642229 -1.92046 0
M  V30 5131 C 495.26 1.7179 -0.91206 0
M  V30 5132 O 494.515 1.95544 0.0781153 0
M  V30 5133 C 494.814 1.29149 -3.3325 0
M  V30 5134 C 494.48 0.345604 -4.49574 0
M  V30 5135 C 493.142 0.0852775 -4.81124 0
M  V30 5136 C 495.494 -0.303569 -5.20315 0
M  V30 5137 C 492.822 -0.831927 -5.80772 0
M  V30 5138 C 495.174 -1.20886 -6.20942 0
M  V30 5139 C 493.838 -1.47802 -6.50931 0
M  V30 5140 H 493.108 0.235008 -0.702746 0
M  V30 5141 H 495.755 -0.0981529 -1.91248 0
M  V30 5142 H 494.06 2.10676 -3.30337 0
M  V30 5143 H 495.757 1.82223 -3.57205 0
M  V30 5144 H 492.347 0.558683 -4.24943 0
M  V30 5145 H 496.531 -0.115515 -4.96166 0
M  V30 5146 H 491.787 -1.0481 -6.02349 0
M  V30 5147 H 495.961 -1.71804 -6.74875 0
M  V30 5148 H 493.588 -2.19039 -7.2796 0
M  V30 5149 N 495.163 1.55791 0.238111 0
M  V30 5150 C 496.111 1.91885 1.31464 0
M  V30 5151 C 497.105 0.798929 1.49377 0
M  V30 5152 O 498.311 0.983626 1.50747 0
M  V30 5153 H 494.686 0.609551 0.440399 0
M  V30 5154 H 496.657 2.81747 0.982925 0
M  V30 5155 C 495.406 2.23763 2.6613 0
M  V30 5156 H 494.729 3.09444 2.53149 0
M  V30 5157 H 496.169 2.52915 3.40309 0
M  V30 5158 C 494.628 1.05699 3.1989 0
M  V30 5159 O 495.158 0.309524 4.00506 0
M  V30 5160 N 493.364 0.845251 2.78036 0
M  V30 5161 H 492.911 1.4548 2.12588 0
M  V30 5162 H 492.869 0.0569973 3.14348 0
M  V30 5163 N 496.642 -0.504142 1.49319 0
M  V30 5164 C 497.87 -1.28256 1.62351 0
M  V30 5165 C 498.285 -1.86502 0.293682 0
M  V30 5166 O 497.642 -1.67678 -0.720449 0
M  V30 5167 C 497.693 -2.41507 2.68992 0
M  V30 5168 O 497.414 -1.85656 3.96817 0
M  V30 5169 C 498.915 -3.32929 2.927 0
M  V30 5170 H 496.135 -0.389115 0.546654 0
M  V30 5171 H 498.679 -0.605531 1.95329 0
M  V30 5172 H 496.834 -3.05046 2.38801 0
M  V30 5173 H 497.248 -2.59981 4.55533 0
M  V30 5174 H 498.722 -4.0868 3.71058 0
M  V30 5175 H 499.199 -3.89733 2.02496 0
M  V30 5176 H 499.805 -2.75158 3.24296 0
M  V30 5177 N 498.12 -1.38341 -0.754957 0
M  V30 5178 C 499.345 -1.37882 -1.5493 0
M  V30 5179 C 499.77 0.0296385 -1.88077 0
M  V30 5180 O 499.128 1.01133 -1.50472 0
M  V30 5181 C 499.176 -2.23996 -2.82592 0
M  V30 5182 O 498.28 -1.65612 -3.77686 0
M  V30 5183 H 497.621 -0.470384 -0.468652 0
M  V30 5184 H 500.151 -1.82084 -0.933082 0
M  V30 5185 H 500.161 -2.37806 -3.3153 0
M  V30 5186 H 498.836 -3.26365 -2.57796 0
M  V30 5187 H 497.413 -1.60936 -3.36384 0
M  V30 5188 N 499.598 0.982988 -1.23187 0
M  V30 5189 C 500.561 2.05649 -1.01198 0
M  V30 5190 C 501.561 1.6078 0.0252464 0
M  V30 5191 O 502.751 1.72878 -0.214243 0
M  V30 5192 C 499.883 3.36744 -0.530656 0
M  V30 5193 H 501.076 2.2659 -1.96461 0
M  V30 5194 H 498.629 1.15602 -1.05195 0
M  V30 5195 H 499.364 3.21492 0.425873 0
M  V30 5196 H 499.149 3.7065 -1.2791 0
M  V30 5197 H 500.639 4.15705 -0.397366 0
M  V30 5198 N 501.076 1.04316 1.18135 0
M  V30 5199 C 502.006 0.657299 2.24058 0
M  V30 5200 C 502.987 -0.340678 1.66654 0
M  V30 5201 O 504.172 -0.220223 1.92947 0
M  V30 5202 C 501.302 0.0220715 3.47293 0
M  V30 5203 C 500.256 0.943857 4.17463 0
M  V30 5204 C 499.582 0.172973 5.3442 0
M  V30 5205 C 500.882 2.26409 4.70677 0
M  V30 5206 H 502.576 1.5428 2.56589 0
M  V30 5207 H 500.122 0.743263 1.23335 0
M  V30 5208 H 502.075 -0.259607 4.206 0
M  V30 5209 H 500.799 -0.898323 3.14003 0
M  V30 5210 H 499.458 1.20996 3.46057 0
M  V30 5211 H 499.106 -0.749907 4.97379 0
M  V30 5212 H 498.806 0.787098 5.82304 0
M  V30 5213 H 500.33 -0.101628 6.10515 0
M  V30 5214 H 501.744 2.04294 5.35665 0
M  V30 5215 H 500.141 2.8314 5.29105 0
M  V30 5216 H 501.211 2.90883 3.87962 0
M  V30 5217 N 502.554 -1.34406 0.822964 0
M  V30 5218 C 503.965 -1.8069 0.469879 0
M  V30 5219 C 504.316 -1.68223 -1.00972 0
M  V30 5220 O 503.441 -1.22226 -1.78577 0
M  V30 5221 C 504.036 -3.28064 0.846118 0
M  V30 5222 C 502.595 -3.72428 0.545402 0
M  V30 5223 C 501.742 -2.56116 1.06301 0
M  V30 5224 H 504.693 -1.22153 1.01313 0
M  V30 5225 H 504.714 -3.80205 0.149922 0
M  V30 5226 H 504.226 -3.37107 1.92304 0
M  V30 5227 H 502.327 -3.68924 -0.522109 0
M  V30 5228 H 502.44 -4.66548 1.0895 0
M  V30 5229 H 500.804 -2.50048 0.484554 0
M  V30 5230 H 501.587 -2.67928 2.14638 0
M  V30 5231 N 504.032 -0.577932 -1.46621 0
M  V30 5232 C 504.982 0.178869 -2.27297 0
M  V30 5233 C 505.966 0.866279 -1.35589 0
M  V30 5234 O 507.158 0.761163 -1.59798 0
M  V30 5235 C 504.287 1.19499 -3.2183 0
M  V30 5236 C 503.373 0.50994 -4.21023 0
M  V30 5237 N 503.764 -0.43177 -5.03954 0
M  V30 5238 C 502.062 0.761287 -4.39455 0
M  V30 5239 C 502.763 -0.831693 -5.75724 0
M  V30 5240 N 501.739 -0.181897 -5.43296 0
M  V30 5241 H 505.541 -0.544859 -2.88805 0
M  V30 5242 H 503.055 -0.399373 -1.57413 0
M  V30 5243 H 505.052 1.75131 -3.78332 0
M  V30 5244 H 503.712 1.91959 -2.61881 0
M  V30 5245 H 504.723 -0.807045 -5.11573 0
M  V30 5246 H 501.4 1.47282 -3.90659 0
M  V30 5247 H 502.79 -1.6067 -6.52407 0
M  V30 5248 N 505.51 1.54411 -0.315457 0
M  V30 5249 C 506.44 2.27002 0.547039 0
M  V30 5250 C 507.421 1.27492 1.12605 0
M  V30 5251 O 508.606 1.5629 1.15269 0
M  V30 5252 C 505.736 3.02171 1.71201 0
M  V30 5253 C 504.69 4.0895 1.26268 0
M  V30 5254 C 504.016 4.71915 2.51396 0
M  V30 5255 C 505.316 5.20891 0.383419 0
M  V30 5256 H 507.01 2.99343 -0.0584517 0
M  V30 5257 H 504.556 1.4397 -0.0295527 0
M  V30 5258 H 506.509 3.51681 2.32161 0
M  V30 5259 H 505.233 2.27433 2.34397 0
M  V30 5260 H 503.892 3.60312 0.676062 0
M  V30 5261 H 503.54 3.93801 3.12937 0
M  V30 5262 H 503.24 5.44039 2.22026 0
M  V30 5263 H 504.764 5.24195 3.13133 0
M  V30 5264 H 506.178 5.66206 0.899082 0
M  V30 5265 H 504.575 5.99821 0.182857 0
M  V30 5266 H 505.645 4.81324 -0.587821 0
M  V30 5267 N 506.988 0.0434614 1.5754 0
M  V30 5268 C 508.218 -0.640905 1.96408 0
M  V30 5269 C 508.626 -1.65365 0.919297 0
M  V30 5270 O 507.969 -1.83395 -0.105795 0
M  V30 5271 C 508.031 -1.39141 3.31482 0
M  V30 5272 C 507.695 -0.535375 4.53853 0
M  V30 5273 C 508.692 0.195335 5.19533 0
M  V30 5274 C 506.377 -0.468564 5.0011 0
M  V30 5275 C 508.371 0.981377 6.298 0
M  V30 5276 C 506.058 0.321171 6.10255 0
M  V30 5277 C 507.056 1.04484 6.74961 0
M  V30 5278 O 506.744 1.8216 7.8299 0
M  V30 5279 H 506.476 -0.180584 0.651433 0
M  V30 5280 H 509.03 0.103848 2.05137 0
M  V30 5281 H 507.26 -2.18162 3.19284 0
M  V30 5282 H 508.949 -1.96526 3.55151 0
M  V30 5283 H 509.715 0.15314 4.84758 0
M  V30 5284 H 505.594 -1.02142 4.49542 0
M  V30 5285 H 509.138 1.54674 6.80237 0
M  V30 5286 H 505.035 0.365032 6.44467 0
M  V30 5287 H 505.803 1.74289 7.99728 0
M  V30 5288 N 508.466 -1.55915 -0.229846 0
M  V30 5289 C 509.398 -1.88209 -1.30805 0
M  V30 5290 C 510.411 -0.769672 -1.43457 0
M  V30 5291 O 511.6 -1.04792 -1.44502 0
M  V30 5292 C 508.7 -2.06829 -2.68468 0
M  V30 5293 C 507.873 -3.37798 -2.77869 0
M  V30 5294 C 506.932 -3.45952 -3.96489 0
M  V30 5295 O 505.958 -4.19043 -3.85216 0
M  V30 5296 N 507.16 -2.76488 -5.10426 0
M  V30 5297 H 509.925 -2.81286 -1.03431 0
M  V30 5298 H 507.486 -1.5636 -0.41991 0
M  V30 5299 H 509.478 -2.09608 -3.46189 0
M  V30 5300 H 508.048 -1.20416 -2.88477 0
M  V30 5301 H 507.268 -3.4719 -1.86689 0
M  V30 5302 H 508.556 -4.24091 -2.81113 0
M  V30 5303 H 507.954 -2.16868 -5.2248 0
M  V30 5304 H 506.511 -2.84938 -5.8622 0
M  V30 5305 N 509.944 0.496216 -1.49584 0
M  V30 5306 C 511.193 1.24668 -1.58558 0
M  V30 5307 C 511.506 1.9359 -0.279703 0
M  V30 5308 O 512.712 2.70365 -0.248048 0
M  V30 5309 C 511.168 2.26388 -2.79779 0
M  V30 5310 C 510.776 1.63384 -4.17145 0
M  V30 5311 C 512.52 3.02233 -2.98086 0
M  V30 5312 C 510.427 2.63243 -5.29582 0
M  V30 5313 H 509.357 0.468995 -0.590389 0
M  V30 5314 H 512.008 0.519985 -1.75978 0
M  V30 5315 H 510.39 3.02241 -2.55863 0
M  V30 5316 H 511.564 0.93491 -4.51216 0
M  V30 5317 H 509.879 0.999121 -4.04236 0
M  V30 5318 H 512.476 3.76919 -3.79257 0
M  V30 5319 H 512.819 3.60132 -2.08831 0
M  V30 5320 H 513.352 2.33495 -3.22063 0
M  V30 5321 H 510.091 2.10119 -6.20911 0
M  V30 5322 H 509.611 3.31363 -4.99959 0
M  V30 5323 H 511.29 3.25575 -5.59115 0
M  V30 5324 N 511.423 1.38739 0.74761 0
M  V30 5325 C 512.37 1.36449 1.86146 0
M  V30 5326 C 513.34 0.226098 1.64554 0
M  V30 5327 O 514.525 0.41926 1.86137 0
M  V30 5328 C 511.665 1.2013 3.23516 0
M  V30 5329 C 510.778 2.43407 3.56899 0
M  V30 5330 C 509.913 2.19773 4.83605 0
M  V30 5331 C 508.952 3.3879 5.09792 0
M  V30 5332 N 508.089 3.14553 6.27695 0
M  V30 5333 H 512.929 2.3167 1.87438 0
M  V30 5334 H 510.466 1.15094 0.916063 0
M  V30 5335 H 512.424 1.08683 4.02795 0
M  V30 5336 H 511.054 0.285453 3.21535 0
M  V30 5337 H 510.106 2.65504 2.72418 0
M  V30 5338 H 511.418 3.32094 3.72176 0
M  V30 5339 H 510.572 2.05496 5.70838 0
M  V30 5340 H 509.311 1.28461 4.70478 0
M  V30 5341 H 508.316 3.53579 4.21025 0
M  V30 5342 H 509.541 4.30986 5.24812 0
M  V30 5343 H 507.487 2.25893 6.1588 0
M  V30 5344 H 507.404 3.96791 6.435 0
M  V30 5345 H 508.672 3.03943 7.17801 0
M  V30 5346 N 512.901 -0.976442 1.23707 0
M  V30 5347 C 513.833 -2.07212 0.979574 0
M  V30 5348 C 514.846 -1.6273 -0.0478528 0
M  V30 5349 O 516.035 -1.77506 0.18815 0
M  V30 5350 C 513.135 -3.35835 0.45479 0
M  V30 5351 C 512.308 -4.09268 1.54331 0
M  V30 5352 C 511.367 -5.16166 1.02271 0
M  V30 5353 O 510.393 -5.42827 1.71254 0
M  V30 5354 N 511.595 -5.80313 -0.147419 0
M  V30 5355 H 514.36 -2.29878 1.92292 0
M  V30 5356 H 511.921 -1.14343 1.14618 0
M  V30 5357 H 513.913 -4.04597 0.0914631 0
M  V30 5358 H 512.483 -3.10106 -0.394068 0
M  V30 5359 H 511.703 -3.34906 2.07923 0
M  V30 5360 H 512.991 -4.55095 2.27522 0
M  V30 5361 H 512.389 -5.61043 -0.724353 0
M  V30 5362 H 510.946 -6.50231 -0.451972 0
M  V30 5363 N 514.379 -1.04941 -1.1758 0
M  V30 5364 C 515.309 -0.669172 -2.23706 0
M  V30 5365 C 516.29 0.331835 -1.66832 0
M  V30 5366 O 517.475 0.209988 -1.93061 0
M  V30 5367 C 514.605 -0.0404889 -3.47276 0
M  V30 5368 C 513.559 -0.965983 -4.16957 0
M  V30 5369 C 512.885 -0.201312 -5.34321 0
M  V30 5370 C 514.185 -2.28902 -4.69469 0
M  V30 5371 H 515.879 -1.55639 -2.55767 0
M  V30 5372 H 513.425 -0.749793 -1.22939 0
M  V30 5373 H 515.378 0.237298 -4.20731 0
M  V30 5374 H 514.102 0.881658 -3.14475 0
M  V30 5375 H 512.761 -1.22829 -3.45411 0
M  V30 5376 H 512.409 0.723519 -4.97769 0
M  V30 5377 H 512.109 -0.817968 -5.81879 0
M  V30 5378 H 513.633 0.0692499 -6.10561 0
M  V30 5379 H 515.047 -2.07132 -5.34574 0
M  V30 5380 H 513.444 -2.85942 -5.27596 0
M  V30 5381 H 514.514 -2.92937 -3.86414 0
M  V30 5382 N 515.857 1.33968 -0.830081 0
M  V30 5383 C 516.789 2.28194 -0.21448 0
M  V30 5384 C 517.802 1.5135 0.599752 0
M  V30 5385 O 518.991 1.73286 0.42826 0
M  V30 5386 C 516.091 3.31221 0.717356 0
M  V30 5387 C 515.264 4.37365 -0.055613 0
M  V30 5388 C 514.323 5.2011 0.798231 0
M  V30 5389 O 513.349 5.68691 0.240616 0
M  V30 5390 N 514.551 5.40523 2.11695 0
M  V30 5391 H 517.316 2.81662 -1.02405 0
M  V30 5392 H 514.877 1.46568 -0.687713 0
M  V30 5393 H 516.869 3.83477 1.29334 0
M  V30 5394 H 515.439 2.78095 1.42765 0
M  V30 5395 H 514.659 3.85727 -0.812936 0
M  V30 5396 H 515.947 5.05397 -0.587444 0
M  V30 5397 H 515.345 5.0274 2.59363 0
M  V30 5398 H 513.902 5.95871 2.64162 0
M  V30 5399 N 517.335 0.585699 1.46312 0
M  V30 5400 C 518.298 -0.135673 2.28798 0
M  V30 5401 C 519.298 -0.815988 1.38558 0
M  V30 5402 O 520.488 -0.667487 1.60904 0
M  V30 5403 C 517.62 -1.20163 3.1902 0
M  V30 5404 H 518.813 0.589257 2.94054 0
M  V30 5405 H 516.366 0.343794 1.52472 0
M  V30 5406 H 517.101 -1.95804 2.58517 0
M  V30 5407 H 516.886 -0.718282 3.85465 0
M  V30 5408 H 518.376 -1.70749 3.81096 0
M  V30 5409 N 518.813 -1.54241 0.323641 0
M  V30 5410 C 519.743 -2.27289 -0.534993 0
M  V30 5411 C 520.724 -1.28087 -1.11927 0
M  V30 5412 O 521.909 -1.56899 -1.14439 0
M  V30 5413 C 519.039 -3.03075 -1.69596 0
M  V30 5414 C 517.993 -4.09614 -1.24098 0
M  V30 5415 C 517.319 -4.73242 -2.4889 0
M  V30 5416 C 518.619 -5.21087 -0.355789 0
M  V30 5417 H 520.313 -2.99308 0.0743257 0
M  V30 5418 H 517.859 -1.43952 0.0371874 0
M  V30 5419 H 519.812 -3.52907 -2.30293 0
M  V30 5420 H 518.536 -2.28673 -2.33187 0
M  V30 5421 H 517.195 -3.60666 -0.656945 0
M  V30 5422 H 516.843 -3.95455 -3.10845 0
M  V30 5423 H 516.543 -5.45209 -2.19138 0
M  V30 5424 H 518.067 -5.25848 -3.10348 0
M  V30 5425 H 519.481 -5.66675 -0.869042 0
M  V30 5426 H 517.878 -5.9991 -0.151045 0
M  V30 5427 H 518.948 -4.81005 0.613339 0
M  V30 5428 N 520.291 -0.0518155 -1.57515 0
M  V30 5429 C 521.254 0.907547 -2.10467 0
M  V30 5430 C 522.254 1.23947 -1.02439 0
M  V30 5431 O 523.444 1.17604 -1.2851 0
M  V30 5432 C 520.576 2.21723 -2.58944 0
M  V30 5433 H 521.769 0.44851 -2.96527 0
M  V30 5434 H 519.322 0.196598 -1.55059 0
M  V30 5435 H 520.057 2.72206 -1.76279 0
M  V30 5436 H 519.842 1.98935 -3.37886 0
M  V30 5437 H 521.332 2.90441 -3.00056 0
M  V30 5438 N 521.769 1.56035 0.221574 0
M  V30 5439 C 522.717 1.93269 1.29421 0
M  V30 5440 C 523.711 0.814727 1.48521 0
M  V30 5441 O 524.917 0.999559 1.49696 0
M  V30 5442 H 521.292 0.614188 0.43391 0
M  V30 5443 H 523.263 2.82773 0.952987 0
M  V30 5444 C 522.012 2.26573 2.63742 0
M  V30 5445 H 521.335 3.12112 2.49853 0
M  V30 5446 H 522.775 2.5651 3.37607 0
M  V30 5447 C 521.234 1.09086 3.1875 0
M  V30 5448 O 521.764 0.351985 4.00155 0
M  V30 5449 N 519.97 0.874693 2.77124 0
M  V30 5450 H 519.517 1.47726 2.11033 0
M  V30 5451 H 519.475 0.0903349 3.1427 0
M  V30 5452 N 523.247 -0.488276 1.49845 0
M  V30 5453 C 524.477 -1.26344 1.63465 0
M  V30 5454 C 524.885 -1.86637 0.310379 0
M  V30 5455 O 524.228 -1.69184 -0.715712 0
M  V30 5456 C 524.29 -2.42407 2.65479 0
M  V30 5457 C 523.954 -2.02886 4.09495 0
M  V30 5458 C 524.951 -1.56124 4.95904 0
M  V30 5459 C 522.636 -2.12131 4.55308 0
M  V30 5460 C 524.63 -1.19129 6.26169 0
M  V30 5461 C 522.317 -1.74747 5.85582 0
M  V30 5462 C 523.315 -1.28322 6.70837 0
M  V30 5463 O 523.003 -0.914491 7.98682 0
M  V30 5464 H 522.735 -0.388921 0.552916 0
M  V30 5465 H 525.289 -0.591288 1.96705 0
M  V30 5466 H 523.519 -3.12739 2.27445 0
M  V30 5467 H 525.208 -3.04409 2.68495 0
M  V30 5468 H 525.974 -1.48417 4.61733 0
M  V30 5469 H 521.853 -2.47217 3.89107 0
M  V30 5470 H 525.397 -0.828211 6.92666 0
M  V30 5471 H 521.294 -1.82109 6.19279 0
M  V30 5472 H 522.062 -1.04485 8.11804 0
M  V30 5473 N 524.725 -1.39134 -0.740242 0
M  V30 5474 C 525.95 -1.39518 -1.53459 0
M  V30 5475 C 526.375 0.00968883 -1.88098 0
M  V30 5476 O 525.733 0.995312 -1.51536 0
M  V30 5477 C 525.781 -2.26981 -2.802 0
M  V30 5478 O 524.885 -1.69609 -3.75908 0
M  V30 5479 H 524.226 -0.475328 -0.463637 0
M  V30 5480 H 526.756 -1.83064 -0.913717 0
M  V30 5481 H 526.766 -2.41309 -3.28989 0
M  V30 5482 H 525.441 -3.29081 -2.5432 0
M  V30 5483 H 524.018 -1.64495 -3.34658 0
M  V30 5484 N 526.204 0.969867 -1.24223 0
M  V30 5485 C 527.453 1.70687 -1.07466 0
M  V30 5486 C 527.766 1.91736 0.386861 0
M  V30 5487 O 528.972 2.62986 0.674581 0
M  V30 5488 C 527.428 3.07217 -1.87472 0
M  V30 5489 C 527.036 2.94018 -3.3802 0
M  V30 5490 C 528.78 3.84804 -1.79237 0
M  V30 5491 C 526.687 4.25844 -4.10379 0
M  V30 5492 H 525.617 0.640067 -0.398536 0
M  V30 5493 H 528.268 1.08092 -1.48285 0
M  V30 5494 H 526.65 3.70628 -1.39466 0
M  V30 5495 H 527.824 2.39632 -3.9359 0
M  V30 5496 H 526.139 2.29898 -3.47183 0
M  V30 5497 H 528.736 4.82417 -2.30603 0
M  V30 5498 H 529.079 4.09356 -0.757197 0
M  V30 5499 H 529.612 3.28115 -2.24912 0
M  V30 5500 H 526.351 4.06486 -5.14246 0
M  V30 5501 H 525.871 4.80054 -3.59594 0
M  V30 5502 H 527.55 4.94475 -4.17257 0
M  V30 5503 N 527.682 1.05563 1.17022 0
M  V30 5504 C 528.93 0.76642 1.87004 0
M  V30 5505 C 529.251 -0.708854 1.8166 0
M  V30 5506 O 528.521 -1.51242 1.2451 0
M  V30 5507 H 527.101 0.280516 0.692329 0
M  V30 5508 H 529.763 1.33557 1.41945 0
M  V30 5509 H 528.859 1.08472 2.92644 0
M  V30 5510 N 529.16 -1.33526 0.837174 0
M  V30 5511 C 530.406 -1.9813 0.432704 0
M  V30 5512 C 530.739 -1.66168 -1.00508 0
M  V30 5513 O 530.014 -0.94069 -1.70239 0
M  V30 5514 C 530.297 -3.54151 0.651834 0
M  V30 5515 C 530.15 -3.95806 2.13676 0
M  V30 5516 C 531.469 -4.39993 0.0968937 0
M  V30 5517 H 528.588 -0.719713 0.15869 0
M  V30 5518 H 531.23 -1.58193 1.05237 0
M  V30 5519 H 529.38 -3.88301 0.124369 0
M  V30 5520 H 531.052 -3.71921 2.72896 0
M  V30 5521 H 529.295 -3.45599 2.62191 0
M  V30 5522 H 529.966 -5.0447 2.24084 0
M  V30 5523 H 532.442 -4.12479 0.547733 0
M  V30 5524 H 531.318 -5.48186 0.279917 0
M  V30 5525 H 531.579 -4.3066 -0.9992 0
M  V30 5526 N 530.638 -0.59345 -1.46 0
M  V30 5527 C 531.863 -0.0872365 -2.07216 0
M  V30 5528 C 532.288 1.2131 -1.43755 0
M  V30 5529 O 531.646 1.73528 -0.525152 0
M  V30 5530 C 531.694 0.0538197 -3.6056 0
M  V30 5531 O 530.798 1.10765 -3.97247 0
M  V30 5532 H 530.139 -0.0676598 -0.660544 0
M  V30 5533 H 532.669 -0.819445 -1.87473 0
M  V30 5534 H 532.679 0.256567 -4.07193 0
M  V30 5535 H 531.354 -0.895739 -4.0614 0
M  V30 5536 H 529.931 0.882501 -3.62307 0
M  V30 5537 N 532.116 1.54067 -0.331816 0
M  V30 5538 C 533.356 2.02625 0.26876 0
M  V30 5539 C 533.72 1.21462 1.48697 0
M  V30 5540 O 534.921 1.59863 2.16096 0
M  V30 5541 C 533.192 3.52554 0.586577 0
M  V30 5542 S 534.751 4.23035 1.16563 0
M  V30 5543 H 531.569 0.706395 0.0807862 0
M  V30 5544 H 534.171 1.89844 -0.466856 0
M  V30 5545 H 532.875 4.09242 -0.308046 0
M  V30 5546 H 532.406 3.69432 1.35217 0
M  V30 5547 H 534.421 4.31382 2.45203 0
M  V30 5548 N 533.594 0.0601682 1.57485 0
M  V30 5549 C 534.527 -0.94676 2.07634 0
M  V30 5550 C 535.505 -1.29837 0.978826 0
M  V30 5551 O 536.689 -1.40969 1.2514 0
M  V30 5552 C 533.816 -2.25822 2.52433 0
M  V30 5553 C 532.862 -2.05901 3.73507 0
M  V30 5554 S 533.695 -1.32907 5.18745 0
M  V30 5555 C 534.851 -2.65356 5.66866 0
M  V30 5556 H 535.084 -0.520003 2.92717 0
M  V30 5557 H 532.617 -0.152319 1.53647 0
M  V30 5558 H 534.575 -3.01201 2.78905 0
M  V30 5559 H 533.236 -2.65624 1.67639 0
M  V30 5560 H 532.429 -3.02929 4.02803 0
M  V30 5561 H 532.031 -1.38659 3.47347 0
M  V30 5562 H 534.323 -3.61492 5.73001 0
M  V30 5563 H 535.266 -2.40685 6.6594 0
M  V30 5564 H 535.674 -2.72028 4.94632 0
M  V30 5565 N 535.072 -1.5615 -0.213296 0
M  V30 5566 C 536.02 -1.93953 -1.28394 0
M  V30 5567 C 537.014 -0.822592 -1.48087 0
M  V30 5568 O 538.22 -1.00748 -1.49164 0
M  V30 5569 H 534.595 -0.61648 -0.430646 0
M  V30 5570 H 536.566 -2.83275 -0.937977 0
M  V30 5571 C 535.315 -2.27969 -2.62537 0
M  V30 5572 H 534.638 -3.13432 -2.48194 0
M  V30 5573 H 536.078 -2.58297 -3.36242 0
M  V30 5574 C 534.537 -1.10775 -3.18167 0
M  V30 5575 O 535.067 -0.373201 -3.99963 0
M  V30 5576 N 533.273 -0.889377 -2.76656 0
M  V30 5577 H 532.82 -1.48843 -2.10246 0
M  V30 5578 H 532.778 -0.107 -3.14218 0
M  V30 5579 N 536.55 0.480323 -1.50102 0
M  V30 5580 C 537.46 1.60547 -1.71061 0
M  V30 5581 C 538.476 1.63564 -0.593529 0
M  V30 5582 O 539.652 1.81604 -0.870751 0
M  V30 5583 C 536.717 2.96814 -1.79171 0
M  V30 5584 C 535.778 3.04259 -3.02861 0
M  V30 5585 C 535.011 4.34027 -3.10574 0
M  V30 5586 O 535.234 5.24009 -2.25323 0
M  V30 5587 O 534.168 4.46873 -4.03223 0
M  V30 5588 H 537.994 1.45788 -2.6642 0
M  V30 5589 H 535.579 0.658838 -1.34088 0
M  V30 5590 H 537.461 3.77765 -1.86738 0
M  V30 5591 H 536.136 3.11791 -0.869947 0
M  V30 5592 H 535.043 2.22419 -3.008 0
M  V30 5593 H 536.376 2.94216 -3.94586 0
M  V30 5594 N 538.028 1.39524 0.732853 0
M  V30 5595 C 539.277 1.36175 1.48792 0
M  V30 5596 C 539.59 -0.0388195 1.95561 0
M  V30 5597 O 540.796 -0.194899 2.708 0
M  V30 5598 C 539.252 2.39242 2.68871 0
M  V30 5599 C 538.86 3.85024 2.29042 0
M  V30 5600 C 540.604 2.44972 3.46683 0
M  V30 5601 C 538.511 4.79727 3.45856 0
M  V30 5602 H 537.441 0.506267 0.558757 0
M  V30 5603 H 540.092 1.65181 0.799226 0
M  V30 5604 H 538.474 2.0331 3.39825 0
M  V30 5605 H 539.648 4.30008 1.6562 0
M  V30 5606 H 537.963 3.82609 1.64316 0
M  V30 5607 H 540.56 3.12918 4.33574 0
M  V30 5608 H 540.903 1.4749 3.89297 0
M  V30 5609 H 541.436 2.79808 2.82759 0
M  V30 5610 H 538.175 5.78479 3.08289 0
M  V30 5611 H 537.695 4.39421 4.08251 0
M  V30 5612 H 539.374 4.98731 4.12161 0
M  V30 5613 N 539.506 -0.963266 1.24736 0
M  V30 5614 C 540.754 -1.70343 1.08755 0
M  V30 5615 C 541.075 -1.91387 -0.373619 0
M  V30 5616 O 540.345 -1.4948 -1.2662 0
M  V30 5617 H 538.925 -0.631224 0.399456 0
M  V30 5618 H 541.587 -1.15859 1.56725 0
M  V30 5619 H 540.683 -2.68616 1.58909 0
M  V30 5620 N 540.985 -1.06182 -1.16461 0
M  V30 5621 C 542.231 -0.788825 -1.87481 0
M  V30 5622 C 542.586 0.677298 -1.80085 0
M  V30 5623 O 541.879 1.48976 -1.20486 0
M  V30 5624 C 542.073 -1.21633 -3.36066 0
M  V30 5625 C 541.902 -2.72247 -3.57927 0
M  V30 5626 C 540.672 -3.39696 -3.74079 0
M  V30 5627 C 542.87 -3.70461 -3.56739 0
M  V30 5628 N 540.852 -4.79072 -3.83879 0
M  V30 5629 C 542.223 -4.95616 -3.72511 0
M  V30 5630 C 544.278 -3.63788 -3.39945 0
M  V30 5631 C 542.981 -6.14895 -3.73225 0
M  V30 5632 C 545.007 -4.82517 -3.41953 0
M  V30 5633 C 544.369 -6.065 -3.58242 0
M  V30 5634 H 540.468 -0.341034 -0.703719 0
M  V30 5635 H 543.052 -1.35575 -1.39741 0
M  V30 5636 H 541.223 -0.67725 -3.8245 0
M  V30 5637 H 542.955 -0.892119 -3.94745 0
M  V30 5638 H 539.71 -2.90097 -3.74354 0
M  V30 5639 H 540.134 -5.51573 -3.92551 0
M  V30 5640 H 544.776 -2.68888 -3.26281 0
M  V30 5641 H 542.494 -7.10129 -3.85672 0
M  V30 5642 H 546.08 -4.79017 -3.30203 0
M  V30 5643 H 544.96 -6.96833 -3.59712 0
M  V30 5644 N 542.463 1.3308 -0.844243 0
M  V30 5645 C 543.688 2.02341 -0.455282 0
M  V30 5646 C 544.113 1.6308 0.93737 0
M  V30 5647 O 543.471 0.826118 1.61385 0
M  V30 5648 C 543.519 3.55743 -0.58988 0
M  V30 5649 O 542.623 4.1063 0.38166 0
M  V30 5650 H 541.964 0.637898 -0.184343 0
M  V30 5651 H 544.494 1.6986 -1.14056 0
M  V30 5652 H 544.504 4.05243 -0.473522 0
M  V30 5653 H 543.179 3.83662 -1.60549 0
M  V30 5654 H 541.756 3.72236 0.22241 0
M  V30 5655 N 543.941 0.601185 1.45683 0
M  V30 5656 C 544.904 -0.111398 2.28929 0
M  V30 5657 C 545.904 -0.801246 1.39416 0
M  V30 5658 O 547.094 -0.650383 1.61603 0
M  V30 5659 C 544.226 -1.16773 3.20276 0
M  V30 5660 H 545.419 0.620412 2.93413 0
M  V30 5661 H 542.972 0.359946 1.52099 0
M  V30 5662 H 543.707 -1.93051 2.60579 0
M  V30 5663 H 543.492 -0.677358 3.86205 0
M  V30 5664 H 544.982 -1.66698 3.82886 0
M  V30 5665 N 545.419 -1.53889 0.339982 0
M  V30 5666 C 546.665 -2.01152 -0.258003 0
M  V30 5667 C 546.998 -1.22749 -1.50487 0
M  V30 5668 O 546.273 -0.314156 -1.91946 0
M  V30 5669 C 546.556 -3.55468 -0.575717 0
M  V30 5670 C 546.409 -4.44584 0.682996 0
M  V30 5671 C 547.728 -4.1768 -1.38677 0
M  V30 5672 H 544.847 -0.731198 -0.0922992 0
M  V30 5673 H 547.489 -1.84352 0.459814 0
M  V30 5674 H 545.639 -3.69914 -1.18725 0
M  V30 5675 H 547.311 -4.41981 1.32102 0
M  V30 5676 H 545.554 -4.13592 1.3086 0
M  V30 5677 H 546.225 -5.5043 0.416001 0
M  V30 5678 H 548.701 -4.0691 -0.869705 0
M  V30 5679 H 547.577 -5.25734 -1.57783 0
M  V30 5680 H 547.838 -3.72069 -2.38782 0
M  V30 5681 N 546.897 -0.0685191 -1.57451 0
M  V30 5682 C 548.122 0.613919 -1.98106 0
M  V30 5683 C 548.547 1.62551 -0.946501 0
M  V30 5684 O 547.905 1.81085 0.0882824 0
M  V30 5685 C 547.953 1.26189 -3.378 0
M  V30 5686 O 547.057 2.37773 -3.36954 0
M  V30 5687 H 546.398 0.158163 -0.644888 0
M  V30 5688 H 548.928 -0.142063 -2.04106 0
M  V30 5689 H 548.938 1.60951 -3.74912 0
M  V30 5690 H 547.613 0.520625 -4.12629 0
M  V30 5691 H 546.19 2.04829 -3.11608 0
M  V30 5692 N 548.375 1.56261 0.205012 0
M  V30 5693 C 549.786 1.70056 0.770574 0
M  V30 5694 C 550.137 0.673398 1.84282 0
M  V30 5695 O 549.262 -0.172196 2.15714 0
M  V30 5696 C 549.857 3.08316 1.40451 0
M  V30 5697 C 548.416 3.2391 1.91727 0
M  V30 5698 C 547.563 2.66001 0.783516 0
M  V30 5699 H 550.514 1.58688 -0.019911 0
M  V30 5700 H 550.535 3.05094 2.27371 0
M  V30 5701 H 550.047 3.83053 0.623882 0
M  V30 5702 H 548.148 2.54072 2.7254 0
M  V30 5703 H 548.261 4.3131 2.08588 0
M  V30 5704 H 546.625 2.24915 1.19521 0
M  V30 5705 H 547.408 3.43297 0.0152883 0
M  V30 5706 N 549.853 -0.472356 1.50355 0
M  V30 5707 C 551.099 -1.22348 1.62488 0
M  V30 5708 C 551.454 -1.89711 0.320574 0
M  V30 5709 O 550.747 -1.79074 -0.68141 0
M  V30 5710 C 550.941 -2.29257 2.74182 0
M  V30 5711 C 550.77 -1.72383 4.15348 0
M  V30 5712 C 549.54 -1.52411 4.81766 0
M  V30 5713 C 551.738 -1.21949 4.99633 0
M  V30 5714 N 549.72 -0.907669 6.07153 0
M  V30 5715 C 551.091 -0.726191 6.15732 0
M  V30 5716 C 553.146 -1.10792 4.85417 0
M  V30 5717 C 551.849 -0.132322 7.19178 0
M  V30 5718 C 553.875 -0.52799 5.89038 0
M  V30 5719 C 553.237 -0.0450604 7.04386 0
M  V30 5720 H 549.336 -0.436631 0.648751 0
M  V30 5721 H 551.92 -0.525698 1.87469 0
M  V30 5722 H 550.091 -2.96464 2.50926 0
M  V30 5723 H 551.823 -2.9628 2.75681 0
M  V30 5724 H 548.578 -1.776 4.39039 0
M  V30 5725 H 549.002 -0.617897 6.74174 0
M  V30 5726 H 553.644 -1.46722 3.96525 0
M  V30 5727 H 551.362 0.239187 8.07746 0
M  V30 5728 H 554.948 -0.444046 5.80103 0
M  V30 5729 H 553.828 0.396659 7.83196 0
M  V30 5730 N 551.331 -1.39911 -0.725443 0
M  V30 5731 C 552.58 -1.36963 -1.48068 0
M  V30 5732 C 552.893 0.0284478 -1.95579 0
M  V30 5733 O 554.099 0.180535 -2.70899 0
M  V30 5734 C 552.555 -2.40664 -2.67598 0
M  V30 5735 C 552.163 -3.86234 -2.26997 0
M  V30 5736 C 553.907 -2.46807 -3.45379 0
M  V30 5737 C 551.814 -4.81554 -3.43307 0
M  V30 5738 H 550.744 -0.509223 -0.556065 0
M  V30 5739 H 553.395 -1.65602 -0.790454 0
M  V30 5740 H 551.777 -2.05109 -3.38742 0
M  V30 5741 H 552.951 -4.3088 -1.63337 0
M  V30 5742 H 551.266 -3.83475 -1.62284 0
M  V30 5743 H 553.863 -3.15213 -4.31909 0
M  V30 5744 H 554.206 -1.49552 -3.8851 0
M  V30 5745 H 554.739 -2.81303 -2.81271 0
M  V30 5746 H 551.478 -5.80106 -3.05217 0
M  V30 5747 H 550.998 -4.4158 -4.05915 0
M  V30 5748 H 552.677 -5.0091 -4.0951 0
M  V30 5749 N 552.809 0.956637 -1.25245 0
M  V30 5750 C 553.739 2.07058 -1.07931 0
M  V30 5751 C 554.72 1.70096 0.0110361 0
M  V30 5752 O 555.905 1.93555 -0.158121 0
M  V30 5753 C 553.035 3.40272 -0.695124 0
M  V30 5754 C 551.989 3.91235 -1.73549 0
M  V30 5755 C 551.315 5.20921 -1.20604 0
M  V30 5756 C 552.615 4.17837 -3.13385 0
M  V30 5757 H 554.309 2.218 -2.01109 0
M  V30 5758 H 551.855 1.06581 -0.968326 0
M  V30 5759 H 553.808 4.1765 -0.560949 0
M  V30 5760 H 552.532 3.25462 0.272355 0
M  V30 5761 H 551.191 3.16025 -1.85807 0
M  V30 5762 H 550.839 5.02479 -0.228846 0
M  V30 5763 H 550.539 5.55987 -1.90136 0
M  V30 5764 H 552.063 6.00897 -1.08421 0
M  V30 5765 H 553.477 4.8588 -3.04292 0
M  V30 5766 H 551.874 4.64154 -3.80369 0
M  V30 5767 H 552.944 3.2419 -3.60595 0
M  V30 5768 N 554.287 1.06798 1.15896 0
M  V30 5769 C 555.25 0.687328 2.18651 0
M  V30 5770 C 556.25 -0.269559 1.58524 0
M  V30 5771 O 557.44 -0.0512627 1.74125 0
M  V30 5772 C 554.572 0.0121642 3.40898 0
M  V30 5773 H 555.765 1.59701 2.53842 0
M  V30 5774 H 553.318 0.863828 1.3026 0
M  V30 5775 H 554.053 -0.910025 3.1127 0
M  V30 5776 H 553.838 0.700309 3.85795 0
M  V30 5777 H 555.328 -0.239703 4.16911 0
M  V30 5778 N 555.766 -1.3263 0.851289 0
M  V30 5779 C 556.991 -2.02097 0.466006 0
M  V30 5780 C 557.416 -1.63574 -0.928709 0
M  V30 5781 O 556.774 -0.834665 -1.60944 0
M  V30 5782 C 556.822 -3.55425 0.608737 0
M  V30 5783 O 555.926 -4.10827 -0.359878 0
M  V30 5784 H 555.267 -0.636911 0.187724 0
M  V30 5785 H 557.797 -1.69253 1.14955 0
M  V30 5786 H 557.807 -4.04986 0.495006 0
M  V30 5787 H 556.482 -3.82806 1.62581 0
M  V30 5788 H 555.059 -3.72349 -0.202666 0
M  V30 5789 N 557.244 -0.608902 -1.45362 0
M  V30 5790 C 558.472 -0.111013 -2.06602 0
M  V30 5791 C 558.887 1.20516 -1.45332 0
M  V30 5792 O 558.244 1.73437 -0.567978 0
M  V30 5793 C 558.295 0.033688 -3.61484 0
M  V30 5794 O 558.016 -1.23041 -4.20467 0
M  V30 5795 C 559.517 0.562882 -4.39712 0
M  V30 5796 H 556.737 -0.0694453 -0.667397 0
M  V30 5797 H 559.281 -0.837008 -1.86586 0
M  V30 5798 H 557.436 0.710016 -3.80838 0
M  V30 5799 H 557.85 -1.06094 -5.13658 0
M  V30 5800 H 559.324 0.613213 -5.48583 0
M  V30 5801 H 559.801 1.58543 -4.09586 0
M  V30 5802 H 560.407 -0.0794454 -4.25226 0
M  V30 5803 N 558.722 1.53707 -0.348139 0
M  V30 5804 C 559.95 2.05406 0.248224 0
M  V30 5805 C 560.365 1.22282 1.43849 0
M  V30 5806 O 559.722 0.259244 1.80649 0
M  V30 5807 C 559.773 3.55446 0.658793 0
M  V30 5808 O 559.494 4.35417 -0.484149 0
M  V30 5809 C 560.995 4.23335 1.31539 0
M  V30 5810 H 558.215 0.669344 0.0471075 0
M  V30 5811 H 560.759 1.98257 -0.501456 0
M  V30 5812 H 558.914 3.62803 1.35841 0
M  V30 5813 H 559.328 5.24268 -0.155949 0
M  V30 5814 H 560.802 5.29692 1.55338 0
M  V30 5815 H 561.279 3.75967 2.27036 0
M  V30 5816 H 561.885 4.20184 0.657683 0
M  V30 5817 N 560.2 0.0768682 1.57412 0
M  V30 5818 C 561.11 -0.903207 2.16516 0
M  V30 5819 C 562.126 -1.32341 1.12968 0
M  V30 5820 O 563.302 -1.39507 1.45258 0
M  V30 5821 C 560.367 -2.1508 2.71922 0
M  V30 5822 C 559.428 -1.78653 3.90361 0
M  V30 5823 C 558.661 -2.97465 4.43114 0
M  V30 5824 O 558.884 -4.11638 3.94854 0
M  V30 5825 O 557.818 -2.76987 5.3438 0
M  V30 5826 H 561.644 -0.430427 3.00634 0
M  V30 5827 H 559.229 -0.146485 1.4868 0
M  V30 5828 H 561.111 -2.8823 3.07411 0
M  V30 5829 H 559.786 -2.61446 1.9086 0
M  V30 5830 H 558.693 -1.0274 3.59716 0
M  V30 5831 H 560.026 -1.37066 4.7273 0
M  V30 5832 N 561.678 -1.56367 -0.196722 0
M  V30 5833 C 562.926 -1.80172 -0.915554 0
M  V30 5834 C 563.247 -0.649649 -1.8386 0
M  V30 5835 O 562.517 0.332111 -1.93064 0
M  V30 5836 H 561.097 -0.664592 -0.341067 0
M  V30 5837 H 563.759 -1.93844 -0.202622 0
M  V30 5838 H 562.855 -2.7327 -1.50764 0
M  V30 5839 N 563.156 0.464375 -1.50603 0
M  V30 5840 C 564.119 1.54393 -1.69397 0
M  V30 5841 C 565.119 1.50566 -0.564504 0
M  V30 5842 O 566.309 1.53066 -0.831645 0
M  V30 5843 C 563.441 2.9401 -1.72543 0
M  V30 5844 H 564.634 1.39044 -2.65719 0
M  V30 5845 H 562.187 0.69122 -1.40185 0
M  V30 5846 H 562.922 3.14795 -0.77938 0
M  V30 5847 H 562.707 2.98195 -2.54602 0
M  V30 5848 H 564.197 3.72375 -1.89015 0
M  V30 5849 N 564.634 1.40294 0.718013 0
M  V30 5850 C 566.045 1.34289 1.29705 0
M  V30 5851 C 566.396 0.0152228 1.96194 0
M  V30 5852 O 565.521 -0.88682 1.97394 0
M  V30 5853 C 566.116 2.43219 2.3586 0
M  V30 5854 C 564.675 2.40682 2.89394 0
M  V30 5855 C 563.822 2.24223 1.63154 0
M  V30 5856 H 566.773 1.50135 0.514312 0
M  V30 5857 H 566.794 2.10986 3.16647 0
M  V30 5858 H 566.306 3.39836 1.87439 0
M  V30 5859 H 564.407 1.47756 3.42051 0
M  V30 5860 H 564.52 3.36177 3.41353 0
M  V30 5861 H 562.884 1.71696 1.88129 0
M  V30 5862 H 563.667 3.22834 1.16761 0
M  V30 5863 N 566.112 -0.949982 1.2575 0
M  V30 5864 C 567.337 -1.73503 1.13628 0
M  V30 5865 C 567.762 -1.85601 -0.30559 0
M  V30 5866 O 567.12 -1.33984 -1.22139 0
M  V30 5867 C 567.168 -3.1243 1.80055 0
M  V30 5868 O 566.272 -3.97916 1.08336 0
M  V30 5869 H 565.613 -0.532665 0.396439 0
M  V30 5870 H 568.143 -1.19043 1.66403 0
M  V30 5871 H 568.153 -3.62866 1.86527 0
M  V30 5872 H 566.828 -3.02941 2.84956 0
M  V30 5873 H 565.405 -3.56375 1.09777 0
M  V30 5874 N 567.59 -1.07411 -1.15328 0
M  V30 5875 C 568.836 -0.798831 -1.86404 0
M  V30 5876 C 569.169 0.673433 -1.8215 0
M  V30 5877 O 568.444 1.49428 -1.24505 0
M  V30 5878 C 568.727 -1.30846 -3.35487 0
M  V30 5879 C 568.58 -2.84532 -3.4837 0
M  V30 5880 C 569.899 -0.925486 -4.30259 0
M  V30 5881 H 567.018 -0.291659 -0.676834 0
M  V30 5882 H 569.66 -1.332 -1.35491 0
M  V30 5883 H 567.81 -0.854916 -3.78977 0
M  V30 5884 H 569.482 -3.3818 -3.13739 0
M  V30 5885 H 567.725 -3.22699 -2.8991 0
M  V30 5886 H 568.396 -3.15259 -4.53118 0
M  V30 5887 H 570.872 -1.3163 -3.94731 0
M  V30 5888 H 569.748 -1.3094 -5.33053 0
M  V30 5889 H 570.009 0.168525 -4.41779 0
M  V30 5890 N 569.068 1.32177 -0.85831 0
M  V30 5891 C 570.031 2.27086 -0.310588 0
M  V30 5892 C 571.031 1.51751 0.531806 0
M  V30 5893 O 572.221 1.70794 0.34279 0
M  V30 5894 C 569.353 3.36266 0.560179 0
M  V30 5895 H 570.546 2.77045 -1.1483 0
M  V30 5896 H 568.099 1.42911 -0.632942 0
M  V30 5897 H 568.834 2.9158 1.41956 0
M  V30 5898 H 568.619 3.92077 -0.0428473 0
M  V30 5899 H 570.109 4.06974 0.936056 0
M  V30 5900 N 570.547 0.616602 1.45037 0
M  V30 5901 C 571.958 0.199359 1.85633 0
M  V30 5902 C 572.309 -1.24588 1.51566 0
M  V30 5903 O 571.434 -1.94594 0.94668 0
M  V30 5904 C 572.029 0.355033 3.36935 0
M  V30 5905 C 570.588 -0.00758748 3.76399 0
M  V30 5906 C 569.735 0.675256 2.68953 0
M  V30 5907 H 572.686 0.822708 1.3571 0
M  V30 5908 H 572.707 -0.410201 3.78282 0
M  V30 5909 H 572.219 1.40699 3.61698 0
M  V30 5910 H 570.32 -1.05837 3.57252 0
M  V30 5911 H 570.433 0.392346 4.77491 0
M  V30 5912 H 568.797 0.111992 2.54454 0
M  V30 5913 H 569.58 1.72952 2.96551 0
M  V30 5914 N 572.025 -1.5352 0.356285 0
M  V30 5915 C 572.955 -2.28372 -0.486661 0
M  V30 5916 C 573.936 -1.30432 -1.09185 0
M  V30 5917 O 575.121 -1.59291 -1.11085 0
M  V30 5918 C 572.251 -3.06604 -1.63129 0
M  V30 5919 C 571.205 -4.12154 -1.15381 0
M  V30 5920 C 570.531 -4.78415 -2.38796 0
M  V30 5921 C 571.831 -5.21724 -0.245179 0
M  V30 5922 H 573.525 -2.99083 0.137797 0
M  V30 5923 H 571.071 -1.43841 0.0677134 0
M  V30 5924 H 573.024 -3.57712 -2.22755 0
M  V30 5925 H 571.748 -2.33568 -2.28284 0
M  V30 5926 H 570.407 -3.61978 -0.580294 0
M  V30 5927 H 570.055 -4.01959 -3.02387 0
M  V30 5928 H 569.755 -5.49734 -2.07524 0
M  V30 5929 H 571.279 -5.32313 -2.99125 0
M  V30 5930 H 572.693 -5.68391 -0.748646 0
M  V30 5931 H 571.09 -6.00095 -0.0237608 0
M  V30 5932 H 572.16 -4.79596 0.715229 0
M  V30 5933 N 573.503 -0.0852151 -1.57369 0
M  V30 5934 C 574.451 0.894856 -2.14698 0
M  V30 5935 C 575.445 1.29903 -1.08727 0
M  V30 5936 O 576.651 1.27471 -1.27088 0
M  V30 5937 H 573.026 0.306569 -0.686673 0
M  V30 5938 H 574.997 0.386542 -2.95886 0
M  V30 5939 C 573.746 2.14798 -2.73417 0
M  V30 5940 H 573.069 1.84585 -3.54638 0
M  V30 5941 H 574.509 2.81456 -3.1711 0
M  V30 5942 C 572.968 2.91546 -1.68828 0
M  V30 5943 O 573.498 3.85733 -1.12129 0
M  V30 5944 N 571.704 2.54901 -1.39549 0
M  V30 5945 H 571.251 1.7838 -1.85845 0
M  V30 5946 H 571.209 3.06553 -0.698054 0
M  V30 5947 N 574.981 1.5647 0.188427 0
M  V30 5948 C 576.227 1.81281 0.909124 0
M  V30 5949 C 576.56 0.66034 1.82628 0
M  V30 5950 O 575.835 -0.338737 1.91528 0
M  V30 5951 C 576.118 3.16388 1.7196 0
M  V30 5952 C 575.971 4.42137 0.826714 0
M  V30 5953 C 577.29 3.48256 2.69083 0
M  V30 5954 H 574.409 0.659457 0.329068 0
M  V30 5955 H 577.051 1.89182 0.176156 0
M  V30 5956 H 575.201 3.09784 2.34448 0
M  V30 5957 H 576.873 4.60794 0.216025 0
M  V30 5958 H 575.116 4.33594 0.133792 0
M  V30 5959 H 575.787 5.33184 1.42893 0
M  V30 5960 H 578.263 3.55203 2.16726 0
M  V30 5961 H 577.139 4.43899 3.2287 0
M  V30 5962 H 577.4 2.72088 3.48455 0
M  V30 5963 N 576.459 -0.456382 1.50847 0
M  V30 5964 C 577.687 -1.23026 1.66349 0
M  V30 5965 C 578.102 -1.85473 0.352868 0
M  V30 5966 O 577.459 -1.69885 -0.666739 0
M  V30 5967 C 577.51 -2.32827 2.76539 0
M  V30 5968 O 577.231 -1.72938 4.02522 0
M  V30 5969 C 578.732 -3.23448 3.03144 0
M  V30 5970 H 575.952 -0.371527 0.558756 0
M  V30 5971 H 578.496 -0.543082 1.97157 0
M  V30 5972 H 576.651 -2.97294 2.48384 0
M  V30 5973 H 577.065 -2.45357 4.63573 0
M  V30 5974 H 578.539 -3.96669 3.83872 0
M  V30 5975 H 579.016 -3.83094 2.14793 0
M  V30 5976 H 579.622 -2.64702 3.32886 0
M  V30 5977 N 577.937 -1.40673 -0.710563 0
M  V30 5978 C 579.183 -1.39428 -1.47267 0
M  V30 5979 C 579.516 0.00182129 -1.942 0
M  V30 5980 O 578.791 0.971387 -1.68506 0
M  V30 5981 C 579.074 -2.38812 -2.6952 0
M  V30 5982 C 578.927 -3.87467 -2.28449 0
M  V30 5983 C 580.246 -2.3566 -3.71689 0
M  V30 5984 H 577.365 -0.507768 -0.534173 0
M  V30 5985 H 580.007 -1.71843 -0.810547 0
M  V30 5986 H 578.157 -2.113 -3.26013 0
M  V30 5987 H 579.829 -4.25825 -1.77399 0
M  V30 5988 H 578.072 -4.03058 -1.60395 0
M  V30 5989 H 578.743 -4.5253 -3.16103 0
M  V30 5990 H 581.219 -2.6004 -3.24836 0
M  V30 5991 H 580.095 -3.07237 -4.54859 0
M  V30 5992 H 580.356 -1.36996 -4.20339 0
M  V30 5993 N 579.415 0.9433 -1.26252 0
M  V30 5994 C 580.662 1.68925 -1.11672 0
M  V30 5995 C 580.99 1.91499 0.340329 0
M  V30 5996 O 580.245 1.49189 1.26653 0
M  V30 5997 C 580.544 3.07073 -1.82868 0
M  V30 5998 C 580.21 3.04262 -3.32769 0
M  V30 5999 C 578.872 3.03203 -3.7366 0
M  V30 6000 C 581.224 2.96729 -4.28487 0
M  V30 6001 C 578.552 2.92373 -5.0866 0
M  V30 6002 C 580.904 2.87442 -5.63525 0
M  V30 6003 C 579.568 2.84724 -6.03729 0
M  V30 6004 H 578.838 0.618141 -0.408635 0
M  V30 6005 H 581.485 1.10124 -1.56668 0
M  V30 6006 H 579.79 3.69486 -1.30335 0
M  V30 6007 H 581.487 3.63635 -1.69029 0
M  V30 6008 H 578.077 3.05865 -3.00241 0
M  V30 6009 H 582.261 2.96658 -3.97879 0
M  V30 6010 H 577.517 2.88645 -5.38975 0
M  V30 6011 H 581.691 2.80576 -6.37377 0
M  V30 6012 H 579.318 2.76089 -7.08293 0
M  V30 6013 N 580.893 1.08022 1.14757 0
M  V30 6014 C 581.823 0.728248 2.21853 0
M  V30 6015 C 582.804 -0.287486 1.67653 0
M  V30 6016 O 583.989 -0.158727 1.9355 0
M  V30 6017 C 581.119 0.132549 3.47047 0
M  V30 6018 C 580.073 1.07619 4.14249 0
M  V30 6019 C 579.399 0.342907 5.33599 0
M  V30 6020 C 580.699 2.41268 4.63235 0
M  V30 6021 H 582.393 1.62365 2.51551 0
M  V30 6022 H 579.939 0.782125 1.20908 0
M  V30 6023 H 581.892 -0.125665 4.21213 0
M  V30 6024 H 580.616 -0.797971 3.16702 0
M  V30 6025 H 579.275 1.31944 3.42033 0
M  V30 6026 H 578.923 -0.59129 4.99513 0
M  V30 6027 H 578.623 0.971955 5.79506 0
M  V30 6028 H 580.147 0.0926538 6.1053 0
M  V30 6029 H 581.561 2.21232 5.28894 0
M  V30 6030 H 579.958 2.9983 5.19829 0
M  V30 6031 H 581.028 3.03079 3.78512 0
M  V30 6032 N 582.371 -1.3172 0.865308 0
M  V30 6033 C 583.319 -2.30569 0.306674 0
M  V30 6034 C 584.313 -1.59317 -0.575724 0
M  V30 6035 O 585.519 -1.73961 -0.462343 0
M  V30 6036 H 581.894 -0.747681 0.0804834 0
M  V30 6037 H 583.865 -2.75165 1.15441 0
M  V30 6038 C 582.614 -3.44358 -0.480952 0
M  V30 6039 H 581.937 -3.99354 0.18876 0
M  V30 6040 H 583.377 -4.15652 -0.837241 0
M  V30 6041 C 581.836 -2.92574 -1.67039 0
M  V30 6042 O 582.366 -2.90954 -2.76964 0
M  V30 6043 N 580.572 -2.48835 -1.50097 0
M  V30 6044 H 580.119 -2.50353 -0.606738 0
M  V30 6045 H 580.077 -2.14543 -2.29823 0
M  V30 6046 N 583.85 -0.624285 -1.44708 0
M  V30 6047 C 584.76 0.0861083 -2.34442 0
M  V30 6048 C 585.776 0.84291 -1.5222 0
M  V30 6049 O 586.952 0.796723 -1.84971 0
M  V30 6050 C 584.017 1.05999 -3.30099 0
M  V30 6051 C 583.077 0.303316 -4.28227 0
M  V30 6052 C 582.311 1.23081 -5.19314 0
M  V30 6053 O 582.534 2.46929 -5.14181 0
M  V30 6054 O 581.468 0.71883 -5.97592 0
M  V30 6055 H 585.293 -0.651756 -2.96624 0
M  V30 6056 H 582.879 -0.384493 -1.44368 0
M  V30 6057 H 584.76 1.62046 -3.88997 0
M  V30 6058 H 583.436 1.77859 -2.70459 0
M  V30 6059 H 582.343 -0.300033 -3.72895 0
M  V30 6060 H 583.676 -0.375123 -4.90768 0
M  V30 6061 N 585.328 1.53329 -0.364422 0
M  V30 6062 C 586.553 2.06132 0.229033 0
M  V30 6063 C 586.978 1.23625 1.41769 0
M  V30 6064 O 586.336 0.255038 1.79497 0
M  V30 6065 C 586.384 3.55544 0.60174 0
M  V30 6066 O 585.488 3.75771 1.69912 0
M  V30 6067 H 584.829 0.663148 0.0336213 0
M  V30 6068 H 587.359 1.97758 -0.524689 0
M  V30 6069 H 587.369 3.98549 0.873073 0
M  V30 6070 H 586.044 4.15039 -0.267421 0
M  V30 6071 H 584.621 3.44663 1.42343 0
M  V30 6072 N 586.806 0.0935595 1.57322 0
M  V30 6073 C 588.031 -0.582324 1.99057 0
M  V30 6074 C 588.456 -1.61025 0.972242 0
M  V30 6075 O 587.814 -1.81202 -0.0594622 0
M  V30 6076 C 587.862 -1.20799 3.39765 0
M  V30 6077 O 586.966 -2.32382 3.40694 0
M  V30 6078 H 586.307 -0.147884 0.647323 0
M  V30 6079 H 588.837 0.174516 2.03854 0
M  V30 6080 H 588.847 -1.54966 3.77425 0
M  V30 6081 H 587.522 -0.454914 4.13405 0
M  V30 6082 H 586.099 -1.99845 3.14827 0
M  V30 6083 N 588.284 -1.56567 -0.180126 0
M  V30 6084 C 589.561 -1.7235 -0.924931 0
M  V30 6085 C 589.941 -0.652523 -2.00762 0
M  V30 6086 O 589.289 0.334115 -2.26044 0
M  V30 6087 C 589.499 -3.1523 -1.49771 0
M  V30 6088 C 590.847 -3.75921 -1.97405 0
M  V30 6089 O 591.871 -3.18452 -1.59583 0
M  V30 6090 O 590.73 -4.7681 -2.67048 0
M  V30 6091 H 587.824 -0.703502 -0.434758 0
M  V30 6092 H 590.37 -1.6886 -0.168647 0
M  V30 6093 H 589.142 -3.84656 -0.718027 0
M  V30 6094 H 588.765 -3.23009 -2.31842 0
M  V30 6095 N 589.762 0.448376 -1.51087 0
M  V30 6096 C 590.71 1.56407 -1.72161 0
M  V30 6097 C 591.704 1.58878 -0.587721 0
M  V30 6098 O 592.91 1.62755 -0.768822 0
M  V30 6099 H 589.285 0.519423 -0.543786 0
M  V30 6100 H 591.256 1.35803 -2.65707 0
M  V30 6101 C 590.005 2.94163 -1.85373 0
M  V30 6102 H 589.328 2.9299 -2.72024 0
M  V30 6103 H 590.768 3.71625 -2.04135 0
M  V30 6104 C 589.227 3.31317 -0.610803 0
M  V30 6105 O 589.757 4.00985 0.239636 0
M  V30 6106 N 587.963 2.86966 -0.458127 0
M  V30 6107 H 587.51 2.30443 -1.15124 0
M  V30 6108 H 587.468 3.12188 0.372289 0
M  V30 6109 N 591.24 1.41047 0.703093 0
M  V30 6110 C 592.486 1.40207 1.46526 0
M  V30 6111 C 592.819 0.00847763 1.94198 0
M  V30 6112 O 592.094 -0.962437 1.69019 0
M  V30 6113 C 592.377 2.40238 2.6825 0
M  V30 6114 C 592.23 3.88674 2.26391 0
M  V30 6115 C 593.549 2.37627 3.70434 0
M  V30 6116 H 590.668 0.510594 0.531472 0
M  V30 6117 H 593.31 1.72271 0.801422 0
M  V30 6118 H 591.46 2.13026 3.24888 0
M  V30 6119 H 593.132 4.2676 1.75138 0
M  V30 6120 H 591.375 4.03903 1.58255 0
M  V30 6121 H 592.046 4.542 3.13698 0
M  V30 6122 H 594.522 2.61759 3.23452 0
M  V30 6123 H 593.398 3.09645 4.53223 0
M  V30 6124 H 593.659 1.39223 4.19606 0
M  V30 6125 N 592.718 -0.936591 1.26751 0
M  V30 6126 C 593.995 -1.66094 1.03306 0
M  V30 6127 C 594.375 -2.06568 -0.435058 0
M  V30 6128 O 593.723 -1.79305 -1.41641 0
M  V30 6129 C 593.933 -2.86969 1.98619 0
M  V30 6130 C 595.281 -3.58516 2.27489 0
M  V30 6131 O 596.305 -2.97082 1.96522 0
M  V30 6132 O 595.164 -4.69181 2.80235 0
M  V30 6133 H 592.258 -0.727568 0.393158 0
M  V30 6134 H 594.804 -0.987914 1.3798 0
M  V30 6135 H 593.576 -2.53985 2.9767 0
M  V30 6136 H 593.199 -3.61996 1.64454 0
M  V30 6137 N 594.196 -1.08629 -1.14182 0
M  V30 6138 C 595.445 -0.812271 -1.84621 0
M  V30 6139 C 595.758 0.664313 -1.83973 0
M  V30 6140 O 596.964 1.05357 -2.50224 0
M  V30 6141 C 595.42 -1.4031 -3.31423 0
M  V30 6142 C 595.028 -2.91164 -3.40481 0
M  V30 6143 C 596.772 -1.20767 -4.06959 0
M  V30 6144 C 594.679 -3.43373 -4.81507 0
M  V30 6145 H 593.609 -0.30019 -0.691666 0
M  V30 6146 H 596.26 -1.30798 -1.28701 0
M  V30 6147 H 594.642 -0.835096 -3.87094 0
M  V30 6148 H 595.816 -3.5412 -2.94848 0
M  V30 6149 H 594.131 -3.09646 -2.78403 0
M  V30 6150 H 596.728 -1.57237 -5.11058 0
M  V30 6151 H 597.071 -0.147664 -4.16038 0
M  V30 6152 H 597.604 -1.74274 -3.57594 0
M  V30 6153 H 594.343 -4.48958 -4.77616 0
M  V30 6154 H 593.863 -2.85176 -5.27669 0
M  V30 6155 H 595.542 -3.40095 -5.50404 0
M  V30 6156 N 595.674 1.31259 -0.872281 0
M  V30 6157 C 597.09 1.49283 -0.564521 0
M  V30 6158 C 597.29 1.80243 0.900807 0
M  V30 6159 O 596.346 1.88246 1.68284 0
M  V30 6160 C 597.659 2.62503 -1.46673 0
M  V30 6161 C 599.207 2.76386 -1.46901 0
M  V30 6162 C 599.682 3.92705 -2.35684 0
M  V30 6163 N 601.173 3.99995 -2.33577 0
M  V30 6164 C 601.908 4.89276 -2.98992 0
M  V30 6165 N 601.404 5.83443 -3.73585 0
M  V30 6166 N 603.197 4.82541 -2.88289 0
M  V30 6167 H 595.348 1.09432 -1.82039 0
M  V30 6168 H 597.611 0.540949 -0.77851 0
M  V30 6169 H 597.317 2.46407 -2.50951 0
M  V30 6170 H 597.191 3.58695 -1.16696 0
M  V30 6171 H 599.578 2.91894 -0.433796 0
M  V30 6172 H 599.659 1.80853 -1.80903 0
M  V30 6173 H 599.303 3.77954 -3.39283 0
M  V30 6174 H 599.233 4.87549 -1.99006 0
M  V30 6175 H 601.724 3.32624 -1.7936 0
M  V30 6176 H 602.037 6.48303 -4.20622 0
M  V30 6177 H 600.382 5.83415 -3.77694 0
M  V30 6178 H 603.573 4.07951 -2.2955 0
M  V30 6179 H 603.746 5.51916 -3.39549 0
M  V30 6180 N 597.152 0.631951 1.44375 0
M  V30 6181 C 598.398 0.145491 2.02879 0
M  V30 6182 C 598.753 -1.21936 1.48827 0
M  V30 6183 O 598.046 -1.7976 0.663085 0
M  V30 6184 C 598.24 0.0735861 3.57324 0
M  V30 6185 C 598.069 1.42992 4.2636 0
M  V30 6186 C 596.839 2.01691 4.63302 0
M  V30 6187 C 599.037 2.36393 4.56752 0
M  V30 6188 N 597.019 3.30551 5.17309 0
M  V30 6189 C 598.39 3.49869 5.11851 0
M  V30 6190 C 600.445 2.35462 4.38705 0
M  V30 6191 C 599.148 4.6261 5.50803 0
M  V30 6192 C 601.174 3.47268 4.78706 0
M  V30 6193 C 600.536 4.59467 5.33919 0
M  V30 6194 H 596.635 0.0971781 0.775938 0
M  V30 6195 H 599.219 0.835624 1.75856 0
M  V30 6196 H 597.39 -0.585829 3.83957 0
M  V30 6197 H 599.122 -0.421777 4.02496 0
M  V30 6198 H 595.877 1.54627 4.47647 0
M  V30 6199 H 596.301 3.96435 5.48788 0
M  V30 6200 H 600.943 1.49966 3.9531 0
M  V30 6201 H 598.661 5.48813 5.93152 0
M  V30 6202 H 602.247 3.47724 4.66454 0
M  V30 6203 H 601.127 5.44551 5.64299 0
M  V30 6204 N 598.631 -1.53133 0.372548 0
M  V30 6205 C 599.564 -2.22328 -0.514361 0
M  V30 6206 C 600.542 -1.21776 -1.07747 0
M  V30 6207 O 601.726 -1.50704 -1.13228 0
M  V30 6208 C 598.853 -2.92343 -1.71035 0
M  V30 6209 C 597.899 -4.07026 -1.27405 0
M  V30 6210 S 598.732 -5.34821 -0.269526 0
M  V30 6211 C 599.888 -6.08352 -1.47168 0
M  V30 6212 H 600.121 -2.9721 0.0732683 0
M  V30 6213 H 597.654 -1.53603 0.156673 0
M  V30 6214 H 599.612 -3.33296 -2.39634 0
M  V30 6215 H 598.273 -2.17173 -2.26925 0
M  V30 6216 H 597.466 -4.55056 -2.16656 0
M  V30 6217 H 597.068 -3.68001 -0.66719 0
M  V30 6218 H 599.36 -6.33507 -2.40157 0
M  V30 6219 H 600.303 -7.0053 -1.03263 0
M  V30 6220 H 600.711 -5.38893 -1.6809 0
M  V30 6221 N 600.109 -0.101901 -1.5727 0
M  V30 6222 C 601.056 0.854577 -2.14396 0
M  V30 6223 C 602.026 1.27521 -1.06432 0
M  V30 6224 O 603.211 1.35575 -1.34253 0
M  V30 6225 C 600.351 2.10576 -2.73408 0
M  V30 6226 C 599.464 1.73504 -3.95626 0
M  V30 6227 C 598.599 2.9346 -4.42781 0
M  V30 6228 C 597.638 2.52547 -5.57572 0
M  V30 6229 N 596.775 3.65359 -5.99547 0
M  V30 6230 H 601.615 0.360578 -2.9581 0
M  V30 6231 H 599.152 0.166303 -1.46157 0
M  V30 6232 H 601.11 2.83859 -3.05745 0
M  V30 6233 H 599.74 2.57463 -1.94711 0
M  V30 6234 H 598.792 0.901622 -3.6956 0
M  V30 6235 H 600.104 1.39426 -4.78917 0
M  V30 6236 H 599.258 3.74988 -4.76937 0
M  V30 6237 H 597.997 3.30753 -3.58404 0
M  V30 6238 H 597.002 1.69446 -5.23037 0
M  V30 6239 H 598.227 2.1639 -6.43702 0
M  V30 6240 H 596.173 4.02358 -5.18116 0
M  V30 6241 H 596.09 3.35148 -6.77652 0
M  V30 6242 H 597.358 4.47378 -6.38336 0
M  V30 6243 N 601.587 1.56661 0.17182 0
M  V30 6244 C 602.998 1.71652 0.734329 0
M  V30 6245 C 603.349 0.712335 1.82812 0
M  V30 6246 O 602.474 -0.126401 2.16031 0
M  V30 6247 C 603.069 3.11226 1.3388 0
M  V30 6248 C 601.628 3.27904 1.84813 0
M  V30 6249 C 600.775 2.67603 0.726917 0
M  V30 6250 H 603.726 1.5861 -0.0535665 0
M  V30 6251 H 603.747 3.09849 2.20849 0
M  V30 6252 H 603.259 3.8429 0.54249 0
M  V30 6253 H 601.36 2.59796 2.6709 0
M  V30 6254 H 601.473 4.35637 1.99392 0
M  V30 6255 H 599.837 2.274 1.14723 0
M  V30 6256 H 600.62 3.43252 -0.0575334 0
M  V30 6257 N 603.065 -0.440357 1.51323 0
M  V30 6258 C 604.476 -1.02032 1.56353 0
M  V30 6259 C 604.827 -1.92382 0.385197 0
M  V30 6260 O 603.952 -2.10583 -0.498373 0
M  V30 6261 C 604.547 -1.85723 2.83359 0
M  V30 6262 C 603.106 -2.38774 2.90971 0
M  V30 6263 C 602.253 -1.17908 2.50984 0
M  V30 6264 H 605.204 -0.221744 1.57143 0
M  V30 6265 H 605.225 -2.71141 2.66951 0
M  V30 6266 H 604.737 -1.19939 3.69102 0
M  V30 6267 H 602.838 -3.08021 2.09651 0
M  V30 6268 H 602.951 -2.71778 3.94555 0
M  V30 6269 H 601.315 -1.52347 2.04114 0
M  V30 6270 H 602.098 -0.537393 3.39068 0
M  V30 6271 N 604.543 -1.41418 -0.695603 0
M  V30 6272 C 605.771 -1.4413 -1.48439 0
M  V30 6273 C 606.186 -0.0465698 -1.88743 0
M  V30 6274 O 605.543 0.934117 -1.56782 0
M  V30 6275 C 605.594 -2.34998 -2.74696 0
M  V30 6276 O 605.315 -3.69043 -2.36091 0
M  V30 6277 C 606.816 -2.46513 -3.68438 0
M  V30 6278 H 604.036 -0.490905 -0.457442 0
M  V30 6279 H 606.58 -1.85702 -0.856454 0
M  V30 6280 H 604.735 -1.96735 -3.33728 0
M  V30 6281 H 605.149 -4.17505 -3.17474 0
M  V30 6282 H 606.623 -3.1426 -4.53811 0
M  V30 6283 H 607.1 -1.49638 -4.12922 0
M  V30 6284 H 607.706 -2.85412 -3.1531 0
M  V30 6285 N 606.021 0.929856 -1.27246 0
M  V30 6286 C 606.968 2.03017 -1.09785 0
M  V30 6287 C 607.938 1.661 0.000456744 0
M  V30 6288 O 609.123 1.90116 -0.161462 0
M  V30 6289 C 606.263 3.36878 -0.748816 0
M  V30 6290 C 605.376 3.86763 -1.92453 0
M  V30 6291 C 604.511 5.09061 -1.51758 0
M  V30 6292 C 603.55 5.51237 -2.66091 0
M  V30 6293 N 602.687 6.64732 -2.25999 0
M  V30 6294 H 607.527 2.17285 -2.03939 0
M  V30 6295 H 605.064 1.06448 -1.01524 0
M  V30 6296 H 607.022 4.13855 -0.527283 0
M  V30 6297 H 605.652 3.22424 0.155771 0
M  V30 6298 H 604.704 3.06086 -2.25867 0
M  V30 6299 H 606.016 4.13994 -2.78227 0
M  V30 6300 H 605.17 5.93532 -1.25716 0
M  V30 6301 H 603.909 4.83602 -0.630896 0
M  V30 6302 H 602.914 4.65316 -2.92849 0
M  V30 6303 H 604.139 5.78692 -3.55377 0
M  V30 6304 H 602.085 6.40935 -1.3978 0
M  V30 6305 H 602.002 6.91607 -3.05313 0
M  V30 6306 H 603.27 7.52549 -2.03199 0
M  V30 6307 N 607.499 1.09233 1.13605 0
M  V30 6308 C 608.431 0.687794 2.18637 0
M  V30 6309 C 609.444 -0.26936 1.60556 0
M  V30 6310 O 610.633 -0.0557162 1.78413 0
M  V30 6311 C 607.733 -0.00751901 3.38899 0
M  V30 6312 C 606.906 0.97067 4.26494 0
M  V30 6313 C 605.965 0.309129 5.25291 0
M  V30 6314 O 604.991 0.956149 5.61112 0
M  V30 6315 N 606.193 -0.937555 5.72879 0
M  V30 6316 H 608.958 1.59141 2.53957 0
M  V30 6317 H 606.519 0.979515 1.28907 0
M  V30 6318 H 608.511 -0.461238 4.02063 0
M  V30 6319 H 607.081 -0.813353 3.01833 0
M  V30 6320 H 606.301 1.603 3.60135 0
M  V30 6321 H 607.589 1.63323 4.81875 0
M  V30 6322 H 606.987 -1.48281 5.4592 0
M  V30 6323 H 605.544 -1.33463 6.3799 0
M  V30 6324 N 608.977 -1.30795 0.87923 0
M  V30 6325 C 609.909 -2.27241 0.299025 0
M  V30 6326 C 610.922 -1.53472 -0.543166 0
M  V30 6327 O 612.111 -1.74756 -0.363651 0
M  V30 6328 C 609.211 -3.33655 -0.593931 0
M  V30 6329 C 608.384 -4.36857 0.2179 0
M  V30 6330 C 607.443 -5.22715 -0.604646 0
M  V30 6331 O 606.469 -5.69192 -0.0293838 0
M  V30 6332 N 607.671 -5.48008 -1.91488 0
M  V30 6333 H 610.436 -2.77667 1.12788 0
M  V30 6334 H 607.997 -1.43914 0.741637 0
M  V30 6335 H 609.989 -3.88013 -1.15012 0
M  V30 6336 H 608.559 -2.83202 -1.32346 0
M  V30 6337 H 607.779 -3.82444 0.955536 0
M  V30 6338 H 609.067 -5.02869 0.774614 0
M  V30 6339 H 608.465 -5.1202 -2.40525 0
M  V30 6340 H 607.022 -6.05264 -2.41864 0
M  V30 6341 N 610.455 -0.639598 -1.44038 0
M  V30 6342 C 611.732 -0.078012 -1.95444 0
M  V30 6343 C 612.112 1.39847 -1.58133 0
M  V30 6344 O 611.46 2.11714 -0.859614 0
M  V30 6345 C 611.67 -0.309832 -3.47622 0
M  V30 6346 C 613.018 -0.207521 -4.24093 0
M  V30 6347 O 614.042 -0.241653 -3.55379 0
M  V30 6348 O 612.901 -0.119641 -5.46369 0
M  V30 6349 H 609.995 0.0174534 -0.826816 0
M  V30 6350 H 612.541 -0.711891 -1.54046 0
M  V30 6351 H 611.313 -1.33401 -3.67858 0
M  V30 6352 H 610.936 0.357777 -3.95987 0
M  V30 6353 N 611.933 1.52934 -0.380664 0
M  V30 6354 C 613.181 2.01069 0.203874 0
M  V30 6355 C 613.502 1.26922 1.4804 0
M  V30 6356 O 612.772 0.386787 1.92044 0
M  V30 6357 H 611.352 0.742882 0.0783279 0
M  V30 6358 H 614.014 1.88099 -0.510368 0
M  V30 6359 H 613.11 3.09258 0.42021 0
M  V30 6360 N 613.412 0.11024 1.57214 0
M  V30 6361 C 614.322 -0.857077 2.18383 0
M  V30 6362 C 615.338 -1.29915 1.1575 0
M  V30 6363 O 616.514 -1.36394 1.48184 0
M  V30 6364 C 613.579 -2.09264 2.76423 0
M  V30 6365 C 612.64 -1.70333 3.94063 0
M  V30 6366 C 611.873 -2.87999 4.49324 0
M  V30 6367 O 612.096 -4.0317 4.03497 0
M  V30 6368 O 611.03 -2.6559 5.40135 0
M  V30 6369 H 614.856 -0.366561 3.0148 0
M  V30 6370 H 612.441 -0.114914 1.48957 0
M  V30 6371 H 614.323 -2.81644 3.13456 0
M  V30 6372 H 612.998 -2.57339 1.96363 0
M  V30 6373 H 611.905 -0.950864 3.61814 0
M  V30 6374 H 613.238 -1.27007 4.75531 0
M  V30 6375 N 614.89 -1.56749 -0.16351 0
M  V30 6376 C 615.82 -2.00042 -1.20438 0
M  V30 6377 C 616.801 -0.877256 -1.45733 0
M  V30 6378 O 617.986 -1.1439 -1.56935 0
M  V30 6379 C 615.116 -2.36697 -2.54149 0
M  V30 6380 C 614.07 -3.52046 -2.43408 0
M  V30 6381 C 613.396 -3.74466 -3.81679 0
M  V30 6382 C 614.696 -4.85247 -1.93216 0
M  V30 6383 H 616.39 -2.87244 -0.844477 0
M  V30 6384 H 613.936 -1.38194 -0.40478 0
M  V30 6385 H 615.889 -2.65582 -3.27176 0
M  V30 6386 H 614.613 -1.46414 -2.91943 0
M  V30 6387 H 613.272 -3.23301 -1.72834 0
M  V30 6388 H 612.92 -2.81461 -4.1688 0
M  V30 6389 H 612.62 -4.52084 -3.75359 0
M  V30 6390 H 614.144 -4.0576 -4.5628 0
M  V30 6391 H 615.558 -5.12957 -2.56023 0
M  V30 6392 H 613.955 -5.66556 -1.97825 0
M  V30 6393 H 615.025 -4.7672 -0.88689 0
M  V30 6394 N 616.368 0.432326 -1.51554 0
M  V30 6395 C 617.614 1.18309 -1.64714 0
M  V30 6396 C 617.947 1.90745 -0.364696 0
M  V30 6397 O 617.222 1.8381 0.635936 0
M  V30 6398 C 617.505 2.1961 -2.85383 0
M  V30 6399 C 617.358 1.51223 -4.23617 0
M  V30 6400 C 618.677 3.20538 -3.01569 0
M  V30 6401 H 615.796 0.428751 -0.599451 0
M  V30 6402 H 618.438 0.471689 -1.84052 0
M  V30 6403 H 616.588 2.8028 -2.69027 0
M  V30 6404 H 618.26 0.938516 -4.51652 0
M  V30 6405 H 616.503 0.814501 -4.26085 0
M  V30 6406 H 617.174 2.25024 -5.04052 0
M  V30 6407 H 619.65 2.69926 -3.16669 0
M  V30 6408 H 618.526 3.88706 -3.87555 0
M  V30 6409 H 618.787 3.86933 -2.13859 0
M  V30 6410 N 617.846 1.41785 0.688094 0
M  V30 6411 C 619.094 1.41264 1.4453 0
M  V30 6412 C 619.415 0.0252946 1.94984 0
M  V30 6413 O 618.685 -0.934081 1.72197 0
M  V30 6414 H 617.265 0.519998 0.536294 0
M  V30 6415 H 619.927 1.7709 0.813941 0
M  V30 6416 H 619.023 2.10439 2.30482 0
M  V30 6417 N 619.324 -0.923095 1.27737 0
M  V30 6418 C 620.554 -1.70277 1.17001 0
M  V30 6419 C 620.962 -1.87188 -0.275199 0
M  V30 6420 O 620.305 -1.39195 -1.19877 0
M  V30 6421 C 620.367 -3.11976 1.78637 0
M  V30 6422 C 620.031 -3.18386 3.27841 0
M  V30 6423 C 621.028 -3.00287 4.2441 0
M  V30 6424 C 618.713 -3.41198 3.68632 0
M  V30 6425 C 620.707 -3.04896 5.59747 0
M  V30 6426 C 618.394 -3.4544 5.04097 0
M  V30 6427 C 619.392 -3.27309 5.99465 0
M  V30 6428 O 619.08 -3.31295 7.32461 0
M  V30 6429 H 618.812 -0.539366 0.407505 0
M  V30 6430 H 621.366 -1.16446 1.69202 0
M  V30 6431 H 619.596 -3.67308 1.20919 0
M  V30 6432 H 621.285 -3.7193 1.6255 0
M  V30 6433 H 622.051 -2.825 3.94232 0
M  V30 6434 H 617.93 -3.54359 2.94873 0
M  V30 6435 H 621.474 -2.90662 6.34162 0
M  V30 6436 H 617.371 -3.62753 5.33929 0
M  V30 6437 H 618.139 -3.47719 7.40968 0
M  V30 6438 N 620.802 -1.09834 -1.13024 0
M  V30 6439 C 622.218 -0.828875 -1.36388 0
M  V30 6440 C 622.418 0.554756 -1.93713 0
M  V30 6441 O 621.474 1.30882 -2.15931 0
M  V30 6442 C 622.787 -1.92352 -2.3113 0
M  V30 6443 C 624.335 -1.95124 -2.44735 0
M  V30 6444 C 624.81 -3.03745 -3.42787 0
M  V30 6445 N 626.301 -3.03012 -3.5034 0
M  V30 6446 C 627.036 -3.83699 -4.26101 0
M  V30 6447 N 626.532 -4.74306 -5.04981 0
M  V30 6448 N 628.325 -3.71942 -4.21445 0
M  V30 6449 H 620.476 -1.99029 -0.74169 0
M  V30 6450 H 622.739 -0.864557 -0.388903 0
M  V30 6451 H 622.445 -2.91906 -1.96172 0
M  V30 6452 H 622.319 -1.80536 -3.3119 0
M  V30 6453 H 624.706 -0.962069 -2.78977 0
M  V30 6454 H 624.787 -2.11018 -1.44586 0
M  V30 6455 H 624.431 -4.02878 -3.09276 0
M  V30 6456 H 624.361 -2.85094 -4.42752 0
M  V30 6457 H 626.852 -2.37352 -2.94062 0
M  V30 6458 H 627.165 -5.32446 -5.60108 0
M  V30 6459 H 625.51 -4.78339 -5.04199 0
M  V30 6460 H 628.701 -3.00513 -3.589 0
M  V30 6461 H 628.874 -4.35062 -4.80235 0
M  V30 6462 N 622.28 1.30327 -0.886154 0
M  V30 6463 C 623.529 1.95373 -0.501243 0
M  V30 6464 C 623.842 1.70722 0.954634 0
M  V30 6465 O 625.048 2.29761 1.44644 0
M  V30 6466 C 623.504 3.49828 -0.845493 0
M  V30 6467 C 623.112 3.83296 -2.31922 0
M  V30 6468 C 624.856 4.2118 -0.529838 0
M  V30 6469 C 622.763 5.30935 -2.60504 0
M  V30 6470 H 621.693 0.731274 -0.183722 0
M  V30 6471 H 624.344 1.48258 -1.08129 0
M  V30 6472 H 622.726 3.95522 -0.19452 0
M  V30 6473 H 623.9 3.48508 -3.01461 0
M  V30 6474 H 622.215 3.2505 -2.60253 0
M  V30 6475 H 624.812 5.29825 -0.720401 0
M  V30 6476 H 625.155 4.12902 0.530828 0
M  V30 6477 H 625.688 3.81173 -1.13806 0
M  V30 6478 H 622.427 5.44265 -3.65316 0
M  V30 6479 H 621.947 5.67019 -1.95575 0
M  V30 6480 H 623.626 5.98381 -2.46066 0
M  V30 6481 N 623.758 0.647228 1.43697 0
M  V30 6482 C 624.983 0.164083 2.0675 0
M  V30 6483 C 625.408 -1.15892 1.48158 0
M  V30 6484 O 624.766 -1.71459 0.589194 0
M  V30 6485 C 624.814 0.0800368 3.60511 0
M  V30 6486 O 623.918 -0.959453 4.01084 0
M  V30 6487 H 623.259 0.0921288 0.657578 0
M  V30 6488 H 625.789 0.88846 1.84303 0
M  V30 6489 H 625.799 -0.105263 4.07864 0
M  V30 6490 H 624.474 1.04586 4.02535 0
M  V30 6491 H 623.051 -0.747425 3.65333 0
M  V30 6492 N 625.236 -1.5273 0.388769 0
M  V30 6493 C 626.186 -2.23238 -0.463567 0
M  V30 6494 C 627.17 -1.23606 -1.03007 0
M  V30 6495 O 628.362 -1.48945 -0.956261 0
M  V30 6496 C 625.491 -3.04228 -1.5906 0
M  V30 6497 C 624.577 -4.11255 -1.03587 0
M  V30 6498 N 624.968 -5.0538 -0.206038 0
M  V30 6499 C 623.266 -4.26376 -1.30841 0
M  V30 6500 C 623.967 -5.81613 0.100359 0
M  V30 6501 N 622.943 -5.41264 -0.503447 0
M  V30 6502 H 626.745 -2.93367 0.176978 0
M  V30 6503 H 624.259 -1.61188 0.198046 0
M  V30 6504 H 626.256 -3.53277 -2.21362 0
M  V30 6505 H 624.916 -2.35634 -2.23398 0
M  V30 6506 H 625.927 -5.17663 0.156659 0
M  V30 6507 H 622.604 -3.69011 -1.95287 0
M  V30 6508 H 623.994 -6.67442 0.772676 0
M  V30 6509 N 626.714 -0.118576 -1.57153 0
M  V30 6510 C 627.96 0.540326 -1.95469 0
M  V30 6511 C 628.293 1.66356 -1.00196 0
M  V30 6512 O 627.568 1.94461 -0.039104 0
M  V30 6513 C 627.851 1.07342 -3.43729 0
M  V30 6514 C 627.704 -0.0463732 -4.49776 0
M  V30 6515 C 629.023 1.96442 -3.93826 0
M  V30 6516 H 626.142 0.19494 -0.710751 0
M  V30 6517 H 628.784 -0.19405 -1.89006 0
M  V30 6518 H 626.934 1.69925 -3.49368 0
M  V30 6519 H 628.606 -0.681648 -4.56236 0
M  V30 6520 H 626.849 -0.709574 -4.27957 0
M  V30 6521 H 627.52 0.367856 -5.50773 0
M  V30 6522 H 629.996 1.43731 -3.90488 0
M  V30 6523 H 628.872 2.3066 -4.98084 0
M  V30 6524 H 629.133 2.89077 -3.34495 0
M  V30 6525 N 628.193 1.56834 0.155195 0
M  V30 6526 C 629.439 1.84058 0.865687 0
M  V30 6527 C 629.794 0.701418 1.79159 0
M  V30 6528 O 629.087 -0.301162 1.89218 0
M  V30 6529 C 629.281 3.15239 1.68402 0
M  V30 6530 C 629.11 4.41807 0.838847 0
M  V30 6531 C 627.88 5.02744 0.507645 0
M  V30 6532 C 630.078 5.14009 0.172946 0
M  V30 6533 N 628.06 6.1289 -0.351978 0
M  V30 6534 C 629.431 6.17581 -0.547158 0
M  V30 6535 C 631.486 4.97814 0.0927721 0
M  V30 6536 C 630.189 7.06711 -1.33985 0
M  V30 6537 C 632.215 5.874 -0.686638 0
M  V30 6538 C 631.577 6.90447 -1.39505 0
M  V30 6539 H 627.676 0.724276 0.294871 0
M  V30 6540 H 630.26 1.94255 0.131583 0
M  V30 6541 H 628.431 3.06205 2.38942 0
M  V30 6542 H 630.163 3.304 2.33705 0
M  V30 6543 H 626.918 4.66064 0.841517 0
M  V30 6544 H 627.342 6.72577 -0.772573 0
M  V30 6545 H 631.984 4.18138 0.626112 0
M  V30 6546 H 629.702 7.8582 -1.88448 0
M  V30 6547 H 633.288 5.76938 -0.750555 0
M  V30 6548 H 632.168 7.58571 -1.98847 0
M  V30 6549 N 629.671 -0.424282 1.51781 0
M  V30 6550 C 630.603 -1.53457 1.70246 0
M  V30 6551 C 631.616 -1.52004 0.582967 0
M  V30 6552 O 632.805 -1.56544 0.857683 0
M  V30 6553 C 629.905 -2.92368 1.71389 0
M  V30 6554 C 629.078 -3.1818 3.00133 0
M  V30 6555 C 628.137 -4.36884 2.9329 0
M  V30 6556 O 627.163 -4.34901 3.67219 0
M  V30 6557 N 628.365 -5.4117 2.10036 0
M  V30 6558 H 631.13 -1.38017 2.66029 0
M  V30 6559 H 628.691 -0.613394 1.4983 0
M  V30 6560 H 630.683 -3.6982 1.64362 0
M  V30 6561 H 629.253 -3.0134 0.831449 0
M  V30 6562 H 628.473 -2.28908 3.20928 0
M  V30 6563 H 629.761 -3.32261 3.85331 0
M  V30 6564 H 629.159 -5.45623 1.49373 0
M  V30 6565 H 627.716 -6.17425 2.08878 0
M  V30 6566 N 631.149 -1.42148 -0.680565 0
M  V30 6567 C 632.374 -1.45901 -1.47403 0
M  V30 6568 C 632.799 -0.0700985 -1.87969 0
M  V30 6569 O 632.157 0.930145 -1.55621 0
M  V30 6570 C 632.205 -2.38661 -2.70321 0
M  V30 6571 O 631.309 -1.85399 -3.68376 0
M  V30 6572 H 630.65 -0.494565 -0.443059 0
M  V30 6573 H 633.18 -1.86774 -0.835251 0
M  V30 6574 H 633.19 -2.55046 -3.18458 0
M  V30 6575 H 631.865 -3.39571 -2.40134 0
M  V30 6576 H 630.442 -1.78541 -3.2738 0
M  V30 6577 N 632.627 0.916307 -1.28225 0
M  V30 6578 C 633.59 1.99996 -1.11957 0
M  V30 6579 C 634.59 1.60688 -0.0600152 0
M  V30 6580 O 635.78 1.71499 -0.30558 0
M  V30 6581 C 632.912 3.33458 -0.708411 0
M  V30 6582 H 634.105 2.15858 -2.08196 0
M  V30 6583 H 631.658 1.09863 -1.11175 0
M  V30 6584 H 632.393 3.23297 0.254859 0
M  V30 6585 H 632.178 3.63349 -1.47377 0
M  V30 6586 H 633.668 4.13014 -0.617164 0
M  V30 6587 N 634.105 1.10431 1.1244 0
M  V30 6588 C 635.353 0.845045 1.83585 0
M  V30 6589 C 635.674 -0.631168 1.84503 0
M  V30 6590 O 634.944 -1.45825 1.30813 0
M  V30 6591 H 633.524 0.309628 0.679809 0
M  V30 6592 H 636.186 1.39458 1.36153 0
M  V30 6593 H 635.282 1.20786 2.8778 0
M  V30 6594 N 635.583 -1.29855 0.893053 0
M  V30 6595 C 636.832 -1.95104 0.511597 0
M  V30 6596 C 637.145 -1.71226 -0.945567 0
M  V30 6597 O 638.351 -2.30525 -1.43424 0
M  V30 6598 C 636.807 -3.49374 0.864034 0
M  V30 6599 C 636.415 -3.82061 2.33952 0
M  V30 6600 C 638.159 -4.20894 0.552167 0
M  V30 6601 C 636.066 -5.29546 2.63316 0
M  V30 6602 H 634.996 -0.73029 0.187597 0
M  V30 6603 H 637.647 -1.47682 1.08914 0
M  V30 6604 H 636.029 -3.95413 0.215493 0
M  V30 6605 H 637.203 -3.46904 3.03305 0
M  V30 6606 H 635.518 -3.23665 2.61973 0
M  V30 6607 H 638.115 -5.29435 0.748489 0
M  V30 6608 H 638.458 -4.13178 -0.508924 0
M  V30 6609 H 638.991 -3.80564 1.15825 0
M  V30 6610 H 635.73 -5.4232 3.68197 0
M  V30 6611 H 635.25 -5.65974 1.9858 0
M  V30 6612 H 636.929 -5.97068 2.49236 0
M  V30 6613 N 637.061 -0.65484 -1.43351 0
M  V30 6614 C 638.286 -0.175046 -2.0666 0
M  V30 6615 C 638.711 1.15104 -1.4877 0
M  V30 6616 O 638.069 1.71144 -0.598279 0
M  V30 6617 C 638.117 -0.0991544 -3.60464 0
M  V30 6618 O 637.221 0.938169 -4.01587 0
M  V30 6619 H 636.562 -0.0956148 -0.65708 0
M  V30 6620 H 639.092 -0.898222 -1.83829 0
M  V30 6621 H 639.102 0.083632 -4.07914 0
M  V30 6622 H 637.777 -1.06719 -4.01975 0
M  V30 6623 H 636.354 0.72804 -3.65724 0
M  V30 6624 N 638.539 1.52521 -0.396863 0
M  V30 6625 C 639.486 2.26671 0.434624 0
M  V30 6626 C 640.456 1.28584 1.05144 0
M  V30 6627 O 641.641 1.57426 1.07804 0
M  V30 6628 C 638.781 3.08234 1.55196 0
M  V30 6629 C 637.894 4.21261 0.957262 0
M  V30 6630 C 637.029 4.90205 2.04627 0
M  V30 6631 C 636.068 5.95213 1.42787 0
M  V30 6632 N 635.205 6.57723 2.45651 0
M  V30 6633 H 640.045 2.973 -0.204139 0
M  V30 6634 H 637.582 1.46669 -0.112505 0
M  V30 6635 H 639.54 3.53819 2.2106 0
M  V30 6636 H 638.17 2.398 2.16092 0
M  V30 6637 H 637.222 3.79935 0.188005 0
M  V30 6638 H 638.534 4.96624 0.465416 0
M  V30 6639 H 637.688 5.39133 2.78246 0
M  V30 6640 H 636.427 4.14383 2.57174 0
M  V30 6641 H 635.432 5.45616 0.676968 0
M  V30 6642 H 636.657 6.72972 0.910255 0
M  V30 6643 H 634.603 5.84737 2.97353 0
M  V30 6644 H 634.52 7.28723 2.01243 0
M  V30 6645 H 635.788 7.11293 3.18876 0
M  V30 6646 N 640.017 0.126909 1.57088 0
M  V30 6647 C 640.927 -0.833867 2.1928 0
M  V30 6648 C 641.943 -1.2868 1.17122 0
M  V30 6649 O 643.119 -1.34815 1.49622 0
M  V30 6650 C 640.184 -2.0632 2.78627 0
M  V30 6651 C 639.245 -1.66143 3.95847 0
M  V30 6652 C 638.478 -2.83217 4.52354 0
M  V30 6653 O 638.701 -3.98868 4.0775 0
M  V30 6654 O 637.635 -2.59846 5.42922 0
M  V30 6655 H 641.461 -0.334564 3.01852 0
M  V30 6656 H 639.046 -0.0991091 1.49071 0
M  V30 6657 H 640.928 -2.78304 3.16425 0
M  V30 6658 H 639.603 -2.55242 1.99082 0
M  V30 6659 H 638.51 -0.912435 3.62802 0
M  V30 6660 H 639.843 -1.21957 4.76852 0
M  V30 6661 N 641.495 -1.56914 -0.146875 0
M  V30 6662 C 642.425 -2.01308 -1.1831 0
M  V30 6663 C 643.406 -0.892664 -1.44795 0
M  V30 6664 O 644.591 -1.16048 -1.55713 0
M  V30 6665 C 641.721 -2.3938 -2.51624 0
M  V30 6666 C 640.675 -3.54608 -2.3966 0
M  V30 6667 C 640.001 -3.78493 -3.77686 0
M  V30 6668 C 641.301 -4.87269 -1.88058 0
M  V30 6669 H 642.995 -2.88123 -0.813964 0
M  V30 6670 H 640.541 -1.38615 -0.3901 0
M  V30 6671 H 642.494 -2.69037 -3.24341 0
M  V30 6672 H 641.218 -1.49502 -2.90373 0
M  V30 6673 H 639.877 -3.25116 -1.69396 0
M  V30 6674 H 639.525 -2.85866 -4.13871 0
M  V30 6675 H 639.225 -4.56039 -3.70543 0
M  V30 6676 H 640.749 -4.10576 -4.51951 0
M  V30 6677 H 642.163 -5.15644 -2.50568 0
M  V30 6678 H 640.56 -5.68622 -1.91805 0
M  V30 6679 H 641.63 -4.77634 -0.836277 0
M  V30 6680 N 642.974 0.416227 -1.52004 0
M  V30 6681 C 643.904 1.51365 -1.77795 0
M  V30 6682 C 644.885 1.58059 -0.628601 0
M  V30 6683 O 646.07 1.73447 -0.873478 0
M  V30 6684 C 643.2 2.89256 -1.92219 0
M  V30 6685 C 642.154 2.97415 -3.0778 0
M  V30 6686 C 641.48 4.37492 -3.07417 0
M  V30 6687 C 642.78 2.69551 -4.47369 0
M  V30 6688 H 644.474 1.30033 -2.69688 0
M  V30 6689 H 642.02 0.624112 -1.29772 0
M  V30 6690 H 643.973 3.66008 -2.08845 0
M  V30 6691 H 642.697 3.11866 -0.969917 0
M  V30 6692 H 641.356 2.23107 -2.90893 0
M  V30 6693 H 641.004 4.571 -2.09925 0
M  V30 6694 H 640.704 4.43877 -3.85029 0
M  V30 6695 H 642.228 5.16188 -3.26162 0
M  V30 6696 H 643.642 3.36028 -4.64497 0
M  V30 6697 H 642.039 2.87321 -5.26846 0
M  V30 6698 H 643.109 1.65029 -4.55953 0
M  V30 6699 N 644.452 1.42507 0.673017 0
M  V30 6700 C 645.362 1.4853 1.81593 0
M  V30 6701 C 646.378 0.373907 1.69935 0
M  V30 6702 O 647.554 0.625078 1.91454 0
M  V30 6703 C 644.619 1.387 3.17747 0
M  V30 6704 C 643.68 2.60346 3.41348 0
M  V30 6705 C 642.913 2.50975 4.71007 0
M  V30 6706 O 643.136 1.54659 5.49033 0
M  V30 6707 O 642.07 3.41138 4.95892 0
M  V30 6708 H 645.896 2.45001 1.79467 0
M  V30 6709 H 643.481 1.2429 0.82899 0
M  V30 6710 H 645.363 1.35586 3.98992 0
M  V30 6711 H 644.038 0.453555 3.20507 0
M  V30 6712 H 642.945 2.69034 2.59945 0
M  V30 6713 H 644.278 3.52595 3.43421 0
M  V30 6714 N 645.93 -0.909495 1.28709 0
M  V30 6715 C 646.84 -2.04558 1.14861 0
M  V30 6716 C 647.856 -1.73842 0.0741621 0
M  V30 6717 O 649.032 -1.99383 0.2843 0
M  V30 6718 C 646.097 -3.36957 0.816148 0
M  V30 6719 C 645.158 -3.81255 1.97341 0
M  V30 6720 C 644.391 -5.07335 1.65671 0
M  V30 6721 O 644.614 -5.67514 0.573053 0
M  V30 6722 O 643.548 -5.47449 2.50167 0
M  V30 6723 H 647.374 -2.19161 2.10243 0
M  V30 6724 H 644.959 -1.03159 1.08068 0
M  V30 6725 H 646.841 -4.16436 0.644873 0
M  V30 6726 H 645.516 -3.2352 -0.107983 0
M  V30 6727 H 644.423 -3.02584 2.19986 0
M  V30 6728 H 645.756 -3.99261 2.87839 0
M  V30 6729 N 647.408 -1.11026 -1.11852 0
M  V30 6730 C 648.654 -0.857729 -1.83768 0
M  V30 6731 C 648.987 0.615143 -1.842 0
M  V30 6732 O 648.262 1.45391 -1.29196 0
M  V30 6733 C 648.545 -1.41453 -3.31154 0
M  V30 6734 C 648.398 -2.95471 -3.39142 0
M  V30 6735 C 649.717 -1.0619 -4.27097 0
M  V30 6736 H 646.836 -0.313044 -0.667212 0
M  V30 6737 H 649.478 -1.37443 -1.31185 0
M  V30 6738 H 647.628 -0.975052 -3.76065 0
M  V30 6739 H 649.3 -3.4799 -3.02821 0
M  V30 6740 H 647.543 -3.31759 -2.79497 0
M  V30 6741 H 648.214 -3.29515 -4.42859 0
M  V30 6742 H 650.69 -1.44122 -3.90344 0
M  V30 6743 H 649.566 -1.47832 -5.28618 0
M  V30 6744 H 649.827 0.0278912 -4.42091 0
M  V30 6745 N 648.886 1.2938 -0.899927 0
M  V30 6746 C 650.134 1.95164 -0.524924 0
M  V30 6747 C 650.455 1.71292 0.931888 0
M  V30 6748 O 649.725 1.04481 1.65712 0
M  V30 6749 H 648.305 0.722133 -0.191135 0
M  V30 6750 H 650.967 1.57628 -1.14627 0
M  V30 6751 H 650.063 3.0397 -0.707711 0
M  V30 6752 N 650.364 0.662433 1.43002 0
M  V30 6753 C 651.296 -0.062326 2.29115 0
M  V30 6754 C 652.309 -0.777926 1.43011 0
M  V30 6755 O 653.498 -0.634146 1.66856 0
M  V30 6756 C 650.598 -1.11163 3.2015 0
M  V30 6757 C 649.771 -0.472327 4.34842 0
M  V30 6758 C 648.83 -1.41974 5.06685 0
M  V30 6759 O 647.856 -0.924795 5.61637 0
M  V30 6760 N 649.058 -2.75345 5.11043 0
M  V30 6761 H 651.823 0.676838 2.91957 0
M  V30 6762 H 649.384 0.505907 1.53793 0
M  V30 6763 H 651.376 -1.74643 3.65078 0
M  V30 6764 H 649.946 -1.75266 2.58845 0
M  V30 6765 H 649.166 0.341751 3.92716 0
M  V30 6766 H 650.454 -0.0264381 5.08793 0
M  V30 6767 H 649.852 -3.18108 4.67786 0
M  V30 6768 H 648.409 -3.34105 5.59658 0
M  V30 6769 N 651.842 -1.52309 0.404946 0
M  V30 6770 C 652.79 -2.28452 -0.437321 0
M  V30 6771 C 653.784 -1.32975 -1.04948 0
M  V30 6772 O 654.99 -1.50451 -0.988159 0
M  V30 6773 H 651.365 -0.734824 -0.159805 0
M  V30 6774 H 653.336 -2.97542 0.22615 0
M  V30 6775 C 652.085 -3.11536 -1.54404 0
M  V30 6776 H 651.408 -3.84871 -1.08233 0
M  V30 6777 H 652.848 -3.67926 -2.10729 0
M  V30 6778 C 651.307 -2.24833 -2.50902 0
M  V30 6779 O 651.837 -1.88574 -3.54687 0
M  V30 6780 N 650.043 -1.88685 -2.21012 0
M  V30 6781 H 649.59 -2.18371 -1.36646 0
M  V30 6782 H 649.548 -1.30966 -2.85824 0
M  V30 6783 N 653.32 -0.135238 -1.57019 0
M  V30 6784 C 654.568 0.51777 -1.95355 0
M  V30 6785 C 654.889 1.6617 -1.02042 0
M  V30 6786 O 654.159 1.95738 -0.0797343 0
M  V30 6787 H 652.739 0.194264 -0.721298 0
M  V30 6788 H 655.401 -0.207983 -1.93787 0
M  V30 6789 H 654.497 0.901675 -2.98791 0
M  V30 6790 N 654.798 1.5699 0.138552 0
M  V30 6791 C 656.023 1.88344 0.86841 0
M  V30 6792 C 656.448 0.725159 1.7356 0
M  V30 6793 O 655.806 -0.324992 1.78363 0
M  V30 6794 C 655.854 3.18334 1.69398 0
M  V30 6795 O 654.958 3.02863 2.79907 0
M  V30 6796 H 654.299 0.618577 0.241367 0
M  V30 6797 H 656.829 2.04207 0.126826 0
M  V30 6798 H 656.839 3.50567 2.08726 0
M  V30 6799 H 655.514 4.02238 1.05725 0
M  V30 6800 H 654.091 2.82056 2.43924 0
M  V30 6801 N 656.276 -0.40816 1.52223 0
M  V30 6802 C 657.692 -0.74685 1.41047 0
M  V30 6803 C 657.892 -1.94788 0.51573 0
M  V30 6804 O 656.948 -2.52494 -0.0181156 0
M  V30 6805 C 658.261 -0.999878 2.83589 0
M  V30 6806 C 659.809 -1.10253 2.92939 0
M  V30 6807 C 660.284 -1.38832 4.36451 0
M  V30 6808 N 661.775 -1.45694 4.3969 0
M  V30 6809 C 662.51 -1.69435 5.47795 0
M  V30 6810 N 662.006 -1.90774 6.66016 0
M  V30 6811 N 663.799 -1.71458 5.35312 0
M  V30 6812 H 655.95 0.382409 2.08929 0
M  V30 6813 H 658.213 0.108807 0.941735 0
M  V30 6814 H 657.919 -0.189723 3.51188 0
M  V30 6815 H 657.793 -1.91978 3.24691 0
M  V30 6816 H 660.18 -1.90328 2.2552 0
M  V30 6817 H 660.261 -0.160973 2.55293 0
M  V30 6818 H 659.905 -0.592741 5.04429 0
M  V30 6819 H 659.835 -2.34241 4.71634 0
M  V30 6820 H 662.326 -1.3099 3.54472 0
M  V30 6821 H 662.639 -2.08342 7.44186 0
M  V30 6822 H 660.984 -1.88037 6.69079 0
M  V30 6823 H 664.175 -1.54326 4.41929 0
M  V30 6824 H 664.348 -1.89621 6.19635 0
M  V30 6825 N 657.755 -1.42862 -0.66545 0
M  V30 6826 C 658.718 -1.46756 -1.76055 0
M  V30 6827 C 659.718 -0.353866 -1.56858 0
M  V30 6828 O 660.908 -0.615099 -1.62979 0
M  V30 6829 C 658.04 -1.30829 -3.14796 0
M  V30 6830 H 659.233 -2.44271 -1.73987 0
M  V30 6831 H 656.786 -1.29447 -0.875965 0
M  V30 6832 H 657.521 -0.342733 -3.22484 0
M  V30 6833 H 657.306 -2.11551 -3.30134 0
M  V30 6834 H 658.796 -1.36458 -3.94676 0
M  V30 6835 N 659.233 0.902656 -1.29189 0
M  V30 6836 C 660.649 1.18296 -1.07137 0
M  V30 6837 C 660.849 2.00701 0.179223 0
M  V30 6838 O 659.905 2.3675 0.877812 0
M  V30 6839 C 661.218 1.90677 -2.32514 0
M  V30 6840 C 662.766 2.03515 -2.37804 0
M  V30 6841 C 663.241 2.79307 -3.62976 0
M  V30 6842 N 664.732 2.86862 -3.63681 0
M  V30 6843 C 665.467 3.46035 -4.57217 0
M  V30 6844 N 664.963 4.06399 -5.61081 0
M  V30 6845 N 666.756 3.43681 -4.44792 0
M  V30 6846 H 658.907 0.352765 -2.0945 0
M  V30 6847 H 661.17 0.21876 -0.922414 0
M  V30 6848 H 660.876 1.3756 -3.23682 0
M  V30 6849 H 660.75 2.91169 -2.39793 0
M  V30 6850 H 663.137 2.55809 -1.47125 0
M  V30 6851 H 663.218 1.02166 -2.34512 0
M  V30 6852 H 662.862 2.2769 -4.54004 0
M  V30 6853 H 662.792 3.80995 -3.63525 0
M  V30 6854 H 665.283 2.43987 -2.88581 0
M  V30 6855 H 665.596 4.49564 -6.2858 0
M  V30 6856 H 663.941 4.0487 -5.64894 0
M  V30 6857 H 667.132 2.9574 -3.62843 0
M  V30 6858 H 667.305 3.89503 -5.17872 0
M  V30 6859 N 660.711 1.11618 1.11262 0
M  V30 6860 C 661.96 0.860934 1.82403 0
M  V30 6861 C 662.273 -0.615303 1.8567 0
M  V30 6862 O 663.479 -0.986861 2.52929 0
M  V30 6863 C 661.935 1.49048 3.27586 0
M  V30 6864 C 661.543 3.00089 3.32642 0
M  V30 6865 C 663.287 1.31515 4.03614 0
M  V30 6866 C 661.194 3.56019 4.72234 0
M  V30 6867 H 660.124 0.318423 0.683464 0
M  V30 6868 H 662.775 1.34165 1.25188 0
M  V30 6869 H 661.157 0.937434 3.84744 0
M  V30 6870 H 662.331 3.61813 2.85356 0
M  V30 6871 H 660.646 3.16919 2.70096 0
M  V30 6872 H 663.243 1.70732 5.0671 0
M  V30 6873 H 663.586 0.257917 4.155 0
M  V30 6874 H 664.119 1.83694 3.52848 0
M  V30 6875 H 660.858 4.61463 4.65545 0
M  V30 6876 H 660.378 2.99066 5.19923 0
M  V30 6877 H 662.057 3.54568 5.41193 0
M  V30 6878 N 662.189 -1.289 0.906776 0
M  V30 6879 C 663.414 -1.99939 0.551303 0
M  V30 6880 C 663.839 -1.67366 -0.858496 0
M  V30 6881 O 663.197 -0.902176 -1.57259 0
M  V30 6882 C 663.245 -3.52523 0.758937 0
M  V30 6883 O 662.349 -4.11983 -0.185308 0
M  V30 6884 H 661.69 -0.628376 0.214568 0
M  V30 6885 H 664.22 -1.64225 1.2203 0
M  V30 6886 H 664.23 -4.02522 0.666329 0
M  V30 6887 H 662.905 -3.75566 1.78671 0
M  V30 6888 H 661.482 -3.72873 -0.0445577 0
M  V30 6889 N 663.667 -0.670007 -1.42649 0
M  V30 6890 C 664.913 -0.190568 -2.01903 0
M  V30 6891 C 665.246 1.19817 -1.52832 0
M  V30 6892 O 664.521 1.80342 -0.728485 0
M  V30 6893 C 664.804 -0.21991 -3.59428 0
M  V30 6894 C 664.657 -1.64376 -4.18689 0
M  V30 6895 C 665.976 0.434519 -4.3795 0
M  V30 6896 H 663.095 -0.0707219 -0.733599 0
M  V30 6897 H 665.737 -0.853883 -1.69732 0
M  V30 6898 H 663.887 0.344894 -3.86966 0
M  V30 6899 H 665.559 -2.26044 -4.02122 0
M  V30 6900 H 663.802 -2.18591 -3.747 0
M  V30 6901 H 664.473 -1.61601 -5.27815 0
M  V30 6902 H 666.949 -0.0462156 -4.16074 0
M  V30 6903 H 665.825 0.38333 -5.4756 0
M  V30 6904 H 666.086 1.51135 -4.15464 0
M  V30 6905 N 665.145 1.52092 -0.413018 0
M  V30 6906 C 666.077 2.24819 0.445994 0
M  V30 6907 C 667.09 1.27925 1.00692 0
M  V30 6908 O 668.279 1.53845 0.905204 0
M  V30 6909 C 665.379 2.96951 1.6332 0
M  V30 6910 C 664.552 4.20746 1.19548 0
M  V30 6911 C 663.611 4.75668 2.25003 0
M  V30 6912 O 662.637 5.38148 1.85434 0
M  V30 6913 N 663.839 4.57579 3.57214 0
M  V30 6914 H 666.604 2.99176 -0.177209 0
M  V30 6915 H 664.165 1.60102 -0.240601 0
M  V30 6916 H 666.157 3.30586 2.33441 0
M  V30 6917 H 664.727 2.25756 2.16225 0
M  V30 6918 H 663.947 3.92881 0.32224 0
M  V30 6919 H 665.235 5.01132 0.880033 0
M  V30 6920 H 664.633 4.07758 3.92109 0
M  V30 6921 H 663.19 4.95642 4.23299 0
M  V30 6922 N 666.623 0.143563 1.56945 0
M  V30 6923 C 667.869 -0.50916 1.96304 0
M  V30 6924 C 668.202 -1.64741 1.0283 0
M  V30 6925 O 667.477 -1.94374 0.0700361 0
M  V30 6926 C 667.76 -1.0186 3.45393 0
M  V30 6927 C 667.613 0.117923 4.49645 0
M  V30 6928 C 668.932 -1.90151 3.96901 0
M  V30 6929 H 666.051 -0.183608 0.713763 0
M  V30 6930 H 668.693 0.224095 1.88674 0
M  V30 6931 H 666.843 -1.64345 3.52027 0
M  V30 6932 H 668.515 0.754145 4.55094 0
M  V30 6933 H 666.758 0.777568 4.26774 0
M  V30 6934 H 667.429 -0.280187 5.51288 0
M  V30 6935 H 669.905 -1.375 3.92725 0
M  V30 6936 H 668.781 -2.22707 5.0169 0
M  V30 6937 H 669.042 -2.83718 3.39052 0
M  V30 6938 N 668.101 -1.57061 -0.130224 0
M  V30 6939 C 669.051 -1.95941 -1.16582 0
M  V30 6940 C 670.035 -0.832858 -1.37667 0
M  V30 6941 O 671.227 -1.09647 -1.38948 0
M  V30 6942 C 668.356 -2.35777 -2.49528 0
M  V30 6943 C 667.442 -3.5504 -2.31964 0
M  V30 6944 N 667.833 -4.71071 -1.84189 0
M  V30 6945 C 666.131 -3.60453 -2.62659 0
M  V30 6946 C 666.832 -5.53128 -1.80068 0
M  V30 6947 N 665.808 -4.95303 -2.24001 0
M  V30 6948 H 669.61 -2.83117 -0.788806 0
M  V30 6949 H 667.124 -1.58842 -0.3381 0
M  V30 6950 H 669.121 -2.61843 -3.24413 0
M  V30 6951 H 667.781 -1.49961 -2.87996 0
M  V30 6952 H 668.792 -4.94504 -1.53903 0
M  V30 6953 H 665.469 -2.85217 -3.0489 0
M  V30 6954 H 666.859 -6.56182 -1.4448 0
M  V30 6955 N 669.579 0.400081 -1.52437 0
M  V30 6956 C 670.527 1.50851 -1.7705 0
M  V30 6957 C 671.521 1.56928 -0.637969 0
M  V30 6958 O 672.727 1.60226 -0.820212 0
M  V30 6959 H 669.102 0.50186 -0.560036 0
M  V30 6960 H 671.073 1.27281 -2.69893 0
M  V30 6961 C 669.822 2.88117 -1.94638 0
M  V30 6962 H 669.145 2.84187 -2.81208 0
M  V30 6963 H 670.585 3.64942 -2.15855 0
M  V30 6964 C 669.044 3.29206 -0.715899 0
M  V30 6965 O 669.574 4.01544 0.111944 0
M  V30 6966 N 667.78 2.85363 -0.549191 0
M  V30 6967 H 667.327 2.26664 -1.22397 0
M  V30 6968 H 667.285 3.13214 0.27278 0
M  V30 6969 N 671.057 1.43213 0.657864 0
M  V30 6970 C 672.02 1.47687 1.75275 0
M  V30 6971 C 673.02 0.362179 1.56668 0
M  V30 6972 O 674.21 0.623734 1.62651 0
M  V30 6973 C 671.342 1.32497 3.14098 0
M  V30 6974 H 672.535 2.4519 1.7269 0
M  V30 6975 H 670.088 1.2991 0.869087 0
M  V30 6976 H 670.823 0.359831 3.22298 0
M  V30 6977 H 670.608 2.13299 3.29008 0
M  V30 6978 H 672.098 1.38549 3.93946 0
M  V30 6979 N 672.536 -0.895792 1.29666 0
M  V30 6980 C 673.764 -1.68001 1.20761 0
M  V30 6981 C 674.179 -1.87379 -0.231187 0
M  V30 6982 O 673.536 -1.41359 -1.15429 0
M  V30 6983 C 673.587 -3.06236 1.92098 0
M  V30 6984 O 673.308 -2.8774 3.30359 0
M  V30 6985 C 674.809 -4.00652 1.89717 0
M  V30 6986 H 672.029 -0.524591 0.418384 0
M  V30 6987 H 674.573 -1.11995 1.71106 0
M  V30 6988 H 672.728 -3.59007 1.45578 0
M  V30 6989 H 673.142 -3.75359 3.66342 0
M  V30 6990 H 674.616 -4.95051 2.44189 0
M  V30 6991 H 675.093 -4.30424 0.873595 0
M  V30 6992 H 675.699 -3.53815 2.35998 0
M  V30 6993 N 674.014 -1.12206 -1.10668 0
M  V30 6994 C 675.254 -0.885935 -1.84202 0
M  V30 6995 C 675.618 0.577849 -1.83098 0
M  V30 6996 O 676.819 0.931051 -2.5216 0
M  V30 6997 C 675.09 -1.44197 -3.2702 0
M  V30 6998 S 676.649 -1.34402 -4.1771 0
M  V30 6999 H 673.467 -0.319653 -0.635093 0
M  V30 7000 H 676.069 -1.43112 -1.33189 0
M  V30 7001 H 674.773 -2.50096 -3.25392 0
M  V30 7002 H 674.304 -0.894173 -3.83103 0
M  V30 7003 H 676.319 -0.313873 -4.95206 0
M  V30 7004 N 675.492 1.28418 -0.913599 0
M  V30 7005 C 676.72 1.99106 -0.562536 0
M  V30 7006 C 677.135 1.68273 0.856137 0
M  V30 7007 O 676.492 0.935401 1.56705 0
M  V30 7008 C 676.543 3.5338 -0.761903 0
M  V30 7009 O 676.264 3.83127 -2.12475 0
M  V30 7010 C 677.765 4.41328 -0.417651 0
M  V30 7011 H 674.985 0.635798 -0.214481 0
M  V30 7012 H 677.529 1.63618 -1.22676 0
M  V30 7013 H 675.684 3.8713 -0.144676 0
M  V30 7014 H 676.098 4.77763 -2.16431 0
M  V30 7015 H 677.572 5.48642 -0.607919 0
M  V30 7016 H 678.049 4.34422 0.646108 0
M  V30 7017 H 678.655 4.13074 -1.01241 0
M  V30 7018 N 676.97 0.677563 1.42291 0
M  V30 7019 C 678.216 0.201272 2.01799 0
M  V30 7020 C 678.549 -1.19004 1.53465 0
M  V30 7021 O 677.824 -1.79953 0.738039 0
M  V30 7022 C 678.107 0.238968 3.59306 0
M  V30 7023 C 677.96 1.66594 4.17812 0
M  V30 7024 C 679.279 -0.411287 4.38174 0
M  V30 7025 H 676.398 0.0746114 0.733214 0
M  V30 7026 H 679.04 0.862872 1.69276 0
M  V30 7027 H 677.19 -0.324368 3.87144 0
M  V30 7028 H 678.862 2.28173 4.00917 0
M  V30 7029 H 677.105 2.20576 3.73536 0
M  V30 7030 H 677.776 1.64398 5.26951 0
M  V30 7031 H 680.252 0.0682804 4.16044 0
M  V30 7032 H 679.128 -0.354286 5.47755 0
M  V30 7033 H 679.389 -1.4893 4.1626 0
M  V30 7034 N 678.448 -1.51871 0.421078 0
M  V30 7035 C 679.864 -1.59435 0.0725398 0
M  V30 7036 C 680.064 -1.43315 -1.41644 0
M  V30 7037 O 679.12 -1.26614 -2.18461 0
M  V30 7038 C 680.433 -2.9509 0.578132 0
M  V30 7039 C 681.981 -3.08356 0.537149 0
M  V30 7040 C 682.456 -4.4651 1.01945 0
M  V30 7041 N 683.947 -4.52784 0.976758 0
M  V30 7042 C 684.682 -5.57976 1.32099 0
M  V30 7043 N 684.178 -6.70664 1.73727 0
M  V30 7044 N 685.971 -5.48248 1.2402 0
M  V30 7045 H 678.122 -1.60595 1.39007 0
M  V30 7046 H 680.385 -0.756138 0.571803 0
M  V30 7047 H 680.091 -3.12205 1.61929 0
M  V30 7048 H 679.965 -3.772 -0.00578374 0
M  V30 7049 H 682.352 -2.90919 -0.494991 0
M  V30 7050 H 682.433 -2.28125 1.15727 0
M  V30 7051 H 682.077 -4.64692 2.04997 0
M  V30 7052 H 682.007 -5.25256 0.376023 0
M  V30 7053 H 684.498 -3.71898 0.670851 0
M  V30 7054 H 684.811 -7.46932 1.98274 0
M  V30 7055 H 683.156 -6.71914 1.77641 0
M  V30 7056 H 686.347 -4.59095 0.913756 0
M  V30 7057 H 686.52 -6.30119 1.51176 0
M  V30 7058 N 679.926 -0.151884 -1.56866 0
M  V30 7059 C 681.175 0.497992 -1.95456 0
M  V30 7060 C 681.488 1.6569 -1.03953 0
M  V30 7061 O 682.694 2.37173 -1.32142 0
M  V30 7062 C 681.15 0.93732 -3.4748 0
M  V30 7063 C 680.758 -0.194921 -4.47576 0
M  V30 7064 C 682.502 1.55671 -3.94926 0
M  V30 7065 C 680.409 0.26295 -5.90815 0
M  V30 7066 H 679.339 0.189811 -0.729717 0
M  V30 7067 H 681.99 -0.237011 -1.81963 0
M  V30 7068 H 680.372 1.72773 -3.56322 0
M  V30 7069 H 681.546 -0.971951 -4.50433 0
M  V30 7070 H 679.861 -0.72303 -4.10075 0
M  V30 7071 H 682.458 1.91099 -4.99385 0
M  V30 7072 H 682.801 2.44748 -3.36755 0
M  V30 7073 H 683.334 0.831109 -3.89021 0
M  V30 7074 H 680.073 -0.592568 -6.52816 0
M  V30 7075 H 679.593 1.00575 -5.91308 0
M  V30 7076 H 681.272 0.713333 -6.43056 0
M  V30 7077 N 681.404 1.57128 0.121893 0
M  V30 7078 C 682.367 1.99197 1.13372 0
M  V30 7079 C 683.367 0.881728 1.3447 0
M  V30 7080 O 684.557 1.14783 1.31036 0
M  V30 7081 C 681.689 2.32963 2.4888 0
M  V30 7082 H 682.882 2.89788 0.772204 0
M  V30 7083 H 680.435 1.51952 0.366093 0
M  V30 7084 H 681.17 1.45243 2.89957 0
M  V30 7085 H 680.955 3.13934 2.34921 0
M  V30 7086 H 682.445 2.66261 3.21706 0
M  V30 7087 N 682.882 -0.391992 1.52647 0
M  V30 7088 C 683.845 -1.46135 1.7657 0
M  V30 7089 C 684.845 -1.47701 0.635698 0
M  V30 7090 O 686.035 -1.48924 0.903728 0
M  V30 7091 C 683.167 -2.85443 1.86374 0
M  V30 7092 H 684.36 -1.26208 2.72051 0
M  V30 7093 H 681.913 -0.623549 1.43323 0
M  V30 7094 H 682.648 -3.10718 0.928685 0
M  V30 7095 H 682.433 -2.85708 2.68539 0
M  V30 7096 H 683.923 -3.62933 2.06566 0
M  V30 7097 N 684.36 -1.4356 -0.65026 0
M  V30 7098 C 685.606 -1.45549 -1.41221 0
M  V30 7099 C 685.939 -0.0805472 -1.94033 0
M  V30 7100 O 685.214 0.899043 -1.72475 0
M  V30 7101 C 685.497 -2.50028 -2.59148 0
M  V30 7102 C 685.35 -3.96808 -2.1181 0
M  V30 7103 C 686.669 -2.51212 -3.61359 0
M  V30 7104 H 683.788 -0.529967 -0.512156 0
M  V30 7105 H 686.43 -1.75127 -0.736933 0
M  V30 7106 H 684.58 -2.24937 -3.16758 0
M  V30 7107 H 686.252 -4.32966 -1.59178 0
M  V30 7108 H 684.495 -4.09498 -1.43156 0
M  V30 7109 H 685.166 -4.6553 -2.96625 0
M  V30 7110 H 687.642 -2.73583 -3.13515 0
M  V30 7111 H 686.518 -3.26252 -4.41419 0
M  V30 7112 H 686.779 -1.54701 -4.1415 0
M  V30 7113 N 685.838 0.888903 -1.30139 0
M  V30 7114 C 687.066 1.67358 -1.21651 0
M  V30 7115 C 687.481 1.87499 0.221246 0
M  V30 7116 O 686.838 1.41969 1.14677 0
M  V30 7117 C 686.889 3.05213 -1.93719 0
M  V30 7118 O 686.61 2.85984 -3.31881 0
M  V30 7119 C 688.111 3.9964 -1.9184 0
M  V30 7120 H 685.331 0.522365 -0.42116 0
M  V30 7121 H 687.875 1.11086 -1.71698 0
M  V30 7122 H 686.03 3.5823 -1.4748 0
M  V30 7123 H 686.444 3.73411 -3.68327 0
M  V30 7124 H 687.918 4.93749 -2.46811 0
M  V30 7125 H 688.395 4.29955 -0.896409 0
M  V30 7126 H 689.001 3.52558 -2.37872 0
M  V30 7127 N 687.317 1.12792 1.10072 0
M  V30 7128 C 688.733 0.864745 1.34143 0
M  V30 7129 C 688.933 -0.503201 1.95116 0
M  V30 7130 O 687.989 -1.25111 2.19325 0
M  V30 7131 C 689.302 1.98413 2.25949 0
M  V30 7132 C 690.85 2.01545 2.39476 0
M  V30 7133 C 691.325 3.12727 3.34613 0
M  V30 7134 N 692.816 3.12194 3.42183 0
M  V30 7135 C 693.551 3.94862 4.15779 0
M  V30 7136 N 693.047 4.87528 4.92228 0
M  V30 7137 N 694.84 3.82985 4.11435 0
M  V30 7138 H 686.991 2.00926 0.68866 0
M  V30 7139 H 689.254 0.874564 0.365844 0
M  V30 7140 H 688.96 2.97005 1.88364 0
M  V30 7141 H 688.834 1.89254 3.26287 0
M  V30 7142 H 691.221 1.0357 2.76328 0
M  V30 7143 H 691.302 2.14777 1.3894 0
M  V30 7144 H 690.946 4.10936 2.98486 0
M  V30 7145 H 690.876 2.96732 4.35037 0
M  V30 7146 H 693.367 2.45065 2.87666 0
M  V30 7147 H 693.68 5.47109 5.45794 0
M  V30 7148 H 692.025 4.91539 4.9134 0
M  V30 7149 H 695.216 3.09923 3.50807 0
M  V30 7150 H 695.389 4.47641 4.68531 0
M  V30 7151 N 688.795 -1.27931 0.920396 0
M  V30 7152 C 690.043 -1.94304 0.555906 0
M  V30 7153 C 690.364 -1.72753 -0.904519 0
M  V30 7154 O 689.634 -1.07104 -1.64029 0
M  V30 7155 H 688.214 -0.719001 0.202599 0
M  V30 7156 H 690.876 -1.55785 1.1712 0
M  V30 7157 H 689.972 -3.02806 0.755981 0
M  V30 7158 N 690.273 -0.685099 -1.4193 0
M  V30 7159 C 691.521 -0.21124 -2.00993 0
M  V30 7160 C 691.842 1.18985 -1.54491 0
M  V30 7161 O 691.112 1.8009 -0.771 0
M  V30 7162 H 689.692 -0.0751059 -0.743215 0
M  V30 7163 H 692.354 -0.883915 -1.73704 0
M  V30 7164 H 691.45 -0.220513 -3.1132 0
M  V30 7165 N 691.751 1.51645 -0.429126 0
M  V30 7166 C 692.997 2.02314 0.140286 0
M  V30 7167 C 693.33 1.31314 1.43074 0
M  V30 7168 O 692.605 0.425531 1.89788 0
M  V30 7169 C 692.888 3.5822 0.36749 0
M  V30 7170 C 692.741 4.39846 -0.941039 0
M  V30 7171 C 694.06 4.25055 1.14089 0
M  V30 7172 H 691.179 0.735335 0.0495112 0
M  V30 7173 H 693.821 1.81358 -0.566514 0
M  V30 7174 H 691.971 3.76207 0.969556 0
M  V30 7175 H 693.643 4.33527 -1.57646 0
M  V30 7176 H 691.886 4.05259 -1.54751 0
M  V30 7177 H 692.557 5.47069 -0.73621 0
M  V30 7178 H 695.033 4.11288 0.630986 0
M  V30 7179 H 693.909 5.34038 1.26863 0
M  V30 7180 H 694.17 3.85358 2.16683 0
M  V30 7181 N 693.229 0.160201 1.56784 0
M  V30 7182 C 694.477 -0.486625 1.96154 0
M  V30 7183 C 694.798 -1.64525 1.04673 0
M  V30 7184 O 694.068 -1.95586 0.110864 0
M  V30 7185 H 692.648 -0.182764 0.724297 0
M  V30 7186 H 695.31 0.238787 1.93432 0
M  V30 7187 H 694.406 -0.854025 3.00188 0
M  V30 7188 N 694.707 -1.5719 -0.113559 0
M  V30 7189 C 696.118 -1.74259 -0.670116 0
M  V30 7190 C 696.469 -0.779694 -1.80042 0
M  V30 7191 O 695.594 0.0461353 -2.16351 0
M  V30 7192 C 696.189 -3.15981 -1.22236 0
M  V30 7193 C 694.748 -3.34537 -1.72516 0
M  V30 7194 C 693.895 -2.70116 -0.627098 0
M  V30 7195 H 696.846 -1.58301 0.112396 0
M  V30 7196 H 696.867 -3.17832 -2.09197 0
M  V30 7197 H 696.379 -3.86038 -0.39949 0
M  V30 7198 H 694.48 -2.6953 -2.57263 0
M  V30 7199 H 694.593 -4.42737 -1.83086 0
M  V30 7200 H 692.957 -2.31501 -1.06204 0
M  V30 7201 H 693.74 -3.42802 0.184889 0
M  V30 7202 N 696.185 0.383891 -1.52853 0
M  V30 7203 C 697.432 1.12842 -1.68146 0
M  V30 7204 C 697.76 1.89823 -0.423954 0
M  V30 7205 O 697.015 1.86475 0.593765 0
M  V30 7206 C 697.314 2.12881 -2.87082 0
M  V30 7207 C 696.98 1.52519 -4.24322 0
M  V30 7208 C 695.642 1.35783 -4.61645 0
M  V30 7209 C 697.994 1.0868 -5.09743 0
M  V30 7210 C 695.322 0.737643 -5.82044 0
M  V30 7211 C 697.674 0.480699 -6.30771 0
M  V30 7212 C 696.338 0.300681 -6.66822 0
M  V30 7213 H 695.608 0.412917 -0.615289 0
M  V30 7214 H 698.255 0.412416 -1.87006 0
M  V30 7215 H 696.56 2.90719 -2.62659 0
M  V30 7216 H 698.257 2.70408 -2.96109 0
M  V30 7217 H 694.847 1.66534 -3.94923 0
M  V30 7218 H 699.031 1.2041 -4.81472 0
M  V30 7219 H 694.287 0.586415 -6.08581 0
M  V30 7220 H 698.461 0.132733 -6.96273 0
M  V30 7221 H 696.088 -0.181966 -7.59982 0
M  V30 7222 N 697.663 1.43903 0.642637 0
M  V30 7223 C 698.888 1.49758 1.43483 0
M  V30 7224 C 699.313 0.119911 1.87717 0
M  V30 7225 O 698.671 -0.888558 1.58033 0
M  V30 7226 C 698.719 2.45744 2.63898 0
M  V30 7227 O 697.823 1.95101 3.63331 0
M  V30 7228 H 697.164 0.506138 0.429791 0
M  V30 7229 H 699.694 1.88923 0.785438 0
M  V30 7230 H 699.704 2.63399 3.11584 0
M  V30 7231 H 698.379 3.45818 2.31046 0
M  V30 7232 H 696.956 1.87158 3.22531 0
M  V30 7233 N 699.141 -0.881989 1.30609 0
M  V30 7234 C 700.418 -1.61563 1.10258 0
M  V30 7235 C 700.798 -2.08228 -0.347053 0
M  V30 7236 O 700.146 -1.85151 -1.33908 0
M  V30 7237 C 700.356 -2.78287 2.10612 0
M  V30 7238 C 701.704 -3.48545 2.4249 0
M  V30 7239 O 702.728 -2.88479 2.08945 0
M  V30 7240 O 701.587 -4.56873 2.99883 0
M  V30 7241 H 698.681 -0.710238 0.423663 0
M  V30 7242 H 701.227 -0.928503 1.42045 0
M  V30 7243 H 699.999 -2.41131 3.08174 0
M  V30 7244 H 699.622 -3.54695 1.79659 0
M  V30 7245 N 700.619 -1.13374 -1.09472 0
M  V30 7246 C 702.03 -0.90801 -1.63132 0
M  V30 7247 C 702.381 0.555576 -1.8817 0
M  V30 7248 O 701.506 1.42218 -1.63104 0
M  V30 7249 C 702.101 -1.64182 -2.96361 0
M  V30 7250 C 700.66 -1.46197 -3.46848 0
M  V30 7251 C 699.807 -1.67134 -2.21273 0
M  V30 7252 H 702.758 -1.2871 -0.928411 0
M  V30 7253 H 702.779 -1.09863 -3.64294 0
M  V30 7254 H 702.291 -2.707 -2.78106 0
M  V30 7255 H 700.392 -0.419788 -3.70228 0
M  V30 7256 H 700.505 -2.22472 -4.24315 0
M  V30 7257 H 698.869 -1.09616 -2.29905 0
M  V30 7258 H 699.652 -2.74971 -2.05538 0
M  V30 7259 N 702.098 1.27442 -0.927168 0
M  V30 7260 C 703.344 1.94679 -0.568164 0
M  V30 7261 C 703.677 1.72697 0.888219 0
M  V30 7262 O 702.952 1.05573 1.63354 0
M  V30 7263 C 703.235 3.4882 -0.894253 0
M  V30 7264 C 703.088 3.80146 -2.40435 0
M  V30 7265 C 704.407 4.38281 -0.399766 0
M  V30 7266 H 701.526 0.707071 -0.207892 0
M  V30 7267 H 704.168 1.50568 -1.15885 0
M  V30 7268 H 702.318 3.86522 -0.391566 0
M  V30 7269 H 703.99 3.52238 -2.97869 0
M  V30 7270 H 702.233 3.26716 -2.85375 0
M  V30 7271 H 702.904 4.87835 -2.58304 0
M  V30 7272 H 705.38 4.07726 -0.83058 0
M  V30 7273 H 704.256 5.44955 -0.656885 0
M  V30 7274 H 704.517 4.36521 0.700153 0
M  V30 7275 N 703.576 0.692616 1.41565 0
M  V30 7276 C 704.523 0.0254264 2.30786 0
M  V30 7277 C 705.493 -0.774347 1.46946 0
M  V30 7278 O 706.678 -0.742981 1.7574 0
M  V30 7279 C 703.818 -0.907123 3.32964 0
M  V30 7280 C 702.931 -0.0992784 4.31886 0
M  V30 7281 C 702.066 -1.0292 5.21134 0
M  V30 7282 C 701.105 -0.214088 6.11725 0
M  V30 7283 N 700.242 -1.09766 6.93467 0
M  V30 7284 H 705.082 0.792036 2.87282 0
M  V30 7285 H 702.619 0.4023 1.41492 0
M  V30 7286 H 704.577 -1.46181 3.90752 0
M  V30 7287 H 703.207 -1.64016 2.78026 0
M  V30 7288 H 702.259 0.572287 3.76071 0
M  V30 7289 H 703.571 0.532782 4.95946 0
M  V30 7290 H 702.725 -1.65321 5.83741 0
M  V30 7291 H 701.464 -1.69512 4.57293 0
M  V30 7292 H 700.469 0.42302 5.4817 0
M  V30 7293 H 701.694 0.447995 6.77621 0
M  V30 7294 H 699.64 -1.74965 6.32237 0
M  V30 7295 H 699.557 -0.521099 7.54202 0
M  V30 7296 H 700.825 -1.70858 7.60544 0
M  V30 7297 N 705.054 -1.51416 0.437162 0
M  V30 7298 C 706.303 -2.01275 -0.130865 0
M  V30 7299 C 706.616 -1.32593 -1.438 0
M  V30 7300 O 707.822 -1.7342 -2.08897 0
M  V30 7301 C 706.278 -3.5878 -0.283763 0
M  V30 7302 C 705.886 -4.36399 1.01293 0
M  V30 7303 C 707.63 -4.16786 -0.805569 0
M  V30 7304 C 705.537 -5.85608 0.825687 0
M  V30 7305 H 704.467 -0.752157 -0.0526818 0
M  V30 7306 H 707.118 -1.74524 0.566896 0
M  V30 7307 H 705.5 -3.81976 -1.04452 0
M  V30 7308 H 706.674 -4.24948 1.78201 0
M  V30 7309 H 704.989 -3.89843 1.46326 0
M  V30 7310 H 707.586 -5.25972 -0.962146 0
M  V30 7311 H 707.929 -3.75949 -1.78796 0
M  V30 7312 H 708.462 -3.97666 -0.103125 0
M  V30 7313 H 705.201 -6.30857 1.78045 0
M  V30 7314 H 704.721 -5.99723 0.0964029 0
M  V30 7315 H 706.4 -6.45226 0.478815 0
M  V30 7316 N 706.532 -0.168513 -1.56696 0
M  V30 7317 C 707.779 0.477158 -1.96798 0
M  V30 7318 C 708.107 1.63442 -1.05437 0
M  V30 7319 O 707.362 1.95503 -0.0878903 0
M  V30 7320 C 707.661 1.00441 -3.42996 0
M  V30 7321 C 707.327 -0.0366556 -4.50885 0
M  V30 7322 C 705.989 -0.322785 -4.80116 0
M  V30 7323 C 708.341 -0.743447 -5.1587 0
M  V30 7324 C 705.669 -1.32114 -5.71632 0
M  V30 7325 C 708.021 -1.73077 -6.08463 0
M  V30 7326 C 706.685 -2.02437 -6.36062 0
M  V30 7327 H 705.955 0.174604 -0.720135 0
M  V30 7328 H 708.602 -0.259884 -1.89728 0
M  V30 7329 H 706.907 1.81922 -3.47004 0
M  V30 7330 H 708.604 1.51294 -3.71364 0
M  V30 7331 H 705.194 0.196532 -4.28149 0
M  V30 7332 H 709.378 -0.535602 -4.93401 0
M  V30 7333 H 704.634 -1.55482 -5.913 0
M  V30 7334 H 708.808 -2.28382 -6.57886 0
M  V30 7335 H 706.435 -2.79946 -7.06777 0
M  V30 7336 N 708.01 1.57248 0.105221 0
M  V30 7337 C 709.259 1.84756 0.809198 0
M  V30 7338 C 709.572 0.756262 1.80389 0
M  V30 7339 O 710.778 0.918158 2.55504 0
M  V30 7340 C 709.234 3.27613 1.48989 0
M  V30 7341 C 708.842 4.44788 0.535484 0
M  V30 7342 C 710.586 3.64356 2.17819 0
M  V30 7343 C 708.493 5.78676 1.22019 0
M  V30 7344 H 707.423 0.689139 0.305946 0
M  V30 7345 H 710.074 1.83395 0.0620371 0
M  V30 7346 H 708.456 3.23485 2.28415 0
M  V30 7347 H 709.63 4.60243 -0.226557 0
M  V30 7348 H 707.945 4.16374 -0.0465769 0
M  V30 7349 H 710.542 4.61663 2.69761 0
M  V30 7350 H 710.885 2.92474 2.96251 0
M  V30 7351 H 711.418 3.70328 1.45264 0
M  V30 7352 H 708.157 6.53763 0.476875 0
M  V30 7353 H 707.677 5.67083 1.9539 0
M  V30 7354 H 709.356 6.22897 1.74952 0
M  V30 7355 N 709.488 -0.375779 1.53054 0
M  V30 7356 C 710.899 -0.95309 1.6054 0
M  V30 7357 C 711.25 -1.90575 0.466446 0
M  V30 7358 O 710.375 -2.12507 -0.408609 0
M  V30 7359 C 710.97 -1.73537 2.90982 0
M  V30 7360 C 709.529 -2.26218 3.00836 0
M  V30 7361 C 708.676 -1.07157 2.55759 0
M  V30 7362 H 711.627 -0.154895 1.57942 0
M  V30 7363 H 711.648 -2.59574 2.78211 0
M  V30 7364 H 711.16 -1.04176 3.73857 0
M  V30 7365 H 709.261 -2.98852 2.22527 0
M  V30 7366 H 709.374 -2.54799 4.05727 0
M  V30 7367 H 707.738 -1.43553 2.10391 0
M  V30 7368 H 708.521 -0.393099 3.41042 0
M  V30 7369 N 710.966 -1.44241 -0.634997 0
M  V30 7370 C 711.929 -1.50457 -1.72903 0
M  V30 7371 C 712.929 -0.387058 -1.56072 0
M  V30 7372 O 714.119 -0.649531 -1.61638 0
M  V30 7373 C 711.251 -1.37477 -3.1195 0
M  V30 7374 H 712.444 -2.47907 -1.68767 0
M  V30 7375 H 709.997 -1.31276 -0.84831 0
M  V30 7376 H 710.732 -0.41106 -3.21684 0
M  V30 7377 H 710.517 -2.18506 -3.25573 0
M  V30 7378 H 712.007 -1.44799 -3.91692 0
M  V30 7379 N 712.444 0.87505 -1.31075 0
M  V30 7380 C 713.394 1.96933 -1.14898 0
M  V30 7381 C 714.378 1.60783 -0.0613703 0
M  V30 7382 O 715.57 1.74678 -0.285751 0
M  V30 7383 C 712.699 3.3253 -0.853166 0
M  V30 7384 C 711.785 3.74963 -1.98151 0
M  V30 7385 N 712.176 3.89403 -3.22799 0
M  V30 7386 C 710.474 4.04436 -1.8801 0
M  V30 7387 C 711.175 4.25563 -3.96574 0
M  V30 7388 N 710.151 4.3597 -3.24701 0
M  V30 7389 H 713.953 2.06201 -2.09424 0
M  V30 7390 H 711.467 1.06551 -1.22558 0
M  V30 7391 H 713.464 4.10666 -0.718266 0
M  V30 7392 H 712.124 3.24592 0.0839218 0
M  V30 7393 H 713.135 3.74266 -3.57974 0
M  V30 7394 H 709.812 4.04915 -1.01733 0
M  V30 7395 H 711.202 4.44375 -5.03965 0
M  V30 7396 N 713.922 1.13953 1.08869 0
M  V30 7397 C 715.17 0.903023 1.80803 0
M  V30 7398 C 715.491 -0.572151 1.86417 0
M  V30 7399 O 714.761 -1.41589 1.35386 0
M  V30 7400 H 713.341 0.331099 0.669614 0
M  V30 7401 H 716.003 1.43719 1.31647 0
M  V30 7402 H 715.099 1.29881 2.83791 0
M  V30 7403 N 715.4 -1.26948 0.933913 0
M  V30 7404 C 716.646 -1.94716 0.587985 0
M  V30 7405 C 717.001 -1.71994 -0.862312 0
M  V30 7406 O 716.294 -1.04208 -1.60783 0
M  V30 7407 C 716.488 -3.46963 0.857406 0
M  V30 7408 C 716.317 -3.84489 2.33234 0
M  V30 7409 C 715.087 -4.07621 2.98618 0
M  V30 7410 C 717.285 -3.93602 3.31031 0
M  V30 7411 N 715.267 -4.31976 4.362 0
M  V30 7412 C 716.638 -4.22404 4.53845 0
M  V30 7413 C 718.693 -3.76201 3.26155 0
M  V30 7414 C 717.396 -4.35615 5.72391 0
M  V30 7415 C 719.422 -3.90641 4.4402 0
M  V30 7416 C 718.784 -4.19835 5.65613 0
M  V30 7417 H 714.883 -0.735586 0.2654 0
M  V30 7418 H 717.467 -1.53181 1.20182 0
M  V30 7419 H 715.638 -3.87442 0.27268 0
M  V30 7420 H 717.37 -4.01921 0.47348 0
M  V30 7421 H 714.125 -4.02696 2.49264 0
M  V30 7422 H 714.549 -4.48199 5.07392 0
M  V30 7423 H 719.191 -3.52665 2.3321 0
M  V30 7424 H 716.909 -4.57975 6.65796 0
M  V30 7425 H 720.495 -3.78589 4.41771 0
M  V30 7426 H 719.375 -4.30765 6.55295 0
M  V30 7427 N 716.879 -0.700114 -1.41195 0
M  V30 7428 C 718.125 -0.233351 -2.01453 0
M  V30 7429 C 718.458 1.16548 -1.55339 0
M  V30 7430 O 717.733 1.78756 -0.766575 0
M  V30 7431 C 718.016 -0.2961 -3.58881 0
M  V30 7432 C 717.869 -1.7322 -4.15108 0
M  V30 7433 C 719.188 0.341525 -4.38773 0
M  V30 7434 H 716.307 -0.0862667 -0.731934 0
M  V30 7435 H 718.949 -0.889693 -1.67882 0
M  V30 7436 H 717.099 0.262736 -3.87611 0
M  V30 7437 H 718.771 -2.34523 -3.97236 0
M  V30 7438 H 717.014 -2.2649 -3.69979 0
M  V30 7439 H 717.685 -1.7276 -5.24269 0
M  V30 7440 H 720.161 -0.134461 -4.15883 0
M  V30 7441 H 719.037 0.267098 -5.4825 0
M  V30 7442 H 719.298 1.42289 -4.18577 0
M  V30 7443 N 718.357 1.51182 -0.445186 0
M  V30 7444 C 719.634 1.9478 0.178965 0
M  V30 7445 C 720.014 1.38428 1.59376 0
M  V30 7446 O 719.362 0.574552 2.21159 0
M  V30 7447 C 719.572 3.48683 0.148711 0
M  V30 7448 C 720.92 4.23152 0.35042 0
M  V30 7449 O 721.944 3.55479 0.226474 0
M  V30 7450 O 720.803 5.4322 0.597893 0
M  V30 7451 H 717.897 0.817387 0.12573 0
M  V30 7452 H 720.443 1.62051 -0.503729 0
M  V30 7453 H 719.215 3.82176 -0.84009 0
M  V30 7454 H 718.838 3.87875 0.873979 0
M  V30 7455 N 719.835 0.176821 1.56605 0
M  V30 7456 C 721.065 -0.472142 2.01133 0
M  V30 7457 C 721.473 -1.56979 1.05614 0
M  V30 7458 O 720.816 -1.83632 0.0500137 0
M  V30 7459 C 720.878 -1.10547 3.42081 0
M  V30 7460 C 720.542 -0.148806 4.56758 0
M  V30 7461 C 721.539 0.634939 5.16008 0
M  V30 7462 C 719.224 -0.0430325 5.02282 0
M  V30 7463 C 721.218 1.5116 6.19217 0
M  V30 7464 C 718.905 0.83721 6.05338 0
M  V30 7465 C 719.903 1.61311 6.63677 0
M  V30 7466 O 719.591 2.47863 7.64735 0
M  V30 7467 H 719.323 -0.124725 0.664394 0
M  V30 7468 H 721.877 0.277329 2.03519 0
M  V30 7469 H 720.107 -1.90318 3.36625 0
M  V30 7470 H 721.796 -1.6572 3.70529 0
M  V30 7471 H 722.562 0.563424 4.81716 0
M  V30 7472 H 718.441 -0.636753 4.56581 0
M  V30 7473 H 721.985 2.11767 6.64681 0
M  V30 7474 H 717.882 0.909908 6.39055 0
M  V30 7475 H 718.65 2.4144 7.8208 0
M  V30 7476 N 721.313 -1.57302 -0.09688 0
M  V30 7477 C 722.276 -2.00976 -1.10188 0
M  V30 7478 C 723.276 -0.903009 -1.3305 0
M  V30 7479 O 724.466 -1.16853 -1.29194 0
M  V30 7480 C 721.598 -2.36893 -2.45142 0
M  V30 7481 H 722.791 -2.9098 -0.726003 0
M  V30 7482 H 720.344 -1.52515 -0.341872 0
M  V30 7483 H 721.079 -1.49837 -2.8761 0
M  V30 7484 H 720.864 -3.17632 -2.29897 0
M  V30 7485 H 722.354 -2.71345 -3.1743 0
M  V30 7486 N 722.791 0.367657 -1.53252 0
M  V30 7487 C 724.202 0.944563 -1.61043 0
M  V30 7488 C 724.553 1.90325 -0.476546 0
M  V30 7489 O 723.678 2.12721 0.397333 0
M  V30 7490 C 724.273 1.71992 -2.91898 0
M  V30 7491 C 722.832 2.2462 -3.02031 0
M  V30 7492 C 721.979 1.05799 -2.56324 0
M  V30 7493 H 724.93 0.146516 -1.58022 0
M  V30 7494 H 724.951 2.58095 -2.79584 0
M  V30 7495 H 724.463 1.02192 -3.74404 0
M  V30 7496 H 722.564 2.97668 -2.24108 0
M  V30 7497 H 722.677 2.52644 -4.07073 0
M  V30 7498 H 721.041 1.42435 -2.1115 0
M  V30 7499 H 721.824 0.375008 -3.41246 0
M  V30 7500 N 724.269 1.44576 0.627338 0
M  V30 7501 C 725.494 1.51271 1.41887 0
M  V30 7502 C 725.919 0.139814 1.8758 0
M  V30 7503 O 725.277 -0.871746 1.58966 0
M  V30 7504 C 725.325 2.48529 2.61277 0
M  V30 7505 O 724.429 1.98944 3.61241 0
M  V30 7506 H 723.77 0.510668 0.424399 0
M  V30 7507 H 726.3 1.89746 0.765356 0
M  V30 7508 H 726.31 2.66689 3.08773 0
M  V30 7509 H 724.985 3.48249 2.27366 0
M  V30 7510 H 723.562 1.90568 3.20528 0
M  V30 7511 N 725.747 -0.868086 1.31537 0
M  V30 7512 C 726.972 -1.65926 1.24432 0
M  V30 7513 C 727.397 -1.87169 -0.186936 0
M  V30 7514 O 726.755 -1.4148 -1.13371 0
M  V30 7515 C 726.803 -3.00347 1.9956 0
M  V30 7516 O 725.907 -3.90221 1.33422 0
M  V30 7517 H 725.248 -0.506375 0.429512 0
M  V30 7518 H 727.778 -1.0822 1.73637 0
M  V30 7519 H 727.788 -3.50269 2.09226 0
M  V30 7520 H 726.463 -2.84205 3.03645 0
M  V30 7521 H 725.04 -3.48672 1.32219 0
M  V30 7522 N 727.225 -1.14528 -1.08264 0
M  V30 7523 C 728.453 -0.937964 -1.84418 0
M  V30 7524 C 728.868 0.51357 -1.81681 0
M  V30 7525 O 728.225 1.35591 -1.22153 0
M  V30 7526 C 728.276 -1.43272 -3.31897 0
M  V30 7527 O 727.997 -2.82738 -3.34651 0
M  V30 7528 C 729.498 -1.26555 -4.24851 0
M  V30 7529 H 726.718 -0.333704 -0.582136 0
M  V30 7530 H 729.262 -1.52076 -1.36723 0
M  V30 7531 H 727.417 -0.892653 -3.76975 0
M  V30 7532 H 727.831 -3.04971 -4.26724 0
M  V30 7533 H 729.305 -1.66031 -5.26439 0
M  V30 7534 H 729.782 -0.208589 -4.38704 0
M  V30 7535 H 730.388 -1.79423 -3.856 0
M  V30 7536 N 728.703 1.26451 -0.940633 0
M  V30 7537 C 730.114 1.75726 -0.630653 0
M  V30 7538 C 730.465 1.76631 0.854167 0
M  V30 7539 O 729.59 1.37807 1.66848 0
M  V30 7540 C 730.185 3.19114 -1.13805 0
M  V30 7541 C 728.744 3.66005 -0.878497 0
M  V30 7542 C 727.891 2.45505 -1.28928 0
M  V30 7543 H 730.842 1.12535 -1.119 0
M  V30 7544 H 730.863 3.77311 -0.491625 0
M  V30 7545 H 730.375 3.18424 -2.21874 0
M  V30 7546 H 728.476 3.72126 0.187833 0
M  V30 7547 H 728.589 4.54844 -1.50512 0
M  V30 7548 H 726.953 2.4467 -0.707713 0
M  V30 7549 H 727.736 2.47516 -2.37888 0
M  V30 7550 N 730.181 0.707592 1.40822 0
M  V30 7551 C 731.144 0.0587224 2.29125 0
M  V30 7552 C 732.144 -0.695624 1.44975 0
M  V30 7553 O 733.334 -0.528718 1.65983 0
M  V30 7554 C 730.466 -0.926939 3.28056 0
M  V30 7555 H 731.659 0.836349 2.88002 0
M  V30 7556 H 729.212 0.471778 1.4901 0
M  V30 7557 H 729.947 -1.7319 2.74182 0
M  V30 7558 H 729.732 -0.389015 3.90165 0
M  V30 7559 H 731.222 -1.37837 3.94196 0
M  V30 7560 N 731.66 -1.50943 0.453197 0
M  V30 7561 C 733.071 -1.86699 -0.00619892 0
M  V30 7562 C 733.422 -1.3693 -1.40515 0
M  V30 7563 O 732.547 -0.726715 -2.03833 0
M  V30 7564 C 733.142 -3.38795 -0.018025 0
M  V30 7565 C 731.701 -3.74028 -0.421885 0
M  V30 7566 C 730.848 -2.74752 0.375087 0
M  V30 7567 H 733.799 -1.43942 0.668317 0
M  V30 7568 H 733.82 -3.71468 -0.824125 0
M  V30 7569 H 733.332 -3.74988 1.00028 0
M  V30 7570 H 731.433 -3.43431 -1.44521 0
M  V30 7571 H 731.546 -4.78908 -0.135664 0
M  V30 7572 H 729.91 -2.5414 -0.168794 0
M  V30 7573 H 730.693 -3.13787 1.39256 0
M  V30 7574 N 733.138 -0.185124 -1.56509 0
M  V30 7575 C 734.386 0.455357 -1.96903 0
M  V30 7576 C 734.707 1.62839 -1.07277 0
M  V30 7577 O 733.977 1.95385 -0.141966 0
M  V30 7578 H 732.557 0.171218 -0.727113 0
M  V30 7579 H 735.219 -0.26953 -1.93027 0
M  V30 7580 H 734.315 0.80616 -3.01509 0
M  V30 7581 N 734.616 1.57351 0.0885366 0
M  V30 7582 C 735.564 2.03542 1.12576 0
M  V30 7583 C 736.558 0.937668 1.41082 0
M  V30 7584 O 737.764 1.12283 1.40686 0
M  V30 7585 H 734.139 0.648752 0.380296 0
M  V30 7586 H 736.11 2.89833 0.709906 0
M  V30 7587 C 734.859 2.4811 2.43591 0
M  V30 7588 H 734.182 3.32164 2.22502 0
M  V30 7589 H 735.622 2.842 3.14653 0
M  V30 7590 C 734.081 1.35708 3.08359 0
M  V30 7591 O 734.611 0.689852 3.95732 0
M  V30 7592 N 732.817 1.10641 2.68713 0
M  V30 7593 H 732.364 1.6508 1.97753 0
M  V30 7594 H 732.322 0.356355 3.12374 0
M  V30 7595 N 736.094 -0.359525 1.53444 0
M  V30 7596 C 737.057 -1.42357 1.7963 0
M  V30 7597 C 738.057 -1.46319 0.666884 0
M  V30 7598 O 739.247 -1.46974 0.935113 0
M  V30 7599 C 736.379 -2.81425 1.92387 0
M  V30 7600 H 737.572 -1.20409 2.74666 0
M  V30 7601 H 735.125 -0.593007 1.44614 0
M  V30 7602 H 735.86 -3.08679 0.994384 0
M  V30 7603 H 735.645 -2.79947 2.74539 0
M  V30 7604 H 737.135 -3.5847 2.14218 0
M  V30 7605 N 737.572 -1.44907 -0.619662 0
M  V30 7606 C 738.849 -1.38766 -1.37852 0
M  V30 7607 C 739.229 -0.0521393 -2.11036 0
M  V30 7608 O 738.577 0.965613 -2.07095 0
M  V30 7609 C 738.787 -2.59344 -2.33541 0
M  V30 7610 C 740.135 -3.03909 -2.96521 0
M  V30 7611 O 741.159 -2.59631 -2.43865 0
M  V30 7612 O 740.018 -3.80713 -3.92071 0
M  V30 7613 H 737.112 -0.550083 -0.617525 0
M  V30 7614 H 739.658 -1.57015 -0.643759 0
M  V30 7615 H 738.43 -3.48142 -1.78642 0
M  V30 7616 H 738.053 -2.43367 -3.14417 0
M  V30 7617 N 739.05 0.861098 -1.31996 0
M  V30 7618 C 740.461 1.43065 -1.19955 0
M  V30 7619 C 740.812 1.95273 0.190489 0
M  V30 7620 O 739.937 1.87012 1.08882 0
M  V30 7621 C 740.532 2.60052 -2.1716 0
M  V30 7622 C 739.091 3.13026 -2.09026 0
M  V30 7623 C 738.238 1.85756 -2.05888 0
M  V30 7624 H 741.189 0.668834 -1.43918 0
M  V30 7625 H 741.21 3.37016 -1.76637 0
M  V30 7626 H 740.722 2.22024 -3.18319 0
M  V30 7627 H 738.823 3.55653 -1.11092 0
M  V30 7628 H 738.936 3.74707 -2.98549 0
M  V30 7629 H 737.3 2.05088 -1.51033 0
M  V30 7630 H 738.083 1.49954 -3.08818 0
M  V30 7631 N 740.528 1.15101 1.07655 0
M  V30 7632 C 741.774 0.925343 1.80458 0
M  V30 7633 C 742.107 -0.546354 1.86356 0
M  V30 7634 O 741.382 -1.40496 1.34503 0
M  V30 7635 C 741.665 1.53646 3.25676 0
M  V30 7636 C 741.518 3.07854 3.27942 0
M  V30 7637 C 742.837 1.21968 4.22861 0
M  V30 7638 H 739.956 0.337592 0.655134 0
M  V30 7639 H 742.598 1.42217 1.25993 0
M  V30 7640 H 740.748 1.11395 3.72187 0
M  V30 7641 H 742.42 3.58989 2.89697 0
M  V30 7642 H 740.663 3.41904 2.66991 0
M  V30 7643 H 741.334 3.45725 4.30324 0
M  V30 7644 H 743.81 1.5851 3.84726 0
M  V30 7645 H 742.686 1.67349 5.22767 0
M  V30 7646 H 742.947 0.136207 4.4189 0
M  V30 7647 N 742.006 -1.2595 0.947325 0
M  V30 7648 C 742.936 -2.28521 0.479604 0
M  V30 7649 C 743.917 -1.63469 -0.470293 0
M  V30 7650 O 745.102 -1.90627 -0.370824 0
M  V30 7651 C 742.232 -3.46397 -0.250289 0
M  V30 7652 C 741.186 -4.23578 0.613643 0
M  V30 7653 C 740.512 -5.34131 -0.246568 0
M  V30 7654 C 741.812 -4.86979 1.88809 0
M  V30 7655 H 743.506 -2.67895 1.33688 0
M  V30 7656 H 741.052 -1.28783 0.644274 0
M  V30 7657 H 743.005 -4.17269 -0.588576 0
M  V30 7658 H 741.729 -3.05993 -1.14175 0
M  V30 7659 H 740.388 -3.54478 0.93491 0
M  V30 7660 H 740.036 -4.89968 -1.13756 0
M  V30 7661 H 739.736 -5.86683 0.328123 0
M  V30 7662 H 741.26 -6.07839 -0.579986 0
M  V30 7663 H 742.674 -5.50034 1.61666 0
M  V30 7664 H 741.071 -5.49675 2.40784 0
M  V30 7665 H 742.141 -4.09575 2.5957 0
M  V30 7666 N 743.484 -0.715051 -1.40445 0
M  V30 7667 C 744.733 -0.251322 -2.00128 0
M  V30 7668 C 745.046 1.16194 -1.57347 0
M  V30 7669 O 746.252 1.72416 -2.09726 0
M  V30 7670 C 744.708 -0.398407 -3.57688 0
M  V30 7671 C 744.316 -1.81828 -4.09442 0
M  V30 7672 C 746.06 0.00455625 -4.245 0
M  V30 7673 C 743.967 -1.91598 -5.59503 0
M  V30 7674 H 742.897 -0.0902081 -0.748584 0
M  V30 7675 H 745.548 -0.886062 -1.6069 0
M  V30 7676 H 743.93 0.304908 -3.94824 0
M  V30 7677 H 745.104 -2.55193 -3.83684 0
M  V30 7678 H 743.419 -2.17266 -3.55225 0
M  V30 7679 H 746.016 -0.0477303 -5.34679 0
M  V30 7680 H 746.359 1.04636 -4.02935 0
M  V30 7681 H 746.892 -0.649184 -3.92467 0
M  V30 7682 H 743.631 -2.93898 -5.85922 0
M  V30 7683 H 743.151 -1.22644 -5.87127 0
M  V30 7684 H 744.83 -1.68785 -6.24596 0
M  V30 7685 N 744.962 1.50701 -0.461195 0
M  V30 7686 C 746.211 2.01458 0.0988277 0
M  V30 7687 C 746.524 1.34863 1.41673 0
M  V30 7688 O 747.73 1.76721 2.06111 0
M  V30 7689 C 746.186 3.59186 0.226648 0
M  V30 7690 C 745.794 4.34732 -1.08223 0
M  V30 7691 C 747.538 4.18015 0.73916 0
M  V30 7692 C 745.445 5.8422 -0.918747 0
M  V30 7693 H 744.375 0.7529 0.040709 0
M  V30 7694 H 747.026 1.736 -0.594589 0
M  V30 7695 H 745.408 3.83589 0.983621 0
M  V30 7696 H 746.582 4.22059 -1.84939 0
M  V30 7697 H 744.897 3.87466 -1.52509 0
M  V30 7698 H 747.494 5.27436 0.878347 0
M  V30 7699 H 747.837 3.78746 1.72793 0
M  V30 7700 H 748.37 3.9778 0.0398469 0
M  V30 7701 H 745.109 6.27944 -1.88059 0
M  V30 7702 H 744.629 5.99493 -0.191801 0
M  V30 7703 H 746.308 6.44382 -0.581405 0
M  V30 7704 N 746.441 0.193421 1.56409 0
M  V30 7705 C 747.688 -0.445789 1.97532 0
M  V30 7706 C 748.016 -1.61744 1.08024 0
M  V30 7707 O 747.271 -1.95338 0.118982 0
M  V30 7708 C 747.57 -0.949718 3.44551 0
M  V30 7709 C 747.236 0.108383 4.5077 0
M  V30 7710 C 745.898 0.399126 4.79542 0
M  V30 7711 C 748.25 0.825423 5.14622 0
M  V30 7712 C 745.578 1.41192 5.69457 0
M  V30 7713 C 747.93 1.82735 6.05632 0
M  V30 7714 C 746.594 2.12531 6.32761 0
M  V30 7715 H 745.864 -0.163126 0.722822 0
M  V30 7716 H 748.511 0.290035 1.89291 0
M  V30 7717 H 746.816 -1.76378 3.49854 0
M  V30 7718 H 748.513 -1.45367 3.73724 0
M  V30 7719 H 745.103 -0.128392 4.28408 0
M  V30 7720 H 749.287 0.61403 4.92487 0
M  V30 7721 H 744.543 1.6487 5.88751 0
M  V30 7722 H 748.717 2.3882 6.5417 0
M  V30 7723 H 746.344 2.91155 7.02234 0
M  V30 7724 N 747.919 -1.57396 -0.0801906 0
M  V30 7725 C 749.167 -1.86467 -0.779384 0
M  V30 7726 C 749.488 -0.784243 -1.78535 0
M  V30 7727 O 748.758 0.187986 -1.94996 0
M  V30 7728 H 747.338 -0.68806 -0.29083 0
M  V30 7729 H 750 -1.94813 -0.0582749 0
M  V30 7730 H 749.096 -2.83701 -1.30078 0
M  V30 7731 N 749.397 0.351382 -1.53633 0
M  V30 7732 C 750.637 1.10102 -1.72212 0
M  V30 7733 C 751.001 1.86128 -0.471198 0
M  V30 7734 O 752.202 2.63445 -0.533887 0
M  V30 7735 C 750.473 2.02348 -2.94602 0
M  V30 7736 S 752.032 2.84641 -3.33954 0
M  V30 7737 H 748.85 0.372145 -0.60583 0
M  V30 7738 H 751.452 0.38044 -1.91763 0
M  V30 7739 H 750.156 1.45283 -3.83824 0
M  V30 7740 H 749.687 2.78856 -2.77493 0
M  V30 7741 H 751.702 4.04724 -2.87076 0
M  V30 7742 N 750.875 1.45233 0.611969 0
M  V30 7743 C 752.122 1.49021 1.37109 0
M  V30 7744 C 752.45 0.130227 1.94064 0
M  V30 7745 O 751.705 -0.870551 1.75271 0
M  V30 7746 C 752.004 2.51353 2.54079 0
M  V30 7747 C 751.67 3.96178 2.15299 0
M  V30 7748 C 750.332 4.35614 2.04436 0
M  V30 7749 C 752.684 4.87275 1.84966 0
M  V30 7750 C 750.012 5.64047 1.61456 0
M  V30 7751 C 752.364 6.16115 1.43474 0
M  V30 7752 C 751.028 6.54486 1.31167 0
M  V30 7753 H 750.298 0.545307 0.501719 0
M  V30 7754 H 752.945 1.78555 0.692122 0
M  V30 7755 H 751.25 2.15372 3.27295 0
M  V30 7756 H 752.947 2.51523 3.12309 0
M  V30 7757 H 749.537 3.6499 2.24678 0
M  V30 7758 H 753.721 4.57548 1.92258 0
M  V30 7759 H 748.977 5.92575 1.50547 0
M  V30 7760 H 753.151 6.86149 1.19048 0
M  V30 7761 H 750.778 7.53904 0.97637 0
M  V30 7762 N 752.353 -0.854086 1.3245 0
M  V30 7763 C 753.593 -1.62216 1.2436 0
M  V30 7764 C 753.957 -1.91042 -0.191564 0
M  V30 7765 O 755.158 -2.65864 -0.396211 0
M  V30 7766 C 753.429 -2.9066 2.0797 0
M  V30 7767 S 754.988 -3.81438 2.16911 0
M  V30 7768 H 751.806 -0.556386 0.442669 0
M  V30 7769 H 754.408 -1.01139 1.67305 0
M  V30 7770 H 753.112 -2.6743 3.11302 0
M  V30 7771 H 752.643 -3.56753 1.65805 0
M  V30 7772 H 754.658 -4.78347 1.31903 0
M  V30 7773 N 753.831 -1.1567 -1.07043 0
M  V30 7774 C 755.079 -0.931673 -1.79344 0
M  V30 7775 C 755.4 0.542421 -1.87304 0
M  V30 7776 O 754.67 1.39418 -1.37621 0
M  V30 7777 H 753.25 -0.34171 -0.664262 0
M  V30 7778 H 755.912 -1.45795 -1.29344 0
M  V30 7779 H 755.008 -1.34379 -2.81689 0
M  V30 7780 N 755.309 1.25446 -0.953992 0
M  V30 7781 C 756.556 1.93143 -0.608429 0
M  V30 7782 C 756.884 1.74727 0.854451 0
M  V30 7783 O 756.139 1.0855 1.62836 0
M  V30 7784 C 756.438 3.45555 -0.912496 0
M  V30 7785 C 756.104 3.84126 -2.36131 0
M  V30 7786 C 754.766 3.94367 -2.75732 0
M  V30 7787 C 757.118 4.0324 -3.30223 0
M  V30 7788 C 754.446 4.21127 -4.08496 0
M  V30 7789 C 756.798 4.31493 -4.62598 0
M  V30 7790 C 755.462 4.3995 -5.01996 0
M  V30 7791 H 754.732 0.706762 -0.22264 0
M  V30 7792 H 757.379 1.49005 -1.20291 0
M  V30 7793 H 755.684 3.91091 -0.235618 0
M  V30 7794 H 757.381 3.9612 -0.623714 0
M  V30 7795 H 753.971 3.76711 -2.04418 0
M  V30 7796 H 758.155 3.94744 -3.00817 0
M  V30 7797 H 753.411 4.2589 -4.38665 0
M  V30 7798 H 757.585 4.45227 -5.35486 0
M  V30 7799 H 755.212 4.60439 -6.04896 0
M  V30 7800 N 756.787 0.722489 1.40064 0
M  V30 7801 C 758.036 0.261932 1.99992 0
M  V30 7802 C 758.349 -1.15358 1.57961 0
M  V30 7803 O 759.555 -1.71301 2.10637 0
M  V30 7804 C 758.011 0.41737 3.57472 0
M  V30 7805 C 757.619 1.83997 4.08472 0
M  V30 7806 C 759.363 0.0179561 4.24496 0
M  V30 7807 C 757.27 1.94563 5.5848 0
M  V30 7808 H 756.2 0.0941768 0.748095 0
M  V30 7809 H 758.851 0.894572 1.60218 0
M  V30 7810 H 757.233 -0.283965 3.94981 0
M  V30 7811 H 758.407 2.57224 3.82325 0
M  V30 7812 H 756.722 2.19147 3.54067 0
M  V30 7813 H 759.319 0.076085 5.34646 0
M  V30 7814 H 759.662 -1.02498 4.03485 0
M  V30 7815 H 760.195 0.669988 3.92117 0
M  V30 7816 H 756.934 2.97001 5.84355 0
M  V30 7817 H 756.454 1.25756 5.86469 0
M  V30 7818 H 758.133 1.72095 6.23692 0
M  V30 7819 N 758.265 -1.50454 0.469181 0
M  V30 7820 C 759.195 -2.31353 -0.31592 0
M  V30 7821 C 760.176 -1.38172 -0.992094 0
M  V30 7822 O 761.361 -1.67093 -0.989633 0
M  V30 7823 C 758.491 -3.1786 -1.39937 0
M  V30 7824 C 757.445 -4.19578 -0.844909 0
M  V30 7825 C 756.771 -4.9481 -2.0265 0
M  V30 7826 C 758.071 -5.22106 0.142499 0
M  V30 7827 H 759.765 -2.97237 0.359269 0
M  V30 7828 H 757.311 -1.42942 0.174224 0
M  V30 7829 H 759.264 -3.7325 -1.95607 0
M  V30 7830 H 757.988 -2.49858 -2.1033 0
M  V30 7831 H 756.647 -3.65285 -0.310189 0
M  V30 7832 H 756.295 -4.23282 -2.71737 0
M  V30 7833 H 755.995 -5.63613 -1.66174 0
M  V30 7834 H 757.519 -5.53035 -2.58815 0
M  V30 7835 H 758.933 -5.72378 -0.324966 0
M  V30 7836 H 757.33 -5.98618 0.421441 0
M  V30 7837 H 758.4 -4.7297 1.06901 0
M  V30 7838 N 759.743 -0.201713 -1.56304 0
M  V30 7839 C 760.992 0.435557 -1.96941 0
M  V30 7840 C 761.305 1.62299 -1.09172 0
M  V30 7841 O 762.511 2.32849 -1.3962 0
M  V30 7842 C 760.967 0.826298 -3.50286 0
M  V30 7843 C 760.575 -0.337216 -4.46729 0
M  V30 7844 C 762.319 1.43028 -3.99679 0
M  V30 7845 C 760.226 0.0748539 -5.91353 0
M  V30 7846 H 759.156 0.1665 -0.735387 0
M  V30 7847 H 761.807 -0.294781 -1.81117 0
M  V30 7848 H 760.189 1.61349 -3.61639 0
M  V30 7849 H 761.363 -1.11476 -4.47113 0
M  V30 7850 H 759.678 -0.853126 -4.07567 0
M  V30 7851 H 762.275 1.75115 -5.05212 0
M  V30 7852 H 762.618 2.33911 -3.44371 0
M  V30 7853 H 763.151 0.706924 -3.91468 0
M  V30 7854 H 759.89 -0.799957 -6.506 0
M  V30 7855 H 759.41 0.817122 -5.94208 0
M  V30 7856 H 761.089 0.508389 -6.45 0
M  V30 7857 N 761.222 1.57436 0.0718424 0
M  V30 7858 C 762.47 1.86878 0.769484 0
M  V30 7859 C 762.791 0.7937 1.78116 0
M  V30 7860 O 762.061 -0.177642 1.95093 0
M  V30 7861 H 760.641 0.689593 0.287177 0
M  V30 7862 H 763.303 1.94841 0.0479427 0
M  V30 7863 H 762.399 2.84387 1.28572 0
M  V30 7864 N 762.7 -0.34323 1.53817 0
M  V30 7865 C 763.63 -1.42709 1.84814 0
M  V30 7866 C 764.611 -1.5488 0.703297 0
M  V30 7867 O 765.796 -1.69082 0.955237 0
M  V30 7868 C 762.926 -2.79756 2.05801 0
M  V30 7869 C 761.88 -2.82392 3.21619 0
M  V30 7870 C 761.206 -4.22326 3.2794 0
M  V30 7871 C 762.506 -2.479 4.59721 0
M  V30 7872 H 764.2 -1.17018 2.75585 0
M  V30 7873 H 761.746 -0.561485 1.32602 0
M  V30 7874 H 763.699 -3.55627 2.26069 0
M  V30 7875 H 762.423 -3.06883 1.11761 0
M  V30 7876 H 761.082 -2.08974 3.01207 0
M  V30 7877 H 760.73 -4.46564 2.31494 0
M  V30 7878 H 760.43 -4.25001 4.05768 0
M  V30 7879 H 761.954 -5.00039 3.50419 0
M  V30 7880 H 763.368 -3.13484 4.80001 0
M  V30 7881 H 761.765 -2.61857 5.39954 0
M  V30 7882 H 762.835 -1.43087 4.63308 0
M  V30 7883 N 764.178 -1.45556 -0.604258 0
M  V30 7884 C 765.427 -1.49019 -1.35928 0
M  V30 7885 C 765.74 -0.137409 -1.95117 0
M  V30 7886 O 766.946 -0.0497032 -2.71455 0
M  V30 7887 C 765.402 -2.62477 -2.46239 0
M  V30 7888 C 765.01 -4.04082 -1.93447 0
M  V30 7889 C 766.754 -2.7519 -3.23219 0
M  V30 7890 C 764.661 -5.08917 -3.0126 0
M  V30 7891 H 763.591 -0.554518 -0.510907 0
M  V30 7892 H 766.242 -1.71705 -0.647262 0
M  V30 7893 H 764.624 -2.3308 -3.2014 0
M  V30 7894 H 765.798 -4.43173 -1.26232 0
M  V30 7895 H 764.113 -3.95849 -1.29201 0
M  V30 7896 H 766.71 -3.50683 -4.0364 0
M  V30 7897 H 767.053 -1.81941 -3.74437 0
M  V30 7898 H 767.586 -3.04129 -2.56418 0
M  V30 7899 H 764.325 -6.03886 -2.54955 0
M  V30 7900 H 763.845 -4.74393 -3.67031 0
M  V30 7901 H 765.524 -5.33814 -3.65584 0
M  V30 7902 N 765.656 0.84705 -1.32902 0
M  V30 7903 C 766.586 1.97166 -1.25091 0
M  V30 7904 C 767.567 1.69578 -0.133161 0
M  V30 7905 O 768.752 1.91519 -0.321591 0
M  V30 7906 C 765.882 3.33157 -0.981006 0
M  V30 7907 C 764.836 3.75119 -2.06082 0
M  V30 7908 C 764.162 5.08826 -1.64318 0
M  V30 7909 C 765.462 3.89774 -3.47669 0
M  V30 7910 H 767.156 2.03958 -2.19184 0
M  V30 7911 H 764.702 0.979907 -1.05517 0
M  V30 7912 H 766.655 4.11393 -0.912891 0
M  V30 7913 H 765.379 3.266 -0.00445559 0
M  V30 7914 H 764.038 2.9914 -2.11921 0
M  V30 7915 H 763.686 4.98732 -0.653876 0
M  V30 7916 H 763.386 5.37873 -2.36572 0
M  V30 7917 H 764.91 5.89546 -1.58958 0
M  V30 7918 H 766.324 4.58343 -3.44376 0
M  V30 7919 H 764.721 4.30248 -4.18338 0
M  V30 7920 H 765.791 2.92463 -3.86773 0
M  V30 7921 N 767.134 1.16236 1.06428 0
M  V30 7922 C 768.364 0.965782 1.82637 0
M  V30 7923 C 768.772 -0.489284 1.82764 0
M  V30 7924 O 768.115 -1.35133 1.24438 0
M  V30 7925 C 768.177 1.41458 3.30499 0
M  V30 7926 C 767.841 2.88926 3.54077 0
M  V30 7927 C 768.838 3.86939 3.47238 0
M  V30 7928 C 766.523 3.26814 3.81442 0
M  V30 7929 C 768.517 5.20841 3.67428 0
M  V30 7930 C 766.204 4.60886 4.01282 0
M  V30 7931 C 767.202 5.57708 3.94272 0
M  V30 7932 O 766.89 6.89357 4.13573 0
M  V30 7933 H 766.622 0.342569 0.582772 0
M  V30 7934 H 769.176 1.54641 1.35187 0
M  V30 7935 H 767.406 0.777426 3.78805 0
M  V30 7936 H 769.095 1.18563 3.88198 0
M  V30 7937 H 769.861 3.59014 3.26089 0
M  V30 7938 H 765.74 2.5203 3.86008 0
M  V30 7939 H 769.284 5.96401 3.61873 0
M  V30 7940 H 765.181 4.88522 4.21921 0
M  V30 7941 H 765.949 6.95913 4.30869 0
M  V30 7942 N 768.612 -1.24939 0.960631 0
M  V30 7943 C 769.861 -1.92118 0.614298 0
M  V30 7944 C 770.174 -1.75998 -0.853474 0
M  V30 7945 O 771.38 -2.37804 -1.31003 0
M  V30 7946 C 769.836 -3.44303 1.04801 0
M  V30 7947 C 769.444 -3.69123 2.53875 0
M  V30 7948 C 771.188 -4.17375 0.774497 0
M  V30 7949 C 769.095 -5.14843 2.91016 0
M  V30 7950 H 768.025 -0.719319 0.226045 0
M  V30 7951 H 770.676 -1.41701 1.16589 0
M  V30 7952 H 769.058 -3.93715 0.42479 0
M  V30 7953 H 770.232 -3.30339 3.21267 0
M  V30 7954 H 768.547 -3.09323 2.78762 0
M  V30 7955 H 771.144 -5.24723 1.02808 0
M  V30 7956 H 771.487 -4.15294 -0.289192 0
M  V30 7957 H 772.02 -3.7389 1.35835 0
M  V30 7958 H 768.759 -5.2204 3.96427 0
M  V30 7959 H 768.279 -5.54652 2.28302 0
M  V30 7960 H 769.958 -5.83017 2.80535 0
M  V30 7961 N 770.09 -0.729906 -1.39679 0
M  V30 7962 C 771.315 -0.284345 -2.05442 0
M  V30 7963 C 771.74 1.07056 -1.54663 0
M  V30 7964 O 771.098 1.67732 -0.688157 0
M  V30 7965 C 771.146 -0.290089 -3.59431 0
M  V30 7966 O 770.25 0.723978 -4.05995 0
M  V30 7967 H 769.591 -0.130311 -0.651088 0
M  V30 7968 H 772.121 -0.994403 -1.78809 0
M  V30 7969 H 772.131 -0.132712 -4.07784 0
M  V30 7970 H 770.806 -1.27877 -3.95753 0
M  V30 7971 H 769.383 0.533154 -3.69069 0
M  V30 7972 N 771.568 1.50203 -0.477153 0
M  V30 7973 C 772.498 2.31517 0.303646 0
M  V30 7974 C 773.479 1.38696 0.984753 0
M  V30 7975 O 774.664 1.67615 0.980758 0
M  V30 7976 C 771.794 3.18598 1.38249 0
M  V30 7977 C 770.748 4.2002 0.822645 0
M  V30 7978 C 770.074 4.95878 2.00024 0
M  V30 7979 C 771.374 5.22023 -0.170185 0
M  V30 7980 H 773.068 2.97042 -0.375027 0
M  V30 7981 H 770.614 1.42848 -0.181802 0
M  V30 7982 H 772.567 3.74282 1.93625 0
M  V30 7983 H 771.291 2.5097 2.09002 0
M  V30 7984 H 769.95 3.65445 0.290813 0
M  V30 7985 H 769.598 4.24717 2.69489 0
M  V30 7986 H 769.298 5.64487 1.63183 0
M  V30 7987 H 770.822 5.54399 2.55878 0
M  V30 7988 H 772.236 5.72543 0.294606 0
M  V30 7989 H 770.633 5.98386 -0.453181 0
M  V30 7990 H 771.703 4.72396 -1.09408 0
M  V30 7991 N 773.046 0.209999 1.56195 0
M  V30 7992 C 774.009 -0.691232 2.18528 0
M  V30 7993 C 775.009 -1.13013 1.14388 0
M  V30 7994 O 776.199 -1.04081 1.39688 0
M  V30 7995 C 773.331 -1.94551 2.79934 0
M  V30 7996 H 774.524 -0.147953 2.99535 0
M  V30 7997 H 772.077 -0.0396243 1.5625 0
M  V30 7998 H 772.812 -2.53094 2.02766 0
M  V30 7999 H 772.597 -1.63938 3.56184 0
M  V30 8000 H 774.087 -2.58785 3.2775 0
M  V30 8001 N 774.524 -1.57472 -0.0634922 0
M  V30 8002 C 775.773 -1.86837 -0.759928 0
M  V30 8003 C 776.086 -0.803823 -1.7832 0
M  V30 8004 O 777.292 -0.985578 -2.52979 0
M  V30 8005 C 775.748 -3.31448 -1.4025 0
M  V30 8006 C 775.356 -4.46052 -0.417368 0
M  V30 8007 C 777.1 -3.70003 -2.08082 0
M  V30 8008 C 775.007 -5.81707 -1.06633 0
M  V30 8009 H 773.937 -0.697009 -0.287567 0
M  V30 8010 H 776.588 -1.83495 -0.0133914 0
M  V30 8011 H 774.97 -3.29427 -2.19759 0
M  V30 8012 H 776.144 -4.5948 0.348503 0
M  V30 8013 H 774.459 -4.16104 0.156955 0
M  V30 8014 H 777.056 -4.68653 -2.57426 0
M  V30 8015 H 777.399 -3.00226 -2.88393 0
M  V30 8016 H 777.932 -3.7405 -1.35394 0
M  V30 8017 H 774.671 -6.54798 -0.303374 0
M  V30 8018 H 774.191 -5.72064 -1.80286 0
M  V30 8019 H 775.87 -6.27317 -1.58376 0
M  V30 8020 N 776.003 0.335068 -1.53997 0
M  V30 8021 C 777.419 0.678704 -1.4445 0
M  V30 8022 C 777.619 1.92106 -0.608078 0
M  V30 8023 O 776.675 2.52292 -0.102373 0
M  V30 8024 C 777.988 0.863435 -2.88037 0
M  V30 8025 C 779.536 0.961513 -2.97866 0
M  V30 8026 C 780.011 1.1785 -4.42578 0
M  V30 8027 N 781.502 1.2455 -4.46141 0
M  V30 8028 C 782.237 1.43106 -5.55255 0
M  V30 8029 N 781.733 1.5878 -6.74359 0
M  V30 8030 N 783.526 1.45722 -5.42883 0
M  V30 8031 H 775.677 -0.481656 -2.06867 0
M  V30 8032 H 777.94 -0.153615 -0.935471 0
M  V30 8033 H 777.646 0.0219511 -3.51693 0
M  V30 8034 H 777.52 1.76268 -3.33481 0
M  V30 8035 H 779.907 1.79351 -2.34344 0
M  V30 8036 H 779.988 0.0389862 -2.5577 0
M  V30 8037 H 779.632 0.351397 -5.06683 0
M  V30 8038 H 779.562 2.11472 -4.82273 0
M  V30 8039 H 782.053 1.13928 -3.60318 0
M  V30 8040 H 782.366 1.72599 -7.53279 0
M  V30 8041 H 780.711 1.559 -6.77289 0
M  V30 8042 H 783.902 1.33065 -4.48789 0
M  V30 8043 H 784.075 1.59841 -6.27977 0
M  V30 8044 N 777.481 1.45874 0.596531 0
M  V30 8045 C 778.428 1.55389 1.70655 0
M  V30 8046 C 779.398 0.399036 1.61236 0
M  V30 8047 O 780.583 0.61396 1.80652 0
M  V30 8048 C 777.723 1.53705 3.0898 0
M  V30 8049 C 776.836 2.79823 3.29125 0
M  V30 8050 C 775.971 2.69735 4.5762 0
M  V30 8051 C 775.01 3.90856 4.71061 0
M  V30 8052 N 774.147 3.79237 5.90867 0
M  V30 8053 H 778.987 2.50211 1.61859 0
M  V30 8054 H 776.524 1.24146 0.789069 0
M  V30 8055 H 778.482 1.50715 3.89026 0
M  V30 8056 H 777.112 0.624247 3.16706 0
M  V30 8057 H 776.164 2.92852 2.42779 0
M  V30 8058 H 777.476 3.69628 3.34927 0
M  V30 8059 H 776.63 2.64773 5.45875 0
M  V30 8060 H 775.369 1.77547 4.54234 0
M  V30 8061 H 774.374 3.96164 3.81227 0
M  V30 8062 H 775.599 4.84124 4.76236 0
M  V30 8063 H 773.545 2.89825 5.88504 0
M  V30 8064 H 773.462 4.62686 5.97877 0
M  V30 8065 H 774.73 3.78227 6.8159 0
M  V30 8066 N 778.959 -0.83999 1.33349 0
M  V30 8067 C 780.375 -1.13049 1.12659 0
M  V30 8068 C 780.575 -2.01328 -0.0832613 0
M  V30 8069 O 779.631 -2.40669 -0.763856 0
M  V30 8070 C 780.944 -1.79366 2.41347 0
M  V30 8071 C 782.492 -1.91937 2.47243 0
M  V30 8072 C 782.967 -2.6167 3.75889 0
M  V30 8073 N 784.458 -2.69184 3.76954 0
M  V30 8074 C 785.193 -3.23827 4.73206 0
M  V30 8075 N 784.689 -3.79166 5.79832 0
M  V30 8076 N 786.482 -3.22068 4.60683 0
M  V30 8077 H 778.633 -0.252432 2.10895 0
M  V30 8078 H 780.896 -0.174501 0.931801 0
M  V30 8079 H 780.602 -1.2196 3.29877 0
M  V30 8080 H 780.476 -2.79396 2.53412 0
M  V30 8081 H 782.863 -2.48498 1.59163 0
M  V30 8082 H 782.944 -0.908604 2.39119 0
M  V30 8083 H 782.588 -2.05769 4.64351 0
M  V30 8084 H 782.518 -3.63217 3.81289 0
M  V30 8085 H 785.009 -2.2994 2.99893 0
M  V30 8086 H 785.322 -4.19061 6.49313 0
M  V30 8087 H 783.667 -3.77457 5.83568 0
M  V30 8088 H 786.858 -2.78092 3.7654 0
M  V30 8089 H 787.031 -3.64351 5.35866 0
M  V30 8090 N 780.437 -1.16799 -1.0581 0
M  V30 8091 C 781.683 -0.953935 -1.78963 0
M  V30 8092 C 782.016 0.516638 -1.87202 0
M  V30 8093 O 781.291 1.38338 -1.36721 0
M  V30 8094 C 781.574 -1.58808 -3.23191 0
M  V30 8095 C 781.427 -3.13032 -3.23003 0
M  V30 8096 C 782.746 -1.2868 -4.20867 0
M  V30 8097 H 779.865 -0.347972 -0.64968 0
M  V30 8098 H 782.507 -1.44204 -1.23715 0
M  V30 8099 H 780.657 -1.17303 -3.70368 0
M  V30 8100 H 782.329 -3.63553 -2.83949 0
M  V30 8101 H 780.572 -3.46108 -2.61518 0
M  V30 8102 H 781.243 -3.52527 -4.24769 0
M  V30 8103 H 783.719 -1.6461 -3.82155 0
M  V30 8104 H 782.595 -1.75645 -5.20038 0
M  V30 8105 H 782.856 -0.206491 -4.41618 0
M  V30 8106 N 781.915 1.24427 -0.967243 0
M  V30 8107 C 782.847 2.24641 -0.454856 0
M  V30 8108 C 783.86 1.56849 0.436152 0
M  V30 8109 O 785.049 1.76846 0.242401 0
M  V30 8110 C 782.149 3.36954 0.362672 0
M  V30 8111 C 781.322 4.34318 -0.518324 0
M  V30 8112 C 780.381 5.25638 0.243122 0
M  V30 8113 O 779.407 5.68043 -0.362791 0
M  V30 8114 N 780.609 5.59897 1.53282 0
M  V30 8115 H 783.374 2.69238 -1.31648 0
M  V30 8116 H 780.935 1.38464 -0.839015 0
M  V30 8117 H 782.927 3.95014 0.880094 0
M  V30 8118 H 781.497 2.91646 1.12522 0
M  V30 8119 H 780.717 3.74953 -1.21672 0
M  V30 8120 H 782.005 4.96338 -1.11919 0
M  V30 8121 H 781.403 5.27373 2.04682 0
M  V30 8122 H 779.96 6.20488 1.99594 0
M  V30 8123 N 783.393 0.737304 1.3929 0
M  V30 8124 C 784.303 0.100464 2.34385 0
M  V30 8125 C 785.319 -0.719282 1.58437 0
M  V30 8126 O 786.495 -0.647216 1.90717 0
M  V30 8127 C 783.56 -0.794325 3.37478 0
M  V30 8128 C 782.621 0.0379345 4.29283 0
M  V30 8129 C 781.854 -0.814241 5.27452 0
M  V30 8130 O 782.077 -2.05288 5.32177 0
M  V30 8131 O 781.011 -0.241679 6.01415 0
M  V30 8132 H 784.837 0.885407 2.90507 0
M  V30 8133 H 782.422 0.497999 1.40856 0
M  V30 8134 H 784.304 -1.30622 4.00644 0
M  V30 8135 H 782.979 -1.55804 2.83737 0
M  V30 8136 H 781.886 0.595405 3.69331 0
M  V30 8137 H 783.219 0.763926 4.86236 0
M  V30 8138 N 784.871 -1.49948 0.485112 0
M  V30 8139 C 786.099 -2.06806 -0.0622824 0
M  V30 8140 C 786.514 -1.34736 -1.32256 0
M  V30 8141 O 785.871 -0.420836 -1.77582 0
M  V30 8142 C 785.922 -3.59934 -0.336096 0
M  V30 8143 O 785.643 -4.29289 0.874203 0
M  V30 8144 C 787.144 -4.33459 -0.928903 0
M  V30 8145 H 784.364 -0.670867 0.0133472 0
M  V30 8146 H 786.908 -1.92937 0.677917 0
M  V30 8147 H 785.063 -3.7356 -1.02625 0
M  V30 8148 H 785.477 -5.20735 0.627332 0
M  V30 8149 H 786.951 -5.41527 -1.07017 0
M  V30 8150 H 787.428 -3.94881 -1.92265 0
M  V30 8151 H 788.034 -4.24399 -0.276705 0
M  V30 8152 N 786.349 -0.21828 -1.56081 0
M  V30 8153 C 787.296 0.693189 -2.20144 0
M  V30 8154 C 788.266 1.19274 -1.15598 0
M  V30 8155 O 789.451 1.25243 -1.4394 0
M  V30 8156 C 786.591 1.89715 -2.88275 0
M  V30 8157 C 785.704 1.4368 -4.07407 0
M  V30 8158 C 784.839 2.59807 -4.63329 0
M  V30 8159 C 783.878 2.10492 -5.74769 0
M  V30 8160 N 783.015 3.1988 -6.24997 0
M  V30 8161 H 787.855 0.14016 -2.9767 0
M  V30 8162 H 785.392 0.0574292 -1.46988 0
M  V30 8163 H 787.35 2.60398 -3.25958 0
M  V30 8164 H 785.98 2.42311 -2.13273 0
M  V30 8165 H 785.032 0.625007 -3.7523 0
M  V30 8166 H 786.344 1.03517 -4.8794 0
M  V30 8167 H 785.498 3.38577 -5.03438 0
M  V30 8168 H 784.237 3.03256 -3.81951 0
M  V30 8169 H 783.242 1.30182 -5.34165 0
M  V30 8170 H 784.467 1.68045 -6.5798 0
M  V30 8171 H 782.413 3.62817 -5.46534 0
M  V30 8172 H 782.33 2.83958 -7.00645 0
M  V30 8173 H 783.598 3.98796 -6.69763 0
M  V30 8174 N 787.827 1.57504 0.0551401 0
M  V30 8175 C 789.074 1.88055 0.751104 0
M  V30 8176 C 789.402 0.812231 1.76729 0
M  V30 8177 O 788.657 -0.189918 1.94776 0
M  V30 8178 C 788.956 3.25311 1.48013 0
M  V30 8179 C 788.622 4.46858 0.602375 0
M  V30 8180 C 787.284 4.79847 0.360536 0
M  V30 8181 C 789.636 5.212 -0.00524047 0
M  V30 8182 C 786.964 5.84582 -0.498127 0
M  V30 8183 C 789.316 6.26844 -0.851453 0
M  V30 8184 C 787.98 6.58324 -1.103 0
M  V30 8185 H 787.25 0.688142 0.274848 0
M  V30 8186 H 789.897 1.91497 0.0114795 0
M  V30 8187 H 788.202 3.17737 2.29239 0
M  V30 8188 H 789.899 3.46189 2.02371 0
M  V30 8189 H 786.489 4.21049 0.801007 0
M  V30 8190 H 790.673 4.96013 0.168682 0
M  V30 8191 H 785.929 6.07361 -0.701594 0
M  V30 8192 H 790.103 6.83603 -1.32893 0
M  V30 8193 H 787.73 7.39304 -1.77011 0
M  V30 8194 N 789.305 -0.326896 1.54172 0
M  V30 8195 C 790.553 -1.06313 1.71878 0
M  V30 8196 C 790.874 -1.88652 0.493498 0
M  V30 8197 O 790.144 -1.89608 -0.492522 0
M  V30 8198 H 788.724 -0.39549 0.633716 0
M  V30 8199 H 791.386 -0.364139 1.91468 0
M  V30 8200 H 790.482 -1.73105 2.59694 0
M  V30 8201 N 790.784 -1.46188 -0.588786 0
M  V30 8202 C 791.732 -1.56653 -1.71938 0
M  V30 8203 C 792.726 -0.435354 -1.6371 0
M  V30 8204 O 793.932 -0.611996 -1.69277 0
M  V30 8205 H 790.307 -0.492408 -0.568365 0
M  V30 8206 H 792.278 -2.51724 -1.60242 0
M  V30 8207 C 791.027 -1.56822 -3.10326 0
M  V30 8208 H 790.35 -2.43198 -3.17325 0
M  V30 8209 H 791.79 -1.68199 -3.89211 0
M  V30 8210 C 790.249 -0.295802 -3.35599 0
M  V30 8211 O 790.779 0.616515 -3.96941 0
M  V30 8212 N 788.985 -0.185609 -2.90007 0
M  V30 8213 H 788.532 -0.928914 -2.40269 0
M  V30 8214 H 788.49 0.664883 -3.07289 0
M  V30 8215 N 792.262 0.832906 -1.33792 0
M  V30 8216 C 793.225 1.92471 -1.24449 0
M  V30 8217 C 794.225 1.59981 -0.162085 0
M  V30 8218 O 795.415 1.69208 -0.414029 0
M  V30 8219 C 792.547 3.28278 -0.919044 0
M  V30 8220 H 793.74 2.0218 -2.21502 0
M  V30 8221 H 791.293 1.0257 -1.17936 0
M  V30 8222 H 792.028 3.24263 0.048738 0
M  V30 8223 H 791.813 3.53241 -1.70187 0
M  V30 8224 H 793.303 4.08253 -0.878576 0
M  V30 8225 N 793.74 1.17359 1.05189 0
M  V30 8226 C 794.987 0.961987 1.78191 0
M  V30 8227 C 795.315 -0.509363 1.87712 0
M  V30 8228 O 794.57 -1.39425 1.37329 0
M  V30 8229 C 794.869 1.54821 3.22126 0
M  V30 8230 C 794.535 3.04378 3.32663 0
M  V30 8231 C 793.197 3.45201 3.35246 0
M  V30 8232 C 795.549 4.00387 3.33677 0
M  V30 8233 C 792.877 4.80629 3.36471 0
M  V30 8234 C 795.229 5.35715 3.36441 0
M  V30 8235 C 793.893 5.76002 3.37311 0
M  V30 8236 H 793.163 0.352016 0.652047 0
M  V30 8237 H 795.81 1.46249 1.23627 0
M  V30 8238 H 794.115 0.969432 3.79617 0
M  V30 8239 H 795.812 1.36004 3.77232 0
M  V30 8240 H 792.402 2.71836 3.31366 0
M  V30 8241 H 796.586 3.69906 3.30882 0
M  V30 8242 H 791.842 5.11155 3.35455 0
M  V30 8243 H 796.016 6.09886 3.36173 0
M  V30 8244 H 793.643 6.80919 3.38013 0
M  V30 8245 N 795.218 -1.23913 0.973828 0
M  V30 8246 C 796.446 -1.96195 0.656891 0
M  V30 8247 C 796.861 -1.72166 -0.774876 0
M  V30 8248 O 796.218 -1.0091 -1.52064 0
M  V30 8249 C 796.269 -3.49342 0.929638 0
M  V30 8250 O 795.99 -3.72553 2.30512 0
M  V30 8251 C 797.491 -4.38833 0.627739 0
M  V30 8252 H 794.711 -0.624841 0.244572 0
M  V30 8253 H 797.255 -1.57579 1.30343 0
M  V30 8254 H 795.41 -3.85999 0.329216 0
M  V30 8255 H 795.824 -4.66893 2.3898 0
M  V30 8256 H 797.298 -5.45117 0.868991 0
M  V30 8257 H 797.775 -4.37009 -0.438104 0
M  V30 8258 H 798.381 -4.07773 1.20834 0
M  V30 8259 N 796.696 -0.74468 -1.38897 0
M  V30 8260 C 797.606 -0.112892 -2.34328 0
M  V30 8261 C 798.622 0.71087 -1.58816 0
M  V30 8262 O 799.798 0.637092 -1.91058 0
M  V30 8263 C 796.863 0.776417 -3.37894 0
M  V30 8264 C 795.924 -0.0606999 -4.29257 0
M  V30 8265 C 795.157 0.786258 -5.27877 0
M  V30 8266 O 795.38 2.02463 -5.33259 0
M  V30 8267 O 794.314 0.209781 -6.01534 0
M  V30 8268 H 798.14 -0.900801 -2.90033 0
M  V30 8269 H 795.725 -0.505462 -1.4059 0
M  V30 8270 H 797.607 1.28496 -4.01331 0
M  V30 8271 H 796.282 1.54297 -2.84559 0
M  V30 8272 H 795.189 -0.614984 -3.69011 0
M  V30 8273 H 796.522 -0.789702 -4.85824 0
M  V30 8274 N 798.174 1.49689 -0.493057 0
M  V30 8275 C 799.084 2.32746 0.294358 0
M  V30 8276 C 800.1 1.44117 0.975003 0
M  V30 8277 O 801.276 1.77149 0.958138 0
M  V30 8278 C 798.341 3.19358 1.34949 0
M  V30 8279 C 797.402 4.2383 0.683122 0
M  V30 8280 C 796.635 5.06303 1.68798 0
M  V30 8281 O 796.858 4.90172 2.91698 0
M  V30 8282 O 795.792 5.88826 1.24768 0
M  V30 8283 H 799.618 3.01247 -0.385254 0
M  V30 8284 H 797.203 1.47216 -0.254519 0
M  V30 8285 H 799.085 3.73037 1.96014 0
M  V30 8286 H 797.76 2.53561 2.01217 0
M  V30 8287 H 796.667 3.74086 0.0329351 0
M  V30 8288 H 798 4.9216 0.0630192 0
M  V30 8289 N 799.652 0.226554 1.55963 0
M  V30 8290 C 800.929 -0.453058 1.90281 0
M  V30 8291 C 801.309 -1.77377 1.14458 0
M  V30 8292 O 800.657 -2.27067 0.255496 0
M  V30 8293 C 800.867 -0.641108 3.43061 0
M  V30 8294 C 802.215 -0.946265 4.13921 0
M  V30 8295 O 803.239 -0.727713 3.48687 0
M  V30 8296 O 802.098 -1.36131 5.29274 0
M  V30 8297 H 799.192 -0.240242 0.791336 0
M  V30 8298 H 801.738 0.26911 1.67553 0
M  V30 8299 H 800.51 0.290283 3.90222 0
M  V30 8300 H 800.133 -1.41458 3.71585 0
M  V30 8301 N 801.13 -1.57531 -0.0467866 0
M  V30 8302 C 802.355 -1.93087 -0.757123 0
M  V30 8303 C 802.78 -0.825116 -1.69037 0
M  V30 8304 O 802.138 0.220449 -1.79955 0
M  V30 8305 C 802.186 -3.27669 -1.5055 0
M  V30 8306 O 801.29 -3.18667 -2.61773 0
M  V30 8307 H 800.631 -0.631597 -0.204892 0
M  V30 8308 H 803.161 -2.04599 -0.00755232 0
M  V30 8309 H 803.171 -3.6214 -1.87932 0
M  V30 8310 H 801.846 -4.07717 -0.820931 0
M  V30 8311 H 800.423 -2.95798 -2.27064 0
M  V30 8312 N 802.608 0.318715 -1.54344 0
M  V30 8313 C 803.518 1.41535 -1.87097 0
M  V30 8314 C 804.534 1.56361 -0.763353 0
M  V30 8315 O 805.71 1.71365 -1.05811 0
M  V30 8316 C 802.775 2.76178 -2.09587 0
M  V30 8317 C 801.836 2.70486 -3.3337 0
M  V30 8318 C 801.069 3.98708 -3.54778 0
M  V30 8319 O 801.292 4.9721 -2.79532 0
M  V30 8320 O 800.226 4.01674 -4.48266 0
M  V30 8321 H 804.052 1.16764 -2.80357 0
M  V30 8322 H 801.637 0.51318 -1.4031 0
M  V30 8323 H 803.519 3.55873 -2.25682 0
M  V30 8324 H 802.194 3.00829 -1.19514 0
M  V30 8325 H 801.101 1.89325 -3.22656 0
M  V30 8326 H 802.434 2.50789 -4.23516 0
M  V30 8327 N 804.086 1.46499 0.581025 0
M  V30 8328 C 805.016 1.60052 1.70017 0
M  V30 8329 C 805.997 0.450788 1.64018 0
M  V30 8330 O 807.182 0.677237 1.82009 0
M  V30 8331 C 804.312 1.5921 3.08658 0
M  V30 8332 C 803.266 2.73169 3.29488 0
M  V30 8333 C 802.592 2.57389 4.68674 0
M  V30 8334 C 803.892 4.14978 3.1716 0
M  V30 8335 H 805.586 2.53735 1.5893 0
M  V30 8336 H 803.132 1.22113 0.763173 0
M  V30 8337 H 805.085 1.67285 3.86773 0
M  V30 8338 H 803.809 0.620718 3.20647 0
M  V30 8339 H 802.468 2.64566 2.53773 0
M  V30 8340 H 802.116 1.58331 4.77431 0
M  V30 8341 H 801.816 3.33826 4.83564 0
M  V30 8342 H 803.34 2.67358 5.48956 0
M  V30 8343 H 804.754 4.24684 3.85119 0
M  V30 8344 H 803.151 4.92016 3.4357 0
M  V30 8345 H 804.221 4.35016 2.14218 0
M  V30 8346 N 805.565 -0.825799 1.34232 0
M  V30 8347 C 806.811 -1.58419 1.26614 0
M  V30 8348 C 807.144 -1.93503 -0.164341 0
M  V30 8349 O 806.419 -1.59785 -1.109 0
M  V30 8350 C 806.702 -2.8856 2.15418 0
M  V30 8351 C 806.555 -2.60075 3.66989 0
M  V30 8352 C 807.874 -3.90107 2.03726 0
M  V30 8353 H 804.993 -0.574794 0.461282 0
M  V30 8354 H 807.635 -0.951519 1.64457 0
M  V30 8355 H 805.785 -3.42553 1.83275 0
M  V30 8356 H 807.457 -2.12414 4.09485 0
M  V30 8357 H 805.7 -1.93565 3.88221 0
M  V30 8358 H 806.371 -3.52866 4.24488 0
M  V30 8359 H 808.847 -3.45459 2.31942 0
M  V30 8360 H 807.723 -4.78976 2.68092 0
M  V30 8361 H 807.984 -4.30329 1.01337 0
M  V30 8362 N 807.043 -1.17915 -1.04565 0
M  V30 8363 C 808.289 -0.972863 -1.77942 0
M  V30 8364 C 808.622 0.496753 -1.87739 0
M  V30 8365 O 807.897 1.3688 -1.38181 0
M  V30 8366 C 808.18 -1.62227 -3.21488 0
M  V30 8367 C 808.033 -3.16441 -3.19664 0
M  V30 8368 C 809.352 -1.33137 -4.19479 0
M  V30 8369 H 806.471 -0.354843 -0.645953 0
M  V30 8370 H 809.113 -1.45508 -1.22178 0
M  V30 8371 H 807.263 -1.21224 -3.69103 0
M  V30 8372 H 808.935 -3.66544 -2.80077 0
M  V30 8373 H 807.178 -3.48863 -2.57832 0
M  V30 8374 H 807.849 -3.57012 -4.21006 0
M  V30 8375 H 810.325 -1.68654 -3.80388 0
M  V30 8376 H 809.201 -1.81151 -5.18146 0
M  V30 8377 H 809.462 -0.253319 -4.41374 0
M  V30 8378 N 808.521 1.23394 -0.980386 0
M  V30 8379 C 809.469 2.26872 -0.513018 0
M  V30 8380 C 810.463 1.63853 0.429948 0
M  V30 8381 O 811.669 1.77417 0.303842 0
M  V30 8382 H 808.044 0.737398 -0.147473 0
M  V30 8383 H 810.015 2.63654 -1.39746 0
M  V30 8384 C 808.764 3.47289 0.168962 0
M  V30 8385 H 808.087 3.96033 -0.547546 0
M  V30 8386 H 809.527 4.21502 0.459616 0
M  V30 8387 C 807.986 3.06425 1.40019 0
M  V30 8388 O 808.516 3.14708 2.49643 0
M  V30 8389 N 806.722 2.61339 1.27084 0
M  V30 8390 H 806.269 2.54799 0.378872 0
M  V30 8391 H 806.227 2.34364 2.09573 0
M  V30 8392 N 809.999 0.752036 1.385 0
M  V30 8393 C 811.229 0.317812 2.04141 0
M  V30 8394 C 811.637 -1.05822 1.56839 0
M  V30 8395 O 810.98 -1.68311 0.736016 0
M  V30 8396 C 811.042 0.260205 3.58557 0
M  V30 8397 C 810.706 1.57753 4.28909 0
M  V30 8398 C 811.703 2.52642 4.54387 0
M  V30 8399 C 809.388 1.84653 4.67128 0
M  V30 8400 C 811.382 3.72653 5.17116 0
M  V30 8401 C 809.069 3.04938 5.29581 0
M  V30 8402 C 810.067 3.98759 5.54509 0
M  V30 8403 O 809.755 5.16929 6.15662 0
M  V30 8404 H 809.487 0.133931 0.6626 0
M  V30 8405 H 812.041 1.02138 1.78205 0
M  V30 8406 H 810.271 -0.499596 3.83459 0
M  V30 8407 H 811.96 -0.144295 4.05643 0
M  V30 8408 H 812.726 2.33135 4.25292 0
M  V30 8409 H 808.605 1.12464 4.47071 0
M  V30 8410 H 812.149 4.45898 5.36489 0
M  V30 8411 H 808.046 3.24339 5.58099 0
M  V30 8412 H 808.814 5.1749 6.3415 0
M  V30 8413 N 811.477 -1.49425 0.500989 0
M  V30 8414 C 812.726 -2.01649 -0.04538 0
M  V30 8415 C 813.039 -1.38572 -1.38047 0
M  V30 8416 O 814.245 -1.82124 -2.01353 0
M  V30 8417 C 812.701 -3.5966 -0.131337 0
M  V30 8418 C 812.309 -4.3171 1.19711 0
M  V30 8419 C 814.053 -4.19828 -0.628071 0
M  V30 8420 C 811.96 -5.81579 1.07332 0
M  V30 8421 H 810.89 -0.753715 -0.0207329 0
M  V30 8422 H 813.541 -1.71962 0.640407 0
M  V30 8423 H 811.923 -3.86063 -0.881574 0
M  V30 8424 H 813.097 -4.17008 1.96064 0
M  V30 8425 H 811.412 -3.83286 1.62729 0
M  V30 8426 H 814.009 -5.2958 -0.738198 0
M  V30 8427 H 814.352 -3.83194 -1.6269 0
M  V30 8428 H 814.885 -3.97746 0.0656314 0
M  V30 8429 H 811.624 -6.22738 2.04642 0
M  V30 8430 H 811.144 -5.98774 0.350679 0
M  V30 8431 H 812.823 -6.42614 0.752047 0
M  V30 8432 N 812.955 -0.234822 -1.55841 0
M  V30 8433 C 813.918 0.656378 -2.196 0
M  V30 8434 C 814.918 1.11179 -1.16171 0
M  V30 8435 O 816.108 1.01845 -1.41326 0
M  V30 8436 C 813.24 1.90072 -2.82993 0
M  V30 8437 H 814.433 0.100281 -2.99732 0
M  V30 8438 H 811.986 0.0147613 -1.56293 0
M  V30 8439 H 812.721 2.49836 -2.06767 0
M  V30 8440 H 812.506 1.5825 -3.58747 0
M  V30 8441 H 813.996 2.53538 -3.31826 0
M  V30 8442 N 814.433 1.57553 0.0384317 0
M  V30 8443 C 815.38 2.05942 1.04194 0
M  V30 8444 C 816.35 0.946637 1.36484 0
M  V30 8445 O 817.535 1.21658 1.46983 0
M  V30 8446 C 814.675 2.53588 2.34066 0
M  V30 8447 C 813.788 3.7862 2.08017 0
M  V30 8448 C 812.923 4.14915 3.31692 0
M  V30 8449 C 811.962 5.32891 3.01155 0
M  V30 8450 N 811.099 5.64662 4.17254 0
M  V30 8451 H 815.939 2.91429 0.622341 0
M  V30 8452 H 813.476 1.44098 0.295684 0
M  V30 8453 H 815.434 2.79276 3.09937 0
M  V30 8454 H 814.064 1.71031 2.73767 0
M  V30 8455 H 813.116 3.60073 1.22686 0
M  V30 8456 H 814.428 4.64613 1.81484 0
M  V30 8457 H 813.582 4.41681 4.15936 0
M  V30 8458 H 812.321 3.27555 3.6133 0
M  V30 8459 H 811.326 5.05887 2.15311 0
M  V30 8460 H 812.551 6.21896 2.72804 0
M  V30 8461 H 810.497 4.80261 4.46861 0
M  V30 8462 H 810.414 6.45145 3.94112 0
M  V30 8463 H 811.682 5.96 5.02399 0
M  V30 8464 N 815.911 -0.310526 1.54511 0
M  V30 8465 C 816.858 -1.38264 1.84802 0
M  V30 8466 C 817.828 -1.50808 0.696141 0
M  V30 8467 O 819.013 -1.6582 0.943846 0
M  V30 8468 C 816.153 -2.74422 2.09252 0
M  V30 8469 C 815.266 -2.70405 3.36906 0
M  V30 8470 C 814.401 -3.98495 3.51248 0
M  V30 8471 C 813.44 -3.88836 4.72729 0
M  V30 8472 N 812.577 -5.08683 4.83928 0
M  V30 8473 H 817.417 -1.11732 2.76261 0
M  V30 8474 H 814.954 -0.540609 1.36806 0
M  V30 8475 H 816.912 -3.53593 2.21422 0
M  V30 8476 H 815.542 -2.99235 1.2107 0
M  V30 8477 H 814.594 -1.83151 3.33406 0
M  V30 8478 H 815.906 -2.59155 4.26193 0
M  V30 8479 H 815.06 -4.861 3.63031 0
M  V30 8480 H 813.799 -4.12567 2.60077 0
M  V30 8481 H 812.804 -2.99615 4.60989 0
M  V30 8482 H 814.029 -3.76318 5.65298 0
M  V30 8483 H 811.975 -5.23236 3.95677 0
M  V30 8484 H 811.892 -4.99819 5.67201 0
M  V30 8485 H 813.16 -5.97966 5.00057 0
M  V30 8486 N 817.389 -1.46805 -0.573248 0
M  V30 8487 C 818.614 -1.56433 -1.36175 0
M  V30 8488 C 819.039 -0.209336 -1.86932 0
M  V30 8489 O 818.397 0.812146 -1.62092 0
M  V30 8490 C 818.445 -2.58055 -2.51873 0
M  V30 8491 O 817.549 -2.12214 -3.53609 0
M  V30 8492 H 816.89 -0.526068 -0.405153 0
M  V30 8493 H 819.42 -1.92456 -0.694405 0
M  V30 8494 H 819.43 -2.77966 -2.98662 0
M  V30 8495 H 818.105 -3.56448 -2.14284 0
M  V30 8496 H 816.682 -2.02333 -3.13234 0
M  V30 8497 N 818.867 0.818669 -1.34668 0
M  V30 8498 C 820.114 1.57512 -1.27264 0
M  V30 8499 C 820.442 1.93871 0.156254 0
M  V30 8500 O 819.697 1.60582 1.11857 0
M  V30 8501 C 819.996 2.88245 -2.11304 0
M  V30 8502 C 819.662 2.71159 -3.60255 0
M  V30 8503 C 818.324 2.66207 -4.00858 0
M  V30 8504 C 820.676 2.54538 -4.54819 0
M  V30 8505 C 818.004 2.4256 -5.34211 0
M  V30 8506 C 820.356 2.32421 -5.88356 0
M  V30 8507 C 819.02 2.25884 -6.28118 0
M  V30 8508 H 818.29 0.576378 -0.465692 0
M  V30 8509 H 820.937 0.9469 -1.66451 0
M  V30 8510 H 819.242 3.55381 -1.64958 0
M  V30 8511 H 820.939 3.45869 -2.02919 0
M  V30 8512 H 817.529 2.75856 -3.28027 0
M  V30 8513 H 821.713 2.57384 -4.24343 0
M  V30 8514 H 816.969 2.35959 -5.64033 0
M  V30 8515 H 821.143 2.18548 -6.61218 0
M  V30 8516 H 818.77 2.07322 -7.31383 0
M  V30 8517 N 820.346 1.18468 1.03938 0
M  V30 8518 C 821.586 0.991823 1.78724 0
M  V30 8519 C 821.95 -0.470115 1.86156 0
M  V30 8520 O 823.151 -0.782451 2.5716 0
M  V30 8521 C 821.422 1.63018 3.18056 0
M  V30 8522 S 822.981 1.58527 4.09163 0
M  V30 8523 H 819.799 0.356137 0.615376 0
M  V30 8524 H 822.401 1.50634 1.24618 0
M  V30 8525 H 821.105 2.68642 3.10258 0
M  V30 8526 H 820.636 1.11601 3.77238 0
M  V30 8527 H 822.651 0.602059 4.92534 0
M  V30 8528 N 821.824 -1.22873 0.986916 0
M  V30 8529 C 823.24 -1.43594 0.696633 0
M  V30 8530 C 823.44 -1.87622 -0.734869 0
M  V30 8531 O 822.496 -2.02633 -1.50652 0
M  V30 8532 C 823.809 -2.48231 1.69711 0
M  V30 8533 C 825.357 -2.62037 1.71188 0
M  V30 8534 C 825.832 -3.6989 2.70084 0
M  V30 8535 N 827.323 -3.77341 2.68641 0
M  V30 8536 C 828.058 -4.6037 3.41829 0
M  V30 8537 N 827.554 -5.47438 4.24598 0
M  V30 8538 N 829.347 -4.54626 3.30563 0
M  V30 8539 H 821.498 -0.925982 1.91153 0
M  V30 8540 H 823.761 -0.46866 0.824052 0
M  V30 8541 H 823.467 -2.22812 2.72117 0
M  V30 8542 H 823.341 -3.46731 1.48516 0
M  V30 8543 H 825.728 -2.86803 0.694837 0
M  V30 8544 H 825.809 -1.63831 1.96451 0
M  V30 8545 H 825.453 -3.45872 3.71934 0
M  V30 8546 H 825.383 -4.67652 2.42093 0
M  V30 8547 H 827.874 -3.15124 2.08578 0
M  V30 8548 H 828.187 -6.078 4.77283 0
M  V30 8549 H 826.532 -5.4704 4.28687 0
M  V30 8550 H 829.723 -3.85627 2.65347 0
M  V30 8551 H 829.896 -5.19103 3.8786 0
M  V30 8552 N 823.302 -0.75937 -1.38099 0
M  V30 8553 C 824.718 -0.437606 -1.53483 0
M  V30 8554 C 824.918 1.04849 -1.72072 0
M  V30 8555 O 823.974 1.83448 -1.73502 0
M  V30 8556 C 825.287 -1.24189 -2.73857 0
M  V30 8557 C 826.835 -1.23255 -2.8771 0
M  V30 8558 C 827.31 -2.01992 -4.11051 0
M  V30 8559 N 828.801 -1.99282 -4.1814 0
M  V30 8560 C 829.536 -2.56996 -5.12583 0
M  V30 8561 N 829.032 -3.23446 -6.12662 0
M  V30 8562 N 830.825 -2.46894 -5.04975 0
M  V30 8563 H 822.976 -1.72242 -1.24283 0
M  V30 8564 H 825.239 -0.730507 -0.604205 0
M  V30 8565 H 824.945 -2.29449 -2.66545 0
M  V30 8566 H 824.819 -0.862672 -3.67203 0
M  V30 8567 H 827.206 -0.187988 -2.94501 0
M  V30 8568 H 827.287 -1.65132 -1.95359 0
M  V30 8569 H 826.931 -3.06462 -4.05023 0
M  V30 8570 H 826.861 -1.57505 -5.02494 0
M  V30 8571 H 829.352 -1.50893 -3.46467 0
M  V30 8572 H 829.665 -3.6489 -6.81231 0
M  V30 8573 H 828.01 -3.27543 -6.12977 0
M  V30 8574 H 831.201 -1.94604 -4.25731 0
M  V30 8575 H 831.374 -2.92168 -5.78396 0
M  V30 8576 N 824.78 1.49157 -0.508906 0
M  V30 8577 C 825.743 2.27784 0.25434 0
M  V30 8578 C 826.743 1.34132 0.88686 0
M  V30 8579 O 827.933 1.5722 0.750168 0
M  V30 8580 C 825.065 3.12347 1.36573 0
M  V30 8581 H 826.258 2.96718 -0.435714 0
M  V30 8582 H 823.811 1.54052 -0.264128 0
M  V30 8583 H 824.546 2.47997 2.08969 0
M  V30 8584 H 824.331 3.81213 0.917543 0
M  V30 8585 H 825.821 3.71712 1.90315 0
M  V30 8586 N 826.258 0.243083 1.55714 0
M  V30 8587 C 827.507 -0.383188 1.98027 0
M  V30 8588 C 827.82 -1.59347 1.13436 0
M  V30 8589 O 829.026 -2.29065 1.45745 0
M  V30 8590 C 827.482 -0.733135 3.52354 0
M  V30 8591 C 827.09 0.455539 4.45678 0
M  V30 8592 C 828.834 -1.32381 4.03331 0
M  V30 8593 C 826.741 0.0819591 5.91343 0
M  V30 8594 H 825.671 -0.146944 0.739543 0
M  V30 8595 H 828.322 0.342697 1.80272 0
M  V30 8596 H 826.704 -1.51704 3.65789 0
M  V30 8597 H 827.878 1.23291 4.44 0
M  V30 8598 H 826.193 0.960886 4.05162 0
M  V30 8599 H 828.79 -1.61658 5.09677 0
M  V30 8600 H 829.133 -2.24698 3.50452 0
M  V30 8601 H 829.666 -0.602885 3.93205 0
M  V30 8602 H 826.405 0.972171 6.48251 0
M  V30 8603 H 825.925 -0.659291 5.96166 0
M  V30 8604 H 827.604 -0.3372 6.46121 0
M  V30 8605 N 827.736 -1.57571 -0.0300757 0
M  V30 8606 C 828.646 -2.09892 -1.04798 0
M  V30 8607 C 829.662 -1.03732 -1.39698 0
M  V30 8608 O 830.838 -1.35461 -1.49038 0
M  V30 8609 C 827.903 -2.56707 -2.33028 0
M  V30 8610 C 826.964 -3.77345 -2.04718 0
M  V30 8611 C 826.197 -4.21918 -3.26834 0
M  V30 8612 O 826.42 -3.66025 -4.37472 0
M  V30 8613 O 825.354 -5.14362 -3.12594 0
M  V30 8614 H 829.18 -2.97023 -0.633344 0
M  V30 8615 H 826.765 -1.47344 -0.246991 0
M  V30 8616 H 828.647 -2.87154 -3.08417 0
M  V30 8617 H 827.322 -1.72688 -2.73789 0
M  V30 8618 H 826.229 -3.51919 -1.26901 0
M  V30 8619 H 827.562 -4.62345 -1.68813 0
M  V30 8620 N 829.214 0.302327 -1.54673 0
M  V30 8621 C 830.144 1.37759 -1.88533 0
M  V30 8622 C 831.125 1.52961 -0.744113 0
M  V30 8623 O 832.31 1.6649 -0.999731 0
M  V30 8624 C 829.44 2.74201 -2.13146 0
M  V30 8625 C 828.394 2.73765 -3.28993 0
M  V30 8626 C 827.72 4.13483 -3.39022 0
M  V30 8627 C 829.02 2.35624 -4.66132 0
M  V30 8628 H 830.714 1.0967 -2.78591 0
M  V30 8629 H 828.26 0.52613 -1.34044 0
M  V30 8630 H 830.213 3.49508 -2.35419 0
M  V30 8631 H 828.937 3.03812 -1.19858 0
M  V30 8632 H 827.596 2.00914 -3.06642 0
M  V30 8633 H 827.244 4.40269 -2.43253 0
M  V30 8634 H 826.944 4.14093 -4.16894 0
M  V30 8635 H 828.468 4.90572 -3.63553 0
M  V30 8636 H 829.882 3.00647 -4.88143 0
M  V30 8637 H 828.279 2.47449 -5.46707 0
M  V30 8638 H 829.349 1.30753 -4.66939 0
M  V30 8639 N 830.692 1.47107 0.565454 0
M  V30 8640 C 831.92 1.56909 1.3486 0
M  V30 8641 C 832.335 0.216312 1.87557 0
M  V30 8642 O 831.692 -0.789168 1.64555 0
M  V30 8643 C 831.743 2.58776 2.52423 0
M  V30 8644 O 831.464 3.888 2.01906 0
M  V30 8645 C 832.965 2.78683 3.44747 0
M  V30 8646 H 830.185 0.530096 0.411387 0
M  V30 8647 H 832.729 1.92658 0.685782 0
M  V30 8648 H 830.884 2.25983 3.1466 0
M  V30 8649 H 831.298 4.44393 2.78595 0
M  V30 8650 H 832.772 3.53842 4.23674 0
M  V30 8651 H 833.249 1.86208 3.97773 0
M  V30 8652 H 833.855 3.12641 2.88333 0
M  V30 8653 N 832.17 -0.811516 1.35101 0
M  V30 8654 C 833.1 -1.9378 1.30275 0
M  V30 8655 C 834.081 -1.69165 0.178075 0
M  V30 8656 O 835.266 -1.90599 0.372256 0
M  V30 8657 C 832.396 -3.30439 1.06899 0
M  V30 8658 C 831.35 -3.69523 2.15955 0
M  V30 8659 C 830.676 -5.0429 1.77751 0
M  V30 8660 C 831.976 -3.80419 3.57881 0
M  V30 8661 H 833.67 -1.98075 2.24514 0
M  V30 8662 H 831.216 -0.951586 1.08078 0
M  V30 8663 H 833.169 -4.08828 1.02164 0
M  V30 8664 H 831.893 -3.26473 0.0910462 0
M  V30 8665 H 830.552 -2.93416 2.19778 0
M  V30 8666 H 830.2 -4.96823 0.785876 0
M  V30 8667 H 829.9 -5.31411 2.5075 0
M  V30 8668 H 831.424 -5.85125 1.74533 0
M  V30 8669 H 832.838 -4.49051 3.56407 0
M  V30 8670 H 831.235 -4.19005 4.29598 0
M  V30 8671 H 832.305 -2.82105 3.94391 0
M  V30 8672 N 833.648 -1.19017 -1.03309 0
M  V30 8673 C 834.598 -0.89194 -2.0983 0
M  V30 8674 C 835.582 0.14151 -1.60277 0
M  V30 8675 O 836.774 -0.0635946 -1.76886 0
M  V30 8676 C 833.903 -0.427793 -3.40624 0
M  V30 8677 C 832.989 -1.49374 -3.96923 0
M  V30 8678 N 833.38 -2.71213 -4.26939 0
M  V30 8679 C 831.678 -1.35605 -4.24885 0
M  V30 8680 C 832.379 -3.39849 -4.72099 0
M  V30 8681 N 831.355 -2.67239 -4.73375 0
M  V30 8682 H 835.157 -1.81801 -2.30923 0
M  V30 8683 H 832.671 -1.08171 -1.21131 0
M  V30 8684 H 834.668 -0.195608 -4.16441 0
M  V30 8685 H 833.328 0.491848 -3.20953 0
M  V30 8686 H 834.339 -3.08014 -4.16351 0
M  V30 8687 H 831.016 -0.499537 -4.14501 0
M  V30 8688 H 832.406 -4.44018 -5.04279 0
M  V30 8689 N 835.127 1.22348 -0.993418 0
M  V30 8690 C 836.352 1.95666 -0.687727 0
M  V30 8691 C 836.777 1.72883 0.741161 0
M  V30 8692 O 836.135 1.00837 1.50671 0
M  V30 8693 C 836.183 3.46457 -0.99998 0
M  V30 8694 O 835.287 4.12281 -0.0989386 0
M  V30 8695 H 834.628 0.612102 -0.257346 0
M  V30 8696 H 837.158 1.55428 -1.33054 0
M  V30 8697 H 837.168 3.96976 -0.942035 0
M  V30 8698 H 835.843 3.62365 -2.04118 0
M  V30 8699 H 834.42 3.72295 -0.212413 0
M  V30 8700 N 836.605 0.766683 1.37694 0
M  V30 8701 C 837.535 0.163432 2.32927 0
M  V30 8702 C 838.516 -0.688861 1.55527 0
M  V30 8703 O 839.701 -0.627363 1.83787 0
M  V30 8704 C 836.831 -0.720416 3.39746 0
M  V30 8705 C 835.785 0.0301718 4.27989 0
M  V30 8706 C 835.111 -0.972788 5.25776 0
M  V30 8707 C 836.411 1.20623 5.0818 0
M  V30 8708 H 838.105 0.958988 2.83626 0
M  V30 8709 H 835.651 0.462601 1.36367 0
M  V30 8710 H 837.604 -1.15221 4.05342 0
M  V30 8711 H 836.328 -1.54844 2.8756 0
M  V30 8712 H 834.987 0.442685 3.63917 0
M  V30 8713 H 834.635 -1.79522 4.69873 0
M  V30 8714 H 834.335 -0.475145 5.85676 0
M  V30 8715 H 835.859 -1.40362 5.94248 0
M  V30 8716 H 837.273 0.851341 5.66944 0
M  V30 8717 H 835.67 1.63561 5.7738 0
M  V30 8718 H 836.74 2.01281 4.41151 0
M  V30 8719 N 838.083 -1.48885 0.516809 0
M  V30 8720 C 839.331 -2.02088 -0.0220166 0
M  V30 8721 C 839.652 -1.39735 -1.36011 0
M  V30 8722 O 838.922 -0.558119 -1.87781 0
M  V30 8723 H 837.502 -0.746917 -0.0111255 0
M  V30 8724 H 840.164 -1.8274 0.677647 0
M  V30 8725 H 839.26 -3.11786 -0.140067 0
M  V30 8726 N 839.561 -0.251338 -1.55583 0
M  V30 8727 C 840.807 0.37272 -1.99346 0
M  V30 8728 C 841.14 1.57266 -1.13934 0
M  V30 8729 O 840.415 1.9343 -0.20377 0
M  V30 8730 C 840.698 0.778245 -3.5159 0
M  V30 8731 C 840.551 -0.427394 -4.47765 0
M  V30 8732 C 841.87 1.62358 -4.09057 0
M  V30 8733 H 838.989 0.134002 -0.724715 0
M  V30 8734 H 841.631 -0.353536 -1.86682 0
M  V30 8735 H 839.781 1.39704 -3.62512 0
M  V30 8736 H 841.453 -1.06586 -4.48818 0
M  V30 8737 H 839.696 -1.06972 -4.20404 0
M  V30 8738 H 840.367 -0.10025 -5.51909 0
M  V30 8739 H 842.843 1.1012 -4.01264 0
M  V30 8740 H 841.719 1.87617 -5.1584 0
M  V30 8741 H 841.98 2.59688 -3.57791 0
M  V30 8742 N 841.039 1.57585 0.0217189 0
M  V30 8743 C 842.264 1.94267 0.726309 0
M  V30 8744 C 842.689 0.851904 1.67703 0
M  V30 8745 O 842.047 -0.191792 1.80283 0
M  V30 8746 C 842.095 3.30023 1.45318 0
M  V30 8747 O 841.199 3.22791 2.5667 0
M  V30 8748 H 840.54 0.634777 0.194818 0
M  V30 8749 H 843.07 2.04585 -0.0249985 0
M  V30 8750 H 843.08 3.65084 1.82147 0
M  V30 8751 H 841.755 4.08972 0.755962 0
M  V30 8752 H 840.332 2.99373 2.2233 0
M  V30 8753 N 842.517 -0.29412 1.54831 0
M  V30 8754 C 843.427 -1.3854 1.89325 0
M  V30 8755 C 844.443 -1.55127 0.788133 0
M  V30 8756 O 845.619 -1.6966 1.08524 0
M  V30 8757 C 842.684 -2.72809 2.13954 0
M  V30 8758 C 841.745 -2.65148 3.37631 0
M  V30 8759 C 840.978 -3.93014 3.61076 0
M  V30 8760 O 841.201 -4.927 2.87406 0
M  V30 8761 O 840.135 -3.94491 4.54599 0
M  V30 8762 H 843.961 -1.12289 2.82179 0
M  V30 8763 H 841.546 -0.490793 1.41108 0
M  V30 8764 H 843.428 -3.52238 2.31315 0
M  V30 8765 H 842.103 -2.9889 1.24285 0
M  V30 8766 H 841.01 -1.84168 3.25627 0
M  V30 8767 H 842.343 -2.4402 4.27452 0
M  V30 8768 N 843.995 -1.47404 -0.557645 0
M  V30 8769 C 844.905 -1.62491 -1.69216 0
M  V30 8770 C 845.921 -0.507764 -1.66426 0
M  V30 8771 O 847.097 -0.775241 -1.85882 0
M  V30 8772 C 844.162 -1.63511 -3.05721 0
M  V30 8773 C 843.223 -2.86648 -3.1958 0
M  V30 8774 C 842.456 -2.87609 -4.49574 0
M  V30 8775 O 842.679 -1.97799 -5.35006 0
M  V30 8776 O 841.613 -3.79465 -4.67215 0
M  V30 8777 H 845.439 -2.58487 -1.59431 0
M  V30 8778 H 843.024 -1.30485 -0.7276 0
M  V30 8779 H 844.906 -1.66863 -3.86956 0
M  V30 8780 H 843.581 -0.706812 -3.15889 0
M  V30 8781 H 842.488 -2.8884 -2.37744 0
M  V30 8782 H 843.821 -3.7877 -3.14316 0
M  V30 8783 N 845.473 0.80434 -1.35529 0
M  V30 8784 C 846.403 1.93086 -1.31301 0
M  V30 8785 C 847.384 1.69068 -0.187044 0
M  V30 8786 O 848.569 1.90399 -0.382359 0
M  V30 8787 C 845.699 3.29867 -1.0865 0
M  V30 8788 C 844.653 3.68373 -2.17911 0
M  V30 8789 C 843.979 5.0334 -1.80423 0
M  V30 8790 C 845.279 3.78516 -3.59893 0
M  V30 8791 H 846.973 1.96882 -2.25561 0
M  V30 8792 H 844.519 0.945841 -1.08581 0
M  V30 8793 H 846.472 4.08281 -1.04331 0
M  V30 8794 H 845.196 3.2642 -0.108359 0
M  V30 8795 H 843.855 2.92247 -2.21331 0
M  V30 8796 H 843.503 4.96399 -0.812213 0
M  V30 8797 H 843.203 5.30074 -2.53565 0
M  V30 8798 H 844.727 5.84191 -1.77633 0
M  V30 8799 H 846.141 4.47155 -3.58783 0
M  V30 8800 H 844.538 4.16721 -4.31814 0
M  V30 8801 H 845.608 2.8001 -3.95882 0
M  V30 8802 N 846.951 1.19563 1.02676 0
M  V30 8803 C 847.883 0.893054 2.11086 0
M  V30 8804 C 848.896 -0.115101 1.62393 0
M  V30 8805 O 850.085 0.11459 1.78132 0
M  V30 8806 C 847.185 0.315533 3.37428 0
M  V30 8807 C 846.358 1.37276 4.153 0
M  V30 8808 C 845.417 0.808398 5.19953 0
M  V30 8809 O 844.443 1.48661 5.49444 0
M  V30 8810 N 845.645 -0.387253 5.79207 0
M  V30 8811 H 848.41 1.82622 2.37633 0
M  V30 8812 H 845.971 1.09792 1.18984 0
M  V30 8813 H 847.963 -0.0759166 4.04629 0
M  V30 8814 H 846.533 -0.521961 3.08211 0
M  V30 8815 H 845.753 1.93897 3.43217 0
M  V30 8816 H 847.041 2.08509 4.64114 0
M  V30 8817 H 846.439 -0.955725 5.57568 0
M  V30 8818 H 844.996 -0.720457 6.47806 0
M  V30 8819 N 848.429 -1.21819 0.999893 0
M  V30 8820 C 849.377 -2.26027 0.549047 0
M  V30 8821 C 850.371 -1.64516 -0.403826 0
M  V30 8822 O 851.577 -1.77878 -0.275578 0
M  V30 8823 H 847.952 -0.734958 0.159185 0
M  V30 8824 H 849.923 -2.61398 1.43923 0
M  V30 8825 C 848.672 -3.47514 -0.11369 0
M  V30 8826 H 847.995 -3.95112 0.610482 0
M  V30 8827 H 849.435 -4.22179 -0.3925 0
M  V30 8828 C 847.894 -3.08614 -1.35126 0
M  V30 8829 O 848.424 -3.1864 -2.44605 0
M  V30 8830 N 846.63 -2.63327 -1.22911 0
M  V30 8831 H 846.177 -2.55369 -0.338288 0
M  V30 8832 H 846.135 -2.37668 -2.05818 0
M  V30 8833 N 849.908 -0.773975 -1.37286 0
M  V30 8834 C 850.855 -0.159938 -2.30245 0
M  V30 8835 C 851.825 0.687356 -1.51211 0
M  V30 8836 O 853.01 0.639255 -1.79773 0
M  V30 8837 C 850.15 0.711452 -3.37687 0
M  V30 8838 C 849.263 -0.152692 -4.3173 0
M  V30 8839 C 848.398 0.723613 -5.26248 0
M  V30 8840 C 847.437 -0.14293 -6.11933 0
M  V30 8841 N 846.574 0.691479 -6.98687 0
M  V30 8842 H 851.414 -0.958182 -2.82175 0
M  V30 8843 H 848.951 -0.48411 -1.38906 0
M  V30 8844 H 850.909 1.2315 -3.9861 0
M  V30 8845 H 849.539 1.47528 -2.87116 0
M  V30 8846 H 848.591 -0.790574 -3.72094 0
M  V30 8847 H 849.903 -0.821027 -4.91997 0
M  V30 8848 H 849.057 1.31006 -5.92387 0
M  V30 8849 H 847.796 1.42562 -4.66398 0
M  V30 8850 H 846.801 -0.7419 -5.44771 0
M  V30 8851 H 848.026 -0.842305 -6.73856 0
M  V30 8852 H 845.972 1.37806 -6.41362 0
M  V30 8853 H 845.889 0.0804911 -7.55957 0
M  V30 8854 H 847.157 1.26225 -7.69212 0
M  V30 8855 N 851.386 1.48609 -0.524698 0
M  V30 8856 C 852.316 2.32366 0.229837 0
M  V30 8857 C 853.297 1.41759 0.940129 0
M  V30 8858 O 854.482 1.7065 0.926936 0
M  V30 8859 C 851.612 3.22835 1.28043 0
M  V30 8860 C 850.566 4.22424 0.688603 0
M  V30 8861 C 849.892 5.0199 1.84146 0
M  V30 8862 C 851.192 5.21217 -0.336176 0
M  V30 8863 H 852.886 2.95698 -0.469339 0
M  V30 8864 H 850.432 1.42197 -0.227156 0
M  V30 8865 H 852.385 3.80253 1.8162 0
M  V30 8866 H 851.109 2.57492 2.00912 0
M  V30 8867 H 849.768 3.66185 0.174402 0
M  V30 8868 H 849.416 4.33076 2.5584 0
M  V30 8869 H 849.116 5.69392 1.45142 0
M  V30 8870 H 850.64 5.62259 2.38111 0
M  V30 8871 H 852.054 5.7319 0.112307 0
M  V30 8872 H 850.451 5.96642 -0.643324 0
M  V30 8873 H 851.521 4.68676 -1.24381 0
M  V30 8874 N 852.864 0.259585 1.55447 0
M  V30 8875 C 853.774 -0.645026 2.25558 0
M  V30 8876 C 854.79 -1.18291 1.27606 0
M  V30 8877 O 855.966 -1.21649 1.6051 0
M  V30 8878 C 853.031 -1.81964 2.9511 0
M  V30 8879 C 852.092 -1.31997 4.08504 0
M  V30 8880 C 851.325 -2.43861 4.74729 0
M  V30 8881 O 851.548 -3.62876 4.40088 0
M  V30 8882 O 850.482 -2.12898 5.6299 0
M  V30 8883 H 854.308 -0.0775399 3.03601 0
M  V30 8884 H 851.893 0.0275859 1.49375 0
M  V30 8885 H 853.775 -2.50485 3.38873 0
M  V30 8886 H 852.45 -2.37451 2.19997 0
M  V30 8887 H 851.357 -0.601676 3.6923 0
M  V30 8888 H 852.69 -0.811045 4.85472 0
M  V30 8889 N 854.342 -1.57594 -0.0133615 0
M  V30 8890 C 855.619 -1.81173 -0.737273 0
M  V30 8891 C 855.999 -0.861395 -1.92726 0
M  V30 8892 O 855.347 0.0929324 -2.28311 0
M  V30 8893 C 855.557 -3.29314 -1.15557 0
M  V30 8894 C 856.905 -3.94707 -1.56498 0
M  V30 8895 O 857.929 -3.33557 -1.24973 0
M  V30 8896 O 856.788 -5.02402 -2.15069 0
M  V30 8897 H 853.882 -0.745575 -0.357837 0
M  V30 8898 H 856.428 -1.69696 0.0110674 0
M  V30 8899 H 855.2 -3.90096 -0.30677 0
M  V30 8900 H 854.823 -3.45739 -1.96343 0
M  V30 8901 N 855.82 0.285905 -1.54985 0
M  V30 8902 C 857.066 1.02071 -1.75241 0
M  V30 8903 C 857.399 1.864 -0.544842 0
M  V30 8904 O 856.674 1.89034 0.457844 0
M  V30 8905 C 856.957 1.91409 -3.05016 0
M  V30 8906 C 856.81 1.10158 -4.36102 0
M  V30 8907 C 858.129 2.90335 -3.30747 0
M  V30 8908 H 855.248 0.369663 -0.637588 0
M  V30 8909 H 857.89 0.294114 -1.8771 0
M  V30 8910 H 856.04 2.53362 -2.94517 0
M  V30 8911 H 857.712 0.503756 -4.58541 0
M  V30 8912 H 855.955 0.404675 -4.31908 0
M  V30 8913 H 856.626 1.75956 -5.23205 0
M  V30 8914 H 859.102 2.38514 -3.40955 0
M  V30 8915 H 857.978 3.49997 -4.2284 0
M  V30 8916 H 858.239 3.64787 -2.49765 0
M  V30 8917 N 857.298 1.47698 0.54982 0
M  V30 8918 C 858.544 1.54931 1.30859 0
M  V30 8919 C 858.877 0.214021 1.93017 0
M  V30 8920 O 858.152 -0.778093 1.78258 0
M  V30 8921 C 858.435 2.67286 2.41309 0
M  V30 8922 C 858.288 4.10457 1.83971 0
M  V30 8923 C 859.607 2.75509 3.43195 0
M  V30 8924 H 856.726 0.56399 0.474431 0
M  V30 8925 H 859.368 1.79787 0.614541 0
M  V30 8926 H 857.518 2.46224 3.0051 0
M  V30 8927 H 859.19 4.42903 1.28974 0
M  V30 8928 H 857.433 4.18387 1.14606 0
M  V30 8929 H 858.104 4.84857 2.63851 0
M  V30 8930 H 860.58 2.94531 2.93923 0
M  V30 8931 H 859.456 3.55886 4.17895 0
M  V30 8932 H 859.717 1.82863 4.02509 0
M  V30 8933 N 858.776 -0.797141 1.35954 0
M  V30 8934 C 860.025 -1.54983 1.29086 0
M  V30 8935 C 860.338 -1.95167 -0.130003 0
M  V30 8936 O 861.544 -2.69596 -0.32101 0
M  V30 8937 C 860 -2.79738 2.26439 0
M  V30 8938 C 859.608 -2.46753 3.73921 0
M  V30 8939 C 861.352 -3.57733 2.28533 0
M  V30 8940 C 859.259 -3.67858 4.63071 0
M  V30 8941 H 858.189 -0.581766 0.479651 0
M  V30 8942 H 860.84 -0.87541 1.61273 0
M  V30 8943 H 859.222 -3.48939 1.87236 0
M  V30 8944 H 860.396 -1.85499 4.21814 0
M  V30 8945 H 858.711 -1.81985 3.74527 0
M  V30 8946 H 861.308 -4.47699 2.92351 0
M  V30 8947 H 861.651 -3.95754 1.29169 0
M  V30 8948 H 862.184 -2.95504 2.66313 0
M  V30 8949 H 858.923 -3.34939 5.63468 0
M  V30 8950 H 858.443 -4.28305 4.19898 0
M  V30 8951 H 860.122 -4.34977 4.78961 0
M  V30 8952 N 860.254 -1.20106 -1.0204 0
M  V30 8953 C 861.531 -0.918029 -1.72718 0
M  V30 8954 C 861.911 0.574163 -2.03142 0
M  V30 8955 O 861.259 1.53476 -1.69285 0
M  V30 8956 C 861.469 -1.78698 -2.9978 0
M  V30 8957 C 862.817 -2.02648 -3.7312 0
M  V30 8958 O 863.841 -1.75919 -3.09727 0
M  V30 8959 O 862.7 -2.47767 -4.87107 0
M  V30 8960 H 859.794 -0.342904 -0.752559 0
M  V30 8961 H 862.34 -1.30961 -1.07923 0
M  V30 8962 H 861.112 -2.79757 -2.7359 0
M  V30 8963 H 860.735 -1.39522 -3.72316 0
M  V30 8964 N 861.732 1.21287 -1.00634 0
M  V30 8965 C 863.148 1.42467 -0.719389 0
M  V30 8966 C 863.348 1.88767 0.704927 0
M  V30 8967 O 862.404 2.05004 1.47409 0
M  V30 8968 C 863.717 2.455 -1.73639 0
M  V30 8969 C 865.265 2.59281 -1.75335 0
M  V30 8970 C 865.74 3.65547 -2.75934 0
M  V30 8971 N 867.231 3.73019 -2.74611 0
M  V30 8972 C 867.966 4.54873 -3.4911 0
M  V30 8973 N 867.462 5.40614 -4.33253 0
M  V30 8974 N 869.255 4.49309 -3.37754 0
M  V30 8975 H 861.406 0.895454 -1.92602 0
M  V30 8976 H 863.669 0.455491 -0.831404 0
M  V30 8977 H 863.375 2.18455 -2.75627 0
M  V30 8978 H 863.249 3.44325 -1.54014 0
M  V30 8979 H 865.636 2.85661 -0.740377 0
M  V30 8980 H 865.717 1.60685 -1.99032 0
M  V30 8981 H 865.361 3.39911 -3.77389 0
M  V30 8982 H 865.291 4.63741 -2.49503 0
M  V30 8983 H 867.782 3.11766 -2.13565 0
M  V30 8984 H 868.095 6.0013 -4.86892 0
M  V30 8985 H 866.44 5.40151 -4.37335 0
M  V30 8986 H 869.631 3.81357 -2.71449 0
M  V30 8987 H 869.804 5.12867 -3.9607 0
M  V30 8988 N 863.21 0.781244 1.36873 0
M  V30 8989 C 864.158 0.161889 2.32036 0
M  V30 8990 C 865.152 -0.674225 1.55405 0
M  V30 8991 O 866.358 -0.570223 1.70729 0
M  V30 8992 H 862.733 0.0335702 0.75125 0
M  V30 8993 H 864.704 0.980078 2.81846 0
M  V30 8994 C 863.453 -0.695352 3.40676 0
M  V30 8995 H 862.776 -0.0613425 3.99753 0
M  V30 8996 H 864.216 -1.09553 4.09602 0
M  V30 8997 C 862.675 -1.85008 2.81556 0
M  V30 8998 O 863.205 -2.94616 2.73065 0
M  V30 8999 N 861.411 -1.65364 2.38962 0
M  V30 9000 H 860.958 -0.762106 2.46068 0
M  V30 9001 H 860.916 -2.42789 1.99752 0
M  V30 9002 N 864.689 -1.48329 0.532571 0
M  V30 9003 C 865.619 -2.32485 -0.217511 0
M  V30 9004 C 866.6 -1.42255 -0.932598 0
M  V30 9005 O 867.785 -1.7114 -0.917873 0
M  V30 9006 C 864.915 -3.23509 -1.26329 0
M  V30 9007 C 863.869 -4.22784 -0.666191 0
M  V30 9008 C 863.195 -5.0296 -1.81482 0
M  V30 9009 C 864.495 -5.21031 0.363813 0
M  V30 9010 H 866.189 -2.95445 0.485014 0
M  V30 9011 H 863.735 -1.42075 0.234694 0
M  V30 9012 H 865.688 -3.81211 -1.79601 0
M  V30 9013 H 864.412 -2.58554 -1.99543 0
M  V30 9014 H 863.071 -3.66272 -0.15498 0
M  V30 9015 H 862.719 -4.34427 -2.5354 0
M  V30 9016 H 862.419 -5.70154 -1.4212 0
M  V30 9017 H 863.943 -5.63514 -2.35126 0
M  V30 9018 H 865.357 -5.73241 -0.0819079 0
M  V30 9019 H 863.754 -5.96292 0.674956 0
M  V30 9020 H 864.824 -4.6801 1.26865 0
M  V30 9021 N 866.167 -0.267825 -1.55308 0
M  V30 9022 C 867.097 0.616585 -2.25212 0
M  V30 9023 C 868.078 1.16472 -1.23969 0
M  V30 9024 O 869.263 1.20021 -1.52672 0
M  V30 9025 C 866.393 1.80412 -2.96764 0
M  V30 9026 C 865.347 1.38784 -4.04874 0
M  V30 9027 C 864.673 2.65789 -4.63961 0
M  V30 9028 C 865.973 0.543415 -5.19465 0
M  V30 9029 H 867.667 0.0336257 -2.99381 0
M  V30 9030 H 865.213 0.0147328 -1.43992 0
M  V30 9031 H 867.166 2.42866 -3.44375 0
M  V30 9032 H 865.89 2.4128 -2.20118 0
M  V30 9033 H 864.549 0.786541 -3.58063 0
M  V30 9034 H 864.197 3.24899 -3.83992 0
M  V30 9035 H 863.897 2.38651 -5.36954 0
M  V30 9036 H 865.421 3.29104 -5.14318 0
M  V30 9037 H 866.835 1.07277 -5.63174 0
M  V30 9038 H 865.232 0.367219 -5.98975 0
M  V30 9039 H 866.302 -0.439534 -4.82904 0
M  V30 9040 N 867.645 1.57599 0.00500368 0
M  V30 9041 C 868.894 1.89528 0.690061 0
M  V30 9042 C 869.207 0.869451 1.75214 0
M  V30 9043 O 870.413 1.07879 2.49147 0
M  V30 9044 C 868.869 3.36425 1.27852 0
M  V30 9045 C 868.477 4.47293 0.251531 0
M  V30 9046 C 870.221 3.77471 1.94206 0
M  V30 9047 C 868.128 5.85264 0.8497 0
M  V30 9048 H 867.058 0.707201 0.2615 0
M  V30 9049 H 869.709 1.83418 -0.0547209 0
M  V30 9050 H 868.091 3.37356 2.07381 0
M  V30 9051 H 869.265 4.5787 -0.518796 0
M  V30 9052 H 867.58 4.15235 -0.311281 0
M  V30 9053 H 870.177 4.77884 2.39855 0
M  V30 9054 H 870.52 3.10722 2.77051 0
M  V30 9055 H 871.053 3.78817 1.21419 0
M  V30 9056 H 867.792 6.55472 0.0601408 0
M  V30 9057 H 867.312 5.78361 1.5893 0
M  V30 9058 H 868.991 6.32762 1.34984 0
M  V30 9059 N 869.123 -0.277682 1.55134 0
M  V30 9060 C 870.053 -1.34742 1.90701 0
M  V30 9061 C 871.034 -1.51757 0.768354 0
M  V30 9062 O 872.219 -1.64879 1.02609 0
M  V30 9063 C 869.349 -2.70775 2.17481 0
M  V30 9064 C 868.303 -2.68497 3.33307 0
M  V30 9065 C 867.629 -4.08037 3.45557 0
M  V30 9066 C 868.929 -2.28178 4.69821 0
M  V30 9067 H 870.623 -1.05224 2.803 0
M  V30 9068 H 868.169 -0.504738 1.34864 0
M  V30 9069 H 870.122 -3.45719 2.40949 0
M  V30 9070 H 868.846 -3.01867 1.24676 0
M  V30 9071 H 867.505 -1.9601 3.09799 0
M  V30 9072 H 867.153 -4.36344 2.50226 0
M  V30 9073 H 866.853 -4.07409 4.23429 0
M  V30 9074 H 868.377 -4.84726 3.71312 0
M  V30 9075 H 869.791 -2.92843 4.92865 0
M  V30 9076 H 868.188 -2.3872 5.50575 0
M  V30 9077 H 869.258 -1.23308 4.6896 0
M  V30 9078 N 870.601 -1.47988 -0.541979 0
M  V30 9079 C 871.849 -1.55086 -1.29587 0
M  V30 9080 C 872.17 -0.221304 -1.9374 0
M  V30 9081 O 871.44 0.756128 -1.80719 0
M  V30 9082 H 870.02 -0.571307 -0.481266 0
M  V30 9083 H 872.682 -1.8438 -0.631675 0
M  V30 9084 H 871.778 -2.32556 -2.08144 0
M  V30 9085 N 872.079 0.78992 -1.36375 0
M  V30 9086 C 873.026 1.90254 -1.3066 0
M  V30 9087 C 873.996 1.65171 -0.17539 0
M  V30 9088 O 875.181 1.87338 -0.361824 0
M  V30 9089 C 872.321 3.27057 -1.10125 0
M  V30 9090 C 871.434 3.64215 -2.32317 0
M  V30 9091 C 870.569 4.90134 -2.04798 0
M  V30 9092 C 869.608 5.19969 -3.22953 0
M  V30 9093 N 868.745 6.37071 -2.95102 0
M  V30 9094 H 873.585 1.94474 -2.25796 0
M  V30 9095 H 871.122 0.951022 -1.12223 0
M  V30 9096 H 873.08 4.05947 -0.962453 0
M  V30 9097 H 871.71 3.22261 -0.186444 0
M  V30 9098 H 870.762 2.80454 -2.57002 0
M  V30 9099 H 872.074 3.82212 -3.20492 0
M  V30 9100 H 871.228 5.76888 -1.87845 0
M  V30 9101 H 869.967 4.74205 -1.13932 0
M  V30 9102 H 868.972 4.31699 -3.40465 0
M  V30 9103 H 870.197 5.37817 -4.14644 0
M  V30 9104 H 868.143 6.22535 -2.06848 0
M  V30 9105 H 868.06 6.55398 -3.76815 0
M  V30 9106 H 869.328 7.26808 -2.81727 0
M  V30 9107 N 873.557 1.20646 1.01402 0
M  V30 9108 C 874.806 1.01242 1.7445 0
M  V30 9109 C 875.119 -0.455732 1.90217 0
M  V30 9110 O 876.325 -0.768951 2.60383 0
M  V30 9111 C 874.781 1.76275 3.13776 0
M  V30 9112 C 874.389 3.27201 3.06013 0
M  V30 9113 C 876.133 1.65248 3.91016 0
M  V30 9114 C 874.04 3.9476 4.40362 0
M  V30 9115 H 872.97 0.375202 0.654018 0
M  V30 9116 H 875.621 1.44292 1.13367 0
M  V30 9117 H 874.003 1.26013 3.75415 0
M  V30 9118 H 875.177 3.84695 2.53665 0
M  V30 9119 H 873.492 3.38669 2.42265 0
M  V30 9120 H 876.089 2.13061 4.90417 0
M  V30 9121 H 876.432 0.609128 4.1182 0
M  V30 9122 H 876.965 2.12937 3.3601 0
M  V30 9123 H 873.704 4.99258 4.24761 0
M  V30 9124 H 873.224 3.42054 4.92706 0
M  V30 9125 H 874.903 3.99159 5.09196 0
M  V30 9126 N 875.035 -1.20752 1.01276 0
M  V30 9127 C 875.965 -2.25658 0.600064 0
M  V30 9128 C 876.946 -1.65733 -0.38298 0
M  V30 9129 O 878.131 -1.92324 -0.269256 0
M  V30 9130 C 875.261 -3.47237 -0.0663197 0
M  V30 9131 C 874.215 -4.1973 0.83731 0
M  V30 9132 C 873.541 -5.34687 0.0369102 0
M  V30 9133 C 874.841 -4.76286 2.14357 0
M  V30 9134 H 876.535 -2.60432 1.477 0
M  V30 9135 H 874.081 -1.25187 0.711634 0
M  V30 9136 H 876.034 -4.19803 -0.366563 0
M  V30 9137 H 874.758 -3.11615 -0.977944 0
M  V30 9138 H 873.417 -3.49024 1.1215 0
M  V30 9139 H 873.065 -4.95309 -0.876244 0
M  V30 9140 H 872.765 -5.84119 0.63865 0
M  V30 9141 H 874.289 -6.10059 -0.256968 0
M  V30 9142 H 875.703 -5.40691 1.90595 0
M  V30 9143 H 874.1 -5.36139 2.69583 0
M  V30 9144 H 875.17 -3.9524 2.80916 0
M  V30 9145 N 876.513 -0.788492 -1.36457 0
M  V30 9146 C 877.761 -0.359749 -1.98872 0
M  V30 9147 C 878.082 1.07197 -1.62892 0
M  V30 9148 O 877.352 1.73875 -0.902463 0
M  V30 9149 H 875.932 -0.130029 -0.735596 0
M  V30 9150 H 878.594 -1.01033 -1.66668 0
M  V30 9151 H 877.69 -0.450835 -3.08827 0
M  V30 9152 N 877.991 1.48044 -0.54043 0
M  V30 9153 C 878.901 2.33565 0.220163 0
M  V30 9154 C 879.917 1.47146 0.928659 0
M  V30 9155 O 881.093 1.80107 0.901295 0
M  V30 9156 C 878.158 3.2349 1.2472 0
M  V30 9157 C 877.219 4.25789 0.547938 0
M  V30 9158 C 876.452 5.11417 1.52605 0
M  V30 9159 O 876.675 4.99204 2.75956 0
M  V30 9160 O 875.609 5.92498 1.05972 0
M  V30 9161 H 879.435 2.99868 -0.480898 0
M  V30 9162 H 877.02 1.46332 -0.301226 0
M  V30 9163 H 878.902 3.79084 1.84047 0
M  V30 9164 H 877.577 2.59835 1.93048 0
M  V30 9165 H 876.484 3.74001 -0.0860941 0
M  V30 9166 H 877.817 4.92111 -0.0935896 0
M  V30 9167 N 879.47 0.276058 1.55163 0
M  V30 9168 C 880.718 -0.339782 1.99223 0
M  V30 9169 C 881.039 -1.56307 1.16589 0
M  V30 9170 O 880.309 -1.94225 0.25564 0
M  V30 9171 H 878.889 -0.128534 0.735859 0
M  V30 9172 H 881.551 0.381612 1.91128 0
M  V30 9173 H 880.647 -0.629 3.05696 0
M  V30 9174 N 880.948 -1.576 0.00335426 0
M  V30 9175 C 881.858 -2.12067 -1.00322 0
M  V30 9176 C 882.874 -1.06672 -1.37467 0
M  V30 9177 O 884.05 -1.38592 -1.46131 0
M  V30 9178 C 881.115 -2.61593 -2.27531 0
M  V30 9179 C 880.176 -3.81602 -1.96668 0
M  V30 9180 C 879.409 -4.28756 -3.17811 0
M  V30 9181 O 879.632 -3.75222 -4.2961 0
M  V30 9182 O 878.566 -5.20877 -3.01613 0
M  V30 9183 H 882.392 -2.98299 -0.570199 0
M  V30 9184 H 879.977 -1.47835 -0.215682 0
M  V30 9185 H 881.859 -2.93631 -3.02256 0
M  V30 9186 H 880.534 -1.78457 -2.70065 0
M  V30 9187 H 879.441 -3.54531 -1.19408 0
M  V30 9188 H 880.774 -4.65822 -1.58968 0
M  V30 9189 N 882.426 0.269451 -1.5528 0
M  V30 9190 C 883.673 1.00058 -1.76053 0
M  V30 9191 C 884.001 1.86156 -0.563592 0
M  V30 9192 O 883.256 1.90366 0.453806 0
M  V30 9193 C 883.555 1.91 -3.02082 0
M  V30 9194 C 883.221 1.20623 -4.34466 0
M  V30 9195 C 881.883 1.01165 -4.70446 0
M  V30 9196 C 884.235 0.705695 -5.164 0
M  V30 9197 C 881.563 0.303865 -5.85913 0
M  V30 9198 C 883.915 0.0114838 -6.32599 0
M  V30 9199 C 882.579 -0.19478 -6.67216 0
M  V30 9200 H 881.849 0.366138 -0.644223 0
M  V30 9201 H 884.496 0.272563 -1.8955 0
M  V30 9202 H 882.801 2.70435 -2.835 0
M  V30 9203 H 884.498 2.47698 -3.15352 0
M  V30 9204 H 881.088 1.36781 -4.06188 0
M  V30 9205 H 885.272 0.84364 -4.89077 0
M  V30 9206 H 880.528 0.133368 -6.11255 0
M  V30 9207 H 884.702 -0.384111 -6.9534 0
M  V30 9208 H 882.329 -0.745201 -7.56539 0
M  V30 9209 N 883.904 1.48273 0.534124 0
M  V30 9210 C 885.152 1.55771 1.28762 0
M  V30 9211 C 885.473 0.231575 1.9362 0
M  V30 9212 O 884.743 -0.746533 1.81118 0
M  V30 9213 H 883.323 0.573851 0.47823 0
M  V30 9214 H 885.985 1.84712 0.621888 0
M  V30 9215 H 885.081 2.33657 2.06908 0
M  V30 9216 N 885.382 -0.782676 1.36792 0
M  V30 9217 C 886.607 -1.57676 1.34733 0
M  V30 9218 C 887.032 -1.87979 -0.0675253 0
M  V30 9219 O 886.39 -1.48404 -1.04144 0
M  V30 9220 C 886.438 -2.87047 2.18257 0
M  V30 9221 O 885.542 -3.80946 1.57969 0
M  V30 9222 H 884.883 -0.478034 0.460846 0
M  V30 9223 H 887.413 -0.969578 1.80168 0
M  V30 9224 H 887.423 -3.36254 2.31079 0
M  V30 9225 H 886.098 -2.64319 3.21104 0
M  V30 9226 H 884.675 -3.39558 1.54126 0
M  V30 9227 N 886.86 -1.21182 -1.00761 0
M  V30 9228 C 888.106 -1.02898 -1.74756 0
M  V30 9229 C 888.439 0.436774 -1.89225 0
M  V30 9230 O 887.714 1.32415 -1.42466 0
M  V30 9231 C 887.997 -1.72372 -3.16164 0
M  V30 9232 C 887.85 -3.2645 -3.09435 0
M  V30 9233 C 889.169 -1.46415 -4.15031 0
M  V30 9234 H 886.288 -0.375214 -0.634337 0
M  V30 9235 H 888.93 -1.49321 -1.17487 0
M  V30 9236 H 887.08 -1.32906 -3.65059 0
M  V30 9237 H 888.752 -3.75269 -2.68274 0
M  V30 9238 H 886.995 -3.56889 -2.46603 0
M  V30 9239 H 887.666 -3.70226 -4.09435 0
M  V30 9240 H 890.142 -1.80671 -3.7483 0
M  V30 9241 H 889.018 -1.97544 -5.12121 0
M  V30 9242 H 889.279 -0.39361 -4.40344 0
M  V30 9243 N 888.338 1.20213 -1.01915 0
M  V30 9244 C 889.271 2.2181 -0.536243 0
M  V30 9245 C 890.249 1.57144 0.417689 0
M  V30 9246 O 891.433 1.85461 0.337088 0
M  V30 9247 C 888.56 3.37989 0.219303 0
M  V30 9248 C 887.606 4.2097 -0.684571 0
M  V30 9249 S 888.439 4.90216 -2.15519 0
M  V30 9250 C 889.595 6.09814 -1.40988 0
M  V30 9251 H 889.828 2.62429 -1.39709 0
M  V30 9252 H 887.361 1.30305 -0.828254 0
M  V30 9253 H 889.319 4.05335 0.649112 0
M  V30 9254 H 887.98 2.95825 1.05575 0
M  V30 9255 H 887.173 5.03897 -0.101833 0
M  V30 9256 H 886.775 3.58892 -1.05227 0
M  V30 9257 H 889.067 6.73964 -0.691243 0
M  V30 9258 H 890.01 6.72552 -2.21539 0
M  V30 9259 H 890.418 5.5709 -0.911645 0
M  V30 9260 N 889.816 0.795718 1.36037 0
M  V30 9261 C 890.726 0.199784 2.33748 0
M  V30 9262 C 891.742 -0.651436 1.61345 0
M  V30 9263 O 892.918 -0.565743 1.93291 0
M  V30 9264 C 889.983 -0.650475 3.40543 0
M  V30 9265 C 889.044 0.219974 4.28736 0
M  V30 9266 C 888.277 -0.589798 5.30431 0
M  V30 9267 O 888.5 -1.82532 5.40406 0
M  V30 9268 O 887.434 0.0136187 6.01898 0
M  V30 9269 H 891.26 1.00782 2.8649 0
M  V30 9270 H 888.845 0.557293 1.38617 0
M  V30 9271 H 890.727 -1.13512 4.05824 0
M  V30 9272 H 889.402 -1.4363 2.9009 0
M  V30 9273 H 888.309 0.751516 3.66474 0
M  V30 9274 H 889.642 0.969468 4.82558 0
M  V30 9275 N 891.294 -1.47756 0.548274 0
M  V30 9276 C 892.542 -2.02089 0.0208542 0
M  V30 9277 C 892.863 -1.42589 -1.33017 0
M  V30 9278 O 892.133 -0.597825 -1.86555 0
M  V30 9279 H 890.713 -0.746985 0.00472023 0
M  V30 9280 H 893.375 -1.81262 0.716257 0
M  V30 9281 H 892.471 -3.12012 -0.0739016 0
M  V30 9282 N 892.772 -0.284283 -1.55015 0
M  V30 9283 C 893.72 0.615091 -2.2432 0
M  V30 9284 C 894.714 1.15051 -1.24337 0
M  V30 9285 O 895.92 1.10308 -1.4224 0
M  V30 9286 H 892.295 0.216927 -0.720033 0
M  V30 9287 H 894.266 0.00783216 -2.98399 0
M  V30 9288 C 893.015 1.78355 -2.98471 0
M  V30 9289 H 892.338 1.38076 -3.752 0
M  V30 9290 H 893.778 2.38927 -3.50271 0
M  V30 9291 C 892.237 2.67757 -2.04469 0
M  V30 9292 O 892.767 3.6838 -1.60185 0
M  V30 9293 N 890.973 2.35125 -1.70776 0
M  V30 9294 H 890.52 1.53346 -2.06985 0
M  V30 9295 H 890.478 2.95212 -1.08153 0
M  V30 9296 N 894.251 1.57596 -0.0117121 0
M  V30 9297 C 895.181 2.12188 0.9746 0
M  V30 9298 C 896.162 1.03379 1.35081 0
M  V30 9299 O 897.347 1.31123 1.4325 0
M  V30 9300 C 894.477 2.63477 2.26268 0
M  V30 9301 C 893.431 3.76917 2.02774 0
M  V30 9302 C 892.757 4.14566 3.37697 0
M  V30 9303 C 894.057 5.03715 1.38089 0
M  V30 9304 H 895.751 2.9485 0.520007 0
M  V30 9305 H 893.297 1.41836 0.248685 0
M  V30 9306 H 895.25 3.00299 2.95633 0
M  V30 9307 H 893.974 1.77953 2.73862 0
M  V30 9308 H 892.633 3.40507 1.35832 0
M  V30 9309 H 892.281 3.26048 3.83016 0
M  V30 9310 H 891.981 4.91 3.22789 0
M  V30 9311 H 893.505 4.53956 4.08358 0
M  V30 9312 H 894.919 5.38233 1.97428 0
M  V30 9313 H 893.316 5.85032 1.33634 0
M  V30 9314 H 894.386 4.83624 0.351575 0
M  V30 9315 N 895.729 -0.261212 1.5542 0
M  V30 9316 C 896.676 -1.32315 1.89107 0
M  V30 9317 C 897.646 -1.48517 0.743767 0
M  V30 9318 O 898.831 -1.62733 0.996123 0
M  V30 9319 C 895.971 -2.67626 2.17877 0
M  V30 9320 C 895.084 -2.59549 3.45338 0
M  V30 9321 C 894.219 -3.87118 3.63748 0
M  V30 9322 C 893.258 -3.736 4.8486 0
M  V30 9323 N 892.395 -4.93029 4.99867 0
M  V30 9324 H 897.235 -1.02886 2.79675 0
M  V30 9325 H 894.772 -0.496812 1.38456 0
M  V30 9326 H 896.73 -3.4637 2.32559 0
M  V30 9327 H 895.36 -2.95232 1.30529 0
M  V30 9328 H 894.412 -1.72452 3.39064 0
M  V30 9329 H 895.724 -2.45465 4.34222 0
M  V30 9330 H 894.878 -4.74305 3.78312 0
M  V30 9331 H 893.617 -4.04084 2.73071 0
M  V30 9332 H 892.622 -2.84797 4.70288 0
M  V30 9333 H 893.847 -3.58143 5.76984 0
M  V30 9334 H 891.793 -5.10383 4.12123 0
M  V30 9335 H 891.71 -4.81521 5.82815 0
M  V30 9336 H 892.978 -5.81754 5.18828 0
M  V30 9337 N 897.207 -1.48554 -0.526253 0
M  V30 9338 C 898.139 -1.59446 -1.6465 0
M  V30 9339 C 899.152 -0.478525 -1.55608 0
M  V30 9340 O 900.341 -0.74953 -1.62001 0
M  V30 9341 C 897.441 -1.51164 -3.03319 0
M  V30 9342 C 896.614 -2.77861 -3.37805 0
M  V30 9343 C 895.673 -2.62982 -4.5577 0
M  V30 9344 O 894.699 -3.36876 -4.58806 0
M  V30 9345 N 895.901 -1.72847 -5.5417 0
M  V30 9346 H 898.666 -2.56055 -1.55743 0
M  V30 9347 H 896.227 -1.45325 -0.713606 0
M  V30 9348 H 898.219 -1.389 -3.80117 0
M  V30 9349 H 896.789 -0.625147 -3.06285 0
M  V30 9350 H 896.009 -3.04663 -2.50149 0
M  V30 9351 H 897.297 -3.61908 -3.57632 0
M  V30 9352 H 896.695 -1.12022 -5.54498 0
M  V30 9353 H 895.252 -1.6652 -6.3017 0
M  V30 9354 N 898.685 0.775411 -1.37205 0
M  V30 9355 C 899.595 1.91967 -1.34855 0
M  V30 9356 C 900.611 1.72214 -0.248656 0
M  V30 9357 O 901.787 1.95512 -0.483421 0
M  V30 9358 C 898.852 3.27038 -1.15096 0
M  V30 9359 C 897.913 3.5947 -2.34691 0
M  V30 9360 C 897.146 4.88097 -2.15865 0
M  V30 9361 O 897.369 5.58871 -1.14102 0
M  V30 9362 O 896.303 5.19507 -3.03967 0
M  V30 9363 H 900.129 1.969 -2.31223 0
M  V30 9364 H 897.714 0.917647 -1.17897 0
M  V30 9365 H 899.596 4.07837 -1.0605 0
M  V30 9366 H 898.271 3.22965 -0.217999 0
M  V30 9367 H 897.178 2.7892 -2.49308 0
M  V30 9368 H 898.511 3.68282 -3.26541 0
M  V30 9369 N 900.163 1.21714 1.00117 0
M  V30 9370 C 901.44 0.945391 1.71236 0
M  V30 9371 C 901.82 -0.541772 2.0403 0
M  V30 9372 O 901.168 -1.50763 1.71705 0
M  V30 9373 C 901.378 1.83444 2.96899 0
M  V30 9374 C 902.726 2.08558 3.69849 0
M  V30 9375 O 903.75 1.80824 3.06889 0
M  V30 9376 O 902.609 2.55485 4.83104 0
M  V30 9377 H 899.703 0.354834 0.747009 0
M  V30 9378 H 902.249 1.32661 1.05825 0
M  V30 9379 H 901.021 2.84075 2.69105 0
M  V30 9380 H 900.644 1.45428 3.70049 0
M  V30 9381 N 901.641 -1.19671 1.02551 0
M  V30 9382 C 902.889 -1.88894 0.71858 0
M  V30 9383 C 903.21 -1.79797 -0.754856 0
M  V30 9384 O 902.48 -1.20621 -1.54362 0
M  V30 9385 H 901.06 -0.699244 0.262806 0
M  V30 9386 H 903.722 -1.45298 1.29902 0
M  V30 9387 H 902.818 -2.95309 1.00989 0
M  V30 9388 N 903.119 -0.802921 -1.35613 0
M  V30 9389 C 904.347 -0.39393 -2.03115 0
M  V30 9390 C 904.762 0.993961 -1.60517 0
M  V30 9391 O 904.119 1.63984 -0.800973 0
M  V30 9392 C 904.17 -0.463486 -3.58516 0
M  V30 9393 O 903.891 -1.79666 -3.99565 0
M  V30 9394 C 905.392 -0.0468377 -4.43275 0
M  V30 9395 H 902.612 -0.160519 -0.651517 0
M  V30 9396 H 905.156 -1.08552 -1.73311 0
M  V30 9397 H 903.311 0.179821 -3.86982 0
M  V30 9398 H 903.725 -1.75688 -4.942 0
M  V30 9399 H 905.199 -0.146626 -5.51805 0
M  V30 9400 H 905.676 1.00741 -4.2749 0
M  V30 9401 H 906.282 -0.663158 -4.20098 0
M  V30 9402 N 904.597 1.47463 -0.556102 0
M  V30 9403 C 905.822 2.07371 -0.0344729 0
M  V30 9404 C 906.247 1.40621 1.2493 0
M  V30 9405 O 905.605 0.48082 1.74808 0
M  V30 9406 C 905.653 3.60306 0.145563 0
M  V30 9407 O 904.757 3.94299 1.20839 0
M  V30 9408 H 904.098 0.662052 -0.0508274 0
M  V30 9409 H 906.628 1.89498 -0.771469 0
M  V30 9410 H 906.638 4.06408 0.360112 0
M  V30 9411 H 905.313 4.08288 -0.792089 0
M  V30 9412 H 903.89 3.59944 0.97442 0
M  V30 9413 N 906.075 0.2925 1.54862 0
M  V30 9414 C 907.005 -0.580677 2.26165 0
M  V30 9415 C 907.986 -1.14485 1.25806 0
M  V30 9416 O 909.171 -1.17577 1.54562 0
M  V30 9417 C 906.301 -1.75668 2.99596 0
M  V30 9418 C 905.255 -1.32325 4.07031 0
M  V30 9419 C 904.581 -2.58374 4.68131 0
M  V30 9420 C 905.881 -0.460703 5.20264 0
M  V30 9421 H 907.575 0.0140075 2.99397 0
M  V30 9422 H 905.121 0.00817706 1.43998 0
M  V30 9423 H 907.074 -2.37356 3.48195 0
M  V30 9424 H 905.798 -2.37747 2.23928 0
M  V30 9425 H 904.457 -0.729477 3.59269 0
M  V30 9426 H 904.105 -3.18749 3.89112 0
M  V30 9427 H 903.805 -2.30078 5.40683 0
M  V30 9428 H 905.329 -3.2088 5.19489 0
M  V30 9429 H 906.743 -0.983037 5.64809 0
M  V30 9430 H 905.14 -0.271881 5.99484 0
M  V30 9431 H 906.21 0.516304 4.82143 0
M  V30 9432 N 907.553 -1.57587 0.0200696 0
M  V30 9433 C 908.5 -2.09667 -0.964791 0
M  V30 9434 C 909.47 -0.99664 -1.32877 0
M  V30 9435 O 910.655 -1.2703 -1.42366 0
M  V30 9436 C 907.795 -2.62101 -2.24493 0
M  V30 9437 C 906.908 -3.8608 -1.93821 0
M  V30 9438 C 906.043 -4.26939 -3.16064 0
M  V30 9439 C 905.082 -5.43701 -2.81169 0
M  V30 9440 N 904.219 -5.79759 -3.9601 0
M  V30 9441 H 909.059 -2.93538 -0.513751 0
M  V30 9442 H 906.596 -1.45096 -0.242 0
M  V30 9443 H 908.554 -2.90587 -2.99358 0
M  V30 9444 H 907.184 -1.81074 -2.6723 0
M  V30 9445 H 906.236 -3.64378 -1.09237 0
M  V30 9446 H 907.548 -4.71028 -1.64115 0
M  V30 9447 H 906.702 -4.56814 -3.99257 0
M  V30 9448 H 905.441 -3.40739 -3.48924 0
M  V30 9449 H 904.446 -5.13529 -1.96387 0
M  V30 9450 H 905.671 -6.31593 -2.49535 0
M  V30 9451 H 903.617 -4.96516 -4.28729 0
M  V30 9452 H 903.534 -6.59327 -3.69896 0
M  V30 9453 H 904.802 -6.14235 -4.79933 0
M  V30 9454 N 909.032 0.252966 -1.55557 0
M  V30 9455 C 910.278 0.983306 -1.77367 0
M  V30 9456 C 910.611 1.85203 -0.584258 0
M  V30 9457 O 909.886 1.89963 0.417644 0
M  V30 9458 C 910.169 1.84896 -3.09007 0
M  V30 9459 C 910.022 1.00883 -4.38341 0
M  V30 9460 C 911.341 2.83254 -3.36831 0
M  V30 9461 H 908.46 0.356056 -0.645286 0
M  V30 9462 H 911.102 0.254232 -1.88291 0
M  V30 9463 H 909.252 2.47058 -2.99825 0
M  V30 9464 H 910.924 0.40638 -4.59507 0
M  V30 9465 H 909.167 0.31297 -4.3267 0
M  V30 9466 H 909.838 1.64818 -5.2682 0
M  V30 9467 H 912.314 2.31228 -3.45937 0
M  V30 9468 H 911.19 3.40949 -4.30169 0
M  V30 9469 H 911.451 3.59407 -2.57447 0
M  V30 9470 N 910.51 1.48831 0.518367 0
M  V30 9471 C 911.473 1.63721 1.604 0
M  V30 9472 C 912.473 0.509857 1.52503 0
M  V30 9473 O 913.663 0.775922 1.55965 0
M  V30 9474 C 910.795 1.61831 3.00039 0
M  V30 9475 H 911.988 2.60534 1.48533 0
M  V30 9476 H 909.541 1.37602 0.741309 0
M  V30 9477 H 910.276 0.665387 3.17401 0
M  V30 9478 H 910.061 2.43686 3.0718 0
M  V30 9479 H 911.551 1.75467 3.78947 0
M  V30 9480 N 911.988 -0.768124 1.37614 0
M  V30 9481 C 913.234 -1.52907 1.33219 0
M  V30 9482 C 913.567 -1.94026 -0.0821218 0
M  V30 9483 O 912.842 -1.64345 -1.04023 0
M  V30 9484 C 913.125 -2.79164 2.27463 0
M  V30 9485 C 912.978 -2.44276 3.7769 0
M  V30 9486 C 914.297 -3.81115 2.20089 0
M  V30 9487 H 911.416 -0.554712 0.485246 0
M  V30 9488 H 914.058 -0.880911 1.68345 0
M  V30 9489 H 912.208 -3.34472 1.97639 0
M  V30 9490 H 913.88 -1.94855 4.18126 0
M  V30 9491 H 912.123 -1.76925 3.96081 0
M  V30 9492 H 912.794 -3.34544 4.39072 0
M  V30 9493 H 915.27 -3.35311 2.46386 0
M  V30 9494 H 914.146 -4.67174 2.88166 0
M  V30 9495 H 914.407 -4.25644 1.19498 0
M  V30 9496 N 913.466 -1.22244 -0.994698 0
M  V30 9497 C 914.413 -0.990906 -2.08446 0
M  V30 9498 C 915.383 0.086737 -1.65873 0
M  V30 9499 O 916.568 -0.0624882 -1.90698 0
M  V30 9500 C 913.708 -0.572813 -3.40313 0
M  V30 9501 C 912.821 -1.72103 -3.96238 0
M  V30 9502 C 911.956 -1.2511 -5.16257 0
M  V30 9503 C 910.995 -2.37098 -5.64315 0
M  V30 9504 N 910.132 -1.91164 -6.75574 0
M  V30 9505 H 914.972 -1.92377 -2.27585 0
M  V30 9506 H 912.509 -0.958576 -1.11578 0
M  V30 9507 H 914.467 -0.311594 -4.16035 0
M  V30 9508 H 913.097 0.323044 -3.21179 0
M  V30 9509 H 912.149 -2.09662 -3.17405 0
M  V30 9510 H 913.461 -2.56347 -4.27888 0
M  V30 9511 H 912.615 -0.947152 -5.99261 0
M  V30 9512 H 911.354 -0.378836 -4.86226 0
M  V30 9513 H 910.359 -2.68283 -4.799 0
M  V30 9514 H 911.584 -3.24837 -5.96371 0
M  V30 9515 H 909.53 -1.06298 -6.47331 0
M  V30 9516 H 909.447 -2.68975 -7.06533 0
M  V30 9517 H 910.715 -1.63833 -7.62088 0
M  V30 9518 N 914.944 1.19125 -1.03184 0
M  V30 9519 C 916.172 1.92838 -0.74975 0
M  V30 9520 C 916.587 1.75667 0.691851 0
M  V30 9521 O 915.944 1.0805 1.47076 0
M  V30 9522 C 915.995 3.44509 -1.09525 0
M  V30 9523 O 915.716 3.6113 -2.48025 0
M  V30 9524 C 917.217 4.35338 -0.836397 0
M  V30 9525 H 914.437 0.61246 -0.274105 0
M  V30 9526 H 916.981 1.5118 -1.37712 0
M  V30 9527 H 915.136 3.83988 -0.513006 0
M  V30 9528 H 915.55 4.54959 -2.60984 0
M  V30 9529 H 917.024 5.4035 -1.12808 0
M  V30 9530 H 917.501 4.38602 0.229102 0
M  V30 9531 H 918.107 4.01544 -1.40152 0
M  V30 9532 N 916.422 0.810101 1.35185 0
M  V30 9533 C 917.355 0.168416 2.27578 0
M  V30 9534 C 918.333 -0.667664 1.4826 0
M  V30 9535 O 919.517 -0.634184 1.77512 0
M  V30 9536 C 916.644 -0.765994 3.29925 0
M  V30 9537 C 915.69 -0.00908802 4.26499 0
M  V30 9538 S 916.523 1.32936 5.18737 0
M  V30 9539 C 917.679 0.399485 6.24624 0
M  V30 9540 H 917.912 0.951753 2.81654 0
M  V30 9541 H 915.445 0.60534 1.42039 0
M  V30 9542 H 917.403 -1.2996 3.89385 0
M  V30 9543 H 916.064 -1.52275 2.7472 0
M  V30 9544 H 915.257 -0.718919 4.98846 0
M  V30 9545 H 914.859 0.454663 3.71226 0
M  V30 9546 H 917.151 -0.413904 6.76234 0
M  V30 9547 H 918.094 1.09225 6.99625 0
M  V30 9548 H 918.502 -0.00638358 5.645 0
M  V30 9549 N 917.9 -1.47166 0.563914 0
M  V30 9550 C 918.847 -2.30097 -0.180013 0
M  V30 9551 C 919.817 -1.39473 -0.902019 0
M  V30 9552 O 921.002 -1.68432 -0.896396 0
M  V30 9553 C 918.142 -3.23573 -1.19978 0
M  V30 9554 C 917.255 -4.2929 -0.483149 0
M  V30 9555 C 916.39 -5.0991 -1.48879 0
M  V30 9556 C 915.429 -6.07395 -0.757513 0
M  V30 9557 N 914.566 -6.8095 -1.71031 0
M  V30 9558 H 919.406 -2.93189 0.53329 0
M  V30 9559 H 916.943 -1.4451 0.274814 0
M  V30 9560 H 918.901 -3.76196 -1.80368 0
M  V30 9561 H 917.531 -2.6233 -1.88103 0
M  V30 9562 H 916.583 -3.79671 0.235414 0
M  V30 9563 H 917.895 -4.9872 0.0894075 0
M  V30 9564 H 917.049 -5.66717 -2.16603 0
M  V30 9565 H 915.788 -4.40397 -2.09527 0
M  V30 9566 H 914.793 -5.4976 -0.0663841 0
M  V30 9567 H 916.018 -6.78919 -0.156685 0
M  V30 9568 H 913.964 -6.14162 -2.30524 0
M  V30 9569 H 913.881 -7.46574 -1.19007 0
M  V30 9570 H 915.149 -7.42326 -2.37849 0
M  V30 9571 N 919.378 -0.300708 -1.54705 0
M  V30 9572 C 920.308 0.568675 -2.26469 0
M  V30 9573 C 921.289 1.13817 -1.26411 0
M  V30 9574 O 922.474 1.16756 -1.55183 0
M  V30 9575 C 919.604 1.74077 -3.00524 0
M  V30 9576 C 918.558 1.30165 -4.07727 0
M  V30 9577 C 917.884 2.55888 -4.69495 0
M  V30 9578 C 919.184 0.433106 -5.20501 0
M  V30 9579 H 920.878 -0.0298851 -2.99385 0
M  V30 9580 H 918.424 -0.0158135 -1.43991 0
M  V30 9581 H 920.377 2.35506 -3.49449 0
M  V30 9582 H 919.101 2.36556 -2.25186 0
M  V30 9583 H 917.76 0.710414 -3.59651 0
M  V30 9584 H 917.408 3.16681 -3.90797 0
M  V30 9585 H 917.108 2.27207 -5.41895 0
M  V30 9586 H 918.632 3.18121 -5.21183 0
M  V30 9587 H 920.046 0.95307 -5.65322 0
M  V30 9588 H 918.443 0.240085 -5.9962 0
M  V30 9589 H 919.513 -0.541866 -4.81863 0
M  V30 9590 N 920.856 1.57574 -0.0284266 0
M  V30 9591 C 922.133 1.83064 0.688979 0
M  V30 9592 C 922.513 0.91219 1.90374 0
M  V30 9593 O 921.861 -0.0323672 2.28477 0
M  V30 9594 C 922.071 3.32262 1.06785 0
M  V30 9595 C 923.419 3.98717 1.45978 0
M  V30 9596 O 924.443 3.36753 1.16085 0
M  V30 9597 O 923.302 5.07927 2.01673 0
M  V30 9598 H 920.396 0.7548 0.337944 0
M  V30 9599 H 922.942 1.69607 -0.0560555 0
M  V30 9600 H 921.714 3.90772 0.203235 0
M  V30 9601 H 921.337 3.50823 1.87107 0
M  V30 9602 N 922.334 -0.244713 1.55689 0
M  V30 9603 C 923.282 -1.32276 1.91326 0
M  V30 9604 C 924.276 -1.49714 0.792589 0
M  V30 9605 O 925.482 -1.51163 0.977227 0
M  V30 9606 H 921.857 -0.442979 0.607679 0
M  V30 9607 H 923.828 -0.99486 2.81327 0
M  V30 9608 C 922.577 -2.67077 2.22633 0
M  V30 9609 H 921.9 -2.54458 3.08368 0
M  V30 9610 H 923.34 -3.41378 2.5147 0
M  V30 9611 C 921.799 -3.20335 1.04342 0
M  V30 9612 O 922.329 -4.00633 0.292543 0
M  V30 9613 N 920.535 -2.78392 0.833457 0
M  V30 9614 H 920.082 -2.13202 1.44577 0
M  V30 9615 H 920.04 -3.1437 0.0436713 0
M  V30 9616 N 923.813 -1.49104 -0.510467 0
M  V30 9617 C 925.038 -1.62068 -1.29417 0
M  V30 9618 C 925.463 -0.288432 -1.85875 0
M  V30 9619 O 924.821 0.742667 -1.65391 0
M  V30 9620 C 924.869 -2.68506 -2.40701 0
M  V30 9621 O 923.973 -2.27021 -3.4429 0
M  V30 9622 H 923.314 -0.542778 -0.382476 0
M  V30 9623 H 925.844 -1.95228 -0.612154 0
M  V30 9624 H 925.854 -2.90383 -2.86604 0
M  V30 9625 H 924.529 -3.65216 -1.98973 0
M  V30 9626 H 923.106 -2.15436 -3.04371 0
M  V30 9627 N 925.291 0.760815 -1.38019 0
M  V30 9628 C 926.516 1.55513 -1.37224 0
M  V30 9629 C 926.941 1.88062 0.037611 0
M  V30 9630 O 926.299 1.50042 1.0177 0
M  V30 9631 C 926.347 2.83539 -2.22796 0
M  V30 9632 O 925.451 3.78384 -1.64009 0
M  V30 9633 H 924.792 0.470642 -0.468393 0
M  V30 9634 H 927.322 0.940792 -1.81687 0
M  V30 9635 H 927.332 3.32535 -2.36399 0
M  V30 9636 H 926.007 2.59178 -3.25269 0
M  V30 9637 H 924.584 3.37063 -1.59508 0
M  V30 9638 N 926.769 1.22769 0.988202 0
M  V30 9639 C 927.701 0.959757 2.08138 0
M  V30 9640 C 928.714 -0.0633787 1.62677 0
M  V30 9641 O 929.903 0.171203 1.77677 0
M  V30 9642 C 927.003 0.422724 3.36253 0
M  V30 9643 C 926.176 1.50419 4.10722 0
M  V30 9644 C 925.235 0.973407 5.17118 0
M  V30 9645 O 924.261 1.66066 5.44436 0
M  V30 9646 N 925.463 -0.202787 5.80146 0
M  V30 9647 H 928.228 1.9009 2.31702 0
M  V30 9648 H 925.789 1.13522 1.15431 0
M  V30 9649 H 927.781 0.0528514 4.04665 0
M  V30 9650 H 926.351 -0.423642 3.09716 0
M  V30 9651 H 925.571 2.04718 3.36874 0
M  V30 9652 H 926.859 2.23169 4.57245 0
M  V30 9653 H 926.257 -0.777856 5.60327 0
M  V30 9654 H 924.814 -0.513998 6.4977 0
M  V30 9655 N 928.247 -1.18576 1.03814 0
M  V30 9656 C 929.663 -1.4051 0.756909 0
M  V30 9657 C 929.863 -1.9057 -0.654631 0
M  V30 9658 O 928.919 -2.0884 -1.41922 0
M  V30 9659 C 930.232 -2.4081 1.80087 0
M  V30 9660 C 931.78 -2.54541 1.82148 0
M  V30 9661 C 932.255 -3.58102 2.85529 0
M  V30 9662 N 933.746 -3.65607 2.84404 0
M  V30 9663 C 934.481 -4.45458 3.61047 0
M  V30 9664 N 933.977 -5.28937 4.47434 0
M  V30 9665 N 935.77 -4.40196 3.49548 0
M  V30 9666 H 927.921 -0.844075 1.94908 0
M  V30 9667 H 930.184 -0.433287 0.843188 0
M  V30 9668 H 929.89 -2.1107 2.81322 0
M  V30 9669 H 929.764 -3.4012 1.63089 0
M  V30 9670 H 932.151 -2.83598 0.815855 0
M  V30 9671 H 932.232 -1.55352 2.03223 0
M  V30 9672 H 931.876 -3.29786 3.86269 0
M  V30 9673 H 931.806 -4.56963 2.6171 0
M  V30 9674 H 934.297 -3.05994 2.21756 0
M  V30 9675 H 934.61 -5.8701 5.02632 0
M  V30 9676 H 932.955 -5.28366 4.51503 0
M  V30 9677 H 936.146 -3.74026 2.81464 0
M  V30 9678 H 936.319 -5.02186 4.09528 0
M  V30 9679 N 929.725 -0.817259 -1.34754 0
M  V30 9680 C 930.635 -0.236946 -2.334 0
M  V30 9681 C 931.651 0.625685 -1.62361 0
M  V30 9682 O 932.827 0.534921 -1.94166 0
M  V30 9683 C 929.892 0.596215 -3.41535 0
M  V30 9684 C 928.953 -0.288154 -4.28332 0
M  V30 9685 C 928.186 0.505337 -5.31302 0
M  V30 9686 O 928.409 1.73912 -5.43241 0
M  V30 9687 O 927.343 -0.109374 -6.01801 0
M  V30 9688 H 931.169 -1.05327 -2.84851 0
M  V30 9689 H 928.754 -0.579275 -1.37713 0
M  V30 9690 H 930.636 1.07041 -4.07578 0
M  V30 9691 H 929.311 1.38997 -2.92338 0
M  V30 9692 H 928.218 -0.809724 -3.65232 0
M  V30 9693 H 929.551 -1.04612 -4.80955 0
M  V30 9694 N 931.203 1.46865 -0.571711 0
M  V30 9695 C 932.452 2.01636 -0.050881 0
M  V30 9696 C 932.765 1.45001 1.31279 0
M  V30 9697 O 933.971 1.91523 1.92435 0
M  V30 9698 C 932.427 3.59877 -0.0404114 0
M  V30 9699 C 932.035 4.25506 -1.40172 0
M  V30 9700 C 933.779 4.22346 0.42705 0
M  V30 9701 C 931.686 5.75795 -1.34958 0
M  V30 9702 H 930.616 0.753846 -0.0152514 0
M  V30 9703 H 933.267 1.68711 -0.721723 0
M  V30 9704 H 931.649 3.89829 0.696374 0
M  V30 9705 H 932.823 4.07178 -2.15737 0
M  V30 9706 H 931.138 3.75086 -1.8083 0
M  V30 9707 H 933.735 5.32499 0.484688 0
M  V30 9708 H 934.078 3.9052 1.44222 0
M  V30 9709 H 934.611 3.9698 -0.255326 0
M  V30 9710 H 931.35 6.12265 -2.3412 0
M  V30 9711 H 930.87 5.96419 -0.635962 0
M  V30 9712 H 932.549 6.38294 -1.05779 0
M  V30 9713 N 932.681 0.308908 1.54543 0
M  V30 9714 C 933.591 -0.572939 2.27496 0
M  V30 9715 C 934.607 -1.14171 1.31305 0
M  V30 9716 O 935.783 -1.16481 1.64299 0
M  V30 9717 C 932.848 -1.72483 3.0075 0
M  V30 9718 C 931.909 -1.18934 4.12496 0
M  V30 9719 C 931.142 -2.28634 4.82247 0
M  V30 9720 O 931.365 -3.48691 4.5141 0
M  V30 9721 O 930.299 -1.94879 5.69478 0
M  V30 9722 H 934.125 0.0190877 3.03694 0
M  V30 9723 H 931.71 0.0750943 1.49211 0
M  V30 9724 H 933.592 -2.39578 3.46671 0
M  V30 9725 H 932.267 -2.30332 2.2744 0
M  V30 9726 H 931.174 -0.483904 3.70957 0
M  V30 9727 H 932.507 -0.656185 4.87806 0
M  V30 9728 N 934.159 -1.57557 0.0367827 0
M  V30 9729 C 935.069 -2.14148 -0.958017 0
M  V30 9730 C 936.085 -1.09564 -1.35173 0
M  V30 9731 O 937.261 -1.4166 -1.43158 0
M  V30 9732 C 934.326 -2.6636 -2.21931 0
M  V30 9733 C 933.387 -3.85688 -1.8853 0
M  V30 9734 C 932.62 -4.35401 -3.08645 0
M  V30 9735 O 932.843 -3.8425 -4.21554 0
M  V30 9736 O 931.777 -5.27158 -2.90497 0
M  V30 9737 H 935.603 -2.99442 -0.506797 0
M  V30 9738 H 933.188 -1.48259 -0.184275 0
M  V30 9739 H 935.07 -2.99976 -2.9596 0
M  V30 9740 H 933.745 -1.84145 -2.66219 0
M  V30 9741 H 932.652 -3.56985 -1.11861 0
M  V30 9742 H 933.985 -4.69089 -1.49052 0
M  V30 9743 N 935.637 0.236453 -1.55816 0
M  V30 9744 C 936.884 0.963012 -1.78136 0
M  V30 9745 C 937.212 1.84918 -0.602952 0
M  V30 9746 O 936.467 1.91285 0.413325 0
M  V30 9747 C 936.766 1.84549 -3.06066 0
M  V30 9748 C 936.432 1.11381 -4.36927 0
M  V30 9749 C 935.094 0.911635 -4.72486 0
M  V30 9750 C 937.446 0.596 -5.17781 0
M  V30 9751 C 934.774 0.179515 -5.86425 0
M  V30 9752 C 937.126 -0.122702 -6.32481 0
M  V30 9753 C 935.79 -0.336263 -6.66652 0
M  V30 9754 H 935.06 0.352391 -0.651845 0
M  V30 9755 H 937.707 0.232295 -1.90086 0
M  V30 9756 H 936.012 2.6436 -2.89173 0
M  V30 9757 H 937.709 2.40953 -3.20535 0
M  V30 9758 H 934.299 1.28134 -4.08998 0
M  V30 9759 H 938.483 0.73971 -4.90757 0
M  V30 9760 H 933.739 0.00368224 -6.114 0
M  V30 9761 H 937.913 -0.531516 -6.94369 0
M  V30 9762 H 935.54 -0.905507 -7.54788 0
M  V30 9763 N 937.115 1.49373 0.502552 0
M  V30 9764 C 938.045 1.68839 1.61294 0
M  V30 9765 C 939.026 0.537096 1.61398 0
M  V30 9766 O 940.211 0.772764 1.78163 0
M  V30 9767 C 937.341 1.75347 2.99784 0
M  V30 9768 C 936.295 2.90251 3.14545 0
M  V30 9769 C 935.621 2.8187 4.54371 0
M  V30 9770 C 936.921 4.31207 2.94717 0
M  V30 9771 H 938.615 2.61803 1.45257 0
M  V30 9772 H 936.161 1.25987 0.697371 0
M  V30 9773 H 938.114 1.87552 3.77362 0
M  V30 9774 H 936.838 0.789814 3.16906 0
M  V30 9775 H 935.497 2.77646 2.39392 0
M  V30 9776 H 935.145 1.83416 4.68367 0
M  V30 9777 H 934.845 3.5899 4.65188 0
M  V30 9778 H 936.369 2.96081 5.34012 0
M  V30 9779 H 937.783 4.44501 3.62065 0
M  V30 9780 H 936.18 5.09536 3.17007 0
M  V30 9781 H 937.25 4.45759 1.90857 0
M  V30 9782 N 938.594 -0.753485 1.38421 0
M  V30 9783 C 939.819 -1.54783 1.38047 0
M  V30 9784 C 940.244 -1.8808 -0.0276371 0
M  V30 9785 O 939.602 -1.5058 -1.00973 0
M  V30 9786 C 939.65 -2.82353 2.24297 0
M  V30 9787 O 938.754 -3.77509 1.66014 0
M  V30 9788 H 938.095 -0.468151 0.470883 0
M  V30 9789 H 940.625 -0.931144 1.82184 0
M  V30 9790 H 940.635 -3.31277 2.38159 0
M  V30 9791 H 939.31 -2.57449 3.26639 0
M  V30 9792 H 937.887 -3.36212 1.61294 0
M  V30 9793 N 940.072 -1.23292 -0.981677 0
M  V30 9794 C 940.982 -1.02964 -2.10798 0
M  V30 9795 C 941.998 0.0254674 -1.73981 0
M  V30 9796 O 943.174 -0.169706 -2.00684 0
M  V30 9797 C 940.239 -0.621934 -3.41076 0
M  V30 9798 C 939.3 -1.75194 -3.91926 0
M  V30 9799 C 938.533 -1.36359 -5.15986 0
M  V30 9800 O 938.756 -0.247265 -5.69864 0
M  V30 9801 O 937.69 -2.18421 -5.60871 0
M  V30 9802 H 941.516 -1.97354 -2.30836 0
M  V30 9803 H 939.101 -1.01986 -1.09175 0
M  V30 9804 H 940.983 -0.405446 -4.19445 0
M  V30 9805 H 939.658 0.29299 -3.22371 0
M  V30 9806 H 938.565 -2.02305 -3.1468 0
M  V30 9807 H 939.898 -2.64513 -4.15083 0
M  V30 9808 N 941.55 1.18024 -1.04442 0
M  V30 9809 C 942.513 2.19992 -0.643136 0
M  V30 9810 C 943.513 1.57949 0.301444 0
M  V30 9811 O 944.703 1.73986 0.0863341 0
M  V30 9812 C 941.835 3.40853 0.0565208 0
M  V30 9813 H 943.028 2.57008 -1.54554 0
M  V30 9814 H 940.581 1.31974 -0.837408 0
M  V30 9815 H 941.316 3.09373 0.972553 0
M  V30 9816 H 941.101 3.87128 -0.622439 0
M  V30 9817 H 942.591 4.16344 0.323652 0
M  V30 9818 N 943.028 0.824394 1.34319 0
M  V30 9819 C 943.991 0.252696 2.27803 0
M  V30 9820 C 944.991 -0.570254 1.50349 0
M  V30 9821 O 946.181 -0.386145 1.69866 0
M  V30 9822 C 943.313 -0.645575 3.34731 0
M  V30 9823 H 944.506 1.07742 2.79878 0
M  V30 9824 H 942.059 0.596367 1.44475 0
M  V30 9825 H 942.794 -1.4933 2.87873 0
M  V30 9826 H 942.579 -0.0569478 3.92059 0
M  V30 9827 H 944.069 -1.03933 4.0446 0
M  V30 9828 N 944.506 -1.46559 0.579492 0
M  V30 9829 C 945.746 -2.04292 0.0664837 0
M  V30 9830 C 946.11 -1.44161 -1.26814 0
M  V30 9831 O 947.311 -1.93074 -1.87018 0
M  V30 9832 C 945.582 -3.574 -0.00167254 0
M  V30 9833 S 947.141 -4.36408 -0.457572 0
M  V30 9834 H 943.959 -0.710092 0.035913 0
M  V30 9835 H 946.561 -1.79644 0.771263 0
M  V30 9836 H 945.265 -3.98683 0.973666 0
M  V30 9837 H 944.796 -3.8658 -0.729321 0
M  V30 9838 H 946.811 -4.65695 -1.71296 0
M  V30 9839 N 945.984 -0.3171 -1.54377 0
M  V30 9840 C 946.917 0.594178 -2.20329 0
M  V30 9841 C 947.895 1.12067 -1.17812 0
M  V30 9842 O 949.079 1.18588 -1.46524 0
M  V30 9843 C 946.206 1.81463 -2.85987 0
M  V30 9844 C 945.252 1.41996 -4.02168 0
M  V30 9845 S 946.085 0.462159 -5.33502 0
M  V30 9846 C 947.241 1.69004 -6.02651 0
M  V30 9847 H 947.474 0.0339261 -2.97281 0
M  V30 9848 H 945.007 -0.101196 -1.54068 0
M  V30 9849 H 946.965 2.51494 -3.2444 0
M  V30 9850 H 945.626 2.34606 -2.08851 0
M  V30 9851 H 944.819 2.32921 -4.4695 0
M  V30 9852 H 944.421 0.799423 -3.65356 0
M  V30 9853 H 946.713 2.62839 -6.24437 0
M  V30 9854 H 947.656 1.28451 -6.96352 0
M  V30 9855 H 948.064 1.87408 -5.32483 0
M  V30 9856 N 947.462 1.57535 -0.0451378 0
M  V30 9857 C 948.409 2.11176 0.931313 0
M  V30 9858 C 949.379 1.01765 1.31275 0
M  V30 9859 O 950.564 1.29279 1.40327 0
M  V30 9860 C 947.704 2.65639 2.20295 0
M  V30 9861 C 946.817 3.89114 1.87654 0
M  V30 9862 C 945.952 4.31914 3.09232 0
M  V30 9863 C 944.991 5.48105 2.72484 0
M  V30 9864 N 944.128 5.85986 3.86736 0
M  V30 9865 H 948.968 2.94318 0.466986 0
M  V30 9866 H 946.505 1.45462 0.218886 0
M  V30 9867 H 948.463 2.95312 2.94697 0
M  V30 9868 H 947.093 1.85303 2.64316 0
M  V30 9869 H 946.145 3.6607 1.03427 0
M  V30 9870 H 947.457 4.7358 1.56601 0
M  V30 9871 H 946.611 4.63108 3.91939 0
M  V30 9872 H 945.35 3.46247 3.43459 0
M  V30 9873 H 944.355 5.16589 1.88192 0
M  V30 9874 H 945.58 6.35482 2.39455 0
M  V30 9875 H 943.526 5.03273 4.20775 0
M  V30 9876 H 943.443 6.65129 3.5936 0
M  V30 9877 H 944.711 6.21793 4.701 0
M  V30 9878 N 948.94 -0.228186 1.55939 0
M  V30 9879 C 950.217 -0.977492 1.69424 0
M  V30 9880 C 950.597 -2.02674 0.590479 0
M  V30 9881 O 949.945 -2.2491 -0.403467 0
M  V30 9882 C 950.155 -1.59394 3.10475 0
M  V30 9883 C 951.503 -2.08871 3.69673 0
M  V30 9884 O 952.527 -1.693 3.13394 0
M  V30 9885 O 951.386 -2.81584 4.68372 0
M  V30 9886 H 948.48 -0.456185 0.6898 0
M  V30 9887 H 951.026 -0.220492 1.68261 0
M  V30 9888 H 949.798 -0.835971 3.82266 0
M  V30 9889 H 949.421 -2.41665 3.15727 0
M  V30 9890 N 950.418 -1.49637 -0.494624 0
M  V30 9891 C 951.665 -1.59445 -1.24834 0
M  V30 9892 C 951.993 -0.284028 -1.92415 0
M  V30 9893 O 951.248 0.728519 -1.81634 0
M  V30 9894 C 951.547 -2.70749 -2.33302 0
M  V30 9895 C 951.213 -4.12034 -1.83135 0
M  V30 9896 C 949.875 -4.50482 -1.69173 0
M  V30 9897 C 952.227 -5.00432 -1.4566 0
M  V30 9898 C 949.555 -5.75093 -1.16124 0
M  V30 9899 C 951.907 -6.25568 -0.940608 0
M  V30 9900 C 950.571 -6.62839 -0.787432 0
M  V30 9901 H 949.841 -0.583451 -0.456799 0
M  V30 9902 H 952.488 -1.8349 -0.548044 0
M  V30 9903 H 950.793 -2.407 -3.09145 0
M  V30 9904 H 952.49 -2.75546 -2.91334 0
M  V30 9905 H 949.08 -3.8169 -1.94964 0
M  V30 9906 H 953.264 -4.71379 -1.55291 0
M  V30 9907 H 948.52 -6.02665 -1.02982 0
M  V30 9908 H 952.694 -6.93439 -0.641467 0
M  V30 9909 H 950.321 -7.59279 -0.374191 0
M  V30 9910 N 951.896 0.746133 -1.38819 0
M  V30 9911 C 953.121 1.54049 -1.38866 0
M  V30 9912 C 953.546 1.88092 0.0176624 0
M  V30 9913 O 952.904 1.51113 1.00173 0
M  V30 9914 C 952.952 2.8116 -2.25791 0
M  V30 9915 O 952.056 3.76623 -1.68014 0
M  V30 9916 H 951.397 0.465648 -0.473359 0
M  V30 9917 H 953.927 0.921469 -1.82675 0
M  V30 9918 H 953.937 3.30009 -2.39913 0
M  V30 9919 H 952.612 2.55713 -3.27999 0
M  V30 9920 H 951.189 3.35352 -1.63074 0
M  V30 9921 N 953.375 1.23811 0.975125 0
M  V30 9922 C 954.325 0.991036 2.05335 0
M  V30 9923 C 955.309 -0.0648793 1.60769 0
M  V30 9924 O 956.501 0.147917 1.76381 0
M  V30 9925 C 953.63 0.589822 3.38195 0
M  V30 9926 C 952.716 1.68142 3.89344 0
M  V30 9927 N 953.107 2.91274 4.13513 0
M  V30 9928 C 951.405 1.55722 4.17931 0
M  V30 9929 C 952.106 3.61987 4.55347 0
M  V30 9930 N 951.082 2.8952 4.60086 0
M  V30 9931 H 954.884 1.92612 2.21986 0
M  V30 9932 H 952.398 1.13827 1.15832 0
M  V30 9933 H 954.395 0.394075 4.15033 0
M  V30 9934 H 953.055 -0.338157 3.22934 0
M  V30 9935 H 954.066 3.27528 4.01181 0
M  V30 9936 H 950.743 0.696732 4.11645 0
M  V30 9937 H 952.133 4.67572 4.8252 0
M  V30 9938 N 954.853 -1.17469 1.05066 0
M  V30 9939 C 956.264 -1.69334 0.786304 0
M  V30 9940 C 956.615 -1.83604 -0.691671 0
M  V30 9941 O 955.74 -1.52269 -1.53763 0
M  V30 9942 C 956.335 -3.07572 1.42074 0
M  V30 9943 C 954.894 -3.56609 1.20446 0
M  V30 9944 C 954.041 -2.329 1.50508 0
M  V30 9945 H 956.992 -1.02003 1.21577 0
M  V30 9946 H 957.013 -3.71352 0.829334 0
M  V30 9947 H 956.525 -2.97154 2.49642 0
M  V30 9948 H 954.626 -3.72306 0.147968 0
M  V30 9949 H 954.739 -4.39446 1.90852 0
M  V30 9950 H 953.103 -2.37305 0.925124 0
M  V30 9951 H 953.886 -2.25093 2.59207 0
M  V30 9952 N 956.331 -0.831506 -1.3388 0
M  V30 9953 C 957.279 -0.247896 -2.31275 0
M  V30 9954 C 958.273 0.616083 -1.578 0
M  V30 9955 O 959.479 0.506465 -1.72728 0
M  V30 9956 H 955.854 -0.0614293 -0.749487 0
M  V30 9957 H 957.825 -1.08401 -2.78014 0
M  V30 9958 C 956.574 0.568434 -3.43022 0
M  V30 9959 H 955.897 -0.0870654 -3.99705 0
M  V30 9960 H 957.337 0.942751 -4.13386 0
M  V30 9961 C 955.796 1.74431 -2.88228 0
M  V30 9962 O 956.326 2.84278 -2.83811 0
M  V30 9963 N 954.532 1.56382 -2.44935 0
M  V30 9964 H 954.079 0.670255 -2.48727 0
M  V30 9965 H 954.037 2.35208 -2.08625 0
M  V30 9966 N 957.809 1.4625 -0.587256 0
M  V30 9967 C 959.055 2.02662 -0.0746851 0
M  V30 9968 C 959.388 1.45723 1.28368 0
M  V30 9969 O 958.663 0.624062 1.84216 0
M  V30 9970 C 958.946 3.60097 -0.0138109 0
M  V30 9971 C 958.799 4.27412 -1.4014 0
M  V30 9972 C 960.118 4.34744 0.684491 0
M  V30 9973 H 957.237 0.736444 -0.0286144 0
M  V30 9974 H 959.879 1.74341 -0.755328 0
M  V30 9975 H 958.029 3.84357 0.56583 0
M  V30 9976 H 959.701 4.14401 -2.02656 0
M  V30 9977 H 957.944 3.86598 -1.96785 0
M  V30 9978 H 958.615 5.362 -1.31124 0
M  V30 9979 H 961.091 4.15657 0.192023 0
M  V30 9980 H 959.967 5.44468 0.696127 0
M  V30 9981 H 960.228 4.06132 1.74669 0
M  V30 9982 N 959.287 0.325282 1.54207 0
M  V30 9983 C 960.536 -0.27768 1.99779 0
M  V30 9984 C 960.849 -1.5311 1.21723 0
M  V30 9985 O 962.055 -2.21017 1.57682 0
M  V30 9986 C 960.511 -0.545329 3.55745 0
M  V30 9987 C 960.119 0.691143 4.42637 0
M  V30 9988 C 961.863 -1.10815 4.09781 0
M  V30 9989 C 959.77 0.395302 5.90077 0
M  V30 9990 H 958.7 -0.107536 0.746292 0
M  V30 9991 H 961.351 0.437773 1.78202 0
M  V30 9992 H 959.733 -1.32101 3.73317 0
M  V30 9993 H 960.907 1.46653 4.3684 0
M  V30 9994 H 959.222 1.1743 3.99499 0
M  V30 9995 H 961.819 -1.34414 5.1753 0
M  V30 9996 H 962.162 -2.05806 3.6187 0
M  V30 9997 H 962.695 -0.393608 3.95848 0
M  V30 9998 H 959.434 1.31443 6.42186 0
M  V30 9999 H 958.954 -0.34235 5.98822 0
M  V30 10000 H 960.633 0.00576877 6.47 0
M  V30 10001 N 960.765 -1.57509 0.0534917 0
M  V30 10002 C 962.181 -1.56696 -0.303067 0
M  V30 10003 C 962.381 -1.06135 -1.71282 0
M  V30 10004 O 961.437 -0.71899 -2.42047 0
M  V30 10005 C 962.75 -3.00421 -0.129418 0
M  V30 10006 C 964.298 -3.12358 -0.200346 0
M  V30 10007 C 964.773 -4.57967 -0.0551971 0
M  V30 10008 N 966.264 -4.63066 -0.111398 0
M  V30 10009 C 966.999 -5.73395 -0.0232344 0
M  V30 10010 N 966.495 -6.92701 0.11741 0
M  V30 10011 N 968.288 -5.62045 -0.078984 0
M  V30 10012 H 960.439 -1.88696 0.975064 0
M  V30 10013 H 962.702 -0.869072 0.378706 0
M  V30 10014 H 962.408 -3.41456 0.842653 0
M  V30 10015 H 962.282 -3.66563 -0.889476 0
M  V30 10016 H 964.669 -2.71221 -1.16289 0
M  V30 10017 H 964.75 -2.48891 0.590506 0
M  V30 10018 H 964.394 -4.9979 0.904034 0
M  V30 10019 H 964.324 -5.19443 -0.865223 0
M  V30 10020 H 966.815 -3.77263 -0.219256 0
M  V30 10021 H 967.128 -7.72597 0.177326 0
M  V30 10022 H 965.473 -6.94833 0.152526 0
M  V30 10023 H 968.664 -4.67725 -0.187434 0
M  V30 10024 H 968.837 -6.48 -0.00681731 0
M  V30 10025 N 962.243 0.219913 -1.56058 0
M  V30 10026 C 963.173 1.27572 -1.9557 0
M  V30 10027 C 964.154 1.48801 -0.824148 0
M  V30 10028 O 965.339 1.60957 -1.08658 0
M  V30 10029 C 962.469 2.62517 -2.27381 0
M  V30 10030 C 961.423 2.55941 -3.43042 0
M  V30 10031 C 960.749 3.94931 -3.60463 0
M  V30 10032 C 962.049 2.10584 -4.77966 0
M  V30 10033 H 963.743 0.947482 -2.84013 0
M  V30 10034 H 961.289 0.454337 -1.36645 0
M  V30 10035 H 963.242 3.36538 -2.53615 0
M  V30 10036 H 961.966 2.97031 -1.35794 0
M  V30 10037 H 960.625 1.84377 -3.1686 0
M  V30 10038 H 960.273 4.26756 -2.66249 0
M  V30 10039 H 959.973 3.91413 -4.38258 0
M  V30 10040 H 961.497 4.70611 -3.89046 0
M  V30 10041 H 962.911 2.74349 -5.03394 0
M  V30 10042 H 961.308 2.18122 -5.59055 0
M  V30 10043 H 962.378 1.05818 -4.73213 0
M  V30 10044 N 963.721 1.49897 0.486681 0
M  V30 10045 C 964.651 1.7054 1.59494 0
M  V30 10046 C 965.632 0.554184 1.60819 0
M  V30 10047 O 966.817 0.791617 1.77333 0
M  V30 10048 C 963.947 1.78517 2.97908 0
M  V30 10049 C 962.901 2.93571 3.11449 0
M  V30 10050 C 962.227 2.86674 4.51356 0
M  V30 10051 C 963.527 4.34308 2.90127 0
M  V30 10052 H 965.221 2.63329 1.42472 0
M  V30 10053 H 962.767 1.2672 0.683969 0
M  V30 10054 H 964.72 1.91544 3.75352 0
M  V30 10055 H 963.444 0.823381 3.16051 0
M  V30 10056 H 962.103 2.80169 2.36433 0
M  V30 10057 H 961.751 1.88373 4.66395 0
M  V30 10058 H 961.451 3.63903 4.61355 0
M  V30 10059 H 962.975 3.01728 5.30841 0
M  V30 10060 H 964.389 4.48317 3.57331 0
M  V30 10061 H 962.786 5.12869 3.11585 0
M  V30 10062 H 963.856 4.47759 1.86119 0
M  V30 10063 N 965.199 -0.738761 1.39212 0
M  V30 10064 C 966.447 -1.49529 1.35962 0
M  V30 10065 C 966.768 -1.94948 -0.0450152 0
M  V30 10066 O 966.038 -1.68717 -0.995552 0
M  V30 10067 H 964.618 -0.554692 0.500326 0
M  V30 10068 H 967.28 -0.877255 1.74041 0
M  V30 10069 H 966.376 -2.37919 2.01993 0
M  V30 10070 N 966.677 -1.24326 -0.968545 0
M  V30 10071 C 967.923 -1.08406 -1.71394 0
M  V30 10072 C 968.256 0.376353 -1.90518 0
M  V30 10073 O 967.531 1.27816 -1.46606 0
M  V30 10074 C 967.814 -1.82344 -3.1052 0
M  V30 10075 C 967.667 -3.3613 -2.98893 0
M  V30 10076 C 968.986 -1.59545 -4.10163 0
M  V30 10077 H 966.105 -0.395205 -0.622079 0
M  V30 10078 H 968.747 -1.52983 -1.12677 0
M  V30 10079 H 966.897 -1.44452 -3.60646 0
M  V30 10080 H 968.569 -3.83614 -2.56199 0
M  V30 10081 H 966.812 -3.64553 -2.35124 0
M  V30 10082 H 967.483 -3.83064 -3.97449 0
M  V30 10083 H 969.959 -1.92504 -3.68892 0
M  V30 10084 H 968.835 -2.13736 -5.05577 0
M  V30 10085 H 969.096 -0.533503 -4.38869 0
M  V30 10086 N 968.156 1.1691 -1.05688 0
M  V30 10087 C 969.396 1.88972 -0.779044 0
M  V30 10088 C 969.76 1.7949 0.681708 0
M  V30 10089 O 970.961 2.46418 1.07386 0
M  V30 10090 C 969.232 3.34737 -1.25242 0
M  V30 10091 S 970.791 4.24718 -1.10272 0
M  V30 10092 H 967.609 0.652349 -0.282776 0
M  V30 10093 H 970.211 1.41162 -1.35254 0
M  V30 10094 H 968.915 3.39175 -2.3106 0
M  V30 10095 H 968.446 3.87593 -0.673417 0
M  V30 10096 H 970.461 4.96191 -0.0299004 0
M  V30 10097 N 969.634 0.838594 1.33437 0
M  V30 10098 C 970.883 0.430484 1.97053 0
M  V30 10099 C 971.196 -1.01556 1.6717 0
M  V30 10100 O 972.402 -1.52834 2.24397 0
M  V30 10101 C 970.858 0.718828 3.52648 0
M  V30 10102 C 970.466 2.17953 3.91408 0
M  V30 10103 C 972.21 0.377654 4.22817 0
M  V30 10104 C 970.117 2.41194 5.39981 0
M  V30 10105 H 969.047 0.157239 0.737422 0
M  V30 10106 H 971.698 1.02714 1.5206 0
M  V30 10107 H 970.08 0.0518042 3.95966 0
M  V30 10108 H 971.254 2.88701 3.59149 0
M  V30 10109 H 969.569 2.48366 3.34221 0
M  V30 10110 H 972.166 0.528926 5.32077 0
M  V30 10111 H 972.509 -0.679338 4.1072 0
M  V30 10112 H 973.042 0.999899 3.85028 0
M  V30 10113 H 969.781 3.45457 5.57081 0
M  V30 10114 H 969.301 1.75007 5.73701 0
M  V30 10115 H 970.98 2.24334 6.06863 0
M  V30 10116 N 971.112 -1.45937 0.595003 0
M  V30 10117 C 972.022 -2.34221 -0.133325 0
M  V30 10118 C 973.038 -1.50491 -0.873407 0
M  V30 10119 O 974.214 -1.83328 -0.833828 0
M  V30 10120 C 971.279 -3.27896 -1.12628 0
M  V30 10121 C 970.34 -4.27529 -0.389532 0
M  V30 10122 C 969.573 -5.16729 -1.33519 0
M  V30 10123 O 969.796 -5.09102 -2.57238 0
M  V30 10124 O 968.73 -5.96023 -0.839084 0
M  V30 10125 H 972.556 -2.97877 0.591861 0
M  V30 10126 H 970.141 -1.45113 0.355329 0
M  V30 10127 H 972.023 -3.85654 -1.69851 0
M  V30 10128 H 970.698 -2.6682 -1.83272 0
M  V30 10129 H 969.605 -3.73424 0.224843 0
M  V30 10130 H 970.938 -4.91425 0.276169 0
M  V30 10131 N 972.59 -0.333456 -1.54032 0
M  V30 10132 C 973.523 0.570776 -2.20947 0
M  V30 10133 C 974.501 1.10811 -1.18994 0
M  V30 10134 O 975.685 1.17027 -1.47773 0
M  V30 10135 C 972.812 1.7842 -2.87896 0
M  V30 10136 C 971.858 1.37722 -4.03652 0
M  V30 10137 S 972.691 0.405548 -5.33962 0
M  V30 10138 C 973.847 1.62603 -6.0441 0
M  V30 10139 H 974.08 0.0023936 -2.973 0
M  V30 10140 H 971.613 -0.117531 -1.53952 0
M  V30 10141 H 973.571 2.48038 -3.27089 0
M  V30 10142 H 972.232 2.32378 -2.11327 0
M  V30 10143 H 971.425 2.28167 -4.49395 0
M  V30 10144 H 971.027 0.760628 -3.66184 0
M  V30 10145 H 973.319 2.56202 -6.2719 0
M  V30 10146 H 974.262 1.21058 -6.97675 0
M  V30 10147 H 974.67 1.8175 -5.34441 0
M  V30 10148 N 974.068 1.57479 -0.061844 0
M  V30 10149 C 975.293 1.97843 0.622311 0
M  V30 10150 C 975.718 0.939602 1.62951 0
M  V30 10151 O 975.076 -0.095958 1.81046 0
M  V30 10152 C 975.124 3.37262 1.2762 0
M  V30 10153 O 974.228 3.35943 2.39199 0
M  V30 10154 H 973.569 0.644212 0.160896 0
M  V30 10155 H 976.099 2.04165 -0.133409 0
M  V30 10156 H 976.109 3.74226 1.62539 0
M  V30 10157 H 974.784 4.12404 0.538112 0
M  V30 10158 H 973.361 3.10737 2.06148 0
M  V30 10159 N 975.546 -0.211634 1.56173 0
M  V30 10160 C 976.771 -0.955324 1.84088 0
M  V30 10161 C 977.196 -1.76754 0.643407 0
M  V30 10162 O 976.554 -1.76653 -0.407842 0
M  V30 10163 C 976.602 -1.84063 3.10085 0
M  V30 10164 O 975.706 -2.9373 2.89476 0
M  V30 10165 H 975.047 -0.26996 0.606645 0
M  V30 10166 H 977.577 -0.221947 2.03393 0
M  V30 10167 H 977.587 -2.24852 3.40449 0
M  V30 10168 H 976.262 -1.24373 3.96868 0
M  V30 10169 H 974.839 -2.56816 2.7037 0
M  V30 10170 N 977.024 -1.50153 -0.478725 0
M  V30 10171 C 977.956 -1.64603 -1.59494 0
M  V30 10172 C 978.969 -0.527789 -1.54007 0
M  V30 10173 O 980.158 -0.80069 -1.59534 0
M  V30 10174 C 977.258 -1.60738 -2.98356 0
M  V30 10175 C 976.431 -2.88468 -3.28794 0
M  V30 10176 C 975.49 -2.77349 -4.47173 0
M  V30 10177 O 974.516 -3.51302 -4.47857 0
M  V30 10178 N 975.718 -1.9039 -5.4839 0
M  V30 10179 H 978.483 -2.6088 -1.47518 0
M  V30 10180 H 976.044 -1.47521 -0.667011 0
M  V30 10181 H 978.036 -1.50923 -3.75505 0
M  V30 10182 H 976.606 -0.722273 -3.04141 0
M  V30 10183 H 975.826 -3.12467 -2.40329 0
M  V30 10184 H 977.114 -3.73102 -3.45937 0
M  V30 10185 H 976.512 -1.29606 -5.50653 0
M  V30 10186 H 975.069 -1.86484 -6.24553 0
M  V30 10187 N 978.502 0.731368 -1.39602 0
M  V30 10188 C 979.75 1.48805 -1.36753 0
M  V30 10189 C 980.071 1.94969 0.034676 0
M  V30 10190 O 979.341 1.69243 0.986591 0
M  V30 10191 H 977.921 0.55203 -0.503261 0
M  V30 10192 H 980.583 0.868013 -1.74504 0
M  V30 10193 H 979.679 2.36844 -2.03252 0
M  V30 10194 N 979.98 1.24838 0.961938 0
M  V30 10195 C 981.229 1.0855 1.69999 0
M  V30 10196 C 981.542 -0.374645 1.91979 0
M  V30 10197 O 982.748 -0.657822 2.6341 0
M  V30 10198 C 981.204 1.89424 3.06017 0
M  V30 10199 C 980.812 3.39885 2.9186 0
M  V30 10200 C 982.556 1.81684 3.83655 0
M  V30 10201 C 980.463 4.13082 4.23223 0
M  V30 10202 H 979.393 0.402603 0.637516 0
M  V30 10203 H 982.044 1.4897 1.07146 0
M  V30 10204 H 980.426 1.41823 3.69733 0
M  V30 10205 H 981.6 3.95108 2.37121 0
M  V30 10206 H 979.915 3.4864 2.27683 0
M  V30 10207 H 982.512 2.3367 4.80939 0
M  V30 10208 H 982.855 0.783247 4.08865 0
M  V30 10209 H 983.388 2.26997 3.26676 0
M  V30 10210 H 980.127 5.16824 4.03204 0
M  V30 10211 H 979.647 3.62644 4.77755 0
M  V30 10212 H 981.326 4.20397 4.91808 0
M  V30 10213 N 981.458 -1.16348 1.06306 0
M  V30 10214 C 982.869 -1.68491 0.80422 0
M  V30 10215 C 983.22 -1.84327 -0.672159 0
M  V30 10216 O 982.345 -1.53892 -1.52139 0
M  V30 10217 C 982.94 -3.06048 1.45328 0
M  V30 10218 C 981.499 -3.55311 1.24221 0
M  V30 10219 C 980.646 -2.31291 1.5297 0
M  V30 10220 H 983.597 -1.00708 1.22652 0
M  V30 10221 H 983.618 -3.70451 0.868674 0
M  V30 10222 H 983.13 -2.9449 2.52779 0
M  V30 10223 H 981.231 -3.72128 0.187447 0
M  V30 10224 H 981.344 -4.37397 1.95502 0
M  V30 10225 H 979.708 -2.3631 0.950241 0
M  V30 10226 H 980.491 -2.22331 2.6158 0
M  V30 10227 N 982.937 -0.845659 -1.3299 0
M  V30 10228 C 983.884 -0.281761 -2.29074 0
M  V30 10229 C 984.854 0.606237 -1.54641 0
M  V30 10230 O 986.039 0.543063 -1.82908 0
M  V30 10231 C 983.179 0.531451 -3.40983 0
M  V30 10232 C 982.292 -0.381328 -4.30314 0
M  V30 10233 C 981.427 0.443643 -5.29344 0
M  V30 10234 C 980.466 -0.467101 -6.10315 0
M  V30 10235 N 979.603 0.320148 -7.0137 0
M  V30 10236 H 984.443 -1.10641 -2.76699 0
M  V30 10237 H 981.98 -0.55706 -1.36144 0
M  V30 10238 H 983.938 1.01848 -4.04577 0
M  V30 10239 H 982.568 1.32101 -2.94532 0
M  V30 10240 H 981.62 -0.986701 -3.6738 0
M  V30 10241 H 982.932 -1.08067 -4.86953 0
M  V30 10242 H 982.086 0.994212 -5.98498 0
M  V30 10243 H 980.825 1.17639 -4.73299 0
M  V30 10244 H 979.83 -1.02963 -5.40073 0
M  V30 10245 H 981.055 -1.19832 -6.68444 0
M  V30 10246 H 979.001 1.03615 -6.47765 0
M  V30 10247 H 978.918 -0.320338 -7.55321 0
M  V30 10248 H 980.186 0.852735 -7.74822 0
M  V30 10249 N 984.415 1.45619 -0.602734 0
M  V30 10250 C 985.826 1.85814 -0.181636 0
M  V30 10251 C 986.177 1.5037 1.26029 0
M  V30 10252 O 985.302 0.928068 1.95489 0
M  V30 10253 C 985.897 3.37258 -0.322866 0
M  V30 10254 C 984.456 3.76375 0.043504 0
M  V30 10255 C 983.603 2.69585 -0.649561 0
M  V30 10256 H 986.554 1.36489 -0.809721 0
M  V30 10257 H 986.575 3.77874 0.446279 0
M  V30 10258 H 986.087 3.63024 -1.37241 0
M  V30 10259 H 984.188 3.56226 1.09241 0
M  V30 10260 H 984.301 4.77843 -0.346765 0
M  V30 10261 H 982.665 2.54549 -0.087706 0
M  V30 10262 H 983.448 2.98188 -1.70115 0
M  V30 10263 N 985.893 0.34162 1.53853 0
M  V30 10264 C 986.826 -0.559051 2.21246 0
M  V30 10265 C 987.804 -1.10179 1.1958 0
M  V30 10266 O 988.988 -1.16242 1.48392 0
M  V30 10267 C 986.115 -1.7689 2.88838 0
M  V30 10268 C 985.161 -1.3558 4.04377 0
M  V30 10269 S 985.994 -0.377225 5.3417 0
M  V30 10270 C 987.15 -1.59395 6.05264 0
M  V30 10271 H 987.383 0.013373 2.97297 0
M  V30 10272 H 984.916 0.125694 1.53888 0
M  V30 10273 H 986.874 -2.463 3.284 0
M  V30 10274 H 985.535 -2.31254 2.12557 0
M  V30 10275 H 984.728 -2.25781 4.50599 0
M  V30 10276 H 984.33 -0.741197 3.66582 0
M  V30 10277 H 986.622 -2.52872 6.2854 0
M  V30 10278 H 987.565 -1.17356 6.98307 0
M  V30 10279 H 987.973 -1.78913 5.35397 0
M  V30 10280 N 987.371 -1.57444 0.0701946 0
M  V30 10281 C 988.617 -1.93716 -0.600178 0
M  V30 10282 C 988.95 -0.950329 -1.69359 0
M  V30 10283 O 988.225 0.0207123 -1.94489 0
M  V30 10284 C 988.508 -3.40266 -1.17861 0
M  V30 10285 C 988.361 -4.49706 -0.0919575 0
M  V30 10286 C 989.68 -3.87599 -2.08459 0
M  V30 10287 H 986.799 -0.704421 -0.216704 0
M  V30 10288 H 989.441 -1.89514 0.135838 0
M  V30 10289 H 987.591 -3.43977 -1.80587 0
M  V30 10290 H 989.263 -4.58116 0.541031 0
M  V30 10291 H 987.506 -4.29937 0.577639 0
M  V30 10292 H 988.177 -5.49381 -0.537048 0
M  V30 10293 H 990.653 -3.85883 -1.5567 0
M  V30 10294 H 989.529 -4.90755 -2.45867 0
M  V30 10295 H 989.79 -3.25448 -2.99226 0
M  V30 10296 N 988.849 0.203349 -1.56283 0
M  V30 10297 C 990.098 0.92315 -1.79334 0
M  V30 10298 C 990.411 1.84765 -0.641977 0
M  V30 10299 O 991.617 2.60745 -0.756584 0
M  V30 10300 C 990.073 1.69184 -3.17655 0
M  V30 10301 C 989.681 0.812581 -4.40569 0
M  V30 10302 C 991.425 2.40177 -3.50022 0
M  V30 10303 C 989.332 1.57967 -5.69913 0
M  V30 10304 H 988.262 0.348442 -0.668659 0
M  V30 10305 H 990.913 0.1766 -1.82648 0
M  V30 10306 H 989.295 2.48197 -3.08568 0
M  V30 10307 H 990.469 0.0616956 -4.60759 0
M  V30 10308 H 988.784 0.21389 -4.1585 0
M  V30 10309 H 991.381 2.98103 -4.4389 0
M  V30 10310 H 991.724 3.13961 -2.73376 0
M  V30 10311 H 992.257 1.68138 -3.6052 0
M  V30 10312 H 988.996 0.884767 -6.49501 0
M  V30 10313 H 988.516 2.3047 -5.53754 0
M  V30 10314 H 990.195 2.13562 -6.10737 0
M  V30 10315 N 990.327 1.50405 0.470755 0
M  V30 10316 C 991.257 1.72222 1.57676 0
M  V30 10317 C 992.238 0.57121 1.60222 0
M  V30 10318 O 993.423 0.810381 1.76484 0
M  V30 10319 C 990.553 1.81666 2.95998 0
M  V30 10320 C 989.507 2.96857 3.08318 0
M  V30 10321 C 988.833 2.91445 4.4829 0
M  V30 10322 C 990.133 4.37361 2.85504 0
M  V30 10323 H 991.827 2.64825 1.39671 0
M  V30 10324 H 989.373 1.27438 0.67049 0
M  V30 10325 H 991.326 1.95514 3.73299 0
M  V30 10326 H 990.05 0.856856 3.1516 0
M  V30 10327 H 988.709 2.82661 2.33449 0
M  V30 10328 H 988.357 1.93309 4.64371 0
M  V30 10329 H 988.057 3.68776 4.57469 0
M  V30 10330 H 989.581 3.07341 5.27611 0
M  V30 10331 H 990.995 4.52081 3.52555 0
M  V30 10332 H 989.392 5.16145 3.06127 0
M  V30 10333 H 990.462 4.49708 1.81359 0
M  V30 10334 N 991.805 -0.723954 1.39988 0
M  V30 10335 C 993.216 -1.30273 1.33738 0
M  V30 10336 C 993.567 -1.96199 0.00690581 0
M  V30 10337 O 992.692 -1.97016 -0.895179 0
M  V30 10338 C 993.287 -2.36889 2.42217 0
M  V30 10339 C 991.846 -2.90412 2.39453 0
M  V30 10340 C 990.993 -1.64103 2.2353 0
M  V30 10341 H 993.944 -0.520672 1.49916 0
M  V30 10342 H 993.965 -3.17538 2.09642 0
M  V30 10343 H 993.477 -1.88878 3.39038 0
M  V30 10344 H 991.578 -3.42674 1.46304 0
M  V30 10345 H 991.691 -3.42775 3.34727 0
M  V30 10346 H 990.055 -1.88855 1.70897 0
M  V30 10347 H 990.838 -1.18128 3.22336 0
M  V30 10348 N 993.283 -1.25346 -0.955304 0
M  V30 10349 C 994.53 -1.10055 -1.69983 0
M  V30 10350 C 994.858 0.358586 -1.91166 0
M  V30 10351 O 994.113 1.28071 -1.47974 0
M  V30 10352 C 994.412 -1.7993 -3.08804 0
M  V30 10353 C 994.078 -3.29851 -3.07424 0
M  V30 10354 C 992.74 -3.7075 -3.06754 0
M  V30 10355 C 995.092 -4.25636 -3.00805 0
M  V30 10356 C 992.42 -5.05847 -2.97214 0
M  V30 10357 C 994.772 -5.60756 -2.92806 0
M  V30 10358 C 993.436 -6.00984 -2.90472 0
M  V30 10359 H 992.706 -0.402718 -0.622012 0
M  V30 10360 H 995.353 -1.5561 -1.11614 0
M  V30 10361 H 993.658 -1.26803 -3.70713 0
M  V30 10362 H 995.355 -1.65551 -3.65231 0
M  V30 10363 H 991.945 -2.97308 -3.08716 0
M  V30 10364 H 996.129 -3.9503 -3.00441 0
M  V30 10365 H 991.385 -5.36196 -2.93775 0
M  V30 10366 H 995.559 -6.34671 -2.86645 0
M  V30 10367 H 993.186 -7.05626 -2.82835 0
M  V30 10368 N 994.761 1.15782 -1.06922 0
M  V30 10369 C 995.694 2.19336 -0.629837 0
M  V30 10370 C 996.672 1.58774 0.350663 0
M  V30 10371 O 997.856 1.86724 0.258124 0
M  V30 10372 C 994.983 3.38615 0.0757526 0
M  V30 10373 C 994.029 4.17688 -0.862503 0
M  V30 10374 S 994.862 4.80634 -2.36117 0
M  V30 10375 C 996.018 6.03286 -1.66725 0
M  V30 10376 H 996.251 2.56267 -1.50714 0
M  V30 10377 H 993.784 1.26674 -0.882776 0
M  V30 10378 H 995.742 4.07724 0.476611 0
M  V30 10379 H 994.403 3.00037 0.929332 0
M  V30 10380 H 993.596 5.03012 -0.315461 0
M  V30 10381 H 993.198 3.54106 -1.20354 0
M  V30 10382 H 995.49 6.70426 -0.976472 0
M  V30 10383 H 996.433 6.62551 -2.49864 0
M  V30 10384 H 996.841 5.52722 -1.14711 0
M  V30 10385 N 996.239 0.8527 1.3254 0
M  V30 10386 C 997.186 0.293905 2.28921 0
M  V30 10387 C 998.156 -0.598027 1.54961 0
M  V30 10388 O 999.341 -0.533355 1.83194 0
M  V30 10389 C 996.481 -0.513361 3.4126 0
M  V30 10390 C 995.594 0.404144 4.30105 0
M  V30 10391 C 994.729 -0.415564 5.29572 0
M  V30 10392 C 993.768 0.499461 6.10059 0
M  V30 10393 N 992.905 -0.282949 7.0153 0
M  V30 10394 H 997.745 1.12107 2.76109 0
M  V30 10395 H 995.282 0.564272 1.35847 0
M  V30 10396 H 997.24 -0.997008 4.05112 0
M  V30 10397 H 995.87 -1.30537 2.95229 0
M  V30 10398 H 994.922 1.00617 3.66852 0
M  V30 10399 H 996.234 1.10648 4.86373 0
M  V30 10400 H 995.388 -0.962458 5.99017 0
M  V30 10401 H 994.127 -1.15127 4.73917 0
M  V30 10402 H 993.132 1.05825 5.39519 0
M  V30 10403 H 994.357 1.23375 6.67799 0
M  V30 10404 H 992.303 -1.00179 6.48306 0
M  V30 10405 H 992.22 0.36039 7.55141 0
M  V30 10406 H 993.488 -0.811632 7.75263 0
M  V30 10407 N 997.718 -1.45297 0.610449 0
M  V30 10408 C 998.948 -2.0629 0.113047 0
M  V30 10409 C 999.356 -1.45527 -1.20907 0
M  V30 10410 O 998.699 -0.564837 -1.74801 0
M  V30 10411 C 998.761 -3.59366 -0.0979692 0
M  V30 10412 C 998.425 -4.42481 1.14279 0
M  V30 10413 C 999.422 -4.77277 2.06161 0
M  V30 10414 C 997.107 -4.83187 1.37241 0
M  V30 10415 C 999.101 -5.51639 3.19333 0
M  V30 10416 C 996.788 -5.57303 2.50713 0
M  V30 10417 C 997.786 -5.91445 3.41587 0
M  V30 10418 O 997.474 -6.64056 4.53083 0
M  V30 10419 H 997.206 -0.67264 0.0673159 0
M  V30 10420 H 999.76 -1.87486 0.838937 0
M  V30 10421 H 997.99 -3.76582 -0.878783 0
M  V30 10422 H 999.679 -4.02193 -0.547327 0
M  V30 10423 H 1000.44 -4.46384 1.89647 0
M  V30 10424 H 996.324 -4.56045 0.67407 0
M  V30 10425 H 999.868 -5.78207 3.90286 0
M  V30 10426 H 995.765 -5.8761 2.67179 0
M  V30 10427 H 996.533 -6.82509 4.51801 0
M  V30 10428 N 999.196 -0.349774 -1.5367 0
M  V30 10429 C 1000.44 0.244343 -2.00617 0
M  V30 10430 C 1000.76 1.50567 -1.23914 0
M  V30 10431 O 1000.03 1.92784 -0.348016 0
M  V30 10432 H 998.615 0.0932792 -0.741153 0
M  V30 10433 H 1001.28 -0.472367 -1.89089 0
M  V30 10434 H 1000.37 0.482433 -3.08349 0
M  V30 10435 N 1000.67 1.57404 -0.0785433 0
M  V30 10436 C 1001.95 1.85163 0.630389 0
M  V30 10437 C 1002.33 0.972295 1.87376 0
M  V30 10438 O 1001.68 0.0403375 2.28464 0
M  V30 10439 C 1001.89 3.35491 0.961604 0
M  V30 10440 C 1003.24 4.0316 1.33219 0
M  V30 10441 O 1004.26 3.40276 1.05313 0
M  V30 10442 O 1003.12 5.14086 1.85412 0
M  V30 10443 H 1000.21 0.765169 0.31376 0
M  V30 10444 H 1002.76 1.69343 -0.109986 0
M  V30 10445 H 1001.53 3.91221 0.0788113 0
M  V30 10446 H 1001.15 3.56598 1.75852 0
M  V30 10447 N 1002.15 -0.195058 1.56388 0
M  V30 10448 C 1003.08 -1.24444 1.97575 0
M  V30 10449 C 1004.06 -1.47471 0.847717 0
M  V30 10450 O 1005.25 -1.59208 1.11205 0
M  V30 10451 C 1002.38 -2.58866 2.31529 0
M  V30 10452 C 1001.33 -2.50451 3.47071 0
M  V30 10453 C 1000.66 -3.89146 3.667 0
M  V30 10454 C 1001.96 -2.02953 4.81256 0
M  V30 10455 H 1003.65 -0.902178 2.85484 0
M  V30 10456 H 1001.2 -0.43254 1.3735 0
M  V30 10457 H 1003.15 -3.3246 2.58936 0
M  V30 10458 H 1001.87 -2.94833 1.40502 0
M  V30 10459 H 1000.53 -1.79313 3.19754 0
M  V30 10460 H 1000.18 -4.22466 2.73004 0
M  V30 10461 H 999.882 -3.84391 4.44429 0
M  V30 10462 H 1001.41 -4.64363 3.96484 0
M  V30 10463 H 1002.82 -2.66306 5.07695 0
M  V30 10464 H 1001.22 -2.092 5.62455 0
M  V30 10465 H 1002.29 -0.982757 4.74837 0
M  V30 10466 N 1003.63 -1.50653 -0.462772 0
M  V30 10467 C 1004.58 -1.66509 -1.55752 0
M  V30 10468 C 1005.56 -0.519508 -1.52282 0
M  V30 10469 O 1006.76 -0.774296 -1.59166 0
M  V30 10470 C 1003.88 -1.77023 -2.94139 0
M  V30 10471 C 1002.97 -2.97284 -3.02461 0
M  V30 10472 N 1003.36 -4.20843 -2.80579 0
M  V30 10473 C 1001.66 -2.96014 -3.33604 0
M  V30 10474 C 1002.36 -5.01886 -2.94084 0
M  V30 10475 N 1001.34 -4.3601 -3.24648 0
M  V30 10476 H 1005.14 -2.59727 -1.37546 0
M  V30 10477 H 1002.65 -1.47951 -0.669653 0
M  V30 10478 H 1004.65 -1.86488 -3.72864 0
M  V30 10479 H 1003.31 -0.849688 -3.13385 0
M  V30 10480 H 1004.32 -4.50206 -2.55998 0
M  V30 10481 H 1001 -2.13493 -3.58786 0
M  V30 10482 H 1002.39 -6.10164 -2.81334 0
M  V30 10483 N 1005.11 0.71652 -1.4037 0
M  V30 10484 C 1006.34 1.50563 -1.4191 0
M  V30 10485 C 1006.75 1.88791 -0.0185456 0
M  V30 10486 O 1006.11 1.55378 0.957289 0
M  V30 10487 C 1006.16 2.78155 -2.30894 0
M  V30 10488 O 1005.88 2.41543 -3.65497 0
M  V30 10489 C 1007.38 3.72057 -2.41016 0
M  V30 10490 H 1004.6 0.464679 -0.48406 0
M  V30 10491 H 1007.15 0.883927 -1.8441 0
M  V30 10492 H 1005.3 3.36611 -1.91759 0
M  V30 10493 H 1005.71 3.23636 -4.12747 0
M  V30 10494 H 1007.19 4.58426 -3.07489 0
M  V30 10495 H 1007.67 4.15098 -1.43492 0
M  V30 10496 H 1008.27 3.19512 -2.80699 0
M  V30 10497 N 1006.59 1.25851 0.948643 0
M  V30 10498 C 1007.82 1.13546 1.726 0
M  V30 10499 C 1008.22 -0.312857 1.86595 0
M  V30 10500 O 1007.57 -1.22657 1.36751 0
M  V30 10501 C 1007.63 1.72315 3.15512 0
M  V30 10502 C 1007.29 3.2136 3.24926 0
M  V30 10503 C 1008.29 4.18274 3.08777 0
M  V30 10504 C 1005.98 3.61683 3.48555 0
M  V30 10505 C 1007.97 5.53491 3.16112 0
M  V30 10506 C 1005.66 4.97035 3.55526 0
M  V30 10507 C 1006.65 5.92749 3.3932 0
M  V30 10508 O 1006.34 7.25637 3.45985 0
M  V30 10509 H 1006.07 0.396555 0.547467 0
M  V30 10510 H 1008.63 1.66822 1.19832 0
M  V30 10511 H 1006.86 1.13494 3.6967 0
M  V30 10512 H 1008.55 1.55024 3.7513 0
M  V30 10513 H 1009.31 3.88461 2.90385 0
M  V30 10514 H 1005.19 2.87674 3.60229 0
M  V30 10515 H 1008.74 6.28177 3.0338 0
M  V30 10516 H 1004.63 5.26512 3.73437 0
M  V30 10517 H 1005.4 7.33812 3.62577 0
M  V30 10518 N 1008.06 -1.15214 1.07534 0
M  V30 10519 C 1008.99 -2.2216 0.718837 0
M  V30 10520 C 1009.98 -1.6753 -0.29459 0
M  V30 10521 O 1011.16 -1.93481 -0.166931 0
M  V30 10522 C 1008.29 -3.471 0.117836 0
M  V30 10523 C 1007.24 -4.14701 1.05862 0
M  V30 10524 C 1006.57 -5.3374 0.320284 0
M  V30 10525 C 1007.87 -4.64254 2.39302 0
M  V30 10526 H 1009.56 -2.52237 1.61297 0
M  V30 10527 H 1007.11 -1.21239 0.776992 0
M  V30 10528 H 1009.06 -4.21156 -0.143519 0
M  V30 10529 H 1007.79 -3.16361 -0.811389 0
M  V30 10530 H 1006.45 -3.42589 1.30493 0
M  V30 10531 H 1006.09 -4.99257 -0.61246 0
M  V30 10532 H 1005.79 -5.79912 0.947381 0
M  V30 10533 H 1007.32 -6.10563 0.0667721 0
M  V30 10534 H 1008.73 -5.29827 2.18988 0
M  V30 10535 H 1007.13 -5.21095 2.97623 0
M  V30 10536 H 1008.2 -3.79793 3.01472 0
M  V30 10537 N 1009.54 -0.859717 -1.32086 0
M  V30 10538 C 1010.47 -0.323502 -2.31248 0
M  V30 10539 C 1011.45 0.580085 -1.59903 0
M  V30 10540 O 1012.64 0.499265 -1.87673 0
M  V30 10541 C 1009.77 0.484661 -3.43902 0
M  V30 10542 C 1008.72 -0.324933 -4.26765 0
M  V30 10543 C 1008.05 0.608281 -5.31229 0
M  V30 10544 C 1009.35 -1.55344 -4.98664 0
M  V30 10545 H 1011.04 -1.15209 -2.76346 0
M  V30 10546 H 1008.59 -0.555442 -1.32856 0
M  V30 10547 H 1010.54 0.870238 -4.12316 0
M  V30 10548 H 1009.27 1.34666 -2.97544 0
M  V30 10549 H 1007.92 -0.692328 -3.60003 0
M  V30 10550 H 1007.57 1.46727 -4.81124 0
M  V30 10551 H 1007.27 0.0705571 -5.87558 0
M  V30 10552 H 1008.8 0.990925 -6.02506 0
M  V30 10553 H 1010.21 -1.23987 -5.59732 0
M  V30 10554 H 1008.61 -2.02947 -5.64741 0
M  V30 10555 H 1009.68 -2.31192 -4.26237 0
M  V30 10556 N 1011.02 1.44971 -0.618145 0
M  V30 10557 C 1012.25 2.06228 -0.123985 0
M  V30 10558 C 1012.66 1.46166 1.20134 0
M  V30 10559 O 1012 0.574099 1.74499 0
M  V30 10560 C 1012.06 3.59413 0.0789098 0
M  V30 10561 C 1011.73 4.41869 -1.16624 0
M  V30 10562 C 1012.72 4.76177 -2.0869 0
M  V30 10563 C 1010.41 4.82453 -1.39802 0
M  V30 10564 C 1012.4 5.49938 -3.22254 0
M  V30 10565 C 1010.09 5.55965 -2.53665 0
M  V30 10566 C 1011.09 5.89626 -3.44718 0
M  V30 10567 O 1010.78 6.61644 -4.56598 0
M  V30 10568 H 1010.51 0.672274 -0.0708822 0
M  V30 10569 H 1013.06 1.87038 -0.848868 0
M  V30 10570 H 1011.29 3.77043 0.8588 0
M  V30 10571 H 1012.98 4.02478 0.52599 0
M  V30 10572 H 1013.75 4.45372 -1.92012 0
M  V30 10573 H 1009.63 4.55681 -0.698245 0
M  V30 10574 H 1013.17 5.76129 -3.93347 0
M  V30 10575 H 1009.07 5.86185 -2.70291 0
M  V30 10576 H 1009.84 6.80103 -4.55414 0
M  V30 10577 N 1012.5 0.357919 1.53482 0
M  V30 10578 C 1013.72 -0.237769 2.06033 0
M  V30 10579 C 1014.15 -1.42292 1.23023 0
M  V30 10580 O 1013.51 -1.79604 0.247427 0
M  V30 10581 C 1013.55 -0.616806 3.55286 0
M  V30 10582 O 1012.66 -1.71503 3.75047 0
M  V30 10583 H 1012 -0.0364322 0.663 0
M  V30 10584 H 1014.53 0.516301 1.97979 0
M  V30 10585 H 1014.54 -0.88996 3.98175 0
M  V30 10586 H 1013.21 0.249825 4.15149 0
M  V30 10587 H 1011.79 -1.43803 3.44057 0
M  V30 10588 N 1013.98 -1.5736 0.0868897 0
M  V30 10589 C 1015.39 -1.57304 -0.269762 0
M  V30 10590 C 1015.59 -1.09745 -1.68992 0
M  V30 10591 O 1014.65 -0.77017 -2.40468 0
M  V30 10592 C 1015.96 -3.00628 -0.0656646 0
M  V30 10593 C 1017.51 -3.12713 -0.134045 0
M  V30 10594 C 1017.98 -4.57981 0.0419569 0
M  V30 10595 N 1019.48 -4.63198 -0.0131501 0
M  V30 10596 C 1020.21 -5.73316 0.0983964 0
M  V30 10597 N 1019.71 -6.92296 0.264315 0
M  V30 10598 N 1021.5 -5.62086 0.0402517 0
M  V30 10599 H 1013.65 -1.86585 1.01487 0
M  V30 10600 H 1015.91 -0.860843 0.397055 0
M  V30 10601 H 1015.62 -3.39592 0.914891 0
M  V30 10602 H 1015.49 -3.68367 -0.811522 0
M  V30 10603 H 1017.88 -2.73627 -1.1051 0
M  V30 10604 H 1017.96 -2.47582 0.643167 0
M  V30 10605 H 1017.61 -4.9776 1.00984 0
M  V30 10606 H 1017.54 -5.21162 -0.754847 0
M  V30 10607 H 1020.03 -3.77644 -0.139183 0
M  V30 10608 H 1020.34 -7.72047 0.341165 0
M  V30 10609 H 1018.68 -6.94353 0.299876 0
M  V30 10610 H 1021.88 -4.68017 -0.0881801 0
M  V30 10611 H 1022.05 -6.47868 0.130635 0
M  V30 10612 N 1015.45 0.186762 -1.56489 0
M  V30 10613 C 1016.38 1.23395 -1.98232 0
M  V30 10614 C 1017.37 1.4702 -0.855526 0
M  V30 10615 O 1018.55 1.58616 -1.12048 0
M  V30 10616 C 1015.68 2.57635 -2.32898 0
M  V30 10617 C 1014.63 2.48607 -3.48394 0
M  V30 10618 C 1013.96 3.87196 -3.68759 0
M  V30 10619 C 1015.26 2.00398 -4.82325 0
M  V30 10620 H 1016.95 0.887026 -2.85958 0
M  V30 10621 H 1014.5 0.42525 -1.37578 0
M  V30 10622 H 1016.45 3.31082 -2.60696 0
M  V30 10623 H 1015.18 2.94084 -1.42064 0
M  V30 10624 H 1013.84 1.77615 -3.207 0
M  V30 10625 H 1013.48 4.21012 -2.75241 0
M  V30 10626 H 1013.18 3.82029 -4.46462 0
M  V30 10627 H 1014.71 4.62253 -3.98941 0
M  V30 10628 H 1016.12 2.6361 -5.091 0
M  V30 10629 H 1014.52 2.06214 -5.63556 0
M  V30 10630 H 1015.59 0.957562 -4.75351 0
M  V30 10631 N 1016.93 1.50896 0.454776 0
M  V30 10632 C 1017.84 1.73762 1.5762 0
M  V30 10633 C 1018.86 0.621206 1.62533 0
M  V30 10634 O 1020.03 0.901449 1.801 0
M  V30 10635 C 1017.1 1.84183 2.9373 0
M  V30 10636 C 1016.16 3.07982 2.99075 0
M  V30 10637 C 1015.39 3.17896 4.28693 0
M  V30 10638 O 1015.62 2.34184 5.20109 0
M  V30 10639 O 1014.55 4.10749 4.39964 0
M  V30 10640 H 1018.38 2.68856 1.41245 0
M  V30 10641 H 1015.96 1.35187 0.635984 0
M  V30 10642 H 1017.84 1.93123 3.74542 0
M  V30 10643 H 1016.52 0.922742 3.10269 0
M  V30 10644 H 1015.43 3.04531 2.17282 0
M  V30 10645 H 1016.76 3.99523 2.87476 0
M  V30 10646 N 1018.41 -0.709066 1.40748 0
M  V30 10647 C 1019.64 -1.49808 1.42707 0
M  V30 10648 C 1020.05 -1.88778 0.0285574 0
M  V30 10649 O 1019.41 -1.55883 -0.949035 0
M  V30 10650 C 1019.46 -2.76926 2.32366 0
M  V30 10651 O 1019.18 -2.39602 3.66773 0
M  V30 10652 C 1020.68 -3.70773 2.42986 0
M  V30 10653 H 1017.9 -0.462106 0.486517 0
M  V30 10654 H 1020.45 -0.874135 1.84876 0
M  V30 10655 H 1018.6 -3.3559 1.93541 0
M  V30 10656 H 1019.02 -3.21443 4.14457 0
M  V30 10657 H 1020.49 -4.56789 3.09916 0
M  V30 10658 H 1020.97 -4.14332 1.45691 0
M  V30 10659 H 1021.57 -3.18019 2.8239 0
M  V30 10660 N 1019.89 -1.26353 -0.941956 0
M  V30 10661 C 1021.14 -1.1163 -1.68473 0
M  V30 10662 C 1021.46 0.34108 -1.91994 0
M  V30 10663 O 1020.73 1.24065 -1.51607 0
M  V30 10664 H 1019.31 -0.410113 -0.624353 0
M  V30 10665 H 1021.97 -1.58669 -1.13182 0
M  V30 10666 H 1021.07 -1.63445 -2.6588 0
M  V30 10667 N 1021.37 1.14642 -1.08144 0
M  V30 10668 C 1022.78 1.6719 -0.830923 0
M  V30 10669 C 1023.13 1.85373 0.642749 0
M  V30 10670 O 1022.25 1.56293 1.49671 0
M  V30 10671 C 1022.85 3.03697 -1.50179 0
M  V30 10672 C 1021.41 3.5329 -1.29858 0
M  V30 10673 C 1020.56 2.28828 -1.5663 0
M  V30 10674 H 1023.51 0.987441 -1.24239 0
M  V30 10675 H 1023.53 3.69023 -0.9275 0
M  V30 10676 H 1023.04 2.90431 -2.57432 0
M  V30 10677 H 1021.14 3.71783 -0.246626 0
M  V30 10678 H 1021.25 4.34231 -2.02436 0
M  V30 10679 H 1019.62 2.34769 -0.987716 0
M  V30 10680 H 1020.4 2.18141 -2.65084 0
M  V30 10681 N 1022.85 0.866709 1.31628 0
M  V30 10682 C 1023.79 0.318169 2.28596 0
M  V30 10683 C 1024.76 -0.581558 1.55586 0
M  V30 10684 O 1025.95 -0.513895 1.83749 0
M  V30 10685 C 1023.09 -0.477137 3.41786 0
M  V30 10686 C 1022.2 0.449739 4.29653 0
M  V30 10687 C 1021.34 -0.359373 5.29983 0
M  V30 10688 C 1020.37 0.564138 6.09495 0
M  V30 10689 N 1019.51 -0.208526 7.0179 0
M  V30 10690 H 1024.35 1.15029 2.74904 0
M  V30 10691 H 1021.89 0.578649 1.35241 0
M  V30 10692 H 1023.85 -0.953985 4.06146 0
M  V30 10693 H 1022.48 -1.27398 2.96597 0
M  V30 10694 H 1021.53 1.04502 3.65764 0
M  V30 10695 H 1022.84 1.158 4.85172 0
M  V30 10696 H 1021.99 -0.89887 6.00004 0
M  V30 10697 H 1020.73 -1.10094 4.75111 0
M  V30 10698 H 1019.74 1.11542 5.38366 0
M  V30 10699 H 1020.96 1.30451 6.66453 0
M  V30 10700 H 1018.91 -0.932969 6.49332 0
M  V30 10701 H 1018.83 0.440463 7.54716 0
M  V30 10702 H 1020.09 -0.72936 7.7608 0
M  V30 10703 N 1024.32 -1.44642 0.625825 0
M  V30 10704 C 1025.27 -2.27762 -0.104042 0
M  V30 10705 C 1026.26 -1.38364 -0.821232 0
M  V30 10706 O 1027.45 -1.62214 -0.708213 0
M  V30 10707 C 1024.58 -3.25585 -1.08853 0
M  V30 10708 C 1023.66 -4.22472 -0.371241 0
M  V30 10709 N 1024.06 -5.02262 0.597226 0
M  V30 10710 C 1022.35 -4.4172 -0.616392 0
M  V30 10711 C 1023.05 -5.72678 1.02053 0
M  V30 10712 N 1022.03 -5.42404 0.360423 0
M  V30 10713 H 1025.83 -2.86858 0.639517 0
M  V30 10714 H 1023.35 -1.56015 0.450911 0
M  V30 10715 H 1025.34 -3.83885 -1.62597 0
M  V30 10716 H 1024 -2.68051 -1.83245 0
M  V30 10717 H 1025.01 -5.08643 0.974803 0
M  V30 10718 H 1021.69 -3.9529 -1.34359 0
M  V30 10719 H 1023.08 -6.46772 1.82033 0
M  V30 10720 N 1025.8 -0.366053 -1.5329 0
M  V30 10721 C 1027.05 0.224614 -2.00445 0
M  V30 10722 C 1027.36 1.49829 -1.2574 0
M  V30 10723 O 1028.57 2.16759 -1.63487 0
M  V30 10724 C 1027.03 0.450818 -3.57065 0
M  V30 10725 C 1026.63 -0.808257 -4.40649 0
M  V30 10726 C 1028.38 0.999116 -4.12575 0
M  V30 10727 C 1026.28 -0.551612 -5.88822 0
M  V30 10728 H 1025.21 0.0877114 -0.748881 0
M  V30 10729 H 1027.87 -0.484866 -1.76978 0
M  V30 10730 H 1026.25 1.22157 -3.76688 0
M  V30 10731 H 1027.42 -1.58184 -4.32798 0
M  V30 10732 H 1025.74 -1.27981 -3.96245 0
M  V30 10733 H 1028.33 1.20646 -5.20911 0
M  V30 10734 H 1028.68 1.96139 -3.67199 0
M  V30 10735 H 1029.21 0.288518 -3.96752 0
M  V30 10736 H 1025.95 -1.48423 -6.38475 0
M  V30 10737 H 1025.47 0.183462 -5.99519 0
M  V30 10738 H 1027.15 -0.177307 -6.46757 0
M  V30 10739 N 1027.28 1.57312 -0.0952337 0
M  V30 10740 C 1028.69 1.81589 0.433875 0
M  V30 10741 C 1029.04 1.01086 1.68155 0
M  V30 10742 O 1028.17 0.240272 2.15062 0
M  V30 10743 C 1028.76 3.29366 0.793931 0
M  V30 10744 C 1027.32 3.54407 1.26778 0
M  V30 10745 C 1026.47 2.76035 0.264518 0
M  V30 10746 H 1029.42 1.55426 -0.320675 0
M  V30 10747 H 1029.44 3.42697 1.65345 0
M  V30 10748 H 1028.95 3.87932 -0.114334 0
M  V30 10749 H 1027.05 3.01173 2.19376 0
M  V30 10750 H 1027.17 4.63055 1.22952 0
M  V30 10751 H 1025.53 2.43509 0.746691 0
M  V30 10752 H 1026.31 3.37349 -0.636429 0
M  V30 10753 N 1028.76 -0.17846 1.56586 0
M  V30 10754 C 1029.69 -1.22342 1.98884 0
M  V30 10755 C 1030.67 -1.46564 0.86331 0
M  V30 10756 O 1031.85 -1.58019 1.12887 0
M  V30 10757 C 1028.98 -2.56396 2.34261 0
M  V30 10758 C 1027.94 -2.46756 3.49708 0
M  V30 10759 C 1027.26 -3.85235 3.70807 0
M  V30 10760 C 1028.56 -1.97838 4.83381 0
M  V30 10761 H 1030.26 -0.871848 2.86425 0
M  V30 10762 H 1027.8 -0.417948 1.37801 0
M  V30 10763 H 1029.76 -3.29695 2.62448 0
M  V30 10764 H 1028.48 -2.93327 1.43621 0
M  V30 10765 H 1027.14 -1.75912 3.21637 0
M  V30 10766 H 1026.79 -4.19547 2.7747 0
M  V30 10767 H 1026.49 -3.79655 4.48481 0
M  V30 10768 H 1028.01 -4.60131 4.01387 0
M  V30 10769 H 1029.43 -2.60906 5.10491 0
M  V30 10770 H 1027.82 -2.03223 5.64642 0
M  V30 10771 H 1028.89 -0.932339 4.75852 0
M  V30 10772 N 1030.24 -1.51135 -0.446768 0
M  V30 10773 C 1031.17 -1.67949 -1.55967 0
M  V30 10774 C 1032.18 -0.560337 -1.52853 0
M  V30 10775 O 1033.37 -0.83435 -1.578 0
M  V30 10776 C 1030.47 -1.6703 -2.9488 0
M  V30 10777 C 1029.64 -2.95377 -3.22601 0
M  V30 10778 C 1028.7 -2.86772 -4.4119 0
M  V30 10779 O 1027.73 -3.60722 -4.40304 0
M  V30 10780 N 1028.93 -2.01979 -5.44228 0
M  V30 10781 H 1031.69 -2.63951 -1.41951 0
M  V30 10782 H 1029.26 -1.48903 -0.635569 0
M  V30 10783 H 1031.25 -1.58854 -3.7222 0
M  V30 10784 H 1029.82 -0.786623 -3.02541 0
M  V30 10785 H 1029.04 -3.17494 -2.33647 0
M  V30 10786 H 1030.33 -3.80356 -3.37945 0
M  V30 10787 H 1029.72 -1.41257 -5.4778 0
M  V30 10788 H 1028.28 -1.99689 -6.20457 0
M  V30 10789 N 1031.71 0.701592 -1.41122 0
M  V30 10790 C 1032.94 1.49049 -1.43499 0
M  V30 10791 C 1033.36 1.88761 -0.0385684 0
M  V30 10792 O 1032.71 1.56384 0.940755 0
M  V30 10793 C 1032.76 2.7569 -2.33832 0
M  V30 10794 O 1032.49 2.37653 -3.68039 0
M  V30 10795 C 1033.99 3.69479 -2.44949 0
M  V30 10796 H 1031.21 0.459519 -0.488961 0
M  V30 10797 H 1033.75 0.864318 -1.85337 0
M  V30 10798 H 1031.91 3.34559 -1.95318 0
M  V30 10799 H 1032.32 3.19241 -4.16156 0
M  V30 10800 H 1033.79 4.55139 -3.12334 0
M  V30 10801 H 1034.27 4.13553 -1.47887 0
M  V30 10802 H 1034.88 3.16517 -2.84072 0
M  V30 10803 N 1033.19 1.2685 0.935242 0
M  V30 10804 C 1034.12 1.1143 2.05196 0
M  V30 10805 C 1035.1 0.0178362 1.70091 0
M  V30 10806 O 1036.29 0.190951 1.93259 0
M  V30 10807 C 1033.42 0.752779 3.39044 0
M  V30 10808 C 1032.37 1.80164 3.88233 0
M  V30 10809 C 1031.7 1.29428 5.18799 0
M  V30 10810 C 1033 3.20431 4.12457 0
M  V30 10811 H 1034.69 2.04845 2.18355 0
M  V30 10812 H 1032.24 0.986276 1.04922 0
M  V30 10813 H 1034.19 0.631757 4.16637 0
M  V30 10814 H 1032.91 -0.217075 3.25878 0
M  V30 10815 H 1031.57 1.91144 3.12825 0
M  V30 10816 H 1031.22 0.3141 5.02018 0
M  V30 10817 H 1030.92 1.99546 5.5268 0
M  V30 10818 H 1032.45 1.18605 5.9897 0
M  V30 10819 H 1033.86 3.12495 4.80645 0
M  V30 10820 H 1032.26 3.88193 4.57631 0
M  V30 10821 H 1033.33 3.66046 3.18023 0
M  V30 10822 N 1034.67 -1.14067 1.0875 0
M  V30 10823 C 1035.6 -2.21385 0.74236 0
M  V30 10824 C 1036.58 -1.67833 -0.276805 0
M  V30 10825 O 1037.77 -1.93647 -0.1464 0
M  V30 10826 C 1034.9 -3.46956 0.154644 0
M  V30 10827 C 1033.85 -4.13555 1.10255 0
M  V30 10828 C 1033.18 -5.3337 0.376877 0
M  V30 10829 C 1034.48 -4.6169 2.44213 0
M  V30 10830 H 1036.17 -2.50512 1.63964 0
M  V30 10831 H 1033.72 -1.20408 0.789807 0
M  V30 10832 H 1035.67 -4.21284 -0.0988419 0
M  V30 10833 H 1034.39 -3.17203 -0.777789 0
M  V30 10834 H 1033.05 -3.41186 1.34119 0
M  V30 10835 H 1032.7 -4.99879 -0.559472 0
M  V30 10836 H 1032.4 -5.78875 1.00884 0
M  V30 10837 H 1033.92 -6.10458 0.131527 0
M  V30 10838 H 1035.34 -5.27475 2.24595 0
M  V30 10839 H 1033.74 -5.17909 3.03134 0
M  V30 10840 H 1034.81 -3.76574 3.05483 0
M  V30 10841 N 1036.15 -0.873678 -1.31166 0
M  V30 10842 C 1037.1 -0.330288 -2.28424 0
M  V30 10843 C 1038.07 0.573299 -1.55893 0
M  V30 10844 O 1039.25 0.504143 -1.84019 0
M  V30 10845 C 1036.39 0.459004 -3.42034 0
M  V30 10846 C 1035.5 -0.472519 -4.29408 0
M  V30 10847 C 1034.64 0.331261 -5.30166 0
M  V30 10848 C 1033.68 -0.596453 -6.09187 0
M  V30 10849 N 1032.81 0.171305 -7.01891 0
M  V30 10850 H 1037.65 -1.16485 -2.7429 0
M  V30 10851 H 1035.19 -0.585813 -1.34932 0
M  V30 10852 H 1037.15 0.932432 -4.06647 0
M  V30 10853 H 1035.78 1.25824 -2.97268 0
M  V30 10854 H 1034.83 -1.06441 -3.65205 0
M  V30 10855 H 1036.14 -1.18372 -4.84551 0
M  V30 10856 H 1035.3 0.867038 -6.00473 0
M  V30 10857 H 1034.04 1.07573 -4.75688 0
M  V30 10858 H 1033.04 -1.14395 -5.37767 0
M  V30 10859 H 1034.27 -1.33983 -6.65752 0
M  V30 10860 H 1032.21 0.89852 -6.49817 0
M  V30 10861 H 1032.13 -0.480481 -7.54472 0
M  V30 10862 H 1033.4 0.688192 -7.76456 0
M  V30 10863 N 1037.63 1.44308 -0.633487 0
M  V30 10864 C 1038.87 2.02023 -0.138917 0
M  V30 10865 C 1039.2 1.49841 1.24008 0
M  V30 10866 O 1038.46 0.673718 1.83738 0
M  V30 10867 C 1038.76 3.57316 -0.0773886 0
M  V30 10868 C 1038.42 4.28762 -1.39548 0
M  V30 10869 C 1037.08 4.47997 -1.75648 0
M  V30 10870 C 1039.44 4.69391 -2.26542 0
M  V30 10871 C 1036.76 5.05121 -2.98445 0
M  V30 10872 C 1039.12 5.27876 -3.48612 0
M  V30 10873 C 1037.78 5.45329 -3.84932 0
M  V30 10874 H 1037.05 0.739254 -0.0508333 0
M  V30 10875 H 1039.7 1.73043 -0.820271 0
M  V30 10876 H 1038 3.85724 0.687345 0
M  V30 10877 H 1039.7 3.99706 0.321837 0
M  V30 10878 H 1036.29 4.14122 -1.10456 0
M  V30 10879 H 1040.47 4.54241 -1.99946 0
M  V30 10880 H 1035.73 5.16821 -3.26658 0
M  V30 10881 H 1039.9 5.58307 -4.16253 0
M  V30 10882 H 1037.53 5.8936 -4.80166 0
M  V30 10883 N 1039.1 0.374177 1.53094 0
M  V30 10884 C 1040.04 -0.511995 2.22382 0
M  V30 10885 C 1041.02 -1.07617 1.2189 0
M  V30 10886 O 1042.2 -1.13068 1.50824 0
M  V30 10887 C 1039.33 -1.70724 2.92525 0
M  V30 10888 C 1038.37 -1.26972 4.07161 0
M  V30 10889 S 1039.21 -0.263835 5.3485 0
M  V30 10890 C 1040.36 -1.46521 6.08508 0
M  V30 10891 H 1040.59 0.0764311 2.97202 0
M  V30 10892 H 1038.13 0.158307 1.53586 0
M  V30 10893 H 1040.09 -2.39279 3.3355 0
M  V30 10894 H 1038.75 -2.26693 2.17414 0
M  V30 10895 H 1037.94 -2.16172 4.55286 0
M  V30 10896 H 1037.54 -0.663273 3.68072 0
M  V30 10897 H 1039.83 -2.39483 6.33762 0
M  V30 10898 H 1040.78 -1.02517 7.0064 0
M  V30 10899 H 1041.18 -1.67516 5.39072 0
M  V30 10900 N 1040.58 -1.57259 0.103575 0
M  V30 10901 C 1041.83 -1.94945 -0.558953 0
M  V30 10902 C 1042.16 -0.986038 -1.67305 0
M  V30 10903 O 1041.44 -0.0205464 -1.94489 0
M  V30 10904 C 1041.72 -3.42689 -1.10617 0
M  V30 10905 C 1041.57 -4.498 0.00345246 0
M  V30 10906 C 1042.89 -3.91933 -2.00191 0
M  V30 10907 H 1040.01 -0.708859 -0.201713 0
M  V30 10908 H 1042.65 -1.89183 0.176006 0
M  V30 10909 H 1040.8 -3.4773 -1.73251 0
M  V30 10910 H 1042.47 -4.56866 0.638082 0
M  V30 10911 H 1040.72 -4.28615 0.668705 0
M  V30 10912 H 1041.39 -5.50397 -0.420396 0
M  V30 10913 H 1043.86 -3.89098 -1.4745 0
M  V30 10914 H 1042.74 -4.9586 -2.35402 0
M  V30 10915 H 1043 -3.31722 -2.92255 0
M  V30 10916 N 1042.06 0.170153 -1.56679 0
M  V30 10917 C 1043.34 0.913938 -1.72935 0
M  V30 10918 C 1043.72 2.00342 -0.665293 0
M  V30 10919 O 1043.07 2.26252 0.319715 0
M  V30 10920 C 1043.28 1.47761 -3.16177 0
M  V30 10921 C 1044.62 1.95007 -3.7717 0
M  V30 10922 O 1045.65 1.57552 -3.19462 0
M  V30 10923 O 1044.51 2.64007 -4.78501 0
M  V30 10924 H 1041.6 0.43027 -0.706256 0
M  V30 10925 H 1044.15 0.157891 -1.68964 0
M  V30 10926 H 1042.92 0.69352 -3.85105 0
M  V30 10927 H 1042.54 2.2978 -3.24479 0
M  V30 10928 N 1043.54 1.5137 0.438746 0
M  V30 10929 C 1044.79 1.63202 1.18524 0
M  V30 10930 C 1045.1 0.353408 1.92381 0
M  V30 10931 O 1046.31 0.351086 2.6922 0
M  V30 10932 C 1044.76 2.88218 2.15542 0
M  V30 10933 C 1044.37 4.23078 1.47339 0
M  V30 10934 C 1046.11 3.09407 2.90633 0
M  V30 10935 C 1044.02 5.39246 2.42833 0
M  V30 10936 H 1042.95 0.607864 0.446114 0
M  V30 10937 H 1045.6 1.77835 0.452421 0
M  V30 10938 H 1043.98 2.67216 2.92253 0
M  V30 10939 H 1045.16 4.54457 0.761964 0
M  V30 10940 H 1043.47 4.07755 0.844065 0
M  V30 10941 H 1046.07 3.9337 3.62165 0
M  V30 10942 H 1046.41 2.22428 3.51897 0
M  V30 10943 H 1046.95 3.30743 2.21029 0
M  V30 10944 H 1043.69 6.2848 1.8626 0
M  V30 10945 H 1043.21 5.12245 3.12034 0
M  V30 10946 H 1044.88 5.71137 3.03992 0
M  V30 10947 N 1045.02 -0.694098 1.41492 0
M  V30 10948 C 1045.98 -1.78976 1.43179 0
M  V30 10949 C 1046.98 -1.57539 0.322191 0
M  V30 10950 O 1048.17 -1.64185 0.582138 0
M  V30 10951 C 1045.3 -3.17368 1.2446 0
M  V30 10952 H 1046.49 -1.78874 2.40716 0
M  V30 10953 H 1044.05 -0.901867 1.27656 0
M  V30 10954 H 1044.78 -3.23109 0.277691 0
M  V30 10955 H 1044.57 -3.3433 2.04856 0
M  V30 10956 H 1046.06 -3.97345 1.28479 0
M  V30 10957 N 1046.49 -1.27344 -0.928501 0
M  V30 10958 C 1047.42 -1.12517 -2.04602 0
M  V30 10959 C 1048.41 -0.0268563 -1.70079 0
M  V30 10960 O 1049.59 -0.201197 -1.93155 0
M  V30 10961 C 1046.72 -0.770749 -3.3864 0
M  V30 10962 C 1045.67 -1.8222 -3.87272 0
M  V30 10963 C 1045 -1.32178 -5.18105 0
M  V30 10964 C 1046.3 -3.22614 -4.10752 0
M  V30 10965 H 1047.99 -2.06 -2.17265 0
M  V30 10966 H 1045.54 -0.991827 -1.04397 0
M  V30 10967 H 1047.49 -0.653843 -4.16297 0
M  V30 10968 H 1046.22 0.19979 -3.25988 0
M  V30 10969 H 1044.88 -1.928 -3.11807 0
M  V30 10970 H 1044.52 -0.340719 -5.01845 0
M  V30 10971 H 1044.22 -2.02474 -5.51614 0
M  V30 10972 H 1045.75 -1.2178 -5.98333 0
M  V30 10973 H 1047.16 -3.1504 -4.78981 0
M  V30 10974 H 1045.56 -3.90614 -4.55566 0
M  V30 10975 H 1046.63 -3.67727 -3.16077 0
M  V30 10976 N 1047.97 1.13488 -1.09353 0
M  V30 10977 C 1049.22 1.84383 -0.827488 0
M  V30 10978 C 1049.54 1.83892 0.648745 0
M  V30 10979 O 1048.81 1.29415 1.47066 0
M  V30 10980 H 1047.39 0.682732 -0.303127 0
M  V30 10981 H 1050.05 1.37477 -1.38152 0
M  V30 10982 H 1049.15 2.88919 -1.18035 0
M  V30 10983 N 1049.45 0.880621 1.30701 0
M  V30 10984 C 1050.38 0.288813 2.26365 0
M  V30 10985 C 1051.36 -0.588135 1.51591 0
M  V30 10986 O 1052.55 -0.539197 1.80624 0
M  V30 10987 C 1049.67 -0.590032 3.33521 0
M  V30 10988 C 1048.72 0.217003 4.25948 0
M  V30 10989 S 1049.55 1.60246 5.10961 0
M  V30 10990 C 1050.71 0.730023 6.21628 0
M  V30 10991 H 1050.94 1.09971 2.76213 0
M  V30 10992 H 1048.47 0.67978 1.3863 0
M  V30 10993 H 1050.43 -1.09136 3.95727 0
M  V30 10994 H 1049.09 -1.37498 2.82406 0
M  V30 10995 H 1048.29 -0.453481 5.01956 0
M  V30 10996 H 1047.89 0.650803 3.68294 0
M  V30 10997 H 1050.18 -0.0548644 6.77478 0
M  V30 10998 H 1051.12 1.46157 6.92852 0
M  V30 10999 H 1051.53 0.292854 5.6374 0
M  V30 11000 N 1050.93 -1.4397 0.641131 0
M  V30 11001 C 1051.84 -2.34526 -0.058742 0
M  V30 11002 C 1052.86 -1.53194 -0.825088 0
M  V30 11003 O 1054.03 -1.85888 -0.775081 0
M  V30 11004 C 1051.1 -3.31313 -1.02139 0
M  V30 11005 C 1050.16 -4.28552 -0.253319 0
M  V30 11006 C 1049.39 -5.20715 -1.17012 0
M  V30 11007 O 1049.61 -5.17028 -2.40911 0
M  V30 11008 O 1048.55 -5.9839 -0.649039 0
M  V30 11009 H 1052.37 -2.95843 0.686329 0
M  V30 11010 H 1049.96 -1.43909 0.401316 0
M  V30 11011 H 1051.84 -3.90862 -1.57496 0
M  V30 11012 H 1050.52 -2.72516 -1.7469 0
M  V30 11013 H 1049.42 -3.72519 0.343531 0
M  V30 11014 H 1050.76 -4.90297 0.432372 0
M  V30 11015 N 1052.41 -0.382291 -1.52893 0
M  V30 11016 C 1053.64 0.202114 -2.05609 0
M  V30 11017 C 1054.05 1.4164 -1.25438 0
M  V30 11018 O 1053.39 1.81359 -0.292324 0
M  V30 11019 C 1053.45 0.64356 -3.53693 0
M  V30 11020 C 1053.11 -0.456305 -4.54716 0
M  V30 11021 C 1054.11 -1.3115 -5.03086 0
M  V30 11022 C 1051.8 -0.621329 -4.98442 0
M  V30 11023 C 1053.79 -2.3169 -5.938 0
M  V30 11024 C 1051.48 -1.63008 -5.88958 0
M  V30 11025 C 1052.48 -2.47629 -6.36529 0
M  V30 11026 O 1052.16 -3.46781 -7.25257 0
M  V30 11027 H 1051.9 0.0358014 -0.675051 0
M  V30 11028 H 1054.45 -0.543935 -1.98067 0
M  V30 11029 H 1052.68 1.44148 -3.58829 0
M  V30 11030 H 1054.37 1.15284 -3.89184 0
M  V30 11031 H 1055.13 -1.19528 -4.70041 0
M  V30 11032 H 1051.01 0.027593 -4.60992 0
M  V30 11033 H 1054.56 -2.97776 -6.30853 0
M  V30 11034 H 1050.45 -1.74671 -6.21418 0
M  V30 11035 H 1051.22 -3.42707 -7.433 0
M  V30 11036 N 1053.89 1.57202 -0.111913 0
M  V30 11037 C 1054.82 2.17957 0.837683 0
M  V30 11038 C 1055.8 1.1176 1.28233 0
M  V30 11039 O 1056.98 1.39967 1.34621 0
M  V30 11040 C 1054.11 2.77333 2.09054 0
M  V30 11041 C 1053.07 3.8905 1.78393 0
M  V30 11042 C 1052.39 4.35203 3.10649 0
M  V30 11043 C 1053.69 5.11477 1.05775 0
M  V30 11044 H 1055.39 2.9756 0.331441 0
M  V30 11045 H 1052.93 1.43131 0.157979 0
M  V30 11046 H 1054.88 3.18492 2.75936 0
M  V30 11047 H 1053.61 1.95009 2.6199 0
M  V30 11048 H 1052.27 3.48456 1.13903 0
M  V30 11049 H 1051.92 3.49747 3.61506 0
M  V30 11050 H 1051.62 5.10534 2.9091 0
M  V30 11051 H 1053.14 4.79007 3.78661 0
M  V30 11052 H 1054.55 5.497 1.62798 0
M  V30 11053 H 1052.95 5.92346 0.961573 0
M  V30 11054 H 1054.02 4.84881 0.043297 0
M  V30 11055 N 1055.36 -0.161842 1.56767 0
M  V30 11056 C 1056.59 -0.896274 1.87034 0
M  V30 11057 C 1057.01 -1.74617 0.699314 0
M  V30 11058 O 1056.37 -1.77861 -0.351435 0
M  V30 11059 C 1056.42 -1.74105 3.15784 0
M  V30 11060 O 1055.52 -2.84372 2.98674 0
M  V30 11061 H 1054.86 -0.250523 0.614926 0
M  V30 11062 H 1057.39 -0.157127 2.03996 0
M  V30 11063 H 1057.4 -2.13907 3.4743 0
M  V30 11064 H 1056.08 -1.11684 4.00624 0
M  V30 11065 H 1054.66 -2.48084 2.78404 0
M  V30 11066 N 1056.84 -1.516 -0.430713 0
M  V30 11067 C 1057.79 -1.73975 -1.54387 0
M  V30 11068 C 1058.78 -0.606222 -1.58181 0
M  V30 11069 O 1059.99 -0.787764 -1.61846 0
M  V30 11070 H 1056.36 -0.549811 -0.513041 0
M  V30 11071 H 1058.34 -2.67274 -1.32692 0
M  V30 11072 C 1057.08 -1.88794 -2.9198 0
M  V30 11073 H 1056.41 -2.75425 -2.89795 0
M  V30 11074 H 1057.85 -2.08458 -3.69217 0
M  V30 11075 C 1056.31 -0.649427 -3.30581 0
M  V30 11076 O 1056.84 0.192823 -4.01237 0
M  V30 11077 N 1055.04 -0.491586 -2.86412 0
M  V30 11078 H 1054.59 -1.17806 -2.29084 0
M  V30 11079 H 1054.55 0.33583 -3.12601 0
M  V30 11080 N 1058.32 0.686584 -1.41858 0
M  V30 11081 C 1059.74 0.998283 -1.24525 0
M  V30 11082 C 1059.94 2.01006 -0.141007 0
M  V30 11083 O 1058.99 2.47667 0.491648 0
M  V30 11084 C 1060.3 1.51432 -2.59786 0
M  V30 11085 C 1061.85 1.6327 -2.67043 0
M  V30 11086 C 1062.33 2.18274 -4.02642 0
M  V30 11087 N 1063.82 2.25622 -4.04535 0
M  V30 11088 C 1064.55 2.69229 -5.06264 0
M  V30 11089 N 1064.05 3.12375 -6.1838 0
M  V30 11090 N 1065.84 2.68873 -4.93623 0
M  V30 11091 H 1057.99 0.0164825 -2.12394 0
M  V30 11092 H 1060.26 0.0698613 -0.945422 0
M  V30 11093 H 1059.96 0.845426 -3.41388 0
M  V30 11094 H 1059.84 2.49502 -2.82894 0
M  V30 11095 H 1062.22 2.29269 -1.85794 0
M  V30 11096 H 1062.3 0.637221 -2.47736 0
M  V30 11097 H 1061.95 1.52887 -4.84343 0
M  V30 11098 H 1061.88 3.18591 -4.19294 0
M  V30 11099 H 1064.37 1.95186 -3.23591 0
M  V30 11100 H 1064.68 3.44301 -6.91864 0
M  V30 11101 H 1063.03 3.10262 -6.21902 0
M  V30 11102 H 1066.22 2.34521 -4.05114 0
M  V30 11103 H 1066.39 3.02539 -5.7304 0
M  V30 11104 N 1059.8 1.27835 0.921735 0
M  V30 11105 C 1060.75 1.1092 2.04449 0
M  V30 11106 C 1061.74 0.0306469 1.69372 0
M  V30 11107 O 1062.95 0.188818 1.79007 0
M  V30 11108 H 1059.32 0.341973 0.669745 0
M  V30 11109 H 1061.29 2.06026 2.1586 0
M  V30 11110 C 1060.04 0.779443 3.38851 0
M  V30 11111 H 1059.36 1.60131 3.66331 0
M  V30 11112 H 1060.8 0.700999 4.18165 0
M  V30 11113 C 1059.26 -0.51647 3.32918 0
M  V30 11114 O 1059.79 -1.54914 3.70627 0
M  V30 11115 N 1058 -0.514276 2.86013 0
M  V30 11116 H 1057.55 0.32651 2.55522 0
M  V30 11117 H 1057.5 -1.38141 2.82426 0
M  V30 11118 N 1061.28 -1.12907 1.09954 0
M  V30 11119 C 1062.52 -1.84306 0.838912 0
M  V30 11120 C 1062.85 -1.83825 -0.635508 0
M  V30 11121 O 1062.11 -1.27556 -1.48418 0
M  V30 11122 C 1062.4 -3.31885 1.32616 0
M  V30 11123 C 1062.07 -3.52542 2.81114 0
M  V30 11124 C 1060.73 -3.57888 3.21667 0
M  V30 11125 C 1063.08 -3.60065 3.76833 0
M  V30 11126 C 1060.41 -3.68296 4.567 0
M  V30 11127 C 1062.76 -3.72001 5.11662 0
M  V30 11128 C 1061.43 -3.75602 5.51797 0
M  V30 11129 H 1060.7 -0.674422 0.30698 0
M  V30 11130 H 1063.35 -1.33261 1.37527 0
M  V30 11131 H 1061.65 -3.85318 0.709719 0
M  V30 11132 H 1063.35 -3.85588 1.10105 0
M  V30 11133 H 1059.94 -3.4904 2.48735 0
M  V30 11134 H 1064.12 -3.55209 3.46612 0
M  V30 11135 H 1059.38 -3.69352 4.87226 0
M  V30 11136 H 1063.55 -3.76765 5.8568 0
M  V30 11137 H 1061.18 -3.83419 6.56425 0
M  V30 11138 N 1062.75 -0.88754 -1.30232 0
M  V30 11139 C 1063.68 -0.372481 -2.3051 0
M  V30 11140 C 1064.66 0.546037 -1.61098 0
M  V30 11141 O 1065.85 0.459345 -1.88689 0
M  V30 11142 C 1062.98 0.411605 -3.44852 0
M  V30 11143 C 1061.93 -0.415383 -4.2598 0
M  V30 11144 C 1061.26 0.495463 -5.324 0
M  V30 11145 C 1062.56 -1.65886 -4.95257 0
M  V30 11146 H 1064.25 -1.21045 -2.7384 0
M  V30 11147 H 1061.8 -0.583498 -1.31648 0
M  V30 11148 H 1063.75 0.782584 -4.1407 0
M  V30 11149 H 1062.48 1.28325 -3.00334 0
M  V30 11150 H 1061.14 -0.768534 -3.58454 0
M  V30 11151 H 1060.78 1.36489 -4.84128 0
M  V30 11152 H 1060.48 -0.0540885 -5.87575 0
M  V30 11153 H 1062.01 0.862901 -6.04472 0
M  V30 11154 H 1063.42 -1.35832 -5.56976 0
M  V30 11155 H 1061.82 -2.14881 -5.60309 0
M  V30 11156 H 1062.89 -2.40181 -4.21237 0
M  V30 11157 N 1064.23 1.43628 -0.648757 0
M  V30 11158 C 1065.18 2.27899 0.0677939 0
M  V30 11159 C 1066.17 1.39653 0.799115 0
M  V30 11160 O 1067.36 1.6332 0.682317 0
M  V30 11161 C 1064.49 3.27276 1.0366 0
M  V30 11162 C 1063.57 4.23009 0.303982 0
M  V30 11163 N 1063.96 5.01248 -0.677056 0
M  V30 11164 C 1062.26 4.42645 0.546041 0
M  V30 11165 C 1062.96 5.70982 -1.11151 0
M  V30 11166 N 1061.94 5.41762 -0.446669 0
M  V30 11167 H 1065.74 2.85804 -0.685073 0
M  V30 11168 H 1063.26 1.55277 -0.475674 0
M  V30 11169 H 1065.25 3.86423 1.5647 0
M  V30 11170 H 1063.91 2.70932 1.78958 0
M  V30 11171 H 1064.92 5.07028 -1.0556 0
M  V30 11172 H 1061.6 3.97377 1.28053 0
M  V30 11173 H 1062.99 6.43794 -1.923 0
M  V30 11174 N 1065.71 0.390394 1.52688 0
M  V30 11175 C 1067.13 0.0404028 1.59549 0
M  V30 11176 C 1067.33 -1.44503 1.40432 0
M  V30 11177 O 1066.38 -2.20968 1.22187 0
M  V30 11178 C 1067.7 0.518561 2.96195 0
M  V30 11179 C 1069.24 0.474913 3.09376 0
M  V30 11180 C 1069.72 0.929278 4.48473 0
M  V30 11181 N 1071.21 0.885335 4.5466 0
M  V30 11182 C 1071.94 1.2083 5.60524 0
M  V30 11183 N 1071.44 1.6018 6.74028 0
M  V30 11184 N 1073.23 1.12949 5.50635 0
M  V30 11185 H 1065.38 1.35743 1.63363 0
M  V30 11186 H 1067.65 0.556453 0.767505 0
M  V30 11187 H 1067.35 1.55606 3.15404 0
M  V30 11188 H 1067.23 -0.081779 3.77111 0
M  V30 11189 H 1069.61 -0.553503 2.89863 0
M  V30 11190 H 1069.7 1.11107 2.3041 0
M  V30 11191 H 1069.34 1.95593 4.68728 0
M  V30 11192 H 1069.27 0.270121 5.25907 0
M  V30 11193 H 1071.76 0.595787 3.73174 0
M  V30 11194 H 1072.07 1.83184 7.50775 0
M  V30 11195 H 1070.42 1.64067 6.75357 0
M  V30 11196 H 1073.61 0.821074 4.60843 0
M  V30 11197 H 1073.78 1.3845 6.33037 0
M  V30 11198 N 1067.19 -1.57141 0.120249 0
M  V30 11199 C 1068.47 -1.8677 -0.581075 0
M  V30 11200 C 1068.85 -1.02163 -1.84732 0
M  V30 11201 O 1068.19 -0.100897 -2.28277 0
M  V30 11202 C 1068.4 -3.37923 -0.872316 0
M  V30 11203 C 1069.75 -4.0655 -1.22483 0
M  V30 11204 O 1070.78 -3.42948 -0.962539 0
M  V30 11205 O 1069.63 -5.18821 -1.71717 0
M  V30 11206 H 1066.73 -0.773219 -0.293362 0
M  V30 11207 H 1069.27 -1.68992 0.154846 0
M  V30 11208 H 1068.05 -3.91292 0.0249416 0
M  V30 11209 H 1067.67 -3.61135 -1.66335 0
M  V30 11210 N 1068.67 0.153526 -1.5685 0
M  V30 11211 C 1069.6 1.19162 -2.00805 0
M  V30 11212 C 1070.58 1.45172 -0.886518 0
M  V30 11213 O 1071.76 1.56203 -1.15387 0
M  V30 11214 C 1068.89 2.52637 -2.38311 0
M  V30 11215 C 1067.85 2.41161 -3.53589 0
M  V30 11216 C 1067.17 3.79287 -3.76889 0
M  V30 11217 C 1068.47 1.90122 -4.86468 0
M  V30 11218 H 1070.17 0.82617 -2.87776 0
M  V30 11219 H 1067.71 0.395972 -1.38449 0
M  V30 11220 H 1069.67 3.25478 -2.6766 0
M  V30 11221 H 1068.39 2.91005 -1.4827 0
M  V30 11222 H 1067.05 1.70772 -3.24395 0
M  V30 11223 H 1066.7 4.15079 -2.84109 0
M  V30 11224 H 1066.4 3.72472 -4.54465 0
M  V30 11225 H 1067.92 4.53687 -4.08657 0
M  V30 11226 H 1069.33 2.52752 -5.14577 0
M  V30 11227 H 1067.73 1.94214 -5.67804 0
M  V30 11228 H 1068.8 0.856517 -4.77275 0
M  V30 11229 N 1070.14 1.51827 0.422667 0
M  V30 11230 C 1071.11 1.7359 1.49663 0
M  V30 11231 C 1072.11 0.605811 1.48952 0
M  V30 11232 O 1073.3 0.87354 1.50715 0
M  V30 11233 C 1070.43 1.80585 2.8914 0
M  V30 11234 H 1071.62 2.69453 1.31664 0
M  V30 11235 H 1069.18 1.42038 0.652298 0
M  V30 11236 H 1069.91 0.865895 3.12526 0
M  V30 11237 H 1069.7 2.62729 2.9106 0
M  V30 11238 H 1071.19 1.99212 3.67021 0
M  V30 11239 N 1071.62 -0.679052 1.4222 0
M  V30 11240 C 1072.59 -1.77448 1.45069 0
M  V30 11241 C 1073.59 -1.57189 0.338882 0
M  V30 11242 O 1074.78 -1.63559 0.599519 0
M  V30 11243 C 1071.91 -3.1603 1.27819 0
M  V30 11244 H 1073.1 -1.7631 2.426 0
M  V30 11245 H 1070.65 -0.888277 1.28605 0
M  V30 11246 H 1071.39 -3.22796 0.311946 0
M  V30 11247 H 1071.17 -3.32138 2.08391 0
M  V30 11248 H 1072.66 -3.9596 1.32686 0
M  V30 11249 N 1073.1 -1.28322 -0.914942 0
M  V30 11250 C 1074.52 -1.06003 -1.19313 0
M  V30 11251 C 1074.72 0.198366 -2.00521 0
M  V30 11252 O 1073.77 0.900364 -2.35902 0
M  V30 11253 C 1075.09 -2.30684 -1.92887 0
M  V30 11254 C 1076.63 -2.35851 -2.05775 0
M  V30 11255 C 1077.11 -3.60295 -2.82757 0
M  V30 11256 N 1078.6 -3.60928 -2.9032 0
M  V30 11257 C 1079.33 -4.53894 -3.50383 0
M  V30 11258 N 1078.83 -5.57178 -4.11734 0
M  V30 11259 N 1080.62 -4.41492 -3.4791 0
M  V30 11260 H 1072.77 -2.09104 -0.372735 0
M  V30 11261 H 1075.04 -0.920285 -0.227552 0
M  V30 11262 H 1074.74 -3.22355 -1.40643 0
M  V30 11263 H 1074.62 -2.37003 -2.93444 0
M  V30 11264 H 1077 -1.44678 -2.57201 0
M  V30 11265 H 1077.09 -2.33526 -1.04399 0
M  V30 11266 H 1076.73 -4.51811 -2.32011 0
M  V30 11267 H 1076.66 -3.59873 -3.84446 0
M  V30 11268 H 1079.15 -2.8624 -2.46729 0
M  V30 11269 H 1079.46 -6.24261 -4.55541 0
M  V30 11270 H 1077.81 -5.61005 -4.10242 0
M  V30 11271 H 1081 -3.60005 -2.99189 0
M  V30 11272 H 1081.17 -5.14132 -3.94427 0
M  V30 11273 N 1074.58 1.12322 -1.10551 0
M  V30 11274 C 1075.53 2.20166 -0.750317 0
M  V30 11275 C 1076.52 1.67484 0.254066 0
M  V30 11276 O 1077.73 1.79637 0.114309 0
M  V30 11277 H 1074.1 0.717642 -0.22471 0
M  V30 11278 H 1076.07 2.47378 -1.66873 0
M  V30 11279 C 1074.82 3.47126 -0.199651 0
M  V30 11280 H 1074.14 3.88011 -0.963735 0
M  V30 11281 H 1075.58 4.23999 0.0108033 0
M  V30 11282 C 1074.04 3.19526 1.06792 0
M  V30 11283 O 1074.57 3.39368 2.14923 0
M  V30 11284 N 1072.78 2.73324 0.987032 0
M  V30 11285 H 1072.33 2.57378 0.106997 0
M  V30 11286 H 1072.28 2.55234 1.83584 0
M  V30 11287 N 1076.06 0.894434 1.2976 0
M  V30 11288 C 1077.3 0.524501 1.97556 0
M  V30 11289 C 1077.66 -0.911202 1.69 0
M  V30 11290 O 1078.86 -1.38774 2.30207 0
M  V30 11291 C 1077.13 0.802636 3.48271 0
M  V30 11292 S 1078.69 0.536223 4.35511 0
M  V30 11293 H 1075.51 0.194786 0.683798 0
M  V30 11294 H 1078.11 1.15574 1.5768 0
M  V30 11295 H 1076.82 1.84586 3.66546 0
M  V30 11296 H 1076.35 0.159316 3.93077 0
M  V30 11297 H 1078.36 -0.621056 4.92298 0
M  V30 11298 N 1077.53 -1.43282 0.656365 0
M  V30 11299 C 1078.47 -2.28049 -0.083127 0
M  V30 11300 C 1079.45 -1.40009 -0.826812 0
M  V30 11301 O 1080.63 -1.69452 -0.825736 0
M  V30 11302 C 1077.76 -3.19487 -1.12452 0
M  V30 11303 C 1076.8 -4.23807 -0.478527 0
M  V30 11304 S 1077.64 -5.30218 0.750248 0
M  V30 11305 C 1078.79 -6.25225 -0.290534 0
M  V30 11306 H 1079.02 -2.90419 0.635922 0
M  V30 11307 H 1076.56 -1.47839 0.445303 0
M  V30 11308 H 1078.52 -3.72713 -1.72034 0
M  V30 11309 H 1077.18 -2.56288 -1.81591 0
M  V30 11310 H 1076.37 -4.87901 -1.26368 0
M  V30 11311 H 1075.97 -3.73975 0.043251 0
M  V30 11312 H 1078.26 -6.67568 -1.15579 0
M  V30 11313 H 1079.21 -7.07397 0.315458 0
M  V30 11314 H 1079.61 -5.60999 -0.627751 0
M  V30 11315 N 1079.01 -0.398486 -1.52479 0
M  V30 11316 C 1079.94 0.423498 -2.29627 0
M  V30 11317 C 1080.92 1.05547 -1.33394 0
M  V30 11318 O 1082.11 1.0665 -1.62294 0
M  V30 11319 C 1079.24 1.54612 -3.10986 0
M  V30 11320 C 1078.19 1.03971 -4.15179 0
M  V30 11321 C 1077.52 2.25512 -4.84818 0
M  V30 11322 C 1078.82 0.10121 -5.22202 0
M  V30 11323 H 1080.51 -0.220222 -2.98589 0
M  V30 11324 H 1078.06 -0.107355 -1.43599 0
M  V30 11325 H 1080.01 2.12806 -3.63719 0
M  V30 11326 H 1078.74 2.21756 -2.39774 0
M  V30 11327 H 1077.4 0.480251 -3.63441 0
M  V30 11328 H 1077.04 2.91187 -4.10145 0
M  V30 11329 H 1076.74 1.92285 -5.55248 0
M  V30 11330 H 1078.27 2.84331 -5.40359 0
M  V30 11331 H 1079.68 0.591617 -5.70239 0
M  V30 11332 H 1078.08 -0.141737 -5.99933 0
M  V30 11333 H 1079.15 -0.847216 -4.77441 0
M  V30 11334 N 1080.49 1.57075 -0.12858 0
M  V30 11335 C 1081.91 1.57964 0.227961 0
M  V30 11336 C 1082.11 1.14186 1.66023 0
M  V30 11337 O 1081.16 0.833655 2.38341 0
M  V30 11338 C 1082.48 3.00697 -0.0140648 0
M  V30 11339 C 1084.02 3.12958 0.0510876 0
M  V30 11340 C 1084.5 4.57709 -0.163368 0
M  V30 11341 N 1085.99 4.6307 -0.109663 0
M  V30 11342 C 1086.73 5.72853 -0.250366 0
M  V30 11343 N 1086.22 6.91351 -0.447772 0
M  V30 11344 N 1088.01 5.61781 -0.189265 0
M  V30 11345 H 1080.17 1.83829 -1.06398 0
M  V30 11346 H 1082.43 0.850014 -0.419739 0
M  V30 11347 H 1082.13 3.37047 -1.00461 0
M  V30 11348 H 1082.01 3.70389 0.713571 0
M  V30 11349 H 1084.4 2.7646 1.03216 0
M  V30 11350 H 1084.48 2.4579 -0.708583 0
M  V30 11351 H 1084.12 4.94907 -1.14146 0
M  V30 11352 H 1084.05 5.2298 0.616405 0
M  V30 11353 H 1086.54 3.7788 0.0390086 0
M  V30 11354 H 1086.85 7.70871 -0.54574 0
M  V30 11355 H 1085.2 6.93314 -0.483866 0
M  V30 11356 H 1088.39 4.68086 -0.0359374 0
M  V30 11357 H 1088.56 6.47294 -0.302359 0
M  V30 11358 N 1081.97 -0.145205 1.5693 0
M  V30 11359 C 1083.25 -0.88631 1.74367 0
M  V30 11360 C 1083.63 -1.99259 0.697081 0
M  V30 11361 O 1082.97 -2.26732 -0.28368 0
M  V30 11362 C 1083.18 -1.42712 3.18488 0
M  V30 11363 C 1084.53 -1.88982 3.80225 0
M  V30 11364 O 1085.56 -1.5245 3.21928 0
M  V30 11365 O 1084.42 -2.56361 4.8264 0
M  V30 11366 H 1081.51 -0.418979 0.713011 0
M  V30 11367 H 1084.06 -0.130991 1.69194 0
M  V30 11368 H 1082.83 -0.632165 3.8616 0
M  V30 11369 H 1082.45 -2.24589 3.28094 0
M  V30 11370 N 1083.45 -1.52049 -0.414609 0
M  V30 11371 C 1084.72 -1.56397 -1.17471 0
M  V30 11372 C 1085.1 -0.34171 -2.08316 0
M  V30 11373 O 1084.45 0.6718 -2.18401 0
M  V30 11374 C 1084.66 -2.88983 -1.95678 0
M  V30 11375 C 1086.01 -3.41781 -2.51935 0
M  V30 11376 O 1087.03 -2.90686 -2.05865 0
M  V30 11377 O 1085.89 -4.30989 -3.36022 0
M  V30 11378 H 1082.99 -0.62974 -0.536056 0
M  V30 11379 H 1085.53 -1.64374 -0.421834 0
M  V30 11380 H 1084.31 -3.69392 -1.29094 0
M  V30 11381 H 1083.93 -2.84274 -2.77983 0
M  V30 11382 N 1084.93 0.6715 -1.42579 0
M  V30 11383 C 1085.86 1.79625 -1.40749 0
M  V30 11384 C 1086.84 1.6032 -0.271312 0
M  V30 11385 O 1088.02 1.82749 -0.46205 0
M  V30 11386 C 1085.15 3.16672 -1.20153 0
M  V30 11387 C 1084.19 3.54718 -2.36807 0
M  V30 11388 S 1085.03 3.56771 -3.99343 0
M  V30 11389 C 1086.18 4.96505 -3.81095 0
M  V30 11390 H 1086.42 1.80903 -2.35926 0
M  V30 11391 H 1083.95 0.842469 -1.2939 0
M  V30 11392 H 1085.91 3.95776 -1.08956 0
M  V30 11393 H 1084.57 3.12976 -0.265545 0
M  V30 11394 H 1083.76 4.54341 -2.18152 0
M  V30 11395 H 1083.36 2.82982 -2.44535 0
M  V30 11396 H 1085.65 5.84674 -3.4229 0
M  V30 11397 H 1086.6 5.20207 -4.80406 0
M  V30 11398 H 1087.01 4.69178 -3.13898 0
M  V30 11399 N 1086.4 1.28806 0.908124 0
M  V30 11400 C 1087.63 1.19153 1.69146 0
M  V30 11401 C 1088.05 -0.249056 1.8715 0
M  V30 11402 O 1087.4 -1.16772 1.40251 0
M  V30 11403 C 1087.45 1.89167 3.08055 0
M  V30 11404 O 1087.18 3.27599 2.90879 0
M  V30 11405 C 1088.68 1.85886 4.02444 0
M  V30 11406 H 1085.9 0.413359 0.528559 0
M  V30 11407 H 1088.44 1.7003 1.13622 0
M  V30 11408 H 1086.6 1.42146 3.60379 0
M  V30 11409 H 1087.01 3.62743 3.78837 0
M  V30 11410 H 1088.48 2.39454 4.97359 0
M  V30 11411 H 1088.96 0.832483 4.31238 0
M  V30 11412 H 1089.57 2.32612 3.5605 0
M  V30 11413 N 1087.88 -1.11734 1.11145 0
M  V30 11414 C 1089.13 -1.83677 0.859684 0
M  V30 11415 C 1089.46 -1.84265 -0.613182 0
M  V30 11416 O 1088.74 -1.29351 -1.45254 0
M  V30 11417 C 1089.02 -3.31003 1.41805 0
M  V30 11418 C 1088.87 -3.38827 2.95831 0
M  V30 11419 C 1090.19 -4.26984 1.06645 0
M  V30 11420 H 1087.31 -0.666879 0.313754 0
M  V30 11421 H 1089.95 -1.31038 1.37583 0
M  V30 11422 H 1088.1 -3.75961 0.979054 0
M  V30 11423 H 1089.77 -3.02451 3.48312 0
M  V30 11424 H 1088.02 -2.79143 3.32056 0
M  V30 11425 H 1088.69 -4.42508 3.29986 0
M  V30 11426 H 1091.16 -3.9019 1.44537 0
M  V30 11427 H 1090.04 -5.2846 1.48394 0
M  V30 11428 H 1090.3 -4.42094 -0.0231866 0
M  V30 11429 N 1089.36 -0.901303 -1.29284 0
M  V30 11430 C 1090.6 -0.534971 -1.97275 0
M  V30 11431 C 1090.96 0.902226 -1.69481 0
M  V30 11432 O 1092.16 1.37551 -2.3094 0
M  V30 11433 C 1090.44 -0.821095 -3.4784 0
M  V30 11434 S 1091.99 -0.559312 -4.35221 0
M  V30 11435 H 1088.81 -0.198409 -0.682755 0
M  V30 11436 H 1091.41 -1.16408 -1.57065 0
M  V30 11437 H 1090.12 -1.86527 -3.65562 0
M  V30 11438 H 1089.65 -0.18016 -3.92987 0
M  V30 11439 H 1091.66 0.59494 -4.9262 0
M  V30 11440 N 1090.84 1.42931 -0.663954 0
M  V30 11441 C 1092.08 2.01982 -0.182007 0
M  V30 11442 C 1092.42 1.52323 1.20463 0
M  V30 11443 O 1091.69 0.720834 1.80649 0
M  V30 11444 C 1091.97 3.59518 -0.204671 0
M  V30 11445 C 1091.83 4.19382 -1.62599 0
M  V30 11446 C 1093.15 4.37762 0.45308 0
M  V30 11447 H 1090.27 0.733892 -0.0676115 0
M  V30 11448 H 1092.91 1.70092 -0.84668 0
M  V30 11449 H 1091.06 3.86816 0.361295 0
M  V30 11450 H 1092.73 4.03076 -2.24337 0
M  V30 11451 H 1090.97 3.75623 -2.17001 0
M  V30 11452 H 1091.64 5.28496 -1.59362 0
M  V30 11453 H 1094.12 4.1609 -0.0285774 0
M  V30 11454 H 1093 5.47392 0.406538 0
M  V30 11455 H 1093.26 4.1482 1.52895 0
M  V30 11456 N 1092.32 0.406567 1.52266 0
M  V30 11457 C 1093.28 -0.408251 2.25535 0
M  V30 11458 C 1094.28 -0.975795 1.27808 0
M  V30 11459 O 1095.47 -0.855077 1.5177 0
M  V30 11460 C 1092.6 -1.57443 3.02365 0
M  V30 11461 H 1093.79 0.233459 2.9899 0
M  V30 11462 H 1091.35 0.159032 1.55489 0
M  V30 11463 H 1092.08 -2.25308 2.33252 0
M  V30 11464 H 1091.87 -1.17399 3.74112 0
M  V30 11465 H 1093.36 -2.15088 3.57948 0
M  V30 11466 N 1093.79 -1.57004 0.136909 0
M  V30 11467 C 1095.07 -1.87375 -0.561233 0
M  V30 11468 C 1095.45 -1.04117 -1.83638 0
M  V30 11469 O 1094.8 -0.125103 -2.28157 0
M  V30 11470 C 1095.01 -3.38829 -0.836426 0
M  V30 11471 C 1096.36 -4.07826 -1.18164 0
M  V30 11472 O 1097.38 -3.4395 -0.92611 0
M  V30 11473 O 1096.24 -5.20614 -1.66204 0
M  V30 11474 H 1093.33 -0.776287 -0.285145 0
M  V30 11475 H 1095.88 -1.68818 0.172761 0
M  V30 11476 H 1094.65 -3.91244 0.066442 0
M  V30 11477 H 1094.28 -3.62879 -1.62496 0
M  V30 11478 N 1095.27 0.136881 -1.57004 0
M  V30 11479 C 1096.52 0.847775 -1.83899 0
M  V30 11480 C 1096.85 1.80709 -0.719332 0
M  V30 11481 O 1096.1 1.93527 0.290838 0
M  V30 11482 C 1096.4 1.64711 -3.17183 0
M  V30 11483 C 1096.07 0.833683 -4.43126 0
M  V30 11484 C 1094.73 0.609306 -4.77327 0
M  V30 11485 C 1097.08 0.265504 -5.20523 0
M  V30 11486 C 1094.41 -0.193793 -5.8638 0
M  V30 11487 C 1096.76 -0.524688 -6.3042 0
M  V30 11488 C 1095.43 -0.759548 -6.63164 0
M  V30 11489 H 1094.7 0.310223 -0.672936 0
M  V30 11490 H 1097.34 0.110937 -1.91178 0
M  V30 11491 H 1095.65 2.45435 -3.054 0
M  V30 11492 H 1097.34 2.20081 -3.3521 0
M  V30 11493 H 1093.93 1.01864 -4.16319 0
M  V30 11494 H 1098.12 0.426109 -4.94467 0
M  V30 11495 H 1093.37 -0.385153 -6.10186 0
M  V30 11496 H 1097.55 -0.972033 -6.89583 0
M  V30 11497 H 1095.18 -1.38369 -7.47501 0
M  V30 11498 N 1096.75 1.52266 0.40654 0
M  V30 11499 C 1098 1.66123 1.15097 0
M  V30 11500 C 1098.32 0.394836 1.90961 0
M  V30 11501 O 1097.59 -0.590349 1.86793 0
M  V30 11502 H 1096.17 0.612317 0.427875 0
M  V30 11503 H 1098.83 1.89318 0.463106 0
M  V30 11504 H 1097.93 2.50351 1.86361 0
M  V30 11505 N 1098.23 -0.663929 1.42933 0
M  V30 11506 C 1099.16 -1.78899 1.50058 0
M  V30 11507 C 1100.14 -1.66329 0.356164 0
M  V30 11508 O 1101.32 -1.85587 0.571944 0
M  V30 11509 C 1098.45 -3.17265 1.41281 0
M  V30 11510 C 1097.41 -3.44584 2.53861 0
M  V30 11511 C 1096.73 -4.82638 2.3014 0
M  V30 11512 C 1098.03 -3.40394 3.96143 0
M  V30 11513 H 1099.73 -1.73194 2.44222 0
M  V30 11514 H 1097.27 -0.83182 1.17545 0
M  V30 11515 H 1099.23 -3.95715 1.44872 0
M  V30 11516 H 1097.95 -3.23675 0.43616 0
M  V30 11517 H 1096.61 -2.685 2.49606 0
M  V30 11518 H 1096.26 -4.85711 1.30743 0
M  V30 11519 H 1095.96 -5.01879 3.056 0
M  V30 11520 H 1097.48 -5.63359 2.35497 0
M  V30 11521 H 1098.9 -4.08796 4.01943 0
M  V30 11522 H 1097.29 -3.7117 4.71543 0
M  V30 11523 H 1098.36 -2.38767 4.22041 0
M  V30 11524 N 1099.71 -1.29285 -0.901281 0
M  V30 11525 C 1100.93 -1.20169 -1.69039 0
M  V30 11526 C 1101.36 0.234509 -1.86632 0
M  V30 11527 O 1100.71 1.16935 -1.38549 0
M  V30 11528 C 1100.76 -1.91852 -3.05328 0
M  V30 11529 O 1099.87 -1.23448 -3.9349 0
M  V30 11530 H 1099.21 -0.416486 -0.517141 0
M  V30 11531 H 1101.74 -1.70826 -1.12603 0
M  V30 11532 H 1101.75 -2.00244 -3.5548 0
M  V30 11533 H 1100.42 -2.96313 -2.91841 0
M  V30 11534 H 1099 -1.23303 -3.51924 0
M  V30 11535 N 1101.18 1.11143 -1.11736 0
M  V30 11536 C 1102.13 2.17274 -0.778513 0
M  V30 11537 C 1103.1 1.64186 0.251405 0
M  V30 11538 O 1104.29 1.90373 0.127629 0
M  V30 11539 C 1101.43 3.44324 -0.231246 0
M  V30 11540 C 1100.54 4.114 -1.31809 0
M  V30 11541 C 1099.67 5.26146 -0.73104 0
M  V30 11542 C 1098.71 5.85112 -1.79752 0
M  V30 11543 N 1097.85 6.91247 -1.22973 0
M  V30 11544 H 1102.69 2.45603 -1.68769 0
M  V30 11545 H 1100.23 1.20565 -0.842759 0
M  V30 11546 H 1102.19 4.1707 0.104045 0
M  V30 11547 H 1100.82 3.16369 0.641119 0
M  V30 11548 H 1099.87 3.36697 -1.77029 0
M  V30 11549 H 1101.18 4.51278 -2.12485 0
M  V30 11550 H 1100.33 6.05713 -0.345987 0
M  V30 11551 H 1099.07 4.87583 0.107 0
M  V30 11552 H 1098.08 5.0422 -2.19185 0
M  V30 11553 H 1099.3 6.25741 -2.63865 0
M  V30 11554 H 1097.25 6.54696 -0.41339 0
M  V30 11555 H 1097.17 7.29796 -1.97316 0
M  V30 11556 H 1098.43 7.74611 -0.87167 0
M  V30 11557 N 1102.66 0.908147 1.28804 0
M  V30 11558 C 1103.61 0.390734 2.27468 0
M  V30 11559 C 1104.58 -0.531765 1.57358 0
M  V30 11560 O 1105.76 -0.455177 1.85291 0
M  V30 11561 C 1102.9 -0.368159 3.43131 0
M  V30 11562 C 1102.02 0.586202 4.28004 0
M  V30 11563 C 1101.15 -0.190581 5.30858 0
M  V30 11564 C 1100.19 0.757758 6.07391 0
M  V30 11565 N 1099.33 0.0148488 7.02098 0
M  V30 11566 H 1104.17 1.23717 2.71105 0
M  V30 11567 H 1101.71 0.621382 1.33331 0
M  V30 11568 H 1103.66 -0.824289 4.08976 0
M  V30 11569 H 1102.29 -1.17898 3.00499 0
M  V30 11570 H 1101.35 1.16086 3.62254 0
M  V30 11571 H 1102.66 1.31177 4.81242 0
M  V30 11572 H 1101.81 -0.707528 6.0256 0
M  V30 11573 H 1100.55 -0.949234 4.78373 0
M  V30 11574 H 1099.56 1.28613 5.34545 0
M  V30 11575 H 1100.78 1.51588 6.61965 0
M  V30 11576 H 1098.73 -0.725916 6.51971 0
M  V30 11577 H 1098.64 0.680347 7.52932 0
M  V30 11578 H 1099.91 -0.482086 7.78008 0
M  V30 11579 N 1104.14 -1.42577 0.671525 0
M  V30 11580 C 1105.39 -2.00806 0.189663 0
M  V30 11581 C 1105.7 -1.537 -1.20978 0
M  V30 11582 O 1106.91 -2.04325 -1.78784 0
M  V30 11583 C 1105.36 -3.58744 0.288227 0
M  V30 11584 C 1104.97 -4.14839 1.69152 0
M  V30 11585 C 1106.72 -4.24285 -0.13509 0
M  V30 11586 C 1104.62 -5.65131 1.74302 0
M  V30 11587 H 1103.55 -0.751004 0.067146 0
M  V30 11588 H 1106.2 -1.63338 0.83623 0
M  V30 11589 H 1104.59 -3.937 -0.426175 0
M  V30 11590 H 1105.76 -3.91349 2.43274 0
M  V30 11591 H 1104.08 -3.61738 2.0624 0
M  V30 11592 H 1106.67 -5.34573 -0.116709 0
M  V30 11593 H 1107.02 -3.99527 -1.16977 0
M  V30 11594 H 1107.55 -3.94278 0.528191 0
M  V30 11595 H 1104.29 -5.94682 2.75742 0
M  V30 11596 H 1103.81 -5.90621 1.04531 0
M  V30 11597 H 1105.49 -6.29491 1.49498 0
M  V30 11598 N 1105.62 -0.414636 -1.52048 0
M  V30 11599 C 1106.85 0.158456 -2.05991 0
M  V30 11600 C 1107.26 1.38947 -1.28415 0
M  V30 11601 O 1106.6 1.80698 -0.330728 0
M  V30 11602 C 1106.66 0.568392 -3.54978 0
M  V30 11603 C 1106.33 -0.552654 -4.53646 0
M  V30 11604 C 1107.32 -1.41791 -5.00191 0
M  V30 11605 C 1105.01 -0.726917 -4.97012 0
M  V30 11606 C 1107 -2.44234 -5.88752 0
M  V30 11607 C 1104.69 -1.75464 -5.85368 0
M  V30 11608 C 1105.69 -2.61075 -6.31133 0
M  V30 11609 O 1105.37 -3.62087 -7.17738 0
M  V30 11610 H 1105.11 0.0214746 -0.675659 0
M  V30 11611 H 1107.66 -0.585825 -1.96869 0
M  V30 11612 H 1105.89 1.36504 -3.61806 0
M  V30 11613 H 1107.58 1.07003 -3.91542 0
M  V30 11614 H 1108.35 -1.29471 -4.67399 0
M  V30 11615 H 1104.22 -0.0701964 -4.60947 0
M  V30 11616 H 1107.77 -3.1109 -6.24395 0
M  V30 11617 H 1103.67 -1.87813 -6.17573 0
M  V30 11618 H 1104.43 -3.58396 -7.35863 0
M  V30 11619 N 1107.1 1.56929 -0.145233 0
M  V30 11620 C 1108.32 2.00864 0.516564 0
M  V30 11621 C 1108.75 1.02466 1.57741 0
M  V30 11622 O 1108.1 0.000145439 1.813 0
M  V30 11623 C 1108.15 3.43552 1.09563 0
M  V30 11624 O 1107.26 3.4815 2.21055 0
M  V30 11625 H 1106.6 0.651835 0.126521 0
M  V30 11626 H 1109.13 2.0317 -0.241445 0
M  V30 11627 H 1109.14 3.82316 1.42473 0
M  V30 11628 H 1107.81 4.14677 0.318749 0
M  V30 11629 H 1106.39 3.21228 1.89387 0
M  V30 11630 N 1108.58 -0.128553 1.57075 0
M  V30 11631 C 1109.82 -0.836355 1.83982 0
M  V30 11632 C 1110.14 -1.80862 0.728971 0
M  V30 11633 O 1109.41 -1.94326 -0.247859 0
M  V30 11634 H 1107.99 -0.31185 0.678792 0
M  V30 11635 H 1110.66 -0.118153 1.94542 0
M  V30 11636 H 1109.75 -1.38741 2.79567 0
M  V30 11637 N 1110.05 -1.5248 -0.398459 0
M  V30 11638 C 1111.33 -1.57634 -1.15805 0
M  V30 11639 C 1111.71 -0.363785 -2.07942 0
M  V30 11640 O 1111.06 0.648598 -2.19101 0
M  V30 11641 C 1111.27 -2.91042 -1.92602 0
M  V30 11642 C 1112.62 -3.44433 -2.48296 0
M  V30 11643 O 1113.64 -2.92853 -2.0277 0
M  V30 11644 O 1112.5 -4.34529 -3.31432 0
M  V30 11645 H 1109.59 -0.63539 -0.529347 0
M  V30 11646 H 1112.14 -1.64812 -0.404376 0
M  V30 11647 H 1110.91 -3.7074 -1.25169 0
M  V30 11648 H 1110.53 -2.87206 -2.74952 0
M  V30 11649 N 1111.53 0.65634 -1.43283 0
M  V30 11650 C 1112.76 1.44199 -1.47954 0
M  V30 11651 C 1113.17 1.88961 -0.0950315 0
M  V30 11652 O 1112.51 1.59895 0.904388 0
M  V30 11653 C 1112.57 2.71161 -2.36033 0
M  V30 11654 C 1112.24 2.48359 -3.83623 0
M  V30 11655 C 1113.24 2.1178 -4.74811 0
M  V30 11656 C 1110.92 2.6278 -4.28079 0
M  V30 11657 C 1112.91 1.89915 -6.0845 0
M  V30 11658 C 1110.6 2.4053 -5.61772 0
M  V30 11659 C 1111.6 2.04154 -6.51775 0
M  V30 11660 O 1111.29 1.82134 -7.82996 0
M  V30 11661 H 1111.02 0.449567 -0.504842 0
M  V30 11662 H 1113.57 0.812234 -1.88658 0
M  V30 11663 H 1111.8 3.36685 -1.9021 0
M  V30 11664 H 1113.49 3.33102 -2.31944 0
M  V30 11665 H 1114.26 2.00217 -4.41744 0
M  V30 11666 H 1110.14 2.9007 -3.58302 0
M  V30 11667 H 1113.68 1.61445 -6.78661 0
M  V30 11668 H 1109.58 2.51695 -5.94407 0
M  V30 11669 H 1110.35 1.96584 -7.94542 0
M  V30 11670 N 1113.01 1.29761 0.894412 0
M  V30 11671 C 1114.24 1.20765 1.67629 0
M  V30 11672 C 1114.65 -0.233434 1.87754 0
M  V30 11673 O 1113.99 -1.16747 1.4183 0
M  V30 11674 C 1114.05 1.85542 3.07919 0
M  V30 11675 C 1113.72 3.34852 3.11004 0
M  V30 11676 C 1114.71 4.30994 2.90758 0
M  V30 11677 C 1112.4 3.76141 3.32901 0
M  V30 11678 C 1114.39 5.664 2.92352 0
M  V30 11679 C 1112.08 5.11667 3.34126 0
M  V30 11680 C 1113.08 6.06607 3.13874 0
M  V30 11681 O 1112.77 7.39659 3.14897 0
M  V30 11682 H 1112.5 0.419418 0.530155 0
M  V30 11683 H 1115.05 1.71754 1.12648 0
M  V30 11684 H 1113.28 1.29071 3.64524 0
M  V30 11685 H 1114.97 1.70795 3.68217 0
M  V30 11686 H 1115.74 4.00427 2.73648 0
M  V30 11687 H 1111.62 3.02694 3.47703 0
M  V30 11688 H 1115.16 6.40479 2.76464 0
M  V30 11689 H 1111.06 5.41877 3.50769 0
M  V30 11690 H 1111.82 7.4853 3.31127 0
M  V30 11691 N 1114.49 -1.10549 1.12324 0
M  V30 11692 C 1115.9 -1.34508 0.85905 0
M  V30 11693 C 1116.1 -1.94901 -0.511468 0
M  V30 11694 O 1115.16 -2.18793 -1.2604 0
M  V30 11695 C 1116.47 -2.26788 1.97453 0
M  V30 11696 C 1118.02 -2.40328 2.00528 0
M  V30 11697 C 1118.5 -3.35936 3.11305 0
M  V30 11698 N 1119.99 -3.43504 3.1074 0
M  V30 11699 C 1120.72 -4.17449 3.93096 0
M  V30 11700 N 1120.22 -4.9429 4.85437 0
M  V30 11701 N 1122.01 -4.13055 3.81237 0
M  V30 11702 H 1114.16 -0.697171 2.00632 0
M  V30 11703 H 1116.42 -0.369548 0.873005 0
M  V30 11704 H 1116.13 -1.89621 2.96204 0
M  V30 11705 H 1116 -3.27086 1.87869 0
M  V30 11706 H 1118.39 -2.76765 1.02397 0
M  V30 11707 H 1118.47 -1.39849 2.14186 0
M  V30 11708 H 1118.12 -3.00225 4.09667 0
M  V30 11709 H 1118.05 -4.36291 2.94886 0
M  V30 11710 H 1120.54 -2.88702 2.43843 0
M  V30 11711 H 1120.85 -5.48109 5.4479 0
M  V30 11712 H 1119.2 -4.93419 4.89452 0
M  V30 11713 H 1122.39 -3.52117 3.08433 0
M  V30 11714 H 1122.56 -4.70424 4.45651 0
M  V30 11715 N 1115.97 -0.914965 -1.28321 0
M  V30 11716 C 1116.9 -0.361578 -2.2633 0
M  V30 11717 C 1117.91 0.500637 -1.54911 0
M  V30 11718 O 1119.1 0.31532 -1.75693 0
M  V30 11719 C 1116.2 0.501693 -3.35166 0
M  V30 11720 C 1115.37 -0.338289 -4.3609 0
M  V30 11721 C 1114.43 0.460267 -5.24183 0
M  V30 11722 O 1113.46 -0.127594 -5.69057 0
M  V30 11723 N 1114.66 1.76302 -5.5308 0
M  V30 11724 H 1117.42 -1.20402 -2.74451 0
M  V30 11725 H 1114.99 -0.781042 -1.41814 0
M  V30 11726 H 1116.98 1.04268 -3.91037 0
M  V30 11727 H 1115.55 1.24485 -2.86744 0
M  V30 11728 H 1114.77 -1.06064 -3.79663 0
M  V30 11729 H 1116.06 -0.912996 -5.00542 0
M  V30 11730 H 1115.45 2.26314 -5.18458 0
M  V30 11731 H 1114.01 2.25081 -6.11704 0
M  V30 11732 N 1117.44 1.42219 -0.679077 0
M  V30 11733 C 1118.69 2.01081 -0.202718 0
M  V30 11734 C 1119.01 1.53986 1.19639 0
M  V30 11735 O 1118.28 0.763359 1.80415 0
M  V30 11736 H 1116.86 0.743526 -0.0719547 0
M  V30 11737 H 1119.52 1.74077 -0.876544 0
M  V30 11738 H 1118.62 3.11411 -0.207314 0
M  V30 11739 N 1118.92 0.422693 1.51826 0
M  V30 11740 C 1120.34 0.0742364 1.59427 0
M  V30 11741 C 1120.54 -1.41491 1.43466 0
M  V30 11742 O 1119.59 -2.18326 1.26846 0
M  V30 11743 C 1120.91 0.581272 2.95028 0
M  V30 11744 C 1122.45 0.54043 3.08299 0
M  V30 11745 C 1122.93 1.0242 4.46401 0
M  V30 11746 N 1124.42 0.981576 4.5268 0
M  V30 11747 C 1125.16 1.32693 5.57835 0
M  V30 11748 N 1124.65 1.74441 6.70479 0
M  V30 11749 N 1126.44 1.24603 5.48115 0
M  V30 11750 H 1118.6 1.39178 1.60447 0
M  V30 11751 H 1120.86 0.572607 0.75553 0
M  V30 11752 H 1120.56 1.62261 3.12032 0
M  V30 11753 H 1120.44 -0.00176969 3.772 0
M  V30 11754 H 1122.83 -0.491895 2.90971 0
M  V30 11755 H 1122.91 1.15969 2.28002 0
M  V30 11756 H 1122.55 2.05491 4.64474 0
M  V30 11757 H 1122.48 0.381613 5.25215 0
M  V30 11758 H 1124.97 0.674808 3.71826 0
M  V30 11759 H 1125.28 1.99068 7.46721 0
M  V30 11760 H 1123.63 1.78356 6.71725 0
M  V30 11761 H 1126.82 0.918641 4.58997 0
M  V30 11762 H 1126.99 1.51847 6.29958 0
M  V30 11763 N 1120.4 -1.5685 0.153553 0
M  V30 11764 C 1121.65 -1.95509 -0.495911 0
M  V30 11765 C 1121.96 -1.04129 -1.65579 0
M  V30 11766 O 1123.17 -1.32394 -2.37032 0
M  V30 11767 C 1121.62 -3.47579 -0.933622 0
M  V30 11768 C 1121.23 -4.47555 0.199684 0
M  V30 11769 C 1122.98 -3.95092 -1.55251 0
M  V30 11770 C 1120.88 -5.90843 -0.256663 0
M  V30 11771 H 1119.81 -0.729919 -0.189035 0
M  V30 11772 H 1122.46 -1.81938 0.238947 0
M  V30 11773 H 1120.85 -3.56506 -1.72394 0
M  V30 11774 H 1122.02 -4.50329 0.976744 0
M  V30 11775 H 1120.33 -4.09997 0.727394 0
M  V30 11776 H 1122.93 -4.99588 -1.90567 0
M  V30 11777 H 1123.27 -3.37015 -2.4439 0
M  V30 11778 H 1123.81 -3.89109 -0.826969 0
M  V30 11779 H 1120.55 -6.52753 0.599515 0
M  V30 11780 H 1120.07 -5.91414 -0.999458 0
M  V30 11781 H 1121.75 -6.43131 -0.70649 0
M  V30 11782 N 1121.88 0.120221 -1.57141 0
M  V30 11783 C 1122.84 1.13159 -1.99318 0
M  V30 11784 C 1123.84 1.34376 -0.883158 0
M  V30 11785 O 1125.03 1.30914 -1.14922 0
M  V30 11786 C 1122.16 2.48632 -2.33227 0
M  V30 11787 H 1123.36 0.769119 -2.8987 0
M  V30 11788 H 1120.91 0.364475 -1.51991 0
M  V30 11789 H 1121.64 2.89802 -1.45551 0
M  V30 11790 H 1121.43 2.34587 -3.14184 0
M  V30 11791 H 1122.92 3.21423 -2.66603 0
M  V30 11792 N 1123.36 1.52689 0.390367 0
M  V30 11793 C 1124.3 1.7737 1.47677 0
M  V30 11794 C 1125.27 0.616864 1.54221 0
M  V30 11795 O 1126.46 0.856437 1.70499 0
M  V30 11796 C 1123.6 1.94715 2.84921 0
M  V30 11797 C 1122.71 3.22405 2.8754 0
M  V30 11798 C 1121.85 3.30074 4.16202 0
M  V30 11799 C 1120.89 4.51893 4.12867 0
M  V30 11800 N 1120.02 4.56851 5.33134 0
M  V30 11801 H 1124.86 2.70084 1.25932 0
M  V30 11802 H 1122.4 1.33813 0.610943 0
M  V30 11803 H 1124.36 2.02755 3.64618 0
M  V30 11804 H 1122.99 1.05363 3.0512 0
M  V30 11805 H 1122.04 3.23442 2.00223 0
M  V30 11806 H 1123.35 4.12156 2.80943 0
M  V30 11807 H 1122.51 3.3729 5.04302 0
M  V30 11808 H 1121.24 2.38295 4.25519 0
M  V30 11809 H 1120.25 4.44803 3.23156 0
M  V30 11810 H 1121.47 5.44987 4.05174 0
M  V30 11811 H 1119.42 3.67963 5.43083 0
M  V30 11812 H 1119.34 5.40472 5.28607 0
M  V30 11813 H 1120.61 4.6832 6.23134 0
M  V30 11814 N 1124.83 -0.648732 1.43629 0
M  V30 11815 C 1125.77 -1.77363 1.43589 0
M  V30 11816 C 1126.75 -1.59869 0.296783 0
M  V30 11817 O 1127.93 -1.81991 0.491065 0
M  V30 11818 C 1125.06 -3.1472 1.25175 0
M  V30 11819 C 1124.1 -3.50906 2.4242 0
M  V30 11820 S 1124.94 -3.50372 4.04968 0
M  V30 11821 C 1126.09 -4.90379 3.88946 0
M  V30 11822 H 1126.32 -1.77127 2.38774 0
M  V30 11823 H 1123.86 -0.821778 1.30714 0
M  V30 11824 H 1125.82 -3.93993 1.15239 0
M  V30 11825 H 1124.48 -3.12513 0.315303 0
M  V30 11826 H 1123.67 -4.50813 2.25353 0
M  V30 11827 H 1123.27 -2.79056 2.49006 0
M  V30 11828 H 1125.56 -5.79155 3.51548 0
M  V30 11829 H 1126.51 -5.12498 4.88622 0
M  V30 11830 H 1126.91 -4.64125 3.21323 0
M  V30 11831 N 1126.31 -1.30234 -0.887518 0
M  V30 11832 C 1127.72 -1.17048 -1.45453 0
M  V30 11833 C 1128.07 0.229793 -1.9485 0
M  V30 11834 O 1127.2 1.12628 -1.84781 0
M  V30 11835 C 1127.79 -2.11876 -2.64375 0
M  V30 11836 C 1126.35 -2.02676 -3.17174 0
M  V30 11837 C 1125.5 -2.02104 -1.89866 0
M  V30 11838 H 1128.45 -1.42541 -0.697694 0
M  V30 11839 H 1128.47 -1.69811 -3.40506 0
M  V30 11840 H 1127.98 -3.13781 -2.28392 0
M  V30 11841 H 1126.09 -1.03904 -3.57819 0
M  V30 11842 H 1126.2 -2.90939 -3.80646 0
M  V30 11843 H 1124.56 -1.4687 -2.0809 0
M  V30 11844 H 1125.35 -3.05735 -1.56145 0
M  V30 11845 N 1127.79 1.09952 -1.12909 0
M  V30 11846 C 1129.04 1.82286 -0.888797 0
M  V30 11847 C 1129.37 1.85218 0.58379 0
M  V30 11848 O 1128.64 1.31645 1.43177 0
M  V30 11849 C 1128.93 3.28706 -1.47053 0
M  V30 11850 C 1128.78 3.34078 -3.01184 0
M  V30 11851 C 1130.1 4.25233 -1.13424 0
M  V30 11852 H 1127.22 0.661803 -0.324324 0
M  V30 11853 H 1129.86 1.28833 -1.3965 0
M  V30 11854 H 1128.01 3.74356 -1.03874 0
M  V30 11855 H 1129.68 2.96871 -3.5308 0
M  V30 11856 H 1127.93 2.73825 -3.36455 0
M  V30 11857 H 1128.6 4.37202 -3.36984 0
M  V30 11858 H 1131.07 3.87841 -1.50726 0
M  V30 11859 H 1129.95 5.26033 -1.56783 0
M  V30 11860 H 1130.21 4.42075 -0.0471496 0
M  V30 11861 N 1129.27 0.921757 1.27833 0
M  V30 11862 C 1130.22 0.414838 2.27041 0
M  V30 11863 C 1131.19 -0.515045 1.57913 0
M  V30 11864 O 1132.37 -0.435499 1.85763 0
M  V30 11865 C 1129.51 -0.331744 3.43502 0
M  V30 11866 C 1128.62 0.631565 4.27358 0
M  V30 11867 C 1127.76 -0.134265 5.3103 0
M  V30 11868 C 1126.8 0.822138 6.06554 0
M  V30 11869 N 1125.93 0.0893149 7.02043 0
M  V30 11870 H 1130.77 1.26585 2.69778 0
M  V30 11871 H 1128.31 0.635488 1.32665 0
M  V30 11872 H 1130.27 -0.780866 4.09827 0
M  V30 11873 H 1128.9 -1.14704 3.01733 0
M  V30 11874 H 1127.95 1.19922 3.61003 0
M  V30 11875 H 1129.26 1.36274 4.79824 0
M  V30 11876 H 1128.42 -0.643579 6.03277 0
M  V30 11877 H 1127.16 -0.898443 4.79353 0
M  V30 11878 H 1126.16 1.34275 5.33151 0
M  V30 11879 H 1127.39 1.586 6.6032 0
M  V30 11880 H 1125.33 -0.656725 6.52704 0
M  V30 11881 H 1125.25 0.760167 7.52169 0
M  V30 11882 H 1126.52 -0.399541 7.78475 0
M  V30 11883 N 1130.75 -1.41857 0.686609 0
M  V30 11884 C 1131.99 -2.02176 0.22284 0
M  V30 11885 C 1132.35 -1.53373 -1.16165 0
M  V30 11886 O 1131.64 -0.73123 -1.77098 0
M  V30 11887 C 1131.83 -3.56783 0.209951 0
M  V30 11888 C 1131.66 -4.20591 1.59166 0
M  V30 11889 C 1130.43 -4.55264 2.19232 0
M  V30 11890 C 1132.63 -4.47394 2.53659 0
M  V30 11891 N 1130.61 -5.04313 3.5006 0
M  V30 11892 C 1131.98 -4.98121 3.69155 0
M  V30 11893 C 1134.04 -4.29396 2.52039 0
M  V30 11894 C 1132.74 -5.32741 4.83301 0
M  V30 11895 C 1134.77 -4.65099 3.65291 0
M  V30 11896 C 1134.13 -5.15988 4.79516 0
M  V30 11897 H 1130.23 -0.771663 0.126731 0
M  V30 11898 H 1132.81 -1.72538 0.902153 0
M  V30 11899 H 1130.98 -3.85913 -0.438816 0
M  V30 11900 H 1132.72 -4.03813 -0.267806 0
M  V30 11901 H 1129.47 -4.41417 1.71604 0
M  V30 11902 H 1129.9 -5.33253 4.17098 0
M  V30 11903 H 1134.54 -3.89296 1.64949 0
M  V30 11904 H 1132.26 -5.71767 5.71058 0
M  V30 11905 H 1135.84 -4.52839 3.65279 0
M  V30 11906 H 1134.72 -5.43098 5.65698 0
M  V30 11907 N 1132.22 -0.430739 -1.51599 0
M  V30 11908 C 1133.47 0.139396 -2.01218 0
M  V30 11909 C 1133.79 1.44361 -1.31982 0
M  V30 11910 O 1134.99 2.0963 -1.72533 0
M  V30 11911 C 1133.45 0.298969 -3.58656 0
M  V30 11912 C 1133.06 -0.994424 -4.36824 0
M  V30 11913 C 1134.8 0.82323 -4.16441 0
M  V30 11914 C 1132.71 -0.800855 -5.85952 0
M  V30 11915 H 1131.64 0.0558698 -0.751927 0
M  V30 11916 H 1134.29 -0.559493 -1.74762 0
M  V30 11917 H 1132.67 1.06071 -3.8153 0
M  V30 11918 H 1133.84 -1.76398 -4.257 0
M  V30 11919 H 1132.16 -1.44672 -3.9046 0
M  V30 11920 H 1134.76 0.984434 -5.2556 0
M  V30 11921 H 1135.1 1.80388 -3.75188 0
M  V30 11922 H 1135.63 0.119982 -3.97619 0
M  V30 11923 H 1132.37 -1.75369 -6.31606 0
M  V30 11924 H 1131.89 -0.0709793 -5.99758 0
M  V30 11925 H 1133.57 -0.451459 -6.45423 0
M  V30 11926 N 1133.7 1.56767 -0.161869 0
M  V30 11927 C 1134.67 2.16299 0.758104 0
M  V30 11928 C 1135.67 1.10859 1.16478 0
M  V30 11929 O 1136.86 1.36422 1.08327 0
M  V30 11930 C 1133.99 2.73819 2.03067 0
M  V30 11931 H 1135.18 2.98938 0.239992 0
M  V30 11932 H 1132.73 1.56054 0.0876532 0
M  V30 11933 H 1133.47 1.94887 2.59209 0
M  V30 11934 H 1133.25 3.50974 1.74813 0
M  V30 11935 H 1134.74 3.19638 2.68741 0
M  V30 11936 N 1135.18 -0.111886 1.57202 0
M  V30 11937 C 1136.43 -0.817022 1.84412 0
M  V30 11938 C 1136.74 -1.80708 0.748608 0
M  V30 11939 O 1137.95 -2.55891 0.907319 0
M  V30 11940 C 1136.4 -1.50376 3.26979 0
M  V30 11941 C 1136.01 -0.554334 4.44557 0
M  V30 11942 C 1137.76 -2.19361 3.63429 0
M  V30 11943 C 1135.66 -1.24471 5.78153 0
M  V30 11944 H 1134.59 -0.308864 0.687836 0
M  V30 11945 H 1137.24 -0.0698109 1.83367 0
M  V30 11946 H 1135.63 -2.29785 3.22514 0
M  V30 11947 H 1136.8 0.207045 4.60335 0
M  V30 11948 H 1135.12 0.0289261 4.1639 0
M  V30 11949 H 1137.71 -2.71716 4.60515 0
M  V30 11950 H 1138.06 -2.97488 2.91215 0
M  V30 11951 H 1138.59 -1.46833 3.69709 0
M  V30 11952 H 1135.33 -0.504584 6.53555 0
M  V30 11953 H 1134.85 -1.97792 5.66249 0
M  V30 11954 H 1136.53 -1.77591 6.2215 0
M  V30 11955 N 1136.66 -1.52894 -0.382264 0
M  V30 11956 C 1137.57 -1.81084 -1.4915 0
M  V30 11957 C 1138.58 -0.698045 -1.59384 0
M  V30 11958 O 1139.76 -0.98635 -1.75594 0
M  V30 11959 C 1136.83 -1.97987 -2.84608 0
M  V30 11960 C 1135.89 -3.219 -2.8404 0
M  V30 11961 C 1135.12 -3.37988 -4.13037 0
M  V30 11962 O 1135.34 -2.58733 -5.08344 0
M  V30 11963 O 1134.28 -4.31273 -4.19866 0
M  V30 11964 H 1138.1 -2.75289 -1.28257 0
M  V30 11965 H 1135.69 -1.38068 -0.57076 0
M  V30 11966 H 1137.57 -2.10773 -3.64901 0
M  V30 11967 H 1136.24 -1.06972 -3.05514 0
M  V30 11968 H 1135.15 -3.14551 -2.02505 0
M  V30 11969 H 1136.48 -4.12783 -2.68087 0
M  V30 11970 N 1138.14 0.641106 -1.43971 0
M  V30 11971 C 1139.36 1.43324 -1.4991 0
M  V30 11972 C 1139.79 1.87705 -0.121908 0
M  V30 11973 O 1139.15 1.58127 0.886875 0
M  V30 11974 C 1139.19 2.63637 -2.46025 0
M  V30 11975 O 1138.3 3.63123 -1.95488 0
M  V30 11976 H 1137.64 0.429252 -0.506595 0
M  V30 11977 H 1140.17 0.783427 -1.89007 0
M  V30 11978 H 1140.18 3.11304 -2.63731 0
M  V30 11979 H 1138.85 2.30678 -3.46064 0
M  V30 11980 H 1137.43 3.22332 -1.87501 0
M  V30 11981 N 1139.62 1.30703 0.880598 0
M  V30 11982 C 1140.55 1.20033 2.00286 0
M  V30 11983 C 1141.53 0.0899614 1.69862 0
M  V30 11984 O 1142.71 0.272747 1.92275 0
M  V30 11985 C 1139.84 0.895902 3.35546 0
M  V30 11986 C 1138.8 1.96468 3.80242 0
M  V30 11987 C 1138.12 1.51316 5.12843 0
M  V30 11988 C 1139.42 3.37637 3.98496 0
M  V30 11989 H 1141.12 2.13922 2.0947 0
M  V30 11990 H 1138.66 1.02989 1.00644 0
M  V30 11991 H 1140.61 0.807899 4.13583 0
M  V30 11992 H 1139.34 -0.0786636 3.26505 0
M  V30 11993 H 1138 2.0424 3.04437 0
M  V30 11994 H 1137.65 0.52674 5.00234 0
M  V30 11995 H 1137.35 2.22807 5.43719 0
M  V30 11996 H 1138.87 1.43903 5.93401 0
M  V30 11997 H 1140.28 3.326 4.66959 0
M  V30 11998 H 1138.68 4.07253 4.40755 0
M  V30 11999 H 1139.75 3.79205 3.02211 0
M  V30 12000 N 1141.09 -1.09351 1.1349 0
M  V30 12001 C 1142.06 -2.14185 0.815919 0
M  V30 12002 C 1143.06 -1.59845 -0.174976 0
M  V30 12003 O 1144.25 -1.74122 0.0521971 0
M  V30 12004 C 1141.38 -3.40224 0.214517 0
M  V30 12005 H 1142.57 -2.43913 1.74489 0
M  V30 12006 H 1140.12 -1.24902 0.939634 0
M  V30 12007 H 1140.86 -3.16123 -0.723634 0
M  V30 12008 H 1140.64 -3.80958 0.928102 0
M  V30 12009 H 1142.13 -4.17599 0.00821999 0
M  V30 12010 N 1142.57 -0.928524 -1.27343 0
M  V30 12011 C 1143.85 -0.487758 -1.89421 0
M  V30 12012 C 1144.23 1.03418 -1.84032 0
M  V30 12013 O 1143.58 1.8887 -1.2861 0
M  V30 12014 C 1143.79 -1.03478 -3.33307 0
M  V30 12015 C 1145.13 -1.09577 -4.10217 0
M  V30 12016 O 1146.16 -0.984463 -3.42326 0
M  V30 12017 O 1145.02 -1.2673 -5.31603 0
M  V30 12018 H 1142.11 -0.157018 -0.811957 0
M  V30 12019 H 1144.66 -1.02027 -1.35605 0
M  V30 12020 H 1143.43 -2.07861 -3.31526 0
M  V30 12021 H 1143.05 -0.483967 -3.94644 0
M  V30 12022 N 1144.05 1.41491 -0.694123 0
M  V30 12023 C 1145.47 1.55358 -0.365532 0
M  V30 12024 C 1145.67 1.66994 1.12762 0
M  V30 12025 O 1144.72 1.64756 1.91342 0
M  V30 12026 C 1146.03 2.79352 -1.11279 0
M  V30 12027 C 1147.58 2.93147 -1.097 0
M  V30 12028 C 1148.06 4.20027 -1.82597 0
M  V30 12029 N 1149.55 4.26981 -1.7956 0
M  V30 12030 C 1150.28 5.24013 -2.32805 0
M  V30 12031 N 1149.78 6.27083 -2.94515 0
M  V30 12032 N 1151.57 5.15943 -2.23069 0
M  V30 12033 H 1143.72 1.32183 -1.66257 0
M  V30 12034 H 1145.99 0.637624 -0.701527 0
M  V30 12035 H 1145.69 2.76958 -2.16765 0
M  V30 12036 H 1145.57 3.70827 -0.690439 0
M  V30 12037 H 1147.95 2.95057 -0.0504037 0
M  V30 12038 H 1148.03 2.02849 -1.55839 0
M  V30 12039 H 1147.68 4.18878 -2.87235 0
M  V30 12040 H 1147.61 5.09294 -1.33893 0
M  V30 12041 H 1150.1 3.53129 -1.34567 0
M  V30 12042 H 1150.41 6.97511 -3.32714 0
M  V30 12043 H 1148.76 6.27589 -2.98592 0
M  V30 12044 H 1151.95 4.34346 -1.74532 0
M  V30 12045 H 1152.12 5.91396 -2.64868 0
M  V30 12046 N 1145.53 0.438773 1.51369 0
M  V30 12047 C 1146.77 -0.127401 2.02399 0
M  V30 12048 C 1147.11 -1.42235 1.32223 0
M  V30 12049 O 1146.38 -1.89513 0.437607 0
M  V30 12050 C 1146.66 -0.344673 3.58447 0
M  V30 12051 C 1146.52 0.969027 4.39238 0
M  V30 12052 C 1147.84 -1.11381 4.25773 0
M  V30 12053 H 1144.96 -0.0448281 0.735635 0
M  V30 12054 H 1147.6 0.57805 1.80993 0
M  V30 12055 H 1145.75 -0.945582 3.76817 0
M  V30 12056 H 1147.42 1.60403 4.32514 0
M  V30 12057 H 1145.66 1.57329 4.04265 0
M  V30 12058 H 1146.33 0.771029 5.46589 0
M  V30 12059 H 1148.81 -0.604785 4.11681 0
M  V30 12060 H 1147.69 -1.23459 5.34835 0
M  V30 12061 H 1147.95 -2.14225 3.8673 0
M  V30 12062 N 1147.01 -1.56678 0.170181 0
M  V30 12063 C 1148.24 -2.00931 -0.480664 0
M  V30 12064 C 1148.64 -1.04947 -1.57425 0
M  V30 12065 O 1147.99 -0.042229 -1.83651 0
M  V30 12066 C 1148.05 -3.4161 -1.11996 0
M  V30 12067 C 1147.71 -4.5669 -0.168167 0
M  V30 12068 C 1148.71 -5.16273 0.613059 0
M  V30 12069 C 1146.39 -5.02259 -0.0643243 0
M  V30 12070 C 1148.39 -6.19852 1.48534 0
M  V30 12071 C 1146.08 -6.05687 0.811542 0
M  V30 12072 C 1147.07 -6.64355 1.58496 0
M  V30 12073 O 1146.76 -7.65778 2.44619 0
M  V30 12074 H 1146.49 -0.66386 -0.12754 0
M  V30 12075 H 1149.05 -2.03635 0.2687 0
M  V30 12076 H 1147.28 -3.35815 -1.91743 0
M  V30 12077 H 1148.97 -3.69823 -1.67289 0
M  V30 12078 H 1149.73 -4.81951 0.542999 0
M  V30 12079 H 1145.61 -4.56307 -0.656102 0
M  V30 12080 H 1149.16 -6.65572 2.08948 0
M  V30 12081 H 1145.05 -6.39435 0.88281 0
M  V30 12082 H 1145.82 -7.83096 2.38122 0
M  V30 12083 N 1148.48 0.103547 -1.57259 0
M  V30 12084 C 1149.71 0.82235 -1.89855 0
M  V30 12085 C 1150.13 1.72694 -0.76303 0
M  V30 12086 O 1149.48 1.8056 0.265421 0
M  V30 12087 C 1149.53 1.64282 -3.22015 0
M  V30 12088 O 1149.26 0.774628 -4.31197 0
M  V30 12089 C 1150.76 2.46543 -3.68418 0
M  V30 12090 H 1147.98 0.235591 -0.628282 0
M  V30 12091 H 1150.52 0.0833106 -2.0433 0
M  V30 12092 H 1148.68 2.33446 -3.09163 0
M  V30 12093 H 1149.09 1.34205 -5.0704 0
M  V30 12094 H 1150.56 2.99618 -4.63609 0
M  V30 12095 H 1151.04 3.24618 -2.95838 0
M  V30 12096 H 1151.65 1.82594 -3.84109 0
M  V30 12097 N 1149.96 1.53094 0.37415 0
M  V30 12098 C 1151.19 1.73061 1.143 0
M  V30 12099 C 1151.61 0.454611 1.82524 0
M  V30 12100 O 1150.97 -0.590743 1.71406 0
M  V30 12101 C 1151.02 2.89086 2.15549 0
M  V30 12102 O 1150.12 2.57096 3.22452 0
M  V30 12103 H 1149.46 0.575009 0.332055 0
M  V30 12104 H 1151.99 1.99946 0.433897 0
M  V30 12105 H 1152 3.15007 2.59296 0
M  V30 12106 H 1150.68 3.81647 1.65283 0
M  V30 12107 H 1149.25 2.41965 2.83738 0
M  V30 12108 N 1151.44 -0.633461 1.44309 0
M  V30 12109 C 1152.39 -1.74554 1.50995 0
M  V30 12110 C 1153.36 -1.62199 0.357873 0
M  V30 12111 O 1154.54 -1.82156 0.567787 0
M  V30 12112 C 1151.68 -3.12792 1.45791 0
M  V30 12113 C 1150.79 -3.3614 2.71356 0
M  V30 12114 C 1149.93 -4.64337 2.58002 0
M  V30 12115 C 1148.97 -4.80855 3.78741 0
M  V30 12116 N 1148.11 -6.00327 3.64077 0
M  V30 12117 H 1152.95 -1.68174 2.46011 0
M  V30 12118 H 1150.48 -0.820407 1.22097 0
M  V30 12119 H 1152.44 -3.92735 1.40765 0
M  V30 12120 H 1151.07 -3.18193 0.543445 0
M  V30 12121 H 1150.12 -2.50154 2.86579 0
M  V30 12122 H 1151.43 -3.44226 3.60985 0
M  V30 12123 H 1150.59 -5.52437 2.50795 0
M  V30 12124 H 1149.33 -4.58605 1.65929 0
M  V30 12125 H 1148.33 -3.91185 3.86334 0
M  V30 12126 H 1149.56 -4.88403 4.71847 0
M  V30 12127 H 1147.5 -5.9569 2.74754 0
M  V30 12128 H 1147.42 -6.09459 4.47321 0
M  V30 12129 H 1148.69 -6.90995 3.60758 0
M  V30 12130 N 1152.92 -1.31168 -0.873655 0
M  V30 12131 C 1154.14 -1.23728 -1.66452 0
M  V30 12132 C 1154.57 0.194869 -1.87088 0
M  V30 12133 O 1153.93 1.1397 -1.40998 0
M  V30 12134 C 1153.97 -1.98285 -3.0119 0
M  V30 12135 O 1153.08 -1.31767 -3.90783 0
M  V30 12136 H 1152.42 -0.427362 -0.508191 0
M  V30 12137 H 1154.95 -1.73176 -1.08955 0
M  V30 12138 H 1154.96 -2.0774 -3.51153 0
M  V30 12139 H 1153.63 -3.02437 -2.8549 0
M  V30 12140 H 1152.21 -1.3074 -3.4923 0
M  V30 12141 N 1154.4 1.08748 -1.14068 0
M  V30 12142 C 1155.67 1.7769 -0.81766 0
M  V30 12143 C 1156.05 1.99522 0.689501 0
M  V30 12144 O 1155.4 1.60222 1.62914 0
M  V30 12145 C 1155.61 3.09517 -1.61245 0
M  V30 12146 C 1156.96 3.84108 -1.80958 0
M  V30 12147 O 1157.98 3.19289 -1.57902 0
M  V30 12148 O 1156.84 5.00491 -2.19479 0
M  V30 12149 H 1153.94 0.770953 -0.299265 0
M  V30 12150 H 1156.48 1.15242 -1.24569 0
M  V30 12151 H 1155.25 2.89155 -2.63638 0
M  V30 12152 H 1154.88 3.79692 -1.17982 0
M  V30 12153 N 1155.87 0.935264 1.26849 0
M  V30 12154 C 1157.12 0.580548 1.94313 0
M  V30 12155 C 1157.45 -0.877205 1.73259 0
M  V30 12156 O 1156.73 -1.62679 1.06611 0
M  V30 12157 C 1157.01 0.916445 3.48243 0
M  V30 12158 C 1156.86 2.42851 3.78607 0
M  V30 12159 C 1158.18 0.427665 4.38017 0
M  V30 12160 H 1155.3 0.21239 0.705733 0
M  V30 12161 H 1157.94 1.16841 1.49827 0
M  V30 12162 H 1156.09 0.416169 3.86265 0
M  V30 12163 H 1157.77 3.00106 3.50335 0
M  V30 12164 H 1156.01 2.8745 3.24892 0
M  V30 12165 H 1156.68 2.61405 4.8618 0
M  V30 12166 H 1159.16 0.856525 4.07189 0
M  V30 12167 H 1158.03 0.691571 5.44526 0
M  V30 12168 H 1158.29 -0.672344 4.36958 0
M  V30 12169 N 1157.35 -1.41121 0.701616 0
M  V30 12170 C 1158.6 -2.01928 0.244271 0
M  V30 12171 C 1158.95 -1.54597 -1.14532 0
M  V30 12172 O 1158.25 -0.749972 -1.76312 0
M  V30 12173 C 1158.44 -3.5654 0.247781 0
M  V30 12174 C 1158.27 -4.18879 1.63618 0
M  V30 12175 C 1157.04 -4.52913 2.24048 0
M  V30 12176 C 1159.24 -4.44679 2.5839 0
M  V30 12177 N 1157.22 -5.00571 3.55389 0
M  V30 12178 C 1158.59 -4.94178 3.74418 0
M  V30 12179 C 1160.65 -4.26698 2.56579 0
M  V30 12180 C 1159.35 -5.27584 4.88924 0
M  V30 12181 C 1161.37 -4.61198 3.70203 0
M  V30 12182 C 1160.74 -5.10873 4.84962 0
M  V30 12183 H 1156.84 -0.770275 0.134908 0
M  V30 12184 H 1159.42 -1.71571 0.920402 0
M  V30 12185 H 1157.59 -3.86357 -0.39786 0
M  V30 12186 H 1159.32 -4.04074 -0.224961 0
M  V30 12187 H 1156.08 -4.39572 1.76277 0
M  V30 12188 H 1156.5 -5.28799 4.2273 0
M  V30 12189 H 1161.14 -3.87525 1.69069 0
M  V30 12190 H 1158.86 -5.65678 5.77091 0
M  V30 12191 H 1162.45 -4.48939 3.70061 0
M  V30 12192 H 1161.33 -5.37067 5.71426 0
M  V30 12193 N 1158.83 -0.446794 -1.51134 0
M  V30 12194 C 1159.79 0.348311 -2.26538 0
M  V30 12195 C 1160.79 0.941566 -1.3035 0
M  V30 12196 O 1161.98 0.814537 -1.53984 0
M  V30 12197 C 1159.12 1.49371 -3.06433 0
M  V30 12198 H 1160.31 -0.312648 -2.98266 0
M  V30 12199 H 1157.86 -0.200201 -1.55013 0
M  V30 12200 H 1158.6 2.19045 -2.39144 0
M  V30 12201 H 1158.38 1.07439 -3.77093 0
M  V30 12202 H 1159.87 2.05522 -3.63525 0
M  V30 12203 N 1160.31 1.56586 -0.178487 0
M  V30 12204 C 1161.56 1.97098 0.464617 0
M  V30 12205 C 1161.88 1.06476 1.62767 0
M  V30 12206 O 1161.14 0.100337 1.95443 0
M  V30 12207 C 1161.44 3.43629 0.982552 0
M  V30 12208 C 1161.1 4.50853 -0.0653645 0
M  V30 12209 C 1159.77 4.79901 -0.353349 0
M  V30 12210 C 1162.12 5.15387 -0.776279 0
M  V30 12211 C 1159.45 5.70779 -1.35751 0
M  V30 12212 C 1161.8 6.07349 -1.76948 0
M  V30 12213 C 1160.46 6.34761 -2.06483 0
M  V30 12214 H 1159.73 0.721232 0.170016 0
M  V30 12215 H 1162.38 1.89559 -0.271959 0
M  V30 12216 H 1160.68 3.48155 1.79709 0
M  V30 12217 H 1162.38 3.7232 1.48926 0
M  V30 12218 H 1158.97 4.28266 0.169266 0
M  V30 12219 H 1163.15 4.9305 -0.567008 0
M  V30 12220 H 1158.41 5.90298 -1.59244 0
M  V30 12221 H 1162.58 6.56419 -2.32567 0
M  V30 12222 H 1160.21 7.0498 -2.84441 0
M  V30 12223 N 1161.79 -0.095206 1.57312 0
M  V30 12224 C 1163.03 -0.797142 1.85715 0
M  V30 12225 C 1163.36 -1.79275 0.767171 0
M  V30 12226 O 1162.63 -1.94808 -0.206584 0
M  V30 12227 H 1161.21 -0.297382 0.685254 0
M  V30 12228 H 1163.87 -0.0768617 1.94748 0
M  V30 12229 H 1162.96 -1.32779 2.82447 0
M  V30 12230 N 1163.26 -1.53291 -0.366026 0
M  V30 12231 C 1164.51 -1.69702 -1.11036 0
M  V30 12232 C 1164.84 -0.44728 -1.88979 0
M  V30 12233 O 1164.12 0.55542 -1.86401 0
M  V30 12234 C 1164.4 -2.94661 -2.06995 0
M  V30 12235 C 1164.25 -4.29791 -1.32663 0
M  V30 12236 C 1165.57 -3.15219 -3.07123 0
M  V30 12237 H 1162.69 -0.617525 -0.402284 0
M  V30 12238 H 1165.33 -1.85929 -0.391223 0
M  V30 12239 H 1163.48 -2.80958 -2.68318 0
M  V30 12240 H 1165.16 -4.55305 -0.741266 0
M  V30 12241 H 1163.4 -4.29223 -0.628484 0
M  V30 12242 H 1164.07 -5.13359 -2.02896 0
M  V30 12243 H 1166.55 -3.28105 -2.55903 0
M  V30 12244 H 1165.42 -4.04088 -3.71489 0
M  V30 12245 H 1165.68 -2.30479 -3.77269 0
M  V30 12246 N 1164.74 0.6258 -1.44643 0
M  V30 12247 C 1165.97 1.41233 -1.51198 0
M  V30 12248 C 1166.39 1.88291 -0.138572 0
M  V30 12249 O 1165.74 1.61151 0.856537 0
M  V30 12250 C 1165.79 2.62908 -2.48117 0
M  V30 12251 O 1165.51 2.1781 -3.80119 0
M  V30 12252 C 1167.02 3.55976 -2.6419 0
M  V30 12253 H 1164.24 0.432954 -0.512632 0
M  V30 12254 H 1166.78 0.76486 -1.89658 0
M  V30 12255 H 1164.93 3.23735 -2.12778 0
M  V30 12256 H 1165.35 2.96732 -4.32493 0
M  V30 12257 H 1166.82 4.37943 -3.3602 0
M  V30 12258 H 1167.3 4.05133 -1.696 0
M  V30 12259 H 1167.91 3.01014 -3.00451 0
M  V30 12260 N 1166.22 1.31629 0.866686 0
M  V30 12261 C 1167.15 1.13886 1.9775 0
M  V30 12262 C 1168.13 0.0414887 1.62547 0
M  V30 12263 O 1169.32 0.198534 1.87452 0
M  V30 12264 C 1166.44 0.740858 3.30498 0
M  V30 12265 C 1165.49 1.84175 3.84684 0
M  V30 12266 S 1166.32 3.44781 4.09739 0
M  V30 12267 C 1167.48 3.06925 5.45479 0
M  V30 12268 H 1167.71 2.07923 2.12497 0
M  V30 12269 H 1165.24 1.16152 1.01725 0
M  V30 12270 H 1167.2 0.517974 4.07219 0
M  V30 12271 H 1165.86 -0.18045 3.13581 0
M  V30 12272 H 1165.06 1.51597 4.8066 0
M  V30 12273 H 1164.66 2.01986 3.14766 0
M  V30 12274 H 1166.95 2.56022 6.27263 0
M  V30 12275 H 1167.89 4.01877 5.8301 0
M  V30 12276 H 1168.3 2.44276 5.0891 0
M  V30 12277 N 1167.7 -1.08142 1.14644 0
M  V30 12278 C 1168.95 -1.81015 0.927648 0
M  V30 12279 C 1169.3 -1.8467 -0.539885 0
M  V30 12280 O 1168.59 -1.31353 -1.39488 0
M  V30 12281 C 1168.79 -3.25962 1.46573 0
M  V30 12282 C 1168.62 -3.36429 2.98405 0
M  V30 12283 C 1167.39 -3.4746 3.66878 0
M  V30 12284 C 1169.58 -3.27855 3.96252 0
M  V30 12285 N 1167.57 -3.46746 5.06597 0
M  V30 12286 C 1168.94 -3.34165 5.22239 0
M  V30 12287 C 1170.99 -3.11611 3.88334 0
M  V30 12288 C 1169.7 -3.25903 6.41233 0
M  V30 12289 C 1171.72 -3.04679 5.06877 0
M  V30 12290 C 1171.08 -3.11594 6.31735 0
M  V30 12291 H 1167.18 -0.676065 0.393014 0
M  V30 12292 H 1169.77 -1.29145 1.45704 0
M  V30 12293 H 1167.94 -3.7627 0.96308 0
M  V30 12294 H 1169.67 -3.86914 1.18659 0
M  V30 12295 H 1166.42 -3.51466 3.17441 0
M  V30 12296 H 1166.85 -3.49939 5.79544 0
M  V30 12297 H 1171.49 -3.05125 2.92675 0
M  V30 12298 H 1169.21 -3.3115 7.37133 0
M  V30 12299 H 1172.79 -2.93226 5.02503 0
M  V30 12300 H 1171.67 -3.06264 7.21922 0
M  V30 12301 N 1169.18 -0.941978 -1.26351 0
M  V30 12302 C 1170.09 -0.45833 -2.30079 0
M  V30 12303 C 1171.1 0.468084 -1.67586 0
M  V30 12304 O 1172.28 0.347418 -1.98381 0
M  V30 12305 C 1169.34 0.26797 -3.45663 0
M  V30 12306 C 1168.41 -0.695102 -4.23635 0
M  V30 12307 C 1167.64 -0.003369 -5.337 0
M  V30 12308 O 1167.86 1.21342 -5.57344 0
M  V30 12309 O 1166.8 -0.682476 -5.98018 0
M  V30 12310 H 1170.62 -1.31998 -2.73514 0
M  V30 12311 H 1168.21 -0.707897 -1.31564 0
M  V30 12312 H 1170.09 0.677061 -4.15925 0
M  V30 12313 H 1168.76 1.105 -3.04256 0
M  V30 12314 H 1167.67 -1.15415 -3.55851 0
M  V30 12315 H 1169 -1.49977 -4.68794 0
M  V30 12316 N 1170.66 1.40747 -0.709091 0
M  V30 12317 C 1171.9 2.00233 -0.242836 0
M  V30 12318 C 1172.22 1.56853 1.1686 0
M  V30 12319 O 1173.42 2.08993 1.73304 0
M  V30 12320 C 1171.88 3.57854 -0.383241 0
M  V30 12321 C 1171.49 4.10209 -1.80091 0
M  V30 12322 C 1173.23 4.24494 0.0225511 0
M  V30 12323 C 1171.14 5.60311 -1.89225 0
M  V30 12324 H 1170.07 0.74896 -0.087034 0
M  V30 12325 H 1172.72 1.61064 -0.879243 0
M  V30 12326 H 1171.1 3.94692 0.321642 0
M  V30 12327 H 1172.28 3.84762 -2.53564 0
M  V30 12328 H 1170.59 3.56142 -2.15758 0
M  V30 12329 H 1173.19 5.34694 -0.0250644 0
M  V30 12330 H 1173.53 4.02488 1.06344 0
M  V30 12331 H 1174.06 3.92739 -0.632541 0
M  V30 12332 H 1170.8 5.87162 -2.91412 0
M  V30 12333 H 1170.32 5.87642 -1.20154 0
M  V30 12334 H 1172 6.25306 -1.66136 0
M  V30 12335 N 1172.13 0.454803 1.50895 0
M  V30 12336 C 1173.1 -0.336293 2.26719 0
M  V30 12337 C 1174.1 -0.93464 1.30848 0
M  V30 12338 O 1175.29 -0.80636 1.54413 0
M  V30 12339 C 1172.42 -1.47744 3.07221 0
M  V30 12340 H 1173.61 0.328462 2.98096 0
M  V30 12341 H 1171.16 0.208419 1.54904 0
M  V30 12342 H 1171.9 -2.17773 2.40302 0
M  V30 12343 H 1171.68 -1.05438 3.77658 0
M  V30 12344 H 1173.17 -2.03592 3.6461 0
M  V30 12345 N 1173.61 -1.56489 0.186789 0
M  V30 12346 C 1174.84 -2.01722 -0.459993 0
M  V30 12347 C 1175.25 -1.06697 -1.5576 0
M  V30 12348 O 1174.61 -0.0704212 -1.82364 0
M  V30 12349 C 1174.66 -3.46693 -1.02401 0
M  V30 12350 O 1174.38 -4.3809 0.0297916 0
M  V30 12351 C 1175.88 -4.07403 -1.7475 0
M  V30 12352 H 1173.1 -0.660845 -0.116298 0
M  V30 12353 H 1175.65 -2.02389 0.293059 0
M  V30 12354 H 1173.8 -3.46752 -1.72749 0
M  V30 12355 H 1174.22 -5.23057 -0.388821 0
M  V30 12356 H 1175.69 -5.10718 -2.09455 0
M  V30 12357 H 1176.17 -3.50383 -2.64818 0
M  V30 12358 H 1176.77 -4.11093 -1.09007 0
M  V30 12359 N 1175.09 0.086862 -1.5736 0
M  V30 12360 C 1176.51 0.441284 -1.53378 0
M  V30 12361 C 1176.71 1.80046 -0.904748 0
M  V30 12362 O 1175.76 2.47484 -0.500781 0
M  V30 12363 C 1177.07 0.3962 -2.98078 0
M  V30 12364 C 1178.62 0.477468 -3.09337 0
M  V30 12365 C 1179.1 0.462448 -4.55659 0
M  V30 12366 N 1180.59 0.522963 -4.60238 0
M  V30 12367 C 1181.32 0.533313 -5.70914 0
M  V30 12368 N 1180.82 0.499376 -6.90998 0
M  V30 12369 N 1182.61 0.578742 -5.59113 0
M  V30 12370 H 1174.76 -0.803308 -1.96623 0
M  V30 12371 H 1177.03 -0.299879 -0.89932 0
M  V30 12372 H 1176.73 -0.535505 -3.47599 0
M  V30 12373 H 1176.61 1.21209 -3.57195 0
M  V30 12374 H 1178.99 1.39959 -2.59799 0
M  V30 12375 H 1179.07 -0.366717 -2.53158 0
M  V30 12376 H 1178.72 -0.455768 -5.05851 0
M  V30 12377 H 1178.65 1.32396 -5.09685 0
M  V30 12378 H 1181.14 0.554051 -3.73816 0
M  V30 12379 H 1181.45 0.510784 -7.7111 0
M  V30 12380 H 1179.8 0.466296 -6.93434 0
M  V30 12381 H 1182.99 0.602841 -4.64202 0
M  V30 12382 H 1183.16 0.583339 -6.45369 0
M  V30 12383 N 1176.57 1.53483 0.357892 0
M  V30 12384 C 1177.82 1.69701 1.09754 0
M  V30 12385 C 1178.14 0.455389 1.89608 0
M  V30 12386 O 1177.41 -0.530623 1.88577 0
M  V30 12387 H 1175.99 0.62562 0.408178 0
M  V30 12388 H 1178.65 1.90696 0.402641 0
M  V30 12389 H 1177.74 2.56154 1.78302 0
M  V30 12390 N 1178.05 -0.61812 1.44973 0
M  V30 12391 C 1178.98 -1.74277 1.47318 0
M  V30 12392 C 1179.96 -1.59203 0.330627 0
M  V30 12393 O 1181.14 -1.80909 0.529558 0
M  V30 12394 C 1178.27 -3.11994 1.31823 0
M  V30 12395 C 1177.31 -3.45685 2.49809 0
M  V30 12396 S 1178.15 -3.41704 4.12309 0
M  V30 12397 C 1179.3 -4.82019 3.9926 0
M  V30 12398 H 1179.54 -1.72023 2.42478 0
M  V30 12399 H 1177.07 -0.793867 1.32428 0
M  V30 12400 H 1179.03 -3.9146 1.2357 0
M  V30 12401 H 1177.69 -3.11774 0.381521 0
M  V30 12402 H 1176.88 -4.45931 2.34864 0
M  V30 12403 H 1176.48 -2.73711 2.54869 0
M  V30 12404 H 1178.77 -5.71567 3.63754 0
M  V30 12405 H 1179.72 -5.02019 4.99382 0
M  V30 12406 H 1180.13 -4.57205 3.31095 0
M  V30 12407 N 1179.52 -1.32087 -0.859693 0
M  V30 12408 C 1180.75 -1.25348 -1.64607 0
M  V30 12409 C 1181.17 0.179425 -1.87945 0
M  V30 12410 O 1180.52 1.11487 -1.44489 0
M  V30 12411 C 1180.57 -2.0047 -3.00822 0
M  V30 12412 O 1180.3 -3.38169 -2.7852 0
M  V30 12413 C 1181.8 -2.00694 -3.95268 0
M  V30 12414 H 1179.02 -0.432692 -0.512854 0
M  V30 12415 H 1181.56 -1.7413 -1.07234 0
M  V30 12416 H 1179.72 -1.55423 -3.54855 0
M  V30 12417 H 1180.13 -3.76553 -3.65113 0
M  V30 12418 H 1181.6 -2.57748 -4.88129 0
M  V30 12419 H 1182.08 -0.99196 -4.27851 0
M  V30 12420 H 1182.69 -2.45666 -3.47172 0
M  V30 12421 N 1181 1.07532 -1.15215 0
M  V30 12422 C 1182.41 1.61567 -0.935568 0
M  V30 12423 C 1182.76 1.89085 0.523557 0
M  V30 12424 O 1181.89 1.65495 1.39429 0
M  V30 12425 C 1182.48 2.93531 -1.69189 0
M  V30 12426 C 1181.04 3.44316 -1.52063 0
M  V30 12427 C 1180.19 2.18404 -1.70866 0
M  V30 12428 H 1183.14 0.906431 -1.30267 0
M  V30 12429 H 1183.16 3.62377 -1.16031 0
M  V30 12430 H 1182.67 2.73471 -2.75381 0
M  V30 12431 H 1180.77 3.69462 -0.482567 0
M  V30 12432 H 1180.89 4.20478 -2.29642 0
M  V30 12433 H 1179.25 2.28012 -1.13502 0
M  V30 12434 H 1180.03 2.00841 -2.7842 0
M  V30 12435 N 1182.48 0.948665 1.2585 0
M  V30 12436 C 1183.71 0.616334 1.97193 0
M  V30 12437 C 1184.12 -0.814538 1.70769 0
M  V30 12438 O 1183.46 -1.55569 0.976926 0
M  V30 12439 C 1183.52 0.787814 3.50762 0
M  V30 12440 C 1183.19 2.19472 4.0085 0
M  V30 12441 C 1184.18 3.17087 4.12009 0
M  V30 12442 C 1181.87 2.51731 4.34669 0
M  V30 12443 C 1183.86 4.45058 4.56292 0
M  V30 12444 C 1181.55 3.79932 4.78639 0
M  V30 12445 C 1182.55 4.76408 4.89412 0
M  V30 12446 O 1182.24 6.02325 5.32409 0
M  V30 12447 H 1181.97 0.230487 0.635493 0
M  V30 12448 H 1184.52 1.27379 1.61133 0
M  V30 12449 H 1182.75 0.0732154 3.86631 0
M  V30 12450 H 1184.44 0.457427 4.03314 0
M  V30 12451 H 1185.21 2.9349 3.8612 0
M  V30 12452 H 1181.09 1.77369 4.25513 0
M  V30 12453 H 1184.63 5.20363 4.64616 0
M  V30 12454 H 1180.53 4.03338 5.03973 0
M  V30 12455 H 1181.3 6.05615 5.50611 0
M  V30 12456 N 1183.96 -1.40369 0.716545 0
M  V30 12457 C 1185.37 -1.83783 0.328719 0
M  V30 12458 C 1185.72 -1.5991 -1.13681 0
M  V30 12459 O 1184.85 -1.08048 -1.87496 0
M  V30 12460 C 1185.44 -3.33626 0.589848 0
M  V30 12461 C 1184 -3.7553 0.25572 0
M  V30 12462 C 1183.15 -2.63571 0.861733 0
M  V30 12463 H 1186.1 -1.29623 0.915621 0
M  V30 12464 H 1186.12 -3.80225 -0.14459 0
M  V30 12465 H 1185.63 -3.5097 1.65655 0
M  V30 12466 H 1183.73 -3.63781 -0.805883 0
M  V30 12467 H 1183.84 -4.73577 0.725388 0
M  V30 12468 H 1182.21 -2.53047 0.289706 0
M  V30 12469 H 1182.99 -2.83727 1.93272 0
M  V30 12470 N 1185.44 -0.462799 -1.50652 0
M  V30 12471 C 1186.68 0.0948568 -2.01877 0
M  V30 12472 C 1187.01 1.4096 -1.34741 0
M  V30 12473 O 1186.28 1.89671 -0.49006 0
M  V30 12474 H 1184.86 0.0380453 -0.746031 0
M  V30 12475 H 1187.52 -0.611327 -1.85064 0
M  V30 12476 H 1186.61 0.252378 -3.11078 0
M  V30 12477 N 1186.91 1.56388 -0.195085 0
M  V30 12478 C 1188.16 1.97872 0.444344 0
M  V30 12479 C 1188.49 1.0819 1.61271 0
M  V30 12480 O 1187.77 0.133904 1.94039 0
M  V30 12481 C 1188.05 3.48556 0.90449 0
M  V30 12482 C 1187.9 4.49015 -0.265693 0
M  V30 12483 C 1189.22 4.02938 1.76999 0
M  V30 12484 H 1186.34 0.719413 0.160041 0
M  V30 12485 H 1188.98 1.87835 -0.286005 0
M  V30 12486 H 1187.13 3.5724 1.52682 0
M  V30 12487 H 1188.81 4.52368 -0.903363 0
M  V30 12488 H 1187.05 4.23987 -0.917462 0
M  V30 12489 H 1187.72 5.51912 0.0987834 0
M  V30 12490 H 1190.2 3.97033 1.24514 0
M  V30 12491 H 1189.07 5.08741 2.06092 0
M  V30 12492 H 1189.33 3.48197 2.72418 0
M  V30 12493 N 1188.39 -0.0785156 1.57404 0
M  V30 12494 C 1189.32 -1.12058 1.99939 0
M  V30 12495 C 1190.34 -1.35372 0.904343 0
M  V30 12496 O 1191.53 -1.33731 1.1823 0
M  V30 12497 C 1188.63 -2.47285 2.31739 0
M  V30 12498 C 1187.8 -2.44021 3.63005 0
M  V30 12499 C 1186.86 -3.61303 3.82552 0
M  V30 12500 O 1185.88 -3.43039 4.54217 0
M  V30 12501 N 1187.09 -4.81404 3.24392 0
M  V30 12502 H 1189.85 -0.758416 2.89945 0
M  V30 12503 H 1187.41 -0.267266 1.59679 0
M  V30 12504 H 1189.4 -3.24377 2.41995 0
M  V30 12505 H 1187.97 -2.75529 1.47657 0
M  V30 12506 H 1187.19 -1.52361 3.63565 0
M  V30 12507 H 1188.48 -2.38934 4.49208 0
M  V30 12508 H 1187.88 -4.99147 2.66211 0
M  V30 12509 H 1186.44 -5.56031 3.40107 0
M  V30 12510 N 1189.87 -1.5367 -0.349747 0
M  V30 12511 C 1190.82 -1.81914 -1.44948 0
M  V30 12512 C 1191.81 -0.689218 -1.54745 0
M  V30 12513 O 1193.02 -0.872448 -1.57443 0
M  V30 12514 H 1189.39 -0.576234 -0.483176 0
M  V30 12515 H 1191.36 -2.73932 -1.18338 0
M  V30 12516 C 1190.11 -2.04005 -2.81562 0
M  V30 12517 H 1189.44 -2.90399 -2.74788 0
M  V30 12518 H 1190.88 -2.27737 -3.57648 0
M  V30 12519 C 1189.34 -0.823748 -3.26674 0
M  V30 12520 O 1189.87 -0.0201351 -4.01695 0
M  V30 12521 N 1188.07 -0.642716 -2.83403 0
M  V30 12522 H 1187.62 -1.29783 -2.22517 0
M  V30 12523 H 1187.58 0.169654 -3.13942 0
M  V30 12524 N 1191.35 0.610423 -1.45298 0
M  V30 12525 C 1192.3 1.71552 -1.5018 0
M  V30 12526 C 1193.28 1.56697 -0.365357 0
M  V30 12527 O 1194.47 1.66082 -0.612029 0
M  V30 12528 C 1191.6 3.10298 -1.46867 0
M  V30 12529 C 1190.69 3.30549 -2.65703 0
M  V30 12530 N 1191.08 3.21073 -3.90827 0
M  V30 12531 C 1189.38 3.6141 -2.6134 0
M  V30 12532 C 1190.08 3.42577 -4.70123 0
M  V30 12533 N 1189.06 3.66434 -4.01531 0
M  V30 12534 H 1192.86 1.62714 -2.44747 0
M  V30 12535 H 1190.37 0.813587 -1.40551 0
M  V30 12536 H 1192.37 3.89575 -1.48449 0
M  V30 12537 H 1191.03 3.20286 -0.533548 0
M  V30 12538 H 1192.04 2.99537 -4.2249 0
M  V30 12539 H 1188.72 3.78253 -1.76722 0
M  V30 12540 H 1190.11 3.40669 -5.79132 0
M  V30 12541 N 1192.83 1.32541 0.852676 0
M  V30 12542 C 1193.74 1.23646 1.99371 0
M  V30 12543 C 1194.75 0.149673 1.73355 0
M  V30 12544 O 1195.93 0.370716 1.97959 0
M  V30 12545 C 1192.99 0.961873 3.3309 0
M  V30 12546 C 1192.05 2.1373 3.72315 0
M  V30 12547 C 1191.29 1.87572 4.99652 0
M  V30 12548 O 1191.51 0.819247 5.64486 0
M  V30 12549 O 1190.44 2.73732 5.36054 0
M  V30 12550 H 1194.27 2.19573 2.09813 0
M  V30 12551 H 1191.86 1.12451 0.983627 0
M  V30 12552 H 1193.74 0.825316 4.13239 0
M  V30 12553 H 1192.41 0.0327745 3.23683 0
M  V30 12554 H 1191.32 2.32933 2.92733 0
M  V30 12555 H 1192.65 3.04925 3.86369 0
M  V30 12556 N 1194.3 -1.0692 1.15784 0
M  V30 12557 C 1195.24 -2.13637 0.802141 0
M  V30 12558 C 1196.22 -1.61058 -0.223384 0
M  V30 12559 O 1197.4 -1.88185 -0.108927 0
M  V30 12560 C 1194.53 -3.38146 0.193568 0
M  V30 12561 C 1193.57 -4.09513 1.19169 0
M  V30 12562 S 1194.41 -4.60351 2.73564 0
M  V30 12563 C 1195.56 -5.88129 2.14138 0
M  V30 12564 H 1195.79 -2.4348 1.70601 0
M  V30 12565 H 1193.33 -1.19259 0.980646 0
M  V30 12566 H 1195.29 -4.10222 -0.151106 0
M  V30 12567 H 1193.95 -3.06473 -0.687968 0
M  V30 12568 H 1193.14 -4.98914 0.714183 0
M  V30 12569 H 1192.74 -3.43422 1.48113 0
M  V30 12570 H 1195.03 -6.60547 1.50614 0
M  V30 12571 H 1195.98 -6.406 3.01724 0
M  V30 12572 H 1196.38 -5.41859 1.5827 0
M  V30 12573 N 1195.78 -0.955326 -1.25345 0
M  V30 12574 C 1197.01 -0.626783 -1.96863 0
M  V30 12575 C 1197.42 0.80547 -1.71198 0
M  V30 12576 O 1196.76 1.55049 -0.985163 0
M  V30 12577 C 1196.83 -0.806404 -3.50339 0
M  V30 12578 C 1196.49 -2.21595 -3.99681 0
M  V30 12579 C 1197.49 -3.19268 -4.10322 0
M  V30 12580 C 1195.17 -2.54032 -4.33328 0
M  V30 12581 C 1197.17 -4.47471 -4.53926 0
M  V30 12582 C 1194.85 -3.82465 -4.76617 0
M  V30 12583 C 1195.85 -4.78997 -4.86879 0
M  V30 12584 O 1195.54 -6.0514 -5.29208 0
M  V30 12585 H 1195.27 -0.233854 -0.634262 0
M  V30 12586 H 1197.82 -1.28232 -1.60455 0
M  V30 12587 H 1196.05 -0.0937184 -3.86586 0
M  V30 12588 H 1197.74 -0.47881 -4.03066 0
M  V30 12589 H 1198.51 -2.95534 -3.84558 0
M  V30 12590 H 1194.39 -1.79623 -4.24566 0
M  V30 12591 H 1197.93 -5.22819 -4.6185 0
M  V30 12592 H 1193.83 -4.06005 -5.01827 0
M  V30 12593 H 1194.6 -6.08527 -5.47392 0
M  V30 12594 N 1197.26 1.39987 -0.723979 0
M  V30 12595 C 1198.54 1.94637 -0.1939 0
M  V30 12596 C 1198.92 1.66156 1.30212 0
M  V30 12597 O 1198.27 0.983783 2.06238 0
M  V30 12598 C 1198.48 3.4517 -0.515652 0
M  V30 12599 C 1199.82 4.22113 -0.458919 0
M  V30 12600 O 1200.85 3.53318 -0.452198 0
M  V30 12601 O 1199.71 5.44695 -0.443783 0
M  V30 12602 H 1196.8 0.826394 -0.0316615 0
M  V30 12603 H 1199.35 1.49548 -0.802085 0
M  V30 12604 H 1198.12 3.5929 -1.55004 0
M  V30 12605 H 1197.74 3.97413 0.122067 0
M  V30 12606 N 1198.74 0.470782 1.50404 0
M  V30 12607 C 1199.97 -0.0818945 2.06438 0
M  V30 12608 C 1200.38 -1.34085 1.33483 0
M  V30 12609 O 1199.72 -1.79346 0.397565 0
M  V30 12610 C 1199.78 -0.436252 3.56843 0
M  V30 12611 C 1199.45 0.720641 4.51282 0
M  V30 12612 C 1200.44 1.60258 4.94584 0
M  V30 12613 C 1198.13 0.910879 4.93972 0
M  V30 12614 C 1200.12 2.65916 5.79282 0
M  V30 12615 C 1197.81 1.97069 5.78452 0
M  V30 12616 C 1198.81 2.84319 6.21008 0
M  V30 12617 O 1198.5 3.88476 7.03805 0
M  V30 12618 H 1198.23 0.00361688 0.67599 0
M  V30 12619 H 1200.78 0.658488 1.94559 0
M  V30 12620 H 1199.01 -1.22982 3.66623 0
M  V30 12621 H 1200.7 -0.923976 3.95244 0
M  V30 12622 H 1201.47 1.46729 4.62272 0
M  V30 12623 H 1197.35 0.241225 4.60368 0
M  V30 12624 H 1200.89 3.3405 6.12419 0
M  V30 12625 H 1196.79 2.10605 6.10177 0
M  V30 12626 H 1197.55 3.8546 7.22054 0
M  V30 12627 N 1200.22 -1.56282 0.203376 0
M  V30 12628 C 1201.15 -2.2247 -0.709183 0
M  V30 12629 C 1202.13 -1.19046 -1.21499 0
M  V30 12630 O 1203.31 -1.47578 -1.26231 0
M  V30 12631 C 1200.44 -2.8905 -1.92529 0
M  V30 12632 C 1199.4 -3.98789 -1.55407 0
M  V30 12633 C 1198.72 -4.52574 -2.84747 0
M  V30 12634 C 1200.02 -5.16774 -0.75775 0
M  V30 12635 H 1201.72 -2.98986 -0.157392 0
M  V30 12636 H 1199.26 -1.43808 -0.0742613 0
M  V30 12637 H 1201.22 -3.34038 -2.56898 0
M  V30 12638 H 1199.94 -2.09952 -2.50175 0
M  V30 12639 H 1198.6 -3.54504 -0.933928 0
M  V30 12640 H 1198.25 -3.70229 -3.40499 0
M  V30 12641 H 1197.95 -5.26627 -2.6065 0
M  V30 12642 H 1199.47 -5.00269 -3.5009 0
M  V30 12643 H 1200.89 -5.58256 -1.30472 0
M  V30 12644 H 1199.28 -5.96945 -0.614583 0
M  V30 12645 H 1200.35 -4.84308 0.239476 0
M  V30 12646 N 1201.7 0.070167 -1.57444 0
M  V30 12647 C 1202.63 1.08351 -2.06839 0
M  V30 12648 C 1203.61 1.40269 -0.962224 0
M  V30 12649 O 1204.79 1.49867 -1.23505 0
M  V30 12650 C 1201.92 2.39649 -2.51368 0
M  V30 12651 C 1200.88 2.22079 -3.65875 0
M  V30 12652 C 1200.2 3.58776 -3.96464 0
M  V30 12653 C 1201.5 1.64069 -4.95862 0
M  V30 12654 H 1203.2 0.672465 -2.9175 0
M  V30 12655 H 1200.74 0.322027 -1.40353 0
M  V30 12656 H 1202.69 3.10833 -2.84537 0
M  V30 12657 H 1201.42 2.82736 -1.63487 0
M  V30 12658 H 1200.08 1.53337 -3.32992 0
M  V30 12659 H 1199.73 3.99436 -3.05712 0
M  V30 12660 H 1199.43 3.47859 -4.7357 0
M  V30 12661 H 1200.95 4.31387 -4.32131 0
M  V30 12662 H 1202.36 2.2512 -5.27251 0
M  V30 12663 H 1200.76 1.63843 -5.773 0
M  V30 12664 H 1201.83 0.60232 -4.81145 0
M  V30 12665 N 1203.17 1.53854 0.341593 0
M  V30 12666 C 1204.12 1.7836 1.42028 0
M  V30 12667 C 1205.11 0.638876 1.47673 0
M  V30 12668 O 1206.3 0.898328 1.52509 0
M  V30 12669 C 1203.43 1.99837 2.79142 0
M  V30 12670 C 1202.51 3.20379 2.77881 0
M  V30 12671 N 1202.91 4.41809 2.46249 0
M  V30 12672 C 1201.2 3.21588 3.09026 0
M  V30 12673 C 1201.9 5.23668 2.53271 0
M  V30 12674 N 1200.88 4.60429 2.88974 0
M  V30 12675 H 1204.68 2.69836 1.16472 0
M  V30 12676 H 1202.2 1.52804 0.549966 0
M  V30 12677 H 1204.19 2.15528 3.56866 0
M  V30 12678 H 1202.85 1.09603 3.05642 0
M  V30 12679 H 1203.86 4.69125 2.19413 0
M  V30 12680 H 1200.54 2.41329 3.40686 0
M  V30 12681 H 1201.93 6.30591 2.31958 0
M  V30 12682 N 1204.65 -0.602709 1.4562 0
M  V30 12683 C 1205.9 -1.35889 1.49595 0
M  V30 12684 C 1206.22 -1.9449 0.141002 0
M  V30 12685 O 1205.49 -1.77438 -0.830209 0
M  V30 12686 H 1204.07 -0.504478 0.550918 0
M  V30 12687 H 1206.73 -0.707376 1.8161 0
M  V30 12688 H 1205.83 -2.17583 2.2375 0
M  V30 12689 N 1206.13 -1.32992 -0.845635 0
M  V30 12690 C 1207.08 -1.19256 -1.94325 0
M  V30 12691 C 1208.06 -0.0971701 -1.60606 0
M  V30 12692 O 1209.26 -0.324591 -1.73998 0
M  V30 12693 C 1206.38 -0.927027 -3.30547 0
M  V30 12694 C 1205.47 -2.06454 -3.70456 0
M  V30 12695 N 1205.86 -3.31393 -3.82116 0
M  V30 12696 C 1204.16 -1.96972 -4.00147 0
M  V30 12697 C 1204.86 -4.05955 -4.16624 0
M  V30 12698 N 1203.84 -3.34332 -4.28629 0
M  V30 12699 H 1207.64 -2.13965 -2.01485 0
M  V30 12700 H 1205.15 -1.24901 -1.03795 0
M  V30 12701 H 1207.15 -0.809565 -4.08964 0
M  V30 12702 H 1205.81 0.011597 -3.24698 0
M  V30 12703 H 1206.82 -3.66222 -3.662 0
M  V30 12704 H 1203.5 -1.10728 -4.02549 0
M  V30 12705 H 1204.89 -5.13738 -4.33039 0
M  V30 12706 N 1207.61 1.06304 -1.1635 0
M  V30 12707 C 1209.02 1.31227 -0.90838 0
M  V30 12708 C 1209.22 1.96665 0.438779 0
M  V30 12709 O 1208.28 2.2332 1.17833 0
M  V30 12710 C 1209.59 2.19303 -2.05734 0
M  V30 12711 C 1211.14 2.3272 -2.09309 0
M  V30 12712 C 1211.62 3.24151 -3.23559 0
M  V30 12713 N 1213.11 3.31734 -3.23275 0
M  V30 12714 C 1213.84 4.02572 -4.08318 0
M  V30 12715 N 1213.34 4.75933 -5.03448 0
M  V30 12716 N 1215.13 3.98621 -3.96305 0
M  V30 12717 H 1207.28 0.622228 -2.03081 0
M  V30 12718 H 1209.54 0.336892 -0.886119 0
M  V30 12719 H 1209.25 1.78497 -3.03037 0
M  V30 12720 H 1209.12 3.19888 -1.99879 0
M  V30 12721 H 1211.51 2.72774 -1.12599 0
M  V30 12722 H 1211.59 1.31804 -2.19229 0
M  V30 12723 H 1211.24 2.84813 -4.20528 0
M  V30 12724 H 1211.17 4.25046 -3.10875 0
M  V30 12725 H 1213.66 2.79453 -2.5439 0
M  V30 12726 H 1213.97 5.27512 -5.64758 0
M  V30 12727 H 1212.32 4.74913 -5.07427 0
M  V30 12728 H 1215.51 3.40427 -3.21289 0
M  V30 12729 H 1215.68 4.5356 -4.62804 0
M  V30 12730 N 1209.09 0.96196 1.24836 0
M  V30 12731 C 1210.02 0.506241 2.27946 0
M  V30 12732 C 1211 -0.451183 1.64007 0
M  V30 12733 O 1212.18 -0.348552 1.91046 0
M  V30 12734 C 1209.31 -0.209846 3.46665 0
M  V30 12735 C 1208.27 0.663035 4.22833 0
M  V30 12736 C 1207.59 -0.184216 5.34383 0
M  V30 12737 C 1208.89 1.94479 4.84742 0
M  V30 12738 H 1210.59 1.36805 2.66317 0
M  V30 12739 H 1208.13 0.65926 1.28023 0
M  V30 12740 H 1210.08 -0.539838 4.17928 0
M  V30 12741 H 1208.81 -1.10596 3.07305 0
M  V30 12742 H 1207.47 0.976216 3.53363 0
M  V30 12743 H 1207.12 -1.08031 4.91262 0
M  V30 12744 H 1206.82 0.39657 5.8626 0
M  V30 12745 H 1208.34 -0.509009 6.08475 0
M  V30 12746 H 1209.75 1.68074 5.48109 0
M  V30 12747 H 1208.15 2.47183 5.46828 0
M  V30 12748 H 1209.22 2.64332 4.06517 0
M  V30 12749 N 1210.56 -1.39601 0.731392 0
M  V30 12750 C 1211.51 -2.30628 0.0890606 0
M  V30 12751 C 1212.48 -1.49025 -0.73353 0
M  V30 12752 O 1213.67 -1.77722 -0.694234 0
M  V30 12753 C 1210.81 -3.35339 -0.814956 0
M  V30 12754 C 1209.92 -4.31995 0.0198606 0
M  V30 12755 C 1209.05 -5.23774 -0.885095 0
M  V30 12756 C 1208.09 -6.12083 -0.045311 0
M  V30 12757 N 1207.23 -6.9623 -0.906002 0
M  V30 12758 H 1212.07 -2.84988 0.870958 0
M  V30 12759 H 1209.61 -1.40329 0.441166 0
M  V30 12760 H 1211.56 -3.94634 -1.3535 0
M  V30 12761 H 1210.19 -2.82443 -1.56287 0
M  V30 12762 H 1209.25 -3.74349 0.675778 0
M  V30 12763 H 1210.56 -4.94289 0.669346 0
M  V30 12764 H 1209.71 -5.88078 -1.49161 0
M  V30 12765 H 1208.45 -4.61794 -1.56837 0
M  V30 12766 H 1207.46 -5.46795 0.574028 0
M  V30 12767 H 1208.68 -6.76128 0.634692 0
M  V30 12768 H 1206.63 -6.36821 -1.57463 0
M  V30 12769 H 1206.54 -7.55352 -0.312914 0
M  V30 12770 H 1207.81 -7.64967 -1.49819 0
M  V30 12771 N 1212.04 -0.478751 -1.50152 0
M  V30 12772 C 1212.97 0.347829 -2.26545 0
M  V30 12773 C 1213.99 0.950354 -1.32182 0
M  V30 12774 O 1215.18 0.837462 -1.57635 0
M  V30 12775 C 1212.28 1.50255 -3.0377 0
M  V30 12776 C 1211.45 1.01142 -4.25546 0
M  V30 12777 C 1210.51 2.0411 -4.85 0
M  V30 12778 O 1209.53 1.61862 -5.45701 0
M  V30 12779 N 1210.74 3.36982 -4.72677 0
M  V30 12780 H 1213.5 -0.307113 -2.98122 0
M  V30 12781 H 1211.06 -0.309981 -1.58905 0
M  V30 12782 H 1213.05 2.18848 -3.40423 0
M  V30 12783 H 1211.62 2.06205 -2.34943 0
M  V30 12784 H 1210.84 0.151124 -3.9391 0
M  V30 12785 H 1212.13 0.661326 -5.04484 0
M  V30 12786 H 1211.53 3.74011 -4.2442 0
M  V30 12787 H 1210.09 4.0135 -5.13577 0
M  V30 12788 N 1213.52 1.56172 -0.211661 0
M  V30 12789 C 1214.93 1.84307 0.297982 0
M  V30 12790 C 1215.28 1.1328 1.60194 0
M  V30 12791 O 1214.41 0.399137 2.12687 0
M  V30 12792 C 1215 3.34348 0.547428 0
M  V30 12793 C 1213.56 3.62835 1.0014 0
M  V30 12794 C 1212.71 2.77237 0.0590326 0
M  V30 12795 H 1215.66 1.5262 -0.435083 0
M  V30 12796 H 1215.68 3.54018 1.39469 0
M  V30 12797 H 1215.19 3.86015 -0.401778 0
M  V30 12798 H 1213.29 3.16616 1.96431 0
M  V30 12799 H 1213.41 4.70899 0.882653 0
M  V30 12800 H 1211.77 2.48377 0.564005 0
M  V30 12801 H 1212.55 3.31699 -0.884913 0
M  V30 12802 N 1215 -0.0618163 1.57479 0
M  V30 12803 C 1215.91 -1.09006 2.07738 0
M  V30 12804 C 1216.92 -1.4176 1.00896 0
M  V30 12805 O 1218.1 -1.51737 1.32431 0
M  V30 12806 C 1215.17 -2.38153 2.5196 0
M  V30 12807 C 1214.23 -2.12279 3.73143 0
M  V30 12808 C 1213.46 -3.35269 4.15248 0
M  V30 12809 O 1213.68 -4.44758 3.57137 0
M  V30 12810 O 1212.62 -3.22894 5.0796 0
M  V30 12811 H 1216.44 -0.693059 2.95686 0
M  V30 12812 H 1214.03 -0.276628 1.46817 0
M  V30 12813 H 1215.91 -3.14139 2.80882 0
M  V30 12814 H 1214.58 -2.77213 1.67137 0
M  V30 12815 H 1213.49 -1.33966 3.49291 0
M  V30 12816 H 1214.82 -1.78094 4.5885 0
M  V30 12817 N 1216.48 -1.54033 -0.333429 0
M  V30 12818 C 1217.75 -1.62404 -1.09015 0
M  V30 12819 C 1218.13 -0.451653 -2.06212 0
M  V30 12820 O 1217.48 0.555086 -2.21655 0
M  V30 12821 C 1217.69 -2.98949 -1.80085 0
M  V30 12822 C 1219.04 -3.54655 -2.33464 0
M  V30 12823 O 1220.06 -3.0119 -1.90166 0
M  V30 12824 O 1218.92 -4.48195 -3.12703 0
M  V30 12825 H 1216.02 -0.65727 -0.501921 0
M  V30 12826 H 1218.56 -1.66378 -0.33411 0
M  V30 12827 H 1217.33 -3.75716 -1.09332 0
M  V30 12828 H 1216.96 -2.98609 -2.62523 0
M  V30 12829 N 1217.95 0.594978 -1.45938 0
M  V30 12830 C 1219.19 1.36479 -1.52161 0
M  V30 12831 C 1219.56 1.91296 -0.164295 0
M  V30 12832 O 1220.76 2.68609 -0.101247 0
M  V30 12833 C 1219.03 2.47286 -2.5804 0
M  V30 12834 S 1220.59 3.34855 -2.8358 0
M  V30 12835 H 1217.41 0.465134 -0.537746 0
M  V30 12836 H 1220.01 0.685257 -1.83097 0
M  V30 12837 H 1218.71 2.05386 -3.5531 0
M  V30 12838 H 1218.24 3.20025 -2.28795 0
M  V30 12839 H 1220.26 4.45788 -2.17916 0
M  V30 12840 N 1219.43 1.33438 0.838571 0
M  V30 12841 C 1220.36 1.26344 1.96365 0
M  V30 12842 C 1221.34 0.143956 1.6949 0
M  V30 12843 O 1222.53 0.333779 1.9131 0
M  V30 12844 C 1219.66 1.0022 3.32526 0
M  V30 12845 C 1218.61 2.08466 3.73799 0
M  V30 12846 C 1217.94 1.67555 5.07769 0
M  V30 12847 C 1219.24 3.50144 3.87552 0
M  V30 12848 H 1220.93 2.20478 2.02558 0
M  V30 12849 H 1218.48 1.06139 0.973168 0
M  V30 12850 H 1220.43 0.939068 4.10803 0
M  V30 12851 H 1219.16 0.0252514 3.2659 0
M  V30 12852 H 1217.81 2.13822 2.97785 0
M  V30 12853 H 1217.46 0.685619 4.98305 0
M  V30 12854 H 1217.16 2.39993 5.36356 0
M  V30 12855 H 1218.69 1.62708 5.88522 0
M  V30 12856 H 1220.1 3.47287 4.56141 0
M  V30 12857 H 1218.5 4.21069 4.27575 0
M  V30 12858 H 1219.57 3.88628 2.89994 0
M  V30 12859 N 1220.91 -1.05686 1.16912 0
M  V30 12860 C 1222.19 -1.7546 0.864483 0
M  V30 12861 C 1222.57 -2.0128 -0.636359 0
M  V30 12862 O 1221.92 -1.64485 -1.58609 0
M  V30 12863 C 1222.13 -3.05134 1.69395 0
M  V30 12864 C 1223.47 -3.79176 1.91079 0
M  V30 12865 O 1224.5 -3.1499 1.66312 0
M  V30 12866 O 1223.36 -4.94496 2.32671 0
M  V30 12867 H 1220.45 -0.762748 0.319601 0
M  V30 12868 H 1223 -1.11899 1.27581 0
M  V30 12869 H 1221.77 -2.82063 2.71212 0
M  V30 12870 H 1221.39 -3.76431 1.28007 0
M  V30 12871 N 1222.39 -0.968567 -1.24324 0
M  V30 12872 C 1223.3 -0.50703 -2.29055 0
M  V30 12873 C 1224.31 0.432431 -1.68541 0
M  V30 12874 O 1225.49 0.30526 -1.99073 0
M  V30 12875 C 1222.56 0.194589 -3.46153 0
M  V30 12876 C 1221.62 -0.784805 -4.22066 0
M  V30 12877 C 1220.85 -0.116574 -5.33573 0
M  V30 12878 O 1221.07 1.09492 -5.59792 0
M  V30 12879 O 1220.01 -0.809171 -5.96436 0
M  V30 12880 H 1223.83 -1.3777 -2.70653 0
M  V30 12881 H 1221.42 -0.735645 -1.30033 0
M  V30 12882 H 1223.3 0.588684 -4.17268 0
M  V30 12883 H 1221.97 1.04021 -3.06531 0
M  V30 12884 H 1220.88 -1.22938 -3.53323 0
M  V30 12885 H 1222.21 -1.59887 -4.65507 0
M  V30 12886 N 1223.87 1.39211 -0.738786 0
M  V30 12887 C 1224.8 2.33209 -0.11647 0
M  V30 12888 C 1225.78 1.54108 0.720056 0
M  V30 12889 O 1226.96 1.82486 0.664264 0
M  V30 12890 C 1224.09 3.38226 0.78872 0
M  V30 12891 C 1223.05 4.27963 0.0560636 0
M  V30 12892 C 1222.37 5.2371 1.07852 0
M  V30 12893 C 1223.67 5.10508 -1.1036 0
M  V30 12894 H 1225.37 2.85501 -0.901649 0
M  V30 12895 H 1222.91 1.37272 -0.435032 0
M  V30 12896 H 1224.87 4.02938 1.23364 0
M  V30 12897 H 1223.59 2.84382 1.60606 0
M  V30 12898 H 1222.25 3.64735 -0.369274 0
M  V30 12899 H 1221.9 4.66161 1.88953 0
M  V30 12900 H 1221.6 5.846 0.593048 0
M  V30 12901 H 1223.12 5.91299 1.52307 0
M  V30 12902 H 1224.53 5.68544 -0.736943 0
M  V30 12903 H 1222.93 5.80558 -1.51895 0
M  V30 12904 H 1224 4.45117 -1.92352 0
M  V30 12905 N 1225.34 0.486708 1.49896 0
M  V30 12906 C 1226.57 -0.0599944 2.06513 0
M  V30 12907 C 1226.98 -1.32662 1.34898 0
M  V30 12908 O 1226.33 -1.78915 0.416565 0
M  V30 12909 C 1226.39 -0.39838 3.57286 0
M  V30 12910 C 1226.05 0.768465 4.50493 0
M  V30 12911 C 1227.05 1.65495 4.92856 0
M  V30 12912 C 1224.73 0.96322 4.92978 0
M  V30 12913 C 1226.73 2.72046 5.76429 0
M  V30 12914 C 1224.41 2.03193 5.7633 0
M  V30 12915 C 1225.41 2.9089 6.17958 0
M  V30 12916 O 1225.1 3.95919 6.99645 0
M  V30 12917 H 1224.83 0.0107865 0.675914 0
M  V30 12918 H 1227.39 0.679087 1.93849 0
M  V30 12919 H 1225.62 -1.19086 3.67907 0
M  V30 12920 H 1227.31 -0.882003 3.96201 0
M  V30 12921 H 1228.07 1.51624 4.6069 0
M  V30 12922 H 1223.95 0.29004 4.60087 0
M  V30 12923 H 1227.49 3.40526 6.08841 0
M  V30 12924 H 1223.39 2.17064 6.07909 0
M  V30 12925 H 1224.16 3.93097 7.17925 0
M  V30 12926 N 1226.82 -1.56058 0.219941 0
M  V30 12927 C 1227.73 -2.23844 -0.70222 0
M  V30 12928 C 1228.75 -1.24554 -1.215 0
M  V30 12929 O 1229.93 -1.57362 -1.25695 0
M  V30 12930 C 1226.99 -2.90384 -1.89416 0
M  V30 12931 C 1226.05 -4.05012 -1.42351 0
M  V30 12932 C 1225.28 -4.68369 -2.55863 0
M  V30 12933 O 1225.51 -4.3071 -3.73958 0
M  V30 12934 O 1224.44 -5.5739 -2.27157 0
M  V30 12935 H 1228.27 -3.03305 -0.15478 0
M  V30 12936 H 1225.85 -1.49396 -0.010438 0
M  V30 12937 H 1227.73 -3.32389 -2.59028 0
M  V30 12938 H 1226.41 -2.13883 -2.42973 0
M  V30 12939 H 1225.32 -3.67579 -0.695448 0
M  V30 12940 H 1226.65 -4.83251 -0.934332 0
M  V30 12941 N 1228.3 0.053464 -1.57509 0
M  V30 12942 C 1229.55 0.748016 -1.87317 0
M  V30 12943 C 1229.86 1.77805 -0.815161 0
M  V30 12944 O 1231.07 2.52347 -1.00167 0
M  V30 12945 C 1229.53 1.38137 -3.32334 0
M  V30 12946 C 1229.13 0.388958 -4.46308 0
M  V30 12947 C 1230.88 2.05722 -3.7132 0
M  V30 12948 C 1228.78 1.02927 -5.82374 0
M  V30 12949 H 1227.71 0.283123 -0.698826 0
M  V30 12950 H 1230.37 0.00170723 -1.835 0
M  V30 12951 H 1228.75 2.17656 -3.3082 0
M  V30 12952 H 1229.92 -0.377752 -4.59249 0
M  V30 12953 H 1228.24 -0.183447 -4.15996 0
M  V30 12954 H 1230.83 2.54437 -4.70283 0
M  V30 12955 H 1231.18 2.86475 -3.02056 0
M  V30 12956 H 1231.71 1.3301 -3.74904 0
M  V30 12957 H 1228.45 0.261674 -6.54977 0
M  V30 12958 H 1227.97 1.7664 -5.732 0
M  V30 12959 H 1229.65 1.54378 -6.28312 0
M  V30 12960 N 1229.78 1.54207 0.325255 0
M  V30 12961 C 1230.71 1.78318 1.42401 0
M  V30 12962 C 1231.69 0.633078 1.49769 0
M  V30 12963 O 1232.87 0.870324 1.67205 0
M  V30 12964 C 1230 1.89823 2.80509 0
M  V30 12965 C 1229.05 3.12102 2.9068 0
M  V30 12966 S 1229.88 4.70746 2.55262 0
M  V30 12967 C 1231.04 4.85154 3.95444 0
M  V30 12968 H 1231.27 2.71234 1.21736 0
M  V30 12969 H 1228.8 1.45309 0.521993 0
M  V30 12970 H 1230.76 1.97136 3.60066 0
M  V30 12971 H 1229.42 0.978873 2.98458 0
M  V30 12972 H 1228.61 3.16881 3.91921 0
M  V30 12973 H 1228.22 3.03109 2.19091 0
M  V30 12974 H 1230.51 4.67687 4.90178 0
M  V30 12975 H 1231.45 5.87254 3.95649 0
M  V30 12976 H 1231.86 4.13471 3.8432 0
M  V30 12977 N 1231.26 -0.58723 1.46251 0
M  V30 12978 C 1232.49 -1.36976 1.54665 0
M  V30 12979 C 1232.9 -1.88293 0.185079 0
M  V30 12980 O 1232.24 -1.64028 -0.82707 0
M  V30 12981 C 1232.3 -2.59591 2.48702 0
M  V30 12982 C 1231.96 -2.29773 3.95036 0
M  V30 12983 C 1232.96 -1.88885 4.84374 0
M  V30 12984 C 1230.65 -2.42057 4.40129 0
M  V30 12985 C 1232.64 -1.60669 6.16818 0
M  V30 12986 C 1230.33 -2.13454 5.72609 0
M  V30 12987 C 1231.33 -1.72824 6.60773 0
M  V30 12988 O 1231.01 -1.44569 7.90794 0
M  V30 12989 H 1230.75 -0.424968 0.525717 0
M  V30 12990 H 1233.3 -0.721298 1.92319 0
M  V30 12991 H 1231.53 -3.27226 2.06058 0
M  V30 12992 H 1233.22 -3.21656 2.47573 0
M  V30 12993 H 1233.98 -1.78913 4.50794 0
M  V30 12994 H 1229.86 -2.72644 3.71734 0
M  V30 12995 H 1233.41 -1.28882 6.85591 0
M  V30 12996 H 1229.3 -2.23048 6.05739 0
M  V30 12997 H 1230.07 -1.58452 8.03016 0
M  V30 12998 N 1232.74 -1.33881 -0.831482 0
M  V30 12999 C 1233.96 -1.28961 -1.62431 0
M  V30 13000 C 1234.39 0.135249 -1.87613 0
M  V30 13001 O 1233.74 1.09426 -1.44553 0
M  V30 13002 C 1233.79 -2.07767 -2.94729 0
M  V30 13003 O 1232.9 -1.44133 -3.86393 0
M  V30 13004 H 1232.24 -0.443313 -0.494337 0
M  V30 13005 H 1234.77 -1.76555 -1.0339 0
M  V30 13006 H 1234.78 -2.18806 -3.44366 0
M  V30 13007 H 1233.45 -3.11367 -2.75724 0
M  V30 13008 H 1232.03 -1.41784 -3.44894 0
M  V30 13009 N 1234.21 1.05064 -1.1747 0
M  V30 13010 C 1235.45 1.79662 -0.974724 0
M  V30 13011 C 1235.82 1.85699 0.487857 0
M  V30 13012 O 1237.02 2.56401 0.806954 0
M  V30 13013 C 1235.29 3.19597 -1.59976 0
M  V30 13014 S 1236.85 4.10657 -1.54615 0
M  V30 13015 H 1233.67 0.618746 -0.350249 0
M  V30 13016 H 1236.27 1.2605 -1.49438 0
M  V30 13017 H 1234.97 3.12807 -2.65669 0
M  V30 13018 H 1234.5 3.78286 -1.07996 0
M  V30 13019 H 1236.52 4.93086 -0.555033 0
M  V30 13020 N 1235.69 0.975146 1.23809 0
M  V30 13021 C 1236.94 0.651686 1.92677 0
M  V30 13022 C 1237.29 -0.805298 1.74736 0
M  V30 13023 O 1236.59 -1.5727 1.09438 0
M  V30 13024 C 1236.78 0.971016 3.43956 0
M  V30 13025 C 1236.61 2.45749 3.76613 0
M  V30 13026 C 1235.38 3.11859 3.97583 0
M  V30 13027 C 1237.58 3.43793 3.82506 0
M  V30 13028 N 1235.56 4.50166 4.17401 0
M  V30 13029 C 1236.93 4.67487 4.07254 0
M  V30 13030 C 1238.98 3.38347 3.65274 0
M  V30 13031 C 1237.69 5.86404 4.16561 0
M  V30 13032 C 1239.71 4.56623 3.75831 0
M  V30 13033 C 1239.08 5.7911 4.01012 0
M  V30 13034 H 1235.17 0.289441 0.726463 0
M  V30 13035 H 1237.76 1.25153 1.49147 0
M  V30 13036 H 1235.93 0.399915 3.86336 0
M  V30 13037 H 1237.66 0.605367 4.00147 0
M  V30 13038 H 1234.42 2.62369 3.94283 0
M  V30 13039 H 1234.84 5.21854 4.31274 0
M  V30 13040 H 1239.48 2.44679 3.44807 0
M  V30 13041 H 1237.2 6.80493 4.35838 0
M  V30 13042 H 1240.79 4.53979 3.6386 0
M  V30 13043 H 1239.67 6.69103 4.08988 0
M  V30 13044 N 1237.17 -1.38817 0.746158 0
M  V30 13045 C 1238.59 -1.53894 0.42294 0
M  V30 13046 C 1238.79 -1.71064 -1.06486 0
M  V30 13047 O 1237.84 -1.71744 -1.85095 0
M  V30 13048 C 1239.15 -2.75029 1.2157 0
M  V30 13049 C 1240.7 -2.88873 1.20504 0
M  V30 13050 C 1241.18 -4.1296 1.9806 0
M  V30 13051 N 1242.67 -4.20022 1.95283 0
M  V30 13052 C 1243.4 -5.15011 2.52093 0
M  V30 13053 N 1242.9 -6.1572 3.17586 0
M  V30 13054 N 1244.69 -5.07308 2.42064 0
M  V30 13055 H 1236.84 -1.25921 1.71049 0
M  V30 13056 H 1239.11 -0.611148 0.724708 0
M  V30 13057 H 1238.81 -2.68722 2.26895 0
M  V30 13058 H 1238.69 -3.68009 0.827593 0
M  V30 13059 H 1241.07 -2.94667 0.159877 0
M  V30 13060 H 1241.15 -1.96925 1.63261 0
M  V30 13061 H 1240.8 -4.07929 3.02583 0
M  V30 13062 H 1240.73 -5.03974 1.52702 0
M  V30 13063 H 1243.22 -3.47892 1.4758 0
M  V30 13064 H 1243.53 -6.84682 3.58373 0
M  V30 13065 H 1241.88 -6.16075 3.21678 0
M  V30 13066 H 1245.07 -4.27569 1.90532 0
M  V30 13067 H 1245.24 -5.81158 2.86635 0
M  V30 13068 N 1238.65 -0.49465 -1.49636 0
M  V30 13069 C 1239.88 0.0491129 -2.06842 0
M  V30 13070 C 1240.29 1.31395 -1.35576 0
M  V30 13071 O 1239.65 1.7731 -0.432135 0
M  V30 13072 C 1239.7 0.313171 -3.60141 0
M  V30 13073 O 1239.42 -0.90152 -4.28724 0
M  V30 13074 C 1240.92 0.901284 -4.34041 0
M  V30 13075 H 1238.14 -0.0176186 -0.670769 0
M  V30 13076 H 1240.68 -0.690188 -1.92501 0
M  V30 13077 H 1238.84 1.00244 -3.74206 0
M  V30 13078 H 1239.25 -0.660477 -5.20325 0
M  V30 13079 H 1240.73 1.03567 -5.42197 0
M  V30 13080 H 1241.2 1.89746 -3.96097 0
M  V30 13081 H 1241.81 0.249677 -4.24566 0
M  V30 13082 N 1240.13 1.55939 -0.228214 0
M  V30 13083 C 1241.4 1.90329 0.451033 0
M  V30 13084 C 1241.78 1.14646 1.77255 0
M  V30 13085 O 1241.13 0.257912 2.2704 0
M  V30 13086 C 1241.34 3.43129 0.637456 0
M  V30 13087 C 1242.69 4.14022 0.94186 0
M  V30 13088 O 1243.71 3.48764 0.724002 0
M  V30 13089 O 1242.57 5.29418 1.35568 0
M  V30 13090 H 1239.67 0.791591 0.2394 0
M  V30 13091 H 1242.21 1.67524 -0.270893 0
M  V30 13092 H 1240.98 3.90191 -0.294435 0
M  V30 13093 H 1240.61 3.71735 1.41062 0
M  V30 13094 N 1241.6 -0.0451101 1.57535 0
M  V30 13095 C 1243.02 -0.59372 1.77008 0
M  V30 13096 C 1243.37 -1.76482 0.857233 0
M  V30 13097 O 1242.49 -2.16347 0.0479703 0
M  V30 13098 C 1243.09 -1.08383 3.20996 0
M  V30 13099 C 1241.65 -1.57808 3.41721 0
M  V30 13100 C 1240.79 -0.509067 2.72587 0
M  V30 13101 H 1243.74 0.181114 1.57663 0
M  V30 13102 H 1243.76 -1.95181 3.26626 0
M  V30 13103 H 1243.28 -0.231276 3.8741 0
M  V30 13104 H 1241.38 -2.45302 2.8046 0
M  V30 13105 H 1241.49 -1.63664 4.50279 0
M  V30 13106 H 1239.85 -0.960389 2.359 0
M  V30 13107 H 1240.64 0.333753 3.41674 0
M  V30 13108 N 1243.08 -1.54377 -0.317073 0
M  V30 13109 C 1244.01 -1.8721 -1.39552 0
M  V30 13110 C 1244.99 -0.729483 -1.53664 0
M  V30 13111 O 1246.18 -0.983799 -1.67437 0
M  V30 13112 C 1243.31 -2.1052 -2.76222 0
M  V30 13113 C 1242.26 -3.26366 -2.76892 0
M  V30 13114 C 1241.59 -3.35061 -4.16699 0
M  V30 13115 C 1242.89 -4.63862 -2.40061 0
M  V30 13116 H 1244.58 -2.77532 -1.12323 0
M  V30 13117 H 1242.13 -1.33536 -0.538897 0
M  V30 13118 H 1244.08 -2.32073 -3.51739 0
M  V30 13119 H 1242.81 -1.16953 -3.04942 0
M  V30 13120 H 1241.46 -3.0471 -2.03831 0
M  V30 13121 H 1241.11 -2.39041 -4.4257 0
M  V30 13122 H 1240.81 -4.12923 -4.18053 0
M  V30 13123 H 1242.34 -3.58856 -4.94019 0
M  V30 13124 H 1243.75 -4.85252 -3.05292 0
M  V30 13125 H 1242.15 -5.44321 -2.52655 0
M  V30 13126 H 1243.22 -4.6567 -1.35202 0
M  V30 13127 N 1244.56 0.579466 -1.4656 0
M  V30 13128 C 1245.84 1.33973 -1.42515 0
M  V30 13129 C 1246.22 2.10812 -0.110317 0
M  V30 13130 O 1245.57 2.09679 0.908135 0
M  V30 13131 C 1245.78 2.26301 -2.65686 0
M  V30 13132 C 1247.12 2.88027 -3.1197 0
M  V30 13133 O 1248.15 2.36612 -2.66257 0
M  V30 13134 O 1247.01 3.81423 -3.9138 0
M  V30 13135 H 1244.1 0.602121 -0.566903 0
M  V30 13136 H 1246.65 0.600214 -1.58731 0
M  V30 13137 H 1245.42 1.68973 -3.52936 0
M  V30 13138 H 1245.04 3.07586 -2.51945 0
M  V30 13139 N 1246.04 1.3432 0.824371 0
M  V30 13140 C 1247.45 1.1397 1.11727 0
M  V30 13141 C 1247.65 -0.0597597 2.01411 0
M  V30 13142 O 1246.71 -0.735717 2.41544 0
M  V30 13143 C 1248.02 2.43423 1.76538 0
M  V30 13144 C 1249.57 2.49466 1.89039 0
M  V30 13145 C 1250.05 3.78917 2.57266 0
M  V30 13146 N 1251.54 3.8007 2.64767 0
M  V30 13147 C 1252.27 4.76953 3.18282 0
M  V30 13148 N 1251.77 5.84217 3.72373 0
M  V30 13149 N 1253.56 4.6441 3.1667 0
M  V30 13150 H 1245.71 2.11175 0.227802 0
M  V30 13151 H 1247.98 0.933774 0.163615 0
M  V30 13152 H 1247.68 3.31278 1.18102 0
M  V30 13153 H 1247.56 2.56655 2.7642 0
M  V30 13154 H 1249.94 1.62052 2.46623 0
M  V30 13155 H 1250.02 2.40163 0.880635 0
M  V30 13156 H 1249.67 4.6672 2.00336 0
M  V30 13157 H 1249.6 3.85502 3.58742 0
M  V30 13158 H 1252.09 3.02556 2.26425 0
M  V30 13159 H 1252.4 6.54159 4.11455 0
M  V30 13160 H 1250.75 5.87933 3.70621 0
M  V30 13161 H 1253.94 3.7976 2.73678 0
M  V30 13162 H 1254.11 5.40081 3.58073 0
M  V30 13163 N 1247.52 -1.0444 1.18026 0
M  V30 13164 C 1248.93 -1.5903 0.978076 0
M  V30 13165 C 1249.28 -1.90407 -0.473241 0
M  V30 13166 O 1248.4 -1.69133 -1.34992 0
M  V30 13167 C 1249 -2.88942 1.76912 0
M  V30 13168 C 1247.56 -3.40164 1.61139 0
M  V30 13169 C 1246.7 -2.13797 1.76596 0
M  V30 13170 H 1249.66 -0.871574 1.32625 0
M  V30 13171 H 1249.68 -3.59173 1.25598 0
M  V30 13172 H 1249.19 -2.66074 2.82535 0
M  V30 13173 H 1247.29 -3.68053 0.580353 0
M  V30 13174 H 1247.4 -4.14241 2.40709 0
M  V30 13175 H 1245.77 -2.24922 1.19507 0
M  V30 13176 H 1246.55 -1.93389 2.83647 0
M  V30 13177 N 1248.99 -0.981699 -1.2329 0
M  V30 13178 C 1250.22 -0.66937 -1.95773 0
M  V30 13179 C 1250.64 0.763898 -1.72656 0
M  V30 13180 O 1249.99 1.51418 -1.01876 0
M  V30 13181 C 1250.05 -0.951863 -3.48743 0
M  V30 13182 O 1249.77 -2.3288 -3.71078 0
M  V30 13183 C 1251.27 -0.655668 -4.38424 0
M  V30 13184 H 1248.49 -0.248545 -0.623271 0
M  V30 13185 H 1251.03 -1.31343 -1.56746 0
M  V30 13186 H 1249.19 -0.353787 -3.85781 0
M  V30 13187 H 1249.6 -2.41948 -4.65362 0
M  V30 13188 H 1251.07 -0.903683 -5.44553 0
M  V30 13189 H 1251.55 0.410269 -4.3728 0
M  V30 13190 H 1252.16 -1.23428 -4.06996 0
M  V30 13191 N 1250.47 1.3842 -0.753509 0
M  V30 13192 C 1251.72 2.00119 -0.309633 0
M  V30 13193 C 1252.05 1.59811 1.10863 0
M  V30 13194 O 1251.3 0.827013 1.77367 0
M  V30 13195 C 1251.6 3.55375 -0.379937 0
M  V30 13196 C 1251.27 4.15393 -1.75384 0
M  V30 13197 C 1249.93 4.31499 -2.12984 0
M  V30 13198 C 1252.28 4.48503 -2.65508 0
M  V30 13199 C 1249.61 4.78011 -3.4018 0
M  V30 13200 C 1251.96 4.96431 -3.92095 0
M  V30 13201 C 1250.63 5.10744 -4.29764 0
M  V30 13202 H 1249.9 0.732286 -0.113303 0
M  V30 13203 H 1252.54 1.65468 -0.963975 0
M  V30 13204 H 1250.85 3.90161 0.357969 0
M  V30 13205 H 1252.54 4.00996 -0.0180738 0
M  V30 13206 H 1249.13 4.03271 -1.45156 0
M  V30 13207 H 1253.32 4.35661 -2.37724 0
M  V30 13208 H 1248.57 4.87277 -3.69284 0
M  V30 13209 H 1252.75 5.21021 -4.62072 0
M  V30 13210 H 1250.38 5.46545 -5.28387 0
M  V30 13211 N 1251.95 0.502579 1.49372 0
M  V30 13212 C 1253.18 -0.0403087 2.07361 0
M  V30 13213 C 1253.6 -1.29918 1.36026 0
M  V30 13214 O 1252.96 -1.76428 0.417488 0
M  V30 13215 C 1253.01 -0.275362 3.59547 0
M  V30 13216 O 1252.11 -1.34975 3.89686 0
M  V30 13217 H 1251.45 0.0269268 0.663454 0
M  V30 13218 H 1253.98 0.702652 1.92156 0
M  V30 13219 H 1253.99 -0.506392 4.04845 0
M  V30 13220 H 1252.67 0.644382 4.10878 0
M  V30 13221 H 1251.24 -1.10355 3.56197 0
M  V30 13222 N 1253.43 -1.55816 0.23648 0
M  V30 13223 C 1254.67 -1.98981 -0.391725 0
M  V30 13224 C 1255.01 -1.12428 -1.58346 0
M  V30 13225 O 1254.28 -0.185303 -1.93615 0
M  V30 13226 C 1254.57 -3.50831 -0.811759 0
M  V30 13227 C 1254.42 -4.48152 0.384648 0
M  V30 13228 C 1255.74 -4.07489 -1.66254 0
M  V30 13229 H 1252.86 -0.723404 -0.140911 0
M  V30 13230 H 1255.5 -1.87011 0.335706 0
M  V30 13231 H 1253.65 -3.61162 -1.43157 0
M  V30 13232 H 1255.32 -4.49814 1.02298 0
M  V30 13233 H 1253.56 -4.21406 1.02955 0
M  V30 13234 H 1254.23 -5.51979 0.0475809 0
M  V30 13235 H 1256.71 -4.00195 -1.13944 0
M  V30 13236 H 1255.59 -5.14026 -1.92531 0
M  V30 13237 H 1255.85 -3.55297 -2.6309 0
M  V30 13238 N 1254.91 0.036755 -1.57557 0
M  V30 13239 C 1255.84 1.03939 -2.09091 0
M  V30 13240 C 1256.82 1.38196 -0.991761 0
M  V30 13241 O 1258 1.47214 -1.26656 0
M  V30 13242 C 1255.13 2.34263 -2.56394 0
M  V30 13243 C 1254.09 2.14269 -3.70504 0
M  V30 13244 C 1253.41 3.50286 -4.03985 0
M  V30 13245 C 1254.71 1.53514 -4.9923 0
M  V30 13246 H 1256.41 0.610429 -2.93111 0
M  V30 13247 H 1253.95 0.292183 -1.41005 0
M  V30 13248 H 1255.91 3.04727 -2.91066 0
M  V30 13249 H 1254.63 2.79205 -1.69447 0
M  V30 13250 H 1253.29 1.46239 -3.36169 0
M  V30 13251 H 1252.94 3.92861 -3.14116 0
M  V30 13252 H 1252.64 3.37735 -4.80842 0
M  V30 13253 H 1254.16 4.22124 -4.41184 0
M  V30 13254 H 1255.57 2.13885 -5.31908 0
M  V30 13255 H 1253.97 1.51561 -5.80646 0
M  V30 13256 H 1255.04 0.500126 -4.82314 0
M  V30 13257 N 1256.39 1.54543 0.308881 0
M  V30 13258 C 1257.8 1.45581 0.654088 0
M  V30 13259 C 1258 0.640597 1.91046 0
M  V30 13260 O 1257.06 0.14518 2.52082 0
M  V30 13261 C 1258.37 2.89461 0.814422 0
M  V30 13262 C 1259.92 2.99455 0.910817 0
M  V30 13263 C 1260.39 4.44515 1.10321 0
M  V30 13264 N 1261.88 4.4819 1.1696 0
M  V30 13265 C 1262.62 5.57604 1.33661 0
M  V30 13266 N 1262.12 6.76957 1.47311 0
M  V30 13267 N 1263.91 5.45278 1.36487 0
M  V30 13268 H 1256.06 2.06019 -0.516699 0
M  V30 13269 H 1258.32 0.932729 -0.169471 0
M  V30 13270 H 1258.03 3.5168 -0.0377455 0
M  V30 13271 H 1257.9 3.36425 1.70582 0
M  V30 13272 H 1260.29 2.37355 1.75348 0
M  V30 13273 H 1260.37 2.558 -0.00443172 0
M  V30 13274 H 1260.01 5.07206 0.265346 0
M  V30 13275 H 1259.94 4.85793 2.03256 0
M  V30 13276 H 1262.44 3.62199 1.07796 0
M  V30 13277 H 1262.75 7.561 1.59788 0
M  V30 13278 H 1261.09 6.79837 1.44382 0
M  V30 13279 H 1264.28 4.50983 1.25429 0
M  V30 13280 H 1264.46 6.30599 1.4916 0
M  V30 13281 N 1257.86 -0.571685 1.46866 0
M  V30 13282 C 1258.79 -1.68994 1.61131 0
M  V30 13283 C 1259.77 -1.63728 0.461222 0
M  V30 13284 O 1260.96 -1.81574 0.688813 0
M  V30 13285 C 1258.09 -3.07638 1.61172 0
M  V30 13286 C 1257.04 -3.27742 2.75262 0
M  V30 13287 C 1256.37 -4.67025 2.60368 0
M  V30 13288 C 1257.67 -3.14511 4.16989 0
M  V30 13289 H 1259.36 -1.57311 2.54742 0
M  V30 13290 H 1256.91 -0.755382 1.22597 0
M  V30 13291 H 1258.86 -3.857 1.69744 0
M  V30 13292 H 1257.59 -3.20245 0.641122 0
M  V30 13293 H 1256.25 -2.52083 2.66176 0
M  V30 13294 H 1255.89 -4.76413 1.61368 0
M  V30 13295 H 1255.59 -4.81428 3.36899 0
M  V30 13296 H 1257.12 -5.47242 2.70848 0
M  V30 13297 H 1258.53 -3.82407 4.27128 0
M  V30 13298 H 1256.93 -3.40431 4.94193 0
M  V30 13299 H 1258 -2.11443 4.36371 0
M  V30 13300 N 1259.34 -1.34755 -0.817236 0
M  V30 13301 C 1260.27 -1.22648 -1.93624 0
M  V30 13302 C 1261.29 -0.152226 -1.62087 0
M  V30 13303 O 1262.48 -0.404578 -1.73855 0
M  V30 13304 C 1259.58 -0.863519 -3.27714 0
M  V30 13305 C 1258.75 -2.03394 -3.87233 0
M  V30 13306 C 1257.81 -1.64846 -4.99712 0
M  V30 13307 O 1256.83 -2.3658 -5.17705 0
M  V30 13308 N 1258.04 -0.565909 -5.77735 0
M  V30 13309 H 1260.8 -2.19051 -2.0454 0
M  V30 13310 H 1258.36 -1.27785 -0.994113 0
M  V30 13311 H 1260.35 -0.58733 -4.00415 0
M  V30 13312 H 1258.92 0.0104987 -3.12598 0
M  V30 13313 H 1258.14 -2.47454 -3.06856 0
M  V30 13314 H 1259.43 -2.81655 -4.23731 0
M  V30 13315 H 1258.83 0.030313 -5.65692 0
M  V30 13316 H 1257.39 -0.349467 -6.50862 0
M  V30 13317 N 1260.82 1.03812 -1.18578 0
M  V30 13318 C 1261.75 2.13802 -0.938665 0
M  V30 13319 C 1262.73 1.69643 0.124575 0
M  V30 13320 O 1263.92 1.94179 -0.0285421 0
M  V30 13321 C 1261.05 3.44154 -0.466392 0
M  V30 13322 C 1260 4.01949 -1.47041 0
M  V30 13323 C 1259.33 5.27811 -0.855558 0
M  V30 13324 C 1260.63 4.37827 -2.84789 0
M  V30 13325 H 1262.32 2.34732 -1.85852 0
M  V30 13326 H 1259.87 1.12808 -0.895007 0
M  V30 13327 H 1261.82 4.20463 -0.280856 0
M  V30 13328 H 1260.54 3.22918 0.489041 0
M  V30 13329 H 1259.2 3.27725 -1.64293 0
M  V30 13330 H 1258.85 5.02886 0.107142 0
M  V30 13331 H 1258.55 5.67441 -1.52592 0
M  V30 13332 H 1260.07 6.06795 -0.680609 0
M  V30 13333 H 1261.49 5.05112 -2.71173 0
M  V30 13334 H 1259.88 4.88514 -3.48532 0
M  V30 13335 H 1260.95 3.47541 -3.38147 0
M  V30 13336 N 1262.3 0.988223 1.22768 0
M  V30 13337 C 1263.21 0.543407 2.2822 0
M  V30 13338 C 1264.22 -0.405563 1.69208 0
M  V30 13339 O 1265.4 -0.273551 1.99534 0
M  V30 13340 C 1262.46 -0.139495 3.46419 0
M  V30 13341 C 1261.53 0.851853 4.20764 0
M  V30 13342 C 1260.76 0.201446 5.3332 0
M  V30 13343 O 1260.98 -1.00573 5.61464 0
M  V30 13344 O 1259.92 0.903956 5.95073 0
M  V30 13345 H 1263.74 1.42059 2.68427 0
M  V30 13346 H 1261.33 0.756239 1.28846 0
M  V30 13347 H 1263.21 -0.522226 4.18152 0
M  V30 13348 H 1261.88 -0.991315 3.08147 0
M  V30 13349 H 1260.79 1.28543 3.51322 0
M  V30 13350 H 1262.12 1.67273 4.62905 0
M  V30 13351 N 1263.78 -1.38018 0.760839 0
M  V30 13352 C 1264.72 -2.30387 0.13796 0
M  V30 13353 C 1265.69 -1.50548 -0.701754 0
M  V30 13354 O 1266.88 -1.79154 -0.656381 0
M  V30 13355 C 1264.02 -3.36993 -0.743642 0
M  V30 13356 C 1263.13 -4.31856 0.111489 0
M  V30 13357 C 1262.27 -5.25534 -0.773796 0
M  V30 13358 C 1261.3 -6.12042 0.0845311 0
M  V30 13359 N 1260.44 -6.97995 -0.758118 0
M  V30 13360 H 1265.28 -2.83077 0.931212 0
M  V30 13361 H 1262.82 -1.39361 0.470833 0
M  V30 13362 H 1264.78 -3.97417 -1.26948 0
M  V30 13363 H 1263.41 -2.85695 -1.50261 0
M  V30 13364 H 1262.46 -3.72832 0.755031 0
M  V30 13365 H 1263.77 -4.92758 0.774042 0
M  V30 13366 H 1262.92 -5.9111 -1.36653 0
M  V30 13367 H 1261.66 -4.65017 -1.47006 0
M  V30 13368 H 1260.67 -5.45455 0.689883 0
M  V30 13369 H 1261.89 -6.74629 0.777966 0
M  V30 13370 H 1259.84 -6.40018 -1.4392 0
M  V30 13371 H 1259.76 -7.55846 -0.152623 0
M  V30 13372 H 1261.02 -7.67973 -1.33559 0
M  V30 13373 N 1265.25 -0.510493 -1.49103 0
M  V30 13374 C 1266.18 0.251999 -2.32136 0
M  V30 13375 C 1267.16 0.953613 -1.40855 0
M  V30 13376 O 1268.35 0.943178 -1.69758 0
M  V30 13377 C 1265.48 1.31118 -3.21598 0
M  V30 13378 C 1264.43 0.72888 -4.21748 0
M  V30 13379 C 1263.76 1.88928 -5.0021 0
M  V30 13380 C 1265.06 -0.286425 -5.21514 0
M  V30 13381 H 1266.75 -0.441102 -2.96133 0
M  V30 13382 H 1264.3 -0.213577 -1.42407 0
M  V30 13383 H 1266.25 1.8524 -3.78503 0
M  V30 13384 H 1264.98 2.0336 -2.55563 0
M  V30 13385 H 1263.64 0.209336 -3.66002 0
M  V30 13386 H 1263.28 2.59961 -4.30615 0
M  V30 13387 H 1262.98 1.50568 -5.67981 0
M  V30 13388 H 1264.51 2.43465 -5.59962 0
M  V30 13389 H 1265.92 0.166997 -5.73057 0
M  V30 13390 H 1264.32 -0.586361 -5.97228 0
M  V30 13391 H 1265.39 -1.19904 -4.69842 0
M  V30 13392 N 1266.73 1.55688 -0.24474 0
M  V30 13393 C 1267.66 2.24272 0.64995 0
M  V30 13394 C 1268.64 1.22226 1.183 0
M  V30 13395 O 1269.83 1.50873 1.22274 0
M  V30 13396 C 1266.96 2.94053 1.84798 0
M  V30 13397 C 1265.91 4.02769 1.44779 0
M  V30 13398 C 1265.24 4.59965 2.72647 0
M  V30 13399 C 1266.54 5.18601 0.62047 0
M  V30 13400 H 1268.23 2.99298 0.0780654 0
M  V30 13401 H 1265.78 1.43955 0.0361069 0
M  V30 13402 H 1267.73 3.40732 2.47951 0
M  V30 13403 H 1266.45 2.16511 2.44521 0
M  V30 13404 H 1265.11 3.56856 0.839609 0
M  V30 13405 H 1264.76 3.79126 3.30564 0
M  V30 13406 H 1264.46 5.33352 2.46596 0
M  V30 13407 H 1265.99 5.09376 3.36703 0
M  V30 13408 H 1267.4 5.61519 1.15625 0
M  V30 13409 H 1265.8 5.98364 0.456097 0
M  V30 13410 H 1266.87 4.83503 -0.367798 0
M  V30 13411 N 1268.21 -0.0283989 1.57574 0
M  V30 13412 C 1269.12 -1.04575 2.10003 0
M  V30 13413 C 1270.14 -1.39588 1.03881 0
M  V30 13414 O 1271.31 -1.48894 1.35619 0
M  V30 13415 C 1268.38 -2.32755 2.56955 0
M  V30 13416 C 1267.44 -2.04317 3.77562 0
M  V30 13417 C 1266.67 -3.26385 4.22266 0
M  V30 13418 O 1266.89 -4.37082 3.66491 0
M  V30 13419 O 1265.83 -3.12046 5.14695 0
M  V30 13420 H 1269.65 -0.630183 2.9709 0
M  V30 13421 H 1267.24 -0.245423 1.4737 0
M  V30 13422 H 1269.12 -3.08111 2.87482 0
M  V30 13423 H 1267.8 -2.73605 1.72979 0
M  V30 13424 H 1266.7 -1.26527 3.52054 0
M  V30 13425 H 1268.04 -1.68321 4.62524 0
M  V30 13426 N 1269.69 -1.54705 -0.300681 0
M  V30 13427 C 1270.91 -1.78318 -1.05913 0
M  V30 13428 C 1271.34 -0.541177 -1.80147 0
M  V30 13429 O 1270.7 0.508291 -1.74029 0
M  V30 13430 C 1270.74 -2.99041 -2.01511 0
M  V30 13431 O 1269.85 -2.72188 -3.09818 0
M  V30 13432 H 1269.19 -0.590197 -0.304242 0
M  V30 13433 H 1271.72 -2.01789 -0.338006 0
M  V30 13434 H 1271.73 -3.2702 -2.43971 0
M  V30 13435 H 1270.4 -3.89098 -1.46886 0
M  V30 13436 H 1268.98 -2.55227 -2.71871 0
M  V30 13437 N 1271.17 0.563888 -1.47167 0
M  V30 13438 C 1272.1 1.68137 -1.62025 0
M  V30 13439 C 1273.08 1.63481 -0.469899 0
M  V30 13440 O 1274.26 1.81206 -0.698432 0
M  V30 13441 C 1271.39 3.06779 -1.62801 0
M  V30 13442 C 1270.35 3.26278 -2.76996 0
M  V30 13443 C 1269.67 4.65638 -2.62841 0
M  V30 13444 C 1270.97 3.12295 -4.18651 0
M  V30 13445 H 1272.67 1.55958 -2.55573 0
M  V30 13446 H 1270.21 0.74887 -1.22996 0
M  V30 13447 H 1272.17 3.84795 -1.71787 0
M  V30 13448 H 1270.89 3.19901 -0.658097 0
M  V30 13449 H 1269.55 2.50668 -2.67509 0
M  V30 13450 H 1269.2 4.75551 -1.63892 0
M  V30 13451 H 1268.9 4.79635 -3.39447 0
M  V30 13452 H 1270.42 5.45798 -2.73746 0
M  V30 13453 H 1271.83 3.80136 -4.2915 0
M  V30 13454 H 1270.23 3.37805 -4.95992 0
M  V30 13455 H 1271.3 2.09126 -4.37486 0
M  V30 13456 N 1272.64 1.35187 0.810078 0
M  V30 13457 C 1274.06 1.25329 1.38381 0
M  V30 13458 C 1274.41 -0.115799 1.95858 0
M  V30 13459 O 1273.53 -1.01663 1.91033 0
M  V30 13460 C 1274.13 2.2693 2.51572 0
M  V30 13461 C 1272.69 2.20824 3.04818 0
M  V30 13462 C 1271.83 2.1283 1.7776 0
M  V30 13463 H 1274.78 1.46366 0.613402 0
M  V30 13464 H 1274.8 1.89375 3.30026 0
M  V30 13465 H 1274.32 3.26563 2.09709 0
M  V30 13466 H 1272.42 1.24589 3.51153 0
M  V30 13467 H 1272.53 3.12637 3.63036 0
M  V30 13468 H 1270.89 1.58752 1.99173 0
M  V30 13469 H 1271.68 3.14318 1.38054 0
M  V30 13470 N 1274.12 -1.03182 1.19127 0
M  V30 13471 C 1275.4 -1.73586 0.901507 0
M  V30 13472 C 1275.78 -2.02585 -0.593521 0
M  V30 13473 O 1275.13 -1.67813 -1.55084 0
M  V30 13474 C 1275.34 -3.01472 1.75829 0
M  V30 13475 C 1276.69 -3.75037 1.99078 0
M  V30 13476 O 1277.71 -3.11392 1.72956 0
M  V30 13477 O 1276.57 -4.8945 2.43108 0
M  V30 13478 H 1273.66 -0.755797 0.335708 0
M  V30 13479 H 1276.21 -1.09167 1.29925 0
M  V30 13480 H 1274.98 -2.76247 2.77134 0
M  V30 13481 H 1274.6 -3.73631 1.35963 0
M  V30 13482 N 1275.6 -0.99472 -1.22242 0
M  V30 13483 C 1276.85 -0.672596 -1.91322 0
M  V30 13484 C 1277.18 0.793542 -1.77247 0
M  V30 13485 O 1276.45 1.57407 -1.14251 0
M  V30 13486 C 1276.74 -1.08155 -3.43474 0
M  V30 13487 C 1276.59 -2.60638 -3.6659 0
M  V30 13488 C 1277.91 -0.636161 -4.35478 0
M  V30 13489 H 1275.03 -0.24582 -0.694796 0
M  V30 13490 H 1277.67 -1.23857 -1.44082 0
M  V30 13491 H 1275.82 -0.599987 -3.83839 0
M  V30 13492 H 1277.49 -3.16479 -3.35617 0
M  V30 13493 H 1275.74 -3.02624 -3.10808 0
M  V30 13494 H 1276.41 -2.84304 -4.73155 0
M  V30 13495 H 1278.88 -1.04982 -4.02639 0
M  V30 13496 H 1277.76 -0.950584 -5.40606 0
M  V30 13497 H 1278.02 0.4631 -4.39668 0
M  V30 13498 N 1277.08 1.37613 -0.768148 0
M  V30 13499 C 1278.49 1.53202 -0.44737 0
M  V30 13500 C 1278.69 1.72736 1.03752 0
M  V30 13501 O 1277.75 1.74667 1.8234 0
M  V30 13502 C 1279.06 2.7306 -1.25931 0
M  V30 13503 C 1280.61 2.8692 -1.25084 0
M  V30 13504 C 1281.09 4.09757 -2.04605 0
M  V30 13505 N 1282.58 4.16862 -2.0194 0
M  V30 13506 C 1283.31 5.10936 -2.60254 0
M  V30 13507 N 1282.81 6.1059 -3.27341 0
M  V30 13508 N 1284.6 5.03393 -2.50104 0
M  V30 13509 H 1276.75 1.23184 -1.7303 0
M  V30 13510 H 1279.02 0.599541 -0.73434 0
M  V30 13511 H 1278.72 2.65078 -2.31141 0
M  V30 13512 H 1278.6 3.66646 -0.886036 0
M  V30 13513 H 1280.98 2.94375 -0.206736 0
M  V30 13514 H 1281.06 1.94303 -1.66373 0
M  V30 13515 H 1280.71 4.03063 -3.09035 0
M  V30 13516 H 1280.64 5.01481 -1.60701 0
M  V30 13517 H 1283.13 3.455 -1.53096 0
M  V30 13518 H 1283.44 6.78893 -3.6922 0
M  V30 13519 H 1281.79 6.10879 -3.31439 0
M  V30 13520 H 1284.98 4.24483 -1.9731 0
M  V30 13521 H 1285.15 5.76524 -2.95844 0
M  V30 13522 N 1278.56 0.518393 1.4883 0
M  V30 13523 C 1279.5 -0.264197 2.31095 0
M  V30 13524 C 1280.5 -0.946455 1.40494 0
M  V30 13525 O 1281.7 -0.872161 1.57459 0
M  V30 13526 H 1278.08 -0.104065 0.744765 0
M  V30 13527 H 1280.05 0.449375 2.94997 0
M  V30 13528 C 1278.8 -1.30527 3.2227 0
M  V30 13529 H 1278.12 -0.789695 3.91923 0
M  V30 13530 H 1279.56 -1.82449 3.82738 0
M  V30 13531 C 1278.02 -2.33274 2.43073 0
M  V30 13532 O 1278.55 -3.39493 2.14726 0
M  V30 13533 N 1276.76 -2.06189 2.04779 0
M  V30 13534 H 1276.3 -1.19829 2.28033 0
M  V30 13535 H 1276.26 -2.7516 1.521 0
M  V30 13536 N 1280.03 -1.55556 0.252993 0
M  V30 13537 C 1280.97 -2.18978 -0.676837 0
M  V30 13538 C 1281.98 -1.16788 -1.13421 0
M  V30 13539 O 1283.17 -1.43623 -1.05993 0
M  V30 13540 C 1280.27 -2.78404 -1.93248 0
M  V30 13541 C 1279.44 -4.06072 -1.62555 0
M  V30 13542 C 1278.5 -4.49757 -2.7314 0
M  V30 13543 O 1277.53 -5.16005 -2.40266 0
M  V30 13544 N 1278.73 -4.18049 -4.0276 0
M  V30 13545 H 1281.49 -2.994 -0.134142 0
M  V30 13546 H 1279.05 -1.61734 0.0731965 0
M  V30 13547 H 1281.05 -3.04583 -2.6648 0
M  V30 13548 H 1279.62 -2.02104 -2.3848 0
M  V30 13549 H 1278.84 -3.87417 -0.728115 0
M  V30 13550 H 1280.12 -4.89297 -1.39521 0
M  V30 13551 H 1279.52 -3.64876 -4.32298 0
M  V30 13552 H 1278.08 -4.4905 -4.72438 0
M  V30 13553 N 1281.51 0.0200419 -1.57587 0
M  V30 13554 C 1282.48 1.00255 -2.06111 0
M  V30 13555 C 1283.48 1.28488 -0.966829 0
M  V30 13556 O 1284.67 1.2334 -1.23015 0
M  V30 13557 C 1281.8 2.33296 -2.48567 0
M  V30 13558 H 1282.99 0.583216 -2.94174 0
M  V30 13559 H 1280.54 0.267077 -1.54001 0
M  V30 13560 H 1281.28 2.79959 -1.63687 0
M  V30 13561 H 1281.06 2.14131 -3.28467 0
M  V30 13562 H 1282.55 3.03817 -2.86505 0
M  V30 13563 N 1282.99 1.54862 0.292472 0
M  V30 13564 C 1284.27 1.65237 1.04671 0
M  V30 13565 C 1284.65 0.506168 2.04942 0
M  V30 13566 O 1284 -0.496123 2.23049 0
M  V30 13567 C 1284.21 3.03618 1.72095 0
M  V30 13568 C 1285.55 3.6072 2.23979 0
M  V30 13569 O 1286.58 3.06126 1.82114 0
M  V30 13570 O 1285.44 4.56328 3.0071 0
M  V30 13571 H 1282.53 0.670347 0.484319 0
M  V30 13572 H 1285.08 1.67206 0.28988 0
M  V30 13573 H 1283.85 3.78482 0.993324 0
M  V30 13574 H 1283.47 3.05464 2.54514 0
M  V30 13575 N 1284.47 -0.556076 1.47464 0
M  V30 13576 C 1285.71 -1.31515 1.54375 0
M  V30 13577 C 1286.05 -1.93106 0.205837 0
M  V30 13578 O 1285.32 -1.77927 -0.785643 0
M  V30 13579 C 1285.61 -2.4244 2.66261 0
M  V30 13580 C 1285.46 -1.8571 4.09673 0
M  V30 13581 C 1286.78 -3.4436 2.74051 0
M  V30 13582 H 1283.9 -0.476817 0.561974 0
M  V30 13583 H 1286.54 -0.622157 1.79525 0
M  V30 13584 H 1284.69 -3.01551 2.44948 0
M  V30 13585 H 1286.36 -1.30851 4.42353 0
M  V30 13586 H 1284.6 -1.16379 4.17898 0
M  V30 13587 H 1285.27 -2.65904 4.83735 0
M  V30 13588 H 1287.75 -2.95169 2.93282 0
M  V30 13589 H 1286.63 -4.194 3.54111 0
M  V30 13590 H 1286.89 -4.03281 1.81155 0
M  V30 13591 N 1285.95 -1.35615 -0.802897 0
M  V30 13592 C 1287.2 -1.28428 -1.55528 0
M  V30 13593 C 1287.51 0.138275 -1.95111 0
M  V30 13594 O 1288.72 0.332435 -2.69457 0
M  V30 13595 C 1287.17 -2.25251 -2.80696 0
M  V30 13596 C 1286.78 -3.72871 -2.48336 0
M  V30 13597 C 1288.52 -2.27014 -3.58699 0
M  V30 13598 C 1286.43 -4.61507 -3.69817 0
M  V30 13599 H 1285.36 -0.47718 -0.583794 0
M  V30 13600 H 1288.01 -1.609 -0.882238 0
M  V30 13601 H 1286.39 -1.85755 -3.4973 0
M  V30 13602 H 1287.57 -4.21024 -1.87285 0
M  V30 13603 H 1285.88 -3.73752 -1.83571 0
M  V30 13604 H 1288.48 -2.90451 -4.48935 0
M  V30 13605 H 1288.82 -1.27491 -3.96298 0
M  V30 13606 H 1289.36 -2.65058 -2.9663 0
M  V30 13607 H 1286.09 -5.62043 -3.37324 0
M  V30 13608 H 1285.61 -4.18079 -4.30081 0
M  V30 13609 H 1287.29 -4.77113 -4.37004 0
M  V30 13610 N 1287.43 1.02549 -1.19673 0
M  V30 13611 C 1288.66 1.79363 -1.02531 0
M  V30 13612 C 1289.06 1.84274 0.42893 0
M  V30 13613 O 1288.41 1.28813 1.30969 0
M  V30 13614 C 1288.47 3.2567 -1.52248 0
M  V30 13615 C 1288.13 3.44386 -3.00412 0
M  V30 13616 C 1289.13 3.34329 -3.98146 0
M  V30 13617 C 1286.81 3.70491 -3.39178 0
M  V30 13618 C 1288.81 3.50106 -5.3264 0
M  V30 13619 C 1286.5 3.85912 -4.7383 0
M  V30 13620 C 1287.49 3.75723 -5.70369 0
M  V30 13621 O 1287.18 3.90685 -7.02581 0
M  V30 13622 H 1286.91 0.571194 -0.361544 0
M  V30 13623 H 1289.47 1.30029 -1.59002 0
M  V30 13624 H 1287.7 3.76044 -0.901548 0
M  V30 13625 H 1289.39 3.8409 -1.31262 0
M  V30 13626 H 1290.15 3.14109 -3.69541 0
M  V30 13627 H 1286.03 3.77513 -2.64585 0
M  V30 13628 H 1289.58 3.42069 -6.07976 0
M  V30 13629 H 1285.47 4.05631 -5.02129 0
M  V30 13630 H 1286.24 4.07756 -7.09702 0
M  V30 13631 N 1288.9 1.00119 1.21713 0
M  V30 13632 C 1290.15 0.682733 1.90962 0
M  V30 13633 C 1290.48 -0.784131 1.77665 0
M  V30 13634 O 1289.76 -1.56799 1.15084 0
M  V30 13635 C 1290.04 1.09975 3.42896 0
M  V30 13636 C 1289.89 2.62578 3.65202 0
M  V30 13637 C 1291.21 0.659247 4.35134 0
M  V30 13638 H 1288.33 0.249501 0.693483 0
M  V30 13639 H 1290.97 1.24619 1.43423 0
M  V30 13640 H 1289.12 0.620334 3.83515 0
M  V30 13641 H 1290.8 3.18254 3.33934 0
M  V30 13642 H 1289.04 3.04268 3.09198 0
M  V30 13643 H 1289.71 2.86809 4.7164 0
M  V30 13644 H 1292.19 1.07116 4.02076 0
M  V30 13645 H 1291.06 0.979241 5.40095 0
M  V30 13646 H 1291.32 -0.439777 4.39907 0
M  V30 13647 N 1290.38 -1.37203 0.775435 0
M  V30 13648 C 1291.33 -2.32102 0.152051 0
M  V30 13649 C 1292.32 -1.55117 -0.680806 0
M  V30 13650 O 1293.53 -1.70486 -0.577455 0
M  V30 13651 H 1289.9 -0.751386 0.0303853 0
M  V30 13652 H 1291.88 -2.82259 0.968121 0
M  V30 13653 C 1290.62 -3.40378 -0.709788 0
M  V30 13654 H 1289.95 -3.99723 -0.0782879 0
M  V30 13655 H 1291.39 -4.09134 -1.11288 0
M  V30 13656 C 1289.85 -2.80769 -1.862 0
M  V30 13657 O 1290.38 -2.71813 -2.95771 0
M  V30 13658 N 1288.58 -2.38259 -1.66376 0
M  V30 13659 H 1288.13 -2.45743 -0.772531 0
M  V30 13660 H 1288.09 -1.98721 -2.43634 0
M  V30 13661 N 1291.86 -0.526279 -1.48553 0
M  V30 13662 C 1293.09 0.0052277 -2.06899 0
M  V30 13663 C 1293.5 1.2849 -1.38332 0
M  V30 13664 O 1292.86 1.76354 -0.469648 0
M  V30 13665 C 1292.91 0.236709 -3.60724 0
M  V30 13666 O 1292.63 -0.992256 -4.26715 0
M  V30 13667 C 1294.13 0.809014 -4.35855 0
M  V30 13668 H 1291.35 -0.0318426 -0.670244 0
M  V30 13669 H 1293.9 -0.730865 -1.90994 0
M  V30 13670 H 1292.05 0.922842 -3.76248 0
M  V30 13671 H 1292.47 -0.770697 -5.18807 0
M  V30 13672 H 1293.94 0.920428 -5.44272 0
M  V30 13673 H 1294.42 1.81302 -4.00033 0
M  V30 13674 H 1295.02 0.159564 -4.25001 0
M  V30 13675 N 1293.34 1.5542 -0.261239 0
M  V30 13676 C 1294.27 2.19334 0.665214 0
M  V30 13677 C 1295.28 1.17388 1.128 0
M  V30 13678 O 1296.47 1.44183 1.0523 0
M  V30 13679 C 1293.57 2.79425 1.91768 0
M  V30 13680 C 1292.74 4.06929 1.60399 0
M  V30 13681 C 1291.8 4.51199 2.70751 0
M  V30 13682 O 1290.83 5.17272 2.37526 0
M  V30 13683 N 1292.03 4.20179 4.00537 0
M  V30 13684 H 1294.8 2.99467 0.118262 0
M  V30 13685 H 1292.36 1.61693 -0.0817727 0
M  V30 13686 H 1294.35 3.05992 2.64861 0
M  V30 13687 H 1292.92 2.03366 2.37405 0
M  V30 13688 H 1292.14 3.87798 0.707559 0
M  V30 13689 H 1293.43 4.9003 1.36924 0
M  V30 13690 H 1292.83 3.67164 4.30357 0
M  V30 13691 H 1291.38 4.51549 4.7005 0
M  V30 13692 N 1294.82 -0.0116844 1.57596 0
M  V30 13693 C 1295.75 -1.00599 2.10718 0
M  V30 13694 C 1296.73 -1.36601 1.01362 0
M  V30 13695 O 1297.91 -1.4518 1.28982 0
M  V30 13696 C 1295.04 -2.30155 2.60089 0
M  V30 13697 C 1294 -2.08347 3.73866 0
M  V30 13698 C 1293.32 -3.43814 4.09507 0
M  V30 13699 C 1294.62 -1.45552 5.01609 0
M  V30 13700 H 1296.32 -0.563721 2.94045 0
M  V30 13701 H 1293.86 -0.269714 1.41452 0
M  V30 13702 H 1295.81 -3.00058 2.95877 0
M  V30 13703 H 1294.54 -2.76473 1.73868 0
M  V30 13704 H 1293.2 -1.40872 3.38453 0
M  V30 13705 H 1292.85 -3.87814 3.20326 0
M  V30 13706 H 1292.55 -3.30043 4.86154 0
M  V30 13707 H 1294.07 -4.15052 4.47844 0
M  V30 13708 H 1295.48 -2.05396 5.35243 0
M  V30 13709 H 1293.88 -1.42304 5.82983 0
M  V30 13710 H 1294.95 -0.423331 4.83049 0
M  V30 13711 N 1296.29 -1.55015 -0.284256 0
M  V30 13712 C 1297.22 -1.90128 -1.3555 0
M  V30 13713 C 1298.2 -0.761914 -1.52082 0
M  V30 13714 O 1299.39 -1.01909 -1.65312 0
M  V30 13715 C 1296.52 -2.16332 -2.71695 0
M  V30 13716 C 1295.47 -3.32166 -2.69907 0
M  V30 13717 C 1294.8 -3.43824 -4.09498 0
M  V30 13718 C 1296.1 -4.6885 -2.30168 0
M  V30 13719 H 1297.79 -2.79852 -1.06411 0
M  V30 13720 H 1295.34 -1.34649 -0.510451 0
M  V30 13721 H 1297.29 -2.39482 -3.46737 0
M  V30 13722 H 1296.02 -1.23395 -3.02392 0
M  V30 13723 H 1294.68 -3.08965 -1.97322 0
M  V30 13724 H 1294.32 -2.48375 -4.374 0
M  V30 13725 H 1294.02 -4.21698 -4.092 0
M  V30 13726 H 1295.55 -3.69254 -4.86296 0
M  V30 13727 H 1296.96 -4.91619 -2.9493 0
M  V30 13728 H 1295.36 -5.49558 -2.41052 0
M  V30 13729 H 1296.43 -4.68433 -1.25294 0
M  V30 13730 N 1297.77 0.548248 -1.47757 0
M  V30 13731 C 1298.68 1.68178 -1.63565 0
M  V30 13732 C 1299.7 1.661 -0.518351 0
M  V30 13733 O 1300.87 1.85384 -0.787061 0
M  V30 13734 C 1297.94 3.04673 -1.65454 0
M  V30 13735 C 1297 3.17749 -2.88677 0
M  V30 13736 C 1296.23 4.47733 -2.90466 0
M  V30 13737 O 1296.46 5.33736 -2.01201 0
M  V30 13738 O 1295.39 4.64789 -3.82433 0
M  V30 13739 H 1299.22 1.57781 -2.59497 0
M  V30 13740 H 1296.8 0.719277 -1.30946 0
M  V30 13741 H 1298.68 3.85885 -1.69324 0
M  V30 13742 H 1297.36 3.15433 -0.726912 0
M  V30 13743 H 1296.26 2.359 -2.90348 0
M  V30 13744 H 1297.6 3.11897 -3.80763 0
M  V30 13745 N 1299.25 1.36039 0.795694 0
M  V30 13746 C 1300.47 1.33222 1.58955 0
M  V30 13747 C 1300.9 -0.0854596 1.87906 0
M  V30 13748 O 1300.26 -1.05555 1.47403 0
M  V30 13749 C 1300.31 2.15508 2.89117 0
M  V30 13750 O 1299.41 1.54327 3.82436 0
M  V30 13751 H 1298.75 0.456264 0.48241 0
M  V30 13752 H 1301.28 1.79234 0.986726 0
M  V30 13753 H 1301.29 2.2786 3.38444 0
M  V30 13754 H 1299.97 3.18568 2.67371 0
M  V30 13755 H 1298.54 1.50879 3.41013 0
M  V30 13756 N 1300.73 -1.01913 1.20215 0
M  V30 13757 C 1301.95 -1.79613 1.03702 0
M  V30 13758 C 1302.38 -1.83591 -0.409374 0
M  V30 13759 O 1301.74 -1.26911 -1.29473 0
M  V30 13760 C 1301.78 -3.22052 1.62219 0
M  V30 13761 O 1300.89 -4.03374 0.858106 0
M  V30 13762 H 1300.23 -0.554095 0.365889 0
M  V30 13763 H 1302.76 -1.28203 1.59452 0
M  V30 13764 H 1302.77 -3.72772 1.65847 0
M  V30 13765 H 1301.44 -3.18471 2.67487 0
M  V30 13766 H 1300.02 -3.6198 0.895835 0
M  V30 13767 N 1302.21 -1.00763 -1.2118 0
M  V30 13768 C 1303.12 -0.579646 -2.27326 0
M  V30 13769 C 1304.13 0.378592 -1.69831 0
M  V30 13770 O 1305.31 0.241772 -1.99944 0
M  V30 13771 C 1302.37 0.0843648 -3.46597 0
M  V30 13772 C 1301.43 -0.918685 -4.19355 0
M  V30 13773 C 1300.67 -0.286267 -5.32932 0
M  V30 13774 O 1300.89 0.916274 -5.62993 0
M  V30 13775 O 1299.82 -0.998513 -5.9356 0
M  V30 13776 H 1303.65 -1.46311 -2.66133 0
M  V30 13777 H 1301.24 -0.776641 -1.27627 0
M  V30 13778 H 1303.12 0.455636 -4.18929 0
M  V30 13779 H 1301.79 0.942166 -3.09685 0
M  V30 13780 H 1300.7 -1.34116 -3.49233 0
M  V30 13781 H 1302.03 -1.74616 -4.60185 0
M  V30 13782 N 1303.68 1.3679 -0.7827 0
M  V30 13783 C 1304.93 1.99023 -0.351316 0
M  V30 13784 C 1305.25 1.62436 1.07887 0
M  V30 13785 O 1304.52 0.895084 1.74256 0
M  V30 13786 H 1303.1 0.736141 -0.126909 0
M  V30 13787 H 1305.77 1.67095 -1.00325 0
M  V30 13788 H 1304.86 3.09015 -0.43774 0
M  V30 13789 N 1305.16 0.53415 1.48272 0
M  V30 13790 C 1306.09 -0.215037 2.32508 0
M  V30 13791 C 1307.07 -0.931083 1.42355 0
M  V30 13792 O 1308.26 -0.916051 1.71237 0
M  V30 13793 C 1305.39 -1.25985 3.23643 0
M  V30 13794 C 1304.34 -0.661692 4.22854 0
M  V30 13795 C 1303.67 -1.80946 5.03153 0
M  V30 13796 C 1304.97 0.369358 5.20992 0
M  V30 13797 H 1306.66 0.488158 2.95394 0
M  V30 13798 H 1304.21 0.236206 1.4205 0
M  V30 13799 H 1306.16 -1.79195 3.81402 0
M  V30 13800 H 1304.89 -1.99268 2.58766 0
M  V30 13801 H 1303.54 -0.151082 3.66289 0
M  V30 13802 H 1303.19 -2.53077 4.34696 0
M  V30 13803 H 1302.89 -1.41513 5.70305 0
M  V30 13804 H 1304.42 -2.34526 5.63764 0
M  V30 13805 H 1305.83 -0.0758076 5.7325 0
M  V30 13806 H 1304.23 0.681301 5.9622 0
M  V30 13807 H 1305.3 1.27363 4.67875 0
M  V30 13808 N 1306.64 -1.55279 0.269478 0
M  V30 13809 C 1307.6 -2.21008 -0.607299 0
M  V30 13810 C 1308.6 -1.18619 -1.08564 0
M  V30 13811 O 1309.79 -1.4356 -0.986721 0
M  V30 13812 C 1306.93 -2.87157 -1.83721 0
M  V30 13813 H 1308.12 -2.99881 -0.0334894 0
M  V30 13814 H 1305.67 -1.56287 0.0200573 0
M  V30 13815 H 1306.41 -2.12281 -2.45168 0
M  V30 13816 H 1306.19 -3.62183 -1.5022 0
M  V30 13817 H 1307.68 -3.37391 -2.46083 0
M  V30 13818 N 1308.12 0.00332656 -1.576 0
M  V30 13819 C 1309.05 1.02391 -2.05058 0
M  V30 13820 C 1310.06 1.30903 -0.967901 0
M  V30 13821 O 1311.25 1.27937 -1.24476 0
M  V30 13822 C 1308.35 2.35947 -2.43274 0
M  V30 13823 C 1307.53 2.26423 -3.74234 0
M  V30 13824 C 1306.58 3.4264 -3.99355 0
M  V30 13825 O 1305.61 3.20977 -4.70067 0
M  V30 13826 N 1306.81 4.65379 -3.46991 0
M  V30 13827 H 1309.58 0.619216 -2.93233 0
M  V30 13828 H 1307.14 0.190777 -1.60772 0
M  V30 13829 H 1309.13 3.12462 -2.57196 0
M  V30 13830 H 1307.7 2.6817 -1.60635 0
M  V30 13831 H 1306.92 1.34841 -3.70421 0
M  V30 13832 H 1308.21 2.17229 -4.60097 0
M  V30 13833 H 1307.61 4.85878 -2.89723 0
M  V30 13834 H 1306.16 5.39171 -3.66249 0
M  V30 13835 N 1309.6 1.55164 0.276031 0
M  V30 13836 C 1310.84 1.7528 1.00604 0
M  V30 13837 C 1311.17 0.555256 1.86928 0
M  V30 13838 O 1310.44 -0.429917 1.91124 0
M  V30 13839 H 1309.02 0.646377 0.374441 0
M  V30 13840 H 1311.68 1.92562 0.300992 0
M  V30 13841 H 1310.77 2.65245 1.64473 0
M  V30 13842 N 1311.07 -0.540404 1.48045 0
M  V30 13843 C 1312.3 -1.32656 1.59427 0
M  V30 13844 C 1312.72 -1.86419 0.250924 0
M  V30 13845 O 1312.08 -1.63861 -0.775838 0
M  V30 13846 C 1312.13 -2.46062 2.63602 0
M  V30 13847 O 1311.23 -3.48794 2.20038 0
M  V30 13848 H 1310.58 -0.393334 0.534962 0
M  V30 13849 H 1313.11 -0.651363 1.93955 0
M  V30 13850 H 1313.12 -2.92396 2.84549 0
M  V30 13851 H 1311.79 -2.06291 3.61133 0
M  V30 13852 H 1310.37 -3.0865 2.0926 0
M  V30 13853 N 1312.55 -1.36459 -0.788468 0
M  V30 13854 C 1313.78 -1.33898 -1.57731 0
M  V30 13855 C 1314.2 0.0795471 -1.88632 0
M  V30 13856 O 1313.55 1.03671 -1.50195 0
M  V30 13857 C 1313.6 -2.16134 -2.89773 0
M  V30 13858 O 1313.32 -3.52457 -2.60203 0
M  V30 13859 C 1314.83 -2.21364 -3.84074 0
M  V30 13860 H 1312.05 -0.459269 -0.489197 0
M  V30 13861 H 1314.59 -1.79569 -0.978526 0
M  V30 13862 H 1312.74 -1.74015 -3.46118 0
M  V30 13863 H 1313.16 -3.95378 -3.4464 0
M  V30 13864 H 1314.63 -2.83261 -4.7378 0
M  V30 13865 H 1315.11 -1.21736 -4.21992 0
M  V30 13866 H 1315.72 -2.63723 -3.33662 0
M  V30 13867 N 1314.03 1.01274 -1.20754 0
M  V30 13868 C 1314.96 2.11763 -0.983805 0
M  V30 13869 C 1315.94 1.69869 0.0885635 0
M  V30 13870 O 1317.13 1.94075 -0.0697239 0
M  V30 13871 C 1314.26 3.43087 -0.539287 0
M  V30 13872 C 1313.21 3.9874 -1.55534 0
M  V30 13873 C 1312.54 5.25877 -0.967322 0
M  V30 13874 C 1313.84 4.31688 -2.94012 0
M  V30 13875 H 1315.53 2.30737 -1.90789 0
M  V30 13876 H 1313.08 1.10884 -0.918734 0
M  V30 13877 H 1315.03 4.19773 -0.369979 0
M  V30 13878 H 1313.75 3.23883 0.420435 0
M  V30 13879 H 1312.41 3.24166 -1.71207 0
M  V30 13880 H 1312.06 5.03 0.000448307 0
M  V30 13881 H 1311.76 5.64077 -1.64594 0
M  V30 13882 H 1313.28 6.05215 -0.809167 0
M  V30 13883 H 1314.7 4.99246 -2.81827 0
M  V30 13884 H 1313.1 4.81011 -3.58815 0
M  V30 13885 H 1314.17 3.4029 -3.45442 0
M  V30 13886 N 1315.51 1.01404 1.20644 0
M  V30 13887 C 1316.47 0.586941 2.21557 0
M  V30 13888 C 1317.47 -0.341543 1.57131 0
M  V30 13889 O 1318.66 -0.130585 1.7371 0
M  V30 13890 C 1315.79 -0.143248 3.40599 0
M  V30 13891 H 1316.99 1.47964 2.60858 0
M  V30 13892 H 1314.54 0.803551 1.34063 0
M  V30 13893 H 1315.28 -1.05097 3.06798 0
M  V30 13894 H 1315.06 0.523716 3.88587 0
M  V30 13895 H 1316.55 -0.429504 4.15385 0
M  V30 13896 N 1316.99 -1.36373 0.789944 0
M  V30 13897 C 1318.4 -1.81783 0.425677 0
M  V30 13898 C 1318.75 -1.65711 -1.05045 0
M  V30 13899 O 1317.87 -1.17835 -1.81505 0
M  V30 13900 C 1318.47 -3.3003 0.765866 0
M  V30 13901 C 1317.03 -3.73647 0.454421 0
M  V30 13902 C 1316.18 -2.58632 1.00023 0
M  V30 13903 H 1319.13 -1.24587 0.983044 0
M  V30 13904 H 1319.15 -3.80457 0.0571624 0
M  V30 13905 H 1318.66 -3.41696 1.84026 0
M  V30 13906 H 1316.76 -3.67541 -0.611918 0
M  V30 13907 H 1316.87 -4.69066 0.975401 0
M  V30 13908 H 1315.24 -2.51156 0.423434 0
M  V30 13909 H 1316.02 -2.73083 2.0804 0
M  V30 13910 N 1318.47 -0.542005 -1.47987 0
M  V30 13911 C 1319.4 0.202703 -2.32618 0
M  V30 13912 C 1320.38 0.923521 -1.42846 0
M  V30 13913 O 1321.56 0.906957 -1.7172 0
M  V30 13914 C 1318.69 1.24267 -3.24307 0
M  V30 13915 C 1317.65 0.639257 -4.23199 0
M  V30 13916 C 1316.97 1.78275 -5.04105 0
M  V30 13917 C 1318.27 -0.396982 -5.20789 0
M  V30 13918 H 1319.97 -0.503817 -2.95131 0
M  V30 13919 H 1317.51 -0.243736 -1.41922 0
M  V30 13920 H 1319.46 1.7717 -3.82347 0
M  V30 13921 H 1318.19 1.97893 -2.59819 0
M  V30 13922 H 1316.85 0.131655 -3.66364 0
M  V30 13923 H 1316.5 2.50768 -4.36032 0
M  V30 13924 H 1316.2 1.38487 -5.71047 0
M  V30 13925 H 1317.72 2.31533 -5.65 0
M  V30 13926 H 1319.13 0.0454057 -5.73282 0
M  V30 13927 H 1317.53 -0.712911 -5.9585 0
M  V30 13928 H 1318.6 -1.29843 -4.67193 0
M  V30 13929 N 1319.94 1.55134 -0.277709 0
M  V30 13930 C 1321.22 1.91667 0.390253 0
M  V30 13931 C 1321.6 1.20228 1.73518 0
M  V30 13932 O 1320.95 0.330013 2.26104 0
M  V30 13933 C 1321.16 3.44983 0.52797 0
M  V30 13934 C 1322.51 4.16809 0.809665 0
M  V30 13935 O 1323.53 3.50891 0.612679 0
M  V30 13936 O 1322.39 5.33463 1.18656 0
M  V30 13937 H 1319.48 0.798807 0.214095 0
M  V30 13938 H 1322.03 1.66577 -0.324053 0
M  V30 13939 H 1320.8 3.89056 -0.418422 0
M  V30 13940 H 1320.42 3.76035 1.29164 0
M  V30 13941 N 1321.42 0.00503138 1.57599 0
M  V30 13942 C 1322.35 -0.983586 2.11773 0
M  V30 13943 C 1323.33 -1.35518 1.02805 0
M  V30 13944 O 1324.52 -1.43804 1.30514 0
M  V30 13945 C 1321.65 -2.27383 2.62515 0
M  V30 13946 C 1320.6 -2.0437 3.76054 0
M  V30 13947 C 1319.93 -3.39451 4.1313 0
M  V30 13948 C 1321.23 -1.40223 5.03125 0
M  V30 13949 H 1322.92 -0.532501 2.94627 0
M  V30 13950 H 1320.47 -0.254696 1.4173 0
M  V30 13951 H 1322.42 -2.96903 2.99043 0
M  V30 13952 H 1321.14 -2.74614 1.7679 0
M  V30 13953 H 1319.8 -1.37275 3.39928 0
M  V30 13954 H 1319.45 -3.84395 3.24422 0
M  V30 13955 H 1319.15 -3.24868 4.89627 0
M  V30 13956 H 1320.68 -4.10279 4.52221 0
M  V30 13957 H 1322.09 -1.99708 5.37392 0
M  V30 13958 H 1320.49 -1.36112 5.8446 0
M  V30 13959 H 1321.56 -0.372073 4.8347 0
M  V30 13960 N 1322.9 -1.55308 -0.267798 0
M  V30 13961 C 1323.85 -1.89342 -1.35102 0
M  V30 13962 C 1324.84 -0.770277 -1.50874 0
M  V30 13963 O 1326.05 -0.954679 -1.52597 0
M  V30 13964 H 1322.42 -0.601036 -0.451952 0
M  V30 13965 H 1324.39 -2.7982 -1.03651 0
M  V30 13966 C 1323.14 -2.18644 -2.70352 0
M  V30 13967 H 1322.47 -3.04557 -2.59008 0
M  V30 13968 H 1323.91 -2.46374 -3.45073 0
M  V30 13969 C 1322.36 -0.995753 -3.21848 0
M  V30 13970 O 1322.89 -0.233037 -4.01023 0
M  V30 13971 N 1321.1 -0.792038 -2.79598 0
M  V30 13972 H 1320.65 -1.41396 -2.15325 0
M  V30 13973 H 1320.61 0.00300201 -3.144 0
M  V30 13974 N 1324.38 0.532545 -1.4833 0
M  V30 13975 C 1325.63 1.28498 -1.55471 0
M  V30 13976 C 1325.94 1.94214 -0.232412 0
M  V30 13977 O 1327.15 2.70889 -0.182044 0
M  V30 13978 C 1325.6 2.33144 -2.74175 0
M  V30 13979 C 1325.21 1.73508 -4.13036 0
M  V30 13980 C 1326.95 3.09413 -2.90627 0
M  V30 13981 C 1324.86 2.76079 -5.23005 0
M  V30 13982 H 1323.79 0.483253 -0.578777 0
M  V30 13983 H 1326.44 0.562744 -1.74658 0
M  V30 13984 H 1324.82 3.08391 -2.48417 0
M  V30 13985 H 1326 1.04466 -4.48802 0
M  V30 13986 H 1324.31 1.0974 -4.01679 0
M  V30 13987 H 1326.91 3.86056 -3.69953 0
M  V30 13988 H 1327.25 3.65118 -1.99987 0
M  V30 13989 H 1327.79 2.4128 -3.16274 0
M  V30 13990 H 1324.52 2.25197 -6.15602 0
M  V30 13991 H 1324.04 3.43456 -4.9173 0
M  V30 13992 H 1325.72 3.39113 -5.51009 0
M  V30 13993 N 1325.86 1.36875 0.78122 0
M  V30 13994 C 1327.13 1.22101 1.52809 0
M  V30 13995 C 1327.51 -0.189402 2.10249 0
M  V30 13996 O 1326.86 -1.19598 1.94701 0
M  V30 13997 C 1327.07 2.30953 2.61652 0
M  V30 13998 C 1328.42 2.68027 3.29313 0
M  V30 13999 O 1329.44 2.30058 2.71941 0
M  V30 14000 O 1328.3 3.33407 4.33015 0
M  V30 14001 H 1325.4 0.4759 0.676349 0
M  V30 14002 H 1327.94 1.48629 0.818998 0
M  V30 14003 H 1326.71 3.25443 2.17261 0
M  V30 14004 H 1326.34 2.05837 3.40172 0
M  V30 14005 N 1327.33 -1.00632 1.21289 0
M  V30 14006 C 1328.74 -1.55838 1.02817 0
M  V30 14007 C 1329.1 -1.91816 -0.412425 0
M  V30 14008 O 1328.22 -1.73342 -1.29543 0
M  V30 14009 C 1328.82 -2.83168 1.86014 0
M  V30 14010 C 1327.37 -3.34865 1.71879 0
M  V30 14011 C 1326.52 -2.0807 1.83309 0
M  V30 14012 H 1329.47 -0.828939 1.3533 0
M  V30 14013 H 1329.49 -3.54996 1.36961 0
M  V30 14014 H 1329.01 -2.56951 2.90857 0
M  V30 14015 H 1327.11 -3.6602 0.697153 0
M  V30 14016 H 1327.22 -4.06374 2.53766 0
M  V30 14017 H 1325.58 -2.21006 1.26603 0
M  V30 14018 H 1326.37 -1.84267 2.89656 0
M  V30 14019 N 1328.81 -1.02043 -1.20104 0
M  V30 14020 C 1330.09 -0.626922 -1.85281 0
M  V30 14021 C 1330.47 0.894819 -1.91197 0
M  V30 14022 O 1329.82 1.7881 -1.42265 0
M  V30 14023 C 1330.03 -1.27917 -3.24713 0
M  V30 14024 C 1331.37 -1.39704 -4.00959 0
M  V30 14025 O 1332.4 -1.23568 -3.3408 0
M  V30 14026 O 1331.26 -1.65814 -5.20738 0
M  V30 14027 H 1328.35 -0.216815 -0.798073 0
M  V30 14028 H 1330.9 -1.11804 -1.27663 0
M  V30 14029 H 1329.67 -2.3188 -3.15194 0
M  V30 14030 H 1329.29 -0.775371 -3.89966 0
M  V30 14031 N 1330.29 1.35952 -0.797165 0
M  V30 14032 C 1331.52 2.0381 -0.38421 0
M  V30 14033 C 1331.94 1.597 0.993854 0
M  V30 14034 O 1331.3 0.769148 1.64176 0
M  V30 14035 C 1331.35 3.57589 -0.465054 0
M  V30 14036 O 1330.45 4.09043 0.525095 0
M  V30 14037 H 1329.79 0.643957 -0.161912 0
M  V30 14038 H 1332.32 1.73746 -1.08043 0
M  V30 14039 H 1332.33 4.06651 -0.331448 0
M  V30 14040 H 1331.01 3.89045 -1.47027 0
M  V30 14041 H 1329.58 3.7123 0.352509 0
M  V30 14042 N 1331.77 0.549846 1.47697 0
M  V30 14043 C 1333.02 0.0209424 2.01689 0
M  V30 14044 C 1333.33 -1.33417 1.43036 0
M  V30 14045 O 1334.54 -1.95257 1.88646 0
M  V30 14046 C 1332.99 -0.0130171 3.59898 0
M  V30 14047 C 1332.6 1.3384 4.2754 0
M  V30 14048 C 1334.34 -0.489701 4.21666 0
M  V30 14049 C 1332.25 1.26395 5.77735 0
M  V30 14050 H 1331.18 0.00405885 0.753989 0
M  V30 14051 H 1333.83 0.696599 1.69764 0
M  V30 14052 H 1332.21 -0.754168 3.88752 0
M  V30 14053 H 1333.39 2.09668 4.10336 0
M  V30 14054 H 1331.7 1.75242 3.77729 0
M  V30 14055 H 1334.3 -0.563684 5.31721 0
M  V30 14056 H 1334.64 -1.50004 3.88336 0
M  V30 14057 H 1335.18 0.196366 3.97315 0
M  V30 14058 H 1331.92 2.25005 6.15673 0
M  V30 14059 H 1331.44 0.547353 5.97297 0
M  V30 14060 H 1333.11 0.962918 6.39794 0
M  V30 14061 N 1333.25 -1.54984 0.285932 0
M  V30 14062 C 1334.5 -1.99008 -0.328433 0
M  V30 14063 C 1334.81 -1.17787 -1.56158 0
M  V30 14064 O 1336.01 -1.52006 -2.24959 0
M  V30 14065 C 1334.47 -3.54241 -0.635688 0
M  V30 14066 C 1334.08 -4.44252 0.578271 0
M  V30 14067 C 1335.82 -4.06828 -1.21208 0
M  V30 14068 C 1333.73 -5.90892 0.245003 0
M  V30 14069 H 1332.66 -0.743314 -0.126494 0
M  V30 14070 H 1335.31 -1.79258 0.39228 0
M  V30 14071 H 1333.69 -3.69834 -1.41559 0
M  V30 14072 H 1334.87 -4.40431 1.35489 0
M  V30 14073 H 1333.18 -4.02358 1.07225 0
M  V30 14074 H 1335.78 -5.13941 -1.47542 0
M  V30 14075 H 1336.12 -3.56515 -2.14948 0
M  V30 14076 H 1336.65 -3.94718 -0.494222 0
M  V30 14077 H 1333.39 -6.45323 1.15057 0
M  V30 14078 H 1332.91 -5.97757 -0.494636 0
M  V30 14079 H 1334.59 -6.46805 -0.158891 0
M  V30 14080 N 1334.72 -0.0133892 -1.57594 0
M  V30 14081 C 1335.69 0.958601 -2.08191 0
M  V30 14082 C 1336.69 1.26408 -0.993865 0
M  V30 14083 O 1337.88 1.20703 -1.25604 0
M  V30 14084 C 1335.01 2.27971 -2.5346 0
M  V30 14085 H 1336.2 0.520686 -2.95345 0
M  V30 14086 H 1333.76 0.234351 -1.54533 0
M  V30 14087 H 1334.49 2.76424 -1.69588 0
M  V30 14088 H 1334.28 2.07116 -3.32935 0
M  V30 14089 H 1335.77 2.97672 -2.92884 0
M  V30 14090 N 1336.2 1.55448 0.259558 0
M  V30 14091 C 1337.43 1.81063 1.01148 0
M  V30 14092 C 1337.85 0.58875 1.78649 0
M  V30 14093 O 1337.21 -0.461971 1.75315 0
M  V30 14094 C 1337.26 3.04279 1.93512 0
M  V30 14095 O 1336.36 2.80307 3.02493 0
M  V30 14096 H 1335.7 0.598056 0.288487 0
M  V30 14097 H 1338.23 2.02614 0.284387 0
M  V30 14098 H 1338.24 3.33373 2.35215 0
M  V30 14099 H 1336.92 3.92856 1.36518 0
M  V30 14100 H 1335.5 2.62345 2.65008 0
M  V30 14101 N 1337.68 -0.524672 1.4861 0
M  V30 14102 C 1338.92 -1.29064 1.58499 0
M  V30 14103 C 1339.28 -1.90294 0.255378 0
M  V30 14104 O 1340.49 -2.6782 0.229289 0
M  V30 14105 C 1338.76 -2.34693 2.69544 0
M  V30 14106 S 1340.32 -3.20944 2.99233 0
M  V30 14107 H 1337.13 -0.438948 0.559326 0
M  V30 14108 H 1339.74 -0.597119 1.86158 0
M  V30 14109 H 1338.44 -1.88199 3.64704 0
M  V30 14110 H 1337.97 -3.08745 2.43804 0
M  V30 14111 H 1339.99 -4.34883 2.38937 0
M  V30 14112 N 1339.16 -1.37287 -0.77395 0
M  V30 14113 C 1340.39 -1.35563 -1.56302 0
M  V30 14114 C 1340.8 0.0595356 -1.88706 0
M  V30 14115 O 1340.16 1.02072 -1.51286 0
M  V30 14116 C 1340.21 -2.19195 -2.87464 0
M  V30 14117 O 1339.93 -3.55197 -2.5645 0
M  V30 14118 C 1341.43 -2.25425 -3.81704 0
M  V30 14119 H 1338.65 -0.464431 -0.484298 0
M  V30 14120 H 1341.2 -1.80597 -0.959425 0
M  V30 14121 H 1339.35 -1.77676 -3.44253 0
M  V30 14122 H 1339.76 -3.99011 -3.40427 0
M  V30 14123 H 1341.24 -2.8827 -4.70749 0
M  V30 14124 H 1341.72 -1.26205 -4.20677 0
M  V30 14125 H 1342.32 -2.67247 -3.30846 0
M  V30 14126 N 1340.64 0.999871 -1.21821 0
M  V30 14127 C 1342.05 1.5529 -1.03642 0
M  V30 14128 C 1342.4 1.92032 0.402246 0
M  V30 14129 O 1341.52 1.74027 1.28622 0
M  V30 14130 C 1342.12 2.82177 -1.87514 0
M  V30 14131 C 1340.68 3.33949 -1.73653 0
M  V30 14132 C 1339.82 2.07095 -1.84409 0
M  V30 14133 H 1342.78 0.821751 -1.35768 0
M  V30 14134 H 1342.8 3.54264 -1.38842 0
M  V30 14135 H 1342.31 2.55405 -2.92216 0
M  V30 14136 H 1340.41 3.65645 -0.716554 0
M  V30 14137 H 1340.52 4.05022 -2.55918 0
M  V30 14138 H 1338.89 2.20332 -1.27773 0
M  V30 14139 H 1339.67 1.82728 -2.90629 0
M  V30 14140 N 1342.11 1.02678 1.19562 0
M  V30 14141 C 1343.53 0.743467 1.41226 0
M  V30 14142 C 1343.73 -0.672786 1.89936 0
M  V30 14143 O 1342.79 -1.43908 2.07477 0
M  V30 14144 C 1344.1 1.77781 2.42517 0
M  V30 14145 C 1345.65 1.79711 2.56267 0
M  V30 14146 C 1346.12 2.82099 3.60811 0
M  V30 14147 N 1347.61 2.80902 3.68304 0
M  V30 14148 C 1348.35 3.5678 4.48882 0
M  V30 14149 N 1347.84 4.42367 5.33182 0
M  V30 14150 N 1349.64 3.45331 4.43512 0
M  V30 14151 H 1341.79 1.94094 0.862635 0
M  V30 14152 H 1344.05 0.839015 0.441313 0
M  V30 14153 H 1343.76 2.79295 2.13745 0
M  V30 14154 H 1343.63 1.59836 3.41661 0
M  V30 14155 H 1346.02 0.788756 2.84364 0
M  V30 14156 H 1346.1 2.01731 1.57284 0
M  V30 14157 H 1345.74 3.83104 3.33457 0
M  V30 14158 H 1345.67 2.57338 4.5944 0
M  V30 14159 H 1348.16 2.18826 3.08097 0
M  V30 14160 H 1348.48 4.97008 5.9178 0
M  V30 14161 H 1346.82 4.4644 5.3265 0
M  V30 14162 H 1350.01 2.77883 3.76695 0
M  V30 14163 H 1350.19 4.04718 5.06071 0
M  V30 14164 N 1343.59 -1.35528 0.804364 0
M  V30 14165 C 1344.56 -2.28153 0.21885 0
M  V30 14166 C 1345.56 -1.49486 -0.592511 0
M  V30 14167 O 1346.75 -1.69274 -0.411319 0
M  V30 14168 C 1343.88 -3.33736 -0.695195 0
M  V30 14169 H 1345.07 -2.81446 1.03576 0
M  V30 14170 H 1342.62 -1.45345 0.574854 0
M  V30 14171 H 1343.36 -2.85625 -1.53587 0
M  V30 14172 H 1343.14 -3.91931 -0.115143 0
M  V30 14173 H 1344.63 -4.02872 -1.09925 0
M  V30 14174 N 1345.07 -0.557671 -1.47404 0
M  V30 14175 C 1346.03 0.179311 -2.28498 0
M  V30 14176 C 1347.03 0.842281 -1.36975 0
M  V30 14177 O 1348.22 0.698072 -1.59601 0
M  V30 14178 C 1345.36 1.26229 -3.16668 0
M  V30 14179 H 1346.55 -0.533033 -2.95125 0
M  V30 14180 H 1344.1 -0.314634 -1.531 0
M  V30 14181 H 1344.84 2.00702 -2.54733 0
M  V30 14182 H 1344.62 0.791712 -3.84024 0
M  V30 14183 H 1346.11 1.77991 -3.77768 0
M  V30 14184 N 1346.55 1.54831 -0.294147 0
M  V30 14185 C 1347.8 1.99179 0.317874 0
M  V30 14186 C 1348.11 1.18614 1.55532 0
M  V30 14187 O 1349.32 1.53197 2.24149 0
M  V30 14188 C 1347.77 3.54574 0.616893 0
M  V30 14189 C 1347.38 4.43939 -0.601822 0
M  V30 14190 C 1349.13 4.07465 1.19049 0
M  V30 14191 C 1347.03 5.90754 -0.276336 0
M  V30 14192 H 1345.96 0.743974 0.12255 0
M  V30 14193 H 1348.61 1.79047 -0.401781 0
M  V30 14194 H 1347 3.70579 1.39596 0
M  V30 14195 H 1348.17 4.39706 -1.37822 0
M  V30 14196 H 1346.48 4.01783 -1.09357 0
M  V30 14197 H 1349.08 5.14716 1.44814 0
M  V30 14198 H 1349.42 3.5765 2.13055 0
M  V30 14199 H 1349.96 3.94975 0.473282 0
M  V30 14200 H 1346.7 6.44704 -1.18478 0
M  V30 14201 H 1346.22 5.98011 0.462928 0
M  V30 14202 H 1347.9 6.4688 0.124587 0
M  V30 14203 N 1348.03 0.0217466 1.57585 0
M  V30 14204 C 1349.25 -0.67246 1.96196 0
M  V30 14205 C 1349.68 -1.6529 0.897827 0
M  V30 14206 O 1349.04 -1.80743 -0.142002 0
M  V30 14207 C 1349.08 -1.36162 3.33905 0
M  V30 14208 O 1348.19 -2.47671 3.29747 0
M  V30 14209 H 1347.53 -0.177238 0.639908 0
M  V30 14210 H 1350.06 0.0814073 2.04438 0
M  V30 14211 H 1350.07 -1.7201 3.69968 0
M  V30 14212 H 1348.74 -0.642893 4.10901 0
M  V30 14213 H 1347.32 -2.13989 3.0539 0
M  V30 14214 N 1349.51 -1.55583 -0.251311 0
M  V30 14215 C 1350.75 -1.77471 -0.981418 0
M  V30 14216 C 1351.08 -0.586228 -1.85141 0
M  V30 14217 O 1350.36 0.415623 -1.90007 0
M  V30 14218 C 1350.64 -3.09204 -1.84567 0
M  V30 14219 C 1350.5 -4.38448 -1.00417 0
M  V30 14220 C 1351.81 -3.37133 -2.82895 0
M  V30 14221 H 1348.93 -0.645664 -0.355369 0
M  V30 14222 H 1351.58 -1.88318 -0.252228 0
M  V30 14223 H 1349.73 -3.00087 -2.46738 0
M  V30 14224 H 1351.4 -4.5955 -0.40149 0
M  V30 14225 H 1349.64 -4.32703 -0.308365 0
M  V30 14226 H 1350.31 -5.26995 -1.64258 0
M  V30 14227 H 1352.79 -3.46183 -2.3086 0
M  V30 14228 H 1351.66 -4.30531 -3.40491 0
M  V30 14229 H 1351.92 -2.57829 -3.59133 0
M  V30 14230 N 1350.98 0.516783 -1.48886 0
M  V30 14231 C 1352.23 1.27375 -1.57808 0
M  V30 14232 C 1352.56 1.92492 -0.256963 0
M  V30 14233 O 1351.84 1.79947 0.738193 0
M  V30 14234 C 1352.12 2.35295 -2.72595 0
M  V30 14235 C 1351.97 1.74783 -4.14453 0
M  V30 14236 C 1353.29 3.36973 -2.83085 0
M  V30 14237 H 1350.41 0.46175 -0.574418 0
M  V30 14238 H 1353.05 0.57434 -1.81111 0
M  V30 14239 H 1351.2 2.94951 -2.52857 0
M  V30 14240 H 1352.88 1.19076 -4.45666 0
M  V30 14241 H 1351.12 1.05258 -4.20836 0
M  V30 14242 H 1351.79 2.52985 -4.90615 0
M  V30 14243 H 1354.27 2.87289 -3.01005 0
M  V30 14244 H 1353.14 4.09864 -3.65106 0
M  V30 14245 H 1353.4 3.98336 -1.91784 0
M  V30 14246 N 1352.46 1.37696 0.766659 0
M  V30 14247 C 1353.69 1.3639 1.55581 0
M  V30 14248 C 1354.1 -0.0495272 1.88735 0
M  V30 14249 O 1353.46 -1.01268 1.51826 0
M  V30 14250 C 1353.51 2.20717 2.86298 0
M  V30 14251 O 1353.23 3.56552 2.54563 0
M  V30 14252 C 1354.73 2.27446 3.80504 0
M  V30 14253 H 1351.95 0.466993 0.481828 0
M  V30 14254 H 1354.5 1.81103 0.949834 0
M  V30 14255 H 1352.65 1.79499 3.43306 0
M  V30 14256 H 1353.07 4.00811 3.38306 0
M  V30 14257 H 1354.54 2.90762 4.69214 0
M  V30 14258 H 1355.02 1.28434 4.20002 0
M  V30 14259 H 1355.62 2.68998 3.29424 0
M  V30 14260 N 1353.94 -0.993397 1.22349 0
M  V30 14261 C 1354.9 -2.065 0.994506 0
M  V30 14262 C 1355.9 -1.60753 -0.0388766 0
M  V30 14263 O 1357.09 -1.73053 0.199578 0
M  V30 14264 C 1354.22 -3.37182 0.502088 0
M  V30 14265 H 1355.42 -2.28248 1.94533 0
M  V30 14266 H 1352.97 -1.16489 1.04211 0
M  V30 14267 H 1353.71 -3.21119 -0.453114 0
M  V30 14268 H 1353.49 -3.71721 1.24763 0
M  V30 14269 H 1354.98 -4.16027 0.362108 0
M  V30 14270 N 1355.42 -1.03311 -1.19015 0
M  V30 14271 C 1356.33 -0.627735 -2.26046 0
M  V30 14272 C 1357.34 0.342483 -1.70596 0
M  V30 14273 O 1358.52 0.199307 -2.00411 0
M  V30 14274 C 1355.58 0.0108274 -3.46698 0
M  V30 14275 C 1354.65 -1.00743 -4.17312 0
M  V30 14276 C 1353.88 -0.399245 -5.32205 0
M  V30 14277 O 1354.1 0.796649 -5.64809 0
M  V30 14278 O 1353.04 -1.12419 -5.91308 0
M  V30 14279 H 1356.86 -1.51923 -2.6297 0
M  V30 14280 H 1354.45 -0.803538 -1.25951 0
M  V30 14281 H 1356.33 0.366672 -4.19802 0
M  V30 14282 H 1355 0.876265 -3.11614 0
M  V30 14283 H 1353.91 -1.41494 -3.4631 0
M  V30 14284 H 1355.24 -1.84338 -4.56377 0
M  V30 14285 N 1356.9 1.35099 -0.81154 0
M  V30 14286 C 1358.14 1.9892 -0.394815 0
M  V30 14287 C 1358.47 1.6422 1.0366 0
M  V30 14288 O 1357.75 0.908031 1.72003 0
M  V30 14289 C 1358.03 3.55331 -0.58413 0
M  V30 14290 C 1357.89 3.99812 -2.06084 0
M  V30 14291 C 1359.2 4.40098 -0.0129096 0
M  V30 14292 H 1356.32 0.72261 -0.144926 0
M  V30 14293 H 1358.97 1.60173 -1.02199 0
M  V30 14294 H 1357.12 3.88468 -0.0502446 0
M  V30 14295 H 1358.79 3.77061 -2.65749 0
M  V30 14296 H 1357.03 3.50539 -2.55548 0
M  V30 14297 H 1357.7 5.08655 -2.14416 0
M  V30 14298 H 1360.18 4.13449 -0.468917 0
M  V30 14299 H 1359.05 5.4862 -0.175252 0
M  V30 14300 H 1359.31 4.28675 1.0812 0
M  V30 14301 N 1358.37 0.56548 1.47106 0
M  V30 14302 C 1359.32 -0.198133 2.27137 0
M  V30 14303 C 1360.31 -0.877743 1.3485 0
M  V30 14304 O 1361.5 -0.774683 1.59147 0
M  V30 14305 C 1358.63 -1.22223 3.20806 0
M  V30 14306 C 1357.71 -0.545616 4.20576 0
M  V30 14307 N 1358.11 0.389029 5.04302 0
M  V30 14308 C 1356.4 -0.798517 4.38793 0
M  V30 14309 C 1357.1 0.782852 5.76408 0
M  V30 14310 N 1356.08 0.13583 5.4343 0
M  V30 14311 H 1359.88 0.520354 2.89257 0
M  V30 14312 H 1357.4 0.386013 1.57746 0
M  V30 14313 H 1359.39 -1.78332 3.76833 0
M  V30 14314 H 1358.05 -1.94172 2.60244 0
M  V30 14315 H 1359.06 0.763644 5.12239 0
M  V30 14316 H 1355.74 -1.50589 3.89396 0
M  V30 14317 H 1357.13 1.55133 6.53746 0
M  V30 14318 N 1359.85 -1.54672 0.302354 0
M  V30 14319 C 1361.13 -1.92264 -0.359711 0
M  V30 14320 C 1361.51 -1.22973 -1.71583 0
M  V30 14321 O 1360.86 -0.365942 -2.25551 0
M  V30 14322 C 1361.07 -3.4578 -0.473019 0
M  V30 14323 C 1362.42 -4.18044 -0.743252 0
M  V30 14324 O 1363.44 -3.51822 -0.556778 0
M  V30 14325 O 1362.3 -5.35283 -1.10155 0
M  V30 14326 H 1359.39 -0.802112 -0.201359 0
M  V30 14327 H 1361.94 -1.66041 0.350513 0
M  V30 14328 H 1360.71 -3.88342 0.480265 0
M  V30 14329 H 1360.33 -3.78042 -1.23166 0
M  V30 14330 N 1361.33 -0.0301034 -1.57571 0
M  V30 14331 C 1362.56 0.662045 -1.9655 0
M  V30 14332 C 1362.98 1.64811 -0.906581 0
M  V30 14333 O 1362.34 1.80816 0.132415 0
M  V30 14334 C 1362.39 1.34389 -3.34622 0
M  V30 14335 O 1361.49 2.45919 -3.31056 0
M  V30 14336 H 1360.83 0.173842 -0.640839 0
M  V30 14337 H 1363.36 -0.092248 -2.04392 0
M  V30 14338 H 1363.37 1.70045 -3.70875 0
M  V30 14339 H 1362.05 0.621092 -4.11236 0
M  V30 14340 H 1360.62 2.12367 -3.06521 0
M  V30 14341 N 1362.81 1.55714 0.243056 0
M  V30 14342 C 1363.76 1.90638 1.30099 0
M  V30 14343 C 1364.73 0.761049 1.47639 0
M  V30 14344 O 1365.91 1.01505 1.61559 0
M  V30 14345 C 1363.05 2.20985 2.65065 0
M  V30 14346 C 1362.16 3.48343 2.55501 0
M  V30 14347 C 1361.3 3.68241 3.82847 0
M  V30 14348 C 1360.34 4.89187 3.67916 0
M  V30 14349 N 1359.47 5.05586 4.87162 0
M  V30 14350 H 1364.31 2.80857 0.996155 0
M  V30 14351 H 1361.85 1.39027 0.480619 0
M  V30 14352 H 1363.81 2.36585 3.43632 0
M  V30 14353 H 1362.44 1.33966 2.93689 0
M  V30 14354 H 1361.49 3.41054 1.68483 0
M  V30 14355 H 1362.8 4.37057 2.4038 0
M  V30 14356 H 1361.96 3.83822 4.69857 0
M  V30 14357 H 1360.7 2.77768 4.00869 0
M  V30 14358 H 1359.7 4.7358 2.79289 0
M  V30 14359 H 1360.93 5.81124 3.51385 0
M  V30 14360 H 1358.87 4.18051 5.05538 0
M  V30 14361 H 1358.79 5.88395 4.74686 0
M  V30 14362 H 1360.06 5.25582 5.7566 0
M  V30 14363 N 1364.29 -0.50888 1.49158 0
M  V30 14364 C 1365.7 -1.09054 1.51539 0
M  V30 14365 C 1366.05 -1.93938 0.297099 0
M  V30 14366 O 1365.17 -2.08092 -0.593849 0
M  V30 14367 C 1365.77 -1.98447 2.74599 0
M  V30 14368 C 1364.33 -2.5179 2.79783 0
M  V30 14369 C 1363.47 -1.29227 2.45348 0
M  V30 14370 H 1366.43 -0.293148 1.55969 0
M  V30 14371 H 1366.45 -2.83028 2.54314 0
M  V30 14372 H 1365.96 -1.3664 3.63251 0
M  V30 14373 H 1364.06 -3.17258 1.95392 0
M  V30 14374 H 1364.17 -2.89481 3.81756 0
M  V30 14375 H 1362.54 -1.61494 1.96957 0
M  V30 14376 H 1363.32 -0.6914 3.36266 0
M  V30 14377 N 1365.76 -1.381 -0.759346 0
M  V30 14378 C 1366.71 -1.31373 -1.86347 0
M  V30 14379 C 1367.7 -0.199113 -1.59663 0
M  V30 14380 O 1368.89 -0.43459 -1.71582 0
M  V30 14381 C 1366.02 -1.13537 -3.23982 0
M  V30 14382 C 1365.11 -2.29596 -3.56576 0
M  V30 14383 N 1365.5 -3.55023 -3.60267 0
M  V30 14384 C 1363.79 -2.22022 -3.86811 0
M  V30 14385 C 1364.5 -4.31629 -3.89963 0
M  V30 14386 N 1363.47 -3.60915 -4.06499 0
M  V30 14387 H 1367.27 -2.26345 -1.8747 0
M  V30 14388 H 1364.79 -1.3125 -0.956415 0
M  V30 14389 H 1366.78 -1.06801 -4.02988 0
M  V30 14390 H 1365.44 -0.194922 -3.24114 0
M  V30 14391 H 1366.46 -3.88769 -3.42168 0
M  V30 14392 H 1363.13 -1.36104 -3.94692 0
M  V30 14393 H 1364.52 -5.40238 -3.9949 0
M  V30 14394 N 1367.24 0.986894 -1.22875 0
M  V30 14395 C 1368.15 2.11232 -1.02069 0
M  V30 14396 C 1369.17 1.73969 0.0328424 0
M  V30 14397 O 1370.34 2.00754 -0.161197 0
M  V30 14398 C 1367.41 3.41337 -0.60747 0
M  V30 14399 C 1366.47 3.92665 -1.73531 0
M  V30 14400 C 1365.7 5.1656 -1.34171 0
M  V30 14401 O 1365.93 5.69964 -0.223106 0
M  V30 14402 O 1364.86 5.61791 -2.16041 0
M  V30 14403 H 1368.69 2.3167 -1.96374 0
M  V30 14404 H 1366.27 1.09607 -1.01522 0
M  V30 14405 H 1368.15 4.19613 -0.387661 0
M  V30 14406 H 1366.83 3.22244 0.306653 0
M  V30 14407 H 1365.74 3.15534 -2.0097 0
M  V30 14408 H 1367.07 4.162 -2.62751 0
M  V30 14409 N 1368.72 1.0394 1.18466 0
M  V30 14410 C 1369.97 0.740576 1.88042 0
M  V30 14411 C 1370.29 -0.733822 1.80666 0
M  V30 14412 O 1369.56 -1.52943 1.22414 0
M  V30 14413 H 1368.14 0.270949 0.696129 0
M  V30 14414 H 1370.8 1.31588 1.43772 0
M  V30 14415 H 1369.9 1.04429 2.94111 0
M  V30 14416 N 1370.2 -1.34667 0.818693 0
M  V30 14417 C 1371.61 -1.51436 0.503921 0
M  V30 14418 C 1371.81 -1.76468 -0.972691 0
M  V30 14419 O 1370.87 -1.81314 -1.75731 0
M  V30 14420 C 1372.18 -2.68198 1.35978 0
M  V30 14421 C 1373.73 -2.8208 1.35647 0
M  V30 14422 C 1374.21 -4.01881 2.19672 0
M  V30 14423 N 1375.7 -4.0908 2.17273 0
M  V30 14424 C 1376.43 -5.00925 2.79038 0
M  V30 14425 N 1375.93 -5.9802 3.49777 0
M  V30 14426 N 1377.72 -4.93764 2.68615 0
M  V30 14427 H 1369.87 -1.16677 1.77483 0
M  V30 14428 H 1372.14 -0.571873 0.756085 0
M  V30 14429 H 1371.84 -2.56317 2.4082 0
M  V30 14430 H 1371.72 -3.63105 1.0215 0
M  V30 14431 H 1374.1 -2.93405 0.315849 0
M  V30 14432 H 1374.18 -1.87994 1.7347 0
M  V30 14433 H 1373.83 -3.91316 3.23781 0
M  V30 14434 H 1373.76 -4.95171 1.79202 0
M  V30 14435 H 1376.25 -3.3958 1.65814 0
M  V30 14436 H 1376.56 -6.64722 3.94162 0
M  V30 14437 H 1374.91 -5.98157 3.53883 0
M  V30 14438 H 1378.1 -4.16868 2.12929 0
M  V30 14439 H 1378.27 -5.65147 3.17038 0
M  V30 14440 N 1371.68 -0.573274 -1.46804 0
M  V30 14441 C 1372.91 -0.0605105 -2.06511 0
M  V30 14442 C 1373.31 1.24572 -1.42403 0
M  V30 14443 O 1372.66 1.76182 -0.520168 0
M  V30 14444 C 1372.72 0.189394 -3.59001 0
M  V30 14445 C 1372.38 -1.02981 -4.45246 0
M  V30 14446 C 1373.38 -1.93948 -4.82369 0
M  V30 14447 C 1371.07 -1.249 -4.86524 0
M  V30 14448 C 1373.06 -3.0519 -5.59587 0
M  V30 14449 C 1370.75 -2.36449 -5.63503 0
M  V30 14450 C 1371.74 -3.26424 -5.99947 0
M  V30 14451 O 1371.43 -4.36037 -6.75372 0
M  V30 14452 H 1371.16 -0.0501758 -0.674135 0
M  V30 14453 H 1373.72 -0.790951 -1.8956 0
M  V30 14454 H 1371.95 0.974337 -3.74224 0
M  V30 14455 H 1373.64 0.649506 -4.0067 0
M  V30 14456 H 1374.4 -1.78226 -4.51066 0
M  V30 14457 H 1370.28 -0.55779 -4.57613 0
M  V30 14458 H 1373.83 -3.75444 -5.87952 0
M  V30 14459 H 1369.72 -2.52138 -5.94219 0
M  V30 14460 H 1370.49 -4.34285 -6.93786 0
M  V30 14461 N 1373.15 1.5451 -0.310553 0
M  V30 14462 C 1374.4 1.99505 0.296731 0
M  V30 14463 C 1374.72 1.20257 1.54265 0
M  V30 14464 O 1375.92 1.55566 2.22512 0
M  V30 14465 C 1374.38 3.55208 0.579251 0
M  V30 14466 C 1373.99 4.43276 -0.648874 0
M  V30 14467 C 1375.73 4.08705 1.1472 0
M  V30 14468 C 1373.64 5.90428 -0.338978 0
M  V30 14469 H 1372.57 0.745232 0.114652 0
M  V30 14470 H 1375.22 1.78611 -0.420749 0
M  V30 14471 H 1373.6 3.72039 1.35658 0
M  V30 14472 H 1374.77 4.3822 -1.42478 0
M  V30 14473 H 1373.09 4.00601 -1.13613 0
M  V30 14474 H 1375.69 5.16223 1.39346 0
M  V30 14475 H 1376.03 3.59889 2.09249 0
M  V30 14476 H 1376.56 3.95454 0.431363 0
M  V30 14477 H 1373.3 6.43411 -1.25309 0
M  V30 14478 H 1372.82 5.98468 0.399475 0
M  V30 14479 H 1374.5 6.46976 0.0559696 0
M  V30 14480 N 1374.63 0.0384594 1.57553 0
M  V30 14481 C 1375.56 -0.938444 2.13812 0
M  V30 14482 C 1376.54 -1.33307 1.05657 0
M  V30 14483 O 1377.73 -1.41003 1.33535 0
M  V30 14484 C 1374.86 -2.21764 2.67279 0
M  V30 14485 C 1373.81 -1.96347 3.80305 0
M  V30 14486 C 1373.14 -3.30612 4.20238 0
M  V30 14487 C 1374.44 -1.2952 5.05986 0
M  V30 14488 H 1376.13 -0.469887 2.9569 0
M  V30 14489 H 1373.68 -0.224576 1.42238 0
M  V30 14490 H 1375.63 -2.90493 3.05273 0
M  V30 14491 H 1374.36 -2.70802 1.82576 0
M  V30 14492 H 1373.02 -1.30033 3.42764 0
M  V30 14493 H 1372.66 -3.77427 3.32502 0
M  V30 14494 H 1372.36 -3.14409 4.96408 0
M  V30 14495 H 1373.89 -4.00594 4.60822 0
M  V30 14496 H 1375.3 -1.88264 5.41507 0
M  V30 14497 H 1373.7 -1.23685 5.87216 0
M  V30 14498 H 1374.77 -0.269439 4.84151 0
M  V30 14499 N 1376.11 -1.55841 -0.234795 0
M  V30 14500 C 1377.06 -1.92165 -1.31055 0
M  V30 14501 C 1378.05 -0.802106 -1.49207 0
M  V30 14502 O 1379.26 -0.986832 -1.50538 0
M  V30 14503 H 1375.63 -0.610487 -0.439101 0
M  V30 14504 H 1377.61 -2.81955 -0.976926 0
M  V30 14505 C 1376.35 -2.24329 -2.65654 0
M  V30 14506 H 1375.68 -3.09982 -2.5249 0
M  V30 14507 H 1377.12 -2.53639 -3.3977 0
M  V30 14508 C 1375.58 -1.0638 -3.19664 0
M  V30 14509 O 1376.11 -0.318047 -4.00439 0
M  V30 14510 N 1374.31 -0.851167 -2.77855 0
M  V30 14511 H 1373.86 -1.45932 -2.12277 0
M  V30 14512 H 1373.82 -0.0636875 -3.14335 0
M  V30 14513 N 1377.59 0.500963 -1.49426 0
M  V30 14514 C 1378.84 1.25261 -1.58601 0
M  V30 14515 C 1379.16 1.93056 -0.274647 0
M  V30 14516 O 1378.43 1.82736 0.706003 0
M  V30 14517 H 1377.01 0.465328 -0.584362 0
M  V30 14518 H 1379.67 0.580588 -1.86052 0
M  V30 14519 H 1378.77 2.01652 -2.38208 0
M  V30 14520 N 1379.07 1.38501 0.752011 0
M  V30 14521 C 1380.32 1.34529 1.50819 0
M  V30 14522 C 1380.64 -0.0636155 1.94896 0
M  V30 14523 O 1379.91 -1.01161 1.6776 0
M  V30 14524 H 1378.49 0.49501 0.559441 0
M  V30 14525 H 1381.15 1.73196 0.893822 0
M  V30 14526 H 1380.24 1.99713 2.39835 0
M  V30 14527 N 1380.55 -0.980364 1.23396 0
M  V30 14528 C 1381.77 -1.76223 1.09363 0
M  V30 14529 C 1382.2 -1.84801 -0.350759 0
M  V30 14530 O 1381.55 -1.30966 -1.2537 0
M  V30 14531 C 1381.6 -3.16728 1.72383 0
M  V30 14532 O 1380.71 -4.00439 0.986002 0
M  V30 14533 H 1380.05 -0.542174 0.383332 0
M  V30 14534 H 1382.58 -1.23066 1.6345 0
M  V30 14535 H 1382.59 -3.67307 1.77623 0
M  V30 14536 H 1381.26 -3.098 2.77483 0
M  V30 14537 H 1379.84 -3.58946 1.01054 0
M  V30 14538 N 1382.02 -1.04567 -1.17913 0
M  V30 14539 C 1382.93 -0.651674 -2.25367 0
M  V30 14540 C 1383.95 0.32437 -1.7095 0
M  V30 14541 O 1385.13 0.178039 -2.00612 0
M  V30 14542 C 1382.19 -0.0259452 -3.4669 0
M  V30 14543 C 1381.25 -1.05163 -4.1622 0
M  V30 14544 C 1380.48 -0.45567 -5.31751 0
M  V30 14545 O 1380.71 0.736698 -5.65623 0
M  V30 14546 O 1379.64 -1.18684 -5.90083 0
M  V30 14547 H 1383.47 -1.54704 -2.61344 0
M  V30 14548 H 1381.05 -0.816852 -1.25092 0
M  V30 14549 H 1382.93 0.322126 -4.20167 0
M  V30 14550 H 1381.61 0.843165 -3.12526 0
M  V30 14551 H 1380.52 -1.45159 -3.44789 0
M  V30 14552 H 1381.85 -1.89168 -4.54397 0
M  V30 14553 N 1383.5 1.34231 -0.825823 0
M  V30 14554 C 1384.41 2.33245 -0.251803 0
M  V30 14555 C 1385.43 1.62756 0.615334 0
M  V30 14556 O 1386.6 1.94503 0.522547 0
M  V30 14557 C 1383.67 3.41908 0.574456 0
M  V30 14558 C 1382.73 4.2814 -0.315422 0
M  V30 14559 C 1381.96 5.31613 0.471496 0
M  V30 14560 O 1382.19 5.44337 1.70449 0
M  V30 14561 O 1381.12 6.01719 -0.147691 0
M  V30 14562 H 1384.95 2.84174 -1.07139 0
M  V30 14563 H 1382.53 1.37341 -0.588032 0
M  V30 14564 H 1384.41 4.08252 1.04444 0
M  V30 14565 H 1383.09 2.93217 1.37132 0
M  V30 14566 H 1381.99 3.64709 -0.832963 0
M  V30 14567 H 1383.33 4.80279 -1.07672 0
M  V30 14568 N 1384.98 0.581051 1.46498 0
M  V30 14569 C 1386.23 0.07442 2.03264 0
M  V30 14570 C 1386.58 -1.27069 1.44469 0
M  V30 14571 O 1385.87 -1.8197 0.599785 0
M  V30 14572 C 1386.07 -0.0514774 3.57363 0
M  V30 14573 C 1385.9 1.27988 4.31102 0
M  V30 14574 C 1384.67 1.85358 4.70075 0
M  V30 14575 C 1386.86 2.20268 4.64743 0
M  V30 14576 N 1384.85 3.1225 5.28558 0
M  V30 14577 C 1386.22 3.31746 5.23779 0
M  V30 14578 C 1388.27 2.19969 4.46675 0
M  V30 14579 C 1386.98 4.43056 5.66652 0
M  V30 14580 C 1389 3.30307 4.90562 0
M  V30 14581 C 1388.36 4.40505 5.49667 0
M  V30 14582 H 1384.46 0.0699705 0.778863 0
M  V30 14583 H 1387.05 0.773585 1.78672 0
M  V30 14584 H 1385.22 -0.719807 3.81672 0
M  V30 14585 H 1386.95 -0.562342 4.00774 0
M  V30 14586 H 1383.7 1.3887 4.52782 0
M  V30 14587 H 1384.13 3.76992 5.62322 0
M  V30 14588 H 1388.77 1.36044 4.00315 0
M  V30 14589 H 1386.49 5.27724 6.11991 0
M  V30 14590 H 1390.07 3.31191 4.78334 0
M  V30 14591 H 1388.95 5.24475 5.83006 0
M  V30 14592 N 1386.46 -1.54343 0.318742 0
M  V30 14593 C 1387.37 -2.27856 -0.558442 0
M  V30 14594 C 1388.38 -1.32029 -1.13333 0
M  V30 14595 O 1389.56 -1.65037 -1.15433 0
M  V30 14596 C 1386.62 -3.01842 -1.70565 0
M  V30 14597 C 1385.69 -4.13245 -1.16305 0
M  V30 14598 C 1384.92 -4.83693 -2.25559 0
M  V30 14599 O 1385.14 -4.53621 -3.4581 0
M  V30 14600 O 1384.08 -5.70708 -1.91249 0
M  V30 14601 H 1387.9 -3.03676 0.0384247 0
M  V30 14602 H 1385.49 -1.4916 0.0845936 0
M  V30 14603 H 1387.37 -3.48189 -2.37365 0
M  V30 14604 H 1386.04 -2.28902 -2.28879 0
M  V30 14605 H 1384.95 -3.71258 -0.460274 0
M  V30 14606 H 1386.28 -4.88214 -0.625111 0
M  V30 14607 N 1387.94 -0.0468143 -1.5753 0
M  V30 14608 C 1389.21 0.667567 -1.83856 0
M  V30 14609 C 1389.59 1.89297 -0.934346 0
M  V30 14610 O 1388.94 2.28499 0.00570067 0
M  V30 14611 C 1389.15 1.029 -3.33485 0
M  V30 14612 C 1390.5 1.41315 -4.00394 0
M  V30 14613 O 1391.52 1.12147 -3.38085 0
M  V30 14614 O 1390.38 1.95732 -5.10246 0
M  V30 14615 H 1387.48 0.329112 -0.758692 0
M  V30 14616 H 1390.02 -0.0758456 -1.6953 0
M  V30 14617 H 1388.79 0.157617 -3.90982 0
M  V30 14618 H 1388.42 1.83 -3.52982 0
M  V30 14619 N 1389.41 1.55964 0.226527 0
M  V30 14620 C 1390.34 1.95028 1.284 0
M  V30 14621 C 1391.33 0.817833 1.49149 0
M  V30 14622 O 1392.51 1.07975 1.61416 0
M  V30 14623 C 1389.64 2.26266 2.63478 0
M  V30 14624 C 1388.59 3.41954 2.57393 0
M  V30 14625 C 1387.92 3.58786 3.96456 0
M  V30 14626 C 1389.22 4.77069 2.12608 0
M  V30 14627 H 1390.91 2.83608 0.959513 0
M  V30 14628 H 1388.46 1.36451 0.460125 0
M  V30 14629 H 1390.41 2.52186 3.3761 0
M  V30 14630 H 1389.14 1.34533 2.97604 0
M  V30 14631 H 1387.8 3.16076 1.85719 0
M  V30 14632 H 1387.44 2.64437 4.27881 0
M  V30 14633 H 1387.14 4.36595 3.93267 0
M  V30 14634 H 1388.67 3.87048 4.72256 0
M  V30 14635 H 1390.08 5.02226 2.76481 0
M  V30 14636 H 1388.48 5.58126 2.2049 0
M  V30 14637 H 1389.55 4.7276 1.07823 0
M  V30 14638 N 1390.89 -0.493031 1.4969 0
M  V30 14639 C 1392.12 -1.27046 1.633 0
M  V30 14640 C 1392.54 -1.86278 0.307534 0
M  V30 14641 O 1391.89 -1.68208 -0.707968 0
M  V30 14642 C 1391.94 -2.39501 2.70779 0
M  V30 14643 O 1391.66 -1.82702 3.98185 0
M  V30 14644 C 1393.17 -3.30744 2.95166 0
M  V30 14645 H 1390.39 -0.385042 0.54953 0
M  V30 14646 H 1392.93 -0.590998 1.95774 0
M  V30 14647 H 1391.08 -3.03263 2.41061 0
M  V30 14648 H 1391.5 -2.56588 4.57452 0
M  V30 14649 H 1392.97 -4.05912 3.74085 0
M  V30 14650 H 1393.45 -3.88217 2.05387 0
M  V30 14651 H 1394.06 -2.72741 3.26332 0
M  V30 14652 N 1392.37 -1.38898 -0.744656 0
M  V30 14653 C 1393.6 -1.3903 -1.53901 0
M  V30 14654 C 1394.02 0.0156607 -1.88093 0
M  V30 14655 O 1393.38 1.00012 -1.51219 0
M  V30 14656 C 1393.43 -2.2609 -2.80919 0
M  V30 14657 O 1392.53 -1.68414 -3.76444 0
M  V30 14658 H 1391.87 -0.473854 -0.465144 0
M  V30 14659 H 1394.4 -1.82773 -0.919525 0
M  V30 14660 H 1394.41 -2.40264 -3.29754 0
M  V30 14661 H 1393.09 -3.28271 -2.55364 0
M  V30 14662 H 1391.66 -1.63431 -3.35179 0
M  V30 14663 N 1393.85 0.973806 -1.23914 0
M  V30 14664 C 1394.81 2.04892 -1.02723 0
M  V30 14665 C 1395.81 1.60795 0.0132972 0
M  V30 14666 O 1397 1.72714 -0.227084 0
M  V30 14667 C 1394.13 3.36341 -0.555667 0
M  V30 14668 H 1395.33 2.25124 -1.98139 0
M  V30 14669 H 1392.88 1.14817 -1.06051 0
M  V30 14670 H 1393.61 3.21799 0.40197 0
M  V30 14671 H 1393.4 3.69689 -1.30661 0
M  V30 14672 H 1394.89 4.15398 -0.428248 0
M  V30 14673 N 1395.33 1.05191 1.17357 0
M  V30 14674 C 1396.74 0.788105 1.69251 0
M  V30 14675 C 1397.09 -0.689717 1.83677 0
M  V30 14676 O 1396.21 -1.53601 1.52433 0
M  V30 14677 C 1396.81 1.42401 3.07421 0
M  V30 14678 C 1395.37 1.20825 3.5648 0
M  V30 14679 C 1394.51 1.50756 2.3274 0
M  V30 14680 H 1397.47 1.21686 1.01874 0
M  V30 14681 H 1397.49 0.833285 3.71264 0
M  V30 14682 H 1397 2.49958 2.96889 0
M  V30 14683 H 1395.1 0.15193 3.7229 0
M  V30 14684 H 1395.21 1.91319 4.39242 0
M  V30 14685 H 1393.58 0.927649 2.37206 0
M  V30 14686 H 1394.36 2.59446 2.24817 0
M  V30 14687 N 1396.8 -1.33791 0.83293 0
M  V30 14688 C 1398.03 -2.0272 0.438111 0
M  V30 14689 C 1398.45 -1.62279 -0.951163 0
M  V30 14690 O 1397.81 -0.812406 -1.62079 0
M  V30 14691 C 1397.86 -3.5623 0.559698 0
M  V30 14692 O 1396.96 -4.10292 -0.41646 0
M  V30 14693 H 1396.31 -0.639438 0.178928 0
M  V30 14694 H 1398.84 -1.70821 1.12612 0
M  V30 14695 H 1398.85 -4.0563 0.439148 0
M  V30 14696 H 1397.52 -3.8501 1.5729 0
M  V30 14697 H 1396.1 -3.72034 -0.25396 0
M  V30 14698 N 1398.28 -0.588812 -1.46187 0
M  V30 14699 C 1399.25 0.130803 -2.28826 0
M  V30 14700 C 1400.25 0.813037 -1.38731 0
M  V30 14701 O 1401.44 0.664061 -1.61046 0
M  V30 14702 C 1398.57 1.19484 -3.19275 0
M  V30 14703 H 1399.76 -0.595514 -2.93928 0
M  V30 14704 H 1397.31 -0.347038 -1.52399 0
M  V30 14705 H 1398.05 1.95254 -2.58933 0
M  V30 14706 H 1397.83 0.710077 -3.85617 0
M  V30 14707 H 1399.32 1.69938 -3.81459 0
M  V30 14708 N 1399.76 1.54172 -0.326923 0
M  V30 14709 C 1400.72 2.2311 0.524855 0
M  V30 14710 C 1401.72 1.22567 1.04087 0
M  V30 14711 O 1402.91 1.47123 0.932759 0
M  V30 14712 C 1400.05 2.93778 1.72937 0
M  V30 14713 H 1401.24 2.99799 -0.0778327 0
M  V30 14714 H 1398.79 1.56105 -0.0780484 0
M  V30 14715 H 1399.53 2.21234 2.3712 0
M  V30 14716 H 1399.31 3.67509 1.36674 0
M  V30 14717 H 1400.8 3.46292 2.33392 0
M  V30 14718 N 1401.24 0.0551678 1.57503 0
M  V30 14719 C 1402.48 -0.618636 1.93134 0
M  V30 14720 C 1402.82 -1.70258 0.934125 0
M  V30 14721 O 1402.09 -1.9446 -0.0392699 0
M  V30 14722 C 1402.38 -1.21103 3.39126 0
M  V30 14723 C 1402.23 -0.134865 4.49598 0
M  V30 14724 C 1403.55 -2.12148 3.85592 0
M  V30 14725 H 1400.67 -0.223416 0.702321 0
M  V30 14726 H 1403.31 0.117748 1.89635 0
M  V30 14727 H 1401.46 -1.83862 3.42238 0
M  V30 14728 H 1403.13 0.497292 4.58612 0
M  V30 14729 H 1401.37 0.536587 4.30469 0
M  V30 14730 H 1402.04 -0.589447 5.48844 0
M  V30 14731 H 1404.52 -1.59346 3.8438 0
M  V30 14732 H 1403.4 -2.50539 4.88387 0
M  V30 14733 H 1403.66 -3.02318 3.22578 0
M  V30 14734 N 1402.72 -1.56081 -0.218252 0
M  V30 14735 C 1403.94 -1.83334 -0.958964 0
M  V30 14736 C 1404.36 -0.63472 -1.77811 0
M  V30 14737 O 1403.72 0.396729 -1.78136 0
M  V30 14738 C 1403.77 -3.09141 -1.87387 0
M  V30 14739 O 1403.49 -4.24379 -1.08783 0
M  V30 14740 C 1404.99 -3.49405 -2.7282 0
M  V30 14741 H 1402.21 -0.609375 -0.280898 0
M  V30 14742 H 1404.75 -2.03174 -0.232486 0
M  V30 14743 H 1402.91 -2.91267 -2.55426 0
M  V30 14744 H 1403.32 -4.9587 -1.70919 0
M  V30 14745 H 1404.8 -4.40461 -3.32713 0
M  V30 14746 H 1405.27 -2.71311 -3.45379 0
M  V30 14747 H 1405.88 -3.6973 -2.1019 0
M  V30 14748 N 1404.2 0.485086 -1.49949 0
M  V30 14749 C 1405.16 1.56713 -1.67253 0
M  V30 14750 C 1406.16 1.51329 -0.543701 0
M  V30 14751 O 1407.35 1.54198 -0.810472 0
M  V30 14752 C 1404.48 2.9636 -1.68475 0
M  V30 14753 H 1405.67 1.42693 -2.63778 0
M  V30 14754 H 1403.23 0.710473 -1.39219 0
M  V30 14755 H 1403.96 3.1584 -0.735924 0
M  V30 14756 H 1403.75 3.01675 -2.50469 0
M  V30 14757 H 1405.24 3.74945 -1.83865 0
M  V30 14758 N 1405.67 1.39291 0.737279 0
M  V30 14759 C 1406.58 1.40098 1.88175 0
M  V30 14760 C 1407.6 0.296053 1.71463 0
M  V30 14761 O 1408.78 0.537153 1.94105 0
M  V30 14762 C 1405.84 1.24071 3.2374 0
M  V30 14763 C 1404.9 2.44515 3.52861 0
M  V30 14764 C 1404.13 2.29243 4.81958 0
M  V30 14765 O 1404.36 1.2947 5.55512 0
M  V30 14766 O 1403.29 3.18178 5.10927 0
M  V30 14767 H 1407.12 2.36565 1.90449 0
M  V30 14768 H 1404.7 1.20382 0.884786 0
M  V30 14769 H 1406.58 1.17257 4.04758 0
M  V30 14770 H 1405.26 0.30698 3.22241 0
M  V30 14771 H 1404.17 2.56905 2.71939 0
M  V30 14772 H 1405.5 3.36573 3.59137 0
M  V30 14773 N 1407.15 -0.967221 1.24429 0
M  V30 14774 C 1408.1 -2.06187 1.03709 0
M  V30 14775 C 1409.07 -1.66025 -0.0497665 0
M  V30 14776 O 1410.25 -1.90511 0.104951 0
M  V30 14777 C 1407.39 -3.38952 0.648477 0
M  V30 14778 C 1406.51 -3.92306 1.80886 0
M  V30 14779 C 1405.64 -5.13342 1.36579 0
M  V30 14780 C 1404.68 -5.58893 2.49609 0
M  V30 14781 N 1403.82 -6.71148 2.06165 0
M  V30 14782 H 1408.66 -2.23244 1.97399 0
M  V30 14783 H 1406.19 -1.09415 0.983192 0
M  V30 14784 H 1408.15 -4.15237 0.40419 0
M  V30 14785 H 1406.78 -3.21819 -0.25142 0
M  V30 14786 H 1405.83 -3.12656 2.1668 0
M  V30 14787 H 1407.15 -4.22071 2.65815 0
M  V30 14788 H 1406.3 -5.97003 1.0804 0
M  V30 14789 H 1405.04 -4.85262 0.487051 0
M  V30 14790 H 1404.04 -4.73805 2.78906 0
M  V30 14791 H 1405.27 -5.88987 3.3804 0
M  V30 14792 H 1403.22 -6.44802 1.20691 0
M  V30 14793 H 1403.13 -7.00366 2.84647 0
M  V30 14794 H 1404.4 -7.5825 1.80769 0
M  V30 14795 N 1408.63 -1.05812 -1.16797 0
M  V30 14796 C 1409.58 -0.658636 -2.2308 0
M  V30 14797 C 1410.57 0.323104 -1.6629 0
M  V30 14798 O 1411.78 0.188492 -1.7901 0
M  V30 14799 H 1408.15 -0.194843 -0.72632 0
M  V30 14800 H 1410.12 -1.56501 -2.54067 0
M  V30 14801 C 1408.87 -0.0559428 -3.47655 0
M  V30 14802 H 1408.2 -0.802468 -3.91664 0
M  V30 14803 H 1409.64 0.186118 -4.23591 0
M  V30 14804 C 1408.09 1.19913 -3.14837 0
M  V30 14805 O 1408.62 2.28772 -3.30191 0
M  V30 14806 N 1406.83 1.09921 -2.69009 0
M  V30 14807 H 1406.38 0.213331 -2.56715 0
M  V30 14808 H 1406.34 1.93981 -2.47424 0
M  V30 14809 N 1410.11 1.33347 -0.840014 0
M  V30 14810 C 1411.33 2.02485 -0.448856 0
M  V30 14811 C 1411.76 1.62781 0.942543 0
M  V30 14812 O 1411.12 0.82099 1.61646 0
M  V30 14813 C 1411.16 3.55928 -0.578582 0
M  V30 14814 O 1410.27 4.10507 0.394695 0
M  V30 14815 H 1409.61 0.63848 -0.182317 0
M  V30 14816 H 1412.14 1.70221 -1.13516 0
M  V30 14817 H 1412.15 4.05391 -0.460653 0
M  V30 14818 H 1410.82 3.8417 -1.5933 0
M  V30 14819 H 1409.4 3.72164 0.234227 0
M  V30 14820 N 1411.59 0.596556 1.45873 0
M  V30 14821 C 1412.83 0.0875879 2.02611 0
M  V30 14822 C 1413.16 -1.27438 1.46538 0
M  V30 14823 O 1412.44 -1.83815 0.635779 0
M  V30 14824 C 1412.72 0.0367394 3.60081 0
M  V30 14825 C 1412.58 1.42859 4.26511 0
M  V30 14826 C 1413.89 -0.656795 4.35171 0
M  V30 14827 H 1411.01 0.0333031 0.736247 0
M  V30 14828 H 1413.66 0.766413 1.73857 0
M  V30 14829 H 1411.81 -0.541345 3.8471 0
M  V30 14830 H 1413.48 2.0529 4.13102 0
M  V30 14831 H 1411.72 1.99243 3.85337 0
M  V30 14832 H 1412.39 1.34535 5.35354 0
M  V30 14833 H 1414.87 -0.165553 4.15771 0
M  V30 14834 H 1413.74 -0.661445 5.449 0
M  V30 14835 H 1414 -1.72079 4.07236 0
M  V30 14836 N 1413.06 -1.53996 0.335095 0
M  V30 14837 C 1413.99 -2.2768 -0.518087 0
M  V30 14838 C 1414.97 -1.28915 -1.10972 0
M  V30 14839 O 1416.16 -1.57745 -1.1327 0
M  V30 14840 C 1413.29 -3.04327 -1.67339 0
M  V30 14841 C 1412.24 -4.10525 -1.2105 0
M  V30 14842 C 1411.57 -4.75078 -2.45366 0
M  V30 14843 C 1412.87 -5.21337 -0.317055 0
M  V30 14844 H 1414.56 -2.99244 0.0965669 0
M  V30 14845 H 1412.11 -1.4392 0.0478842 0
M  V30 14846 H 1414.06 -3.54608 -2.27664 0
M  V30 14847 H 1412.79 -2.30399 -2.31481 0
M  V30 14848 H 1411.45 -3.61144 -0.630124 0
M  V30 14849 H 1411.09 -3.97754 -3.07897 0
M  V30 14850 H 1410.79 -5.46822 -2.1508 0
M  V30 14851 H 1412.32 -5.2814 -3.06432 0
M  V30 14852 H 1413.73 -5.67305 -0.826905 0
M  V30 14853 H 1412.13 -6.00006 -0.106458 0
M  V30 14854 H 1413.2 -4.80536 0.649068 0
M  V30 14855 N 1414.54 -0.0635198 -1.57472 0
M  V30 14856 C 1415.95 0.470372 -1.80678 0
M  V30 14857 C 1416.3 1.70158 -0.976771 0
M  V30 14858 O 1415.43 2.15502 -0.196893 0
M  V30 14859 C 1416.02 0.860129 -3.277 0
M  V30 14860 C 1414.58 1.33893 -3.51781 0
M  V30 14861 C 1413.73 0.320078 -2.75447 0
M  V30 14862 H 1416.68 -0.289295 -1.56041 0
M  V30 14863 H 1416.7 1.72216 -3.39296 0
M  V30 14864 H 1416.21 -0.0361525 -3.88083 0
M  V30 14865 H 1414.31 2.25399 -2.96692 0
M  V30 14866 H 1414.43 1.32257 -4.60483 0
M  V30 14867 H 1412.79 0.795601 -2.41955 0
M  V30 14868 H 1413.57 -0.568332 -3.38563 0
M  V30 14869 N 1416.02 1.56195 0.209972 0
M  V30 14870 C 1417.27 1.7939 0.930796 0
M  V30 14871 C 1417.59 0.634038 1.84404 0
M  V30 14872 O 1416.86 -0.348467 1.92776 0
M  V30 14873 H 1415.44 0.661676 0.346689 0
M  V30 14874 H 1418.1 1.93665 0.219049 0
M  V30 14875 H 1417.2 2.71982 1.53075 0
M  V30 14876 N 1417.5 -0.477127 1.50204 0
M  V30 14877 C 1418.41 -1.60182 1.71403 0
M  V30 14878 C 1419.42 -1.63437 0.597009 0
M  V30 14879 O 1420.6 -1.81418 0.874614 0
M  V30 14880 C 1417.66 -2.96432 1.79802 0
M  V30 14881 C 1416.73 -3.03614 3.03508 0
M  V30 14882 C 1415.96 -4.33365 3.11497 0
M  V30 14883 O 1416.18 -5.23529 2.26438 0
M  V30 14884 O 1415.12 -4.46013 4.04173 0
M  V30 14885 H 1418.94 -1.45221 2.66729 0
M  V30 14886 H 1416.53 -0.655982 1.34228 0
M  V30 14887 H 1418.41 -3.77367 1.87542 0
M  V30 14888 H 1417.08 -3.11605 0.876581 0
M  V30 14889 H 1415.99 -2.21779 3.01272 0
M  V30 14890 H 1417.32 -2.93376 3.95211 0
M  V30 14891 N 1418.98 -1.3968 -0.729882 0
M  V30 14892 C 1420.39 -1.21396 -1.0361 0
M  V30 14893 C 1420.59 -0.0791302 -2.01345 0
M  V30 14894 O 1419.65 0.567575 -2.46038 0
M  V30 14895 C 1420.96 -2.55006 -1.59349 0
M  V30 14896 C 1422.51 -2.61896 -1.71405 0
M  V30 14897 C 1422.98 -3.9574 -2.30552 0
M  V30 14898 N 1424.48 -3.97406 -2.37955 0
M  V30 14899 C 1425.21 -4.97745 -2.8467 0
M  V30 14900 N 1424.71 -6.08482 -3.31243 0
M  V30 14901 N 1426.5 -4.85121 -2.83925 0
M  V30 14902 H 1418.65 -2.12242 -0.081787 0
M  V30 14903 H 1420.91 -0.942827 -0.0989005 0
M  V30 14904 H 1420.62 -3.38626 -0.950005 0
M  V30 14905 H 1420.49 -2.75087 -2.58083 0
M  V30 14906 H 1422.88 -1.78656 -2.34874 0
M  V30 14907 H 1422.96 -2.45659 -0.7131 0
M  V30 14908 H 1422.61 -4.79412 -1.67709 0
M  V30 14909 H 1422.54 -4.09299 -3.31334 0
M  V30 14910 H 1425.03 -3.17435 -2.05044 0
M  V30 14911 H 1425.34 -6.8095 -3.65414 0
M  V30 14912 H 1423.68 -6.12068 -3.29239 0
M  V30 14913 H 1426.88 -3.97711 -2.46867 0
M  V30 14914 H 1427.05 -5.63465 -3.20017 0
M  V30 14915 N 1420.45 0.960609 -1.2494 0
M  V30 14916 C 1421.38 2.074 -1.07274 0
M  V30 14917 C 1422.37 1.70092 0.0164365 0
M  V30 14918 O 1423.55 1.93604 -0.151975 0
M  V30 14919 C 1420.68 3.40491 -0.684317 0
M  V30 14920 C 1419.63 3.91784 -1.72306 0
M  V30 14921 C 1418.96 5.21301 -1.18949 0
M  V30 14922 C 1420.26 4.18829 -3.12056 0
M  V30 14923 H 1421.95 2.22438 -2.00404 0
M  V30 14924 H 1419.5 1.06888 -0.964937 0
M  V30 14925 H 1421.45 4.17826 -0.547686 0
M  V30 14926 H 1420.18 3.25374 0.282687 0
M  V30 14927 H 1418.84 3.16613 -1.84802 0
M  V30 14928 H 1418.48 5.02549 -0.212892 0
M  V30 14929 H 1418.18 5.56588 -1.8837 0
M  V30 14930 H 1419.71 6.01238 -1.06513 0
M  V30 14931 H 1421.12 4.86844 -3.02748 0
M  V30 14932 H 1419.52 4.6536 -3.78894 0
M  V30 14933 H 1420.59 3.25333 -3.59564 0
M  V30 14934 N 1421.93 1.0643 1.16234 0
M  V30 14935 C 1423.18 0.782998 1.87075 0
M  V30 14936 C 1423.51 -0.688852 1.81572 0
M  V30 14937 O 1422.79 -1.50478 1.23234 0
M  V30 14938 C 1423.07 1.27997 3.36584 0
M  V30 14939 C 1422.92 2.81568 3.5077 0
M  V30 14940 C 1424.24 0.888975 4.31028 0
M  V30 14941 H 1421.36 0.28591 0.679282 0
M  V30 14942 H 1424 1.32046 1.36615 0
M  V30 14943 H 1422.15 0.822756 3.79688 0
M  V30 14944 H 1423.82 3.35508 3.16595 0
M  V30 14945 H 1422.07 3.2023 2.92635 0
M  V30 14946 H 1422.74 3.11406 4.55774 0
M  V30 14947 H 1425.21 1.28279 3.95833 0
M  V30 14948 H 1424.09 1.26416 5.34144 0
M  V30 14949 H 1424.35 -0.205973 4.4162 0
M  V30 14950 N 1423.41 -1.329 0.847073 0
M  V30 14951 C 1424.83 -1.50333 0.53593 0
M  V30 14952 C 1425.03 -1.78492 -0.93504 0
M  V30 14953 O 1424.08 -1.85001 -1.71846 0
M  V30 14954 C 1425.4 -2.65254 1.41636 0
M  V30 14955 C 1426.94 -2.79139 1.416 0
M  V30 14956 C 1427.42 -3.97131 2.28147 0
M  V30 14957 N 1428.91 -4.0438 2.25901 0
M  V30 14958 C 1429.64 -4.94893 2.89601 0
M  V30 14959 N 1429.14 -5.90466 3.62383 0
M  V30 14960 N 1430.93 -4.87955 2.79028 0
M  V30 14961 H 1423.08 -1.12886 1.79918 0
M  V30 14962 H 1425.35 -0.555707 0.768045 0
M  V30 14963 H 1425.05 -2.51151 2.46203 0
M  V30 14964 H 1424.93 -3.60856 1.09829 0
M  V30 14965 H 1427.31 -2.92669 0.378013 0
M  V30 14966 H 1427.4 -1.84273 1.77418 0
M  V30 14967 H 1427.04 -3.8436 3.32009 0
M  V30 14968 H 1426.97 -4.91258 1.89665 0
M  V30 14969 H 1429.46 -3.35986 1.72979 0
M  V30 14970 H 1429.77 -6.56212 4.08174 0
M  V30 14971 H 1428.12 -5.90516 3.66491 0
M  V30 14972 H 1431.31 -4.12258 2.21723 0
M  V30 14973 H 1431.48 -5.58295 3.28954 0
M  V30 14974 N 1424.89 -0.604284 -1.45555 0
M  V30 14975 C 1425.84 0.129013 -2.32242 0
M  V30 14976 C 1426.83 0.862933 -1.45773 0
M  V30 14977 O 1428.04 0.778874 -1.62276 0
M  V30 14978 H 1424.41 0.0604661 -0.749565 0
M  V30 14979 H 1426.38 -0.620603 -2.91875 0
M  V30 14980 C 1425.13 1.11516 -3.29332 0
M  V30 14981 H 1424.45 0.559849 -3.95861 0
M  V30 14982 H 1425.89 1.59824 -3.92724 0
M  V30 14983 C 1424.35 2.18706 -2.5626 0
M  V30 14984 O 1424.88 3.26397 -2.34154 0
M  V30 14985 N 1423.09 1.93899 -2.16452 0
M  V30 14986 H 1422.64 1.0633 -2.34631 0
M  V30 14987 H 1422.59 2.65824 -1.67884 0
M  V30 14988 N 1426.37 1.53816 -0.343257 0
M  V30 14989 C 1427.61 2.00512 0.252845 0
M  V30 14990 C 1427.94 1.23274 1.51091 0
M  V30 14991 O 1427.21 0.339841 1.9293 0
M  V30 14992 H 1425.79 0.740751 0.0964202 0
M  V30 14993 H 1428.45 1.89288 -0.464347 0
M  V30 14994 H 1427.54 3.08142 0.495499 0
M  V30 14995 N 1427.84 0.0718701 1.57436 0
M  V30 14996 C 1429.09 -0.598116 1.93779 0
M  V30 14997 C 1429.42 -1.69258 0.952131 0
M  V30 14998 O 1428.7 -1.94491 -0.0186426 0
M  V30 14999 C 1428.98 -1.17499 3.40391 0
M  V30 15000 C 1428.83 -0.0871719 4.49716 0
M  V30 15001 C 1430.15 -2.08047 3.8782 0
M  V30 15002 H 1427.27 -0.215954 0.704651 0
M  V30 15003 H 1429.91 0.137854 1.89499 0
M  V30 15004 H 1428.06 -1.80221 3.44169 0
M  V30 15005 H 1429.74 0.545906 4.58058 0
M  V30 15006 H 1427.98 0.582213 4.29875 0
M  V30 15007 H 1428.65 -0.531202 5.49438 0
M  V30 15008 H 1431.13 -1.5526 3.86049 0
M  V30 15009 H 1430 -2.45345 4.91016 0
M  V30 15010 H 1430.26 -2.98879 3.25766 0
M  V30 15011 N 1429.32 -1.56304 -0.201686 0
M  V30 15012 C 1430.55 -1.84692 -0.943583 0
M  V30 15013 C 1430.97 -0.654649 -1.7634 0
M  V30 15014 O 1430.33 0.396586 -1.76909 0
M  V30 15015 C 1430.38 -3.11251 -1.82085 0
M  V30 15016 O 1429.48 -2.9134 -2.91881 0
M  V30 15017 H 1428.82 -0.608351 -0.266092 0
M  V30 15018 H 1431.35 -2.0353 -0.208992 0
M  V30 15019 H 1431.36 -3.41874 -2.2268 0
M  V30 15020 H 1430.04 -3.97652 -1.21844 0
M  V30 15021 H 1428.62 -2.72 -2.55089 0
M  V30 15022 N 1430.8 0.469154 -1.50455 0
M  V30 15023 C 1432.05 1.22002 -1.62748 0
M  V30 15024 C 1432.4 1.89642 -0.324611 0
M  V30 15025 O 1431.69 1.79218 0.677597 0
M  V30 15026 C 1431.89 2.28673 -2.7467 0
M  V30 15027 C 1431.72 1.71498 -4.15714 0
M  V30 15028 C 1430.49 1.51386 -4.8209 0
M  V30 15029 C 1432.69 1.20886 -4.99891 0
M  V30 15030 N 1430.67 0.894745 -6.07345 0
M  V30 15031 C 1432.04 0.713084 -6.15886 0
M  V30 15032 C 1434.09 1.09759 -4.85652 0
M  V30 15033 C 1432.8 0.117016 -7.19205 0
M  V30 15034 C 1434.82 0.515452 -5.89149 0
M  V30 15035 C 1434.18 0.0300686 -7.04394 0
M  V30 15036 H 1430.28 0.435249 -0.649679 0
M  V30 15037 H 1432.87 0.521706 -1.8758 0
M  V30 15038 H 1431.04 2.95929 -2.51557 0
M  V30 15039 H 1432.77 2.95693 -2.76311 0
M  V30 15040 H 1429.53 1.76665 -4.39416 0
M  V30 15041 H 1429.95 0.603547 -6.74304 0
M  V30 15042 H 1434.59 1.45878 -3.96837 0
M  V30 15043 H 1432.31 -0.256378 -8.07693 0
M  V30 15044 H 1435.9 0.431698 -5.80196 0
M  V30 15045 H 1434.78 -0.413327 -7.8311 0
M  V30 15046 N 1432.28 1.40065 0.722464 0
M  V30 15047 C 1433.5 1.4146 1.5167 0
M  V30 15048 C 1433.93 0.0142653 1.88095 0
M  V30 15049 O 1433.29 -0.975934 1.52791 0
M  V30 15050 C 1433.33 2.30531 2.77287 0
M  V30 15051 O 1432.44 1.74382 3.73717 0
M  V30 15052 H 1431.78 0.481194 0.457546 0
M  V30 15053 H 1434.31 1.84213 0.890331 0
M  V30 15054 H 1434.32 2.45479 3.25889 0
M  V30 15055 H 1432.99 3.32292 2.50109 0
M  V30 15056 H 1431.57 1.68743 3.32536 0
M  V30 15057 N 1433.76 -0.95397 1.25448 0
M  V30 15058 C 1434.71 -2.03623 1.02575 0
M  V30 15059 C 1435.69 -1.60856 -0.0375824 0
M  V30 15060 O 1436.88 -1.76104 0.177833 0
M  V30 15061 C 1434.01 -3.37145 0.64714 0
M  V30 15062 C 1433.1 -3.86434 1.74726 0
M  V30 15063 N 1433.49 -4.08509 2.98251 0
M  V30 15064 C 1431.79 -4.15228 1.62793 0
M  V30 15065 C 1432.49 -4.49137 3.69663 0
M  V30 15066 N 1431.46 -4.55106 2.97287 0
M  V30 15067 H 1435.27 -2.18685 1.96352 0
M  V30 15068 H 1432.78 -1.13884 1.15777 0
M  V30 15069 H 1434.78 -4.14305 0.464462 0
M  V30 15070 H 1433.44 -3.23462 -0.283296 0
M  V30 15071 H 1434.45 -3.95564 3.3429 0
M  V30 15072 H 1431.13 -4.10403 0.766501 0
M  V30 15073 H 1432.52 -4.74515 4.75695 0
M  V30 15074 N 1435.24 -1.07045 -1.15668 0
M  V30 15075 C 1436.46 -0.812802 -1.9081 0
M  V30 15076 C 1436.89 0.627827 -1.77313 0
M  V30 15077 O 1436.24 1.43836 -1.10368 0
M  V30 15078 C 1436.29 -1.2219 -3.39267 0
M  V30 15079 O 1435.4 -0.365305 -4.10779 0
M  V30 15080 H 1434.74 -0.296385 -0.594182 0
M  V30 15081 H 1437.27 -1.42825 -1.465 0
M  V30 15082 H 1437.28 -1.19674 -3.90054 0
M  V30 15083 H 1435.95 -2.27121 -3.48409 0
M  V30 15084 H 1434.53 -0.452687 -3.70142 0
M  V30 15085 N 1436.71 1.32449 -0.85411 0
M  V30 15086 C 1437.94 2.01997 -0.470307 0
M  V30 15087 C 1438.36 1.63772 0.925225 0
M  V30 15088 O 1437.72 0.838089 1.60766 0
M  V30 15089 C 1437.77 3.55294 -0.616301 0
M  V30 15090 O 1436.87 4.10902 0.351133 0
M  V30 15091 H 1436.21 0.63651 -0.189079 0
M  V30 15092 H 1438.74 1.69008 -1.15315 0
M  V30 15093 H 1438.75 4.0488 -0.503624 0
M  V30 15094 H 1437.43 3.82459 -1.63396 0
M  V30 15095 H 1436.01 3.72391 0.194741 0
M  V30 15096 N 1438.19 0.611994 1.45232 0
M  V30 15097 C 1439.12 -0.153214 2.27685 0
M  V30 15098 C 1440.1 -0.869474 1.37401 0
M  V30 15099 O 1441.29 -0.877453 1.66832 0
M  V30 15100 C 1438.41 -1.22224 3.15878 0
M  V30 15101 C 1437.46 -0.608624 4.22135 0
M  V30 15102 S 1438.29 0.586848 5.32275 0
M  V30 15103 C 1439.45 -0.482657 6.24036 0
M  V30 15104 H 1439.68 0.546316 2.92237 0
M  V30 15105 H 1437.21 0.399631 1.49139 0
M  V30 15106 H 1439.17 -1.83413 3.67246 0
M  V30 15107 H 1437.83 -1.89386 2.50583 0
M  V30 15108 H 1437.03 -1.41312 4.83784 0
M  V30 15109 H 1436.63 -0.0717689 3.73931 0
M  V30 15110 H 1438.92 -1.36053 6.63699 0
M  V30 15111 H 1439.86 0.0977803 7.08032 0
M  V30 15112 H 1440.27 -0.799965 5.58803 0
M  V30 15113 N 1439.67 -1.53632 0.351409 0
M  V30 15114 C 1440.6 -2.28217 -0.49391 0
M  V30 15115 C 1441.58 -1.30085 -1.09599 0
M  V30 15116 O 1442.77 -1.58938 -1.1159 0
M  V30 15117 C 1439.9 -3.06085 -1.64102 0
M  V30 15118 C 1438.85 -4.11786 -1.16689 0
M  V30 15119 C 1438.18 -4.77654 -2.40314 0
M  V30 15120 C 1439.48 -5.21644 -0.261742 0
M  V30 15121 H 1441.17 -2.99125 0.1283 0
M  V30 15122 H 1438.72 -1.43861 0.0631462 0
M  V30 15123 H 1440.67 -3.57003 -2.2389 0
M  V30 15124 H 1439.39 -2.32842 -2.29025 0
M  V30 15125 H 1438.05 -3.61792 -0.591784 0
M  V30 15126 H 1437.7 -4.00997 -3.03661 0
M  V30 15127 H 1437.4 -5.49072 -2.09268 0
M  V30 15128 H 1438.92 -5.3136 -3.00813 0
M  V30 15129 H 1440.34 -5.6815 -0.766689 0
M  V30 15130 H 1438.73 -6.00085 -0.0428132 0
M  V30 15131 H 1439.8 -4.79821 0.699999 0
M  V30 15132 N 1441.15 -0.0802183 -1.57396 0
M  V30 15133 C 1442.56 0.451183 -1.81166 0
M  V30 15134 C 1442.91 1.69112 -0.994764 0
M  V30 15135 O 1442.03 2.15281 -0.219739 0
M  V30 15136 C 1442.63 0.825324 -3.28594 0
M  V30 15137 C 1441.19 1.30154 -3.53181 0
M  V30 15138 C 1440.34 0.290846 -2.75771 0
M  V30 15139 H 1443.29 -0.305829 -1.55725 0
M  V30 15140 H 1443.31 1.68608 -3.41104 0
M  V30 15141 H 1442.82 -0.0773119 -3.88023 0
M  V30 15142 H 1440.92 2.22239 -2.99066 0
M  V30 15143 H 1441.03 1.27365 -4.6186 0
M  V30 15144 H 1439.4 0.769894 -2.42785 0
M  V30 15145 H 1440.18 -0.604209 -3.37941 0
M  V30 15146 N 1442.63 1.56409 0.193394 0
M  V30 15147 C 1443.56 1.97707 1.24234 0
M  V30 15148 C 1444.54 0.849286 1.47381 0
M  V30 15149 O 1445.72 1.11374 1.59089 0
M  V30 15150 C 1442.85 2.31804 2.5862 0
M  V30 15151 C 1441.81 3.47337 2.50082 0
M  V30 15152 C 1441.13 3.67114 3.88756 0
M  V30 15153 C 1442.43 4.81472 2.02441 0
M  V30 15154 H 1444.13 2.8558 0.89914 0
M  V30 15155 H 1441.67 1.37396 0.431078 0
M  V30 15156 H 1443.62 2.5929 3.32185 0
M  V30 15157 H 1442.35 1.40816 2.94684 0
M  V30 15158 H 1441.01 3.19944 1.78973 0
M  V30 15159 H 1440.66 2.73454 4.22175 0
M  V30 15160 H 1440.36 4.44838 3.83918 0
M  V30 15161 H 1441.88 3.96978 4.6394 0
M  V30 15162 H 1443.29 5.07978 2.65766 0
M  V30 15163 H 1441.69 5.62677 2.08601 0
M  V30 15164 H 1442.76 4.74941 0.977704 0
M  V30 15165 N 1444.1 -0.461169 1.50702 0
M  V30 15166 C 1445.35 -1.21012 1.61866 0
M  V30 15167 C 1445.67 -1.9226 0.325736 0
M  V30 15168 O 1444.94 -1.84543 -0.657306 0
M  V30 15169 H 1443.52 -0.449671 0.596494 0
M  V30 15170 H 1446.18 -0.531056 1.87525 0
M  V30 15171 H 1445.28 -1.95266 2.4347 0
M  V30 15172 N 1445.58 -1.40446 -0.715026 0
M  V30 15173 C 1446.81 -1.42263 -1.50917 0
M  V30 15174 C 1447.23 -0.0242402 -1.88084 0
M  V30 15175 O 1446.59 0.967817 -1.53307 0
M  V30 15176 C 1446.64 -2.31998 -2.7606 0
M  V30 15177 O 1445.74 -1.76361 -3.72787 0
M  V30 15178 H 1445.08 -0.483614 -0.454988 0
M  V30 15179 H 1447.61 -1.84682 -0.880549 0
M  V30 15180 H 1447.62 -2.47204 -3.24583 0
M  V30 15181 H 1446.3 -3.33614 -2.48343 0
M  V30 15182 H 1444.87 -1.70504 -3.31636 0
M  V30 15183 N 1447.06 0.947303 -1.25952 0
M  V30 15184 C 1448.28 1.73261 -1.13997 0
M  V30 15185 C 1448.71 1.85666 0.301639 0
M  V30 15186 O 1448.07 1.34244 1.21854 0
M  V30 15187 C 1448.12 3.12046 -1.8072 0
M  V30 15188 O 1447.22 3.97684 -1.09182 0
M  V30 15189 H 1446.56 0.53182 -0.397572 0
M  V30 15190 H 1449.09 1.18689 -1.66656 0
M  V30 15191 H 1449.1 3.62468 -1.87299 0
M  V30 15192 H 1447.78 3.02334 -2.856 0
M  V30 15193 H 1446.35 3.56141 -1.10536 0
M  V30 15194 N 1448.54 1.07657 1.15099 0
M  V30 15195 C 1449.47 0.721201 2.22083 0
M  V30 15196 C 1450.45 -0.292808 1.67561 0
M  V30 15197 O 1451.63 -0.164872 1.93499 0
M  V30 15198 C 1448.76 0.12153 3.47087 0
M  V30 15199 C 1447.72 1.06303 4.14588 0
M  V30 15200 C 1447.04 0.325964 5.33706 0
M  V30 15201 C 1448.34 2.39796 4.63999 0
M  V30 15202 H 1450.04 1.61566 2.52065 0
M  V30 15203 H 1447.58 0.778282 1.21156 0
M  V30 15204 H 1449.54 -0.139037 4.21171 0
M  V30 15205 H 1448.26 -0.808022 3.16447 0
M  V30 15206 H 1446.92 1.30858 3.4245 0
M  V30 15207 H 1446.57 -0.607147 4.99322 0
M  V30 15208 H 1446.27 0.953552 5.79811 0
M  V30 15209 H 1447.79 0.0732695 6.10556 0
M  V30 15210 H 1449.21 2.19552 5.29594 0
M  V30 15211 H 1447.6 2.98178 5.20778 0
M  V30 15212 H 1448.67 3.01876 3.79472 0
M  V30 15213 N 1450.02 -1.31994 0.861122 0
M  V30 15214 C 1451.43 -1.79271 0.521437 0
M  V30 15215 C 1451.78 -1.71046 -0.96113 0
M  V30 15216 O 1450.9 -1.2729 -1.75003 0
M  V30 15217 C 1451.5 -3.25507 0.939731 0
M  V30 15218 C 1450.06 -3.70713 0.651845 0
M  V30 15219 C 1449.2 -2.52967 1.13592 0
M  V30 15220 H 1452.16 -1.19201 1.0477 0
M  V30 15221 H 1452.18 -3.79619 0.258754 0
M  V30 15222 H 1451.69 -3.3146 2.0188 0
M  V30 15223 H 1449.79 -3.70268 -0.416232 0
M  V30 15224 H 1449.9 -4.63236 1.22267 0
M  V30 15225 H 1448.27 -2.48558 0.555971 0
M  V30 15226 H 1449.05 -2.61671 2.22223 0
M  V30 15227 N 1451.49 -0.619688 -1.44906 0
M  V30 15228 C 1452.77 -0.0510703 -1.95533 0
M  V30 15229 C 1453.15 1.42013 -1.56191 0
M  V30 15230 O 1452.5 2.12879 -0.830356 0
M  V30 15231 C 1452.71 -0.261896 -3.48016 0
M  V30 15232 C 1454.06 -0.149057 -4.24338 0
M  V30 15233 O 1455.08 -0.192655 -3.55679 0
M  V30 15234 O 1453.94 -0.0443345 -5.46482 0
M  V30 15235 H 1451.03 0.0288461 -0.826497 0
M  V30 15236 H 1453.58 -0.690594 -1.55013 0
M  V30 15237 H 1452.35 -1.28319 -3.69662 0
M  V30 15238 H 1451.98 0.412314 -3.95456 0
M  V30 15239 N 1452.97 1.53444 -0.359552 0
M  V30 15240 C 1453.88 2.29257 0.497834 0
M  V30 15241 C 1454.9 1.34987 1.09793 0
M  V30 15242 O 1456.07 1.68039 1.11017 0
M  V30 15243 C 1453.14 3.06258 1.62502 0
M  V30 15244 C 1452.2 4.16183 1.05308 0
M  V30 15245 C 1451.43 4.89503 2.12655 0
M  V30 15246 O 1451.66 4.6263 3.33661 0
M  V30 15247 O 1450.59 5.75578 1.76051 0
M  V30 15248 H 1454.42 3.03467 -0.118925 0
M  V30 15249 H 1452 1.48884 -0.124111 0
M  V30 15250 H 1453.88 3.5436 2.2805 0
M  V30 15251 H 1452.56 2.3489 2.22729 0
M  V30 15252 H 1451.47 3.72348 0.361679 0
M  V30 15253 H 1452.8 4.897 0.49545 0
M  V30 15254 N 1454.45 0.0885642 1.57351 0
M  V30 15255 C 1455.38 -0.869946 2.16689 0
M  V30 15256 C 1456.36 -1.29878 1.09844 0
M  V30 15257 O 1457.55 -1.36684 1.37954 0
M  V30 15258 C 1454.68 -2.13148 2.74199 0
M  V30 15259 C 1453.63 -1.84149 3.86359 0
M  V30 15260 C 1452.96 -3.17075 4.30543 0
M  V30 15261 C 1454.26 -1.13357 5.09851 0
M  V30 15262 H 1455.95 -0.375578 2.97035 0
M  V30 15263 H 1453.5 -0.17921 1.42881 0
M  V30 15264 H 1455.45 -2.80634 3.14361 0
M  V30 15265 H 1454.17 -2.64856 1.91098 0
M  V30 15266 H 1452.83 -1.19063 3.46727 0
M  V30 15267 H 1452.48 -3.66658 3.44342 0
M  V30 15268 H 1452.18 -2.98457 5.06159 0
M  V30 15269 H 1453.7 -3.85731 4.73333 0
M  V30 15270 H 1455.12 -1.70941 5.47222 0
M  V30 15271 H 1453.52 -1.0494 5.90853 0
M  V30 15272 H 1454.59 -0.115273 4.84763 0
M  V30 15273 N 1455.93 -1.56509 -0.185096 0
M  V30 15274 C 1456.86 -1.98363 -1.23184 0
M  V30 15275 C 1457.84 -0.85709 -1.46929 0
M  V30 15276 O 1459.02 -1.12216 -1.58497 0
M  V30 15277 C 1456.15 -2.33172 -2.57387 0
M  V30 15278 C 1455.11 -3.48658 -2.48236 0
M  V30 15279 C 1454.43 -3.69171 -3.86804 0
M  V30 15280 C 1455.73 -4.82538 -1.99885 0
M  V30 15281 H 1457.43 -2.86053 -0.883982 0
M  V30 15282 H 1454.97 -1.37623 -0.423786 0
M  V30 15283 H 1456.93 -2.61048 -3.30805 0
M  V30 15284 H 1455.65 -1.42377 -2.93933 0
M  V30 15285 H 1454.31 -3.20889 -1.77273 0
M  V30 15286 H 1453.96 -2.75689 -4.20719 0
M  V30 15287 H 1453.66 -4.46868 -3.81553 0
M  V30 15288 H 1455.18 -3.99433 -4.61829 0
M  V30 15289 H 1456.6 -5.0938 -2.63068 0
M  V30 15290 H 1454.99 -5.63775 -2.05614 0
M  V30 15291 H 1456.06 -4.75453 -0.952503 0
M  V30 15292 N 1457.41 0.45317 -1.50944 0
M  V30 15293 C 1458.65 1.20389 -1.62827 0
M  V30 15294 C 1458.98 1.91559 -0.336982 0
M  V30 15295 O 1458.24 1.83574 0.678153 0
M  V30 15296 C 1458.54 2.25747 -2.7708 0
M  V30 15297 C 1458.2 1.71703 -4.16928 0
M  V30 15298 C 1456.86 1.56686 -4.54976 0
M  V30 15299 C 1459.22 1.31804 -5.04259 0
M  V30 15300 C 1456.54 1.0022 -5.78077 0
M  V30 15301 C 1458.9 0.767738 -6.27924 0
M  V30 15302 C 1457.56 0.604341 -6.64759 0
M  V30 15303 H 1456.83 0.440536 -0.595827 0
M  V30 15304 H 1459.48 0.497234 -1.84932 0
M  V30 15305 H 1457.78 3.0239 -2.49134 0
M  V30 15306 H 1459.48 2.83625 -2.83475 0
M  V30 15307 H 1456.07 1.84364 -3.86921 0
M  V30 15308 H 1460.25 1.42233 -4.75482 0
M  V30 15309 H 1455.51 0.863228 -6.05275 0
M  V30 15310 H 1459.68 0.449994 -6.94945 0
M  V30 15311 H 1457.31 0.164663 -7.60022 0
M  V30 15312 N 1458.88 1.40823 0.707568 0
M  V30 15313 C 1459.85 1.41464 1.80334 0
M  V30 15314 C 1460.85 0.307143 1.57839 0
M  V30 15315 O 1462.04 0.566444 1.64733 0
M  V30 15316 C 1459.17 1.21426 3.18541 0
M  V30 15317 H 1460.36 2.38998 1.81162 0
M  V30 15318 H 1457.92 1.2679 0.914007 0
M  V30 15319 H 1458.65 0.246847 3.23359 0
M  V30 15320 H 1458.44 2.01657 3.36269 0
M  V30 15321 H 1459.93 1.24681 3.98553 0
M  V30 15322 N 1460.36 -0.94061 1.26453 0
M  V30 15323 C 1461.64 -1.66421 1.02779 0
M  V30 15324 C 1462.02 -2.06429 -0.441614 0
M  V30 15325 O 1461.37 -1.78854 -1.42209 0
M  V30 15326 C 1461.58 -2.87599 1.97707 0
M  V30 15327 C 1462.93 -3.59237 2.26349 0
M  V30 15328 O 1463.95 -2.97704 1.95577 0
M  V30 15329 O 1462.81 -4.70068 2.78744 0
M  V30 15330 H 1459.9 -0.728813 0.390846 0
M  V30 15331 H 1462.45 -0.99229 1.37665 0
M  V30 15332 H 1461.22 -2.54929 2.96862 0
M  V30 15333 H 1460.84 -3.62516 1.63303 0
M  V30 15334 N 1461.84 -1.08266 -1.14527 0
M  V30 15335 C 1463.12 -0.724254 -1.81697 0
M  V30 15336 C 1463.5 0.792212 -1.95671 0
M  V30 15337 O 1462.85 1.71017 -1.51543 0
M  V30 15338 C 1463.06 -1.44949 -3.17475 0
M  V30 15339 C 1464.4 -1.60761 -3.9299 0
M  V30 15340 O 1465.43 -1.41103 -3.2706 0
M  V30 15341 O 1464.29 -1.93184 -5.11216 0
M  V30 15342 H 1461.38 -0.258814 -0.785458 0
M  V30 15343 H 1463.93 -1.18414 -1.21557 0
M  V30 15344 H 1462.7 -2.48262 -3.02459 0
M  V30 15345 H 1462.32 -0.980993 -3.85308 0
M  V30 15346 N 1463.32 1.31536 -0.86811 0
M  V30 15347 C 1464.54 2.01487 -0.491705 0
M  V30 15348 C 1464.97 1.64744 0.907803 0
M  V30 15349 O 1464.33 0.855093 1.59868 0
M  V30 15350 C 1464.38 3.54621 -0.65395 0
M  V30 15351 O 1463.48 4.11252 0.307532 0
M  V30 15352 H 1462.82 0.634469 -0.195819 0
M  V30 15353 H 1465.35 1.67775 -1.17101 0
M  V30 15354 H 1465.36 4.04323 -0.546539 0
M  V30 15355 H 1464.04 3.80704 -1.67443 0
M  V30 15356 H 1462.61 3.72577 0.155233 0
M  V30 15357 N 1464.8 0.627364 1.44575 0
M  V30 15358 C 1466.02 0.135576 2.06956 0
M  V30 15359 C 1466.45 -1.17922 1.46547 0
M  V30 15360 O 1465.81 -1.72255 0.565509 0
M  V30 15361 C 1465.85 0.030347 3.60587 0
M  V30 15362 O 1464.96 -1.01464 3.99724 0
M  V30 15363 H 1464.3 0.083058 0.658785 0
M  V30 15364 H 1466.83 0.862977 1.8551 0
M  V30 15365 H 1466.84 -0.161461 4.0768 0
M  V30 15366 H 1465.51 0.990285 4.03938 0
M  V30 15367 H 1464.09 -0.797701 3.64268 0
M  V30 15368 N 1466.28 -1.53251 0.367684 0
M  V30 15369 C 1467.19 -2.29518 -0.485669 0
M  V30 15370 C 1468.2 -1.35568 -1.09075 0
M  V30 15371 O 1469.38 -1.68626 -1.10124 0
M  V30 15372 C 1466.44 -3.07115 -1.60876 0
M  V30 15373 C 1465.5 -4.16736 -1.031 0
M  V30 15374 C 1464.74 -4.90624 -2.10056 0
M  V30 15375 O 1464.96 -4.64393 -3.31203 0
M  V30 15376 O 1463.89 -5.76503 -1.72996 0
M  V30 15377 H 1467.72 -3.034 0.135017 0
M  V30 15378 H 1465.3 -1.48816 0.132005 0
M  V30 15379 H 1467.19 -3.55564 -2.26168 0
M  V30 15380 H 1465.86 -2.36068 -2.21481 0
M  V30 15381 H 1464.77 -3.72534 -0.341928 0
M  V30 15382 H 1466.1 -4.89956 -0.469473 0
M  V30 15383 N 1467.75 -0.0969077 -1.57302 0
M  V30 15384 C 1469 0.565254 -1.94034 0
M  V30 15385 C 1469.32 1.68609 -0.9796 0
M  V30 15386 O 1468.59 1.95874 -0.0319788 0
M  V30 15387 H 1467.17 0.211796 -0.716346 0
M  V30 15388 H 1469.83 -0.160665 -1.94237 0
M  V30 15389 H 1468.93 0.974268 -2.96504 0
M  V30 15390 N 1469.23 1.56605 0.176793 0
M  V30 15391 C 1470.46 1.8617 0.91408 0
M  V30 15392 C 1470.88 0.68262 1.75277 0
M  V30 15393 O 1470.24 -0.368391 1.77518 0
M  V30 15394 C 1470.29 3.14109 1.7711 0
M  V30 15395 O 1469.39 2.95947 2.87209 0
M  V30 15396 H 1468.73 0.612507 0.25638 0
M  V30 15397 H 1471.26 2.03837 0.176586 0
M  V30 15398 H 1471.27 3.45373 2.17213 0
M  V30 15399 H 1469.95 3.9954 1.15502 0
M  V30 15400 H 1468.52 2.76024 2.50729 0
M  V30 15401 N 1470.71 -0.445159 1.51182 0
M  V30 15402 C 1471.62 -1.5651 1.74762 0
M  V30 15403 C 1472.64 -1.62134 0.631542 0
M  V30 15404 O 1473.81 -1.79522 0.912898 0
M  V30 15405 C 1470.88 -2.92552 1.86049 0
M  V30 15406 C 1469.94 -2.97108 3.0988 0
M  V30 15407 C 1469.17 -4.2666 3.2062 0
M  V30 15408 O 1469.39 -5.18608 2.37491 0
M  V30 15409 O 1468.33 -4.3734 4.13542 0
M  V30 15410 H 1472.15 -1.3953 2.6975 0
M  V30 15411 H 1469.74 -0.627363 1.3559 0
M  V30 15412 H 1471.62 -3.73304 1.95504 0
M  V30 15413 H 1470.3 -3.09676 0.94248 0
M  V30 15414 H 1469.2 -2.15338 3.05909 0
M  V30 15415 H 1470.54 -2.84927 4.01345 0
M  V30 15416 N 1472.19 -1.41197 -0.700089 0
M  V30 15417 C 1473.43 -1.40519 -1.46227 0
M  V30 15418 C 1473.77 -0.0126108 -1.94196 0
M  V30 15419 O 1473.04 0.958837 -1.69223 0
M  V30 15420 C 1473.32 -2.40808 -2.67738 0
M  V30 15421 C 1473.18 -3.89154 -2.25563 0
M  V30 15422 C 1474.5 -2.38415 -3.69927 0
M  V30 15423 H 1471.62 -0.511724 -0.530384 0
M  V30 15424 H 1474.26 -1.72441 -0.797754 0
M  V30 15425 H 1472.41 -2.13717 -3.24434 0
M  V30 15426 H 1474.08 -4.27132 -1.74229 0
M  V30 15427 H 1472.32 -4.04239 -1.57395 0
M  V30 15428 H 1472.99 -4.54866 -3.12731 0
M  V30 15429 H 1475.47 -2.62447 -3.22895 0
M  V30 15430 H 1474.35 -3.10609 -4.52563 0
M  V30 15431 H 1474.61 -1.40116 -4.19309 0
M  V30 15432 N 1473.67 0.933891 -1.2695 0
M  V30 15433 C 1474.6 2.05078 -1.11649 0
M  V30 15434 C 1475.58 1.70089 -0.0196463 0
M  V30 15435 O 1476.76 1.93239 -0.193007 0
M  V30 15436 C 1473.89 3.38963 -0.756387 0
M  V30 15437 C 1472.85 3.88041 -1.80577 0
M  V30 15438 C 1472.17 5.18661 -1.2998 0
M  V30 15439 C 1473.47 4.12116 -3.2087 0
M  V30 15440 H 1475.17 2.18137 -2.05077 0
M  V30 15441 H 1472.71 1.04817 -0.987392 0
M  V30 15442 H 1474.66 4.1657 -0.63619 0
M  V30 15443 H 1473.39 3.25901 0.213607 0
M  V30 15444 H 1472.05 3.12622 -1.91477 0
M  V30 15445 H 1471.7 5.01985 -0.319442 0
M  V30 15446 H 1471.4 5.52467 -2.00134 0
M  V30 15447 H 1472.92 5.98844 -1.19242 0
M  V30 15448 H 1474.33 4.80312 -3.13006 0
M  V30 15449 H 1472.73 4.57218 -3.88679 0
M  V30 15450 H 1473.8 3.17633 -3.66384 0
M  V30 15451 N 1475.14 1.08871 1.13951 0
M  V30 15452 C 1476.08 0.666975 2.18235 0
M  V30 15453 C 1477.05 -0.323664 1.59346 0
M  V30 15454 O 1478.24 -0.226394 1.87136 0
M  V30 15455 C 1475.37 -0.018268 3.38695 0
M  V30 15456 C 1474.41 0.933273 4.16164 0
M  V30 15457 S 1475.24 2.44241 4.76557 0
M  V30 15458 C 1476.4 1.76941 6.00369 0
M  V30 15459 H 1476.63 1.55042 2.53672 0
M  V30 15460 H 1474.17 0.904149 1.25158 0
M  V30 15461 H 1476.12 -0.407339 4.08474 0
M  V30 15462 H 1474.79 -0.878272 3.01571 0
M  V30 15463 H 1473.98 0.400793 5.02404 0
M  V30 15464 H 1473.58 1.26347 3.52012 0
M  V30 15465 H 1475.87 1.09012 6.68672 0
M  V30 15466 H 1476.82 2.61074 6.58214 0
M  V30 15467 H 1477.22 1.24075 5.50696 0
M  V30 15468 O 1476.66 -1.26144 1.00846 0
M  V30 15469 H 1477.35 -1.8193 0.664926 0
M  V30 END ATOM
M  V30 BEGIN BOND
M  V30 END BOND
M  V30 END CTAB
M  END
$$$$
