drugbank_target|Q12874 Splicing factor 3A subunit 3 (DB12695)
 OpenBabel12092121073D

  0  0  0     0  0            999 V3000
M  V30 BEGIN CTAB
M  V30 COUNTS 8162 8248 0 0 0
M  V30 BEGIN ATOM
M  V30 1 H -0.908 1.98254 -0.117106 0
M  V30 2 N 0 1.576 0 0
M  V30 3 C 0.933 2.03868 1.02534 0
M  V30 4 C 1.911 0.928543 1.3348 0
M  V30 5 O 3.095 1.19667 1.45644 0
M  V30 6 C 0.222 2.43627 2.35294 0
M  V30 7 C -0.732 3.65373 2.2001 0
M  V30 8 S 0.101 5.13292 1.52614 0
M  V30 9 C 1.257 5.56322 2.86805 0
M  V30 10 H 1.49 2.90518 0.631377 0
M  V30 11 H -0.977 1.52953 0.210867 0
M  V30 12 H 0.981 2.67203 3.11629 0
M  V30 13 H -0.358 1.57376 2.7183 0
M  V30 14 H -1.165 3.90944 3.18086 0
M  V30 15 H -1.563 3.418 1.51819 0
M  V30 16 H 0.729 5.58782 3.83104 0
M  V30 17 H 1.672 6.56266 2.65933 0
M  V30 18 H 2.08 4.83886 2.90714 0
M  V30 19 N 1.4781 -0.272755 1.55222 0
M  V30 20 C 2.3881 -1.35918 1.91216 0
M  V30 21 C 3.4041 -1.54026 0.809436 0
M  V30 22 O 4.5801 -1.68148 1.10852 0
M  V30 23 C 1.6451 -2.69834 2.17693 0
M  V30 24 C 0.7061 -2.6047 3.41253 0
M  V30 25 C -0.0609 -3.88 3.66458 0
M  V30 26 O 0.1621 -4.88693 2.94169 0
M  V30 27 O -0.9039 -3.88189 4.59992 0
M  V30 28 H 2.9221 -1.0839 2.83699 0
M  V30 29 H 0.5071 -0.471301 1.41771 0
M  V30 30 H 2.3891 -3.49017 2.36147 0
M  V30 31 H 1.0641 -2.97148 1.28392 0
M  V30 32 H -0.0289 -1.79663 3.28134 0
M  V30 33 H 1.3041 -2.38106 4.30774 0
M  V30 34 N 2.9562 -1.48159 -0.537278 0
M  V30 35 C 4.1842 -1.59454 -1.31841 0
M  V30 36 C 4.5992 -0.252065 -1.8711 0
M  V30 37 O 3.9562 0.757621 -1.66031 0
M  V30 38 C 4.0072 -2.63546 -2.47439 0
M  V30 39 O 3.7282 -3.92583 -1.94449 0
M  V30 40 C 5.2292 -2.85212 -3.39366 0
M  V30 41 H 2.4492 -0.53785 -0.401196 0
M  V30 42 H 4.9932 -1.93932 -0.648891 0
M  V30 43 H 3.1482 -2.31946 -3.1029 0
M  V30 44 H 3.5622 -4.49629 -2.70063 0
M  V30 45 H 5.0362 -3.61863 -4.16844 0
M  V30 46 H 5.5132 -1.93765 -3.94147 0
M  V30 47 H 6.1192 -3.18086 -2.82314 0
M  V30 48 N 4.4343 0.785586 -1.36625 0
M  V30 49 C 5.6833 1.53883 -1.30396 0
M  V30 50 C 5.9963 1.95271 0.113452 0
M  V30 51 O 7.2023 2.69858 0.298142 0
M  V30 52 C 5.6583 2.77808 -2.28802 0
M  V30 53 C 5.2663 2.43574 -3.75999 0
M  V30 54 C 7.0103 3.55783 -2.31558 0
M  V30 55 C 4.9173 3.63919 -4.66173 0
M  V30 56 H 3.8473 0.577678 -0.484566 0
M  V30 57 H 6.4983 0.861705 -1.62009 0
M  V30 58 H 4.8803 3.47339 -1.90188 0
M  V30 59 H 6.0543 1.81916 -4.23371 0
M  V30 60 H 4.3693 1.78803 -3.76056 0
M  V30 61 H 6.9663 4.45205 -2.96137 0
M  V30 62 H 7.3093 3.94644 -1.3252 0
M  V30 63 H 7.8423 2.93235 -2.68809 0
M  V30 64 H 4.5813 3.3015 -5.66287 0
M  V30 65 H 4.1013 4.2473 -4.23515 0
M  V30 66 H 5.7803 4.30901 -4.82632 0
M  V30 67 N 5.9124 1.20967 1.01018 0
M  V30 68 C 6.8424 0.988272 2.11555 0
M  V30 69 C 7.8234 -0.0849778 1.69888 0
M  V30 70 O 9.0084 0.0738202 1.9406 0
M  V30 71 C 6.1384 0.546528 3.42973 0
M  V30 72 C 5.0924 1.56375 3.9841 0
M  V30 73 C 4.4184 0.97842 5.25672 0
M  V30 74 C 5.7184 2.94922 4.31066 0
M  V30 75 H 7.4124 1.91276 2.30334 0
M  V30 76 H 4.9584 0.921073 1.1069 0
M  V30 77 H 6.9114 0.378839 4.19694 0
M  V30 78 H 5.6354 -0.413598 3.23971 0
M  V30 79 H 4.2944 1.71891 3.23804 0
M  V30 80 H 3.9424 0.0101688 5.02999 0
M  V30 81 H 3.6424 1.65784 5.63728 0
M  V30 82 H 5.1664 0.821939 6.05043 0
M  V30 83 H 6.5804 2.8288 4.9865 0
M  V30 84 H 4.9774 3.5983 4.80253 0
M  V30 85 H 6.0474 3.4616 3.39561 0
M  V30 86 N 7.3905 -1.2043 1.01659 0
M  V30 87 C 8.3005 -2.2689 0.596484 0
M  V30 88 C 9.3165 -1.70107 -0.36599 0
M  V30 89 O 10.4925 -2.00117 -0.226942 0
M  V30 90 C 7.5575 -3.4665 -0.0586659 0
M  V30 91 C 6.6185 -4.18662 0.949751 0
M  V30 92 C 5.8515 -5.32705 0.32577 0
M  V30 93 O 6.0745 -5.63656 -0.874509 0
M  V30 94 O 5.0085 -5.92803 1.04249 0
M  V30 95 H 8.8345 -2.65041 1.4828 0
M  V30 96 H 6.4195 -1.27048 0.786082 0
M  V30 97 H 8.3015 -4.19256 -0.424564 0
M  V30 98 H 6.9765 -3.10375 -0.91918 0
M  V30 99 H 5.8835 -3.48229 1.36702 0
M  V30 100 H 7.2165 -4.58878 1.78023 0
M  V30 101 N 8.8686 -0.792821 -1.36206 0
M  V30 102 C 9.8006 -0.151469 -2.28699 0
M  V30 103 C 10.8136 0.641262 -1.49638 0
M  V30 104 O 12.0026 0.475885 -1.72039 0
M  V30 105 C 9.1026 0.808424 -3.29117 0
M  V30 106 C 8.2756 0.0650202 -4.37352 0
M  V30 107 C 7.3346 0.941358 -5.17711 0
M  V30 108 O 6.3606 0.397352 -5.67811 0
M  V30 109 N 7.5626 2.2652 -5.3448 0
M  V30 110 H 10.3276 -0.945982 -2.84379 0
M  V30 111 H 7.8886 -0.647032 -1.48409 0
M  V30 112 H 9.8806 1.3986 -3.79765 0
M  V30 113 H 8.4506 1.5038 -2.74052 0
M  V30 114 H 7.6706 -0.706255 -3.87822 0
M  V30 115 H 8.9586 -0.447847 -5.06825 0
M  V30 116 H 8.3566 2.73128 -4.95396 0
M  V30 117 H 6.9136 2.80493 -5.88359 0
M  V30 118 N 10.3467 1.47872 -0.545128 0
M  V30 119 C 11.2787 2.27869 0.246621 0
M  V30 120 C 12.2917 1.36282 0.890561 0
M  V30 121 O 13.4807 1.61207 0.766449 0
M  V30 122 C 10.5807 3.10159 1.36582 0
M  V30 123 C 9.7537 4.29627 0.820954 0
M  V30 124 C 8.8127 4.93607 1.82314 0
M  V30 125 O 7.8387 5.52366 1.37406 0
M  V30 126 N 9.0407 4.87211 3.15603 0
M  V30 127 H 11.8057 2.96459 -0.439539 0
M  V30 128 H 9.3667 1.57367 -0.380421 0
M  V30 129 H 11.3587 3.49829 2.03474 0
M  V30 130 H 9.9287 2.43891 1.9554 0
M  V30 131 H 9.1487 3.94192 -0.0244032 0
M  V30 132 H 10.4367 5.06928 0.436063 0
M  V30 133 H 9.8347 4.40651 3.54744 0
M  V30 134 H 8.3917 5.30937 3.78087 0
M  V30 135 N 11.8248 0.280983 1.55075 0
M  V30 136 C 13.2408 -0.0729964 1.59433 0
M  V30 137 C 13.4408 -1.5411 1.29817 0
M  V30 138 O 12.4968 -2.29086 1.06187 0
M  V30 139 C 13.8098 0.306921 2.9913 0
M  V30 140 C 15.3578 0.254023 3.11968 0
M  V30 141 C 15.8328 0.608467 4.5394 0
M  V30 142 N 17.3238 0.560241 4.59799 0
M  V30 143 C 18.0588 0.80722 5.6769 0
M  V30 144 N 17.5548 1.11912 6.83701 0
M  V30 145 N 19.3478 0.735623 5.57266 0
M  V30 146 H 11.4988 1.238 1.7259 0
M  V30 147 H 13.7618 0.500547 0.805082 0
M  V30 148 H 13.4678 1.32816 3.25657 0
M  V30 149 H 13.3418 -0.349363 3.75579 0
M  V30 150 H 15.7288 -0.75794 2.852 0
M  V30 151 H 15.8098 0.944649 2.37718 0
M  V30 152 H 15.4538 1.61814 4.81434 0
M  V30 153 H 15.3838 -0.104013 5.26497 0
M  V30 154 H 17.8748 0.329288 3.76463 0
M  V30 155 H 18.1878 1.29409 7.61888 0
M  V30 156 H 16.5328 1.15695 6.85303 0
M  V30 157 H 19.7238 0.491752 4.6551 0
M  V30 158 H 19.8968 0.931482 6.4127 0
M  V30 159 N 13.3029 -1.57598 0.00835791 0
M  V30 160 C 14.7189 -1.55764 -0.347822 0
M  V30 161 C 14.9189 -1.01186 -1.74252 0
M  V30 162 O 13.9749 -0.649371 -2.44007 0
M  V30 163 C 15.2879 -2.99927 -0.215407 0
M  V30 164 C 16.8359 -3.11656 -0.289725 0
M  V30 165 C 17.3109 -4.57621 -0.18634 0
M  V30 166 N 18.8019 -4.62557 -0.243978 0
M  V30 167 C 19.5369 -5.73094 -0.18745 0
M  V30 168 N 19.0329 -6.92753 -0.0810331 0
M  V30 169 N 20.8259 -5.61588 -0.239925 0
M  V30 170 H 12.9769 -1.91411 0.92062 0
M  V30 171 H 15.2399 -0.879562 0.353659 0
M  V30 172 H 14.9459 -3.43729 0.744512 0
M  V30 173 H 14.8199 -3.63865 -0.994097 0
M  V30 174 H 17.2069 -2.67779 -1.24009 0
M  V30 175 H 17.2879 -2.5048 0.51898 0
M  V30 176 H 16.9319 -5.02174 0.760519 0
M  V30 177 H 16.8619 -5.16752 -1.01364 0
M  V30 178 H 19.3529 -3.76481 -0.327217 0
M  V30 179 H 19.6659 -7.72787 -0.0440241 0
M  V30 180 H 18.0109 -6.94984 -0.0465419 0
M  V30 181 H 21.2019 -4.66996 -0.321317 0
M  V30 182 H 21.3749 -6.47714 -0.192407 0
M  V30 183 N 14.781 0.264519 -1.55364 0
M  V30 184 C 16.011 1.01153 -1.80143 0
M  V30 185 C 16.419 1.80115 -0.579253 0
M  V30 186 O 15.762 1.77813 0.46132 0
M  V30 187 C 15.824 2.01098 -2.97993 0
M  V30 188 C 15.488 1.40995 -4.34706 0
M  V30 189 C 16.485 0.821316 -5.13372 0
M  V30 190 C 14.17 1.43461 -4.81378 0
M  V30 191 C 16.164 0.265339 -6.36847 0
M  V30 192 C 13.851 0.874771 -6.04807 0
M  V30 193 C 14.849 0.291146 -6.82379 0
M  V30 194 O 14.537 -0.260093 -8.03479 0
M  V30 195 H 14.269 0.304125 -0.603725 0
M  V30 196 H 16.823 0.298089 -2.03225 0
M  V30 197 H 15.053 2.76224 -2.70623 0
M  V30 198 H 16.742 2.61997 -3.1002 0
M  V30 199 H 17.508 0.794903 -4.78442 0
M  V30 200 H 13.387 1.87826 -4.21002 0
M  V30 201 H 16.931 -0.190837 -6.97339 0
M  V30 202 H 12.828 0.898452 -6.39217 0
M  V30 203 H 13.596 -0.150265 -8.18362 0
M  V30 204 N 16.2591 1.48442 0.529413 0
M  V30 205 C 17.2091 1.59407 1.63014 0
M  V30 206 C 18.1931 0.451166 1.54445 0
M  V30 207 O 19.3851 0.702635 1.62456 0
M  V30 208 C 16.5141 1.63746 3.01732 0
M  V30 209 C 15.6001 2.83518 3.15402 0
M  V30 210 N 15.9911 4.07929 2.99045 0
M  V30 211 C 14.2891 2.80862 3.46457 0
M  V30 212 C 14.9901 4.8829 3.16146 0
M  V30 213 N 13.9661 4.21117 3.43746 0
M  V30 214 H 17.7681 2.53343 1.48978 0
M  V30 215 H 15.2821 1.44821 0.734885 0
M  V30 216 H 17.2791 1.69695 3.80801 0
M  V30 217 H 15.9391 0.709264 3.16859 0
M  V30 218 H 16.9501 4.38357 2.75796 0
M  V30 219 H 13.6271 1.97301 3.67938 0
M  V30 220 H 15.0171 5.97028 3.08232 0
M  V30 221 N 17.7372 -0.778329 1.37039 0
M  V30 222 C 18.6472 -1.92253 1.34446 0
M  V30 223 C 19.6632 -1.72267 0.244991 0
M  V30 224 O 20.8392 -1.95615 0.479258 0
M  V30 225 C 17.9042 -3.27282 1.144 0
M  V30 226 C 16.9652 -3.59969 2.33925 0
M  V30 227 C 16.1982 -4.88555 2.14825 0
M  V30 228 O 16.4212 -5.59113 1.12912 0
M  V30 229 O 15.3552 -5.20153 3.02861 0
M  V30 230 H 19.1812 -1.97392 2.30803 0
M  V30 231 H 16.7662 -0.920154 1.17701 0
M  V30 232 H 18.6482 -4.08062 1.05182 0
M  V30 233 H 17.3232 -3.23011 0.211124 0
M  V30 234 H 16.2302 -2.7945 2.48714 0
M  V30 235 H 17.5632 -3.68976 3.25757 0
M  V30 236 N 19.2153 -1.21501 -1.00376 0
M  V30 237 C 20.1253 -0.991447 -2.12621 0
M  V30 238 C 21.1413 0.0568446 -1.73907 0
M  V30 239 O 22.3173 -0.13348 -2.00957 0
M  V30 240 C 19.3823 -0.560312 -3.42142 0
M  V30 241 C 18.4433 -1.68096 -3.95022 0
M  V30 242 C 17.6763 -1.2703 -5.18362 0
M  V30 243 O 17.8993 -0.144438 -5.70217 0
M  V30 244 O 16.8333 -2.08269 -5.64719 0
M  V30 245 H 20.6593 -1.93158 -2.34358 0
M  V30 246 H 18.2443 -0.999999 -1.10997 0
M  V30 247 H 20.1263 -0.329724 -4.20108 0
M  V30 248 H 18.8013 0.351089 -3.2179 0
M  V30 249 H 17.7083 -1.96597 -3.18278 0
M  V30 250 H 19.0413 -2.56983 -4.19786 0
M  V30 251 N 20.6934 1.19889 -1.02296 0
M  V30 252 C 21.6404 2.22901 -0.598651 0
M  V30 253 C 22.6104 1.61588 0.384521 0
M  V30 254 O 23.7954 1.88697 0.282522 0
M  V30 255 C 20.9354 3.45063 0.0504476 0
M  V30 256 C 20.0484 4.20783 -0.978053 0
M  V30 257 C 19.1834 5.30356 -0.299338 0
M  V30 258 C 18.2224 5.97826 -1.31416 0
M  V30 259 N 17.3594 6.98975 -0.661667 0
M  V30 260 H 22.1994 2.58554 -1.48169 0
M  V30 261 H 19.7364 1.27039 -0.741584 0
M  V30 262 H 21.6944 4.14831 0.443971 0
M  V30 263 H 20.3244 3.10084 0.897097 0
M  V30 264 H 19.3764 3.50018 -1.48969 0
M  V30 265 H 20.6884 4.67109 -1.74958 0
M  V30 266 H 19.8424 6.06516 0.149347 0
M  V30 267 H 18.5814 4.85084 0.504445 0
M  V30 268 H 17.5864 5.20422 -1.77317 0
M  V30 269 H 18.8114 6.45183 -2.11933 0
M  V30 270 H 16.7574 6.55886 0.122132 0
M  V30 271 H 16.6744 7.43461 -1.37117 0
M  V30 272 H 17.9424 7.7914 -0.236785 0
M  V30 273 N 22.1715 0.800033 1.35784 0
M  V30 274 C 23.0815 0.207204 2.33683 0
M  V30 275 C 24.0975 -0.64631 1.61551 0
M  V30 276 O 25.2735 -0.559604 1.93469 0
M  V30 277 C 22.3385 -0.639659 3.40748 0
M  V30 278 C 21.3995 0.233585 4.28664 0
M  V30 279 C 20.6325 -0.572954 5.30616 0
M  V30 280 O 20.8555 -1.80816 5.40982 0
M  V30 281 O 19.7895 0.0327285 6.01891 0
M  V30 282 H 23.6155 1.01692 2.86169 0
M  V30 283 H 21.2005 0.561691 1.38439 0
M  V30 284 H 23.0825 -1.12223 4.06182 0
M  V30 285 H 21.7575 -1.42708 2.90544 0
M  V30 286 H 20.6645 0.763147 3.66233 0
M  V30 287 H 21.9975 0.984784 4.82248 0
M  V30 288 N 23.6496 -1.47581 0.552962 0
M  V30 289 C 25.0656 -1.5818 0.212424 0
M  V30 290 C 25.2656 -1.55213 -1.28496 0
M  V30 291 O 24.3216 -1.45329 -2.06484 0
M  V30 292 C 25.6346 -2.88865 0.835318 0
M  V30 293 C 27.1826 -3.0244 0.806156 0
M  V30 294 C 27.6576 -4.35819 1.40804 0
M  V30 295 N 29.1486 -4.42444 1.37103 0
M  V30 296 C 29.8836 -5.44202 1.80641 0
M  V30 297 N 29.3796 -6.52795 2.32015 0
M  V30 298 N 31.1726 -5.35222 1.71738 0
M  V30 299 H 23.3236 -1.47753 1.52587 0
M  V30 300 H 25.5866 -0.702941 0.636064 0
M  V30 301 H 25.2926 -2.9676 1.88749 0
M  V30 302 H 25.1666 -3.7579 0.325848 0
M  V30 303 H 27.5536 -2.94144 -0.237317 0
M  V30 304 H 27.6346 -2.17068 1.35334 0
M  V30 305 H 27.2786 -4.44871 2.45056 0
M  V30 306 H 27.2086 -5.19916 0.836338 0
M  V30 307 H 29.6996 -3.6456 0.995202 0
M  V30 308 H 30.0126 -7.26609 2.63171 0
M  V30 309 H 28.3576 -6.53696 2.36023 0
M  V30 310 H 31.5486 -4.49284 1.31382 0
M  V30 311 H 31.7216 -6.14389 2.05987 0
M  V30 312 N 25.1277 -0.289203 -1.54924 0
M  V30 313 C 26.0577 0.58549 -2.2604 0
M  V30 314 C 27.0387 1.14753 -1.25562 0
M  V30 315 O 28.2237 1.17906 -1.54311 0
M  V30 316 C 25.3537 1.76305 -2.99222 0
M  V30 317 C 24.3077 1.33191 -4.06748 0
M  V30 318 C 23.6337 2.5937 -4.6758 0
M  V30 319 C 24.9337 0.471775 -5.20165 0
M  V30 320 H 26.6277 -0.00763532 -2.99399 0
M  V30 321 H 24.1737 -0.00511229 -1.43999 0
M  V30 322 H 26.1267 2.38097 -3.47689 0
M  V30 323 H 24.8507 2.38223 -2.23422 0
M  V30 324 H 23.5097 0.737121 -3.59113 0
M  V30 325 H 23.1577 3.19576 -3.88433 0
M  V30 326 H 22.8577 2.31228 -5.40192 0
M  V30 327 H 24.3817 3.21985 -5.18804 0
M  V30 328 H 25.7957 0.995056 -5.64599 0
M  V30 329 H 24.1927 0.284639 -5.99425 0
M  V30 330 H 25.2627 -0.506041 -4.82252 0
M  V30 331 N 26.6058 1.57591 -0.0167156 0
M  V30 332 C 27.5388 2.04944 1.00366 0
M  V30 333 C 28.5168 0.942648 1.32487 0
M  V30 334 O 29.7008 1.21205 1.44367 0
M  V30 335 C 26.8278 2.46109 2.32697 0
M  V30 336 C 25.8738 3.67686 2.16123 0
M  V30 337 S 26.7068 5.14882 1.47161 0
M  V30 338 C 27.8628 5.59332 2.80888 0
M  V30 339 H 28.0958 2.91172 0.600528 0
M  V30 340 H 25.6288 1.53168 0.194632 0
M  V30 341 H 27.5868 2.70493 3.08778 0
M  V30 342 H 26.2478 1.6025 2.70146 0
M  V30 343 H 25.4408 3.94296 3.13922 0
M  V30 344 H 25.0428 3.43391 1.48185 0
M  V30 345 H 27.3348 5.62814 3.77156 0
M  V30 346 H 28.2778 6.5905 2.58958 0
M  V30 347 H 28.6858 4.86942 2.85565 0
M  V30 348 N 28.0839 -0.256276 1.55502 0
M  V30 349 C 29.3609 -1.00789 1.67633 0
M  V30 350 C 29.7409 -2.03706 0.553826 0
M  V30 351 O 29.0889 -2.24145 -0.443969 0
M  V30 352 C 29.2989 -1.64968 3.07549 0
M  V30 353 C 30.6469 -2.15505 3.65845 0
M  V30 354 O 31.6709 -1.74925 3.1029 0
M  V30 355 O 30.5299 -2.89986 4.63217 0
M  V30 356 H 27.6239 -0.468553 0.681459 0
M  V30 357 H 30.1699 -0.250806 1.67836 0
M  V30 358 H 28.9419 -0.904785 3.80696 0
M  V30 359 H 28.5649 -2.47321 3.11317 0
M  V30 360 N 29.562 -1.4872 -0.521534 0
M  V30 361 C 30.808 -1.574 -1.27879 0
M  V30 362 C 31.141 -0.250817 -1.92573 0
M  V30 363 O 30.416 0.743934 -1.79711 0
M  V30 364 C 30.699 -2.71843 -2.36164 0
M  V30 365 C 30.552 -4.13893 -1.76105 0
M  V30 366 C 31.871 -2.82008 -3.37875 0
M  V30 367 H 28.99 -0.572941 -0.463581 0
M  V30 368 H 31.632 -1.80927 -0.580119 0
M  V30 369 H 29.782 -2.51914 -2.95756 0
M  V30 370 H 31.454 -4.45284 -1.20499 0
M  V30 371 H 29.697 -4.20498 -1.06601 0
M  V30 372 H 30.368 -4.89804 -2.5455 0
M  V30 373 H 32.844 -3.00086 -2.88249 0
M  V30 374 H 31.72 -3.63796 -4.11028 0
M  V30 375 H 31.981 -1.90511 -3.98946 0
M  V30 376 N 31.0401 0.771051 -1.3745 0
M  V30 377 C 31.9731 1.89166 -1.27638 0
M  V30 378 C 32.9511 1.61842 -0.156782 0
M  V30 379 O 34.1351 1.85569 -0.331111 0
M  V30 380 C 31.2621 3.24405 -0.973621 0
M  V30 381 C 30.3081 3.70638 -2.1102 0
M  V30 382 S 31.1411 3.84228 -3.73 0
M  V30 383 C 32.2971 5.22313 -3.44876 0
M  V30 384 H 32.5301 1.972 -2.22485 0
M  V30 385 H 30.0631 0.932224 -1.23081 0
M  V30 386 H 32.0211 4.02514 -0.805766 0
M  V30 387 H 30.6821 3.14071 -0.0426279 0
M  V30 388 H 29.8751 4.68685 -1.85338 0
M  V30 389 H 29.4771 2.99632 -2.23822 0
M  V30 390 H 31.7691 6.07505 -2.99908 0
M  V30 391 H 32.7121 5.53008 -4.42253 0
M  V30 392 H 33.1201 4.90284 -2.79789 0
M  V30 393 N 32.5182 1.22032 0.997298 0
M  V30 394 C 33.4812 0.987909 2.06816 0
M  V30 395 C 34.4812 -0.0440084 1.6074 0
M  V30 396 O 35.6712 0.194053 1.73116 0
M  V30 397 C 32.8032 0.49132 3.37341 0
M  V30 398 H 33.9962 1.93803 2.28868 0
M  V30 399 H 31.5492 1.03838 1.16822 0
M  V30 400 H 32.2842 -0.463364 3.20973 0
M  V30 401 H 32.0692 1.23575 3.72118 0
M  V30 402 H 33.5592 0.348824 4.16141 0
M  V30 403 N 33.9963 -1.19345 1.0293 0
M  V30 404 C 34.9433 -2.2258 0.610464 0
M  V30 405 C 35.9133 -1.6179 -0.375946 0
M  V30 406 O 37.0983 -1.88844 -0.272511 0
M  V30 407 C 34.2383 -3.45085 -0.0321473 0
M  V30 408 C 33.3513 -4.20258 1.00035 0
M  V30 409 C 32.4863 -5.3019 0.32746 0
M  V30 410 C 31.5253 -5.97121 1.34584 0
M  V30 411 N 30.6623 -6.98615 0.698726 0
M  V30 412 H 35.5023 -2.57764 1.49538 0
M  V30 413 H 33.0393 -1.26644 0.748311 0
M  V30 414 H 34.9973 -4.15061 -0.421966 0
M  V30 415 H 33.6273 -3.10555 -0.88064 0
M  V30 416 H 32.6793 -3.49223 1.50823 0
M  V30 417 H 33.9913 -4.66175 1.77433 0
M  V30 418 H 33.1453 -6.06587 -0.11718 0
M  V30 419 H 31.8843 -4.85345 -0.478713 0
M  V30 420 H 30.8893 -5.19474 1.80074 0
M  V30 421 H 32.1143 -6.4405 2.15352 0
M  V30 422 H 30.0603 -6.55942 -0.0873471 0
M  V30 423 H 29.9773 -7.42724 1.41058 0
M  V30 424 H 31.2453 -7.79004 0.278102 0
M  V30 425 N 35.4744 -0.807222 -1.35358 0
M  V30 426 C 36.3844 -0.219594 -2.3357 0
M  V30 427 C 37.4004 0.637734 -1.61892 0
M  V30 428 O 38.5764 0.549336 -1.93763 0
M  V30 429 C 35.6414 0.62158 -3.41083 0
M  V30 430 C 34.7024 -0.256315 -4.28534 0
M  V30 431 C 33.9354 0.544807 -5.30912 0
M  V30 432 O 34.1584 1.77944 -5.41934 0
M  V30 433 O 33.0924 -0.0646478 -6.01865 0
M  V30 434 H 36.9184 -1.03208 -2.85625 0
M  V30 435 H 34.5034 -0.569025 -1.38139 0
M  V30 436 H 36.3854 1.10067 -4.06772 0
M  V30 437 H 35.0604 1.41165 -2.91297 0
M  V30 438 H 33.9674 -0.782559 -3.65823 0
M  V30 439 H 35.3004 -1.01034 -4.81719 0
M  V30 440 N 36.9525 1.47285 -0.560781 0
M  V30 441 C 37.8855 2.27009 0.232821 0
M  V30 442 C 38.8635 1.34273 0.917039 0
M  V30 443 O 40.0475 1.63659 0.935315 0
M  V30 444 C 37.1745 3.11406 1.33206 0
M  V30 445 C 36.2205 4.19746 0.756019 0
M  V30 446 S 37.0535 5.34003 -0.400165 0
M  V30 447 C 38.2095 6.21964 0.700805 0
M  V30 448 H 38.4425 2.93971 -0.443683 0
M  V30 449 H 35.9755 1.50446 -0.347181 0
M  V30 450 H 37.9335 3.60601 1.96156 0
M  V30 451 H 36.5945 2.438 1.98041 0
M  V30 452 H 35.7875 4.78541 1.5816 0
M  V30 453 H 35.3895 3.73451 0.202619 0
M  V30 454 H 37.6815 6.58529 1.59202 0
M  V30 455 H 38.6245 7.07941 0.150126 0
M  V30 456 H 39.0325 5.5566 0.995083 0
M  V30 457 N 38.4306 0.297415 1.54768 0
M  V30 458 C 39.3606 -0.573494 2.26348 0
M  V30 459 C 40.3416 -1.14085 1.26169 0
M  V30 460 O 41.5266 -1.17086 1.54934 0
M  V30 461 C 38.6566 -1.74716 3.00153 0
M  V30 462 C 37.6106 -1.31032 4.07449 0
M  V30 463 C 36.9366 -2.56887 4.68949 0
M  V30 464 C 38.2366 -0.444183 5.20408 0
M  V30 465 H 39.9306 0.0235131 2.99391 0
M  V30 466 H 37.4766 0.0127488 1.43994 0
M  V30 467 H 39.4296 -2.3625 3.48947 0
M  V30 468 H 38.1536 -2.37035 2.24682 0
M  V30 469 H 36.8126 -0.718066 3.59499 0
M  V30 470 H 36.4606 -3.17512 3.90122 0
M  V30 471 H 36.1606 -2.2836 5.41411 0
M  V30 472 H 37.6846 -3.19229 5.20505 0
M  V30 473 H 39.0986 -0.9651 5.65118 0
M  V30 474 H 37.4956 -0.252846 5.99567 0
M  V30 475 H 38.5656 0.531609 4.81977 0
M  V30 476 N 39.9087 -1.5758 0.0250728 0
M  V30 477 C 41.1367 -1.9593 -0.664747 0
M  V30 478 C 41.5517 -0.901352 -1.65895 0
M  V30 479 O 40.9087 0.117255 -1.82123 0
M  V30 480 C 40.9597 -3.34342 -1.37468 0
M  V30 481 O 40.6807 -4.36079 -0.420324 0
M  V30 482 C 42.1817 -3.873 -2.1567 0
M  V30 483 H 39.4017 -0.645405 -0.183557 0
M  V30 484 H 41.9457 -2.04329 0.0836372 0
M  V30 485 H 40.1007 -3.27175 -2.0745 0
M  V30 486 H 40.5147 -5.16297 -0.923991 0
M  V30 487 H 41.9887 -4.86504 -2.60803 0
M  V30 488 H 42.4657 -3.21331 -2.99405 0
M  V30 489 H 43.0717 -3.97723 -1.50654 0
M  V30 490 N 41.3868 0.248026 -1.55636 0
M  V30 491 C 42.3338 1.30707 -1.90222 0
M  V30 492 C 43.3038 1.47881 -0.756332 0
M  V30 493 O 44.4888 1.61883 -1.00988 0
M  V30 494 C 41.6288 2.65769 -2.20138 0
M  V30 495 C 40.7418 2.56612 -3.47526 0
M  V30 496 C 39.8768 3.8402 -3.67017 0
M  V30 497 C 38.9158 3.69476 -4.8801 0
M  V30 498 N 38.0528 4.88774 -5.04029 0
M  V30 499 H 42.8928 1.00512 -2.80538 0
M  V30 500 H 40.4298 0.485055 -1.38873 0
M  V30 501 H 42.3878 3.44386 -2.35487 0
M  V30 502 H 41.0178 2.94115 -1.33027 0
M  V30 503 H 40.0698 1.69571 -3.40514 0
M  V30 504 H 41.3818 2.41774 -4.36287 0
M  V30 505 H 40.5358 4.7108 -3.8232 0
M  V30 506 H 39.2748 4.01754 -2.76487 0
M  V30 507 H 38.2798 2.80799 -4.72686 0
M  V30 508 H 39.5048 3.53238 -5.8 0
M  V30 509 H 37.4508 5.0687 -4.16435 0
M  V30 510 H 37.3678 4.76562 -5.86877 0
M  V30 511 H 38.6358 5.77335 -5.23741 0
M  V30 512 N 42.8649 1.48995 0.513639 0
M  V30 513 C 43.8119 1.6473 1.61656 0
M  V30 514 C 44.7819 0.488984 1.58739 0
M  V30 515 O 45.9669 0.714478 1.76918 0
M  V30 516 C 43.1069 1.7082 2.99858 0
M  V30 517 C 42.2199 2.9787 3.12885 0
M  V30 518 C 41.3549 2.95017 4.41744 0
M  V30 519 C 40.3939 4.16702 4.48359 0
M  V30 520 N 39.5309 4.11832 5.68629 0
M  V30 521 H 44.3709 2.58909 1.47547 0
M  V30 522 H 41.9079 1.28382 0.71808 0
M  V30 523 H 43.8659 1.72331 3.79944 0
M  V30 524 H 42.4959 0.801181 3.12699 0
M  V30 525 H 41.5479 3.06029 2.25944 0
M  V30 526 H 42.8599 3.8786 3.13633 0
M  V30 527 H 42.0139 2.95021 5.30139 0
M  V30 528 H 40.7529 2.02784 4.43542 0
M  V30 529 H 39.7579 4.16955 3.58369 0
M  V30 530 H 40.9829 5.10113 4.48287 0
M  V30 531 H 38.9289 3.22428 5.71293 0
M  V30 532 H 38.8459 4.95543 5.7094 0
M  V30 533 H 40.1139 4.1592 6.59266 0
M  V30 534 N 44.343 -0.763751 1.37857 0
M  V30 535 C 45.568 -1.55805 1.36893 0
M  V30 536 C 45.993 -1.88054 -0.0416135 0
M  V30 537 O 45.351 -1.49825 -1.02089 0
M  V30 538 C 45.399 -2.84012 2.22192 0
M  V30 539 O 44.503 -3.78732 1.63204 0
M  V30 540 H 43.844 -0.471638 0.46739 0
M  V30 541 H 46.374 -0.944657 1.81487 0
M  V30 542 H 46.384 -3.33037 2.35691 0
M  V30 543 H 45.059 -2.59869 3.24716 0
M  V30 544 H 43.636 -3.37402 1.58791 0
M  V30 545 N 45.8211 -1.22559 -0.990812 0
M  V30 546 C 47.0491 -1.07779 -1.76611 0
M  V30 547 C 47.4641 0.371513 -1.85109 0
M  V30 548 O 46.8211 1.25737 -1.32274 0
M  V30 549 C 46.8721 -1.68512 -3.19822 0
M  V30 550 O 46.5931 -3.07774 -3.1178 0
M  V30 551 C 48.0941 -1.59035 -4.13791 0
M  V30 552 H 45.3141 -0.377729 -0.554583 0
M  V30 553 H 47.8581 -1.62195 -1.24551 0
M  V30 554 H 46.0131 -1.18154 -3.68942 0
M  V30 555 H 46.4271 -3.37062 -4.01858 0
M  V30 556 H 47.9011 -2.0625 -5.1202 0
M  V30 557 H 48.3781 -0.547273 -4.35777 0
M  V30 558 H 48.9841 -2.08709 -3.70568 0
M  V30 559 N 47.2992 1.18797 -1.03562 0
M  V30 560 C 48.2292 2.24472 -0.643019 0
M  V30 561 C 49.2102 1.66433 0.351283 0
M  V30 562 O 50.3952 1.92803 0.232505 0
M  V30 563 C 47.5252 3.473 4.24935e-05 0
M  V30 564 C 46.4792 4.18055 -0.917257 0
M  V30 565 C 45.8052 5.34519 -0.138941 0
M  V30 566 C 47.1052 4.72109 -2.23407 0
M  V30 567 H 48.7992 2.57566 -1.52643 0
M  V30 568 H 46.3452 1.23806 -0.735394 0
M  V30 569 H 48.2982 4.20426 0.286383 0
M  V30 570 H 47.0222 3.13424 0.918299 0
M  V30 571 H 45.6812 3.46821 -1.1879 0
M  V30 572 H 45.3292 4.96891 0.781562 0
M  V30 573 H 45.0292 5.82794 -0.750005 0
M  V30 574 H 46.5532 6.10438 0.1405 0
M  V30 575 H 47.9672 5.36955 -2.00879 0
M  V30 576 H 46.3642 5.30897 -2.79765 0
M  V30 577 H 47.4342 3.89807 -2.88407 0
M  V30 578 N 48.7773 0.814389 1.34928 0
M  V30 579 C 50.1933 0.499084 1.51596 0
M  V30 580 C 50.3933 -0.978319 1.76157 0
M  V30 581 O 49.4493 -1.76309 1.80752 0
M  V30 582 C 50.7623 1.35121 2.68631 0
M  V30 583 C 52.3103 1.34746 2.82511 0
M  V30 584 C 52.7853 2.18388 4.0258 0
M  V30 585 N 54.2763 2.15966 4.09772 0
M  V30 586 C 55.0113 2.77437 5.01813 0
M  V30 587 N 54.5073 3.47866 5.99134 0
M  V30 588 N 56.3003 2.67037 4.94619 0
M  V30 589 H 48.4513 1.7711 1.17243 0
M  V30 590 H 50.7143 0.754256 0.574284 0
M  V30 591 H 50.4203 2.40001 2.57085 0
M  V30 592 H 50.2943 1.00991 3.63429 0
M  V30 593 H 52.6813 0.30648 2.93504 0
M  V30 594 H 52.7623 1.72869 1.88547 0
M  V30 595 H 52.4063 3.2253 3.92347 0
M  V30 596 H 52.3363 1.77621 4.9574 0
M  V30 597 H 54.8273 1.64729 3.40107 0
M  V30 598 H 55.1403 3.92038 6.65977 0
M  V30 599 H 53.4853 3.51972 5.99284 0
M  V30 600 H 56.6763 2.11597 4.17546 0
M  V30 601 H 56.8493 3.15232 5.66156 0
M  V30 602 N 50.2554 -1.46986 0.568584 0
M  V30 603 C 51.5324 -1.95592 -0.0174074 0
M  V30 604 C 51.9124 -1.51124 -1.47393 0
M  V30 605 O 51.2604 -0.755329 -2.15655 0
M  V30 606 C 51.4704 -3.48719 0.139913 0
M  V30 607 C 52.8184 -4.246 0.000426376 0
M  V30 608 O 53.8424 -3.56135 0.0680316 0
M  V30 609 O 52.7014 -5.46302 -0.146988 0
M  V30 610 H 49.7954 -0.82498 -0.0577599 0
M  V30 611 H 52.3414 -1.57335 0.635909 0
M  V30 612 H 51.1134 -3.73927 1.15301 0
M  V30 613 H 50.7364 -3.93771 -0.550491 0
M  V30 614 N 51.7335 -0.305618 -1.54608 0
M  V30 615 C 52.6655 0.602161 -2.21149 0
M  V30 616 C 53.6785 1.09394 -1.20569 0
M  V30 617 O 54.8675 1.0106 -1.47136 0
M  V30 618 C 51.9675 1.83692 -2.84799 0
M  V30 619 C 51.1405 1.48686 -4.11353 0
M  V30 620 C 50.1995 2.57725 -4.58764 0
M  V30 621 O 49.2255 2.22623 -5.23858 0
M  V30 622 N 50.4275 3.88346 -4.31471 0
M  V30 623 H 53.1925 0.0324966 -2.99682 0
M  V30 624 H 50.7535 -0.128021 -1.61393 0
M  V30 625 H 52.7455 2.55994 -3.13448 0
M  V30 626 H 51.3155 2.31486 -2.10078 0
M  V30 627 H 50.5355 0.596269 -3.89664 0
M  V30 628 H 51.8235 1.22842 -4.93748 0
M  V30 629 H 51.2215 4.19671 -3.79331 0
M  V30 630 H 49.7785 4.56932 -4.64818 0
M  V30 631 N 53.2116 1.57565 -0.0334293 0
M  V30 632 C 54.4606 1.91155 0.643639 0
M  V30 633 C 54.7736 0.91192 1.73042 0
M  V30 634 O 55.9796 1.13923 2.46442 0
M  V30 635 C 54.4356 3.39443 1.1961 0
M  V30 636 C 54.0436 4.47774 0.142381 0
M  V30 637 C 55.7876 3.82094 1.84944 0
M  V30 638 C 53.6946 5.87162 0.706727 0
M  V30 639 H 52.6246 0.713368 0.244176 0
M  V30 640 H 55.2756 1.8323 -0.0994323 0
M  V30 641 H 53.6576 3.42313 1.99092 0
M  V30 642 H 54.8316 4.56469 -0.630296 0
M  V30 643 H 53.1466 4.14352 -0.412446 0
M  V30 644 H 55.7436 4.83591 2.2813 0
M  V30 645 H 56.0866 3.17386 2.69392 0
M  V30 646 H 56.6196 3.81665 1.12145 0
M  V30 647 H 53.3586 6.55424 -0.0997178 0
M  V30 648 H 52.8786 5.82064 1.44779 0
M  V30 649 H 54.5576 6.35866 1.19514 0
M  V30 650 N 54.6897 -0.239769 1.55765 0
M  V30 651 C 55.6377 -1.31668 1.91745 0
M  V30 652 C 56.6317 -1.49462 0.797338 0
M  V30 653 O 57.8377 -1.50852 0.982021 0
M  V30 654 H 54.2127 -0.441048 0.609082 0
M  V30 655 H 56.1837 -0.985923 2.81642 0
M  V30 656 C 54.9327 -2.66368 2.2348 0
M  V30 657 H 54.2557 -2.53478 3.09175 0
M  V30 658 H 55.6957 -3.40578 2.52553 0
M  V30 659 C 54.1547 -3.20002 1.05359 0
M  V30 660 O 54.6847 -4.00538 0.305261 0
M  V30 661 N 52.8907 -2.78126 0.842292 0
M  V30 662 H 52.4377 -2.12742 1.45253 0
M  V30 663 H 52.3957 -3.14354 0.053652 0
M  V30 664 N 56.1678 -1.49265 -0.50573 0
M  V30 665 C 57.3928 -1.62478 -1.28902 0
M  V30 666 C 57.8178 -0.294332 -1.85783 0
M  V30 667 O 57.1758 0.737412 -1.65626 0
M  V30 668 C 57.2238 -2.69268 -2.39848 0
M  V30 669 O 56.3278 -2.28113 -3.43567 0
M  V30 670 H 55.6688 -0.54399 -0.380751 0
M  V30 671 H 58.1988 -1.95421 -0.605952 0
M  V30 672 H 58.2088 -2.91291 -2.85681 0
M  V30 673 H 56.8838 -3.65846 -1.97812 0
M  V30 674 H 55.4608 -2.16401 -3.03685 0
M  V30 675 N 57.6459 0.756429 -1.3826 0
M  V30 676 C 58.9229 1.50584 -1.24835 0
M  V30 677 C 59.3029 2.10556 0.151485 0
M  V30 678 O 58.6509 1.96825 1.1607 0
M  V30 679 C 58.8609 2.57448 -2.3563 0
M  V30 680 C 60.2089 3.24429 -2.73917 0
M  V30 681 O 61.2329 2.67751 -2.34921 0
M  V30 682 O 60.0919 4.26937 -3.41156 0
M  V30 683 H 57.1859 0.667664 -0.48801 0
M  V30 684 H 59.7319 0.792083 -1.5008 0
M  V30 685 H 58.5039 2.11362 -3.29305 0
M  V30 686 H 58.1269 3.36408 -2.11933 0
M  V30 687 N 59.124 1.23083 0.984299 0
M  V30 688 C 60.074 0.975749 2.06066 0
M  V30 689 C 61.058 -0.0768251 1.60716 0
M  V30 690 O 62.25 0.134805 1.76486 0
M  V30 691 C 59.379 0.564673 3.38624 0
M  V30 692 C 58.465 1.65244 3.90583 0
M  V30 693 N 58.856 2.88193 4.15666 0
M  V30 694 C 57.154 1.52612 4.19077 0
M  V30 695 C 57.855 3.58593 4.58024 0
M  V30 696 N 56.831 2.86093 4.62225 0
M  V30 697 H 60.633 1.90957 2.23411 0
M  V30 698 H 58.147 1.12963 1.16675 0
M  V30 699 H 60.144 0.36322 4.15315 0
M  V30 700 H 58.804 -0.362147 3.22674 0
M  V30 701 H 59.815 3.24537 4.03604 0
M  V30 702 H 56.492 0.666121 4.12152 0
M  V30 703 H 57.882 4.63974 4.85982 0
M  V30 704 N 60.6021 -1.18246 1.0419 0
M  V30 705 C 62.0181 -1.40269 0.761366 0
M  V30 706 C 62.2181 -1.90777 -0.648578 0
M  V30 707 O 61.2741 -2.0929 -1.41258 0
M  V30 708 C 62.5871 -2.40237 1.8085 0
M  V30 709 C 64.1351 -2.53961 1.82955 0
M  V30 710 C 64.6101 -3.57194 2.86664 0
M  V30 711 N 66.1011 -3.64702 2.85563 0
M  V30 712 C 66.8361 -4.44309 3.6246 0
M  V30 713 N 66.3321 -5.27514 4.49111 0
M  V30 714 N 68.1251 -4.39084 3.50944 0
M  V30 715 H 60.2761 -0.837882 1.95175 0
M  V30 716 H 62.5391 -0.430608 0.84456 0
M  V30 717 H 62.2451 -2.10176 2.81991 0
M  V30 718 H 62.1191 -3.39601 1.64168 0
M  V30 719 H 64.5061 -2.83338 0.824855 0
M  V30 720 H 64.5871 -1.54706 2.03715 0
M  V30 721 H 64.2311 -3.28558 3.87314 0
M  V30 722 H 64.1611 -4.5613 2.6316 0
M  V30 723 H 66.6521 -3.05289 2.22727 0
M  V30 724 H 66.9651 -5.85411 5.04493 0
M  V30 725 H 65.3101 -5.2693 4.53178 0
M  V30 726 H 68.5011 -3.7313 2.82651 0
M  V30 727 H 68.6741 -5.00883 4.11121 0
M  V30 728 N 62.0802 -0.821533 -1.34494 0
M  V30 729 C 63.3082 -0.421884 -2.02553 0
M  V30 730 C 63.7232 0.971745 -1.61872 0
M  V30 731 O 63.0802 1.62864 -0.823496 0
M  V30 732 C 63.1312 -0.51285 -3.57844 0
M  V30 733 O 62.8522 -1.85155 -3.97051 0
M  V30 734 C 64.3532 -0.107921 -4.43169 0
M  V30 735 H 61.5732 -0.169482 -0.649243 0
M  V30 736 H 64.1172 -1.1093 -1.71798 0
M  V30 737 H 62.2722 0.126474 -3.87193 0
M  V30 738 H 62.6862 -1.82482 -4.91732 0
M  V30 739 H 64.1602 -0.222657 -5.51551 0
M  V30 740 H 64.6372 0.948401 -4.28838 0
M  V30 741 H 65.2432 -0.720989 -4.19144 0
M  V30 742 N 63.5583 1.46682 -0.576371 0
M  V30 743 C 64.9743 1.57822 -0.237562 0
M  V30 744 C 65.1743 1.57237 1.26011 0
M  V30 745 O 64.2303 1.48596 2.04146 0
M  V30 746 C 65.5433 2.87499 -0.881168 0
M  V30 747 C 67.0913 3.01119 -0.85417 0
M  V30 748 C 67.5663 4.33524 -1.4772 0
M  V30 749 N 69.0573 4.40207 -1.44125 0
M  V30 750 C 69.7923 5.4126 -1.89276 0
M  V30 751 N 69.2883 6.49021 -2.42371 0
M  V30 752 N 71.0813 5.32422 -1.80231 0
M  V30 753 H 63.2323 1.45306 -1.54919 0
M  V30 754 H 65.4953 0.692733 -0.647167 0
M  V30 755 H 65.2013 2.9372 -1.93447 0
M  V30 756 H 65.0753 3.75224 -0.385592 0
M  V30 757 H 67.4623 2.94485 0.190491 0
M  V30 758 H 67.5433 2.14887 -1.3877 0
M  V30 759 H 67.1873 4.40916 -2.52103 0
M  V30 760 H 67.1173 5.1852 -0.918947 0
M  V30 761 H 69.6083 3.62931 -1.05307 0
M  V30 762 H 69.9213 7.2233 -2.74698 0
M  V30 763 H 68.2663 6.49858 -2.46393 0
M  V30 764 H 71.4573 4.47137 -1.38514 0
M  V30 765 H 71.6303 6.11034 -2.15735 0
M  V30 766 N 65.0364 0.313813 1.54444 0
M  V30 767 C 65.9994 -0.54379 2.22656 0
M  V30 768 C 66.9994 -1.05124 1.21678 0
M  V30 769 O 68.1894 -0.945225 1.46325 0
M  V30 770 C 65.3214 -1.75427 2.92298 0
M  V30 771 H 66.5144 0.0523599 2.99854 0
M  V30 772 H 64.0674 0.0647834 1.56166 0
M  V30 773 H 64.8024 -2.38991 2.19211 0
M  V30 774 H 64.5874 -1.39791 3.66334 0
M  V30 775 H 66.0774 -2.36325 3.44297 0
M  V30 776 N 66.5145 -1.57545 0.0417849 0
M  V30 777 C 67.4475 -2.06514 -0.970928 0
M  V30 778 C 68.4255 -0.963607 -1.30971 0
M  V30 779 O 69.6095 -1.23486 -1.4242 0
M  V30 780 C 66.7365 -2.4978 -2.28752 0
M  V30 781 C 65.7825 -3.71078 -2.10246 0
M  V30 782 S 66.6155 -5.17158 -1.38952 0
M  V30 783 C 67.7715 -5.6373 -2.71954 0
M  V30 784 H 68.0045 -2.9209 -0.554129 0
M  V30 785 H 65.5375 -1.53459 -0.17024 0
M  V30 786 H 67.4955 -2.75371 -3.04435 0
M  V30 787 H 66.1565 -1.64527 -2.67562 0
M  V30 788 H 65.3495 -3.9924 -3.07609 0
M  V30 789 H 64.9515 -3.45705 -1.42704 0
M  V30 790 H 67.2435 -5.68743 -3.68154 0
M  V30 791 H 68.1865 -6.63086 -2.4844 0
M  V30 792 H 68.5945 -4.91424 -2.77782 0
M  V30 793 N 67.9926 0.231505 -1.5589 0
M  V30 794 C 68.9246 1.31006 -1.8807 0
M  V30 795 C 69.9376 1.43539 -0.768145 0
M  V30 796 O 71.1266 1.44614 -1.04638 0
M  V30 797 C 68.2266 2.68688 -2.06543 0
M  V30 798 C 67.3996 2.78228 -3.37502 0
M  V30 799 C 66.4586 3.96857 -3.4553 0
M  V30 800 O 65.4846 3.85662 -4.18633 0
M  V30 801 N 66.6866 5.1072 -2.75944 0
M  V30 802 H 69.4516 1.03731 -2.81176 0
M  V30 803 H 67.0126 0.421573 -1.56315 0
M  V30 804 H 69.0046 3.46412 -2.09239 0
M  V30 805 H 67.5746 2.88605 -1.20109 0
M  V30 806 H 66.7946 1.87059 -3.46991 0
M  V30 807 H 68.0826 2.81564 -4.23791 0
M  V30 808 H 67.4806 5.2271 -2.16311 0
M  V30 809 H 66.0376 5.86523 -2.84314 0
M  V30 810 N 69.4707 1.49531 0.497807 0
M  V30 811 C 70.7477 1.49682 1.25915 0
M  V30 812 C 71.1277 0.226339 2.09883 0
M  V30 813 O 70.4757 -0.791189 2.14365 0
M  V30 814 C 70.6857 2.77755 2.11313 0
M  V30 815 C 72.0337 3.27371 2.70395 0
M  V30 816 O 73.0577 2.78894 2.21578 0
M  V30 817 O 71.9167 4.11808 3.59272 0
M  V30 818 H 69.0107 0.599228 0.56996 0
M  V30 819 H 71.5567 1.61798 0.511816 0
M  V30 820 H 70.3287 3.61713 1.49264 0
M  V30 821 H 69.9517 2.68515 2.93233 0
M  V30 822 N 70.9488 -0.749086 1.3866 0
M  V30 823 C 72.3648 -1.05276 1.19955 0
M  V30 824 C 72.5648 -2.01435 0.05134 0
M  V30 825 O 71.6208 -2.45232 -0.60147 0
M  V30 826 C 72.9338 -1.62853 2.52783 0
M  V30 827 C 74.4818 -1.75002 2.59506 0
M  V30 828 C 74.9568 -2.35991 3.92521 0
M  V30 829 N 76.4478 -2.43416 3.94085 0
M  V30 830 C 77.1828 -2.91511 4.9377 0
M  V30 831 N 76.6788 -3.39608 6.03853 0
M  V30 832 N 78.4718 -2.90592 4.81157 0
M  V30 833 H 70.6228 -0.111066 2.12109 0
M  V30 834 H 72.8858 -0.111901 0.941373 0
M  V30 835 H 72.5918 -0.99664 3.37283 0
M  V30 836 H 72.4658 -2.61854 2.715 0
M  V30 837 H 74.8528 -2.37317 1.75398 0
M  V30 838 H 74.9338 -0.74693 2.44652 0
M  V30 839 H 74.5778 -1.74308 4.77053 0
M  V30 840 H 74.5078 -3.3695 4.04688 0
M  V30 841 H 76.9988 -2.09405 3.14576 0
M  V30 842 H 77.3118 -3.74775 6.75843 0
M  V30 843 H 75.6568 -3.37653 6.07466 0
M  V30 844 H 78.8478 -2.52332 3.94267 0
M  V30 845 H 79.0208 -3.27762 5.58996 0
M  V30 846 N 72.4269 -1.23603 -0.977757 0
M  V30 847 C 73.6569 -1.09487 -1.75203 0
M  V30 848 C 74.0649 0.356321 -1.85814 0
M  V30 849 O 73.4079 1.25816 -1.33851 0
M  V30 850 C 73.4699 -1.64905 -3.19447 0
M  V30 851 C 73.1339 -3.13688 -3.32338 0
M  V30 852 C 74.1309 -4.10953 -3.18455 0
M  V30 853 C 71.8159 -3.53449 -3.56902 0
M  V30 854 C 73.8099 -5.45962 -3.28944 0
M  V30 855 C 71.4969 -4.88602 -3.6703 0
M  V30 856 C 72.4949 -5.84668 -3.53062 0
M  V30 857 O 72.1829 -7.17365 -3.62826 0
M  V30 858 H 71.9149 -0.38367 -0.556573 0
M  V30 859 H 74.4689 -1.6398 -1.23693 0
M  V30 860 H 72.6989 -1.04835 -3.72218 0
M  V30 861 H 74.3879 -1.46226 -3.78646 0
M  V30 862 H 75.1539 -3.81577 -2.99372 0
M  V30 863 H 71.0329 -2.79188 -3.66844 0
M  V30 864 H 74.5769 -6.20925 -3.17958 0
M  V30 865 H 70.4739 -5.17653 -3.85623 0
M  V30 866 H 71.2419 -7.2515 -3.79605 0
M  V30 867 N 73.905 1.17692 -1.04816 0
M  V30 868 C 74.838 2.20436 -0.590173 0
M  V30 869 C 75.816 1.58115 0.379244 0
M  V30 870 O 77 1.86228 0.291762 0
M  V30 871 C 74.127 3.38424 0.136817 0
M  V30 872 C 73.173 4.19176 -0.787023 0
M  V30 873 S 74.006 4.84815 -2.27409 0
M  V30 874 C 75.162 6.06195 -1.55817 0
M  V30 875 H 75.395 2.58944 -1.46067 0
M  V30 876 H 72.928 1.28246 -0.859784 0
M  V30 877 H 74.886 4.06798 0.550076 0
M  V30 878 H 73.547 2.98312 0.983299 0
M  V30 879 H 72.74 5.03499 -0.224681 0
M  V30 880 H 72.342 3.56219 -1.13947 0
M  V30 881 H 74.634 6.72078 -0.855387 0
M  V30 882 H 75.577 6.6695 -2.37873 0
M  V30 883 H 75.985 5.54701 -1.04722 0
M  V30 884 N 75.3831 0.828654 1.34056 0
M  V30 885 C 76.2931 0.256725 2.33191 0
M  V30 886 C 77.3091 -0.611898 1.62886 0
M  V30 887 O 78.4851 -0.51844 1.94613 0
M  V30 888 C 75.5501 -0.567238 3.42028 0
M  V30 889 C 74.6111 0.324458 4.28072 0
M  V30 890 C 73.8441 -0.460274 5.31712 0
M  V30 891 O 74.0671 -1.693 5.44696 0
M  V30 892 O 73.0011 0.160391 6.01686 0
M  V30 893 H 76.8271 1.07739 2.83947 0
M  V30 894 H 74.4121 0.59093 1.37217 0
M  V30 895 H 76.2941 -1.03582 4.08471 0
M  V30 896 H 74.9691 -1.36513 2.93506 0
M  V30 897 H 73.8761 0.840659 3.64532 0
M  V30 898 H 75.2091 1.08685 4.8005 0
M  V30 899 N 76.8612 -1.46375 0.584142 0
M  V30 900 C 78.1072 -2.02678 0.0703716 0
M  V30 901 C 78.4402 -1.4545 -1.28678 0
M  V30 902 O 77.7152 -0.62014 -1.84349 0
M  V30 903 C 77.9982 -3.60099 0.00614674 0
M  V30 904 C 77.8512 -4.27709 1.3923 0
M  V30 905 C 79.1702 -4.34598 -0.693742 0
M  V30 906 H 76.2892 -0.736504 0.027047 0
M  V30 907 H 78.9312 -1.74501 0.751615 0
M  V30 908 H 77.0812 -3.84236 -0.574009 0
M  V30 909 H 78.7532 -4.14832 2.01773 0
M  V30 910 H 76.9962 -3.87016 1.95962 0
M  V30 911 H 77.6672 -5.36478 1.29982 0
M  V30 912 H 80.1432 -4.15615 -0.200869 0
M  V30 913 H 79.0192 -5.44318 -0.707714 0
M  V30 914 H 79.2802 -4.05759 -1.75533 0
M  V30 915 N 78.3393 -0.321999 -1.54275 0
M  V30 916 C 79.5643 0.285791 -2.05422 0
M  V30 917 C 79.9893 1.45124 -1.19669 0
M  V30 918 O 79.3473 1.80132 -0.205441 0
M  V30 919 C 79.3953 0.69956 -3.53749 0
M  V30 920 O 78.4993 1.8021 -3.70942 0
M  V30 921 H 77.8403 0.0518962 -0.661969 0
M  V30 922 H 80.3703 -0.469954 -1.9913 0
M  V30 923 H 80.3803 0.982649 -3.9599 0
M  V30 924 H 79.0553 -0.152864 -4.15619 0
M  V30 925 H 77.6323 1.51794 -3.40607 0
M  V30 926 N 79.8174 1.5752 -0.0501392 0
M  V30 927 C 81.0654 1.9227 0.622642 0
M  V30 928 C 81.3864 0.929083 1.71444 0
M  V30 929 O 80.6564 -0.0262186 1.95882 0
M  V30 930 H 79.2364 0.709739 0.232981 0
M  V30 931 H 81.8984 1.94628 -0.102898 0
M  V30 932 H 80.9944 2.93479 1.06191 0
M  V30 933 N 81.2955 -0.223234 1.56011 0
M  V30 934 C 82.2435 -1.29627 1.93131 0
M  V30 935 C 83.2375 -1.48608 0.813146 0
M  V30 936 O 84.4435 -1.49802 0.997966 0
M  V30 937 H 80.8185 -0.434563 0.613726 0
M  V30 938 H 82.7895 -0.955995 2.82672 0
M  V30 939 C 81.5385 -2.63983 2.26292 0
M  V30 940 H 80.8615 -2.50185 3.11846 0
M  V30 941 H 82.3015 -3.3788 2.56151 0
M  V30 942 C 80.7605 -3.18866 1.08747 0
M  V30 943 O 81.2905 -4.00192 0.347727 0
M  V30 944 N 79.4965 -2.77217 0.871743 0
M  V30 945 H 79.0435 -2.1119 1.47501 0
M  V30 946 H 79.0015 -3.1428 0.0869905 0
M  V30 947 N 82.7736 -1.49793 -0.48987 0
M  V30 948 C 83.7036 -1.70201 -1.59856 0
M  V30 949 C 84.6846 -0.55076 -1.60937 0
M  V30 950 O 85.8696 -0.787841 -1.77501 0
M  V30 951 C 82.9996 -1.77882 -2.98287 0
M  V30 952 C 81.9536 -2.92907 -3.12073 0
M  V30 953 C 81.2796 -2.85712 -4.51965 0
M  V30 954 C 82.5796 -4.3369 -2.91051 0
M  V30 955 H 84.2736 -2.63025 -1.43032 0
M  V30 956 H 81.8196 -1.26574 -0.686664 0
M  V30 957 H 83.7726 -1.90744 -3.75759 0
M  V30 958 H 82.4966 -0.816653 -3.16225 0
M  V30 959 H 81.1556 -2.79665 -2.37029 0
M  V30 960 H 80.8036 -1.8738 -4.66795 0
M  V30 961 H 80.5036 -3.62921 -4.62128 0
M  V30 962 H 82.0276 -3.00598 -5.31482 0
M  V30 963 H 83.4416 -4.47555 -3.58284 0
M  V30 964 H 81.8386 -5.12205 -3.12675 0
M  V30 965 H 82.9086 -4.47362 -1.87071 0
M  V30 966 N 84.2517 0.741722 -1.39055 0
M  V30 967 C 85.6677 1.04638 -1.20512 0
M  V30 968 C 85.8677 2.01405 -0.0620218 0
M  V30 969 O 84.9237 2.45547 0.588457 0
M  V30 970 C 86.2367 1.6151 -2.53643 0
M  V30 971 C 87.7847 1.73623 -2.6043 0
M  V30 972 C 88.2597 2.33906 -3.93767 0
M  V30 973 N 89.7507 2.41323 -3.9537 0
M  V30 974 C 90.4857 2.88888 -4.95309 0
M  V30 975 N 89.9817 3.36401 -6.05645 0
M  V30 976 N 91.7747 2.88037 -4.82692 0
M  V30 977 H 83.9257 0.0998155 -2.12165 0
M  V30 978 H 86.1887 0.106907 -0.941953 0
M  V30 979 H 85.8947 0.978739 -3.37807 0
M  V30 980 H 85.7687 2.60411 -2.72885 0
M  V30 981 H 88.1557 2.36384 -1.76655 0
M  V30 982 H 88.2367 0.733945 -2.45045 0
M  V30 983 H 87.8807 1.71776 -4.7797 0
M  V30 984 H 87.8107 3.34799 -4.06469 0
M  V30 985 H 90.3017 2.07734 -3.15682 0
M  V30 986 H 90.6147 3.71186 -6.77821 0
M  V30 987 H 88.9597 3.34427 -6.09248 0
M  V30 988 H 92.1507 2.50237 -3.95599 0
M  V30 989 H 92.3237 3.24792 -5.60726 0
M  V30 990 N 85.7298 1.2412 0.971189 0
M  V30 991 C 87.0068 0.986867 1.6888 0
M  V30 992 C 87.3868 -0.491857 2.0529 0
M  V30 993 O 86.7348 -1.46531 1.75331 0
M  V30 994 C 86.9448 1.9063 2.92338 0
M  V30 995 C 88.2928 2.17515 3.64654 0
M  V30 996 O 89.3168 1.88254 3.02388 0
M  V30 997 O 88.1758 2.6719 4.7673 0
M  V30 998 H 85.2698 0.372944 0.738134 0
M  V30 999 H 87.8158 1.35203 1.02559 0
M  V30 1000 H 86.5878 2.90552 2.62097 0
M  V30 1001 H 86.2108 1.54408 3.66393 0
M  V30 1002 N 87.2079 -1.17134 1.05439 0
M  V30 1003 C 88.1379 -2.2342 0.678649 0
M  V30 1004 C 89.1189 -1.66971 -0.32476 0
M  V30 1005 O 90.3039 -1.93149 -0.201802 0
M  V30 1006 C 87.4339 -3.47256 0.0552099 0
M  V30 1007 C 86.3879 -4.16543 0.98365 0
M  V30 1008 C 85.7139 -5.34231 0.223961 0
M  V30 1009 C 87.0139 -4.68495 2.3089 0
M  V30 1010 H 88.7079 -2.55105 1.56722 0
M  V30 1011 H 86.2539 -1.2262 0.754998 0
M  V30 1012 H 88.2069 -4.20828 -0.21946 0
M  V30 1013 H 86.9309 -3.14846 -0.868319 0
M  V30 1014 H 85.5899 -3.44887 1.24293 0
M  V30 1015 H 85.2379 -4.98071 -0.702412 0
M  V30 1016 H 84.9379 -5.81527 0.842627 0
M  V30 1017 H 86.4619 -6.10585 -0.0433671 0
M  V30 1018 H 87.8759 -5.33691 2.09396 0
M  V30 1019 H 86.2729 -5.26379 2.88176 0
M  V30 1020 H 87.3429 -3.85169 2.94572 0
M  V30 1021 N 88.686 -0.835752 -1.33615 0
M  V30 1022 C 89.916 -0.442701 -2.01801 0
M  V30 1023 C 90.324 0.959807 -1.63047 0
M  V30 1024 O 89.667 1.63468 -0.838088 0
M  V30 1025 C 89.729 -0.480125 -3.56279 0
M  V30 1026 C 89.393 -1.8382 -4.18401 0
M  V30 1027 C 90.39 -2.80097 -4.37998 0
M  V30 1028 C 88.075 -2.13019 -4.54894 0
M  V30 1029 C 90.069 -4.03736 -4.9323 0
M  V30 1030 C 87.756 -3.36916 -5.09834 0
M  V30 1031 C 88.754 -4.32091 -5.28948 0
M  V30 1032 O 88.442 -5.53797 -5.82721 0
M  V30 1033 H 88.174 -0.17441 -0.653114 0
M  V30 1034 H 90.728 -1.129 -1.71589 0
M  V30 1035 H 88.958 0.262931 -3.85805 0
M  V30 1036 H 90.647 -0.105335 -4.05763 0
M  V30 1037 H 91.413 -2.58838 -4.10156 0
M  V30 1038 H 87.292 -1.39733 -4.39313 0
M  V30 1039 H 90.836 -4.78034 -5.08064 0
M  V30 1040 H 86.733 -3.58033 -5.37106 0
M  V30 1041 H 87.501 -5.55494 -6.0114 0
M  V30 1042 N 90.1641 1.46063 -0.591896 0
M  V30 1043 C 91.4411 1.95595 -0.0137119 0
M  V30 1044 C 91.8211 1.5345 1.4497 0
M  V30 1045 O 91.1691 0.789543 2.14426 0
M  V30 1046 C 91.3791 3.48453 -0.195373 0
M  V30 1047 C 92.7271 4.24546 -0.0679765 0
M  V30 1048 O 93.7511 3.55982 -0.124681 0
M  V30 1049 O 92.6101 5.46467 0.0600579 0
M  V30 1050 H 89.7041 0.825795 0.0446279 0
M  V30 1051 H 92.2501 1.56303 -0.660859 0
M  V30 1052 H 91.0221 3.72045 -1.21235 0
M  V30 1053 H 90.6451 3.94597 0.487775 0
M  V30 1054 N 91.6422 0.330177 1.54103 0
M  V30 1055 C 92.9192 -0.325007 1.92881 0
M  V30 1056 C 93.2992 -1.6934 1.26045 0
M  V30 1057 O 92.6472 -2.24855 0.406526 0
M  V30 1058 C 92.8572 -0.410634 3.46576 0
M  V30 1059 C 94.2052 -0.667801 4.19316 0
M  V30 1060 O 95.2292 -0.49329 3.52768 0
M  V30 1061 O 94.0882 -1.00491 5.37181 0
M  V30 1062 H 91.1822 -0.186873 0.80561 0
M  V30 1063 H 93.7282 0.380376 1.65382 0
M  V30 1064 H 92.5002 0.550164 3.87413 0
M  V30 1065 H 92.1232 -1.16333 3.802 0
M  V30 1066 N 93.1203 -1.57491 0.0584922 0
M  V30 1067 C 94.0673 -2.11958 -0.913376 0
M  V30 1068 C 95.0373 -1.02875 -1.30407 0
M  V30 1069 O 96.2223 -1.30464 -1.39226 0
M  V30 1070 C 93.3623 -2.67497 -2.18035 0
M  V30 1071 C 92.4753 -3.90691 -1.84349 0
M  V30 1072 C 91.6103 -4.3452 -3.05559 0
M  V30 1073 C 90.6493 -5.50395 -2.67827 0
M  V30 1074 N 89.7863 -5.89244 -3.81754 0
M  V30 1075 H 94.6263 -2.94704 -0.442017 0
M  V30 1076 H 92.1633 -1.45643 -0.206545 0
M  V30 1077 H 94.1213 -2.978 -2.92183 0
M  V30 1078 H 92.7513 -1.87537 -2.62735 0
M  V30 1079 H 91.8033 -3.66934 -1.00319 0
M  V30 1080 H 93.1153 -4.7489 -1.5258 0
M  V30 1081 H 92.2693 -4.66414 -3.87998 0
M  V30 1082 H 91.0083 -3.49147 -3.40511 0
M  V30 1083 H 90.0133 -5.18165 -1.83806 0
M  V30 1084 H 91.2383 -6.3749 -2.34059 0
M  V30 1085 H 89.1843 -5.06823 -4.16493 0
M  V30 1086 H 89.1013 -6.68151 -3.53708 0
M  V30 1087 H 90.3693 -6.25756 -4.64811 0
M  V30 1088 N 94.5984 0.214957 -1.56127 0
M  V30 1089 C 95.8754 0.963093 -1.70247 0
M  V30 1090 C 96.2554 2.02166 -0.60764 0
M  V30 1091 O 95.6034 2.25244 0.384385 0
M  V30 1092 C 95.8134 1.56756 -3.11815 0
M  V30 1093 C 97.1614 2.0573 -3.7143 0
M  V30 1094 O 98.1854 1.66637 -3.14818 0
M  V30 1095 O 97.0444 2.77603 -4.70743 0
M  V30 1096 H 94.1384 0.450321 -0.693643 0
M  V30 1097 H 96.6844 0.206219 -1.68442 0
M  V30 1098 H 95.4564 0.803533 -3.82961 0
M  V30 1099 H 95.0794 2.3898 -3.17765 0
M  V30 1100 N 96.0765 1.50051 0.48192 0
M  V30 1101 C 97.3245 1.60181 1.23234 0
M  V30 1102 C 97.6455 0.299176 1.92691 0
M  V30 1103 O 96.9155 -0.682708 1.83619 0
M  V30 1104 H 95.4955 0.590232 0.457859 0
M  V30 1105 H 98.1575 1.86775 0.556881 0
M  V30 1106 H 97.2535 2.40753 1.98607 0
M  V30 1107 N 97.5546 -0.734337 1.39446 0
M  V30 1108 C 98.4846 -1.86155 1.40955 0
M  V30 1109 C 99.4656 -1.67898 0.272827 0
M  V30 1110 O 100.651 -1.88207 0.478743 0
M  V30 1111 C 97.7806 -3.23912 1.25294 0
M  V30 1112 C 96.7346 -3.56808 2.36373 0
M  V30 1113 C 96.0606 -4.93508 2.058 0
M  V30 1114 C 97.3606 -3.59713 3.78687 0
M  V30 1115 H 99.0546 -1.8515 2.35287 0
M  V30 1116 H 96.6006 -0.889367 1.13253 0
M  V30 1117 H 98.5536 -4.02443 1.2497 0
M  V30 1118 H 97.2776 -3.25446 0.274308 0
M  V30 1119 H 95.9366 -2.80606 2.35914 0
M  V30 1120 H 95.5846 -4.91623 1.06374 0
M  V30 1121 H 95.2846 -5.16486 2.80208 0
M  V30 1122 H 96.8086 -5.74396 2.07128 0
M  V30 1123 H 98.2226 -4.2832 3.81071 0
M  V30 1124 H 96.6196 -3.94209 4.52459 0
M  V30 1125 H 97.6896 -2.59504 4.09617 0
M  V30 1126 N 99.0327 -1.24633 -0.964593 0
M  V30 1127 C 100.449 -1.01239 -1.2338 0
M  V30 1128 C 100.649 0.2769 -1.99588 0
M  V30 1129 O 99.7047 0.992241 -2.32187 0
M  V30 1130 C 101.018 -2.22937 -2.01791 0
M  V30 1131 C 102.566 -2.27594 -2.14872 0
M  V30 1132 C 103.041 -3.48921 -2.96678 0
M  V30 1133 N 104.532 -3.49257 -3.04259 0
M  V30 1134 C 105.267 -4.39795 -3.67924 0
M  V30 1135 N 104.763 -5.40591 -4.33281 0
M  V30 1136 N 106.556 -4.275 -3.64966 0
M  V30 1137 H 98.7067 -2.0748 -0.454502 0
M  V30 1138 H 100.97 -0.910647 -0.26349 0
M  V30 1139 H 100.676 -3.16587 -1.53184 0
M  V30 1140 H 100.55 -2.25306 -3.02518 0
M  V30 1141 H 102.937 -1.34473 -2.6268 0
M  V30 1142 H 103.018 -2.2925 -1.13482 0
M  V30 1143 H 102.662 -4.42359 -2.49562 0
M  V30 1144 H 102.592 -3.4451 -3.98272 0
M  V30 1145 H 105.083 -2.76337 -2.57771 0
M  V30 1146 H 105.396 -6.05904 -4.79687 0
M  V30 1147 H 103.741 -5.44475 -4.3194 0
M  V30 1148 H 106.932 -3.47987 -3.13086 0
M  V30 1149 H 107.105 -4.98258 -4.14298 0
M  V30 1150 N 100.511 1.16574 -1.06058 0
M  V30 1151 C 101.458 2.20883 -0.669263 0
M  V30 1152 C 102.428 1.62729 0.332918 0
M  V30 1153 O 103.613 1.895 0.222346 0
M  V30 1154 C 100.753 3.45049 -0.0593572 0
M  V30 1155 C 99.8658 4.17458 -1.11143 0
M  V30 1156 C 99.0008 5.29135 -0.467916 0
M  V30 1157 C 98.0398 5.93343 -1.50369 0
M  V30 1158 N 97.1768 6.96516 -0.883706 0
M  V30 1159 H 102.017 2.53709 -1.5632 0
M  V30 1160 H 99.5538 1.24616 -0.781625 0
M  V30 1161 H 101.512 4.16033 0.311771 0
M  V30 1162 H 100.142 3.12781 0.797992 0
M  V30 1163 H 99.1938 3.45101 -1.60029 0
M  V30 1164 H 100.506 4.61307 -1.89731 0
M  V30 1165 H 99.6598 6.06684 -0.0436871 0
M  V30 1166 H 98.3988 4.86443 0.349864 0
M  V30 1167 H 97.4038 5.14517 -1.93784 0
M  V30 1168 H 98.6288 6.38114 -2.32352 0
M  V30 1169 H 96.5748 6.55943 -0.086595 0
M  V30 1170 H 96.4918 7.38723 -1.607 0
M  V30 1171 H 97.7598 7.77993 -0.484543 0
M  V30 1172 N 101.989 0.842826 1.3317 0
M  V30 1173 C 102.899 0.281444 2.32906 0
M  V30 1174 C 103.915 -0.594587 1.63526 0
M  V30 1175 O 105.091 -0.49777 1.95152 0
M  V30 1176 C 102.156 -0.530929 3.42611 0
M  V30 1177 C 101.217 0.369843 4.27704 0
M  V30 1178 C 100.45 -0.403853 5.3217 0
M  V30 1179 O 100.673 -1.63513 5.46461 0
M  V30 1180 O 99.6069 0.224199 6.01482 0
M  V30 1181 H 103.433 1.10744 2.82789 0
M  V30 1182 H 101.018 0.60545 1.36582 0
M  V30 1183 H 102.9 -0.992437 4.09547 0
M  V30 1184 H 101.575 -1.33392 2.94938 0
M  V30 1185 H 100.482 0.879275 3.6362 0
M  V30 1186 H 101.815 1.13771 4.78871 0
M  V30 1187 N 103.467 -1.45747 0.599634 0
M  V30 1188 C 104.377 -2.34262 -0.125888 0
M  V30 1189 C 105.393 -1.50768 -0.868625 0
M  V30 1190 O 106.569 -1.83592 -0.828003 0
M  V30 1191 C 103.634 -3.28252 -1.11587 0
M  V30 1192 C 102.695 -4.27651 -0.375956 0
M  V30 1193 C 101.928 -5.1715 -1.31877 0
M  V30 1194 O 102.151 -5.09916 -2.55621 0
M  V30 1195 O 101.085 -5.96286 -0.820157 0
M  V30 1196 H 104.911 -2.97688 0.601315 0
M  V30 1197 H 102.496 -1.44999 0.359934 0
M  V30 1198 H 104.378 -3.86191 -1.68626 0
M  V30 1199 H 103.053 -2.67401 -1.82424 0
M  V30 1200 H 101.96 -3.7335 0.236698 0
M  V30 1201 H 103.293 -4.91334 0.29177 0
M  V30 1202 N 104.945 -0.338344 -1.53925 0
M  V30 1203 C 105.875 0.51328 -2.27789 0
M  V30 1204 C 106.856 1.107 -1.29149 0
M  V30 1205 O 108.041 1.12937 -1.57984 0
M  V30 1206 C 105.171 1.66697 -3.04679 0
M  V30 1207 C 104.125 1.20183 -4.1078 0
M  V30 1208 C 103.451 2.44363 -4.75595 0
M  V30 1209 C 104.751 0.30605 -5.21403 0
M  V30 1210 H 106.445 -0.102883 -2.99223 0
M  V30 1211 H 103.991 -0.0509219 -1.4391 0
M  V30 1212 H 105.944 2.26915 -3.55088 0
M  V30 1213 H 104.668 2.30995 -2.30887 0
M  V30 1214 H 103.327 0.622499 -3.61276 0
M  V30 1215 H 102.975 3.07057 -3.98403 0
M  V30 1216 H 102.675 2.13925 -5.47275 0
M  V30 1217 H 104.199 3.05317 -5.28786 0
M  V30 1218 H 105.613 0.814929 -5.67478 0
M  V30 1219 H 104.01 0.0937929 -6.00027 0
M  V30 1220 H 105.08 -0.65921 -4.80398 0
M  V30 1221 N 106.423 1.57458 -0.0668435 0
M  V30 1222 C 107.371 2.13639 0.919851 0
M  V30 1223 C 108.365 1.07204 1.31163 0
M  V30 1224 O 109.571 1.25591 1.28945 0
M  V30 1225 H 105.946 0.683048 0.314562 0
M  V30 1226 H 107.917 2.95415 0.421047 0
M  V30 1227 C 106.666 2.70892 2.17975 0
M  V30 1228 H 105.989 3.5246 1.88711 0
M  V30 1229 H 107.429 3.13803 2.85138 0
M  V30 1230 C 105.888 1.65414 2.93496 0
M  V30 1231 O 106.418 1.07619 3.87015 0
M  V30 1232 N 104.624 1.36564 2.56512 0
M  V30 1233 H 104.171 1.83751 1.80536 0
M  V30 1234 H 104.129 0.66223 3.07347 0
M  V30 1235 N 107.901 -0.206675 1.56239 0
M  V30 1236 C 108.864 -1.23976 1.92776 0
M  V30 1237 C 109.864 -1.39041 0.807729 0
M  V30 1238 O 111.054 -1.37051 1.0753 0
M  V30 1239 C 108.186 -2.61112 2.19165 0
M  V30 1240 H 109.379 -0.927764 2.85189 0
M  V30 1241 H 106.932 -0.447718 1.4975 0
M  V30 1242 H 107.667 -2.97386 1.29352 0
M  V30 1243 H 107.452 -2.51552 3.00772 0
M  V30 1244 H 108.942 -3.35633 2.48476 0
M  V30 1245 N 109.379 -1.50304 -0.473955 0
M  V30 1246 C 110.628 -1.60392 -1.22301 0
M  V30 1247 C 110.941 -0.308411 -1.93153 0
M  V30 1248 O 112.147 -0.288156 -2.69966 0
M  V30 1249 C 110.603 -2.83109 -2.2221 0
M  V30 1250 C 110.211 -4.19524 -1.57173 0
M  V30 1251 C 111.955 -3.0254 -2.97775 0
M  V30 1252 C 109.862 -5.33431 -2.55353 0
M  V30 1253 H 108.792 -0.597286 -0.460179 0
M  V30 1254 H 111.443 -1.76731 -0.493803 0
M  V30 1255 H 109.825 -2.60322 -2.9841 0
M  V30 1256 H 110.999 -4.52554 -0.867824 0
M  V30 1257 H 109.314 -4.05674 -0.939002 0
M  V30 1258 H 111.911 -3.84811 -3.71248 0
M  V30 1259 H 112.254 -2.14154 -3.56992 0
M  V30 1260 H 112.787 -3.25494 -2.28688 0
M  V30 1261 H 109.526 -6.23962 -2.00878 0
M  V30 1262 H 109.046 -5.04823 -3.23904 0
M  V30 1263 H 110.725 -5.63887 -3.17239 0
M  V30 1264 N 110.857 0.726932 -1.39834 0
M  V30 1265 C 112.082 1.52121 -1.40976 0
M  V30 1266 C 112.507 1.88098 -0.00826029 0
M  V30 1267 O 111.865 1.52479 0.980807 0
M  V30 1268 C 111.913 2.78021 -2.29644 0
M  V30 1269 O 111.017 3.74272 -1.73188 0
M  V30 1270 H 110.358 0.45908 -0.479731 0
M  V30 1271 H 112.888 0.896207 -1.83927 0
M  V30 1272 H 112.898 3.26671 -2.44438 0
M  V30 1273 H 111.573 2.51169 -3.31492 0
M  V30 1274 H 110.15 3.33073 -1.6768 0
M  V30 1275 N 112.336 1.25143 0.95797 0
M  V30 1276 C 113.584 1.09476 1.69881 0
M  V30 1277 C 113.905 -0.365502 1.91544 0
M  V30 1278 O 113.175 -1.25985 1.50015 0
M  V30 1279 H 111.755 0.402128 0.629525 0
M  V30 1280 H 114.417 1.57214 1.15194 0
M  V30 1281 H 113.513 1.60046 2.6794 0
M  V30 1282 N 113.814 -1.1601 1.06675 0
M  V30 1283 C 115.225 -1.68235 0.809565 0
M  V30 1284 C 115.576 -1.8454 -0.666303 0
M  V30 1285 O 114.701 -1.54374 -1.5165 0
M  V30 1286 C 115.296 -3.05585 1.46299 0
M  V30 1287 C 113.855 -3.54915 1.25349 0
M  V30 1288 C 113.002 -2.30804 1.53703 0
M  V30 1289 H 115.953 -1.00318 1.22971 0
M  V30 1290 H 115.974 -3.70174 0.880431 0
M  V30 1291 H 115.486 -2.93686 2.53713 0
M  V30 1292 H 113.587 -3.72067 0.199261 0
M  V30 1293 H 113.7 -4.36774 1.9689 0
M  V30 1294 H 112.064 -2.36007 0.957739 0
M  V30 1295 H 112.847 -2.21499 2.62284 0
M  V30 1296 N 115.292 -0.849877 -1.32721 0
M  V30 1297 C 116.24 -0.279745 -2.30912 0
M  V30 1298 C 117.234 0.594278 -1.58634 0
M  V30 1299 O 118.44 0.482613 -1.73409 0
M  V30 1300 H 114.815 -0.0717521 -0.748569 0
M  V30 1301 H 116.786 -1.12222 -2.76494 0
M  V30 1302 C 115.535 0.521108 -3.43773 0
M  V30 1303 H 114.858 -0.142141 -3.99547 0
M  V30 1304 H 116.298 0.885693 -4.14646 0
M  V30 1305 C 114.757 1.70442 -2.90605 0
M  V30 1306 O 115.287 2.8034 -2.87702 0
M  V30 1307 N 113.493 1.52991 -2.47067 0
M  V30 1308 H 113.04 0.635914 -2.49628 0
M  V30 1309 H 112.998 2.32311 -2.11847 0
M  V30 1310 N 116.77 1.45427 -0.607355 0
M  V30 1311 C 117.68 2.34325 0.113463 0
M  V30 1312 C 118.696 1.51226 0.860617 0
M  V30 1313 O 119.872 1.84029 0.818255 0
M  V30 1314 C 116.937 3.28839 1.09844 0
M  V30 1315 C 115.998 4.27844 0.353271 0
M  V30 1316 C 115.231 5.17842 1.29133 0
M  V30 1317 O 115.454 5.11264 2.52913 0
M  V30 1318 O 114.388 5.96713 0.788523 0
M  V30 1319 H 118.214 2.97364 -0.617094 0
M  V30 1320 H 115.799 1.44807 -0.367619 0
M  V30 1321 H 117.681 3.8708 1.66575 0
M  V30 1322 H 116.356 2.68365 1.81003 0
M  V30 1323 H 115.263 3.7322 -0.256494 0
M  V30 1324 H 116.596 4.91173 -0.317822 0
M  V30 1325 N 118.248 0.346503 1.53744 0
M  V30 1326 C 119.495 -0.249104 2.00962 0
M  V30 1327 C 119.823 -1.5032 1.23426 0
M  V30 1328 O 119.078 -1.93217 0.310761 0
M  V30 1329 C 119.377 -0.605809 3.52228 0
M  V30 1330 C 119.043 0.551747 4.47512 0
M  V30 1331 C 117.705 0.86941 4.73281 0
M  V30 1332 C 120.057 1.32818 5.03993 0
M  V30 1333 C 117.385 1.96582 5.52786 0
M  V30 1334 C 119.737 2.41486 5.84694 0
M  V30 1335 C 118.401 2.73808 6.08757 0
M  V30 1336 H 117.671 -0.0911538 0.735372 0
M  V30 1337 H 120.318 0.475027 1.85515 0
M  V30 1338 H 118.623 -1.4107 3.65522 0
M  V30 1339 H 120.32 -1.07858 3.86222 0
M  V30 1340 H 116.91 0.294102 4.2759 0
M  V30 1341 H 121.094 1.09602 4.84047 0
M  V30 1342 H 116.35 2.22045 5.69654 0
M  V30 1343 H 120.524 3.02078 6.27473 0
M  V30 1344 H 118.151 3.58892 6.7015 0
M  V30 1345 N 119.726 -1.57421 0.075193 0
M  V30 1346 C 120.689 -2.11791 -0.876203 0
M  V30 1347 C 121.689 -1.04268 -1.22412 0
M  V30 1348 O 122.879 -1.30242 -1.15684 0
M  V30 1349 C 120.011 -2.62207 -2.17854 0
M  V30 1350 H 121.204 -2.9716 -0.40444 0
M  V30 1351 H 118.757 -1.55333 -0.173557 0
M  V30 1352 H 119.492 -1.803 -2.6956 0
M  V30 1353 H 119.277 -3.40802 -1.93897 0
M  V30 1354 H 120.767 -3.04335 -2.85955 0
M  V30 1355 N 121.204 0.198386 -1.56346 0
M  V30 1356 C 122.114 1.2664 -1.97483 0
M  V30 1357 C 123.13 1.49989 -0.882002 0
M  V30 1358 O 124.306 1.62668 -1.18748 0
M  V30 1359 C 121.371 2.59141 -2.30319 0
M  V30 1360 C 120.432 2.43892 -3.53292 0
M  V30 1361 C 119.665 3.70074 -3.84553 0
M  V30 1362 O 119.888 4.74101 -3.1715 0
M  V30 1363 O 118.822 3.658 -4.7799 0
M  V30 1364 H 122.648 0.947304 -2.88548 0
M  V30 1365 H 120.233 0.403123 -1.43859 0
M  V30 1366 H 122.115 3.37352 -2.5253 0
M  V30 1367 H 120.79 2.90684 -1.42423 0
M  V30 1368 H 119.697 1.63803 -3.36332 0
M  V30 1369 H 121.03 2.17282 -4.41644 0
M  V30 1370 N 122.682 1.50554 0.465978 0
M  V30 1371 C 123.929 1.61798 1.21768 0
M  V30 1372 C 124.257 0.320696 1.91838 0
M  V30 1373 O 123.512 -0.693724 1.82992 0
M  V30 1374 C 123.811 2.75152 2.28093 0
M  V30 1375 C 123.477 4.15454 1.75239 0
M  V30 1376 C 122.139 4.53628 1.60546 0
M  V30 1377 C 124.491 5.03121 1.36083 0
M  V30 1378 C 121.819 5.77204 1.05128 0
M  V30 1379 C 124.171 6.27249 0.821056 0
M  V30 1380 C 122.835 6.64221 0.660795 0
M  V30 1381 H 122.105 0.592063 0.445582 0
M  V30 1382 H 124.752 1.84503 0.512927 0
M  V30 1383 H 123.057 2.46556 3.04496 0
M  V30 1384 H 124.754 2.81055 2.86023 0
M  V30 1385 H 121.344 3.85341 1.87644 0
M  V30 1386 H 125.528 4.74257 1.46267 0
M  V30 1387 H 120.784 6.0452 0.91462 0
M  V30 1388 H 124.958 6.94537 0.509018 0
M  V30 1389 H 122.585 7.59854 0.229226 0
M  V30 1390 N 124.16 -0.719506 1.40217 0
M  V30 1391 C 125.39 -1.50646 1.41384 0
M  V30 1392 C 125.798 -1.89197 0.0107743 0
M  V30 1393 O 125.141 -1.55709 -0.974708 0
M  V30 1394 C 125.203 -2.81405 2.23722 0
M  V30 1395 C 124.867 -2.65199 3.72181 0
M  V30 1396 C 125.864 -2.32717 4.64907 0
M  V30 1397 C 123.549 -2.81586 4.1595 0
M  V30 1398 C 125.543 -2.16827 5.99387 0
M  V30 1399 C 123.23 -2.65313 5.50502 0
M  V30 1400 C 124.228 -2.32981 6.42035 0
M  V30 1401 O 123.916 -2.16827 7.74107 0
M  V30 1402 H 123.648 -0.471606 0.484318 0
M  V30 1403 H 126.202 -0.895456 1.84853 0
M  V30 1404 H 124.432 -3.44823 1.75026 0
M  V30 1405 H 126.121 -3.43102 2.16878 0
M  V30 1406 H 126.887 -2.19694 4.32388 0
M  V30 1407 H 122.766 -3.0574 3.45027 0
M  V30 1408 H 126.31 -1.91513 6.70797 0
M  V30 1409 H 122.207 -2.7792 5.82607 0
M  V30 1410 H 122.975 -2.31778 7.84998 0
M  V30 1411 N 125.638 -1.25649 -0.95132 0
M  V30 1412 C 126.586 -1.06118 -2.06982 0
M  V30 1413 C 127.58 0.00889169 -1.69398 0
M  V30 1414 O 128.786 -0.146988 -1.79399 0
M  V30 1415 H 125.161 -0.326248 -0.677544 0
M  V30 1416 H 127.132 -2.00932 -2.2061 0
M  V30 1417 C 125.881 -0.700145 -3.40578 0
M  V30 1418 H 125.204 -1.51537 -3.69968 0
M  V30 1419 H 126.644 -0.603211 -4.19687 0
M  V30 1420 C 125.103 0.59403 -3.31622 0
M  V30 1421 O 125.633 1.63522 -3.66911 0
M  V30 1422 N 123.839 0.58089 -2.84735 0
M  V30 1423 H 123.386 -0.266783 -2.56215 0
M  V30 1424 H 123.344 1.44695 -2.79125 0
M  V30 1425 N 127.117 1.15442 -1.07289 0
M  V30 1426 C 128.533 1.38201 -0.798288 0
M  V30 1427 C 128.733 1.92429 0.597769 0
M  V30 1428 O 127.789 2.12962 1.3566 0
M  V30 1429 C 129.102 2.35357 -1.87156 0
M  V30 1430 C 130.65 2.49021 -1.89624 0
M  V30 1431 C 131.125 3.49468 -2.96034 0
M  V30 1432 N 132.616 3.57003 -2.95132 0
M  V30 1433 C 133.351 4.34543 -3.74112 0
M  V30 1434 N 132.847 5.15421 -4.6294 0
M  V30 1435 N 134.64 4.29625 -3.62462 0
M  V30 1436 H 126.791 0.78584 -1.97328 0
M  V30 1437 H 129.054 0.408065 -0.855679 0
M  V30 1438 H 128.76 2.02626 -2.87464 0
M  V30 1439 H 128.634 3.35129 -1.73114 0
M  V30 1440 H 131.021 2.81051 -0.899687 0
M  V30 1441 H 131.102 1.4925 -2.07745 0
M  V30 1442 H 130.746 3.18173 -3.95889 0
M  V30 1443 H 130.676 4.48992 -2.75161 0
M  V30 1444 H 133.167 2.99276 -2.30743 0
M  V30 1445 H 133.48 5.7183 -5.19837 0
M  V30 1446 H 131.825 5.14729 -4.66989 0
M  V30 1447 H 135.016 3.65505 -2.92444 0
M  V30 1448 H 135.189 4.89807 -4.24256 0
M  V30 1449 N 128.595 0.856903 1.32268 0
M  V30 1450 C 129.525 0.31858 2.31316 0
M  V30 1451 C 130.506 -0.583487 1.59779 0
M  V30 1452 O 131.691 -0.503259 1.87566 0
M  V30 1453 C 128.821 -0.491979 3.43798 0
M  V30 1454 C 127.775 0.315849 4.26833 0
M  V30 1455 C 127.101 -0.619586 5.31098 0
M  V30 1456 C 128.401 1.54282 4.98993 0
M  V30 1457 H 130.095 1.14621 2.76591 0
M  V30 1458 H 127.641 0.552613 1.32974 0
M  V30 1459 H 129.594 -0.879012 4.1213 0
M  V30 1460 H 128.318 -1.35299 2.97257 0
M  V30 1461 H 126.977 0.684664 3.6015 0
M  V30 1462 H 126.625 -1.47751 4.8081 0
M  V30 1463 H 126.325 -0.0830621 5.87541 0
M  V30 1464 H 127.849 -1.00375 6.02293 0
M  V30 1465 H 129.263 1.22796 5.59995 0
M  V30 1466 H 127.66 2.01745 5.65172 0
M  V30 1467 H 128.73 2.30285 4.26728 0
M  V30 1468 N 130.073 -1.45103 0.615059 0
M  V30 1469 C 131.02 -2.30586 -0.0993978 0
M  V30 1470 C 131.99 -1.42544 -0.852669 0
M  V30 1471 O 133.175 -1.71465 -0.836917 0
M  V30 1472 C 130.315 -3.27572 -1.08583 0
M  V30 1473 C 129.428 -4.30717 -0.332656 0
M  V30 1474 C 128.563 -5.14807 -1.30947 0
M  V30 1475 C 127.602 -6.09673 -0.544538 0
M  V30 1476 N 126.739 -6.86517 -1.47101 0
M  V30 1477 H 131.579 -2.91144 0.635542 0
M  V30 1478 H 129.116 -1.4346 0.325206 0
M  V30 1479 H 131.074 -3.82276 -1.67095 0
M  V30 1480 H 129.704 -2.68751 -1.78809 0
M  V30 1481 H 128.756 -3.78615 0.368107 0
M  V30 1482 H 130.068 -4.98102 0.263842 0
M  V30 1483 H 129.222 -5.73948 -1.96643 0
M  V30 1484 H 127.961 -4.47458 -1.9399 0
M  V30 1485 H 126.966 -5.49656 0.126003 0
M  V30 1486 H 128.191 -6.79052 0.080947 0
M  V30 1487 H 126.137 -6.21851 -2.08895 0
M  V30 1488 H 126.054 -7.50281 -0.928137 0
M  V30 1489 H 127.322 -7.50194 -2.11731 0
M  V30 1490 N 131.551 -0.354651 -1.53558 0
M  V30 1491 C 132.483 0.5315 -2.22952 0
M  V30 1492 C 133.496 1.05503 -1.23988 0
M  V30 1493 O 134.685 0.963279 -1.50277 0
M  V30 1494 C 131.785 1.74538 -2.90499 0
M  V30 1495 C 130.958 1.35524 -4.15875 0
M  V30 1496 C 130.017 2.42999 -4.66731 0
M  V30 1497 O 129.043 2.05844 -5.30676 0
M  V30 1498 N 130.245 3.74423 -4.43608 0
M  V30 1499 H 133.01 -0.0628615 -2.99634 0
M  V30 1500 H 130.571 -0.179302 -1.60904 0
M  V30 1501 H 132.563 2.45892 -3.21433 0
M  V30 1502 H 131.133 2.24686 -2.17336 0
M  V30 1503 H 130.353 0.471998 -3.91364 0
M  V30 1504 H 131.641 1.07071 -4.97406 0
M  V30 1505 H 131.039 4.07391 -3.92491 0
M  V30 1506 H 129.596 4.41913 -4.7912 0
M  V30 1507 N 133.029 1.57378 -0.0835403 0
M  V30 1508 C 134.278 1.93106 0.582498 0
M  V30 1509 C 134.591 0.96651 1.70053 0
M  V30 1510 O 135.797 1.21705 2.42693 0
M  V30 1511 C 134.253 3.43076 1.08751 0
M  V30 1512 C 133.861 4.48 -0.000146404 0
M  V30 1513 C 135.605 3.87785 1.72694 0
M  V30 1514 C 133.512 5.89113 0.519568 0
M  V30 1515 H 132.442 0.720775 0.221358 0
M  V30 1516 H 135.093 1.82821 -0.157675 0
M  V30 1517 H 133.475 3.48474 1.88101 0
M  V30 1518 H 134.649 4.54233 -0.775199 0
M  V30 1519 H 132.964 4.1283 -0.54406 0
M  V30 1520 H 135.561 4.90604 2.1263 0
M  V30 1521 H 135.904 3.25796 2.59158 0
M  V30 1522 H 136.437 3.8504 0.999457 0
M  V30 1523 H 133.176 6.54775 -0.308186 0
M  V30 1524 H 132.696 5.86376 1.26188 0
M  V30 1525 H 134.375 6.39346 0.992237 0
M  V30 1526 N 134.507 -0.190092 1.56449 0
M  V30 1527 C 135.454 -1.23557 1.94942 0
M  V30 1528 C 136.424 -1.44972 0.810696 0
M  V30 1529 O 137.609 -1.58023 1.06927 0
M  V30 1530 C 134.749 -2.57416 2.2985 0
M  V30 1531 C 133.862 -2.43537 3.5681 0
M  V30 1532 C 132.997 -3.70134 3.81017 0
M  V30 1533 C 132.036 -3.51109 5.01387 0
M  V30 1534 N 131.173 -4.6973 5.21822 0
M  V30 1535 H 136.013 -0.900304 2.84075 0
M  V30 1536 H 133.55 -0.43318 1.40577 0
M  V30 1537 H 135.508 -3.35409 2.48106 0
M  V30 1538 H 134.138 -2.88975 1.43852 0
M  V30 1539 H 133.19 -1.56816 3.46573 0
M  V30 1540 H 134.502 -2.25415 4.4496 0
M  V30 1541 H 133.656 -4.56566 3.9954 0
M  V30 1542 H 132.395 -3.91215 2.91207 0
M  V30 1543 H 131.4 -2.63063 4.82782 0
M  V30 1544 H 132.625 -3.31468 5.9271 0
M  V30 1545 H 130.571 -4.91065 4.34961 0
M  V30 1546 H 130.488 -4.54452 6.0416 0
M  V30 1547 H 131.756 -5.57499 5.44808 0
M  V30 1548 N 135.985 -1.50799 -0.457987 0
M  V30 1549 C 136.895 -1.73426 -1.57989 0
M  V30 1550 C 137.911 -0.617745 -1.62665 0
M  V30 1551 O 139.087 -0.897614 -1.80291 0
M  V30 1552 C 136.152 -1.83557 -2.94122 0
M  V30 1553 C 135.213 -3.07345 -2.99729 0
M  V30 1554 C 134.446 -3.16983 -4.29368 0
M  V30 1555 O 134.669 -2.33077 -5.20607 0
M  V30 1556 O 133.603 -4.09812 -4.40837 0
M  V30 1557 H 137.429 -2.68555 -1.41817 0
M  V30 1558 H 135.014 -1.35052 -0.638859 0
M  V30 1559 H 136.896 -1.92326 -3.74952 0
M  V30 1560 H 135.571 -0.916137 -3.10465 0
M  V30 1561 H 134.478 -3.04068 -2.1793 0
M  V30 1562 H 135.811 -3.9891 -2.88326 0
M  V30 1563 N 137.463 0.71206 -1.40597 0
M  V30 1564 C 138.71 1.47197 -1.39065 0
M  V30 1565 C 139.038 1.94499 0.00583891 0
M  V30 1566 O 138.293 1.68752 0.99102 0
M  V30 1567 C 138.592 2.71039 -2.32965 0
M  V30 1568 C 138.258 2.42484 -3.80148 0
M  V30 1569 C 136.92 2.34406 -4.20247 0
M  V30 1570 C 139.272 2.18598 -4.73143 0
M  V30 1571 C 136.6 2.00516 -5.51371 0
M  V30 1572 C 138.952 1.8622 -6.0457 0
M  V30 1573 C 137.616 1.76626 -6.43708 0
M  V30 1574 H 136.886 0.538634 -0.508876 0
M  V30 1575 H 139.533 0.815325 -1.73276 0
M  V30 1576 H 137.838 3.41558 -1.91951 0
M  V30 1577 H 139.535 3.29138 -2.29061 0
M  V30 1578 H 136.125 2.49659 -3.4838 0
M  V30 1579 H 140.309 2.23793 -4.42979 0
M  V30 1580 H 135.565 1.91628 -5.80593 0
M  V30 1581 H 139.739 1.66752 -6.76141 0
M  V30 1582 H 137.366 1.50133 -7.45228 0
M  V30 1583 N 138.941 1.26152 0.944643 0
M  V30 1584 C 139.891 1.04081 2.02857 0
M  V30 1585 C 140.875 -0.0256555 1.6088 0
M  V30 1586 O 142.067 0.190884 1.75968 0
M  V30 1587 C 139.196 0.672118 3.36656 0
M  V30 1588 C 138.282 1.77586 3.85128 0
M  V30 1589 N 138.673 3.01272 4.06287 0
M  V30 1590 C 136.971 1.65867 4.1401 0
M  V30 1591 C 137.672 3.72983 4.46384 0
M  V30 1592 N 136.648 3.00653 4.52889 0
M  V30 1593 H 140.45 1.97968 2.17223 0
M  V30 1594 H 137.964 1.16618 1.13022 0
M  V30 1595 H 139.961 0.495166 4.13949 0
M  V30 1596 H 138.621 -0.259307 3.23663 0
M  V30 1597 H 139.632 3.37213 3.93075 0
M  V30 1598 H 136.309 0.796907 4.09824 0
M  V30 1599 H 137.699 4.792 4.70975 0
M  V30 1600 N 140.419 -1.14872 1.07899 0
M  V30 1601 C 141.835 -1.37776 0.805606 0
M  V30 1602 C 142.035 -1.92743 -0.587555 0
M  V30 1603 O 141.091 -2.13678 -1.34528 0
M  V30 1604 C 142.404 -2.34361 1.88402 0
M  V30 1605 C 143.952 -2.48012 1.90942 0
M  V30 1606 C 144.427 -3.47893 2.97883 0
M  V30 1607 N 145.918 -3.55433 2.97021 0
M  V30 1608 C 146.653 -4.32553 3.76412 0
M  V30 1609 N 146.149 -5.12959 4.65666 0
M  V30 1610 N 147.942 -4.27697 3.64735 0
M  V30 1611 H 140.093 -0.775365 1.97742 0
M  V30 1612 H 142.356 -0.403521 0.857831 0
M  V30 1613 H 142.062 -2.01098 2.88535 0
M  V30 1614 H 141.936 -3.34206 1.74889 0
M  V30 1615 H 144.323 -2.8057 0.914579 0
M  V30 1616 H 144.404 -1.48147 2.08534 0
M  V30 1617 H 144.048 -3.16069 3.97571 0
M  V30 1618 H 143.978 -4.47527 2.77538 0
M  V30 1619 H 146.469 -2.98048 2.32326 0
M  V30 1620 H 146.782 -5.69065 5.22862 0
M  V30 1621 H 145.127 -5.12245 4.69712 0
M  V30 1622 H 148.318 -3.63949 2.94378 0
M  V30 1623 H 148.491 -4.8755 4.26848 0
M  V30 1624 N 141.898 -0.863906 -1.31812 0
M  V30 1625 C 142.845 -0.313303 -2.28664 0
M  V30 1626 C 143.815 0.584868 -1.55462 0
M  V30 1627 O 145 0.517805 -1.83639 0
M  V30 1628 C 142.14 0.48441 -3.41683 0
M  V30 1629 C 141.253 -0.440594 -4.29747 0
M  V30 1630 C 140.388 0.370652 -5.29905 0
M  V30 1631 C 139.427 -0.551164 -6.09613 0
M  V30 1632 N 138.564 0.223462 -7.01744 0
M  V30 1633 H 143.404 -1.14444 -2.75148 0
M  V30 1634 H 140.941 -0.575769 -1.35364 0
M  V30 1635 H 142.899 0.962627 -4.05943 0
M  V30 1636 H 141.529 1.28029 -2.96325 0
M  V30 1637 H 140.581 -1.03724 -3.65986 0
M  V30 1638 H 141.893 -1.14767 -4.85417 0
M  V30 1639 H 141.047 0.911638 -5.99812 0
M  V30 1640 H 139.786 1.11105 -4.74876 0
M  V30 1641 H 138.791 -1.10396 -5.38603 0
M  V30 1642 H 140.016 -1.29032 -6.66729 0
M  V30 1643 H 137.962 0.946787 -6.49132 0
M  V30 1644 H 137.879 -0.424399 -7.54808 0
M  V30 1645 H 139.147 0.745876 -7.75923 0
M  V30 1646 N 143.376 1.44774 -0.622745 0
M  V30 1647 C 144.326 2.2774 0.108889 0
M  V30 1648 C 145.31 1.38189 0.824175 0
M  V30 1649 O 146.502 1.62063 0.711664 0
M  V30 1650 C 143.631 3.25353 1.09546 0
M  V30 1651 C 142.717 4.22392 0.380232 0
M  V30 1652 N 143.108 5.02388 -0.586535 0
M  V30 1653 C 141.406 4.41588 0.625792 0
M  V30 1654 C 142.107 5.72894 -1.00834 0
M  V30 1655 N 141.083 5.42479 -0.348878 0
M  V30 1656 H 144.885 2.86993 -0.63341 0
M  V30 1657 H 142.399 1.5611 -0.447589 0
M  V30 1658 H 144.396 3.83538 1.63414 0
M  V30 1659 H 143.056 2.6766 1.83815 0
M  V30 1660 H 144.067 5.0885 -0.963975 0
M  V30 1661 H 140.744 3.95003 1.352 0
M  V30 1662 H 142.134 6.47158 -1.80656 0
M  V30 1663 N 144.854 0.36279 1.53368 0
M  V30 1664 C 146.265 -0.117022 1.86333 0
M  V30 1665 C 146.616 -1.48397 1.28347 0
M  V30 1666 O 145.741 -2.07787 0.604428 0
M  V30 1667 C 146.336 -0.21912 3.38091 0
M  V30 1668 C 144.895 -0.643184 3.70864 0
M  V30 1669 C 144.042 0.211318 2.76494 0
M  V30 1670 H 146.993 0.581687 1.47655 0
M  V30 1671 H 147.014 -1.04319 3.6592 0
M  V30 1672 H 146.526 0.775902 3.80265 0
M  V30 1673 H 144.627 -1.64654 3.34245 0
M  V30 1674 H 144.74 -0.41973 4.77258 0
M  V30 1675 H 143.104 -0.319367 2.5269 0
M  V30 1676 H 143.887 1.20383 3.21501 0
M  V30 1677 N 146.332 -1.57332 0.0918853 0
M  V30 1678 C 147.28 -2.15075 -0.885747 0
M  V30 1679 C 148.274 -1.09277 -1.29441 0
M  V30 1680 O 149.48 -1.27627 -1.26931 0
M  V30 1681 H 145.855 -0.687966 -0.303656 0
M  V30 1682 H 147.826 -2.96047 -0.373995 0
M  V30 1683 C 146.575 -2.74325 -2.13638 0
M  V30 1684 H 145.898 -3.55418 -1.8308 0
M  V30 1685 H 147.338 -3.183 -2.80109 0
M  V30 1686 C 145.797 -1.70062 -2.90827 0
M  V30 1687 O 146.327 -1.13763 -3.85254 0
M  V30 1688 N 144.533 -1.40628 -2.54307 0
M  V30 1689 H 144.08 -1.866 -1.7759 0
M  V30 1690 H 144.038 -0.711043 -3.06254 0
M  V30 1691 N 147.81 0.181792 -1.56548 0
M  V30 1692 C 148.72 1.24538 -1.98815 0
M  V30 1693 C 149.736 1.49045 -0.897861 0
M  V30 1694 O 150.912 1.61399 -1.20467 0
M  V30 1695 C 147.977 2.56683 -2.33055 0
M  V30 1696 C 147.038 2.40131 -3.55859 0
M  V30 1697 C 146.271 3.65975 -3.88456 0
M  V30 1698 O 146.494 4.70711 -3.22161 0
M  V30 1699 O 145.428 3.6071 -4.81842 0
M  V30 1700 H 149.254 0.916647 -2.89536 0
M  V30 1701 H 146.839 0.387842 -1.44278 0
M  V30 1702 H 148.721 3.34655 -2.56094 0
M  V30 1703 H 147.396 2.89157 -1.45498 0
M  V30 1704 H 146.303 1.60226 -3.38051 0
M  V30 1705 H 147.636 2.12585 -4.43924 0
M  V30 1706 N 149.288 1.51039 0.449983 0
M  V30 1707 C 150.537 1.62317 1.19733 0
M  V30 1708 C 150.85 0.339101 1.92638 0
M  V30 1709 O 152.056 0.331069 2.69474 0
M  V30 1710 C 150.512 2.86608 2.17678 0
M  V30 1711 C 150.12 4.21972 1.50479 0
M  V30 1712 C 151.864 3.07239 2.92924 0
M  V30 1713 C 149.771 5.37426 2.46834 0
M  V30 1714 H 148.701 0.604532 0.450619 0
M  V30 1715 H 151.352 1.77494 0.465625 0
M  V30 1716 H 149.734 2.65037 2.94231 0
M  V30 1717 H 150.908 4.53878 0.795716 0
M  V30 1718 H 149.223 4.07117 0.874344 0
M  V30 1719 H 151.82 3.90668 3.65079 0
M  V30 1720 H 152.163 2.19807 3.5354 0
M  V30 1721 H 152.696 3.29091 2.23481 0
M  V30 1722 H 149.435 6.27079 1.90926 0
M  V30 1723 H 148.955 5.09912 3.15832 0
M  V30 1724 H 150.634 5.68862 3.08228 0
M  V30 1725 N 150.766 -0.704594 1.40972 0
M  V30 1726 C 152.006 -1.47691 1.41304 0
M  V30 1727 C 152.37 -1.91992 0.0178582 0
M  V30 1728 O 153.571 -2.68599 -0.103996 0
M  V30 1729 C 151.842 -2.66254 2.38419 0
M  V30 1730 S 153.401 -3.55516 2.57204 0
M  V30 1731 H 150.219 -0.504808 0.500689 0
M  V30 1732 H 152.821 -0.822962 1.77335 0
M  V30 1733 H 151.525 -2.31897 3.38603 0
M  V30 1734 H 151.056 -3.3655 2.03711 0
M  V30 1735 H 153.071 -4.61115 1.83268 0
M  V30 1736 N 152.244 -1.26651 -0.937939 0
M  V30 1737 C 153.49 -1.12553 -1.687 0
M  V30 1738 C 153.823 0.329782 -1.91379 0
M  V30 1739 O 153.098 1.24202 -1.4968 0
M  V30 1740 C 153.381 -1.89862 -3.05981 0
M  V30 1741 C 153.234 -3.43318 -2.90607 0
M  V30 1742 C 154.553 -1.69499 -4.0615 0
M  V30 1743 H 151.672 -0.410257 -0.612257 0
M  V30 1744 H 154.314 -1.55685 -1.08913 0
M  V30 1745 H 152.464 -1.53204 -3.57017 0
M  V30 1746 H 154.136 -3.89747 -2.46769 0
M  V30 1747 H 152.379 -3.70179 -2.26164 0
M  V30 1748 H 153.05 -3.92642 -3.8799 0
M  V30 1749 H 155.526 -2.01442 -3.64088 0
M  V30 1750 H 154.402 -2.26002 -5.00214 0
M  V30 1751 H 154.663 -0.640365 -4.37438 0
M  V30 1752 N 153.722 1.14298 -1.08507 0
M  V30 1753 C 155.133 1.66926 -0.836227 0
M  V30 1754 C 155.484 1.85576 0.63686 0
M  V30 1755 O 154.609 1.56767 1.49175 0
M  V30 1756 C 155.204 3.03219 -1.51142 0
M  V30 1757 C 153.763 3.52876 -1.30979 0
M  V30 1758 C 152.91 2.2833 -1.57356 0
M  V30 1759 H 155.861 0.983491 -1.24552 0
M  V30 1760 H 155.882 3.68726 -0.939211 0
M  V30 1761 H 155.394 2.89612 -2.58353 0
M  V30 1762 H 153.495 3.71703 -0.258429 0
M  V30 1763 H 153.608 4.33586 -2.03814 0
M  V30 1764 H 151.972 2.34454 -0.995164 0
M  V30 1765 H 152.755 2.17298 -2.65775 0
M  V30 1766 N 155.201 0.870884 1.31352 0
M  V30 1767 C 156.134 0.271983 2.26573 0
M  V30 1768 C 157.112 -0.599385 1.51149 0
M  V30 1769 O 158.296 -0.552605 1.80218 0
M  V30 1770 C 155.423 -0.614801 3.33073 0
M  V30 1771 C 154.469 0.185342 4.26097 0
M  V30 1772 S 155.302 1.56444 5.12138 0
M  V30 1773 C 156.458 0.683807 6.22153 0
M  V30 1774 H 156.691 1.07916 2.77023 0
M  V30 1775 H 154.224 0.669459 1.39132 0
M  V30 1776 H 156.182 -1.12074 3.94905 0
M  V30 1777 H 154.843 -1.39593 2.81376 0
M  V30 1778 H 154.036 -0.490771 5.01605 0
M  V30 1779 H 153.638 0.623415 3.68768 0
M  V30 1780 H 155.93 -0.10521 6.77418 0
M  V30 1781 H 156.873 1.41004 6.93919 0
M  V30 1782 H 157.281 0.250952 5.63942 0
M  V30 1783 N 156.679 -1.44442 0.630414 0
M  V30 1784 C 157.904 -2.06927 0.139944 0
M  V30 1785 C 158.329 -1.46795 -1.17613 0
M  V30 1786 O 157.687 -0.569144 -1.72135 0
M  V30 1787 C 157.735 -3.6058 0.0379581 0
M  V30 1788 O 156.839 -3.99937 -1.0062 0
M  V30 1789 H 156.18 -0.658608 0.0844483 0
M  V30 1790 H 158.71 -1.85327 0.866891 0
M  V30 1791 H 158.72 -4.07714 -0.152856 0
M  V30 1792 H 157.395 -4.03728 0.998809 0
M  V30 1793 H 155.972 -3.64436 -0.79001 0
M  V30 1794 N 158.157 -0.370918 -1.53173 0
M  V30 1795 C 159.403 0.217423 -2.01631 0
M  V30 1796 C 159.736 1.47983 -1.25756 0
M  V30 1797 O 159.011 1.91274 -0.352764 0
M  V30 1798 C 159.294 0.503982 -3.56556 0
M  V30 1799 C 159.147 -0.77243 -4.43118 0
M  V30 1800 C 160.466 1.30234 -4.20389 0
M  V30 1801 H 157.585 0.0775486 -0.732909 0
M  V30 1802 H 160.227 -0.496863 -1.83388 0
M  V30 1803 H 158.377 1.11248 -3.72231 0
M  V30 1804 H 160.049 -1.4098 -4.39229 0
M  V30 1805 H 158.292 -1.39167 -4.10871 0
M  V30 1806 H 158.963 -0.526815 -5.4948 0
M  V30 1807 H 161.439 0.787546 -4.08579 0
M  V30 1808 H 160.315 1.47158 -5.28806 0
M  V30 1809 H 160.576 2.31237 -3.76805 0
M  V30 1810 N 159.635 1.57281 -0.100228 0
M  V30 1811 C 160.545 2.17833 0.870965 0
M  V30 1812 C 161.561 1.14921 1.30649 0
M  V30 1813 O 162.737 1.47313 1.37335 0
M  V30 1814 C 159.802 2.75085 2.1102 0
M  V30 1815 C 158.863 3.9297 1.72838 0
M  V30 1816 C 158.096 4.47482 2.90854 0
M  V30 1817 O 158.319 4.00922 4.05731 0
M  V30 1818 O 157.253 5.38433 2.69023 0
M  V30 1819 H 161.079 3.0124 0.38575 0
M  V30 1820 H 158.664 1.48881 0.124397 0
M  V30 1821 H 160.546 3.11656 2.83634 0
M  V30 1822 H 159.221 1.94721 2.58584 0
M  V30 1823 H 158.128 3.61201 0.973883 0
M  V30 1824 H 159.461 4.74713 1.30033 0
M  V30 1825 N 161.113 -0.173488 1.56642 0
M  V30 1826 C 162.36 -0.890465 1.81871 0
M  V30 1827 C 162.688 -1.82339 0.67696 0
M  V30 1828 O 161.943 -1.92795 -0.335926 0
M  V30 1829 C 162.242 -1.72069 3.13252 0
M  V30 1830 C 161.908 -0.936878 4.41059 0
M  V30 1831 C 160.57 -0.720545 4.75775 0
M  V30 1832 C 162.922 -0.386919 5.19762 0
M  V30 1833 C 160.25 0.0568829 5.86672 0
M  V30 1834 C 162.602 0.37741 6.31473 0
M  V30 1835 C 161.266 0.604563 6.64757 0
M  V30 1836 H 160.536 -0.325844 0.665512 0
M  V30 1837 H 163.183 -0.155527 1.90867 0
M  V30 1838 H 161.488 -2.52496 2.99588 0
M  V30 1839 H 163.185 -2.27844 3.29982 0
M  V30 1840 H 159.775 -1.11553 4.13828 0
M  V30 1841 H 163.959 -0.541398 4.93338 0
M  V30 1842 H 159.215 0.242635 6.10918 0
M  V30 1843 H 163.389 0.810825 6.91664 0
M  V30 1844 H 161.016 1.20885 7.50527 0
M  V30 1845 N 162.591 -1.51276 -0.441967 0
M  V30 1846 C 163.501 -1.75092 -1.56141 0
M  V30 1847 C 164.517 -0.634963 -1.62001 0
M  V30 1848 O 165.693 -0.916686 -1.79329 0
M  V30 1849 C 162.758 -1.86666 -2.92158 0
M  V30 1850 C 161.819 -3.10506 -2.96453 0
M  V30 1851 C 161.052 -3.21519 -4.25982 0
M  V30 1852 O 161.275 -2.38586 -5.18105 0
M  V30 1853 O 160.209 -4.14465 -4.36466 0
M  V30 1854 H 164.035 -2.70044 -1.38961 0
M  V30 1855 H 161.62 -1.35722 -0.624499 0
M  V30 1856 H 163.502 -1.96292 -3.72891 0
M  V30 1857 H 162.177 -0.949014 -3.09476 0
M  V30 1858 H 161.084 -3.06363 -2.14692 0
M  V30 1859 H 162.417 -4.01945 -2.84079 0
M  V30 1860 N 164.069 0.697108 -1.41344 0
M  V30 1861 C 164.979 1.84088 -1.45427 0
M  V30 1862 C 165.995 1.70545 -0.34501 0
M  V30 1863 O 167.171 1.92488 -0.592492 0
M  V30 1864 C 164.236 3.20056 -1.33286 0
M  V30 1865 C 163.297 3.45718 -2.54514 0
M  V30 1866 C 162.53 4.75199 -2.42944 0
M  V30 1867 O 162.753 5.51579 -1.45318 0
M  V30 1868 O 161.687 5.0161 -3.32672 0
M  V30 1869 H 165.513 1.836 -2.41919 0
M  V30 1870 H 163.098 0.849966 -1.22866 0
M  V30 1871 H 164.98 4.01236 -1.28794 0
M  V30 1872 H 163.655 3.2123 -0.39909 0
M  V30 1873 H 162.562 2.64474 -2.64583 0
M  V30 1874 H 163.895 3.49356 -3.46715 0
M  V30 1875 N 165.547 1.27147 0.931209 0
M  V30 1876 C 166.477 1.12081 2.04842 0
M  V30 1877 C 167.458 0.0232364 1.70084 0
M  V30 1878 O 168.643 0.197085 1.93197 0
M  V30 1879 C 165.773 0.76354 3.38803 0
M  V30 1880 C 164.727 1.81396 3.87659 0
M  V30 1881 C 164.053 1.31075 5.18385 0
M  V30 1882 C 165.353 3.21739 4.11438 0
M  V30 1883 H 167.047 2.05537 2.17703 0
M  V30 1884 H 164.593 0.989603 1.04608 0
M  V30 1885 H 166.546 0.644982 4.16435 0
M  V30 1886 H 165.27 -0.206727 3.25945 0
M  V30 1887 H 163.929 1.92136 3.12217 0
M  V30 1888 H 163.577 0.330037 5.01916 0
M  V30 1889 H 163.277 2.013 5.52044 0
M  V30 1890 H 164.801 1.20506 5.98591 0
M  V30 1891 H 166.215 3.14019 4.79651 0
M  V30 1892 H 164.612 3.89644 4.56397 0
M  V30 1893 H 165.682 3.67054 3.16859 0
M  V30 1894 N 167.025 -1.13721 1.09112 0
M  V30 1895 C 167.955 -2.21148 0.749385 0
M  V30 1896 C 168.936 -1.6792 -0.271475 0
M  V30 1897 O 170.121 -1.93693 -0.140251 0
M  V30 1898 C 167.251 -3.46905 0.165659 0
M  V30 1899 C 166.205 -4.13203 1.11567 0
M  V30 1900 C 165.531 -5.33248 0.393809 0
M  V30 1901 C 166.831 -4.60912 2.45678 0
M  V30 1902 H 168.525 -2.4999 1.64758 0
M  V30 1903 H 166.071 -1.20156 0.793626 0
M  V30 1904 H 168.024 -4.21313 -0.085466 0
M  V30 1905 H 166.748 -3.17449 -0.767714 0
M  V30 1906 H 165.407 -3.40758 1.35202 0
M  V30 1907 H 165.055 -5.00054 -0.543599 0
M  V30 1908 H 164.755 -5.78552 1.02721 0
M  V30 1909 H 166.279 -6.10413 0.150908 0
M  V30 1910 H 167.693 -5.26759 2.26269 0
M  V30 1911 H 166.09 -5.16944 3.04776 0
M  V30 1912 H 167.16 -3.75603 3.06677 0
M  V30 1913 N 168.503 -0.877838 -1.30888 0
M  V30 1914 C 169.45 -0.337538 -2.28318 0
M  V30 1915 C 170.42 0.568346 -1.56074 0
M  V30 1916 O 171.605 0.498298 -1.84178 0
M  V30 1917 C 168.745 0.448142 -3.42178 0
M  V30 1918 C 167.858 -0.48615 -4.29256 0
M  V30 1919 C 166.993 0.314427 -5.30269 0
M  V30 1920 C 166.032 -0.615791 -6.08995 0
M  V30 1921 N 165.169 0.14902 -7.01942 0
M  V30 1922 H 170.009 -1.17356 -2.73919 0
M  V30 1923 H 167.546 -0.590094 -1.34745 0
M  V30 1924 H 169.504 0.919517 -4.06941 0
M  V30 1925 H 168.134 1.24879 -2.97666 0
M  V30 1926 H 167.186 -1.076 -3.64865 0
M  V30 1927 H 168.498 -1.19909 -4.84173 0
M  V30 1928 H 167.652 0.847969 -6.00745 0
M  V30 1929 H 166.391 1.06062 -4.76027 0
M  V30 1930 H 165.396 -1.16102 -5.37401 0
M  V30 1931 H 166.621 -1.36097 -6.65323 0
M  V30 1932 H 164.567 0.877884 -6.50099 0
M  V30 1933 H 164.484 -0.504433 -7.54315 0
M  V30 1934 H 165.752 0.663537 -7.76671 0
M  V30 1935 N 169.982 1.44106 -0.638065 0
M  V30 1936 C 170.945 2.29138 0.0531013 0
M  V30 1937 C 171.945 1.41409 0.765506 0
M  V30 1938 O 173.135 1.63206 0.609046 0
M  V30 1939 C 170.267 3.23144 1.08584 0
M  V30 1940 H 171.46 2.91739 -0.694883 0
M  V30 1941 H 169.013 1.51134 -0.398538 0
M  V30 1942 H 169.748 2.65408 1.86357 0
M  V30 1943 H 169.533 3.87804 0.578852 0
M  V30 1944 H 171.023 3.87004 1.56899 0
M  V30 1945 N 171.46 0.379036 1.52974 0
M  V30 1946 C 172.876 0.0285448 1.59574 0
M  V30 1947 C 173.076 -1.45542 1.39355 0
M  V30 1948 O 172.132 -2.2187 1.20541 0
M  V30 1949 C 173.445 0.496535 2.96572 0
M  V30 1950 C 174.993 0.451909 3.0972 0
M  V30 1951 C 175.468 0.895924 4.49152 0
M  V30 1952 N 176.959 0.851522 4.55306 0
M  V30 1953 C 177.694 1.16661 5.61407 0
M  V30 1954 N 177.19 1.55166 6.752 0
M  V30 1955 N 178.983 1.08853 5.51459 0
M  V30 1956 H 171.134 1.34525 1.64367 0
M  V30 1957 H 173.397 0.550733 0.771619 0
M  V30 1958 H 173.103 1.53258 3.16552 0
M  V30 1959 H 172.977 -0.109802 3.7704 0
M  V30 1960 H 175.364 -0.575029 2.89443 0
M  V30 1961 H 175.445 1.09392 2.3123 0
M  V30 1962 H 175.089 1.92104 4.70168 0
M  V30 1963 H 175.019 0.23103 5.26093 0
M  V30 1964 H 177.51 0.568038 3.73606 0
M  V30 1965 H 177.823 1.776 7.52116 0
M  V30 1966 H 176.168 1.59044 6.76557 0
M  V30 1967 H 179.359 0.786803 4.6144 0
M  V30 1968 H 179.532 1.33742 6.34048 0
M  V30 1969 N 172.938 -1.57226 0.108567 0
M  V30 1970 C 173.848 -2.18292 -0.859401 0
M  V30 1971 C 174.864 -1.15612 -1.30038 0
M  V30 1972 O 176.04 -1.48039 -1.36552 0
M  V30 1973 C 173.105 -2.762 -2.09558 0
M  V30 1974 C 172.166 -3.93881 -1.70752 0
M  V30 1975 C 171.399 -4.49018 -2.88477 0
M  V30 1976 O 171.622 -4.03068 -4.036 0
M  V30 1977 O 170.556 -5.39852 -2.66164 0
M  V30 1978 H 174.382 -3.01441 -0.369769 0
M  V30 1979 H 171.967 -1.48945 -0.1165 0
M  V30 1980 H 173.849 -3.13156 -2.81978 0
M  V30 1981 H 172.524 -1.96089 -2.57548 0
M  V30 1982 H 171.431 -3.61713 -0.954714 0
M  V30 1983 H 172.764 -4.75396 -1.27513 0
M  V30 1984 N 174.416 0.165178 -1.56732 0
M  V30 1985 C 175.364 1.22369 -1.97809 0
M  V30 1986 C 176.358 1.45488 -0.867741 0
M  V30 1987 O 177.564 1.45995 -1.05288 0
M  V30 1988 H 173.939 0.411486 -0.629431 0
M  V30 1989 H 175.91 0.850425 -2.86025 0
M  V30 1990 C 174.659 2.55403 -2.35934 0
M  V30 1991 H 173.982 2.38438 -3.20916 0
M  V30 1992 H 175.422 3.2814 -2.68514 0
M  V30 1993 C 173.881 3.14611 -1.20506 0
M  V30 1994 O 174.411 3.98626 -0.496016 0
M  V30 1995 N 172.617 2.7379 -0.97403 0
M  V30 1996 H 172.164 2.0557 -1.55238 0
M  V30 1997 H 172.122 3.1374 -0.203573 0
M  V30 1998 N 175.894 1.51508 0.433938 0
M  V30 1999 C 177.305 1.56784 1.01369 0
M  V30 2000 C 177.656 0.393349 1.92217 0
M  V30 2001 O 176.781 -0.489441 2.10792 0
M  V30 2002 C 177.376 2.84144 1.8452 0
M  V30 2003 C 175.935 2.9198 2.37539 0
M  V30 2004 C 175.082 2.51482 1.16843 0
M  V30 2005 H 178.033 1.57236 0.215081 0
M  V30 2006 H 178.054 2.68098 2.70007 0
M  V30 2007 H 177.566 3.69607 1.18373 0
M  V30 2008 H 175.667 2.10955 3.0713 0
M  V30 2009 H 175.78 3.95704 2.70103 0
M  V30 2010 H 174.144 2.04758 1.51481 0
M  V30 2011 H 174.927 3.39293 0.523015 0
M  V30 2012 N 177.372 -0.689602 1.41712 0
M  V30 2013 C 178.597 -1.48329 1.44959 0
M  V30 2014 C 179.022 -1.8801 0.0581283 0
M  V30 2015 O 178.38 -1.55026 -0.940035 0
M  V30 2016 C 178.428 -2.71835 2.36935 0
M  V30 2017 O 177.532 -3.69549 1.8305 0
M  V30 2018 H 176.873 -0.446199 0.491734 0
M  V30 2019 H 179.403 -0.847127 1.86239 0
M  V30 2020 H 179.413 -3.20076 2.53013 0
M  V30 2021 H 178.088 -2.42291 3.38035 0
M  V30 2022 H 176.665 -3.2851 1.76452 0
M  V30 2023 N 178.85 -1.27639 -0.924453 0
M  V30 2024 C 179.76 -1.12466 -2.05885 0
M  V30 2025 C 180.776 -0.053869 -1.73917 0
M  V30 2026 O 181.952 -0.261012 -1.99702 0
M  V30 2027 C 179.017 -0.776768 -3.37886 0
M  V30 2028 C 178.078 -1.92878 -3.83532 0
M  V30 2029 C 177.311 -1.59739 -5.09234 0
M  V30 2030 O 177.534 -0.506782 -5.68144 0
M  V30 2031 O 176.468 -2.43761 -5.50331 0
M  V30 2032 H 180.294 -2.07671 -2.21599 0
M  V30 2033 H 177.879 -1.06857 -1.04413 0
M  V30 2034 H 179.761 -0.596229 -4.17161 0
M  V30 2035 H 178.436 0.145732 -3.23372 0
M  V30 2036 H 177.343 -2.1644 -3.0513 0
M  V30 2037 H 178.676 -2.8316 -4.02593 0
M  V30 2038 N 180.328 1.1314 -1.09713 0
M  V30 2039 C 181.238 2.22242 -0.751367 0
M  V30 2040 C 182.254 1.72224 0.247938 0
M  V30 2041 O 183.43 2.01205 0.0885463 0
M  V30 2042 C 180.495 3.46231 -0.180274 0
M  V30 2043 C 179.556 4.11125 -1.2359 0
M  V30 2044 C 178.789 5.29195 -0.691966 0
M  V30 2045 O 179.012 5.68342 0.48414 0
M  V30 2046 O 177.946 5.84214 -1.44838 0
M  V30 2047 H 181.772 2.54197 -1.66186 0
M  V30 2048 H 179.357 1.21331 -0.871735 0
M  V30 2049 H 181.239 4.21185 0.134739 0
M  V30 2050 H 179.914 3.1597 0.703185 0
M  V30 2051 H 178.821 3.37985 -1.60366 0
M  V30 2052 H 180.154 4.45524 -2.09211 0
M  V30 2053 N 181.806 0.884767 1.30421 0
M  V30 2054 C 182.769 0.356277 2.26414 0
M  V30 2055 C 183.769 -0.501124 1.52792 0
M  V30 2056 O 184.959 -0.30831 1.7145 0
M  V30 2057 C 182.091 -0.492316 3.37326 0
M  V30 2058 H 183.284 1.20389 2.74675 0
M  V30 2059 H 180.837 0.661607 1.41607 0
M  V30 2060 H 181.572 -1.36052 2.94381 0
M  V30 2061 H 181.357 0.121832 3.91911 0
M  V30 2062 H 182.847 -0.853871 4.08777 0
M  V30 2063 N 183.284 -1.43765 0.645699 0
M  V30 2064 C 184.216 -2.29027 -0.0890605 0
M  V30 2065 C 185.229 -1.42093 -0.794563 0
M  V30 2066 O 186.418 -1.66104 -0.653575 0
M  V30 2067 C 183.518 -3.18831 -1.14891 0
M  V30 2068 C 182.691 -4.34261 -0.523043 0
M  V30 2069 C 181.75 -5.04994 -1.47878 0
M  V30 2070 O 180.776 -5.6052 -0.990277 0
M  V30 2071 N 181.978 -5.07795 -2.81291 0
M  V30 2072 H 184.743 -2.92727 0.64272 0
M  V30 2073 H 182.304 -1.54373 0.487924 0
M  V30 2074 H 184.296 -3.63015 -1.78892 0
M  V30 2075 H 182.866 -2.56782 -1.78275 0
M  V30 2076 H 182.086 -3.93088 0.295896 0
M  V30 2077 H 183.374 -5.08728 -0.0858147 0
M  V30 2078 H 182.772 -4.64042 -3.23546 0
M  V30 2079 H 181.329 -5.55721 -3.40614 0
M  V30 2080 N 184.763 -0.387143 -1.52771 0
M  V30 2081 C 185.711 0.463953 -2.27926 0
M  V30 2082 C 186.705 1.06493 -1.31741 0
M  V30 2083 O 187.911 1.00565 -1.49287 0
M  V30 2084 H 184.286 0.16837 -0.732909 0
M  V30 2085 H 186.257 -0.19141 -2.97785 0
M  V30 2086 C 185.006 1.5803 -3.09713 0
M  V30 2087 H 184.329 1.12718 -3.83581 0
M  V30 2088 H 185.769 2.15008 -3.65442 0
M  V30 2089 C 184.228 2.53509 -2.2189 0
M  V30 2090 O 184.758 3.56863 -1.84422 0
M  V30 2091 N 182.964 2.23199 -1.86093 0
M  V30 2092 H 182.511 1.39185 -2.16761 0
M  V30 2093 H 182.469 2.87333 -1.27621 0
M  V30 2094 N 186.241 1.57166 -0.116904 0
M  V30 2095 C 187.171 2.18222 0.830759 0
M  V30 2096 C 188.152 1.12167 1.27877 0
M  V30 2097 O 189.337 1.40394 1.34176 0
M  V30 2098 C 186.467 2.77996 2.08172 0
M  V30 2099 C 185.421 3.89614 1.77157 0
M  V30 2100 C 184.747 4.36187 3.09265 0
M  V30 2101 C 186.047 5.1181 1.04151 0
M  V30 2102 H 187.741 2.97664 0.321992 0
M  V30 2103 H 185.287 1.4318 0.153434 0
M  V30 2104 H 187.24 3.19366 2.74924 0
M  V30 2105 H 185.964 1.9584 2.6137 0
M  V30 2106 H 184.623 3.48816 1.12796 0
M  V30 2107 H 184.271 3.50893 3.60393 0
M  V30 2108 H 183.971 5.11455 2.89288 0
M  V30 2109 H 185.495 4.80207 3.77139 0
M  V30 2110 H 186.909 5.50214 1.61052 0
M  V30 2111 H 185.306 5.92648 0.942762 0
M  V30 2112 H 186.376 4.84892 0.0279022 0
M  V30 2113 N 187.719 -0.156864 1.56817 0
M  V30 2114 C 188.965 -0.872416 1.83076 0
M  V30 2115 C 189.298 -1.81261 0.697001 0
M  V30 2116 O 188.573 -1.92171 -0.30008 0
M  V30 2117 C 188.856 -1.65551 3.19789 0
M  V30 2118 C 188.709 -0.737467 4.43713 0
M  V30 2119 C 190.028 -2.62012 3.53606 0
M  V30 2120 H 187.147 -0.315715 0.665953 0
M  V30 2121 H 189.789 -0.138004 1.89498 0
M  V30 2122 H 187.939 -2.28159 3.14445 0
M  V30 2123 H 189.611 -0.123143 4.61136 0
M  V30 2124 H 187.854 -0.0464067 4.33775 0
M  V30 2125 H 188.525 -1.32122 5.35955 0
M  V30 2126 H 191.001 -2.09525 3.59497 0
M  V30 2127 H 189.877 -3.13861 4.50314 0
M  V30 2128 H 190.138 -3.42902 2.79053 0
M  V30 2129 N 189.197 -1.51736 -0.425897 0
M  V30 2130 C 190.107 -1.76738 -1.54275 0
M  V30 2131 C 191.123 -0.65211 -1.61318 0
M  V30 2132 O 192.299 -0.935654 -1.78346 0
M  V30 2133 C 189.364 -1.89755 -2.90162 0
M  V30 2134 C 188.425 -3.13633 -2.93143 0
M  V30 2135 C 187.658 -3.2602 -4.22548 0
M  V30 2136 O 187.881 -2.44067 -5.15546 0
M  V30 2137 O 186.815 -4.19071 -4.32046 0
M  V30 2138 H 190.641 -2.71502 -1.36089 0
M  V30 2139 H 188.226 -1.36376 -0.610069 0
M  V30 2140 H 190.108 -2.00236 -3.70788 0
M  V30 2141 H 188.783 -0.981785 -3.08452 0
M  V30 2142 H 187.69 -3.08622 -2.11431 0
M  V30 2143 H 189.023 -4.04936 -2.798 0
M  V30 2144 N 190.675 0.682077 -1.42076 0
M  V30 2145 C 191.922 1.44215 -1.42156 0
M  V30 2146 C 192.25 1.94468 -0.0354186 0
M  V30 2147 O 191.505 1.70816 0.955002 0
M  V30 2148 C 191.804 2.66036 -2.38662 0
M  V30 2149 C 191.47 2.34366 -3.85206 0
M  V30 2150 C 190.132 2.25439 -4.25124 0
M  V30 2151 C 192.484 2.08513 -4.77673 0
M  V30 2152 C 189.812 1.88775 -5.55501 0
M  V30 2153 C 192.164 1.73354 -6.08384 0
M  V30 2154 C 190.828 1.62933 -6.47309 0
M  V30 2155 H 190.098 0.527718 -0.520187 0
M  V30 2156 H 192.745 0.778387 -1.74967 0
M  V30 2157 H 191.05 3.3741 -1.99152 0
M  V30 2158 H 192.747 3.24205 -2.35991 0
M  V30 2159 H 189.337 2.42213 -3.53597 0
M  V30 2160 H 193.521 2.14346 -4.47626 0
M  V30 2161 H 188.777 1.7927 -5.84527 0
M  V30 2162 H 192.951 1.52373 -6.79526 0
M  V30 2163 H 190.578 1.34292 -7.48244 0
M  V30 2164 N 192.153 1.28127 0.917671 0
M  V30 2165 C 193.381 1.17892 1.70026 0
M  V30 2166 C 193.796 -0.262958 1.8696 0
M  V30 2167 O 193.153 -1.17811 1.3938 0
M  V30 2168 C 193.204 1.86872 3.09453 0
M  V30 2169 O 192.925 3.25428 2.93306 0
M  V30 2170 C 194.426 1.8289 4.03815 0
M  V30 2171 H 191.646 0.40942 0.531617 0
M  V30 2172 H 194.19 1.69181 1.14883 0
M  V30 2173 H 192.345 1.39464 3.61426 0
M  V30 2174 H 192.759 3.59918 3.81523 0
M  V30 2175 H 194.233 2.35751 4.99125 0
M  V30 2176 H 194.71 0.800412 4.31845 0
M  V30 2177 H 195.316 2.29959 3.57769 0
M  V30 2178 N 193.631 -1.12557 1.10312 0
M  V30 2179 C 194.908 -1.80363 0.756878 0
M  V30 2180 C 195.288 -1.97067 -0.756824 0
M  V30 2181 O 194.636 -1.54601 -1.68259 0
M  V30 2182 C 194.846 -3.14812 1.50647 0
M  V30 2183 C 196.194 -3.90029 1.67817 0
M  V30 2184 O 197.218 -3.24464 1.46974 0
M  V30 2185 O 196.077 -5.07652 2.02365 0
M  V30 2186 H 193.171 -0.780667 0.272926 0
M  V30 2187 H 195.717 -1.19404 1.20586 0
M  V30 2188 H 194.489 -2.97936 2.53672 0
M  V30 2189 H 194.112 -3.83478 1.05026 0
M  V30 2190 N 195.109 -0.891671 -1.2995 0
M  V30 2191 C 196.019 -0.367691 -2.31701 0
M  V30 2192 C 197.035 0.533486 -1.6562 0
M  V30 2193 O 198.211 0.424997 -1.96865 0
M  V30 2194 C 195.276 0.403406 -3.44345 0
M  V30 2195 C 194.337 -0.528328 -4.26037 0
M  V30 2196 C 193.57 0.206063 -5.33302 0
M  V30 2197 O 193.793 1.43119 -5.52153 0
M  V30 2198 O 192.727 -0.447281 -6.00236 0
M  V30 2199 H 196.553 -1.21163 -2.78484 0
M  V30 2200 H 194.138 -0.655725 -1.34241 0
M  V30 2201 H 196.02 0.839753 -4.12948 0
M  V30 2202 H 194.695 1.22354 -2.99685 0
M  V30 2203 H 193.602 -1.01362 -3.60106 0
M  V30 2204 H 194.935 -1.31465 -4.74318 0
M  V30 2205 N 196.587 1.43421 -0.653314 0
M  V30 2206 C 197.497 2.34568 0.0388565 0
M  V30 2207 C 198.513 1.53888 0.81207 0
M  V30 2208 O 199.689 1.86539 0.759294 0
M  V30 2209 C 196.754 3.32167 0.993269 0
M  V30 2210 C 195.815 4.28751 0.216977 0
M  V30 2211 C 195.048 5.21688 1.12593 0
M  V30 2212 O 195.271 5.19052 2.36519 0
M  V30 2213 O 194.205 5.98919 0.598284 0
M  V30 2214 H 198.031 2.95251 -0.711386 0
M  V30 2215 H 195.616 1.43564 -0.413502 0
M  V30 2216 H 197.498 3.92183 1.54176 0
M  V30 2217 H 196.173 2.73987 1.72374 0
M  V30 2218 H 195.08 3.72215 -0.375101 0
M  V30 2219 H 196.413 4.89913 -0.473924 0
M  V30 2220 N 198.065 0.39524 1.52563 0
M  V30 2221 C 199.313 -0.184678 2.01254 0
M  V30 2222 C 199.634 -1.46822 1.28329 0
M  V30 2223 O 198.904 -1.91666 0.405094 0
M  V30 2224 H 197.484 -0.0712355 0.743596 0
M  V30 2225 H 200.146 0.528293 1.87603 0
M  V30 2226 H 199.242 -0.390681 3.09645 0
M  V30 2227 N 199.544 -1.57102 0.125237 0
M  V30 2228 C 200.774 -1.99472 -0.538015 0
M  V30 2229 C 201.182 -1.00395 -1.60366 0
M  V30 2230 O 200.525 0.0103875 -1.83697 0
M  V30 2231 C 200.587 -3.38262 -1.21734 0
M  V30 2232 C 200.251 -4.56021 -0.298897 0
M  V30 2233 C 201.248 -5.17817 0.464943 0
M  V30 2234 C 198.933 -5.01869 -0.208149 0
M  V30 2235 C 200.927 -6.23852 1.3072 0
M  V30 2236 C 198.614 -6.07763 0.637736 0
M  V30 2237 C 199.612 -6.68622 1.39403 0
M  V30 2238 O 199.3 -7.7247 2.22586 0
M  V30 2239 H 199.032 -0.659934 -0.146501 0
M  V30 2240 H 201.586 -2.04321 0.210267 0
M  V30 2241 H 199.816 -3.30185 -2.01282 0
M  V30 2242 H 201.505 -3.6488 -1.77813 0
M  V30 2243 H 202.271 -4.83308 0.404741 0
M  V30 2244 H 198.15 -4.54241 -0.786522 0
M  V30 2245 H 201.694 -6.71284 1.898 0
M  V30 2246 H 197.591 -6.41701 0.699309 0
M  V30 2247 H 198.359 -7.89595 2.15596 0
M  V30 2248 N 201.022 0.148545 -1.56898 0
M  V30 2249 C 202.27 0.859717 -1.82902 0
M  V30 2250 C 202.591 1.81775 -0.70588 0
M  V30 2251 O 201.861 1.93994 0.272586 0
M  V30 2252 H 200.441 0.320469 -0.674766 0
M  V30 2253 H 203.103 0.142918 -1.94375 0
M  V30 2254 H 202.199 1.4229 -2.77777 0
M  V30 2255 N 202.5 1.5196 0.417844 0
M  V30 2256 C 203.916 1.40569 0.755816 0
M  V30 2257 C 204.116 0.503316 1.95113 0
M  V30 2258 O 203.172 -0.0341925 2.52477 0
M  V30 2259 C 204.485 2.82947 1.01791 0
M  V30 2260 C 206.033 2.92231 1.12116 0
M  V30 2261 C 206.508 4.35559 1.41608 0
M  V30 2262 N 207.999 4.38753 1.48491 0
M  V30 2263 C 208.734 5.46705 1.7292 0
M  V30 2264 N 208.23 6.64788 1.95011 0
M  V30 2265 N 210.023 5.34209 1.74863 0
M  V30 2266 H 202.174 2.09168 -0.369098 0
M  V30 2267 H 204.437 0.942409 -0.102809 0
M  V30 2268 H 204.143 3.5106 0.212081 0
M  V30 2269 H 204.017 3.23462 1.94042 0
M  V30 2270 H 206.404 2.24304 1.9176 0
M  V30 2271 H 206.485 2.55185 0.177225 0
M  V30 2272 H 206.129 5.04042 0.624848 0
M  V30 2273 H 206.059 4.70133 2.37239 0
M  V30 2274 H 208.55 3.5363 1.33244 0
M  V30 2275 H 208.863 7.42845 2.13076 0
M  V30 2276 H 207.208 6.67869 1.92293 0
M  V30 2277 H 210.399 4.40937 1.57137 0
M  V30 2278 H 210.572 6.18415 1.93563 0
M  V30 2279 N 203.978 -0.674533 1.42435 0
M  V30 2280 C 205.208 -1.46071 1.46105 0
M  V30 2281 C 205.616 -1.89067 0.0709605 0
M  V30 2282 O 204.959 -1.58731 -0.924677 0
M  V30 2283 C 205.021 -2.74145 2.32561 0
M  V30 2284 C 204.685 -2.53224 3.8043 0
M  V30 2285 C 205.682 -2.17809 4.72075 0
M  V30 2286 C 203.367 -2.6821 4.24698 0
M  V30 2287 C 205.361 -1.97648 6.05982 0
M  V30 2288 C 203.048 -2.47665 5.58664 0
M  V30 2289 C 204.046 -2.12437 6.49122 0
M  V30 2290 O 203.734 -1.9209 7.80613 0
M  V30 2291 H 203.466 -0.455959 0.499076 0
M  V30 2292 H 206.02 -0.836193 1.87609 0
M  V30 2293 H 204.25 -3.3908 1.85908 0
M  V30 2294 H 205.939 -3.36028 2.27683 0
M  V30 2295 H 206.705 -2.05826 4.39159 0
M  V30 2296 H 202.584 -2.94609 3.54579 0
M  V30 2297 H 206.128 -1.70075 6.7655 0
M  V30 2298 H 202.025 -2.59244 5.91154 0
M  V30 2299 H 202.793 -2.06686 7.91974 0
M  V30 2300 N 205.456 -1.28612 -0.910864 0
M  V30 2301 C 206.386 -1.15326 -2.03032 0
M  V30 2302 C 207.367 -0.0502924 -1.70026 0
M  V30 2303 O 208.552 -0.227797 -1.92859 0
M  V30 2304 C 205.682 -0.817343 -3.37545 0
M  V30 2305 C 204.636 -1.8754 -3.84724 0
M  V30 2306 C 203.962 -1.39305 -5.16235 0
M  V30 2307 C 205.262 -3.28244 -4.06267 0
M  V30 2308 H 206.956 -2.08975 -2.14406 0
M  V30 2309 H 204.502 -1.00612 -1.03021 0
M  V30 2310 H 206.455 -0.711151 -4.15356 0
M  V30 2311 H 205.179 0.154846 -3.26233 0
M  V30 2312 H 203.838 -1.97079 -3.09121 0
M  V30 2313 H 203.486 -0.409846 -5.01328 0
M  V30 2314 H 203.186 -2.10057 -5.48771 0
M  V30 2315 H 204.71 -1.30014 -5.96598 0
M  V30 2316 H 206.124 -3.21611 -4.74594 0
M  V30 2317 H 204.521 -3.96855 -4.5014 0
M  V30 2318 H 205.591 -3.72048 -3.10979 0
M  V30 2319 N 206.934 1.1197 -1.10907 0
M  V30 2320 C 208.211 1.79959 -0.766432 0
M  V30 2321 C 208.591 1.97466 0.746363 0
M  V30 2322 O 207.939 1.55491 1.67436 0
M  V30 2323 C 208.149 3.14009 -1.52314 0
M  V30 2324 C 209.497 3.89134 -1.69883 0
M  V30 2325 O 210.521 3.2368 -1.48692 0
M  V30 2326 O 209.38 5.06572 -2.05054 0
M  V30 2327 H 206.474 0.779208 -0.277062 0
M  V30 2328 H 209.02 1.18762 -1.21217 0
M  V30 2329 H 207.792 2.96587 -2.55249 0
M  V30 2330 H 207.415 3.82915 -1.07059 0
M  V30 2331 N 208.412 0.89855 1.29475 0
M  V30 2332 C 209.342 0.39201 2.30186 0
M  V30 2333 C 210.323 -0.532359 1.61555 0
M  V30 2334 O 211.508 -0.443331 1.89072 0
M  V30 2335 C 208.638 -0.382353 3.45189 0
M  V30 2336 C 207.592 0.451483 4.25612 0
M  V30 2337 C 206.918 -0.450307 5.328 0
M  V30 2338 C 208.218 1.70079 4.93832 0
M  V30 2339 H 209.912 1.23362 2.72804 0
M  V30 2340 H 207.458 0.594638 1.31149 0
M  V30 2341 H 209.411 -0.747451 4.14718 0
M  V30 2342 H 208.135 -1.25774 3.01411 0
M  V30 2343 H 206.794 0.798897 3.57789 0
M  V30 2344 H 206.442 -1.32379 4.85268 0
M  V30 2345 H 206.142 0.103902 5.87508 0
M  V30 2346 H 207.666 -0.811623 6.05182 0
M  V30 2347 H 209.08 1.40549 5.55805 0
M  V30 2348 H 207.477 2.19623 5.58467 0
M  V30 2349 H 208.547 2.43744 4.19186 0
M  V30 2350 N 209.89 -1.43072 0.660911 0
M  V30 2351 C 210.84 -2.27948 -0.04847 0
M  V30 2352 C 211.824 -1.40325 -0.787246 0
M  V30 2353 O 213.016 -1.63893 -0.668446 0
M  V30 2354 C 210.145 -3.28143 -1.00881 0
M  V30 2355 C 209.231 -4.23252 -0.268108 0
M  V30 2356 N 209.622 -5.00656 0.719528 0
M  V30 2357 C 207.92 -4.43092 -0.508493 0
M  V30 2358 C 208.621 -5.70019 1.15988 0
M  V30 2359 N 207.597 -5.41364 0.492584 0
M  V30 2360 H 211.399 -2.85213 0.709279 0
M  V30 2361 H 208.913 -1.54869 0.488822 0
M  V30 2362 H 210.91 -3.87736 -1.53188 0
M  V30 2363 H 209.57 -2.7244 -1.76654 0
M  V30 2364 H 210.581 -5.06115 1.09855 0
M  V30 2365 H 207.258 -3.98449 -1.24679 0
M  V30 2366 H 208.648 -6.4214 1.97751 0
M  V30 2367 N 211.368 -0.403325 -1.52352 0
M  V30 2368 C 212.645 0.232611 -1.94212 0
M  V30 2369 C 213.025 1.63133 -1.33981 0
M  V30 2370 O 212.373 2.22659 -0.513344 0
M  V30 2371 C 212.583 0.244811 -3.4814 0
M  V30 2372 C 213.931 0.46698 -4.22024 0
M  V30 2373 O 214.955 0.324419 -3.5472 0
M  V30 2374 O 213.814 0.74747 -5.41364 0
M  V30 2375 H 210.908 0.148223 -0.813609 0
M  V30 2376 H 213.454 -0.458848 -1.63379 0
M  V30 2377 H 212.226 -0.734378 -3.84347 0
M  V30 2378 H 211.849 0.980611 -3.85318 0
M  V30 2379 N 212.846 1.57033 -0.133567 0
M  V30 2380 C 214.086 1.97575 0.523789 0
M  V30 2381 C 214.45 1.01605 1.62912 0
M  V30 2382 O 215.651 1.3114 2.3464 0
M  V30 2383 C 213.922 3.42256 1.02935 0
M  V30 2384 S 215.481 4.04817 1.69319 0
M  V30 2385 H 212.299 0.690427 0.169799 0
M  V30 2386 H 214.901 1.94234 -0.222101 0
M  V30 2387 H 213.605 4.09842 0.213917 0
M  V30 2388 H 213.136 3.4928 1.81017 0
M  V30 2389 H 215.151 3.96767 2.97977 0
M  V30 2390 N 214.325 -0.140222 1.56975 0
M  V30 2391 C 215.555 -0.865181 1.87612 0
M  V30 2392 C 215.963 -1.74942 0.72055 0
M  V30 2393 O 215.306 -1.80917 -0.318561 0
M  V30 2394 C 215.368 -1.76782 3.13031 0
M  V30 2395 C 215.032 -1.06005 4.44536 0
M  V30 2396 C 216.029 -0.410768 5.18275 0
M  V30 2397 C 213.714 -1.04754 4.91255 0
M  V30 2398 C 215.708 0.241572 6.36942 0
M  V30 2399 C 213.395 -0.391394 6.09845 0
M  V30 2400 C 214.393 0.252029 6.82535 0
M  V30 2401 O 214.081 0.897757 7.98871 0
M  V30 2402 H 213.813 -0.255188 0.625983 0
M  V30 2403 H 216.367 -0.135653 2.04952 0
M  V30 2404 H 214.597 -2.53846 2.91718 0
M  V30 2405 H 216.286 -2.36533 3.29859 0
M  V30 2406 H 217.052 -0.412195 4.83245 0
M  V30 2407 H 212.931 -1.53777 4.34596 0
M  V30 2408 H 216.475 0.744375 6.93617 0
M  V30 2409 H 212.372 -0.387656 6.44335 0
M  V30 2410 H 213.14 0.800102 8.1458 0
M  V30 2411 N 215.803 -1.52179 -0.40978 0
M  V30 2412 C 216.733 -1.78435 -1.5061 0
M  V30 2413 C 217.714 -0.635295 -1.57791 0
M  V30 2414 O 218.899 -0.880823 -1.73076 0
M  V30 2415 C 216.029 -1.93444 -2.88439 0
M  V30 2416 C 214.983 -3.09038 -2.96108 0
M  V30 2417 C 214.309 -3.09268 -4.36185 0
M  V30 2418 C 215.609 -4.48508 -2.67652 0
M  V30 2419 H 217.303 -2.70237 -1.28889 0
M  V30 2420 H 214.849 -1.30036 -0.618605 0
M  V30 2421 H 216.802 -2.10394 -3.65119 0
M  V30 2422 H 215.526 -0.983129 -3.11452 0
M  V30 2423 H 214.185 -2.91837 -2.21872 0
M  V30 2424 H 213.833 -2.11861 -4.56206 0
M  V30 2425 H 213.533 -3.86907 -4.42241 0
M  V30 2426 H 215.057 -3.28348 -5.14801 0
M  V30 2427 H 216.471 -4.65918 -3.34056 0
M  V30 2428 H 214.868 -5.28059 -2.85085 0
M  V30 2429 H 215.938 -4.56649 -1.63095 0
M  V30 2430 N 217.281 0.66697 -1.42791 0
M  V30 2431 C 218.228 1.7803 -1.4688 0
M  V30 2432 C 219.198 1.6299 -0.319919 0
M  V30 2433 O 220.383 1.83432 -0.525118 0
M  V30 2434 C 217.523 3.1611 -1.38451 0
M  V30 2435 C 216.636 3.42381 -2.63437 0
M  V30 2436 C 215.771 4.70232 -2.47094 0
M  V30 2437 C 214.81 4.89564 -3.67415 0
M  V30 2438 N 213.947 6.08661 -3.49966 0
M  V30 2439 H 218.787 1.7387 -2.42019 0
M  V30 2440 H 216.324 0.84868 -1.20149 0
M  V30 2441 H 218.282 3.95914 -1.31561 0
M  V30 2442 H 216.912 3.19374 -0.469033 0
M  V30 2443 H 215.964 2.56774 -2.80662 0
M  V30 2444 H 217.276 3.52557 -3.52853 0
M  V30 2445 H 216.43 5.5814 -2.37834 0
M  V30 2446 H 215.169 4.62353 -1.5518 0
M  V30 2447 H 214.174 4.00096 -3.77099 0
M  V30 2448 H 215.399 4.99282 -4.6032 0
M  V30 2449 H 213.345 6.0194 -2.60776 0
M  V30 2450 H 213.262 6.19733 -4.32975 0
M  V30 2451 H 214.53 6.99226 -3.44532 0
M  V30 2452 N 218.759 1.29093 0.90403 0
M  V30 2453 C 219.989 1.19516 1.68522 0
M  V30 2454 C 220.397 -0.24738 1.87576 0
M  V30 2455 O 219.74 -1.17798 1.40959 0
M  V30 2456 C 219.802 1.83249 3.0929 0
M  V30 2457 C 219.466 3.32531 3.13484 0
M  V30 2458 C 220.463 4.28821 2.93953 0
M  V30 2459 C 218.148 3.73656 3.35688 0
M  V30 2460 C 220.142 5.64212 2.96553 0
M  V30 2461 C 217.829 5.0917 3.37919 0
M  V30 2462 C 218.827 6.04258 3.18373 0
M  V30 2463 O 218.515 7.37298 3.20385 0
M  V30 2464 H 218.247 0.415467 0.533257 0
M  V30 2465 H 220.801 1.70912 1.13922 0
M  V30 2466 H 219.031 1.26358 3.65473 0
M  V30 2467 H 220.72 1.68054 3.69476 0
M  V30 2468 H 221.486 3.98382 2.76616 0
M  V30 2469 H 217.365 3.00101 3.49943 0
M  V30 2470 H 220.909 6.38407 2.81216 0
M  V30 2471 H 216.806 5.39256 3.54787 0
M  V30 2472 H 217.574 7.46048 3.36681 0
M  V30 2473 N 220.237 -1.11381 1.11499 0
M  V30 2474 C 221.486 -1.82494 0.858993 0
M  V30 2475 C 221.799 -1.85605 -0.617278 0
M  V30 2476 O 223.005 -2.52824 -0.989552 0
M  V30 2477 C 221.461 -3.27745 1.48699 0
M  V30 2478 C 221.069 -3.32961 2.99735 0
M  V30 2479 C 222.813 -4.03754 1.31085 0
M  V30 2480 C 220.72 -4.72612 3.55516 0
M  V30 2481 H 219.65 -0.683802 0.317696 0
M  V30 2482 H 222.301 -1.25331 1.34031 0
M  V30 2483 H 220.683 -3.84844 0.933339 0
M  V30 2484 H 221.857 -2.85741 3.61509 0
M  V30 2485 H 220.172 -2.70433 3.16631 0
M  V30 2486 H 222.769 -5.06891 1.70192 0
M  V30 2487 H 223.112 -4.15527 0.253496 0
M  V30 2488 H 223.645 -3.53043 1.83318 0
M  V30 2489 H 220.384 -4.66036 4.60967 0
M  V30 2490 H 219.904 -5.2024 2.98513 0
M  V30 2491 H 221.583 -5.4157 3.53992 0
M  V30 2492 N 221.715 -0.905404 -1.28997 0
M  V30 2493 C 222.663 -0.377431 -2.29517 0
M  V30 2494 C 223.657 0.526461 -1.61012 0
M  V30 2495 O 224.863 0.40863 -1.753 0
M  V30 2496 H 221.238 -0.103437 -0.744852 0
M  V30 2497 H 223.209 -1.23848 -2.71485 0
M  V30 2498 C 221.958 0.374833 -3.45674 0
M  V30 2499 H 221.281 -0.311474 -3.98585 0
M  V30 2500 H 222.721 0.70903 -4.1803 0
M  V30 2501 C 221.18 1.57963 -2.97572 0
M  V30 2502 O 221.71 2.67886 -2.99333 0
M  V30 2503 N 219.916 1.42375 -2.53333 0
M  V30 2504 H 219.463 0.529466 -2.521 0
M  V30 2505 H 219.421 2.23117 -2.21509 0
M  V30 2506 N 223.193 1.4272 -0.668489 0
M  V30 2507 C 224.123 2.335 -0.000100175 0
M  V30 2508 C 225.104 1.50328 0.795964 0
M  V30 2509 O 226.289 1.78949 0.754385 0
M  V30 2510 C 223.419 3.33874 0.956302 0
M  V30 2511 C 222.373 4.27152 0.269278 0
M  V30 2512 C 221.699 5.17684 1.33818 0
M  V30 2513 C 222.999 5.15373 -0.847805 0
M  V30 2514 H 224.693 2.89639 -0.758244 0
M  V30 2515 H 222.239 1.39269 -0.366079 0
M  V30 2516 H 224.192 3.9629 1.43292 0
M  V30 2517 H 222.916 2.76025 1.74579 0
M  V30 2518 H 221.575 3.66123 -0.187042 0
M  V30 2519 H 221.223 4.56165 2.1195 0
M  V30 2520 H 220.923 5.80918 0.883659 0
M  V30 2521 H 222.447 5.82974 1.81586 0
M  V30 2522 H 223.861 5.7151 -0.452681 0
M  V30 2523 H 222.258 5.87407 -1.22773 0
M  V30 2524 H 223.328 4.5415 -1.69929 0
M  V30 2525 N 224.671 0.411399 1.52136 0
M  V30 2526 C 225.618 -0.412975 2.27075 0
M  V30 2527 C 226.588 -1.03912 1.29582 0
M  V30 2528 O 227.773 -1.06296 1.58448 0
M  V30 2529 C 224.913 -1.52247 3.09701 0
M  V30 2530 C 224.026 -0.917021 4.22155 0
M  V30 2531 C 223.161 -1.9994 4.92135 0
M  V30 2532 C 222.2 -1.37101 5.96548 0
M  V30 2533 N 221.337 -2.39364 6.60038 0
M  V30 2534 H 226.177 0.232499 2.97092 0
M  V30 2535 H 223.714 0.126496 1.46555 0
M  V30 2536 H 225.672 -2.17674 3.55913 0
M  V30 2537 H 224.302 -2.13794 2.41851 0
M  V30 2538 H 223.354 -0.151742 3.80097 0
M  V30 2539 H 224.666 -0.418006 4.97045 0
M  V30 2540 H 223.82 -2.73088 5.41763 0
M  V30 2541 H 222.559 -2.53208 4.16818 0
M  V30 2542 H 221.564 -0.624873 5.46237 0
M  V30 2543 H 222.789 -0.845998 6.7381 0
M  V30 2544 H 220.735 -2.91759 5.87548 0
M  V30 2545 H 220.652 -1.9428 7.3061 0
M  V30 2546 H 221.92 -3.12074 7.14304 0
M  V30 2547 N 226.149 -1.5696 0.141893 0
M  V30 2548 C 227.112 -2.15316 -0.785587 0
M  V30 2549 C 228.112 -1.09366 -1.1788 0
M  V30 2550 O 229.302 -1.35031 -1.10056 0
M  V30 2551 C 226.434 -2.71211 -2.06537 0
M  V30 2552 H 227.627 -2.98608 -0.278041 0
M  V30 2553 H 225.18 -1.5593 -0.107519 0
M  V30 2554 H 225.915 -1.91571 -2.6167 0
M  V30 2555 H 225.7 -3.4872 -1.79268 0
M  V30 2556 H 227.19 -3.16189 -2.72789 0
M  V30 2557 N 227.627 0.131896 -1.57047 0
M  V30 2558 C 228.852 0.860418 -1.8871 0
M  V30 2559 C 229.277 1.73251 -0.73251 0
M  V30 2560 O 228.635 1.785 0.317429 0
M  V30 2561 C 228.683 1.68047 -3.19049 0
M  V30 2562 O 227.787 2.7862 -3.04047 0
M  V30 2563 H 227.128 0.238743 -0.619595 0
M  V30 2564 H 229.658 0.118169 -2.04258 0
M  V30 2565 H 229.668 2.07238 -3.51449 0
M  V30 2566 H 228.343 1.04018 -4.02682 0
M  V30 2567 H 226.92 2.42726 -2.83088 0
M  V30 2568 N 229.106 1.52395 0.401703 0
M  V30 2569 C 230.016 1.7917 1.51444 0
M  V30 2570 C 231.032 0.677691 1.6026 0
M  V30 2571 O 232.208 0.963909 1.76835 0
M  V30 2572 C 229.273 1.94347 2.87107 0
M  V30 2573 C 228.334 3.18257 2.88116 0
M  V30 2574 C 227.567 3.32701 4.17308 0
M  V30 2575 O 227.79 2.52238 5.11598 0
M  V30 2576 O 226.724 4.25891 4.25324 0
M  V30 2577 H 230.55 2.73633 1.31752 0
M  V30 2578 H 228.135 1.3733 0.588296 0
M  V30 2579 H 230.017 2.06109 3.67555 0
M  V30 2580 H 228.692 1.03073 3.06851 0
M  V30 2581 H 227.599 3.11947 2.06494 0
M  V30 2582 H 228.932 4.09336 2.73322 0
M  V30 2583 N 230.584 -0.659388 1.43143 0
M  V30 2584 C 231.531 -1.77249 1.47822 0
M  V30 2585 C 232.501 -1.62818 0.328558 0
M  V30 2586 O 233.686 -1.83151 0.534838 0
M  V30 2587 C 230.826 -3.15371 1.40126 0
M  V30 2588 C 229.939 -3.4098 2.65249 0
M  V30 2589 C 229.074 -4.68915 2.49584 0
M  V30 2590 C 228.113 -4.87608 3.70006 0
M  V30 2591 N 227.25 -6.06796 3.53189 0
M  V30 2592 H 232.09 -1.72584 2.42938 0
M  V30 2593 H 229.627 -0.842297 1.20598 0
M  V30 2594 H 231.585 -3.9521 1.33659 0
M  V30 2595 H 230.215 -3.19121 0.485964 0
M  V30 2596 H 229.267 -2.55282 2.8202 0
M  V30 2597 H 230.579 -3.50681 3.54717 0
M  V30 2598 H 229.733 -5.56871 2.4079 0
M  V30 2599 H 228.472 -4.61524 1.5763 0
M  V30 2600 H 227.477 -3.9809 3.79215 0
M  V30 2601 H 228.702 -4.96834 4.62961 0
M  V30 2602 H 226.648 -6.00549 2.63965 0
M  V30 2603 H 226.565 -6.17428 4.36255 0
M  V30 2604 H 227.833 -6.9739 3.48236 0
M  V30 2605 N 232.062 -1.29571 -0.897171 0
M  V30 2606 C 232.992 -1.17473 -2.01798 0
M  V30 2607 C 233.973 -0.068323 -1.69963 0
M  V30 2608 O 235.158 -0.248239 -1.92607 0
M  V30 2609 C 232.288 -0.853099 -3.36659 0
M  V30 2610 C 231.242 -1.9161 -3.82713 0
M  V30 2611 C 230.568 -1.44773 -5.14728 0
M  V30 2612 C 231.868 -3.32535 -4.02763 0
M  V30 2613 H 233.562 -2.11237 -2.12177 0
M  V30 2614 H 231.108 -1.01699 -1.01948 0
M  V30 2615 H 233.061 -0.755165 -4.14578 0
M  V30 2616 H 231.785 0.120236 -3.26379 0
M  V30 2617 H 230.444 -2.00346 -3.07013 0
M  V30 2618 H 230.092 -0.462995 -5.00865 0
M  V30 2619 H 229.792 -2.15865 -5.46513 0
M  V30 2620 H 231.316 -1.36334 -5.95185 0
M  V30 2621 H 232.73 -3.26626 -4.71156 0
M  V30 2622 H 231.127 -4.01607 -4.45905 0
M  V30 2623 H 232.197 -3.75326 -3.07016 0
M  V30 2624 N 233.54 1.10788 -1.12088 0
M  V30 2625 C 234.817 1.79136 -0.785476 0
M  V30 2626 C 235.197 1.98246 0.725377 0
M  V30 2627 O 234.545 1.57258 1.65778 0
M  V30 2628 C 234.755 3.12375 -1.55636 0
M  V30 2629 C 236.103 3.8731 -1.74001 0
M  V30 2630 O 237.127 3.22085 -1.52117 0
M  V30 2631 O 235.986 5.04369 -2.10415 0
M  V30 2632 H 233.08 0.776226 -0.285311 0
M  V30 2633 H 235.626 1.1747 -1.2247 0
M  V30 2634 H 234.398 2.93863 -2.5838 0
M  V30 2635 H 234.021 3.81758 -1.11114 0
M  V30 2636 N 235.018 0.912232 1.28515 0
M  V30 2637 C 236.248 0.559604 1.98877 0
M  V30 2638 C 236.656 -0.863113 1.68366 0
M  V30 2639 O 235.999 -1.58304 0.931969 0
M  V30 2640 C 236.061 0.68703 3.52874 0
M  V30 2641 C 235.725 2.07901 4.06972 0
M  V30 2642 C 236.722 3.05157 4.20922 0
M  V30 2643 C 234.407 2.39178 4.417 0
M  V30 2644 C 236.401 4.31806 4.68852 0
M  V30 2645 C 234.088 3.66068 4.89324 0
M  V30 2646 C 235.086 4.62195 5.02856 0
M  V30 2647 O 234.774 5.86829 5.49442 0
M  V30 2648 H 234.506 0.212191 0.641834 0
M  V30 2649 H 237.06 1.22712 1.64715 0
M  V30 2650 H 235.29 -0.0375486 3.86682 0
M  V30 2651 H 236.979 0.341727 4.04459 0
M  V30 2652 H 237.745 2.82311 3.94367 0
M  V30 2653 H 233.624 1.65109 4.30418 0
M  V30 2654 H 237.168 5.06842 4.79329 0
M  V30 2655 H 233.065 3.88739 5.15318 0
M  V30 2656 H 233.833 5.89597 5.6773 0
M  V30 2657 N 236.496 -1.42363 0.676048 0
M  V30 2658 C 237.745 -2.00745 0.196037 0
M  V30 2659 C 238.058 -1.54083 -1.20489 0
M  V30 2660 O 239.264 -2.04891 -1.78134 0
M  V30 2661 C 237.72 -3.58651 0.299616 0
M  V30 2662 C 237.328 -4.143 1.70468 0
M  V30 2663 C 239.072 -4.24326 -0.121619 0
M  V30 2664 C 236.979 -5.64574 1.76096 0
M  V30 2665 H 235.909 -0.750787 0.0695301 0
M  V30 2666 H 238.56 -1.63072 0.841412 0
M  V30 2667 H 236.942 -3.93833 -0.413673 0
M  V30 2668 H 238.116 -3.90575 2.44515 0
M  V30 2669 H 236.431 -3.61081 2.07387 0
M  V30 2670 H 239.028 -5.34607 -0.0997362 0
M  V30 2671 H 239.371 -3.99897 -1.15708 0
M  V30 2672 H 239.904 -3.94108 0.540706 0
M  V30 2673 H 236.643 -5.93804 2.77628 0
M  V30 2674 H 236.163 -5.90286 1.06406 0
M  V30 2675 H 237.842 -6.29013 1.51496 0
M  V30 2676 N 237.974 -0.419461 -1.51915 0
M  V30 2677 C 239.202 0.152136 -2.0634 0
M  V30 2678 C 239.617 1.37988 -1.28859 0
M  V30 2679 O 238.974 1.79243 -0.343232 0
M  V30 2680 C 239.025 0.492266 -3.58133 0
M  V30 2681 O 238.746 -0.686736 -4.32684 0
M  V30 2682 C 240.247 1.11648 -4.2901 0
M  V30 2683 H 237.467 0.0158325 -0.670813 0
M  V30 2684 H 240.011 -0.593394 -1.95702 0
M  V30 2685 H 238.166 1.18769 -3.68745 0
M  V30 2686 H 238.58 -0.400341 -5.2297 0
M  V30 2687 H 240.054 1.3046 -5.36362 0
M  V30 2688 H 240.531 2.09251 -3.86148 0
M  V30 2689 H 241.137 0.460958 -4.22795 0
M  V30 2690 N 239.452 1.56882 -0.150215 0
M  V30 2691 C 240.682 2.00302 0.506213 0
M  V30 2692 C 241.09 1.02934 1.58749 0
M  V30 2693 O 240.433 0.0188384 1.8369 0
M  V30 2694 C 240.495 3.40156 1.16337 0
M  V30 2695 C 240.159 4.56439 0.226311 0
M  V30 2696 C 241.156 5.17012 -0.547265 0
M  V30 2697 C 238.841 5.02136 0.128279 0
M  V30 2698 C 240.835 6.21693 -1.40629 0
M  V30 2699 C 238.522 6.06672 -0.734345 0
M  V30 2700 C 239.52 6.6632 -1.50023 0
M  V30 2701 O 239.208 7.68831 -2.34848 0
M  V30 2702 H 238.94 0.662182 0.135984 0
M  V30 2703 H 241.494 2.03961 -0.242746 0
M  V30 2704 H 239.724 3.33346 1.96004 0
M  V30 2705 H 241.413 3.67663 1.71985 0
M  V30 2706 H 242.179 4.82603 -0.48158 0
M  V30 2707 H 238.058 4.55435 0.714157 0
M  V30 2708 H 241.602 6.68179 -2.00455 0
M  V30 2709 H 237.499 6.40507 -0.801309 0
M  V30 2710 H 238.267 7.86065 -2.28131 0
M  V30 2711 N 240.93 -0.123565 1.57115 0
M  V30 2712 C 241.86 -1.15309 2.03042 0
M  V30 2713 C 242.841 -1.43454 0.914061 0
M  V30 2714 O 244.026 -1.53973 1.18347 0
M  V30 2715 C 241.156 -2.48043 2.43089 0
M  V30 2716 C 240.11 -2.3437 3.58127 0
M  V30 2717 C 239.436 -3.72026 3.84059 0
M  V30 2718 C 240.736 -1.80804 4.90007 0
M  V30 2719 H 242.43 -0.771102 2.893 0
M  V30 2720 H 239.976 -0.369479 1.39179 0
M  V30 2721 H 241.929 -3.20311 2.73823 0
M  V30 2722 H 240.653 -2.88122 1.53796 0
M  V30 2723 H 239.312 -1.64551 3.27595 0
M  V30 2724 H 238.96 -4.09582 2.91979 0
M  V30 2725 H 238.66 -3.63732 4.6149 0
M  V30 2726 H 240.184 -4.45806 4.1724 0
M  V30 2727 H 241.598 -2.42886 5.19307 0
M  V30 2728 H 239.995 -1.83343 5.71407 0
M  V30 2729 H 241.065 -0.76528 4.78823 0
M  V30 2730 N 242.408 -1.52605 -0.393616 0
M  V30 2731 C 243.633 -1.71592 -1.16495 0
M  V30 2732 C 244.058 -0.43133 -1.83088 0
M  V30 2733 O 243.416 0.612523 -1.7064 0
M  V30 2734 C 243.464 -2.86318 -2.19213 0
M  V30 2735 O 242.568 -2.52969 -3.257 0
M  V30 2736 H 241.909 -0.570734 -0.33935 0
M  V30 2737 H 244.439 -1.99377 -0.459324 0
M  V30 2738 H 244.449 -3.1168 -2.63286 0
M  V30 2739 H 243.124 -3.79511 -1.7013 0
M  V30 2740 H 241.701 -2.38332 -2.86797 0
M  V30 2741 N 243.887 0.651787 -1.4349 0
M  V30 2742 C 245.136 1.40754 -1.44469 0
M  V30 2743 C 245.449 1.95463 -0.0731845 0
M  V30 2744 O 246.655 2.71471 0.0395721 0
M  V30 2745 C 245.111 2.54735 -2.5424 0
M  V30 2746 C 244.719 2.06628 -3.97504 0
M  V30 2747 C 246.463 3.32092 -2.64414 0
M  V30 2748 C 244.37 3.17829 -4.98737 0
M  V30 2749 H 243.3 0.528862 -0.53742 0
M  V30 2750 H 245.951 0.703365 -1.69485 0
M  V30 2751 H 244.333 3.2763 -2.22428 0
M  V30 2752 H 245.507 1.40734 -4.38783 0
M  V30 2753 H 243.822 1.42146 -3.91387 0
M  V30 2754 H 246.419 4.14952 -3.37223 0
M  V30 2755 H 246.762 3.80217 -1.69532 0
M  V30 2756 H 247.295 2.66279 -2.95534 0
M  V30 2757 H 244.034 2.74671 -5.95177 0
M  V30 2758 H 243.554 3.82429 -4.62069 0
M  V30 2759 H 245.233 3.82937 -5.21505 0
M  V30 2760 N 245.365 1.30045 0.890287 0
M  V30 2761 C 246.612 1.18561 1.64163 0
M  V30 2762 C 246.94 -0.260852 1.92743 0
M  V30 2763 O 246.195 -1.20376 1.54299 0
M  V30 2764 C 246.494 1.95409 2.99249 0
M  V30 2765 C 246.16 3.45066 2.90242 0
M  V30 2766 C 244.822 3.85878 2.87492 0
M  V30 2767 C 247.174 4.4039 2.78758 0
M  V30 2768 C 244.502 5.20314 2.7109 0
M  V30 2769 C 246.854 5.74928 2.63894 0
M  V30 2770 C 245.518 6.14986 2.59516 0
M  V30 2771 H 244.788 0.433846 0.600715 0
M  V30 2772 H 247.435 1.61088 1.03552 0
M  V30 2773 H 245.74 1.45501 3.63781 0
M  V30 2774 H 247.437 1.8392 3.56334 0
M  V30 2775 H 244.027 3.12631 2.93189 0
M  V30 2776 H 248.211 4.09806 2.79952 0
M  V30 2777 H 243.467 5.50449 2.66112 0
M  V30 2778 H 247.641 6.48434 2.53981 0
M  V30 2779 H 245.268 7.19104 2.46565 0
M  V30 2780 N 246.843 -1.10192 1.12674 0
M  V30 2781 C 248.12 -1.78717 0.794965 0
M  V30 2782 C 248.5 -1.98628 -0.714853 0
M  V30 2783 O 247.848 -1.58135 -1.64941 0
M  V30 2784 C 248.058 -3.11546 1.5729 0
M  V30 2785 C 249.406 -3.86382 1.76052 0
M  V30 2786 O 250.43 -3.21274 1.53823 0
M  V30 2787 O 249.289 -5.03246 2.13087 0
M  V30 2788 H 246.383 -0.774702 0.289423 0
M  V30 2789 H 248.929 -1.16819 1.23091 0
M  V30 2790 H 247.701 -2.92489 2.59935 0
M  V30 2791 H 247.324 -3.81164 1.13137 0
M  V30 2792 N 248.321 -0.919034 -1.28029 0
M  V30 2793 C 249.253 -0.368762 -2.26214 0
M  V30 2794 C 250.266 0.495716 -1.55069 0
M  V30 2795 O 251.455 0.30974 -1.75792 0
M  V30 2796 C 248.555 0.491049 -3.35324 0
M  V30 2797 C 247.728 -0.352133 -4.3598 0
M  V30 2798 C 246.787 0.443622 -5.24327 0
M  V30 2799 O 245.813 -0.14566 -5.69014 0
M  V30 2800 N 247.015 1.74545 -5.53637 0
M  V30 2801 H 249.78 -1.21273 -2.74068 0
M  V30 2802 H 247.341 -0.785541 -1.41566 0
M  V30 2803 H 249.333 1.03026 -3.91366 0
M  V30 2804 H 247.903 1.23574 -2.87138 0
M  V30 2805 H 247.123 -1.07269 -3.79324 0
M  V30 2806 H 248.411 -0.928883 -5.00249 0
M  V30 2807 H 247.809 2.24666 -5.19174 0
M  V30 2808 H 246.366 2.23138 -6.12416 0
M  V30 2809 N 249.799 1.42003 -0.683588 0
M  V30 2810 C 250.729 2.33487 -0.024866 0
M  V30 2811 C 251.71 1.51163 0.779975 0
M  V30 2812 O 252.895 1.79739 0.735362 0
M  V30 2813 C 250.025 3.3487 0.920836 0
M  V30 2814 C 248.979 4.27414 0.223958 0
M  V30 2815 C 248.305 5.19074 1.2832 0
M  V30 2816 C 249.605 5.14445 -0.90242 0
M  V30 2817 H 251.299 2.88819 -0.788921 0
M  V30 2818 H 248.845 1.38873 -0.38083 0
M  V30 2819 H 250.798 3.97787 1.39081 0
M  V30 2820 H 249.522 2.77861 1.71642 0
M  V30 2821 H 248.181 3.65904 -0.225864 0
M  V30 2822 H 247.829 4.58387 2.071 0
M  V30 2823 H 247.529 5.81822 0.821995 0
M  V30 2824 H 249.053 5.84867 1.75392 0
M  V30 2825 H 250.467 5.70998 -0.513272 0
M  V30 2826 H 248.864 5.86072 -1.28997 0
M  V30 2827 H 249.934 4.52322 -1.74737 0
M  V30 2828 N 251.277 0.427512 1.51691 0
M  V30 2829 C 252.524 -0.142229 2.02 0
M  V30 2830 C 252.852 -1.43566 1.31221 0
M  V30 2831 O 252.107 -1.91298 0.412744 0
M  V30 2832 C 252.406 -0.418249 3.54944 0
M  V30 2833 C 252.072 0.788187 4.43958 0
M  V30 2834 C 250.734 1.11906 4.68007 0
M  V30 2835 C 253.086 1.59347 4.96244 0
M  V30 2836 C 250.414 2.25608 5.41588 0
M  V30 2837 C 252.766 2.7214 5.71072 0
M  V30 2838 C 251.43 3.05692 5.93387 0
M  V30 2839 H 250.7 -0.0520451 0.73917 0
M  V30 2840 H 253.347 0.572697 1.82736 0
M  V30 2841 H 251.652 -1.21496 3.72486 0
M  V30 2842 H 253.349 -0.872339 3.91397 0
M  V30 2843 H 249.939 0.520344 4.2543 0
M  V30 2844 H 254.123 1.35106 4.77556 0
M  V30 2845 H 249.379 2.51929 5.57083 0
M  V30 2846 H 253.553 3.34914 6.10578 0
M  V30 2847 H 251.18 3.9391 6.50184 0
M  V30 2848 N 252.755 -1.56801 0.158532 0
M  V30 2849 C 254.032 -1.88131 -0.535357 0
M  V30 2850 C 254.412 -1.06638 -1.82186 0
M  V30 2851 O 253.76 -0.156533 -2.27963 0
M  V30 2852 C 253.97 -3.39949 -0.789653 0
M  V30 2853 C 255.318 -4.09416 -1.12533 0
M  V30 2854 O 256.342 -3.45194 -0.878622 0
M  V30 2855 O 255.201 -5.22855 -1.59014 0
M  V30 2856 H 252.295 -0.780143 -0.27442 0
M  V30 2857 H 254.841 -1.68564 0.19601 0
M  V30 2858 H 253.613 -3.91115 0.120353 0
M  V30 2859 H 253.236 -3.65084 -1.57479 0
M  V30 2860 N 254.233 0.115231 -1.57178 0
M  V30 2861 C 255.482 0.820945 -1.84237 0
M  V30 2862 C 255.795 1.80866 -0.744761 0
M  V30 2863 O 257.001 2.56083 -0.901871 0
M  V30 2864 C 255.457 1.51072 -3.26658 0
M  V30 2865 C 255.065 0.563795 -4.44438 0
M  V30 2866 C 256.809 2.20134 -3.62962 0
M  V30 2867 C 254.716 1.25701 -5.77887 0
M  V30 2868 H 253.646 0.310328 -0.687177 0
M  V30 2869 H 256.297 0.0737134 -1.83352 0
M  V30 2870 H 254.679 2.30471 -3.22024 0
M  V30 2871 H 255.853 -0.197247 -4.60378 0
M  V30 2872 H 254.168 -0.0200638 -4.16395 0
M  V30 2873 H 256.765 2.72696 -4.59936 0
M  V30 2874 H 257.108 2.98107 -2.90582 0
M  V30 2875 H 257.641 1.47619 -3.69396 0
M  V30 2876 H 254.38 0.518493 -6.53446 0
M  V30 2877 H 253.9 1.98997 -5.65827 0
M  V30 2878 H 255.579 1.78915 -6.2177 0
M  V30 2879 N 255.711 1.52812 0.385517 0
M  V30 2880 C 257.122 1.5993 0.963293 0
M  V30 2881 C 257.473 0.454302 1.90868 0
M  V30 2882 O 256.598 -0.422132 2.12243 0
M  V30 2883 C 257.193 2.89871 1.75387 0
M  V30 2884 C 255.752 2.99389 2.28129 0
M  V30 2885 C 254.899 2.55071 1.08783 0
M  V30 2886 H 257.85 1.5784 0.164948 0
M  V30 2887 H 257.871 2.76553 2.61341 0
M  V30 2888 H 257.383 3.73186 1.06554 0
M  V30 2889 H 255.484 2.20619 3.00263 0
M  V30 2890 H 255.597 4.04096 2.57377 0
M  V30 2891 H 253.961 2.09473 1.4489 0
M  V30 2892 H 254.744 3.40785 0.414807 0
M  V30 2893 N 257.189 -0.644168 1.43834 0
M  V30 2894 C 258.136 -1.75671 1.49694 0
M  V30 2895 C 259.106 -1.6246 0.345809 0
M  V30 2896 O 260.291 -1.82573 0.554234 0
M  V30 2897 C 257.431 -3.13867 1.43463 0
M  V30 2898 C 256.544 -3.38147 2.6885 0
M  V30 2899 C 255.679 -4.66241 2.54544 0
M  V30 2900 C 254.718 -4.83657 3.75157 0
M  V30 2901 N 253.855 -6.03016 3.59605 0
M  V30 2902 H 258.695 -1.69998 2.44754 0
M  V30 2903 H 256.232 -0.829458 1.21484 0
M  V30 2904 H 258.19 -3.9377 1.37843 0
M  V30 2905 H 256.82 -3.18588 0.519783 0
M  V30 2906 H 255.872 -2.52276 2.84712 0
M  V30 2907 H 257.184 -3.46899 3.58417 0
M  V30 2908 H 256.338 -5.54285 2.46683 0
M  V30 2909 H 255.077 -4.59826 1.62516 0
M  V30 2910 H 254.082 -3.94046 3.83416 0
M  V30 2911 H 255.307 -4.91896 4.68204 0
M  V30 2912 H 253.253 -5.97715 2.7032 0
M  V30 2913 H 253.17 -6.12766 4.42779 0
M  V30 2914 H 254.438 -6.93657 3.55613 0
M  V30 2915 N 258.668 -1.30515 -0.883378 0
M  V30 2916 C 259.578 -1.18959 -2.02203 0
M  V30 2917 C 260.594 -0.109172 -1.73657 0
M  V30 2918 O 261.77 -0.324413 -1.9877 0
M  V30 2919 C 258.835 -0.883871 -3.35244 0
M  V30 2920 C 257.896 -2.04982 -3.77201 0
M  V30 2921 C 257.129 -1.75859 -5.03894 0
M  V30 2922 O 257.352 -0.687276 -5.66244 0
M  V30 2923 O 256.286 -2.61146 -5.42297 0
M  V30 2924 H 260.112 -2.14616 -2.1488 0
M  V30 2925 H 257.697 -1.10124 -1.0096 0
M  V30 2926 H 259.579 -0.728644 -4.15053 0
M  V30 2927 H 258.254 0.0427798 -3.23672 0
M  V30 2928 H 257.161 -2.26038 -2.9809 0
M  V30 2929 H 258.494 -2.95825 -3.93381 0
M  V30 2930 N 260.146 1.09593 -1.13257 0
M  V30 2931 C 261.562 1.33775 -0.870423 0
M  V30 2932 C 261.762 1.95327 0.494926 0
M  V30 2933 O 260.818 2.19853 1.2418 0
M  V30 2934 C 262.131 2.25106 -1.99369 0
M  V30 2935 C 263.679 2.3862 -2.02558 0
M  V30 2936 C 264.154 3.33285 -3.14142 0
M  V30 2937 N 265.645 3.40857 -3.13641 0
M  V30 2938 C 266.38 4.14101 -3.96621 0
M  V30 2939 N 265.876 4.90157 -4.8961 0
M  V30 2940 N 267.669 4.09808 -3.84726 0
M  V30 2941 H 259.82 0.680136 -2.01216 0
M  V30 2942 H 262.083 0.362133 -0.876107 0
M  V30 2943 H 261.789 1.87103 -2.97801 0
M  V30 2944 H 261.663 3.25481 -1.90635 0
M  V30 2945 H 264.05 2.75887 -1.0474 0
M  V30 2946 H 264.131 1.38028 -2.15364 0
M  V30 2947 H 263.775 2.96741 -4.12198 0
M  V30 2948 H 263.705 4.33776 -2.98574 0
M  V30 2949 H 266.196 2.86624 -2.46282 0
M  V30 2950 H 266.509 5.4347 -5.49418 0
M  V30 2951 H 264.854 4.89251 -4.93617 0
M  V30 2952 H 268.045 3.4949 -3.11408 0
M  V30 2953 H 268.218 4.66629 -4.49623 0
M  V30 2954 N 261.624 0.925811 1.2754 0
M  V30 2955 C 262.571 0.422045 2.26908 0
M  V30 2956 C 263.541 -0.510029 1.58076 0
M  V30 2957 O 264.726 -0.429599 1.85901 0
M  V30 2958 C 261.866 -0.320837 3.43605 0
M  V30 2959 C 260.979 0.64513 4.27156 0
M  V30 2960 C 260.114 -0.117405 5.3107 0
M  V30 2961 C 259.153 0.841391 6.0629 0
M  V30 2962 N 258.29 0.111604 7.02011 0
M  V30 2963 H 263.13 1.27441 2.69375 0
M  V30 2964 H 260.667 0.639697 1.32462 0
M  V30 2965 H 262.625 -0.76785 4.10073 0
M  V30 2966 H 261.255 -1.13745 3.02096 0
M  V30 2967 H 260.307 1.21067 3.6062 0
M  V30 2968 H 261.619 1.37797 4.79389 0
M  V30 2969 H 260.773 -0.624422 6.03478 0
M  V30 2970 H 259.512 -0.883219 4.79636 0
M  V30 2971 H 258.517 1.35967 5.32722 0
M  V30 2972 H 259.742 1.60696 6.59813 0
M  V30 2973 H 257.688 -0.635999 6.5291 0
M  V30 2974 H 257.605 0.784044 7.51923 0
M  V30 2975 H 258.873 -0.374823 7.78598 0
M  V30 2976 N 263.102 -1.41638 0.69111 0
M  V30 2977 C 264.05 -2.32597 0.0115199 0
M  V30 2978 C 265.044 -1.5072 -0.773296 0
M  V30 2979 O 266.25 -1.66685 -0.67942 0
M  V30 2980 H 262.625 -0.751849 -0.0150746 0
M  V30 2981 H 264.596 -2.87593 0.795791 0
M  V30 2982 C 263.345 -3.35467 -0.914172 0
M  V30 2983 H 262.668 -3.9852 -0.319687 0
M  V30 2984 H 264.108 -4.01662 -1.35808 0
M  V30 2985 C 262.567 -2.69004 -2.02826 0
M  V30 2986 O 263.097 -2.53444 -3.11655 0
M  V30 2987 N 261.303 -2.2777 -1.80469 0
M  V30 2988 H 260.85 -2.40626 -0.919615 0
M  V30 2989 H 260.808 -1.83635 -2.55197 0
M  V30 2990 N 264.58 -0.43555 -1.51462 0
M  V30 2991 C 265.543 0.365137 -2.26273 0
M  V30 2992 C 266.543 0.951227 -1.29647 0
M  V30 2993 O 267.733 0.825958 -1.53374 0
M  V30 2994 C 264.865 1.51645 -3.05314 0
M  V30 2995 H 266.058 -0.290474 -2.9849 0
M  V30 2996 H 263.611 -0.188676 -1.55157 0
M  V30 2997 H 264.346 2.20816 -2.3751 0
M  V30 2998 H 264.131 1.10238 -3.76284 0
M  V30 2999 H 265.621 2.08218 -3.61987 0
M  V30 3000 N 266.058 1.56714 -0.166846 0
M  V30 3001 C 266.968 2.21331 0.777791 0
M  V30 3002 C 267.984 1.20358 1.25658 0
M  V30 3003 O 269.16 1.53005 1.30964 0
M  V30 3004 C 266.225 2.83787 1.99163 0
M  V30 3005 C 265.286 3.99947 1.56016 0
M  V30 3006 C 264.519 4.59415 2.71613 0
M  V30 3007 O 264.742 4.17769 3.88362 0
M  V30 3008 O 263.676 5.49359 2.45945 0
M  V30 3009 H 267.502 3.02605 0.257636 0
M  V30 3010 H 265.087 1.49275 0.0611393 0
M  V30 3011 H 266.969 3.23405 2.70161 0
M  V30 3012 H 265.644 2.05513 2.50092 0
M  V30 3013 H 264.551 3.65007 0.819809 0
M  V30 3014 H 265.884 4.79801 1.09782 0
M  V30 3015 N 267.536 -0.106894 1.57237 0
M  V30 3016 C 268.766 -0.825191 1.89405 0
M  V30 3017 C 269.174 -1.73374 0.757496 0
M  V30 3018 O 268.517 -1.81552 -0.280115 0
M  V30 3019 C 268.579 -1.70102 3.1671 0
M  V30 3020 C 268.243 -0.965523 4.46684 0
M  V30 3021 C 269.24 -0.300741 5.19029 0
M  V30 3022 C 266.925 -0.943105 4.93367 0
M  V30 3023 C 268.919 0.376622 6.36286 0
M  V30 3024 C 266.606 -0.261949 6.10538 0
M  V30 3025 C 267.604 0.396748 6.81847 0
M  V30 3026 O 267.292 1.06701 7.96787 0
M  V30 3027 H 267.024 -0.241852 0.631255 0
M  V30 3028 H 269.578 -0.0921491 2.05193 0
M  V30 3029 H 267.808 -2.47601 2.97036 0
M  V30 3030 H 269.497 -2.29483 3.34802 0
M  V30 3031 H 270.263 -0.309599 4.84011 0
M  V30 3032 H 266.142 -1.44524 4.3776 0
M  V30 3033 H 269.686 0.891334 6.91882 0
M  V30 3034 H 265.583 -0.250896 6.45012 0
M  V30 3035 H 266.351 0.972707 8.127 0
M  V30 3036 N 269.014 -1.53014 -0.377408 0
M  V30 3037 C 269.961 -1.78616 -1.46168 0
M  V30 3038 C 270.931 -0.629917 -1.53692 0
M  V30 3039 O 272.116 -0.870861 -1.69766 0
M  V30 3040 C 269.256 -1.97123 -2.8326 0
M  V30 3041 C 268.369 -3.24831 -2.84796 0
M  V30 3042 C 267.504 -3.33591 -4.13389 0
M  V30 3043 C 266.543 -4.55377 -4.09021 0
M  V30 3044 N 265.68 -4.61355 -5.29241 0
M  V30 3045 H 270.52 -2.71142 -1.23637 0
M  V30 3046 H 268.057 -1.34326 -0.599577 0
M  V30 3047 H 270.015 -2.05839 -3.62886 0
M  V30 3048 H 268.645 -1.07946 -3.04216 0
M  V30 3049 H 267.697 -3.25128 -1.97474 0
M  V30 3050 H 269.009 -4.14523 -2.77439 0
M  V30 3051 H 268.163 -3.41554 -5.01424 0
M  V30 3052 H 266.902 -2.41894 -4.23484 0
M  V30 3053 H 265.907 -4.47527 -3.19373 0
M  V30 3054 H 267.132 -5.48402 -4.00539 0
M  V30 3055 H 265.078 -3.72554 -5.39944 0
M  V30 3056 H 264.995 -5.44935 -5.24006 0
M  V30 3057 H 266.263 -4.73586 -6.19141 0
M  V30 3058 N 270.492 0.636531 -1.44174 0
M  V30 3059 C 271.908 0.954104 -1.27941 0
M  V30 3060 C 272.108 2.0039 -0.211248 0
M  V30 3061 O 271.164 2.49236 0.404695 0
M  V30 3062 C 272.477 1.4225 -2.64925 0
M  V30 3063 C 274.025 1.53827 -2.72592 0
M  V30 3064 C 274.5 2.04053 -4.10032 0
M  V30 3065 N 275.991 2.11331 -4.12182 0
M  V30 3066 C 276.726 2.51352 -5.15374 0
M  V30 3067 N 276.222 2.90549 -6.2893 0
M  V30 3068 N 278.015 2.51438 -5.02728 0
M  V30 3069 H 270.166 -0.0578386 -2.12321 0
M  V30 3070 H 272.429 0.0367406 -0.947288 0
M  V30 3071 H 272.135 0.725466 -3.44136 0
M  V30 3072 H 272.009 2.39451 -2.9145 0
M  V30 3073 H 274.396 2.22628 -1.93702 0
M  V30 3074 H 274.477 0.550154 -2.49814 0
M  V30 3075 H 274.121 1.35848 -4.89395 0
M  V30 3076 H 274.051 3.03726 -4.30184 0
M  V30 3077 H 276.542 1.83745 -3.30222 0
M  V30 3078 H 276.855 3.19884 -7.03487 0
M  V30 3079 H 275.2 2.88313 -6.32377 0
M  V30 3080 H 278.391 2.20203 -4.13072 0
M  V30 3081 H 278.564 2.82304 -5.83274 0
M  V30 3082 N 271.97 1.30982 0.876444 0
M  V30 3083 C 273.2 1.23063 1.65949 0
M  V30 3084 C 273.608 -0.207537 1.88058 0
M  V30 3085 O 272.951 -1.14781 1.43426 0
M  V30 3086 C 273.013 1.89768 3.05333 0
M  V30 3087 C 272.677 3.39106 3.0636 0
M  V30 3088 C 273.674 4.3496 2.84791 0
M  V30 3089 C 271.359 3.80693 3.27686 0
M  V30 3090 C 273.353 5.70375 2.84519 0
M  V30 3091 C 271.04 5.16223 3.27043 0
M  V30 3092 C 272.038 6.10875 3.05485 0
M  V30 3093 O 271.726 7.43928 3.04674 0
M  V30 3094 H 271.458 0.426685 0.524324 0
M  V30 3095 H 274.012 1.7329 1.10271 0
M  V30 3096 H 272.242 1.34082 3.6271 0
M  V30 3097 H 273.931 1.75853 3.65829 0
M  V30 3098 H 274.697 4.0416 2.68103 0
M  V30 3099 H 270.576 3.07457 3.43499 0
M  V30 3100 H 274.12 6.44228 2.67611 0
M  V30 3101 H 270.017 5.4666 3.43269 0
M  V30 3102 H 270.785 7.53022 3.2078 0
M  V30 3103 N 273.449 -1.08991 1.13837 0
M  V30 3104 C 274.379 -2.17771 0.842507 0
M  V30 3105 C 275.36 -1.6892 -0.20001 0
M  V30 3106 O 276.545 -1.94113 -0.0579731 0
M  V30 3107 C 273.675 -3.4589 0.312644 0
M  V30 3108 C 272.629 -4.08099 1.28992 0
M  V30 3109 C 271.955 -5.31098 0.619623 0
M  V30 3110 C 273.255 -4.50077 2.65005 0
M  V30 3111 H 274.949 -2.42777 1.75213 0
M  V30 3112 H 272.495 -1.16682 0.843875 0
M  V30 3113 H 274.448 -4.21297 0.0933043 0
M  V30 3114 H 273.172 -3.20419 -0.632382 0
M  V30 3115 H 271.831 -3.34717 1.49533 0
M  V30 3116 H 271.479 -5.0191 -0.33102 0
M  V30 3117 H 271.179 -5.73674 1.27167 0
M  V30 3118 H 272.703 -6.09224 0.409669 0
M  V30 3119 H 274.117 -5.16688 2.48407 0
M  V30 3120 H 272.514 -5.03553 3.26427 0
M  V30 3121 H 273.584 -3.62257 3.22332 0
M  V30 3122 N 274.927 -0.932562 -1.27047 0
M  V30 3123 C 275.837 -0.441219 -2.30414 0
M  V30 3124 C 276.853 0.480525 -1.67233 0
M  V30 3125 O 278.029 0.362151 -1.98117 0
M  V30 3126 C 275.094 0.293651 -3.45454 0
M  V30 3127 C 274.155 -0.663601 -4.2414 0
M  V30 3128 C 273.388 0.0362932 -5.33688 0
M  V30 3129 O 273.611 1.2548 -5.56427 0
M  V30 3130 O 272.545 -0.638015 -5.98509 0
M  V30 3131 H 276.371 -1.29962 -2.74488 0
M  V30 3132 H 273.956 -0.6981 -1.32087 0
M  V30 3133 H 275.838 0.707951 -4.15411 0
M  V30 3134 H 274.513 1.12758 -3.03426 0
M  V30 3135 H 273.42 -1.12768 -3.56699 0
M  V30 3136 H 274.753 -1.46489 -4.69896 0
M  V30 3137 N 276.405 1.4127 -0.698611 0
M  V30 3138 C 277.338 2.28195 0.0153898 0
M  V30 3139 C 278.316 1.42402 0.784883 0
M  V30 3140 O 279.5 1.71828 0.775067 0
M  V30 3141 C 276.627 3.22685 1.02918 0
M  V30 3142 C 275.673 4.25041 0.352501 0
M  V30 3143 S 276.506 5.27757 -0.907322 0
M  V30 3144 C 277.662 6.25812 0.104796 0
M  V30 3145 H 277.895 2.88403 -0.721858 0
M  V30 3146 H 275.428 1.46452 -0.488996 0
M  V30 3147 H 277.386 3.77655 1.60893 0
M  V30 3148 H 276.047 2.61566 1.73902 0
M  V30 3149 H 275.24 4.91437 1.11828 0
M  V30 3150 H 274.842 3.73682 -0.154254 0
M  V30 3151 H 277.134 6.70705 0.957103 0
M  V30 3152 H 278.077 7.06149 -0.525323 0
M  V30 3153 H 278.485 5.62615 0.460931 0
M  V30 3154 N 277.883 0.443576 1.51229 0
M  V30 3155 C 278.813 -0.355142 2.30783 0
M  V30 3156 C 279.794 -1.0154 1.36468 0
M  V30 3157 O 280.979 -1.01785 1.65389 0
M  V30 3158 C 278.109 -1.45312 3.15439 0
M  V30 3159 C 277.063 -0.916002 4.18083 0
M  V30 3160 C 276.389 -2.1102 4.91299 0
M  V30 3161 C 277.689 0.0538602 5.22272 0
M  V30 3162 H 279.383 0.308767 2.97804 0
M  V30 3163 H 276.929 0.149937 1.43217 0
M  V30 3164 H 278.882 -2.01914 3.69876 0
M  V30 3165 H 277.606 -2.14541 2.46252 0
M  V30 3166 H 276.265 -0.372145 3.64706 0
M  V30 3167 H 275.913 -2.78882 4.18609 0
M  V30 3168 H 275.613 -1.75717 5.60712 0
M  V30 3169 H 277.137 -2.68164 5.48562 0
M  V30 3170 H 278.551 -0.422069 5.71744 0
M  V30 3171 H 276.948 0.319776 5.99247 0
M  V30 3172 H 278.018 0.98858 4.74716 0
M  V30 3173 N 279.361 -1.56624 0.175154 0
M  V30 3174 C 280.291 -2.21155 -0.749195 0
M  V30 3175 C 281.272 -1.16836 -1.23626 0
M  V30 3176 O 282.457 -1.45277 -1.28873 0
M  V30 3177 C 279.587 -2.8553 -1.97711 0
M  V30 3178 C 278.541 -3.95921 -1.62575 0
M  V30 3179 C 277.867 -4.47365 -2.92864 0
M  V30 3180 C 279.167 -5.15323 -0.850838 0
M  V30 3181 H 280.861 -2.98653 -0.211295 0
M  V30 3182 H 278.407 -1.43651 -0.100188 0
M  V30 3183 H 280.36 -3.2935 -2.62881 0
M  V30 3184 H 279.084 -2.05406 -2.53921 0
M  V30 3185 H 277.743 -3.52762 -0.997719 0
M  V30 3186 H 277.391 -3.64027 -3.47122 0
M  V30 3187 H 277.091 -5.21839 -2.70106 0
M  V30 3188 H 278.615 -4.93873 -3.59056 0
M  V30 3189 H 280.029 -5.55812 -1.40521 0
M  V30 3190 H 278.426 -5.95739 -0.722154 0
M  V30 3191 H 279.496 -4.84661 0.152082 0
M  V30 3192 N 280.839 0.0985539 -1.57292 0
M  V30 3193 C 281.749 1.13824 -2.05137 0
M  V30 3194 C 282.765 1.44076 -0.975604 0
M  V30 3195 O 283.941 1.54786 -1.28853 0
M  V30 3196 C 281.006 2.43969 -2.46333 0
M  V30 3197 C 280.067 2.2093 -3.68087 0
M  V30 3198 C 279.3 3.44869 -4.0731 0
M  V30 3199 O 279.523 4.52972 -3.46659 0
M  V30 3200 O 278.457 3.34661 -5.00285 0
M  V30 3201 H 282.283 0.761881 -2.93988 0
M  V30 3202 H 279.868 0.310818 -1.46131 0
M  V30 3203 H 281.75 3.20609 -2.73473 0
M  V30 3204 H 280.425 2.81038 -1.60621 0
M  V30 3205 H 279.332 1.42081 -3.46069 0
M  V30 3206 H 280.665 1.88755 -4.54568 0
M  V30 3207 N 282.317 1.53212 0.369288 0
M  V30 3208 C 283.547 1.72868 1.13139 0
M  V30 3209 C 283.955 0.455754 1.83629 0
M  V30 3210 O 283.298 -0.580861 1.74275 0
M  V30 3211 C 283.36 2.83667 2.20847 0
M  V30 3212 C 283.024 4.24142 1.70155 0
M  V30 3213 C 284.021 5.06619 1.16763 0
M  V30 3214 C 281.706 4.70539 1.7578 0
M  V30 3215 C 283.7 6.33581 0.696678 0
M  V30 3216 C 281.387 5.97481 1.28297 0
M  V30 3217 C 282.385 6.78833 0.753307 0
M  V30 3218 O 282.073 8.03393 0.285475 0
M  V30 3219 H 281.805 0.581707 0.344373 0
M  V30 3220 H 284.359 2.00736 0.435243 0
M  V30 3221 H 282.589 2.51265 2.93944 0
M  V30 3222 H 284.278 2.91536 2.82421 0
M  V30 3223 H 285.044 4.71948 1.11758 0
M  V30 3224 H 280.923 4.07293 2.15949 0
M  V30 3225 H 284.467 6.97027 0.282581 0
M  V30 3226 H 280.364 6.31651 1.32994 0
M  V30 3227 H 281.132 8.17497 0.405145 0
M  V30 3228 N 283.795 -0.628877 1.44509 0
M  V30 3229 C 284.725 -1.75187 1.54376 0
M  V30 3230 C 285.706 -1.65411 0.396618 0
M  V30 3231 O 286.891 -1.84137 0.617031 0
M  V30 3232 C 284.021 -3.13725 1.48976 0
M  V30 3233 C 282.975 -3.38291 2.62189 0
M  V30 3234 C 282.301 -4.76883 2.41841 0
M  V30 3235 C 283.601 -3.30632 4.04326 0
M  V30 3236 H 285.295 -1.67187 2.48373 0
M  V30 3237 H 282.841 -0.802909 1.19538 0
M  V30 3238 H 284.794 -3.92064 1.54478 0
M  V30 3239 H 283.518 -3.22515 0.514961 0
M  V30 3240 H 282.177 -2.62334 2.56079 0
M  V30 3241 H 281.825 -4.82378 1.42548 0
M  V30 3242 H 281.525 -4.94278 3.17747 0
M  V30 3243 H 283.049 -5.57449 2.49165 0
M  V30 3244 H 284.463 -3.98873 4.11793 0
M  V30 3245 H 282.86 -3.59561 4.80454 0
M  V30 3246 H 283.93 -2.28404 4.27738 0
M  V30 3247 N 285.273 -1.31445 -0.869486 0
M  V30 3248 C 286.205 -1.14955 -1.98287 0
M  V30 3249 C 287.218 -0.0885037 -1.62559 0
M  V30 3250 O 288.407 -0.336044 -1.75308 0
M  V30 3251 C 285.507 -0.734255 -3.3085 0
M  V30 3252 C 284.68 -1.88042 -3.94917 0
M  V30 3253 C 283.739 -1.4511 -5.05796 0
M  V30 3254 O 282.765 -2.16082 -5.2659 0
M  V30 3255 N 283.967 -0.338763 -5.79511 0
M  V30 3256 H 286.732 -2.10856 -2.12979 0
M  V30 3257 H 284.293 -1.23786 -1.04349 0
M  V30 3258 H 286.285 -0.42975 -4.02412 0
M  V30 3259 H 284.855 0.133158 -3.12316 0
M  V30 3260 H 284.075 -2.35222 -3.1633 0
M  V30 3261 H 285.363 -2.6481 -4.34457 0
M  V30 3262 H 284.761 0.252274 -5.65137 0
M  V30 3263 H 283.318 -0.0937925 -6.51733 0
M  V30 3264 N 286.751 1.08385 -1.14413 0
M  V30 3265 C 288.028 1.77429 -0.823297 0
M  V30 3266 C 288.408 1.9974 0.683163 0
M  V30 3267 O 287.756 1.60739 1.62405 0
M  V30 3268 C 287.966 3.09004 -1.62227 0
M  V30 3269 C 289.314 3.83532 -1.82177 0
M  V30 3270 O 290.338 3.18786 -1.58915 0
M  V30 3271 O 289.197 4.99792 -2.21067 0
M  V30 3272 H 286.291 0.769999 -0.301712 0
M  V30 3273 H 288.837 1.14846 -1.24934 0
M  V30 3274 H 287.609 2.88316 -2.64555 0
M  V30 3275 H 287.232 3.79316 -1.19187 0
M  V30 3276 N 288.23 0.939286 1.26551 0
M  V30 3277 C 289.46 0.601663 1.97645 0
M  V30 3278 C 289.868 -0.827206 1.70159 0
M  V30 3279 O 289.211 -1.56291 0.965338 0
M  V30 3280 C 289.273 0.761725 3.51337 0
M  V30 3281 C 288.937 2.16487 4.0247 0
M  V30 3282 C 289.934 3.14016 4.14355 0
M  V30 3283 C 287.619 2.48494 4.36527 0
M  V30 3284 C 289.613 4.41654 4.59587 0
M  V30 3285 C 287.3 3.76364 4.81449 0
M  V30 3286 C 288.298 4.72758 4.92939 0
M  V30 3287 O 287.986 5.98352 5.36871 0
M  V30 3288 H 287.718 0.225758 0.637189 0
M  V30 3289 H 290.272 1.26178 1.62075 0
M  V30 3290 H 288.502 0.0444808 3.86674 0
M  V30 3291 H 290.191 0.427442 4.03643 0
M  V30 3292 H 290.957 2.90613 3.8829 0
M  V30 3293 H 286.836 1.74202 4.26819 0
M  V30 3294 H 290.38 5.16896 4.68471 0
M  V30 3295 H 286.277 3.99582 5.06956 0
M  V30 3296 H 287.045 6.01507 5.55096 0
M  V30 3297 N 289.708 -1.40897 0.706093 0
M  V30 3298 C 290.936 -2.05373 0.250887 0
M  V30 3299 C 291.351 -1.53172 -1.10381 0
M  V30 3300 O 290.708 -0.684305 -1.69185 0
M  V30 3301 C 290.759 -3.6088 0.211571 0
M  V30 3302 O 290.48 -4.11153 1.51276 0
M  V30 3303 C 291.981 -4.42517 -0.263346 0
M  V30 3304 H 289.201 -0.66115 0.114552 0
M  V30 3305 H 291.745 -1.80479 0.961635 0
M  V30 3306 H 289.9 -3.84777 -0.450073 0
M  V30 3307 H 290.314 -5.05279 1.40689 0
M  V30 3308 H 291.788 -5.51479 -0.239718 0
M  V30 3309 H 292.265 -4.19396 -1.30397 0
M  V30 3310 H 292.871 -4.23708 0.367677 0
M  V30 3311 N 291.186 -0.45159 -1.50991 0
M  V30 3312 C 292.463 0.170707 -1.94854 0
M  V30 3313 C 292.843 1.58788 -1.39103 0
M  V30 3314 O 292.191 2.20913 -0.583921 0
M  V30 3315 C 292.401 0.133929 -3.48743 0
M  V30 3316 C 293.749 0.33248 -4.23296 0
M  V30 3317 O 294.773 0.211403 -3.55572 0
M  V30 3318 O 293.632 0.57486 -5.43468 0
M  V30 3319 H 290.726 0.122264 -0.817912 0
M  V30 3320 H 293.272 -0.510594 -1.61836 0
M  V30 3321 H 292.044 -0.856283 -3.81816 0
M  V30 3322 H 291.667 0.857529 -3.88242 0
M  V30 3323 N 292.664 1.56529 -0.183458 0
M  V30 3324 C 294.08 1.58664 0.172554 0
M  V30 3325 C 294.28 1.19925 1.61926 0
M  V30 3326 O 293.336 0.916534 2.35278 0
M  V30 3327 C 294.649 3.00463 -0.119262 0
M  V30 3328 C 296.197 3.12945 -0.0584396 0
M  V30 3329 C 296.672 4.56857 -0.323408 0
M  V30 3330 N 298.163 4.62403 -0.271612 0
M  V30 3331 C 298.898 5.71626 -0.450639 0
M  V30 3332 N 298.394 6.89362 -0.689384 0
M  V30 3333 N 300.187 5.60775 -0.385701 0
M  V30 3334 H 292.338 1.79994 -1.12765 0
M  V30 3335 H 294.601 0.834808 -0.449222 0
M  V30 3336 H 294.307 3.33326 -1.12192 0
M  V30 3337 H 294.181 3.72659 0.583544 0
M  V30 3338 H 296.568 2.79902 0.934805 0
M  V30 3339 H 296.649 2.4316 -0.794144 0
M  V30 3340 H 296.293 4.9061 -1.31392 0
M  V30 3341 H 296.223 5.24816 0.43305 0
M  V30 3342 H 298.714 3.77785 -0.0932256 0
M  V30 3343 H 299.027 7.68489 -0.815113 0
M  V30 3344 H 297.372 6.91196 -0.726142 0
M  V30 3345 H 300.563 4.67674 -0.199687 0
M  V30 3346 H 300.736 6.4584 -0.528646 0
M  V30 3347 N 294.142 -0.090211 1.57342 0
M  V30 3348 C 295.388 -0.793982 1.86611 0
M  V30 3349 C 295.721 -1.78142 0.773252 0
M  V30 3350 O 294.996 -1.93271 -0.218304 0
M  V30 3351 C 295.279 -1.51839 3.26523 0
M  V30 3352 C 295.132 -0.548609 4.46442 0
M  V30 3353 C 296.451 -2.46779 3.64401 0
M  V30 3354 H 293.57 -0.287186 0.678744 0
M  V30 3355 H 296.212 -0.0575076 1.89913 0
M  V30 3356 H 294.362 -2.14617 3.23839 0
M  V30 3357 H 296.034 0.0725513 4.61243 0
M  V30 3358 H 294.277 0.137614 4.33582 0
M  V30 3359 H 294.948 -1.09271 5.41076 0
M  V30 3360 H 297.424 -1.94089 3.68061 0
M  V30 3361 H 296.3 -2.94479 4.63221 0
M  V30 3362 H 296.561 -3.30758 2.93346 0
M  V30 3363 N 295.62 -1.53406 -0.361157 0
M  V30 3364 C 296.567 -1.80156 -1.44265 0
M  V30 3365 C 297.537 -0.646183 -1.53015 0
M  V30 3366 O 298.722 -0.888818 -1.68833 0
M  V30 3367 C 295.862 -2.00116 -2.81154 0
M  V30 3368 C 294.975 -3.27833 -2.81335 0
M  V30 3369 C 294.11 -3.37957 -4.09828 0
M  V30 3370 C 293.149 -4.59689 -4.04168 0
M  V30 3371 N 292.286 -4.66942 -5.24318 0
M  V30 3372 H 297.126 -2.72438 -1.20754 0
M  V30 3373 H 294.663 -1.34954 -0.585296 0
M  V30 3374 H 296.621 -2.09677 -3.60682 0
M  V30 3375 H 295.251 -1.11167 -3.03054 0
M  V30 3376 H 294.303 -3.27204 -1.94014 0
M  V30 3377 H 295.615 -4.17442 -2.73027 0
M  V30 3378 H 294.769 -3.46853 -4.97773 0
M  V30 3379 H 293.508 -2.46372 -4.20894 0
M  V30 3380 H 292.513 -4.50889 -3.14609 0
M  V30 3381 H 293.738 -5.5262 -3.947 0
M  V30 3382 H 291.684 -3.7826 -5.35962 0
M  V30 3383 H 291.601 -5.50462 -5.18197 0
M  V30 3384 H 292.869 -4.80127 -6.14084 0
M  V30 3385 N 297.098 0.621204 -1.44841 0
M  V30 3386 C 298.509 1.20298 -1.42777 0
M  V30 3387 C 298.86 1.95639 -0.148259 0
M  V30 3388 O 297.985 2.02955 0.750892 0
M  V30 3389 C 298.58 2.1882 -2.58657 0
M  V30 3390 C 297.139 2.72403 -2.59756 0
M  V30 3391 C 296.286 1.4757 -2.34773 0
M  V30 3392 H 299.237 0.411297 -1.53278 0
M  V30 3393 H 299.258 3.01607 -2.31977 0
M  V30 3394 H 298.77 1.63957 -3.51766 0
M  V30 3395 H 296.871 3.31242 -1.70615 0
M  V30 3396 H 296.984 3.17765 -3.58556 0
M  V30 3397 H 295.348 1.76051 -1.8406 0
M  V30 3398 H 296.131 0.945954 -3.3001 0
M  V30 3399 N 298.576 1.31904 0.862503 0
M  V30 3400 C 299.506 1.22782 1.98612 0
M  V30 3401 C 300.487 0.113362 1.69722 0
M  V30 3402 O 301.672 0.299218 1.91881 0
M  V30 3403 C 298.802 0.942058 3.34279 0
M  V30 3404 C 297.756 2.0169 3.77499 0
M  V30 3405 C 297.082 1.58369 5.10709 0
M  V30 3406 C 298.382 3.43096 3.93805 0
M  V30 3407 H 300.076 2.16788 2.06502 0
M  V30 3408 H 297.622 1.04366 0.992154 0
M  V30 3409 H 299.575 0.864818 4.1243 0
M  V30 3410 H 298.299 -0.0336603 3.26583 0
M  V30 3411 H 296.958 2.08416 3.01593 0
M  V30 3412 H 296.606 0.595628 4.99461 0
M  V30 3413 H 296.306 2.30279 5.40597 0
M  V30 3414 H 297.83 1.52067 5.91361 0
M  V30 3415 H 299.244 3.39003 4.62331 0
M  V30 3416 H 297.641 4.13288 4.35101 0
M  V30 3417 H 298.711 3.83334 2.96957 0
M  V30 3418 N 300.054 -1.07777 1.14986 0
M  V30 3419 C 300.986 -2.14769 0.800436 0
M  V30 3420 C 301.999 -1.61739 -0.185595 0
M  V30 3421 O 303.188 -1.78462 0.0370358 0
M  V30 3422 C 300.288 -3.38481 0.168533 0
M  V30 3423 C 299.461 -4.20876 1.1909 0
M  V30 3424 C 298.52 -5.22976 0.581575 0
M  V30 3425 O 297.546 -5.55388 1.24633 0
M  V30 3426 N 298.748 -5.76976 -0.638706 0
M  V30 3427 H 301.513 -2.45348 1.72118 0
M  V30 3428 H 299.074 -1.23645 1.04515 0
M  V30 3429 H 301.066 -4.03916 -0.251764 0
M  V30 3430 H 299.636 -3.05651 -0.655467 0
M  V30 3431 H 298.856 -3.51322 1.78791 0
M  V30 3432 H 300.144 -4.7274 1.88133 0
M  V30 3433 H 299.542 -5.52886 -1.19723 0
M  V30 3434 H 298.099 -6.44061 -1.00142 0
M  V30 3435 N 301.532 -0.945985 -1.26051 0
M  V30 3436 C 302.809 -0.513816 -1.88731 0
M  V30 3437 C 303.189 1.00872 -1.8544 0
M  V30 3438 O 302.537 1.8708 -1.312 0
M  V30 3439 C 302.747 -1.08062 -3.31849 0
M  V30 3440 C 304.095 -1.1522 -4.08668 0
M  V30 3441 O 305.119 -1.03155 -3.40936 0
M  V30 3442 O 303.978 -1.34044 -5.29806 0
M  V30 3443 H 301.072 -0.168193 -0.809716 0
M  V30 3444 H 303.618 -1.03886 -1.34186 0
M  V30 3445 H 302.39 -2.1241 -3.2863 0
M  V30 3446 H 302.013 -0.538307 -3.93939 0
M  V30 3447 N 303.011 1.40521 -0.713556 0
M  V30 3448 C 303.943 2.29191 -0.0203126 0
M  V30 3449 C 304.956 1.45723 0.725864 0
M  V30 3450 O 306.145 1.69033 0.573581 0
M  V30 3451 C 303.245 3.2395 0.995486 0
M  V30 3452 C 302.418 4.36262 0.315256 0
M  V30 3453 C 301.477 5.11474 1.23616 0
M  V30 3454 O 300.503 5.64606 0.721719 0
M  V30 3455 N 301.705 5.20638 2.56743 0
M  V30 3456 H 304.47 2.89327 -0.781652 0
M  V30 3457 H 302.031 1.51869 -0.561022 0
M  V30 3458 H 304.023 3.71137 1.61368 0
M  V30 3459 H 302.593 2.64995 1.6582 0
M  V30 3460 H 301.813 3.91228 -0.483106 0
M  V30 3461 H 303.101 5.08558 -0.157004 0
M  V30 3462 H 302.499 4.7895 3.01037 0
M  V30 3463 H 301.056 5.71339 3.13712 0
M  V30 3464 N 304.489 0.459591 1.5075 0
M  V30 3465 C 305.437 -0.354678 2.2988 0
M  V30 3466 C 306.431 -1.00086 1.36672 0
M  V30 3467 O 307.637 -0.933277 1.53915 0
M  V30 3468 H 304.012 -0.13321 0.740107 0
M  V30 3469 H 305.983 0.333269 2.96533 0
M  V30 3470 C 304.732 -1.43073 3.169 0
M  V30 3471 H 304.055 -0.942882 3.88523 0
M  V30 3472 H 305.495 -1.97328 3.75284 0
M  V30 3473 C 303.954 -2.42633 2.33732 0
M  V30 3474 O 304.484 -3.47658 2.01238 0
M  V30 3475 N 302.69 -2.14066 1.9653 0
M  V30 3476 H 302.237 -1.28685 2.23155 0
M  V30 3477 H 302.195 -2.80917 1.41185 0
M  V30 3478 N 305.967 -1.56429 0.191757 0
M  V30 3479 C 306.877 -2.22541 -0.742481 0
M  V30 3480 C 307.893 -1.22342 -1.23727 0
M  V30 3481 O 309.069 -1.55069 -1.28513 0
M  V30 3482 C 306.134 -2.8692 -1.94623 0
M  V30 3483 C 305.195 -4.02378 -1.49633 0
M  V30 3484 C 304.428 -4.63678 -2.6427 0
M  V30 3485 O 304.651 -4.23895 -3.81666 0
M  V30 3486 O 303.585 -5.53202 -2.37174 0
M  V30 3487 H 307.411 -3.02977 -0.209462 0
M  V30 3488 H 304.996 -1.49353 -0.0373832 0
M  V30 3489 H 306.878 -3.27663 -2.64982 0
M  V30 3490 H 305.553 -2.09466 -2.46791 0
M  V30 3491 H 304.46 -3.66265 -0.761636 0
M  V30 3492 H 305.793 -4.81487 -1.02134 0
M  V30 3493 N 307.445 0.0818655 -1.57387 0
M  V30 3494 C 308.375 1.09885 -2.06028 0
M  V30 3495 C 309.356 1.4098 -0.951774 0
M  V30 3496 O 310.541 1.50781 -1.22387 0
M  V30 3497 C 307.671 2.4151 -2.4958 0
M  V30 3498 C 306.625 2.24792 -3.64215 0
M  V30 3499 C 305.951 3.61712 -3.93787 0
M  V30 3500 C 307.251 1.67749 -4.94629 0
M  V30 3501 H 308.945 0.694128 -2.91243 0
M  V30 3502 H 306.491 0.332448 -1.4011 0
M  V30 3503 H 308.444 3.12939 -2.82219 0
M  V30 3504 H 307.168 2.83943 -1.61381 0
M  V30 3505 H 305.827 1.55807 -3.31843 0
M  V30 3506 H 305.475 4.01697 -3.02735 0
M  V30 3507 H 305.175 3.51368 -4.70971 0
M  V30 3508 H 306.699 4.34587 -4.28913 0
M  V30 3509 H 308.113 2.29032 -5.25564 0
M  V30 3510 H 306.51 1.68128 -5.76067 0
M  V30 3511 H 307.58 0.638059 -4.80684 0
M  V30 3512 N 308.923 1.53595 0.353017 0
M  V30 3513 C 310.17 1.70385 1.09431 0
M  V30 3514 C 310.498 0.462113 1.88931 0
M  V30 3515 O 309.753 -0.556074 1.87633 0
M  V30 3516 C 310.052 2.91313 2.07054 0
M  V30 3517 C 309.718 4.27308 1.43939 0
M  V30 3518 C 308.38 4.64287 1.26454 0
M  V30 3519 C 310.732 5.11829 0.983883 0
M  V30 3520 C 308.06 5.83412 0.620226 0
M  V30 3521 C 310.412 6.31611 0.353516 0
M  V30 3522 C 309.076 6.67293 0.166272 0
M  V30 3523 H 308.346 0.623484 0.400436 0
M  V30 3524 H 310.993 1.87799 0.374655 0
M  V30 3525 H 309.298 2.68463 2.85368 0
M  V30 3526 H 310.995 3.01497 2.64387 0
M  V30 3527 H 307.585 3.98198 1.58543 0
M  V30 3528 H 311.769 4.838 1.10685 0
M  V30 3529 H 307.025 6.09639 0.463681 0
M  V30 3530 H 311.199 6.964 -0.00757555 0
M  V30 3531 H 308.826 7.59461 -0.335047 0
M  V30 3532 N 310.401 -0.613514 1.45168 0
M  V30 3533 C 311.649 -1.36997 1.48581 0
M  V30 3534 C 311.97 -1.94589 0.126545 0
M  V30 3535 O 311.24 -1.76816 -0.843372 0
M  V30 3536 H 309.82 -0.508558 0.547154 0
M  V30 3537 H 312.482 -0.720853 1.81079 0
M  V30 3538 H 311.578 -2.1924 2.22127 0
M  V30 3539 N 311.879 -1.3236 -0.855495 0
M  V30 3540 C 312.826 -1.21225 -1.964 0
M  V30 3541 C 313.796 -0.0946204 -1.6583 0
M  V30 3542 O 314.981 -0.27002 -1.8888 0
M  V30 3543 C 312.121 -0.940419 -3.32039 0
M  V30 3544 C 311.234 -2.14276 -3.75113 0
M  V30 3545 C 310.369 -1.80648 -4.9954 0
M  V30 3546 C 309.408 -2.97208 -5.35102 0
M  V30 3547 N 308.545 -2.63678 -6.50706 0
M  V30 3548 H 313.385 -2.16042 -2.05255 0
M  V30 3549 H 310.922 -1.07451 -1.00463 0
M  V30 3550 H 312.88 -0.763311 -4.10158 0
M  V30 3551 H 311.51 -0.0290413 -3.22787 0
M  V30 3552 H 310.562 -2.43017 -2.92655 0
M  V30 3553 H 311.874 -3.01468 -3.97389 0
M  V30 3554 H 311.028 -1.59484 -5.85363 0
M  V30 3555 H 309.767 -0.906678 -4.79198 0
M  V30 3556 H 308.772 -3.19004 -4.47791 0
M  V30 3557 H 309.997 -3.87918 -5.57401 0
M  V30 3558 H 307.943 -1.76238 -6.31883 0
M  V30 3559 H 307.86 -3.444 -6.72997 0
M  V30 3560 H 309.128 -2.45942 -7.39684 0
M  V30 3561 N 313.357 1.07166 -1.15556 0
M  V30 3562 C 314.606 1.79181 -0.926132 0
M  V30 3563 C 314.919 1.87768 0.547967 0
M  V30 3564 O 316.125 2.56323 0.895036 0
M  V30 3565 C 314.581 3.22 -1.60761 0
M  V30 3566 C 314.189 3.21607 -3.11886 0
M  V30 3567 C 315.933 3.9861 -1.4598 0
M  V30 3568 C 313.84 4.59092 -3.72812 0
M  V30 3569 H 312.77 0.67154 -0.342856 0
M  V30 3570 H 315.421 1.2027 -1.3859 0
M  V30 3571 H 313.803 3.81115 -1.07553 0
M  V30 3572 H 314.977 2.72127 -3.71865 0
M  V30 3573 H 313.292 2.58495 -3.2645 0
M  V30 3574 H 315.889 5.00225 -1.88888 0
M  V30 3575 H 316.232 4.143 -0.407541 0
M  V30 3576 H 316.765 3.45996 -1.96295 0
M  V30 3577 H 313.504 4.48606 -4.77946 0
M  V30 3578 H 313.024 5.08803 -3.17616 0
M  V30 3579 H 314.703 5.28059 -3.73848 0
M  V30 3580 N 314.835 0.952656 1.25548 0
M  V30 3581 C 315.767 0.428609 2.25157 0
M  V30 3582 C 316.78 -0.454428 1.56329 0
M  V30 3583 O 317.969 -0.263023 1.76552 0
M  V30 3584 C 315.069 -0.401972 3.36508 0
M  V30 3585 C 314.242 0.467601 4.34893 0
M  V30 3586 C 313.301 -0.30445 5.25319 0
M  V30 3587 O 312.327 0.296473 5.68427 0
M  V30 3588 N 313.529 -1.59805 5.5807 0
M  V30 3589 H 316.294 1.28497 2.70756 0
M  V30 3590 H 313.855 0.822798 1.39433 0
M  V30 3591 H 315.847 -0.926134 3.9396 0
M  V30 3592 H 314.417 -1.15918 2.90313 0
M  V30 3593 H 313.637 1.17288 3.76347 0
M  V30 3594 H 314.925 1.06119 4.97611 0
M  V30 3595 H 314.323 -2.10823 5.24948 0
M  V30 3596 H 312.88 -2.06822 6.18116 0
M  V30 3597 N 316.313 -1.40141 0.720998 0
M  V30 3598 C 317.276 -2.29058 0.0805834 0
M  V30 3599 C 318.276 -1.45632 -0.681758 0
M  V30 3600 O 319.466 -1.6648 -0.512856 0
M  V30 3601 C 316.598 -3.28925 -0.895593 0
M  V30 3602 H 317.791 -2.87191 0.863793 0
M  V30 3603 H 315.344 -1.48553 0.485975 0
M  V30 3604 H 316.079 -2.75822 -1.70566 0
M  V30 3605 H 315.864 -3.90519 -0.351766 0
M  V30 3606 H 317.354 -3.95494 -1.34069 0
M  V30 3607 N 317.792 -0.46758 -1.50504 0
M  V30 3608 C 318.702 0.33382 -2.32213 0
M  V30 3609 C 319.718 0.999323 -1.42441 0
M  V30 3610 O 320.894 0.988068 -1.75497 0
M  V30 3611 C 317.959 1.4035 -3.17022 0
M  V30 3612 C 317.02 0.754961 -4.2261 0
M  V30 3613 C 316.253 1.77367 -5.03365 0
M  V30 3614 O 316.476 2.99976 -4.8515 0
M  V30 3615 O 315.41 1.34744 -5.86624 0
M  V30 3616 H 319.236 -0.334067 -3.01857 0
M  V30 3617 H 316.821 -0.229496 -1.47627 0
M  V30 3618 H 318.703 2.02318 -3.69656 0
M  V30 3619 H 317.378 2.05492 -2.5011 0
M  V30 3620 H 316.285 0.0964244 -3.73976 0
M  V30 3621 H 317.618 0.146545 -4.91982 0
M  V30 3622 N 319.27 1.56325 -0.20005 0
M  V30 3623 C 320.517 1.97719 0.437411 0
M  V30 3624 C 320.845 1.08709 1.61284 0
M  V30 3625 O 320.1 0.127261 1.95286 0
M  V30 3626 C 320.399 3.4495 0.935103 0
M  V30 3627 C 320.065 4.5072 -0.12749 0
M  V30 3628 C 318.727 4.79368 -0.419451 0
M  V30 3629 C 321.079 5.14268 -0.847231 0
M  V30 3630 C 318.407 5.68854 -1.43604 0
M  V30 3631 C 320.759 6.04852 -1.85301 0
M  V30 3632 C 319.423 6.31855 -2.15211 0
M  V30 3633 H 318.693 0.723507 0.16006 0
M  V30 3634 H 321.34 1.89166 -0.298056 0
M  V30 3635 H 319.645 3.50599 1.74894 0
M  V30 3636 H 321.342 3.74337 1.43781 0
M  V30 3637 H 317.932 4.28458 0.11023 0
M  V30 3638 H 322.116 4.92222 -0.634901 0
M  V30 3639 H 317.372 5.88047 -1.67364 0
M  V30 3640 H 321.546 6.53152 -2.41591 0
M  V30 3641 H 319.173 7.00994 -2.94129 0
M  V30 3642 N 320.748 -0.0735177 1.57428 0
M  V30 3643 C 321.658 -1.10547 2.06922 0
M  V30 3644 C 322.674 -1.42506 0.998402 0
M  V30 3645 O 323.85 -1.52717 1.31299 0
M  V30 3646 C 320.915 -2.40019 2.50184 0
M  V30 3647 C 319.976 -2.15046 3.71556 0
M  V30 3648 C 319.209 -3.38345 4.12745 0
M  V30 3649 O 319.432 -4.47399 3.53822 0
M  V30 3650 O 318.366 -3.2666 5.05546 0
M  V30 3651 H 322.192 -0.715013 2.95163 0
M  V30 3652 H 319.777 -0.287531 1.46607 0
M  V30 3653 H 321.659 -3.16218 2.78539 0
M  V30 3654 H 320.334 -2.78447 1.65072 0
M  V30 3655 H 319.241 -1.36558 3.48285 0
M  V30 3656 H 320.574 -1.81499 4.57514 0
M  V30 3657 N 322.226 -1.5378 -0.344866 0
M  V30 3658 C 323.173 -1.81676 -1.42346 0
M  V30 3659 C 324.143 -0.662376 -1.52321 0
M  V30 3660 O 325.328 -0.906675 -1.67881 0
M  V30 3661 C 322.468 -2.03087 -2.79015 0
M  V30 3662 C 321.581 -3.30799 -2.77842 0
M  V30 3663 C 320.716 -3.42285 -4.0622 0
M  V30 3664 C 319.755 -4.6395 -3.9927 0
M  V30 3665 N 318.892 -4.72477 -5.19336 0
M  V30 3666 H 323.732 -2.73703 -1.17858 0
M  V30 3667 H 321.269 -1.35568 -0.570949 0
M  V30 3668 H 323.227 -2.1349 -3.58438 0
M  V30 3669 H 321.857 -1.14375 -3.01858 0
M  V30 3670 H 320.909 -3.29244 -1.90533 0
M  V30 3671 H 322.221 -4.20314 -2.68584 0
M  V30 3672 H 321.375 -3.52113 -4.94066 0
M  V30 3673 H 320.114 -2.50823 -4.18258 0
M  V30 3674 H 319.119 -4.54201 -3.09809 0
M  V30 3675 H 320.344 -5.56775 -3.88817 0
M  V30 3676 H 318.29 -3.83924 -5.3192 0
M  V30 3677 H 318.207 -5.55927 -5.12329 0
M  V30 3678 H 319.475 -4.86613 -6.08957 0
M  V30 3679 N 323.704 0.605807 -1.45491 0
M  V30 3680 C 324.651 1.7164 -1.54299 0
M  V30 3681 C 325.621 1.61486 -0.388761 0
M  V30 3682 O 326.806 1.81039 -0.602445 0
M  V30 3683 C 323.946 3.09953 -1.51734 0
M  V30 3684 C 323.059 3.309 -2.77721 0
M  V30 3685 C 322.194 4.59329 -2.66816 0
M  V30 3686 C 321.233 4.7354 -3.87848 0
M  V30 3687 N 320.37 5.9327 -3.75467 0
M  V30 3688 H 325.21 1.63449 -2.49176 0
M  V30 3689 H 322.747 0.796957 -1.23641 0
M  V30 3690 H 324.705 3.89977 -1.48235 0
M  V30 3691 H 323.335 3.17098 -0.604068 0
M  V30 3692 H 322.387 2.44639 -2.913 0
M  V30 3693 H 323.699 3.37274 -3.67488 0
M  V30 3694 H 322.853 5.4755 -2.61292 0
M  V30 3695 H 321.592 4.55355 -1.74651 0
M  V30 3696 H 320.597 3.83741 -3.93729 0
M  V30 3697 H 321.822 4.79309 -4.81082 0
M  V30 3698 H 319.768 5.90338 -2.86072 0
M  V30 3699 H 319.685 6.00811 -4.5887 0
M  V30 3700 H 320.953 6.83984 -3.73879 0
M  V30 3701 N 325.182 1.32811 0.848464 0
M  V30 3702 C 326.428 1.24917 1.60522 0
M  V30 3703 C 326.783 -0.185761 1.91501 0
M  V30 3704 O 326.076 -1.12524 1.55077 0
M  V30 3705 C 326.27 2.04831 2.92881 0
M  V30 3706 C 326.099 3.55949 2.74828 0
M  V30 3707 C 324.869 4.25277 2.72887 0
M  V30 3708 C 327.067 4.50476 2.48145 0
M  V30 3709 N 325.049 5.62408 2.46111 0
M  V30 3710 C 326.42 5.75427 2.30832 0
M  V30 3711 C 328.475 4.39665 2.33664 0
M  V30 3712 C 327.178 6.90789 2.00508 0
M  V30 3713 C 329.204 5.54833 2.04731 0
M  V30 3714 C 328.566 6.78787 1.88223 0
M  V30 3715 H 324.665 0.512279 0.590842 0
M  V30 3716 H 327.249 1.67246 0.996839 0
M  V30 3717 H 325.42 1.64837 3.51686 0
M  V30 3718 H 327.152 1.88782 3.57971 0
M  V30 3719 H 323.907 3.77456 2.86049 0
M  V30 3720 H 324.331 6.3467 2.35634 0
M  V30 3721 H 328.973 3.44477 2.45144 0
M  V30 3722 H 326.691 7.85984 1.87765 0
M  V30 3723 H 330.277 5.48398 1.94295 0
M  V30 3724 H 329.157 7.66396 1.66155 0
M  V30 3725 N 326.66 -1.06551 1.16123 0
M  V30 3726 C 327.57 -2.17484 0.879662 0
M  V30 3727 C 328.586 -1.73377 -0.147104 0
M  V30 3728 O 329.762 -2.01379 0.0289128 0
M  V30 3729 C 326.827 -3.44591 0.381829 0
M  V30 3730 C 325.888 -4.0322 1.4735 0
M  V30 3731 C 325.121 -5.24261 0.999324 0
M  V30 3732 O 325.344 -5.70198 -0.151957 0
M  V30 3733 O 324.278 -5.74775 1.78653 0
M  V30 3734 H 328.104 -2.44075 1.80724 0
M  V30 3735 H 325.689 -1.16042 0.940992 0
M  V30 3736 H 327.571 -4.21254 0.111053 0
M  V30 3737 H 326.246 -3.19532 -0.51777 0
M  V30 3738 H 325.153 -3.2806 1.79798 0
M  V30 3739 H 326.486 -4.32568 2.34831 0
M  V30 3740 N 328.138 -0.959301 -1.25041 0
M  V30 3741 C 329.086 -0.474437 -2.2771 0
M  V30 3742 C 330.08 0.457697 -1.631 0
M  V30 3743 O 331.286 0.333912 -1.76876 0
M  V30 3744 H 327.661 -0.134936 -0.739795 0
M  V30 3745 H 329.632 -1.35251 -2.65988 0
M  V30 3746 C 328.381 0.227884 -3.46952 0
M  V30 3747 H 327.704 -0.480248 -3.96905 0
M  V30 3748 H 329.144 0.531091 -4.20661 0
M  V30 3749 C 327.603 1.452 -3.04004 0
M  V30 3750 O 328.133 2.54949 -3.10426 0
M  V30 3751 N 326.339 1.31502 -2.59144 0
M  V30 3752 H 325.886 0.422065 -2.54119 0
M  V30 3753 H 325.844 2.13521 -2.30773 0
M  V30 3754 N 329.616 1.39756 -0.72842 0
M  V30 3755 C 330.864 2.00248 -0.272946 0
M  V30 3756 C 331.185 1.58077 1.14178 0
M  V30 3757 O 330.455 0.826014 1.77634 0
M  V30 3758 H 329.035 0.740554 -0.0979247 0
M  V30 3759 H 331.697 1.70903 -0.936912 0
M  V30 3760 H 330.793 3.10495 -0.316142 0
M  V30 3761 N 331.094 0.475555 1.50254 0
M  V30 3762 C 332.322 -0.0754493 2.06762 0
M  V30 3763 C 332.737 -1.33111 1.33891 0
M  V30 3764 O 332.094 -1.77846 0.40952 0
M  V30 3765 C 332.145 -0.359008 3.59713 0
M  V30 3766 O 331.866 0.846851 4.29837 0
M  V30 3767 C 333.367 -0.956484 4.32858 0
M  V30 3768 H 330.587 0.00907525 0.670939 0
M  V30 3769 H 333.131 0.665618 1.93364 0
M  V30 3770 H 331.286 -1.05001 3.72899 0
M  V30 3771 H 331.7 0.594162 5.21124 0
M  V30 3772 H 333.174 -1.10463 5.40834 0
M  V30 3773 H 333.651 -1.94775 3.93649 0
M  V30 3774 H 334.257 -0.303723 4.24214 0
M  V30 3775 N 332.573 -1.56217 0.208337 0
M  V30 3776 C 333.82 -1.97949 -0.42692 0
M  V30 3777 C 334.148 -1.09562 -1.60706 0
M  V30 3778 O 333.403 -0.137616 -1.95216 0
M  V30 3779 C 333.702 -3.45441 -0.916797 0
M  V30 3780 C 333.368 -4.50646 0.151391 0
M  V30 3781 C 332.03 -4.79139 0.444867 0
M  V30 3782 C 334.382 -5.13811 0.874492 0
M  V30 3783 C 331.71 -5.68084 1.46619 0
M  V30 3784 C 334.062 -6.03861 1.88506 0
M  V30 3785 C 332.726 -6.30704 2.18559 0
M  V30 3786 H 331.996 -0.724345 -0.156221 0
M  V30 3787 H 334.643 -1.89006 0.308084 0
M  V30 3788 H 332.948 -3.51521 -1.73032 0
M  V30 3789 H 334.645 -3.75094 -1.41794 0
M  V30 3790 H 331.235 -4.28511 -0.0875068 0
M  V30 3791 H 335.419 -4.91879 0.660996 0
M  V30 3792 H 330.675 -5.87151 1.7048 0
M  V30 3793 H 334.849 -6.51861 2.45051 0
M  V30 3794 H 332.476 -6.99424 2.97843 0
M  V30 3795 N 334.051 0.0651679 -1.57465 0
M  V30 3796 C 335.462 0.616213 -1.76238 0
M  V30 3797 C 335.813 1.7756 -0.834689 0
M  V30 3798 O 334.938 2.1639 -0.0204156 0
M  V30 3799 C 335.533 1.12462 -3.1959 0
M  V30 3800 C 334.092 1.62147 -3.39684 0
M  V30 3801 C 333.239 0.543739 -2.71917 0
M  V30 3802 H 336.19 -0.161022 -1.57881 0
M  V30 3803 H 336.211 1.99324 -3.24114 0
M  V30 3804 H 335.723 0.280592 -3.87084 0
M  V30 3805 H 333.824 2.48854 -2.77313 0
M  V30 3806 H 333.937 1.69385 -4.48158 0
M  V30 3807 H 332.301 0.990352 -2.34657 0
M  V30 3808 H 333.084 -0.290216 -3.42071 0
M  V30 3809 N 335.529 1.53961 0.336706 0
M  V30 3810 C 336.777 1.71197 1.07405 0
M  V30 3811 C 337.098 0.481475 1.88962 0
M  V30 3812 O 336.368 -0.504585 1.8929 0
M  V30 3813 H 334.948 0.631185 0.399517 0
M  V30 3814 H 337.61 1.91232 0.376323 0
M  V30 3815 H 336.706 2.58587 1.74755 0
M  V30 3816 N 337.007 -0.598083 1.45811 0
M  V30 3817 C 338.253 -1.35679 1.51535 0
M  V30 3818 C 338.608 -1.91745 0.15864 0
M  V30 3819 O 337.901 -1.72654 -0.830724 0
M  V30 3820 C 338.095 -2.51669 2.53766 0
M  V30 3821 C 337.924 -2.06963 3.99245 0
M  V30 3822 C 336.694 -1.92693 4.67116 0
M  V30 3823 C 338.892 -1.63855 4.875 0
M  V30 3824 N 336.874 -1.41897 5.97276 0
M  V30 3825 C 338.245 -1.24541 6.07363 0
M  V30 3826 C 340.3 -1.51533 4.74281 0
M  V30 3827 C 339.003 -0.741354 7.15469 0
M  V30 3828 C 341.029 -1.0253 5.82444 0
M  V30 3829 C 340.391 -0.641869 7.01469 0
M  V30 3830 H 336.49 -0.490042 0.609412 0
M  V30 3831 H 339.074 -0.682687 1.82339 0
M  V30 3832 H 337.245 -3.16663 2.24898 0
M  V30 3833 H 338.977 -3.18578 2.4958 0
M  V30 3834 H 335.732 -2.1417 4.22408 0
M  V30 3835 H 336.156 -1.18704 6.66512 0
M  V30 3836 H 340.798 -1.798 3.82664 0
M  V30 3837 H 338.516 -0.446243 8.06867 0
M  V30 3838 H 342.102 -0.934088 5.74253 0
M  V30 3839 H 340.982 -0.268531 7.8374 0
M  V30 3840 N 338.485 -1.33259 -0.841409 0
M  V30 3841 C 339.896 -1.22066 -1.41269 0
M  V30 3842 C 340.247 0.161479 -1.95534 0
M  V30 3843 O 339.372 1.06094 -1.88608 0
M  V30 3844 C 339.967 -2.20996 -2.568 0
M  V30 3845 C 338.526 -2.13649 -3.09888 0
M  V30 3846 C 337.673 -2.08623 -1.82679 0
M  V30 3847 H 340.624 -1.44895 -0.647395 0
M  V30 3848 H 340.645 -1.81621 -3.34356 0
M  V30 3849 H 340.157 -3.2158 -2.17274 0
M  V30 3850 H 338.258 -1.16359 -3.53965 0
M  V30 3851 H 338.371 -3.04079 -3.70234 0
M  V30 3852 H 336.735 -1.54061 -2.02824 0
M  V30 3853 H 337.518 -3.1101 -1.45353 0
M  V30 3854 N 339.963 1.05934 -1.16686 0
M  V30 3855 C 340.91 2.13499 -0.876748 0
M  V30 3856 C 341.88 1.65162 0.176299 0
M  V30 3857 O 343.065 1.90757 0.0407143 0
M  V30 3858 C 340.205 3.42912 -0.387967 0
M  V30 3859 C 339.318 4.04964 -1.50426 0
M  V30 3860 C 338.453 5.22266 -0.970125 0
M  V30 3861 C 337.492 5.76309 -2.06238 0
M  V30 3862 N 336.629 6.84922 -1.54356 0
M  V30 3863 H 341.469 2.37654 -1.7979 0
M  V30 3864 H 339.006 1.16598 -0.896843 0
M  V30 3865 H 340.964 4.17111 -0.086186 0
M  V30 3866 H 339.594 3.18963 0.496235 0
M  V30 3867 H 338.646 3.28277 -1.92193 0
M  V30 3868 H 339.958 4.41122 -2.32836 0
M  V30 3869 H 339.112 6.03506 -0.621743 0
M  V30 3870 H 337.851 4.87564 -0.115377 0
M  V30 3871 H 336.856 4.93704 -2.41942 0
M  V30 3872 H 338.081 6.13062 -2.92115 0
M  V30 3873 H 336.027 6.52131 -0.711406 0
M  V30 3874 H 335.944 7.20043 -2.30379 0
M  V30 3875 H 337.212 7.69832 -1.22387 0
M  V30 3876 N 341.441 0.965919 1.2453 0
M  V30 3877 C 342.351 0.502154 2.29163 0
M  V30 3878 C 343.367 -0.436017 1.68448 0
M  V30 3879 O 344.543 -0.309497 1.99008 0
M  V30 3880 C 341.608 -0.201956 3.46111 0
M  V30 3881 C 340.669 0.775821 4.22232 0
M  V30 3882 C 339.902 0.105217 5.33596 0
M  V30 3883 O 340.125 -1.10683 5.59558 0
M  V30 3884 O 339.059 0.796475 5.96607 0
M  V30 3885 H 342.885 1.37194 2.70946 0
M  V30 3886 H 340.47 0.732875 1.30189 0
M  V30 3887 H 342.352 -0.597564 4.17142 0
M  V30 3888 H 341.027 -1.04673 3.06309 0
M  V30 3889 H 339.934 1.22185 3.53584 0
M  V30 3890 H 341.267 1.58896 4.65846 0
M  V30 3891 N 342.919 -1.39368 0.735821 0
M  V30 3892 C 344.147 -2.04795 0.294393 0
M  V30 3893 C 344.562 -1.55478 -1.07107 0
M  V30 3894 O 343.919 -0.720038 -1.67695 0
M  V30 3895 C 343.97 -3.6035 0.288071 0
M  V30 3896 O 343.691 -4.07852 1.59963 0
M  V30 3897 C 345.192 -4.42976 -0.169422 0
M  V30 3898 H 342.412 -0.658571 0.128551 0
M  V30 3899 H 344.956 -1.78399 0.999701 0
M  V30 3900 H 343.111 -3.85645 -0.368355 0
M  V30 3901 H 343.525 -5.02181 1.51375 0
M  V30 3902 H 344.999 -5.51864 -0.122687 0
M  V30 3903 H 345.476 -4.22068 -1.21472 0
M  V30 3904 H 346.082 -4.22832 0.457469 0
M  V30 3905 N 344.397 -0.483516 -1.5 0
M  V30 3906 C 345.622 0.0667119 -2.07293 0
M  V30 3907 C 346.047 1.3164 -1.3436 0
M  V30 3908 O 345.405 1.76945 -0.394987 0
M  V30 3909 C 345.453 0.321126 -3.59167 0
M  V30 3910 O 344.557 1.39927 -3.87936 0
M  V30 3911 H 343.898 -0.0184758 -0.663743 0
M  V30 3912 H 346.428 -0.678125 -1.93035 0
M  V30 3913 H 346.438 0.557906 -4.04168 0
M  V30 3914 H 345.113 -0.592007 -4.11665 0
M  V30 3915 H 343.69 1.14882 -3.54763 0
M  V30 3916 N 345.875 1.56104 -0.216619 0
M  V30 3917 C 347.1 2.0301 0.424462 0
M  V30 3918 C 347.525 1.0955 1.52907 0
M  V30 3919 O 346.883 0.0827914 1.81111 0
M  V30 3920 C 346.931 3.4819 0.937883 0
M  V30 3921 O 346.035 3.57865 2.04955 0
M  V30 3922 H 345.376 0.656925 0.0966755 0
M  V30 3923 H 347.906 2.01859 -0.33381 0
M  V30 3924 H 347.916 3.88413 1.24897 0
M  V30 3925 H 346.591 4.15699 0.129387 0
M  V30 3926 H 345.168 3.29527 1.74546 0
M  V30 3927 N 347.353 -0.0568162 1.57498 0
M  V30 3928 C 348.316 -1.05038 2.03715 0
M  V30 3929 C 349.316 -1.30709 0.936577 0
M  V30 3930 O 350.506 -1.26178 1.20103 0
M  V30 3931 C 347.638 -2.39034 2.43055 0
M  V30 3932 H 348.831 -0.651715 2.92733 0
M  V30 3933 H 346.384 -0.302947 1.53336 0
M  V30 3934 H 347.119 -2.83703 1.57108 0
M  V30 3935 H 346.904 -2.21739 3.2338 0
M  V30 3936 H 348.394 -3.10421 2.79336 0
M  V30 3937 N 348.832 -1.54138 -0.328536 0
M  V30 3938 C 349.762 -1.86167 -1.40939 0
M  V30 3939 C 350.743 -0.718044 -1.54202 0
M  V30 3940 O 351.928 -0.971328 -1.68163 0
M  V30 3941 C 349.058 -2.08461 -2.77779 0
M  V30 3942 C 348.012 -3.24299 -2.7931 0
M  V30 3943 C 347.338 -3.31955 -4.19178 0
M  V30 3944 C 348.638 -4.62065 -2.43502 0
M  V30 3945 H 350.332 -2.76689 -1.14383 0
M  V30 3946 H 347.878 -1.33132 -0.548806 0
M  V30 3947 H 349.831 -2.29453 -3.53454 0
M  V30 3948 H 348.555 -1.14684 -3.05802 0
M  V30 3949 H 347.214 -3.03187 -2.0609 0
M  V30 3950 H 346.862 -2.35745 -4.44335 0
M  V30 3951 H 346.562 -4.09805 -4.2111 0
M  V30 3952 H 348.086 -3.55175 -4.96672 0
M  V30 3953 H 349.5 -4.8297 -3.08889 0
M  V30 3954 H 347.897 -5.42429 -2.56693 0
M  V30 3955 H 348.967 -4.64652 -1.38659 0
M  V30 3956 N 350.31 0.590341 -1.46126 0
M  V30 3957 C 351.538 1.37504 -1.54597 0
M  V30 3958 C 351.953 1.87897 -0.184447 0
M  V30 3959 O 351.31 1.63192 0.816984 0
M  V30 3960 C 351.361 2.56779 -2.54454 0
M  V30 3961 O 351.082 2.08476 -3.85317 0
M  V30 3962 C 352.583 3.49427 -2.72792 0
M  V30 3963 H 349.803 0.420325 -0.523037 0
M  V30 3964 H 352.347 0.718383 -1.91467 0
M  V30 3965 H 350.502 3.1845 -2.20609 0
M  V30 3966 H 350.916 2.86097 -4.396 0
M  V30 3967 H 352.39 4.29619 -3.466 0
M  V30 3968 H 352.867 4.00876 -1.79429 0
M  V30 3969 H 353.473 2.93598 -3.07702 0
M  V30 3970 N 351.788 1.33704 0.83433 0
M  V30 3971 C 352.738 1.20899 1.93306 0
M  V30 3972 C 353.722 0.110783 1.60518 0
M  V30 3973 O 354.914 0.339331 1.73717 0
M  V30 3974 C 352.043 0.955018 3.29749 0
M  V30 3975 C 351.129 2.09587 3.68692 0
M  V30 3976 N 351.52 3.34621 3.79292 0
M  V30 3977 C 349.818 2.00358 3.98463 0
M  V30 3978 C 350.519 4.09472 4.13167 0
M  V30 3979 N 349.495 3.37954 4.25779 0
M  V30 3980 H 353.297 2.15665 1.99664 0
M  V30 3981 H 350.811 1.25777 1.02732 0
M  V30 3982 H 352.808 0.844208 4.08263 0
M  V30 3983 H 351.468 0.0159317 3.24696 0
M  V30 3984 H 352.479 3.69313 3.63082 0
M  V30 3985 H 349.156 1.14137 4.01596 0
M  V30 3986 H 350.546 5.17391 4.28668 0
M  V30 3987 N 353.266 -1.05314 1.17247 0
M  V30 3988 C 354.229 -2.112 0.890357 0
M  V30 3989 C 355.229 -1.60359 -0.118943 0
M  V30 3990 O 356.419 -1.73833 0.113086 0
M  V30 3991 C 353.551 -3.39266 0.333422 0
M  V30 3992 H 354.744 -2.37659 1.82916 0
M  V30 3993 H 352.297 -1.21538 0.982758 0
M  V30 3994 H 353.032 -3.18462 -0.612587 0
M  V30 3995 H 352.817 -3.77477 1.06082 0
M  V30 3996 H 354.307 -4.17315 0.154322 0
M  V30 3997 N 354.744 -0.972509 -1.24016 0
M  V30 3998 C 355.992 -0.635776 -1.91839 0
M  V30 3999 C 356.313 0.832312 -1.76345 0
M  V30 4000 O 355.583 1.5946 -1.13795 0
M  V30 4001 H 354.163 -0.232157 -0.710009 0
M  V30 4002 H 356.825 -1.23462 -1.50809 0
M  V30 4003 H 355.921 -0.880545 -2.99421 0
M  V30 4004 N 356.222 1.38976 -0.743202 0
M  V30 4005 C 357.185 2.28901 -0.117014 0
M  V30 4006 C 358.185 1.46698 0.658503 0
M  V30 4007 O 359.375 1.67274 0.486305 0
M  V30 4008 C 356.507 3.30309 0.84315 0
M  V30 4009 H 357.7 2.8578 -0.909373 0
M  V30 4010 H 355.253 1.47761 -0.509547 0
M  V30 4011 H 355.988 2.785 1.66157 0
M  V30 4012 H 355.773 3.91029 0.289594 0
M  V30 4013 H 357.263 3.97577 1.2776 0
M  V30 4014 N 357.7 0.491464 1.49741 0
M  V30 4015 C 358.65 -0.311086 2.25868 0
M  V30 4016 C 359.634 -0.943857 1.30308 0
M  V30 4017 O 360.826 -0.853035 1.55088 0
M  V30 4018 C 357.955 -1.38059 3.14316 0
M  V30 4019 C 357.041 -0.754541 4.17334 0
M  V30 4020 N 357.432 0.137216 5.05614 0
M  V30 4021 C 355.73 -1.01621 4.34269 0
M  V30 4022 C 356.431 0.494614 5.79593 0
M  V30 4023 N 355.407 -0.135169 5.43432 0
M  V30 4024 H 359.209 0.37555 2.91491 0
M  V30 4025 H 356.723 0.306917 1.59473 0
M  V30 4026 H 358.72 -1.96891 3.67477 0
M  V30 4027 H 357.38 -2.06901 2.50244 0
M  V30 4028 H 358.391 0.50741 5.15408 0
M  V30 4029 H 355.068 -1.69808 3.81407 0
M  V30 4030 H 356.458 1.2236 6.60665 0
M  V30 4031 N 359.178 -1.55987 0.224894 0
M  V30 4032 C 360.108 -2.23426 -0.678457 0
M  V30 4033 C 361.089 -1.20709 -1.19847 0
M  V30 4034 O 362.274 -1.49304 -1.24186 0
M  V30 4035 C 359.404 -2.91676 -1.88527 0
M  V30 4036 C 358.358 -4.00893 -1.49896 0
M  V30 4037 C 357.684 -4.56455 -2.78483 0
M  V30 4038 C 358.984 -5.17769 -0.686461 0
M  V30 4039 H 360.678 -2.99175 -0.116173 0
M  V30 4040 H 358.224 -1.43897 -0.054436 0
M  V30 4041 H 360.177 -3.37547 -2.5227 0
M  V30 4042 H 358.901 -2.1338 -2.47258 0
M  V30 4043 H 357.56 -3.55758 -0.884985 0
M  V30 4044 H 357.208 -3.74886 -3.35365 0
M  V30 4045 H 356.908 -5.30169 -2.53368 0
M  V30 4046 H 358.432 -5.05047 -3.43162 0
M  V30 4047 H 359.846 -5.60001 -1.22767 0
M  V30 4048 H 358.243 -5.97735 -0.532259 0
M  V30 4049 H 359.313 -4.83932 0.306196 0
M  V30 4050 N 360.656 0.0484629 -1.57525 0
M  V30 4051 C 361.933 0.777447 -1.79486 0
M  V30 4052 C 362.313 1.94597 -0.818251 0
M  V30 4053 O 361.661 2.28047 0.143767 0
M  V30 4054 C 361.871 1.22864 -3.26658 0
M  V30 4055 C 363.219 1.65251 -3.91123 0
M  V30 4056 O 364.243 1.32372 -3.3069 0
M  V30 4057 O 363.102 2.26207 -4.97486 0
M  V30 4058 H 360.196 0.374357 -0.737419 0
M  V30 4059 H 362.742 0.0267359 -1.69679 0
M  V30 4060 H 361.514 0.393589 -3.89316 0
M  V30 4061 H 361.137 2.03996 -3.41279 0
M  V30 4062 N 362.134 1.5431 0.320358 0
M  V30 4063 C 363.064 1.86912 1.3995 0
M  V30 4064 C 364.045 0.726211 1.53819 0
M  V30 4065 O 365.23 0.980233 1.67646 0
M  V30 4066 C 362.36 2.09932 2.7667 0
M  V30 4067 C 361.314 3.25776 2.77586 0
M  V30 4068 C 360.64 3.34173 4.17412 0
M  V30 4069 C 361.94 4.6335 2.41048 0
M  V30 4070 H 363.634 2.77292 1.12914 0
M  V30 4071 H 361.18 1.33421 0.541738 0
M  V30 4072 H 363.133 2.31324 3.52232 0
M  V30 4073 H 361.857 1.16304 3.0519 0
M  V30 4074 H 360.516 3.04276 2.04479 0
M  V30 4075 H 360.164 2.38098 4.43078 0
M  V30 4076 H 359.864 4.12033 4.18931 0
M  V30 4077 H 361.388 3.57803 4.94782 0
M  V30 4078 H 362.802 4.84602 3.06324 0
M  V30 4079 H 361.199 5.43782 2.53813 0
M  V30 4080 H 362.269 4.65381 1.36193 0
M  V30 4081 N 363.613 -0.582584 1.46437 0
M  V30 4082 C 364.838 -1.37168 1.55563 0
M  V30 4083 C 365.263 -1.87061 0.19743 0
M  V30 4084 O 364.621 -1.61572 -0.822451 0
M  V30 4085 C 364.669 -2.53511 2.56446 0
M  V30 4086 O 363.773 -3.54953 2.09958 0
M  V30 4087 H 363.114 -0.408494 0.523477 0
M  V30 4088 H 365.644 -0.706646 1.9201 0
M  V30 4089 H 365.654 -3.00426 2.76058 0
M  V30 4090 H 364.329 -2.16549 3.55076 0
M  V30 4091 H 362.906 -3.14516 2.00334 0
M  V30 4092 N 365.091 -1.34144 -0.827227 0
M  V30 4093 C 366.054 -1.25264 -1.91942 0
M  V30 4094 C 367.054 -0.168866 -1.59911 0
M  V30 4095 O 368.244 -0.421198 -1.69031 0
M  V30 4096 C 365.376 -0.932952 -3.27885 0
M  V30 4097 H 366.569 -2.22357 -2.0124 0
M  V30 4098 H 364.122 -1.1837 -1.0207 0
M  V30 4099 H 364.857 0.0349917 -3.24281 0
M  V30 4100 H 364.642 -1.71682 -3.52516 0
M  V30 4101 H 366.132 -0.895874 -4.07877 0
M  V30 4102 N 366.569 1.04691 -1.17803 0
M  V30 4103 C 367.816 1.77782 -0.969532 0
M  V30 4104 C 368.144 1.87926 0.501401 0
M  V30 4105 O 367.399 1.37918 1.38842 0
M  V30 4106 C 367.698 3.21467 -1.56186 0
M  V30 4107 C 367.364 3.3137 -3.05786 0
M  V30 4108 C 366.026 3.3378 -3.46619 0
M  V30 4109 C 368.378 3.31976 -4.01797 0
M  V30 4110 C 365.706 3.34431 -4.82051 0
M  V30 4111 C 368.058 3.34167 -5.37136 0
M  V30 4112 C 366.722 3.34866 -5.77426 0
M  V30 4113 H 365.992 0.650549 -0.354777 0
M  V30 4114 H 368.639 1.23006 -1.46772 0
M  V30 4115 H 366.944 3.79203 -0.985515 0
M  V30 4116 H 368.641 3.76652 -1.37602 0
M  V30 4117 H 365.231 3.3021 -2.73238 0
M  V30 4118 H 369.415 3.29311 -3.71306 0
M  V30 4119 H 364.671 3.33285 -5.12573 0
M  V30 4120 H 368.845 3.33585 -6.11305 0
M  V30 4121 H 366.472 3.35124 -6.82346 0
M  V30 4122 N 368.047 0.979072 1.23499 0
M  V30 4123 C 369.272 0.664845 1.96455 0
M  V30 4124 C 369.697 -0.761287 1.72006 0
M  V30 4125 O 369.055 -1.51837 0.990713 0
M  V30 4126 C 369.103 0.959479 3.47601 0
M  V30 4127 O 368.207 0.0508168 4.12369 0
M  V30 4128 H 367.548 0.250185 0.615064 0
M  V30 4129 H 370.078 1.31231 1.5697 0
M  V30 4130 H 370.088 0.895642 3.98048 0
M  V30 4131 H 368.763 1.99876 3.64723 0
M  V30 4132 H 367.34 0.16895 3.72517 0
M  V30 4133 N 369.525 -1.3858 0.750561 0
M  V30 4134 C 370.75 -2.04997 0.314812 0
M  V30 4135 C 371.175 -1.56235 -1.04749 0
M  V30 4136 O 370.533 -0.712981 -1.66692 0
M  V30 4137 C 370.581 -3.58961 0.343415 0
M  V30 4138 O 369.685 -4.07025 -0.663628 0
M  V30 4139 H 369.026 -0.649081 0.139962 0
M  V30 4140 H 371.556 -1.77313 1.02084 0
M  V30 4141 H 371.566 -4.07542 0.193233 0
M  V30 4142 H 370.241 -3.93811 1.33738 0
M  V30 4143 H 368.818 -3.6982 -0.478307 0
M  V30 4144 N 371.003 -0.499398 -1.49478 0
M  V30 4145 C 372.249 0.0377587 -2.03365 0
M  V30 4146 C 372.604 1.3484 -1.37244 0
M  V30 4147 O 371.897 1.85 -0.498547 0
M  V30 4148 C 372.091 0.248424 -3.56536 0
M  V30 4149 C 371.92 -1.04025 -4.37503 0
M  V30 4150 C 370.69 -1.59159 -4.79579 0
M  V30 4151 C 372.888 -1.9431 -4.76181 0
M  V30 4152 N 370.87 -2.82634 -5.44969 0
M  V30 4153 C 372.241 -3.02364 -5.41272 0
M  V30 4154 C 374.296 -1.95008 -4.58123 0
M  V30 4155 C 372.999 -4.1114 -5.90217 0
M  V30 4156 C 375.025 -3.02758 -5.08027 0
M  V30 4157 C 374.387 -4.09531 -5.73118 0
M  V30 4158 H 370.486 -0.026923 -0.781536 0
M  V30 4159 H 373.07 -0.673901 -1.82665 0
M  V30 4160 H 371.241 0.929139 -3.77123 0
M  V30 4161 H 372.973 0.782445 -3.97064 0
M  V30 4162 H 369.728 -1.13696 -4.5975 0
M  V30 4163 H 370.152 -3.45416 -5.82252 0
M  V30 4164 H 374.794 -1.13766 -4.07207 0
M  V30 4165 H 372.512 -4.93181 -6.40155 0
M  V30 4166 H 376.098 -3.04315 -4.95866 0
M  V30 4167 H 374.978 -4.91534 -6.11035 0
M  V30 4168 N 372.481 1.55866 -0.233164 0
M  V30 4169 C 373.391 2.24431 0.683217 0
M  V30 4170 C 374.407 1.2558 1.2044 0
M  V30 4171 O 375.583 1.58422 1.24356 0
M  V30 4172 C 372.648 2.91979 1.86947 0
M  V30 4173 C 371.709 4.06204 1.38912 0
M  V30 4174 C 370.942 4.70522 2.51883 0
M  V30 4175 O 371.165 4.33865 3.70293 0
M  V30 4176 O 370.099 5.59296 2.22423 0
M  V30 4177 H 373.925 3.03426 0.129059 0
M  V30 4178 H 371.51 1.494 -0.0022283 0
M  V30 4179 H 373.392 3.34573 2.56201 0
M  V30 4180 H 372.067 2.15935 2.41151 0
M  V30 4181 H 370.974 3.68155 0.664259 0
M  V30 4182 H 372.307 4.84025 0.893328 0
M  V30 4183 N 373.959 -0.0401083 1.57549 0
M  V30 4184 C 374.869 -1.06133 2.0922 0
M  V30 4185 C 375.885 -1.40356 1.0284 0
M  V30 4186 O 377.061 -1.49897 1.34509 0
M  V30 4187 C 374.126 -2.34658 2.55218 0
M  V30 4188 C 373.187 -2.07117 3.76033 0
M  V30 4189 C 372.42 -3.29514 4.19829 0
M  V30 4190 O 372.643 -4.39794 3.63232 0
M  V30 4191 O 371.577 -3.15863 5.12362 0
M  V30 4192 H 375.403 -0.652244 2.96613 0
M  V30 4193 H 372.988 -0.256368 1.47184 0
M  V30 4194 H 374.87 -3.10239 2.85184 0
M  V30 4195 H 373.545 -2.74883 1.70941 0
M  V30 4196 H 372.452 -1.29139 3.51104 0
M  V30 4197 H 373.785 -1.71754 4.61261 0
M  V30 4198 N 375.437 -1.54477 -0.31217 0
M  V30 4199 C 376.367 -1.87652 -1.38957 0
M  V30 4200 C 377.348 -0.734358 -1.53431 0
M  V30 4201 O 378.533 -0.98911 -1.67123 0
M  V30 4202 C 375.663 -2.11396 -2.75552 0
M  V30 4203 C 374.617 -3.27243 -2.75855 0
M  V30 4204 C 373.943 -3.36382 -4.15633 0
M  V30 4205 C 375.243 -4.64622 -2.38587 0
M  V30 4206 H 376.937 -2.77887 -1.11442 0
M  V30 4207 H 374.483 -1.33707 -0.534655 0
M  V30 4208 H 376.436 -2.33189 -3.51 0
M  V30 4209 H 375.16 -1.17921 -3.04569 0
M  V30 4210 H 373.819 -3.05356 -2.02863 0
M  V30 4211 H 373.467 -2.40445 -4.41809 0
M  V30 4212 H 373.167 -4.14249 -4.1674 0
M  V30 4213 H 374.691 -3.60422 -4.92877 0
M  V30 4214 H 376.105 -4.86219 -3.03749 0
M  V30 4215 H 374.502 -5.45121 -2.50925 0
M  V30 4216 H 375.572 -4.66097 -1.33723 0
M  V30 4217 N 376.915 0.57481 -1.46744 0
M  V30 4218 C 377.878 1.66533 -1.57478 0
M  V30 4219 C 378.878 1.54338 -0.451263 0
M  V30 4220 O 380.068 1.58814 -0.715813 0
M  V30 4221 C 377.2 3.05999 -1.50259 0
M  V30 4222 H 378.393 1.58372 -2.54673 0
M  V30 4223 H 375.946 0.793301 -1.34672 0
M  V30 4224 H 376.681 3.19709 -0.543725 0
M  V30 4225 H 376.466 3.16259 -2.31781 0
M  V30 4226 H 377.956 3.8537 -1.60872 0
M  V30 4227 N 378.394 1.34581 0.820102 0
M  V30 4228 C 379.619 1.30333 1.61332 0
M  V30 4229 C 380.044 -0.119339 1.87721 0
M  V30 4230 O 379.402 -1.08197 1.45475 0
M  V30 4231 C 379.45 2.10258 2.92957 0
M  V30 4232 O 378.554 1.47404 3.85157 0
M  V30 4233 H 377.895 0.447488 0.490561 0
M  V30 4234 H 380.425 1.77425 1.01889 0
M  V30 4235 H 380.435 2.21718 3.42498 0
M  V30 4236 H 379.11 3.13693 2.73074 0
M  V30 4237 H 377.687 1.44703 3.43679 0
M  V30 4238 N 379.872 -1.04064 1.18357 0
M  V30 4239 C 380.802 -2.14001 0.934113 0
M  V30 4240 C 381.783 -1.69616 -0.128186 0
M  V30 4241 O 382.968 -1.94185 0.0244093 0
M  V30 4242 C 380.098 -3.44253 0.459066 0
M  V30 4243 C 379.052 -4.02261 1.46185 0
M  V30 4244 C 378.378 -5.27992 0.844322 0
M  V30 4245 C 379.678 -4.38432 2.83856 0
M  V30 4246 H 381.372 -2.35127 1.85352 0
M  V30 4247 H 378.918 -1.12998 0.892604 0
M  V30 4248 H 380.871 -4.20522 0.271907 0
M  V30 4249 H 379.595 -3.22813 -0.495912 0
M  V30 4250 H 378.254 -3.28074 1.63595 0
M  V30 4251 H 377.902 -5.02862 -0.117845 0
M  V30 4252 H 377.602 -5.67765 1.51384 0
M  V30 4253 H 379.126 -6.06938 0.667693 0
M  V30 4254 H 380.54 -5.05688 2.70098 0
M  V30 4255 H 378.937 -4.89254 3.47491 0
M  V30 4256 H 380.007 -3.4826 3.37406 0
M  V30 4257 N 381.35 -0.985608 -1.22978 0
M  V30 4258 C 382.598 -0.656087 -1.91154 0
M  V30 4259 C 382.919 0.813561 -1.77218 0
M  V30 4260 O 382.189 1.58244 -1.1548 0
M  V30 4261 H 380.769 -0.239674 -0.707506 0
M  V30 4262 H 383.431 -1.25054 -1.49491 0
M  V30 4263 H 382.527 -0.912253 -2.9847 0
M  V30 4264 N 382.828 1.3818 -0.7579 0
M  V30 4265 C 383.758 2.33027 -0.148597 0
M  V30 4266 C 384.739 1.55085 0.69875 0
M  V30 4267 O 385.924 1.83384 0.639053 0
M  V30 4268 C 383.054 3.3928 0.742034 0
M  V30 4269 C 382.008 4.28 -0.00291946 0
M  V30 4270 C 381.334 5.25146 1.00625 0
M  V30 4271 C 382.634 5.08938 -1.17385 0
M  V30 4272 H 384.328 2.84231 -0.940909 0
M  V30 4273 H 381.874 1.36659 -0.453908 0
M  V30 4274 H 383.827 4.046 1.17799 0
M  V30 4275 H 382.551 2.86569 1.56671 0
M  V30 4276 H 381.21 3.64192 -0.419504 0
M  V30 4277 H 380.858 4.68721 1.8251 0
M  V30 4278 H 380.558 5.85361 0.512428 0
M  V30 4279 H 382.082 5.93342 1.44143 0
M  V30 4280 H 383.496 5.67474 -0.815224 0
M  V30 4281 H 381.893 5.7841 -1.59882 0
M  V30 4282 H 382.963 4.42424 -1.98468 0
M  V30 4283 N 384.306 0.507319 1.49211 0
M  V30 4284 C 385.583 -0.0982702 1.95353 0
M  V30 4285 C 385.963 -1.53516 1.449 0
M  V30 4286 O 385.311 -2.18594 0.66551 0
M  V30 4287 C 385.521 -0.00440283 3.49 0
M  V30 4288 C 386.869 -0.175147 4.24239 0
M  V30 4289 O 387.893 -0.0792891 3.56112 0
M  V30 4290 O 386.752 -0.37276 5.45227 0
M  V30 4291 H 383.846 -0.0918236 0.821887 0
M  V30 4292 H 386.392 0.570307 1.5983 0
M  V30 4293 H 385.164 0.997402 3.78375 0
M  V30 4294 H 384.787 -0.712845 3.91158 0
M  V30 4295 N 385.784 -1.5574 0.241426 0
M  V30 4296 C 387.2 -1.59196 -0.113548 0
M  V30 4297 C 387.4 -1.25852 -1.57364 0
M  V30 4298 O 386.456 -1.00322 -2.31715 0
M  V30 4299 C 387.769 -2.99814 0.230695 0
M  V30 4300 C 389.317 -3.12513 0.174547 0
M  V30 4301 C 389.792 -4.55342 0.492744 0
M  V30 4302 N 391.283 -4.61076 0.443043 0
M  V30 4303 C 392.018 -5.6956 0.662484 0
M  V30 4304 N 391.514 -6.86328 0.944761 0
M  V30 4305 N 393.307 -5.58957 0.593564 0
M  V30 4306 H 385.458 -1.75685 1.19368 0
M  V30 4307 H 387.721 -0.81756 0.479896 0
M  V30 4308 H 387.427 -3.28932 1.24485 0
M  V30 4309 H 387.301 -3.74568 -0.444833 0
M  V30 4310 H 389.688 -2.83179 -0.830277 0
M  V30 4311 H 389.769 -2.40045 0.883845 0
M  V30 4312 H 389.413 -4.85396 1.4951 0
M  V30 4313 H 389.343 -5.26062 -0.23797 0
M  V30 4314 H 391.834 -3.77179 0.233374 0
M  V30 4315 H 392.147 -7.64935 1.09977 0
M  V30 4316 H 390.492 -6.88025 0.982175 0
M  V30 4317 H 393.683 -4.66611 0.373123 0
M  V30 4318 H 393.856 -6.43433 0.767981 0
M  V30 4319 N 387.262 0.0317525 -1.57568 0
M  V30 4320 C 388.192 1.03274 -2.0942 0
M  V30 4321 C 389.173 1.3788 -0.996143 0
M  V30 4322 O 390.358 1.46811 -1.27122 0
M  V30 4323 C 387.488 2.33448 -2.57137 0
M  V30 4324 C 386.442 2.13091 -3.71182 0
M  V30 4325 C 385.768 3.49001 -4.05095 0
M  V30 4326 C 387.068 1.51928 -4.99715 0
M  V30 4327 H 388.762 0.60112 -2.93303 0
M  V30 4328 H 386.308 0.287705 -1.41097 0
M  V30 4329 H 388.261 3.03802 -2.92032 0
M  V30 4330 H 386.985 2.78665 -1.70333 0
M  V30 4331 H 385.644 1.45171 -3.36632 0
M  V30 4332 H 385.292 3.91862 -3.15362 0
M  V30 4333 H 384.992 3.36207 -4.81911 0
M  V30 4334 H 386.516 4.20721 -4.42522 0
M  V30 4335 H 387.93 2.12196 -5.32584 0
M  V30 4336 H 386.327 1.49716 -5.81124 0
M  V30 4337 H 387.397 0.484811 -4.8247 0
M  V30 4338 N 388.74 1.54641 0.303973 0
M  V30 4339 C 389.687 1.85386 1.37479 0
M  V30 4340 C 390.657 0.702528 1.50512 0
M  V30 4341 O 391.842 0.950867 1.65418 0
M  V30 4342 C 388.982 2.10413 2.73533 0
M  V30 4343 C 388.095 3.38049 2.68974 0
M  V30 4344 C 387.23 3.52934 3.97002 0
M  V30 4345 C 386.269 4.74373 3.86829 0
M  V30 4346 N 385.406 4.8608 5.06627 0
M  V30 4347 H 390.246 2.76732 1.1056 0
M  V30 4348 H 387.783 1.37034 0.534805 0
M  V30 4349 H 389.741 2.22919 3.52652 0
M  V30 4350 H 388.371 1.22338 2.98719 0
M  V30 4351 H 387.423 3.3418 1.81736 0
M  V30 4352 H 388.735 4.27288 2.57346 0
M  V30 4353 H 387.889 3.65088 4.84557 0
M  V30 4354 H 386.628 2.61824 4.1146 0
M  V30 4355 H 385.633 4.62255 2.97658 0
M  V30 4356 H 386.858 5.66888 3.73918 0
M  V30 4357 H 384.804 3.97891 5.21554 0
M  V30 4358 H 384.721 5.69315 4.9741 0
M  V30 4359 H 385.989 5.02587 5.95841 0
M  V30 4360 N 390.218 -0.567019 1.47046 0
M  V30 4361 C 391.443 -1.3551 1.57009 0
M  V30 4362 C 391.868 -1.86841 0.217259 0
M  V30 4363 O 391.226 -1.62435 -0.805268 0
M  V30 4364 C 391.274 -2.50777 2.5912 0
M  V30 4365 O 390.378 -3.52706 2.13711 0
M  V30 4366 H 389.719 -0.402919 0.52778 0
M  V30 4367 H 392.249 -0.686241 1.92748 0
M  V30 4368 H 392.259 -2.97481 2.79229 0
M  V30 4369 H 390.934 -2.12771 3.57353 0
M  V30 4370 H 389.511 -3.12374 2.03659 0
M  V30 4371 N 391.696 -1.35014 -0.812953 0
M  V30 4372 C 392.659 -1.27292 -1.90602 0
M  V30 4373 C 393.659 -0.185817 -1.59723 0
M  V30 4374 O 394.849 -0.439102 -1.68575 0
M  V30 4375 C 391.981 -0.967676 -3.26877 0
M  V30 4376 H 393.174 -2.24479 -1.9887 0
M  V30 4377 H 390.727 -1.19446 -1.00808 0
M  V30 4378 H 391.462 0.0005954 -3.243 0
M  V30 4379 H 391.247 -1.75412 -3.50675 0
M  V30 4380 H 392.737 -0.939085 -4.06904 0
M  V30 4381 N 393.175 1.03435 -1.18907 0
M  V30 4382 C 394.105 2.13503 -0.945448 0
M  V30 4383 C 395.086 1.69682 0.119189 0
M  V30 4384 O 396.271 1.94169 -0.034707 0
M  V30 4385 C 393.401 3.44004 -0.477316 0
M  V30 4386 C 392.355 4.0148 -1.48316 0
M  V30 4387 C 391.681 5.27537 -0.872311 0
M  V30 4388 C 392.981 4.36921 -2.86177 0
M  V30 4389 H 394.675 2.34141 -1.86597 0
M  V30 4390 H 392.221 1.12523 -0.898584 0
M  V30 4391 H 394.174 4.20372 -0.294204 0
M  V30 4392 H 392.898 3.23072 0.478786 0
M  V30 4393 H 391.557 3.27201 -1.65332 0
M  V30 4394 H 391.205 5.02917 0.0911752 0
M  V30 4395 H 390.905 5.66954 -1.54393 0
M  V30 4396 H 392.429 6.06576 -0.699871 0
M  V30 4397 H 393.843 5.04248 -2.72776 0
M  V30 4398 H 392.24 4.87405 -3.50081 0
M  V30 4399 H 393.31 3.46466 -3.39248 0
M  V30 4400 N 394.653 0.992116 1.22453 0
M  V30 4401 C 395.583 0.561677 2.26644 0
M  V30 4402 C 396.564 -0.411055 1.65059 0
M  V30 4403 O 397.749 -0.301861 1.9184 0
M  V30 4404 C 394.879 -0.125247 3.47074 0
M  V30 4405 C 393.833 0.765948 4.21091 0
M  V30 4406 C 393.159 -0.0538484 5.34673 0
M  V30 4407 C 394.459 2.06242 4.79856 0
M  V30 4408 H 396.153 1.43259 2.62902 0
M  V30 4409 H 393.699 0.690283 1.26377 0
M  V30 4410 H 395.652 -0.437764 4.1912 0
M  V30 4411 H 394.376 -1.03069 3.0991 0
M  V30 4412 H 393.035 1.0621 3.50878 0
M  V30 4413 H 392.683 -0.960188 4.9375 0
M  V30 4414 H 392.383 0.539415 5.85119 0
M  V30 4415 H 393.907 -0.360477 6.09535 0
M  V30 4416 H 395.321 1.8139 5.43848 0
M  V30 4417 H 393.718 2.60444 5.40638 0
M  V30 4418 H 394.788 2.74167 3.99951 0
M  V30 4419 N 396.131 -1.37776 0.765217 0
M  V30 4420 C 397.094 -2.28686 0.153416 0
M  V30 4421 C 398.094 -1.47727 -0.635081 0
M  V30 4422 O 399.284 -1.68027 -0.459632 0
M  V30 4423 C 396.416 -3.31608 -0.790495 0
M  V30 4424 H 397.609 -2.84297 0.954723 0
M  V30 4425 H 395.162 -1.46932 0.53299 0
M  V30 4426 H 395.897 -2.81109 -1.61705 0
M  V30 4427 H 395.682 -3.9144 -0.227348 0
M  V30 4428 H 397.172 -3.99559 -1.21419 0
M  V30 4429 N 397.609 -0.515225 -1.4894 0
M  V30 4430 C 398.539 0.244628 -2.32215 0
M  V30 4431 C 399.52 0.949136 -1.41157 0
M  V30 4432 O 400.705 0.937783 -1.70057 0
M  V30 4433 C 397.835 1.30096 -3.22013 0
M  V30 4434 C 396.789 0.715486 -4.21977 0
M  V30 4435 C 396.115 1.87339 -5.00808 0
M  V30 4436 C 397.415 -0.302982 -5.2142 0
M  V30 4437 H 399.109 -0.450501 -2.95991 0
M  V30 4438 H 396.655 -0.218098 -1.42339 0
M  V30 4439 H 398.608 1.84037 -3.79089 0
M  V30 4440 H 397.332 2.02547 -2.56207 0
M  V30 4441 H 395.991 0.197715 -3.66066 0
M  V30 4442 H 395.639 2.58592 -4.31438 0
M  V30 4443 H 395.339 1.48764 -5.68457 0
M  V30 4444 H 396.863 2.41686 -5.60732 0
M  V30 4445 H 398.277 0.148802 -5.73107 0
M  V30 4446 H 396.674 -0.60532 -5.97039 0
M  V30 4447 H 397.744 -1.21395 -4.69459 0
M  V30 4448 N 399.087 1.5561 -0.249682 0
M  V30 4449 C 400.335 1.98618 0.373548 0
M  V30 4450 C 400.656 1.13919 1.58264 0
M  V30 4451 O 399.926 0.222637 1.94631 0
M  V30 4452 H 398.506 0.733571 0.141006 0
M  V30 4453 H 401.168 1.91748 -0.349117 0
M  V30 4454 H 400.264 3.04584 0.680796 0
M  V30 4455 N 400.565 -0.0233959 1.57583 0
M  V30 4456 C 401.495 -1.02162 2.09965 0
M  V30 4457 C 402.476 -1.3735 1.00344 0
M  V30 4458 O 403.661 -1.46135 1.27899 0
M  V30 4459 C 400.791 -2.32081 2.58371 0
M  V30 4460 C 399.745 -2.1112 3.72307 0
M  V30 4461 C 399.071 -3.46848 4.06941 0
M  V30 4462 C 400.371 -1.49276 5.00514 0
M  V30 4463 H 402.065 -0.585557 2.93618 0
M  V30 4464 H 399.611 -0.280218 1.41247 0
M  V30 4465 H 401.564 -3.02249 2.93639 0
M  V30 4466 H 400.288 -2.77758 1.71808 0
M  V30 4467 H 398.947 -1.43384 3.37397 0
M  V30 4468 H 398.595 -3.90184 3.17436 0
M  V30 4469 H 398.295 -3.33646 4.83688 0
M  V30 4470 H 399.819 -4.18369 4.44747 0
M  V30 4471 H 401.233 -2.09368 5.33702 0
M  V30 4472 H 399.63 -1.46632 5.8191 0
M  V30 4473 H 400.7 -0.459217 4.82721 0
M  V30 4474 N 402.043 -1.548 -0.295768 0
M  V30 4475 C 402.99 -1.86113 -1.36494 0
M  V30 4476 C 403.96 -0.7105 -1.50137 0
M  V30 4477 O 405.145 -0.959626 -1.64912 0
M  V30 4478 C 402.285 -2.11861 -2.72413 0
M  V30 4479 C 401.398 -3.39471 -2.67177 0
M  V30 4480 C 400.533 -3.55035 -3.95125 0
M  V30 4481 C 399.572 -4.76418 -3.84308 0
M  V30 4482 N 398.709 -4.8876 -5.04042 0
M  V30 4483 H 403.549 -2.77314 -1.09091 0
M  V30 4484 H 401.086 -1.37315 -0.52753 0
M  V30 4485 H 403.044 -2.24786 -3.51464 0
M  V30 4486 H 401.674 -1.2392 -2.98066 0
M  V30 4487 H 400.726 -3.35139 -1.79962 0
M  V30 4488 H 402.038 -4.28646 -2.55076 0
M  V30 4489 H 401.192 -3.67653 -4.82614 0
M  V30 4490 H 399.931 -2.64002 -4.10066 0
M  V30 4491 H 398.936 -4.63827 -2.95202 0
M  V30 4492 H 400.161 -5.68863 -3.70906 0
M  V30 4493 H 398.107 -4.00652 -5.19436 0
M  V30 4494 H 398.024 -5.71945 -4.94384 0
M  V30 4495 H 399.292 -5.0574 -5.93167 0
M  V30 4496 N 403.521 0.559213 -1.47345 0
M  V30 4497 C 404.761 1.32728 -1.55444 0
M  V30 4498 C 405.125 1.90838 -0.210895 0
M  V30 4499 O 406.326 2.68282 -0.166719 0
M  V30 4500 C 404.597 2.4092 -2.63993 0
M  V30 4501 S 406.156 3.2784 -2.91661 0
M  V30 4502 H 402.974 0.451883 -0.548929 0
M  V30 4503 H 405.576 0.640404 -1.84714 0
M  V30 4504 H 404.28 1.9666 -3.60212 0
M  V30 4505 H 403.811 3.14351 -2.36531 0
M  V30 4506 H 405.826 4.40341 -2.28722 0
M  V30 4507 N 404.999 1.35443 0.805782 0
M  V30 4508 C 406.247 1.28507 1.55982 0
M  V30 4509 C 406.568 -0.140046 1.94496 0
M  V30 4510 O 405.838 -1.07666 1.63661 0
M  V30 4511 H 404.418 0.472676 0.578434 0
M  V30 4512 H 407.08 1.69555 0.961098 0
M  V30 4513 H 406.176 1.90148 2.47488 0
M  V30 4514 N 406.477 -1.02803 1.19454 0
M  V30 4515 C 407.725 -1.75869 0.995722 0
M  V30 4516 C 408.046 -1.89138 -0.474543 0
M  V30 4517 O 407.316 -1.42558 -1.34366 0
M  V30 4518 H 405.896 -0.651511 0.365435 0
M  V30 4519 H 408.558 -1.24004 1.50363 0
M  V30 4520 H 407.654 -2.76661 1.44447 0
M  V30 4521 N 407.956 -0.998596 -1.21925 0
M  V30 4522 C 409.184 -0.696286 -1.94832 0
M  V30 4523 C 409.599 0.740032 -1.73692 0
M  V30 4524 O 408.956 1.5 -1.03953 0
M  V30 4525 C 409.007 -0.999833 -3.47398 0
M  V30 4526 O 408.728 -2.37972 -3.67833 0
M  V30 4527 C 410.229 -0.716025 -4.37479 0
M  V30 4528 H 407.449 -0.257111 -0.619786 0
M  V30 4529 H 409.993 -1.33491 -1.54921 0
M  V30 4530 H 408.148 -0.406918 -3.85257 0
M  V30 4531 H 408.562 -2.48338 -4.61983 0
M  V30 4532 H 410.036 -0.978642 -5.43256 0
M  V30 4533 H 410.513 0.349968 -4.37803 0
M  V30 4534 H 411.119 -1.29025 -4.05256 0
M  V30 4535 N 409.434 1.37368 -0.772513 0
M  V30 4536 C 410.364 2.32856 -0.173304 0
M  V30 4537 C 411.345 1.55818 0.682262 0
M  V30 4538 O 412.53 1.84052 0.619566 0
M  V30 4539 C 409.66 3.40048 0.706007 0
M  V30 4540 C 408.614 4.27973 -0.0483144 0
M  V30 4541 C 407.94 5.26184 0.950491 0
M  V30 4542 C 409.24 5.07665 -1.22776 0
M  V30 4543 H 410.934 2.83217 -0.971002 0
M  V30 4544 H 408.48 1.3617 -0.468377 0
M  V30 4545 H 410.433 4.05827 1.13501 0
M  V30 4546 H 409.157 2.88214 1.53623 0
M  V30 4547 H 407.816 3.63726 -0.458107 0
M  V30 4548 H 407.464 4.7063 1.77529 0
M  V30 4549 H 407.164 5.85872 0.450314 0
M  V30 4550 H 408.688 5.94838 1.37842 0
M  V30 4551 H 410.102 5.66578 -0.875366 0
M  V30 4552 H 408.499 5.76681 -1.66007 0
M  V30 4553 H 409.569 4.40294 -2.03149 0
M  V30 4554 N 410.912 0.523116 1.48665 0
M  V30 4555 C 411.822 -0.247406 2.33292 0
M  V30 4556 C 412.838 -0.945769 1.46052 0
M  V30 4557 O 414.014 -0.922253 1.79043 0
M  V30 4558 C 411.079 -1.28487 3.22012 0
M  V30 4559 C 410.14 -0.597592 4.2512 0
M  V30 4560 C 409.373 -1.58563 5.09601 0
M  V30 4561 O 409.596 -2.81763 4.95949 0
M  V30 4562 O 408.53 -1.12879 5.91221 0
M  V30 4563 H 412.356 0.445869 3.00409 0
M  V30 4564 H 409.941 0.284128 1.46673 0
M  V30 4565 H 411.823 -1.88459 3.7691 0
M  V30 4566 H 410.498 -1.96068 2.57564 0
M  V30 4567 H 409.405 0.0424407 3.74076 0
M  V30 4568 H 410.738 0.0361517 4.92187 0
M  V30 4569 N 412.39 -1.55475 0.257931 0
M  V30 4570 C 413.3 -2.2549 -0.647425 0
M  V30 4571 C 414.316 -1.2748 -1.18427 0
M  V30 4572 O 415.492 -1.6038 -1.2182 0
M  V30 4573 C 412.557 -2.94916 -1.82278 0
M  V30 4574 C 411.618 -4.08363 -1.32432 0
M  V30 4575 C 410.851 -4.74469 -2.44366 0
M  V30 4576 O 411.074 -4.39701 -3.63344 0
M  V30 4577 O 410.008 -5.62763 -2.13497 0
M  V30 4578 H 413.834 -3.03593 -0.0807707 0
M  V30 4579 H 411.419 -1.49377 0.0259962 0
M  V30 4580 H 413.301 -3.38606 -2.50846 0
M  V30 4581 H 411.976 -2.19744 -2.37685 0
M  V30 4582 H 410.883 -3.69166 -0.605605 0
M  V30 4583 H 412.216 -4.85385 -0.816211 0
M  V30 4584 N 413.868 0.0150385 -1.57593 0
M  V30 4585 C 415.284 0.370907 -1.5523 0
M  V30 4586 C 415.484 1.75735 -0.985882 0
M  V30 4587 O 414.54 2.44944 -0.613077 0
M  V30 4588 C 415.853 0.259908 -2.99575 0
M  V30 4589 C 417.401 0.335959 -3.11192 0
M  V30 4590 C 417.876 0.254253 -4.57294 0
M  V30 4591 N 419.367 0.312618 -4.62144 0
M  V30 4592 C 420.102 0.272505 -5.72752 0
M  V30 4593 N 419.598 0.183864 -6.92556 0
M  V30 4594 N 421.391 0.323267 -5.6117 0
M  V30 4595 H 413.542 -0.892104 -1.92757 0
M  V30 4596 H 415.805 -0.340563 -0.884715 0
M  V30 4597 H 415.511 -0.693403 -3.44797 0
M  V30 4598 H 415.385 1.048 -3.62349 0
M  V30 4599 H 417.772 1.27971 -2.65909 0
M  V30 4600 H 417.853 -0.481739 -2.51223 0
M  V30 4601 H 417.497 -0.685887 -5.03247 0
M  V30 4602 H 417.427 1.09024 -5.15191 0
M  V30 4603 H 419.918 0.38307 -3.75953 0
M  V30 4604 H 420.231 0.15874 -7.72637 0
M  V30 4605 H 418.576 0.149708 -6.94839 0
M  V30 4606 H 421.767 0.390607 -4.66467 0
M  V30 4607 H 421.94 0.288539 -6.47357 0
M  V30 4608 N 415.346 1.54954 0.287554 0
M  V30 4609 C 416.309 1.86076 1.33823 0
M  V30 4610 C 417.309 0.734414 1.43049 0
M  V30 4611 O 418.499 1.00266 1.42452 0
M  V30 4612 C 415.631 2.05305 2.72144 0
M  V30 4613 H 416.824 2.79984 1.07465 0
M  V30 4614 H 414.377 1.47223 0.524902 0
M  V30 4615 H 415.112 1.1373 3.03704 0
M  V30 4616 H 414.897 2.873 2.66836 0
M  V30 4617 H 416.387 2.30706 3.48087 0
M  V30 4618 N 416.824 -0.551391 1.4764 0
M  V30 4619 C 417.756 -1.67333 1.56628 0
M  V30 4620 C 418.769 -1.56398 0.452045 0
M  V30 4621 O 419.958 -1.6325 0.721926 0
M  V30 4622 C 417.058 -3.05841 1.45994 0
M  V30 4623 C 416.231 -3.42472 2.72088 0
M  V30 4624 C 415.29 -4.60168 2.55209 0
M  V30 4625 O 414.316 -4.64458 3.2904 0
M  V30 4626 N 415.518 -5.57024 1.63416 0
M  V30 4627 H 418.283 -1.60066 2.53375 0
M  V30 4628 H 415.844 -0.738169 1.44093 0
M  V30 4629 H 417.836 -3.8242 1.32428 0
M  V30 4630 H 416.406 -3.07302 0.573071 0
M  V30 4631 H 415.626 -2.55284 3.00373 0
M  V30 4632 H 416.914 -3.63723 3.55785 0
M  V30 4633 H 416.312 -5.56319 1.02594 0
M  V30 4634 H 414.869 -6.32906 1.558 0
M  V30 4635 N 418.302 -1.35869 -0.798587 0
M  V30 4636 C 419.718 -1.16082 -1.09532 0
M  V30 4637 C 419.918 0.0213124 -2.01489 0
M  V30 4638 O 418.974 0.689488 -2.42904 0
M  V30 4639 C 420.287 -2.46748 -1.7186 0
M  V30 4640 C 421.835 -2.53028 -1.84244 0
M  V30 4641 C 422.31 -3.83758 -2.49988 0
M  V30 4642 N 423.801 -3.85053 -2.57465 0
M  V30 4643 C 424.536 -4.8294 -3.09122 0
M  V30 4644 N 424.032 -5.91217 -3.61157 0
M  V30 4645 N 425.825 -4.70369 -3.0775 0
M  V30 4646 H 417.976 -2.11571 -0.187461 0
M  V30 4647 H 420.239 -0.936726 -0.145765 0
M  V30 4648 H 419.945 -3.33471 -1.11759 0
M  V30 4649 H 419.819 -2.61883 -2.71472 0
M  V30 4650 H 422.206 -1.66729 -2.43486 0
M  V30 4651 H 422.287 -2.418 -0.834643 0
M  V30 4652 H 421.931 -4.70459 -1.91393 0
M  V30 4653 H 421.861 -3.92278 -3.5132 0
M  V30 4654 H 424.352 -3.06822 -2.20609 0
M  V30 4655 H 424.665 -6.61892 -3.98896 0
M  V30 4656 H 423.01 -5.94899 -3.59333 0
M  V30 4657 H 426.201 -3.84914 -2.66381 0
M  V30 4658 H 426.374 -5.46816 -3.47701 0
M  V30 4659 N 419.78 1.02168 -1.19998 0
M  V30 4660 C 420.71 2.12488 -0.96804 0
M  V30 4661 C 421.691 1.69799 0.101185 0
M  V30 4662 O 422.876 1.94121 -0.0552993 0
M  V30 4663 C 420.006 3.43479 -0.513776 0
M  V30 4664 C 418.96 3.99884 -1.52566 0
M  V30 4665 C 418.286 5.26582 -0.928214 0
M  V30 4666 C 419.586 4.33861 -2.90795 0
M  V30 4667 H 421.28 2.32149 -1.89069 0
M  V30 4668 H 418.826 1.11564 -0.910468 0
M  V30 4669 H 420.779 4.20036 -0.338774 0
M  V30 4670 H 419.503 3.23561 0.444493 0
M  V30 4671 H 418.162 3.25429 -1.68794 0
M  V30 4672 H 417.81 5.02986 0.0378289 0
M  V30 4673 H 417.51 5.65284 -1.60397 0
M  V30 4674 H 419.034 6.05799 -0.764167 0
M  V30 4675 H 420.448 5.01327 -2.78109 0
M  V30 4676 H 418.845 4.83664 -3.55231 0
M  V30 4677 H 419.915 3.42848 -3.42904 0
M  V30 4678 N 421.258 1.00505 1.21394 0
M  V30 4679 C 422.505 0.687774 1.90462 0
M  V30 4680 C 422.833 -0.78147 1.7811 0
M  V30 4681 O 422.088 -1.58208 1.1519 0
M  V30 4682 C 422.387 1.0546 3.41486 0
M  V30 4683 C 422.053 2.51812 3.74034 0
M  V30 4684 C 420.715 2.91804 3.82628 0
M  V30 4685 C 423.067 3.46614 3.8924 0
M  V30 4686 C 420.395 4.2556 4.03876 0
M  V30 4687 C 422.747 4.80044 4.11995 0
M  V30 4688 C 421.411 5.19759 4.18816 0
M  V30 4689 H 420.681 0.251674 0.696951 0
M  V30 4690 H 423.328 1.26349 1.43903 0
M  V30 4691 H 421.633 0.397133 3.89782 0
M  V30 4692 H 423.33 0.786976 3.93202 0
M  V30 4693 H 419.92 2.1982 3.67936 0
M  V30 4694 H 424.104 3.16883 3.81967 0
M  V30 4695 H 419.36 4.55901 4.07387 0
M  V30 4696 H 423.534 5.53439 4.22704 0
M  V30 4697 H 421.161 6.23418 4.35033 0
M  V30 4698 N 422.737 -1.36956 0.779787 0
M  V30 4699 C 423.962 -2.04283 0.358224 0
M  V30 4700 C 424.387 -1.58422 -1.01411 0
M  V30 4701 O 423.745 -0.748179 -1.65142 0
M  V30 4702 C 423.793 -3.58152 0.419479 0
M  V30 4703 O 422.897 -4.08342 -0.577142 0
M  V30 4704 H 422.238 -0.645967 0.153698 0
M  V30 4705 H 424.768 -1.75108 1.05822 0
M  V30 4706 H 424.778 -4.07041 0.279636 0
M  V30 4707 H 423.453 -3.90886 1.42061 0
M  V30 4708 H 422.03 -3.70751 -0.399755 0
M  V30 4709 N 424.215 -0.530993 -1.48385 0
M  V30 4710 C 425.443 -0.00134122 -2.069 0
M  V30 4711 C 425.858 1.2805 -1.3874 0
M  V30 4712 O 425.215 1.76204 -0.475244 0
M  V30 4713 C 425.266 0.225256 -3.60798 0
M  V30 4714 O 424.987 -1.0058 -4.26398 0
M  V30 4715 C 426.488 0.795172 -4.3611 0
M  V30 4716 H 423.708 -0.0339704 -0.67014 0
M  V30 4717 H 426.252 -0.736926 -1.90761 0
M  V30 4718 H 424.407 0.910891 -3.76539 0
M  V30 4719 H 424.821 -0.787165 -5.1856 0
M  V30 4720 H 426.295 0.903143 -5.44562 0
M  V30 4721 H 426.772 1.80031 -4.00606 0
M  V30 4722 H 427.378 0.146069 -4.25049 0
M  V30 4723 N 425.693 1.55336 -0.266172 0
M  V30 4724 C 426.64 2.22172 0.625165 0
M  V30 4725 C 427.61 1.19211 1.15663 0
M  V30 4726 O 428.795 1.47723 1.20758 0
M  V30 4727 C 425.935 2.93972 1.8076 0
M  V30 4728 C 425.048 4.11632 1.31084 0
M  V30 4729 C 424.183 4.71099 2.45436 0
M  V30 4730 C 423.222 5.8097 1.92718 0
M  V30 4731 N 422.359 6.34538 3.00509 0
M  V30 4732 H 427.199 2.9796 0.0485582 0
M  V30 4733 H 424.736 1.47095 0.0122024 0
M  V30 4734 H 426.694 3.33811 2.50251 0
M  V30 4735 H 425.324 2.20623 2.35638 0
M  V30 4736 H 424.376 3.76975 0.509326 0
M  V30 4737 H 425.688 4.90893 0.884633 0
M  V30 4738 H 424.842 5.13612 3.22936 0
M  V30 4739 H 423.581 3.91096 2.91368 0
M  V30 4740 H 422.586 5.37916 1.13695 0
M  V30 4741 H 423.811 6.62836 1.47733 0
M  V30 4742 H 421.757 5.57433 3.45839 0
M  V30 4743 H 421.674 7.09046 2.62279 0
M  V30 4744 H 422.942 6.81709 3.78011 0
M  V30 4745 N 427.171 -0.0066808 1.57599 0
M  V30 4746 C 428.419 -0.691552 1.899 0
M  V30 4747 C 428.74 -1.74682 0.866672 0
M  V30 4748 O 428.01 -1.95661 -0.0968189 0
M  V30 4749 H 426.59 -0.258416 0.700878 0
M  V30 4750 H 429.252 0.0326655 1.94873 0
M  V30 4751 H 428.348 -1.16702 2.8946 0
M  V30 4752 N 428.649 -1.55105 -0.279332 0
M  V30 4753 C 429.596 -1.8755 -1.34513 0
M  V30 4754 C 430.566 -0.726384 -1.49375 0
M  V30 4755 O 431.751 -0.977063 -1.63884 0
M  V30 4756 C 428.891 -2.14738 -2.70151 0
M  V30 4757 C 428.004 -3.42285 -2.63562 0
M  V30 4758 C 427.139 -3.59206 -3.91337 0
M  V30 4759 C 426.178 -4.80467 -3.79233 0
M  V30 4760 N 425.315 -4.94079 -4.98829 0
M  V30 4761 H 430.155 -2.78456 -1.06143 0
M  V30 4762 H 427.692 -1.37867 -0.512936 0
M  V30 4763 H 429.65 -2.28501 -3.49061 0
M  V30 4764 H 428.28 -1.27075 -2.96735 0
M  V30 4765 H 427.332 -3.37029 -1.76397 0
M  V30 4766 H 428.644 -4.31328 -2.50515 0
M  V30 4767 H 427.798 -3.72751 -4.78687 0
M  V30 4768 H 426.537 -2.68337 -4.07243 0
M  V30 4769 H 425.542 -4.66932 -2.90266 0
M  V30 4770 H 426.767 -5.72765 -3.64852 0
M  V30 4771 H 424.713 -4.06139 -5.15158 0
M  V30 4772 H 424.63 -5.77156 -4.8829 0
M  V30 4773 H 425.898 -5.12003 -5.8777 0
M  V30 4774 N 430.127 0.543554 -1.4793 0
M  V30 4775 C 431.352 1.32995 -1.59145 0
M  V30 4776 C 431.777 1.86472 -0.246956 0
M  V30 4777 O 431.135 1.63696 0.779324 0
M  V30 4778 C 431.183 2.46623 -2.63077 0
M  V30 4779 O 430.287 3.49261 -2.19295 0
M  V30 4780 H 429.628 0.394472 -0.534124 0
M  V30 4781 H 432.158 0.655489 -1.93816 0
M  V30 4782 H 432.168 2.93001 -2.83926 0
M  V30 4783 H 430.843 2.07059 -3.60693 0
M  V30 4784 H 429.42 3.09094 -2.08603 0
M  V30 4785 N 431.605 1.3629 0.791371 0
M  V30 4786 C 432.535 1.33137 1.91825 0
M  V30 4787 C 433.516 0.203168 1.68882 0
M  V30 4788 O 434.701 0.400509 1.90025 0
M  V30 4789 C 431.831 1.11793 3.28816 0
M  V30 4790 C 430.785 2.21417 3.66277 0
M  V30 4791 C 430.111 1.85218 5.01596 0
M  V30 4792 C 431.411 3.63489 3.75064 0
M  V30 4793 H 433.105 2.2743 1.9472 0
M  V30 4794 H 430.651 1.09479 0.935437 0
M  V30 4795 H 432.604 1.08222 4.07266 0
M  V30 4796 H 431.328 0.139501 3.26302 0
M  V30 4797 H 429.987 2.2411 2.90121 0
M  V30 4798 H 429.635 0.859544 4.95602 0
M  V30 4799 H 429.335 2.58611 5.27631 0
M  V30 4800 H 430.859 1.832 5.82469 0
M  V30 4801 H 432.273 3.63034 4.43711 0
M  V30 4802 H 430.67 4.35771 4.12582 0
M  V30 4803 H 431.74 3.98536 2.76219 0
M  V30 4804 N 433.083 -1.0153 1.20538 0
M  V30 4805 C 433.993 -2.13557 0.971113 0
M  V30 4806 C 435.009 -1.73845 -0.0734366 0
M  V30 4807 O 436.185 -2.01075 0.114299 0
M  V30 4808 C 433.25 -3.42661 0.527639 0
M  V30 4809 C 432.311 -3.96608 1.64319 0
M  V30 4810 C 431.544 -5.1955 1.22078 0
M  V30 4811 O 431.767 -5.70329 0.0900198 0
M  V30 4812 O 430.701 -5.66681 2.02871 0
M  V30 4813 H 434.527 -2.3619 1.90913 0
M  V30 4814 H 432.112 -1.11946 0.989362 0
M  V30 4815 H 433.994 -4.20404 0.289621 0
M  V30 4816 H 432.669 -3.21441 -0.381779 0
M  V30 4817 H 431.576 -3.20139 1.93551 0
M  V30 4818 H 432.909 -4.22219 2.52966 0
M  V30 4819 N 434.561 -1.01147 -1.20859 0
M  V30 4820 C 435.786 -0.716698 -1.94623 0
M  V30 4821 C 436.211 0.715415 -1.73964 0
M  V30 4822 O 435.569 1.49157 -1.03062 0
M  V30 4823 C 435.617 -1.0513 -3.44935 0
M  V30 4824 O 434.721 -0.160131 -4.12089 0
M  V30 4825 H 434.062 -0.266404 -0.608214 0
M  V30 4826 H 436.592 -1.35346 -1.53436 0
M  V30 4827 H 436.602 -1.00086 -3.95533 0
M  V30 4828 H 435.277 -2.09475 -3.59295 0
M  V30 4829 H 433.854 -0.267657 -3.71938 0
M  V30 4830 N 436.039 1.36541 -0.78704 0
M  V30 4831 C 436.969 2.32659 -0.197992 0
M  V30 4832 C 437.95 1.56533 0.665697 0
M  V30 4833 O 439.135 1.84698 0.60001 0
M  V30 4834 C 436.265 3.40778 0.669901 0
M  V30 4835 C 435.219 4.27897 -0.0937039 0
M  V30 4836 C 434.545 5.27163 0.894629 0
M  V30 4837 C 435.845 5.06334 -1.28154 0
M  V30 4838 H 437.539 2.82171 -1.00099 0
M  V30 4839 H 435.085 1.35665 -0.482793 0
M  V30 4840 H 437.038 4.07008 1.09191 0
M  V30 4841 H 435.762 2.89827 1.50558 0
M  V30 4842 H 434.421 3.6322 -0.49666 0
M  V30 4843 H 434.069 4.72486 1.72527 0
M  V30 4844 H 433.769 5.86317 0.388149 0
M  V30 4845 H 435.293 5.96266 1.31525 0
M  V30 4846 H 436.707 5.65617 -0.93541 0
M  V30 4847 H 435.104 5.74888 -1.72115 0
M  V30 4848 H 436.174 4.38114 -2.07807 0
M  V30 4849 N 437.518 0.538854 1.48102 0
M  V30 4850 C 438.795 -0.0568108 1.95517 0
M  V30 4851 C 439.175 -1.50408 1.48124 0
M  V30 4852 O 438.523 -2.17133 0.711727 0
M  V30 4853 C 438.733 0.0696262 3.48931 0
M  V30 4854 C 440.081 -0.0851202 4.24515 0
M  V30 4855 O 441.105 -0.0037347 3.562 0
M  V30 4856 O 439.964 -0.257025 5.45895 0
M  V30 4857 H 437.058 -0.0743695 0.823649 0
M  V30 4858 H 439.604 0.604081 1.58584 0
M  V30 4859 H 438.376 1.07744 3.76174 0
M  V30 4860 H 437.999 -0.629714 3.92582 0
M  V30 4861 N 438.996 -1.55193 0.274407 0
M  V30 4862 C 440.224 -2.03987 -0.345943 0
M  V30 4863 C 440.639 -1.15279 -1.4952 0
M  V30 4864 O 439.996 -0.172759 -1.8168 0
M  V30 4865 C 440.047 -3.51898 -0.827631 0
M  V30 4866 O 439.768 -4.37231 0.275855 0
M  V30 4867 C 441.269 -4.16577 -1.51587 0
M  V30 4868 H 438.489 -0.666335 -0.0789892 0
M  V30 4869 H 441.033 -2.00423 0.406294 0
M  V30 4870 H 439.188 -3.55909 -1.52996 0
M  V30 4871 H 439.602 -5.24415 -0.0943638 0
M  V30 4872 H 441.076 -5.21678 -1.80433 0
M  V30 4873 H 441.553 -3.64707 -2.44716 0
M  V30 4874 H 442.159 -4.16568 -0.857409 0
M  V30 4875 N 440.474 -0.00167713 -1.576 0
M  V30 4876 C 441.699 0.69739 -1.95323 0
M  V30 4877 C 442.124 1.6642 -0.876706 0
M  V30 4878 O 441.482 1.80548 0.165007 0
M  V30 4879 C 441.53 1.40403 -3.32144 0
M  V30 4880 O 440.634 2.5185 -3.26566 0
M  V30 4881 H 439.975 0.185373 -0.637599 0
M  V30 4882 H 442.505 -0.0553665 -2.04525 0
M  V30 4883 H 442.515 1.76707 -3.67748 0
M  V30 4884 H 441.19 0.695167 -4.10049 0
M  V30 4885 H 439.767 2.17861 -3.0264 0
M  V30 4886 N 441.952 1.55251 0.271103 0
M  V30 4887 C 442.882 1.9127 1.33933 0
M  V30 4888 C 443.863 0.77478 1.5143 0
M  V30 4889 O 445.048 1.03307 1.64442 0
M  V30 4890 C 442.178 2.18627 2.69851 0
M  V30 4891 C 441.132 3.34442 2.67081 0
M  V30 4892 C 440.458 3.47284 4.06569 0
M  V30 4893 C 441.758 4.70784 2.26185 0
M  V30 4894 H 443.452 2.80744 1.04035 0
M  V30 4895 H 440.998 1.35077 0.499017 0
M  V30 4896 H 442.951 2.42413 3.44694 0
M  V30 4897 H 441.675 1.25955 3.01335 0
M  V30 4898 H 440.334 3.10627 1.94695 0
M  V30 4899 H 439.982 2.52074 4.35279 0
M  V30 4900 H 439.682 4.25152 4.0561 0
M  V30 4901 H 441.206 3.73363 4.83148 0
M  V30 4902 H 442.62 4.94102 2.90751 0
M  V30 4903 H 441.017 5.51582 2.36384 0
M  V30 4904 H 442.087 4.69478 1.21319 0
M  V30 4905 N 443.43 -0.535701 1.48216 0
M  V30 4906 C 444.677 -1.29183 1.55942 0
M  V30 4907 C 445.005 -1.93125 0.230857 0
M  V30 4908 O 444.26 -1.79556 -0.778331 0
M  V30 4909 C 444.559 -2.4068 2.64212 0
M  V30 4910 C 444.225 -1.94428 4.06827 0
M  V30 4911 C 442.887 -1.81532 4.45645 0
M  V30 4912 C 445.239 -1.59405 4.96225 0
M  V30 4913 C 442.567 -1.31939 5.71672 0
M  V30 4914 C 444.919 -1.11276 6.22736 0
M  V30 4915 C 443.583 -0.969924 6.60416 0
M  V30 4916 H 442.853 -0.472715 0.570632 0
M  V30 4917 H 445.5 -0.598437 1.81909 0
M  V30 4918 H 443.805 -3.15666 2.32083 0
M  V30 4919 H 445.502 -2.98822 2.67407 0
M  V30 4920 H 442.092 -2.05415 3.76168 0
M  V30 4921 H 446.276 -1.68231 4.66917 0
M  V30 4922 H 441.532 -1.19562 5.99596 0
M  V30 4923 H 445.706 -0.832453 6.91407 0
M  V30 4924 H 443.333 -0.583436 7.57958 0
M  V30 4925 N 444.908 -1.36708 -0.784132 0
M  V30 4926 C 445.871 -1.31307 -1.87859 0
M  V30 4927 C 446.871 -0.219654 -1.59293 0
M  V30 4928 O 448.061 -0.47476 -1.67606 0
M  V30 4929 C 445.193 -1.03679 -3.24751 0
M  V30 4930 H 446.386 -2.28647 -1.94064 0
M  V30 4931 H 443.939 -1.21558 -0.98252 0
M  V30 4932 H 444.674 -0.0681936 -3.24228 0
M  V30 4933 H 444.459 -1.82811 -3.46876 0
M  V30 4934 H 445.949 -1.02518 -4.04821 0
M  V30 4935 N 446.386 1.0089 -1.21074 0
M  V30 4936 C 447.333 2.09588 -0.966512 0
M  V30 4937 C 448.303 1.65761 0.106089 0
M  V30 4938 O 449.488 1.90758 -0.0402287 0
M  V30 4939 C 446.628 3.40958 -0.533058 0
M  V30 4940 C 445.741 3.9822 -1.67467 0
M  V30 4941 C 444.876 5.17682 -1.19076 0
M  V30 4942 C 443.915 5.67043 -2.30496 0
M  V30 4943 N 443.052 6.77759 -1.83267 0
M  V30 4944 H 447.892 2.29815 -1.89708 0
M  V30 4945 H 445.429 1.12689 -0.945489 0
M  V30 4946 H 447.387 4.1637 -0.263019 0
M  V30 4947 H 446.017 3.20781 0.360505 0
M  V30 4948 H 445.069 3.1983 -2.05944 0
M  V30 4949 H 446.381 4.3085 -2.51336 0
M  V30 4950 H 445.535 6.00326 -0.877151 0
M  V30 4951 H 444.274 4.86635 -0.322066 0
M  V30 4952 H 443.279 4.82999 -2.62664 0
M  V30 4953 H 444.504 6.00121 -3.17855 0
M  V30 4954 H 442.45 6.48527 -0.987356 0
M  V30 4955 H 442.367 7.09624 -2.60711 0
M  V30 4956 H 443.635 7.63949 -1.54928 0
M  V30 4957 N 447.864 1.01787 1.20321 0
M  V30 4958 C 448.812 0.58254 2.25187 0
M  V30 4959 C 449.806 -0.379359 1.65098 0
M  V30 4960 O 451.012 -0.249142 1.78267 0
M  V30 4961 H 447.387 0.170078 0.732514 0
M  V30 4962 H 449.358 1.47788 2.59232 0
M  V30 4963 C 448.107 -0.0620885 3.47645 0
M  V30 4964 H 447.43 0.669069 3.94162 0
M  V30 4965 H 448.87 -0.329784 4.22716 0
M  V30 4966 C 447.329 -1.3053 3.10586 0
M  V30 4967 O 447.859 -2.39848 3.22236 0
M  V30 4968 N 446.065 -1.18988 2.65123 0
M  V30 4969 H 445.612 -0.300341 2.55843 0
M  V30 4970 H 445.57 -2.02267 2.40698 0
M  V30 4971 N 449.342 -1.36122 0.79427 0
M  V30 4972 C 450.753 -1.81646 0.431446 0
M  V30 4973 C 451.104 -1.66043 -1.04518 0
M  V30 4974 O 450.229 -1.1841 -1.8113 0
M  V30 4975 C 450.824 -3.29785 0.776341 0
M  V30 4976 C 449.383 -3.73501 0.466282 0
M  V30 4977 C 448.53 -2.58313 1.00844 0
M  V30 4978 H 451.481 -1.24274 0.986995 0
M  V30 4979 H 451.502 -3.80437 0.0692413 0
M  V30 4980 H 451.014 -3.4111 1.8511 0
M  V30 4981 H 449.115 -3.67733 -0.600245 0
M  V30 4982 H 449.228 -4.68754 0.990288 0
M  V30 4983 H 447.592 -2.5102 0.431406 0
M  V30 4984 H 448.375 -2.72421 2.08906 0
M  V30 4985 N 450.82 -0.546701 -1.47814 0
M  V30 4986 C 451.767 0.206854 -2.29871 0
M  V30 4987 C 452.737 0.918235 -1.38411 0
M  V30 4988 O 453.922 0.915991 -1.67375 0
M  V30 4989 C 451.062 1.23746 -3.22151 0
M  V30 4990 C 450.175 0.533216 -4.28697 0
M  V30 4991 C 449.31 1.5482 -5.08138 0
M  V30 4992 C 448.349 0.828347 -6.06469 0
M  V30 4993 N 447.486 1.78966 -6.78908 0
M  V30 4994 H 452.326 -0.499037 -2.93792 0
M  V30 4995 H 449.863 -0.25793 -1.44821 0
M  V30 4996 H 451.821 1.84746 -3.74065 0
M  V30 4997 H 450.451 1.91151 -2.60117 0
M  V30 4998 H 449.503 -0.191089 -3.7992 0
M  V30 4999 H 450.815 -0.0311987 -4.9879 0
M  V30 5000 H 449.969 2.23202 -5.6415 0
M  V30 5001 H 448.708 2.14652 -4.37922 0
M  V30 5002 H 447.713 0.130539 -5.49645 0
M  V30 5003 H 448.938 0.235907 -6.7869 0
M  V30 5004 H 446.884 2.37675 -6.1143 0
M  V30 5005 H 446.801 1.27712 -7.45135 0
M  V30 5006 H 448.069 2.46496 -7.395 0
M  V30 5007 N 452.299 1.55045 -0.282633 0
M  V30 5008 C 453.524 2.04628 0.337977 0
M  V30 5009 C 453.949 1.15937 1.48123 0
M  V30 5010 O 453.307 0.159532 1.80597 0
M  V30 5011 C 453.355 3.51854 0.78936 0
M  V30 5012 O 452.459 3.66236 1.89592 0
M  V30 5013 H 451.8 0.660434 0.0687261 0
M  V30 5014 H 454.33 2.00261 -0.419124 0
M  V30 5015 H 454.34 3.93361 1.08311 0
M  V30 5016 H 453.015 4.15873 -0.0470419 0
M  V30 5017 H 451.592 3.36633 1.60413 0
M  V30 5018 N 453.777 0.010035 1.57597 0
M  V30 5019 C 454.724 -0.978122 2.09049 0
M  V30 5020 C 455.694 -1.33509 0.988159 0
M  V30 5021 O 456.879 -1.43172 1.26121 0
M  V30 5022 C 454.019 -2.26158 2.60666 0
M  V30 5023 C 453.132 -1.96275 3.84838 0
M  V30 5024 C 452.267 -3.18776 4.24918 0
M  V30 5025 C 451.306 -2.84625 5.41899 0
M  V30 5026 N 450.443 -3.99693 5.77226 0
M  V30 5027 H 455.283 -0.532431 2.93205 0
M  V30 5028 H 452.82 -0.251234 1.44939 0
M  V30 5029 H 454.778 -3.01202 2.88675 0
M  V30 5030 H 453.408 -2.68378 1.79369 0
M  V30 5031 H 452.46 -1.11555 3.63675 0
M  V30 5032 H 453.772 -1.67111 4.69974 0
M  V30 5033 H 452.926 -4.02157 4.54262 0
M  V30 5034 H 451.665 -3.51087 3.38511 0
M  V30 5035 H 450.67 -1.99653 5.12268 0
M  V30 5036 H 451.895 -2.53551 6.29991 0
M  V30 5037 H 449.841 -4.31882 4.93776 0
M  V30 5038 H 449.758 -3.74087 6.56959 0
M  V30 5039 H 451.026 -4.83834 6.11167 0
M  V30 5040 N 455.255 -1.55392 -0.262866 0
M  V30 5041 C 456.503 -1.76127 -0.991147 0
M  V30 5042 C 456.824 -0.571083 -1.8645 0
M  V30 5043 O 456.094 0.413698 -1.91482 0
M  V30 5044 H 454.674 -0.649528 -0.368948 0
M  V30 5045 H 457.336 -1.9281 -0.284655 0
M  V30 5046 H 456.432 -2.6663 -1.62219 0
M  V30 5047 N 456.733 0.527833 -1.48498 0
M  V30 5048 C 457.961 1.30823 -1.6029 0
M  V30 5049 C 458.376 1.86945 -0.263974 0
M  V30 5050 O 457.733 1.6651 0.747034 0
M  V30 5051 C 457.784 2.45756 -2.65116 0
M  V30 5052 O 457.505 1.91946 -3.93813 0
M  V30 5053 C 459.006 3.37543 -2.87367 0
M  V30 5054 H 456.226 0.397763 -0.540394 0
M  V30 5055 H 458.77 0.636529 -1.94341 0
M  V30 5056 H 456.925 3.08806 -2.33917 0
M  V30 5057 H 457.339 2.67195 -4.51339 0
M  V30 5058 H 458.813 4.14532 -3.6451 0
M  V30 5059 H 459.29 3.92905 -1.9627 0
M  V30 5060 H 459.896 2.80283 -3.19878 0
M  V30 5061 N 458.211 1.37122 0.776871 0
M  V30 5062 C 459.158 1.3247 1.88998 0
M  V30 5063 C 460.128 0.191143 1.64997 0
M  V30 5064 O 461.313 0.379683 1.86984 0
M  V30 5065 C 458.453 1.13241 3.25992 0
M  V30 5066 C 457.566 2.35782 3.61982 0
M  V30 5067 C 456.701 2.09465 4.88158 0
M  V30 5068 C 455.74 3.279 5.16864 0
M  V30 5069 N 454.877 3.01167 6.34226 0
M  V30 5070 H 459.717 2.27642 1.9231 0
M  V30 5071 H 457.254 1.13125 0.94027 0
M  V30 5072 H 459.212 1.00115 4.0501 0
M  V30 5073 H 457.842 0.217186 3.22069 0
M  V30 5074 H 456.894 2.59666 2.77989 0
M  V30 5075 H 458.206 3.24125 3.79137 0
M  V30 5076 H 457.36 1.93341 5.75069 0
M  V30 5077 H 456.099 1.18452 4.73097 0
M  V30 5078 H 455.104 3.44569 4.2843 0
M  V30 5079 H 456.329 4.19757 5.33836 0
M  V30 5080 H 454.275 2.12779 6.20533 0
M  V30 5081 H 454.192 3.83052 6.51772 0
M  V30 5082 H 455.46 2.88649 7.24087 0
M  V30 5083 N 459.689 -1.00246 1.21608 0
M  V30 5084 C 461.105 -1.26435 0.973975 0
M  V30 5085 C 461.305 -1.98642 -0.338143 0
M  V30 5086 O 460.361 -2.29026 -1.06317 0
M  V30 5087 C 461.674 -2.08551 2.16626 0
M  V30 5088 C 463.222 -2.21769 2.20879 0
M  V30 5089 C 463.697 -3.07267 3.39633 0
M  V30 5090 N 465.188 -3.14855 3.39736 0
M  V30 5091 C 465.923 -3.81274 4.28273 0
M  V30 5092 N 465.419 -4.497 5.27012 0
M  V30 5093 N 467.212 -3.7794 4.16074 0
M  V30 5094 H 459.363 -0.518089 2.05984 0
M  V30 5095 H 461.626 -0.291368 0.902113 0
M  V30 5096 H 461.332 -1.62847 3.11727 0
M  V30 5097 H 461.206 -3.09303 2.15897 0
M  V30 5098 H 463.593 -2.66691 1.26332 0
M  V30 5099 H 463.674 -1.20478 2.25652 0
M  V30 5100 H 463.318 -2.63047 4.34475 0
M  V30 5101 H 463.248 -4.08678 3.321 0
M  V30 5102 H 465.739 -2.66147 2.6828 0
M  V30 5103 H 466.052 -4.98092 5.90867 0
M  V30 5104 H 464.397 -4.48479 5.30935 0
M  V30 5105 H 467.588 -3.23638 3.38195 0
M  V30 5106 H 467.761 -4.29424 4.85282 0
M  V30 5107 N 461.167 -1.02423 -1.1978 0
M  V30 5108 C 462.444 -0.632802 -1.85081 0
M  V30 5109 C 462.824 0.888745 -1.9148 0
M  V30 5110 O 462.172 1.78357 -1.42832 0
M  V30 5111 C 462.382 -1.28947 -3.24305 0
M  V30 5112 C 463.73 -1.40976 -4.00513 0
M  V30 5113 O 464.754 -1.24628 -3.33686 0
M  V30 5114 O 463.613 -1.67467 -5.20209 0
M  V30 5115 H 460.707 -0.219348 -0.79738 0
M  V30 5116 H 463.253 -1.12209 -1.27307 0
M  V30 5117 H 462.025 -2.3288 -3.14456 0
M  V30 5118 H 461.648 -0.787748 -3.89718 0
M  V30 5119 N 462.645 1.35699 -0.801477 0
M  V30 5120 C 463.873 2.03157 -0.391768 0
M  V30 5121 C 464.288 1.60412 0.995668 0
M  V30 5122 O 463.645 0.799228 1.64069 0
M  V30 5123 C 463.696 3.58566 -0.459671 0
M  V30 5124 O 463.417 3.99756 -1.7924 0
M  V30 5125 C 464.918 4.4328 -0.0421205 0
M  V30 5126 H 462.138 0.651688 -0.159825 0
M  V30 5127 H 464.682 1.73426 -1.08368 0
M  V30 5128 H 462.837 3.86963 0.183939 0
M  V30 5129 H 463.251 4.94387 -1.75162 0
M  V30 5130 H 464.725 5.51821 -0.140754 0
M  V30 5131 H 465.202 4.27383 1.01196 0
M  V30 5132 H 465.808 4.20168 -0.658687 0
M  V30 5133 N 464.123 0.554532 1.47522 0
M  V30 5134 C 465.033 -0.197865 2.33764 0
M  V30 5135 C 466.049 -0.914576 1.48025 0
M  V30 5136 O 467.225 -0.884067 1.80959 0
M  V30 5137 C 464.29 -1.21628 3.24665 0
M  V30 5138 C 463.351 -0.507283 4.26292 0
M  V30 5139 C 462.584 -1.47718 5.1285 0
M  V30 5140 O 462.807 -2.7118 5.01814 0
M  V30 5141 O 461.741 -1.00313 5.93482 0
M  V30 5142 H 465.567 0.50949 2.99396 0
M  V30 5143 H 463.152 0.315176 1.46038 0
M  V30 5144 H 465.034 -1.80421 3.80823 0
M  V30 5145 H 463.709 -1.9056 2.61665 0
M  V30 5146 H 462.616 0.121778 3.73902 0
M  V30 5147 H 463.949 0.140544 4.91999 0
M  V30 5148 N 465.601 -1.54893 0.290851 0
M  V30 5149 C 467.017 -1.59476 -0.0628432 0
M  V30 5150 C 467.217 -1.30795 -1.5328 0
M  V30 5151 O 466.273 -1.07644 -2.28406 0
M  V30 5152 C 467.586 -2.98928 0.325962 0
M  V30 5153 C 469.134 -3.11799 0.273882 0
M  V30 5154 C 469.609 -4.53544 0.637359 0
M  V30 5155 N 471.1 -4.59433 0.589507 0
M  V30 5156 C 471.835 -5.67164 0.84335 0
M  V30 5157 N 471.331 -6.82975 1.16263 0
M  V30 5158 N 473.124 -5.56786 0.771091 0
M  V30 5159 H 465.275 -1.71798 1.24896 0
M  V30 5160 H 467.538 -0.801879 0.505663 0
M  V30 5161 H 467.244 -3.24805 1.34887 0
M  V30 5162 H 467.118 -3.75793 -0.325441 0
M  V30 5163 H 469.505 -2.85677 -0.739765 0
M  V30 5164 H 469.586 -2.37112 0.959766 0
M  V30 5165 H 469.23 -4.80394 1.64877 0
M  V30 5166 H 469.16 -5.26553 -0.0704866 0
M  V30 5167 H 471.651 -3.76245 0.353252 0
M  V30 5168 H 471.964 -7.61048 1.34257 0
M  V30 5169 H 470.309 -6.84552 1.20057 0
M  V30 5170 H 473.5 -4.65187 0.521383 0
M  V30 5171 H 473.673 -6.40664 0.972295 0
M  V30 5172 N 467.08 -0.0183926 -1.57589 0
M  V30 5173 C 468.028 0.985111 -2.10709 0
M  V30 5174 C 469.022 1.34397 -1.0312 0
M  V30 5175 O 470.228 1.32746 -1.21567 0
M  V30 5176 H 466.603 0.335418 -0.673052 0
M  V30 5177 H 468.574 0.511689 -2.9398 0
M  V30 5178 C 467.323 2.26202 -2.64061 0
M  V30 5179 H 466.646 1.9946 -3.4649 0
M  V30 5180 H 468.086 2.94652 -3.04887 0
M  V30 5181 C 466.545 2.98444 -1.5631 0
M  V30 5182 O 467.075 3.90142 -0.956674 0
M  V30 5183 N 465.281 2.6059 -1.28612 0
M  V30 5184 H 464.828 1.86101 -1.78112 0
M  V30 5185 H 464.786 3.09238 -0.567406 0
M  V30 5186 N 468.558 1.5553 0.254621 0
M  V30 5187 C 469.505 1.89666 1.31512 0
M  V30 5188 C 470.475 0.750057 1.482 0
M  V30 5189 O 471.66 1.00301 1.62309 0
M  V30 5190 C 468.8 2.19009 2.667 0
M  V30 5191 C 467.913 3.46435 2.58083 0
M  V30 5192 C 467.048 3.65386 3.85573 0
M  V30 5193 C 466.087 4.8644 3.71541 0
M  V30 5194 N 465.224 5.01952 4.90906 0
M  V30 5195 H 470.064 2.80109 1.017 0
M  V30 5196 H 467.601 1.38666 0.490938 0
M  V30 5197 H 469.559 2.34025 3.45381 0
M  V30 5198 H 468.189 1.31779 2.94676 0
M  V30 5199 H 467.241 3.39792 1.71013 0
M  V30 5200 H 468.553 4.35258 2.43622 0
M  V30 5201 H 467.707 3.80319 4.72697 0
M  V30 5202 H 466.446 2.74781 4.02922 0
M  V30 5203 H 465.451 4.71491 2.82801 0
M  V30 5204 H 466.676 5.78497 3.55694 0
M  V30 5205 H 464.622 4.14283 5.08631 0
M  V30 5206 H 464.539 5.84851 4.79046 0
M  V30 5207 H 465.807 5.21289 5.7955 0
M  V30 5208 N 470.036 -0.519951 1.48776 0
M  V30 5209 C 471.313 -1.28123 1.47797 0
M  V30 5210 C 471.693 -2.10196 0.195157 0
M  V30 5211 O 471.041 -2.13167 -0.822925 0
M  V30 5212 C 471.251 -2.15413 2.74587 0
M  V30 5213 C 472.599 -2.75225 3.23321 0
M  V30 5214 O 473.623 -2.25694 2.75574 0
M  V30 5215 O 472.482 -3.65346 4.06429 0
M  V30 5216 H 469.576 -0.578793 0.590701 0
M  V30 5217 H 472.122 -0.535779 1.6102 0
M  V30 5218 H 470.894 -1.54617 3.59457 0
M  V30 5219 H 470.517 -2.97186 2.64132 0
M  V30 5220 N 471.514 -1.37532 -0.769588 0
M  V30 5221 C 472.763 -1.32183 -1.5235 0
M  V30 5222 C 473.076 0.0906555 -1.9539 0
M  V30 5223 O 474.282 0.266628 -2.70188 0
M  V30 5224 C 472.738 -2.32029 -2.75119 0
M  V30 5225 C 472.346 -3.78816 -2.3917 0
M  V30 5226 C 474.09 -2.35694 -3.53056 0
M  V30 5227 C 471.997 -4.70388 -3.58453 0
M  V30 5228 H 470.927 -0.491275 -0.571984 0
M  V30 5229 H 473.578 -1.63004 -0.842739 0
M  V30 5230 H 471.96 -1.94229 -3.45096 0
M  V30 5231 H 473.134 -4.25466 -1.76962 0
M  V30 5232 H 471.449 -3.78117 -1.74402 0
M  V30 5233 H 474.046 -3.01312 -4.41718 0
M  V30 5234 H 474.389 -1.37117 -3.93071 0
M  V30 5235 H 474.922 -2.72212 -2.90078 0
M  V30 5236 H 471.661 -5.70102 -3.23518 0
M  V30 5237 H 471.181 -4.28442 -4.19758 0
M  V30 5238 H 472.86 -4.87628 -4.25239 0
M  V30 5239 N 472.992 0.995999 -1.22138 0
M  V30 5240 C 473.955 2.06711 -0.990109 0
M  V30 5241 C 474.955 1.60744 0.0422978 0
M  V30 5242 O 476.145 1.73095 -0.195895 0
M  V30 5243 C 473.277 3.37288 -0.49491 0
M  V30 5244 H 474.47 2.28661 -1.94047 0
M  V30 5245 H 472.023 1.16711 -1.03963 0
M  V30 5246 H 472.758 3.21022 0.459948 0
M  V30 5247 H 472.543 3.71986 -1.23971 0
M  V30 5248 H 474.033 4.16103 -0.353253 0
M  V30 5249 N 474.47 1.03057 1.19235 0
M  V30 5250 C 475.717 0.728019 1.88961 0
M  V30 5251 C 476.045 -0.743515 1.79728 0
M  V30 5252 O 475.3 -1.55729 1.1852 0
M  V30 5253 C 475.599 1.1268 3.39172 0
M  V30 5254 C 475.265 2.5969 3.68608 0
M  V30 5255 C 473.927 2.99854 3.76352 0
M  V30 5256 C 476.279 3.54793 3.81801 0
M  V30 5257 C 473.607 4.34031 3.94758 0
M  V30 5258 C 475.959 4.88675 4.0172 0
M  V30 5259 C 474.623 5.28526 4.07697 0
M  V30 5260 H 473.893 0.266401 0.691456 0
M  V30 5261 H 476.54 1.29373 1.41191 0
M  V30 5262 H 474.845 0.479722 3.88852 0
M  V30 5263 H 476.542 0.870203 3.91444 0
M  V30 5264 H 473.132 2.27575 3.63191 0
M  V30 5265 H 477.316 3.24914 3.7516 0
M  V30 5266 H 472.572 4.6444 3.97625 0
M  V30 5267 H 476.746 5.6228 4.1087 0
M  V30 5268 H 474.373 6.32506 4.21712 0
M  V30 5269 N 475.948 -1.35272 0.808662 0
M  V30 5270 C 476.878 -2.32315 0.234981 0
M  V30 5271 C 477.859 -1.57572 -0.64071 0
M  V30 5272 O 479.044 -1.8563 -0.570551 0
M  V30 5273 C 476.174 -3.41801 -0.615601 0
M  V30 5274 C 475.128 -4.27694 0.161767 0
M  V30 5275 C 474.454 -5.28519 -0.810649 0
M  V30 5276 C 475.754 -5.04231 1.36193 0
M  V30 5277 H 477.448 -2.80543 1.04575 0
M  V30 5278 H 474.994 -1.3488 0.504315 0
M  V30 5279 H 476.947 -4.08693 -1.02702 0
M  V30 5280 H 475.671 -2.92186 -1.45928 0
M  V30 5281 H 474.33 -3.62384 0.554382 0
M  V30 5282 H 473.978 -4.75171 -1.64988 0
M  V30 5283 H 473.678 -5.8686 -0.294822 0
M  V30 5284 H 475.202 -5.98283 -1.22023 0
M  V30 5285 H 476.616 -5.64058 1.02528 0
M  V30 5286 H 475.013 -5.72077 1.81239 0
M  V30 5287 H 476.083 -4.34753 2.14751 0
M  V30 5288 N 477.426 -0.562348 -1.47226 0
M  V30 5289 C 478.336 0.185466 -2.33866 0
M  V30 5290 C 479.352 0.906713 -1.48508 0
M  V30 5291 O 480.528 0.874458 -1.81425 0
M  V30 5292 C 477.593 1.19904 -3.25306 0
M  V30 5293 C 476.654 0.484669 -4.26555 0
M  V30 5294 C 475.887 1.44996 -5.13626 0
M  V30 5295 O 476.11 2.68515 -5.03245 0
M  V30 5296 O 475.044 0.971642 -5.94006 0
M  V30 5297 H 478.87 -0.525361 -2.99121 0
M  V30 5298 H 476.455 -0.322916 -1.45868 0
M  V30 5299 H 478.337 1.78399 -3.81774 0
M  V30 5300 H 477.012 1.8917 -2.62672 0
M  V30 5301 H 475.919 -0.141605 -3.73832 0
M  V30 5302 H 477.252 -0.166634 -4.91918 0
M  V30 5303 N 478.904 1.54736 -0.299062 0
M  V30 5304 C 479.867 2.22127 0.565012 0
M  V30 5305 C 480.867 1.20669 1.06281 0
M  V30 5306 O 482.057 1.45417 0.959145 0
M  V30 5307 C 479.189 2.90611 1.78208 0
M  V30 5308 H 480.382 2.99891 -0.0237448 0
M  V30 5309 H 477.935 1.5622 -0.0498788 0
M  V30 5310 H 478.67 2.16921 2.41072 0
M  V30 5311 H 478.455 3.64984 1.43281 0
M  V30 5312 H 479.945 3.42026 2.396 0
M  V30 5313 N 480.382 0.0267497 1.57577 0
M  V30 5314 C 481.314 -0.984594 2.06974 0
M  V30 5315 C 482.327 -1.29032 0.992705 0
M  V30 5316 O 483.516 -1.25539 1.26895 0
M  V30 5317 C 480.616 -2.31262 2.47732 0
M  V30 5318 C 479.789 -2.1924 3.78487 0
M  V30 5319 C 478.848 -3.34956 4.05821 0
M  V30 5320 O 477.874 -3.11948 4.76106 0
M  V30 5321 N 479.076 -4.58672 3.55809 0
M  V30 5322 H 481.841 -0.563143 2.94362 0
M  V30 5323 H 479.402 -0.160061 1.61107 0
M  V30 5324 H 481.394 -3.07496 2.63112 0
M  V30 5325 H 479.964 -2.65056 1.65723 0
M  V30 5326 H 479.184 -1.27747 3.72927 0
M  V30 5327 H 480.472 -2.08409 4.64158 0
M  V30 5328 H 479.87 -4.8026 2.98942 0
M  V30 5329 H 478.427 -5.32083 3.76472 0
M  V30 5330 N 481.861 -1.55662 -0.24637 0
M  V30 5331 C 483.11 -1.7672 -0.972254 0
M  V30 5332 C 483.423 -0.59078 -1.86465 0
M  V30 5333 O 484.629 -0.684391 -2.62732 0
M  V30 5334 C 483.085 -3.12869 -1.7788 0
M  V30 5335 C 482.693 -4.38161 -0.933768 0
M  V30 5336 C 484.437 -3.43265 -2.49738 0
M  V30 5337 C 482.344 -5.6534 -1.73623 0
M  V30 5338 H 481.274 -0.658795 -0.366749 0
M  V30 5339 H 483.925 -1.82092 -0.226902 0
M  V30 5340 H 482.307 -3.01606 -2.56612 0
M  V30 5341 H 483.481 -4.60413 -0.188736 0
M  V30 5342 H 481.796 -4.15102 -0.328488 0
M  V30 5343 H 484.393 -4.35501 -3.10231 0
M  V30 5344 H 484.736 -2.64614 -3.2138 0
M  V30 5345 H 485.269 -3.55746 -1.78016 0
M  V30 5346 H 482.008 -6.46814 -1.06354 0
M  V30 5347 H 481.528 -5.47188 -2.45653 0
M  V30 5348 H 483.207 -6.04616 -2.30323 0
M  V30 5349 N 483.339 0.512053 -1.4905 0
M  V30 5350 C 484.569 1.28928 -1.61434 0
M  V30 5351 C 484.977 1.87107 -0.280647 0
M  V30 5352 O 484.32 1.68024 0.742537 0
M  V30 5353 C 484.382 2.466 -2.61588 0
M  V30 5354 C 484.046 2.09375 -4.06216 0
M  V30 5355 C 485.043 1.63994 -4.93358 0
M  V30 5356 C 482.728 2.19348 -4.51876 0
M  V30 5357 C 484.722 1.29076 -6.24194 0
M  V30 5358 C 482.409 1.84041 -5.82728 0
M  V30 5359 C 483.407 1.38978 -6.68711 0
M  V30 5360 O 483.095 1.04144 -7.97126 0
M  V30 5361 H 482.827 0.397668 -0.546659 0
M  V30 5362 H 485.381 0.622507 -1.9574 0
M  V30 5363 H 483.611 3.16318 -2.22441 0
M  V30 5364 H 485.3 3.08642 -2.63619 0
M  V30 5365 H 486.066 1.55744 -4.59313 0
M  V30 5366 H 481.945 2.53376 -3.85125 0
M  V30 5367 H 485.489 0.938303 -6.91261 0
M  V30 5368 H 481.386 1.91938 -6.16304 0
M  V30 5369 H 482.154 1.17387 -8.10039 0
M  V30 5370 N 484.817 1.37938 0.762283 0
M  V30 5371 C 485.727 1.36681 1.90671 0
M  V30 5372 C 486.743 0.265078 1.71969 0
M  V30 5373 O 487.919 0.502055 1.95042 0
M  V30 5374 C 484.984 1.18211 3.25925 0
M  V30 5375 C 484.045 2.3811 3.57214 0
M  V30 5376 C 483.278 2.20512 4.86014 0
M  V30 5377 O 483.501 1.19429 5.57757 0
M  V30 5378 O 482.435 3.08911 5.16583 0
M  V30 5379 H 486.261 2.33091 1.94685 0
M  V30 5380 H 483.846 1.18767 0.906356 0
M  V30 5381 H 485.728 1.09937 4.06807 0
M  V30 5382 H 484.403 0.248807 3.22742 0
M  V30 5383 H 483.31 2.51958 2.76529 0
M  V30 5384 H 484.643 3.30041 3.65149 0
M  V30 5385 N 486.295 -0.989507 1.22664 0
M  V30 5386 C 487.525 -1.7624 1.0781 0
M  V30 5387 C 487.933 -1.85466 -0.374036 0
M  V30 5388 O 487.276 -1.32645 -1.27087 0
M  V30 5389 C 487.338 -3.21007 1.61849 0
M  V30 5390 C 487.002 -3.35316 3.10503 0
M  V30 5391 C 487.999 -3.22362 4.07896 0
M  V30 5392 C 485.684 -3.60258 3.50028 0
M  V30 5393 C 487.678 -3.34139 5.42798 0
M  V30 5394 C 485.365 -3.71676 4.85078 0
M  V30 5395 C 486.363 -3.58625 5.81272 0
M  V30 5396 O 486.051 -3.69655 7.1387 0
M  V30 5397 H 485.783 -0.560209 0.378341 0
M  V30 5398 H 488.337 -1.25252 1.62792 0
M  V30 5399 H 486.567 -3.73202 1.01279 0
M  V30 5400 H 488.256 -3.80024 1.42606 0
M  V30 5401 H 489.022 -3.03 3.78703 0
M  V30 5402 H 484.901 -3.69492 2.75675 0
M  V30 5403 H 488.445 -3.23869 6.17863 0
M  V30 5404 H 484.342 -3.90545 5.1395 0
M  V30 5405 H 485.11 -3.86507 7.21495 0
M  V30 5406 N 487.773 -1.03688 -1.18687 0
M  V30 5407 C 489.019 -0.739123 -1.88851 0
M  V30 5408 C 489.352 0.731042 -1.79915 0
M  V30 5409 O 488.627 1.53313 -1.19688 0
M  V30 5410 C 488.91 -1.20106 -3.3948 0
M  V30 5411 C 488.763 -2.73304 -3.57246 0
M  V30 5412 C 490.082 -0.788134 -4.32986 0
M  V30 5413 H 487.201 -0.269978 -0.68577 0
M  V30 5414 H 489.843 -1.28822 -1.3966 0
M  V30 5415 H 487.993 -0.733915 -3.81505 0
M  V30 5416 H 489.665 -3.28027 -3.24339 0
M  V30 5417 H 487.908 -3.13313 -3.00029 0
M  V30 5418 H 488.579 -3.00684 -4.62918 0
M  V30 5419 H 491.055 -1.19005 -3.98719 0
M  V30 5420 H 489.931 -1.13915 -5.36949 0
M  V30 5421 H 490.192 0.308988 -4.41019 0
M  V30 5422 N 489.251 1.34841 -0.815825 0
M  V30 5423 C 490.161 2.33425 -0.234462 0
M  V30 5424 C 491.177 1.62295 0.627413 0
M  V30 5425 O 492.353 1.94109 0.536987 0
M  V30 5426 C 489.418 3.41471 0.599849 0
M  V30 5427 C 488.479 4.28362 -0.283596 0
M  V30 5428 C 487.712 5.31248 0.51099 0
M  V30 5429 O 487.935 5.43056 1.7449 0
M  V30 5430 O 486.869 6.01812 -0.10297 0
M  V30 5431 H 490.695 2.84962 -1.05024 0
M  V30 5432 H 488.28 1.37774 -0.577809 0
M  V30 5433 H 490.162 4.07464 1.07475 0
M  V30 5434 H 488.837 2.9219 1.39308 0
M  V30 5435 H 487.744 3.65318 -0.805836 0
M  V30 5436 H 489.077 4.81066 -1.041 0
M  V30 5437 N 490.729 0.570148 1.46925 0
M  V30 5438 C 491.978 0.0487352 2.01641 0
M  V30 5439 C 492.291 -1.31433 1.44861 0
M  V30 5440 O 493.497 -1.92638 1.91318 0
M  V30 5441 C 491.953 0.0365817 3.59881 0
M  V30 5442 C 491.561 1.39719 4.25655 0
M  V30 5443 C 493.305 -0.431545 4.22301 0
M  V30 5444 C 491.212 1.34345 5.75939 0
M  V30 5445 H 490.142 0.0144492 0.753862 0
M  V30 5446 H 492.793 0.719928 1.68788 0
M  V30 5447 H 491.175 -0.700522 3.89755 0
M  V30 5448 H 492.349 2.15303 4.07408 0
M  V30 5449 H 490.664 1.80431 3.75278 0
M  V30 5450 H 493.261 -0.490354 5.32447 0
M  V30 5451 H 493.604 -1.44638 3.90366 0
M  V30 5452 H 494.137 0.251102 3.97007 0
M  V30 5453 H 490.876 2.33469 6.12513 0
M  V30 5454 H 490.396 0.629615 5.96486 0
M  V30 5455 H 492.075 1.051 6.38407 0
M  V30 5456 N 492.207 -1.54576 0.307264 0
M  V30 5457 C 493.137 -2.26708 -0.55907 0
M  V30 5458 C 494.118 -1.26893 -1.1328 0
M  V30 5459 O 495.303 -1.55677 -1.16097 0
M  V30 5460 C 492.433 -3.01259 -1.72801 0
M  V30 5461 C 491.387 -4.08275 -1.28435 0
M  V30 5462 C 490.713 -4.70575 -2.53895 0
M  V30 5463 C 492.013 -5.2068 -0.411038 0
M  V30 5464 H 493.707 -2.9937 0.042576 0
M  V30 5465 H 491.253 -1.43983 0.0219173 0
M  V30 5466 H 493.206 -3.50444 -2.34023 0
M  V30 5467 H 491.93 -2.26187 -2.356 0
M  V30 5468 H 490.589 -3.59949 -0.695161 0
M  V30 5469 H 490.237 -3.92136 -3.15021 0
M  V30 5470 H 489.937 -5.42854 -2.24908 0
M  V30 5471 H 491.461 -5.22527 -3.15908 0
M  V30 5472 H 492.875 -5.65721 -0.929097 0
M  V30 5473 H 491.272 -5.99716 -0.214664 0
M  V30 5474 H 492.342 -4.81629 0.562287 0
M  V30 5475 N 493.685 -0.035106 -1.57561 0
M  V30 5476 C 494.933 0.64096 -1.91667 0
M  V30 5477 C 495.254 1.72323 -0.912681 0
M  V30 5478 O 494.524 1.95849 0.0449089 0
M  V30 5479 H 493.104 0.239743 -0.707483 0
M  V30 5480 H 495.766 -0.084321 -1.94718 0
M  V30 5481 H 494.862 1.08987 -2.92452 0
M  V30 5482 N 495.163 1.55791 0.238111 0
M  V30 5483 C 496.073 1.94196 1.31625 0
M  V30 5484 C 497.089 0.843545 1.52185 0
M  V30 5485 O 498.265 1.1457 1.65637 0
M  V30 5486 C 495.33 2.2365 2.64918 0
M  V30 5487 C 494.391 3.46971 2.52804 0
M  V30 5488 C 493.624 3.7501 3.79741 0
M  V30 5489 O 493.847 3.04982 4.82019 0
M  V30 5490 O 492.781 4.68525 3.77846 0
M  V30 5491 H 496.607 2.86044 1.02043 0
M  V30 5492 H 494.192 1.42786 0.439603 0
M  V30 5493 H 496.074 2.43863 3.4367 0
M  V30 5494 H 494.749 1.34979 2.94215 0
M  V30 5495 H 493.656 3.32055 1.72309 0
M  V30 5496 H 494.989 4.35971 2.28451 0
M  V30 5497 N 496.642 -0.504142 1.49319 0
M  V30 5498 C 497.574 -1.62265 1.61872 0
M  V30 5499 C 498.587 -1.54881 0.501573 0
M  V30 5500 O 499.776 -1.6087 0.773497 0
M  V30 5501 C 496.876 -3.01042 1.55651 0
M  V30 5502 C 496.049 -3.33642 2.82845 0
M  V30 5503 C 495.108 -4.51816 2.69719 0
M  V30 5504 O 494.134 -4.53755 3.4365 0
M  V30 5505 N 495.336 -5.51543 1.81055 0
M  V30 5506 H 498.101 -1.51924 2.58339 0
M  V30 5507 H 495.662 -0.691954 1.46368 0
M  V30 5508 H 497.654 -3.78013 1.44528 0
M  V30 5509 H 496.224 -3.05323 0.670546 0
M  V30 5510 H 495.444 -2.45598 3.08343 0
M  V30 5511 H 496.732 -3.5222 3.67177 0
M  V30 5512 H 496.13 -5.52774 1.20241 0
M  V30 5513 H 494.687 -6.27629 1.75856 0
M  V30 5514 N 498.12 -1.38341 -0.754957 0
M  V30 5515 C 499.536 -1.19508 -1.05783 0
M  V30 5516 C 499.736 -0.0428005 -2.01455 0
M  V30 5517 O 498.792 0.611861 -2.44975 0
M  V30 5518 C 500.105 -2.52091 -1.63923 0
M  V30 5519 C 501.653 -2.58762 -1.76101 0
M  V30 5520 C 502.128 -3.91517 -2.37652 0
M  V30 5521 N 503.619 -3.93049 -2.45085 0
M  V30 5522 C 504.354 -4.9253 -2.93602 0
M  V30 5523 N 503.85 -6.02408 -3.42165 0
M  V30 5524 N 505.643 -4.79921 -2.92629 0
M  V30 5525 H 497.794 -2.1206 -0.120056 0
M  V30 5526 H 500.057 -0.94089 -0.11589 0
M  V30 5527 H 499.763 -3.36858 -1.01093 0
M  V30 5528 H 499.637 -2.70388 -2.63003 0
M  V30 5529 H 502.024 -1.74391 -2.38058 0
M  V30 5530 H 502.105 -2.44333 -0.757294 0
M  V30 5531 H 501.749 -4.76309 -1.76329 0
M  V30 5532 H 501.679 -4.03256 -3.38662 0
M  V30 5533 H 504.17 -3.13685 -2.10736 0
M  V30 5534 H 504.483 -6.74248 -3.77637 0
M  V30 5535 H 502.828 -6.0603 -3.40225 0
M  V30 5536 H 506.019 -3.93194 -2.54001 0
M  V30 5537 H 506.192 -5.57601 -3.30128 0
M  V30 5538 N 499.598 0.982988 -1.23187 0
M  V30 5539 C 500.548 2.05962 -0.977942 0
M  V30 5540 C 501.532 1.60725 0.0751148 0
M  V30 5541 O 502.724 1.76471 -0.136683 0
M  V30 5542 C 499.853 3.38564 -0.568276 0
M  V30 5543 C 498.939 3.90407 -1.6566 0
M  V30 5544 N 499.33 4.15359 -2.88635 0
M  V30 5545 C 497.628 4.18915 -1.53058 0
M  V30 5546 C 498.329 4.57642 -3.5908 0
M  V30 5547 N 497.305 4.6192 -2.86584 0
M  V30 5548 H 501.107 2.23208 -1.91195 0
M  V30 5549 H 498.621 1.16555 -1.13087 0
M  V30 5550 H 500.618 4.15276 -0.36764 0
M  V30 5551 H 499.278 3.22712 0.358713 0
M  V30 5552 H 500.289 4.03258 -3.24966 0
M  V30 5553 H 496.966 4.12081 -0.670506 0
M  V30 5554 H 498.356 4.85488 -4.6449 0
M  V30 5555 N 501.076 1.04316 1.18135 0
M  V30 5556 C 502.006 0.657299 2.24058 0
M  V30 5557 C 502.987 -0.340678 1.66654 0
M  V30 5558 O 504.172 -0.220223 1.92947 0
M  V30 5559 C 501.302 0.0220715 3.47293 0
M  V30 5560 C 500.256 0.943857 4.17463 0
M  V30 5561 C 499.582 0.172973 5.3442 0
M  V30 5562 C 500.882 2.26409 4.70677 0
M  V30 5563 H 502.576 1.5428 2.56589 0
M  V30 5564 H 500.122 0.743263 1.23335 0
M  V30 5565 H 502.075 -0.259607 4.206 0
M  V30 5566 H 500.799 -0.898323 3.14003 0
M  V30 5567 H 499.458 1.20996 3.46057 0
M  V30 5568 H 499.106 -0.749907 4.97379 0
M  V30 5569 H 498.806 0.787098 5.82304 0
M  V30 5570 H 500.33 -0.101628 6.10515 0
M  V30 5571 H 501.744 2.04294 5.35665 0
M  V30 5572 H 500.141 2.8314 5.29105 0
M  V30 5573 H 501.211 2.90883 3.87962 0
M  V30 5574 N 502.554 -1.34406 0.822964 0
M  V30 5575 C 503.782 -2.02508 0.424039 0
M  V30 5576 C 504.197 -1.61975 -0.970022 0
M  V30 5577 O 503.554 -0.825228 -1.62777 0
M  V30 5578 C 503.605 -3.57789 0.516657 0
M  V30 5579 O 503.326 -3.96853 1.85577 0
M  V30 5580 C 504.827 -4.43157 0.112637 0
M  V30 5581 H 502.047 -0.649063 0.170173 0
M  V30 5582 H 504.591 -1.7168 1.11113 0
M  V30 5583 H 502.746 -3.87207 -0.122353 0
M  V30 5584 H 503.16 -4.91538 1.83005 0
M  V30 5585 H 504.634 -5.51527 0.228526 0
M  V30 5586 H 505.111 -4.28939 -0.943837 0
M  V30 5587 H 505.717 -4.19067 0.725449 0
M  V30 5588 N 504.032 -0.577932 -1.46621 0
M  V30 5589 C 504.982 0.178869 -2.27297 0
M  V30 5590 C 505.966 0.866279 -1.35589 0
M  V30 5591 O 507.158 0.761163 -1.59798 0
M  V30 5592 C 504.287 1.19499 -3.2183 0
M  V30 5593 C 503.373 0.50994 -4.21023 0
M  V30 5594 N 503.764 -0.43177 -5.03954 0
M  V30 5595 C 502.062 0.761287 -4.39455 0
M  V30 5596 C 502.763 -0.831693 -5.75724 0
M  V30 5597 N 501.739 -0.181897 -5.43296 0
M  V30 5598 H 505.541 -0.544859 -2.88805 0
M  V30 5599 H 503.055 -0.399373 -1.57413 0
M  V30 5600 H 505.052 1.75131 -3.78332 0
M  V30 5601 H 503.712 1.91959 -2.61881 0
M  V30 5602 H 504.723 -0.807045 -5.11573 0
M  V30 5603 H 501.4 1.47282 -3.90659 0
M  V30 5604 H 502.79 -1.6067 -6.52407 0
M  V30 5605 N 505.51 1.54411 -0.315457 0
M  V30 5606 C 506.42 2.27737 0.56329 0
M  V30 5607 C 507.436 1.31787 1.13614 0
M  V30 5608 O 508.612 1.64791 1.15784 0
M  V30 5609 C 505.677 3.01478 1.71207 0
M  V30 5610 C 504.738 4.12997 1.17185 0
M  V30 5611 C 503.971 4.83212 2.26588 0
M  V30 5612 O 504.194 4.52884 3.46775 0
M  V30 5613 O 503.128 5.70299 1.92463 0
M  V30 5614 H 506.954 3.03683 -0.0319614 0
M  V30 5615 H 504.539 1.49178 -0.0814188 0
M  V30 5616 H 506.421 3.47683 2.38106 0
M  V30 5617 H 505.096 2.28414 2.29366 0
M  V30 5618 H 504.003 3.71159 0.468174 0
M  V30 5619 H 505.336 4.8808 0.635501 0
M  V30 5620 N 506.988 0.0434614 1.5754 0
M  V30 5621 C 507.936 -0.951465 2.1225 0
M  V30 5622 C 508.93 -1.3274 1.05245 0
M  V30 5623 O 510.136 -1.30795 1.23663 0
M  V30 5624 H 506.511 -0.324667 0.678303 0
M  V30 5625 H 508.482 -0.464855 2.94757 0
M  V30 5626 C 507.231 -2.21972 2.67626 0
M  V30 5627 H 506.554 -1.93923 3.4962 0
M  V30 5628 H 507.994 -2.89765 3.09536 0
M  V30 5629 C 506.453 -2.95919 1.61038 0
M  V30 5630 O 506.983 -3.8857 1.01862 0
M  V30 5631 N 505.189 -2.58511 1.32741 0
M  V30 5632 H 504.736 -1.83244 1.81051 0
M  V30 5633 H 504.694 -3.08296 0.616531 0
M  V30 5634 N 508.466 -1.55915 -0.229846 0
M  V30 5635 C 509.712 -1.78807 -0.956868 0
M  V30 5636 C 510.045 -0.611687 -1.84315 0
M  V30 5637 O 509.32 0.389398 -1.90562 0
M  V30 5638 C 509.603 -3.11718 -1.80288 0
M  V30 5639 C 509.456 -4.3979 -0.943649 0
M  V30 5640 C 510.775 -3.40999 -2.78222 0
M  V30 5641 H 507.894 -0.6505 -0.346437 0
M  V30 5642 H 510.536 -1.88648 -0.226252 0
M  V30 5643 H 508.686 -3.03459 -2.42579 0
M  V30 5644 H 510.358 -4.60059 -0.338121 0
M  V30 5645 H 508.601 -4.33086 -0.248705 0
M  V30 5646 H 509.272 -5.29208 -1.5698 0
M  V30 5647 H 511.748 -3.49332 -2.26067 0
M  V30 5648 H 510.624 -4.35183 -3.34526 0
M  V30 5649 H 510.885 -2.62754 -3.55546 0
M  V30 5650 N 509.944 0.496216 -1.49584 0
M  V30 5651 C 510.876 1.61404 -1.62731 0
M  V30 5652 C 511.889 1.54613 -0.50978 0
M  V30 5653 O 513.078 1.60458 -0.782017 0
M  V30 5654 C 510.178 3.00212 -1.57245 0
M  V30 5655 C 509.351 3.32138 -2.84611 0
M  V30 5656 C 508.41 4.5038 -2.72112 0
M  V30 5657 O 507.436 4.51926 -3.46051 0
M  V30 5658 N 508.638 5.50575 -1.83977 0
M  V30 5659 H 511.403 1.50552 -2.59141 0
M  V30 5660 H 508.964 0.684182 -1.46733 0
M  V30 5661 H 510.956 3.77241 -1.4653 0
M  V30 5662 H 509.526 3.04964 -0.686729 0
M  V30 5663 H 508.746 2.4396 -3.09641 0
M  V30 5664 H 510.034 3.50268 -3.69039 0
M  V30 5665 H 509.432 5.52128 -1.23171 0
M  V30 5666 H 507.989 6.26687 -1.79182 0
M  V30 5667 N 511.423 1.38739 0.74761 0
M  V30 5668 C 512.839 1.20067 1.05148 0
M  V30 5669 C 513.039 0.0534835 2.01429 0
M  V30 5670 O 512.095 -0.59886 2.45296 0
M  V30 5671 C 513.408 2.52957 1.62584 0
M  V30 5672 C 514.956 2.59692 1.74726 0
M  V30 5673 C 515.431 3.92772 2.35573 0
M  V30 5674 N 516.922 3.94343 2.42997 0
M  V30 5675 C 517.657 4.9408 2.90985 0
M  V30 5676 N 517.153 6.04214 3.38965 0
M  V30 5677 N 518.946 4.81466 2.9008 0
M  V30 5678 H 511.097 2.12121 0.108808 0
M  V30 5679 H 513.36 0.941491 0.110899 0
M  V30 5680 H 513.066 3.37389 0.993051 0
M  V30 5681 H 512.94 2.71779 2.61565 0
M  V30 5682 H 515.327 1.75651 2.3713 0
M  V30 5683 H 515.408 2.44731 0.744326 0
M  V30 5684 H 515.052 4.77238 1.738 0
M  V30 5685 H 514.982 4.05046 3.36519 0
M  V30 5686 H 517.473 3.14799 2.0907 0
M  V30 5687 H 517.786 6.76241 3.74056 0
M  V30 5688 H 516.131 6.07825 3.37007 0
M  V30 5689 H 519.322 3.94535 2.51912 0
M  V30 5690 H 519.495 5.59344 3.27166 0
M  V30 5691 N 512.901 -0.976442 1.23707 0
M  V30 5692 C 513.848 -2.06952 1.02174 0
M  V30 5693 C 514.818 -1.65984 -0.0621034 0
M  V30 5694 O 516.003 -1.90584 0.0907906 0
M  V30 5695 C 513.143 -3.39425 0.62327 0
M  V30 5696 C 512.256 -3.9364 1.77966 0
M  V30 5697 C 511.391 -5.14343 1.3276 0
M  V30 5698 C 510.43 -5.60733 2.45449 0
M  V30 5699 N 509.567 -6.72662 2.01172 0
M  V30 5700 H 514.407 -2.24704 1.95734 0
M  V30 5701 H 511.944 -1.10143 0.975034 0
M  V30 5702 H 513.902 -4.15526 0.37332 0
M  V30 5703 H 512.532 -3.21624 -0.275329 0
M  V30 5704 H 511.584 -3.14258 2.14351 0
M  V30 5705 H 512.896 -4.24035 2.62671 0
M  V30 5706 H 512.05 -5.97789 1.03601 0
M  V30 5707 H 510.789 -4.8561 0.450975 0
M  V30 5708 H 509.794 -4.75865 2.75378 0
M  V30 5709 H 511.019 -5.91483 3.33654 0
M  V30 5710 H 508.965 -6.45681 1.15895 0
M  V30 5711 H 508.882 -7.02462 2.79434 0
M  V30 5712 H 510.15 -7.59572 1.75129 0
M  V30 5713 N 514.379 -1.04941 -1.1758 0
M  V30 5714 C 515.311 -0.606174 -2.21039 0
M  V30 5715 C 516.324 0.328763 -1.59446 0
M  V30 5716 O 517.513 0.121895 -1.78083 0
M  V30 5717 C 514.613 0.133294 -3.38638 0
M  V30 5718 C 513.786 -0.811711 -4.29802 0
M  V30 5719 C 512.845 -0.113958 -5.26077 0
M  V30 5720 O 511.871 -0.747237 -5.64274 0
M  V30 5721 N 513.073 1.14953 -5.69004 0
M  V30 5722 H 515.838 -1.49606 -2.59689 0
M  V30 5723 H 513.399 -0.930997 -1.32454 0
M  V30 5724 H 515.391 0.610144 -4.00074 0
M  V30 5725 H 513.961 0.924816 -2.98607 0
M  V30 5726 H 513.181 -1.46824 -3.65837 0
M  V30 5727 H 514.469 -1.45326 -4.87604 0
M  V30 5728 H 513.867 1.68441 -5.40041 0
M  V30 5729 H 512.424 1.57049 -6.32597 0
M  V30 5730 N 515.857 1.33968 -0.830081 0
M  V30 5731 C 516.82 2.27694 -0.26235 0
M  V30 5732 C 517.82 1.50589 0.563876 0
M  V30 5733 O 519.01 1.70028 0.378941 0
M  V30 5734 C 516.142 3.35002 0.63138 0
M  V30 5735 H 517.335 2.79419 -1.08928 0
M  V30 5736 H 514.888 1.44221 -0.602486 0
M  V30 5737 H 515.623 2.88504 1.48109 0
M  V30 5738 H 515.408 3.92079 0.0403276 0
M  V30 5739 H 516.898 4.04897 1.02217 0
M  V30 5740 N 517.335 0.585699 1.46312 0
M  V30 5741 C 518.751 0.247607 1.57668 0
M  V30 5742 C 518.951 -1.25007 1.58037 0
M  V30 5743 O 518.007 -2.03196 1.49893 0
M  V30 5744 C 519.32 0.899456 2.86933 0
M  V30 5745 C 520.868 0.873326 3.00569 0
M  V30 5746 C 521.343 1.50477 4.32574 0
M  V30 5747 N 522.834 1.46925 4.3928 0
M  V30 5748 C 523.569 1.92719 5.40044 0
M  V30 5749 N 523.065 2.46499 6.47464 0
M  V30 5750 N 524.858 1.83617 5.31264 0
M  V30 5751 H 517.009 1.55841 1.44317 0
M  V30 5752 H 519.272 0.651564 0.688599 0
M  V30 5753 H 518.978 1.95313 2.92482 0
M  V30 5754 H 518.852 0.409476 3.74971 0
M  V30 5755 H 521.239 -0.171736 2.946 0
M  V30 5756 H 521.32 1.40136 2.13999 0
M  V30 5757 H 520.964 2.54905 4.39302 0
M  V30 5758 H 520.894 0.951944 5.17924 0
M  V30 5759 H 523.385 1.07616 3.62253 0
M  V30 5760 H 523.698 2.79291 7.20567 0
M  V30 5761 H 522.043 2.50526 6.48276 0
M  V30 5762 H 525.234 1.41358 4.46246 0
M  V30 5763 H 525.407 2.19622 6.09648 0
M  V30 5764 N 518.813 -1.54241 0.323641 0
M  V30 5765 C 520.041 -2.04985 -0.280871 0
M  V30 5766 C 520.456 -1.19978 -1.45777 0
M  V30 5767 O 519.813 -0.230471 -1.81039 0
M  V30 5768 C 519.864 -3.54353 -0.715258 0
M  V30 5769 O 519.585 -4.36132 0.414817 0
M  V30 5770 C 521.086 -4.21189 -1.38257 0
M  V30 5771 H 518.306 -0.66851 -0.0577502 0
M  V30 5772 H 520.85 -1.99029 0.469852 0
M  V30 5773 H 519.005 -3.60596 -1.41596 0
M  V30 5774 H 519.419 -5.2445 0.0725227 0
M  V30 5775 H 520.893 -5.27154 -1.63745 0
M  V30 5776 H 521.37 -3.72307 -2.32989 0
M  V30 5777 H 521.976 -4.19085 -0.724447 0
M  V30 5778 N 520.291 -0.0518155 -1.57515 0
M  V30 5779 C 521.539 0.620595 -1.92336 0
M  V30 5780 C 521.86 1.71345 -0.930907 0
M  V30 5781 O 521.13 1.95885 0.0241341 0
M  V30 5782 H 519.71 0.232226 -0.709986 0
M  V30 5783 H 522.372 -0.104969 -1.94617 0
M  V30 5784 H 521.468 1.05879 -2.93592 0
M  V30 5785 N 521.769 1.56035 0.221574 0
M  V30 5786 C 522.679 1.95581 1.29558 0
M  V30 5787 C 523.695 0.859639 1.51282 0
M  V30 5788 O 524.871 1.16321 1.64413 0
M  V30 5789 C 521.936 2.26447 2.62531 0
M  V30 5790 C 520.997 3.49632 2.4911 0
M  V30 5791 C 520.23 3.79017 3.75742 0
M  V30 5792 O 520.453 3.10077 4.78757 0
M  V30 5793 O 519.387 4.72507 3.72855 0
M  V30 5794 H 523.213 2.8711 0.990035 0
M  V30 5795 H 520.798 1.43244 0.424434 0
M  V30 5796 H 522.68 2.47494 3.41064 0
M  V30 5797 H 521.355 1.38092 2.92766 0
M  V30 5798 H 520.262 3.33864 1.68777 0
M  V30 5799 H 521.595 4.3837 2.23814 0
M  V30 5800 N 523.247 -0.488276 1.49845 0
M  V30 5801 C 524.157 -1.61451 1.70207 0
M  V30 5802 C 525.173 -1.63877 0.584846 0
M  V30 5803 O 526.349 -1.82063 0.861107 0
M  V30 5804 C 523.414 -2.9776 1.77594 0
M  V30 5805 C 522.475 -3.05861 3.01243 0
M  V30 5806 C 521.708 -4.35668 3.08268 0
M  V30 5807 O 521.931 -5.25197 2.22541 0
M  V30 5808 O 520.865 -4.49005 4.00847 0
M  V30 5809 H 524.691 -1.47199 2.65643 0
M  V30 5810 H 522.276 -0.665939 1.33737 0
M  V30 5811 H 524.158 -3.7875 1.84732 0
M  V30 5812 H 522.833 -3.12248 0.8534 0
M  V30 5813 H 521.74 -2.24012 2.99616 0
M  V30 5814 H 523.073 -2.96304 3.9302 0
M  V30 5815 N 524.725 -1.39134 -0.740242 0
M  V30 5816 C 526.141 -1.20623 -1.0451 0
M  V30 5817 C 526.341 -0.0641651 -2.01398 0
M  V30 5818 O 525.397 0.585843 -2.4561 0
M  V30 5819 C 526.71 -2.53815 -1.6124 0
M  V30 5820 C 528.258 -2.60615 -1.73346 0
M  V30 5821 C 528.733 -3.94015 -2.33486 0
M  V30 5822 N 530.224 -3.95627 -2.40902 0
M  V30 5823 C 530.959 -4.95616 -2.88361 0
M  V30 5824 N 530.455 -6.06003 -3.35756 0
M  V30 5825 N 532.248 -4.82998 -2.87523 0
M  V30 5826 H 524.399 -2.12176 -0.0975576 0
M  V30 5827 H 526.662 -0.942066 -0.105904 0
M  V30 5828 H 526.368 -3.37911 -0.975144 0
M  V30 5829 H 526.242 -2.73162 -2.6012 0
M  V30 5830 H 528.629 -1.76906 -2.36195 0
M  V30 5831 H 528.71 -2.45123 -0.731336 0
M  V30 5832 H 528.354 -4.78153 -1.71267 0
M  V30 5833 H 528.284 -4.06825 -3.34366 0
M  V30 5834 H 530.775 -3.15903 -2.07398 0
M  V30 5835 H 531.088 -6.78215 -3.70464 0
M  V30 5836 H 529.433 -6.09604 -3.33778 0
M  V30 5837 H 532.624 -3.95866 -2.49816 0
M  V30 5838 H 532.797 -5.61072 -3.24196 0
M  V30 5839 N 526.204 0.969867 -1.24223 0
M  V30 5840 C 527.114 2.09806 -1.0497 0
M  V30 5841 C 528.13 1.73998 0.00886455 0
M  V30 5842 O 529.306 2.00513 -0.188848 0
M  V30 5843 C 526.371 3.40467 -0.654452 0
M  V30 5844 C 525.432 3.90236 -1.78926 0
M  V30 5845 C 524.665 5.14662 -1.41277 0
M  V30 5846 O 524.888 5.69602 -0.301632 0
M  V30 5847 O 523.822 5.58761 -2.23763 0
M  V30 5848 H 527.648 2.28942 -1.99548 0
M  V30 5849 H 525.233 1.08197 -1.03023 0
M  V30 5850 H 527.115 4.19039 -0.445452 0
M  V30 5851 H 525.79 3.22636 0.262216 0
M  V30 5852 H 524.697 3.12735 -2.05299 0
M  V30 5853 H 526.03 4.1254 -2.68462 0
M  V30 5854 N 527.682 1.05563 1.17022 0
M  V30 5855 C 528.592 0.670758 2.24807 0
M  V30 5856 C 529.608 -0.309865 1.71219 0
M  V30 5857 O 530.784 -0.161025 2.00755 0
M  V30 5858 C 527.849 0.055337 3.46656 0
M  V30 5859 C 526.91 1.08688 4.15314 0
M  V30 5860 C 526.143 0.500736 5.31346 0
M  V30 5861 O 526.366 -0.688718 5.66227 0
M  V30 5862 O 525.3 1.23683 5.89055 0
M  V30 5863 H 529.126 1.56914 2.60023 0
M  V30 5864 H 526.711 0.827428 1.24395 0
M  V30 5865 H 528.593 -0.286492 4.20425 0
M  V30 5866 H 527.268 -0.816638 3.13229 0
M  V30 5867 H 526.175 1.48077 3.43546 0
M  V30 5868 H 527.508 1.93014 4.52777 0
M  V30 5869 N 529.16 -1.33526 0.837174 0
M  V30 5870 C 530.07 -2.33023 0.271568 0
M  V30 5871 C 531.086 -1.63272 -0.601514 0
M  V30 5872 O 532.262 -1.94939 -0.506038 0
M  V30 5873 C 529.327 -3.42382 -0.545448 0
M  V30 5874 C 528.388 -4.27857 0.351709 0
M  V30 5875 C 527.621 -5.31994 -0.426409 0
M  V30 5876 O 527.844 -5.45763 -1.65828 0
M  V30 5877 O 526.778 -6.01572 0.1987 0
M  V30 5878 H 530.604 -2.83256 1.09545 0
M  V30 5879 H 528.189 -1.36837 0.599655 0
M  V30 5880 H 530.071 -4.09122 -1.00979 0
M  V30 5881 H 528.746 -2.94369 -1.34641 0
M  V30 5882 H 527.653 -3.6399 0.863853 0
M  V30 5883 H 528.986 -4.79349 1.1174 0
M  V30 5884 N 530.638 -0.59345 -1.46 0
M  V30 5885 C 531.548 0.135817 -2.34207 0
M  V30 5886 C 532.564 0.875008 -1.50398 0
M  V30 5887 O 533.74 0.835778 -1.83239 0
M  V30 5888 C 530.805 1.12977 -3.27776 0
M  V30 5889 C 529.866 0.394081 -4.27487 0
M  V30 5890 C 529.099 1.34068 -5.16586 0
M  V30 5891 O 529.322 2.5778 -5.08828 0
M  V30 5892 O 528.256 0.845426 -5.95933 0
M  V30 5893 H 532.082 -0.588691 -2.9794 0
M  V30 5894 H 529.667 -0.353784 -1.45151 0
M  V30 5895 H 531.549 1.70261 -3.85473 0
M  V30 5896 H 530.224 1.83556 -2.66625 0
M  V30 5897 H 529.131 -0.220869 -3.73447 0
M  V30 5898 H 530.464 -0.270939 -4.91454 0
M  V30 5899 N 532.116 1.54067 -0.331816 0
M  V30 5900 C 533.026 2.28322 0.539104 0
M  V30 5901 C 534.042 1.32985 1.1221 0
M  V30 5902 O 535.218 1.6601 1.1403 0
M  V30 5903 C 532.283 3.03277 1.68 0
M  V30 5904 C 531.344 4.14216 1.12798 0
M  V30 5905 C 530.577 4.85588 2.2145 0
M  V30 5906 O 530.8 4.56536 3.41952 0
M  V30 5907 O 529.734 5.72309 1.86404 0
M  V30 5908 H 533.56 3.03632 -0.0641692 0
M  V30 5909 H 531.145 1.49083 -0.0972365 0
M  V30 5910 H 533.027 3.50189 2.34405 0
M  V30 5911 H 531.702 2.30834 2.2693 0
M  V30 5912 H 530.609 3.71635 0.428782 0
M  V30 5913 H 531.942 4.88727 0.583698 0
M  V30 5914 N 533.594 0.0601682 1.57485 0
M  V30 5915 C 534.504 -0.926121 2.15546 0
M  V30 5916 C 535.52 -1.33532 1.11558 0
M  V30 5917 O 536.696 -1.4104 1.4377 0
M  V30 5918 C 533.761 -2.17952 2.69625 0
M  V30 5919 C 532.822 -1.82783 3.88444 0
M  V30 5920 C 532.055 -3.02148 4.39935 0
M  V30 5921 O 532.278 -4.15803 3.90466 0
M  V30 5922 O 531.212 -2.82639 5.31412 0
M  V30 5923 H 535.038 -0.462289 3.00161 0
M  V30 5924 H 532.623 -0.162246 1.48516 0
M  V30 5925 H 534.505 -2.91474 3.04337 0
M  V30 5926 H 533.18 -2.63456 1.88077 0
M  V30 5927 H 532.087 -1.06549 3.58606 0
M  V30 5928 H 533.42 -1.42072 4.7125 0
M  V30 5929 N 535.072 -1.5615 -0.213296 0
M  V30 5930 C 536.004 -1.89586 -1.28802 0
M  V30 5931 C 537.017 -0.784844 -1.42633 0
M  V30 5932 O 538.206 -1.06319 -1.43383 0
M  V30 5933 C 535.306 -2.09665 -2.66259 0
M  V30 5934 C 534.479 -3.40726 -2.7427 0
M  V30 5935 C 533.538 -3.50137 -3.92798 0
M  V30 5936 O 532.564 -4.23105 -3.8075 0
M  V30 5937 N 533.766 -2.81886 -5.07465 0
M  V30 5938 H 536.531 -2.82368 -1.00442 0
M  V30 5939 H 534.092 -1.56796 -0.403302 0
M  V30 5940 H 536.084 -2.13268 -3.43946 0
M  V30 5941 H 534.654 -1.23469 -2.87183 0
M  V30 5942 H 533.874 -3.4915 -1.82997 0
M  V30 5943 H 535.162 -4.27048 -2.76599 0
M  V30 5944 H 534.56 -2.22397 -5.2015 0
M  V30 5945 H 533.117 -2.91139 -5.83165 0
M  V30 5946 N 536.55 0.480323 -1.50102 0
M  V30 5947 C 537.799 1.22979 -1.59872 0
M  V30 5948 C 538.112 1.93282 -0.30022 0
M  V30 5949 O 539.318 2.70086 -0.276709 0
M  V30 5950 C 537.774 2.23408 -2.82164 0
M  V30 5951 C 537.382 1.5895 -4.18854 0
M  V30 5952 C 539.126 2.99055 -3.01275 0
M  V30 5953 C 537.033 2.57611 -5.32344 0
M  V30 5954 H 535.963 0.462707 -0.59533 0
M  V30 5955 H 538.614 0.501291 -1.7652 0
M  V30 5956 H 536.996 2.99511 -2.59055 0
M  V30 5957 H 538.17 0.887 -4.52182 0
M  V30 5958 H 536.485 0.956191 -4.05273 0
M  V30 5959 H 539.082 3.72876 -3.83233 0
M  V30 5960 H 539.425 3.57897 -2.12639 0
M  V30 5961 H 539.958 2.30066 -3.24522 0
M  V30 5962 H 536.697 2.03521 -6.23105 0
M  V30 5963 H 536.217 3.26041 -5.03445 0
M  V30 5964 H 537.896 3.19627 -5.62537 0
M  V30 5965 N 538.028 1.39524 0.732853 0
M  V30 5966 C 539.253 1.40329 1.52717 0
M  V30 5967 C 539.678 0.000286574 1.881 0
M  V30 5968 O 539.036 -0.987262 1.52062 0
M  V30 5969 C 539.084 2.28464 2.78992 0
M  V30 5970 O 538.188 1.716 3.75003 0
M  V30 5971 H 537.529 0.47778 0.461109 0
M  V30 5972 H 540.059 1.83546 0.903996 0
M  V30 5973 H 540.069 2.43051 3.27705 0
M  V30 5974 H 538.744 3.30425 2.52572 0
M  V30 5975 H 537.321 1.66267 3.33781 0
M  V30 5976 N 539.506 -0.963266 1.24736 0
M  V30 5977 C 540.416 -2.09246 1.06082 0
M  V30 5978 C 541.432 -1.74 0.000363101 0
M  V30 5979 O 542.608 -2.0041 0.199479 0
M  V30 5980 C 539.673 -3.40115 0.672498 0
M  V30 5981 C 538.734 -3.89282 1.80993 0
M  V30 5982 C 537.967 -5.13905 1.44004 0
M  V30 5983 O 538.19 -5.69434 0.331835 0
M  V30 5984 O 537.124 -5.57566 2.26723 0
M  V30 5985 H 540.95 -2.27881 2.00759 0
M  V30 5986 H 538.535 -1.07649 1.03595 0
M  V30 5987 H 540.417 -4.18797 0.467668 0
M  V30 5988 H 539.092 -3.22771 -0.245102 0
M  V30 5989 H 537.999 -3.11642 2.06955 0
M  V30 5990 H 539.332 -4.1111 2.70646 0
M  V30 5991 N 540.985 -1.06182 -1.16461 0
M  V30 5992 C 542.21 -0.798599 -1.91408 0
M  V30 5993 C 542.635 0.640987 -1.76842 0
M  V30 5994 O 541.993 1.44652 -1.09296 0
M  V30 5995 C 542.041 -1.19665 -3.40165 0
M  V30 5996 O 541.145 -0.334768 -4.11039 0
M  V30 5997 H 540.486 -0.291961 -0.596368 0
M  V30 5998 H 543.016 -1.41732 -1.47557 0
M  V30 5999 H 543.026 -1.16772 -3.90933 0
M  V30 6000 H 541.701 -2.24526 -3.50087 0
M  V30 6001 H 540.278 -0.425168 -3.70468 0
M  V30 6002 N 542.463 1.3308 -0.844243 0
M  V30 6003 C 543.373 2.32876 -0.283922 0
M  V30 6004 C 544.389 1.63589 0.592846 0
M  V30 6005 O 545.565 1.95205 0.495693 0
M  V30 6006 C 542.63 3.42667 0.527283 0
M  V30 6007 C 541.691 4.27664 -0.374394 0
M  V30 6008 C 540.924 5.32212 0.39819 0
M  V30 6009 O 541.147 5.46635 1.62932 0
M  V30 6010 O 540.081 6.01458 -0.2306 0
M  V30 6011 H 543.907 2.82671 -1.11045 0
M  V30 6012 H 541.492 1.36518 -0.606903 0
M  V30 6013 H 543.374 4.09652 0.988078 0
M  V30 6014 H 542.049 2.95079 1.33078 0
M  V30 6015 H 540.956 3.63526 -0.883144 0
M  V30 6016 H 542.289 4.78749 -1.1428 0
M  V30 6017 N 543.941 0.601185 1.45683 0
M  V30 6018 C 545.166 0.0982245 2.07167 0
M  V30 6019 C 545.591 -1.20546 1.44396 0
M  V30 6020 O 544.949 -1.73247 0.534347 0
M  V30 6021 C 544.997 -0.0346976 3.60583 0
M  V30 6022 O 544.101 -1.08657 3.97828 0
M  V30 6023 H 543.442 0.0711618 0.660176 0
M  V30 6024 H 545.972 0.829376 1.87036 0
M  V30 6025 H 545.982 -0.234969 4.07323 0
M  V30 6026 H 544.657 0.917265 4.05659 0
M  V30 6027 H 543.234 -0.863275 3.6277 0
M  V30 6028 N 545.419 -1.53889 0.339982 0
M  V30 6029 C 546.329 -2.28604 -0.526988 0
M  V30 6030 C 547.345 -1.33578 -1.11503 0
M  V30 6031 O 548.521 -1.66612 -1.13148 0
M  V30 6032 C 545.586 -3.04164 -1.66389 0
M  V30 6033 C 544.647 -4.14809 -1.10599 0
M  V30 6034 C 543.88 -4.86756 -2.18871 0
M  V30 6035 O 544.103 -4.58343 -3.39526 0
M  V30 6036 O 543.037 -5.73289 -1.83366 0
M  V30 6037 H 546.863 -3.03594 0.0802707 0
M  V30 6038 H 544.448 -1.4903 0.105141 0
M  V30 6039 H 546.33 -3.51427 -2.32544 0
M  V30 6040 H 545.005 -2.32035 -2.25703 0
M  V30 6041 H 543.912 -3.71857 -0.409067 0
M  V30 6042 H 545.245 -4.89029 -0.557771 0
M  V30 6043 N 546.897 -0.0685191 -1.57451 0
M  V30 6044 C 548.174 0.642167 -1.84758 0
M  V30 6045 C 548.554 1.87991 -0.960344 0
M  V30 6046 O 547.902 2.28485 -0.0257894 0
M  V30 6047 C 548.112 0.982946 -3.34872 0
M  V30 6048 C 549.46 1.35784 -4.02303 0
M  V30 6049 O 550.484 1.07477 -3.39598 0
M  V30 6050 O 549.343 1.88681 -5.12895 0
M  V30 6051 H 546.437 0.318625 -0.763156 0
M  V30 6052 H 548.983 -0.0992015 -1.6941 0
M  V30 6053 H 547.755 0.10372 -3.91163 0
M  V30 6054 H 547.378 1.78119 -3.55471 0
M  V30 6055 N 548.375 1.56261 0.205012 0
M  V30 6056 C 549.285 1.96944 1.27476 0
M  V30 6057 C 550.301 0.875636 1.50362 0
M  V30 6058 O 551.477 1.18058 1.6317 0
M  V30 6059 C 548.542 2.29219 2.60115 0
M  V30 6060 C 547.603 3.52255 2.45387 0
M  V30 6061 C 546.836 3.8298 3.71701 0
M  V30 6062 O 547.059 3.15138 4.75441 0
M  V30 6063 O 545.993 4.76435 3.67823 0
M  V30 6064 H 549.819 2.88144 0.959527 0
M  V30 6065 H 547.404 1.43686 0.409217 0
M  V30 6066 H 549.286 2.51098 3.3842 0
M  V30 6067 H 547.961 1.4119 2.91285 0
M  V30 6068 H 546.868 3.35635 1.65227 0
M  V30 6069 H 548.201 4.40719 2.19152 0
M  V30 6070 N 549.853 -0.472356 1.50355 0
M  V30 6071 C 550.763 -1.59637 1.7191 0
M  V30 6072 C 551.779 -1.63247 0.602195 0
M  V30 6073 O 552.955 -1.81139 0.880369 0
M  V30 6074 C 550.02 -2.9586 1.80742 0
M  V30 6075 C 549.081 -3.02649 3.04471 0
M  V30 6076 C 548.314 -4.32374 3.12872 0
M  V30 6077 O 548.537 -5.22807 2.28099 0
M  V30 6078 O 547.471 -4.44728 4.05587 0
M  V30 6079 H 551.297 -1.44373 2.67189 0
M  V30 6080 H 548.882 -0.651717 1.34436 0
M  V30 6081 H 550.764 -3.7677 1.88739 0
M  V30 6082 H 549.439 -3.11325 0.88647 0
M  V30 6083 H 548.346 -2.20821 3.01975 0
M  V30 6084 H 549.679 -2.92119 3.9614 0
M  V30 6085 N 551.331 -1.39911 -0.725443 0
M  V30 6086 C 552.279 -1.39552 -1.86086 0
M  V30 6087 C 553.273 -0.277334 -1.67114 0
M  V30 6088 O 554.479 -0.447865 -1.74339 0
M  V30 6089 H 550.854 -0.435993 -0.612711 0
M  V30 6090 H 552.825 -2.35305 -1.83505 0
M  V30 6091 C 551.574 -1.26529 -3.2386 0
M  V30 6092 H 550.897 -2.11845 -3.3906 0
M  V30 6093 H 552.337 -1.30336 -4.03471 0
M  V30 6094 C 550.796 0.0254168 -3.3689 0
M  V30 6095 O 551.326 0.992048 -3.89257 0
M  V30 6096 N 549.532 0.0916528 -2.90455 0
M  V30 6097 H 549.079 -0.695675 -2.48028 0
M  V30 6098 H 549.037 0.954745 -2.99553 0
M  V30 6099 N 552.809 0.956637 -1.25245 0
M  V30 6100 C 553.719 2.0868 -1.0719 0
M  V30 6101 C 554.735 1.73997 -0.00959074 0
M  V30 6102 O 555.911 2.00301 -0.210104 0
M  V30 6103 C 552.976 3.39754 -0.690526 0
M  V30 6104 C 552.037 3.88316 -1.83055 0
M  V30 6105 C 551.27 5.13134 -1.46728 0
M  V30 6106 O 551.493 5.6925 -0.362029 0
M  V30 6107 O 550.427 5.56356 -2.29677 0
M  V30 6108 H 554.253 2.26813 -2.01965 0
M  V30 6109 H 551.838 1.07098 -1.04165 0
M  V30 6110 H 553.72 4.18543 -0.489871 0
M  V30 6111 H 552.395 3.22896 0.227981 0
M  V30 6112 H 551.302 3.1054 -2.08604 0
M  V30 6113 H 552.635 4.09669 -2.72822 0
M  V30 6114 N 554.287 1.06798 1.15896 0
M  V30 6115 C 555.536 0.782796 1.8589 0
M  V30 6116 C 555.849 -0.693498 1.82893 0
M  V30 6117 O 557.055 -1.09325 2.48516 0
M  V30 6118 C 555.511 1.3502 3.33613 0
M  V30 6119 C 555.119 2.8571 3.45071 0
M  V30 6120 C 556.863 1.14278 4.08829 0
M  V30 6121 C 554.77 3.35669 4.86909 0
M  V30 6122 H 553.7 0.289149 0.696354 0
M  V30 6123 H 556.351 1.28734 1.30766 0
M  V30 6124 H 554.733 0.773407 3.88374 0
M  V30 6125 H 555.907 3.49385 3.00445 0
M  V30 6126 H 554.222 3.05178 2.83294 0
M  V30 6127 H 556.819 1.49087 5.13495 0
M  V30 6128 H 557.162 0.0814575 4.1622 0
M  V30 6129 H 557.695 1.68563 3.60321 0
M  V30 6130 H 554.434 4.41302 4.84698 0
M  V30 6131 H 553.954 2.76745 5.32139 0
M  V30 6132 H 555.633 3.31296 5.55745 0
M  V30 6133 N 555.766 -1.3263 0.851289 0
M  V30 6134 C 557.015 -1.96633 0.449267 0
M  V30 6135 C 557.328 -1.68131 -0.999562 0
M  V30 6136 O 558.534 -2.25845 -1.50685 0
M  V30 6137 C 556.99 -3.51946 0.752446 0
M  V30 6138 C 556.598 -3.89311 2.21678 0
M  V30 6139 C 558.342 -4.22437 0.417983 0
M  V30 6140 C 556.249 -5.37655 2.46336 0
M  V30 6141 H 555.179 -0.735888 0.164269 0
M  V30 6142 H 557.83 -1.51073 1.0416 0
M  V30 6143 H 556.212 -3.95899 0.0895858 0
M  V30 6144 H 557.386 -3.56378 2.92115 0
M  V30 6145 H 555.701 -3.31836 2.51543 0
M  V30 6146 H 558.298 -5.31549 0.579674 0
M  V30 6147 H 558.641 -4.11349 -0.640115 0
M  V30 6148 H 559.174 -3.84057 1.03659 0
M  V30 6149 H 555.913 -5.5376 3.50757 0
M  V30 6150 H 555.433 -5.72005 1.80473 0
M  V30 6151 H 557.112 -6.04695 2.30115 0
M  V30 6152 N 557.244 -0.608902 -1.45362 0
M  V30 6153 C 558.474 -0.110852 -2.06302 0
M  V30 6154 C 558.882 1.21062 -1.45398 0
M  V30 6155 O 558.225 1.74861 -0.562976 0
M  V30 6156 C 558.287 0.101793 -3.59356 0
M  V30 6157 C 557.951 -1.13808 -4.42602 0
M  V30 6158 C 558.948 -2.05653 -4.77496 0
M  V30 6159 C 556.633 -1.36727 -4.83333 0
M  V30 6160 C 558.627 -3.18745 -5.51978 0
M  V30 6161 C 556.314 -2.5012 -5.57569 0
M  V30 6162 C 557.312 -3.40957 -5.91809 0
M  V30 6163 O 557 -4.52376 -6.64538 0
M  V30 6164 H 556.732 -0.0666001 -0.672711 0
M  V30 6165 H 559.286 -0.836942 -1.87575 0
M  V30 6166 H 557.516 0.88279 -3.76489 0
M  V30 6167 H 559.205 0.551607 -4.02134 0
M  V30 6168 H 559.971 -1.89172 -4.46586 0
M  V30 6169 H 555.85 -0.669216 -4.56117 0
M  V30 6170 H 559.394 -3.8967 -5.78622 0
M  V30 6171 H 555.291 -2.66553 -5.87894 0
M  V30 6172 H 556.059 -4.51075 -6.82989 0
M  V30 6173 N 558.722 1.53707 -0.348139 0
M  V30 6174 C 559.67 2.26671 0.521808 0
M  V30 6175 C 560.664 1.28988 1.09811 0
M  V30 6176 O 561.87 1.4668 1.04332 0
M  V30 6177 H 558.245 0.728387 0.186968 0
M  V30 6178 H 560.216 2.98176 -0.115563 0
M  V30 6179 C 558.965 3.05591 1.6586 0
M  V30 6180 H 558.288 3.80589 1.22443 0
M  V30 6181 H 559.728 3.59851 2.24239 0
M  V30 6182 C 558.187 2.15366 2.59073 0
M  V30 6183 O 558.717 1.7528 3.61441 0
M  V30 6184 N 556.923 1.80352 2.27863 0
M  V30 6185 H 556.47 2.13149 1.44656 0
M  V30 6186 H 556.428 1.20268 2.90488 0
M  V30 6187 N 560.2 0.0768682 1.57412 0
M  V30 6188 C 561.611 -0.455037 1.8107 0
M  V30 6189 C 561.962 -1.69323 0.991162 0
M  V30 6190 O 561.087 -2.15328 0.215156 0
M  V30 6191 C 561.682 -0.832316 3.28417 0
M  V30 6192 C 560.241 -1.30906 3.52903 0
M  V30 6193 C 559.388 -0.296714 2.75708 0
M  V30 6194 H 562.339 0.302514 1.5579 0
M  V30 6195 H 562.36 -1.69333 3.40744 0
M  V30 6196 H 561.872 0.0690532 3.88039 0
M  V30 6197 H 559.973 -2.22875 2.98592 0
M  V30 6198 H 560.086 -1.28348 4.61588 0
M  V30 6199 H 558.45 -0.775059 2.42621 0
M  V30 6200 H 559.233 0.597015 3.38069 0
M  V30 6201 N 561.678 -1.56367 -0.196722 0
M  V30 6202 C 562.625 -1.94417 -1.24382 0
M  V30 6203 C 563.595 -0.804543 -1.45315 0
M  V30 6204 O 564.78 -1.06256 -1.58475 0
M  V30 6205 C 561.92 -2.28757 -2.58388 0
M  V30 6206 C 561.033 -3.55775 -2.45047 0
M  V30 6207 C 560.168 -3.79445 -3.71746 0
M  V30 6208 C 559.207 -4.99894 -3.53231 0
M  V30 6209 N 558.344 -5.19826 -4.71938 0
M  V30 6210 H 563.184 -2.83691 -0.912338 0
M  V30 6211 H 560.721 -1.40392 -0.439135 0
M  V30 6212 H 562.679 -2.46682 -3.36457 0
M  V30 6213 H 561.309 -1.42625 -2.89582 0
M  V30 6214 H 560.361 -3.45905 -1.58284 0
M  V30 6215 H 561.673 -4.44 -2.27299 0
M  V30 6216 H 560.827 -3.97601 -4.58256 0
M  V30 6217 H 559.566 -2.89546 -3.92446 0
M  V30 6218 H 558.571 -4.81662 -2.65107 0
M  V30 6219 H 559.796 -5.913 -3.33978 0
M  V30 6220 H 557.742 -4.32875 -4.92905 0
M  V30 6221 H 557.659 -6.02228 -4.57009 0
M  V30 6222 H 558.927 -5.42439 -5.59803 0
M  V30 6223 N 563.156 0.464375 -1.50603 0
M  V30 6224 C 564.104 1.58224 -1.70493 0
M  V30 6225 C 565.098 1.59492 -0.570836 0
M  V30 6226 O 566.304 1.63561 -0.751517 0
M  V30 6227 H 562.679 0.525161 -0.538247 0
M  V30 6228 H 564.65 1.38613 -2.64252 0
M  V30 6229 C 563.399 2.96113 -1.82243 0
M  V30 6230 H 562.722 2.95858 -2.68901 0
M  V30 6231 H 564.162 3.73769 -2.00182 0
M  V30 6232 C 562.621 3.31946 -0.575628 0
M  V30 6233 O 563.151 4.00708 0.282152 0
M  V30 6234 N 561.357 2.87436 -0.427665 0
M  V30 6235 H 560.904 2.31652 -1.12674 0
M  V30 6236 H 560.862 3.11776 0.405379 0
M  V30 6237 N 564.634 1.40294 0.718013 0
M  V30 6238 C 565.564 1.43118 1.84498 0
M  V30 6239 C 566.545 0.292403 1.67568 0
M  V30 6240 O 567.73 0.500675 1.87635 0
M  V30 6241 C 564.86 1.29065 3.22427 0
M  V30 6242 C 563.814 2.40521 3.54025 0
M  V30 6243 C 563.14 2.11546 4.91073 0
M  V30 6244 C 564.44 3.82859 3.55269 0
M  V30 6245 H 566.134 2.37432 1.82391 0
M  V30 6246 H 563.68 1.14283 0.87609 0
M  V30 6247 H 565.633 1.29658 4.00957 0
M  V30 6248 H 564.357 0.312271 3.25104 0
M  V30 6249 H 563.016 2.39173 2.77834 0
M  V30 6250 H 562.664 1.12104 4.90348 0
M  V30 6251 H 562.364 2.86216 5.1318 0
M  V30 6252 H 563.888 2.13817 5.71939 0
M  V30 6253 H 565.302 3.86044 4.23843 0
M  V30 6254 H 563.699 4.57029 3.88902 0
M  V30 6255 H 564.769 4.12617 2.54706 0
M  V30 6256 N 566.112 -0.949982 1.2575 0
M  V30 6257 C 567.523 -1.50989 1.09815 0
M  V30 6258 C 567.874 -1.93497 -0.324556 0
M  V30 6259 O 566.999 -1.79068 -1.21506 0
M  V30 6260 C 567.594 -2.74394 1.98729 0
M  V30 6261 C 566.153 -3.26682 1.86965 0
M  V30 6262 C 565.3 -1.99498 1.92603 0
M  V30 6263 H 568.251 -0.766387 1.38968 0
M  V30 6264 H 568.272 -3.48383 1.53001 0
M  V30 6265 H 567.784 -2.43425 3.02268 0
M  V30 6266 H 565.885 -3.62461 0.863279 0
M  V30 6267 H 565.998 -3.94383 2.72027 0
M  V30 6268 H 564.362 -2.15005 1.36546 0
M  V30 6269 H 565.145 -1.70871 2.97755 0
M  V30 6270 N 567.59 -1.07411 -1.15328 0
M  V30 6271 C 568.52 -0.716472 -2.22236 0
M  V30 6272 C 569.501 0.296373 -1.67498 0
M  V30 6273 O 570.686 0.168989 -1.93463 0
M  V30 6274 C 567.816 -0.114142 -3.47112 0
M  V30 6275 C 566.77 -1.05421 -4.14814 0
M  V30 6276 C 566.096 -0.314604 -5.33774 0
M  V30 6277 C 567.396 -2.38808 -4.64508 0
M  V30 6278 H 569.09 -1.61029 -2.52408 0
M  V30 6279 H 566.636 -0.775702 -1.21321 0
M  V30 6280 H 568.589 0.148001 -4.2114 0
M  V30 6281 H 567.313 0.814755 -3.16274 0
M  V30 6282 H 565.972 -1.30128 -3.42728 0
M  V30 6283 H 565.62 0.617772 -4.99192 0
M  V30 6284 H 565.32 -0.941209 -5.80013 0
M  V30 6285 H 566.844 -0.0602747 -6.1057 0
M  V30 6286 H 568.258 -2.18424 -5.3006 0
M  V30 6287 H 566.655 -2.97069 -5.21412 0
M  V30 6288 H 567.725 -3.01067 -3.80114 0
M  V30 6289 N 569.068 1.32177 -0.85831 0
M  V30 6290 C 570.316 1.96735 -0.462568 0
M  V30 6291 C 570.637 1.6824 0.985911 0
M  V30 6292 O 569.907 0.991564 1.68952 0
M  V30 6293 H 568.487 0.727849 -0.168064 0
M  V30 6294 H 571.149 1.61195 -1.09554 0
M  V30 6295 H 570.245 3.06068 -0.610647 0
M  V30 6296 N 570.547 0.616602 1.45037 0
M  V30 6297 C 571.793 0.123965 2.03022 0
M  V30 6298 C 572.148 -1.23508 1.47525 0
M  V30 6299 O 571.441 -1.80453 0.643981 0
M  V30 6300 C 571.635 0.0356829 3.57382 0
M  V30 6301 C 571.464 1.38462 4.27853 0
M  V30 6302 C 570.234 1.96766 4.65415 0
M  V30 6303 C 572.432 2.31536 4.59234 0
M  V30 6304 N 570.414 3.25046 5.20786 0
M  V30 6305 C 571.785 3.4442 5.15533 0
M  V30 6306 C 573.84 2.30796 4.41178 0
M  V30 6307 C 572.543 4.56742 5.55679 0
M  V30 6308 C 574.569 3.42171 4.82362 0
M  V30 6309 C 573.931 4.53778 5.38762 0
M  V30 6310 H 570.03 0.0889428 0.776925 0
M  V30 6311 H 572.614 0.816925 1.76733 0
M  V30 6312 H 570.785 -0.62652 3.83314 0
M  V30 6313 H 572.517 -0.464443 4.02026 0
M  V30 6314 H 569.272 1.4987 4.49261 0
M  V30 6315 H 569.696 3.90592 5.52962 0
M  V30 6316 H 574.338 1.45765 3.96878 0
M  V30 6317 H 572.056 5.42491 5.9894 0
M  V30 6318 H 575.642 3.42757 4.70116 0
M  V30 6319 H 574.522 5.38536 5.70043 0
M  V30 6320 N 572.025 -1.5352 0.356285 0
M  V30 6321 C 573.302 -1.93405 -0.292223 0
M  V30 6322 C 573.682 -1.28901 -1.67176 0
M  V30 6323 O 573.03 -0.444632 -2.24132 0
M  V30 6324 C 573.24 -3.47223 -0.35175 0
M  V30 6325 C 574.588 -4.20389 -0.596534 0
M  V30 6326 O 575.612 -3.53554 -0.433344 0
M  V30 6327 O 574.471 -5.3881 -0.913589 0
M  V30 6328 H 571.565 -0.808666 -0.173172 0
M  V30 6329 H 574.111 -1.64713 0.408391 0
M  V30 6330 H 572.883 -3.86423 0.615841 0
M  V30 6331 H 572.506 -3.8212 -1.09864 0
M  V30 6332 N 573.503 -0.0852151 -1.57369 0
M  V30 6333 C 574.751 0.579658 -1.93609 0
M  V30 6334 C 575.072 1.69332 -0.967043 0
M  V30 6335 O 574.342 1.95892 -0.0174215 0
M  V30 6336 H 572.922 0.217113 -0.714752 0
M  V30 6337 H 575.584 -0.146226 -1.94351 0
M  V30 6338 H 574.68 0.996276 -2.95771 0
M  V30 6339 N 574.981 1.5647 0.188427 0
M  V30 6340 C 575.928 1.95073 1.23349 0
M  V30 6341 C 576.898 0.812238 1.44886 0
M  V30 6342 O 578.083 1.07095 1.57909 0
M  V30 6343 C 575.223 2.30124 2.57171 0
M  V30 6344 C 574.336 3.57069 2.43157 0
M  V30 6345 C 573.471 3.81411 3.69729 0
M  V30 6346 C 572.51 5.0176 3.50575 0
M  V30 6347 N 571.647 5.22321 4.69175 0
M  V30 6348 H 576.487 2.84171 0.89728 0
M  V30 6349 H 574.024 1.40623 0.431683 0
M  V30 6350 H 575.982 2.48463 3.35145 0
M  V30 6351 H 574.612 1.44159 2.88822 0
M  V30 6352 H 573.664 3.4674 1.56447 0
M  V30 6353 H 574.976 4.452 2.24942 0
M  V30 6354 H 574.13 4.00026 4.56141 0
M  V30 6355 H 572.869 2.91624 3.90905 0
M  V30 6356 H 571.874 4.83061 2.62549 0
M  V30 6357 H 573.099 5.93063 3.30837 0
M  V30 6358 H 571.045 4.35483 4.90602 0
M  V30 6359 H 570.962 6.04643 4.53809 0
M  V30 6360 H 572.23 5.45401 5.56919 0
M  V30 6361 N 576.459 -0.456382 1.50847 0
M  V30 6362 C 577.87 -1.03685 1.55262 0
M  V30 6363 C 578.221 -1.92779 0.364771 0
M  V30 6364 O 577.346 -2.10043 -0.52068 0
M  V30 6365 C 577.941 -1.88718 2.81374 0
M  V30 6366 C 576.5 -2.41847 2.88422 0
M  V30 6367 C 575.647 -1.20564 2.49719 0
M  V30 6368 H 578.598 -0.238399 1.56899 0
M  V30 6369 H 578.619 -2.73957 2.6406 0
M  V30 6370 H 578.131 -1.23847 3.67809 0
M  V30 6371 H 576.232 -3.10228 2.06372 0
M  V30 6372 H 576.345 -2.75947 3.9165 0
M  V30 6373 H 574.709 -1.54504 2.02486 0
M  V30 6374 H 575.492 -0.573326 3.38479 0
M  V30 6375 N 577.937 -1.40673 -0.710563 0
M  V30 6376 C 579.186 -1.38525 -1.46607 0
M  V30 6377 C 579.499 0.0077024 -1.95598 0
M  V30 6378 O 580.705 0.151792 -2.71075 0
M  V30 6379 C 579.161 -2.43489 -2.6503 0
M  V30 6380 C 578.769 -3.88619 -2.22888 0
M  V30 6381 C 580.513 -2.50456 -3.42742 0
M  V30 6382 C 578.42 -4.85168 -3.3818 0
M  V30 6383 H 577.35 -0.515092 -0.550632 0
M  V30 6384 H 580.001 -1.66431 -0.772846 0
M  V30 6385 H 578.383 -2.0869 -3.36548 0
M  V30 6386 H 579.557 -4.32588 -1.58758 0
M  V30 6387 H 577.872 -3.85174 -1.58208 0
M  V30 6388 H 580.469 -3.19776 -4.28541 0
M  V30 6389 H 580.812 -1.53665 -3.86902 0
M  V30 6390 H 581.345 -2.84271 -2.78271 0
M  V30 6391 H 578.084 -5.8331 -2.99047 0
M  V30 6392 H 577.604 -4.4586 -4.01209 0
M  V30 6393 H 579.283 -5.05225 -4.04174 0
M  V30 6394 N 579.415 0.9433 -1.26252 0
M  V30 6395 C 580.826 1.50404 -1.10614 0
M  V30 6396 C 581.177 1.93666 0.31429 0
M  V30 6397 O 580.302 1.79709 1.20555 0
M  V30 6398 C 580.897 2.73336 -2.00182 0
M  V30 6399 C 579.456 3.25686 -1.88695 0
M  V30 6400 C 578.603 1.98474 -1.93658 0
M  V30 6401 H 581.554 0.759006 -1.39373 0
M  V30 6402 H 581.575 3.47567 -1.54847 0
M  V30 6403 H 581.087 2.41818 -3.03555 0
M  V30 6404 H 579.188 3.61998 -0.882489 0
M  V30 6405 H 579.301 3.92935 -2.74115 0
M  V30 6406 H 577.665 2.14278 -1.37684 0
M  V30 6407 H 578.448 1.6929 -2.98657 0
M  V30 6408 N 580.893 1.08022 1.14757 0
M  V30 6409 C 582.123 0.827646 1.89298 0
M  V30 6410 C 582.531 -0.623506 1.78631 0
M  V30 6411 O 581.874 -1.43991 1.14071 0
M  V30 6412 C 581.936 1.16553 3.40082 0
M  V30 6413 C 581.6 2.61866 3.74533 0
M  V30 6414 C 582.597 3.60116 3.74984 0
M  V30 6415 C 580.282 2.97619 4.04633 0
M  V30 6416 C 582.276 4.92151 4.05051 0
M  V30 6417 C 579.963 4.2985 4.34364 0
M  V30 6418 C 580.961 5.26926 4.34555 0
M  V30 6419 O 580.649 6.5678 4.63568 0
M  V30 6420 H 580.381 0.298396 0.606577 0
M  V30 6421 H 582.935 1.44187 1.46285 0
M  V30 6422 H 581.165 0.494296 3.83528 0
M  V30 6423 H 582.854 0.894407 3.95923 0
M  V30 6424 H 583.62 3.33837 3.51821 0
M  V30 6425 H 579.499 2.22702 4.03639 0
M  V30 6426 H 583.043 5.67915 4.05115 0
M  V30 6427 H 578.94 4.55879 4.56995 0
M  V30 6428 H 579.708 6.62035 4.81303 0
M  V30 6429 N 582.371 -1.3172 0.865308 0
M  V30 6430 C 583.617 -1.97559 0.483944 0
M  V30 6431 C 583.972 -1.67181 -0.95227 0
M  V30 6432 O 583.265 -0.955392 -1.66081 0
M  V30 6433 C 583.459 -3.5102 0.672283 0
M  V30 6434 C 583.288 -3.96312 2.12525 0
M  V30 6435 C 582.058 -4.22877 2.76591 0
M  V30 6436 C 584.256 -4.10596 3.09702 0
M  V30 6437 N 582.238 -4.5449 4.12689 0
M  V30 6438 C 583.609 -4.45867 4.30816 0
M  V30 6439 C 585.664 -3.92961 3.05755 0
M  V30 6440 C 584.367 -4.65344 5.48495 0
M  V30 6441 C 586.393 -4.13628 4.22688 0
M  V30 6442 C 585.755 -4.49227 5.42563 0
M  V30 6443 H 581.854 -0.74862 0.226035 0
M  V30 6444 H 584.438 -1.59336 1.11893 0
M  V30 6445 H 582.609 -3.88342 0.0669224 0
M  V30 6446 H 584.341 -4.03865 0.259765 0
M  V30 6447 H 581.096 -4.15343 2.27567 0
M  V30 6448 H 581.52 -4.74464 4.82921 0
M  V30 6449 H 586.162 -3.64531 2.14188 0
M  V30 6450 H 583.88 -4.92624 6.40584 0
M  V30 6451 H 587.466 -4.01474 4.21082 0
M  V30 6452 H 586.346 -4.64895 6.31539 0
M  V30 6453 N 583.85 -0.624285 -1.44708 0
M  V30 6454 C 584.779 0.0717025 -2.3339 0
M  V30 6455 C 585.76 0.841814 -1.47809 0
M  V30 6456 O 586.946 0.809056 -1.76544 0
M  V30 6457 C 584.076 1.05852 -3.30776 0
M  V30 6458 C 583.029 0.400503 -4.26122 0
M  V30 6459 C 582.356 1.49674 -5.13324 0
M  V30 6460 C 583.656 -0.688924 -5.17737 0
M  V30 6461 H 585.35 -0.668819 -2.91834 0
M  V30 6462 H 582.896 -0.32308 -1.40329 0
M  V30 6463 H 584.849 1.5541 -3.91696 0
M  V30 6464 H 583.572 1.82984 -2.70526 0
M  V30 6465 H 582.231 -0.0743687 -3.66525 0
M  V30 6466 H 581.88 2.25877 -4.49431 0
M  V30 6467 H 581.58 1.06188 -5.77926 0
M  V30 6468 H 583.104 1.99427 -5.77115 0
M  V30 6469 H 584.518 -0.276724 -5.72632 0
M  V30 6470 H 582.915 -1.04652 -5.90904 0
M  V30 6471 H 583.985 -1.55884 -4.5916 0
M  V30 6472 N 585.328 1.53329 -0.364422 0
M  V30 6473 C 586.558 2.05359 0.226096 0
M  V30 6474 C 586.966 1.23777 1.43094 0
M  V30 6475 O 586.309 0.271139 1.81688 0
M  V30 6476 C 586.371 3.52918 0.684794 0
M  V30 6477 C 586.035 4.55218 -0.403206 0
M  V30 6478 C 587.032 5.04583 -1.2527 0
M  V30 6479 C 584.717 4.99134 -0.563117 0
M  V30 6480 C 586.711 5.96463 -2.24745 0
M  V30 6481 C 584.398 5.9082 -1.56124 0
M  V30 6482 C 585.396 6.39375 -2.40184 0
M  V30 6483 O 585.084 7.29255 -3.38293 0
M  V30 6484 H 584.816 0.674588 0.0436772 0
M  V30 6485 H 587.37 1.98688 -0.520782 0
M  V30 6486 H 585.6 3.57122 1.48326 0
M  V30 6487 H 587.289 3.87812 1.19818 0
M  V30 6488 H 588.055 4.71403 -1.14034 0
M  V30 6489 H 583.934 4.60928 0.0813909 0
M  V30 6490 H 587.478 6.34285 -2.90393 0
M  V30 6491 H 583.375 6.23414 -1.67407 0
M  V30 6492 H 584.143 7.47249 -3.34009 0
M  V30 6493 N 586.806 0.0935595 1.57322 0
M  V30 6494 C 587.753 -0.865935 2.1394 0
M  V30 6495 C 588.723 -1.28083 1.05754 0
M  V30 6496 O 589.908 -1.36285 1.33533 0
M  V30 6497 C 587.048 -2.12023 2.72287 0
M  V30 6498 C 586.161 -1.756 3.94701 0
M  V30 6499 C 585.296 -2.95804 4.41218 0
M  V30 6500 C 584.335 -2.555 5.56225 0
M  V30 6501 N 583.472 -3.68534 5.97601 0
M  V30 6502 H 588.312 -0.376261 2.95615 0
M  V30 6503 H 585.849 -0.174052 1.46067 0
M  V30 6504 H 587.807 -2.85477 3.04235 0
M  V30 6505 H 586.437 -2.58492 1.93343 0
M  V30 6506 H 585.489 -0.921208 3.69077 0
M  V30 6507 H 586.801 -1.41964 4.78171 0
M  V30 6508 H 585.955 -3.77513 4.74941 0
M  V30 6509 H 584.694 -3.32649 3.56645 0
M  V30 6510 H 583.699 -1.72218 5.22131 0
M  V30 6511 H 584.924 -2.19801 6.42545 0
M  V30 6512 H 582.87 -4.051 5.15974 0
M  V30 6513 H 582.787 -3.38737 6.75865 0
M  V30 6514 H 584.055 -4.50757 6.35955 0
M  V30 6515 N 588.284 -1.56567 -0.180126 0
M  V30 6516 C 589.214 -1.98753 -1.22553 0
M  V30 6517 C 590.195 -0.86175 -1.46656 0
M  V30 6518 O 591.38 -1.12719 -1.58139 0
M  V30 6519 C 588.51 -2.33988 -2.56645 0
M  V30 6520 C 587.464 -3.49445 -2.47128 0
M  V30 6521 C 586.79 -3.70397 -3.8563 0
M  V30 6522 C 588.09 -4.83171 -1.98352 0
M  V30 6523 H 589.784 -2.86332 -0.874896 0
M  V30 6524 H 587.33 -1.37757 -0.419414 0
M  V30 6525 H 589.283 -2.62097 -3.29974 0
M  V30 6526 H 588.007 -1.43309 -2.93479 0
M  V30 6527 H 586.666 -3.2145 -1.76254 0
M  V30 6528 H 586.314 -2.77023 -4.19842 0
M  V30 6529 H 586.014 -4.48077 -3.80132 0
M  V30 6530 H 587.538 -4.00897 -4.60558 0
M  V30 6531 H 588.952 -5.10213 -2.61449 0
M  V30 6532 H 587.349 -5.64425 -2.03823 0
M  V30 6533 H 588.419 -4.75753 -0.937402 0
M  V30 6534 N 589.762 0.448376 -1.51087 0
M  V30 6535 C 590.712 1.54156 -1.67988 0
M  V30 6536 C 591.696 1.5178 -0.534015 0
M  V30 6537 O 592.888 1.58419 -0.789448 0
M  V30 6538 C 590.017 2.92437 -1.79822 0
M  V30 6539 C 589.103 2.99611 -3.00157 0
M  V30 6540 N 589.494 2.7655 -4.23502 0
M  V30 6541 C 587.792 3.30764 -2.99184 0
M  V30 6542 C 588.493 2.89281 -5.0467 0
M  V30 6543 N 587.469 3.20473 -4.39088 0
M  V30 6544 H 591.271 1.35061 -2.61028 0
M  V30 6545 H 588.785 0.655504 -1.48583 0
M  V30 6546 H 590.782 3.71068 -1.90037 0
M  V30 6547 H 589.442 3.1256 -0.879554 0
M  V30 6548 H 590.453 2.5169 -4.52628 0
M  V30 6549 H 587.13 3.56732 -2.16907 0
M  V30 6550 H 588.52 2.75499 -6.12821 0
M  V30 6551 N 591.24 1.41047 0.703093 0
M  V30 6552 C 592.488 1.39723 1.4602 0
M  V30 6553 C 592.809 0.00461257 1.94999 0
M  V30 6554 O 592.079 -0.952292 1.71196 0
M  V30 6555 H 590.659 0.514281 0.541779 0
M  V30 6556 H 593.321 1.76217 0.832678 0
M  V30 6557 H 592.417 2.07982 2.32701 0
M  V30 6558 N 592.718 -0.936591 1.26751 0
M  V30 6559 C 593.648 -2.05315 1.11212 0
M  V30 6560 C 594.629 -1.70092 0.0160262 0
M  V30 6561 O 595.814 -1.93279 0.188894 0
M  V30 6562 C 592.944 -3.39123 0.749171 0
M  V30 6563 C 591.898 -3.88425 1.79751 0
M  V30 6564 C 591.224 -5.18936 1.28876 0
M  V30 6565 C 592.524 -4.12798 3.19992 0
M  V30 6566 H 594.218 -2.18573 2.04613 0
M  V30 6567 H 591.764 -1.05027 0.985159 0
M  V30 6568 H 593.717 -4.16704 0.627323 0
M  V30 6569 H 592.441 -3.25855 -0.220543 0
M  V30 6570 H 591.1 -3.13028 1.90811 0
M  V30 6571 H 590.748 -5.02051 0.308757 0
M  V30 6572 H 590.448 -5.52892 1.98958 0
M  V30 6573 H 591.972 -5.99096 1.17967 0
M  V30 6574 H 593.386 -4.80977 3.11983 0
M  V30 6575 H 591.783 -4.58044 3.87705 0
M  V30 6576 H 592.853 -3.18412 3.65707 0
M  V30 6577 N 594.196 -1.08629 -1.14182 0
M  V30 6578 C 595.144 -0.71284 -2.21408 0
M  V30 6579 C 596.138 0.282457 -1.67029 0
M  V30 6580 O 597.344 0.144783 -1.79417 0
M  V30 6581 H 593.719 -0.212497 -0.721352 0
M  V30 6582 H 595.69 -1.6265 -2.50175 0
M  V30 6583 C 594.439 -0.140704 -3.47415 0
M  V30 6584 H 593.762 -0.897739 -3.8959 0
M  V30 6585 H 595.202 0.0827677 -4.23919 0
M  V30 6586 C 593.661 1.122 -3.17668 0
M  V30 6587 O 594.191 2.20652 -3.35672 0
M  V30 6588 N 592.397 1.03328 -2.71609 0
M  V30 6589 H 591.944 0.150666 -2.57159 0
M  V30 6590 H 591.902 1.8789 -2.52081 0
M  V30 6591 N 595.674 1.31259 -0.872281 0
M  V30 6592 C 596.923 1.95893 -0.480493 0
M  V30 6593 C 597.236 1.697 0.972688 0
M  V30 6594 O 598.442 2.28214 1.47073 0
M  V30 6595 C 596.898 3.50705 -0.808342 0
M  V30 6596 C 596.506 3.85735 -2.27844 0
M  V30 6597 C 598.25 4.21719 -0.485136 0
M  V30 6598 C 596.157 5.33668 -2.54858 0
M  V30 6599 H 595.087 0.733182 -0.175955 0
M  V30 6600 H 597.738 1.49396 -1.0655 0
M  V30 6601 H 596.12 3.95706 -0.152558 0
M  V30 6602 H 597.294 3.51686 -2.97748 0
M  V30 6603 H 595.609 3.27792 -2.56791 0
M  V30 6604 H 598.206 5.30559 -0.664166 0
M  V30 6605 H 598.549 4.12316 0.574592 0
M  V30 6606 H 599.082 3.82359 -1.09756 0
M  V30 6607 H 595.821 5.48109 -3.59523 0
M  V30 6608 H 595.341 5.69061 -1.8955 0
M  V30 6609 H 597.02 6.00958 -2.39706 0
M  V30 6610 N 597.152 0.631951 1.44375 0
M  V30 6611 C 598.1 -0.0846693 2.32446 0
M  V30 6612 C 599.094 -0.834957 1.47393 0
M  V30 6613 O 600.3 -0.747764 1.63733 0
M  V30 6614 H 596.675 -0.0461508 0.750583 0
M  V30 6615 H 598.646 0.67619 2.90638 0
M  V30 6616 C 597.395 -1.05211 3.314 0
M  V30 6617 H 596.718 -0.484203 3.96857 0
M  V30 6618 H 598.158 -1.523 3.95703 0
M  V30 6619 C 596.617 -2.13776 2.60387 0
M  V30 6620 O 597.147 -3.21869 2.4034 0
M  V30 6621 N 595.353 -1.89733 2.20113 0
M  V30 6622 H 594.9 -1.01833 2.36618 0
M  V30 6623 H 594.858 -2.62572 1.72926 0
M  V30 6624 N 598.631 -1.53133 0.372548 0
M  V30 6625 C 599.861 -2.05476 -0.215202 0
M  V30 6626 C 600.269 -1.24534 -1.42436 0
M  V30 6627 O 599.612 -0.280771 -1.81542 0
M  V30 6628 C 599.674 -3.53276 -0.666068 0
M  V30 6629 C 599.338 -4.54998 0.427342 0
M  V30 6630 C 600.335 -5.03911 1.27944 0
M  V30 6631 C 598.02 -4.98828 0.589579 0
M  V30 6632 C 600.014 -5.95263 2.27905 0
M  V30 6633 C 597.701 -5.89984 1.59255 0
M  V30 6634 C 598.699 -6.38093 2.43571 0
M  V30 6635 O 598.387 -7.27451 3.42156 0
M  V30 6636 H 598.119 -0.67481 -0.040099 0
M  V30 6637 H 600.673 -1.98409 0.531312 0
M  V30 6638 H 598.903 -3.57904 -1.4643 0
M  V30 6639 H 600.592 -3.88442 -1.1776 0
M  V30 6640 H 601.358 -4.70792 1.16532 0
M  V30 6641 H 597.237 -4.60965 -0.0569456 0
M  V30 6642 H 600.781 -6.32736 2.93753 0
M  V30 6643 H 596.678 -6.22518 1.70711 0
M  V30 6644 H 597.446 -7.45467 3.37967 0
M  V30 6645 N 600.109 -0.101901 -1.5727 0
M  V30 6646 C 601.057 0.872034 -2.15635 0
M  V30 6647 C 602.051 1.28742 -1.10099 0
M  V30 6648 O 603.257 1.26116 -1.28432 0
M  V30 6649 H 599.632 0.299269 -0.689886 0
M  V30 6650 H 601.603 0.355137 -2.96279 0
M  V30 6651 C 600.352 2.11886 -2.7568 0
M  V30 6652 H 599.675 1.80813 -3.56576 0
M  V30 6653 H 601.115 2.78077 -3.20077 0
M  V30 6654 C 599.574 2.89739 -1.7191 0
M  V30 6655 O 600.104 3.84522 -1.16213 0
M  V30 6656 N 598.31 2.53407 -1.42245 0
M  V30 6657 H 597.857 1.76398 -1.87727 0
M  V30 6658 H 597.815 3.05795 -0.730529 0
M  V30 6659 N 601.587 1.56661 0.17182 0
M  V30 6660 C 602.827 1.83762 0.895029 0
M  V30 6661 C 603.191 0.682752 1.79451 0
M  V30 6662 O 604.392 0.834208 2.55528 0
M  V30 6663 C 602.663 3.15976 1.67015 0
M  V30 6664 S 604.222 3.64558 2.44219 0
M  V30 6665 H 601.04 0.644713 0.299778 0
M  V30 6666 H 603.642 1.94871 0.156701 0
M  V30 6667 H 602.346 3.98021 1.00039 0
M  V30 6668 H 601.877 3.07807 2.44986 0
M  V30 6669 H 603.892 3.31845 3.68909 0
M  V30 6670 N 603.065 -0.440357 1.51323 0
M  V30 6671 C 603.975 -1.55955 1.75258 0
M  V30 6672 C 604.991 -1.61933 0.636687 0
M  V30 6673 O 606.167 -1.79231 0.918593 0
M  V30 6674 C 603.232 -2.9196 1.86977 0
M  V30 6675 C 602.293 -2.96122 3.10822 0
M  V30 6676 C 601.526 -4.2564 3.21973 0
M  V30 6677 O 601.749 -5.17851 2.39137 0
M  V30 6678 O 600.683 -4.36025 4.14929 0
M  V30 6679 H 604.509 -1.38673 2.70191 0
M  V30 6680 H 602.094 -0.623055 1.35788 0
M  V30 6681 H 603.976 -3.72682 1.96688 0
M  V30 6682 H 602.651 -3.09375 0.952307 0
M  V30 6683 H 601.558 -2.14366 3.06591 0
M  V30 6684 H 602.891 -2.83651 4.02247 0
M  V30 6685 N 604.543 -1.41418 -0.695603 0
M  V30 6686 C 605.792 -1.40073 -1.4513 0
M  V30 6687 C 606.105 -0.0130439 -1.95596 0
M  V30 6688 O 607.311 0.123032 -2.71221 0
M  V30 6689 C 605.767 -2.46286 -2.62433 0
M  V30 6690 C 605.375 -3.90962 -2.18753 0
M  V30 6691 C 607.119 -2.54077 -3.40066 0
M  V30 6692 C 605.026 -4.88728 -3.33015 0
M  V30 6693 H 603.956 -0.520903 -0.545138 0
M  V30 6694 H 606.607 -1.67242 -0.75515 0
M  V30 6695 H 604.989 -2.12248 -3.34315 0
M  V30 6696 H 606.163 -4.34248 -1.54161 0
M  V30 6697 H 604.478 -3.86831 -1.54114 0
M  V30 6698 H 607.075 -3.24303 -4.25125 0
M  V30 6699 H 607.418 -1.5776 -3.8525 0
M  V30 6700 H 607.951 -2.87206 -2.75241 0
M  V30 6701 H 604.69 -5.86449 -2.92844 0
M  V30 6702 H 604.21 -4.50091 -3.96457 0
M  V30 6703 H 605.889 -5.09483 -3.98793 0
M  V30 6704 N 606.021 0.929856 -1.27246 0
M  V30 6705 C 607.261 1.6919 -1.14691 0
M  V30 6706 C 607.625 1.896 0.302621 0
M  V30 6707 O 608.826 2.63102 0.550543 0
M  V30 6708 C 607.097 3.02291 -1.9067 0
M  V30 6709 S 608.656 3.93436 -1.94303 0
M  V30 6710 H 605.474 0.581248 -0.409477 0
M  V30 6711 H 608.076 1.10722 -1.61124 0
M  V30 6712 H 606.78 2.85125 -2.95181 0
M  V30 6713 H 606.311 3.65813 -1.44723 0
M  V30 6714 H 608.326 4.85224 -1.0379 0
M  V30 6715 N 607.499 1.09233 1.13605 0
M  V30 6716 C 608.747 0.825525 1.84471 0
M  V30 6717 C 609.068 -0.650702 1.83823 0
M  V30 6718 O 608.338 -1.47204 1.29259 0
M  V30 6719 H 606.918 0.3024 0.683054 0
M  V30 6720 H 609.58 1.38006 1.37624 0
M  V30 6721 H 608.676 1.17727 2.89045 0
M  V30 6722 N 608.977 -1.30795 0.87923 0
M  V30 6723 C 609.925 -2.30231 0.331112 0
M  V30 6724 C 610.919 -1.59918 -0.558794 0
M  V30 6725 O 612.125 -1.74441 -0.443866 0
M  V30 6726 H 608.5 -0.746785 0.088409 0
M  V30 6727 H 610.471 -2.73925 1.18353 0
M  V30 6728 C 609.22 -3.44848 -0.444401 0
M  V30 6729 H 608.543 -3.99131 0.231106 0
M  V30 6730 H 609.983 -4.16516 -0.793109 0
M  V30 6731 C 608.442 -2.94329 -1.63926 0
M  V30 6732 O 608.972 -2.93875 -2.73862 0
M  V30 6733 N 607.178 -2.50413 -1.4745 0
M  V30 6734 H 606.725 -2.50982 -0.58015 0
M  V30 6735 H 606.683 -2.16969 -2.27534 0
M  V30 6736 N 610.455 -0.639598 -1.44038 0
M  V30 6737 C 611.685 -0.154586 -2.06021 0
M  V30 6738 C 612.093 1.17951 -1.47933 0
M  V30 6739 O 611.436 1.73627 -0.59994 0
M  V30 6740 C 611.498 0.0255459 -3.59491 0
M  V30 6741 C 611.162 -1.2317 -4.40089 0
M  V30 6742 C 612.159 -2.15735 -4.73027 0
M  V30 6743 C 609.844 -1.46949 -4.80324 0
M  V30 6744 C 611.838 -3.30382 -5.45093 0
M  V30 6745 C 609.525 -2.61891 -5.52138 0
M  V30 6746 C 610.523 -3.53433 -5.84443 0
M  V30 6747 O 610.211 -4.6637 -6.54793 0
M  V30 6748 H 609.943 -0.0808543 -0.671147 0
M  V30 6749 H 612.497 -0.876541 -1.85758 0
M  V30 6750 H 610.727 0.802733 -3.78276 0
M  V30 6751 H 612.416 0.466184 -4.03214 0
M  V30 6752 H 613.182 -1.98602 -4.42473 0
M  V30 6753 H 609.061 -0.765815 -4.54595 0
M  V30 6754 H 612.605 -4.01856 -5.70226 0
M  V30 6755 H 608.502 -2.78964 -5.82108 0
M  V30 6756 H 609.27 -4.6546 -6.73267 0
M  V30 6757 N 611.933 1.52934 -0.380664 0
M  V30 6758 C 613.161 2.05886 0.204599 0
M  V30 6759 C 613.576 1.25305 1.41223 0
M  V30 6760 O 612.933 0.297504 1.80059 0
M  V30 6761 C 612.984 3.56764 0.583249 0
M  V30 6762 O 612.705 4.34292 -0.576398 0
M  V30 6763 C 614.206 4.2603 1.2253 0
M  V30 6764 H 611.426 0.670193 0.0328991 0
M  V30 6765 H 613.97 1.97148 -0.543397 0
M  V30 6766 H 612.125 3.65603 1.28115 0
M  V30 6767 H 612.539 5.23819 -0.267119 0
M  V30 6768 H 614.013 5.32868 1.44068 0
M  V30 6769 H 614.49 3.80698 2.19011 0
M  V30 6770 H 615.096 4.21485 0.568407 0
M  V30 6771 N 613.412 0.11024 1.57214 0
M  V30 6772 C 614.642 -0.557025 1.98949 0
M  V30 6773 C 615.05 -1.61317 0.988606 0
M  V30 6774 O 614.393 -1.83679 -0.0279159 0
M  V30 6775 C 614.455 -1.24956 3.37085 0
M  V30 6776 C 614.119 -0.342398 4.55716 0
M  V30 6777 C 615.116 0.415511 5.18237 0
M  V30 6778 C 612.801 -0.256029 5.01647 0
M  V30 6779 C 614.795 1.24761 6.25071 0
M  V30 6780 C 612.482 0.579713 6.08344 0
M  V30 6781 C 613.48 1.33017 6.69922 0
M  V30 6782 O 613.168 2.15205 7.74559 0
M  V30 6783 H 612.9 -0.152792 0.658506 0
M  V30 6784 H 615.454 0.19076 2.04512 0
M  V30 6785 H 613.684 -2.04424 3.2825 0
M  V30 6786 H 615.373 -1.81286 3.63167 0
M  V30 6787 H 616.139 0.358605 4.83672 0
M  V30 6788 H 612.018 -0.829831 4.5347 0
M  V30 6789 H 615.562 1.83386 6.73064 0
M  V30 6790 H 611.459 0.638044 6.42339 0
M  V30 6791 H 612.227 2.08052 7.91617 0
M  V30 6792 N 614.89 -1.56749 -0.16351 0
M  V30 6793 C 616.306 -1.51043 -0.515567 0
M  V30 6794 C 616.506 -0.815855 -1.84245 0
M  V30 6795 O 615.562 -0.379477 -2.49632 0
M  V30 6796 C 616.875 -2.95791 -0.541114 0
M  V30 6797 C 618.423 -3.0664 -0.627776 0
M  V30 6798 C 618.898 -4.52861 -0.684141 0
M  V30 6799 N 620.389 -4.5714 -0.746818 0
M  V30 6800 C 621.124 -5.67634 -0.811137 0
M  V30 6801 N 620.62 -6.8774 -0.835811 0
M  V30 6802 N 622.413 -5.55624 -0.850756 0
M  V30 6803 H 614.564 -2.00307 0.70645 0
M  V30 6804 H 616.827 -0.912876 0.255659 0
M  V30 6805 H 616.533 -3.49797 0.365329 0
M  V30 6806 H 616.407 -3.50858 -1.38487 0
M  V30 6807 H 618.794 -2.52663 -1.52464 0
M  V30 6808 H 618.875 -2.54645 0.242805 0
M  V30 6809 H 618.519 -5.07472 0.2085 0
M  V30 6810 H 618.449 -5.02621 -1.57098 0
M  V30 6811 H 620.94 -3.70669 -0.735717 0
M  V30 6812 H 621.253 -7.67701 -0.886279 0
M  V30 6813 H 619.598 -6.90334 -0.803958 0
M  V30 6814 H 622.789 -4.60709 -0.828535 0
M  V30 6815 H 622.962 -6.41756 -0.897418 0
M  V30 6816 N 616.368 0.432326 -1.51554 0
M  V30 6817 C 617.616 1.17901 -1.64146 0
M  V30 6818 C 617.937 1.91604 -0.362367 0
M  V30 6819 O 617.207 1.85764 0.621968 0
M  V30 6820 H 615.787 0.438206 -0.604966 0
M  V30 6821 H 618.449 0.495172 -1.88505 0
M  V30 6822 H 617.545 1.90584 -2.47152 0
M  V30 6823 N 617.846 1.41785 0.688094 0
M  V30 6824 C 619.257 1.3701 1.26828 0
M  V30 6825 C 619.608 0.056835 1.96118 0
M  V30 6826 O 618.733 -0.84475 1.99231 0
M  V30 6827 C 619.328 2.48168 2.30648 0
M  V30 6828 C 617.887 2.46766 2.84224 0
M  V30 6829 C 617.034 2.27633 1.58361 0
M  V30 6830 H 619.985 1.51192 0.482351 0
M  V30 6831 H 620.006 2.17655 3.121 0
M  V30 6832 H 619.518 3.43735 1.80188 0
M  V30 6833 H 617.619 1.54978 3.3884 0
M  V30 6834 H 617.732 3.43342 3.34145 0
M  V30 6835 H 616.096 1.75648 1.84445 0
M  V30 6836 H 616.879 3.25238 1.09887 0
M  V30 6837 N 619.324 -0.923095 1.27737 0
M  V30 6838 C 620.271 -2.02432 1.1086 0
M  V30 6839 C 621.241 -1.66098 0.00835195 0
M  V30 6840 O 622.426 -1.90027 0.171542 0
M  V30 6841 C 619.566 -3.36476 0.766671 0
M  V30 6842 C 618.679 -3.85737 1.94501 0
M  V30 6843 C 617.814 -5.08249 1.54455 0
M  V30 6844 C 616.853 -5.49818 2.6901 0
M  V30 6845 N 615.99 -6.63524 2.29521 0
M  V30 6846 H 620.83 -2.16201 2.05089 0
M  V30 6847 H 618.367 -1.05909 1.02087 0
M  V30 6848 H 620.325 -4.13569 0.549223 0
M  V30 6849 H 618.955 -3.22502 -0.13867 0
M  V30 6850 H 618.007 -3.04883 2.27487 0
M  V30 6851 H 619.319 -4.12513 2.80419 0
M  V30 6852 H 618.473 -5.92857 1.28862 0
M  V30 6853 H 617.212 -4.83261 0.656534 0
M  V30 6854 H 616.217 -4.63757 2.95313 0
M  V30 6855 H 617.442 -5.76799 3.5844 0
M  V30 6856 H 615.388 -6.40185 1.43177 0
M  V30 6857 H 615.305 -6.89978 3.08977 0
M  V30 6858 H 616.573 -7.51461 2.07187 0
M  V30 6859 N 620.802 -1.09834 -1.13024 0
M  V30 6860 C 621.765 -0.745058 -2.16752 0
M  V30 6861 C 622.765 0.227435 -1.59183 0
M  V30 6862 O 623.955 0.0050786 -1.74199 0
M  V30 6863 C 621.087 -0.102543 -3.40746 0
M  V30 6864 H 622.28 -1.66375 -2.49518 0
M  V30 6865 H 619.833 -0.898061 -1.27924 0
M  V30 6866 H 620.568 0.827177 -3.13573 0
M  V30 6867 H 620.353 -0.80235 -3.83803 0
M  V30 6868 H 621.843 0.129082 -4.174 0
M  V30 6869 N 622.28 1.30327 -0.886154 0
M  V30 6870 C 623.527 1.96097 -0.505192 0
M  V30 6871 C 623.855 1.69952 0.945868 0
M  V30 6872 O 623.11 0.997653 1.68361 0
M  V30 6873 C 623.409 3.49906 -0.728042 0
M  V30 6874 C 623.075 3.96103 -2.15437 0
M  V30 6875 C 621.737 4.08428 -2.5444 0
M  V30 6876 C 624.089 4.20177 -3.08384 0
M  V30 6877 C 621.417 4.42189 -3.85598 0
M  V30 6878 C 623.769 4.55407 -4.39075 0
M  V30 6879 C 622.433 4.65941 -4.7797 0
M  V30 6880 H 621.703 0.71757 -0.184863 0
M  V30 6881 H 624.35 1.55171 -1.12223 0
M  V30 6882 H 622.655 3.9179 -0.027978 0
M  V30 6883 H 624.352 3.98869 -0.412862 0
M  V30 6884 H 620.942 3.87017 -1.84162 0
M  V30 6885 H 625.126 4.10134 -2.7947 0
M  V30 6886 H 620.382 4.48544 -4.15473 0
M  V30 6887 H 624.556 4.72986 -5.11133 0
M  V30 6888 H 622.183 4.91856 -5.79639 0
M  V30 6889 N 623.758 0.647228 1.43697 0
M  V30 6890 C 624.69 -0.0866232 2.29036 0
M  V30 6891 C 625.703 -0.793051 1.42178 0
M  V30 6892 O 626.892 -0.651807 1.66174 0
M  V30 6893 C 623.992 -1.14552 3.18953 0
M  V30 6894 C 623.165 -0.518422 4.34317 0
M  V30 6895 C 622.224 -1.4734 5.05151 0
M  V30 6896 O 621.25 -0.984312 5.60625 0
M  V30 6897 N 622.452 -2.8075 5.08094 0
M  V30 6898 H 625.217 0.645834 2.92659 0
M  V30 6899 H 622.778 0.489567 1.54321 0
M  V30 6900 H 624.77 -1.78505 3.63205 0
M  V30 6901 H 623.34 -1.78001 2.56971 0
M  V30 6902 H 622.56 0.300079 3.93056 0
M  V30 6903 H 623.848 -0.080401 5.08736 0
M  V30 6904 H 623.246 -3.23052 4.64386 0
M  V30 6905 H 621.803 -3.40022 5.56083 0
M  V30 6906 N 625.236 -1.5273 0.388769 0
M  V30 6907 C 626.652 -1.59553 0.0387049 0
M  V30 6908 C 626.852 -1.40278 -1.44652 0
M  V30 6909 O 625.908 -1.21951 -2.21098 0
M  V30 6910 C 627.221 -2.9625 0.515409 0
M  V30 6911 C 628.769 -3.09426 0.471621 0
M  V30 6912 C 629.244 -4.48572 0.924505 0
M  V30 6913 N 630.735 -4.54754 0.880496 0
M  V30 6914 C 631.47 -5.60653 1.20234 0
M  V30 6915 N 630.966 -6.74198 1.59463 0
M  V30 6916 N 632.759 -5.50755 1.12363 0
M  V30 6917 H 624.91 -1.63508 1.35569 0
M  V30 6918 H 627.173 -0.768097 0.555636 0
M  V30 6919 H 626.879 -3.15569 1.5527 0
M  V30 6920 H 626.753 -3.77102 -0.085792 0
M  V30 6921 H 629.14 -2.89804 -0.556588 0
M  V30 6922 H 629.221 -2.30528 1.10862 0
M  V30 6923 H 628.865 -4.68936 1.95094 0
M  V30 6924 H 628.795 -5.25935 0.264524 0
M  V30 6925 H 631.286 -3.73237 0.591815 0
M  V30 6926 H 631.599 -7.5097 1.82385 0
M  V30 6927 H 629.944 -6.75531 1.63349 0
M  V30 6928 H 633.135 -4.6093 0.816169 0
M  V30 6929 H 633.308 -6.33184 1.37777 0
M  V30 6930 N 626.714 -0.118576 -1.57153 0
M  V30 6931 C 627.664 0.842924 -2.11846 0
M  V30 6932 C 628.648 1.22845 -1.03914 0
M  V30 6933 O 629.84 1.19961 -1.30148 0
M  V30 6934 C 626.969 2.09312 -2.72109 0
M  V30 6935 C 626.055 1.73198 -3.87122 0
M  V30 6936 N 626.446 1.07758 -4.94188 0
M  V30 6937 C 624.744 2.02659 -3.97298 0
M  V30 6938 C 625.445 0.907741 -5.74574 0
M  V30 6939 N 624.421 1.4326 -5.24383 0
M  V30 6940 H 628.223 0.333416 -2.92003 0
M  V30 6941 H 625.737 0.0839073 -1.62183 0
M  V30 6942 H 627.734 2.79162 -3.09635 0
M  V30 6943 H 626.394 2.60807 -1.93416 0
M  V30 6944 H 627.405 0.741613 -5.12563 0
M  V30 6945 H 624.082 2.56204 -3.29645 0
M  V30 6946 H 625.472 0.394112 -6.70743 0
M  V30 6947 N 628.193 1.56834 0.155195 0
M  V30 6948 C 629.44 1.82898 0.869179 0
M  V30 6949 C 629.768 0.698194 1.81537 0
M  V30 6950 O 629.023 -0.313404 1.93174 0
M  V30 6951 C 629.322 3.15239 1.68402 0
M  V30 6952 C 628.988 4.42123 0.885341 0
M  V30 6953 C 627.65 4.76583 0.664971 0
M  V30 6954 C 630.002 5.20178 0.326234 0
M  V30 6955 C 627.33 5.86566 -0.125346 0
M  V30 6956 C 629.682 6.3099 -0.45108 0
M  V30 6957 C 628.346 6.64006 -0.682102 0
M  V30 6958 H 627.616 0.66927 0.318055 0
M  V30 6959 H 630.263 1.91036 0.133241 0
M  V30 6960 H 628.568 3.02515 2.48982 0
M  V30 6961 H 630.265 3.32618 2.23978 0
M  V30 6962 H 626.855 4.15102 1.06716 0
M  V30 6963 H 631.039 4.93936 0.483787 0
M  V30 6964 H 626.295 6.10594 -0.313915 0
M  V30 6965 H 630.469 6.9067 -0.89149 0
M  V30 6966 H 628.096 7.49065 -1.29636 0
M  V30 6967 N 629.671 -0.424282 1.51781 0
M  V30 6968 C 630.634 -1.49848 1.73431 0
M  V30 6969 C 631.634 -1.49016 0.604225 0
M  V30 6970 O 632.824 -1.50808 0.871935 0
M  V30 6971 C 629.956 -2.89332 1.80277 0
M  V30 6972 H 631.149 -1.3195 2.69312 0
M  V30 6973 H 628.702 -0.653809 1.41968 0
M  V30 6974 H 629.437 -3.12618 0.862568 0
M  V30 6975 H 629.222 -2.9134 2.62419 0
M  V30 6976 H 630.712 -3.67233 1.98821 0
M  V30 6977 N 631.149 -1.42148 -0.680565 0
M  V30 6978 C 632.059 -1.47565 -1.82378 0
M  V30 6979 C 633.075 -0.36489 -1.70131 0
M  V30 6980 O 634.251 -0.614916 -1.91783 0
M  V30 6981 C 631.316 -1.37013 -3.18478 0
M  V30 6982 C 630.377 -2.58532 -3.42724 0
M  V30 6983 C 629.61 -2.48473 -4.72331 0
M  V30 6984 O 629.833 -1.51745 -5.49845 0
M  V30 6985 O 628.767 -3.38503 -4.97694 0
M  V30 6986 H 632.593 -2.44045 -1.80764 0
M  V30 6987 H 630.178 -1.23849 -0.835569 0
M  V30 6988 H 632.06 -1.33468 -3.99705 0
M  V30 6989 H 630.735 -0.436552 -3.20743 0
M  V30 6990 H 629.642 -2.67652 -2.61368 0
M  V30 6991 H 630.975 -3.50769 -3.45286 0
M  V30 6992 N 632.627 0.916307 -1.28225 0
M  V30 6993 C 633.873 1.66794 -1.1641 0
M  V30 6994 C 634.228 1.90278 0.284986 0
M  V30 6995 O 633.521 1.49023 1.20427 0
M  V30 6996 C 633.715 3.03125 -1.8934 0
M  V30 6997 C 633.544 2.92947 -3.41192 0
M  V30 6998 C 632.314 2.9461 -4.10528 0
M  V30 6999 C 634.512 2.7121 -4.36978 0
M  V30 7000 N 632.494 2.74993 -5.48864 0
M  V30 7001 C 633.865 2.60411 -5.6266 0
M  V30 7002 C 635.92 2.56187 -4.26934 0
M  V30 7003 C 634.623 2.3612 -6.79441 0
M  V30 7004 C 636.649 2.33275 -5.43449 0
M  V30 7005 C 636.011 2.23228 -6.68093 0
M  V30 7006 H 632.11 0.616654 -0.480896 0
M  V30 7007 H 634.694 1.08237 -1.61842 0
M  V30 7008 H 632.865 3.59774 -1.46346 0
M  V30 7009 H 634.597 3.67294 -1.69932 0
M  V30 7010 H 631.352 3.0527 -3.62087 0
M  V30 7011 H 631.776 2.68284 -6.21573 0
M  V30 7012 H 636.418 2.62707 -3.31278 0
M  V30 7013 H 634.136 2.28339 -7.75169 0
M  V30 7014 H 637.722 2.22519 -5.37565 0
M  V30 7015 H 636.602 2.05741 -7.5673 0
M  V30 7016 N 634.105 1.10431 1.1244 0
M  V30 7017 C 635.521 0.836096 1.35947 0
M  V30 7018 C 635.721 -0.544475 1.94004 0
M  V30 7019 O 634.777 -1.29735 2.16622 0
M  V30 7020 C 636.09 1.93575 2.30107 0
M  V30 7021 C 637.638 1.9642 2.43697 0
M  V30 7022 C 638.113 3.05559 3.41171 0
M  V30 7023 N 639.604 3.04865 3.48728 0
M  V30 7024 C 640.339 3.85954 4.24061 0
M  V30 7025 N 639.835 4.76977 5.02458 0
M  V30 7026 N 641.628 3.74172 4.19466 0
M  V30 7027 H 633.779 1.9942 0.731124 0
M  V30 7028 H 636.042 0.866607 0.384312 0
M  V30 7029 H 635.748 2.92943 1.94621 0
M  V30 7030 H 635.622 1.8229 3.30227 0
M  V30 7031 H 638.009 0.97685 2.78463 0
M  V30 7032 H 638.09 2.11782 1.43465 0
M  V30 7033 H 637.734 4.04513 3.07135 0
M  V30 7034 H 637.664 2.87438 4.41234 0
M  V30 7035 H 640.155 2.38908 2.92799 0
M  V30 7036 H 640.468 5.35409 5.57277 0
M  V30 7037 H 638.813 4.81006 5.01655 0
M  V30 7038 H 642.004 3.02412 3.57302 0
M  V30 7039 H 642.177 4.37602 4.77921 0
M  V30 7040 N 635.583 -1.29855 0.893053 0
M  V30 7041 C 636.533 -2.25493 0.337211 0
M  V30 7042 C 637.517 -1.51606 -0.53894 0
M  V30 7043 O 638.709 -1.72828 -0.382043 0
M  V30 7044 C 635.838 -3.40467 -0.440117 0
M  V30 7045 C 634.924 -4.217 0.450578 0
M  V30 7046 N 635.315 -4.81312 1.55476 0
M  V30 7047 C 633.613 -4.45315 0.247154 0
M  V30 7048 C 634.314 -5.42241 2.10593 0
M  V30 7049 N 633.29 -5.25267 1.39982 0
M  V30 7050 H 637.092 -2.69137 1.18079 0
M  V30 7051 H 634.606 -1.44388 0.743359 0
M  V30 7052 H 636.603 -4.08038 -0.855021 0
M  V30 7053 H 635.263 -2.98361 -1.28104 0
M  V30 7054 H 636.274 -4.80291 1.93755 0
M  V30 7055 H 632.951 -4.13782 -0.555939 0
M  V30 7056 H 634.341 -5.99517 3.03362 0
M  V30 7057 N 637.061 -0.65484 -1.43351 0
M  V30 7058 C 638.024 0.0263562 -2.29185 0
M  V30 7059 C 639.024 0.748951 -1.42293 0
M  V30 7060 O 640.214 0.589957 -1.63906 0
M  V30 7061 C 637.346 1.04806 -3.2439 0
M  V30 7062 H 638.539 -0.728883 -2.90908 0
M  V30 7063 H 636.092 -0.416149 -1.50658 0
M  V30 7064 H 636.827 1.83247 -2.67565 0
M  V30 7065 H 636.612 0.533554 -3.88453 0
M  V30 7066 H 638.102 1.52372 -3.88809 0
M  V30 7067 N 638.539 1.52521 -0.396863 0
M  V30 7068 C 639.489 2.2348 0.451722 0
M  V30 7069 C 640.473 1.2415 1.0235 0
M  V30 7070 O 641.665 1.4945 0.948348 0
M  V30 7071 C 638.794 3.05067 1.57445 0
M  V30 7072 C 637.88 4.11799 1.01404 0
M  V30 7073 N 638.271 5.05482 0.179234 0
M  V30 7074 C 636.569 4.27064 1.28578 0
M  V30 7075 C 637.27 5.81552 -0.131202 0
M  V30 7076 N 636.246 5.41523 0.474735 0
M  V30 7077 H 640.048 2.93269 -0.192534 0
M  V30 7078 H 637.562 1.61081 -0.206591 0
M  V30 7079 H 639.559 3.54446 2.19485 0
M  V30 7080 H 638.219 2.36816 2.22145 0
M  V30 7081 H 639.23 5.17573 -0.18411 0
M  V30 7082 H 635.907 3.70042 1.93327 0
M  V30 7083 H 637.297 6.67023 -0.808061 0
M  V30 7084 N 640.017 0.126909 1.57088 0
M  V30 7085 C 641.265 -0.528123 1.95078 0
M  V30 7086 C 641.586 -1.66708 1.0116 0
M  V30 7087 O 640.856 -1.95777 0.0693527 0
M  V30 7088 H 639.436 -0.198087 0.720257 0
M  V30 7089 H 642.098 0.197703 1.93895 0
M  V30 7090 H 641.194 -0.917507 2.98309 0
M  V30 7091 N 641.495 -1.56914 -0.146875 0
M  V30 7092 C 642.428 -1.93425 -1.21087 0
M  V30 7093 C 643.406 -0.800106 -1.41552 0
M  V30 7094 O 644.59 -1.05572 -1.56162 0
M  V30 7095 C 641.717 -2.20639 -2.56975 0
M  V30 7096 C 640.763 -3.43279 -2.53104 0
M  V30 7097 S 641.596 -4.96836 -1.99786 0
M  V30 7098 C 642.752 -5.27172 -3.37403 0
M  V30 7099 H 642.985 -2.8337 -0.899378 0
M  V30 7100 H 640.518 -1.50322 -0.352494 0
M  V30 7101 H 642.476 -2.36998 -3.35175 0
M  V30 7102 H 641.137 -1.31357 -2.85314 0
M  V30 7103 H 640.33 -3.59599 -3.53136 0
M  V30 7104 H 639.932 -3.26163 -1.83012 0
M  V30 7105 H 642.224 -5.20647 -4.33513 0
M  V30 7106 H 643.167 -6.28626 -3.25937 0
M  V30 7107 H 643.575 -4.54687 -3.34544 0
M  V30 7108 N 642.974 0.416227 -1.52004 0
M  V30 7109 C 644.39 0.754319 -1.40649 0
M  V30 7110 C 644.59 1.95059 -0.505392 0
M  V30 7111 O 643.646 2.5248 0.0315057 0
M  V30 7112 C 644.959 1.0149 -2.83055 0
M  V30 7113 C 646.507 1.11805 -2.9235 0
M  V30 7114 C 646.982 1.41144 -4.35709 0
M  V30 7115 N 648.473 1.48024 -4.38911 0
M  V30 7116 C 649.208 1.72338 -5.46889 0
M  V30 7117 N 648.704 1.94303 -6.64995 0
M  V30 7118 N 650.497 1.74294 -5.34395 0
M  V30 7119 H 642.648 -0.371324 -2.09129 0
M  V30 7120 H 644.911 -0.103811 -0.942299 0
M  V30 7121 H 644.617 0.208345 -3.51082 0
M  V30 7122 H 644.491 1.93697 -3.23668 0
M  V30 7123 H 646.878 1.91521 -2.24508 0
M  V30 7124 H 646.959 0.17451 -2.55204 0
M  V30 7125 H 646.603 0.619484 -5.04108 0
M  V30 7126 H 646.533 2.36739 -4.70385 0
M  V30 7127 H 649.024 1.32868 -3.53772 0
M  V30 7128 H 649.337 2.12286 -7.43071 0
M  V30 7129 H 647.682 1.91582 -6.68073 0
M  V30 7130 H 650.873 1.56667 -4.41104 0
M  V30 7131 H 651.046 1.92904 -6.18621 0
M  V30 7132 N 644.452 1.42507 0.673017 0
M  V30 7133 C 645.692 1.44559 1.44507 0
M  V30 7134 C 646.056 0.0606206 1.91904 0
M  V30 7135 O 647.257 -0.044139 2.68764 0
M  V30 7136 C 645.528 2.44291 2.60877 0
M  V30 7137 S 647.087 2.65059 3.49699 0
M  V30 7138 H 643.905 0.51181 0.49353 0
M  V30 7139 H 646.507 1.79124 0.783256 0
M  V30 7140 H 645.211 3.43685 2.24297 0
M  V30 7141 H 644.742 2.11157 3.31928 0
M  V30 7142 H 646.757 1.93494 4.56919 0
M  V30 7143 N 645.93 -0.909495 1.28709 0
M  V30 7144 C 646.86 -2.0291 1.15542 0
M  V30 7145 C 647.841 -1.7002 0.0521017 0
M  V30 7146 O 649.026 -1.92835 0.229849 0
M  V30 7147 C 646.156 -3.37458 0.820935 0
M  V30 7148 C 645.11 -3.84524 1.87949 0
M  V30 7149 C 644.436 -5.16086 1.39854 0
M  V30 7150 C 645.736 -4.05918 3.28676 0
M  V30 7151 H 647.43 -2.14183 2.09203 0
M  V30 7152 H 644.976 -1.02913 1.00722 0
M  V30 7153 H 646.929 -4.1528 0.715571 0
M  V30 7154 H 645.653 -3.26249 -0.151374 0
M  V30 7155 H 644.312 -3.08911 1.97408 0
M  V30 7156 H 643.96 -5.01284 0.41518 0
M  V30 7157 H 643.66 -5.48547 2.1064 0
M  V30 7158 H 645.184 -5.96459 1.30649 0
M  V30 7159 H 646.598 -4.74252 3.22115 0
M  V30 7160 H 644.995 -4.49717 3.97334 0
M  V30 7161 H 646.065 -3.10583 3.72379 0
M  V30 7162 N 647.408 -1.11026 -1.11852 0
M  V30 7163 C 648.656 -0.854769 -1.83134 0
M  V30 7164 C 648.977 0.621375 -1.84835 0
M  V30 7165 O 648.247 1.45129 -1.31584 0
M  V30 7166 H 646.827 -0.313229 -0.678157 0
M  V30 7167 H 649.489 -1.40178 -1.35411 0
M  V30 7168 H 648.585 -1.22311 -2.87135 0
M  V30 7169 N 648.886 1.2938 -0.899927 0
M  V30 7170 C 650.135 1.9483 -0.521937 0
M  V30 7171 C 650.448 1.71725 0.936473 0
M  V30 7172 O 651.654 2.31282 1.42199 0
M  V30 7173 C 650.11 3.48911 -0.88255 0
M  V30 7174 C 649.718 3.80815 -2.35974 0
M  V30 7175 C 651.462 4.20595 -0.57448 0
M  V30 7176 C 649.369 5.28142 -2.66121 0
M  V30 7177 H 648.299 0.729285 -0.191468 0
M  V30 7178 H 650.95 1.47103 -1.09695 0
M  V30 7179 H 649.332 3.95293 -0.236459 0
M  V30 7180 H 650.506 3.45291 -3.05141 0
M  V30 7181 H 648.821 3.22271 -2.63686 0
M  V30 7182 H 651.418 5.29031 -0.776556 0
M  V30 7183 H 651.761 4.13442 0.487005 0
M  V30 7184 H 652.294 3.79945 -1.17842 0
M  V30 7185 H 649.033 5.4036 -3.71068 0
M  V30 7186 H 648.553 5.64913 -2.01578 0
M  V30 7187 H 650.232 5.95738 -2.52399 0
M  V30 7188 N 650.364 0.662433 1.43002 0
M  V30 7189 C 651.775 0.258315 1.84904 0
M  V30 7190 C 652.126 -1.19703 1.55453 0
M  V30 7191 O 651.251 -1.91484 1.00811 0
M  V30 7192 C 651.846 0.462047 3.35635 0
M  V30 7193 C 650.405 0.112165 3.76233 0
M  V30 7194 C 649.552 0.760479 2.66668 0
M  V30 7195 H 652.503 0.865467 1.33024 0
M  V30 7196 H 652.524 -0.289646 3.79396 0
M  V30 7197 H 652.036 1.52135 3.57039 0
M  V30 7198 H 650.137 -0.944179 3.60439 0
M  V30 7199 H 650.25 0.544058 4.76001 0
M  V30 7200 H 648.614 0.192887 2.53969 0
M  V30 7201 H 649.397 1.82299 2.90898 0
M  V30 7202 N 651.842 -1.52309 0.404946 0
M  V30 7203 C 652.79 -2.28452 -0.437321 0
M  V30 7204 C 653.784 -1.32975 -1.04948 0
M  V30 7205 O 654.99 -1.50451 -0.988159 0
M  V30 7206 H 651.365 -0.734824 -0.159805 0
M  V30 7207 H 653.336 -2.97542 0.22615 0
M  V30 7208 C 652.085 -3.11536 -1.54404 0
M  V30 7209 H 651.408 -3.84871 -1.08233 0
M  V30 7210 H 652.848 -3.67926 -2.10729 0
M  V30 7211 C 651.307 -2.24833 -2.50902 0
M  V30 7212 O 651.837 -1.88574 -3.54687 0
M  V30 7213 N 650.043 -1.88685 -2.21012 0
M  V30 7214 H 649.59 -2.18371 -1.36646 0
M  V30 7215 H 649.548 -1.30966 -2.85824 0
M  V30 7216 N 653.32 -0.135238 -1.57019 0
M  V30 7217 C 654.548 0.526066 -2.001 0
M  V30 7218 C 654.963 1.59184 -1.01519 0
M  V30 7219 O 654.32 1.82497 -0.0104258 0
M  V30 7220 C 654.371 1.13744 -3.43139 0
M  V30 7221 O 654.092 0.114259 -4.37951 0
M  V30 7222 C 655.593 1.8805 -4.01438 0
M  V30 7223 H 652.813 0.137962 -0.656664 0
M  V30 7224 H 655.357 -0.226359 -2.03243 0
M  V30 7225 H 653.512 1.84056 -3.40885 0
M  V30 7226 H 653.926 0.56058 -5.21496 0
M  V30 7227 H 655.4 2.26133 -5.03555 0
M  V30 7228 H 655.877 2.76194 -3.41487 0
M  V30 7229 H 656.483 1.22464 -4.07287 0
M  V30 7230 N 654.798 1.5699 0.138552 0
M  V30 7231 C 655.761 1.97984 1.15478 0
M  V30 7232 C 656.761 0.867416 1.35398 0
M  V30 7233 O 657.951 1.13387 1.32246 0
M  V30 7234 C 655.083 2.3031 2.51337 0
M  V30 7235 H 656.276 2.88953 0.802896 0
M  V30 7236 H 653.829 1.51555 0.382189 0
M  V30 7237 H 654.564 1.42159 2.91481 0
M  V30 7238 H 654.349 3.11425 2.38237 0
M  V30 7239 H 655.839 2.62834 3.24512 0
M  V30 7240 N 656.276 -0.40816 1.52223 0
M  V30 7241 C 657.226 -1.49648 1.72016 0
M  V30 7242 C 658.21 -1.50311 0.574069 0
M  V30 7243 O 659.402 -1.56271 0.831173 0
M  V30 7244 C 656.531 -2.87566 1.87512 0
M  V30 7245 C 655.617 -2.91547 3.07995 0
M  V30 7246 N 656.008 -2.65225 4.30685 0
M  V30 7247 C 654.306 -3.22715 3.07849 0
M  V30 7248 C 655.007 -2.75799 5.12162 0
M  V30 7249 N 653.983 -3.08719 4.4743 0
M  V30 7250 H 657.785 -1.28093 2.64517 0
M  V30 7251 H 655.299 -0.61588 1.50269 0
M  V30 7252 H 657.296 -3.65899 1.99809 0
M  V30 7253 H 655.956 -3.10118 0.962114 0
M  V30 7254 H 656.967 -2.39601 4.59142 0
M  V30 7255 H 653.644 -3.50856 2.26289 0
M  V30 7256 H 655.034 -2.59155 6.1991 0
M  V30 7257 N 657.755 -1.42862 -0.66545 0
M  V30 7258 C 659.002 -1.4383 -1.42546 0
M  V30 7259 C 659.33 -0.0581114 -1.94413 0
M  V30 7260 O 658.585 0.935002 -1.71919 0
M  V30 7261 C 658.884 -2.4175 -2.63233 0
M  V30 7262 C 658.55 -3.87915 -2.29854 0
M  V30 7263 C 657.212 -4.27726 -2.20463 0
M  V30 7264 C 659.564 -4.80074 -2.02924 0
M  V30 7265 C 656.892 -5.57666 -1.82279 0
M  V30 7266 C 659.244 -6.10366 -1.66242 0
M  V30 7267 C 657.908 -6.49167 -1.55367 0
M  V30 7268 H 657.178 -0.52631 -0.521612 0
M  V30 7269 H 659.825 -1.75863 -0.757914 0
M  V30 7270 H 658.13 -2.03077 -3.35063 0
M  V30 7271 H 659.827 -2.39759 -3.21429 0
M  V30 7272 H 656.417 -3.564 -2.3807 0
M  V30 7273 H 660.601 -4.50097 -2.09108 0
M  V30 7274 H 655.857 -5.8658 -1.72436 0
M  V30 7275 H 660.031 -6.81258 -1.44432 0
M  V30 7276 H 657.658 -7.49761 -1.2555 0
M  V30 7277 N 659.233 0.902656 -1.29189 0
M  V30 7278 C 660.196 1.98797 -1.14071 0
M  V30 7279 C 661.196 1.60615 -0.0770549 0
M  V30 7280 O 662.386 1.71165 -0.323753 0
M  V30 7281 C 659.518 3.32688 -0.743739 0
M  V30 7282 H 660.711 2.13637 -2.10473 0
M  V30 7283 H 658.264 1.08678 -1.12334 0
M  V30 7284 H 658.999 3.23549 0.220554 0
M  V30 7285 H 658.784 3.61765 -1.51223 0
M  V30 7286 H 660.274 4.12337 -0.660935 0
M  V30 7287 N 660.711 1.11618 1.11262 0
M  V30 7288 C 661.659 0.771291 2.1944 0
M  V30 7289 C 662.653 -0.238073 1.67719 0
M  V30 7290 O 663.859 -0.0971628 1.79738 0
M  V30 7291 H 660.234 0.231548 0.715465 0
M  V30 7292 H 662.205 1.69226 2.45775 0
M  V30 7293 C 660.954 0.232765 3.4692 0
M  V30 7294 H 660.277 1.00072 3.87073 0
M  V30 7295 H 661.717 0.0296561 4.2399 0
M  V30 7296 C 660.176 -1.03738 3.20531 0
M  V30 7297 O 660.706 -2.11675 3.41404 0
M  V30 7298 N 658.912 -0.960906 2.74253 0
M  V30 7299 H 658.459 -0.0824323 2.57468 0
M  V30 7300 H 658.417 -1.8114 2.56974 0
M  V30 7301 N 662.189 -1.289 0.906776 0
M  V30 7302 C 663.435 -1.95558 0.53712 0
M  V30 7303 C 663.768 -1.71262 -0.915582 0
M  V30 7304 O 663.043 -1.02961 -1.65013 0
M  V30 7305 C 663.326 -3.50198 0.838645 0
M  V30 7306 C 663.179 -3.83923 2.34357 0
M  V30 7307 C 664.498 -4.38861 0.329988 0
M  V30 7308 H 661.617 -0.710289 0.196617 0
M  V30 7309 H 664.259 -1.52392 1.13475 0
M  V30 7310 H 662.409 -3.87096 0.330024 0
M  V30 7311 H 664.081 -3.56933 2.92227 0
M  V30 7312 H 662.324 -3.31215 2.80141 0
M  V30 7313 H 662.995 -4.91883 2.5051 0
M  V30 7314 H 665.471 -4.08996 0.765609 0
M  V30 7315 H 664.347 -5.45931 0.570105 0
M  V30 7316 H 664.608 -4.35352 -0.769511 0
M  V30 7317 N 663.667 -0.670007 -1.42649 0
M  V30 7318 C 664.895 -0.19854 -2.05945 0
M  V30 7319 C 665.31 1.14243 -1.50313 0
M  V30 7320 O 664.667 1.70872 -0.641027 0
M  V30 7321 C 664.718 -0.11966 -3.61302 0
M  V30 7322 O 664.439 -1.40764 -4.1487 0
M  V30 7323 C 665.94 0.375878 -4.41704 0
M  V30 7324 H 663.16 -0.0976894 -0.663851 0
M  V30 7325 H 665.704 -0.915392 -1.82868 0
M  V30 7326 H 663.859 0.547851 -3.83507 0
M  V30 7327 H 664.273 -1.27784 -5.08696 0
M  V30 7328 H 665.747 0.379988 -5.50691 0
M  V30 7329 H 666.224 1.41028 -4.15942 0
M  V30 7330 H 666.83 -0.259727 -4.24506 0
M  V30 7331 N 665.145 1.52092 -0.413018 0
M  V30 7332 C 666.077 2.24819 0.445994 0
M  V30 7333 C 667.09 1.27925 1.00692 0
M  V30 7334 O 668.279 1.53845 0.905204 0
M  V30 7335 C 665.379 2.96951 1.6332 0
M  V30 7336 C 664.552 4.20746 1.19548 0
M  V30 7337 C 663.611 4.75668 2.25003 0
M  V30 7338 O 662.637 5.38148 1.85434 0
M  V30 7339 N 663.839 4.57579 3.57214 0
M  V30 7340 H 666.604 2.99176 -0.177209 0
M  V30 7341 H 664.165 1.60102 -0.240601 0
M  V30 7342 H 666.157 3.30586 2.33441 0
M  V30 7343 H 664.727 2.25756 2.16225 0
M  V30 7344 H 663.947 3.92881 0.32224 0
M  V30 7345 H 665.235 5.01132 0.880033 0
M  V30 7346 H 664.633 4.07758 3.92109 0
M  V30 7347 H 663.19 4.95642 4.23299 0
M  V30 7348 N 666.623 0.143563 1.56945 0
M  V30 7349 C 667.872 -0.50835 1.95189 0
M  V30 7350 C 668.185 -1.66239 1.03073 0
M  V30 7351 O 669.391 -2.3787 1.30882 0
M  V30 7352 C 667.847 -0.955735 3.46978 0
M  V30 7353 C 667.455 0.171183 4.47673 0
M  V30 7354 C 669.199 -1.57763 3.94095 0
M  V30 7355 C 667.106 -0.294279 5.90667 0
M  V30 7356 H 666.036 -0.193679 0.728701 0
M  V30 7357 H 668.687 0.227357 1.82086 0
M  V30 7358 H 667.069 -1.7466 3.55401 0
M  V30 7359 H 668.243 0.948049 4.50942 0
M  V30 7360 H 666.558 0.701273 4.10452 0
M  V30 7361 H 669.155 -1.93745 4.98364 0
M  V30 7362 H 669.498 -2.46531 3.35452 0
M  V30 7363 H 670.031 -0.851728 3.88575 0
M  V30 7364 H 666.77 0.557939 6.53121 0
M  V30 7365 H 666.29 -1.0371 5.90766 0
M  V30 7366 H 667.969 -0.747426 6.42668 0
M  V30 7367 N 668.101 -1.57061 -0.130224 0
M  V30 7368 C 669.011 -2.02802 -1.17934 0
M  V30 7369 C 670.027 -0.946378 -1.46013 0
M  V30 7370 O 671.203 -1.25708 -1.57351 0
M  V30 7371 C 668.268 -2.41368 -2.48882 0
M  V30 7372 C 667.329 -3.63561 -2.28301 0
M  V30 7373 C 666.562 -4.00279 -3.53005 0
M  V30 7374 O 666.785 -3.37463 -4.59864 0
M  V30 7375 O 665.719 -4.93441 -3.44673 0
M  V30 7376 H 669.545 -2.92394 -0.820958 0
M  V30 7377 H 667.13 -1.45475 -0.340197 0
M  V30 7378 H 669.012 -2.66958 -3.26054 0
M  V30 7379 H 667.687 -1.54926 -2.84217 0
M  V30 7380 H 666.594 -3.43136 -1.49025 0
M  V30 7381 H 667.927 -4.50673 -1.97875 0
M  V30 7382 N 669.579 0.400081 -1.52437 0
M  V30 7383 C 670.856 1.15973 -1.57511 0
M  V30 7384 C 671.236 2.0798 -0.361572 0
M  V30 7385 O 670.584 2.19032 0.650929 0
M  V30 7386 C 670.794 1.92912 -2.90837 0
M  V30 7387 C 672.142 2.48662 -3.44169 0
M  V30 7388 O 673.166 2.03081 -2.92637 0
M  V30 7389 O 672.025 3.31894 -4.34176 0
M  V30 7390 H 669.119 0.530023 -0.634827 0
M  V30 7391 H 671.665 0.40613 -1.64769 0
M  V30 7392 H 670.437 1.25564 -3.70607 0
M  V30 7393 H 670.06 2.75257 -2.86913 0
M  V30 7394 N 671.057 1.43213 0.657864 0
M  V30 7395 C 672.02 1.47687 1.75275 0
M  V30 7396 C 673.02 0.362179 1.56668 0
M  V30 7397 O 674.21 0.623734 1.62651 0
M  V30 7398 C 671.342 1.32497 3.14098 0
M  V30 7399 H 672.535 2.4519 1.7269 0
M  V30 7400 H 670.088 1.2991 0.869087 0
M  V30 7401 H 670.823 0.359831 3.22298 0
M  V30 7402 H 670.608 2.13299 3.29008 0
M  V30 7403 H 672.098 1.38549 3.93946 0
M  V30 7404 N 672.536 -0.895792 1.29666 0
M  V30 7405 C 673.782 -1.64908 1.18039 0
M  V30 7406 C 674.115 -1.9236 -0.266682 0
M  V30 7407 O 673.39 -1.53682 -1.19214 0
M  V30 7408 C 673.673 -2.99574 1.99819 0
M  V30 7409 C 673.526 -2.79163 3.52687 0
M  V30 7410 C 674.845 -4.00358 1.82761 0
M  V30 7411 H 671.964 -0.598437 0.430165 0
M  V30 7412 H 674.606 -1.03736 1.59182 0
M  V30 7413 H 672.756 -3.51786 1.64859 0
M  V30 7414 H 674.428 -2.33821 3.9765 0
M  V30 7415 H 672.671 -2.13871 3.77414 0
M  V30 7416 H 673.342 -3.74871 4.05186 0
M  V30 7417 H 675.818 -3.57268 2.13304 0
M  V30 7418 H 674.694 -4.92514 2.42325 0
M  V30 7419 H 674.955 -4.35096 0.783839 0
M  V30 7420 N 674.014 -1.12206 -1.10668 0
M  V30 7421 C 675.239 -0.898938 -1.86906 0
M  V30 7422 C 675.664 0.546346 -1.79991 0
M  V30 7423 O 675.022 1.38655 -1.1681 0
M  V30 7424 C 675.07 -1.37529 -3.33344 0
M  V30 7425 O 674.174 -0.55218 -4.08687 0
M  V30 7426 H 673.515 -0.323163 -0.580053 0
M  V30 7427 H 676.045 -1.49355 -1.39837 0
M  V30 7428 H 676.055 -1.3733 -3.84193 0
M  V30 7429 H 674.73 -2.42767 -3.37693 0
M  V30 7430 H 673.307 -0.620947 -3.67694 0
M  V30 7431 N 675.492 1.28418 -0.913599 0
M  V30 7432 C 676.422 2.29713 -0.418847 0
M  V30 7433 C 677.403 1.62165 0.513469 0
M  V30 7434 O 678.588 1.89576 0.421235 0
M  V30 7435 C 675.718 3.45612 0.342042 0
M  V30 7436 C 674.672 4.25056 -0.501123 0
M  V30 7437 C 673.998 5.3329 0.388097 0
M  V30 7438 C 675.298 4.91814 -1.75831 0
M  V30 7439 H 676.992 2.71346 -1.26538 0
M  V30 7440 H 674.538 1.30446 -0.609903 0
M  V30 7441 H 676.491 4.15562 0.699 0
M  V30 7442 H 675.215 3.02858 1.22248 0
M  V30 7443 H 673.874 3.56833 -0.840598 0
M  V30 7444 H 673.522 4.8678 1.26707 0
M  V30 7445 H 673.222 5.87347 -0.172459 0
M  V30 7446 H 674.746 6.06088 0.74094 0
M  V30 7447 H 676.16 5.54126 -1.47026 0
M  V30 7448 H 674.557 5.55866 -2.26126 0
M  V30 7449 H 675.627 4.16313 -2.4862 0
M  V30 7450 N 676.97 0.677563 1.42291 0
M  V30 7451 C 678.216 0.209962 2.02313 0
M  V30 7452 C 678.571 -1.1714 1.52631 0
M  V30 7453 O 677.864 -1.7756 0.719938 0
M  V30 7454 C 678.058 0.187229 3.56909 0
M  V30 7455 C 677.887 1.56484 4.21595 0
M  V30 7456 C 676.657 2.16329 4.56651 0
M  V30 7457 C 678.855 2.50805 4.49 0
M  V30 7458 N 676.837 3.46842 5.06531 0
M  V30 7459 C 678.208 3.65976 5.00461 0
M  V30 7460 C 680.263 2.493 4.30992 0
M  V30 7461 C 678.966 4.79899 5.35807 0
M  V30 7462 C 680.992 3.62322 4.67415 0
M  V30 7463 C 680.354 4.76221 5.19031 0
M  V30 7464 H 676.453 0.121815 0.772454 0
M  V30 7465 H 679.037 0.891148 1.73109 0
M  V30 7466 H 677.208 -0.46338 3.85626 0
M  V30 7467 H 678.94 -0.293512 4.03634 0
M  V30 7468 H 675.695 1.6879 4.42501 0
M  V30 7469 H 676.119 4.13694 5.35898 0
M  V30 7470 H 680.761 1.62467 3.90339 0
M  V30 7471 H 678.479 5.67406 5.75392 0
M  V30 7472 H 682.065 3.62388 4.55155 0
M  V30 7473 H 680.945 5.62228 5.46689 0
M  V30 7474 N 678.448 -1.51871 0.421078 0
M  V30 7475 C 679.411 -2.25914 -0.386712 0
M  V30 7476 C 680.411 -1.28733 -0.963555 0
M  V30 7477 O 681.601 -1.52579 -0.840556 0
M  V30 7478 C 678.733 -3.03853 -1.54551 0
M  V30 7479 H 679.926 -2.98754 0.261978 0
M  V30 7480 H 677.479 -1.5533 0.173862 0
M  V30 7481 H 678.214 -2.35392 -2.23072 0
M  V30 7482 H 677.999 -3.75215 -1.13824 0
M  V30 7483 H 679.489 -3.59984 -2.11663 0
M  V30 7484 N 679.926 -0.151884 -1.56866 0
M  V30 7485 C 680.873 0.785936 -2.17006 0
M  V30 7486 C 681.843 1.2407 -1.10435 0
M  V30 7487 O 683.028 1.31235 -1.38499 0
M  V30 7488 C 680.168 2.01771 -2.79969 0
M  V30 7489 C 679.281 1.6083 -4.00946 0
M  V30 7490 C 678.416 2.79224 -4.51893 0
M  V30 7491 C 677.455 2.3468 -5.65324 0
M  V30 7492 N 676.592 3.461 -6.10867 0
M  V30 7493 H 681.432 0.266286 -2.96808 0
M  V30 7494 H 678.969 0.11972 -1.46612 0
M  V30 7495 H 680.927 2.73989 -3.14621 0
M  V30 7496 H 679.557 2.51139 -2.02803 0
M  V30 7497 H 678.609 0.783592 -3.72242 0
M  V30 7498 H 679.921 1.24119 -4.83111 0
M  V30 7499 H 679.075 3.59625 -4.88625 0
M  V30 7500 H 677.814 3.19183 -3.68746 0
M  V30 7501 H 676.819 1.52721 -5.28163 0
M  V30 7502 H 678.044 1.95801 -6.5026 0
M  V30 7503 H 675.99 3.85671 -5.30654 0
M  V30 7504 H 675.907 3.1342 -6.87971 0
M  V30 7505 H 677.175 4.26844 -6.52246 0
M  V30 7506 N 681.404 1.57128 0.121893 0
M  V30 7507 C 682.334 2.03165 1.15092 0
M  V30 7508 C 683.315 0.915587 1.43356 0
M  V30 7509 O 684.5 1.1851 1.53847 0
M  V30 7510 C 681.63 2.43352 2.47784 0
M  V30 7511 C 680.584 3.58376 2.33989 0
M  V30 7512 C 679.91 3.84454 3.71617 0
M  V30 7513 C 681.21 4.90199 1.80283 0
M  V30 7514 H 682.904 2.89382 0.768023 0
M  V30 7515 H 680.45 1.39218 0.367998 0
M  V30 7516 H 682.403 2.74163 3.20019 0
M  V30 7517 H 681.127 1.54103 2.87958 0
M  V30 7518 H 679.786 3.2777 1.64202 0
M  V30 7519 H 679.434 2.92414 4.09271 0
M  V30 7520 H 679.134 4.61877 3.6324 0
M  V30 7521 H 680.658 4.17714 4.45362 0
M  V30 7522 H 682.072 5.19565 2.42333 0
M  V30 7523 H 680.469 5.71601 1.82735 0
M  V30 7524 H 681.539 4.78904 0.760184 0
M  V30 7525 N 682.882 -0.391992 1.52647 0
M  V30 7526 C 683.829 -1.47866 1.77213 0
M  V30 7527 C 684.799 -1.54286 0.615223 0
M  V30 7528 O 685.984 -1.7059 0.854622 0
M  V30 7529 C 683.124 -2.85129 1.94411 0
M  V30 7530 C 682.237 -2.87883 3.22098 0
M  V30 7531 C 681.372 -4.16553 3.29631 0
M  V30 7532 C 680.411 -4.13348 4.51453 0
M  V30 7533 N 679.548 -5.33619 4.56284 0
M  V30 7534 H 684.388 -1.26219 2.6995 0
M  V30 7535 H 681.925 -0.612367 1.33748 0
M  V30 7536 H 683.883 -3.64833 2.02367 0
M  V30 7537 H 682.513 -3.05232 1.05038 0
M  V30 7538 H 681.565 -2.00567 3.23229 0
M  V30 7539 H 682.877 -2.81382 4.11856 0
M  V30 7540 H 682.031 -5.0466 3.36753 0
M  V30 7541 H 680.77 -4.25773 2.37842 0
M  V30 7542 H 679.775 -3.23629 4.44459 0
M  V30 7543 H 681 -4.05754 5.44555 0
M  V30 7544 H 678.946 -5.43474 3.67385 0
M  V30 7545 H 678.863 -5.29182 5.3991 0
M  V30 7546 H 680.131 -6.23632 4.67657 0
M  V30 7547 N 684.36 -1.4356 -0.65026 0
M  V30 7548 C 685.29 -1.51758 -1.77459 0
M  V30 7549 C 686.271 -0.372019 -1.65982 0
M  V30 7550 O 687.456 -0.589627 -1.85033 0
M  V30 7551 C 684.586 -1.44302 -3.15902 0
M  V30 7552 C 683.54 -2.57138 -3.42146 0
M  V30 7553 C 682.866 -2.34735 -4.8042 0
M  V30 7554 C 684.166 -3.99373 -3.36598 0
M  V30 7555 H 685.86 -2.45863 -1.70855 0
M  V30 7556 H 683.406 -1.18333 -0.820566 0
M  V30 7557 H 685.359 -1.48641 -3.94314 0
M  V30 7558 H 684.083 -0.467026 -3.23244 0
M  V30 7559 H 682.742 -2.52157 -2.66106 0
M  V30 7560 H 682.39 -1.35372 -4.84441 0
M  V30 7561 H 682.09 -3.10375 -4.9894 0
M  V30 7562 H 683.614 -2.40862 -5.61086 0
M  V30 7563 H 685.028 -4.05826 -4.04942 0
M  V30 7564 H 683.425 -4.75063 -3.66654 0
M  V30 7565 H 684.495 -4.243 -2.34729 0
M  V30 7566 N 685.838 0.888903 -1.30139 0
M  V30 7567 C 686.77 1.99972 -1.11999 0
M  V30 7568 C 687.783 1.62673 -0.0643619 0
M  V30 7569 O 688.972 1.75788 -0.309983 0
M  V30 7570 C 686.072 3.31904 -0.685059 0
M  V30 7571 C 685.245 3.97665 -1.82158 0
M  V30 7572 C 684.304 5.07894 -1.37585 0
M  V30 7573 O 683.33 5.2974 -2.08241 0
M  V30 7574 N 684.532 5.7995 -0.252697 0
M  V30 7575 H 687.297 2.16085 -2.07671 0
M  V30 7576 H 684.858 1.06175 -1.22223 0
M  V30 7577 H 686.85 4.03005 -0.369964 0
M  V30 7578 H 685.42 3.12084 0.179507 0
M  V30 7579 H 684.64 3.19787 -2.305 0
M  V30 7580 H 685.928 4.3834 -2.58332 0
M  V30 7581 H 685.326 5.647 0.336141 0
M  V30 7582 H 683.883 6.518 0.00296813 0
M  V30 7583 N 687.317 1.12792 1.10072 0
M  V30 7584 C 688.264 0.79921 2.16521 0
M  V30 7585 C 689.234 -0.235726 1.64419 0
M  V30 7586 O 690.419 -0.109457 1.90486 0
M  V30 7587 C 687.559 0.264091 3.44088 0
M  V30 7588 C 686.672 1.35729 4.10124 0
M  V30 7589 C 685.807 0.781212 5.25424 0
M  V30 7590 C 684.846 1.85327 5.8337 0
M  V30 7591 N 683.983 1.29564 6.90042 0
M  V30 7592 H 688.823 1.71105 2.43981 0
M  V30 7593 H 686.36 0.854225 1.19756 0
M  V30 7594 H 688.318 -0.0642423 4.17151 0
M  V30 7595 H 686.948 -0.610901 3.16967 0
M  V30 7596 H 686 1.80234 3.34993 0
M  V30 7597 H 687.312 2.16782 4.4923 0
M  V30 7598 H 686.466 0.403769 6.05355 0
M  V30 7599 H 685.205 -0.0604686 4.87663 0
M  V30 7600 H 684.21 2.23986 5.02106 0
M  V30 7601 H 685.435 2.69824 6.23195 0
M  V30 7602 H 683.381 0.475844 6.54272 0
M  V30 7603 H 683.298 2.04271 7.2788 0
M  V30 7604 H 684.566 0.945545 7.73744 0
M  V30 7605 N 688.795 -1.27931 0.920396 0
M  V30 7606 C 689.758 -2.25345 0.41858 0
M  V30 7607 C 690.758 -1.54116 -0.458798 0
M  V30 7608 O 691.948 -1.72235 -0.260912 0
M  V30 7609 C 689.08 -3.38556 -0.399104 0
M  V30 7610 H 690.273 -2.71251 1.27918 0
M  V30 7611 H 687.826 -1.39728 0.700406 0
M  V30 7612 H 688.561 -2.98021 -1.27882 0
M  V30 7613 H 688.346 -3.91426 0.229863 0
M  V30 7614 H 689.836 -4.10976 -0.740817 0
M  V30 7615 N 690.273 -0.685099 -1.4193 0
M  V30 7616 C 691.498 -0.218842 -2.06242 0
M  V30 7617 C 691.923 1.11923 -1.51178 0
M  V30 7618 O 691.281 1.69837 -0.634446 0
M  V30 7619 C 691.329 -0.175592 -3.60172 0
M  V30 7620 O 690.433 0.852776 -4.03487 0
M  V30 7621 H 689.774 -0.109531 -0.654904 0
M  V30 7622 H 692.304 -0.937013 -1.81882 0
M  V30 7623 H 692.314 -0.00291151 -4.08 0
M  V30 7624 H 690.989 -1.15222 -3.99621 0
M  V30 7625 H 689.566 0.650301 -3.67186 0
M  V30 7626 N 691.751 1.51645 -0.429126 0
M  V30 7627 C 692.661 2.31288 0.392809 0
M  V30 7628 C 693.677 1.39852 1.03525 0
M  V30 7629 O 694.853 1.72926 1.03241 0
M  V30 7630 C 691.918 3.13347 1.48372 0
M  V30 7631 C 690.979 4.20551 0.862268 0
M  V30 7632 C 690.212 4.98688 1.9012 0
M  V30 7633 O 690.435 4.77359 3.12225 0
M  V30 7634 O 689.369 5.83005 1.4963 0
M  V30 7635 H 693.195 3.02609 -0.257138 0
M  V30 7636 H 690.78 1.48163 -0.191851 0
M  V30 7637 H 692.662 3.64387 2.1166 0
M  V30 7638 H 691.337 2.44799 2.1179 0
M  V30 7639 H 690.244 3.73609 0.191568 0
M  V30 7640 H 691.577 4.91449 0.271704 0
M  V30 7641 N 693.229 0.160201 1.56784 0
M  V30 7642 C 694.645 -0.196089 1.58391 0
M  V30 7643 C 694.845 -1.63689 1.17508 0
M  V30 7644 O 693.901 -2.36613 0.881506 0
M  V30 7645 C 695.214 0.0746449 3.00607 0
M  V30 7646 C 696.762 0.0119762 3.12998 0
M  V30 7647 C 697.237 0.255551 4.57286 0
M  V30 7648 N 698.728 0.202938 4.62755 0
M  V30 7649 C 699.463 0.365731 5.72232 0
M  V30 7650 N 698.959 0.586972 6.90309 0
M  V30 7651 N 700.752 0.302411 5.61286 0
M  V30 7652 H 692.903 1.1008 1.81648 0
M  V30 7653 H 695.166 0.436779 0.841384 0
M  V30 7654 H 694.872 1.07231 3.34954 0
M  V30 7655 H 694.746 -0.638802 3.71751 0
M  V30 7656 H 697.133 -0.976254 2.78484 0
M  V30 7657 H 697.214 0.75796 2.44313 0
M  V30 7658 H 696.858 1.24094 4.92507 0
M  V30 7659 H 696.788 -0.510912 5.24116 0
M  V30 7660 H 699.279 0.0371328 3.77882 0
M  V30 7661 H 699.592 0.700941 7.69615 0
M  V30 7662 H 697.937 0.623453 6.92198 0
M  V30 7663 H 701.128 0.130238 4.67919 0
M  V30 7664 H 701.301 0.432712 6.46554 0
M  V30 7665 N 694.707 -1.5719 -0.113559 0
M  V30 7666 C 695.953 -1.86289 -0.816583 0
M  V30 7667 C 696.308 -0.748672 -1.77236 0
M  V30 7668 O 695.601 0.250889 -1.8995 0
M  V30 7669 C 695.795 -3.19593 -1.59984 0
M  V30 7670 C 695.624 -4.43876 -0.721414 0
M  V30 7671 C 694.394 -5.03913 -0.374172 0
M  V30 7672 C 696.592 -5.14287 -0.0366045 0
M  V30 7673 N 694.574 -6.11741 0.514352 0
M  V30 7674 C 695.945 -6.15913 0.710706 0
M  V30 7675 C 698 -4.97885 0.039247 0
M  V30 7676 C 696.703 -7.0291 1.52675 0
M  V30 7677 C 698.729 -5.85373 0.842135 0
M  V30 7678 C 698.091 -6.86506 1.57762 0
M  V30 7679 H 694.19 -0.731839 -0.275564 0
M  V30 7680 H 696.774 -1.94535 -0.080033 0
M  V30 7681 H 694.945 -3.12432 -2.30739 0
M  V30 7682 H 696.677 -3.3648 -2.24862 0
M  V30 7683 H 693.432 -4.68131 -0.717653 0
M  V30 7684 H 693.856 -6.70293 0.950623 0
M  V30 7685 H 698.498 -4.19651 -0.51503 0
M  V30 7686 H 696.216 -7.80547 2.09217 0
M  V30 7687 H 699.802 -5.74746 0.903256 0
M  V30 7688 H 698.682 -7.53032 2.1889 0
M  V30 7689 N 696.185 0.383891 -1.52853 0
M  V30 7690 C 697.117 1.48889 -1.74255 0
M  V30 7691 C 698.13 1.50405 -0.623063 0
M  V30 7692 O 699.319 1.54215 -0.898887 0
M  V30 7693 C 696.419 2.87721 -1.79081 0
M  V30 7694 C 695.592 3.10111 -3.08464 0
M  V30 7695 C 694.651 4.28954 -3.0477 0
M  V30 7696 O 693.677 4.25012 -3.78621 0
M  V30 7697 N 694.879 5.35411 -2.24311 0
M  V30 7698 H 697.644 1.30915 -2.69595 0
M  V30 7699 H 695.205 0.573454 -1.51404 0
M  V30 7700 H 697.197 3.65333 -1.7411 0
M  V30 7701 H 695.767 2.99029 -0.911052 0
M  V30 7702 H 694.987 2.20319 -3.26884 0
M  V30 7703 H 696.275 3.21928 -3.94005 0
M  V30 7704 H 695.673 5.41471 -1.63787 0
M  V30 7705 H 694.23 6.1167 -2.25175 0
M  V30 7706 N 697.663 1.43903 0.642637 0
M  V30 7707 C 699.074 1.40975 1.22404 0
M  V30 7708 C 699.425 0.1192 1.95838 0
M  V30 7709 O 698.55 -0.780939 2.01818 0
M  V30 7710 C 699.145 2.5538 2.22636 0
M  V30 7711 C 697.704 2.55684 2.76229 0
M  V30 7712 C 696.851 2.32556 1.51039 0
M  V30 7713 H 699.802 1.5265 0.434006 0
M  V30 7714 H 699.823 2.27474 3.05017 0
M  V30 7715 H 699.335 3.49294 1.69161 0
M  V30 7716 H 697.436 1.65679 3.33738 0
M  V30 7717 H 697.549 3.53799 3.23053 0
M  V30 7718 H 695.913 1.81427 1.78764 0
M  V30 7719 H 696.696 3.28569 0.99484 0
M  V30 7720 N 699.141 -0.881989 1.30609 0
M  V30 7721 C 700.418 -1.61563 1.10258 0
M  V30 7722 C 700.798 -2.08228 -0.347053 0
M  V30 7723 O 700.146 -1.85151 -1.33908 0
M  V30 7724 C 700.356 -2.78287 2.10612 0
M  V30 7725 C 701.704 -3.48545 2.4249 0
M  V30 7726 O 702.728 -2.88479 2.08945 0
M  V30 7727 O 701.587 -4.56873 2.99883 0
M  V30 7728 H 698.681 -0.710238 0.423663 0
M  V30 7729 H 701.227 -0.928503 1.42045 0
M  V30 7730 H 699.999 -2.41131 3.08174 0
M  V30 7731 H 699.622 -3.54695 1.79659 0
M  V30 7732 N 700.619 -1.13374 -1.09472 0
M  V30 7733 C 701.847 -0.918351 -1.85402 0
M  V30 7734 C 702.262 0.53281 -1.81126 0
M  V30 7735 O 701.619 1.36879 -1.20708 0
M  V30 7736 C 701.67 -1.39743 -3.33398 0
M  V30 7737 O 701.391 -2.79172 -3.37631 0
M  V30 7738 C 702.892 -1.22042 -4.2617 0
M  V30 7739 H 700.112 -0.327511 -0.585643 0
M  V30 7740 H 702.656 -1.50617 -1.38328 0
M  V30 7741 H 700.811 -0.852619 -3.77901 0
M  V30 7742 H 701.225 -3.00428 -4.29934 0
M  V30 7743 H 702.699 -1.60438 -5.2817 0
M  V30 7744 H 703.176 -0.162047 -4.38901 0
M  V30 7745 H 703.782 -1.75323 -3.87482 0
M  V30 7746 N 702.098 1.27442 -0.927168 0
M  V30 7747 C 703.008 2.30599 -0.431448 0
M  V30 7748 C 704.024 1.67028 0.48761 0
M  V30 7749 O 705.2 1.97962 0.370546 0
M  V30 7750 C 702.265 3.45327 0.308292 0
M  V30 7751 C 701.326 4.24418 -0.645615 0
M  V30 7752 C 700.559 5.33667 0.0589164 0
M  V30 7753 O 700.782 5.5589 1.27838 0
M  V30 7754 O 699.716 5.98774 -0.612638 0
M  V30 7755 H 703.542 2.75036 -1.28797 0
M  V30 7756 H 701.127 1.32382 -0.692495 0
M  V30 7757 H 703.009 4.15107 0.725555 0
M  V30 7758 H 701.684 3.02945 1.14043 0
M  V30 7759 H 700.591 3.57174 -1.11255 0
M  V30 7760 H 701.924 4.70512 -1.44496 0
M  V30 7761 N 703.576 0.692616 1.41565 0
M  V30 7762 C 704.486 0.0258451 2.34586 0
M  V30 7763 C 705.502 -0.769324 1.56069 0
M  V30 7764 O 706.678 -0.707563 1.88562 0
M  V30 7765 C 703.743 -0.901289 3.3478 0
M  V30 7766 C 702.804 -0.0986579 4.29187 0
M  V30 7767 C 702.037 -0.981634 5.24595 0
M  V30 7768 O 702.26 -2.22115 5.25377 0
M  V30 7769 O 701.194 -0.432892 6.00341 0
M  V30 7770 H 705.02 0.792537 2.93177 0
M  V30 7771 H 702.605 0.452935 1.42369 0
M  V30 7772 H 704.487 -1.43302 3.96286 0
M  V30 7773 H 703.162 -1.64752 2.78637 0
M  V30 7774 H 702.069 0.477604 3.71039 0
M  V30 7775 H 703.402 0.608848 4.8842 0
M  V30 7776 N 705.054 -1.51416 0.437162 0
M  V30 7777 C 705.964 -2.31493 -0.380537 0
M  V30 7778 C 706.98 -1.40399 -1.02782 0
M  V30 7779 O 708.156 -1.73471 -1.02323 0
M  V30 7780 C 705.221 -3.1413 -1.46709 0
M  V30 7781 C 704.282 -4.21003 -0.839953 0
M  V30 7782 C 703.515 -4.9969 -1.87473 0
M  V30 7783 O 703.738 -4.79008 -3.09689 0
M  V30 7784 O 702.672 -5.8379 -1.46536 0
M  V30 7785 H 706.498 -3.02469 0.273183 0
M  V30 7786 H 704.083 -1.48059 0.199706 0
M  V30 7787 H 705.965 -3.65505 -2.09724 0
M  V30 7788 H 704.64 -2.45919 -2.10489 0
M  V30 7789 H 703.547 -3.73706 -0.171752 0
M  V30 7790 H 704.88 -4.91587 -0.245638 0
M  V30 7791 N 706.532 -0.168513 -1.56696 0
M  V30 7792 C 707.762 0.482802 -2.0088 0
M  V30 7793 C 708.17 1.57537 -1.0478 0
M  V30 7794 O 707.513 1.83656 -0.0402746 0
M  V30 7795 C 707.575 1.1236 -3.4149 0
M  V30 7796 C 707.239 0.173027 -4.56672 0
M  V30 7797 C 708.236 -0.607565 -5.16338 0
M  V30 7798 C 705.921 0.0696691 -5.02252 0
M  V30 7799 C 707.915 -1.47874 -6.2001 0
M  V30 7800 C 705.602 -0.805096 -6.05773 0
M  V30 7801 C 706.6 -1.57789 -6.64524 0
M  V30 7802 O 706.288 -2.43804 -7.66038 0
M  V30 7803 H 706.02 0.128246 -0.663723 0
M  V30 7804 H 708.574 -0.266532 -2.03663 0
M  V30 7805 H 706.804 1.921 -3.35611 0
M  V30 7806 H 708.493 1.67683 -3.69645 0
M  V30 7807 H 709.259 -0.53787 -4.82008 0
M  V30 7808 H 705.138 0.660957 -4.56237 0
M  V30 7809 H 708.682 -2.0824 -6.65794 0
M  V30 7810 H 704.579 -0.876005 -6.39528 0
M  V30 7811 H 705.347 -2.37289 -7.83349 0
M  V30 7812 N 708.01 1.57248 0.105221 0
M  V30 7813 C 708.92 2.04653 1.14693 0
M  V30 7814 C 709.936 0.969488 1.44489 0
M  V30 7815 O 711.112 1.28196 1.55331 0
M  V30 7816 C 708.177 2.45297 2.45011 0
M  V30 7817 C 707.238 3.67148 2.22489 0
M  V30 7818 C 706.471 4.05844 3.46592 0
M  V30 7819 O 706.694 3.44736 4.54437 0
M  V30 7820 O 705.628 4.98862 3.36779 0
M  V30 7821 H 709.454 2.93663 0.774336 0
M  V30 7822 H 707.039 1.45998 0.31701 0
M  V30 7823 H 708.921 2.72112 3.21766 0
M  V30 7824 H 707.596 1.59429 2.81717 0
M  V30 7825 H 706.503 3.45463 1.43547 0
M  V30 7826 H 707.836 4.53764 1.9068 0
M  V30 7827 N 709.488 -0.375779 1.53054 0
M  V30 7828 C 710.765 -1.13453 1.59336 0
M  V30 7829 C 711.145 -2.07379 0.394614 0
M  V30 7830 O 710.493 -2.2004 -0.616 0
M  V30 7831 C 710.703 -1.8826 2.93869 0
M  V30 7832 C 712.051 -2.43155 3.48081 0
M  V30 7833 O 713.075 -1.984 2.95831 0
M  V30 7834 O 711.934 -3.24944 4.39401 0
M  V30 7835 H 709.028 -0.519856 0.643179 0
M  V30 7836 H 711.574 -0.379865 1.65394 0
M  V30 7837 H 710.346 -1.19652 3.72558 0
M  V30 7838 H 709.969 -2.70658 2.91256 0
M  V30 7839 N 710.966 -1.44241 -0.634997 0
M  V30 7840 C 712.191 -1.50516 -1.42687 0
M  V30 7841 C 712.616 -0.129864 -1.87651 0
M  V30 7842 O 711.974 0.880164 -1.58502 0
M  V30 7843 C 712.022 -2.4714 -2.62591 0
M  V30 7844 O 711.126 -1.97025 -3.62291 0
M  V30 7845 H 710.467 -0.50841 -0.427101 0
M  V30 7846 H 712.997 -1.89337 -0.775408 0
M  V30 7847 H 713.007 -2.65048 -3.10183 0
M  V30 7848 H 711.682 -3.47039 -2.29209 0
M  V30 7849 H 710.259 -1.88866 -3.21534 0
M  V30 7850 N 712.444 0.87505 -1.31075 0
M  V30 7851 C 713.669 1.66583 -1.23551 0
M  V30 7852 C 714.094 1.87067 0.19686 0
M  V30 7853 O 713.452 1.40877 1.1412 0
M  V30 7854 C 713.5 3.01401 -1.97965 0
M  V30 7855 O 712.604 3.90923 -1.31351 0
M  V30 7856 H 711.945 0.508645 -0.426821 0
M  V30 7857 H 714.475 1.09139 -1.7306 0
M  V30 7858 H 714.485 3.51374 -2.07366 0
M  V30 7859 H 713.16 2.85812 -3.02133 0
M  V30 7860 H 711.737 3.49369 -1.30368 0
M  V30 7861 N 713.922 1.13953 1.08869 0
M  V30 7862 C 715.17 0.903023 1.80803 0
M  V30 7863 C 715.491 -0.572151 1.86417 0
M  V30 7864 O 714.761 -1.41589 1.35386 0
M  V30 7865 H 713.341 0.331099 0.669614 0
M  V30 7866 H 716.003 1.43719 1.31647 0
M  V30 7867 H 715.099 1.29881 2.83791 0
M  V30 7868 N 715.4 -1.26948 0.933913 0
M  V30 7869 C 716.348 -2.2862 0.428463 0
M  V30 7870 C 717.342 -1.62144 -0.490464 0
M  V30 7871 O 718.548 -1.76167 -0.36948 0
M  V30 7872 H 714.923 -0.742363 0.120003 0
M  V30 7873 H 716.894 -2.68659 1.29865 0
M  V30 7874 C 715.643 -3.46423 -0.29774 0
M  V30 7875 H 714.966 -3.97792 0.400183 0
M  V30 7876 H 716.406 -4.19505 -0.615736 0
M  V30 7877 C 714.865 -3.01017 -1.51295 0
M  V30 7878 O 715.395 -3.05226 -2.61151 0
M  V30 7879 N 713.601 -2.56442 -1.36696 0
M  V30 7880 H 713.148 -2.53217 -0.473178 0
M  V30 7881 H 713.106 -2.26424 -2.18127 0
M  V30 7882 N 716.879 -0.700114 -1.41195 0
M  V30 7883 C 718.125 -0.233351 -2.01453 0
M  V30 7884 C 718.458 1.16548 -1.55339 0
M  V30 7885 O 717.733 1.78756 -0.766575 0
M  V30 7886 C 718.016 -0.2961 -3.58881 0
M  V30 7887 C 717.869 -1.7322 -4.15108 0
M  V30 7888 C 719.188 0.341525 -4.38773 0
M  V30 7889 H 716.307 -0.0862667 -0.731934 0
M  V30 7890 H 718.949 -0.889693 -1.67882 0
M  V30 7891 H 717.099 0.262736 -3.87611 0
M  V30 7892 H 718.771 -2.34523 -3.97236 0
M  V30 7893 H 717.014 -2.2649 -3.69979 0
M  V30 7894 H 717.685 -1.7276 -5.24269 0
M  V30 7895 H 720.161 -0.134461 -4.15883 0
M  V30 7896 H 719.037 0.267098 -5.4825 0
M  V30 7897 H 719.298 1.42289 -4.18577 0
M  V30 7898 N 718.357 1.51182 -0.445186 0
M  V30 7899 C 719.603 2.02452 0.11882 0
M  V30 7900 C 719.936 1.32824 1.41673 0
M  V30 7901 O 719.211 0.445637 1.89326 0
M  V30 7902 C 719.494 3.5859 0.329475 0
M  V30 7903 C 719.347 4.38823 -0.987638 0
M  V30 7904 C 720.666 4.26241 1.09575 0
M  V30 7905 H 717.785 0.735819 0.0417092 0
M  V30 7906 H 720.427 1.80747 -0.585718 0
M  V30 7907 H 718.577 3.77214 0.9296 0
M  V30 7908 H 720.249 4.3183 -1.62235 0
M  V30 7909 H 718.492 4.03594 -1.59041 0
M  V30 7910 H 719.163 5.46257 -0.794192 0
M  V30 7911 H 721.639 4.11934 0.587328 0
M  V30 7912 H 720.515 5.35354 1.21191 0
M  V30 7913 H 720.776 3.87635 2.12584 0
M  V30 7914 N 719.835 0.176821 1.56605 0
M  V30 7915 C 720.783 -0.768159 2.1955 0
M  V30 7916 C 721.777 -1.23343 1.16116 0
M  V30 7917 O 722.983 -1.19844 1.34303 0
M  V30 7918 H 719.358 -0.266013 0.703378 0
M  V30 7919 H 721.329 -0.213374 2.97636 0
M  V30 7920 C 720.078 -1.98492 2.85475 0
M  V30 7921 H 719.401 -1.63595 3.64797 0
M  V30 7922 H 720.841 -2.62489 3.3298 0
M  V30 7923 C 719.3 -2.81207 1.85538 0
M  V30 7924 O 719.83 -3.7854 1.34427 0
M  V30 7925 N 718.036 -2.46331 1.54173 0
M  V30 7926 H 717.583 -1.67241 1.95929 0
M  V30 7927 H 717.541 -3.01961 0.875595 0
M  V30 7928 N 721.313 -1.57302 -0.09688 0
M  V30 7929 C 722.26 -2.01933 -1.11766 0
M  V30 7930 C 723.23 -0.895329 -1.39904 0
M  V30 7931 O 724.415 -1.16119 -1.51397 0
M  V30 7932 C 721.555 -2.44726 -2.43317 0
M  V30 7933 C 720.668 -3.70639 -2.21925 0
M  V30 7934 C 719.803 -4.02318 -3.46862 0
M  V30 7935 C 718.842 -5.21346 -3.20725 0
M  V30 7936 N 717.979 -5.48787 -4.37924 0
M  V30 7937 H 722.819 -2.88919 -0.730075 0
M  V30 7938 H 720.356 -1.42901 -0.348962 0
M  V30 7939 H 722.314 -2.6758 -3.20088 0
M  V30 7940 H 720.944 -1.60753 -2.79926 0
M  V30 7941 H 719.996 -3.55271 -1.35965 0
M  V30 7942 H 721.308 -4.57557 -1.98603 0
M  V30 7943 H 720.462 -4.25939 -4.32042 0
M  V30 7944 H 719.201 -3.13918 -3.73238 0
M  V30 7945 H 718.206 -4.97547 -2.33938 0
M  V30 7946 H 719.431 -6.11343 -2.95697 0
M  V30 7947 H 717.377 -4.63346 -4.64378 0
M  V30 7948 H 717.294 -6.30073 -4.17785 0
M  V30 7949 H 718.562 -5.76943 -5.24173 0
M  V30 7950 N 722.791 0.367657 -1.53252 0
M  V30 7951 C 723.738 1.45028 -1.79543 0
M  V30 7952 C 724.708 1.53288 -0.63969 0
M  V30 7953 O 725.893 1.69209 -0.881653 0
M  V30 7954 C 723.033 2.82 -1.98923 0
M  V30 7955 C 722.146 2.82722 -3.26638 0
M  V30 7956 C 721.281 4.11257 -3.36216 0
M  V30 7957 C 720.32 4.06113 -4.57972 0
M  V30 7958 N 719.457 5.26293 -4.64715 0
M  V30 7959 H 724.297 1.21908 -2.71923 0
M  V30 7960 H 721.834 0.591011 -1.34705 0
M  V30 7961 H 723.792 3.61568 -2.08146 0
M  V30 7962 H 722.422 3.03523 -1.09881 0
M  V30 7963 H 721.474 1.95399 -3.26379 0
M  V30 7964 H 722.786 2.74794 -4.16281 0
M  V30 7965 H 721.94 4.99239 -3.44739 0
M  V30 7966 H 720.679 4.21935 -2.44586 0
M  V30 7967 H 719.684 3.16517 -4.49552 0
M  V30 7968 H 720.909 3.97039 -5.50942 0
M  V30 7969 H 718.855 5.37561 -3.75985 0
M  V30 7970 H 718.772 5.20526 -5.4826 0
M  V30 7971 H 720.04 6.16113 -4.77519 0
M  V30 7972 N 724.269 1.44576 0.627338 0
M  V30 7973 C 725.497 1.51048 1.41394 0
M  V30 7974 C 725.912 0.136568 1.88305 0
M  V30 7975 O 725.269 -0.858251 1.6106 0
M  V30 7976 C 725.32 2.47837 2.63172 0
M  V30 7977 O 725.041 3.79887 2.18215 0
M  V30 7978 C 726.542 2.63811 3.56257 0
M  V30 7979 H 723.762 0.512171 0.4335 0
M  V30 7980 H 726.306 1.89576 0.766878 0
M  V30 7981 H 724.461 2.12433 3.23961 0
M  V30 7982 H 724.875 4.32177 2.97192 0
M  V30 7983 H 726.349 3.35554 4.38301 0
M  V30 7984 H 726.826 1.69169 4.05313 0
M  V30 7985 H 727.432 3.0013 3.01333 0
M  V30 7986 N 725.747 -0.868086 1.31537 0
M  V30 7987 C 726.977 -1.65162 1.24118 0
M  V30 7988 C 727.385 -1.88187 -0.195558 0
M  V30 7989 O 726.728 -1.44154 -1.13866 0
M  V30 7990 C 726.79 -3.04119 1.91708 0
M  V30 7991 C 726.454 -3.04194 3.4105 0
M  V30 7992 C 727.451 -2.82016 4.36764 0
M  V30 7993 C 725.136 -3.25256 3.82772 0
M  V30 7994 C 727.13 -2.80881 5.72175 0
M  V30 7995 C 724.817 -3.23749 5.18295 0
M  V30 7996 C 725.815 -3.01589 6.12808 0
M  V30 7997 O 725.503 -2.9993 7.45853 0
M  V30 7998 H 725.235 -0.521597 0.430015 0
M  V30 7999 H 727.789 -1.09165 1.73989 0
M  V30 8000 H 726.019 -3.61849 1.36389 0
M  V30 8001 H 727.708 -3.64701 1.78179 0
M  V30 8002 H 728.474 -2.65525 4.05859 0
M  V30 8003 H 724.353 -3.41534 3.09638 0
M  V30 8004 H 727.897 -2.63503 6.45919 0
M  V30 8005 H 723.794 -3.39781 5.48834 0
M  V30 8006 H 724.562 -3.15979 7.55049 0
M  V30 8007 N 727.225 -1.14528 -1.08264 0
M  V30 8008 C 728.135 -0.84728 -2.18765 0
M  V30 8009 C 729.151 0.172826 -1.7314 0
M  V30 8010 O 730.327 0.000985336 -2.014 0
M  V30 8011 C 727.392 -0.330633 -3.4512 0
M  V30 8012 C 726.453 -1.41348 -4.05363 0
M  V30 8013 C 725.686 -0.921387 -5.25686 0
M  V30 8014 O 725.909 0.236587 -5.69909 0
M  V30 8015 O 724.843 -1.70101 -5.77364 0
M  V30 8016 H 728.669 -1.7708 -2.46731 0
M  V30 8017 H 726.254 -0.923661 -1.17426 0
M  V30 8018 H 728.136 -0.0485053 -4.21372 0
M  V30 8019 H 726.811 0.565147 -3.18728 0
M  V30 8020 H 725.718 -1.74908 -3.30693 0
M  V30 8021 H 727.051 -2.28383 -4.36007 0
M  V30 8022 N 728.703 1.26451 -0.940633 0
M  V30 8023 C 729.98 1.88947 -0.505811 0
M  V30 8024 C 730.36 1.85011 1.01657 0
M  V30 8025 O 729.708 1.30406 1.87634 0
M  V30 8026 C 729.918 3.32304 -1.06654 0
M  V30 8027 C 731.266 4.09153 -1.13486 0
M  V30 8028 O 732.29 3.41371 -1.01708 0
M  V30 8029 O 731.149 5.30369 -1.31797 0
M  V30 8030 H 728.243 0.810422 -0.164759 0
M  V30 8031 H 730.789 1.34625 -1.03316 0
M  V30 8032 H 729.561 3.29527 -2.11015 0
M  V30 8033 H 729.184 3.94164 -0.521603 0
M  V30 8034 N 730.181 0.707592 1.40822 0
M  V30 8035 C 731.111 0.0644925 2.33411 0
M  V30 8036 C 732.092 -0.754205 1.52466 0
M  V30 8037 O 733.277 -0.704749 1.80961 0
M  V30 8038 C 730.407 -0.863865 3.36385 0
M  V30 8039 C 729.361 -0.15138 4.27732 0
M  V30 8040 C 728.687 -1.19491 5.21177 0
M  V30 8041 C 729.987 0.989607 5.12839 0
M  V30 8042 H 731.681 0.837829 2.87438 0
M  V30 8043 H 729.227 0.404346 1.38207 0
M  V30 8044 H 731.18 -1.32309 4.0009 0
M  V30 8045 H 729.904 -1.66901 2.80734 0
M  V30 8046 H 728.563 0.287937 3.65467 0
M  V30 8047 H 728.211 -1.9929 4.61836 0
M  V30 8048 H 727.911 -0.723123 5.83134 0
M  V30 8049 H 729.435 -1.6544 5.8776 0
M  V30 8050 H 730.849 0.610114 5.70044 0
M  V30 8051 H 729.246 1.38926 5.83798 0
M  V30 8052 H 730.316 1.82389 4.49291 0
M  V30 8053 N 731.66 -1.50943 0.453197 0
M  V30 8054 C 732.607 -2.28128 -0.350197 0
M  V30 8055 C 733.577 -1.32398 -1.00299 0
M  V30 8056 O 734.762 -1.61319 -1.01887 0
M  V30 8057 C 731.902 -3.13782 -1.43649 0
M  V30 8058 C 731.015 -4.24523 -0.800255 0
M  V30 8059 C 730.15 -4.97462 -1.86293 0
M  V30 8060 C 729.189 -6.00102 -1.20598 0
M  V30 8061 N 728.326 -6.66387 -2.21071 0
M  V30 8062 H 733.166 -2.96337 0.31434 0
M  V30 8063 H 730.703 -1.46151 0.166863 0
M  V30 8064 H 732.661 -3.6178 -2.07776 0
M  V30 8065 H 731.291 -2.47655 -2.07044 0
M  V30 8066 H 730.343 -3.80371 -0.0468651 0
M  V30 8067 H 731.655 -4.98009 -0.280777 0
M  V30 8068 H 730.809 -5.49088 -2.58044 0
M  V30 8069 H 729.548 -4.23642 -2.41617 0
M  V30 8070 H 728.553 -5.47753 -0.474 0
M  V30 8071 H 729.778 -6.75887 -0.659859 0
M  V30 8072 H 727.724 -5.9537 -2.75446 0
M  V30 8073 H 727.641 -7.3569 -1.74058 0
M  V30 8074 H 728.909 -7.22638 -2.92257 0
M  V30 8075 N 733.138 -0.185124 -1.56509 0
M  V30 8076 C 734.554 0.170865 -1.58683 0
M  V30 8077 C 734.754 1.61799 -1.20098 0
M  V30 8078 O 733.81 2.35181 -0.919038 0
M  V30 8079 C 735.123 -0.122459 -3.00451 0
M  V30 8080 C 736.671 -0.0617699 -3.12939 0
M  V30 8081 C 737.146 -0.328269 -4.56822 0
M  V30 8082 N 738.637 -0.276533 -4.62374 0
M  V30 8083 C 739.372 -0.456722 -5.71578 0
M  V30 8084 N 738.868 -0.69672 -6.89288 0
M  V30 8085 N 740.661 -0.391669 -5.60734 0
M  V30 8086 H 732.812 -1.12956 -1.79874 0
M  V30 8087 H 735.075 -0.45011 -0.834329 0
M  V30 8088 H 734.781 -1.12546 -3.33206 0
M  V30 8089 H 734.655 0.579578 -3.72721 0
M  V30 8090 H 737.042 0.931826 -2.80002 0
M  V30 8091 H 737.123 -0.796732 -2.43076 0
M  V30 8092 H 736.767 -1.31914 -4.9047 0
M  V30 8093 H 736.697 0.427465 -5.24862 0
M  V30 8094 H 739.188 -0.0972458 -3.77775 0
M  V30 8095 H 739.501 -0.823291 -7.68402 0
M  V30 8096 H 737.846 -0.733497 -6.91119 0
M  V30 8097 H 741.037 -0.204663 -4.67652 0
M  V30 8098 H 741.21 -0.535518 -6.45783 0
M  V30 8099 N 734.616 1.57351 0.0885366 0
M  V30 8100 C 735.548 1.99221 1.13329 0
M  V30 8101 C 736.561 0.895705 1.35945 0
M  V30 8102 O 737.75 1.17376 1.34481 0
M  V30 8103 C 734.85 2.3016 2.48756 0
M  V30 8104 C 734.023 3.61444 2.46327 0
M  V30 8105 C 733.082 3.80244 3.63732 0
M  V30 8106 O 732.108 4.52024 3.45924 0
M  V30 8107 N 733.31 3.2132 4.8346 0
M  V30 8108 H 736.075 2.89456 0.776862 0
M  V30 8109 H 733.636 1.59505 0.277428 0
M  V30 8110 H 735.628 2.39925 3.25911 0
M  V30 8111 H 734.198 1.459 2.76464 0
M  V30 8112 H 733.418 3.62588 1.54673 0
M  V30 8113 H 734.706 4.47678 2.41789 0
M  V30 8114 H 734.104 2.63028 5.00832 0
M  V30 8115 H 732.661 3.3656 5.58185 0
M  V30 8116 N 736.094 -0.359525 1.53444 0
M  V30 8117 C 737.342 -1.09935 1.69584 0
M  V30 8118 C 737.663 -1.89656 0.453371 0
M  V30 8119 O 736.933 -1.8852 -0.53263 0
M  V30 8120 H 735.513 -0.408843 0.625185 0
M  V30 8121 H 738.175 -0.40467 1.90653 0
M  V30 8122 H 737.271 -1.78575 2.55964 0
M  V30 8123 N 737.572 -1.44907 -0.619662 0
M  V30 8124 C 738.502 -1.55488 -1.742 0
M  V30 8125 C 739.483 -0.407143 -1.65156 0
M  V30 8126 O 740.668 -0.628743 -1.8374 0
M  V30 8127 C 737.798 -1.5097 -3.1277 0
M  V30 8128 C 736.752 -2.64337 -3.36615 0
M  V30 8129 C 736.078 -2.44872 -4.75333 0
M  V30 8130 C 737.378 -4.06423 -3.28051 0
M  V30 8131 H 739.072 -2.49432 -1.65602 0
M  V30 8132 H 736.618 -1.20047 -0.795281 0
M  V30 8133 H 738.571 -1.56971 -3.91073 0
M  V30 8134 H 737.295 -0.535486 -3.2218 0
M  V30 8135 H 735.954 -2.57744 -2.60698 0
M  V30 8136 H 735.602 -1.45617 -4.81461 0
M  V30 8137 H 735.302 -3.20888 -4.92244 0
M  V30 8138 H 736.826 -2.52709 -5.55851 0
M  V30 8139 H 738.24 -4.14324 -3.96243 0
M  V30 8140 H 736.637 -4.82733 -3.56495 0
M  V30 8141 H 737.707 -4.29183 -2.25676 0
M  V30 8142 N 739.05 0.861098 -1.31996 0
M  V30 8143 C 739.98 1.98482 -1.22993 0
M  V30 8144 C 740.961 1.6971 -0.115168 0
M  V30 8145 O 742.146 1.91849 -0.30126 0
M  V30 8146 C 739.276 3.34179 -0.945615 0
M  V30 8147 C 738.23 3.77284 -2.02091 0
M  V30 8148 C 737.556 5.1054 -1.58912 0
M  V30 8149 C 738.856 3.93439 -3.43515 0
M  V30 8150 H 740.55 2.06271 -2.17008 0
M  V30 8151 H 738.096 0.991043 -1.04472 0
M  V30 8152 H 740.049 4.12338 -0.869206 0
M  V30 8153 H 738.773 3.26586 0.0301849 0
M  V30 8154 H 737.432 3.01371 -2.08737 0
M  V30 8155 H 737.08 4.99397 -0.600942 0
M  V30 8156 H 736.78 5.40352 -2.30854 0
M  V30 8157 H 738.304 5.91199 -1.52696 0
M  V30 8158 H 739.718 4.6197 -3.39495 0
M  V30 8159 H 738.115 4.34661 -4.13751 0
M  V30 8160 H 739.185 2.96548 -3.8365 0
M  V30 8161 O 740.567 1.26963 0.998129 0
M  V30 8162 H 741.258 1.06242 1.61964 0
M  V30 END ATOM
M  V30 BEGIN BOND
M  V30 END BOND
M  V30 END CTAB
M  END
$$$$
