drugbank_target|Q12908 Ileal sodium/bile acid cotransporter (DB13914)
 OpenBabel12092120363D

  0  0  0     0  0            999 V3000
M  V30 BEGIN CTAB
M  V30 COUNTS 5378 5442 0 0 0
M  V30 BEGIN ATOM
M  V30 1 H -0.908 1.98254 -0.117106 0
M  V30 2 N 0 1.576 0 0
M  V30 3 C 0.933 2.03868 1.02534 0
M  V30 4 C 1.911 0.928543 1.3348 0
M  V30 5 O 3.095 1.19667 1.45644 0
M  V30 6 C 0.222 2.43627 2.35294 0
M  V30 7 C -0.732 3.65373 2.2001 0
M  V30 8 S 0.101 5.13292 1.52614 0
M  V30 9 C 1.257 5.56322 2.86805 0
M  V30 10 H 1.49 2.90518 0.631377 0
M  V30 11 H -0.977 1.52953 0.210867 0
M  V30 12 H 0.981 2.67203 3.11629 0
M  V30 13 H -0.358 1.57376 2.7183 0
M  V30 14 H -1.165 3.90944 3.18086 0
M  V30 15 H -1.563 3.418 1.51819 0
M  V30 16 H 0.729 5.58782 3.83104 0
M  V30 17 H 1.672 6.56266 2.65933 0
M  V30 18 H 2.08 4.83886 2.90714 0
M  V30 19 N 1.4781 -0.272755 1.55222 0
M  V30 20 C 2.4261 -1.35705 1.88909 0
M  V30 21 C 3.4201 -1.5112 0.765456 0
M  V30 22 O 4.6261 -1.52901 0.949802 0
M  V30 23 H 1.0011 -0.453868 0.59959 0
M  V30 24 H 2.9721 -1.04544 2.79487 0
M  V30 25 C 1.7211 -2.71049 2.17779 0
M  V30 26 H 1.0441 -2.59979 3.03728 0
M  V30 27 H 2.4841 -3.45858 2.45272 0
M  V30 28 C 0.9431 -3.22165 0.985473 0
M  V30 29 O 1.4731 -4.01096 0.220233 0
M  V30 30 N -0.3209 -2.7985 0.783108 0
M  V30 31 H -0.7739 -2.15775 1.40708 0
M  V30 32 H -0.8159 -3.14397 -0.0130392 0
M  V30 33 N 2.9562 -1.48159 -0.537278 0
M  V30 34 C 4.2332 -1.46291 -1.29839 0
M  V30 35 C 4.6132 -0.170613 -2.10409 0
M  V30 36 O 3.9612 0.847746 -2.12192 0
M  V30 37 C 4.1712 -2.72055 -2.18603 0
M  V30 38 C 5.5192 -3.20087 -2.7898 0
M  V30 39 O 6.5432 -2.72921 -2.28894 0
M  V30 40 O 5.4022 -4.02138 -3.70064 0
M  V30 41 H 2.4962 -0.583906 -0.585647 0
M  V30 42 H 5.0422 -1.60384 -0.554534 0
M  V30 43 H 3.8142 -3.57628 -1.58801 0
M  V30 44 H 3.4372 -2.60646 -3.00249 0
M  V30 45 N 4.4343 0.785586 -1.36625 0
M  V30 46 C 5.8453 1.36101 -1.27803 0
M  V30 47 C 6.1963 1.96035 0.0804875 0
M  V30 48 O 5.3213 1.92834 0.982042 0
M  V30 49 C 5.9163 2.47442 -2.31426 0
M  V30 50 C 4.4753 3.00789 -2.26281 0
M  V30 51 C 3.6223 1.73896 -2.15999 0
M  V30 52 H 6.5733 0.586928 -1.47448 0
M  V30 53 H 6.5943 3.2656 -1.95291 0
M  V30 54 H 6.1063 2.03791 -3.30289 0
M  V30 55 H 4.2073 3.48851 -1.30896 0
M  V30 56 H 4.3203 3.57343 -3.19128 0
M  V30 57 H 2.6843 1.9628 -1.62316 0
M  V30 58 H 3.4673 1.32368 -3.16755 0
M  V30 59 N 5.9124 1.20967 1.01018 0
M  V30 60 C 6.8604 0.961223 2.1181 0
M  V30 61 C 7.8544 -0.0897034 1.69162 0
M  V30 62 O 9.0604 0.0612271 1.79896 0
M  V30 63 H 5.4354 0.29355 0.692338 0
M  V30 64 H 7.4064 1.90178 2.29946 0
M  V30 65 C 6.1554 0.536854 3.4353 0
M  V30 66 H 5.4784 1.33713 3.76777 0
M  V30 67 H 6.9184 0.402286 4.22087 0
M  V30 68 C 5.3774 -0.751574 3.2841 0
M  V30 69 O 5.9074 -1.80841 3.58691 0
M  V30 70 N 4.1134 -0.716079 2.81639 0
M  V30 71 H 3.6604 0.144236 2.57196 0
M  V30 72 H 3.6184 -1.57847 2.71904 0
M  V30 73 N 7.3905 -1.2043 1.01659 0
M  V30 74 C 8.6155 -1.94318 0.724942 0
M  V30 75 C 9.0405 -1.74266 -0.708034 0
M  V30 76 O 8.3985 -1.03694 -1.48719 0
M  V30 77 C 8.4465 -3.44486 1.06591 0
M  V30 78 O 7.5505 -4.12017 0.177599 0
M  V30 79 H 6.8915 -0.60708 0.26898 0
M  V30 80 H 9.4215 -1.52861 1.35995 0
M  V30 81 H 9.4315 -3.95106 1.01762 0
M  V30 82 H 8.1065 -3.58404 2.10997 0
M  V30 83 H 6.6835 -3.71821 0.283421 0
M  V30 84 N 8.8686 -0.792821 -1.36206 0
M  V30 85 C 10.1086 -0.372238 -2.00982 0
M  V30 86 C 10.4726 1.03749 -1.61555 0
M  V30 87 O 11.6736 1.55934 -2.18948 0
M  V30 88 C 9.9446 -0.534566 -3.5338 0
M  V30 89 S 11.5036 -0.202365 -4.38333 0
M  V30 90 H 8.3216 -0.142044 -0.696667 0
M  V30 91 H 10.9236 -1.03206 -1.66039 0
M  V30 92 H 9.6276 -1.5608 -3.79562 0
M  V30 93 H 9.1586 0.141065 -3.93147 0
M  V30 94 H 11.1736 0.994869 -4.86124 0
M  V30 95 N 10.3467 1.47872 -0.545128 0
M  V30 96 C 11.5927 2.02793 -0.0166104 0
M  V30 97 C 11.9257 1.41987 1.32489 0
M  V30 98 O 11.2007 0.571045 1.85928 0
M  V30 99 C 11.4837 3.59989 0.0893294 0
M  V30 100 C 11.3367 4.3125 -1.27841 0
M  V30 101 C 12.6557 4.32606 0.808724 0
M  V30 102 H 9.7747 0.736962 -0.00751035 0
M  V30 103 H 12.4167 1.76433 -0.705085 0
M  V30 104 H 10.5667 3.82579 0.675681 0
M  V30 105 H 12.2387 4.20035 -1.90704 0
M  V30 106 H 10.4817 3.92076 -1.85632 0
M  V30 107 H 11.1527 5.39736 -1.15713 0
M  V30 108 H 13.6287 4.14936 0.310992 0
M  V30 109 H 12.5047 5.42251 0.851782 0
M  V30 110 H 12.7657 4.00963 1.86229 0
M  V30 111 N 11.8248 0.280983 1.55075 0
M  V30 112 C 13.1018 -0.386207 1.91749 0
M  V30 113 C 13.4818 -1.73264 1.20594 0
M  V30 114 O 12.8298 -2.26034 0.334784 0
M  V30 115 C 13.0398 -0.520687 3.45094 0
M  V30 116 C 14.3878 -0.800865 4.16979 0
M  V30 117 O 15.4118 -0.605271 3.5102 0
M  V30 118 O 14.2708 -1.1753 5.33712 0
M  V30 119 H 11.3648 -0.212408 0.799257 0
M  V30 120 H 13.9108 0.327568 1.66509 0
M  V30 121 H 12.6828 0.426633 3.88967 0
M  V30 122 H 12.3058 -1.2837 3.76307 0
M  V30 123 N 13.3029 -1.57598 0.00835791 0
M  V30 124 C 14.2509 -2.10078 -0.998508 0
M  V30 125 C 15.2449 -1.02262 -1.35051 0
M  V30 126 O 16.4509 -1.20719 -1.33518 0
M  V30 127 H 12.8259 -0.670903 -0.339696 0
M  V30 128 H 14.7969 -2.93648 -0.530398 0
M  V30 129 C 13.5459 -2.62615 -2.27879 0
M  V30 130 H 12.8689 -3.45213 -2.01662 0
M  V30 131 H 14.3089 -3.03004 -2.96588 0
M  V30 132 C 12.7679 -1.54407 -2.99433 0
M  V30 133 O 13.2979 -0.931812 -3.90743 0
M  V30 134 N 11.5039 -1.2695 -2.61404 0
M  V30 135 H 11.0509 -1.76924 -1.87232 0
M  V30 136 H 11.0089 -0.547704 -3.09593 0
M  V30 137 N 14.781 0.264519 -1.55364 0
M  V30 138 C 15.744 1.31046 -1.88042 0
M  V30 139 C 16.744 1.41943 -0.755569 0
M  V30 140 O 17.934 1.40947 -1.02369 0
M  V30 141 C 15.066 2.69067 -2.09323 0
M  V30 142 H 16.259 1.03297 -2.81549 0
M  V30 143 H 13.812 0.502989 -1.47986 0
M  V30 144 H 14.547 3.01982 -1.18226 0
M  V30 145 H 14.332 2.62542 -2.91229 0
M  V30 146 H 15.822 3.44623 -2.35848 0
M  V30 147 N 16.2591 1.48442 0.529413 0
M  V30 148 C 17.4871 1.60151 1.30994 0
M  V30 149 C 17.9021 0.261985 1.86973 0
M  V30 150 O 17.2591 -0.748805 1.66431 0
M  V30 151 C 17.3101 2.64854 2.46038 0
M  V30 152 O 17.0311 3.93608 1.92365 0
M  V30 153 C 18.5321 2.87007 3.37849 0
M  V30 154 H 15.7521 0.539971 0.398338 0
M  V30 155 H 18.2961 1.94273 0.638597 0
M  V30 156 H 16.4511 2.33589 3.09055 0
M  V30 157 H 16.8651 4.51055 2.67675 0
M  V30 158 H 18.3391 3.64068 4.14919 0
M  V30 159 H 18.8161 1.95852 3.93114 0
M  V30 160 H 19.4221 3.19579 2.80623 0
M  V30 161 N 17.7372 -0.778329 1.37039 0
M  V30 162 C 18.9832 -1.53892 1.32079 0
M  V30 163 C 19.3162 -1.9396 -0.0965386 0
M  V30 164 O 18.5912 -1.63568 -1.05242 0
M  V30 165 C 18.8742 -2.80847 2.25382 0
M  V30 166 C 18.7272 -2.47076 3.75864 0
M  V30 167 C 20.0462 -3.82741 2.1725 0
M  V30 168 H 17.1652 -0.558303 0.48111 0
M  V30 169 H 19.8072 -0.893397 1.67685 0
M  V30 170 H 17.9572 -3.35931 1.95148 0
M  V30 171 H 19.6292 -1.97957 4.16666 0
M  V30 172 H 17.8722 -1.79863 3.94755 0
M  V30 173 H 18.5432 -3.37798 4.36574 0
M  V30 174 H 21.0192 -3.37133 2.43887 0
M  V30 175 H 19.8952 -4.69303 2.84686 0
M  V30 176 H 20.1562 -4.2652 1.16331 0
M  V30 177 N 19.2153 -1.21501 -1.00376 0
M  V30 178 C 20.4553 -1.04444 -1.75701 0
M  V30 179 C 20.8193 0.414644 -1.87469 0
M  V30 180 O 22.0203 0.705763 -2.59369 0
M  V30 181 C 20.2913 -1.72389 -3.13077 0
M  V30 182 S 21.8503 -1.70604 -4.04277 0
M  V30 183 H 18.6683 -0.374249 -0.604532 0
M  V30 184 H 21.2703 -1.54267 -1.20091 0
M  V30 185 H 19.9743 -2.77734 -3.02146 0
M  V30 186 H 19.5053 -1.22751 -3.73759 0
M  V30 187 H 21.5203 -0.748012 -4.9053 0
M  V30 188 N 20.6934 1.19889 -1.02296 0
M  V30 189 C 21.9184 1.9393 -0.735237 0
M  V30 190 C 22.3434 1.74639 0.698782 0
M  V30 191 O 21.7014 1.04481 1.48167 0
M  V30 192 C 21.7494 3.43916 -1.08417 0
M  V30 193 O 20.8534 4.11917 -0.199446 0
M  V30 194 H 20.1944 0.605645 -0.272196 0
M  V30 195 H 22.7244 1.52137 -1.36804 0
M  V30 196 H 22.7344 3.9456 -1.03856 0
M  V30 197 H 21.4094 3.5728 -2.12894 0
M  V30 198 H 19.9864 3.71666 -0.303136 0
M  V30 199 N 22.1715 0.800033 1.35784 0
M  V30 200 C 23.4195 0.376597 1.9856 0
M  V30 201 C 23.7405 -1.05812 1.63795 0
M  V30 202 O 23.0105 -1.73103 0.917171 0
M  V30 203 H 21.5905 0.136261 0.734467 0
M  V30 204 H 24.2525 1.02442 1.65806 0
M  V30 205 H 23.3485 0.477002 3.08433 0
M  V30 206 N 23.6496 -1.47581 0.552962 0
M  V30 207 C 24.6126 -2.28439 -0.186605 0
M  V30 208 C 25.6126 -1.36706 -0.84665 0
M  V30 209 O 26.8026 -1.59378 -0.703164 0
M  V30 210 C 23.9346 -3.16264 -1.2724 0
M  V30 211 H 25.1276 -2.95294 0.523609 0
M  V30 212 H 22.6806 -1.532 0.309745 0
M  V30 213 H 23.4156 -2.54091 -2.01514 0
M  V30 214 H 23.2006 -3.83769 -0.803968 0
M  V30 215 H 24.6906 -3.77198 -1.79196 0
M  V30 216 N 25.1277 -0.289203 -1.54924 0
M  V30 217 C 26.3527 0.329299 -2.04769 0
M  V30 218 C 26.7777 1.4763 -1.16564 0
M  V30 219 O 26.1357 1.80527 -0.167186 0
M  V30 220 C 26.1837 0.774438 -3.52186 0
M  V30 221 O 25.2877 1.88038 -3.67036 0
M  V30 222 H 24.6287 0.0659259 -0.660719 0
M  V30 223 H 27.1587 -0.42761 -2.00082 0
M  V30 224 H 27.1687 1.06642 -3.93816 0
M  V30 225 H 25.8437 -0.0646707 -4.1585 0
M  V30 226 H 24.4207 1.58985 -3.3731 0
M  V30 227 N 26.6058 1.57591 -0.0167156 0
M  V30 228 C 27.8458 1.93145 0.668902 0
M  V30 229 C 28.2098 0.892406 1.7 0
M  V30 230 O 29.4108 1.13373 2.43721 0
M  V30 231 C 27.6818 3.33678 1.28039 0
M  V30 232 S 29.2408 3.91142 1.9888 0
M  V30 233 H 26.0588 0.67593 0.220545 0
M  V30 234 H 28.6608 1.95347 -0.0774105 0
M  V30 235 H 27.3648 4.07126 0.517339 0
M  V30 236 H 26.8958 3.3489 2.06427 0
M  V30 237 H 28.9108 3.73571 3.26587 0
M  V30 238 N 28.0839 -0.256276 1.55502 0
M  V30 239 C 29.3299 -0.987079 1.77157 0
M  V30 240 C 29.6629 -1.85327 0.580315 0
M  V30 241 O 28.9379 -1.89874 -0.421686 0
M  V30 242 C 29.2209 -1.85553 3.08613 0
M  V30 243 C 29.0739 -1.01816 4.38125 0
M  V30 244 C 30.3929 -2.8397 3.36228 0
M  V30 245 H 27.5119 -0.357428 0.644526 0
M  V30 246 H 30.1539 -0.258239 1.88237 0
M  V30 247 H 28.3039 -2.47695 2.99298 0
M  V30 248 H 29.9759 -0.416159 4.59419 0
M  V30 249 H 28.2189 -0.322178 4.32602 0
M  V30 250 H 28.8899 -1.65939 5.26468 0
M  V30 251 H 31.3659 -2.31964 3.45445 0
M  V30 252 H 30.2419 -3.41864 4.29442 0
M  V30 253 H 30.5029 -3.59955 2.56681 0
M  V30 254 N 29.562 -1.4872 -0.521534 0
M  V30 255 C 30.808 -1.574 -1.27879 0
M  V30 256 C 31.141 -0.250817 -1.92573 0
M  V30 257 O 30.416 0.743934 -1.79711 0
M  V30 258 C 30.699 -2.71843 -2.36164 0
M  V30 259 C 30.552 -4.13893 -1.76105 0
M  V30 260 C 31.871 -2.82008 -3.37875 0
M  V30 261 H 28.99 -0.572941 -0.463581 0
M  V30 262 H 31.632 -1.80927 -0.580119 0
M  V30 263 H 29.782 -2.51914 -2.95756 0
M  V30 264 H 31.454 -4.45284 -1.20499 0
M  V30 265 H 29.697 -4.20498 -1.06601 0
M  V30 266 H 30.368 -4.89804 -2.5455 0
M  V30 267 H 32.844 -3.00086 -2.88249 0
M  V30 268 H 31.72 -3.63796 -4.11028 0
M  V30 269 H 31.981 -1.90511 -3.98946 0
M  V30 270 N 31.0401 0.771051 -1.3745 0
M  V30 271 C 32.4511 1.34737 -1.29239 0
M  V30 272 C 32.8021 1.96109 0.0596908 0
M  V30 273 O 31.9271 1.93865 0.961534 0
M  V30 274 C 32.5221 2.44973 -2.34037 0
M  V30 275 C 31.0811 2.98372 -2.29458 0
M  V30 276 C 30.2281 1.71595 -2.17831 0
M  V30 277 H 33.1791 0.571256 -1.48062 0
M  V30 278 H 33.2001 3.24471 -1.98744 0
M  V30 279 H 32.7121 2.00276 -3.32432 0
M  V30 280 H 30.8131 3.47443 -1.34589 0
M  V30 281 H 30.9261 3.53939 -3.229 0
M  V30 282 H 29.2901 1.94547 -1.64388 0
M  V30 283 H 30.0731 1.29001 -3.18141 0
M  V30 284 N 32.5182 1.22032 0.997298 0
M  V30 285 C 33.4282 1.00271 2.12092 0
M  V30 286 C 34.4442 -0.047621 1.73935 0
M  V30 287 O 35.6202 0.144136 2.00884 0
M  V30 288 C 32.6852 0.578449 3.4184 0
M  V30 289 C 31.7462 1.70189 3.94125 0
M  V30 290 C 30.9792 1.29778 5.17681 0
M  V30 291 O 31.2022 0.174676 5.70132 0
M  V30 292 O 30.1362 2.11261 5.63607 0
M  V30 293 H 33.9622 1.94398 2.3333 0
M  V30 294 H 31.5472 1.00587 1.10465 0
M  V30 295 H 33.4292 0.351998 4.19927 0
M  V30 296 H 32.1042 -0.334019 3.21972 0
M  V30 297 H 31.0112 1.98282 3.1723 0
M  V30 298 H 32.3442 2.59206 4.18417 0
M  V30 299 N 33.9963 -1.19345 1.0293 0
M  V30 300 C 35.2213 -1.93538 0.745511 0
M  V30 301 C 35.6463 -1.75007 -0.689511 0
M  V30 302 O 35.0043 -1.05265 -1.47611 0
M  V30 303 C 35.0523 -3.43336 1.10239 0
M  V30 304 O 34.1563 -4.11806 0.221289 0
M  V30 305 H 33.4973 -0.604193 0.275404 0
M  V30 306 H 36.0273 -1.5141 1.37609 0
M  V30 307 H 36.0373 -3.94004 1.05947 0
M  V30 308 H 34.7123 -3.56146 2.14786 0
M  V30 309 H 33.2893 -3.715 0.322842 0
M  V30 310 N 35.4744 -0.807222 -1.35358 0
M  V30 311 C 36.4224 -0.20614 -2.31685 0
M  V30 312 C 37.4164 0.644445 -1.56663 0
M  V30 313 O 38.6224 0.537538 -1.71786 0
M  V30 314 H 34.9974 -0.0479006 -0.750473 0
M  V30 315 H 36.9684 -1.03369 -2.79924 0
M  V30 316 C 35.7174 0.630212 -3.41941 0
M  V30 317 H 35.0404 -0.0149558 -3.99797 0
M  V30 318 H 36.4804 1.01716 -4.11619 0
M  V30 319 C 34.9394 1.79601 -2.85035 0
M  V30 320 O 35.4694 2.89351 -2.78637 0
M  V30 321 N 33.6754 1.60774 -2.42074 0
M  V30 322 H 33.2224 0.715009 -2.47478 0
M  V30 323 H 33.1804 2.38933 -2.04349 0
M  V30 324 N 36.9525 1.47285 -0.560781 0
M  V30 325 C 38.1995 2.02464 -0.038062 0
M  V30 326 C 38.5275 1.43474 1.31322 0
M  V30 327 O 37.7825 0.581311 1.86867 0
M  V30 328 C 38.0815 3.57258 0.100784 0
M  V30 329 C 37.7475 4.35184 -1.18007 0
M  V30 330 C 36.4095 4.56194 -1.53103 0
M  V30 331 C 38.7615 4.80098 -2.02867 0
M  V30 332 C 36.0895 5.19367 -2.729 0
M  V30 333 C 38.4415 5.44593 -3.21871 0
M  V30 334 C 37.1055 5.63835 -3.57276 0
M  V30 335 H 36.3755 0.740869 -0.0139279 0
M  V30 336 H 39.0225 1.76916 -0.733012 0
M  V30 337 H 37.3275 3.81819 0.878724 0
M  V30 338 H 39.0245 3.97606 0.520639 0
M  V30 339 H 35.6145 4.19113 -0.8968 0
M  V30 340 H 39.7985 4.63642 -1.7706 0
M  V30 341 H 35.0545 5.32459 -3.00496 0
M  V30 342 H 39.2285 5.78358 -3.87911 0
M  V30 343 H 36.8555 6.12557 -4.50197 0
M  V30 344 N 38.4306 0.297415 1.54768 0
M  V30 345 C 39.3786 -0.596051 2.24833 0
M  V30 346 C 40.3726 -1.13992 1.25308 0
M  V30 347 O 41.5786 -1.09098 1.4317 0
M  V30 348 H 37.9536 -0.210814 0.721846 0
M  V30 349 H 39.9246 0.0174667 2.98395 0
M  V30 350 C 38.6736 -1.75818 2.99972 0
M  V30 351 H 37.9966 -1.3489 3.76357 0
M  V30 352 H 39.4366 -2.35949 3.52284 0
M  V30 353 C 37.8956 -2.66014 2.06732 0
M  V30 354 O 38.4256 -3.67009 1.63302 0
M  V30 355 N 36.6316 -2.33669 1.72763 0
M  V30 356 H 36.1786 -1.51586 2.08277 0
M  V30 357 H 36.1366 -2.94285 1.10652 0
M  V30 358 N 39.9087 -1.5758 0.0250728 0
M  V30 359 C 40.8567 -2.11125 -0.97617 0
M  V30 360 C 41.8507 -1.03689 -1.33959 0
M  V30 361 O 43.0567 -1.22128 -1.3223 0
M  V30 362 H 39.4317 -0.674468 -0.332561 0
M  V30 363 H 41.4027 -2.94194 -0.499223 0
M  V30 364 C 40.1517 -2.65017 -2.2508 0
M  V30 365 H 39.4747 -3.47333 -1.9799 0
M  V30 366 H 40.9147 -3.06133 -2.93357 0
M  V30 367 C 39.3737 -1.57574 -2.97779 0
M  V30 368 O 39.9037 -0.973203 -3.89733 0
M  V30 369 N 38.1097 -1.29716 -2.60043 0
M  V30 370 H 37.6567 -1.789 -1.85345 0
M  V30 371 H 37.6147 -0.58051 -3.08994 0
M  V30 372 N 41.3868 0.248026 -1.55636 0
M  V30 373 C 42.6358 0.974134 -1.76617 0
M  V30 374 C 42.9488 1.86528 -0.588796 0
M  V30 375 O 44.1548 2.62805 -0.681594 0
M  V30 376 C 42.6108 1.78213 -3.12679 0
M  V30 377 C 42.2188 0.93843 -4.38061 0
M  V30 378 C 43.9628 2.50104 -3.42999 0
M  V30 379 C 41.8698 1.74225 -5.65155 0
M  V30 380 H 40.7998 0.36745 -0.658405 0
M  V30 381 H 43.4508 0.22884 -1.82067 0
M  V30 382 H 41.8328 2.56933 -3.01333 0
M  V30 383 H 43.0068 0.193635 -4.60393 0
M  V30 384 H 41.3218 0.332905 -4.15067 0
M  V30 385 H 43.9188 3.10694 -4.3517 0
M  V30 386 H 44.2618 3.21662 -2.64271 0
M  V30 387 H 44.7948 1.78395 -3.55556 0
M  V30 388 H 41.5338 1.07043 -6.46701 0
M  V30 389 H 41.0538 2.46235 -5.46926 0
M  V30 390 H 42.7328 2.30967 -6.0437 0
M  V30 391 N 42.8649 1.48995 0.513639 0
M  V30 392 C 43.7949 1.67636 1.62544 0
M  V30 393 C 44.7759 0.525087 1.61793 0
M  V30 394 O 45.9609 0.759502 1.78732 0
M  V30 395 C 43.0909 1.73114 3.01079 0
M  V30 396 C 42.0449 2.87905 3.16693 0
M  V30 397 C 41.3709 2.78486 4.56453 0
M  V30 398 C 42.6709 4.29005 2.97913 0
M  V30 399 H 44.3649 2.60716 1.47198 0
M  V30 400 H 41.9109 1.25465 0.706714 0
M  V30 401 H 43.8639 1.84742 3.78746 0
M  V30 402 H 42.5879 0.766241 3.17484 0
M  V30 403 H 41.2469 2.75859 2.41448 0
M  V30 404 H 40.8949 1.7993 4.69717 0
M  V30 405 H 40.5949 3.55523 4.67843 0
M  V30 406 H 42.1189 2.92104 5.36197 0
M  V30 407 H 43.5329 4.41798 3.65359 0
M  V30 408 H 41.9299 5.07166 3.20785 0
M  V30 409 H 42.9999 4.44329 1.94165 0
M  V30 410 N 44.343 -0.763751 1.37857 0
M  V30 411 C 45.568 -1.55805 1.36893 0
M  V30 412 C 45.993 -1.88054 -0.0416135 0
M  V30 413 O 45.351 -1.49825 -1.02089 0
M  V30 414 C 45.399 -2.84012 2.22192 0
M  V30 415 O 44.503 -3.78732 1.63204 0
M  V30 416 H 43.844 -0.471638 0.46739 0
M  V30 417 H 46.374 -0.944657 1.81487 0
M  V30 418 H 46.384 -3.33037 2.35691 0
M  V30 419 H 45.059 -2.59869 3.24716 0
M  V30 420 H 43.636 -3.37402 1.58791 0
M  V30 421 N 45.8211 -1.22559 -0.990812 0
M  V30 422 C 47.0671 -1.05297 -1.73322 0
M  V30 423 C 47.4001 0.410655 -1.89808 0
M  V30 424 O 46.6751 1.30439 -1.44277 0
M  V30 425 C 46.9581 -1.76713 -3.13759 0
M  V30 426 C 46.8111 -3.30684 -3.04907 0
M  V30 427 C 48.1301 -1.52121 -4.12974 0
M  V30 428 H 45.2491 -0.38392 -0.629106 0
M  V30 429 H 47.8911 -1.50926 -1.15418 0
M  V30 430 H 46.0411 -1.37924 -3.63193 0
M  V30 431 H 47.7131 -3.7893 -2.63077 0
M  V30 432 H 45.9561 -3.60253 -2.41661 0
M  V30 433 H 46.6271 -3.75833 -4.04294 0
M  V30 434 H 49.1031 -1.85819 -3.72304 0
M  V30 435 H 47.9791 -2.04582 -5.0935 0
M  V30 436 H 48.2401 -0.454257 -4.3976 0
M  V30 437 N 47.2992 1.18797 -1.03562 0
M  V30 438 C 48.5452 1.8893 -0.737113 0
M  V30 439 C 48.8782 1.79837 0.732956 0
M  V30 440 O 48.1532 1.19525 1.5344 0
M  V30 441 C 48.4362 3.39607 -1.19745 0
M  V30 442 C 48.2892 3.57537 -2.72924 0
M  V30 443 C 49.6082 4.33069 -0.783526 0
M  V30 444 H 46.7272 0.686057 -0.269249 0
M  V30 445 H 49.3692 1.39797 -1.28673 0
M  V30 446 H 47.5192 3.81583 -0.729855 0
M  V30 447 H 49.1912 3.24688 -3.27682 0
M  V30 448 H 47.4342 3.00363 -3.12993 0
M  V30 449 H 48.1052 4.63238 -3.00191 0
M  V30 450 H 50.5812 3.98846 -1.18581 0
M  V30 451 H 49.4572 5.3707 -1.13343 0
M  V30 452 H 49.7182 4.40986 0.313681 0
M  V30 453 N 48.7773 0.814389 1.34928 0
M  V30 454 C 49.7073 0.244827 2.32213 0
M  V30 455 C 50.6883 -0.634024 1.57842 0
M  V30 456 O 51.8733 -0.562676 1.8587 0
M  V30 457 C 49.0033 -0.601106 3.42058 0
M  V30 458 C 47.9573 0.179896 4.27622 0
M  V30 459 C 47.2833 -0.788237 5.28858 0
M  V30 460 C 48.5833 1.38329 5.03649 0
M  V30 461 H 50.2773 1.05763 2.80097 0
M  V30 462 H 47.8233 0.510029 1.34665 0
M  V30 463 H 49.7763 -1.00968 4.09125 0
M  V30 464 H 48.5003 -1.44688 2.92802 0
M  V30 465 H 47.1593 0.569739 3.62146 0
M  V30 466 H 46.8073 -1.62973 4.75866 0
M  V30 467 H 46.5073 -0.269942 5.8698 0
M  V30 468 H 48.0313 -1.19485 5.98795 0
M  V30 469 H 49.4453 1.04918 5.63618 0
M  V30 470 H 47.8423 1.83662 5.71304 0
M  V30 471 H 48.9123 2.16592 4.33839 0
M  V30 472 N 50.2554 -1.46986 0.568584 0
M  V30 473 C 51.4804 -2.07335 0.0520528 0
M  V30 474 C 51.9054 -1.41675 -1.23733 0
M  V30 475 O 51.2634 -0.495623 -1.74394 0
M  V30 476 C 51.3114 -3.60417 -0.11501 0
M  V30 477 O 50.4154 -3.95309 -1.17492 0
M  V30 478 H 49.7564 -0.661597 0.0564385 0
M  V30 479 H 52.2864 -1.88837 0.787507 0
M  V30 480 H 52.2964 -4.06698 -0.325644 0
M  V30 481 H 50.9714 -4.07601 0.826675 0
M  V30 482 H 49.5484 -3.60757 -0.943869 0
M  V30 483 N 51.7335 -0.305618 -1.54608 0
M  V30 484 C 52.9615 0.304775 -2.04643 0
M  V30 485 C 53.3765 1.47167 -1.18268 0
M  V30 486 O 52.7335 1.81296 -0.209328 0
M  V30 487 C 52.7845 0.756564 -3.53495 0
M  V30 488 O 52.5055 -0.36389 -4.36586 0
M  V30 489 C 54.0065 1.43163 -4.19546 0
M  V30 490 H 51.2265 0.0655481 -0.667791 0
M  V30 491 H 53.7705 -0.446592 -1.99564 0
M  V30 492 H 51.9255 1.45794 -3.58919 0
M  V30 493 H 52.3395 -0.0113121 -5.24499 0
M  V30 494 H 53.8135 1.69886 -5.25207 0
M  V30 495 H 54.2905 2.37318 -3.69563 0
M  V30 496 H 54.8965 0.773307 -4.18211 0
M  V30 497 N 53.2116 1.57565 -0.0334293 0
M  V30 498 C 54.4576 1.92262 0.645226 0
M  V30 499 C 54.7906 0.910543 1.71531 0
M  V30 500 O 54.0656 -0.066099 1.94388 0
M  V30 501 C 54.3486 3.37422 1.2577 0
M  V30 502 C 54.2016 4.49369 0.196891 0
M  V30 503 C 55.5206 3.82628 2.17449 0
M  V30 504 H 52.6396 0.699171 0.233085 0
M  V30 505 H 55.2816 1.89779 -0.0915694 0
M  V30 506 H 53.4316 3.39669 1.88566 0
M  V30 507 H 55.1036 4.59254 -0.433962 0
M  V30 508 H 53.3466 4.31168 -0.477137 0
M  V30 509 H 54.0176 5.47978 0.665124 0
M  V30 510 H 56.4936 3.82145 1.64634 0
M  V30 511 H 55.3696 4.84883 2.57254 0
M  V30 512 H 55.6306 3.18376 3.0674 0
M  V30 513 N 54.6897 -0.239769 1.55765 0
M  V30 514 C 55.6197 -1.30052 1.9393 0
M  V30 515 C 56.6007 -1.49839 0.805132 0
M  V30 516 O 57.7857 -1.62328 1.06599 0
M  V30 517 C 54.9157 -2.65391 2.2402 0
M  V30 518 C 53.8697 -2.60289 3.39755 0
M  V30 519 C 53.1957 -3.99489 3.55405 0
M  V30 520 C 54.4957 -2.16654 4.75246 0
M  V30 521 H 56.1897 -0.983573 2.82783 0
M  V30 522 H 53.7357 -0.471701 1.36055 0
M  V30 523 H 55.6887 -3.3974 2.49308 0
M  V30 524 H 54.4127 -2.98736 1.32 0
M  V30 525 H 53.0717 -1.88398 3.14487 0
M  V30 526 H 52.7197 -4.30112 2.60793 0
M  V30 527 H 52.4197 -3.96962 4.33238 0
M  V30 528 H 53.9437 -4.75528 3.83022 0
M  V30 529 H 55.3577 -2.80737 4.99859 0
M  V30 530 H 53.7547 -2.25223 5.56232 0
M  V30 531 H 54.8247 -1.11835 4.71827 0
M  V30 532 N 56.1678 -1.49265 -0.50573 0
M  V30 533 C 57.3958 -1.62215 -1.28429 0
M  V30 534 C 57.8108 -0.291697 -1.86533 0
M  V30 535 O 57.1678 0.722233 -1.67601 0
M  V30 536 C 57.2188 -2.68735 -2.41793 0
M  V30 537 O 56.9398 -3.96619 -1.86078 0
M  V30 538 C 58.4408 -2.92346 -3.3324 0
M  V30 539 H 55.6608 -0.546239 -0.389697 0
M  V30 540 H 58.2048 -1.95265 -0.607609 0
M  V30 541 H 56.3598 -2.38476 -3.053 0
M  V30 542 H 56.7738 -4.55256 -2.60465 0
M  V30 543 H 58.2478 -3.70623 -4.09075 0
M  V30 544 H 58.7248 -2.02081 -3.89948 0
M  V30 545 H 59.3308 -3.24003 -2.75503 0
M  V30 546 N 57.6459 0.756429 -1.3826 0
M  V30 547 C 58.8949 1.51082 -1.3363 0
M  V30 548 C 59.2079 1.95467 0.0720068 0
M  V30 549 O 60.4139 2.7043 0.240834 0
M  V30 550 C 58.8699 2.72893 -2.34644 0
M  V30 551 C 58.4779 2.35544 -3.81081 0
M  V30 552 C 60.2219 3.50791 -2.39052 0
M  V30 553 C 58.1289 3.53948 -4.73787 0
M  V30 554 H 57.0589 0.56727 -0.49671 0
M  V30 555 H 59.7099 0.827147 -1.638 0
M  V30 556 H 58.0919 3.43227 -1.97513 0
M  V30 557 H 59.2659 1.72894 -4.27135 0
M  V30 558 H 57.5809 1.70786 -3.79764 0
M  V30 559 H 60.1779 4.38823 -3.05513 0
M  V30 560 H 60.5209 3.91745 -1.40861 0
M  V30 561 H 61.0539 2.87467 -2.74968 0
M  V30 562 H 57.7929 3.18064 -5.73163 0
M  V30 563 H 57.3129 4.15651 -4.32428 0
M  V30 564 H 58.9919 4.20566 -4.91663 0
M  V30 565 N 59.124 1.23083 0.984299 0
M  V30 566 C 60.054 1.03292 2.09411 0
M  V30 567 C 61.035 -0.048923 1.7003 0
M  V30 568 O 62.22 0.114967 1.93859 0
M  V30 569 C 59.35 0.619155 3.41736 0
M  V30 570 C 58.304 1.64791 3.95004 0
M  V30 571 C 57.63 1.0897 5.23478 0
M  V30 572 C 58.93 3.03999 4.24714 0
M  V30 573 H 60.624 1.96119 2.26225 0
M  V30 574 H 58.17 0.944344 1.08711 0
M  V30 575 H 60.123 0.467777 4.18796 0
M  V30 576 H 58.847 -0.344786 3.24775 0
M  V30 577 H 57.506 1.78721 3.20085 0
M  V30 578 H 57.154 0.11686 5.02864 0
M  V30 579 H 56.854 1.77704 5.60085 0
M  V30 580 H 58.378 0.950093 6.03163 0
M  V30 581 H 59.792 2.93393 4.92538 0
M  V30 582 H 58.189 3.69936 4.72512 0
M  V30 583 H 59.259 3.53285 3.32142 0
M  V30 584 N 60.6021 -1.18246 1.0419 0
M  V30 585 C 61.5321 -2.24127 0.654914 0
M  V30 586 C 62.5131 -1.66617 -0.342451 0
M  V30 587 O 63.6981 -1.92924 -0.222277 0
M  V30 588 C 60.8281 -3.47295 0.0183757 0
M  V30 589 C 59.7821 -4.17563 0.939414 0
M  V30 590 C 59.1081 -5.34438 0.167286 0
M  V30 591 C 60.4081 -4.70917 2.25908 0
M  V30 592 H 62.1021 -2.56753 1.54007 0
M  V30 593 H 59.6481 -1.23414 0.74195 0
M  V30 594 H 61.6011 -4.20572 -0.264082 0
M  V30 595 H 60.3251 -3.13907 -0.901664 0
M  V30 596 H 58.9841 -3.46186 1.20628 0
M  V30 597 H 58.6321 -4.97298 -0.7552 0
M  V30 598 H 58.3321 -5.82388 0.780901 0
M  V30 599 H 59.8561 -6.10504 -0.108125 0
M  V30 600 H 61.2701 -5.35882 2.03724 0
M  V30 601 H 59.6671 -5.29406 2.82577 0
M  V30 602 H 60.7371 -3.88272 2.9047 0
M  V30 603 N 62.0802 -0.821533 -1.34494 0
M  V30 604 C 63.0432 -0.247847 -2.27856 0
M  V30 605 C 64.0432 0.573453 -1.50227 0
M  V30 606 O 65.2332 0.389759 -1.69784 0
M  V30 607 C 62.3652 0.652698 -3.34593 0
M  V30 608 H 63.5582 -1.07146 -2.80107 0
M  V30 609 H 61.1112 -0.593291 -1.44602 0
M  V30 610 H 61.8462 1.49943 -2.87555 0
M  V30 611 H 61.6312 0.065292 -3.92046 0
M  V30 612 H 63.1212 1.04793 -4.04238 0
M  V30 613 N 63.5583 1.46682 -0.576371 0
M  V30 614 C 64.4883 2.33028 0.148397 0
M  V30 615 C 65.4693 1.44961 0.889956 0
M  V30 616 O 66.6543 1.73789 0.866662 0
M  V30 617 C 63.7843 3.27117 1.1667 0
M  V30 618 C 62.7383 4.24575 0.540386 0
M  V30 619 C 62.0643 5.08126 1.6647 0
M  V30 620 C 63.3643 5.19722 -0.518331 0
M  V30 621 H 65.0583 2.93875 -0.572509 0
M  V30 622 H 62.6043 1.41315 -0.276768 0
M  V30 623 H 64.5573 3.86374 1.68204 0
M  V30 624 H 63.2813 2.64364 1.9178 0
M  V30 625 H 61.9403 3.66571 0.0461769 0
M  V30 626 H 61.5883 4.41762 2.40531 0
M  V30 627 H 61.2883 5.74122 1.25131 0
M  V30 628 H 62.8123 5.70246 2.18293 0
M  V30 629 H 64.2263 5.73232 -0.0883058 0
M  V30 630 H 62.6233 5.94026 -0.851679 0
M  V30 631 H 63.6933 4.64037 -1.40703 0
M  V30 632 N 65.0364 0.313813 1.54444 0
M  V30 633 C 66.2824 -0.292108 2.00685 0
M  V30 634 C 66.6154 -1.52548 1.20177 0
M  V30 635 O 65.8904 -1.92452 0.281531 0
M  V30 636 C 66.1734 -0.635968 3.5444 0
M  V30 637 C 66.0264 0.607437 4.4568 0
M  V30 638 C 67.3454 -1.45747 4.15266 0
M  V30 639 H 64.4644 -0.104697 0.729526 0
M  V30 640 H 67.1064 0.428457 1.85106 0
M  V30 641 H 65.2564 -1.24986 3.67846 0
M  V30 642 H 66.9284 1.24581 4.44159 0
M  V30 643 H 65.1714 1.23822 4.15753 0
M  V30 644 H 65.8424 0.322515 5.51057 0
M  V30 645 H 68.3184 -0.938645 4.05375 0
M  V30 646 H 67.1944 -1.66683 5.2298 0
M  V30 647 H 67.4554 -2.45063 3.67963 0
M  V30 648 N 66.5145 -1.57545 0.0417849 0
M  V30 649 C 67.4475 -2.06514 -0.970928 0
M  V30 650 C 68.4255 -0.963607 -1.30971 0
M  V30 651 O 69.6095 -1.23486 -1.4242 0
M  V30 652 C 66.7365 -2.4978 -2.28752 0
M  V30 653 C 65.7825 -3.71078 -2.10246 0
M  V30 654 S 66.6155 -5.17158 -1.38952 0
M  V30 655 C 67.7715 -5.6373 -2.71954 0
M  V30 656 H 68.0045 -2.9209 -0.554129 0
M  V30 657 H 65.5375 -1.53459 -0.17024 0
M  V30 658 H 67.4955 -2.75371 -3.04435 0
M  V30 659 H 66.1565 -1.64527 -2.67562 0
M  V30 660 H 65.3495 -3.9924 -3.07609 0
M  V30 661 H 64.9515 -3.45705 -1.42704 0
M  V30 662 H 67.2435 -5.68743 -3.68154 0
M  V30 663 H 68.1865 -6.63086 -2.4844 0
M  V30 664 H 68.5945 -4.91424 -2.77782 0
M  V30 665 N 67.9926 0.231505 -1.5589 0
M  V30 666 C 69.2396 0.957352 -1.78441 0
M  V30 667 C 69.5676 1.84726 -0.60882 0
M  V30 668 O 68.8226 1.91416 0.40725 0
M  V30 669 C 69.1216 1.83577 -3.0665 0
M  V30 670 C 68.7876 1.09993 -4.37278 0
M  V30 671 C 67.4496 0.896629 -4.72773 0
M  V30 672 C 69.8016 0.579558 -5.17968 0
M  V30 673 C 67.1296 0.160896 -5.86479 0
M  V30 674 C 69.4816 -0.142783 -6.32439 0
M  V30 675 C 68.1456 -0.357427 -6.66542 0
M  V30 676 H 67.4156 0.35032 -0.65296 0
M  V30 677 H 70.0626 0.226259 -1.90159 0
M  V30 678 H 68.3676 2.63441 -2.90011 0
M  V30 679 H 70.0646 2.39934 -3.21298 0
M  V30 680 H 66.6546 1.26835 -4.09403 0
M  V30 681 H 70.8386 0.724125 -4.90989 0
M  V30 682 H 66.0946 -0.0157293 -6.11398 0
M  V30 683 H 70.2686 -0.553559 -6.94196 0
M  V30 684 H 67.8956 -0.929466 -7.54497 0
M  V30 685 N 69.4707 1.49531 0.497807 0
M  V30 686 C 70.6957 1.63159 1.28039 0
M  V30 687 C 71.1207 0.30418 1.85624 0
M  V30 688 O 70.4787 -0.728618 1.66015 0
M  V30 689 C 70.5267 2.70537 2.38416 0
M  V30 690 O 69.6307 2.29931 3.42353 0
M  V30 691 H 68.9717 0.546001 0.377861 0
M  V30 692 H 71.5017 1.9574 0.59558 0
M  V30 693 H 71.5117 2.92802 2.84132 0
M  V30 694 H 70.1867 3.6689 1.95869 0
M  V30 695 H 68.7637 2.18009 3.02533 0
M  V30 696 N 70.9488 -0.749086 1.3866 0
M  V30 697 C 71.8818 -1.87111 1.30631 0
M  V30 698 C 72.8598 -1.61572 0.18251 0
M  V30 699 O 74.0438 -1.85019 0.360592 0
M  V30 700 C 71.1708 -3.22815 1.02511 0
M  V30 701 C 70.2168 -3.67234 2.1689 0
M  V30 702 S 71.0498 -3.78245 3.79066 0
M  V30 703 C 72.2058 -5.16761 3.53142 0
M  V30 704 H 72.4388 -1.93636 2.25594 0
M  V30 705 H 69.9718 -0.912525 1.24549 0
M  V30 706 H 71.9298 -4.01181 0.869701 0
M  V30 707 H 70.5908 -3.13964 0.0925884 0
M  V30 708 H 69.7838 -4.65677 1.92771 0
M  V30 709 H 69.3858 -2.96034 2.28561 0
M  V30 710 H 71.6778 -6.02656 3.09534 0
M  V30 711 H 72.6208 -5.45902 4.50995 0
M  V30 712 H 73.0288 -4.85771 2.87554 0
M  V30 713 N 72.4269 -1.23603 -0.977757 0
M  V30 714 C 73.6749 -1.06759 -1.71601 0
M  V30 715 C 73.9959 0.395929 -1.90938 0
M  V30 716 O 73.2659 1.28356 -1.47992 0
M  V30 717 H 71.8459 -0.392062 -0.635843 0
M  V30 718 H 74.5079 -1.55362 -1.1768 0
M  V30 719 H 73.6039 -1.55763 -2.70452 0
M  V30 720 N 73.905 1.17692 -1.04816 0
M  V30 721 C 75.145 1.89545 -0.764979 0
M  V30 722 C 75.509 1.78979 0.695028 0
M  V30 723 O 76.71 2.45613 1.09215 0
M  V30 724 C 74.981 3.35659 -1.22751 0
M  V30 725 S 76.54 4.25526 -1.07112 0
M  V30 726 H 73.358 0.654432 -0.27792 0
M  V30 727 H 75.96 1.42163 -1.34201 0
M  V30 728 H 74.664 3.40882 -2.28533 0
M  V30 729 H 74.195 3.88083 -0.644594 0
M  V30 730 H 76.21 4.962 0.00697508 0
M  V30 731 N 75.3831 0.828654 1.34056 0
M  V30 732 C 76.3311 0.242973 2.31327 0
M  V30 733 C 77.3251 -0.61944 1.57668 0
M  V30 734 O 78.5311 -0.51014 1.7262 0
M  V30 735 H 74.9061 0.059834 0.749616 0
M  V30 736 H 76.8771 1.07809 2.78244 0
M  V30 737 C 75.6261 -0.575733 3.429 0
M  V30 738 H 74.9491 0.0785582 3.99723 0
M  V30 739 H 76.3891 -0.951547 4.13185 0
M  V30 740 C 74.8481 -1.75044 2.87856 0
M  V30 741 O 75.3781 -2.84882 2.83205 0
M  V30 742 N 73.5841 -1.56903 2.44602 0
M  V30 743 H 73.1311 -0.675547 2.48584 0
M  V30 744 H 73.0891 -2.35652 2.08124 0
M  V30 745 N 76.8612 -1.46375 0.584142 0
M  V30 746 C 78.1072 -2.02678 0.0703716 0
M  V30 747 C 78.4402 -1.4545 -1.28678 0
M  V30 748 O 77.7152 -0.62014 -1.84349 0
M  V30 749 C 77.9982 -3.60099 0.00614674 0
M  V30 750 C 77.8512 -4.27709 1.3923 0
M  V30 751 C 79.1702 -4.34598 -0.693742 0
M  V30 752 H 76.2892 -0.736504 0.027047 0
M  V30 753 H 78.9312 -1.74501 0.751615 0
M  V30 754 H 77.0812 -3.84236 -0.574009 0
M  V30 755 H 78.7532 -4.14832 2.01773 0
M  V30 756 H 76.9962 -3.87016 1.95962 0
M  V30 757 H 77.6672 -5.36478 1.29982 0
M  V30 758 H 80.1432 -4.15615 -0.200869 0
M  V30 759 H 79.0192 -5.44318 -0.707714 0
M  V30 760 H 79.2802 -4.05759 -1.75533 0
M  V30 761 N 78.3393 -0.321999 -1.54275 0
M  V30 762 C 79.2493 0.553631 -2.27974 0
M  V30 763 C 80.2653 1.13054 -1.32268 0
M  V30 764 O 81.4413 1.15084 -1.6528 0
M  V30 765 C 78.5063 1.69927 -3.02201 0
M  V30 766 C 77.5673 1.15433 -4.1349 0
M  V30 767 C 76.8003 2.24537 -4.84168 0
M  V30 768 O 77.0233 3.44852 -4.5435 0
M  V30 769 O 75.9573 1.90044 -5.7111 0
M  V30 770 H 79.7833 -0.0448345 -3.03667 0
M  V30 771 H 77.3683 -0.0877418 -1.49142 0
M  V30 772 H 79.2503 2.3663 -3.48689 0
M  V30 773 H 77.9253 2.28395 -2.29385 0
M  V30 774 H 76.8323 0.452436 -3.71354 0
M  V30 775 H 78.1653 0.614805 -4.88345 0
M  V30 776 N 79.8174 1.5752 -0.0501392 0
M  V30 777 C 81.0664 1.91827 0.623328 0
M  V30 778 C 81.3794 0.930222 1.72065 0
M  V30 779 O 82.5854 1.1653 2.4522 0
M  V30 780 C 81.0414 3.40692 1.16003 0
M  V30 781 C 80.6494 4.479 0.0948811 0
M  V30 782 C 82.3934 3.84034 1.80881 0
M  V30 783 C 80.3004 5.87879 0.644411 0
M  V30 784 H 79.2304 0.715918 0.236596 0
M  V30 785 H 81.8814 1.83115 -0.118861 0
M  V30 786 H 80.2634 3.44405 1.9545 0
M  V30 787 H 81.4374 4.55775 -0.678675 0
M  V30 788 H 79.7524 4.13892 -0.45637 0
M  V30 789 H 82.3494 4.85984 2.22988 0
M  V30 790 H 82.6924 3.20225 2.6601 0
M  V30 791 H 83.2254 3.82833 1.0809 0
M  V30 792 H 79.9644 6.55282 -0.169229 0
M  V30 793 H 79.4844 5.83567 1.38598 0
M  V30 794 H 81.1634 6.37098 1.12763 0
M  V30 795 N 81.2955 -0.223234 1.56011 0
M  V30 796 C 82.2425 -1.27664 1.92277 0
M  V30 797 C 83.2125 -1.46659 0.779763 0
M  V30 798 O 84.3975 -1.60256 1.03551 0
M  V30 799 C 81.5375 -2.62234 2.24338 0
M  V30 800 C 80.6505 -2.51051 3.51564 0
M  V30 801 C 79.7855 -3.78133 3.7308 0
M  V30 802 C 78.8245 -3.61665 4.93827 0
M  V30 803 N 77.9615 -4.80693 5.11741 0
M  V30 804 H 82.8015 -0.960358 2.82101 0
M  V30 805 H 80.3385 -0.462901 1.39627 0
M  V30 806 H 82.2965 -3.40596 2.40936 0
M  V30 807 H 80.9265 -2.91961 1.3769 0
M  V30 808 H 79.9785 -1.64132 3.43169 0
M  V30 809 H 81.2905 -2.34803 4.40079 0
M  V30 810 H 80.4445 -4.64938 3.89766 0
M  V30 811 H 79.1835 -3.97304 2.82844 0
M  V30 812 H 78.1885 -2.73244 4.77093 0
M  V30 813 H 79.4135 -3.43966 5.85546 0
M  V30 814 H 77.3595 -5.00181 4.24446 0
M  V30 815 H 77.2765 -4.67165 5.94384 0
M  V30 816 H 78.5445 -5.6893 5.3286 0
M  V30 817 N 82.7736 -1.49793 -0.48987 0
M  V30 818 C 83.7206 -1.67281 -1.59014 0
M  V30 819 C 84.6906 -0.514177 -1.57941 0
M  V30 820 O 85.8756 -0.742533 -1.75759 0
M  V30 821 C 83.0156 -1.75569 -2.97102 0
M  V30 822 C 82.1286 -3.0281 -3.08107 0
M  V30 823 C 81.2636 -3.02008 -4.36995 0
M  V30 824 C 80.3026 -4.23782 -4.41673 0
M  V30 825 N 79.4396 -4.20826 -5.62005 0
M  V30 826 H 84.2796 -2.61224 -1.43409 0
M  V30 827 H 81.8166 -1.29508 -0.697565 0
M  V30 828 H 83.7746 -1.78354 -3.77155 0
M  V30 829 H 82.4046 -0.850827 -3.11385 0
M  V30 830 H 81.4566 -3.09584 -2.21047 0
M  V30 831 H 82.7686 -3.92801 -3.07423 0
M  V30 832 H 81.9226 -3.03418 -5.25378 0
M  V30 833 H 80.6616 -2.09815 -4.4026 0
M  V30 834 H 79.6666 -4.22604 -3.5169 0
M  V30 835 H 80.8916 -5.17181 -4.40115 0
M  V30 836 H 78.8376 -3.31476 -5.66091 0
M  V30 837 H 78.7546 -5.04564 -5.62984 0
M  V30 838 H 80.0226 -4.26355 -6.52565 0
M  V30 839 N 84.2517 0.741722 -1.39055 0
M  V30 840 C 85.4987 1.50114 -1.35912 0
M  V30 841 C 85.8267 1.94443 0.0470937 0
M  V30 842 O 85.0817 1.66612 1.02659 0
M  V30 843 C 85.3807 2.7592 -2.27163 0
M  V30 844 C 85.0467 2.50493 -3.74919 0
M  V30 845 C 83.7087 2.43267 -4.1518 0
M  V30 846 C 86.0607 2.28585 -4.684 0
M  V30 847 C 83.3887 2.12166 -5.46994 0
M  V30 848 C 85.7407 1.99002 -6.00484 0
M  V30 849 C 84.4047 1.90241 -6.39816 0
M  V30 850 H 83.6747 0.549306 -0.497336 0
M  V30 851 H 86.3217 0.851896 -1.71508 0
M  V30 852 H 84.6267 3.45553 -1.84663 0
M  V30 853 H 86.3237 3.33923 -2.22028 0
M  V30 854 H 82.9137 2.56992 -3.43006 0
M  V30 855 H 87.0977 2.33139 -4.38132 0
M  V30 856 H 82.3537 2.03901 -5.76398 0
M  V30 857 H 86.5277 1.81057 -6.72452 0
M  V30 858 H 84.1547 1.65907 -7.41875 0
M  V30 859 N 85.7298 1.2412 0.971189 0
M  V30 860 C 86.6598 1.05508 2.08304 0
M  V30 861 C 87.6408 -0.0308864 1.70072 0
M  V30 862 O 88.8258 0.135521 1.93727 0
M  V30 863 C 85.9558 0.655365 3.4106 0
M  V30 864 C 84.9098 1.68971 3.93234 0
M  V30 865 C 84.2358 1.14516 5.22293 0
M  V30 866 C 85.5358 3.08487 4.21465 0
M  V30 867 H 87.2298 1.98507 2.24132 0
M  V30 868 H 84.7758 0.955821 1.07704 0
M  V30 869 H 86.7288 0.51217 4.18276 0
M  V30 870 H 85.4528 -0.31032 3.25122 0
M  V30 871 H 84.1118 1.82106 3.18171 0
M  V30 872 H 83.7598 0.170189 5.02712 0
M  V30 873 H 83.4598 1.83635 5.58168 0
M  V30 874 H 84.9838 1.01401 6.02121 0
M  V30 875 H 86.3978 2.98601 4.89398 0
M  V30 876 H 84.7948 3.74926 4.68562 0
M  V30 877 H 85.8648 3.56787 3.28376 0
M  V30 878 N 87.2079 -1.17134 1.05439 0
M  V30 879 C 88.4559 -1.87085 0.764429 0
M  V30 880 C 88.7769 -1.81584 -0.710787 0
M  V30 881 O 88.0469 -1.24349 -1.51374 0
M  V30 882 H 86.6269 -0.692627 0.279779 0
M  V30 883 H 89.2889 -1.42087 1.33406 0
M  V30 884 H 88.3849 -2.92759 1.0816 0
M  V30 885 N 88.686 -0.835752 -1.33615 0
M  V30 886 C 89.636 -0.238856 -2.26745 0
M  V30 887 C 90.62 0.604343 -1.49119 0
M  V30 888 O 91.812 0.456822 -1.71003 0
M  V30 889 C 88.941 0.587725 -3.38232 0
M  V30 890 C 88.027 -0.266811 -4.2326 0
M  V30 891 N 88.418 -1.34403 -4.87616 0
M  V30 892 C 86.716 -0.0533131 -4.45968 0
M  V30 893 C 87.417 -1.86819 -5.50884 0
M  V30 894 N 86.393 -1.17013 -5.30857 0
M  V30 895 H 90.195 -1.06266 -2.74016 0
M  V30 896 H 87.709 -0.679881 -1.47483 0
M  V30 897 H 89.706 1.03161 -4.03935 0
M  V30 898 H 88.366 1.40954 -2.9251 0
M  V30 899 H 89.377 -1.7269 -4.88261 0
M  V30 900 H 86.054 0.735312 -4.10974 0
M  V30 901 H 87.444 -2.7701 -6.1214 0
M  V30 902 N 90.1641 1.46063 -0.591896 0
M  V30 903 C 91.4131 2.01547 -0.0786637 0
M  V30 904 C 91.7261 1.46796 1.29268 0
M  V30 905 O 92.9321 1.94157 1.89777 0
M  V30 906 C 91.3881 3.59787 -0.0900024 0
M  V30 907 C 90.9961 4.23534 -1.46023 0
M  V30 908 C 92.7401 4.22895 0.368806 0
M  V30 909 C 90.6471 5.73881 -1.4288 0
M  V30 910 H 89.5771 0.753564 -0.0256388 0
M  V30 911 H 92.2281 1.677 -0.744905 0
M  V30 912 H 90.6101 3.90752 0.642586 0
M  V30 913 H 91.7841 4.04167 -2.21328 0
M  V30 914 H 90.0991 3.72558 -1.85982 0
M  V30 915 H 92.6961 5.33116 0.411258 0
M  V30 916 H 93.0391 3.9247 1.38827 0
M  V30 917 H 93.5721 3.9659 -0.31001 0
M  V30 918 H 90.3111 6.0898 -2.42536 0
M  V30 919 H 89.8311 5.95486 -0.718095 0
M  V30 920 H 91.5101 6.36776 -1.14565 0
M  V30 921 N 91.6422 0.330177 1.54103 0
M  V30 922 C 92.5892 -0.532762 2.24567 0
M  V30 923 C 93.5592 -1.10635 1.23892 0
M  V30 924 O 94.7442 -1.14546 1.5259 0
M  V30 925 C 91.8842 -1.6845 3.01195 0
M  V30 926 C 90.9972 -1.13951 4.167 0
M  V30 927 C 90.1322 -2.25746 4.80845 0
M  V30 928 C 89.1712 -1.6853 5.88442 0
M  V30 929 N 88.3082 -2.74014 6.46421 0
M  V30 930 H 93.1482 0.0746905 2.97906 0
M  V30 931 H 90.6852 0.048632 1.4702 0
M  V30 932 H 92.6432 -2.36234 3.43874 0
M  V30 933 H 91.2732 -2.26314 2.30178 0
M  V30 934 H 90.3252 -0.35301 3.78758 0
M  V30 935 H 91.6372 -0.680892 4.94131 0
M  V30 936 H 90.7912 -3.01422 5.26526 0
M  V30 937 H 89.5302 -2.74947 4.0281 0
M  V30 938 H 88.5352 -0.913543 5.42157 0
M  V30 939 H 89.7602 -1.20198 6.68378 0
M  V30 940 H 87.7062 -3.22494 5.71256 0
M  V30 941 H 87.6232 -2.32735 7.19285 0
M  V30 942 H 88.8912 -3.49499 6.96757 0
M  V30 943 N 93.1203 -1.57491 0.0584922 0
M  V30 944 C 94.5363 -1.56792 -0.298091 0
M  V30 945 C 94.7363 -1.06679 -1.70944 0
M  V30 946 O 93.7923 -0.726672 -2.41818 0
M  V30 947 C 95.1053 -3.00461 -0.119879 0
M  V30 948 C 96.6533 -3.1242 -0.190428 0
M  V30 949 C 97.1283 -4.57982 -0.0406567 0
M  V30 950 N 98.6193 -4.63099 -0.0966958 0
M  V30 951 C 99.3543 -5.734 -0.00502943 0
M  V30 952 N 98.8503 -6.9266 0.139402 0
M  V30 953 N 100.643 -5.62067 -0.0611391 0
M  V30 954 H 92.7943 -1.88386 0.98105 0
M  V30 955 H 95.0573 -0.867865 0.381463 0
M  V30 956 H 94.7633 -3.41187 0.85349 0
M  V30 957 H 94.6373 -3.66843 -0.877833 0
M  V30 958 H 97.0243 -2.71589 -1.15427 0
M  V30 959 H 97.1053 -2.48702 0.598405 0
M  V30 960 H 96.7493 -4.995 0.919897 0
M  V30 961 H 96.6793 -5.19715 -0.848727 0
M  V30 962 H 99.1703 -3.77331 -0.207277 0
M  V30 963 H 99.4833 -7.72536 0.201855 0
M  V30 964 H 97.8283 -6.94781 0.174586 0
M  V30 965 H 101.019 -4.67782 -0.172583 0
M  V30 966 H 101.192 -6.47999 0.0137562 0
M  V30 967 N 94.5984 0.214957 -1.56127 0
M  V30 968 C 96.0094 0.781386 -1.69562 0
M  V30 969 C 96.3604 1.84707 -0.66165 0
M  V30 970 O 95.4854 2.156 0.185927 0
M  V30 971 C 96.0804 1.42411 -3.07416 0
M  V30 972 C 94.6394 1.93786 -3.22683 0
M  V30 973 C 93.7864 0.800438 -2.65496 0
M  V30 974 H 96.7374 -0.00980633 -1.58697 0
M  V30 975 H 96.7584 2.29309 -3.0364 0
M  V30 976 H 96.2704 0.64826 -3.82648 0
M  V30 977 H 94.3714 2.74152 -2.52332 0
M  V30 978 H 94.4844 2.1133 -4.29973 0
M  V30 979 H 92.8484 1.2095 -2.2415 0
M  V30 980 H 93.6314 0.0371471 -3.4328 0
M  V30 981 N 96.0765 1.50051 0.48192 0
M  V30 982 C 97.3225 1.61706 1.2338 0
M  V30 983 C 97.6775 0.308488 1.89911 0
M  V30 984 O 96.9705 -0.692798 1.78636 0
M  V30 985 C 97.1645 2.72717 2.30998 0
M  V30 986 C 96.9935 4.14242 1.75024 0
M  V30 987 C 95.7635 4.80786 1.55476 0
M  V30 988 C 97.9615 4.98846 1.25128 0
M  V30 989 N 95.9435 6.06563 0.946311 0
M  V30 990 C 97.3145 6.15258 0.765382 0
M  V30 991 C 99.3695 4.84702 1.13881 0
M  V30 992 C 98.0725 7.19079 0.178113 0
M  V30 993 C 100.098 5.8869 0.565486 0
M  V30 994 C 99.4605 7.04343 0.0899105 0
M  V30 995 H 95.5595 0.645958 0.440753 0
M  V30 996 H 98.1435 1.8713 0.537624 0
M  V30 997 H 96.3145 2.49033 2.98055 0
M  V30 998 H 98.0465 2.73789 2.9803 0
M  V30 999 H 94.8015 4.37899 1.80392 0
M  V30 1000 H 95.2255 6.73767 0.660812 0
M  V30 1001 H 99.8675 3.95583 1.49244 0
M  V30 1002 H 97.5855 8.07882 -0.187749 0
M  V30 1003 H 101.171 5.79808 0.480974 0
M  V30 1004 H 100.051 7.83433 -0.346782 0
M  V30 1005 N 97.5546 -0.734337 1.39446 0
M  V30 1006 C 98.8026 -1.49096 1.36436 0
M  V30 1007 C 99.1236 -1.94961 -0.0388255 0
M  V30 1008 O 98.3936 -1.69033 -0.990191 0
M  V30 1009 H 96.9736 -0.5531 0.502085 0
M  V30 1010 H 99.6356 -0.871725 1.74319 0
M  V30 1011 H 98.7316 -2.37276 2.02747 0
M  V30 1012 N 99.0327 -1.24633 -0.964593 0
M  V30 1013 C 100.282 -1.08188 -1.7023 0
M  V30 1014 C 100.595 0.37873 -1.91898 0
M  V30 1015 O 101.801 0.663427 -2.6327 0
M  V30 1016 C 100.257 -1.88773 -3.06419 0
M  V30 1017 C 99.8647 -3.39263 -2.92582 0
M  V30 1018 C 101.609 -1.80867 -3.84041 0
M  V30 1019 C 99.5157 -4.1218 -4.24101 0
M  V30 1020 H 98.4457 -0.401245 -0.638372 0
M  V30 1021 H 101.097 -1.48742 -1.07462 0
M  V30 1022 H 99.4787 -1.41035 -3.70034 0
M  V30 1023 H 100.653 -3.94603 -2.37961 0
M  V30 1024 H 98.9677 -3.48154 -2.28424 0
M  V30 1025 H 101.565 -2.32646 -4.81435 0
M  V30 1026 H 101.908 -0.774543 -4.09031 0
M  V30 1027 H 102.441 -2.26301 -3.27159 0
M  V30 1028 H 99.1797 -5.15965 -4.04303 0
M  V30 1029 H 98.6997 -3.61626 -4.78526 0
M  V30 1030 H 100.379 -4.19349 -4.92702 0
M  V30 1031 N 100.511 1.16574 -1.06058 0
M  V30 1032 C 101.751 1.88723 -0.78504 0
M  V30 1033 C 102.115 1.79706 0.676006 0
M  V30 1034 O 103.316 2.46757 1.06603 0
M  V30 1035 C 101.587 3.34338 -1.26304 0
M  V30 1036 S 103.146 4.24366 -1.1162 0
M  V30 1037 H 99.9638 0.651448 -0.284846 0
M  V30 1038 H 102.566 1.40732 -1.35701 0
M  V30 1039 H 101.27 3.38439 -2.32136 0
M  V30 1040 H 100.801 3.87378 -0.685719 0
M  V30 1041 H 102.816 4.96179 -0.0456539 0
M  V30 1042 N 101.989 0.842826 1.3317 0
M  V30 1043 C 103.235 0.441099 1.97945 0
M  V30 1044 C 103.568 -0.998024 1.66593 0
M  V30 1045 O 102.843 -1.69839 0.947898 0
M  V30 1046 C 103.126 0.666841 3.53872 0
M  V30 1047 C 102.979 2.15352 3.94897 0
M  V30 1048 C 104.298 0.115544 4.39948 0
M  V30 1049 H 101.417 0.161739 0.719034 0
M  V30 1050 H 104.059 1.05907 1.57746 0
M  V30 1051 H 102.209 0.140828 3.88245 0
M  V30 1052 H 103.881 2.7447 3.70761 0
M  V30 1053 H 102.124 2.63653 3.44484 0
M  V30 1054 H 102.795 2.26221 5.03516 0
M  V30 1055 H 105.271 0.565213 4.12243 0
M  V30 1056 H 104.147 0.303152 5.48062 0
M  V30 1057 H 104.408 -0.980935 4.3108 0
M  V30 1058 N 103.467 -1.45747 0.599634 0
M  V30 1059 C 104.715 -2.01893 0.0915472 0
M  V30 1060 C 105.036 -1.47155 -1.27946 0
M  V30 1061 O 104.306 -0.66273 -1.84349 0
M  V30 1062 H 102.886 -0.746363 0.0308524 0
M  V30 1063 H 105.548 -1.78645 0.779237 0
M  V30 1064 H 104.644 -3.1208 0.0353086 0
M  V30 1065 N 104.945 -0.338344 -1.53925 0
M  V30 1066 C 106.192 0.259758 -2.00827 0
M  V30 1067 C 106.52 1.50973 -1.22628 0
M  V30 1068 O 105.775 1.93379 -0.300509 0
M  V30 1069 C 106.074 0.62448 -3.51902 0
M  V30 1070 C 105.74 -0.528006 -4.47798 0
M  V30 1071 C 104.402 -0.844298 -4.73735 0
M  V30 1072 C 106.754 -1.30143 -5.0469 0
M  V30 1073 C 104.082 -1.93648 -5.53821 0
M  V30 1074 C 106.434 -2.38382 -5.85967 0
M  V30 1075 C 105.098 -2.70576 -6.10201 0
M  V30 1076 H 104.368 0.0950523 -0.734878 0
M  V30 1077 H 107.015 -0.465182 -1.85764 0
M  V30 1078 H 105.32 1.43006 -3.64769 0
M  V30 1079 H 107.017 1.09905 -3.85645 0
M  V30 1080 H 103.607 -0.271421 -4.2774 0
M  V30 1081 H 107.791 -1.07033 -4.84621 0
M  V30 1082 H 103.047 -2.19021 -5.70824 0
M  V30 1083 H 107.221 -2.98746 -6.29066 0
M  V30 1084 H 104.848 -3.55333 -6.72044 0
M  V30 1085 N 106.423 1.57458 -0.0668435 0
M  V30 1086 C 107.353 2.15468 0.899764 0
M  V30 1087 C 108.334 1.08042 1.31381 0
M  V30 1088 O 109.519 1.36054 1.38574 0
M  V30 1089 C 106.649 2.71232 2.16911 0
M  V30 1090 C 105.603 3.83781 1.89463 0
M  V30 1091 C 104.929 4.26127 3.22986 0
M  V30 1092 C 106.229 5.08238 1.20381 0
M  V30 1093 H 107.923 2.96488 0.416529 0
M  V30 1094 H 105.469 1.4262 0.198908 0
M  V30 1095 H 107.422 3.10458 2.84945 0
M  V30 1096 H 106.146 1.87426 2.67468 0
M  V30 1097 H 104.805 3.45051 1.23836 0
M  V30 1098 H 104.453 3.39249 3.71374 0
M  V30 1099 H 104.153 5.01993 3.05413 0
M  V30 1100 H 105.677 4.67966 3.92225 0
M  V30 1101 H 107.091 5.44811 1.78475 0
M  V30 1102 H 105.488 5.89349 1.13083 0
M  V30 1103 H 106.558 4.84558 0.182153 0
M  V30 1104 N 107.901 -0.206675 1.56239 0
M  V30 1105 C 109.141 -0.93574 1.81723 0
M  V30 1106 C 109.505 -1.80927 0.642609 0
M  V30 1107 O 110.706 -2.57323 0.777081 0
M  V30 1108 C 108.977 -1.74012 3.12177 0
M  V30 1109 S 110.536 -2.52279 3.59028 0
M  V30 1110 H 107.354 -0.314065 0.637875 0
M  V30 1111 H 109.956 -0.200071 1.94474 0
M  V30 1112 H 108.66 -1.0888 3.95693 0
M  V30 1113 H 108.191 -2.51782 3.02274 0
M  V30 1114 H 110.206 -3.76209 3.23545 0
M  V30 1115 N 109.379 -1.50304 -0.473955 0
M  V30 1116 C 110.311 -1.65109 -1.58971 0
M  V30 1117 C 111.324 -0.532676 -1.53839 0
M  V30 1118 O 112.513 -0.805751 -1.59279 0
M  V30 1119 C 109.613 -1.61684 -2.97845 0
M  V30 1120 C 108.786 -2.8951 -3.27876 0
M  V30 1121 C 107.845 -2.78768 -4.4629 0
M  V30 1122 O 106.871 -3.52722 -4.46739 0
M  V30 1123 N 108.073 -1.9213 -5.47783 0
M  V30 1124 H 110.838 -2.61347 -1.46689 0
M  V30 1125 H 108.399 -1.47732 -0.662324 0
M  V30 1126 H 110.391 -1.52114 -3.75024 0
M  V30 1127 H 108.961 -0.731925 -3.03911 0
M  V30 1128 H 108.181 -3.13228 -2.39336 0
M  V30 1129 H 109.469 -3.74199 -3.4475 0
M  V30 1130 H 108.867 -1.31353 -5.50239 0
M  V30 1131 H 107.424 -1.88466 -6.23958 0
M  V30 1132 N 110.857 0.726932 -1.39834 0
M  V30 1133 C 112.104 1.48664 -1.37496 0
M  V30 1134 C 112.432 1.94482 0.0264678 0
M  V30 1135 O 111.687 1.67692 1.00886 0
M  V30 1136 C 111.986 2.73495 -2.30077 0
M  V30 1137 C 111.652 2.46502 -3.77555 0
M  V30 1138 C 110.314 2.3885 -4.17737 0
M  V30 1139 C 112.666 2.23604 -4.70798 0
M  V30 1140 C 109.994 2.06352 -5.49214 0
M  V30 1141 C 112.346 1.92622 -6.02561 0
M  V30 1142 C 111.01 1.83444 -6.41798 0
M  V30 1143 H 110.28 0.544001 -0.503135 0
M  V30 1144 H 112.927 0.833657 -1.72402 0
M  V30 1145 H 111.232 3.43575 -1.88317 0
M  V30 1146 H 112.929 3.31549 -2.25558 0
M  V30 1147 H 109.519 2.5334 -3.45712 0
M  V30 1148 H 113.703 2.28479 -4.40581 0
M  V30 1149 H 108.959 1.97776 -5.78528 0
M  V30 1150 H 113.133 1.73914 -6.74334 0
M  V30 1151 H 110.76 1.58029 -7.43593 0
M  V30 1152 N 112.336 1.25143 0.95797 0
M  V30 1153 C 113.584 1.09476 1.69881 0
M  V30 1154 C 113.905 -0.365502 1.91544 0
M  V30 1155 O 113.175 -1.25985 1.50015 0
M  V30 1156 H 111.755 0.402128 0.629525 0
M  V30 1157 H 114.417 1.57214 1.15194 0
M  V30 1158 H 113.513 1.60046 2.6794 0
M  V30 1159 N 113.814 -1.1601 1.06675 0
M  V30 1160 C 115.063 -1.85973 0.780818 0
M  V30 1161 C 115.376 -1.82819 -0.695444 0
M  V30 1162 O 116.582 -2.484 -1.09589 0
M  V30 1163 C 115.038 -3.33757 1.34665 0
M  V30 1164 C 114.646 -3.45374 2.85343 0
M  V30 1165 C 116.39 -4.0895 1.13843 0
M  V30 1166 C 114.297 -4.87266 3.35151 0
M  V30 1167 H 113.227 -0.696661 0.288407 0
M  V30 1168 H 115.878 -1.30903 1.28595 0
M  V30 1169 H 114.26 -3.88456 0.769274 0
M  V30 1170 H 115.434 -3.00816 3.49065 0
M  V30 1171 H 113.749 -2.83619 3.04876 0
M  V30 1172 H 116.346 -5.13654 1.4854 0
M  V30 1173 H 116.689 -4.16229 0.0770282 0
M  V30 1174 H 117.222 -3.605 1.68179 0
M  V30 1175 H 113.961 -4.85168 4.40786 0
M  V30 1176 H 113.481 -5.32433 2.76179 0
M  V30 1177 H 115.16 -5.56097 3.30704 0
M  V30 1178 N 115.292 -0.849877 -1.32721 0
M  V30 1179 C 116.225 -0.235903 -2.26977 0
M  V30 1180 C 117.203 0.623355 -1.50177 0
M  V30 1181 O 118.387 0.581207 -1.79316 0
M  V30 1182 C 115.514 0.667712 -3.32053 0
M  V30 1183 C 114.56 -0.11753 -4.26338 0
M  V30 1184 S 115.393 -1.48277 -5.14562 0
M  V30 1185 C 116.549 -0.584741 -6.23163 0
M  V30 1186 H 116.782 -1.03495 -2.78704 0
M  V30 1187 H 114.315 -0.64724 -1.40179 0
M  V30 1188 H 116.273 1.18343 -3.93072 0
M  V30 1189 H 114.934 1.44052 -2.7912 0
M  V30 1190 H 114.127 0.57051 -5.00761 0
M  V30 1191 H 113.729 -0.564668 -3.69713 0
M  V30 1192 H 116.021 0.212968 -6.77165 0
M  V30 1193 H 116.964 -1.29947 -6.96074 0
M  V30 1194 H 117.372 -0.161202 -5.6427 0
M  V30 1195 N 116.77 1.45427 -0.607355 0
M  V30 1196 C 118.181 1.85756 -0.187535 0
M  V30 1197 C 118.532 1.5077 1.25551 0
M  V30 1198 O 117.657 0.93427 1.95193 0
M  V30 1199 C 118.252 3.37154 -0.333572 0
M  V30 1200 C 116.811 3.76387 0.0315542 0
M  V30 1201 C 115.958 2.69377 -0.658117 0
M  V30 1202 H 118.909 1.36231 -0.81405 0
M  V30 1203 H 118.93 3.78014 0.43428 0
M  V30 1204 H 118.442 3.62586 -1.38393 0
M  V30 1205 H 116.543 3.56571 1.0811 0
M  V30 1206 H 116.656 4.77731 -0.361935 0
M  V30 1207 H 115.02 2.5452 -0.0957873 0
M  V30 1208 H 115.803 2.97646 -1.7106 0
M  V30 1209 N 118.248 0.346503 1.53744 0
M  V30 1210 C 119.178 -0.501193 2.28058 0
M  V30 1211 C 120.159 -1.10014 1.29734 0
M  V30 1212 O 121.344 -1.12097 1.58581 0
M  V30 1213 C 118.474 -1.65078 3.05559 0
M  V30 1214 C 117.428 -1.18003 4.11411 0
M  V30 1215 C 116.754 -2.41837 4.76884 0
M  V30 1216 C 118.054 -0.278394 5.21558 0
M  V30 1217 H 119.748 0.11875 2.99164 0
M  V30 1218 H 117.294 0.0585531 1.43881 0
M  V30 1219 H 119.247 -2.25028 3.56287 0
M  V30 1220 H 117.971 -2.29767 2.32109 0
M  V30 1221 H 116.63 -0.603331 3.61601 0
M  V30 1222 H 116.278 -3.0494 4.00026 0
M  V30 1223 H 115.978 -2.1102 5.48402 0
M  V30 1224 H 117.502 -3.02508 5.30397 0
M  V30 1225 H 118.916 -0.784823 5.67903 0
M  V30 1226 H 117.313 -0.0619707 6.00068 0
M  V30 1227 H 118.383 0.684677 4.80042 0
M  V30 1228 N 119.726 -1.57421 0.075193 0
M  V30 1229 C 120.954 -1.97946 -0.602076 0
M  V30 1230 C 121.369 -0.953674 -1.62943 0
M  V30 1231 O 120.726 0.0592551 -1.82404 0
M  V30 1232 C 120.777 -3.38546 -1.26762 0
M  V30 1233 O 120.498 -4.37195 -0.281376 0
M  V30 1234 C 121.999 -3.93966 -2.03239 0
M  V30 1235 H 119.219 -0.650918 -0.162931 0
M  V30 1236 H 121.763 -2.03959 0.148601 0
M  V30 1237 H 119.918 -3.33609 -1.96936 0
M  V30 1238 H 120.332 -5.18975 -0.759267 0
M  V30 1239 H 121.806 -4.94555 -2.45193 0
M  V30 1240 H 122.283 -3.30693 -2.8903 0
M  V30 1241 H 122.889 -4.02315 -1.37924 0
M  V30 1242 N 121.204 0.198386 -1.56346 0
M  V30 1243 C 122.452 0.91747 -1.80075 0
M  V30 1244 C 122.773 1.83929 -0.647692 0
M  V30 1245 O 122.043 1.93029 0.334166 0
M  V30 1246 H 120.623 0.341774 -0.664228 0
M  V30 1247 H 123.285 0.204684 -1.93822 0
M  V30 1248 H 122.381 1.51055 -2.7311 0
M  V30 1249 N 122.682 1.50554 0.465978 0
M  V30 1250 C 123.929 1.61798 1.21768 0
M  V30 1251 C 124.257 0.320696 1.91838 0
M  V30 1252 O 123.512 -0.693724 1.82992 0
M  V30 1253 C 123.811 2.75152 2.28093 0
M  V30 1254 C 123.477 4.15454 1.75239 0
M  V30 1255 C 122.139 4.53628 1.60546 0
M  V30 1256 C 124.491 5.03121 1.36083 0
M  V30 1257 C 121.819 5.77204 1.05128 0
M  V30 1258 C 124.171 6.27249 0.821056 0
M  V30 1259 C 122.835 6.64221 0.660795 0
M  V30 1260 H 122.105 0.592063 0.445582 0
M  V30 1261 H 124.752 1.84503 0.512927 0
M  V30 1262 H 123.057 2.46556 3.04496 0
M  V30 1263 H 124.754 2.81055 2.86023 0
M  V30 1264 H 121.344 3.85341 1.87644 0
M  V30 1265 H 125.528 4.74257 1.46267 0
M  V30 1266 H 120.784 6.0452 0.91462 0
M  V30 1267 H 124.958 6.94537 0.509018 0
M  V30 1268 H 122.585 7.59854 0.229226 0
M  V30 1269 N 124.16 -0.719506 1.40217 0
M  V30 1270 C 125.409 -1.47486 1.37589 0
M  V30 1271 C 125.722 -1.9559 -0.0201568 0
M  V30 1272 O 126.928 -2.70973 -0.169049 0
M  V30 1273 C 125.384 -2.66575 2.41796 0
M  V30 1274 C 124.992 -2.25358 3.87192 0
M  V30 1275 C 126.736 -3.4433 2.48269 0
M  V30 1276 C 124.643 -3.41262 4.83005 0
M  V30 1277 H 123.573 -0.553901 0.511576 0
M  V30 1278 H 126.224 -0.783427 1.65936 0
M  V30 1279 H 124.606 -3.3787 2.06543 0
M  V30 1280 H 125.78 -1.61509 4.31569 0
M  V30 1281 H 124.095 -1.60657 3.84159 0
M  V30 1282 H 126.692 -4.30569 3.17041 0
M  V30 1283 H 127.035 -3.87872 1.51198 0
M  V30 1284 H 127.568 -2.80076 2.82493 0
M  V30 1285 H 124.307 -3.02755 5.81394 0
M  V30 1286 H 123.827 -4.0404 4.43297 0
M  V30 1287 H 125.506 -4.07383 5.02641 0
M  V30 1288 N 125.638 -1.25649 -0.95132 0
M  V30 1289 C 126.568 -1.08808 -2.06599 0
M  V30 1290 C 127.549 0.00382547 -1.701 0
M  V30 1291 O 128.734 -0.166325 -1.93486 0
M  V30 1292 C 125.864 -0.709542 -3.39975 0
M  V30 1293 C 124.818 -1.75206 -3.90496 0
M  V30 1294 C 124.144 -1.22811 -5.20405 0
M  V30 1295 C 125.444 -3.15153 -4.16504 0
M  V30 1296 H 127.138 -2.02048 -2.20946 0
M  V30 1297 H 124.684 -0.972835 -1.06169 0
M  V30 1298 H 126.637 -0.578649 -4.17408 0
M  V30 1299 H 125.361 0.258556 -3.25575 0
M  V30 1300 H 124.02 -1.87145 -3.15234 0
M  V30 1301 H 123.668 -0.250145 -5.02378 0
M  V30 1302 H 123.368 -1.92492 -5.55176 0
M  V30 1303 H 124.892 -1.10968 -6.00432 0
M  V30 1304 H 126.306 -3.06349 -4.84586 0
M  V30 1305 H 124.703 -3.82333 -4.62538 0
M  V30 1306 H 125.773 -3.61966 -3.22658 0
M  V30 1307 N 127.117 1.15442 -1.07289 0
M  V30 1308 C 128.342 1.90638 -0.816828 0
M  V30 1309 C 128.767 1.77445 0.624083 0
M  V30 1310 O 128.125 1.10671 1.43602 0
M  V30 1311 C 128.173 3.39008 -1.22906 0
M  V30 1312 O 127.277 4.10701 -0.373975 0
M  V30 1313 H 126.618 0.593555 -0.297638 0
M  V30 1314 H 129.148 1.46198 -1.43134 0
M  V30 1315 H 129.158 3.89801 -1.20497 0
M  V30 1316 H 127.833 3.47929 -2.27856 0
M  V30 1317 H 126.41 3.70046 -0.460499 0
M  V30 1318 N 128.595 0.856903 1.32268 0
M  V30 1319 C 129.841 0.462069 1.97466 0
M  V30 1320 C 130.174 -0.980298 1.67642 0
M  V30 1321 O 129.449 -1.68824 0.965858 0
M  V30 1322 C 129.732 0.704336 3.53145 0
M  V30 1323 C 129.585 2.19529 3.9259 0
M  V30 1324 C 130.904 0.1622 4.39801 0
M  V30 1325 H 128.023 0.169357 0.717278 0
M  V30 1326 H 130.665 1.07574 1.56614 0
M  V30 1327 H 128.815 0.181999 3.88073 0
M  V30 1328 H 130.487 2.78387 3.67829 0
M  V30 1329 H 128.73 2.67292 3.41668 0
M  V30 1330 H 129.401 2.31549 5.01088 0
M  V30 1331 H 131.877 0.608905 4.11621 0
M  V30 1332 H 130.753 0.361265 5.4771 0
M  V30 1333 H 131.014 -0.935158 4.32096 0
M  V30 1334 N 130.073 -1.45103 0.615059 0
M  V30 1335 C 131.036 -2.29025 -0.0895485 0
M  V30 1336 C 132.036 -1.40174 -0.787906 0
M  V30 1337 O 133.226 -1.62217 -0.634933 0
M  V30 1338 C 130.358 -3.21376 -1.13711 0
M  V30 1339 H 131.551 -2.92807 0.648382 0
M  V30 1340 H 129.104 -1.51749 0.374444 0
M  V30 1341 H 129.839 -2.6241 -1.90556 0
M  V30 1342 H 129.624 -3.86834 -0.640475 0
M  V30 1343 H 131.114 -3.84459 -1.63036 0
M  V30 1344 N 131.551 -0.354651 -1.53558 0
M  V30 1345 C 132.798 0.238443 -2.01091 0
M  V30 1346 C 133.126 1.49663 -1.24222 0
M  V30 1347 O 132.381 1.93049 -0.321003 0
M  V30 1348 C 132.68 0.587121 -3.52545 0
M  V30 1349 C 132.346 -0.575472 -4.47213 0
M  V30 1350 C 131.008 -0.894497 -4.72813 0
M  V30 1351 C 133.36 -1.35489 -5.03281 0
M  V30 1352 C 130.688 -1.99511 -5.51736 0
M  V30 1353 C 133.04 -2.44583 -5.83405 0
M  V30 1354 C 131.704 -2.77033 -6.07296 0
M  V30 1355 H 130.974 0.0872526 -0.735845 0
M  V30 1356 H 133.621 -0.484859 -1.8526 0
M  V30 1357 H 131.926 1.39129 -3.66265 0
M  V30 1358 H 133.623 1.05809 -3.86789 0
M  V30 1359 H 130.213 -0.316774 -4.27428 0
M  V30 1360 H 134.397 -1.12167 -4.83459 0
M  V30 1361 H 129.653 -2.25063 -5.68469 0
M  V30 1362 H 133.827 -3.05401 -6.25862 0
M  V30 1363 H 131.454 -3.6244 -6.68237 0
M  V30 1364 N 133.029 1.57378 -0.0835403 0
M  V30 1365 C 134.306 1.85363 0.624507 0
M  V30 1366 C 134.686 0.978239 1.87066 0
M  V30 1367 O 134.034 0.0475908 2.2845 0
M  V30 1368 C 134.244 3.35795 0.950947 0
M  V30 1369 C 135.592 4.03581 1.31939 0
M  V30 1370 O 136.616 3.40609 1.04232 0
M  V30 1371 O 135.475 5.14672 1.83779 0
M  V30 1372 H 132.569 0.766162 0.311329 0
M  V30 1373 H 135.115 1.69307 -0.115362 0
M  V30 1374 H 133.887 3.91244 0.0663899 0
M  V30 1375 H 133.51 3.57154 1.74719 0
M  V30 1376 N 134.507 -0.190092 1.56449 0
M  V30 1377 C 135.756 -0.907912 1.80111 0
M  V30 1378 C 136.069 -1.84214 0.657619 0
M  V30 1379 O 137.275 -2.60094 0.778663 0
M  V30 1380 C 135.731 -1.66485 3.19078 0
M  V30 1381 C 135.339 -0.7752 4.41242 0
M  V30 1382 C 137.083 -2.37201 3.52045 0
M  V30 1383 C 134.99 -1.53129 5.71231 0
M  V30 1384 H 133.92 -0.34276 0.671589 0
M  V30 1385 H 136.571 -0.161109 1.82791 0
M  V30 1386 H 134.953 -2.45572 3.10661 0
M  V30 1387 H 136.127 -0.0226298 4.60794 0
M  V30 1388 H 134.442 -0.178627 4.16017 0
M  V30 1389 H 137.039 -2.94329 4.46402 0
M  V30 1390 H 137.382 -3.11632 2.76028 0
M  V30 1391 H 137.915 -1.65075 3.61932 0
M  V30 1392 H 134.654 -0.82967 6.50228 0
M  V30 1393 H 134.174 -2.25767 5.55688 0
M  V30 1394 H 135.853 -2.08377 6.12526 0
M  V30 1395 N 135.985 -1.50799 -0.457987 0
M  V30 1396 C 136.915 -1.73553 -1.5621 0
M  V30 1397 C 137.896 -0.584774 -1.59732 0
M  V30 1398 O 139.081 -0.825314 -1.7579 0
M  V30 1399 C 136.211 -1.84169 -2.94447 0
M  V30 1400 C 135.165 -2.99461 -3.0579 0
M  V30 1401 C 134.491 -2.95235 -4.45803 0
M  V30 1402 C 135.791 -4.39766 -2.81786 0
M  V30 1403 H 137.485 -2.66 -1.37421 0
M  V30 1404 H 135.031 -1.28002 -0.659662 0
M  V30 1405 H 136.984 -1.98672 -3.71628 0
M  V30 1406 H 135.708 -0.883545 -3.14422 0
M  V30 1407 H 134.367 -2.8463 -2.31044 0
M  V30 1408 H 134.015 -1.97239 -4.62715 0
M  V30 1409 H 133.715 -3.72642 -4.54326 0
M  V30 1410 H 135.239 -3.11803 -5.24987 0
M  V30 1411 H 136.653 -4.55054 -3.4871 0
M  V30 1412 H 135.05 -5.18722 -3.0174 0
M  V30 1413 H 136.12 -4.51229 -1.7754 0
M  V30 1414 N 137.463 0.71206 -1.40597 0
M  V30 1415 C 138.874 1.29135 -1.34837 0
M  V30 1416 C 139.225 1.96186 -0.0235395 0
M  V30 1417 O 138.35 1.97768 0.878444 0
M  V30 1418 C 138.945 2.34827 -2.44217 0
M  V30 1419 C 137.504 2.88371 -2.41907 0
M  V30 1420 C 136.651 1.62202 -2.24913 0
M  V30 1421 H 139.602 0.507944 -1.50352 0
M  V30 1422 H 139.623 3.15749 -2.12327 0
M  V30 1423 H 139.135 1.85996 -3.40627 0
M  V30 1424 H 137.236 3.41422 -1.49204 0
M  V30 1425 H 137.349 3.39925 -3.37621 0
M  V30 1426 H 135.713 1.874 -1.72492 0
M  V30 1427 H 136.496 1.15391 -3.23326 0
M  V30 1428 N 138.941 1.26152 0.944643 0
M  V30 1429 C 139.871 1.09902 2.06019 0
M  V30 1430 C 140.852 0.00519538 1.70099 0
M  V30 1431 O 142.037 0.176583 1.93396 0
M  V30 1432 C 139.167 0.727562 3.39594 0
M  V30 1433 C 138.121 1.77274 3.89561 0
M  V30 1434 C 137.447 1.25569 5.19747 0
M  V30 1435 C 138.747 3.17357 4.14827 0
M  V30 1436 H 140.441 2.03217 2.19871 0
M  V30 1437 H 137.987 0.978452 1.05652 0
M  V30 1438 H 139.94 0.600777 4.17095 0
M  V30 1439 H 138.664 -0.241287 3.25707 0
M  V30 1440 H 137.323 1.88814 3.14237 0
M  V30 1441 H 136.971 0.276783 5.02238 0
M  V30 1442 H 136.671 1.95433 5.54148 0
M  V30 1443 H 138.195 1.1415 5.99835 0
M  V30 1444 H 139.609 3.08914 4.82954 0
M  V30 1445 H 138.006 3.84781 4.60504 0
M  V30 1446 H 139.076 3.63673 3.20734 0
M  V30 1447 N 140.419 -1.14872 1.07899 0
M  V30 1448 C 141.351 -2.19425 0.662231 0
M  V30 1449 C 142.364 -1.60231 -0.288079 0
M  V30 1450 O 143.553 -1.78336 -0.076534 0
M  V30 1451 C 140.653 -3.38867 -0.0470695 0
M  V30 1452 C 139.826 -4.27597 0.920831 0
M  V30 1453 C 138.885 -5.25616 0.247805 0
M  V30 1454 O 137.911 -5.62189 0.890599 0
M  V30 1455 N 139.113 -5.71746 -1.00435 0
M  V30 1456 H 141.878 -2.55797 1.56166 0
M  V30 1457 H 139.439 -1.30042 0.964404 0
M  V30 1458 H 141.431 -4.01497 -0.50813 0
M  V30 1459 H 140.001 -3.00864 -0.848523 0
M  V30 1460 H 139.221 -3.61982 1.56087 0
M  V30 1461 H 140.509 -4.83748 1.57688 0
M  V30 1462 H 139.907 -5.44153 -1.54642 0
M  V30 1463 H 138.464 -6.36389 -1.40899 0
M  V30 1464 N 141.898 -0.863906 -1.31812 0
M  V30 1465 C 142.861 -0.320212 -2.26952 0
M  V30 1466 C 143.861 0.525369 -1.51975 0
M  V30 1467 O 145.051 0.335547 -1.70938 0
M  V30 1468 C 142.183 0.545919 -3.365 0
M  V30 1469 H 143.376 -1.16004 -2.76556 0
M  V30 1470 H 140.929 -0.638995 -1.42641 0
M  V30 1471 H 141.664 1.40718 -2.92179 0
M  V30 1472 H 141.449 -0.0594674 -3.92055 0
M  V30 1473 H 142.939 0.918796 -4.07367 0
M  V30 1474 N 143.376 1.44774 -0.622745 0
M  V30 1475 C 144.622 2.0242 -0.124083 0
M  V30 1476 C 144.955 1.4881 1.24777 0
M  V30 1477 O 144.23 0.668799 1.8264 0
M  V30 1478 C 144.513 3.59957 -0.101619 0
M  V30 1479 C 144.366 4.23867 -1.50521 0
M  V30 1480 C 145.685 4.36284 0.578272 0
M  V30 1481 H 142.804 0.735528 -0.0465645 0
M  V30 1482 H 145.446 1.72447 -0.797617 0
M  V30 1483 H 143.596 3.85623 0.471934 0
M  V30 1484 H 145.268 4.09336 -2.12701 0
M  V30 1485 H 143.511 3.81684 -2.06154 0
M  V30 1486 H 144.182 5.32843 -1.4416 0
M  V30 1487 H 146.658 4.16001 0.0906057 0
M  V30 1488 H 145.534 5.46004 0.563149 0
M  V30 1489 H 145.795 4.10271 1.64713 0
M  V30 1490 N 144.854 0.36279 1.53368 0
M  V30 1491 C 146.1 -0.228113 2.01513 0
M  V30 1492 C 146.433 -1.48648 1.2497 0
M  V30 1493 O 145.708 -1.91459 0.342616 0
M  V30 1494 C 145.991 -0.522884 3.56284 0
M  V30 1495 C 145.844 0.74892 4.43521 0
M  V30 1496 C 147.163 -1.32461 4.19693 0
M  V30 1497 H 144.282 -0.0814343 0.732487 0
M  V30 1498 H 146.924 0.48713 1.83649 0
M  V30 1499 H 145.074 -1.1322 3.71636 0
M  V30 1500 H 146.746 1.38648 4.39971 0
M  V30 1501 H 144.989 1.36986 4.11603 0
M  V30 1502 H 145.66 0.497667 5.49752 0
M  V30 1503 H 148.136 -0.809203 4.08156 0
M  V30 1504 H 147.012 -1.49961 5.28018 0
M  V30 1505 H 147.273 -2.33232 3.75573 0
M  V30 1506 N 146.332 -1.57332 0.0918853 0
M  V30 1507 C 147.578 -1.94524 -0.573425 0
M  V30 1508 C 147.911 -0.973578 -1.68033 0
M  V30 1509 O 147.186 -0.00609226 -1.94499 0
M  V30 1510 C 147.469 -3.41858 -1.13161 0
M  V30 1511 C 147.322 -4.4979 -0.0299747 0
M  V30 1512 C 148.641 -3.90435 -2.03098 0
M  V30 1513 H 145.76 -0.70734 -0.206975 0
M  V30 1514 H 148.402 -1.89309 0.161942 0
M  V30 1515 H 146.552 -3.46433 -1.7583 0
M  V30 1516 H 148.224 -4.57327 0.604112 0
M  V30 1517 H 146.467 -4.291 0.636833 0
M  V30 1518 H 147.138 -5.50069 -0.461287 0
M  V30 1519 H 149.614 -3.87992 -1.50338 0
M  V30 1520 H 148.49 -4.94097 -2.39081 0
M  V30 1521 H 148.751 -3.29541 -2.94712 0
M  V30 1522 N 147.81 0.181792 -1.56548 0
M  V30 1523 C 148.74 1.22765 -1.98623 0
M  V30 1524 C 149.721 1.46747 -0.860189 0
M  V30 1525 O 150.906 1.58259 -1.12551 0
M  V30 1526 C 148.036 2.56894 -2.33715 0
M  V30 1527 C 146.99 2.475 -3.49182 0
M  V30 1528 C 146.316 3.86023 -3.69986 0
M  V30 1529 C 147.616 1.98866 -4.82959 0
M  V30 1530 H 149.31 0.877942 -2.86239 0
M  V30 1531 H 146.856 0.42088 -1.37712 0
M  V30 1532 H 148.809 3.30253 -2.61746 0
M  V30 1533 H 147.533 2.93632 -1.42997 0
M  V30 1534 H 146.192 1.76596 -3.21262 0
M  V30 1535 H 145.84 4.20136 -2.76576 0
M  V30 1536 H 145.54 3.80609 -4.47672 0
M  V30 1537 H 147.064 4.60984 -4.00407 0
M  V30 1538 H 148.478 2.61992 -5.09934 0
M  V30 1539 H 146.875 2.04424 -5.64208 0
M  V30 1540 H 147.945 0.942465 -4.75653 0
M  V30 1541 N 149.288 1.51039 0.449983 0
M  V30 1542 C 150.537 1.62317 1.19733 0
M  V30 1543 C 150.85 0.339101 1.92638 0
M  V30 1544 O 152.056 0.331069 2.69474 0
M  V30 1545 C 150.512 2.86608 2.17678 0
M  V30 1546 C 150.12 4.21972 1.50479 0
M  V30 1547 C 151.864 3.07239 2.92924 0
M  V30 1548 C 149.771 5.37426 2.46834 0
M  V30 1549 H 148.701 0.604532 0.450619 0
M  V30 1550 H 151.352 1.77494 0.465625 0
M  V30 1551 H 149.734 2.65037 2.94231 0
M  V30 1552 H 150.908 4.53878 0.795716 0
M  V30 1553 H 149.223 4.07117 0.874344 0
M  V30 1554 H 151.82 3.90668 3.65079 0
M  V30 1555 H 152.163 2.19807 3.5354 0
M  V30 1556 H 152.696 3.29091 2.23481 0
M  V30 1557 H 149.435 6.27079 1.90926 0
M  V30 1558 H 148.955 5.09912 3.15832 0
M  V30 1559 H 150.634 5.68862 3.08228 0
M  V30 1560 N 150.766 -0.704594 1.40972 0
M  V30 1561 C 152.015 -1.46018 1.39146 0
M  V30 1562 C 152.328 -1.956 0.000589254 0
M  V30 1563 O 153.534 -2.71137 -0.1403 0
M  V30 1564 C 151.99 -2.63996 2.4461 0
M  V30 1565 C 151.598 -2.21238 3.89561 0
M  V30 1566 C 153.342 -3.41677 2.51907 0
M  V30 1567 C 151.249 -3.3612 4.86598 0
M  V30 1568 H 150.179 -0.548444 0.517422 0
M  V30 1569 H 152.83 -0.765784 1.66757 0
M  V30 1570 H 151.212 -3.3566 2.10115 0
M  V30 1571 H 152.386 -1.56923 4.33257 0
M  V30 1572 H 150.701 -1.56574 3.85841 0
M  V30 1573 H 153.298 -4.27182 3.2159 0
M  V30 1574 H 153.641 -3.86247 1.55303 0
M  V30 1575 H 154.174 -2.77064 2.85448 0
M  V30 1576 H 150.913 -2.96572 5.84573 0
M  V30 1577 H 150.433 -3.99315 4.47557 0
M  V30 1578 H 152.112 -4.02029 5.06934 0
M  V30 1579 N 152.244 -1.26651 -0.937939 0
M  V30 1580 C 153.492 -1.12165 -1.68118 0
M  V30 1581 C 153.813 0.334983 -1.92101 0
M  V30 1582 O 153.083 1.23583 -1.52 0
M  V30 1583 H 151.663 -0.412093 -0.623048 0
M  V30 1584 H 154.325 -1.59027 -1.12678 0
M  V30 1585 H 153.421 -1.64289 -2.6536 0
M  V30 1586 N 153.722 1.14298 -1.08507 0
M  V30 1587 C 154.962 1.87016 -0.824894 0
M  V30 1588 C 155.326 1.81099 0.637735 0
M  V30 1589 O 156.527 2.48963 1.01345 0
M  V30 1590 C 154.798 3.31584 -1.33368 0
M  V30 1591 S 156.357 4.21903 -1.20596 0
M  V30 1592 H 153.175 0.645259 -0.2986 0
M  V30 1593 H 155.777 1.37822 -1.38656 0
M  V30 1594 H 154.481 3.33439 -2.39262 0
M  V30 1595 H 154.012 3.85836 -0.767734 0
M  V30 1596 H 156.027 4.95971 -0.150891 0
M  V30 1597 N 155.201 0.870884 1.31352 0
M  V30 1598 C 156.441 0.488783 1.9847 0
M  V30 1599 C 156.805 -0.941536 1.67329 0
M  V30 1600 O 158.006 -1.42903 2.27667 0
M  V30 1601 C 156.277 0.739688 3.49662 0
M  V30 1602 S 157.836 0.457582 4.36408 0
M  V30 1603 H 154.654 0.18242 0.6872 0
M  V30 1604 H 157.256 1.12711 1.59739 0
M  V30 1605 H 155.96 1.77944 3.69816 0
M  V30 1606 H 155.491 0.0883905 3.93301 0
M  V30 1607 H 157.506 -0.709752 4.91098 0
M  V30 1608 N 156.679 -1.44442 0.630414 0
M  V30 1609 C 158.09 -1.85434 0.217063 0
M  V30 1610 C 158.441 -1.52748 -1.23136 0
M  V30 1611 O 157.566 -0.965205 -1.93682 0
M  V30 1612 C 158.161 -3.36581 0.387168 0
M  V30 1613 C 156.72 -3.76389 0.0283297 0
M  V30 1614 C 155.867 -2.68296 0.700889 0
M  V30 1615 H 158.818 -1.34919 0.83562 0
M  V30 1616 H 158.839 -3.78657 -0.374086 0
M  V30 1617 H 158.351 -3.60339 1.44144 0
M  V30 1618 H 156.452 -3.58246 -1.02423 0
M  V30 1619 H 156.565 -4.77095 0.437892 0
M  V30 1620 H 154.929 -2.54335 0.136267 0
M  V30 1621 H 155.712 -2.94887 1.75774 0
M  V30 1622 N 158.157 -0.370918 -1.53173 0
M  V30 1623 C 159.405 0.216673 -2.00935 0
M  V30 1624 C 159.726 1.48845 -1.25977 0
M  V30 1625 O 158.996 1.92286 -0.374551 0
M  V30 1626 H 157.576 0.0830565 -0.742368 0
M  V30 1627 H 160.238 -0.49838 -1.8842 0
M  V30 1628 H 159.334 0.439893 -3.08984 0
M  V30 1629 N 159.635 1.57281 -0.100228 0
M  V30 1630 C 160.883 1.94153 0.561157 0
M  V30 1631 C 161.204 0.983157 1.68401 0
M  V30 1632 O 160.474 0.0361132 1.95867 0
M  V30 1633 H 159.054 0.716791 0.210283 0
M  V30 1634 H 161.716 1.94202 -0.164765 0
M  V30 1635 H 160.812 2.96709 0.968008 0
M  V30 1636 N 161.113 -0.173488 1.56642 0
M  V30 1637 C 162.341 -0.906095 1.86004 0
M  V30 1638 C 162.756 -1.75921 0.685355 0
M  V30 1639 O 162.113 -1.79198 -0.345578 0
M  V30 1640 C 162.164 -1.78462 3.14378 0
M  V30 1641 O 161.885 -0.965914 4.27319 0
M  V30 1642 C 163.386 -2.62707 3.57071 0
M  V30 1643 H 160.606 -0.263341 0.617165 0
M  V30 1644 H 163.15 -0.174236 2.03756 0
M  V30 1645 H 161.305 -2.46984 2.98459 0
M  V30 1646 H 161.719 -1.56655 5.00559 0
M  V30 1647 H 163.193 -3.19969 4.49804 0
M  V30 1648 H 163.67 -3.37472 2.81086 0
M  V30 1649 H 164.276 -1.99521 3.75595 0
M  V30 1650 N 162.591 -1.51276 -0.441967 0
M  V30 1651 C 163.554 -1.7167 -1.51862 0
M  V30 1652 C 164.554 -0.586793 -1.49711 0
M  V30 1653 O 165.744 -0.854276 -1.51815 0
M  V30 1654 C 162.876 -1.76889 -2.91416 0
M  V30 1655 H 164.069 -2.67754 -1.35084 0
M  V30 1656 H 161.622 -1.41196 -0.670333 0
M  V30 1657 H 162.357 -0.826026 -3.13604 0
M  V30 1658 H 162.142 -2.59001 -2.94382 0
M  V30 1659 H 163.632 -1.94522 -3.69528 0
M  V30 1660 N 164.069 0.697108 -1.41344 0
M  V30 1661 C 165.294 1.49096 -1.44171 0
M  V30 1662 C 165.719 1.88038 -0.0481568 0
M  V30 1663 O 165.077 1.54525 0.948243 0
M  V30 1664 C 165.125 2.73088 -2.3549 0
M  V30 1665 O 164.229 3.70514 -1.81088 0
M  V30 1666 H 163.57 0.448801 -0.489361 0
M  V30 1667 H 166.1 0.856992 -1.85787 0
M  V30 1668 H 166.11 3.21413 -2.51312 0
M  V30 1669 H 164.785 2.44081 -3.36745 0
M  V30 1670 H 163.362 3.29441 -1.74708 0
M  V30 1671 N 165.547 1.27147 0.931209 0
M  V30 1672 C 166.495 1.09398 2.05268 0
M  V30 1673 C 167.489 0.0180591 1.6939 0
M  V30 1674 O 168.695 0.17551 1.79142 0
M  V30 1675 H 165.07 0.336986 0.672268 0
M  V30 1676 H 167.041 2.04416 2.17386 0
M  V30 1677 C 165.79 0.75424 3.39421 0
M  V30 1678 H 165.113 1.57404 3.67511 0
M  V30 1679 H 166.553 0.669903 4.18674 0
M  V30 1680 C 165.012 -0.541197 3.32525 0
M  V30 1681 O 165.542 -1.57664 3.69466 0
M  V30 1682 N 163.748 -0.535517 2.85623 0
M  V30 1683 H 163.295 0.307511 2.55758 0
M  V30 1684 H 163.253 -1.40236 2.81392 0
M  V30 1685 N 167.025 -1.13721 1.09112 0
M  V30 1686 C 168.274 -1.84275 0.82009 0
M  V30 1687 C 168.587 -1.84253 -0.656509 0
M  V30 1688 O 169.793 -2.50668 -1.04296 0
M  V30 1689 C 168.249 -3.30825 1.41714 0
M  V30 1690 C 167.857 -3.39244 2.92605 0
M  V30 1691 C 169.601 -4.06443 1.22492 0
M  V30 1692 C 167.508 -4.80047 3.45411 0
M  V30 1693 H 166.438 -0.690387 0.30312 0
M  V30 1694 H 169.089 -1.28146 1.31343 0
M  V30 1695 H 167.471 -3.86737 0.851498 0
M  V30 1696 H 168.645 -2.93344 3.55367 0
M  V30 1697 H 166.96 -2.77088 3.10823 0
M  V30 1698 H 169.557 -5.10387 1.59402 0
M  V30 1699 H 169.9 -4.15972 0.165299 0
M  V30 1700 H 170.433 -3.56852 1.75788 0
M  V30 1701 H 167.172 -4.75709 4.50978 0
M  V30 1702 H 166.692 -5.26455 2.87411 0
M  V30 1703 H 168.371 -5.48957 3.42425 0
M  V30 1704 N 168.503 -0.877838 -1.30888 0
M  V30 1705 C 169.433 -0.35534 -2.3078 0
M  V30 1706 C 170.414 0.557994 -1.60687 0
M  V30 1707 O 171.599 0.473355 -1.88343 0
M  V30 1708 C 168.729 0.437221 -3.44537 0
M  V30 1709 C 167.683 -0.383715 -4.26276 0
M  V30 1710 C 167.009 0.535014 -5.32017 0
M  V30 1711 C 168.309 -1.62201 -4.96476 0
M  V30 1712 H 170.003 -1.19007 -2.74732 0
M  V30 1713 H 167.549 -0.573698 -1.32078 0
M  V30 1714 H 169.502 0.813334 -4.13477 0
M  V30 1715 H 168.226 1.30553 -2.99372 0
M  V30 1716 H 166.885 -0.741874 -3.59015 0
M  V30 1717 H 166.533 1.40083 -4.831 0
M  V30 1718 H 166.233 -0.0104211 -5.87599 0
M  V30 1719 H 167.757 0.907799 -6.03814 0
M  V30 1720 H 169.171 -1.31689 -5.5797 0
M  V30 1721 H 167.568 -2.10711 -5.61891 0
M  V30 1722 H 168.638 -2.37044 -4.23011 0
M  V30 1723 N 169.982 1.44106 -0.638065 0
M  V30 1724 C 170.945 2.29138 0.0531013 0
M  V30 1725 C 171.945 1.41409 0.765506 0
M  V30 1726 O 173.135 1.63206 0.609046 0
M  V30 1727 C 170.267 3.23144 1.08584 0
M  V30 1728 H 171.46 2.91739 -0.694883 0
M  V30 1729 H 169.013 1.51134 -0.398538 0
M  V30 1730 H 169.748 2.65408 1.86357 0
M  V30 1731 H 169.533 3.87804 0.578852 0
M  V30 1732 H 171.023 3.87004 1.56899 0
M  V30 1733 N 171.46 0.379036 1.52974 0
M  V30 1734 C 172.69 -0.20649 2.05566 0
M  V30 1735 C 173.098 -1.41906 1.25137 0
M  V30 1736 O 172.441 -1.81421 0.288464 0
M  V30 1737 C 172.503 -0.651086 3.53555 0
M  V30 1738 C 172.167 0.446626 4.54812 0
M  V30 1739 C 173.164 1.30079 5.03364 0
M  V30 1740 C 170.849 0.610719 4.98573 0
M  V30 1741 C 172.843 2.30426 5.94292 0
M  V30 1742 C 170.53 1.61754 5.89304 0
M  V30 1743 C 171.528 2.46274 6.37054 0
M  V30 1744 O 171.216 3.45237 7.25994 0
M  V30 1745 H 170.948 -0.0372381 0.674974 0
M  V30 1746 H 173.502 0.539718 1.98182 0
M  V30 1747 H 171.732 -1.44911 3.58522 0
M  V30 1748 H 173.421 -1.16112 3.88938 0
M  V30 1749 H 174.187 1.18527 4.70294 0
M  V30 1750 H 170.066 -0.0374044 4.60985 0
M  V30 1751 H 173.61 2.96432 6.31485 0
M  V30 1752 H 169.507 1.73348 6.21788 0
M  V30 1753 H 170.275 3.41124 7.44027 0
M  V30 1754 N 172.938 -1.57226 0.108567 0
M  V30 1755 C 174.184 -1.95919 -0.546564 0
M  V30 1756 C 174.539 -0.990417 -1.6495 0
M  V30 1757 O 173.832 -0.0186593 -1.91591 0
M  V30 1758 C 174.026 -3.38911 -1.13463 0
M  V30 1759 C 173.855 -4.4961 -0.0901926 0
M  V30 1760 C 172.625 -5.04168 0.338008 0
M  V30 1761 C 174.823 -5.09693 0.686808 0
M  V30 1762 N 172.805 -5.98434 1.36931 0
M  V30 1763 C 174.176 -5.99804 1.56958 0
M  V30 1764 C 176.231 -4.92388 0.738846 0
M  V30 1765 C 174.934 -6.74463 2.49983 0
M  V30 1766 C 176.96 -5.67719 1.65676 0
M  V30 1767 C 176.322 -6.57507 2.52713 0
M  V30 1768 H 172.421 -0.763312 -0.169936 0
M  V30 1769 H 175.005 -1.93728 0.194264 0
M  V30 1770 H 173.176 -3.41769 -1.84522 0
M  V30 1771 H 174.908 -3.64752 -1.75322 0
M  V30 1772 H 171.663 -4.73571 -0.0523673 0
M  V30 1773 H 172.087 -6.5027 1.88356 0
M  V30 1774 H 176.729 -4.22724 0.080084 0
M  V30 1775 H 174.447 -7.4338 3.16878 0
M  V30 1776 H 178.033 -5.56338 1.70233 0
M  V30 1777 H 176.913 -7.14778 3.22586 0
M  V30 1778 N 174.416 0.165178 -1.56732 0
M  V30 1779 C 175.662 0.882112 -1.82611 0
M  V30 1780 C 175.995 1.81628 -0.687378 0
M  V30 1781 O 175.27 1.92009 0.310267 0
M  V30 1782 C 175.553 1.67245 -3.18906 0
M  V30 1783 C 175.406 0.760987 -4.43316 0
M  V30 1784 C 176.725 2.63884 -3.52212 0
M  V30 1785 H 173.844 0.319242 -0.664269 0
M  V30 1786 H 176.486 0.148052 -1.89422 0
M  V30 1787 H 174.636 2.29824 -3.1323 0
M  V30 1788 H 176.308 0.147596 -4.61064 0
M  V30 1789 H 174.551 0.0694102 -4.33744 0
M  V30 1790 H 175.222 1.34962 -5.35247 0
M  V30 1791 H 177.698 2.11429 -3.58381 0
M  V30 1792 H 176.574 3.16245 -4.48643 0
M  V30 1793 H 176.835 3.44377 -2.77231 0
M  V30 1794 N 175.894 1.51508 0.433938 0
M  V30 1795 C 177.171 1.54888 1.19453 0
M  V30 1796 C 177.551 0.315154 2.08734 0
M  V30 1797 O 176.899 -0.699558 2.17528 0
M  V30 1798 C 177.109 2.86467 1.99342 0
M  V30 1799 C 178.457 3.38545 2.56267 0
M  V30 1800 O 179.481 2.88041 2.0955 0
M  V30 1801 O 178.34 4.26675 3.41483 0
M  V30 1802 H 175.434 0.622863 0.544032 0
M  V30 1803 H 177.98 1.63823 0.442732 0
M  V30 1804 H 176.752 3.67718 1.33788 0
M  V30 1805 H 176.375 2.8071 2.8158 0
M  V30 1806 N 177.372 -0.689602 1.41712 0
M  V30 1807 C 178.62 -1.4468 1.4111 0
M  V30 1808 C 178.941 -1.94986 0.0232196 0
M  V30 1809 O 178.211 -1.72097 -0.935913 0
M  V30 1810 H 176.791 -0.536847 0.519427 0
M  V30 1811 H 179.453 -0.815825 1.77004 0
M  V30 1812 H 178.549 -2.30706 2.10193 0
M  V30 1813 N 178.85 -1.27639 -0.924453 0
M  V30 1814 C 180.127 -1.04887 -1.651 0
M  V30 1815 C 180.507 0.415327 -2.06974 0
M  V30 1816 O 179.855 1.39923 -1.80648 0
M  V30 1817 C 180.065 -2.01348 -2.85061 0
M  V30 1818 C 181.413 -2.30899 -3.56329 0
M  V30 1819 O 182.437 -1.99348 -2.95193 0
M  V30 1820 O 181.296 -2.84699 -4.66485 0
M  V30 1821 H 178.39 -0.400083 -0.723784 0
M  V30 1822 H 180.936 -1.38916 -0.974703 0
M  V30 1823 H 179.708 -3.0008 -2.51133 0
M  V30 1824 H 179.331 -1.679 -3.6041 0
M  V30 1825 N 180.328 1.1314 -1.09713 0
M  V30 1826 C 181.261 2.17735 -0.683137 0
M  V30 1827 C 182.239 1.59582 0.311841 0
M  V30 1828 O 183.423 1.87298 0.212514 0
M  V30 1829 C 180.55 3.38699 -0.00684324 0
M  V30 1830 C 179.596 4.1546 -0.964102 0
M  V30 1831 S 180.429 4.74733 -2.47767 0
M  V30 1832 C 181.585 5.9904 -1.81387 0
M  V30 1833 H 181.818 2.52515 -1.56918 0
M  V30 1834 H 179.351 1.24484 -0.913404 0
M  V30 1835 H 181.309 4.08765 0.377044 0
M  V30 1836 H 179.97 3.02214 0.85589 0
M  V30 1837 H 179.163 5.02093 -0.43803 0
M  V30 1838 H 178.765 3.51066 -1.28953 0
M  V30 1839 H 181.057 6.67846 -1.13967 0
M  V30 1840 H 182 6.56261 -2.65947 0
M  V30 1841 H 182.408 5.4976 -1.28155 0
M  V30 1842 N 181.806 0.884767 1.30421 0
M  V30 1843 C 183.083 0.423185 1.90967 0
M  V30 1844 C 183.463 -1.09605 1.80416 0
M  V30 1845 O 182.811 -1.93126 1.22125 0
M  V30 1846 C 183.021 0.921056 3.36627 0
M  V30 1847 C 184.369 0.955903 4.137 0
M  V30 1848 O 185.393 0.867706 3.4547 0
M  V30 1849 O 184.252 1.08614 5.35598 0
M  V30 1850 H 181.346 0.129369 0.816819 0
M  V30 1851 H 183.892 0.973653 1.3899 0
M  V30 1852 H 182.664 1.96489 3.3839 0
M  V30 1853 H 182.287 0.349741 3.96059 0
M  V30 1854 N 183.284 -1.43765 0.645699 0
M  V30 1855 C 184.214 -2.33471 -0.0370477 0
M  V30 1856 C 185.195 -1.49042 -0.819779 0
M  V30 1857 O 186.38 -1.77726 -0.782758 0
M  V30 1858 C 183.51 -3.32311 -1.0093 0
M  V30 1859 C 182.464 -4.2667 -0.337201 0
M  V30 1860 C 181.79 -5.1549 -1.42037 0
M  V30 1861 C 183.09 -5.16657 0.765706 0
M  V30 1862 H 184.784 -2.90809 0.712069 0
M  V30 1863 H 182.33 -1.39834 0.343876 0
M  V30 1864 H 184.283 -3.9396 -1.49578 0
M  V30 1865 H 183.007 -2.73213 -1.78948 0
M  V30 1866 H 181.666 -3.66374 0.128771 0
M  V30 1867 H 181.314 -4.52735 -2.1918 0
M  V30 1868 H 181.014 -5.79438 -0.975966 0
M  V30 1869 H 182.538 -5.80012 -1.90838 0
M  V30 1870 H 183.952 -5.72158 0.361702 0
M  V30 1871 H 182.349 -5.89286 1.13413 0
M  V30 1872 H 183.419 -4.56796 1.62683 0
M  V30 1873 N 184.763 -0.387143 -1.52771 0
M  V30 1874 C 185.988 0.198407 -2.06449 0
M  V30 1875 C 186.413 1.39918 -1.25716 0
M  V30 1876 O 185.771 1.79099 -0.281657 0
M  V30 1877 C 185.819 0.548893 -3.56398 0
M  V30 1878 O 184.923 1.64315 -3.78252 0
M  V30 1879 H 184.264 0.0237731 -0.663574 0
M  V30 1880 H 186.794 -0.553989 -1.96957 0
M  V30 1881 H 186.804 0.813812 -3.99801 0
M  V30 1882 H 185.479 -0.329005 -4.14597 0
M  V30 1883 H 184.056 1.37211 -3.46738 0
M  V30 1884 N 186.241 1.57166 -0.116904 0
M  V30 1885 C 187.487 1.95412 0.542405 0
M  V30 1886 C 187.82 1.00019 1.66463 0
M  V30 1887 O 187.095 0.0370346 1.94465 0
M  V30 1888 C 187.378 3.43615 1.07708 0
M  V30 1889 C 187.231 4.49781 -0.0415868 0
M  V30 1890 C 188.55 3.93616 1.96861 0
M  V30 1891 H 185.669 0.710543 0.195696 0
M  V30 1892 H 188.311 1.89027 -0.192038 0
M  V30 1893 H 186.461 3.49187 1.70296 0
M  V30 1894 H 188.133 4.56308 -0.676793 0
M  V30 1895 H 186.376 4.28033 -0.705019 0
M  V30 1896 H 187.047 5.50733 0.373717 0
M  V30 1897 H 189.523 3.90335 1.44146 0
M  V30 1898 H 188.399 4.97838 2.3119 0
M  V30 1899 H 188.66 3.34188 2.89432 0
M  V30 1900 N 187.719 -0.156864 1.56817 0
M  V30 1901 C 188.944 -0.890331 1.87318 0
M  V30 1902 C 189.369 -1.74394 0.704855 0
M  V30 1903 O 188.727 -1.77972 -0.345786 0
M  V30 1904 C 188.775 -1.73102 3.16336 0
M  V30 1905 O 187.879 -2.83422 2.99576 0
M  V30 1906 H 187.22 -0.24857 0.615718 0
M  V30 1907 H 189.75 -0.150649 2.04045 0
M  V30 1908 H 189.76 -2.12803 3.48107 0
M  V30 1909 H 188.435 -1.10412 4.00976 0
M  V30 1910 H 187.012 -2.47199 2.7919 0
M  V30 1911 N 189.197 -1.51736 -0.425897 0
M  V30 1912 C 190.13 -1.68574 -1.53812 0
M  V30 1913 C 191.108 -0.53328 -1.53606 0
M  V30 1914 O 192.292 -0.758555 -1.72564 0
M  V30 1915 C 189.419 -1.70977 -2.92377 0
M  V30 1916 C 188.465 -2.92324 -3.10563 0
M  V30 1917 S 189.298 -4.52952 -2.85648 0
M  V30 1918 C 190.454 -4.58117 -4.26474 0
M  V30 1919 H 190.687 -2.62647 -1.39298 0
M  V30 1920 H 188.22 -1.41564 -0.616361 0
M  V30 1921 H 190.178 -1.73047 -3.72243 0
M  V30 1922 H 188.839 -0.78061 -3.04245 0
M  V30 1923 H 188.032 -2.90439 -4.11899 0
M  V30 1924 H 187.634 -2.88055 -2.38538 0
M  V30 1925 H 189.926 -4.34462 -5.19855 0
M  V30 1926 H 190.869 -5.59983 -4.33388 0
M  V30 1927 H 191.277 -3.8732 -4.10662 0
M  V30 1928 N 190.675 0.682077 -1.42076 0
M  V30 1929 C 191.903 1.47057 -1.4554 0
M  V30 1930 C 192.318 1.8869 -0.0645779 0
M  V30 1931 O 191.675 1.57666 0.919115 0
M  V30 1932 C 191.726 2.72442 -2.37609 0
M  V30 1933 O 191.447 2.32559 -3.71279 0
M  V30 1934 C 192.948 3.66069 -2.50017 0
M  V30 1935 H 190.168 0.452737 -0.495248 0
M  V30 1936 H 192.712 0.838695 -1.8651 0
M  V30 1937 H 190.867 3.31835 -1.9991 0
M  V30 1938 H 191.281 3.13475 -4.20516 0
M  V30 1939 H 192.755 4.50792 -3.18576 0
M  V30 1940 H 193.232 4.11476 -1.53572 0
M  V30 1941 H 193.838 3.12572 -2.88407 0
M  V30 1942 N 192.153 1.28127 0.917671 0
M  V30 1943 C 193.381 1.17892 1.70026 0
M  V30 1944 C 193.796 -0.262958 1.8696 0
M  V30 1945 O 193.153 -1.17811 1.3938 0
M  V30 1946 C 193.204 1.86872 3.09453 0
M  V30 1947 O 192.925 3.25428 2.93306 0
M  V30 1948 C 194.426 1.8289 4.03815 0
M  V30 1949 H 191.646 0.40942 0.531617 0
M  V30 1950 H 194.19 1.69181 1.14883 0
M  V30 1951 H 192.345 1.39464 3.61426 0
M  V30 1952 H 192.759 3.59918 3.81523 0
M  V30 1953 H 194.233 2.35751 4.99125 0
M  V30 1954 H 194.71 0.800412 4.31845 0
M  V30 1955 H 195.316 2.29959 3.57769 0
M  V30 1956 N 193.631 -1.12557 1.10312 0
M  V30 1957 C 194.871 -1.8568 0.854543 0
M  V30 1958 C 195.235 -1.82091 -0.608843 0
M  V30 1959 O 196.436 -2.50544 -0.973717 0
M  V30 1960 C 194.707 -3.2942 1.38626 0
M  V30 1961 S 196.266 -4.19931 1.27293 0
M  V30 1962 H 193.084 -0.640427 0.308827 0
M  V30 1963 H 195.686 -1.35599 1.40831 0
M  V30 1964 H 194.39 -3.2959 2.44537 0
M  V30 1965 H 193.921 -3.84566 0.82902 0
M  V30 1966 H 195.936 -4.95668 0.229776 0
M  V30 1967 N 195.109 -0.891671 -1.2995 0
M  V30 1968 C 196.334 -0.527932 -2.00568 0
M  V30 1969 C 196.759 0.877969 -1.66353 0
M  V30 1970 O 196.117 1.58301 -0.883762 0
M  V30 1971 C 196.165 -0.717745 -3.53385 0
M  V30 1972 O 195.269 0.233376 -4.11739 0
M  V30 1973 H 194.61 -0.20722 -0.630837 0
M  V30 1974 H 197.14 -1.20105 -1.65638 0
M  V30 1975 H 197.15 -0.619307 -4.03272 0
M  V30 1976 H 195.825 -1.74276 -3.77625 0
M  V30 1977 H 194.402 0.0880706 -3.72796 0
M  V30 1978 N 196.587 1.43421 -0.653314 0
M  V30 1979 C 197.815 2.06163 -0.174491 0
M  V30 1980 C 198.23 1.48969 1.1599 0
M  V30 1981 O 197.587 0.621042 1.71608 0
M  V30 1982 C 197.638 3.61417 -0.0774865 0
M  V30 1983 O 197.359 4.16485 -1.35912 0
M  V30 1984 C 198.86 4.41235 0.427402 0
M  V30 1985 H 196.08 0.664946 -0.0899353 0
M  V30 1986 H 198.624 1.83924 -0.893988 0
M  V30 1987 H 196.779 3.82841 0.59257 0
M  V30 1988 H 197.193 5.10153 -1.21839 0
M  V30 1989 H 198.667 5.5021 0.44423 0
M  V30 1990 H 199.144 4.14268 1.45873 0
M  V30 1991 H 199.75 4.2478 -0.210167 0
M  V30 1992 N 198.065 0.39524 1.52563 0
M  V30 1993 C 198.995 -0.428384 2.29537 0
M  V30 1994 C 199.976 -1.05831 1.33169 0
M  V30 1995 O 201.161 -1.06995 1.62067 0
M  V30 1996 C 198.291 -1.55274 3.10656 0
M  V30 1997 C 197.245 -1.04855 4.14957 0
M  V30 1998 C 196.571 -2.26543 4.84337 0
M  V30 1999 C 197.871 -0.112324 5.22179 0
M  V30 2000 H 199.565 0.213867 2.98635 0
M  V30 2001 H 197.111 0.104298 1.43622 0
M  V30 2002 H 199.064 -2.1358 3.63265 0
M  V30 2003 H 197.788 -2.22266 2.39302 0
M  V30 2004 H 196.447 -0.487985 3.63338 0
M  V30 2005 H 196.095 -2.92059 4.09525 0
M  V30 2006 H 195.795 -1.93466 5.54837 0
M  V30 2007 H 197.319 -2.85481 5.39753 0
M  V30 2008 H 198.733 -0.603752 5.70112 0
M  V30 2009 H 197.13 0.128968 5.99961 0
M  V30 2010 H 198.2 0.837052 4.77621 0
M  V30 2011 N 199.544 -1.57102 0.125237 0
M  V30 2012 C 200.474 -2.18659 -0.819174 0
M  V30 2013 C 201.455 -1.12843 -1.27281 0
M  V30 2014 O 202.64 -1.41104 -1.33429 0
M  V30 2015 C 199.77 -2.79096 -2.06695 0
M  V30 2016 C 198.724 -3.90548 -1.75088 0
M  V30 2017 C 198.05 -4.37821 -3.06948 0
M  V30 2018 C 199.35 -5.12356 -1.01435 0
M  V30 2019 H 201.044 -2.9783 -0.306202 0
M  V30 2020 H 198.59 -1.4326 -0.145839 0
M  V30 2021 H 200.543 -3.2082 -2.73226 0
M  V30 2022 H 199.267 -1.97223 -2.60328 0
M  V30 2023 H 197.926 -3.49409 -1.10944 0
M  V30 2024 H 197.574 -3.52799 -3.58527 0
M  V30 2025 H 197.274 -5.12982 -2.86571 0
M  V30 2026 H 198.798 -4.822 -3.74587 0
M  V30 2027 H 200.212 -5.5106 -1.58132 0
M  V30 2028 H 198.609 -5.9314 -0.911319 0
M  V30 2029 H 199.679 -4.849 -0.00218681 0
M  V30 2030 N 201.022 0.148545 -1.56898 0
M  V30 2031 C 201.985 1.16736 -1.97244 0
M  V30 2032 C 202.985 1.35947 -0.858777 0
M  V30 2033 O 204.175 1.32966 -1.12542 0
M  V30 2034 C 201.307 2.52798 -2.28705 0
M  V30 2035 H 202.5 0.821279 -2.88435 0
M  V30 2036 H 200.053 0.391831 -1.51309 0
M  V30 2037 H 200.788 2.92381 -1.403 0
M  V30 2038 H 200.573 2.40216 -3.09901 0
M  V30 2039 H 202.063 3.26179 -2.60762 0
M  V30 2040 N 202.5 1.5196 0.417844 0
M  V30 2041 C 203.43 1.77634 1.51554 0
M  V30 2042 C 204.411 0.626918 1.58126 0
M  V30 2043 O 205.596 0.871632 1.7354 0
M  V30 2044 C 202.726 1.91911 2.8946 0
M  V30 2045 C 201.68 3.07463 2.97743 0
M  V30 2046 C 201.006 3.06951 4.37819 0
M  V30 2047 C 202.306 4.47082 2.70027 0
M  V30 2048 H 204 2.6955 1.3032 0
M  V30 2049 H 201.546 1.29706 0.625492 0
M  V30 2050 H 203.499 2.08455 3.6623 0
M  V30 2051 H 202.223 0.966598 3.11969 0
M  V30 2052 H 200.882 2.90656 2.23416 0
M  V30 2053 H 200.53 2.09438 4.57323 0
M  V30 2054 H 200.23 3.84556 4.44286 0
M  V30 2055 H 201.754 3.25613 5.16535 0
M  V30 2056 H 203.168 4.6414 3.36522 0
M  V30 2057 H 201.565 5.2654 2.87881 0
M  V30 2058 H 202.635 4.55777 1.65514 0
M  V30 2059 N 203.978 -0.674533 1.42435 0
M  V30 2060 C 205.226 -1.43175 1.42637 0
M  V30 2061 C 205.547 -1.94951 0.0438992 0
M  V30 2062 O 204.817 -1.7308 -0.917607 0
M  V30 2063 H 203.397 -0.531307 0.525092 0
M  V30 2064 H 206.059 -0.797006 1.77859 0
M  V30 2065 H 205.155 -2.28463 2.12629 0
M  V30 2066 N 205.456 -1.28612 -0.910864 0
M  V30 2067 C 206.389 -1.07109 -2.01502 0
M  V30 2068 C 207.367 0.013706 -1.62594 0
M  V30 2069 O 208.551 -0.134796 -1.88017 0
M  V30 2070 C 205.678 -0.628255 -3.32822 0
M  V30 2071 C 204.724 -1.71012 -3.90714 0
M  V30 2072 S 205.557 -3.30676 -4.21205 0
M  V30 2073 C 206.713 -2.88234 -5.55583 0
M  V30 2074 H 206.946 -2.00591 -2.19432 0
M  V30 2075 H 204.479 -1.12633 -1.05609 0
M  V30 2076 H 206.437 -0.37946 -4.08742 0
M  V30 2077 H 205.098 0.28678 -3.12788 0
M  V30 2078 H 204.291 -1.35195 -4.85529 0
M  V30 2079 H 203.893 -1.91186 -3.21441 0
M  V30 2080 H 206.185 -2.34584 -6.35591 0
M  V30 2081 H 207.128 -3.81857 -5.96314 0
M  V30 2082 H 207.536 -2.26862 -5.16908 0
M  V30 2083 N 206.934 1.1197 -1.10907 0
M  V30 2084 C 207.867 2.16998 -0.706192 0
M  V30 2085 C 208.845 1.59903 0.294897 0
M  V30 2086 O 210.029 1.87513 0.192636 0
M  V30 2087 C 207.156 3.38673 -0.0427664 0
M  V30 2088 C 206.202 4.14414 -1.00811 0
M  V30 2089 S 207.035 4.72079 -2.52789 0
M  V30 2090 C 208.191 5.97083 -1.87731 0
M  V30 2091 H 208.424 2.50837 -1.59587 0
M  V30 2092 H 205.957 1.23508 -0.926555 0
M  V30 2093 H 207.915 4.09142 0.333668 0
M  V30 2094 H 206.576 3.03105 0.823788 0
M  V30 2095 H 205.769 5.016 -0.491259 0
M  V30 2096 H 205.371 3.49678 -1.3267 0
M  V30 2097 H 207.663 6.66599 -1.21044 0
M  V30 2098 H 208.606 6.53403 -2.72892 0
M  V30 2099 H 209.014 5.4837 -1.33979 0
M  V30 2100 N 208.412 0.89855 1.29475 0
M  V30 2101 C 209.823 0.572537 1.77705 0
M  V30 2102 C 210.174 -0.911778 1.73727 0
M  V30 2103 O 209.299 -1.71288 1.32247 0
M  V30 2104 C 209.894 1.03252 3.22683 0
M  V30 2105 C 208.453 0.757687 3.68695 0
M  V30 2106 C 207.6 1.20787 2.49612 0
M  V30 2107 H 210.551 1.08139 1.16153 0
M  V30 2108 H 210.572 0.367307 3.78723 0
M  V30 2109 H 210.084 2.11285 3.25546 0
M  V30 2110 H 208.185 -0.310079 3.71308 0
M  V30 2111 H 208.298 1.35476 4.59547 0
M  V30 2112 H 206.662 0.626888 2.46865 0
M  V30 2113 H 207.445 2.29622 2.55203 0
M  V30 2114 N 209.89 -1.43072 0.660911 0
M  V30 2115 C 210.82 -2.33497 -0.0122829 0
M  V30 2116 C 211.801 -1.49903 -0.803925 0
M  V30 2117 O 212.986 -1.78546 -0.763864 0
M  V30 2118 C 210.116 -3.33363 -0.973994 0
M  V30 2119 C 209.07 -4.27003 -0.291928 0
M  V30 2120 C 208.396 -5.16967 -1.36562 0
M  V30 2121 C 209.696 -5.15816 0.820462 0
M  V30 2122 H 211.39 -2.90038 0.742873 0
M  V30 2123 H 208.936 -1.39461 0.358688 0
M  V30 2124 H 210.889 -3.95524 -1.45392 0
M  V30 2125 H 209.613 -2.75095 -1.7604 0
M  V30 2126 H 208.272 -3.66217 0.167623 0
M  V30 2127 H 207.92 -4.55034 -2.14366 0
M  V30 2128 H 207.62 -5.80441 -0.914454 0
M  V30 2129 H 209.144 -5.82003 -1.84675 0
M  V30 2130 H 210.558 -5.71742 0.422366 0
M  V30 2131 H 208.955 -5.8805 1.19656 0
M  V30 2132 H 210.025 -4.55045 1.67518 0
M  V30 2133 N 211.368 -0.403325 -1.52352 0
M  V30 2134 C 212.608 0.173946 -2.03659 0
M  V30 2135 C 212.972 1.42869 -1.28267 0
M  V30 2136 O 214.173 2.08403 -1.69769 0
M  V30 2137 C 212.444 0.421478 -3.54906 0
M  V30 2138 S 214.003 0.967027 -4.28012 0
M  V30 2139 H 210.821 0.0477461 -0.709395 0
M  V30 2140 H 213.423 -0.554906 -1.87459 0
M  V30 2141 H 212.127 -0.498616 -4.0736 0
M  V30 2142 H 211.658 1.17837 -3.75337 0
M  V30 2143 H 213.673 2.24812 -4.4235 0
M  V30 2144 N 212.846 1.57033 -0.133567 0
M  V30 2145 C 213.776 2.1909 0.807567 0
M  V30 2146 C 214.757 1.13517 1.26681 0
M  V30 2147 O 215.942 1.41809 1.32679 0
M  V30 2148 C 213.072 2.80188 2.05212 0
M  V30 2149 C 212.026 3.91471 1.73015 0
M  V30 2150 C 211.352 4.39443 3.04622 0
M  V30 2151 C 212.652 5.12886 0.987168 0
M  V30 2152 H 214.346 2.97988 0.290403 0
M  V30 2153 H 211.892 1.43335 0.138239 0
M  V30 2154 H 213.845 3.22264 2.71521 0
M  V30 2155 H 212.569 1.98601 2.59278 0
M  V30 2156 H 211.228 3.49993 1.0909 0
M  V30 2157 H 210.876 3.54695 3.56651 0
M  V30 2158 H 210.576 5.14495 2.83847 0
M  V30 2159 H 212.1 4.8418 3.72024 0
M  V30 2160 H 213.514 5.51891 1.55208 0
M  V30 2161 H 211.911 5.93615 0.87985 0
M  V30 2162 H 212.981 4.84894 -0.0235286 0
M  V30 2163 N 214.325 -0.140222 1.56975 0
M  V30 2164 C 215.255 -1.17456 2.01808 0
M  V30 2165 C 216.236 -1.44415 0.898794 0
M  V30 2166 O 217.421 -1.5522 1.16707 0
M  V30 2167 C 214.551 -2.50607 2.40444 0
M  V30 2168 C 213.505 -2.38155 3.55621 0
M  V30 2169 C 212.831 -3.76078 3.80091 0
M  V30 2170 C 214.131 -1.85991 4.88062 0
M  V30 2171 H 215.825 -0.801743 2.88466 0
M  V30 2172 H 213.371 -0.38422 1.38779 0
M  V30 2173 H 215.324 -3.23197 2.7041 0
M  V30 2174 H 214.048 -2.89737 1.50732 0
M  V30 2175 H 212.707 -1.68016 3.25832 0
M  V30 2176 H 212.355 -4.12656 2.87618 0
M  V30 2177 H 212.055 -3.68606 4.57606 0
M  V30 2178 H 213.579 -4.50206 4.12488 0
M  V30 2179 H 214.993 -2.4838 5.16701 0
M  V30 2180 H 213.39 -1.89393 5.6943 0
M  V30 2181 H 214.46 -0.816023 4.77984 0
M  V30 2182 N 215.803 -1.52179 -0.40978 0
M  V30 2183 C 217.052 -1.65434 -1.15388 0
M  V30 2184 C 217.365 -0.390056 -1.91671 0
M  V30 2185 O 218.571 -0.402399 -2.68501 0
M  V30 2186 C 217.027 -2.92279 -2.10003 0
M  V30 2187 C 216.635 -4.25813 -1.39239 0
M  V30 2188 C 218.379 -3.14897 -2.84675 0
M  V30 2189 C 216.286 -5.43782 -2.32498 0
M  V30 2190 H 215.216 -0.616267 -0.434432 0
M  V30 2191 H 217.867 -1.78666 -0.418401 0
M  V30 2192 H 216.249 -2.72744 -2.871 0
M  V30 2193 H 217.423 -4.55828 -0.675099 0
M  V30 2194 H 215.738 -4.09292 -0.766097 0
M  V30 2195 H 218.335 -4.0021 -3.54593 0
M  V30 2196 H 218.678 -2.29103 -3.47588 0
M  V30 2197 H 219.211 -3.34901 -2.14677 0
M  V30 2198 H 215.95 -6.3192 -1.74233 0
M  V30 2199 H 215.47 -5.18106 -3.02201 0
M  V30 2200 H 217.149 -5.76834 -2.93038 0
M  V30 2201 N 217.281 0.66697 -1.42791 0
M  V30 2202 C 218.511 1.45294 -1.46878 0
M  V30 2203 C 218.919 1.89027 -0.0809861 0
M  V30 2204 O 218.262 1.59219 0.916246 0
M  V30 2205 C 218.324 2.72908 -2.34012 0
M  V30 2206 C 217.988 2.51203 -3.81767 0
M  V30 2207 C 218.985 2.15302 -4.73224 0
M  V30 2208 C 216.67 2.65954 -4.26115 0
M  V30 2209 C 218.664 1.94431 -6.07022 0
M  V30 2210 C 216.351 2.44699 -5.59969 0
M  V30 2211 C 217.349 2.08992 -6.5024 0
M  V30 2212 O 217.037 1.87948 -7.81621 0
M  V30 2213 H 216.769 0.453306 -0.501487 0
M  V30 2214 H 219.323 0.826232 -1.88049 0
M  V30 2215 H 217.553 3.38089 -1.87703 0
M  V30 2216 H 219.242 3.34816 -2.29462 0
M  V30 2217 H 220.008 2.03495 -4.40244 0
M  V30 2218 H 215.887 2.92724 -3.56137 0
M  V30 2219 H 219.431 1.66484 -6.77443 0
M  V30 2220 H 215.328 2.56105 -5.9252 0
M  V30 2221 H 216.096 2.02483 -7.93059 0
M  V30 2222 N 218.759 1.29093 0.90403 0
M  V30 2223 C 219.987 1.19689 1.68766 0
M  V30 2224 C 220.402 -0.243113 1.87228 0
M  V30 2225 O 219.759 -1.16326 1.40621 0
M  V30 2226 C 219.81 1.90144 3.07453 0
M  V30 2227 O 219.531 3.2852 2.89838 0
M  V30 2228 C 221.032 1.87162 4.01852 0
M  V30 2229 H 218.252 0.415035 0.527244 0
M  V30 2230 H 220.796 1.7039 1.13082 0
M  V30 2231 H 218.951 1.43289 3.59926 0
M  V30 2232 H 219.365 3.63944 3.77684 0
M  V30 2233 H 220.839 2.41032 4.96596 0
M  V30 2234 H 221.316 0.84617 4.30972 0
M  V30 2235 H 221.922 2.33741 3.5531 0
M  V30 2236 N 220.237 -1.11381 1.11499 0
M  V30 2237 C 221.184 -2.17439 0.773887 0
M  V30 2238 C 222.154 -1.64132 -0.254899 0
M  V30 2239 O 223.339 -1.90345 -0.13168 0
M  V30 2240 C 220.479 -3.44373 0.223917 0
M  V30 2241 C 219.592 -4.1168 1.30934 0
M  V30 2242 C 218.727 -5.263 0.71984 0
M  V30 2243 C 217.766 -5.85493 1.78507 0
M  V30 2244 N 216.903 -6.91507 1.21502 0
M  V30 2245 H 221.743 -2.45962 1.68246 0
M  V30 2246 H 219.28 -1.20744 0.840191 0
M  V30 2247 H 221.238 -4.17047 -0.112921 0
M  V30 2248 H 219.868 -3.16232 -0.647851 0
M  V30 2249 H 218.92 -3.37073 1.76312 0
M  V30 2250 H 220.232 -4.51729 2.11524 0
M  V30 2251 H 219.386 -6.05785 0.333094 0
M  V30 2252 H 218.125 -4.87559 -0.117377 0
M  V30 2253 H 217.13 -5.04686 2.18111 0
M  V30 2254 H 218.355 -6.26301 2.62533 0
M  V30 2255 H 216.301 -6.54783 0.399455 0
M  V30 2256 H 216.218 -7.30214 1.95763 0
M  V30 2257 H 217.486 -7.74795 0.855181 0
M  V30 2258 N 221.715 -0.905404 -1.28997 0
M  V30 2259 C 222.648 -0.331959 -2.25773 0
M  V30 2260 C 223.626 0.559099 -1.52685 0
M  V30 2261 O 224.81 0.50463 -1.8162 0
M  V30 2262 C 221.937 0.526276 -3.34586 0
M  V30 2263 C 220.983 -0.298249 -4.25456 0
M  V30 2264 S 221.816 -1.69968 -5.0781 0
M  V30 2265 C 222.972 -0.848519 -6.20122 0
M  V30 2266 H 223.205 -1.15222 -2.74064 0
M  V30 2267 H 220.738 -0.706112 -1.37308 0
M  V30 2268 H 222.696 1.01565 -3.97737 0
M  V30 2269 H 221.357 1.32084 -2.84978 0
M  V30 2270 H 220.55 0.357607 -5.0273 0
M  V30 2271 H 220.152 -0.720968 -3.66985 0
M  V30 2272 H 222.444 -0.0744325 -6.77459 0
M  V30 2273 H 223.387 -1.59353 -6.89937 0
M  V30 2274 H 223.795 -0.400383 -5.63078 0
M  V30 2275 N 223.193 1.4272 -0.668489 0
M  V30 2276 C 224.439 2.02443 -0.197076 0
M  V30 2277 C 224.794 1.51882 1.18109 0
M  V30 2278 O 224.087 0.708618 1.78015 0
M  V30 2279 C 224.281 3.57021 -0.164499 0
M  V30 2280 C 224.11 4.22583 -1.53797 0
M  V30 2281 C 222.88 4.58019 -2.13416 0
M  V30 2282 C 225.078 4.50588 -2.47941 0
M  V30 2283 N 223.06 5.08729 -3.4361 0
M  V30 2284 C 224.431 5.02782 -3.62782 0
M  V30 2285 C 226.486 4.32571 -2.46551 0
M  V30 2286 C 225.189 5.38852 -4.76478 0
M  V30 2287 C 227.215 4.69713 -3.59338 0
M  V30 2288 C 226.577 5.22053 -4.72906 0
M  V30 2289 H 222.676 0.773214 -0.116894 0
M  V30 2290 H 225.26 1.73673 -0.880108 0
M  V30 2291 H 223.431 3.85323 0.487925 0
M  V30 2292 H 225.163 4.03439 0.319207 0
M  V30 2293 H 221.918 4.43566 -1.65969 0
M  V30 2294 H 222.342 5.38521 -4.10273 0
M  V30 2295 H 226.984 3.91365 -1.59978 0
M  V30 2296 H 224.702 5.78993 -5.63731 0
M  V30 2297 H 228.288 4.57454 -3.59482 0
M  V30 2298 H 227.168 5.50258 -5.58736 0
M  V30 2299 N 224.671 0.411399 1.52136 0
M  V30 2300 C 225.917 -0.163888 2.02137 0
M  V30 2301 C 226.25 -1.44597 1.29636 0
M  V30 2302 O 225.525 -1.90272 0.403353 0
M  V30 2303 C 225.808 -0.40927 3.57767 0
M  V30 2304 C 225.661 0.889643 4.40914 0
M  V30 2305 C 226.98 -1.19042 4.23694 0
M  V30 2306 H 224.099 -0.0580896 0.734707 0
M  V30 2307 H 226.741 0.54531 1.82007 0
M  V30 2308 H 224.891 -1.0134 3.7505 0
M  V30 2309 H 226.563 1.52575 4.35337 0
M  V30 2310 H 224.806 1.50011 4.07037 0
M  V30 2311 H 225.477 0.672314 5.4789 0
M  V30 2312 H 227.953 -0.678942 4.10524 0
M  V30 2313 H 226.829 -1.33086 5.32522 0
M  V30 2314 H 227.09 -2.21166 3.82803 0
M  V30 2315 N 226.149 -1.5696 0.141893 0
M  V30 2316 C 227.426 -1.87553 -0.555281 0
M  V30 2317 C 227.806 -1.04699 -1.83306 0
M  V30 2318 O 227.154 -0.132346 -2.28116 0
M  V30 2319 C 227.364 -3.39093 -0.825664 0
M  V30 2320 C 228.712 -4.08199 -1.16869 0
M  V30 2321 O 229.736 -3.44242 -0.915185 0
M  V30 2322 O 228.595 -5.21139 -1.6455 0
M  V30 2323 H 225.689 -0.777188 -0.282679 0
M  V30 2324 H 228.235 -1.68763 0.17812 0
M  V30 2325 H 227.007 -3.91221 0.0788633 0
M  V30 2326 H 226.63 -3.63393 -1.61343 0
M  V30 2327 N 227.627 0.131896 -1.57047 0
M  V30 2328 C 228.852 0.860418 -1.8871 0
M  V30 2329 C 229.277 1.73251 -0.73251 0
M  V30 2330 O 228.635 1.785 0.317429 0
M  V30 2331 C 228.683 1.68047 -3.19049 0
M  V30 2332 O 227.787 2.7862 -3.04047 0
M  V30 2333 H 227.128 0.238743 -0.619595 0
M  V30 2334 H 229.658 0.118169 -2.04258 0
M  V30 2335 H 229.668 2.07238 -3.51449 0
M  V30 2336 H 228.343 1.04018 -4.02682 0
M  V30 2337 H 226.92 2.42726 -2.83088 0
M  V30 2338 N 229.106 1.52395 0.401703 0
M  V30 2339 C 230.354 1.66488 1.14569 0
M  V30 2340 C 230.675 0.400897 1.90835 0
M  V30 2341 O 229.945 -0.584415 1.8698 0
M  V30 2342 H 228.525 0.613672 0.425929 0
M  V30 2343 H 231.187 1.89464 0.457093 0
M  V30 2344 H 230.283 2.50942 1.85566 0
M  V30 2345 N 230.584 -0.659388 1.43143 0
M  V30 2346 C 231.809 -1.45221 1.48073 0
M  V30 2347 C 232.234 -1.87845 0.097995 0
M  V30 2348 O 231.592 -1.56985 -0.90694 0
M  V30 2349 C 231.64 -2.66748 2.42647 0
M  V30 2350 O 230.744 -3.65583 1.90848 0
M  V30 2351 H 230.085 -0.435669 0.501088 0
M  V30 2352 H 232.615 -0.807432 1.87994 0
M  V30 2353 H 232.625 -3.14637 2.59745 0
M  V30 2354 H 231.3 -2.35067 3.43098 0
M  V30 2355 H 229.877 -3.24693 1.83381 0
M  V30 2356 N 232.062 -1.29571 -0.897171 0
M  V30 2357 C 233.311 -1.1706 -1.64256 0
M  V30 2358 C 233.624 0.276476 -1.93636 0
M  V30 2359 O 234.83 0.52294 -2.66416 0
M  V30 2360 C 233.286 -2.0475 -2.95982 0
M  V30 2361 C 232.894 -3.54295 -2.74187 0
M  V30 2362 C 234.638 -2.0097 -3.73914 0
M  V30 2363 C 232.545 -4.34081 -4.01656 0
M  V30 2364 H 231.475 -0.43452 -0.616205 0
M  V30 2365 H 234.126 -1.54229 -0.994268 0
M  V30 2366 H 232.508 -1.60452 -3.62038 0
M  V30 2367 H 233.682 -4.06662 -2.1671 0
M  V30 2368 H 231.997 -3.59773 -2.09648 0
M  V30 2369 H 234.594 -2.57838 -4.68427 0
M  V30 2370 H 234.937 -0.990273 -4.0435 0
M  V30 2371 H 235.47 -2.43325 -3.14703 0
M  V30 2372 H 232.209 -5.36671 -3.76384 0
M  V30 2373 H 231.729 -3.86483 -4.58684 0
M  V30 2374 H 233.408 -4.44877 -4.69781 0
M  V30 2375 N 233.54 1.10788 -1.12088 0
M  V30 2376 C 234.786 1.82942 -0.875226 0
M  V30 2377 C 235.119 1.84779 0.597538 0
M  V30 2378 O 234.394 1.30578 1.44152 0
M  V30 2379 C 234.677 3.29789 -1.44606 0
M  V30 2380 C 234.53 3.36307 -2.98693 0
M  V30 2381 C 235.849 4.26064 -1.10261 0
M  V30 2382 H 232.968 0.664195 -0.319397 0
M  V30 2383 H 235.61 1.29867 -1.38689 0
M  V30 2384 H 233.76 3.75118 -1.01089 0
M  V30 2385 H 235.432 2.99487 -3.50864 0
M  V30 2386 H 233.675 2.76318 -3.34411 0
M  V30 2387 H 234.346 4.39694 -3.33726 0
M  V30 2388 H 236.822 3.88951 -1.4784 0
M  V30 2389 H 235.698 5.27183 -1.52869 0
M  V30 2390 H 235.959 4.42098 -0.0142953 0
M  V30 2391 N 235.018 0.912232 1.28515 0
M  V30 2392 C 236.267 0.540504 1.94323 0
M  V30 2393 C 236.58 -0.920044 1.72611 0
M  V30 2394 O 237.786 -1.39986 2.32629 0
M  V30 2395 C 236.242 0.915803 3.48053 0
M  V30 2396 C 235.85 2.39598 3.78546 0
M  V30 2397 C 237.594 0.614588 4.20027 0
M  V30 2398 C 235.501 2.71148 5.25578 0
M  V30 2399 H 234.431 0.198418 0.727424 0
M  V30 2400 H 237.082 1.11094 1.46049 0
M  V30 2401 H 235.464 0.274168 3.9505 0
M  V30 2402 H 236.638 3.08422 3.42364 0
M  V30 2403 H 234.953 2.66749 3.1974 0
M  V30 2404 H 237.55 0.827002 5.28266 0
M  V30 2405 H 237.893 -0.447531 4.13887 0
M  V30 2406 H 238.426 1.21462 3.78803 0
M  V30 2407 H 235.165 3.76207 5.36794 0
M  V30 2408 H 234.685 2.0696 5.62963 0
M  V30 2409 H 236.364 2.58072 5.93302 0
M  V30 2410 N 236.496 -1.42363 0.676048 0
M  V30 2411 C 237.907 -1.84649 0.275948 0
M  V30 2412 C 238.258 -1.56588 -1.18214 0
M  V30 2413 O 237.383 -1.02634 -1.90513 0
M  V30 2414 C 237.978 -3.35178 0.494053 0
M  V30 2415 C 236.537 -3.76109 0.148061 0
M  V30 2416 C 235.684 -2.65931 0.785891 0
M  V30 2417 H 238.635 -1.32192 0.878121 0
M  V30 2418 H 238.656 -3.79655 -0.25343 0
M  V30 2419 H 238.168 -3.55571 1.55535 0
M  V30 2420 H 236.269 -3.61323 -0.909742 0
M  V30 2421 H 236.382 -4.7546 0.589454 0
M  V30 2422 H 234.746 -2.53773 0.217113 0
M  V30 2423 H 235.529 -2.89146 1.85067 0
M  V30 2424 N 237.974 -0.419461 -1.51915 0
M  V30 2425 C 239.204 0.151915 -2.06041 0
M  V30 2426 C 239.612 1.38539 -1.28855 0
M  V30 2427 O 238.955 1.80592 -0.336463 0
M  V30 2428 C 239.017 0.557119 -3.55157 0
M  V30 2429 C 238.681 -0.567054 -4.53468 0
M  V30 2430 C 239.678 -1.43379 -4.99738 0
M  V30 2431 C 237.363 -0.742693 -4.96779 0
M  V30 2432 C 239.357 -2.46102 -5.87973 0
M  V30 2433 C 237.044 -1.77322 -5.84808 0
M  V30 2434 C 238.042 -2.63078 -6.30301 0
M  V30 2435 O 237.73 -3.64364 -7.16585 0
M  V30 2436 H 237.462 0.0193293 -0.675724 0
M  V30 2437 H 240.016 -0.592073 -1.96682 0
M  V30 2438 H 238.246 1.35355 -3.62238 0
M  V30 2439 H 239.935 1.05759 -3.9188 0
M  V30 2440 H 240.701 -1.30954 -4.66986 0
M  V30 2441 H 236.58 -0.0848307 -4.60922 0
M  V30 2442 H 240.124 -3.13071 -6.23404 0
M  V30 2443 H 236.021 -1.89773 -6.16974 0
M  V30 2444 H 236.789 -3.60731 -7.34721 0
M  V30 2445 N 239.452 1.56882 -0.150215 0
M  V30 2446 C 240.729 1.87844 0.545327 0
M  V30 2447 C 241.109 1.0567 1.82749 0
M  V30 2448 O 240.457 0.144442 2.28043 0
M  V30 2449 C 240.667 3.39526 0.80767 0
M  V30 2450 C 242.015 4.08814 1.14703 0
M  V30 2451 O 243.039 3.44723 0.896917 0
M  V30 2452 O 241.898 5.22004 1.61784 0
M  V30 2453 H 238.992 0.778677 0.278553 0
M  V30 2454 H 241.538 1.68666 -0.187068 0
M  V30 2455 H 240.31 3.91173 -0.0996096 0
M  V30 2456 H 239.933 3.64243 1.59413 0
M  V30 2457 N 240.93 -0.123565 1.57115 0
M  V30 2458 C 241.878 -1.17082 2.00984 0
M  V30 2459 C 242.872 -1.43136 0.906009 0
M  V30 2460 O 244.078 -1.43152 1.09121 0
M  V30 2461 H 240.453 -0.394653 0.64012 0
M  V30 2462 H 242.424 -0.774292 2.88179 0
M  V30 2463 C 241.173 -2.49057 2.42623 0
M  V30 2464 H 240.496 -2.29846 3.27125 0
M  V30 2465 H 241.936 -3.20906 2.7712 0
M  V30 2466 C 240.395 -3.11305 1.28805 0
M  V30 2467 O 240.925 -3.97171 0.60153 0
M  V30 2468 N 239.131 -2.71111 1.04628 0
M  V30 2469 H 238.678 -2.01382 1.60634 0
M  V30 2470 H 238.636 -3.1309 0.286685 0
M  V30 2471 N 242.408 -1.52605 -0.393616 0
M  V30 2472 C 243.657 -1.66649 -1.13627 0
M  V30 2473 C 243.97 -0.410364 -1.91247 0
M  V30 2474 O 245.176 -0.430854 -2.68059 0
M  V30 2475 C 243.632 -2.9449 -2.06891 0
M  V30 2476 C 243.24 -4.27266 -1.34714 0
M  V30 2477 C 244.984 -3.17899 -2.81319 0
M  V30 2478 C 242.891 -5.46217 -2.26717 0
M  V30 2479 H 241.821 -0.62084 -0.427871 0
M  V30 2480 H 244.472 -1.791 -0.399428 0
M  V30 2481 H 242.854 -2.75774 -2.84191 0
M  V30 2482 H 244.028 -4.56518 -0.626714 0
M  V30 2483 H 242.343 -4.10081 -0.722643 0
M  V30 2484 H 244.94 -4.03949 -3.50328 0
M  V30 2485 H 245.283 -2.32777 -3.45139 0
M  V30 2486 H 245.816 -3.37159 -2.11113 0
M  V30 2487 H 242.555 -6.33733 -1.67521 0
M  V30 2488 H 242.075 -5.21283 -2.96689 0
M  V30 2489 H 243.754 -5.7991 -2.86903 0
M  V30 2490 N 243.887 0.651787 -1.4349 0
M  V30 2491 C 245.135 1.40888 -1.44897 0
M  V30 2492 C 245.456 1.94856 -0.0749086 0
M  V30 2493 O 244.726 1.74518 0.889956 0
M  V30 2494 H 243.306 0.522887 -0.533478 0
M  V30 2495 H 245.968 0.768609 -1.79104 0
M  V30 2496 H 245.064 2.25052 -2.16236 0
M  V30 2497 N 245.365 1.30045 0.890287 0
M  V30 2498 C 246.593 1.21472 1.67487 0
M  V30 2499 C 247.008 -0.223241 1.87476 0
M  V30 2500 O 246.365 -1.14828 1.41847 0
M  V30 2501 C 246.416 1.93394 3.05419 0
M  V30 2502 O 246.137 3.31576 2.86337 0
M  V30 2503 C 247.638 1.91414 3.99844 0
M  V30 2504 H 244.858 0.420604 0.522813 0
M  V30 2505 H 247.402 1.7158 1.11268 0
M  V30 2506 H 245.557 1.47099 3.58386 0
M  V30 2507 H 245.971 3.67929 3.73802 0
M  V30 2508 H 247.445 2.46285 4.94012 0
M  V30 2509 H 247.922 0.891833 4.3005 0
M  V30 2510 H 248.528 2.37496 3.52811 0
M  V30 2511 N 246.843 -1.10192 1.12674 0
M  V30 2512 C 248.068 -1.86523 0.906853 0
M  V30 2513 C 248.493 -1.80221 -0.538711 0
M  V30 2514 O 247.851 -1.17396 -1.38158 0
M  V30 2515 C 247.899 -3.32758 1.3894 0
M  V30 2516 O 247.003 -4.08449 0.5695 0
M  V30 2517 H 246.344 -0.578678 0.325619 0
M  V30 2518 H 248.874 -1.39203 1.49946 0
M  V30 2519 H 248.884 -3.83608 1.38958 0
M  V30 2520 H 247.559 -3.36661 2.44197 0
M  V30 2521 H 246.136 -3.67427 0.636528 0
M  V30 2522 N 248.321 -0.919034 -1.28029 0
M  V30 2523 C 249.251 -0.428581 -2.29533 0
M  V30 2524 C 250.232 0.50659 -1.62381 0
M  V30 2525 O 251.417 0.413195 -1.89753 0
M  V30 2526 C 248.547 0.327388 -3.45753 0
M  V30 2527 C 247.501 -0.519137 -4.2484 0
M  V30 2528 C 246.827 0.365486 -5.33449 0
M  V30 2529 C 248.127 -1.77914 -4.91064 0
M  V30 2530 H 249.821 -1.27687 -2.70807 0
M  V30 2531 H 247.367 -0.615428 -1.30186 0
M  V30 2532 H 249.32 0.681378 -4.15855 0
M  V30 2533 H 248.044 1.20963 -3.03374 0
M  V30 2534 H 246.703 -0.855717 -3.56473 0
M  V30 2535 H 246.351 1.24642 -4.87312 0
M  V30 2536 H 246.051 -0.197356 -5.87268 0
M  V30 2537 H 247.575 0.715241 -6.06396 0
M  V30 2538 H 248.989 -1.49374 -5.53498 0
M  V30 2539 H 247.386 -2.2848 -5.54903 0
M  V30 2540 H 248.456 -2.50382 -4.15255 0
M  V30 2541 N 249.799 1.42003 -0.683588 0
M  V30 2542 C 251.045 2.01712 -0.209825 0
M  V30 2543 C 251.378 1.53968 1.18353 0
M  V30 2544 O 250.653 0.745661 1.79639 0
M  V30 2545 C 250.936 3.59202 -0.254197 0
M  V30 2546 C 250.789 4.17102 -1.68363 0
M  V30 2547 C 252.108 4.38344 0.392709 0
M  V30 2548 H 249.227 0.732891 -0.0777189 0
M  V30 2549 H 251.869 1.68909 -0.87004 0
M  V30 2550 H 250.019 3.87278 0.307954 0
M  V30 2551 H 251.691 3.99946 -2.29871 0
M  V30 2552 H 249.934 3.72597 -2.22157 0
M  V30 2553 H 250.605 5.26249 -1.6663 0
M  V30 2554 H 253.081 4.16011 -0.0859162 0
M  V30 2555 H 251.957 5.47901 0.331063 0
M  V30 2556 H 252.218 4.16887 1.47164 0
M  V30 2557 N 251.277 0.427512 1.51691 0
M  V30 2558 C 252.502 -0.143601 2.06902 0
M  V30 2559 C 252.927 -1.36536 1.29382 0
M  V30 2560 O 252.285 -1.78289 0.329043 0
M  V30 2561 C 252.333 -0.454207 3.57728 0
M  V30 2562 O 251.437 -1.54228 3.82475 0
M  V30 2563 H 250.778 -0.00617128 0.663971 0
M  V30 2564 H 253.308 0.606014 1.95419 0
M  V30 2565 H 253.318 -0.707525 4.01818 0
M  V30 2566 H 251.993 0.438812 4.13579 0
M  V30 2567 H 250.57 -1.2797 3.50254 0
M  V30 2568 N 252.755 -1.56801 0.158532 0
M  V30 2569 C 253.685 -2.20347 -0.772609 0
M  V30 2570 C 254.666 -1.15518 -1.24859 0
M  V30 2571 O 255.851 -1.43902 -1.30406 0
M  V30 2572 C 252.981 -2.83417 -2.00729 0
M  V30 2573 C 251.935 -3.94174 -1.66765 0
M  V30 2574 C 251.261 -4.44233 -2.97592 0
M  V30 2575 C 252.561 -5.14392 -0.905447 0
M  V30 2576 H 254.255 -2.98413 -0.242959 0
M  V30 2577 H 251.801 -1.43537 -0.115419 0
M  V30 2578 H 253.754 -3.26543 -2.6636 0
M  V30 2579 H 252.478 -2.02701 -2.56086 0
M  V30 2580 H 251.137 -3.51684 -1.03508 0
M  V30 2581 H 250.785 -3.60325 -3.50963 0
M  V30 2582 H 250.485 -5.18945 -2.75626 0
M  V30 2583 H 252.009 -4.90037 -3.64274 0
M  V30 2584 H 253.423 -5.5429 -1.46408 0
M  V30 2585 H 251.82 -5.9494 -0.7853 0
M  V30 2586 H 252.89 -4.84795 0.100668 0
M  V30 2587 N 254.233 0.115231 -1.57178 0
M  V30 2588 C 255.479 0.82357 -1.85325 0
M  V30 2589 C 255.812 1.79349 -0.744814 0
M  V30 2590 O 255.087 1.92899 0.249024 0
M  V30 2591 C 255.37 1.57014 -3.24066 0
M  V30 2592 C 255.223 0.619565 -4.45513 0
M  V30 2593 C 256.542 2.52545 -3.60429 0
M  V30 2594 H 253.661 0.297948 -0.674089 0
M  V30 2595 H 256.303 0.0877138 -1.89797 0
M  V30 2596 H 254.453 2.19742 -3.20383 0
M  V30 2597 H 256.125 0.000837639 -4.613 0
M  V30 2598 H 254.368 -0.0686174 -4.33746 0
M  V30 2599 H 255.039 1.17866 -5.3927 0
M  V30 2600 H 257.515 1.9992 -3.64926 0
M  V30 2601 H 256.391 3.01811 -4.58477 0
M  V30 2602 H 256.652 3.35383 -2.88047 0
M  V30 2603 N 255.711 1.52812 0.385517 0
M  V30 2604 C 256.957 1.68275 1.13188 0
M  V30 2605 C 257.29 0.423179 1.89533 0
M  V30 2606 O 256.565 -0.579113 1.85679 0
M  V30 2607 C 256.848 2.92001 2.1073 0
M  V30 2608 C 256.701 4.28067 1.38125 0
M  V30 2609 C 258.02 3.11283 3.11113 0
M  V30 2610 H 255.139 0.612352 0.410115 0
M  V30 2611 H 257.781 1.85415 0.414869 0
M  V30 2612 H 255.931 2.77519 2.71874 0
M  V30 2613 H 257.603 4.54324 0.799187 0
M  V30 2614 H 255.846 4.28388 0.683092 0
M  V30 2615 H 256.517 5.10733 2.09417 0
M  V30 2616 H 258.993 3.2482 2.6006 0
M  V30 2617 H 257.869 3.99325 3.76605 0
M  V30 2618 H 258.13 2.25656 3.80173 0
M  V30 2619 N 257.189 -0.644168 1.43834 0
M  V30 2620 C 258.6 -1.22554 1.40845 0
M  V30 2621 C 258.951 -1.9585 0.117115 0
M  V30 2622 O 258.076 -2.01734 -0.783086 0
M  V30 2623 C 258.671 -2.22907 2.55143 0
M  V30 2624 C 257.23 -2.76501 2.5539 0
M  V30 2625 C 256.377 -1.51287 2.32396 0
M  V30 2626 H 259.328 -0.43563 1.52604 0
M  V30 2627 H 259.349 -3.05259 2.2715 0
M  V30 2628 H 258.861 -1.69533 3.49114 0
M  V30 2629 H 256.962 -3.33914 1.65324 0
M  V30 2630 H 257.075 -3.23429 3.53455 0
M  V30 2631 H 255.439 -1.78957 1.81236 0
M  V30 2632 H 256.222 -0.998336 3.28463 0
M  V30 2633 N 258.668 -1.30515 -0.883378 0
M  V30 2634 C 259.914 -1.19607 -1.63774 0
M  V30 2635 C 260.247 0.248314 -1.92606 0
M  V30 2636 O 259.522 1.17742 -1.54813 0
M  V30 2637 C 259.805 -2.02669 -2.97653 0
M  V30 2638 C 259.658 -3.55335 -2.75784 0
M  V30 2639 C 260.977 -1.86573 -3.98596 0
M  V30 2640 H 258.096 -0.435856 -0.594305 0
M  V30 2641 H 260.738 -1.60165 -1.02212 0
M  V30 2642 H 258.888 -1.68208 -3.50197 0
M  V30 2643 H 260.56 -3.99863 -2.30016 0
M  V30 2644 H 258.803 -3.79438 -2.1026 0
M  V30 2645 H 259.474 -4.08745 -3.70988 0
M  V30 2646 H 261.95 -2.16703 -3.55217 0
M  V30 2647 H 260.826 -2.47014 -4.90179 0
M  V30 2648 H 261.087 -0.825321 -4.34328 0
M  V30 2649 N 260.146 1.09593 -1.13257 0
M  V30 2650 C 261.371 1.8604 -0.916732 0
M  V30 2651 C 261.796 1.80504 0.529146 0
M  V30 2652 O 261.154 1.18127 1.37534 0
M  V30 2653 C 261.202 3.32017 -1.40703 0
M  V30 2654 O 260.306 4.08141 -0.591153 0
M  V30 2655 H 259.647 0.576943 -0.328683 0
M  V30 2656 H 262.177 1.38405 -1.50682 0
M  V30 2657 H 262.187 3.82865 -1.4099 0
M  V30 2658 H 260.862 3.35361 -2.45979 0
M  V30 2659 H 259.439 3.67084 -0.656005 0
M  V30 2660 N 261.624 0.925811 1.2754 0
M  V30 2661 C 262.873 0.561084 1.93739 0
M  V30 2662 C 263.186 -0.901685 1.73577 0
M  V30 2663 O 264.392 -1.37511 2.34101 0
M  V30 2664 C 262.848 0.952668 3.47062 0
M  V30 2665 C 262.456 2.43599 3.75983 0
M  V30 2666 C 264.2 0.659103 4.19352 0
M  V30 2667 C 262.107 2.76707 5.22673 0
M  V30 2668 H 261.037 0.206122 0.725279 0
M  V30 2669 H 263.688 1.12637 1.44863 0
M  V30 2670 H 262.07 0.316053 3.94737 0
M  V30 2671 H 263.244 3.12035 3.39073 0
M  V30 2672 H 261.559 2.70125 3.16893 0
M  V30 2673 H 264.156 0.882985 5.27359 0
M  V30 2674 H 264.499 -0.403607 4.14339 0
M  V30 2675 H 265.032 1.25473 3.77494 0
M  V30 2676 H 261.771 3.8188 5.32774 0
M  V30 2677 H 261.291 2.12919 5.60737 0
M  V30 2678 H 262.97 2.6435 5.90532 0
M  V30 2679 N 263.102 -1.41638 0.69111 0
M  V30 2680 C 264.35 -2.00902 0.219758 0
M  V30 2681 C 264.671 -1.54994 -1.18329 0
M  V30 2682 O 263.941 -0.778628 -1.79762 0
M  V30 2683 H 262.521 -0.74289 0.0782558 0
M  V30 2684 H 265.183 -1.73327 0.891271 0
M  V30 2685 H 264.279 -3.11224 0.233708 0
M  V30 2686 N 264.58 -0.43555 -1.51462 0
M  V30 2687 C 265.513 0.421989 -2.24264 0
M  V30 2688 C 266.491 1.02619 -1.26127 0
M  V30 2689 O 267.675 1.069 -1.55257 0
M  V30 2690 C 264.802 1.588 -2.99166 0
M  V30 2691 C 263.848 1.10465 -4.11946 0
M  V30 2692 S 264.681 0.048146 -5.35478 0
M  V30 2693 C 265.837 1.21887 -6.13917 0
M  V30 2694 H 266.07 -0.196102 -2.96653 0
M  V30 2695 H 263.603 -0.220054 -1.52824 0
M  V30 2696 H 265.561 2.25647 -3.42919 0
M  V30 2697 H 264.222 2.1775 -2.26371 0
M  V30 2698 H 263.415 1.97654 -4.63626 0
M  V30 2699 H 263.017 0.51445 -3.70445 0
M  V30 2700 H 265.309 2.13756 -6.42895 0
M  V30 2701 H 266.252 0.742076 -7.04201 0
M  V30 2702 H 266.66 1.45663 -5.45383 0
M  V30 2703 N 266.058 1.56714 -0.166846 0
M  V30 2704 C 267.305 1.96747 0.479252 0
M  V30 2705 C 267.633 1.05263 1.63554 0
M  V30 2706 O 266.888 0.0858098 1.95512 0
M  V30 2707 C 267.187 3.42889 1.00806 0
M  V30 2708 C 266.853 4.50889 -0.0318574 0
M  V30 2709 C 265.515 4.8015 -0.317675 0
M  V30 2710 C 267.867 5.15949 -0.737956 0
M  V30 2711 C 265.195 5.71772 -1.31506 0
M  V30 2712 C 267.547 6.08647 -1.72429 0
M  V30 2713 C 266.211 6.36277 -2.0176 0
M  V30 2714 H 265.481 0.719949 0.175371 0
M  V30 2715 H 268.128 1.89756 -0.257864 0
M  V30 2716 H 266.433 3.4681 1.82291 0
M  V30 2717 H 268.13 3.71203 1.51689 0
M  V30 2718 H 264.72 4.28128 0.201088 0
M  V30 2719 H 268.904 4.93458 -0.530351 0
M  V30 2720 H 264.16 5.91465 -1.54853 0
M  V30 2721 H 268.334 6.58129 -2.27682 0
M  V30 2722 H 265.961 7.07075 -2.79194 0
M  V30 2723 N 267.536 -0.106894 1.57237 0
M  V30 2724 C 268.782 -0.81373 1.85759 0
M  V30 2725 C 269.115 -1.78952 0.754315 0
M  V30 2726 O 268.39 -1.93029 -0.23879 0
M  V30 2727 C 268.673 -1.55293 3.24894 0
M  V30 2728 C 268.526 -0.595929 4.45835 0
M  V30 2729 C 269.845 -2.5063 3.61763 0
M  V30 2730 H 266.964 -0.294369 0.67566 0
M  V30 2731 H 269.606 -0.0776472 1.89841 0
M  V30 2732 H 267.756 -2.1804 3.21544 0
M  V30 2733 H 269.428 0.0236262 4.61294 0
M  V30 2734 H 267.671 0.0916191 4.33703 0
M  V30 2735 H 268.342 -1.15004 5.39887 0
M  V30 2736 H 270.818 -1.97982 3.65981 0
M  V30 2737 H 269.694 -2.99376 4.60071 0
M  V30 2738 H 269.955 -3.3385 2.89821 0
M  V30 2739 N 269.014 -1.53014 -0.377408 0
M  V30 2740 C 269.962 -1.7927 -1.48206 0
M  V30 2741 C 270.956 -0.661195 -1.55963 0
M  V30 2742 O 272.162 -0.843908 -1.58991 0
M  V30 2743 H 268.537 -0.567425 -0.493491 0
M  V30 2744 H 270.508 -2.71753 -1.2326 0
M  V30 2745 C 269.257 -1.98894 -2.85196 0
M  V30 2746 H 268.58 -2.85395 -2.79981 0
M  V30 2747 H 270.02 -2.21249 -3.61698 0
M  V30 2748 C 268.479 -0.764691 -3.28107 0
M  V30 2749 O 269.009 0.0523226 -4.01666 0
M  V30 2750 N 267.215 -0.591493 -2.84517 0
M  V30 2751 H 266.762 -1.25749 -2.24822 0
M  V30 2752 H 266.72 0.226253 -3.13585 0
M  V30 2753 N 270.492 0.636531 -1.44174 0
M  V30 2754 C 271.442 1.74233 -1.47061 0
M  V30 2755 C 272.426 1.57331 -0.337034 0
M  V30 2756 O 273.618 1.67159 -0.581973 0
M  V30 2757 C 270.747 3.12897 -1.41246 0
M  V30 2758 C 269.833 3.35288 -2.59698 0
M  V30 2759 N 270.224 3.2807 -3.84972 0
M  V30 2760 C 268.522 3.66065 -2.54778 0
M  V30 2761 C 269.223 3.51001 -4.63867 0
M  V30 2762 N 268.199 3.73616 -3.94857 0
M  V30 2763 H 272.001 1.67103 -2.41773 0
M  V30 2764 H 269.515 0.838806 -1.3906 0
M  V30 2765 H 271.512 3.92189 -1.41398 0
M  V30 2766 H 270.172 3.21197 -0.47569 0
M  V30 2767 H 271.183 3.07109 -4.17019 0
M  V30 2768 H 267.86 3.81379 -1.6987 0
M  V30 2769 H 269.25 3.51059 -5.72894 0
M  V30 2770 N 271.97 1.30982 0.876444 0
M  V30 2771 C 272.917 1.18085 1.98304 0
M  V30 2772 C 273.887 0.0682263 1.6596 0
M  V30 2773 O 275.072 0.239937 1.89285 0
M  V30 2774 C 272.212 0.887475 3.33493 0
M  V30 2775 C 271.325 2.08281 3.78475 0
M  V30 2776 C 270.46 1.72678 5.0235 0
M  V30 2777 C 269.499 2.88657 5.39762 0
M  V30 2778 N 268.636 2.53292 6.54819 0
M  V30 2779 H 273.476 2.1275 2.08666 0
M  V30 2780 H 271.013 1.05839 1.02159 0
M  V30 2781 H 272.971 0.697961 4.1132 0
M  V30 2782 H 271.601 -0.022315 3.22792 0
M  V30 2783 H 270.653 2.3833 2.96484 0
M  V30 2784 H 271.965 2.95108 4.02135 0
M  V30 2785 H 271.119 1.50151 5.87826 0
M  V30 2786 H 269.858 0.830327 4.8058 0
M  V30 2787 H 268.863 3.1184 4.52809 0
M  V30 2788 H 270.088 3.79002 5.63502 0
M  V30 2789 H 268.034 1.66163 6.34607 0
M  V30 2790 H 267.951 3.3365 6.7839 0
M  V30 2791 H 269.219 2.34143 7.43503 0
M  V30 2792 N 273.449 -1.08991 1.13837 0
M  V30 2793 C 274.695 -1.81699 0.91417 0
M  V30 2794 C 275.05 -1.84264 -0.553594 0
M  V30 2795 O 274.343 -1.30313 -1.4046 0
M  V30 2796 C 274.537 -3.27042 1.44147 0
M  V30 2797 C 274.366 -3.38637 2.95897 0
M  V30 2798 C 273.136 -3.50177 3.64286 0
M  V30 2799 C 275.334 -3.30791 3.93804 0
M  V30 2800 N 273.316 -3.50501 5.04006 0
M  V30 2801 C 274.687 -3.38037 5.19741 0
M  V30 2802 C 276.742 -3.14488 3.86007 0
M  V30 2803 C 275.445 -3.30659 6.38793 0
M  V30 2804 C 277.471 -3.08438 5.04599 0
M  V30 2805 C 276.833 -3.1628 6.29402 0
M  V30 2806 H 272.932 -0.678967 0.387979 0
M  V30 2807 H 275.516 -1.30224 1.4474 0
M  V30 2808 H 273.687 -3.76976 0.935091 0
M  V30 2809 H 275.419 -3.87785 1.1578 0
M  V30 2810 H 272.174 -3.53815 3.1482 0
M  V30 2811 H 272.598 -3.54236 5.76928 0
M  V30 2812 H 277.24 -3.07291 2.90399 0
M  V30 2813 H 274.958 -3.36618 7.34652 0
M  V30 2814 H 278.544 -2.96952 5.0031 0
M  V30 2815 H 277.424 -3.1162 7.19627 0
M  V30 2816 N 274.927 -0.932562 -1.27047 0
M  V30 2817 C 276.338 -0.619451 -1.76124 0
M  V30 2818 C 276.689 0.865397 -1.76083 0
M  V30 2819 O 275.814 1.67722 -1.36742 0
M  V30 2820 C 276.409 -1.11771 -3.19832 0
M  V30 2821 C 274.968 -0.855174 -3.66557 0
M  V30 2822 C 274.115 -1.27362 -2.46321 0
M  V30 2823 H 277.066 -1.11181 -1.13245 0
M  V30 2824 H 277.087 -0.46759 -3.77616 0
M  V30 2825 H 276.599 -2.19842 -3.1983 0
M  V30 2826 H 274.7 0.211524 -3.71999 0
M  V30 2827 H 274.813 -1.47613 -4.55793 0
M  V30 2828 H 273.177 -0.692119 -2.45116 0
M  V30 2829 H 273.96 -2.36307 -2.49025 0
M  V30 2830 N 276.405 1.4127 -0.698611 0
M  V30 2831 C 277.337 2.292 0.00399731 0
M  V30 2832 C 278.35 1.44944 0.741279 0
M  V30 2833 O 279.539 1.68416 0.591477 0
M  V30 2834 C 276.639 3.22875 1.02979 0
M  V30 2835 C 275.812 4.35904 0.36151 0
M  V30 2836 C 274.871 5.10134 1.29033 0
M  V30 2837 O 273.897 5.63809 0.781562 0
M  V30 2838 N 275.099 5.17885 2.6225 0
M  V30 2839 H 277.864 2.9014 -0.750921 0
M  V30 2840 H 275.425 1.52455 -0.544882 0
M  V30 2841 H 277.417 3.69404 1.65296 0
M  V30 2842 H 275.987 2.63221 1.68622 0
M  V30 2843 H 275.207 3.91719 -0.441584 0
M  V30 2844 H 276.495 5.08696 -0.103055 0
M  V30 2845 H 275.893 4.7573 3.061 0
M  V30 2846 H 274.45 5.6798 3.19754 0
M  V30 2847 N 277.883 0.443576 1.51229 0
M  V30 2848 C 278.83 -0.364716 2.279 0
M  V30 2849 C 279.8 -1.0114 1.31757 0
M  V30 2850 O 280.985 -1.02912 1.60667 0
M  V30 2851 C 278.125 -1.45644 3.12861 0
M  V30 2852 C 277.238 -0.827269 4.24005 0
M  V30 2853 C 276.373 -1.89456 4.96266 0
M  V30 2854 C 275.412 -1.24416 5.99322 0
M  V30 2855 N 274.549 -2.25309 6.64966 0
M  V30 2856 H 279.389 0.295464 2.96532 0
M  V30 2857 H 276.926 0.157554 1.46254 0
M  V30 2858 H 278.884 -2.10076 3.6045 0
M  V30 2859 H 277.514 -2.08616 2.46331 0
M  V30 2860 H 276.566 -0.0710839 3.80334 0
M  V30 2861 H 277.878 -0.312481 4.9782 0
M  V30 2862 H 277.032 -2.61535 5.47434 0
M  V30 2863 H 275.771 -2.4431 4.22095 0
M  V30 2864 H 274.776 -0.508868 5.4744 0
M  V30 2865 H 276.001 -0.702882 6.75453 0
M  V30 2866 H 273.947 -2.79231 5.93604 0
M  V30 2867 H 273.864 -1.78739 7.34567 0
M  V30 2868 H 275.132 -2.96853 7.20763 0
M  V30 2869 N 279.361 -1.56624 0.175154 0
M  V30 2870 C 280.324 -2.16934 -0.739738 0
M  V30 2871 C 281.324 -1.11842 -1.15533 0
M  V30 2872 O 282.514 -1.37335 -1.07167 0
M  V30 2873 C 279.646 -2.75531 -2.00738 0
M  V30 2874 H 280.839 -2.99131 -0.214639 0
M  V30 2875 H 278.392 -1.56123 -0.0744197 0
M  V30 2876 H 279.127 -1.97078 -2.57548 0
M  V30 2877 H 278.912 -3.52444 -1.71831 0
M  V30 2878 H 280.402 -3.21904 -2.66021 0
M  V30 2879 N 280.839 0.0985539 -1.57292 0
M  V30 2880 C 281.786 1.11981 -2.01814 0
M  V30 2881 C 282.756 1.39999 -0.89384 0
M  V30 2882 O 283.941 1.5152 -1.15958 0
M  V30 2883 C 281.081 2.43577 -2.44467 0
M  V30 2884 C 280.194 2.2232 -3.70402 0
M  V30 2885 C 279.329 3.4729 -4.01949 0
M  V30 2886 C 278.368 3.2128 -5.21005 0
M  V30 2887 N 277.505 4.38507 -5.48321 0
M  V30 2888 H 282.345 0.733149 -2.88841 0
M  V30 2889 H 279.882 0.350482 -1.42864 0
M  V30 2890 H 281.84 3.20373 -2.6724 0
M  V30 2891 H 280.47 2.80097 -1.60455 0
M  V30 2892 H 279.522 1.36343 -3.55126 0
M  V30 2893 H 280.834 1.99089 -4.57345 0
M  V30 2894 H 279.988 4.32495 -4.25479 0
M  V30 2895 H 278.727 3.73572 -3.13521 0
M  V30 2896 H 277.732 2.34468 -4.97298 0
M  V30 2897 H 278.957 2.96348 -6.11028 0
M  V30 2898 H 276.903 4.64871 -4.62851 0
M  V30 2899 H 276.82 4.18455 -6.29628 0
M  V30 2900 H 278.088 5.24787 -5.76385 0
M  V30 2901 N 282.317 1.53212 0.369288 0
M  V30 2902 C 283.566 1.68436 1.10961 0
M  V30 2903 C 283.879 0.440738 1.9057 0
M  V30 2904 O 285.085 0.473446 2.6734 0
M  V30 2905 C 283.541 2.97744 2.0218 0
M  V30 2906 C 283.149 4.29355 1.279 0
M  V30 2907 C 284.893 3.22334 2.76226 0
M  V30 2908 C 282.8 5.49755 2.17999 0
M  V30 2909 H 281.73 0.627568 0.41794 0
M  V30 2910 H 284.381 1.79713 0.370884 0
M  V30 2911 H 282.763 2.8026 2.79768 0
M  V30 2912 H 283.937 4.57458 0.554007 0
M  V30 2913 H 282.252 4.11179 0.657311 0
M  V30 2914 H 284.849 4.09471 3.43857 0
M  V30 2915 H 285.192 2.38238 3.41392 0
M  V30 2916 H 285.725 3.40475 2.05723 0
M  V30 2917 H 282.464 6.36318 1.57417 0
M  V30 2918 H 281.984 5.25937 2.88359 0
M  V30 2919 H 283.663 5.84401 2.77641 0
M  V30 2920 N 283.795 -0.628877 1.44509 0
M  V30 2921 C 285.044 -1.38437 1.4669 0
M  V30 2922 C 285.357 -1.95322 0.104272 0
M  V30 2923 O 286.563 -2.715 0.00362163 0
M  V30 2924 C 285.019 -2.50659 2.5826 0
M  V30 2925 C 284.627 -2.00277 4.0074 0
M  V30 2926 C 286.371 -3.27844 2.69664 0
M  V30 2927 C 284.278 -3.09854 5.0373 0
M  V30 2928 H 283.208 -0.520245 0.545766 0
M  V30 2929 H 285.859 -0.676313 1.70582 0
M  V30 2930 H 284.241 -3.2405 2.27612 0
M  V30 2931 H 285.415 -1.33736 4.40966 0
M  V30 2932 H 283.73 -1.35901 3.93599 0
M  V30 2933 H 286.327 -4.09534 3.43781 0
M  V30 2934 H 286.67 -3.77471 1.75559 0
M  V30 2935 H 287.203 -2.61543 2.99733 0
M  V30 2936 H 283.942 -2.65168 5.99472 0
M  V30 2937 H 283.462 -3.7503 4.68095 0
M  V30 2938 H 285.141 -3.74592 5.27532 0
M  V30 2939 N 285.273 -1.31445 -0.869486 0
M  V30 2940 C 286.203 -1.21727 -1.99261 0
M  V30 2941 C 287.184 -0.104359 -1.6978 0
M  V30 2942 O 288.369 -0.289038 -1.92037 0
M  V30 2943 C 285.499 -0.924317 -3.34774 0
M  V30 2944 C 284.453 -1.99685 -3.78563 0
M  V30 2945 C 283.779 -1.55658 -5.11541 0
M  V30 2946 C 285.079 -3.41003 -3.95619 0
M  V30 2947 H 286.773 -2.1569 -2.07649 0
M  V30 2948 H 284.319 -1.03839 -0.997675 0
M  V30 2949 H 286.272 -0.842934 -4.12883 0
M  V30 2950 H 284.996 0.0509793 -3.2656 0
M  V30 2951 H 283.655 -2.06813 -3.02694 0
M  V30 2952 H 283.303 -0.569132 -4.9977 0
M  V30 2953 H 283.003 -2.27409 -5.41811 0
M  V30 2954 H 284.527 -1.48928 -5.92159 0
M  V30 2955 H 285.941 -3.36547 -4.64122 0
M  V30 2956 H 284.338 -4.10975 -4.37286 0
M  V30 2957 H 285.408 -3.81754 -2.98985 0
M  V30 2958 N 286.751 1.08385 -1.14413 0
M  V30 2959 C 287.698 2.15311 -0.831265 0
M  V30 2960 C 288.668 1.64751 0.211292 0
M  V30 2961 O 289.853 1.90627 0.0811674 0
M  V30 2962 C 286.993 3.43658 -0.315143 0
M  V30 2963 C 286.106 4.08064 -1.41802 0
M  V30 2964 C 285.241 5.24207 -0.859126 0
M  V30 2965 C 284.28 5.80554 -1.93967 0
M  V30 2966 N 283.417 6.88042 -1.39793 0
M  V30 2967 H 288.257 2.41415 -1.74708 0
M  V30 2968 H 285.794 1.18474 -0.871909 0
M  V30 2969 H 287.752 4.172 0.00230884 0
M  V30 2970 H 286.382 3.17839 0.56378 0
M  V30 2971 H 285.434 3.3228 -1.85187 0
M  V30 2972 H 286.746 4.45962 -2.23427 0
M  V30 2973 H 285.9 6.04689 -0.49359 0
M  V30 2974 H 284.639 4.87699 -0.011932 0
M  V30 2975 H 283.644 4.98725 -2.31415 0
M  V30 2976 H 284.869 6.19121 -2.79046 0
M  V30 2977 H 282.815 6.53493 -0.572919 0
M  V30 2978 H 282.732 7.24767 -2.15054 0
M  V30 2979 H 284 7.72255 -1.0603 0
M  V30 2980 N 288.23 0.939286 1.26551 0
M  V30 2981 C 289.479 0.581601 1.93133 0
M  V30 2982 C 289.792 -0.883224 1.74524 0
M  V30 2983 O 290.998 -1.3502 2.35546 0
M  V30 2984 C 289.454 0.989425 3.46032 0
M  V30 2985 C 289.062 2.47573 3.73379 0
M  V30 2986 C 290.806 0.703544 4.18629 0
M  V30 2987 C 288.713 2.82235 5.19709 0
M  V30 2988 H 287.643 0.213803 0.723052 0
M  V30 2989 H 290.294 1.14167 1.4366 0
M  V30 2990 H 288.676 0.357902 3.94379 0
M  V30 2991 H 289.85 3.15614 3.35744 0
M  V30 2992 H 288.165 2.73471 3.1401 0
M  V30 2993 H 290.762 0.938869 5.26393 0
M  V30 2994 H 291.105 -0.359639 4.14744 0
M  V30 2995 H 291.638 1.2947 3.76141 0
M  V30 2996 H 288.377 3.87509 5.28694 0
M  V30 2997 H 287.897 2.18854 5.58447 0
M  V30 2998 H 289.576 2.70599 5.87695 0
M  V30 2999 N 289.708 -1.40897 0.706093 0
M  V30 3000 C 290.956 -2.00657 0.241054 0
M  V30 3001 C 291.277 -1.56241 -1.16678 0
M  V30 3002 O 290.547 -0.79765 -1.78926 0
M  V30 3003 H 289.127 -0.742018 0.0861308 0
M  V30 3004 H 291.789 -1.72372 0.909604 0
M  V30 3005 H 290.885 -3.10958 0.266705 0
M  V30 3006 N 291.186 -0.45159 -1.50991 0
M  V30 3007 C 292.411 0.110667 -2.07105 0
M  V30 3008 C 292.836 1.3446 -1.31538 0
M  V30 3009 O 292.194 1.77743 -0.357365 0
M  V30 3010 C 292.242 0.397238 -3.58405 0
M  V30 3011 O 291.346 1.48124 -3.84881 0
M  V30 3012 H 290.687 -0.00439271 -0.663985 0
M  V30 3013 H 293.217 -0.637026 -1.9443 0
M  V30 3014 H 293.227 0.64351 -4.02893 0
M  V30 3015 H 291.902 -0.504553 -4.12828 0
M  V30 3016 H 290.479 1.22381 -3.52246 0
M  V30 3017 N 292.664 1.56529 -0.183458 0
M  V30 3018 C 293.913 1.96419 0.458511 0
M  V30 3019 C 294.226 1.0727 1.63562 0
M  V30 3020 O 295.432 1.36893 2.34462 0
M  V30 3021 C 293.888 3.49298 0.867122 0
M  V30 3022 C 293.496 4.47092 -0.285057 0
M  V30 3023 C 295.24 3.97983 1.47683 0
M  V30 3024 C 293.147 5.91225 0.143862 0
M  V30 3025 H 292.077 0.733394 0.175071 0
M  V30 3026 H 294.728 1.81448 -0.273624 0
M  V30 3027 H 293.11 3.59731 1.65559 0
M  V30 3028 H 294.284 4.48383 -1.0625 0
M  V30 3029 H 292.599 4.08535 -0.805503 0
M  V30 3030 H 295.196 5.03134 1.80999 0
M  V30 3031 H 295.539 3.41618 2.37914 0
M  V30 3032 H 296.072 3.90617 0.752562 0
M  V30 3033 H 292.811 6.5149 -0.723974 0
M  V30 3034 H 292.331 5.93214 0.886413 0
M  V30 3035 H 294.01 6.44362 0.583628 0
M  V30 3036 N 294.142 -0.090211 1.57342 0
M  V30 3037 C 295.105 -1.09335 2.01441 0
M  V30 3038 C 296.105 -1.32666 0.908641 0
M  V30 3039 O 297.295 -1.28697 1.174 0
M  V30 3040 C 294.427 -2.44136 2.3793 0
M  V30 3041 H 295.62 -0.713662 2.91285 0
M  V30 3042 H 293.173 -0.335404 1.52659 0
M  V30 3043 H 293.908 -2.86972 1.51055 0
M  V30 3044 H 293.693 -2.28548 3.18603 0
M  V30 3045 H 295.183 -3.16277 2.72688 0
M  V30 3046 N 295.62 -1.53406 -0.361157 0
M  V30 3047 C 296.868 -1.69467 -1.10115 0
M  V30 3048 C 297.189 -0.451352 -1.89705 0
M  V30 3049 O 296.459 0.534636 -1.88463 0
M  V30 3050 H 295.039 -0.624749 -0.409508 0
M  V30 3051 H 297.701 -1.90609 -0.406699 0
M  V30 3052 H 296.797 -2.55774 -1.78847 0
M  V30 3053 N 297.098 0.621204 -1.44841 0
M  V30 3054 C 298.061 1.71459 -1.521 0
M  V30 3055 C 299.061 1.55696 -0.401933 0
M  V30 3056 O 300.251 1.61011 -0.664925 0
M  V30 3057 C 297.383 3.10624 -1.40447 0
M  V30 3058 H 298.576 1.66394 -2.49506 0
M  V30 3059 H 296.129 0.835745 -1.3208 0
M  V30 3060 H 296.864 3.21277 -0.441737 0
M  V30 3061 H 296.649 3.23473 -2.21602 0
M  V30 3062 H 298.139 3.90293 -1.4853 0
M  V30 3063 N 298.576 1.31904 0.862503 0
M  V30 3064 C 299.825 1.21373 1.61094 0
M  V30 3065 C 300.138 -0.22504 1.94301 0
M  V30 3066 O 301.344 -0.452121 2.67709 0
M  V30 3067 C 299.8 2.12525 2.9045 0
M  V30 3068 C 299.408 3.61441 2.64697 0
M  V30 3069 C 301.152 2.10813 3.68454 0
M  V30 3070 C 299.059 4.44578 3.90006 0
M  V30 3071 H 297.989 0.450705 0.604468 0
M  V30 3072 H 300.64 1.56811 0.953027 0
M  V30 3073 H 299.022 1.69994 3.57656 0
M  V30 3074 H 300.196 4.12264 2.05851 0
M  V30 3075 H 298.511 3.65205 2.00036 0
M  V30 3076 H 301.108 2.70167 4.61426 0
M  V30 3077 H 301.451 1.09713 4.01583 0
M  V30 3078 H 301.984 2.51583 3.08141 0
M  V30 3079 H 298.723 5.46461 3.62023 0
M  V30 3080 H 298.243 3.98508 4.48276 0
M  V30 3081 H 299.922 4.57176 4.5782 0
M  V30 3082 N 300.054 -1.07777 1.14986 0
M  V30 3083 C 300.984 -2.16865 0.865557 0
M  V30 3084 C 301.965 -1.69123 -0.182083 0
M  V30 3085 O 303.15 -1.94164 -0.0373815 0
M  V30 3086 C 300.28 -3.45539 0.349313 0
M  V30 3087 C 299.234 -4.06708 1.33313 0
M  V30 3088 C 298.56 -5.30411 0.675918 0
M  V30 3089 C 299.86 -4.47241 2.69764 0
M  V30 3090 H 301.554 -2.40905 1.77778 0
M  V30 3091 H 299.1 -1.15781 0.856203 0
M  V30 3092 H 301.053 -4.21174 0.137983 0
M  V30 3093 H 299.777 -3.21072 -0.598362 0
M  V30 3094 H 298.436 -3.33112 1.53075 0
M  V30 3095 H 298.084 -5.02232 -0.277767 0
M  V30 3096 H 297.784 -5.72293 1.33244 0
M  V30 3097 H 299.308 -6.08755 0.474262 0
M  V30 3098 H 300.722 -5.14025 2.53873 0
M  V30 3099 H 299.119 -5.00062 3.3175 0
M  V30 3100 H 300.189 -3.58818 3.26156 0
M  V30 3101 N 301.532 -0.945985 -1.26051 0
M  V30 3102 C 302.781 -0.591836 -1.92822 0
M  V30 3103 C 303.094 0.873956 -1.7499 0
M  V30 3104 O 304.3 1.33769 -2.36259 0
M  V30 3105 C 302.756 -1.00776 -3.45503 0
M  V30 3106 C 302.364 -2.4955 -3.7206 0
M  V30 3107 C 304.108 -0.725735 -4.1825 0
M  V30 3108 C 302.015 -2.84988 -5.18205 0
M  V30 3109 H 300.945 -0.217635 -0.721908 0
M  V30 3110 H 303.596 -1.14927 -1.43052 0
M  V30 3111 H 301.978 -0.378812 -3.94184 0
M  V30 3112 H 303.152 -3.1739 -3.34066 0
M  V30 3113 H 301.467 -2.75133 -3.12555 0
M  V30 3114 H 304.064 -0.966771 -5.25887 0
M  V30 3115 H 304.407 0.337639 -4.14929 0
M  V30 3116 H 304.94 -1.31463 -3.7545 0
M  V30 3117 H 301.679 -3.90307 -5.26631 0
M  V30 3118 H 301.199 -2.21813 -5.57278 0
M  V30 3119 H 302.878 -2.73712 -5.86252 0
M  V30 3120 N 303.011 1.40521 -0.713556 0
M  V30 3121 C 304.257 2.01221 -0.252564 0
M  V30 3122 C 304.59 1.56444 1.1506 0
M  V30 3123 O 303.865 0.783597 1.78017 0
M  V30 3124 C 304.148 3.58582 -0.330332 0
M  V30 3125 C 304.001 4.13437 -1.77173 0
M  V30 3126 C 305.32 4.39079 0.299641 0
M  V30 3127 H 302.439 0.731077 -0.0932471 0
M  V30 3128 H 305.081 1.67026 -0.905673 0
M  V30 3129 H 303.231 3.87844 0.225737 0
M  V30 3130 H 304.903 3.9498 -2.38303 0
M  V30 3131 H 303.146 3.67801 -2.3001 0
M  V30 3132 H 303.817 5.22597 -1.77755 0
M  V30 3133 H 306.293 4.15735 -0.174139 0
M  V30 3134 H 305.169 5.4848 0.214771 0
M  V30 3135 H 305.43 4.19915 1.38288 0
M  V30 3136 N 304.489 0.459591 1.5075 0
M  V30 3137 C 305.419 -0.330644 2.31147 0
M  V30 3138 C 306.4 -1.00087 1.37538 0
M  V30 3139 O 307.585 -1.00025 1.66459 0
M  V30 3140 C 304.715 -1.41958 3.16962 0
M  V30 3141 C 303.669 -0.871608 4.19031 0
M  V30 3142 C 302.995 -2.05797 4.9351 0
M  V30 3143 C 304.295 0.109251 5.22186 0
M  V30 3144 H 305.989 0.340336 2.97459 0
M  V30 3145 H 303.535 0.165119 1.4305 0
M  V30 3146 H 305.488 -1.9798 3.71997 0
M  V30 3147 H 304.212 -2.11917 2.48513 0
M  V30 3148 H 302.871 -0.333442 3.6508 0
M  V30 3149 H 302.519 -2.74427 4.21544 0
M  V30 3150 H 302.219 -1.6976 5.62544 0
M  V30 3151 H 303.743 -2.62331 5.51375 0
M  V30 3152 H 305.157 -0.361405 5.7216 0
M  V30 3153 H 303.554 0.383316 5.98875 0
M  V30 3154 H 304.624 1.03887 4.73641 0
M  V30 3155 N 305.967 -1.56429 0.191757 0
M  V30 3156 C 307.216 -1.9666 -0.448088 0
M  V30 3157 C 307.529 -1.08136 -1.62991 0
M  V30 3158 O 308.735 -1.38135 -2.33733 0
M  V30 3159 C 307.191 -3.49753 -0.848585 0
M  V30 3160 C 306.799 -4.46935 0.308764 0
M  V30 3161 C 308.543 -3.9876 -1.4557 0
M  V30 3162 C 306.45 -5.91293 -0.112506 0
M  V30 3163 H 305.38 -0.734312 -0.171179 0
M  V30 3164 H 308.031 -1.81301 0.283242 0
M  V30 3165 H 306.413 -3.60604 -1.63649 0
M  V30 3166 H 307.587 -4.47813 1.08627 0
M  V30 3167 H 305.902 -4.08102 0.827158 0
M  V30 3168 H 308.499 -5.04086 -1.78328 0
M  V30 3169 H 308.842 -3.42875 -2.36099 0
M  V30 3170 H 309.375 -3.9101 -0.731836 0
M  V30 3171 H 306.114 -6.51097 0.758514 0
M  V30 3172 H 305.634 -5.93676 -0.854941 0
M  V30 3173 H 307.313 -6.44663 -0.549448 0
M  V30 3174 N 307.445 0.0818655 -1.57387 0
M  V30 3175 C 308.408 1.08265 -2.02018 0
M  V30 3176 C 309.408 1.32183 -0.915664 0
M  V30 3177 O 310.598 1.28073 -1.18081 0
M  V30 3178 C 307.73 2.42871 -2.39221 0
M  V30 3179 H 308.923 0.698204 -2.91659 0
M  V30 3180 H 306.476 0.327303 -1.52835 0
M  V30 3181 H 307.211 2.86167 -1.52575 0
M  V30 3182 H 306.996 2.26855 -3.19811 0
M  V30 3183 H 308.486 3.14826 -2.74362 0
M  V30 3184 N 308.923 1.53595 0.353017 0
M  V30 3185 C 310.169 1.70638 1.09593 0
M  V30 3186 C 310.502 0.463286 1.88593 0
M  V30 3187 O 309.777 -0.539597 1.86865 0
M  V30 3188 C 310.06 2.96406 2.04489 0
M  V30 3189 C 309.913 4.30901 1.29014 0
M  V30 3190 C 311.232 3.17812 3.0444 0
M  V30 3191 H 308.351 0.620913 0.397034 0
M  V30 3192 H 310.993 1.86254 0.375446 0
M  V30 3193 H 309.143 2.83223 2.65927 0
M  V30 3194 H 310.815 4.55917 0.702638 0
M  V30 3195 H 309.058 4.29741 0.592071 0
M  V30 3196 H 309.729 5.1506 1.98537 0
M  V30 3197 H 312.205 3.30263 2.53112 0
M  V30 3198 H 311.081 4.07223 3.6805 0
M  V30 3199 H 311.342 2.33669 3.75301 0
M  V30 3200 N 310.401 -0.613514 1.45168 0
M  V30 3201 C 311.647 -1.37471 1.49096 0
M  V30 3202 C 311.98 -1.93765 0.129901 0
M  V30 3203 O 311.255 -1.74707 -0.854858 0
M  V30 3204 C 311.538 -2.52701 2.56542 0
M  V30 3205 C 311.391 -2.01643 4.0207 0
M  V30 3206 C 312.71 -3.54849 2.60327 0
M  V30 3207 H 309.829 -0.498502 0.54283 0
M  V30 3208 H 312.471 -0.692125 1.76945 0
M  V30 3209 H 310.621 -3.10931 2.32926 0
M  V30 3210 H 312.293 -1.48108 4.36877 0
M  V30 3211 H 310.536 -1.32688 4.13009 0
M  V30 3212 H 311.207 -2.84681 4.72928 0
M  V30 3213 H 313.683 -3.0645 2.81474 0
M  V30 3214 H 312.559 -4.32973 3.37381 0
M  V30 3215 H 312.82 -4.10079 1.6519 0
M  V30 3216 N 311.879 -1.3236 -0.855495 0
M  V30 3217 C 313.127 -1.22629 -1.60644 0
M  V30 3218 C 313.448 0.212136 -1.93843 0
M  V30 3219 O 312.718 1.13666 -1.59552 0
M  V30 3220 H 311.298 -0.450882 -0.595579 0
M  V30 3221 H 313.96 -1.65871 -1.02337 0
M  V30 3222 H 313.056 -1.80832 -2.54374 0
M  V30 3223 N 313.357 1.07166 -1.15556 0
M  V30 3224 C 314.605 1.79443 -0.929764 0
M  V30 3225 C 314.926 1.87246 0.544414 0
M  V30 3226 O 314.196 1.37473 1.39564 0
M  V30 3227 H 312.776 0.664625 -0.341003 0
M  V30 3228 H 315.438 1.29499 -1.45657 0
M  V30 3229 H 314.534 2.81832 -1.34079 0
M  V30 3230 N 314.835 0.952656 1.25548 0
M  V30 3231 C 316.084 0.602053 1.92505 0
M  V30 3232 C 316.397 -0.864663 1.75451 0
M  V30 3233 O 317.603 -1.32514 2.36965 0
M  V30 3234 C 316.059 1.02607 3.44963 0
M  V30 3235 C 315.667 2.51519 3.70732 0
M  V30 3236 C 317.411 0.747905 4.1786 0
M  V30 3237 C 315.318 2.87732 5.16686 0
M  V30 3238 H 314.248 0.22146 0.720744 0
M  V30 3239 H 316.899 1.15684 1.42441 0
M  V30 3240 H 315.281 0.399712 3.93978 0
M  V30 3241 H 316.455 3.19157 3.32378 0
M  V30 3242 H 314.77 2.76786 3.11092 0
M  V30 3243 H 317.367 0.994647 5.25367 0
M  V30 3244 H 317.71 -0.315629 4.15102 0
M  V30 3245 H 318.243 1.33452 3.74747 0
M  V30 3246 H 314.982 3.93095 5.24554 0
M  V30 3247 H 314.502 2.24765 5.56094 0
M  V30 3248 H 316.181 2.76817 5.84792 0
M  V30 3249 N 316.313 -1.40141 0.720998 0
M  V30 3250 C 317.243 -2.33339 0.0867621 0
M  V30 3251 C 318.224 -1.53178 -0.739622 0
M  V30 3252 O 319.409 -1.81625 -0.687449 0
M  V30 3253 C 316.539 -3.37194 -0.831728 0
M  V30 3254 C 315.493 -4.27857 -0.110558 0
M  V30 3255 C 314.819 -5.22294 -1.14513 0
M  V30 3256 C 316.119 -5.11872 1.0385 0
M  V30 3257 H 317.813 -2.86626 0.865219 0
M  V30 3258 H 315.359 -1.37814 0.417516 0
M  V30 3259 H 317.312 -4.01335 -1.28485 0
M  V30 3260 H 316.036 -2.82314 -1.64214 0
M  V30 3261 H 314.695 -3.65176 0.322797 0
M  V30 3262 H 314.343 -4.63717 -1.94874 0
M  V30 3263 H 314.043 -5.83797 -0.667446 0
M  V30 3264 H 315.567 -5.89312 -1.59824 0
M  V30 3265 H 316.981 -5.69436 0.664482 0
M  V30 3266 H 315.378 -5.82445 1.4449 0
M  V30 3267 H 316.448 -4.4753 1.86668 0
M  V30 3268 N 317.792 -0.46758 -1.50504 0
M  V30 3269 C 319.022 0.086288 -2.0642 0
M  V30 3270 C 319.43 1.34369 -1.33197 0
M  V30 3271 O 318.773 1.79431 -0.393747 0
M  V30 3272 C 318.835 0.443846 -3.5675 0
M  V30 3273 C 318.499 -0.711035 -4.51435 0
M  V30 3274 C 319.496 -1.59205 -4.94924 0
M  V30 3275 C 317.181 -0.900363 -4.94165 0
M  V30 3276 C 319.175 -2.64683 -5.79846 0
M  V30 3277 C 316.862 -1.95837 -5.7887 0
M  V30 3278 C 317.86 -2.82997 -6.21612 0
M  V30 3279 O 317.548 -3.86977 -7.0463 0
M  V30 3280 H 317.28 -0.00217814 -0.675996 0
M  V30 3281 H 319.834 -0.654346 -1.94698 0
M  V30 3282 H 318.064 1.23762 -3.6636 0
M  V30 3283 H 319.753 0.932386 -3.95046 0
M  V30 3284 H 320.519 -1.45745 -4.62583 0
M  V30 3285 H 316.398 -0.231427 -4.60419 0
M  V30 3286 H 319.942 -3.32745 -6.13128 0
M  V30 3287 H 315.839 -2.09305 -6.10624 0
M  V30 3288 H 316.607 -3.83923 -7.22873 0
M  V30 3289 N 319.27 1.56325 -0.20005 0
M  V30 3290 C 320.202 2.16555 0.750771 0
M  V30 3291 C 321.215 1.12871 1.1732 0
M  V30 3292 O 322.404 1.39943 1.10807 0
M  V30 3293 C 319.504 2.71684 2.02586 0
M  V30 3294 C 318.677 4.00321 1.76244 0
M  V30 3295 C 317.736 4.40227 2.88248 0
M  V30 3296 O 316.762 5.07552 2.57642 0
M  V30 3297 N 317.964 4.04138 4.16717 0
M  V30 3298 H 320.729 2.98772 0.235685 0
M  V30 3299 H 318.29 1.6189 -0.0182594 0
M  V30 3300 H 320.282 2.95363 2.76664 0
M  V30 3301 H 318.852 1.93893 2.45202 0
M  V30 3302 H 318.072 3.84723 0.85919 0
M  V30 3303 H 319.36 4.84279 1.56048 0
M  V30 3304 H 318.758 3.49993 4.44434 0
M  V30 3305 H 317.315 4.32756 4.87407 0
M  V30 3306 N 320.748 -0.0735177 1.57428 0
M  V30 3307 C 321.973 -0.789787 1.91774 0
M  V30 3308 C 322.398 -1.70413 0.796306 0
M  V30 3309 O 321.756 -1.79555 -0.250961 0
M  V30 3310 C 321.804 -1.5609 3.25067 0
M  V30 3311 O 320.908 -2.67144 3.14178 0
M  V30 3312 H 320.249 -0.215582 0.628029 0
M  V30 3313 H 322.779 -0.0422781 2.04556 0
M  V30 3314 H 322.789 -1.94052 3.58898 0
M  V30 3315 H 321.464 -0.890015 4.06265 0
M  V30 3316 H 320.041 -2.32052 2.91901 0
M  V30 3317 N 322.226 -1.5378 -0.344866 0
M  V30 3318 C 323.189 -1.80981 -1.40637 0
M  V30 3319 C 324.189 -0.680816 -1.45676 0
M  V30 3320 O 325.379 -0.949095 -1.46075 0
M  V30 3321 C 322.511 -1.95063 -2.79577 0
M  V30 3322 H 323.704 -2.75803 -1.17783 0
M  V30 3323 H 321.257 -1.45173 -0.579181 0
M  V30 3324 H 321.992 -1.02379 -3.07716 0
M  V30 3325 H 321.777 -2.77198 -2.77315 0
M  V30 3326 H 323.267 -2.17629 -3.56409 0
M  V30 3327 N 323.704 0.605807 -1.45491 0
M  V30 3328 C 324.95 1.36481 -1.50813 0
M  V30 3329 C 325.305 1.91826 -0.148469 0
M  V30 3330 O 324.598 1.72211 0.839869 0
M  V30 3331 C 324.792 2.53012 -2.52428 0
M  V30 3332 C 324.621 2.09078 -3.98141 0
M  V30 3333 C 323.391 1.95167 -4.66088 0
M  V30 3334 C 325.589 1.66438 -4.86624 0
M  V30 3335 N 323.571 1.45062 -5.96515 0
M  V30 3336 C 324.942 1.27761 -6.06694 0
M  V30 3337 C 326.997 1.54046 -4.7347 0
M  V30 3338 C 325.7 0.779286 -7.15066 0
M  V30 3339 C 327.726 1.05618 -5.81892 0
M  V30 3340 C 327.088 0.67906 -7.01119 0
M  V30 3341 H 323.187 0.493267 -0.606805 0
M  V30 3342 H 325.771 0.692347 -1.81974 0
M  V30 3343 H 323.942 3.17851 -2.23215 0
M  V30 3344 H 325.674 3.19897 -2.47887 0
M  V30 3345 H 322.429 2.16407 -4.21266 0
M  V30 3346 H 322.853 1.22237 -6.65873 0
M  V30 3347 H 327.495 1.81827 -3.81705 0
M  V30 3348 H 325.213 0.489026 -8.06619 0
M  V30 3349 H 328.799 0.964529 -5.73749 0
M  V30 3350 H 327.679 0.310091 -7.83587 0
M  V30 3351 N 325.182 1.32811 0.848464 0
M  V30 3352 C 326.431 1.23075 1.59798 0
M  V30 3353 C 326.744 -0.204419 1.94529 0
M  V30 3354 O 327.95 -0.423701 2.68173 0
M  V30 3355 C 326.406 2.15594 2.88179 0
M  V30 3356 C 326.014 3.64228 2.60849 0
M  V30 3357 C 327.758 2.14709 3.66197 0
M  V30 3358 C 325.665 4.48689 3.85269 0
M  V30 3359 H 324.595 0.457091 0.599653 0
M  V30 3360 H 327.246 1.57813 0.936342 0
M  V30 3361 H 325.628 1.73778 3.55833 0
M  V30 3362 H 326.802 4.14424 2.01467 0
M  V30 3363 H 325.117 3.67306 1.96151 0
M  V30 3364 H 327.714 2.75046 4.58534 0
M  V30 3365 H 328.057 1.13966 4.00397 0
M  V30 3366 H 328.59 2.54837 3.05455 0
M  V30 3367 H 325.329 5.5027 3.56207 0
M  V30 3368 H 324.849 4.03241 4.44024 0
M  V30 3369 H 326.528 4.62006 4.52946 0
M  V30 3370 N 326.66 -1.06551 1.16123 0
M  V30 3371 C 327.909 -1.78687 0.935622 0
M  V30 3372 C 328.222 -1.88056 -0.538001 0
M  V30 3373 O 329.428 -2.56794 -0.88143 0
M  V30 3374 C 327.884 -3.21143 1.62466 0
M  V30 3375 C 327.492 -3.19949 3.13587 0
M  V30 3376 C 329.236 -3.9783 1.48092 0
M  V30 3377 C 327.143 -4.57108 3.75241 0
M  V30 3378 H 326.073 -0.669712 0.346412 0
M  V30 3379 H 328.724 -1.19534 1.39226 0
M  V30 3380 H 327.106 -3.80539 1.09572 0
M  V30 3381 H 328.28 -2.70151 3.73303 0
M  V30 3382 H 326.595 -2.5676 3.27816 0
M  V30 3383 H 329.192 -4.99217 1.91538 0
M  V30 3384 H 329.535 -4.14078 0.429507 0
M  V30 3385 H 330.068 -3.4495 1.98127 0
M  V30 3386 H 326.807 -4.46065 4.80319 0
M  V30 3387 H 326.327 -5.07111 3.20309 0
M  V30 3388 H 328.006 -5.26069 3.76644 0
M  V30 3389 N 328.138 -0.959301 -1.25041 0
M  V30 3390 C 329.101 -0.487677 -2.23952 0
M  V30 3391 C 330.101 0.41119 -1.55454 0
M  V30 3392 O 331.291 0.207825 -1.72956 0
M  V30 3393 C 328.423 0.294807 -3.39623 0
M  V30 3394 H 329.616 -1.36198 -2.67189 0
M  V30 3395 H 327.169 -0.743042 -1.37508 0
M  V30 3396 H 327.904 1.18658 -3.01813 0
M  V30 3397 H 327.689 -0.35012 -3.90534 0
M  V30 3398 H 329.179 0.614089 -4.1306 0
M  V30 3399 N 329.616 1.39756 -0.72842 0
M  V30 3400 C 331.027 1.83498 -0.344289 0
M  V30 3401 C 331.378 1.60868 1.12321 0
M  V30 3402 O 330.503 1.09634 1.86573 0
M  V30 3403 C 331.098 3.33114 -0.618112 0
M  V30 3404 C 329.657 3.753 -0.287549 0
M  V30 3405 C 328.804 2.62831 -0.884048 0
M  V30 3406 H 331.755 1.28842 -0.926578 0
M  V30 3407 H 331.776 3.80334 0.112349 0
M  V30 3408 H 331.288 3.49553 -1.68625 0
M  V30 3409 H 329.389 3.64451 0.775012 0
M  V30 3410 H 329.502 4.72945 -0.765512 0
M  V30 3411 H 327.866 2.52792 -0.311149 0
M  V30 3412 H 328.649 2.82078 -1.95671 0
M  V30 3413 N 331.094 0.475555 1.50254 0
M  V30 3414 C 332.041 -0.316293 2.28622 0
M  V30 3415 C 333.011 -0.983227 1.33873 0
M  V30 3416 O 334.196 -0.994805 1.62814 0
M  V30 3417 C 331.336 -1.38975 3.1588 0
M  V30 3418 C 330.449 -0.737146 4.25664 0
M  V30 3419 C 329.584 -1.78887 5.00173 0
M  V30 3420 C 328.623 -1.11676 6.01826 0
M  V30 3421 N 327.76 -2.11154 6.69596 0
M  V30 3422 H 332.6 0.358297 2.95838 0
M  V30 3423 H 330.137 0.188541 1.45887 0
M  V30 3424 H 332.095 -2.02383 3.64825 0
M  V30 3425 H 330.725 -2.03344 2.50701 0
M  V30 3426 H 329.777 0.0096065 3.80399 0
M  V30 3427 H 331.089 -0.206816 4.98371 0
M  V30 3428 H 330.243 -2.49865 5.52859 0
M  V30 3429 H 328.982 -2.35302 4.27182 0
M  V30 3430 H 327.987 -0.392633 5.48396 0
M  V30 3431 H 329.212 -0.55945 6.76792 0
M  V30 3432 H 327.158 -2.66577 5.99394 0
M  V30 3433 H 327.075 -1.63118 7.38193 0
M  V30 3434 H 328.343 -2.81497 7.26897 0
M  V30 3435 N 332.573 -1.56217 0.208337 0
M  V30 3436 C 333.503 -2.22694 -0.702116 0
M  V30 3437 C 334.484 -1.19432 -1.2112 0
M  V30 3438 O 335.669 -1.47978 -1.25762 0
M  V30 3439 C 332.799 -2.8966 -1.9161 0
M  V30 3440 C 331.753 -3.9928 -1.5414 0
M  V30 3441 C 331.079 -4.53476 -2.83308 0
M  V30 3442 C 332.379 -5.17012 -0.741339 0
M  V30 3443 H 334.073 -2.99034 -0.147898 0
M  V30 3444 H 331.619 -1.43831 -0.0696951 0
M  V30 3445 H 333.572 -3.34852 -2.55836 0
M  V30 3446 H 332.296 -2.10746 -2.49507 0
M  V30 3447 H 330.955 -3.54799 -0.922668 0
M  V30 3448 H 330.603 -3.71308 -3.39322 0
M  V30 3449 H 330.303 -5.27451 -2.58976 0
M  V30 3450 H 331.827 -5.01378 -3.485 0
M  V30 3451 H 333.241 -5.58667 -1.28699 0
M  V30 3452 H 331.638 -5.97137 -0.595627 0
M  V30 3453 H 332.708 -4.8423 0.254851 0
M  V30 3454 N 334.051 0.0651679 -1.57465 0
M  V30 3455 C 335.297 0.758912 -1.88712 0
M  V30 3456 C 335.652 1.7485 -0.802819 0
M  V30 3457 O 334.945 1.90632 0.192359 0
M  V30 3458 C 335.139 1.50081 -3.24362 0
M  V30 3459 C 334.968 0.584579 -4.45884 0
M  V30 3460 C 333.738 0.219039 -5.04825 0
M  V30 3461 C 335.936 -0.121559 -5.14156 0
M  V30 3462 N 333.918 -0.702222 -6.09871 0
M  V30 3463 C 335.289 -0.899767 -6.13436 0
M  V30 3464 C 337.344 -0.192331 -4.97528 0
M  V30 3465 C 336.047 -1.74218 -6.97883 0
M  V30 3466 C 338.073 -1.02174 -5.82507 0
M  V30 3467 C 337.435 -1.78798 -6.8133 0
M  V30 3468 H 333.534 0.25293 -0.739967 0
M  V30 3469 H 336.118 0.0201744 -1.9469 0
M  V30 3470 H 334.289 2.21023 -3.1938 0
M  V30 3471 H 336.021 2.14409 -3.43236 0
M  V30 3472 H 332.776 0.57336 -4.70117 0
M  V30 3473 H 333.2 -1.15629 -6.67052 0
M  V30 3474 H 337.842 0.385741 -4.21037 0
M  V30 3475 H 335.56 -2.3312 -7.73745 0
M  V30 3476 H 339.146 -1.07957 -5.71696 0
M  V30 3477 H 338.026 -2.41942 -7.45945 0
M  V30 3478 N 335.529 1.53961 0.336706 0
M  V30 3479 C 336.778 1.70751 1.07363 0
M  V30 3480 C 337.091 0.481061 1.89592 0
M  V30 3481 O 338.297 0.530046 2.66276 0
M  V30 3482 C 336.753 3.01965 1.95818 0
M  V30 3483 C 336.361 4.31971 1.18764 0
M  V30 3484 C 338.105 3.28121 2.69327 0
M  V30 3485 C 336.012 5.54255 2.06289 0
M  V30 3486 H 334.942 0.636292 0.404535 0
M  V30 3487 H 337.593 1.80459 0.332681 0
M  V30 3488 H 335.975 2.86132 2.7376 0
M  V30 3489 H 337.149 4.5853 0.456849 0
M  V30 3490 H 335.464 4.12481 0.569946 0
M  V30 3491 H 338.061 4.16673 3.35094 0
M  V30 3492 H 338.404 2.45426 3.36261 0
M  V30 3493 H 338.937 3.44762 1.98454 0
M  V30 3494 H 335.676 6.39513 1.43885 0
M  V30 3495 H 335.196 5.31935 2.77138 0
M  V30 3496 H 336.875 5.90159 2.65182 0
M  V30 3497 N 337.007 -0.598083 1.45811 0
M  V30 3498 C 338.256 -1.35295 1.49594 0
M  V30 3499 C 338.569 -1.95057 0.145679 0
M  V30 3500 O 339.775 -2.71431 0.0612099 0
M  V30 3501 C 338.231 -2.45124 2.63519 0
M  V30 3502 C 337.839 -1.91732 4.04899 0
M  V30 3503 C 339.583 -3.2205 2.76558 0
M  V30 3504 C 337.49 -2.991 5.1019 0
M  V30 3505 H 336.42 -0.508552 0.556679 0
M  V30 3506 H 339.071 -0.639977 1.71978 0
M  V30 3507 H 337.453 -3.19149 2.34435 0
M  V30 3508 H 338.627 -1.24352 4.43704 0
M  V30 3509 H 336.942 -1.27522 3.96393 0
M  V30 3510 H 339.539 -4.0215 3.52391 0
M  V30 3511 H 339.882 -3.73663 1.83526 0
M  V30 3512 H 340.415 -2.55127 3.05213 0
M  V30 3513 H 337.154 -2.52393 6.04961 0
M  V30 3514 H 336.674 -3.65017 4.75944 0
M  V30 3515 H 338.353 -3.63318 5.35359 0
M  V30 3516 N 338.485 -1.33259 -0.841409 0
M  V30 3517 C 339.733 -1.24326 -1.59334 0
M  V30 3518 C 340.054 0.191564 -1.94057 0
M  V30 3519 O 339.324 1.11967 -1.60749 0
M  V30 3520 H 337.904 -0.457174 -0.590763 0
M  V30 3521 H 340.566 -1.66947 -1.00571 0
M  V30 3522 H 339.662 -1.8352 -2.52442 0
M  V30 3523 N 339.963 1.05934 -1.16686 0
M  V30 3524 C 341.191 1.8249 -0.974929 0
M  V30 3525 C 341.606 1.82679 0.476861 0
M  V30 3526 O 340.963 1.2486 1.33103 0
M  V30 3527 C 341.014 3.28943 -1.49929 0
M  V30 3528 O 340.735 3.28886 -2.89423 0
M  V30 3529 C 342.236 4.22215 -1.35089 0
M  V30 3530 H 339.456 0.575295 -0.345365 0
M  V30 3531 H 342 1.33631 -1.548 0
M  V30 3532 H 340.155 3.751 -0.968423 0
M  V30 3533 H 340.569 4.20493 -3.13506 0
M  V30 3534 H 342.043 5.22987 -1.76603 0
M  V30 3535 H 342.52 4.38195 -0.296935 0
M  V30 3536 H 343.126 3.81907 -1.87155 0
M  V30 3537 N 341.441 0.965919 1.2453 0
M  V30 3538 C 342.69 0.622437 1.91856 0
M  V30 3539 C 343.003 -0.846006 1.76358 0
M  V30 3540 O 344.209 -1.29993 2.38357 0
M  V30 3541 C 342.665 1.0626 3.43856 0
M  V30 3542 C 342.273 2.55437 3.68043 0
M  V30 3543 C 344.017 0.792183 4.17043 0
M  V30 3544 C 341.924 2.93196 5.13605 0
M  V30 3545 H 340.854 0.229092 0.718354 0
M  V30 3546 H 343.505 1.17189 1.41206 0
M  V30 3547 H 341.887 0.441476 3.93531 0
M  V30 3548 H 343.061 3.22665 3.28974 0
M  V30 3549 H 341.376 2.8007 3.08139 0
M  V30 3550 H 343.973 1.05031 5.24283 0
M  V30 3551 H 344.316 -0.271584 4.15413 0
M  V30 3552 H 344.849 1.37419 3.73311 0
M  V30 3553 H 341.588 3.98636 5.20355 0
M  V30 3554 H 341.108 2.30651 5.53679 0
M  V30 3555 H 342.787 2.83004 5.81823 0
M  V30 3556 N 342.919 -1.39368 0.735821 0
M  V30 3557 C 344.166 -2.00497 0.284123 0
M  V30 3558 C 344.494 -1.58387 -1.12889 0
M  V30 3559 O 343.749 -0.804359 -1.78406 0
M  V30 3560 C 344.048 -3.5583 0.334651 0
M  V30 3561 C 343.714 -4.17593 1.7008 0
M  V30 3562 C 342.376 -4.34176 2.07472 0
M  V30 3563 C 344.728 -4.51848 2.59775 0
M  V30 3564 C 342.056 -4.82304 3.34065 0
M  V30 3565 C 344.408 -5.01384 3.85741 0
M  V30 3566 C 343.072 -5.16175 4.23225 0
M  V30 3567 H 342.342 -0.73367 0.103968 0
M  V30 3568 H 344.989 -1.66683 0.942825 0
M  V30 3569 H 343.294 -3.89674 -0.407625 0
M  V30 3570 H 344.991 -4.00986 -0.0329927 0
M  V30 3571 H 341.581 -4.05087 1.40008 0
M  V30 3572 H 345.765 -4.38653 2.32157 0
M  V30 3573 H 341.021 -4.91941 3.63049 0
M  V30 3574 H 345.195 -5.26863 4.55399 0
M  V30 3575 H 342.822 -5.5323 5.21384 0
M  V30 3576 N 344.397 -0.483516 -1.5 0
M  V30 3577 C 345.808 -0.0314176 -1.86674 0
M  V30 3578 C 346.159 1.37728 -1.39733 0
M  V30 3579 O 345.284 2.02327 -0.767635 0
M  V30 3580 C 345.879 -0.0502376 -3.38763 0
M  V30 3581 C 344.438 0.346442 -3.74802 0
M  V30 3582 C 343.585 -0.430366 -2.7394 0
M  V30 3583 H 346.536 -0.697182 -1.42566 0
M  V30 3584 H 346.557 0.749116 -3.73053 0
M  V30 3585 H 346.069 -1.07563 -3.72897 0
M  V30 3586 H 344.17 1.37572 -3.46273 0
M  V30 3587 H 344.283 0.0391486 -4.79084 0
M  V30 3588 H 342.647 0.117557 -2.54429 0
M  V30 3589 H 343.43 -1.4555 -3.10918 0
M  V30 3590 N 345.875 1.56104 -0.216619 0
M  V30 3591 C 347.121 1.98466 0.417033 0
M  V30 3592 C 347.454 1.10403 1.59765 0
M  V30 3593 O 346.729 0.160632 1.93836 0
M  V30 3594 C 347.012 3.49769 0.85637 0
M  V30 3595 C 346.865 4.48606 -0.327546 0
M  V30 3596 C 348.184 4.05339 1.7143 0
M  V30 3597 H 345.303 0.721551 0.150112 0
M  V30 3598 H 347.945 1.87423 -0.311864 0
M  V30 3599 H 346.095 3.5931 1.47745 0
M  V30 3600 H 347.767 4.5108 -0.965618 0
M  V30 3601 H 346.01 4.22682 -0.975805 0
M  V30 3602 H 346.681 5.51995 0.0227149 0
M  V30 3603 H 349.157 3.98712 1.19031 0
M  V30 3604 H 348.033 5.11533 1.99061 0
M  V30 3605 H 348.294 3.51918 2.67593 0
M  V30 3606 N 347.353 -0.0568162 1.57498 0
M  V30 3607 C 348.316 -1.05038 2.03715 0
M  V30 3608 C 349.316 -1.30709 0.936577 0
M  V30 3609 O 350.506 -1.26178 1.20103 0
M  V30 3610 C 347.638 -2.39034 2.43055 0
M  V30 3611 H 348.831 -0.651715 2.92733 0
M  V30 3612 H 346.384 -0.302947 1.53336 0
M  V30 3613 H 347.119 -2.83703 1.57108 0
M  V30 3614 H 346.904 -2.21739 3.2338 0
M  V30 3615 H 348.394 -3.10421 2.79336 0
M  V30 3616 N 348.832 -1.54138 -0.328536 0
M  V30 3617 C 350.08 -1.71765 -1.06496 0
M  V30 3618 C 350.401 -0.49149 -1.88704 0
M  V30 3619 O 349.671 0.494539 -1.89555 0
M  V30 3620 H 348.251 -0.633295 -0.396164 0
M  V30 3621 H 350.913 -1.91429 -0.366176 0
M  V30 3622 H 350.009 -2.5951 -1.73381 0
M  V30 3623 N 350.31 0.590341 -1.46126 0
M  V30 3624 C 351.54 1.37304 -1.54373 0
M  V30 3625 C 351.948 1.88332 -0.181071 0
M  V30 3626 O 351.291 1.63852 0.830559 0
M  V30 3627 C 351.353 2.6012 -2.48149 0
M  V30 3628 C 351.017 2.30613 -3.94546 0
M  V30 3629 C 352.014 1.89915 -4.83971 0
M  V30 3630 C 349.699 2.42993 -4.39613 0
M  V30 3631 C 351.693 1.61981 -6.16475 0
M  V30 3632 C 349.38 2.14672 -5.72153 0
M  V30 3633 C 350.378 1.7423 -6.60404 0
M  V30 3634 O 350.066 1.46251 -7.90485 0
M  V30 3635 H 349.798 0.426086 -0.524811 0
M  V30 3636 H 352.352 0.72539 -1.92165 0
M  V30 3637 H 350.582 3.27664 -2.05361 0
M  V30 3638 H 352.271 3.22182 -2.46887 0
M  V30 3639 H 353.037 1.79872 -4.50412 0
M  V30 3640 H 348.916 2.73435 -3.71153 0
M  V30 3641 H 352.46 1.30341 -6.85315 0
M  V30 3642 H 348.357 2.24337 -6.05263 0
M  V30 3643 H 349.125 1.6016 -8.02677 0
M  V30 3644 N 351.788 1.33704 0.83433 0
M  V30 3645 C 353.013 1.28615 1.62705 0
M  V30 3646 C 353.438 -0.139242 1.87584 0
M  V30 3647 O 352.796 -1.09734 1.4432 0
M  V30 3648 C 352.844 2.07139 2.95171 0
M  V30 3649 O 351.948 1.4331 3.86699 0
M  V30 3650 H 351.289 0.44226 0.49528 0
M  V30 3651 H 353.819 1.76335 1.03766 0
M  V30 3652 H 353.829 2.18073 3.44831 0
M  V30 3653 H 352.504 3.10779 2.76386 0
M  V30 3654 H 351.081 1.4105 3.45195 0
M  V30 3655 N 353.266 -1.05314 1.17247 0
M  V30 3656 C 354.196 -2.1498 0.911362 0
M  V30 3657 C 355.177 -1.69471 -0.146169 0
M  V30 3658 O 356.362 -1.942 0.003812 0
M  V30 3659 C 353.492 -3.4472 0.422528 0
M  V30 3660 C 352.446 -4.03789 1.4191 0
M  V30 3661 C 351.772 -5.28858 0.788274 0
M  V30 3662 C 353.072 -4.41418 2.7919 0
M  V30 3663 H 354.766 -2.3708 1.82848 0
M  V30 3664 H 352.312 -1.13938 0.880569 0
M  V30 3665 H 354.265 -4.20787 0.227289 0
M  V30 3666 H 352.989 -3.22269 -0.530123 0
M  V30 3667 H 351.648 -3.2979 1.60106 0
M  V30 3668 H 351.296 -5.02709 -0.171173 0
M  V30 3669 H 350.996 -5.69338 1.45353 0
M  V30 3670 H 352.52 -6.07612 0.603282 0
M  V30 3671 H 353.934 -5.08524 2.64719 0
M  V30 3672 H 352.331 -4.92913 3.42282 0
M  V30 3673 H 353.401 -3.51819 3.33693 0
M  V30 3674 N 354.744 -0.972509 -1.24016 0
M  V30 3675 C 355.992 -0.635776 -1.91839 0
M  V30 3676 C 356.313 0.832312 -1.76345 0
M  V30 3677 O 355.583 1.5946 -1.13795 0
M  V30 3678 H 354.163 -0.232157 -0.710009 0
M  V30 3679 H 356.825 -1.23462 -1.50809 0
M  V30 3680 H 355.921 -0.880545 -2.99421 0
M  V30 3681 N 356.222 1.38976 -0.743202 0
M  V30 3682 C 357.469 2.00343 -0.294752 0
M  V30 3683 C 357.797 1.58983 1.12047 0
M  V30 3684 O 357.052 0.813809 1.77977 0
M  V30 3685 C 357.351 3.55647 -0.353517 0
M  V30 3686 C 357.017 4.16685 -1.72292 0
M  V30 3687 C 355.679 4.3307 -2.09771 0
M  V30 3688 C 358.031 4.50464 -2.62168 0
M  V30 3689 C 355.359 4.80526 -3.36618 0
M  V30 3690 C 357.711 4.99332 -3.88395 0
M  V30 3691 C 356.375 5.13924 -4.25956 0
M  V30 3692 H 355.645 0.733108 -0.107857 0
M  V30 3693 H 358.292 1.6618 -0.951651 0
M  V30 3694 H 356.597 3.89884 0.386954 0
M  V30 3695 H 358.294 4.00998 0.0117269 0
M  V30 3696 H 354.884 4.04339 -1.42155 0
M  V30 3697 H 359.068 4.37416 -2.3448 0
M  V30 3698 H 354.324 4.90008 -3.65653 0
M  V30 3699 H 358.498 5.2444 -4.58187 0
M  V30 3700 H 356.125 5.50457 -5.2431 0
M  V30 3701 N 357.7 0.491464 1.49741 0
M  V30 3702 C 358.63 -0.28154 2.31796 0
M  V30 3703 C 359.611 -0.971473 1.3963 0
M  V30 3704 O 360.796 -0.964719 1.68543 0
M  V30 3705 C 357.926 -1.35203 3.19902 0
M  V30 3706 C 356.88 -0.782529 4.20786 0
M  V30 3707 C 356.206 -1.95283 4.97764 0
M  V30 3708 C 357.506 0.21999 5.21837 0
M  V30 3709 H 359.2 0.403355 2.96671 0
M  V30 3710 H 356.746 0.195425 1.42668 0
M  V30 3711 H 358.699 -1.90045 3.76113 0
M  V30 3712 H 357.423 -2.06598 2.52953 0
M  V30 3713 H 356.082 -0.255928 3.65706 0
M  V30 3714 H 355.73 -2.65423 4.2727 0
M  V30 3715 H 355.43 -1.57789 5.66018 0
M  V30 3716 H 356.954 -2.50577 5.56816 0
M  V30 3717 H 358.368 -0.23996 5.72798 0
M  V30 3718 H 356.765 0.51026 5.97927 0
M  V30 3719 H 357.835 1.13911 4.7133 0
M  V30 3720 N 359.178 -1.55987 0.224894 0
M  V30 3721 C 360.108 -2.23426 -0.678457 0
M  V30 3722 C 361.089 -1.20709 -1.19847 0
M  V30 3723 O 362.274 -1.49304 -1.24186 0
M  V30 3724 C 359.404 -2.91676 -1.88527 0
M  V30 3725 C 358.358 -4.00893 -1.49896 0
M  V30 3726 C 357.684 -4.56455 -2.78483 0
M  V30 3727 C 358.984 -5.17769 -0.686461 0
M  V30 3728 H 360.678 -2.99175 -0.116173 0
M  V30 3729 H 358.224 -1.43897 -0.054436 0
M  V30 3730 H 360.177 -3.37547 -2.5227 0
M  V30 3731 H 358.901 -2.1338 -2.47258 0
M  V30 3732 H 357.56 -3.55758 -0.884985 0
M  V30 3733 H 357.208 -3.74886 -3.35365 0
M  V30 3734 H 356.908 -5.30169 -2.53368 0
M  V30 3735 H 358.432 -5.05047 -3.43162 0
M  V30 3736 H 359.846 -5.60001 -1.22767 0
M  V30 3737 H 358.243 -5.97735 -0.532259 0
M  V30 3738 H 359.313 -4.83932 0.306196 0
M  V30 3739 N 360.656 0.0484629 -1.57525 0
M  V30 3740 C 361.619 1.03956 -2.04269 0
M  V30 3741 C 362.619 1.30211 -0.943496 0
M  V30 3742 O 363.809 1.25539 -1.20771 0
M  V30 3743 C 360.941 2.37742 -2.44319 0
M  V30 3744 H 362.134 0.636182 -2.93075 0
M  V30 3745 H 359.687 0.294811 -1.53494 0
M  V30 3746 H 360.422 2.82866 -1.5861 0
M  V30 3747 H 360.207 2.20021 -3.24551 0
M  V30 3748 H 361.697 3.08936 -2.80978 0
M  V30 3749 N 362.134 1.5431 0.320358 0
M  V30 3750 C 363.55 1.45091 0.664889 0
M  V30 3751 C 363.75 0.626382 1.91517 0
M  V30 3752 O 362.806 0.126443 2.52183 0
M  V30 3753 C 364.119 2.88848 0.83591 0
M  V30 3754 C 365.667 2.9877 0.933046 0
M  V30 3755 C 366.142 4.43683 1.13621 0
M  V30 3756 N 367.633 4.47309 1.20287 0
M  V30 3757 C 368.368 5.56595 1.37801 0
M  V30 3758 N 367.864 6.75844 1.52338 0
M  V30 3759 N 369.657 5.44248 1.40535 0
M  V30 3760 H 361.808 2.06398 -0.501374 0
M  V30 3761 H 364.071 0.933963 -0.162534 0
M  V30 3762 H 363.777 3.51698 -0.0116092 0
M  V30 3763 H 363.651 3.35148 1.73078 0
M  V30 3764 H 366.038 2.36045 1.77107 0
M  V30 3765 H 366.119 2.55796 0.0145782 0
M  V30 3766 H 365.763 5.06995 0.303032 0
M  V30 3767 H 365.693 4.84269 2.0686 0
M  V30 3768 H 368.184 3.61388 1.10485 0
M  V30 3769 H 368.497 7.54892 1.65403 0
M  V30 3770 H 366.842 6.78746 1.4943 0
M  V30 3771 H 370.033 4.50038 1.28777 0
M  V30 3772 H 370.206 6.29473 1.53842 0
M  V30 3773 N 363.613 -0.582584 1.46437 0
M  V30 3774 C 364.862 -1.337 1.5102 0
M  V30 3775 C 365.175 -1.94891 0.166359 0
M  V30 3776 O 366.381 -2.71351 0.0899954 0
M  V30 3777 C 364.837 -2.42315 2.66104 0
M  V30 3778 C 364.445 -1.87427 4.06909 0
M  V30 3779 C 366.189 -3.19099 2.79958 0
M  V30 3780 C 364.096 -2.93672 5.13333 0
M  V30 3781 H 363.026 -0.502619 0.562041 0
M  V30 3782 H 365.677 -0.621701 1.72647 0
M  V30 3783 H 364.059 -3.16645 2.37807 0
M  V30 3784 H 365.233 -1.19639 4.44998 0
M  V30 3785 H 363.548 -1.2331 3.97723 0
M  V30 3786 H 366.145 -3.9839 3.56636 0
M  V30 3787 H 366.488 -3.71695 1.87479 0
M  V30 3788 H 367.021 -2.51875 3.07902 0
M  V30 3789 H 363.76 -2.45962 6.07604 0
M  V30 3790 H 363.28 -3.59948 4.79789 0
M  V30 3791 H 364.959 -3.5762 5.39182 0
M  V30 3792 N 365.091 -1.34144 -0.827227 0
M  V30 3793 C 366.054 -1.25264 -1.91942 0
M  V30 3794 C 367.054 -0.168866 -1.59911 0
M  V30 3795 O 368.244 -0.421198 -1.69031 0
M  V30 3796 C 365.376 -0.932952 -3.27885 0
M  V30 3797 H 366.569 -2.22357 -2.0124 0
M  V30 3798 H 364.122 -1.1837 -1.0207 0
M  V30 3799 H 364.857 0.0349917 -3.24281 0
M  V30 3800 H 364.642 -1.71682 -3.52516 0
M  V30 3801 H 366.132 -0.895874 -4.07877 0
M  V30 3802 N 366.569 1.04691 -1.17803 0
M  V30 3803 C 367.817 1.7743 -0.967617 0
M  V30 3804 C 368.138 1.88359 0.504574 0
M  V30 3805 O 367.408 1.40402 1.36617 0
M  V30 3806 H 365.988 0.657242 -0.355024 0
M  V30 3807 H 368.65 1.2638 -1.48371 0
M  V30 3808 H 367.746 2.78924 -1.40027 0
M  V30 3809 N 368.047 0.979072 1.23499 0
M  V30 3810 C 368.977 0.537606 2.27227 0
M  V30 3811 C 369.958 -0.428539 1.64613 0
M  V30 3812 O 371.143 -0.322191 1.91509 0
M  V30 3813 C 368.273 -0.162052 3.46922 0
M  V30 3814 C 367.227 0.721242 4.21879 0
M  V30 3815 C 366.553 -0.110555 5.34586 0
M  V30 3816 C 367.853 2.01141 4.82016 0
M  V30 3817 H 369.547 1.40462 2.64406 0
M  V30 3818 H 367.093 0.67684 1.27102 0
M  V30 3819 H 369.046 -0.482192 4.18632 0
M  V30 3820 H 367.77 -1.06351 3.08799 0
M  V30 3821 H 366.429 1.02482 3.51984 0
M  V30 3822 H 366.077 -1.0125 4.92704 0
M  V30 3823 H 365.777 0.477325 5.85658 0
M  V30 3824 H 367.301 -0.425107 6.09118 0
M  V30 3825 H 368.715 1.75612 5.45741 0
M  V30 3826 H 367.112 2.54695 5.43369 0
M  V30 3827 H 368.182 2.69909 4.02836 0
M  V30 3828 N 369.525 -1.3858 0.750561 0
M  V30 3829 C 370.936 -1.82927 0.373438 0
M  V30 3830 C 371.287 -1.62634 -1.09748 0
M  V30 3831 O 370.412 -1.12588 -1.84805 0
M  V30 3832 C 371.007 -3.32088 0.671029 0
M  V30 3833 C 369.566 -3.74795 0.34722 0
M  V30 3834 C 368.713 -2.61391 0.92575 0
M  V30 3835 H 371.664 -1.27351 0.946958 0
M  V30 3836 H 371.685 -3.80465 -0.0518269 0
M  V30 3837 H 371.197 -3.46826 1.74164 0
M  V30 3838 H 369.298 -3.65638 -0.716933 0
M  V30 3839 H 369.411 -4.71667 0.840656 0
M  V30 3840 H 367.775 -2.52265 0.351327 0
M  V30 3841 H 368.558 -2.78929 2.00133 0
M  V30 3842 N 371.003 -0.499398 -1.49478 0
M  V30 3843 C 372.249 0.0377587 -2.03365 0
M  V30 3844 C 372.604 1.3484 -1.37244 0
M  V30 3845 O 371.897 1.85 -0.498547 0
M  V30 3846 C 372.091 0.248424 -3.56536 0
M  V30 3847 C 371.92 -1.04025 -4.37503 0
M  V30 3848 C 370.69 -1.59159 -4.79579 0
M  V30 3849 C 372.888 -1.9431 -4.76181 0
M  V30 3850 N 370.87 -2.82634 -5.44969 0
M  V30 3851 C 372.241 -3.02364 -5.41272 0
M  V30 3852 C 374.296 -1.95008 -4.58123 0
M  V30 3853 C 372.999 -4.1114 -5.90217 0
M  V30 3854 C 375.025 -3.02758 -5.08027 0
M  V30 3855 C 374.387 -4.09531 -5.73118 0
M  V30 3856 H 370.486 -0.026923 -0.781536 0
M  V30 3857 H 373.07 -0.673901 -1.82665 0
M  V30 3858 H 371.241 0.929139 -3.77123 0
M  V30 3859 H 372.973 0.782445 -3.97064 0
M  V30 3860 H 369.728 -1.13696 -4.5975 0
M  V30 3861 H 370.152 -3.45416 -5.82252 0
M  V30 3862 H 374.794 -1.13766 -4.07207 0
M  V30 3863 H 372.512 -4.93181 -6.40155 0
M  V30 3864 H 376.098 -3.04315 -4.95866 0
M  V30 3865 H 374.978 -4.91534 -6.11035 0
M  V30 3866 N 372.481 1.55866 -0.233164 0
M  V30 3867 C 373.711 2.02704 0.399325 0
M  V30 3868 C 374.119 1.11204 1.53069 0
M  V30 3869 O 373.462 0.116182 1.83332 0
M  V30 3870 C 373.524 3.45844 0.981429 0
M  V30 3871 C 373.188 4.56997 -0.0159561 0
M  V30 3872 C 374.185 5.13384 -0.820552 0
M  V30 3873 C 371.87 5.0211 -0.138072 0
M  V30 3874 C 373.864 6.13365 -1.73386 0
M  V30 3875 C 371.551 6.01926 -1.0549 0
M  V30 3876 C 372.549 6.57431 -1.85132 0
M  V30 3877 O 372.237 7.55302 -2.75272 0
M  V30 3878 H 371.969 0.668459 0.100692 0
M  V30 3879 H 374.523 2.02387 -0.35052 0
M  V30 3880 H 372.753 3.43267 1.78058 0
M  V30 3881 H 374.442 3.76262 1.52255 0
M  V30 3882 H 375.208 4.79372 -0.736721 0
M  V30 3883 H 371.087 4.5858 0.471737 0
M  V30 3884 H 374.631 6.56614 -2.35592 0
M  V30 3885 H 370.528 6.35359 -1.1397 0
M  V30 3886 H 371.296 7.72867 -2.69477 0
M  V30 3887 N 373.959 -0.0401083 1.57549 0
M  V30 3888 C 375.375 -0.395556 1.54621 0
M  V30 3889 C 375.575 -1.77281 0.957799 0
M  V30 3890 O 374.631 -2.45888 0.574031 0
M  V30 3891 C 375.944 -0.307535 2.99123 0
M  V30 3892 C 377.492 -0.385425 3.10618 0
M  V30 3893 C 377.967 -0.326973 4.56831 0
M  V30 3894 N 379.458 -0.386102 4.61588 0
M  V30 3895 C 380.193 -0.363591 5.72246 0
M  V30 3896 N 379.689 -0.29402 6.92176 0
M  V30 3897 N 381.482 -0.412503 5.60584 0
M  V30 3898 H 373.633 0.861325 1.94152 0
M  V30 3899 H 375.896 0.326445 0.890021 0
M  V30 3900 H 375.602 0.638461 3.45856 0
M  V30 3901 H 375.476 -1.10552 3.60636 0
M  V30 3902 H 377.863 -1.32185 2.63839 0
M  V30 3903 H 377.944 0.44171 2.51957 0
M  V30 3904 H 377.588 0.605738 5.04275 0
M  V30 3905 H 377.518 -1.17207 5.13391 0
M  V30 3906 H 380.009 -0.442832 3.75296 0
M  V30 3907 H 380.322 -0.28164 7.72287 0
M  V30 3908 H 378.667 -0.260232 6.94513 0
M  V30 3909 H 381.858 -0.464769 4.65787 0
M  V30 3910 H 382.031 -0.391492 6.46816 0
M  V30 3911 N 375.437 -1.54477 -0.31217 0
M  V30 3912 C 376.677 -1.74958 -1.05684 0
M  V30 3913 C 377.041 -0.518414 -1.84869 0
M  V30 3914 O 378.242 -0.600759 -2.62001 0
M  V30 3915 C 376.513 -2.99656 -1.94785 0
M  V30 3916 S 378.072 -3.4109 -2.76049 0
M  V30 3917 H 374.89 -0.615104 -0.356606 0
M  V30 3918 H 377.492 -1.92669 -0.331514 0
M  V30 3919 H 376.196 -3.87397 -1.35468 0
M  V30 3920 H 375.727 -2.845 -2.71704 0
M  V30 3921 H 377.742 -2.97283 -3.97287 0
M  V30 3922 N 376.915 0.57481 -1.46744 0
M  V30 3923 C 378.331 0.898981 -1.31873 0
M  V30 3924 C 378.531 1.99313 -0.29605 0
M  V30 3925 O 377.587 2.50728 0.298621 0
M  V30 3926 C 378.9 1.30886 -2.7072 0
M  V30 3927 C 380.448 1.42127 -2.78871 0
M  V30 3928 C 380.923 1.86478 -4.18318 0
M  V30 3929 N 382.414 1.93658 -4.20774 0
M  V30 3930 C 383.149 2.29267 -5.2557 0
M  V30 3931 N 382.645 2.63612 -6.40688 0
M  V30 3932 N 384.438 2.29889 -5.1294 0
M  V30 3933 H 376.589 -0.147839 -2.11885 0
M  V30 3934 H 378.852 -0.00347013 -0.947994 0
M  V30 3935 H 378.558 0.578853 -3.46904 0
M  V30 3936 H 378.432 2.26874 -3.01343 0
M  V30 3937 H 380.819 2.14213 -2.0297 0
M  V30 3938 H 380.9 0.443705 -2.51922 0
M  V30 3939 H 380.544 1.14968 -4.94717 0
M  V30 3940 H 380.474 2.85207 -4.42679 0
M  V30 3941 H 382.965 1.69574 -3.37718 0
M  V30 3942 H 383.278 2.89759 -7.16421 0
M  V30 3943 H 381.623 2.61232 -6.44036 0
M  V30 3944 H 384.814 2.02485 -4.22039 0
M  V30 3945 H 384.987 2.57312 -5.94722 0
M  V30 3946 N 378.394 1.34581 0.820102 0
M  V30 3947 C 379.622 1.3018 1.60813 0
M  V30 3948 C 380.037 -0.123551 1.88395 0
M  V30 3949 O 379.394 -1.07148 1.47735 0
M  V30 3950 C 379.445 2.09312 2.94739 0
M  V30 3951 O 379.166 3.46288 2.68358 0
M  V30 3952 C 380.667 2.1234 3.89136 0
M  V30 3953 H 377.887 0.447726 0.499782 0
M  V30 3954 H 380.431 1.77237 1.02017 0
M  V30 3955 H 378.586 1.65889 3.50085 0
M  V30 3956 H 379 3.87227 3.53774 0
M  V30 3957 H 380.474 2.72126 4.80262 0
M  V30 3958 H 380.951 1.11854 4.24718 0
M  V30 3959 H 381.557 2.55864 3.39726 0
M  V30 3960 N 379.872 -1.04064 1.18357 0
M  V30 3961 C 381.118 -1.77528 0.980397 0
M  V30 3962 C 381.451 -1.87948 -0.48879 0
M  V30 3963 O 380.726 -1.3876 -1.36293 0
M  V30 3964 C 381.009 -3.20797 1.63588 0
M  V30 3965 C 380.862 -3.1832 3.17793 0
M  V30 3966 C 382.181 -4.18911 1.34914 0
M  V30 3967 H 379.3 -0.644443 0.357578 0
M  V30 3968 H 381.942 -1.2156 1.46024 0
M  V30 3969 H 380.092 -3.68586 1.22788 0
M  V30 3970 H 381.764 -2.78521 3.67728 0
M  V30 3971 H 380.007 -2.56351 3.49952 0
M  V30 3972 H 380.678 -4.19489 3.58794 0
M  V30 3973 H 383.154 -3.7967 1.70265 0
M  V30 3974 H 382.03 -5.17374 1.83346 0
M  V30 3975 H 382.291 -4.41262 0.272027 0
M  V30 3976 N 381.35 -0.985608 -1.22978 0
M  V30 3977 C 382.313 -0.535071 -2.22867 0
M  V30 3978 C 383.313 0.378123 -1.56291 0
M  V30 3979 O 384.503 0.171092 -1.73358 0
M  V30 3980 C 381.635 0.222702 -3.40172 0
M  V30 3981 H 382.828 -1.41835 -2.6424 0
M  V30 3982 H 380.381 -0.772042 -1.35901 0
M  V30 3983 H 381.116 1.12229 -3.04262 0
M  V30 3984 H 380.901 -0.43288 -3.89703 0
M  V30 3985 H 382.391 0.526335 -4.1427 0
M  V30 3986 N 382.828 1.3818 -0.7579 0
M  V30 3987 C 384.075 2.00019 -0.315985 0
M  V30 3988 C 384.403 1.60163 1.10355 0
M  V30 3989 O 383.658 0.83264 1.77103 0
M  V30 3990 C 383.957 3.55252 -0.391218 0
M  V30 3991 C 383.623 4.14834 -1.76702 0
M  V30 3992 C 382.285 4.30821 -2.14353 0
M  V30 3993 C 384.637 4.47658 -2.66931 0
M  V30 3994 C 381.965 4.76928 -3.41696 0
M  V30 3995 C 384.317 4.95184 -3.93669 0
M  V30 3996 C 382.981 5.09377 -4.31383 0
M  V30 3997 H 382.251 0.731923 -0.115627 0
M  V30 3998 H 384.898 1.65161 -0.969223 0
M  V30 3999 H 383.203 3.90273 0.34558 0
M  V30 4000 H 384.9 4.00988 -0.030805 0
M  V30 4001 H 381.49 4.02808 -1.46435 0
M  V30 4002 H 385.674 4.34904 -2.39106 0
M  V30 4003 H 380.93 4.86103 -3.70829 0
M  V30 4004 H 385.104 5.19551 -4.63724 0
M  V30 4005 H 382.731 5.44865 -5.30119 0
M  V30 4006 N 384.306 0.507319 1.49211 0
M  V30 4007 C 385.216 -0.272136 2.33016 0
M  V30 4008 C 386.232 -0.961206 1.45041 0
M  V30 4009 O 387.408 -0.941191 1.78055 0
M  V30 4010 C 384.473 -1.31895 3.20631 0
M  V30 4011 C 383.534 -0.642648 4.24463 0
M  V30 4012 C 382.767 -1.63959 5.07891 0
M  V30 4013 O 382.99 -2.87007 4.92933 0
M  V30 4014 O 381.924 -1.19143 5.8999 0
M  V30 4015 H 385.75 0.413982 3.00865 0
M  V30 4016 H 383.335 0.268556 1.46966 0
M  V30 4017 H 385.217 -1.92446 3.7489 0
M  V30 4018 H 383.892 -1.98788 2.5547 0
M  V30 4019 H 382.799 0.00276252 3.741 0
M  V30 4020 H 384.132 -0.0160534 4.92197 0
M  V30 4021 N 385.784 -1.5574 0.241426 0
M  V30 4022 C 387.012 -2.03208 -0.389134 0
M  V30 4023 C 387.427 -1.12082 -1.51931 0
M  V30 4024 O 386.784 -0.134183 -1.82006 0
M  V30 4025 C 386.835 -3.50064 -0.902087 0
M  V30 4026 O 386.556 -4.37717 0.18305 0
M  V30 4027 C 388.057 -4.13268 -1.60389 0
M  V30 4028 H 385.277 -0.664509 -0.0931053 0
M  V30 4029 H 387.821 -2.0124 0.36369 0
M  V30 4030 H 385.976 -3.52583 -1.60511 0
M  V30 4031 H 386.39 -5.24097 -0.205579 0
M  V30 4032 H 387.864 -5.17733 -1.91458 0
M  V30 4033 H 388.341 -3.59434 -2.52397 0
M  V30 4034 H 388.947 -4.14655 -0.945576 0
M  V30 4035 N 387.262 0.0317525 -1.57568 0
M  V30 4036 C 388.51 0.721676 -1.88776 0
M  V30 4037 C 388.831 1.76039 -0.838772 0
M  V30 4038 O 388.101 1.95482 0.127935 0
M  V30 4039 H 386.681 0.269534 -0.696678 0
M  V30 4040 H 389.343 -0.00165879 -1.949 0
M  V30 4041 H 388.439 1.21293 -2.87566 0
M  V30 4042 N 388.74 1.54641 0.303973 0
M  V30 4043 C 389.673 1.80263 1.3993 0
M  V30 4044 C 390.651 0.653657 1.48883 0
M  V30 4045 O 391.835 0.893284 1.6599 0
M  V30 4046 C 388.962 1.9367 2.77866 0
M  V30 4047 C 388.008 3.16078 2.86351 0
M  V30 4048 S 388.841 4.74219 2.4875 0
M  V30 4049 C 389.997 4.90558 3.88721 0
M  V30 4050 H 390.23 2.72886 1.17986 0
M  V30 4051 H 387.763 1.46014 0.501918 0
M  V30 4052 H 389.721 2.0208 3.57315 0
M  V30 4053 H 388.382 1.01991 2.9708 0
M  V30 4054 H 387.575 3.22252 3.87517 0
M  V30 4055 H 387.177 3.06099 2.14893 0
M  V30 4056 H 389.469 4.74398 4.83687 0
M  V30 4057 H 390.412 5.92651 3.87518 0
M  V30 4058 H 390.82 4.18728 3.78585 0
M  V30 4059 N 390.218 -0.567019 1.47046 0
M  V30 4060 C 391.15 -1.68985 1.54844 0
M  V30 4061 C 392.163 -1.56869 0.435431 0
M  V30 4062 O 393.352 -1.64006 0.70457 0
M  V30 4063 C 390.452 -3.07373 1.42742 0
M  V30 4064 C 389.625 -3.45339 2.6844 0
M  V30 4065 C 388.684 -4.62849 2.50314 0
M  V30 4066 O 387.71 -4.67922 3.24095 0
M  V30 4067 N 388.912 -5.58726 1.57499 0
M  V30 4068 H 391.677 -1.62745 2.51663 0
M  V30 4069 H 389.238 -0.753411 1.43302 0
M  V30 4070 H 391.23 -3.83803 1.28365 0
M  V30 4071 H 389.8 -3.07893 0.540445 0
M  V30 4072 H 389.02 -2.58455 2.97648 0
M  V30 4073 H 390.308 -3.67476 3.51907 0
M  V30 4074 H 389.706 -5.57376 0.966876 0
M  V30 4075 H 388.263 -6.34523 1.49078 0
M  V30 4076 N 391.696 -1.35014 -0.812953 0
M  V30 4077 C 392.644 -1.27435 -1.94585 0
M  V30 4078 C 393.638 -0.170494 -1.6854 0
M  V30 4079 O 394.844 -0.336085 -1.76835 0
M  V30 4080 H 391.219 -0.396144 -0.639198 0
M  V30 4081 H 393.19 -2.23158 -1.98098 0
M  V30 4082 C 391.939 -1.05677 -3.31252 0
M  V30 4083 H 391.262 -1.89853 -3.51846 0
M  V30 4084 H 392.702 -1.04413 -4.10943 0
M  V30 4085 C 391.161 0.239615 -3.36047 0
M  V30 4086 O 391.691 1.23759 -3.8216 0
M  V30 4087 N 389.897 0.276186 -2.89285 0
M  V30 4088 H 389.444 -0.53653 -2.51951 0
M  V30 4089 H 389.402 1.14332 -2.92875 0
M  V30 4090 N 393.175 1.03435 -1.18907 0
M  V30 4091 C 394.403 1.80381 -1.01342 0
M  V30 4092 C 394.818 1.83649 0.438005 0
M  V30 4093 O 394.175 1.27655 1.30424 0
M  V30 4094 C 394.226 3.25689 -1.56873 0
M  V30 4095 O 393.947 3.22673 -2.96334 0
M  V30 4096 C 395.448 4.19255 -1.44014 0
M  V30 4097 H 392.668 0.56784 -0.35749 0
M  V30 4098 H 395.212 1.30317 -1.576 0
M  V30 4099 H 393.367 3.72962 -1.04777 0
M  V30 4100 H 393.781 4.13748 -3.22355 0
M  V30 4101 H 395.255 5.19123 -1.87657 0
M  V30 4102 H 395.732 4.37467 -0.389815 0
M  V30 4103 H 396.338 3.77851 -1.95214 0
M  V30 4104 N 394.653 0.992116 1.22453 0
M  V30 4105 C 395.585 0.500024 2.23679 0
M  V30 4106 C 396.598 -0.404463 1.57696 0
M  V30 4107 O 397.787 -0.206722 1.77299 0
M  V30 4108 C 394.887 -0.294711 3.37616 0
M  V30 4109 C 394.06 0.605723 4.33186 0
M  V30 4110 C 393.119 -0.13717 5.26021 0
M  V30 4111 O 392.145 0.477164 5.67196 0
M  V30 4112 N 393.347 -1.4197 5.62872 0
M  V30 4113 H 396.112 1.37045 2.66531 0
M  V30 4114 H 393.673 0.866741 1.36745 0
M  V30 4115 H 395.665 -0.800329 3.96707 0
M  V30 4116 H 394.235 -1.06623 2.93854 0
M  V30 4117 H 393.455 1.29202 3.72425 0
M  V30 4118 H 394.743 1.21896 4.93983 0
M  V30 4119 H 394.141 -1.94015 5.31389 0
M  V30 4120 H 392.698 -1.87052 6.24383 0
M  V30 4121 N 396.131 -1.37776 0.765217 0
M  V30 4122 C 397.061 -2.32945 0.160953 0
M  V30 4123 C 398.042 -1.55454 -0.690516 0
M  V30 4124 O 399.227 -1.83721 -0.629318 0
M  V30 4125 C 396.357 -3.39669 -0.724031 0
M  V30 4126 C 395.311 -4.27992 0.0256173 0
M  V30 4127 C 394.637 -5.25673 -0.978383 0
M  V30 4128 C 395.937 -5.08309 1.20082 0
M  V30 4129 H 397.631 -2.83728 0.955969 0
M  V30 4130 H 395.177 -1.36416 0.461149 0
M  V30 4131 H 397.13 -4.05219 -1.15652 0
M  V30 4132 H 395.854 -2.87396 -1.5515 0
M  V30 4133 H 394.513 -3.63964 0.438812 0
M  V30 4134 H 394.161 -4.69682 -1.80022 0
M  V30 4135 H 393.861 -5.85625 -0.481378 0
M  V30 4136 H 395.385 -5.94098 -1.40995 0
M  V30 4137 H 396.799 -5.67034 0.845307 0
M  V30 4138 H 395.196 -5.77554 1.62947 0
M  V30 4139 H 396.266 -4.41365 2.00811 0
M  V30 4140 N 397.609 -0.515225 -1.4894 0
M  V30 4141 C 398.849 0.0223983 -2.04388 0
M  V30 4142 C 399.213 1.32961 -1.38511 0
M  V30 4143 O 400.414 1.95236 -1.8476 0
M  V30 4144 C 398.685 0.157056 -3.57055 0
M  V30 4145 S 400.244 0.646875 -4.34006 0
M  V30 4146 H 397.062 -0.00500662 -0.710982 0
M  V30 4147 H 399.664 -0.69243 -1.82827 0
M  V30 4148 H 398.368 -0.799412 -4.02539 0
M  V30 4149 H 397.899 0.896704 -3.83044 0
M  V30 4150 H 399.914 1.91381 -4.57808 0
M  V30 4151 N 399.087 1.5561 -0.249682 0
M  V30 4152 C 400.312 2.03865 0.381305 0
M  V30 4153 C 400.737 1.12769 1.50548 0
M  V30 4154 O 400.095 0.121189 1.80895 0
M  V30 4155 C 400.143 3.50101 0.863816 0
M  V30 4156 O 399.247 3.62132 1.97318 0
M  V30 4157 H 398.588 0.658827 0.0827194 0
M  V30 4158 H 401.118 2.01105 -0.376552 0
M  V30 4159 H 401.128 3.90975 1.1663 0
M  V30 4160 H 399.803 4.1588 0.0411816 0
M  V30 4161 H 398.38 3.33155 1.67517 0
M  V30 4162 N 400.565 -0.0233959 1.57583 0
M  V30 4163 C 401.793 -0.724682 1.93794 0
M  V30 4164 C 402.208 -1.68588 0.849912 0
M  V30 4165 O 401.565 -1.81676 -0.173204 0
M  V30 4166 C 401.616 -1.47684 3.29957 0
M  V30 4167 O 401.337 -0.554222 4.3458 0
M  V30 4168 C 402.838 -2.27477 3.80485 0
M  V30 4169 H 400.058 -0.203317 0.639455 0
M  V30 4170 H 402.602 0.0207653 2.04489 0
M  V30 4171 H 400.757 -2.17412 3.20641 0
M  V30 4172 H 401.171 -1.08232 5.13212 0
M  V30 4173 H 402.645 -2.7564 4.78254 0
M  V30 4174 H 403.122 -3.09144 3.11972 0
M  V30 4175 H 403.728 -1.62813 3.92902 0
M  V30 4176 N 402.043 -1.548 -0.295768 0
M  V30 4177 C 403.292 -1.73538 -1.02798 0
M  V30 4178 C 403.605 -0.531159 -1.8825 0
M  V30 4179 O 404.811 -0.600458 -2.64777 0
M  V30 4180 C 403.267 -3.07051 -1.87744 0
M  V30 4181 C 402.875 -4.34968 -1.07269 0
M  V30 4182 C 404.619 -3.35146 -2.60533 0
M  V30 4183 C 402.526 -5.5953 -1.91521 0
M  V30 4184 H 401.456 -0.646794 -0.387522 0
M  V30 4185 H 404.107 -1.81278 -0.284718 0
M  V30 4186 H 402.489 -2.93289 -2.66078 0
M  V30 4187 H 403.663 -4.5958 -0.335117 0
M  V30 4188 H 401.978 -4.13847 -0.460384 0
M  V30 4189 H 404.575 -4.2541 -3.23929 0
M  V30 4190 H 404.918 -2.54255 -3.29636 0
M  V30 4191 H 405.451 -3.49902 -1.89244 0
M  V30 4192 H 402.19 -6.43103 -1.26878 0
M  V30 4193 H 401.71 -5.39096 -2.62937 0
M  V30 4194 H 403.389 -5.96982 -2.49442 0
M  V30 4195 N 403.521 0.559213 -1.47345 0
M  V30 4196 C 404.767 1.31843 -1.54095 0
M  V30 4197 C 405.1 1.93149 -0.201726 0
M  V30 4198 O 404.375 1.77759 0.789428 0
M  V30 4199 C 404.658 2.43006 -2.65744 0
M  V30 4200 C 404.511 1.86581 -4.09277 0
M  V30 4201 C 405.83 3.44943 -2.73318 0
M  V30 4202 H 402.949 0.478012 -0.560957 0
M  V30 4203 H 405.591 0.625977 -1.79392 0
M  V30 4204 H 403.741 3.02072 -2.44305 0
M  V30 4205 H 405.413 1.31792 -4.42073 0
M  V30 4206 H 403.656 1.17268 -4.17649 0
M  V30 4207 H 404.327 2.66933 -4.83168 0
M  V30 4208 H 406.803 2.95793 -2.92653 0
M  V30 4209 H 405.679 4.20153 -3.53218 0
M  V30 4210 H 405.94 4.03665 -1.80296 0
M  V30 4211 N 404.999 1.35443 0.805782 0
M  V30 4212 C 405.931 1.24285 1.92577 0
M  V30 4213 C 406.944 0.165962 1.61952 0
M  V30 4214 O 408.133 0.419303 1.73505 0
M  V30 4215 C 405.233 0.891272 3.2697 0
M  V30 4216 C 404.406 2.06669 3.85495 0
M  V30 4217 C 403.465 1.69077 4.98297 0
M  V30 4218 O 402.491 2.4096 5.15681 0
M  V30 4219 N 403.693 0.614869 5.77234 0
M  V30 4220 H 406.458 2.20777 2.02676 0
M  V30 4221 H 404.019 1.28623 0.983243 0
M  V30 4222 H 406.011 0.621256 3.99903 0
M  V30 4223 H 404.581 0.016004 3.12596 0
M  V30 4224 H 403.801 2.50046 3.04747 0
M  V30 4225 H 405.089 2.85237 4.21328 0
M  V30 4226 H 404.487 0.017648 5.65697 0
M  V30 4227 H 403.044 0.404636 6.50543 0
M  V30 4228 N 406.477 -1.02803 1.19454 0
M  V30 4229 C 407.407 -2.12999 0.956758 0
M  V30 4230 C 408.388 -1.69743 -0.110188 0
M  V30 4231 O 409.573 -1.94148 0.0450038 0
M  V30 4232 C 406.703 -3.43746 0.495553 0
M  V30 4233 C 405.657 -4.00688 1.50443 0
M  V30 4234 C 404.983 -5.27067 0.900275 0
M  V30 4235 C 406.283 -4.35397 2.8849 0
M  V30 4236 H 407.977 -2.33148 1.87836 0
M  V30 4237 H 405.523 -1.12045 0.904539 0
M  V30 4238 H 407.476 -4.2021 0.316493 0
M  V30 4239 H 406.2 -3.23321 -0.461646 0
M  V30 4240 H 404.859 -3.2632 1.67065 0
M  V30 4241 H 404.507 -5.02959 -0.064503 0
M  V30 4242 H 404.207 -5.66127 1.57397 0
M  V30 4243 H 405.731 -6.06196 0.73203 0
M  V30 4244 H 407.145 -5.02795 2.75446 0
M  V30 4245 H 405.542 -4.85541 3.52661 0
M  V30 4246 H 406.612 -3.44662 3.41081 0
M  V30 4247 N 407.956 -0.998596 -1.21925 0
M  V30 4248 C 409.181 -0.696015 -1.95372 0
M  V30 4249 C 409.606 0.733826 -1.73195 0
M  V30 4250 O 408.964 1.50242 -1.01474 0
M  V30 4251 C 409.012 -1.01466 -3.4603 0
M  V30 4252 O 408.116 -0.116415 -4.12236 0
M  V30 4253 H 407.457 -0.259938 -0.611006 0
M  V30 4254 H 409.987 -1.33711 -1.54863 0
M  V30 4255 H 409.997 -0.958855 -3.96573 0
M  V30 4256 H 408.672 -2.05653 -3.61497 0
M  V30 4257 H 407.249 -0.228193 -3.72201 0
M  V30 4258 N 409.434 1.37368 -0.772513 0
M  V30 4259 C 410.681 1.99673 -0.337182 0
M  V30 4260 C 411.009 1.61324 1.0865 0
M  V30 4261 O 410.264 0.851377 1.7621 0
M  V30 4262 C 410.563 3.54817 -0.428876 0
M  V30 4263 C 410.229 4.12936 -1.81092 0
M  V30 4264 C 408.891 4.28523 -2.1891 0
M  V30 4265 C 411.243 4.44801 -2.71664 0
M  V30 4266 C 408.571 4.73277 -3.46735 0
M  V30 4267 C 410.923 4.90981 -3.98899 0
M  V30 4268 C 409.587 5.04773 -4.36761 0
M  V30 4269 H 408.857 0.730656 -0.123384 0
M  V30 4270 H 411.504 1.64124 -0.986686 0
M  V30 4271 H 409.809 3.90618 0.304167 0
M  V30 4272 H 411.506 4.00933 -0.0733334 0
M  V30 4273 H 408.096 4.01233 -1.50699 0
M  V30 4274 H 412.28 4.32344 -2.43706 0
M  V30 4275 H 407.536 4.82142 -3.75964 0
M  V30 4276 H 411.71 5.14603 -4.69208 0
M  V30 4277 H 409.337 5.39211 -5.35868 0
M  V30 4278 N 410.912 0.523116 1.48665 0
M  V30 4279 C 412.14 -0.0096312 2.06898 0
M  V30 4280 C 412.555 -1.28784 1.38059 0
M  V30 4281 O 411.912 -1.76453 0.465893 0
M  V30 4282 C 411.963 -0.244386 3.60673 0
M  V30 4283 O 411.684 0.983172 4.26925 0
M  V30 4284 C 413.185 -0.818289 4.35682 0
M  V30 4285 H 410.405 0.0304161 0.67031 0
M  V30 4286 H 412.949 0.726799 1.91149 0
M  V30 4287 H 411.104 -0.930847 3.76051 0
M  V30 4288 H 411.518 0.759653 5.1897 0
M  V30 4289 H 412.992 -0.93201 5.44075 0
M  V30 4290 H 413.469 -1.82153 3.99646 0
M  V30 4291 H 414.075 -0.168609 4.24966 0
M  V30 4292 N 412.39 -1.55475 0.257931 0
M  V30 4293 C 413.801 -1.8511 -0.243135 0
M  V30 4294 C 414.152 -1.17986 -1.5676 0
M  V30 4295 O 413.277 -0.462102 -2.11409 0
M  V30 4296 C 413.872 -3.35826 -0.447929 0
M  V30 4297 C 412.431 -3.65647 -0.893245 0
M  V30 4298 C 411.578 -2.7729 0.0232965 0
M  V30 4299 H 414.529 -1.51261 0.480199 0
M  V30 4300 H 414.55 -3.58002 -1.28898 0
M  V30 4301 H 414.062 -3.84652 0.516196 0
M  V30 4302 H 412.163 -3.22308 -1.86945 0
M  V30 4303 H 412.276 -4.73312 -0.742469 0
M  V30 4304 H 410.64 -2.49942 -0.490021 0
M  V30 4305 H 411.423 -3.28926 0.982994 0
M  V30 4306 N 413.868 0.0150385 -1.57593 0
M  V30 4307 C 414.778 1.02791 -2.10882 0
M  V30 4308 C 415.794 1.38702 -1.0506 0
M  V30 4309 O 416.97 1.47739 -1.36877 0
M  V30 4310 C 414.035 2.30568 -2.58919 0
M  V30 4311 C 413.096 2.01108 -3.79281 0
M  V30 4312 C 412.329 3.22794 -4.25018 0
M  V30 4313 O 412.552 4.33959 -3.70183 0
M  V30 4314 O 411.486 3.07672 -5.17322 0
M  V30 4315 H 415.312 0.604973 -2.97613 0
M  V30 4316 H 412.897 0.23292 -1.47573 0
M  V30 4317 H 414.779 3.05662 -2.90084 0
M  V30 4318 H 413.454 2.72129 -1.75293 0
M  V30 4319 H 412.361 1.23537 -3.53114 0
M  V30 4320 H 413.694 1.64394 -4.63935 0
M  V30 4321 N 415.346 1.54954 0.287554 0
M  V30 4322 C 416.256 1.8991 1.37736 0
M  V30 4323 C 417.272 0.794701 1.54792 0
M  V30 4324 O 418.448 1.09243 1.69198 0
M  V30 4325 C 415.513 2.15108 2.71899 0
M  V30 4326 C 414.574 3.38752 2.63715 0
M  V30 4327 C 413.807 3.62739 3.91479 0
M  V30 4328 O 414.03 2.89492 4.91478 0
M  V30 4329 O 412.964 4.56267 3.92561 0
M  V30 4330 H 416.79 2.82652 1.11092 0
M  V30 4331 H 414.375 1.41315 0.484807 0
M  V30 4332 H 416.257 2.32806 3.51254 0
M  V30 4333 H 414.932 1.25551 2.9836 0
M  V30 4334 H 413.839 3.26405 1.82786 0
M  V30 4335 H 415.172 4.28483 2.42205 0
M  V30 4336 N 416.824 -0.551391 1.4764 0
M  V30 4337 C 417.754 -1.66757 1.63445 0
M  V30 4338 C 418.735 -1.63077 0.483742 0
M  V30 4339 O 419.92 -1.80607 0.71377 0
M  V30 4340 C 417.05 -3.05387 1.65396 0
M  V30 4341 C 416.004 -3.23918 2.79752 0
M  V30 4342 C 415.33 -4.63393 2.66779 0
M  V30 4343 C 416.63 -3.08735 4.21284 0
M  V30 4344 H 418.324 -1.53786 2.56886 0
M  V30 4345 H 415.87 -0.738415 1.23626 0
M  V30 4346 H 417.823 -3.83325 1.75043 0
M  V30 4347 H 416.547 -3.19332 0.685195 0
M  V30 4348 H 415.206 -2.48391 2.69625 0
M  V30 4349 H 414.854 -4.74144 1.67918 0
M  V30 4350 H 414.554 -4.7674 3.43501 0
M  V30 4351 H 416.078 -5.43458 2.78364 0
M  V30 4352 H 417.492 -3.76484 4.32357 0
M  V30 4353 H 415.889 -3.33588 4.98838 0
M  V30 4354 H 416.959 -2.0541 4.39243 0
M  V30 4355 N 418.302 -1.35869 -0.798587 0
M  V30 4356 C 419.25 -1.29491 -1.93222 0
M  V30 4357 C 420.244 -0.18836 -1.6835 0
M  V30 4358 O 421.45 -0.354822 -1.76468 0
M  V30 4359 H 417.825 -0.402901 -0.63496 0
M  V30 4360 H 419.796 -2.25247 -1.9572 0
M  V30 4361 C 418.545 -1.09184 -3.30112 0
M  V30 4362 H 417.868 -1.93574 -3.49813 0
M  V30 4363 H 419.308 -1.08766 -4.09812 0
M  V30 4364 C 417.767 0.203959 -3.36282 0
M  V30 4365 O 418.297 1.19699 -3.83451 0
M  V30 4366 N 416.503 0.245488 -2.89561 0
M  V30 4367 H 416.05 -0.563223 -2.51367 0
M  V30 4368 H 416.008 1.11219 -2.94071 0
M  V30 4369 N 419.78 1.02168 -1.19998 0
M  V30 4370 C 421.026 1.75945 -1.00852 0
M  V30 4371 C 421.359 1.88702 0.458828 0
M  V30 4372 O 420.634 1.40911 1.34069 0
M  V30 4373 C 420.917 3.18154 -1.68671 0
M  V30 4374 C 420.77 3.13224 -3.22817 0
M  V30 4375 C 422.089 4.16711 -1.41561 0
M  V30 4376 H 419.208 0.638673 -0.367785 0
M  V30 4377 H 421.85 1.19222 -1.4794 0
M  V30 4378 H 420 3.66586 -1.28636 0
M  V30 4379 H 421.672 2.72635 -3.72112 0
M  V30 4380 H 419.915 2.50751 -3.53986 0
M  V30 4381 H 420.586 4.13728 -3.65422 0
M  V30 4382 H 423.062 3.76913 -1.76284 0
M  V30 4383 H 421.938 5.14391 -1.91553 0
M  V30 4384 H 422.199 4.40774 -0.342193 0
M  V30 4385 N 421.258 1.00505 1.21394 0
M  V30 4386 C 422.504 0.688793 1.90745 0
M  V30 4387 C 422.837 -0.778486 1.77914 0
M  V30 4388 O 422.112 -1.56433 1.15581 0
M  V30 4389 C 422.395 1.11063 3.42545 0
M  V30 4390 C 422.248 2.63737 3.64367 0
M  V30 4391 C 423.567 0.673059 4.34923 0
M  V30 4392 H 420.686 0.251702 0.692687 0
M  V30 4393 H 423.328 1.25074 1.43026 0
M  V30 4394 H 421.478 0.632508 3.83317 0
M  V30 4395 H 423.15 3.19313 3.32922 0
M  V30 4396 H 421.393 3.05248 3.08231 0
M  V30 4397 H 422.064 2.88305 4.70727 0
M  V30 4398 H 424.54 1.08392 4.01734 0
M  V30 4399 H 423.416 0.996383 5.39781 0
M  V30 4400 H 423.677 -0.425808 4.40045 0
M  V30 4401 N 422.737 -1.36956 0.779787 0
M  V30 4402 C 423.984 -1.99491 0.347766 0
M  V30 4403 C 424.312 -1.61898 -1.07793 0
M  V30 4404 O 423.567 -0.86071 -1.75756 0
M  V30 4405 C 423.866 -3.54585 0.447686 0
M  V30 4406 C 423.532 -4.1197 1.83279 0
M  V30 4407 C 422.194 -4.27356 2.2118 0
M  V30 4408 C 424.546 -4.43354 2.74019 0
M  V30 4409 C 421.874 -4.71432 3.4924 0
M  V30 4410 C 424.226 -4.88858 4.01497 0
M  V30 4411 C 422.89 -5.0245 4.39432 0
M  V30 4412 H 422.16 -0.729991 0.127257 0
M  V30 4413 H 424.807 -1.63599 0.995376 0
M  V30 4414 H 423.112 -3.90773 -0.283447 0
M  V30 4415 H 424.809 -4.00888 0.0945948 0
M  V30 4416 H 421.399 -4.00428 1.52825 0
M  V30 4417 H 425.583 -4.31045 2.45995 0
M  V30 4418 H 420.839 -4.80141 3.78516 0
M  V30 4419 H 425.013 -5.12108 4.71931 0
M  V30 4420 H 422.64 -5.36362 5.38721 0
M  V30 4421 N 424.215 -0.530993 -1.48385 0
M  V30 4422 C 425.443 -0.00134122 -2.069 0
M  V30 4423 C 425.858 1.2805 -1.3874 0
M  V30 4424 O 425.215 1.76204 -0.475244 0
M  V30 4425 C 425.266 0.225256 -3.60798 0
M  V30 4426 O 424.987 -1.0058 -4.26398 0
M  V30 4427 C 426.488 0.795172 -4.3611 0
M  V30 4428 H 423.708 -0.0339704 -0.67014 0
M  V30 4429 H 426.252 -0.736926 -1.90761 0
M  V30 4430 H 424.407 0.910891 -3.76539 0
M  V30 4431 H 424.821 -0.787165 -5.1856 0
M  V30 4432 H 426.295 0.903143 -5.44562 0
M  V30 4433 H 426.772 1.80031 -4.00606 0
M  V30 4434 H 427.378 0.146069 -4.25049 0
M  V30 4435 N 425.693 1.55336 -0.266172 0
M  V30 4436 C 426.94 1.99397 0.353158 0
M  V30 4437 C 427.268 1.15451 1.56529 0
M  V30 4438 O 426.523 0.209974 1.9457 0
M  V30 4439 C 426.822 3.48606 0.787957 0
M  V30 4440 C 426.488 4.49773 -0.318541 0
M  V30 4441 C 425.15 4.77158 -0.62239 0
M  V30 4442 C 427.502 5.10212 -1.06459 0
M  V30 4443 C 424.83 5.62251 -1.67602 0
M  V30 4444 C 427.182 5.96449 -2.10788 0
M  V30 4445 C 425.846 6.22158 -2.41817 0
M  V30 4446 H 425.116 0.729644 0.12923 0
M  V30 4447 H 427.763 1.87732 -0.37802 0
M  V30 4448 H 426.068 3.57701 1.59866 0
M  V30 4449 H 427.765 3.80098 1.27775 0
M  V30 4450 H 424.355 4.2854 -0.0715925 0
M  V30 4451 H 428.539 4.89086 -0.843098 0
M  V30 4452 H 423.795 5.80419 -1.92155 0
M  V30 4453 H 427.969 6.42317 -2.69076 0
M  V30 4454 H 425.596 6.87888 -3.23596 0
M  V30 4455 N 427.171 -0.0066808 1.57599 0
M  V30 4456 C 428.582 -0.550379 1.78403 0
M  V30 4457 C 428.933 -1.74339 0.900014 0
M  V30 4458 O 428.058 -2.16166 0.100713 0
M  V30 4459 C 428.653 -1.00523 3.23544 0
M  V30 4460 C 427.212 -1.49428 3.45468 0
M  V30 4461 C 426.359 -0.442444 2.73748 0
M  V30 4462 H 429.31 0.219508 1.57175 0
M  V30 4463 H 429.331 -1.87157 3.31289 0
M  V30 4464 H 428.843 -0.136735 3.87859 0
M  V30 4465 H 426.944 -2.3839 2.86358 0
M  V30 4466 H 427.057 -1.52635 4.54136 0
M  V30 4467 H 425.421 -0.902578 2.38171 0
M  V30 4468 H 426.204 0.416973 3.40758 0
M  V30 4469 N 428.649 -1.55105 -0.279332 0
M  V30 4470 C 429.579 -1.90557 -1.34945 0
M  V30 4471 C 430.56 -0.766738 -1.51839 0
M  V30 4472 O 431.745 -1.02434 -1.64988 0
M  V30 4473 C 428.875 -2.17193 -2.71006 0
M  V30 4474 C 427.829 -3.33021 -2.68851 0
M  V30 4475 C 427.155 -3.45123 -4.08405 0
M  V30 4476 C 428.455 -4.69578 -2.28678 0
M  V30 4477 H 430.149 -2.80188 -1.05522 0
M  V30 4478 H 427.695 -1.34811 -0.506173 0
M  V30 4479 H 429.648 -2.40581 -3.45975 0
M  V30 4480 H 428.372 -1.24355 -3.01999 0
M  V30 4481 H 427.031 -3.0959 -1.9634 0
M  V30 4482 H 426.679 -2.49762 -4.3661 0
M  V30 4483 H 426.379 -4.22995 -4.07859 0
M  V30 4484 H 427.903 -3.70796 -4.85121 0
M  V30 4485 H 429.317 -4.92553 -2.93368 0
M  V30 4486 H 427.714 -5.5032 -2.39306 0
M  V30 4487 H 428.784 -4.68828 -1.23807 0
M  V30 4488 N 430.127 0.543554 -1.4793 0
M  V30 4489 C 431.376 1.29649 -1.54512 0
M  V30 4490 C 431.689 1.94382 -0.217973 0
M  V30 4491 O 432.895 2.71017 -0.161908 0
M  V30 4492 C 431.351 2.35175 -2.72435 0
M  V30 4493 C 430.959 1.76572 -4.11736 0
M  V30 4494 C 432.703 3.11564 -2.8832 0
M  V30 4495 C 430.61 2.79958 -5.20939 0
M  V30 4496 H 429.54 0.487541 -0.57517 0
M  V30 4497 H 432.191 0.575708 -1.74235 0
M  V30 4498 H 430.573 3.10229 -2.46118 0
M  V30 4499 H 431.747 1.07799 -4.48013 0
M  V30 4500 H 430.062 1.12722 -4.00852 0
M  V30 4501 H 432.659 3.88794 -3.67074 0
M  V30 4502 H 433.002 3.66594 -1.97268 0
M  V30 4503 H 433.535 2.43623 -3.14472 0
M  V30 4504 H 430.274 2.29766 -6.13912 0
M  V30 4505 H 429.794 3.47101 -4.89164 0
M  V30 4506 H 431.473 3.43198 -5.48474 0
M  V30 4507 N 431.605 1.3629 0.791371 0
M  V30 4508 C 432.835 1.33368 1.57786 0
M  V30 4509 C 433.243 -0.0875188 1.88997 0
M  V30 4510 O 432.586 -1.05427 1.50435 0
M  V30 4511 C 432.648 2.08802 2.92646 0
M  V30 4512 C 432.312 3.57903 2.84174 0
M  V30 4513 C 433.309 4.52191 2.56553 0
M  V30 4514 C 430.994 4.00762 3.02812 0
M  V30 4515 C 432.988 5.87315 2.47669 0
M  V30 4516 C 430.675 5.35977 2.93551 0
M  V30 4517 C 431.673 6.29066 2.66017 0
M  V30 4518 O 431.361 7.61798 2.56746 0
M  V30 4519 H 431.093 0.459166 0.496128 0
M  V30 4520 H 433.647 1.79952 0.990269 0
M  V30 4521 H 431.877 1.56878 3.53449 0
M  V30 4522 H 433.566 1.98762 3.53904 0
M  V30 4523 H 434.332 4.20393 2.41858 0
M  V30 4524 H 430.211 3.2868 3.2325 0
M  V30 4525 H 433.755 6.59943 2.26099 0
M  V30 4526 H 429.652 5.67384 3.07808 0
M  V30 4527 H 430.42 7.71898 2.72242 0
M  V30 4528 N 433.083 -1.0153 1.20538 0
M  V30 4529 C 434.308 -1.79283 1.04271 0
M  V30 4530 C 434.733 -1.8372 -0.403544 0
M  V30 4531 O 434.091 -1.27321 -1.2907 0
M  V30 4532 C 434.139 -3.21535 1.63241 0
M  V30 4533 O 433.243 -4.03099 0.870908 0
M  V30 4534 H 432.584 -0.55293 0.367647 0
M  V30 4535 H 435.114 -1.27696 1.59859 0
M  V30 4536 H 435.124 -3.72243 1.6703 0
M  V30 4537 H 433.799 -3.1762 2.68497 0
M  V30 4538 H 432.376 -3.61693 0.907323 0
M  V30 4539 N 434.561 -1.01147 -1.20859 0
M  V30 4540 C 435.81 -0.693214 -1.89413 0
M  V30 4541 C 436.123 0.779969 -1.79376 0
M  V30 4542 O 437.329 1.21057 -2.43017 0
M  V30 4543 C 435.785 -1.18949 -3.39675 0
M  V30 4544 C 435.393 -2.68921 -3.58309 0
M  V30 4545 C 437.137 -0.94642 -4.13815 0
M  V30 4546 C 435.044 -3.12056 -5.0237 0
M  V30 4547 H 433.974 -0.255595 -0.709357 0
M  V30 4548 H 436.625 -1.22349 -1.36759 0
M  V30 4549 H 435.007 -0.587228 -3.91622 0
M  V30 4550 H 436.181 -3.34652 -3.16772 0
M  V30 4551 H 434.496 -2.91314 -2.97532 0
M  V30 4552 H 437.093 -1.24417 -5.20023 0
M  V30 4553 H 437.436 0.117219 -4.16135 0
M  V30 4554 H 437.969 -1.5118 -3.67953 0
M  V30 4555 H 434.708 -4.17674 -5.05202 0
M  V30 4556 H 434.228 -2.51041 -5.44737 0
M  V30 4557 H 435.907 -3.04403 -5.70918 0
M  V30 4558 N 436.039 1.36541 -0.78704 0
M  V30 4559 C 437.286 1.99304 -0.358341 0
M  V30 4560 C 437.614 1.62467 1.06933 0
M  V30 4561 O 436.869 0.870019 1.75297 0
M  V30 4562 C 437.168 3.54343 -0.466485 0
M  V30 4563 C 436.834 4.10993 -1.85461 0
M  V30 4564 C 435.496 4.26177 -2.23443 0
M  V30 4565 C 437.848 4.41895 -2.76366 0
M  V30 4566 C 435.176 4.69573 -3.51736 0
M  V30 4567 C 437.528 4.86722 -4.04084 0
M  V30 4568 C 436.192 5.00112 -4.42091 0
M  V30 4569 H 435.462 0.729306 -0.131126 0
M  V30 4570 H 438.109 1.63068 -1.00404 0
M  V30 4571 H 436.414 3.90918 0.262719 0
M  V30 4572 H 438.111 4.00833 -0.115854 0
M  V30 4573 H 434.701 3.99612 -1.54946 0
M  V30 4574 H 438.885 4.29735 -2.48277 0
M  V30 4575 H 434.141 4.78127 -3.81057 0
M  V30 4576 H 438.315 5.09598 -4.7464 0
M  V30 4577 H 435.942 5.33498 -5.41557 0
M  V30 4578 N 437.518 0.538854 1.48102 0
M  V30 4579 C 438.45 -0.256278 2.27763 0
M  V30 4580 C 439.463 -0.89633 1.35904 0
M  V30 4581 O 440.652 -0.773275 1.60881 0
M  V30 4582 C 437.752 -1.37896 3.09577 0
M  V30 4583 C 436.925 -0.839159 4.29275 0
M  V30 4584 C 435.984 -1.84405 4.9283 0
M  V30 4585 O 435.01 -1.39746 5.51779 0
M  V30 4586 N 436.212 -3.17666 4.85869 0
M  V30 4587 H 438.977 0.426968 2.96643 0
M  V30 4588 H 436.538 0.373747 1.57527 0
M  V30 4589 H 438.53 -2.04955 3.48963 0
M  V30 4590 H 437.1 -1.96572 2.4306 0
M  V30 4591 H 436.32 0.00769287 3.94199 0
M  V30 4592 H 437.608 -0.457548 5.06739 0
M  V30 4593 H 437.006 -3.56609 4.39143 0
M  V30 4594 H 435.563 -3.80334 5.29329 0
M  V30 4595 N 438.996 -1.55193 0.274407 0
M  V30 4596 C 439.926 -2.25471 -0.607032 0
M  V30 4597 C 440.907 -1.24461 -1.15946 0
M  V30 4598 O 442.092 -1.53179 -1.19373 0
M  V30 4599 C 439.222 -2.97526 -1.79153 0
M  V30 4600 C 438.176 -4.05459 -1.37067 0
M  V30 4601 C 437.502 -4.65084 -2.6382 0
M  V30 4602 C 438.802 -5.19691 -0.521389 0
M  V30 4603 H 440.496 -2.99393 -0.0209343 0
M  V30 4604 H 438.042 -1.43997 -0.00862866 0
M  V30 4605 H 439.995 -3.45402 -2.41404 0
M  V30 4606 H 438.719 -2.21138 -2.40344 0
M  V30 4607 H 437.378 -3.58393 -0.771355 0
M  V30 4608 H 437.026 -3.85365 -3.23268 0
M  V30 4609 H 436.726 -5.37961 -2.36372 0
M  V30 4610 H 438.25 -5.15708 -3.26921 0
M  V30 4611 H 439.664 -5.63623 -1.04889 0
M  V30 4612 H 438.061 -5.99126 -0.341825 0
M  V30 4613 H 439.131 -4.82713 0.46 0
M  V30 4614 N 440.474 -0.00167713 -1.576 0
M  V30 4615 C 441.437 0.974046 -2.07473 0
M  V30 4616 C 442.437 1.27143 -0.984444 0
M  V30 4617 O 443.627 1.21633 -1.24703 0
M  V30 4618 C 440.759 2.29849 -2.51759 0
M  V30 4619 H 441.952 0.54262 -2.9495 0
M  V30 4620 H 439.505 0.245829 -1.54355 0
M  V30 4621 H 440.24 2.77677 -1.67529 0
M  V30 4622 H 440.025 2.09584 -3.31386 0
M  V30 4623 H 441.515 2.9984 -2.90664 0
M  V30 4624 N 441.952 1.55251 0.271103 0
M  V30 4625 C 443.199 1.75946 1.00245 0
M  V30 4626 C 443.527 0.561611 1.86215 0
M  V30 4627 O 442.782 -0.455832 1.90317 0
M  V30 4628 C 443.081 3.01879 1.91321 0
M  V30 4629 C 442.747 4.34337 1.21086 0
M  V30 4630 C 441.409 4.70338 1.01666 0
M  V30 4631 C 443.761 5.16325 0.71119 0
M  V30 4632 C 441.089 5.8588 0.310099 0
M  V30 4633 C 443.441 6.32597 0.0182157 0
M  V30 4634 C 442.105 6.67236 -0.18768 0
M  V30 4635 H 441.375 0.643833 0.366824 0
M  V30 4636 H 444.022 1.89521 0.27458 0
M  V30 4637 H 442.327 2.83212 2.70736 0
M  V30 4638 H 444.024 3.15088 2.48033 0
M  V30 4639 H 440.614 4.06043 1.37213 0
M  V30 4640 H 444.798 4.88987 0.848844 0
M  V30 4641 H 440.054 6.1124 0.139873 0
M  V30 4642 H 444.228 6.9538 -0.376711 0
M  V30 4643 H 441.855 7.56618 -0.73715 0
M  V30 4644 N 443.43 -0.535701 1.48216 0
M  V30 4645 C 444.393 -1.623 1.61838 0
M  V30 4646 C 445.393 -1.53087 0.492024 0
M  V30 4647 O 446.583 -1.5686 0.757668 0
M  V30 4648 C 443.715 -3.01907 1.58319 0
M  V30 4649 H 444.908 -1.51564 2.58783 0
M  V30 4650 H 442.461 -0.757317 1.36727 0
M  V30 4651 H 443.196 -3.18155 0.628299 0
M  V30 4652 H 442.981 -3.10003 2.40085 0
M  V30 4653 H 444.471 -3.80969 1.71033 0
M  V30 4654 N 444.908 -1.36708 -0.784132 0
M  V30 4655 C 445.871 -1.31307 -1.87859 0
M  V30 4656 C 446.871 -0.219654 -1.59293 0
M  V30 4657 O 448.061 -0.47476 -1.67606 0
M  V30 4658 C 445.193 -1.03679 -3.24751 0
M  V30 4659 H 446.386 -2.28647 -1.94064 0
M  V30 4660 H 443.939 -1.21558 -0.98252 0
M  V30 4661 H 444.674 -0.0681936 -3.24228 0
M  V30 4662 H 444.459 -1.82811 -3.46876 0
M  V30 4663 H 445.949 -1.02518 -4.04821 0
M  V30 4664 N 446.386 1.0089 -1.21074 0
M  V30 4665 C 447.635 1.74019 -1.01981 0
M  V30 4666 C 447.948 1.90408 0.447665 0
M  V30 4667 O 449.154 2.60707 0.757906 0
M  V30 4668 C 447.61 3.13026 -1.77603 0
M  V30 4669 C 447.218 3.04623 -3.28495 0
M  V30 4670 C 448.962 3.90312 -1.66904 0
M  V30 4671 C 446.869 4.38685 -3.96623 0
M  V30 4672 H 445.799 0.652422 -0.377971 0
M  V30 4673 H 448.45 1.12755 -1.44771 0
M  V30 4674 H 446.832 3.74878 -1.27604 0
M  V30 4675 H 448.006 2.52032 -3.85767 0
M  V30 4676 H 446.321 2.40827 -3.39693 0
M  V30 4677 H 448.918 4.8951 -2.15138 0
M  V30 4678 H 449.261 4.11558 -0.62658 0
M  V30 4679 H 449.794 3.35104 -2.14359 0
M  V30 4680 H 446.533 4.22641 -5.01054 0
M  V30 4681 H 446.053 4.91252 -3.4414 0
M  V30 4682 H 447.732 5.075 -4.01314 0
M  V30 4683 N 447.864 1.01787 1.20321 0
M  V30 4684 C 449.111 0.707936 1.89722 0
M  V30 4685 C 449.439 -0.762535 1.78929 0
M  V30 4686 O 448.694 -1.56977 1.16861 0
M  V30 4687 C 448.993 1.09076 3.40349 0
M  V30 4688 C 448.659 2.55765 3.71342 0
M  V30 4689 C 447.321 2.95845 3.79511 0
M  V30 4690 C 449.673 3.50723 3.85542 0
M  V30 4691 C 447.001 4.2982 3.99339 0
M  V30 4692 C 449.353 4.84387 4.06881 0
M  V30 4693 C 448.017 5.24172 4.1328 0
M  V30 4694 H 447.287 0.259052 0.694243 0
M  V30 4695 H 449.934 1.27868 1.42555 0
M  V30 4696 H 448.239 0.438453 3.89339 0
M  V30 4697 H 449.936 0.828636 3.92345 0
M  V30 4698 H 446.526 2.2371 3.65584 0
M  V30 4699 H 450.71 3.20916 3.78585 0
M  V30 4700 H 445.966 4.60196 4.02529 0
M  V30 4701 H 450.14 5.57891 4.1681 0
M  V30 4702 H 447.767 6.27997 4.28396 0
M  V30 4703 N 449.342 -1.36122 0.79427 0
M  V30 4704 C 450.272 -2.32551 0.210328 0
M  V30 4705 C 451.253 -1.56884 -0.657386 0
M  V30 4706 O 452.438 -1.85014 -0.590207 0
M  V30 4707 C 449.568 -3.41128 -0.651819 0
M  V30 4708 C 448.522 -4.27842 0.116395 0
M  V30 4709 C 447.848 -5.2763 -0.86666 0
M  V30 4710 C 449.148 -5.05647 1.30837 0
M  V30 4711 H 450.842 -2.81636 1.01594 0
M  V30 4712 H 448.388 -1.35407 0.489981 0
M  V30 4713 H 450.341 -4.07581 -1.07031 0
M  V30 4714 H 449.065 -2.90622 -1.49019 0
M  V30 4715 H 447.724 -3.62952 0.515915 0
M  V30 4716 H 447.372 -4.73395 -1.70019 0
M  V30 4717 H 447.072 -5.86514 -0.35705 0
M  V30 4718 H 448.596 -5.96955 -1.28361 0
M  V30 4719 H 450.01 -5.65113 0.965393 0
M  V30 4720 H 448.407 -5.73967 1.75161 0
M  V30 4721 H 449.477 -4.37006 2.10128 0
M  V30 4722 N 450.82 -0.546701 -1.47814 0
M  V30 4723 C 452.068 -0.0187037 -2.02091 0
M  V30 4724 C 452.389 1.33168 -1.42447 0
M  V30 4725 O 451.659 1.86619 -0.595839 0
M  V30 4726 H 450.239 -0.00392531 -0.74699 0
M  V30 4727 H 452.901 -0.714327 -1.81338 0
M  V30 4728 H 451.997 0.0772219 -3.12004 0
M  V30 4729 N 452.299 1.55045 -0.282633 0
M  V30 4730 C 453.546 1.9976 0.33199 0
M  V30 4731 C 453.874 1.17105 1.55295 0
M  V30 4732 O 453.129 0.230599 1.94337 0
M  V30 4733 C 453.428 3.49422 0.750938 0
M  V30 4734 C 453.094 4.4941 -0.366228 0
M  V30 4735 C 451.756 4.76471 -0.672964 0
M  V30 4736 C 454.108 5.09054 -1.11864 0
M  V30 4737 C 451.436 5.60442 -1.73556 0
M  V30 4738 C 453.788 5.9418 -2.17102 0
M  V30 4739 C 452.452 6.19558 -2.48402 0
M  V30 4740 H 451.722 0.730974 0.121484 0
M  V30 4741 H 454.369 1.8732 -0.39791 0
M  V30 4742 H 452.674 3.59377 1.56063 0
M  V30 4743 H 454.371 3.81432 1.23736 0
M  V30 4744 H 450.961 4.2844 -0.117041 0
M  V30 4745 H 455.145 4.88165 -0.894925 0
M  V30 4746 H 450.401 5.78349 -1.983 0
M  V30 4747 H 454.575 6.39427 -2.75873 0
M  V30 4748 H 452.202 6.84417 -3.30874 0
M  V30 4749 N 453.777 0.010035 1.57597 0
M  V30 4750 C 455.007 -0.682422 1.95004 0
M  V30 4751 C 455.415 -1.67278 0.884014 0
M  V30 4752 O 454.758 -1.83129 -0.144672 0
M  V30 4753 C 454.82 -1.46141 3.28456 0
M  V30 4754 C 454.484 -0.631523 4.52615 0
M  V30 4755 C 455.481 0.0850905 5.1983 0
M  V30 4756 C 453.166 -0.574539 4.99003 0
M  V30 4757 C 455.16 0.847566 6.3174 0
M  V30 4758 C 452.847 0.191655 6.10799 0
M  V30 4759 C 453.845 0.901432 6.77025 0
M  V30 4760 O 453.533 1.65511 7.86677 0
M  V30 4761 H 453.265 -0.194361 0.647456 0
M  V30 4762 H 455.819 0.060312 2.05311 0
M  V30 4763 H 454.049 -2.24885 3.14585 0
M  V30 4764 H 455.738 -2.04016 3.50902 0
M  V30 4765 H 456.504 0.0502812 4.84974 0
M  V30 4766 H 452.383 -1.11654 4.47274 0
M  V30 4767 H 455.927 1.4021 6.83364 0
M  V30 4768 H 451.824 0.228249 6.45096 0
M  V30 4769 H 452.592 1.57287 8.03245 0
M  V30 4770 N 455.255 -1.55392 -0.262866 0
M  V30 4771 C 456.501 -1.76737 -0.99458 0
M  V30 4772 C 456.834 -0.572453 -1.85571 0
M  V30 4773 O 456.109 0.429732 -1.89693 0
M  V30 4774 C 456.392 -3.07824 -1.8686 0
M  V30 4775 C 456.245 -4.3769 -1.03672 0
M  V30 4776 C 457.564 -3.35021 -2.85393 0
M  V30 4777 H 454.683 -0.643005 -0.360157 0
M  V30 4778 H 457.325 -1.88126 -0.266216 0
M  V30 4779 H 455.475 -2.98245 -2.48962 0
M  V30 4780 H 457.147 -4.59238 -0.43563 0
M  V30 4781 H 455.39 -4.32461 -0.340513 0
M  V30 4782 H 456.061 -5.25759 -1.6817 0
M  V30 4783 H 458.537 -3.44458 -2.33426 0
M  V30 4784 H 457.413 -4.27989 -3.43681 0
M  V30 4785 H 457.674 -2.55153 -3.61039 0
M  V30 4786 N 456.733 0.527833 -1.48498 0
M  V30 4787 C 457.696 1.61439 -1.62696 0
M  V30 4788 C 458.696 1.52824 -0.500136 0
M  V30 4789 O 459.886 1.56456 -0.765976 0
M  V30 4790 C 457.018 3.01063 -1.59918 0
M  V30 4791 H 458.211 1.50189 -2.59583 0
M  V30 4792 H 455.764 0.750055 -1.37127 0
M  V30 4793 H 456.499 3.17818 -0.645163 0
M  V30 4794 H 456.284 3.08725 -2.41726 0
M  V30 4795 H 457.774 3.80057 -1.73051 0
M  V30 4796 N 458.211 1.37122 0.776871 0
M  V30 4797 C 459.441 1.35034 1.56363 0
M  V30 4798 C 459.849 -0.0674681 1.8908 0
M  V30 4799 O 459.192 -1.03826 1.51545 0
M  V30 4800 C 459.254 2.11894 2.90415 0
M  V30 4801 C 458.918 3.60897 2.80362 0
M  V30 4802 C 459.915 4.54887 2.51742 0
M  V30 4803 C 457.6 4.03951 2.98545 0
M  V30 4804 C 459.594 5.89909 2.41426 0
M  V30 4805 C 457.281 5.3906 2.87849 0
M  V30 4806 C 458.279 6.31852 2.5933 0
M  V30 4807 O 457.967 7.64479 2.48651 0
M  V30 4808 H 457.699 0.464402 0.49123 0
M  V30 4809 H 460.253 1.80992 0.971127 0
M  V30 4810 H 458.483 1.60618 3.51765 0
M  V30 4811 H 460.172 2.02505 3.51776 0
M  V30 4812 H 460.938 4.22934 2.37385 0
M  V30 4813 H 456.817 3.3209 3.19746 0
M  V30 4814 H 460.361 6.62304 2.19086 0
M  V30 4815 H 456.258 5.70617 3.01773 0
M  V30 4816 H 457.026 7.74742 2.64039 0
M  V30 4817 N 459.689 -1.00246 1.21608 0
M  V30 4818 C 460.636 -2.09073 0.977613 0
M  V30 4819 C 461.606 -1.65815 -0.097297 0
M  V30 4820 O 462.791 -1.90734 0.0503445 0
M  V30 4821 C 459.931 -3.40671 0.551133 0
M  V30 4822 C 459.044 -3.97326 1.69576 0
M  V30 4823 C 458.179 -5.17043 1.2182 0
M  V30 4824 C 457.218 -5.65813 2.335 0
M  V30 4825 N 456.355 -6.76778 1.86859 0
M  V30 4826 H 461.195 -2.28806 1.90924 0
M  V30 4827 H 458.732 -1.12186 0.951452 0
M  V30 4828 H 460.69 -4.16225 0.285097 0
M  V30 4829 H 459.32 -3.20967 -0.343489 0
M  V30 4830 H 458.372 -3.18734 2.07637 0
M  V30 4831 H 459.684 -4.29511 2.53617 0
M  V30 4832 H 458.838 -5.99852 0.908975 0
M  V30 4833 H 457.577 -4.86458 0.347869 0
M  V30 4834 H 456.582 -4.81599 2.65222 0
M  V30 4835 H 457.807 -5.98427 3.21033 0
M  V30 4836 H 455.753 -6.47994 1.02174 0
M  V30 4837 H 455.67 -7.08231 2.64471 0
M  V30 4838 H 456.938 -7.63116 1.58978 0
M  V30 4839 N 461.167 -1.02423 -1.1978 0
M  V30 4840 C 462.114 -0.601023 -2.22837 0
M  V30 4841 C 463.084 0.382801 -1.61629 0
M  V30 4842 O 464.269 0.280514 -1.88727 0
M  V30 4843 C 461.409 0.0467755 -3.45068 0
M  V30 4844 C 460.522 -0.98253 -4.20678 0
M  V30 4845 C 459.657 -0.304982 -5.30324 0
M  V30 4846 C 458.696 -1.32052 -5.97686 0
M  V30 4847 N 457.833 -0.669105 -6.98904 0
M  V30 4848 H 462.673 -1.48444 -2.58396 0
M  V30 4849 H 460.21 -0.742936 -1.2696 0
M  V30 4850 H 462.168 0.439556 -4.14878 0
M  V30 4851 H 460.798 0.893796 -3.10179 0
M  V30 4852 H 459.85 -1.49341 -3.49859 0
M  V30 4853 H 461.162 -1.75455 -4.66923 0
M  V30 4854 H 460.316 0.142893 -6.06532 0
M  V30 4855 H 459.055 0.499283 -4.85138 0
M  V30 4856 H 458.06 -1.7787 -5.20233 0
M  V30 4857 H 459.285 -2.1262 -6.44957 0
M  V30 4858 H 457.231 0.115152 -6.55899 0
M  V30 4859 H 457.148 -1.37908 -7.43315 0
M  V30 4860 H 458.416 -0.245076 -7.79115 0
M  V30 4861 N 462.645 1.35699 -0.801477 0
M  V30 4862 C 463.885 2.00741 -0.385027 0
M  V30 4863 C 464.249 1.62213 1.02718 0
M  V30 4864 O 465.45 2.19936 1.54537 0
M  V30 4865 C 463.721 3.53032 -0.557057 0
M  V30 4866 S 465.28 4.38195 -0.230272 0
M  V30 4867 H 462.098 0.695748 -0.146477 0
M  V30 4868 H 464.7 1.65378 -1.04261 0
M  V30 4869 H 463.404 3.7856 -1.58494 0
M  V30 4870 H 462.935 3.93229 0.116029 0
M  V30 4871 H 464.95 4.86748 0.963895 0
M  V30 4872 N 464.123 0.554532 1.47522 0
M  V30 4873 C 465.073 -0.215008 2.26984 0
M  V30 4874 C 466.057 -0.88774 1.34194 0
M  V30 4875 O 467.249 -0.786489 1.58567 0
M  V30 4876 C 464.378 -1.24604 3.19889 0
M  V30 4877 C 463.464 -0.576857 4.20159 0
M  V30 4878 N 463.855 0.351541 5.04577 0
M  V30 4879 C 462.153 -0.831104 4.38188 0
M  V30 4880 C 462.854 0.739995 5.76974 0
M  V30 4881 N 461.83 0.0954407 5.43516 0
M  V30 4882 H 465.632 0.498843 2.89636 0
M  V30 4883 H 463.146 0.374279 1.58028 0
M  V30 4884 H 465.143 -1.81128 3.75498 0
M  V30 4885 H 463.803 -1.96101 2.58794 0
M  V30 4886 H 464.814 0.725556 5.12792 0
M  V30 4887 H 461.491 -1.53479 3.88266 0
M  V30 4888 H 462.881 1.50271 6.5488 0
M  V30 4889 N 465.601 -1.54893 0.290851 0
M  V30 4890 C 466.849 -1.99538 -0.320756 0
M  V30 4891 C 467.17 -1.18075 -1.55188 0
M  V30 4892 O 466.44 -0.274162 -1.93972 0
M  V30 4893 H 465.02 -0.737052 -0.121507 0
M  V30 4894 H 467.682 -1.90755 0.399832 0
M  V30 4895 H 466.778 -3.06282 -0.599802 0
M  V30 4896 N 467.08 -0.0183926 -1.57589 0
M  V30 4897 C 468.027 0.967022 -2.09565 0
M  V30 4898 C 468.997 1.32983 -0.995225 0
M  V30 4899 O 470.182 1.42501 -1.26878 0
M  V30 4900 C 467.322 2.24772 -2.61861 0
M  V30 4901 C 466.435 1.94232 -3.85873 0
M  V30 4902 C 465.57 3.16518 -4.26603 0
M  V30 4903 C 464.609 2.81748 -5.43401 0
M  V30 4904 N 463.746 3.96626 -5.79338 0
M  V30 4905 H 468.586 0.516874 -2.93483 0
M  V30 4906 H 466.123 0.243544 -1.4507 0
M  V30 4907 H 468.081 2.99667 -2.90268 0
M  V30 4908 H 466.711 2.67423 -1.8079 0
M  V30 4909 H 465.763 1.09625 -3.64262 0
M  V30 4910 H 467.075 1.64616 -4.70853 0
M  V30 4911 H 466.229 3.99743 -4.56389 0
M  V30 4912 H 464.968 3.49286 -3.40368 0
M  V30 4913 H 463.973 1.96933 -5.1332 0
M  V30 4914 H 465.198 2.50207 -6.31327 0
M  V30 4915 H 463.144 4.29257 -4.96059 0
M  V30 4916 H 463.061 3.70598 -6.58933 0
M  V30 4917 H 464.329 4.80586 -6.13724 0
M  V30 4918 N 468.558 1.5553 0.254621 0
M  V30 4919 C 469.506 1.9048 1.33492 0
M  V30 4920 C 470.5 0.78304 1.50216 0
M  V30 4921 O 471.706 0.967582 1.51782 0
M  V30 4922 H 468.081 0.604846 0.44684 0
M  V30 4923 H 470.052 2.80688 1.01275 0
M  V30 4924 C 468.801 2.20928 2.68489 0
M  V30 4925 H 468.124 3.06742 2.56417 0
M  V30 4926 H 469.564 2.49291 3.42972 0
M  V30 4927 C 468.023 1.023 3.20993 0
M  V30 4928 O 468.553 0.267027 4.00811 0
M  V30 4929 N 466.759 0.815714 2.78917 0
M  V30 4930 H 466.306 1.43217 2.14119 0
M  V30 4931 H 466.264 0.0236532 3.14391 0
M  V30 4932 N 470.036 -0.519951 1.48776 0
M  V30 4933 C 470.983 -1.62352 1.64044 0
M  V30 4934 C 471.953 -1.58945 0.482251 0
M  V30 4935 O 473.138 -1.77219 0.706971 0
M  V30 4936 C 470.278 -3.00579 1.69547 0
M  V30 4937 C 469.391 -3.14145 2.96541 0
M  V30 4938 C 468.526 -4.42991 2.93142 0
M  V30 4939 C 467.565 -4.50122 4.14797 0
M  V30 4940 N 466.702 -5.7037 4.09418 0
M  V30 4941 H 471.542 -1.48643 2.58281 0
M  V30 4942 H 469.079 -0.723516 1.28077 0
M  V30 4943 H 471.037 -3.80671 1.70719 0
M  V30 4944 H 469.667 -3.13036 0.787918 0
M  V30 4945 H 468.719 -2.27239 3.05068 0
M  V30 4946 H 470.031 -3.15275 3.86527 0
M  V30 4947 H 469.185 -5.31385 2.92772 0
M  V30 4948 H 467.924 -4.44398 2.00902 0
M  V30 4949 H 466.929 -3.60133 4.15433 0
M  V30 4950 H 468.154 -4.50445 5.08208 0
M  V30 4951 H 466.1 -5.72655 3.20004 0
M  V30 4952 H 466.017 -5.73036 4.93119 0
M  V30 4953 H 467.285 -6.61023 4.13121 0
M  V30 4954 N 471.514 -1.37532 -0.769588 0
M  V30 4955 C 472.477 -1.33292 -1.86456 0
M  V30 4956 C 473.477 -0.236537 -1.59051 0
M  V30 4957 O 474.667 -0.492511 -1.67093 0
M  V30 4958 C 471.799 -1.07118 -3.23633 0
M  V30 4959 H 472.992 -2.30692 -1.91628 0
M  V30 4960 H 470.545 -1.22593 -0.969572 0
M  V30 4961 H 471.28 -0.102578 -3.24138 0
M  V30 4962 H 471.065 -1.86479 -3.44917 0
M  V30 4963 H 472.555 -1.06806 -4.03711 0
M  V30 4964 N 472.992 0.995999 -1.22138 0
M  V30 4965 C 473.902 2.11985 -1.00496 0
M  V30 4966 C 474.918 1.7394 0.0457701 0
M  V30 4967 O 476.094 2.00868 -0.146273 0
M  V30 4968 C 473.159 3.41779 -0.582086 0
M  V30 4969 C 472.22 3.93943 -1.70608 0
M  V30 4970 C 471.453 5.17542 -1.30328 0
M  V30 4971 O 471.676 5.70114 -0.180743 0
M  V30 4972 O 470.61 5.63382 -2.11861 0
M  V30 4973 H 474.436 2.33123 -1.94647 0
M  V30 4974 H 472.021 1.10358 -1.00705 0
M  V30 4975 H 473.903 4.1989 -0.356467 0
M  V30 4976 H 472.578 3.22007 0.330592 0
M  V30 4977 H 471.485 3.17019 -1.98619 0
M  V30 4978 H 472.818 4.18141 -2.59651 0
M  V30 4979 N 474.47 1.03057 1.19235 0
M  V30 4980 C 475.719 0.72326 1.88287 0
M  V30 4981 C 476.032 -0.751333 1.80594 0
M  V30 4982 O 477.238 -1.17176 2.44912 0
M  V30 4983 C 475.694 1.24338 3.3774 0
M  V30 4984 C 475.302 2.74587 3.53986 0
M  V30 4985 C 477.046 1.01213 4.12257 0
M  V30 4986 C 474.953 3.20009 4.97341 0
M  V30 4987 H 473.883 0.266848 0.705201 0
M  V30 4988 H 476.534 1.24509 1.34795 0
M  V30 4989 H 474.916 0.649457 3.90638 0
M  V30 4990 H 476.09 3.39649 3.11408 0
M  V30 4991 H 474.405 2.9601 2.9286 0
M  V30 4992 H 477.002 1.32675 5.17978 0
M  V30 4993 H 477.345 -0.051001 4.16269 0
M  V30 4994 H 477.878 1.57014 3.65501 0
M  V30 4995 H 474.617 4.25659 4.98493 0
M  V30 4996 H 474.137 2.59676 5.40674 0
M  V30 4997 H 475.816 3.13447 5.66003 0
M  V30 4998 N 475.948 -1.35272 0.808662 0
M  V30 4999 C 477.359 -1.81179 0.450688 0
M  V30 5000 C 477.71 -1.67143 -1.02751 0
M  V30 5001 O 476.835 -1.20325 -1.79864 0
M  V30 5002 C 477.43 -3.28943 0.811275 0
M  V30 5003 C 475.989 -3.72985 0.505871 0
M  V30 5004 C 475.136 -2.57229 1.03578 0
M  V30 5005 H 478.087 -1.2322 1.00012 0
M  V30 5006 H 478.108 -3.80342 0.109588 0
M  V30 5007 H 477.62 -3.39127 1.88718 0
M  V30 5008 H 475.721 -3.68349 -0.561209 0
M  V30 5009 H 475.834 -4.67677 1.03995 0
M  V30 5010 H 474.198 -2.50548 0.458005 0
M  V30 5011 H 474.981 -2.7019 2.11784 0
M  V30 5012 N 477.426 -0.562348 -1.47226 0
M  V30 5013 C 478.336 0.185466 -2.33866 0
M  V30 5014 C 479.352 0.906713 -1.48508 0
M  V30 5015 O 480.528 0.874458 -1.81425 0
M  V30 5016 C 477.593 1.19904 -3.25306 0
M  V30 5017 C 476.654 0.484669 -4.26555 0
M  V30 5018 C 475.887 1.44996 -5.13626 0
M  V30 5019 O 476.11 2.68515 -5.03245 0
M  V30 5020 O 475.044 0.971642 -5.94006 0
M  V30 5021 H 478.87 -0.525361 -2.99121 0
M  V30 5022 H 476.455 -0.322916 -1.45868 0
M  V30 5023 H 478.337 1.78399 -3.81774 0
M  V30 5024 H 477.012 1.8917 -2.62672 0
M  V30 5025 H 475.919 -0.141605 -3.73832 0
M  V30 5026 H 477.252 -0.166634 -4.91918 0
M  V30 5027 N 478.904 1.54736 -0.299062 0
M  V30 5028 C 480.129 2.04975 0.316254 0
M  V30 5029 C 480.554 1.17501 1.46885 0
M  V30 5030 O 479.912 0.178678 1.80417 0
M  V30 5031 C 479.96 3.52672 0.751997 0
M  V30 5032 O 479.064 3.68226 1.85697 0
M  V30 5033 H 478.405 0.661126 0.0617175 0
M  V30 5034 H 480.935 1.99805 -0.440341 0
M  V30 5035 H 480.945 3.94488 1.04133 0
M  V30 5036 H 479.62 4.158 -0.0911482 0
M  V30 5037 H 478.197 3.38316 1.56834 0
M  V30 5038 N 480.382 0.0267497 1.57577 0
M  V30 5039 C 481.329 -0.955894 2.10075 0
M  V30 5040 C 482.299 -1.32453 1.00226 0
M  V30 5041 O 483.484 -1.41826 1.27632 0
M  V30 5042 C 480.624 -2.2338 2.6305 0
M  V30 5043 C 479.737 -1.92183 3.86898 0
M  V30 5044 C 478.872 -3.14251 4.28275 0
M  V30 5045 C 477.911 -2.78862 5.44888 0
M  V30 5046 N 477.048 -3.93548 5.81433 0
M  V30 5047 H 481.888 -0.501303 2.93753 0
M  V30 5048 H 479.425 -0.235847 1.45197 0
M  V30 5049 H 481.383 -2.98124 2.91853 0
M  V30 5050 H 480.013 -2.6646 1.82205 0
M  V30 5051 H 479.065 -1.07692 3.64838 0
M  V30 5052 H 480.377 -1.62117 4.7172 0
M  V30 5053 H 479.531 -3.97317 4.58502 0
M  V30 5054 H 478.27 -3.47476 3.42215 0
M  V30 5055 H 477.275 -1.94208 5.14357 0
M  V30 5056 H 478.5 -2.46855 6.32645 0
M  V30 5057 H 476.446 -4.2662 4.98328 0
M  V30 5058 H 476.363 -3.67098 6.6089 0
M  V30 5059 H 477.631 -4.77325 6.16264 0
M  V30 5060 N 481.861 -1.55662 -0.24637 0
M  V30 5061 C 482.771 -1.93495 -1.32653 0
M  V30 5062 C 483.787 -0.835462 -1.5263 0
M  V30 5063 O 484.963 -1.1369 -1.66242 0
M  V30 5064 C 482.028 -2.22242 -2.66101 0
M  V30 5065 C 481.089 -3.45625 -2.54641 0
M  V30 5066 C 480.322 -3.72991 -3.81724 0
M  V30 5067 O 480.545 -3.02421 -4.8363 0
M  V30 5068 O 479.479 -4.66515 -3.80325 0
M  V30 5069 H 483.305 -2.85498 -1.03559 0
M  V30 5070 H 480.89 -1.42551 -0.44717 0
M  V30 5071 H 482.772 -2.42037 -3.44958 0
M  V30 5072 H 481.447 -1.33417 -2.94926 0
M  V30 5073 H 480.354 -3.31136 -1.74067 0
M  V30 5074 H 481.687 -4.34754 -2.3076 0
M  V30 5075 N 483.339 0.512053 -1.4905 0
M  V30 5076 C 484.287 1.63568 -1.65373 0
M  V30 5077 C 485.281 1.61228 -0.519806 0
M  V30 5078 O 486.487 1.65869 -0.699101 0
M  V30 5079 H 482.862 0.542019 -0.521267 0
M  V30 5080 H 484.833 1.4695 -2.59708 0
M  V30 5081 C 483.582 3.01761 -1.7273 0
M  V30 5082 H 482.905 3.04263 -2.59353 0
M  V30 5083 H 484.345 3.79948 -1.8819 0
M  V30 5084 C 482.804 3.33609 -0.46973 0
M  V30 5085 O 483.334 3.99607 0.409492 0
M  V30 5086 N 481.54 2.88651 -0.336003 0
M  V30 5087 H 481.087 2.35119 -1.05247 0
M  V30 5088 H 481.045 3.10328 0.504363 0
M  V30 5089 N 484.817 1.37938 0.762283 0
M  V30 5090 C 486.065 1.33404 1.51815 0
M  V30 5091 C 486.386 -0.0780975 1.94844 0
M  V30 5092 O 485.656 -1.02405 1.67003 0
M  V30 5093 H 484.236 0.490839 0.563104 0
M  V30 5094 H 486.898 1.72527 0.906669 0
M  V30 5095 H 485.994 1.97926 2.41313 0
M  V30 5096 N 486.295 -0.989507 1.22664 0
M  V30 5097 C 487.523 -1.76496 1.07967 0
M  V30 5098 C 487.938 -1.85148 -0.369543 0
M  V30 5099 O 487.295 -1.32408 -1.25596 0
M  V30 5100 C 487.346 -3.19642 1.68853 0
M  V30 5101 O 487.067 -3.11453 3.08105 0
M  V30 5102 C 488.568 -4.13621 1.59475 0
M  V30 5103 H 485.788 -0.55418 0.378319 0
M  V30 5104 H 488.332 -1.24378 1.62328 0
M  V30 5105 H 486.487 -3.68816 1.18547 0
M  V30 5106 H 486.901 -4.01499 3.37489 0
M  V30 5107 H 488.375 -5.11801 2.06795 0
M  V30 5108 H 488.852 -4.35718 0.55191 0
M  V30 5109 H 489.458 -3.70346 2.09103 0
M  V30 5110 N 487.773 -1.03688 -1.18687 0
M  V30 5111 C 488.683 -0.634908 -2.25845 0
M  V30 5112 C 489.699 0.337065 -1.70704 0
M  V30 5113 O 490.875 0.192943 -2.00474 0
M  V30 5114 C 487.94 -0.000180054 -3.467 0
M  V30 5115 C 487.001 -1.02067 -4.1699 0
M  V30 5116 C 486.234 -0.41614 -5.32075 0
M  V30 5117 O 486.457 0.778712 -5.65059 0
M  V30 5118 O 485.391 -1.14296 -5.90948 0
M  V30 5119 H 489.217 -1.52757 -2.62486 0
M  V30 5120 H 486.802 -0.807533 -1.25695 0
M  V30 5121 H 488.684 0.353342 -4.19916 0
M  V30 5122 H 487.359 0.866367 -3.11891 0
M  V30 5123 H 486.266 -1.42592 -3.45859 0
M  V30 5124 H 487.599 -1.85786 -4.5579 0
M  V30 5125 N 489.251 1.34841 -0.815825 0
M  V30 5126 C 490.662 1.80937 -0.46029 0
M  V30 5127 C 491.013 1.67685 1.01863 0
M  V30 5128 O 490.138 1.21277 1.79223 0
M  V30 5129 C 490.733 3.28509 -0.828708 0
M  V30 5130 C 489.292 3.72712 -0.525644 0
M  V30 5131 C 488.439 2.56676 -1.04941 0
M  V30 5132 H 491.39 1.22688 -1.00664 0
M  V30 5133 H 491.411 3.80279 -0.129757 0
M  V30 5134 H 490.923 3.38122 -1.90513 0
M  V30 5135 H 489.024 3.68642 0.541666 0
M  V30 5136 H 489.137 4.67119 -1.06474 0
M  V30 5137 H 487.501 2.50302 -0.471286 0
M  V30 5138 H 488.284 2.69063 -2.13214 0
M  V30 5139 N 490.729 0.570148 1.46925 0
M  V30 5140 C 491.639 -0.173061 2.33961 0
M  V30 5141 C 492.655 -0.898825 1.48987 0
M  V30 5142 O 493.831 -0.864825 1.81887 0
M  V30 5143 C 490.896 -1.18177 3.25937 0
M  V30 5144 C 489.957 -0.462041 4.26806 0
M  V30 5145 C 489.19 -1.4227 5.14388 0
M  V30 5146 O 489.413 -2.65842 5.04662 0
M  V30 5147 O 488.347 -0.940127 5.94513 0
M  V30 5148 H 492.173 0.541216 2.98839 0
M  V30 5149 H 489.758 0.330647 1.45695 0
M  V30 5150 H 491.64 -1.76372 3.82715 0
M  V30 5151 H 490.315 -1.87774 2.63671 0
M  V30 5152 H 489.222 0.161429 3.73752 0
M  V30 5153 H 490.555 0.192719 4.91823 0
M  V30 5154 N 492.207 -1.54576 0.307264 0
M  V30 5155 C 493.432 -2.05139 -0.305379 0
M  V30 5156 C 493.857 -1.18278 -1.46259 0
M  V30 5157 O 493.215 -0.188243 -1.8032 0
M  V30 5158 C 493.263 -3.53066 -0.733283 0
M  V30 5159 O 492.367 -3.69206 -1.83741 0
M  V30 5160 H 491.708 -0.661444 -0.0582105 0
M  V30 5161 H 494.238 -1.99569 0.450931 0
M  V30 5162 H 494.248 -3.95034 -1.02039 0
M  V30 5163 H 492.923 -4.15746 0.113198 0
M  V30 5164 H 491.5 -3.39143 -1.55037 0
M  V30 5165 N 493.685 -0.035106 -1.57561 0
M  V30 5166 C 494.91 0.655802 -1.96759 0
M  V30 5167 C 495.335 1.64523 -0.911809 0
M  V30 5168 O 494.693 1.80857 0.126673 0
M  V30 5169 C 494.741 1.33326 -3.35047 0
M  V30 5170 O 493.845 2.44866 -3.31835 0
M  V30 5171 H 493.186 0.171807 -0.641388 0
M  V30 5172 H 495.716 -0.0987369 -2.04362 0
M  V30 5173 H 495.726 1.68867 -3.71413 0
M  V30 5174 H 494.401 0.608033 -4.11431 0
M  V30 5175 H 492.978 2.11392 -3.07193 0
M  V30 5176 N 495.163 1.55791 0.238111 0
M  V30 5177 C 496.41 1.78033 0.964907 0
M  V30 5178 C 496.738 0.600984 1.84982 0
M  V30 5179 O 495.993 -0.41536 1.91241 0
M  V30 5180 C 496.292 3.05869 1.84875 0
M  V30 5181 C 495.958 4.36808 1.11846 0
M  V30 5182 C 494.62 4.72388 0.916662 0
M  V30 5183 C 496.972 5.17717 0.60151 0
M  V30 5184 C 494.3 5.86406 0.185756 0
M  V30 5185 C 496.652 6.32494 -0.115972 0
M  V30 5186 C 495.316 6.66688 -0.329168 0
M  V30 5187 H 494.586 0.651469 0.353085 0
M  V30 5188 H 497.233 1.90061 0.234318 0
M  V30 5189 H 495.538 2.88891 2.64668 0
M  V30 5190 H 497.235 3.20278 2.41294 0
M  V30 5191 H 493.825 4.08862 1.28569 0
M  V30 5192 H 498.009 4.90678 0.744932 0
M  V30 5193 H 493.265 6.11399 0.0101886 0
M  V30 5194 H 497.439 6.94425 -0.524127 0
M  V30 5195 H 495.066 7.54884 -0.897474 0
M  V30 5196 N 496.642 -0.504142 1.49319 0
M  V30 5197 C 497.872 -1.28071 1.62116 0
M  V30 5198 C 498.28 -1.86955 0.290566 0
M  V30 5199 O 497.623 -1.68415 -0.733616 0
M  V30 5200 C 497.685 -2.4521 2.62893 0
M  V30 5201 C 497.349 -2.07218 4.0732 0
M  V30 5202 C 498.346 -1.61375 4.94221 0
M  V30 5203 C 496.031 -2.16949 4.53033 0
M  V30 5204 C 498.025 -1.25763 6.2487 0
M  V30 5205 C 495.712 -1.80949 5.83696 0
M  V30 5206 C 496.71 -1.3543 6.69438 0
M  V30 5207 O 496.398 -0.99915 7.97667 0
M  V30 5208 H 496.13 -0.394763 0.54876 0
M  V30 5209 H 498.684 -0.612118 1.96067 0
M  V30 5210 H 496.914 -3.15134 2.24115 0
M  V30 5211 H 498.603 -3.0724 2.65252 0
M  V30 5212 H 499.369 -1.53306 4.60133 0
M  V30 5213 H 495.248 -2.5133 3.86463 0
M  V30 5214 H 498.792 -0.901631 6.91749 0
M  V30 5215 H 494.689 -1.88667 6.17313 0
M  V30 5216 H 495.457 -1.13089 8.1065 0
M  V30 5217 N 498.12 -1.38341 -0.754957 0
M  V30 5218 C 499.067 -1.3546 -1.86867 0
M  V30 5219 C 500.037 -0.217369 -1.64672 0
M  V30 5220 O 501.222 -0.409383 -1.86356 0
M  V30 5221 C 498.362 -1.18413 -3.24149 0
M  V30 5222 C 497.475 -2.41511 -3.58185 0
M  V30 5223 C 496.61 -2.17205 -4.84763 0
M  V30 5224 C 495.649 -3.36081 -5.11582 0
M  V30 5225 N 494.786 -3.11219 -6.29354 0
M  V30 5226 H 499.626 -2.30672 -1.88664 0
M  V30 5227 H 497.163 -1.14607 -0.922154 0
M  V30 5228 H 499.121 -1.06545 -4.03366 0
M  V30 5229 H 497.751 -0.268397 -3.21682 0
M  V30 5230 H 496.803 -2.64056 -2.73822 0
M  V30 5231 H 498.115 -3.30115 -3.73932 0
M  V30 5232 H 497.269 -2.02465 -5.7192 0
M  V30 5233 H 496.008 -1.25964 -4.71152 0
M  V30 5234 H 495.013 -3.51341 -4.22894 0
M  V30 5235 H 496.238 -4.28196 -5.27091 0
M  V30 5236 H 494.184 -2.22624 -6.17069 0
M  V30 5237 H 494.101 -3.93373 -6.45596 0
M  V30 5238 H 495.369 -3.00132 -7.19403 0
M  V30 5239 N 499.598 0.982988 -1.23187 0
M  V30 5240 C 500.561 2.05649 -1.01198 0
M  V30 5241 C 501.561 1.6078 0.0252464 0
M  V30 5242 O 502.751 1.72878 -0.214243 0
M  V30 5243 C 499.883 3.36744 -0.530656 0
M  V30 5244 H 501.076 2.2659 -1.96461 0
M  V30 5245 H 498.629 1.15602 -1.05195 0
M  V30 5246 H 499.364 3.21492 0.425873 0
M  V30 5247 H 499.149 3.7065 -1.2791 0
M  V30 5248 H 500.639 4.15705 -0.397366 0
M  V30 5249 N 501.076 1.04316 1.18135 0
M  V30 5250 C 502.024 0.630175 2.23901 0
M  V30 5251 C 503.018 -0.344254 1.65865 0
M  V30 5252 O 504.224 -0.211273 1.78756 0
M  V30 5253 H 500.599 0.185578 0.728742 0
M  V30 5254 H 502.57 1.53253 2.56039 0
M  V30 5255 C 501.319 0.011666 3.47698 0
M  V30 5256 H 500.642 0.752526 3.92654 0
M  V30 5257 H 502.082 -0.240046 4.2332 0
M  V30 5258 C 500.541 -1.23913 3.13285 0
M  V30 5259 O 501.071 -2.32959 3.27251 0
M  V30 5260 N 499.277 -1.13338 2.67587 0
M  V30 5261 H 498.824 -0.246006 2.56423 0
M  V30 5262 H 498.782 -1.97116 2.44934 0
M  V30 5263 N 502.554 -1.34406 0.822964 0
M  V30 5264 C 503.802 -1.97892 0.410245 0
M  V30 5265 C 504.123 -1.65567 -1.03017 0
M  V30 5266 O 503.393 -0.94642 -1.71522 0
M  V30 5267 H 501.973 -0.732049 0.148707 0
M  V30 5268 H 504.635 -1.64043 1.05242 0
M  V30 5269 H 503.731 -3.07579 0.529284 0
M  V30 5270 N 504.032 -0.577932 -1.46621 0
M  V30 5271 C 505.28 -0.061566 -2.02006 0
M  V30 5272 C 505.601 1.30117 -1.4524 0
M  V30 5273 O 504.871 1.85313 -0.63529 0
M  V30 5274 H 503.451 -0.0197692 -0.746738 0
M  V30 5275 H 506.113 -0.752631 -1.79782 0
M  V30 5276 H 505.209 0.0110238 -3.12098 0
M  V30 5277 N 505.51 1.54411 -0.315457 0
M  V30 5278 C 506.757 2.00419 0.289543 0
M  V30 5279 C 507.085 1.20373 1.52776 0
M  V30 5280 O 506.34 0.271769 1.93804 0
M  V30 5281 C 506.639 3.50936 0.676652 0
M  V30 5282 C 506.305 4.48532 -0.461472 0
M  V30 5283 C 504.967 4.74936 -0.773879 0
M  V30 5284 C 507.319 5.06567 -1.22637 0
M  V30 5285 C 504.647 5.56634 -1.85405 0
M  V30 5286 C 506.999 5.89441 -2.29657 0
M  V30 5287 C 505.663 6.1415 -2.61488 0
M  V30 5288 H 504.933 0.733386 0.105951 0
M  V30 5289 H 507.58 1.86434 -0.437554 0
M  V30 5290 H 505.885 3.62606 1.48405 0
M  V30 5291 H 507.582 3.83971 1.15618 0
M  V30 5292 H 504.172 4.28096 -0.207893 0
M  V30 5293 H 508.356 4.86157 -0.998271 0
M  V30 5294 H 503.612 5.74012 -2.10523 0
M  V30 5295 H 507.786 6.33432 -2.89374 0
M  V30 5296 H 505.413 6.77245 -3.45317 0
M  V30 5297 N 506.988 0.0434614 1.5754 0
M  V30 5298 C 507.92 -0.962586 2.08007 0
M  V30 5299 C 508.933 -1.27972 1.00634 0
M  V30 5300 O 510.122 -1.24186 1.28219 0
M  V30 5301 C 507.222 -2.28621 2.50171 0
M  V30 5302 C 506.395 -2.15214 3.80791 0
M  V30 5303 C 505.454 -3.30633 4.09351 0
M  V30 5304 O 504.48 -3.0688 4.79388 0
M  V30 5305 N 505.682 -4.54873 3.60654 0
M  V30 5306 H 508.447 -0.531891 2.94942 0
M  V30 5307 H 506.008 -0.142965 1.61268 0
M  V30 5308 H 508 -3.04689 2.66359 0
M  V30 5309 H 506.57 -2.63283 1.68525 0
M  V30 5310 H 505.79 -1.23785 3.74261 0
M  V30 5311 H 507.078 -2.03475 4.66343 0
M  V30 5312 H 506.476 -4.77063 3.04019 0
M  V30 5313 H 505.033 -5.2806 3.82094 0
M  V30 5314 N 508.466 -1.55915 -0.229846 0
M  V30 5315 C 509.877 -1.68809 -0.797531 0
M  V30 5316 C 510.228 -0.643995 -1.8533 0
M  V30 5317 O 509.353 0.206492 -2.15413 0
M  V30 5318 C 509.948 -3.06043 -1.45338 0
M  V30 5319 C 508.507 -3.20819 -1.96856 0
M  V30 5320 C 507.654 -2.6472 -0.825736 0
M  V30 5321 H 510.605 -1.58699 -0.00533733 0
M  V30 5322 H 510.626 -3.01438 -2.32196 0
M  V30 5323 H 510.138 -3.82012 -0.684743 0
M  V30 5324 H 508.239 -2.49704 -2.76548 0
M  V30 5325 H 508.352 -4.27937 -2.15423 0
M  V30 5326 H 506.716 -2.22985 -1.23084 0
M  V30 5327 H 507.499 -3.43229 -0.0699019 0
M  V30 5328 N 509.944 0.496216 -1.49584 0
M  V30 5329 C 511.221 1.25755 -1.49816 0
M  V30 5330 C 511.601 2.09859 -0.228572 0
M  V30 5331 O 510.949 2.14449 0.788908 0
M  V30 5332 C 511.159 2.11017 -2.7798 0
M  V30 5333 C 512.507 2.70047 -3.27658 0
M  V30 5334 O 513.531 2.21281 -2.79129 0
M  V30 5335 O 512.39 3.58834 -4.1219 0
M  V30 5336 H 509.484 0.569322 -0.599834 0
M  V30 5337 H 512.03 0.510094 -1.61852 0
M  V30 5338 H 510.802 1.48879 -3.61871 0
M  V30 5339 H 510.425 2.92947 -2.68827 0
M  V30 5340 N 511.423 1.38739 0.74761 0
M  V30 5341 C 512.333 1.38696 1.89211 0
M  V30 5342 C 513.349 0.283303 1.71678 0
M  V30 5343 O 514.525 0.522713 1.94498 0
M  V30 5344 C 511.59 1.21662 3.24653 0
M  V30 5345 C 510.651 2.41886 3.54669 0
M  V30 5346 C 509.884 2.25655 4.83648 0
M  V30 5347 O 510.107 1.25339 5.56459 0
M  V30 5348 O 509.041 3.14372 5.13277 0
M  V30 5349 H 512.867 2.35143 1.92202 0
M  V30 5350 H 510.452 1.19721 0.893708 0
M  V30 5351 H 512.334 1.14246 4.05618 0
M  V30 5352 H 511.009 0.283024 3.2246 0
M  V30 5353 H 509.916 2.54877 2.73841 0
M  V30 5354 H 511.249 3.33895 3.61628 0
M  V30 5355 N 512.901 -0.976442 1.23707 0
M  V30 5356 C 513.848 -2.06952 1.02174 0
M  V30 5357 C 514.818 -1.65984 -0.0621034 0
M  V30 5358 O 516.003 -1.90584 0.0907906 0
M  V30 5359 C 513.143 -3.39425 0.62327 0
M  V30 5360 C 512.256 -3.9364 1.77966 0
M  V30 5361 C 511.391 -5.14343 1.3276 0
M  V30 5362 C 510.43 -5.60733 2.45449 0
M  V30 5363 N 509.567 -6.72662 2.01172 0
M  V30 5364 H 514.407 -2.24704 1.95734 0
M  V30 5365 H 511.944 -1.10143 0.975034 0
M  V30 5366 H 513.902 -4.15526 0.37332 0
M  V30 5367 H 512.532 -3.21624 -0.275329 0
M  V30 5368 H 511.584 -3.14258 2.14351 0
M  V30 5369 H 512.896 -4.24035 2.62671 0
M  V30 5370 H 512.05 -5.97789 1.03601 0
M  V30 5371 H 510.789 -4.8561 0.450975 0
M  V30 5372 H 509.794 -4.75865 2.75378 0
M  V30 5373 H 511.019 -5.91483 3.33654 0
M  V30 5374 H 508.965 -6.45681 1.15895 0
M  V30 5375 H 508.882 -7.02462 2.79434 0
M  V30 5376 H 510.15 -7.59572 1.75129 0
M  V30 5377 O 514.418 -1.17461 -1.10838 0
M  V30 5378 H 515.109 -0.912283 -1.70872 0
M  V30 END ATOM
M  V30 BEGIN BOND
M  V30 END BOND
M  V30 END CTAB
M  END
$$$$
