drugbank_target|Q13093 Platelet-activating factor acetylhydrolase (DB05119; DB07821)
 OpenBabel12092120143D

  0  0  0     0  0            999 V3000
M  V30 BEGIN CTAB
M  V30 COUNTS 7014 7105 0 0 0
M  V30 BEGIN ATOM
M  V30 1 H -0.908 1.98254 -0.117106 0
M  V30 2 N 0 1.576 0 0
M  V30 3 C 0.933 2.03868 1.02534 0
M  V30 4 C 1.911 0.928543 1.3348 0
M  V30 5 O 3.095 1.19667 1.45644 0
M  V30 6 C 0.222 2.43627 2.35294 0
M  V30 7 C -0.732 3.65373 2.2001 0
M  V30 8 S 0.101 5.13292 1.52614 0
M  V30 9 C 1.257 5.56322 2.86805 0
M  V30 10 H 1.49 2.90518 0.631377 0
M  V30 11 H -0.977 1.52953 0.210867 0
M  V30 12 H 0.981 2.67203 3.11629 0
M  V30 13 H -0.358 1.57376 2.7183 0
M  V30 14 H -1.165 3.90944 3.18086 0
M  V30 15 H -1.563 3.418 1.51819 0
M  V30 16 H 0.729 5.58782 3.83104 0
M  V30 17 H 1.672 6.56266 2.65933 0
M  V30 18 H 2.08 4.83886 2.90714 0
M  V30 19 N 1.4781 -0.272755 1.55222 0
M  V30 20 C 2.7241 -1.00581 1.761 0
M  V30 21 C 3.0571 -1.85932 0.560625 0
M  V30 22 O 2.3321 -1.89416 -0.441801 0
M  V30 23 C 2.6151 -1.88816 3.06628 0
M  V30 24 C 2.4681 -1.06457 4.37021 0
M  V30 25 C 3.7871 -2.8752 3.33197 0
M  V30 26 H 0.9061 -0.364244 0.640699 0
M  V30 27 H 3.5481 -0.278189 1.87952 0
M  V30 28 H 1.6981 -2.50856 2.96654 0
M  V30 29 H 3.3701 -0.464863 4.58952 0
M  V30 30 H 1.6131 -0.368043 4.32236 0
M  V30 31 H 2.2841 -1.71514 5.24678 0
M  V30 32 H 4.7601 -2.35615 3.42965 0
M  V30 33 H 3.6361 -3.46399 4.25792 0
M  V30 34 H 3.8971 -3.62657 2.52849 0
M  V30 35 N 2.9562 -1.48159 -0.537278 0
M  V30 36 C 4.3672 -1.49429 -1.11928 0
M  V30 37 C 4.7182 -0.26 -1.9447 0
M  V30 38 O 3.8432 0.633489 -2.0692 0
M  V30 39 C 4.4382 -2.70758 -2.03656 0
M  V30 40 C 2.9972 -2.74923 -2.57088 0
M  V30 41 C 2.1442 -2.42835 -1.3389 0
M  V30 42 H 5.0952 -1.55381 -0.322886 0
M  V30 43 H 5.1162 -2.48861 -2.87834 0
M  V30 44 H 4.6282 -3.60575 -1.43553 0
M  V30 45 H 2.7292 -1.89296 -3.20933 0
M  V30 46 H 2.8422 -3.76157 -2.9672 0
M  V30 47 H 1.2062 -1.93836 -1.65226 0
M  V30 48 H 1.9892 -3.34884 -0.755504 0
M  V30 49 N 4.4343 0.785586 -1.36625 0
M  V30 50 C 5.8453 1.36101 -1.27803 0
M  V30 51 C 6.1963 1.96035 0.0804875 0
M  V30 52 O 5.3213 1.92834 0.982042 0
M  V30 53 C 5.9163 2.47442 -2.31426 0
M  V30 54 C 4.4753 3.00789 -2.26281 0
M  V30 55 C 3.6223 1.73896 -2.15999 0
M  V30 56 H 6.5733 0.586928 -1.47448 0
M  V30 57 H 6.5943 3.2656 -1.95291 0
M  V30 58 H 6.1063 2.03791 -3.30289 0
M  V30 59 H 4.2073 3.48851 -1.30896 0
M  V30 60 H 4.3203 3.57343 -3.19128 0
M  V30 61 H 2.6843 1.9628 -1.62316 0
M  V30 62 H 3.4673 1.32368 -3.16755 0
M  V30 63 N 5.9124 1.20967 1.01018 0
M  V30 64 C 6.8594 0.964281 2.09691 0
M  V30 65 C 7.8294 -0.107853 1.65749 0
M  V30 66 O 9.0144 0.0381987 1.90762 0
M  V30 67 C 6.1544 0.52943 3.41015 0
M  V30 68 C 5.2674 1.67043 3.98398 0
M  V30 69 C 4.4024 1.18525 5.17808 0
M  V30 70 C 3.4414 2.29892 5.67288 0
M  V30 71 N 2.5784 1.82546 6.77954 0
M  V30 72 H 7.4184 1.89463 2.30017 0
M  V30 73 H 4.9554 0.944289 1.1279 0
M  V30 74 H 6.9134 0.258588 4.16398 0
M  V30 75 H 5.5434 -0.363919 3.20742 0
M  V30 76 H 4.5954 2.05603 3.20049 0
M  V30 77 H 5.9074 2.50877 4.31117 0
M  V30 78 H 5.0614 0.870762 6.00419 0
M  V30 79 H 3.8004 0.316887 4.86669 0
M  V30 80 H 2.8054 2.6215 4.83278 0
M  V30 81 H 4.0304 3.17216 6.00459 0
M  V30 82 H 1.9764 0.980454 6.48632 0
M  V30 83 H 1.8934 2.59956 7.09901 0
M  V30 84 H 3.1614 1.54115 7.64113 0
M  V30 85 N 7.3905 -1.2043 1.01659 0
M  V30 86 C 8.3205 -2.25466 0.607226 0
M  V30 87 C 9.3015 -1.65853 -0.377716 0
M  V30 88 O 10.4865 -1.92409 -0.263149 0
M  V30 89 C 7.6165 -3.47256 -0.0552949 0
M  V30 90 C 6.5705 -4.19462 0.850632 0
M  V30 91 C 5.8965 -5.34673 0.0538859 0
M  V30 92 C 7.1965 -4.75603 2.15868 0
M  V30 93 H 8.8905 -2.59962 1.48526 0
M  V30 94 H 6.4365 -1.2496 0.715605 0
M  V30 95 H 8.3895 -4.19917 -0.353233 0
M  V30 96 H 7.1135 -3.11924 -0.968045 0
M  V30 97 H 5.7725 -3.48667 1.13257 0
M  V30 98 H 5.4205 -4.95585 -0.860514 0
M  V30 99 H 5.1205 -5.83913 0.657192 0
M  V30 100 H 6.6445 -6.10138 -0.237598 0
M  V30 101 H 8.0585 -5.40083 1.92311 0
M  V30 102 H 6.4555 -5.3528 2.71284 0
M  V30 103 H 7.5255 -3.94346 2.82169 0
M  V30 104 N 8.8686 -0.792821 -1.36206 0
M  V30 105 C 9.8186 -0.166598 -2.27391 0
M  V30 106 C 10.8026 0.651479 -1.47121 0
M  V30 107 O 11.9946 0.510994 -1.69463 0
M  V30 108 C 9.1236 0.695033 -3.36191 0
M  V30 109 C 8.2096 -0.132019 -4.23894 0
M  V30 110 N 8.6006 -1.18822 -4.91645 0
M  V30 111 C 6.8986 0.0885952 -4.45912 0
M  V30 112 C 7.5996 -1.69198 -5.56549 0
M  V30 113 N 6.5756 -1.00065 -5.34311 0
M  V30 114 H 10.3776 -0.974947 -2.77258 0
M  V30 115 H 7.8916 -0.632616 -1.49572 0
M  V30 116 H 9.8886 1.1596 -4.00448 0
M  V30 117 H 8.5486 1.50189 -2.87877 0
M  V30 118 H 9.5596 -1.57069 -4.93507 0
M  V30 119 H 6.2366 0.865688 -4.08426 0
M  V30 120 H 7.6266 -2.57395 -6.20643 0
M  V30 121 N 10.3467 1.47872 -0.545128 0
M  V30 122 C 11.5927 2.02793 -0.0166104 0
M  V30 123 C 11.9257 1.41987 1.32489 0
M  V30 124 O 11.2007 0.571045 1.85928 0
M  V30 125 C 11.4837 3.59989 0.0893294 0
M  V30 126 C 11.3367 4.3125 -1.27841 0
M  V30 127 C 12.6557 4.32606 0.808724 0
M  V30 128 H 9.7747 0.736962 -0.00751035 0
M  V30 129 H 12.4167 1.76433 -0.705085 0
M  V30 130 H 10.5667 3.82579 0.675681 0
M  V30 131 H 12.2387 4.20035 -1.90704 0
M  V30 132 H 10.4817 3.92076 -1.85632 0
M  V30 133 H 11.1527 5.39736 -1.15713 0
M  V30 134 H 13.6287 4.14936 0.310992 0
M  V30 135 H 12.5047 5.42251 0.851782 0
M  V30 136 H 12.7657 4.00963 1.86229 0
M  V30 137 N 11.8248 0.280983 1.55075 0
M  V30 138 C 12.7548 -0.597469 2.25727 0
M  V30 139 C 13.7358 -1.15417 1.24952 0
M  V30 140 O 14.9208 -1.18722 1.53684 0
M  V30 141 C 12.0508 -1.7789 2.98283 0
M  V30 142 C 11.0048 -1.35347 4.06036 0
M  V30 143 C 10.3308 -2.61846 4.66198 0
M  V30 144 C 11.6308 -0.499354 5.19907 0
M  V30 145 H 13.3248 -0.00824265 2.99399 0
M  V30 146 H 10.8708 -0.0025244 1.44 0
M  V30 147 H 12.8238 -2.39937 3.46422 0
M  V30 148 H 11.5478 -2.39405 2.22155 0
M  V30 149 H 10.2068 -0.756156 3.58717 0
M  V30 150 H 9.8548 -3.21632 3.86732 0
M  V30 151 H 9.5548 -2.3409 5.38958 0
M  V30 152 H 11.0788 -3.24732 5.1709 0
M  V30 153 H 12.4928 -1.02498 5.64063 0
M  V30 154 H 10.8898 -0.316424 5.99265 0
M  V30 155 H 11.9598 0.480459 4.82514 0
M  V30 156 N 13.3029 -1.57598 0.00835791 0
M  V30 157 C 14.5499 -1.90928 -0.674732 0
M  V30 158 C 14.8779 -0.88277 -1.73313 0
M  V30 159 O 14.1329 0.111294 -1.95383 0
M  V30 160 C 14.4319 -3.3101 -1.34787 0
M  V30 161 C 14.0979 -4.48922 -0.421861 0
M  V30 162 C 12.7599 -4.8091 -0.166927 0
M  V30 163 C 15.1119 -5.20755 0.215211 0
M  V30 164 C 12.4399 -5.821 0.733232 0
M  V30 165 C 14.7919 -6.22905 1.1033 0
M  V30 166 C 13.4559 -6.53346 1.36733 0
M  V30 167 H 12.7259 -0.698656 -0.246902 0
M  V30 168 H 15.3729 -1.91387 0.0656779 0
M  V30 169 H 13.6779 -3.26714 -2.16253 0
M  V30 170 H 15.3749 -3.54061 -1.8826 0
M  V30 171 H 11.9649 -4.23934 -0.630729 0
M  V30 172 H 16.1489 -4.9629 0.0312829 0
M  V30 173 H 11.4049 -6.04042 0.945712 0
M  V30 174 H 15.5789 -6.77694 1.60325 0
M  V30 175 H 13.2059 -7.31573 2.06652 0
M  V30 176 N 14.781 0.264519 -1.55364 0
M  V30 177 C 16.021 1.00254 -1.78125 0
M  V30 178 C 16.385 1.83187 -0.575017 0
M  V30 179 O 17.586 2.60029 -0.681042 0
M  V30 180 C 15.857 1.85478 -3.05504 0
M  V30 181 S 17.416 2.6543 -3.49417 0
M  V30 182 H 14.234 0.337522 -0.625779 0
M  V30 183 H 16.836 0.272111 -1.93597 0
M  V30 184 H 15.54 1.23491 -3.9138 0
M  V30 185 H 15.071 2.62827 -2.92721 0
M  V30 186 H 17.086 3.87958 -3.09359 0
M  V30 187 N 16.2591 1.48442 0.529413 0
M  V30 188 C 17.1891 1.65902 1.64313 0
M  V30 189 C 18.1701 0.507897 1.6234 0
M  V30 190 O 19.3551 0.740503 1.79528 0
M  V30 191 C 16.4851 1.69911 3.02898 0
M  V30 192 C 15.4391 2.8453 3.19729 0
M  V30 193 C 14.7651 2.73629 4.59381 0
M  V30 194 C 16.0651 4.25821 3.02447 0
M  V30 195 H 17.7591 2.5914 1.49955 0
M  V30 196 H 15.3051 1.24709 0.719982 0
M  V30 197 H 17.2581 1.80715 3.80684 0
M  V30 198 H 15.9821 0.732524 3.18279 0
M  V30 199 H 14.6411 2.73283 2.44361 0
M  V30 200 H 14.2891 1.74938 4.71599 0
M  V30 201 H 13.9891 3.50541 4.71588 0
M  V30 202 H 15.5131 2.86401 5.39265 0
M  V30 203 H 16.9271 4.37898 3.70024 0
M  V30 204 H 15.3241 5.03735 3.26146 0
M  V30 205 H 16.3941 4.42244 1.98867 0
M  V30 206 N 17.7372 -0.778329 1.37039 0
M  V30 207 C 18.9772 -1.54973 1.33276 0
M  V30 208 C 19.3412 -1.91816 -0.0839376 0
M  V30 209 O 20.5422 -2.6767 -0.246228 0
M  V30 210 C 18.8132 -2.78517 2.23971 0
M  V30 211 S 20.3722 -3.6865 2.37997 0
M  V30 212 H 17.1902 -0.530639 0.473226 0
M  V30 213 H 19.7922 -0.915806 1.72723 0
M  V30 214 H 18.4962 -2.4952 3.25835 0
M  V30 215 H 18.0272 -3.46875 1.85584 0
M  V30 216 H 20.0422 -4.70182 1.58567 0
M  V30 217 N 19.2153 -1.21501 -1.00376 0
M  V30 218 C 20.4633 -1.03095 -1.73827 0
M  V30 219 C 20.7843 0.436341 -1.90055 0
M  V30 220 O 20.0543 1.31466 -1.45236 0
M  V30 221 H 18.6343 -0.378487 -0.644016 0
M  V30 222 H 21.2963 -1.52831 -1.20949 0
M  V30 223 H 20.3923 -1.49991 -2.73695 0
M  V30 224 N 20.6934 1.19889 -1.02296 0
M  V30 225 C 21.9334 1.91125 -0.724602 0
M  V30 226 C 22.2974 1.77464 0.732835 0
M  V30 227 O 23.4984 2.43241 1.144 0
M  V30 228 C 21.7694 3.38187 -1.15604 0
M  V30 229 S 23.3284 4.27702 -0.980621 0
M  V30 230 H 20.1464 0.66018 -0.263976 0
M  V30 231 H 22.7484 1.44978 -1.31155 0
M  V30 232 H 21.4524 3.45653 -2.21251 0
M  V30 233 H 20.9834 3.89363 -0.562131 0
M  V30 234 H 22.9984 4.96073 0.112225 0
M  V30 235 N 22.1715 0.800033 1.35784 0
M  V30 236 C 23.1015 0.220184 2.3246 0
M  V30 237 C 24.0825 -0.65073 1.57161 0
M  V30 238 O 25.2675 -0.582359 1.85263 0
M  V30 239 C 22.3975 -0.637353 3.41402 0
M  V30 240 C 21.3515 0.134531 4.27789 0
M  V30 241 C 20.6775 -0.844285 5.27992 0
M  V30 242 C 21.9775 1.32979 5.05088 0
M  V30 243 H 23.6715 1.02787 2.81203 0
M  V30 244 H 21.2175 0.495717 1.35199 0
M  V30 245 H 23.1705 -1.05302 4.08031 0
M  V30 246 H 21.8945 -1.47785 2.91251 0
M  V30 247 H 20.5535 0.531296 3.6273 0
M  V30 248 H 20.2015 -1.68011 4.74111 0
M  V30 249 H 19.9015 -0.332184 5.8666 0
M  V30 250 H 21.4255 -1.2583 5.97494 0
M  V30 251 H 22.8395 0.98934 5.64699 0
M  V30 252 H 21.2365 1.77593 5.7322 0
M  V30 253 H 22.3065 2.11978 4.36111 0
M  V30 254 N 23.6496 -1.47581 0.552962 0
M  V30 255 C 24.6126 -2.28439 -0.186605 0
M  V30 256 C 25.6126 -1.36706 -0.84665 0
M  V30 257 O 26.8026 -1.59378 -0.703164 0
M  V30 258 C 23.9346 -3.16264 -1.2724 0
M  V30 259 H 25.1276 -2.95294 0.523609 0
M  V30 260 H 22.6806 -1.532 0.309745 0
M  V30 261 H 23.4156 -2.54091 -2.01514 0
M  V30 262 H 23.2006 -3.83769 -0.803968 0
M  V30 263 H 24.6906 -3.77198 -1.79196 0
M  V30 264 N 25.1277 -0.289203 -1.54924 0
M  V30 265 C 26.3737 0.323998 -2.00195 0
M  V30 266 C 26.7067 1.54441 -1.17735 0
M  V30 267 O 25.9817 1.92875 -0.250878 0
M  V30 268 C 26.2647 0.692276 -3.53383 0
M  V30 269 C 26.1177 -0.536457 -4.46589 0
M  V30 270 C 27.4367 1.52335 -4.12895 0
M  V30 271 H 24.5557 0.116289 -0.727768 0
M  V30 272 H 27.1977 -0.398954 -1.85764 0
M  V30 273 H 25.3477 1.30822 -3.65811 0
M  V30 274 H 27.0197 -1.17499 -4.46085 0
M  V30 275 H 25.2627 -1.17192 -4.1767 0
M  V30 276 H 25.9337 -0.234806 -5.515 0
M  V30 277 H 28.4097 1.00302 -4.0383 0
M  V30 278 H 27.2857 1.74982 -5.20262 0
M  V30 279 H 27.5467 2.50886 -3.64018 0
M  V30 280 N 26.6058 1.57591 -0.0167156 0
M  V30 281 C 27.8518 1.91567 0.665582 0
M  V30 282 C 28.1848 0.892298 1.72487 0
M  V30 283 O 27.4598 -0.0867127 1.94307 0
M  V30 284 C 27.7428 3.36069 1.29342 0
M  V30 285 C 27.5958 4.49135 0.244541 0
M  V30 286 C 28.9148 3.803 2.21495 0
M  V30 287 H 26.0338 0.69666 0.240488 0
M  V30 288 H 28.6758 1.89866 -0.0714356 0
M  V30 289 H 26.8258 3.3765 1.92158 0
M  V30 290 H 28.4978 4.59689 -0.385228 0
M  V30 291 H 26.7408 4.3165 -0.431379 0
M  V30 292 H 27.4118 5.47242 0.723207 0
M  V30 293 H 29.8878 3.80377 1.68678 0
M  V30 294 H 28.7638 4.82127 2.62382 0
M  V30 295 H 29.0248 3.15104 3.101 0
M  V30 296 N 28.0839 -0.256276 1.55502 0
M  V30 297 C 29.3139 -1.00196 1.80677 0
M  V30 298 C 29.7219 -1.79805 0.588797 0
M  V30 299 O 29.0649 -1.78055 -0.451883 0
M  V30 300 C 29.1269 -1.99515 2.99055 0
M  V30 301 C 28.7909 -1.38688 4.35448 0
M  V30 302 C 29.7879 -0.794079 5.138 0
M  V30 303 C 27.4729 -1.40906 4.82132 0
M  V30 304 C 29.4669 -0.231562 6.36979 0
M  V30 305 C 27.1539 -0.842684 6.05262 0
M  V30 306 C 28.1519 -0.254953 6.82524 0
M  V30 307 O 27.8399 0.3027 8.0333 0
M  V30 308 H 27.5719 -0.300919 0.60533 0
M  V30 309 H 30.1259 -0.287307 2.03381 0
M  V30 310 H 28.3559 -2.74785 2.72084 0
M  V30 311 H 30.0449 -2.60349 3.11405 0
M  V30 312 H 30.8109 -0.769519 4.78856 0
M  V30 313 H 26.6899 -1.85591 4.21992 0
M  V30 314 H 30.2339 0.227816 6.97228 0
M  V30 315 H 26.1309 -0.86454 6.39684 0
M  V30 316 H 26.8989 0.193662 8.18271 0
M  V30 317 N 29.562 -1.4872 -0.521534 0
M  V30 318 C 30.973 -1.50607 -1.10337 0
M  V30 319 C 31.324 -0.280612 -1.94183 0
M  V30 320 O 30.449 0.611507 -2.0758 0
M  V30 321 C 31.044 -2.72903 -2.00772 0
M  V30 322 C 29.603 -2.77634 -2.54158 0
M  V30 323 C 28.75 -2.44241 -1.31307 0
M  V30 324 H 31.701 -1.55714 -0.306388 0
M  V30 325 H 31.722 -2.519 -2.85178 0
M  V30 326 H 31.234 -3.62077 -1.39721 0
M  V30 327 H 29.335 -1.92689 -3.18907 0
M  V30 328 H 29.448 -3.79283 -2.92714 0
M  V30 329 H 27.812 -1.95577 -1.63161 0
M  V30 330 H 28.595 -3.35666 -0.719943 0
M  V30 331 N 31.0401 0.771051 -1.3745 0
M  V30 332 C 32.2871 1.52963 -1.32697 0
M  V30 333 C 32.6151 1.94299 0.0883274 0
M  V30 334 O 31.8701 1.64397 1.0617 0
M  V30 335 C 32.1691 2.80676 -2.2126 0
M  V30 336 C 31.8351 2.58389 -3.69521 0
M  V30 337 C 30.4971 2.52019 -4.09927 0
M  V30 338 C 32.8491 2.38469 -4.63446 0
M  V30 339 C 30.1771 2.23721 -5.42371 0
M  V30 340 C 32.5291 2.11694 -5.96128 0
M  V30 341 C 31.1931 2.03769 -6.35637 0
M  V30 342 H 30.4631 0.559732 -0.485573 0
M  V30 343 H 33.1101 0.888083 -1.69662 0
M  V30 344 H 31.4151 3.49392 -1.77291 0
M  V30 345 H 33.1121 3.38557 -2.14895 0
M  V30 346 H 29.7021 2.6421 -3.37478 0
M  V30 347 H 33.8861 2.4238 -4.33089 0
M  V30 348 H 29.1421 2.16081 -5.71943 0
M  V30 349 H 33.3161 1.9528 -6.6846 0
M  V30 350 H 30.9431 1.81606 -7.38189 0
M  V30 351 N 32.5182 1.22032 0.997298 0
M  V30 352 C 33.7952 0.950823 1.70935 0
M  V30 353 C 34.1752 -0.535292 2.042 0
M  V30 354 O 33.5232 -1.50217 1.72183 0
M  V30 355 C 33.7332 1.84386 2.96315 0
M  V30 356 C 35.0812 2.09732 3.69185 0
M  V30 357 O 36.1052 1.81798 3.06314 0
M  V30 358 O 34.9642 2.57018 4.82291 0
M  V30 359 H 32.0582 0.357204 0.745878 0
M  V30 360 H 34.6042 1.32997 1.05404 0
M  V30 361 H 33.3762 2.84928 2.68201 0
M  V30 362 H 32.9992 1.46602 3.69586 0
M  V30 363 N 33.9963 -1.19345 1.0293 0
M  V30 364 C 35.2423 -1.89585 0.736824 0
M  V30 365 C 35.5973 -1.78148 -0.726703 0
M  V30 366 O 34.8903 -1.16332 -1.52242 0
M  V30 367 C 35.0843 -3.39292 1.12319 0
M  V30 368 C 34.9133 -3.65298 2.62273 0
M  V30 369 C 33.6833 -3.83304 3.29251 0
M  V30 370 C 35.8813 -3.6682 3.60482 0
M  V30 371 N 33.8633 -3.96944 4.68304 0
M  V30 372 C 35.2343 -3.86037 4.85155 0
M  V30 373 C 37.2893 -3.49848 3.54275 0
M  V30 374 C 35.9923 -3.9004 6.04369 0
M  V30 375 C 38.0183 -3.55129 4.72903 0
M  V30 376 C 37.3803 -3.74831 5.9639 0
M  V30 377 H 33.4793 -0.712856 0.321497 0
M  V30 378 H 36.0633 -1.43427 1.31669 0
M  V30 379 H 34.2343 -3.84172 0.571524 0
M  V30 380 H 35.9663 -3.97055 0.78292 0
M  V30 381 H 32.7213 -3.82211 2.79663 0
M  V30 382 H 33.1453 -4.07613 5.40538 0
M  V30 383 H 37.7873 -3.33572 2.59788 0
M  V30 384 H 35.5053 -4.05108 6.99223 0
M  V30 385 H 39.0913 -3.43287 4.69729 0
M  V30 386 H 37.9713 -3.78792 6.86649 0
M  V30 387 N 35.4744 -0.807222 -1.35358 0
M  V30 388 C 36.4064 -0.175717 -2.28525 0
M  V30 389 C 37.4194 0.625354 -1.5031 0
M  V30 390 O 38.6084 0.457611 -1.72535 0
M  V30 391 C 35.7084 0.773471 -3.29956 0
M  V30 392 C 34.8814 0.0186296 -4.37396 0
M  V30 393 C 33.9404 0.886395 -5.18681 0
M  V30 394 O 32.9664 0.337106 -5.68201 0
M  V30 395 N 34.1684 2.20839 -5.36852 0
M  V30 396 H 36.9334 -0.976091 -2.83359 0
M  V30 397 H 34.4944 -0.662737 -1.47714 0
M  V30 398 H 36.4864 1.35824 -3.81227 0
M  V30 399 H 35.0564 1.47465 -2.75632 0
M  V30 400 H 34.2764 -0.747349 -3.87051 0
M  V30 401 H 35.5644 -0.501577 -5.06322 0
M  V30 402 H 34.9624 2.67858 -4.98265 0
M  V30 403 H 33.5194 2.74237 -5.91301 0
M  V30 404 N 36.9525 1.47285 -0.560781 0
M  V30 405 C 38.1825 2.06555 -0.0429638 0
M  V30 406 C 38.5905 1.41339 1.25777 0
M  V30 407 O 37.9335 0.505182 1.76617 0
M  V30 408 C 37.9955 3.58827 0.219887 0
M  V30 409 C 37.6595 4.46105 -0.991944 0
M  V30 410 C 38.6565 4.84 -1.89843 0
M  V30 411 C 36.3415 4.87567 -1.20762 0
M  V30 412 C 38.3355 5.6216 -3.00425 0
M  V30 413 C 36.0225 5.65491 -2.31653 0
M  V30 414 C 37.0205 6.02699 -3.21315 0
M  V30 415 O 36.7085 6.79052 -4.30283 0
M  V30 416 H 36.4405 0.674537 -0.0444468 0
M  V30 417 H 38.9945 1.90225 -0.774818 0
M  V30 418 H 37.2245 3.73383 1.00609 0
M  V30 419 H 38.9135 4.00103 0.683522 0
M  V30 420 H 39.6795 4.52564 -1.74387 0
M  V30 421 H 35.5585 4.5807 -0.518893 0
M  V30 422 H 39.1025 5.9112 -3.70436 0
M  V30 423 H 34.9995 5.9634 -2.47081 0
M  V30 424 H 35.7675 6.9745 -4.28376 0
M  V30 425 N 38.4306 0.297415 1.54768 0
M  V30 426 C 39.6796 -0.313669 1.99246 0
M  V30 427 C 39.9926 -1.55281 1.18942 0
M  V30 428 O 41.1986 -2.23825 1.5367 0
M  V30 429 C 39.6546 -0.609407 3.54703 0
M  V30 430 C 39.2626 0.611192 4.43811 0
M  V30 431 C 41.0066 -1.18188 4.07715 0
M  V30 432 C 38.9136 0.288805 5.90694 0
M  V30 433 H 37.8436 -0.120979 0.744231 0
M  V30 434 H 40.4946 0.40556 1.78962 0
M  V30 435 H 38.8766 -1.38813 3.70873 0
M  V30 436 H 40.0506 1.3875 4.39414 0
M  V30 437 H 38.3656 1.10205 4.01552 0
M  V30 438 H 40.9626 -1.43727 5.15021 0
M  V30 439 H 41.3056 -2.12299 3.58099 0
M  V30 440 H 41.8386 -0.464944 3.95074 0
M  V30 441 H 38.5776 1.19838 6.44453 0
M  V30 442 H 38.0976 -0.450305 5.98107 0
M  V30 443 H 39.7766 -0.110933 6.46905 0
M  V30 444 N 39.9087 -1.5758 0.0250728 0
M  V30 445 C 40.8567 -2.11125 -0.97617 0
M  V30 446 C 41.8507 -1.03689 -1.33959 0
M  V30 447 O 43.0567 -1.22128 -1.3223 0
M  V30 448 H 39.4317 -0.674468 -0.332561 0
M  V30 449 H 41.4027 -2.94194 -0.499223 0
M  V30 450 C 40.1517 -2.65017 -2.2508 0
M  V30 451 H 39.4747 -3.47333 -1.9799 0
M  V30 452 H 40.9147 -3.06133 -2.93357 0
M  V30 453 C 39.3737 -1.57574 -2.97779 0
M  V30 454 O 39.9037 -0.973203 -3.89733 0
M  V30 455 N 38.1097 -1.29716 -2.60043 0
M  V30 456 H 37.6567 -1.789 -1.85345 0
M  V30 457 H 37.6147 -0.58051 -3.08994 0
M  V30 458 N 41.3868 0.248026 -1.55636 0
M  V30 459 C 42.7978 0.817177 -1.67866 0
M  V30 460 C 43.1488 1.86069 -0.622322 0
M  V30 461 O 42.2738 2.15157 0.231618 0
M  V30 462 C 42.8688 1.489 -3.04326 0
M  V30 463 C 41.4278 2.00587 -3.185 0
M  V30 464 C 40.5748 0.856573 -2.63739 0
M  V30 465 H 43.5258 0.0238579 -1.58682 0
M  V30 466 H 43.5468 2.35698 -2.98708 0
M  V30 467 H 43.0588 0.729279 -3.81186 0
M  V30 468 H 41.1598 2.79443 -2.4646 0
M  V30 469 H 41.2728 2.20402 -4.25393 0
M  V30 470 H 39.6368 1.25678 -2.21534 0
M  V30 471 H 40.4198 0.109953 -3.43124 0
M  V30 472 N 42.8649 1.48995 0.513639 0
M  V30 473 C 44.1109 1.58076 1.27042 0
M  V30 474 C 44.4439 0.261026 1.92438 0
M  V30 475 O 43.7189 -0.734393 1.80103 0
M  V30 476 C 44.0019 2.73091 2.34719 0
M  V30 477 C 43.8549 4.14821 1.73907 0
M  V30 478 C 45.1739 2.83796 3.36375 0
M  V30 479 H 42.2929 0.575391 0.460536 0
M  V30 480 H 44.9349 1.81232 0.570516 0
M  V30 481 H 43.0849 2.53479 2.94416 0
M  V30 482 H 44.7569 4.45917 1.18135 0
M  V30 483 H 42.9999 4.21058 1.0437 0
M  V30 484 H 43.6709 4.91147 2.51949 0
M  V30 485 H 46.1469 3.01611 2.86653 0
M  V30 486 H 45.0229 3.65971 4.09093 0
M  V30 487 H 45.2839 1.92624 3.9793 0
M  V30 488 N 44.343 -0.763751 1.37857 0
M  V30 489 C 45.306 -1.85889 1.34081 0
M  V30 490 C 46.306 -1.58949 0.243277 0
M  V30 491 O 47.496 -1.66882 0.499589 0
M  V30 492 C 44.628 -3.23176 1.08489 0
M  V30 493 H 45.821 -1.90648 2.31502 0
M  V30 494 H 43.374 -0.964367 1.23003 0
M  V30 495 H 44.109 -3.24091 0.116318 0
M  V30 496 H 43.894 -3.44124 1.8794 0
M  V30 497 H 45.384 -4.03254 1.08517 0
M  V30 498 N 45.8211 -1.22559 -0.990812 0
M  V30 499 C 46.7711 -0.964807 -2.0658 0
M  V30 500 C 47.7551 0.0853472 -1.60673 0
M  V30 501 O 48.9471 -0.125443 -1.76555 0
M  V30 502 C 46.0761 -0.546707 -3.38919 0
M  V30 503 C 45.1621 -1.6317 -3.91454 0
M  V30 504 N 45.5531 -2.85985 -4.17189 0
M  V30 505 C 43.8511 -1.50387 -4.19881 0
M  V30 506 C 44.5521 -3.56159 -4.59919 0
M  V30 507 N 43.5281 -2.83637 -4.63736 0
M  V30 508 H 47.3301 -1.89769 -2.24421 0
M  V30 509 H 44.8441 -1.12343 -1.17273 0
M  V30 510 H 46.8411 -0.34119 -4.15502 0
M  V30 511 H 45.5011 0.379254 -3.22478 0
M  V30 512 H 46.5121 -3.22392 -4.05319 0
M  V30 513 H 43.1891 -0.644254 -4.12499 0
M  V30 514 H 44.5791 -4.6139 -4.88435 0
M  V30 515 N 47.2992 1.18797 -1.03562 0
M  V30 516 C 48.2322 2.2105 -0.56676 0
M  V30 517 C 49.2102 1.57704 0.395993 0
M  V30 518 O 50.3942 1.85908 0.311498 0
M  V30 519 C 47.5212 3.38259 0.172704 0
M  V30 520 C 46.5672 4.19987 -0.74252 0
M  V30 521 S 47.4002 4.87199 -2.22254 0
M  V30 522 C 48.5562 6.07813 -1.49379 0
M  V30 523 H 48.7892 2.60478 -1.43312 0
M  V30 524 H 46.3222 1.29151 -0.846133 0
M  V30 525 H 48.2802 4.06191 0.593191 0
M  V30 526 H 46.9412 2.97252 1.01488 0
M  V30 527 H 46.1342 5.03709 -0.171265 0
M  V30 528 H 45.7362 3.57408 -1.10163 0
M  V30 529 H 48.0282 6.72948 -0.784056 0
M  V30 530 H 48.9712 6.69435 -2.30786 0
M  V30 531 H 49.3792 5.55781 -0.988331 0
M  V30 532 N 48.7773 0.814389 1.34928 0
M  V30 533 C 49.7243 0.22822 2.29669 0
M  V30 534 C 50.6943 -0.642164 1.53184 0
M  V30 535 O 51.8793 -0.585605 1.81591 0
M  V30 536 C 49.0193 -0.61089 3.3965 0
M  V30 537 C 48.1323 0.280792 4.31086 0
M  V30 538 C 47.2673 -0.567067 5.28165 0
M  V30 539 C 46.3063 0.324531 6.11239 0
M  V30 540 N 45.4433 -0.483756 7.00431 0
M  V30 541 H 50.2833 1.04153 2.79206 0
M  V30 542 H 47.8203 0.525133 1.37407 0
M  V30 543 H 49.7783 -1.11263 4.0209 0
M  V30 544 H 48.4083 -1.38939 2.91369 0
M  V30 545 H 47.4603 0.900688 3.69583 0
M  V30 546 H 48.7723 0.966723 4.89342 0
M  V30 547 H 47.9263 -1.13363 5.96015 0
M  V30 548 H 46.6653 -1.28654 4.70425 0
M  V30 549 H 45.6703 0.903298 5.42329 0
M  V30 550 H 46.8953 1.04198 6.71059 0
M  V30 551 H 44.8413 -1.18706 6.45171 0
M  V30 552 H 44.7583 0.143965 7.55863 0
M  V30 553 H 46.0263 -1.03334 7.7262 0
M  V30 554 N 50.2554 -1.46986 0.568584 0
M  V30 555 C 51.4804 -2.07335 0.0520528 0
M  V30 556 C 51.9054 -1.41675 -1.23733 0
M  V30 557 O 51.2634 -0.495623 -1.74394 0
M  V30 558 C 51.3114 -3.60417 -0.11501 0
M  V30 559 O 50.4154 -3.95309 -1.17492 0
M  V30 560 H 49.7564 -0.661597 0.0564385 0
M  V30 561 H 52.2864 -1.88837 0.787507 0
M  V30 562 H 52.2964 -4.06698 -0.325644 0
M  V30 563 H 50.9714 -4.07601 0.826675 0
M  V30 564 H 49.5484 -3.60757 -0.943869 0
M  V30 565 N 51.7335 -0.305618 -1.54608 0
M  V30 566 C 52.9585 0.307562 -2.05107 0
M  V30 567 C 53.3835 1.46385 -1.18123 0
M  V30 568 O 52.7415 1.8034 -0.186324 0
M  V30 569 C 52.7895 0.73704 -3.52987 0
M  V30 570 O 51.8935 1.84134 -3.6901 0
M  V30 571 H 51.2345 0.0589143 -0.661381 0
M  V30 572 H 53.7645 -0.448807 -1.99617 0
M  V30 573 H 53.7745 1.02459 -3.94925 0
M  V30 574 H 52.4495 -0.108773 -4.15758 0
M  V30 575 H 51.0265 1.55398 -3.38978 0
M  V30 576 N 53.2116 1.57565 -0.0334293 0
M  V30 577 C 54.1746 2.09393 0.932048 0
M  V30 578 C 55.1746 1.00986 1.25134 0
M  V30 579 O 56.3646 1.27129 1.19096 0
M  V30 580 C 53.4966 2.56338 2.2473 0
M  V30 581 H 54.6896 2.95984 0.483085 0
M  V30 582 H 52.2426 1.54819 0.21468 0
M  V30 583 H 52.9776 1.7309 2.74245 0
M  V30 584 H 52.7626 3.35542 2.02865 0
M  V30 585 H 54.2526 2.96646 2.93923 0
M  V30 586 N 54.6897 -0.239769 1.55765 0
M  V30 587 C 55.9357 -0.963942 1.79108 0
M  V30 588 C 56.2907 -1.82689 0.60352 0
M  V30 589 O 55.5837 -1.87313 -0.403033 0
M  V30 590 C 55.7777 -1.852 3.05672 0
M  V30 591 C 55.6067 -1.07651 4.36625 0
M  V30 592 C 54.3767 -0.778738 4.99263 0
M  V30 593 C 56.5747 -0.45062 5.12322 0
M  V30 594 N 54.5567 0.0200708 6.13897 0
M  V30 595 C 55.9277 0.212429 6.19636 0
M  V30 596 C 57.9827 -0.361806 4.96584 0
M  V30 597 C 56.6857 0.955772 7.12922 0
M  V30 598 C 58.7117 0.368023 5.90254 0
M  V30 599 C 58.0737 1.01968 6.96981 0
M  V30 600 H 54.1727 -0.333601 0.707272 0
M  V30 601 H 56.7567 -0.236425 1.93259 0
M  V30 602 H 54.9277 -2.55149 2.92837 0
M  V30 603 H 56.6597 -2.51228 3.1728 0
M  V30 604 H 53.4147 -1.09229 4.60832 0
M  V30 605 H 53.8387 0.407777 6.75771 0
M  V30 606 H 58.4807 -0.851286 4.14141 0
M  V30 607 H 56.1987 1.45683 7.9486 0
M  V30 608 H 59.7847 0.437504 5.80153 0
M  V30 609 H 58.6647 1.5754 7.68213 0
M  V30 610 N 56.1678 -1.49265 -0.50573 0
M  V30 611 C 57.4138 -1.58748 -1.26202 0
M  V30 612 C 57.7468 -0.271227 -1.92297 0
M  V30 613 O 57.0218 0.724831 -1.80489 0
M  V30 614 C 57.3048 -2.74332 -2.33268 0
M  V30 615 C 57.1578 -4.15737 -1.71705 0
M  V30 616 C 58.4768 -2.85576 -3.34865 0
M  V30 617 H 55.5958 -0.577826 -0.457478 0
M  V30 618 H 58.2378 -1.81532 -0.560897 0
M  V30 619 H 56.3878 -2.55036 -2.93068 0
M  V30 620 H 58.0598 -4.46537 -1.15769 0
M  V30 621 H 56.3028 -4.21605 -1.02135 0
M  V30 622 H 56.9738 -4.92477 -2.49341 0
M  V30 623 H 59.4498 -3.03127 -2.8505 0
M  V30 624 H 58.3258 -3.68135 -4.07146 0
M  V30 625 H 58.5868 -1.94732 -3.96903 0
M  V30 626 N 57.6459 0.756429 -1.3826 0
M  V30 627 C 58.5939 1.89149 -1.35372 0
M  V30 628 C 59.5879 1.67691 -0.24004 0
M  V30 629 O 60.7939 1.75294 -0.408919 0
M  V30 630 H 57.1689 0.622271 -0.422236 0
M  V30 631 H 59.1399 1.88701 -2.31159 0
M  V30 632 C 57.8889 3.26599 -1.19284 0
M  V30 633 H 57.2119 3.43695 -2.0424 0
M  V30 634 H 58.6519 4.06274 -1.21316 0
M  V30 635 C 57.1109 3.3675 0.100454 0
M  V30 636 O 57.6409 3.86951 1.07851 0
M  V30 637 N 55.8469 2.90179 0.15633 0
M  V30 638 H 55.3939 2.49517 -0.640253 0
M  V30 639 H 55.3519 2.97352 1.02123 0
M  V30 640 N 59.124 1.23083 0.984299 0
M  V30 641 C 60.071 1.00854 2.07598 0
M  V30 642 C 61.041 -0.0726709 1.65941 0
M  V30 643 O 62.226 0.0786535 1.90638 0
M  V30 644 C 59.366 0.601645 3.39815 0
M  V30 645 C 58.479 1.75456 3.94765 0
M  V30 646 C 57.614 1.29482 5.15177 0
M  V30 647 C 56.653 2.41873 5.62284 0
M  V30 648 N 55.79 1.96885 6.73929 0
M  V30 649 H 60.63 1.943 2.25946 0
M  V30 650 H 58.167 0.968001 1.10762 0
M  V30 651 H 60.125 0.346854 4.15756 0
M  V30 652 H 58.755 -0.295803 3.21442 0
M  V30 653 H 57.807 2.12346 3.15616 0
M  V30 654 H 59.119 2.59965 4.25699 0
M  V30 655 H 58.273 0.997923 5.98437 0
M  V30 656 H 57.012 0.420046 4.85888 0
M  V30 657 H 56.017 2.72342 4.77608 0
M  V30 658 H 57.242 3.29881 5.93595 0
M  V30 659 H 55.188 1.11782 6.46406 0
M  V30 660 H 55.105 2.74956 7.04227 0
M  V30 661 H 56.373 1.70289 7.60672 0
M  V30 662 N 60.6021 -1.18246 1.0419 0
M  V30 663 C 61.8511 -1.87588 0.741194 0
M  V30 664 C 62.1641 -1.81303 -0.734066 0
M  V30 665 O 63.3701 -2.46019 -1.14834 0
M  V30 666 C 61.8261 -3.36538 1.27555 0
M  V30 667 C 61.4341 -3.51349 2.77953 0
M  V30 668 C 63.1781 -4.11273 1.05143 0
M  V30 669 C 61.0851 -4.94265 3.2474 0
M  V30 670 H 60.0151 -0.702622 0.273565 0
M  V30 671 H 62.6661 -1.33601 1.25789 0
M  V30 672 H 61.0481 -3.9 0.686703 0
M  V30 673 H 62.2221 -3.08153 3.42605 0
M  V30 674 H 60.5371 -2.90022 2.98791 0
M  V30 675 H 63.1341 -5.16689 1.37611 0
M  V30 676 H 63.4771 -4.16298 -0.0112774 0
M  V30 677 H 64.0101 -3.63987 1.60495 0
M  V30 678 H 60.7491 -4.94408 4.30396 0
M  V30 679 H 60.2691 -5.38172 2.64823 0
M  V30 680 H 61.9481 -5.62987 3.18834 0
M  V30 681 N 62.0802 -0.821533 -1.34494 0
M  V30 682 C 63.0122 -0.199946 -2.28326 0
M  V30 683 C 64.0252 0.609377 -1.50965 0
M  V30 684 O 65.2142 0.439285 -1.7301 0
M  V30 685 C 62.3142 0.738431 -3.30757 0
M  V30 686 C 61.4872 -0.0277632 -4.37391 0
M  V30 687 C 60.5462 0.831332 -5.19591 0
M  V30 688 O 59.5722 0.276822 -5.68526 0
M  V30 689 N 60.7742 2.15132 -5.39165 0
M  V30 690 H 63.5392 -1.00609 -2.82308 0
M  V30 691 H 61.1002 -0.678366 -1.47003 0
M  V30 692 H 63.0922 1.31773 -3.82646 0
M  V30 693 H 61.6622 1.44533 -2.7718 0
M  V30 694 H 60.8822 -0.788359 -3.86236 0
M  V30 695 H 62.1702 -0.555251 -5.05761 0
M  V30 696 H 61.5682 2.62559 -5.01078 0
M  V30 697 H 60.1252 2.6795 -5.94177 0
M  V30 698 N 63.5583 1.46682 -0.576371 0
M  V30 699 C 64.8043 2.02712 -0.0596221 0
M  V30 700 C 65.1373 1.44765 1.29448 0
M  V30 701 O 64.4123 0.610355 1.84675 0
M  V30 702 C 64.6953 3.60098 0.0129503 0
M  V30 703 C 64.5483 4.28441 -1.3696 0
M  V30 704 C 65.8673 4.34224 0.71678 0
M  V30 705 H 62.9863 0.736637 -0.0231407 0
M  V30 706 H 65.6283 1.74898 -0.742351 0
M  V30 707 H 63.7783 3.83926 0.594378 0
M  V30 708 H 65.4503 4.15896 -1.9957 0
M  V30 709 H 63.6933 3.8805 -1.93907 0
M  V30 710 H 64.3643 5.3716 -1.27135 0
M  V30 711 H 66.8403 4.15503 0.222908 0
M  V30 712 H 65.7163 5.43936 0.73657 0
M  V30 713 H 65.9773 4.04823 1.77682 0
M  V30 714 N 65.0364 0.313813 1.54444 0
M  V30 715 C 65.9664 -0.549454 2.26943 0
M  V30 716 C 66.9474 -1.12741 1.27372 0
M  V30 717 O 68.1324 -1.15436 1.56167 0
M  V30 718 C 65.2624 -1.71523 3.01989 0
M  V30 719 C 64.2164 -1.26703 4.08816 0
M  V30 720 C 63.5424 -2.51898 4.71647 0
M  V30 721 C 64.8424 -0.388962 5.2085 0
M  V30 722 H 66.5364 0.0552661 2.99349 0
M  V30 723 H 64.0824 0.0280207 1.43973 0
M  V30 724 H 66.0354 -2.32535 3.51433 0
M  V30 725 H 64.7594 -2.34639 2.27183 0
M  V30 726 H 63.4184 -0.679896 3.6024 0
M  V30 727 H 63.0664 -3.13356 3.93468 0
M  V30 728 H 62.7664 -2.22605 5.43802 0
M  V30 729 H 64.2904 -3.1369 5.23861 0
M  V30 730 H 65.7044 -0.905107 5.6611 0
M  V30 731 H 64.1014 -0.18924 5.99802 0
M  V30 732 H 65.1714 0.582699 4.81386 0
M  V30 733 N 66.5145 -1.57545 0.0417849 0
M  V30 734 C 67.4475 -2.06514 -0.970928 0
M  V30 735 C 68.4255 -0.963607 -1.30971 0
M  V30 736 O 69.6095 -1.23486 -1.4242 0
M  V30 737 C 66.7365 -2.4978 -2.28752 0
M  V30 738 C 65.7825 -3.71078 -2.10246 0
M  V30 739 S 66.6155 -5.17158 -1.38952 0
M  V30 740 C 67.7715 -5.6373 -2.71954 0
M  V30 741 H 68.0045 -2.9209 -0.554129 0
M  V30 742 H 65.5375 -1.53459 -0.17024 0
M  V30 743 H 67.4955 -2.75371 -3.04435 0
M  V30 744 H 66.1565 -1.64527 -2.67562 0
M  V30 745 H 65.3495 -3.9924 -3.07609 0
M  V30 746 H 64.9515 -3.45705 -1.42704 0
M  V30 747 H 67.2435 -5.68743 -3.68154 0
M  V30 748 H 68.1865 -6.63086 -2.4844 0
M  V30 749 H 68.5945 -4.91424 -2.77782 0
M  V30 750 N 67.9926 0.231505 -1.5589 0
M  V30 751 C 68.9556 1.27028 -1.90779 0
M  V30 752 C 69.9556 1.40308 -0.785507 0
M  V30 753 O 71.1456 1.38744 -1.05336 0
M  V30 754 C 68.2776 2.64566 -2.14983 0
M  V30 755 H 69.4706 0.973017 -2.83677 0
M  V30 756 H 67.0236 0.471486 -1.49019 0
M  V30 757 H 67.7586 2.99406 -1.24604 0
M  V30 758 H 67.5436 2.56305 -2.96732 0
M  V30 759 H 69.0336 3.39543 -2.43105 0
M  V30 760 N 69.4707 1.49531 0.497807 0
M  V30 761 C 70.4337 1.65916 1.58128 0
M  V30 762 C 71.4337 0.530825 1.51786 0
M  V30 763 O 72.6237 0.797342 1.54881 0
M  V30 764 C 69.7557 1.65951 2.9778 0
M  V30 765 H 70.9487 2.62556 1.44929 0
M  V30 766 H 68.5017 1.38611 0.722275 0
M  V30 767 H 69.2367 0.709065 3.16453 0
M  V30 768 H 69.0217 2.47897 3.03792 0
M  V30 769 H 70.5117 1.80673 3.76493 0
M  V30 770 N 70.9488 -0.749086 1.3866 0
M  V30 771 C 71.9118 -1.84457 1.36045 0
M  V30 772 C 72.9118 -1.58682 0.260122 0
M  V30 773 O 74.1018 -1.66343 0.517261 0
M  V30 774 C 71.2338 -3.22008 1.11911 0
M  V30 775 H 72.4268 -1.88182 2.33512 0
M  V30 776 H 69.9798 -0.951266 1.24019 0
M  V30 777 H 70.7148 -3.2395 0.150686 0
M  V30 778 H 70.4998 -3.42111 1.91579 0
M  V30 779 H 71.9898 -4.0208 1.12788 0
M  V30 780 N 72.4269 -1.23603 -0.977757 0
M  V30 781 C 73.6519 -1.09735 -1.75991 0
M  V30 782 C 74.0769 0.346858 -1.84874 0
M  V30 783 O 73.4349 1.25093 -1.3123 0
M  V30 784 C 73.4829 -1.73051 -3.16363 0
M  V30 785 O 72.5869 -0.994452 -4.0023 0
M  V30 786 H 71.9279 -0.384476 -0.541364 0
M  V30 787 H 74.4579 -1.6371 -1.2272 0
M  V30 788 H 74.4679 -1.78398 -3.66931 0
M  V30 789 H 73.1429 -2.78137 -3.09213 0
M  V30 790 H 71.7199 -1.01812 -3.58732 0
M  V30 791 N 73.905 1.17692 -1.04816 0
M  V30 792 C 75.152 1.87859 -0.75599 0
M  V30 793 C 75.48 1.80812 0.716752 0
M  V30 794 O 74.735 1.20819 1.53952 0
M  V30 795 C 75.034 3.37462 -1.17703 0
M  V30 796 C 74.7 3.64713 -2.65133 0
M  V30 797 C 73.362 3.71859 -3.05408 0
M  V30 798 C 75.714 3.76492 -3.60421 0
M  V30 799 C 73.042 3.88271 -4.39843 0
M  V30 800 C 75.394 3.94421 -4.94585 0
M  V30 801 C 74.058 3.99806 -5.3452 0
M  V30 802 H 73.328 0.687425 -0.276636 0
M  V30 803 H 75.975 1.39255 -1.31455 0
M  V30 804 H 74.28 3.88097 -0.537395 0
M  V30 805 H 75.977 3.90109 -0.928218 0
M  V30 806 H 72.567 3.59772 -2.32942 0
M  V30 807 H 76.751 3.70295 -3.30447 0
M  V30 808 H 72.007 3.90687 -4.70291 0
M  V30 809 H 76.181 4.02477 -5.68318 0
M  V30 810 H 73.808 4.12276 -6.38696 0
M  V30 811 N 75.3831 0.828654 1.34056 0
M  V30 812 C 76.6311 0.41863 1.97717 0
M  V30 813 C 76.9521 -1.02314 1.66002 0
M  V30 814 O 76.2221 -1.71119 0.953683 0
M  V30 815 H 74.8021 0.151809 0.731412 0
M  V30 816 H 77.4641 1.05936 1.63596 0
M  V30 817 H 76.5601 0.542318 3.07352 0
M  V30 818 N 76.8612 -1.46375 0.584142 0
M  V30 819 C 77.7932 -2.28443 -0.186119 0
M  V30 820 C 78.8062 -1.38596 -0.854115 0
M  V30 821 O 79.9952 -1.63183 -0.723438 0
M  V30 822 C 77.0952 -3.13671 -1.28311 0
M  V30 823 C 76.2682 -4.31652 -0.706758 0
M  V30 824 C 75.3272 -4.98267 -1.69163 0
M  V30 825 O 74.3532 -5.55815 -1.22712 0
M  V30 826 N 75.5552 -4.95408 -3.02575 0
M  V30 827 H 78.3202 -2.9519 0.517986 0
M  V30 828 H 75.8812 -1.56303 0.42201 0
M  V30 829 H 77.8732 -3.55101 -1.94128 0
M  V30 830 H 76.4432 -2.48989 -1.89005 0
M  V30 831 H 75.6632 -3.93989 0.128908 0
M  V30 832 H 76.9512 -5.07906 -0.301506 0
M  V30 833 H 76.3492 -4.49902 -3.42936 0
M  V30 834 H 74.9062 -5.40774 -3.63877 0
M  V30 835 N 78.3393 -0.321999 -1.54275 0
M  V30 836 C 79.5673 0.283052 -2.04955 0
M  V30 837 C 79.9823 1.45904 -1.19823 0
M  V30 838 O 79.3393 1.81063 -0.228545 0
M  V30 839 C 79.3903 0.719028 -3.54277 0
M  V30 840 O 79.1113 -0.410175 -4.36176 0
M  V30 841 C 80.6123 1.38705 -4.21041 0
M  V30 842 H 77.8323 0.0584616 -0.668448 0
M  V30 843 H 80.3763 -0.467734 -1.99079 0
M  V30 844 H 78.5313 1.41979 -3.60445 0
M  V30 845 H 78.9453 -0.0669416 -5.24457 0
M  V30 846 H 80.4193 1.64306 -5.2698 0
M  V30 847 H 80.8963 2.33385 -3.72059 0
M  V30 848 H 81.5023 0.728906 -4.19007 0
M  V30 849 N 79.8174 1.5752 -0.0501392 0
M  V30 850 C 80.7644 2.1147 0.924603 0
M  V30 851 C 81.7344 1.02182 1.30951 0
M  V30 852 O 82.9194 1.29723 1.39916 0
M  V30 853 C 80.0594 2.66337 2.19451 0
M  V30 854 C 79.1724 3.89708 1.86418 0
M  V30 855 C 78.3074 4.32893 3.07859 0
M  V30 856 C 77.3464 5.48967 2.70742 0
M  V30 857 N 76.4834 5.87211 3.84874 0
M  V30 858 H 81.3234 2.94465 0.457639 0
M  V30 859 H 78.8604 1.45531 0.214266 0
M  V30 860 H 80.8184 2.96247 2.93758 0
M  V30 861 H 79.4484 1.86141 2.63726 0
M  V30 862 H 78.5004 3.66396 1.02264 0
M  V30 863 H 79.8124 4.74074 1.55096 0
M  V30 864 H 78.9664 4.6435 3.90466 0
M  V30 865 H 77.7054 3.47336 3.42358 0
M  V30 866 H 76.7104 5.17183 1.86551 0
M  V30 867 H 77.9354 6.3624 2.37436 0
M  V30 868 H 75.8814 5.04607 4.19175 0
M  V30 869 H 75.7984 6.66266 3.57247 0
M  V30 870 H 77.0664 6.23282 4.68123 0
M  V30 871 N 81.2955 -0.223234 1.56011 0
M  V30 872 C 82.5445 -0.945912 1.78144 0
M  V30 873 C 82.8575 -1.85567 0.618396 0
M  V30 874 O 84.0635 -2.61688 0.723318 0
M  V30 875 C 82.5195 -1.73216 3.15475 0
M  V30 876 C 82.1275 -0.868619 4.39499 0
M  V30 877 C 83.8715 -2.44615 3.46935 0
M  V30 878 C 81.7785 -1.65212 5.67855 0
M  V30 879 H 80.7085 -0.356929 0.664167 0
M  V30 880 H 83.3595 -0.199845 1.82409 0
M  V30 881 H 81.7415 -2.52107 3.05382 0
M  V30 882 H 82.9155 -0.120366 4.60643 0
M  V30 883 H 81.2305 -0.26683 4.15544 0
M  V30 884 H 83.8275 -3.03732 4.40058 0
M  V30 885 H 84.1705 -3.17417 2.69355 0
M  V30 886 H 84.7035 -1.72715 3.58349 0
M  V30 887 H 81.4425 -0.967407 6.48322 0
M  V30 888 H 80.9625 -2.37503 5.50774 0
M  V30 889 H 82.6415 -2.21322 6.07968 0
M  V30 890 N 82.7736 -1.49793 -0.48987 0
M  V30 891 C 84.1846 -1.52914 -1.07118 0
M  V30 892 C 84.5356 -0.321738 -1.93544 0
M  V30 893 O 83.6606 0.567338 -2.08831 0
M  V30 894 C 84.2556 -2.771 -1.94938 0
M  V30 895 C 82.8146 -2.82963 -2.48212 0
M  V30 896 C 81.9616 -2.46972 -1.26096 0
M  V30 897 H 84.9126 -1.56329 -0.273289 0
M  V30 898 H 84.9336 -2.57892 -2.79771 0
M  V30 899 H 84.4456 -3.64959 -1.32009 0
M  V30 900 H 82.5466 -1.99411 -3.14748 0
M  V30 901 H 82.6596 -3.85406 -2.84603 0
M  V30 902 H 81.0236 -1.98994 -1.58976 0
M  V30 903 H 81.8066 -3.37118 -0.648581 0
M  V30 904 N 84.2517 0.741722 -1.39055 0
M  V30 905 C 85.6677 1.04638 -1.20512 0
M  V30 906 C 85.8677 2.01405 -0.0620218 0
M  V30 907 O 84.9237 2.45547 0.588457 0
M  V30 908 C 86.2367 1.6151 -2.53643 0
M  V30 909 C 87.7847 1.73623 -2.6043 0
M  V30 910 C 88.2597 2.33906 -3.93767 0
M  V30 911 N 89.7507 2.41323 -3.9537 0
M  V30 912 C 90.4857 2.88888 -4.95309 0
M  V30 913 N 89.9817 3.36401 -6.05645 0
M  V30 914 N 91.7747 2.88037 -4.82692 0
M  V30 915 H 83.9257 0.0998155 -2.12165 0
M  V30 916 H 86.1887 0.106907 -0.941953 0
M  V30 917 H 85.8947 0.978739 -3.37807 0
M  V30 918 H 85.7687 2.60411 -2.72885 0
M  V30 919 H 88.1557 2.36384 -1.76655 0
M  V30 920 H 88.2367 0.733945 -2.45045 0
M  V30 921 H 87.8807 1.71776 -4.7797 0
M  V30 922 H 87.8107 3.34799 -4.06469 0
M  V30 923 H 90.3017 2.07734 -3.15682 0
M  V30 924 H 90.6147 3.71186 -6.77821 0
M  V30 925 H 88.9597 3.34427 -6.09248 0
M  V30 926 H 92.1507 2.50237 -3.95599 0
M  V30 927 H 92.3237 3.24792 -5.60726 0
M  V30 928 N 85.7298 1.2412 0.971189 0
M  V30 929 C 86.9778 1.07668 1.71032 0
M  V30 930 C 87.2988 -0.385797 1.91146 0
M  V30 931 O 86.5688 -1.27569 1.4867 0
M  V30 932 H 85.1488 0.395429 0.633755 0
M  V30 933 H 87.8108 1.55984 1.16855 0
M  V30 934 H 86.9068 1.57195 2.69622 0
M  V30 935 N 87.2079 -1.17134 1.05439 0
M  V30 936 C 88.1559 -2.23289 0.651511 0
M  V30 937 C 89.1499 -1.66186 -0.328411 0
M  V30 938 O 90.3559 -1.78949 -0.194206 0
M  V30 939 H 86.7309 -0.726938 0.192523 0
M  V30 940 H 88.7019 -2.54565 1.55689 0
M  V30 941 C 87.4509 -3.47671 0.0448436 0
M  V30 942 H 86.7739 -3.91918 0.78996 0
M  V30 943 H 88.2139 -4.2353 -0.19964 0
M  V30 944 C 86.6729 -3.14453 -1.20918 0
M  V30 945 O 87.2029 -3.29459 -2.29825 0
M  V30 946 N 85.4089 -2.68657 -1.10779 0
M  V30 947 H 84.9559 -2.56646 -0.221526 0
M  V30 948 H 84.9139 -2.46804 -1.9477 0
M  V30 949 N 88.686 -0.835752 -1.33615 0
M  V30 950 C 89.934 -0.429109 -1.97492 0
M  V30 951 C 90.255 1.01433 -1.66543 0
M  V30 952 O 89.525 1.70611 -0.962744 0
M  V30 953 H 88.105 -0.155686 -0.730596 0
M  V30 954 H 90.767 -1.06802 -1.63031 0
M  V30 955 H 89.863 -0.55861 -3.0706 0
M  V30 956 N 90.1641 1.46063 -0.591896 0
M  V30 957 C 91.5751 1.85944 -0.167822 0
M  V30 958 C 91.9261 1.49429 1.27143 0
M  V30 959 O 91.0511 0.913515 1.96173 0
M  V30 960 C 91.6461 3.37489 -0.297794 0
M  V30 961 C 90.2051 3.76332 0.0714732 0
M  V30 962 C 89.3521 2.7006 -0.629509 0
M  V30 963 H 92.3031 1.37087 -0.799555 0
M  V30 964 H 92.3241 3.77532 0.474349 0
M  V30 965 H 91.8361 3.64034 -1.3454 0
M  V30 966 H 89.9371 3.55405 1.11886 0
M  V30 967 H 90.0501 4.78088 -0.311245 0
M  V30 968 H 88.4141 2.54607 -0.0687867 0
M  V30 969 H 89.1971 2.99444 -1.67894 0
M  V30 970 N 91.6422 0.330177 1.54103 0
M  V30 971 C 92.8722 -0.271784 2.04805 0
M  V30 972 C 93.2802 -1.45816 1.20559 0
M  V30 973 O 92.6232 -1.82247 0.2306 0
M  V30 974 C 92.6852 -0.763238 3.51305 0
M  V30 975 C 92.3492 0.301705 4.56003 0
M  V30 976 C 93.3462 1.13999 5.07248 0
M  V30 977 C 91.0312 0.451793 5.00264 0
M  V30 978 C 93.0252 2.11402 6.01322 0
M  V30 979 C 90.7122 1.42924 5.94151 0
M  V30 980 C 91.7102 2.25882 6.44567 0
M  V30 981 O 91.3982 3.21965 7.3661 0
M  V30 982 H 91.1302 -0.058693 0.673447 0
M  V30 983 H 93.6842 0.476395 1.99799 0
M  V30 984 H 91.9142 -1.56244 3.5373 0
M  V30 985 H 93.6032 -1.28427 3.85047 0
M  V30 986 H 94.3692 1.03505 4.73827 0
M  V30 987 H 90.2482 -0.184044 4.60632 0
M  V30 988 H 93.7922 2.76192 6.40596 0
M  V30 989 H 89.6892 1.53479 6.26988 0
M  V30 990 H 90.4572 3.17281 7.54503 0
M  V30 991 N 93.1203 -1.57491 0.0584922 0
M  V30 992 C 94.3453 -1.97711 -0.62652 0
M  V30 993 C 94.7703 -0.936132 -1.63151 0
M  V30 994 O 94.1283 0.099811 -1.81025 0
M  V30 995 C 94.1763 -3.36989 -1.28338 0
M  V30 996 O 93.2803 -3.35433 -2.39913 0
M  V30 997 H 92.6213 -0.643868 -0.162266 0
M  V30 998 H 95.1513 -2.04193 0.129064 0
M  V30 999 H 95.1613 -3.73879 -1.63335 0
M  V30 1000 H 93.8363 -4.12289 -0.546889 0
M  V30 1001 H 92.4133 -3.10298 -2.06809 0
M  V30 1002 N 94.5984 0.214957 -1.56127 0
M  V30 1003 C 95.8444 0.939762 -1.79712 0
M  V30 1004 C 96.1774 1.83723 -0.629247 0
M  V30 1005 O 95.4524 1.90925 0.371197 0
M  V30 1006 C 95.7354 1.77306 -3.13424 0
M  V30 1007 C 95.5884 0.90164 -4.40671 0
M  V30 1008 C 96.9074 2.74956 -3.43638 0
M  V30 1009 H 94.0264 0.340214 -0.653776 0
M  V30 1010 H 96.6684 0.20824 -1.88855 0
M  V30 1011 H 94.8184 2.39673 -3.0576 0
M  V30 1012 H 96.4904 0.294206 -4.60361 0
M  V30 1013 H 94.7334 0.207368 -4.33304 0
M  V30 1014 H 95.4044 1.51923 -5.30682 0
M  V30 1015 H 97.8804 2.22724 -3.51473 0
M  V30 1016 H 96.7564 3.30358 -4.38355 0
M  V30 1017 H 97.0174 3.53023 -2.66134 0
M  V30 1018 N 96.0765 1.50051 0.48192 0
M  V30 1019 C 97.3245 1.60181 1.23234 0
M  V30 1020 C 97.6455 0.299176 1.92691 0
M  V30 1021 O 96.9155 -0.682708 1.83619 0
M  V30 1022 H 95.4955 0.590232 0.457859 0
M  V30 1023 H 98.1575 1.86775 0.556881 0
M  V30 1024 H 97.2535 2.40753 1.98607 0
M  V30 1025 N 97.5546 -0.734337 1.39446 0
M  V30 1026 C 98.7946 -1.50655 1.38139 0
M  V30 1027 C 99.1586 -1.91986 -0.0228701 0
M  V30 1028 O 100.36 -2.68318 -0.160947 0
M  V30 1029 C 98.6306 -2.71251 2.32718 0
M  V30 1030 S 100.19 -3.60892 2.49605 0
M  V30 1031 H 97.0076 -0.515315 0.489869 0
M  V30 1032 H 99.6096 -0.860392 1.75549 0
M  V30 1033 H 98.3136 -2.39027 3.33608 0
M  V30 1034 H 97.8446 -3.40795 1.96526 0
M  V30 1035 H 99.8596 -4.64899 1.73446 0
M  V30 1036 N 99.0327 -1.24633 -0.964593 0
M  V30 1037 C 100.261 -1.11501 -1.74285 0
M  V30 1038 C 100.676 0.332165 -1.85855 0
M  V30 1039 O 100.033 1.22903 -1.34911 0
M  V30 1040 C 100.084 -1.75258 -3.16175 0
M  V30 1041 O 99.8047 -3.14318 -3.05182 0
M  V30 1042 C 101.306 -1.67776 -4.10324 0
M  V30 1043 H 98.5257 -0.389407 -0.546446 0
M  V30 1044 H 101.07 -1.64801 -1.21083 0
M  V30 1045 H 99.2247 -1.25954 -3.66353 0
M  V30 1046 H 99.6387 -3.4551 -3.94618 0
M  V30 1047 H 101.113 -2.17064 -5.0753 0
M  V30 1048 H 101.59 -0.639584 -4.34518 0
M  V30 1049 H 102.196 -2.16522 -3.66058 0
M  V30 1050 N 100.511 1.16574 -1.06058 0
M  V30 1051 C 101.788 1.83048 -0.689416 0
M  V30 1052 C 102.168 1.94122 0.829443 0
M  V30 1053 O 101.516 1.48249 1.7388 0
M  V30 1054 C 101.726 3.20186 -1.38859 0
M  V30 1055 C 103.074 3.95989 -1.53226 0
M  V30 1056 O 104.098 3.29696 -1.3483 0
M  V30 1057 O 102.957 5.14813 -1.83384 0
M  V30 1058 H 100.051 0.790258 -0.243764 0
M  V30 1059 H 102.597 1.23797 -1.16071 0
M  V30 1060 H 101.369 3.07146 -2.4244 0
M  V30 1061 H 100.992 3.87112 -0.907216 0
M  V30 1062 N 101.989 0.842826 1.3317 0
M  V30 1063 C 102.919 0.294028 2.31641 0
M  V30 1064 C 103.9 -0.600401 1.59151 0
M  V30 1065 O 105.085 -0.523124 1.87022 0
M  V30 1066 C 102.215 -0.528416 3.43257 0
M  V30 1067 C 101.169 0.27056 4.27144 0
M  V30 1068 C 100.495 -0.675881 5.30411 0
M  V30 1069 C 101.795 1.48981 5.00602 0
M  V30 1070 H 103.489 1.11681 2.77791 0
M  V30 1071 H 101.035 0.538478 1.33553 0
M  V30 1072 H 102.988 -0.922674 4.11175 0
M  V30 1073 H 101.712 -1.38445 2.95805 0
M  V30 1074 H 100.371 0.646427 3.60856 0
M  V30 1075 H 100.019 -1.52842 4.79216 0
M  V30 1076 H 99.7189 -0.145374 5.8742 0
M  V30 1077 H 101.243 -1.06757 6.01195 0
M  V30 1078 H 102.657 1.16849 5.61266 0
M  V30 1079 H 101.054 1.95739 5.6728 0
M  V30 1080 H 102.124 2.25746 4.29147 0
M  V30 1081 N 103.467 -1.45747 0.599634 0
M  V30 1082 C 104.4 -2.27547 -0.172552 0
M  V30 1083 C 105.378 -1.36657 -0.881116 0
M  V30 1084 O 106.562 -1.66081 -0.891595 0
M  V30 1085 C 103.689 -3.14829 -1.24903 0
M  V30 1086 C 102.735 -4.21603 -0.644465 0
M  V30 1087 S 103.568 -5.32754 0.541606 0
M  V30 1088 C 104.724 -6.23604 -0.535656 0
M  V30 1089 H 104.957 -2.92691 0.521468 0
M  V30 1090 H 102.49 -1.49473 0.386947 0
M  V30 1091 H 104.448 -3.65675 -1.86527 0
M  V30 1092 H 103.109 -2.48965 -1.91508 0
M  V30 1093 H 102.302 -4.82566 -1.45417 0
M  V30 1094 H 101.904 -3.73857 -0.103534 0
M  V30 1095 H 104.196 -6.62519 -1.41686 0
M  V30 1096 H 105.139 -7.0809 0.0376246 0
M  V30 1097 H 105.547 -5.58103 -0.84741 0
M  V30 1098 N 104.945 -0.338344 -1.53925 0
M  V30 1099 C 106.192 0.259758 -2.00827 0
M  V30 1100 C 106.52 1.50973 -1.22628 0
M  V30 1101 O 105.775 1.93379 -0.300509 0
M  V30 1102 C 106.074 0.62448 -3.51902 0
M  V30 1103 C 105.74 -0.528006 -4.47798 0
M  V30 1104 C 104.402 -0.844298 -4.73735 0
M  V30 1105 C 106.754 -1.30143 -5.0469 0
M  V30 1106 C 104.082 -1.93648 -5.53821 0
M  V30 1107 C 106.434 -2.38382 -5.85967 0
M  V30 1108 C 105.098 -2.70576 -6.10201 0
M  V30 1109 H 104.368 0.0950523 -0.734878 0
M  V30 1110 H 107.015 -0.465182 -1.85764 0
M  V30 1111 H 105.32 1.43006 -3.64769 0
M  V30 1112 H 107.017 1.09905 -3.85645 0
M  V30 1113 H 103.607 -0.271421 -4.2774 0
M  V30 1114 H 107.791 -1.07033 -4.84621 0
M  V30 1115 H 103.047 -2.19021 -5.70824 0
M  V30 1116 H 107.221 -2.98746 -6.29066 0
M  V30 1117 H 104.848 -3.55333 -6.72044 0
M  V30 1118 N 106.423 1.57458 -0.0668435 0
M  V30 1119 C 107.7 1.8469 0.644132 0
M  V30 1120 C 108.08 0.958343 1.88093 0
M  V30 1121 O 107.428 0.0233579 2.28488 0
M  V30 1122 C 107.638 3.34767 0.986509 0
M  V30 1123 C 108.986 4.02159 1.36212 0
M  V30 1124 O 110.01 3.39484 1.07839 0
M  V30 1125 O 108.869 5.12694 1.89227 0
M  V30 1126 H 105.963 0.762816 0.319437 0
M  V30 1127 H 108.509 1.6942 -0.0973986 0
M  V30 1128 H 107.281 3.91151 0.107883 0
M  V30 1129 H 106.904 3.55281 1.78497 0
M  V30 1130 N 107.901 -0.206675 1.56239 0
M  V30 1131 C 108.851 -1.26 1.90021 0
M  V30 1132 C 109.835 -1.41566 0.764721 0
M  V30 1133 O 111.027 -1.44131 1.02739 0
M  V30 1134 C 108.156 -2.6073 2.23326 0
M  V30 1135 C 107.242 -2.49005 3.43304 0
M  V30 1136 N 107.633 -2.06946 4.61527 0
M  V30 1137 C 105.931 -2.79927 3.47213 0
M  V30 1138 C 106.632 -2.06832 5.43687 0
M  V30 1139 N 105.608 -2.47892 4.83788 0
M  V30 1140 H 109.41 -0.925955 2.78932 0
M  V30 1141 H 106.924 -0.415172 1.57003 0
M  V30 1142 H 108.921 -3.36798 2.45708 0
M  V30 1143 H 107.581 -2.94968 1.35735 0
M  V30 1144 H 108.592 -1.77839 4.86409 0
M  V30 1145 H 105.269 -3.18438 2.70006 0
M  V30 1146 H 106.659 -1.76312 6.48354 0
M  V30 1147 N 109.379 -1.50304 -0.473955 0
M  V30 1148 C 110.607 -1.64902 -1.24959 0
M  V30 1149 C 111.022 -0.331198 -1.85872 0
M  V30 1150 O 110.379 0.68652 -1.69095 0
M  V30 1151 C 110.43 -2.73803 -2.36038 0
M  V30 1152 O 110.151 -4.00477 -1.77624 0
M  V30 1153 C 111.652 -2.99349 -3.26964 0
M  V30 1154 H 108.872 -0.554383 -0.378022 0
M  V30 1155 H 111.416 -1.9651 -0.566054 0
M  V30 1156 H 109.571 -2.44898 -3.00173 0
M  V30 1157 H 109.985 -4.60678 -2.5075 0
M  V30 1158 H 111.459 -3.79217 -4.01121 0
M  V30 1159 H 111.936 -2.10307 -3.85574 0
M  V30 1160 H 112.542 -3.29774 -2.68569 0
M  V30 1161 N 110.857 0.726932 -1.39834 0
M  V30 1162 C 111.805 1.86235 -1.39353 0
M  V30 1163 C 112.799 1.67144 -0.275555 0
M  V30 1164 O 114.005 1.74387 -0.44601 0
M  V30 1165 H 110.38 0.613174 -0.43534 0
M  V30 1166 H 112.351 1.83756 -2.35109 0
M  V30 1167 C 111.1 3.23995 -1.26185 0
M  V30 1168 H 110.423 3.39285 -2.11484 0
M  V30 1169 H 111.863 4.03609 -1.29907 0
M  V30 1170 C 110.322 3.36888 0.0290018 0
M  V30 1171 O 110.852 3.89152 0.99619 0
M  V30 1172 N 109.058 2.90446 0.0947437 0
M  V30 1173 H 108.605 2.48102 -0.693035 0
M  V30 1174 H 108.563 2.99451 0.957932 0
M  V30 1175 N 112.336 1.25143 0.95797 0
M  V30 1176 C 113.283 1.05235 2.05412 0
M  V30 1177 C 114.253 -0.0374561 1.66058 0
M  V30 1178 O 115.438 0.119073 1.90428 0
M  V30 1179 C 112.578 0.673589 3.38462 0
M  V30 1180 C 111.691 1.8379 3.90954 0
M  V30 1181 C 110.826 1.40381 5.12315 0
M  V30 1182 C 109.865 2.53746 5.57027 0
M  V30 1183 N 109.002 2.11136 6.69601 0
M  V30 1184 H 113.842 1.99048 2.21774 0
M  V30 1185 H 111.379 0.991277 1.08683 0
M  V30 1186 H 113.337 0.434964 4.14926 0
M  V30 1187 H 111.967 -0.227554 3.21997 0
M  V30 1188 H 111.019 2.18992 3.11041 0
M  V30 1189 H 112.331 2.68937 4.20089 0
M  V30 1190 H 111.485 1.12464 5.96185 0
M  V30 1191 H 110.224 0.523015 4.84887 0
M  V30 1192 H 109.229 2.82412 4.71724 0
M  V30 1193 H 110.454 3.42398 5.86464 0
M  V30 1194 H 108.4 1.25468 6.4389 0
M  V30 1195 H 108.317 2.89832 6.98236 0
M  V30 1196 H 109.585 1.86385 7.56889 0
M  V30 1197 N 113.814 -1.1601 1.06675 0
M  V30 1198 C 115.062 -1.86264 0.784229 0
M  V30 1199 C 115.383 -1.82328 -0.691488 0
M  V30 1200 O 114.653 -1.25947 -1.50047 0
M  V30 1201 H 113.233 -0.689621 0.28711 0
M  V30 1202 H 115.895 -1.40664 1.34906 0
M  V30 1203 H 114.991 -2.91595 1.11259 0
M  V30 1204 N 115.292 -0.849877 -1.32721 0
M  V30 1205 C 116.52 -0.464754 -2.01613 0
M  V30 1206 C 116.935 0.937191 -1.63897 0
M  V30 1207 O 116.292 1.61081 -0.857856 0
M  V30 1208 C 116.343 -0.588638 -3.56675 0
M  V30 1209 O 116.064 -1.93535 -3.93034 0
M  V30 1210 C 117.565 -0.2019 -4.4284 0
M  V30 1211 H 114.785 -0.183215 -0.645502 0
M  V30 1212 H 117.329 -1.1455 -1.69407 0
M  V30 1213 H 115.484 0.0443159 -3.87375 0
M  V30 1214 H 115.898 -1.92871 -4.87751 0
M  V30 1215 H 117.372 -0.339599 -5.50954 0
M  V30 1216 H 117.849 0.857224 -4.30753 0
M  V30 1217 H 118.455 -0.809733 -4.17521 0
M  V30 1218 N 116.77 1.45427 -0.607355 0
M  V30 1219 C 118.017 2.02241 -0.102455 0
M  V30 1220 C 118.345 1.4758 1.26691 0
M  V30 1221 O 117.6 0.640468 1.84923 0
M  V30 1222 C 117.899 3.57398 -0.0129263 0
M  V30 1223 C 117.565 4.3121 -1.31792 0
M  V30 1224 C 116.227 4.51092 -1.67539 0
M  V30 1225 C 118.579 4.73401 -2.18039 0
M  V30 1226 C 115.907 5.10422 -2.89285 0
M  V30 1227 C 118.259 5.34078 -3.39034 0
M  V30 1228 C 116.923 5.52184 -3.75033 0
M  V30 1229 H 116.193 0.740051 -0.037491 0
M  V30 1230 H 118.84 1.74494 -0.788926 0
M  V30 1231 H 117.145 3.84421 0.756806 0
M  V30 1232 H 118.842 3.99061 0.393881 0
M  V30 1233 H 115.432 4.16047 -1.02968 0
M  V30 1234 H 119.616 4.57774 -1.91721 0
M  V30 1235 H 114.872 5.22629 -3.17283 0
M  V30 1236 H 119.046 5.65724 -4.06115 0
M  V30 1237 H 116.673 5.97925 -4.69457 0
M  V30 1238 N 118.248 0.346503 1.53744 0
M  V30 1239 C 119.178 -0.501193 2.28058 0
M  V30 1240 C 120.159 -1.10014 1.29734 0
M  V30 1241 O 121.344 -1.12097 1.58581 0
M  V30 1242 C 118.474 -1.65078 3.05559 0
M  V30 1243 C 117.428 -1.18003 4.11411 0
M  V30 1244 C 116.754 -2.41837 4.76884 0
M  V30 1245 C 118.054 -0.278394 5.21558 0
M  V30 1246 H 119.748 0.11875 2.99164 0
M  V30 1247 H 117.294 0.0585531 1.43881 0
M  V30 1248 H 119.247 -2.25028 3.56287 0
M  V30 1249 H 117.971 -2.29767 2.32109 0
M  V30 1250 H 116.63 -0.603331 3.61601 0
M  V30 1251 H 116.278 -3.0494 4.00026 0
M  V30 1252 H 115.978 -2.1102 5.48402 0
M  V30 1253 H 117.502 -3.02508 5.30397 0
M  V30 1254 H 118.916 -0.784823 5.67903 0
M  V30 1255 H 117.313 -0.0619707 6.00068 0
M  V30 1256 H 118.383 0.684677 4.80042 0
M  V30 1257 N 119.726 -1.57421 0.075193 0
M  V30 1258 C 121.142 -1.57099 -0.281444 0
M  V30 1259 C 121.342 -1.08486 -1.69803 0
M  V30 1260 O 120.398 -0.752279 -2.41033 0
M  V30 1261 C 121.711 -3.00571 -0.0880041 0
M  V30 1262 C 123.259 -3.12605 -0.157281 0
M  V30 1263 C 123.734 -4.57999 0.0079207 0
M  V30 1264 N 125.225 -4.63176 -0.0475725 0
M  V30 1265 C 125.96 -5.73373 0.0557876 0
M  V30 1266 N 125.456 -6.92473 0.21286 0
M  V30 1267 N 127.249 -5.621 -0.00152098 0
M  V30 1268 H 119.4 -1.87335 1.00098 0
M  V30 1269 H 121.663 -0.86377 0.390646 0
M  V30 1270 H 121.369 -3.40262 0.889629 0
M  V30 1271 H 121.243 -3.67754 -0.838875 0
M  V30 1272 H 123.63 -2.72798 -1.1254 0
M  V30 1273 H 123.711 -2.48053 0.62475 0
M  V30 1274 H 123.355 -4.98496 0.972824 0
M  V30 1275 H 123.285 -5.20586 -0.793556 0
M  V30 1276 H 125.776 -3.7753 -0.167244 0
M  V30 1277 H 126.089 -7.72279 0.283781 0
M  V30 1278 H 124.434 -6.94556 0.248267 0
M  V30 1279 H 127.625 -4.67938 -0.122958 0
M  V30 1280 H 127.798 -6.47948 0.0824844 0
M  V30 1281 N 121.204 0.198386 -1.56346 0
M  V30 1282 C 122.134 1.24865 -1.9731 0
M  V30 1283 C 123.115 1.47651 -0.844576 0
M  V30 1284 O 124.3 1.59444 -1.10866 0
M  V30 1285 C 121.43 2.59358 -2.30977 0
M  V30 1286 C 120.384 2.5119 -3.46537 0
M  V30 1287 C 119.71 3.89926 -3.65871 0
M  V30 1288 C 121.01 2.03977 -4.80823 0
M  V30 1289 H 122.704 0.908252 -2.85291 0
M  V30 1290 H 120.25 0.435462 -1.37258 0
M  V30 1291 H 122.203 3.33011 -2.58228 0
M  V30 1292 H 120.927 2.95132 -1.39874 0
M  V30 1293 H 119.586 1.79993 -3.19371 0
M  V30 1294 H 119.234 4.23046 -2.72105 0
M  V30 1295 H 118.934 3.85336 -4.4361 0
M  V30 1296 H 120.458 4.65205 -3.95495 0
M  V30 1297 H 121.872 2.67386 -5.07127 0
M  V30 1298 H 120.269 2.10397 -5.62008 0
M  V30 1299 H 121.339 0.992861 -4.74626 0
M  V30 1300 N 122.682 1.50554 0.465978 0
M  V30 1301 C 123.912 1.65323 1.23903 0
M  V30 1302 C 124.32 0.338051 1.86155 0
M  V30 1303 O 123.663 -0.690518 1.70228 0
M  V30 1304 C 123.725 2.69048 2.3844 0
M  V30 1305 C 123.389 4.12462 1.96784 0
M  V30 1306 C 124.386 4.98168 1.48745 0
M  V30 1307 C 122.071 4.58407 2.05349 0
M  V30 1308 C 124.065 6.27868 1.0982 0
M  V30 1309 C 121.752 5.88112 1.66035 0
M  V30 1310 C 122.75 6.72668 1.18349 0
M  V30 1311 O 122.438 7.99951 0.795825 0
M  V30 1312 H 122.17 0.558629 0.38067 0
M  V30 1313 H 124.724 1.97561 0.562022 0
M  V30 1314 H 122.954 2.32062 3.09328 0
M  V30 1315 H 124.643 2.72985 3.0039 0
M  V30 1316 H 125.409 4.63885 1.41546 0
M  V30 1317 H 121.288 3.92735 2.41414 0
M  V30 1318 H 124.832 6.93819 0.725293 0
M  V30 1319 H 120.729 6.21914 1.72895 0
M  V30 1320 H 121.497 8.13265 0.924222 0
M  V30 1321 N 124.16 -0.719506 1.40217 0
M  V30 1322 C 125.39 -1.50646 1.41384 0
M  V30 1323 C 125.798 -1.89197 0.0107743 0
M  V30 1324 O 125.141 -1.55709 -0.974708 0
M  V30 1325 C 125.203 -2.81405 2.23722 0
M  V30 1326 C 124.867 -2.65199 3.72181 0
M  V30 1327 C 125.864 -2.32717 4.64907 0
M  V30 1328 C 123.549 -2.81586 4.1595 0
M  V30 1329 C 125.543 -2.16827 5.99387 0
M  V30 1330 C 123.23 -2.65313 5.50502 0
M  V30 1331 C 124.228 -2.32981 6.42035 0
M  V30 1332 O 123.916 -2.16827 7.74107 0
M  V30 1333 H 123.648 -0.471606 0.484318 0
M  V30 1334 H 126.202 -0.895456 1.84853 0
M  V30 1335 H 124.432 -3.44823 1.75026 0
M  V30 1336 H 126.121 -3.43102 2.16878 0
M  V30 1337 H 126.887 -2.19694 4.32388 0
M  V30 1338 H 122.766 -3.0574 3.45027 0
M  V30 1339 H 126.31 -1.91513 6.70797 0
M  V30 1340 H 122.207 -2.7792 5.82607 0
M  V30 1341 H 122.975 -2.31778 7.84998 0
M  V30 1342 N 125.638 -1.25649 -0.95132 0
M  V30 1343 C 127.049 -1.09654 -1.51106 0
M  V30 1344 C 127.4 0.326615 -1.93462 0
M  V30 1345 O 126.525 1.21697 -1.78938 0
M  V30 1346 C 127.12 -1.98437 -2.74605 0
M  V30 1347 C 125.679 -1.86618 -3.2688 0
M  V30 1348 C 124.826 -1.9239 -1.99703 0
M  V30 1349 H 127.777 -1.38887 -0.767865 0
M  V30 1350 H 127.798 -1.5263 -3.48546 0
M  V30 1351 H 127.31 -3.02009 -2.43746 0
M  V30 1352 H 125.411 -0.859421 -3.62553 0
M  V30 1353 H 125.524 -2.71607 -3.94673 0
M  V30 1354 H 123.888 -1.36317 -2.15151 0
M  V30 1355 H 124.671 -2.97573 -1.71188 0
M  V30 1356 N 127.117 1.15442 -1.07289 0
M  V30 1357 C 128.342 1.90638 -0.816828 0
M  V30 1358 C 128.767 1.77445 0.624083 0
M  V30 1359 O 128.125 1.10671 1.43602 0
M  V30 1360 C 128.173 3.39008 -1.22906 0
M  V30 1361 O 127.277 4.10701 -0.373975 0
M  V30 1362 H 126.618 0.593555 -0.297638 0
M  V30 1363 H 129.148 1.46198 -1.43134 0
M  V30 1364 H 129.158 3.89801 -1.20497 0
M  V30 1365 H 127.833 3.47929 -2.27856 0
M  V30 1366 H 126.41 3.70046 -0.460499 0
M  V30 1367 N 128.595 0.856903 1.32268 0
M  V30 1368 C 129.527 0.260412 2.27716 0
M  V30 1369 C 130.54 -0.569137 1.52528 0
M  V30 1370 O 131.729 -0.39326 1.74114 0
M  V30 1371 C 128.829 -0.650477 3.32599 0
M  V30 1372 C 128.002 0.14372 4.37164 0
M  V30 1373 C 127.061 -0.69328 5.21613 0
M  V30 1374 O 126.087 -0.12599 5.69061 0
M  V30 1375 N 127.289 -2.00761 5.44679 0
M  V30 1376 H 130.054 1.08059 2.79541 0
M  V30 1377 H 127.615 0.717103 1.45152 0
M  V30 1378 H 129.607 -1.21581 3.86005 0
M  V30 1379 H 128.177 -1.37133 2.80915 0
M  V30 1380 H 127.397 0.890486 3.8401 0
M  V30 1381 H 128.685 0.68915 5.04111 0
M  V30 1382 H 128.083 -2.49181 5.07863 0
M  V30 1383 H 126.64 -2.52103 6.01072 0
M  V30 1384 N 130.073 -1.45103 0.615059 0
M  V30 1385 C 131.35 -1.95549 0.0448276 0
M  V30 1386 C 131.73 -1.55737 -1.4251 0
M  V30 1387 O 131.078 -0.823556 -2.13143 0
M  V30 1388 C 131.288 -3.48098 0.250785 0
M  V30 1389 C 132.636 -4.24384 0.135509 0
M  V30 1390 O 133.66 -3.55738 0.181299 0
M  V30 1391 O 132.519 -5.46493 0.0268878 0
M  V30 1392 H 129.613 -0.8264 -0.0314845 0
M  V30 1393 H 132.159 -1.55232 0.685642 0
M  V30 1394 H 130.931 -3.7007 1.27139 0
M  V30 1395 H 130.554 -3.95323 -0.424937 0
M  V30 1396 N 131.551 -0.354651 -1.53558 0
M  V30 1397 C 132.499 0.512195 -2.26891 0
M  V30 1398 C 133.493 1.09263 -1.29452 0
M  V30 1399 O 134.699 1.03709 -1.47121 0
M  V30 1400 H 131.074 0.183878 -0.729173 0
M  V30 1401 H 133.045 -0.128202 -2.98124 0
M  V30 1402 C 131.794 1.64563 -3.06291 0
M  V30 1403 H 131.117 1.20829 -3.81104 0
M  V30 1404 H 132.557 2.22711 -3.60799 0
M  V30 1405 C 131.016 2.58158 -2.16462 0
M  V30 1406 O 131.546 3.60695 -1.76811 0
M  V30 1407 N 129.752 2.27096 -1.81317 0
M  V30 1408 H 129.299 1.43751 -2.1376 0
M  V30 1409 H 129.257 2.89975 -1.21498 0
M  V30 1410 N 133.029 1.57378 -0.0835403 0
M  V30 1411 C 134.306 1.85363 0.624507 0
M  V30 1412 C 134.686 0.978239 1.87066 0
M  V30 1413 O 134.034 0.0475908 2.2845 0
M  V30 1414 C 134.244 3.35795 0.950947 0
M  V30 1415 C 135.592 4.03581 1.31939 0
M  V30 1416 O 136.616 3.40609 1.04232 0
M  V30 1417 O 135.475 5.14672 1.83779 0
M  V30 1418 H 132.569 0.766162 0.311329 0
M  V30 1419 H 135.115 1.69307 -0.115362 0
M  V30 1420 H 133.887 3.91244 0.0663899 0
M  V30 1421 H 133.51 3.57154 1.74719 0
M  V30 1422 N 134.507 -0.190092 1.56449 0
M  V30 1423 C 135.923 -0.54113 1.50146 0
M  V30 1424 C 136.123 -1.85603 0.784465 0
M  V30 1425 O 135.179 -2.5024 0.337051 0
M  V30 1426 C 136.492 -0.591241 2.9483 0
M  V30 1427 C 138.04 -0.679732 3.0553 0
M  V30 1428 C 138.515 -0.760908 4.51635 0
M  V30 1429 N 140.006 -0.824302 4.55806 0
M  V30 1430 C 140.741 -0.907365 5.66175 0
M  V30 1431 N 140.237 -0.952422 6.86222 0
M  V30 1432 N 142.03 -0.94494 5.541 0
M  V30 1433 H 134.181 0.67235 2.01478 0
M  V30 1434 H 136.444 0.240127 0.917084 0
M  V30 1435 H 136.15 0.305905 3.50367 0
M  V30 1436 H 136.024 -1.44422 3.48457 0
M  V30 1437 H 138.411 -1.56731 2.50039 0
M  V30 1438 H 138.492 0.199549 2.5502 0
M  V30 1439 H 138.136 0.122336 5.07753 0
M  V30 1440 H 138.066 -1.65606 4.99882 0
M  V30 1441 H 140.557 -0.798526 3.69367 0
M  V30 1442 H 140.87 -1.01645 7.66086 0
M  V30 1443 H 139.215 -0.921014 6.8887 0
M  V30 1444 H 142.406 -0.906612 4.59236 0
M  V30 1445 H 142.579 -1.00622 6.4014 0
M  V30 1446 N 135.985 -1.50799 -0.457987 0
M  V30 1447 C 136.915 -1.73553 -1.5621 0
M  V30 1448 C 137.896 -0.584774 -1.59732 0
M  V30 1449 O 139.081 -0.825314 -1.7579 0
M  V30 1450 C 136.211 -1.84169 -2.94447 0
M  V30 1451 C 135.165 -2.99461 -3.0579 0
M  V30 1452 C 134.491 -2.95235 -4.45803 0
M  V30 1453 C 135.791 -4.39766 -2.81786 0
M  V30 1454 H 137.485 -2.66 -1.37421 0
M  V30 1455 H 135.031 -1.28002 -0.659662 0
M  V30 1456 H 136.984 -1.98672 -3.71628 0
M  V30 1457 H 135.708 -0.883545 -3.14422 0
M  V30 1458 H 134.367 -2.8463 -2.31044 0
M  V30 1459 H 134.015 -1.97239 -4.62715 0
M  V30 1460 H 133.715 -3.72642 -4.54326 0
M  V30 1461 H 135.239 -3.11803 -5.24987 0
M  V30 1462 H 136.653 -4.55054 -3.4871 0
M  V30 1463 H 135.05 -5.18722 -3.0174 0
M  V30 1464 H 136.12 -4.51229 -1.7754 0
M  V30 1465 N 137.463 0.71206 -1.40597 0
M  V30 1466 C 138.74 1.46536 -1.29563 0
M  V30 1467 C 139.12 2.10931 0.0844217 0
M  V30 1468 O 138.468 2.00418 1.0975 0
M  V30 1469 C 138.678 2.49821 -2.43701 0
M  V30 1470 C 140.026 3.15551 -2.841 0
M  V30 1471 O 141.05 2.60142 -2.4332 0
M  V30 1472 O 139.909 4.15867 -3.54566 0
M  V30 1473 H 137.003 0.651801 -0.509004 0
M  V30 1474 H 139.549 0.743935 -1.52524 0
M  V30 1475 H 138.321 2.00778 -3.35863 0
M  V30 1476 H 137.944 3.29495 -2.22528 0
M  V30 1477 N 138.941 1.26152 0.944643 0
M  V30 1478 C 140.169 1.14259 1.72489 0
M  V30 1479 C 140.584 -0.302555 1.8636 0
M  V30 1480 O 139.941 -1.20741 1.36849 0
M  V30 1481 C 139.992 1.80266 3.13347 0
M  V30 1482 O 139.713 3.19133 3.00143 0
M  V30 1483 C 141.214 1.74283 4.07603 0
M  V30 1484 H 138.434 0.398051 0.540181 0
M  V30 1485 H 140.978 1.66706 1.18446 0
M  V30 1486 H 139.133 1.31766 3.64303 0
M  V30 1487 H 139.547 3.51744 3.89071 0
M  V30 1488 H 141.021 2.25111 5.04013 0
M  V30 1489 H 141.498 0.708631 4.33446 0
M  V30 1490 H 142.104 2.22319 3.62567 0
M  V30 1491 N 140.419 -1.14872 1.07899 0
M  V30 1492 C 141.349 -2.2193 0.725887 0
M  V30 1493 C 142.33 -1.67622 -0.28927 0
M  V30 1494 O 143.515 -1.93533 -0.160787 0
M  V30 1495 C 140.645 -3.47061 0.128856 0
M  V30 1496 C 139.599 -4.14363 1.07178 0
M  V30 1497 C 138.925 -5.33636 0.337229 0
M  V30 1498 C 140.225 -4.63492 2.40775 0
M  V30 1499 H 141.919 -2.51724 1.62097 0
M  V30 1500 H 139.465 -1.20991 0.780838 0
M  V30 1501 H 141.418 -4.21199 -0.130147 0
M  V30 1502 H 140.142 -3.16617 -0.80134 0
M  V30 1503 H 138.801 -3.42173 1.3158 0
M  V30 1504 H 138.449 -4.99449 -0.596606 0
M  V30 1505 H 138.149 -5.79609 0.965788 0
M  V30 1506 H 139.673 -6.10539 0.0861567 0
M  V30 1507 H 141.087 -5.2913 2.20669 0
M  V30 1508 H 139.484 -5.20148 2.99276 0
M  V30 1509 H 140.554 -3.78834 3.02676 0
M  V30 1510 N 141.898 -0.863906 -1.31812 0
M  V30 1511 C 143.144 -0.481841 -1.9761 0
M  V30 1512 C 143.499 0.954048 -1.6708 0
M  V30 1513 O 142.792 1.66182 -0.953624 0
M  V30 1514 C 142.986 -0.668547 -3.51091 0
M  V30 1515 C 142.815 -2.12103 -3.96538 0
M  V30 1516 C 141.585 -2.76141 -4.23171 0
M  V30 1517 C 143.783 -3.09265 -4.10925 0
M  V30 1518 N 141.765 -4.12205 -4.54929 0
M  V30 1519 C 143.136 -4.30341 -4.46326 0
M  V30 1520 C 145.191 -3.05337 -3.93286 0
M  V30 1521 C 143.894 -5.48 -4.65928 0
M  V30 1522 C 145.92 -4.22248 -4.14078 0
M  V30 1523 C 145.282 -5.42085 -4.49804 0
M  V30 1524 H 141.381 -0.225238 -0.74886 0
M  V30 1525 H 143.965 -1.11723 -1.59455 0
M  V30 1526 H 142.136 -0.0627898 -3.88349 0
M  V30 1527 H 143.868 -0.255467 -4.03893 0
M  V30 1528 H 140.623 -2.27125 -4.15585 0
M  V30 1529 H 141.047 -4.82416 -4.74978 0
M  V30 1530 H 145.689 -2.138 -3.64759 0
M  V30 1531 H 143.407 -6.40059 -4.93305 0
M  V30 1532 H 146.993 -4.20654 -4.01922 0
M  V30 1533 H 145.873 -6.31044 -4.65567 0
M  V30 1534 N 143.376 1.44774 -0.622745 0
M  V30 1535 C 144.625 2.01334 -0.121397 0
M  V30 1536 C 144.938 1.49505 1.26125 0
M  V30 1537 O 146.144 1.98139 1.85616 0
M  V30 1538 C 144.6 3.59516 -0.166298 0
M  V30 1539 C 144.208 4.20342 -1.54974 0
M  V30 1540 C 145.952 4.23582 0.279021 0
M  V30 1541 C 143.859 5.70721 -1.55021 0
M  V30 1542 H 142.789 0.752851 -0.0416172 0
M  V30 1543 H 145.44 1.66083 -0.780309 0
M  V30 1544 H 143.822 3.92027 0.559557 0
M  V30 1545 H 144.996 3.99381 -2.29851 0
M  V30 1546 H 143.311 3.68529 -1.93843 0
M  V30 1547 H 145.908 5.33868 0.298083 0
M  V30 1548 H 146.251 3.95327 1.30471 0
M  V30 1549 H 146.784 3.95843 -0.394063 0
M  V30 1550 H 143.523 6.03698 -2.55399 0
M  V30 1551 H 143.043 5.93829 -0.844245 0
M  V30 1552 H 144.722 6.34203 -1.28047 0
M  V30 1553 N 144.854 0.36279 1.53368 0
M  V30 1554 C 146.265 -0.117022 1.86333 0
M  V30 1555 C 146.616 -1.48397 1.28347 0
M  V30 1556 O 145.741 -2.07787 0.604428 0
M  V30 1557 C 146.336 -0.21912 3.38091 0
M  V30 1558 C 144.895 -0.643184 3.70864 0
M  V30 1559 C 144.042 0.211318 2.76494 0
M  V30 1560 H 146.993 0.581687 1.47655 0
M  V30 1561 H 147.014 -1.04319 3.6592 0
M  V30 1562 H 146.526 0.775902 3.80265 0
M  V30 1563 H 144.627 -1.64654 3.34245 0
M  V30 1564 H 144.74 -0.41973 4.77258 0
M  V30 1565 H 143.104 -0.319367 2.5269 0
M  V30 1566 H 143.887 1.20383 3.21501 0
M  V30 1567 N 146.332 -1.57332 0.0918853 0
M  V30 1568 C 147.28 -2.15075 -0.885747 0
M  V30 1569 C 148.274 -1.09277 -1.29441 0
M  V30 1570 O 149.48 -1.27627 -1.26931 0
M  V30 1571 H 145.855 -0.687966 -0.303656 0
M  V30 1572 H 147.826 -2.96047 -0.373995 0
M  V30 1573 C 146.575 -2.74325 -2.13638 0
M  V30 1574 H 145.898 -3.55418 -1.8308 0
M  V30 1575 H 147.338 -3.183 -2.80109 0
M  V30 1576 C 145.797 -1.70062 -2.90827 0
M  V30 1577 O 146.327 -1.13763 -3.85254 0
M  V30 1578 N 144.533 -1.40628 -2.54307 0
M  V30 1579 H 144.08 -1.866 -1.7759 0
M  V30 1580 H 144.038 -0.711043 -3.06254 0
M  V30 1581 N 147.81 0.181792 -1.56548 0
M  V30 1582 C 148.757 1.22521 -1.95595 0
M  V30 1583 C 149.727 1.4454 -0.818373 0
M  V30 1584 O 150.912 1.57454 -1.07763 0
M  V30 1585 C 148.052 2.56193 -2.31212 0
M  V30 1586 C 147.165 2.41641 -3.58097 0
M  V30 1587 C 146.3 3.68108 -3.82975 0
M  V30 1588 C 145.339 3.48445 -5.03242 0
M  V30 1589 N 144.476 4.66956 -5.24306 0
M  V30 1590 H 149.316 0.885226 -2.84548 0
M  V30 1591 H 146.853 0.425718 -1.40805 0
M  V30 1592 H 148.811 3.34088 -2.49882 0
M  V30 1593 H 147.441 2.88208 -1.45382 0
M  V30 1594 H 146.493 1.54976 -3.474 0
M  V30 1595 H 147.805 2.23052 -4.46149 0
M  V30 1596 H 146.959 4.54441 -4.01956 0
M  V30 1597 H 145.698 3.89666 -2.93278 0
M  V30 1598 H 144.703 2.60499 -4.8417 0
M  V30 1599 H 145.928 3.2832 -5.9446 0
M  V30 1600 H 143.874 4.88752 -4.37559 0
M  V30 1601 H 143.791 4.51242 -6.06561 0
M  V30 1602 H 145.059 5.54602 -5.47756 0
M  V30 1603 N 149.288 1.51039 0.449983 0
M  V30 1604 C 150.198 1.74261 1.57067 0
M  V30 1605 C 151.214 0.626363 1.62335 0
M  V30 1606 O 152.39 0.907162 1.79812 0
M  V30 1607 C 149.455 1.85114 2.93144 0
M  V30 1608 C 148.516 3.0893 2.98095 0
M  V30 1609 C 147.749 3.19256 4.27681 0
M  V30 1610 O 147.972 2.35835 5.19363 0
M  V30 1611 O 146.906 4.12144 4.38658 0
M  V30 1612 H 150.732 2.69303 1.40391 0
M  V30 1613 H 148.317 1.35389 0.631688 0
M  V30 1614 H 150.199 1.94311 3.73926 0
M  V30 1615 H 148.874 0.932588 3.09975 0
M  V30 1616 H 147.781 3.0522 2.16314 0
M  V30 1617 H 149.114 4.00433 2.86206 0
M  V30 1618 N 150.766 -0.704594 1.40972 0
M  V30 1619 C 151.996 -1.49138 1.42974 0
M  V30 1620 C 152.404 -1.89175 0.0308406 0
M  V30 1621 O 151.747 -1.56734 -0.958138 0
M  V30 1622 C 151.809 -2.79016 2.26694 0
M  V30 1623 C 151.473 -2.61236 3.74973 0
M  V30 1624 C 152.47 -2.27773 4.67349 0
M  V30 1625 C 150.155 -2.77158 4.18914 0
M  V30 1626 C 152.149 -2.10457 6.01653 0
M  V30 1627 C 149.836 -2.59459 5.53285 0
M  V30 1628 C 150.834 -2.26158 6.4447 0
M  V30 1629 O 150.522 -2.08605 7.76363 0
M  V30 1630 H 150.254 -0.466443 0.489292 0
M  V30 1631 H 152.808 -0.8758 1.85793 0
M  V30 1632 H 151.038 -3.42947 1.78673 0
M  V30 1633 H 152.727 -3.40782 2.20504 0
M  V30 1634 H 153.493 -2.15095 4.34694 0
M  V30 1635 H 149.372 -3.02064 3.48251 0
M  V30 1636 H 152.916 -1.84387 6.72791 0
M  V30 1637 H 148.813 -2.71725 5.85522 0
M  V30 1638 H 149.581 -2.23439 7.87412 0
M  V30 1639 N 152.244 -1.26651 -0.937939 0
M  V30 1640 C 153.491 -1.12387 -1.6845 0
M  V30 1641 C 153.819 0.332208 -1.91642 0
M  V30 1642 O 153.074 1.2602 -1.49725 0
M  V30 1643 C 153.373 -1.84168 -3.06295 0
M  V30 1644 C 153.039 -3.34056 -3.02849 0
M  V30 1645 C 151.701 -3.74942 -3.01616 0
M  V30 1646 C 154.053 -4.29741 -2.9491 0
M  V30 1647 C 151.381 -5.09894 -2.90215 0
M  V30 1648 C 153.733 -5.64738 -2.8505 0
M  V30 1649 C 152.397 -6.0493 -2.82162 0
M  V30 1650 H 151.667 -0.411252 -0.616403 0
M  V30 1651 H 154.314 -1.57134 -1.09459 0
M  V30 1652 H 152.619 -1.319 -3.6893 0
M  V30 1653 H 154.316 -1.70569 -3.62915 0
M  V30 1654 H 150.906 -3.01534 -3.0459 0
M  V30 1655 H 155.09 -3.99133 -2.94969 0
M  V30 1656 H 150.346 -5.40194 -2.86358 0
M  V30 1657 H 154.52 -6.38561 -2.77872 0
M  V30 1658 H 152.147 -7.09457 -2.73084 0
M  V30 1659 N 153.722 1.14298 -1.08507 0
M  V30 1660 C 154.968 1.85854 -0.826438 0
M  V30 1661 C 155.323 1.81413 0.640878 0
M  V30 1662 O 154.616 1.23463 1.46518 0
M  V30 1663 C 154.81 3.33547 -1.28379 0
M  V30 1664 C 154.639 3.52369 -2.79403 0
M  V30 1665 C 153.409 3.67159 -3.47164 0
M  V30 1666 C 155.607 3.49203 -3.77573 0
M  V30 1667 N 153.589 3.74149 -4.86709 0
M  V30 1668 C 154.96 3.6245 -5.03021 0
M  V30 1669 C 157.015 3.32547 -3.70563 0
M  V30 1670 C 155.718 3.60761 -6.2229 0
M  V30 1671 C 157.744 3.32162 -4.89308 0
M  V30 1672 C 157.106 3.45949 -6.13595 0
M  V30 1673 H 153.205 0.696705 -0.355143 0
M  V30 1674 H 155.789 1.36981 -1.38362 0
M  V30 1675 H 153.96 3.81008 -0.754166 0
M  V30 1676 H 155.692 3.92867 -0.971469 0
M  V30 1677 H 152.447 3.68433 -2.9758 0
M  V30 1678 H 152.871 3.81359 -5.5937 0
M  V30 1679 H 157.513 3.20797 -2.75407 0
M  V30 1680 H 155.231 3.71286 -7.17755 0
M  V30 1681 H 158.817 3.20485 -4.85573 0
M  V30 1682 H 157.697 3.456 -7.03939 0
M  V30 1683 N 155.201 0.870884 1.31352 0
M  V30 1684 C 156.449 0.48132 1.96285 0
M  V30 1685 C 156.77 -0.969813 1.69173 0
M  V30 1686 O 156.04 -1.67998 1.00764 0
M  V30 1687 H 154.62 0.175002 0.726212 0
M  V30 1688 H 157.282 1.11087 1.60143 0
M  V30 1689 H 156.378 0.639825 3.05471 0
M  V30 1690 N 156.679 -1.44442 0.630414 0
M  V30 1691 C 157.609 -2.33418 -0.0618083 0
M  V30 1692 C 158.59 -1.48165 -0.835541 0
M  V30 1693 O 159.775 -1.76886 -0.801564 0
M  V30 1694 C 156.905 -3.31222 -1.04449 0
M  V30 1695 C 155.859 -4.26288 -0.382436 0
M  V30 1696 C 155.185 -5.13954 -1.47497 0
M  V30 1697 C 156.485 -5.1744 0.710865 0
M  V30 1698 H 158.179 -2.91548 0.681184 0
M  V30 1699 H 155.725 -1.40191 0.329026 0
M  V30 1700 H 157.678 -3.92351 -1.53748 0
M  V30 1701 H 156.402 -2.71299 -1.81836 0
M  V30 1702 H 155.061 -3.6649 0.0899054 0
M  V30 1703 H 154.709 -4.50385 -2.2397 0
M  V30 1704 H 154.409 -5.7837 -1.03737 0
M  V30 1705 H 155.933 -5.77955 -1.96979 0
M  V30 1706 H 157.347 -5.72509 0.300996 0
M  V30 1707 H 155.744 -5.90455 1.07156 0
M  V30 1708 H 156.814 -4.58496 1.57829 0
M  V30 1709 N 158.157 -0.370918 -1.53173 0
M  V30 1710 C 159.382 0.220293 -2.06227 0
M  V30 1711 C 159.807 1.41243 -1.24225 0
M  V30 1712 O 159.165 1.79387 -0.262645 0
M  V30 1713 C 159.213 0.586663 -3.55796 0
M  V30 1714 O 158.317 1.68317 -3.76488 0
M  V30 1715 H 157.658 0.0308099 -0.663285 0
M  V30 1716 H 160.188 -0.533068 -1.97534 0
M  V30 1717 H 160.198 0.85617 -3.98916 0
M  V30 1718 H 158.873 -0.285013 -4.14922 0
M  V30 1719 H 157.45 1.40881 -3.45264 0
M  V30 1720 N 159.635 1.57281 -0.100228 0
M  V30 1721 C 160.582 2.14305 0.856858 0
M  V30 1722 C 161.552 1.06296 1.27634 0
M  V30 1723 O 162.737 1.34109 1.35718 0
M  V30 1724 C 159.877 2.73184 2.10866 0
M  V30 1725 C 158.99 3.95442 1.73925 0
M  V30 1726 C 158.125 4.42468 2.93931 0
M  V30 1727 C 157.164 5.57303 2.5314 0
M  V30 1728 N 156.301 5.99158 3.65997 0
M  V30 1729 H 161.141 2.95772 0.363726 0
M  V30 1730 H 158.678 1.46139 0.167858 0
M  V30 1731 H 160.636 3.05442 2.84185 0
M  V30 1732 H 159.266 1.94437 2.57671 0
M  V30 1733 H 158.318 3.69464 0.905554 0
M  V30 1734 H 159.63 4.78769 1.39935 0
M  V30 1735 H 158.784 4.76537 3.75496 0
M  V30 1736 H 157.523 3.58052 3.31134 0
M  V30 1737 H 156.528 5.22857 1.70003 0
M  V30 1738 H 157.753 6.43471 2.17075 0
M  V30 1739 H 155.699 5.17687 4.02909 0
M  V30 1740 H 155.616 6.77295 3.35869 0
M  V30 1741 H 156.884 6.3786 4.48057 0
M  V30 1742 N 161.113 -0.173488 1.56642 0
M  V30 1743 C 162.36 -0.890465 1.81871 0
M  V30 1744 C 162.688 -1.82339 0.67696 0
M  V30 1745 O 161.943 -1.92795 -0.335926 0
M  V30 1746 C 162.242 -1.72069 3.13252 0
M  V30 1747 C 161.908 -0.936878 4.41059 0
M  V30 1748 C 160.57 -0.720545 4.75775 0
M  V30 1749 C 162.922 -0.386919 5.19762 0
M  V30 1750 C 160.25 0.0568829 5.86672 0
M  V30 1751 C 162.602 0.37741 6.31473 0
M  V30 1752 C 161.266 0.604563 6.64757 0
M  V30 1753 H 160.536 -0.325844 0.665512 0
M  V30 1754 H 163.183 -0.155527 1.90867 0
M  V30 1755 H 161.488 -2.52496 2.99588 0
M  V30 1756 H 163.185 -2.27844 3.29982 0
M  V30 1757 H 159.775 -1.11553 4.13828 0
M  V30 1758 H 163.959 -0.541398 4.93338 0
M  V30 1759 H 159.215 0.242635 6.10918 0
M  V30 1760 H 163.389 0.810825 6.91664 0
M  V30 1761 H 161.016 1.20885 7.50527 0
M  V30 1762 N 162.591 -1.51276 -0.441967 0
M  V30 1763 C 163.521 -1.752 -1.54361 0
M  V30 1764 C 164.502 -0.601682 -1.59103 0
M  V30 1765 O 165.687 -0.843913 -1.74905 0
M  V30 1766 C 162.817 -1.87282 -2.92477 0
M  V30 1767 C 161.771 -3.02687 -3.02596 0
M  V30 1768 C 161.097 -2.99947 -4.42647 0
M  V30 1769 C 162.397 -4.4273 -2.77106 0
M  V30 1770 H 164.091 -2.67442 -1.34592 0
M  V30 1771 H 161.637 -1.28694 -0.646048 0
M  V30 1772 H 163.59 -2.02602 -3.695 0
M  V30 1773 H 162.314 -0.916844 -3.13467 0
M  V30 1774 H 160.973 -2.87065 -2.28012 0
M  V30 1775 H 160.621 -2.02136 -4.60597 0
M  V30 1776 H 160.321 -3.77439 -4.50348 0
M  V30 1777 H 161.845 -3.17354 -5.2165 0
M  V30 1778 H 163.259 -4.58727 -3.43864 0
M  V30 1779 H 161.656 -5.21893 -2.96222 0
M  V30 1780 H 162.726 -4.53087 -1.72744 0
M  V30 1781 N 164.069 0.697108 -1.41344 0
M  V30 1782 C 165.317 1.45426 -1.40341 0
M  V30 1783 C 165.638 1.94996 -0.0128787 0
M  V30 1784 O 164.908 1.71599 0.945027 0
M  V30 1785 H 163.488 0.539594 -0.516573 0
M  V30 1786 H 166.15 0.825201 -1.76569 0
M  V30 1787 H 165.246 2.31817 -2.08967 0
M  V30 1788 N 165.547 1.27147 0.931209 0
M  V30 1789 C 166.775 1.16082 1.71267 0
M  V30 1790 C 167.19 -0.282772 1.8667 0
M  V30 1791 O 166.547 -1.19283 1.38122 0
M  V30 1792 C 166.598 1.8358 3.11417 0
M  V30 1793 O 166.319 3.22299 2.96741 0
M  V30 1794 C 167.82 1.78597 4.05732 0
M  V30 1795 H 165.04 0.403758 0.535929 0
M  V30 1796 H 167.584 1.67953 1.16671 0
M  V30 1797 H 165.739 1.35623 3.62885 0
M  V30 1798 H 166.153 3.55851 3.85319 0
M  V30 1799 H 167.627 2.30444 5.01597 0
M  V30 1800 H 168.104 0.754564 4.3267 0
M  V30 1801 H 168.71 2.26152 3.60188 0
M  V30 1802 N 167.025 -1.13721 1.09112 0
M  V30 1803 C 167.975 -2.17082 0.697091 0
M  V30 1804 C 168.959 -1.58321 -0.286923 0
M  V30 1805 O 170.151 -1.7673 -0.0978008 0
M  V30 1806 C 167.28 -3.43105 0.115729 0
M  V30 1807 C 166.366 -4.0888 1.12596 0
M  V30 1808 N 166.757 -4.4987 2.31195 0
M  V30 1809 C 165.055 -4.35471 0.963366 0
M  V30 1810 C 165.756 -5.01094 2.95431 0
M  V30 1811 N 164.732 -4.95751 2.23006 0
M  V30 1812 H 168.534 -2.46524 1.6001 0
M  V30 1813 H 166.048 -1.30481 0.966869 0
M  V30 1814 H 168.045 -4.16491 -0.184555 0
M  V30 1815 H 166.705 -3.15138 -0.78217 0
M  V30 1816 H 167.716 -4.42678 2.68806 0
M  V30 1817 H 164.393 -4.17328 0.119878 0
M  V30 1818 H 165.783 -5.4263 3.96236 0
M  V30 1819 N 168.503 -0.877838 -1.30888 0
M  V30 1820 C 169.749 -0.502773 -1.97088 0
M  V30 1821 C 170.104 0.936274 -1.68082 0
M  V30 1822 O 169.397 1.65162 -0.971196 0
M  V30 1823 C 169.591 -0.705748 -3.50363 0
M  V30 1824 C 169.42 -2.16297 -3.94266 0
M  V30 1825 C 168.19 -2.80614 -4.20219 0
M  V30 1826 C 170.388 -3.13606 -4.07622 0
M  V30 1827 N 168.37 -4.17007 -4.50532 0
M  V30 1828 C 169.741 -4.35051 -4.41736 0
M  V30 1829 C 171.796 -3.09491 -3.90026 0
M  V30 1830 C 170.499 -5.52911 -4.60089 0
M  V30 1831 C 172.525 -4.26616 -4.09576 0
M  V30 1832 C 171.887 -5.46825 -4.44029 0
M  V30 1833 H 167.986 -0.233168 -0.746429 0
M  V30 1834 H 170.57 -1.13408 -1.58261 0
M  V30 1835 H 168.741 -0.103976 -3.88261 0
M  V30 1836 H 170.473 -0.298291 -4.03599 0
M  V30 1837 H 167.228 -2.3152 -4.13153 0
M  V30 1838 H 167.652 -4.87426 -4.69834 0
M  V30 1839 H 172.294 -2.17657 -3.62471 0
M  V30 1840 H 170.012 -6.45255 -4.86489 0
M  V30 1841 H 173.598 -4.24894 -3.97438 0
M  V30 1842 H 172.478 -6.35947 -4.58848 0
M  V30 1843 N 169.982 1.44106 -0.638065 0
M  V30 1844 C 170.912 2.33448 0.0494287 0
M  V30 1845 C 171.893 1.48606 0.827672 0
M  V30 1846 O 173.078 1.77308 0.792173 0
M  V30 1847 C 170.208 3.31771 1.02691 0
M  V30 1848 C 169.162 4.26485 0.359823 0
M  V30 1849 C 168.488 5.14729 1.44769 0
M  V30 1850 C 169.788 5.17056 -0.738296 0
M  V30 1851 H 171.482 2.91183 -0.696636 0
M  V30 1852 H 169.028 1.40014 -0.336456 0
M  V30 1853 H 170.981 3.93161 1.51666 0
M  V30 1854 H 169.705 2.7226 1.80395 0
M  V30 1855 H 168.364 3.66437 -0.10934 0
M  V30 1856 H 168.012 4.51566 2.21578 0
M  V30 1857 H 167.712 5.78913 1.00668 0
M  V30 1858 H 169.236 5.78991 1.93911 0
M  V30 1859 H 170.65 5.72342 -0.331354 0
M  V30 1860 H 169.047 5.89879 -1.10286 0
M  V30 1861 H 170.117 4.57652 -1.60258 0
M  V30 1862 N 171.46 0.379036 1.52974 0
M  V30 1863 C 172.393 -0.504932 2.22544 0
M  V30 1864 C 173.371 -1.0723 1.22231 0
M  V30 1865 O 174.555 -1.12589 1.51182 0
M  V30 1866 C 171.682 -1.69794 2.93066 0
M  V30 1867 C 170.728 -1.25678 4.07563 0
M  V30 1868 S 171.561 -0.246852 5.34931 0
M  V30 1869 C 172.717 -1.44588 6.08971 0
M  V30 1870 H 172.95 0.0858666 2.97176 0
M  V30 1871 H 170.483 0.163183 1.53535 0
M  V30 1872 H 172.441 -2.38219 3.34308 0
M  V30 1873 H 171.102 -2.26002 2.18133 0
M  V30 1874 H 170.295 -2.14725 4.5597 0
M  V30 1875 H 169.897 -0.651584 3.6828 0
M  V30 1876 H 172.189 -2.37469 6.34519 0
M  V30 1877 H 173.132 -1.00292 7.00962 0
M  V30 1878 H 173.54 -1.65804 5.39601 0
M  V30 1879 N 172.938 -1.57226 0.108567 0
M  V30 1880 C 174.186 -1.94448 -0.550853 0
M  V30 1881 C 174.507 -0.992074 -1.67878 0
M  V30 1882 O 173.777 -0.0465 -1.95845 0
M  V30 1883 H 172.357 -0.717897 -0.206479 0
M  V30 1884 H 175.019 -1.94112 0.175062 0
M  V30 1885 H 174.115 -2.97218 -0.952259 0
M  V30 1886 N 174.416 0.165178 -1.56732 0
M  V30 1887 C 175.364 1.22369 -1.97809 0
M  V30 1888 C 176.358 1.45488 -0.867741 0
M  V30 1889 O 177.564 1.45995 -1.05288 0
M  V30 1890 H 173.939 0.411486 -0.629431 0
M  V30 1891 H 175.91 0.850425 -2.86025 0
M  V30 1892 C 174.659 2.55403 -2.35934 0
M  V30 1893 H 173.982 2.38438 -3.20916 0
M  V30 1894 H 175.422 3.2814 -2.68514 0
M  V30 1895 C 173.881 3.14611 -1.20506 0
M  V30 1896 O 174.411 3.98626 -0.496016 0
M  V30 1897 N 172.617 2.7379 -0.97403 0
M  V30 1898 H 172.164 2.0557 -1.55238 0
M  V30 1899 H 172.122 3.1374 -0.203573 0
M  V30 1900 N 175.894 1.51508 0.433938 0
M  V30 1901 C 177.143 1.63578 1.18005 0
M  V30 1902 C 177.456 0.359514 1.92268 0
M  V30 1903 O 178.662 0.359632 2.69108 0
M  V30 1904 C 177.118 2.88901 2.14626 0
M  V30 1905 C 176.726 4.23544 1.45995 0
M  V30 1906 C 178.47 3.10328 2.89649 0
M  V30 1907 C 176.377 5.40014 2.4112 0
M  V30 1908 H 175.307 0.609277 0.444182 0
M  V30 1909 H 177.958 1.77978 0.446773 0
M  V30 1910 H 176.34 2.68142 2.91403 0
M  V30 1911 H 177.514 4.54696 0.747532 0
M  V30 1912 H 175.829 4.08021 0.831115 0
M  V30 1913 H 178.426 3.94518 3.60915 0
M  V30 1914 H 178.769 2.23544 3.51189 0
M  V30 1915 H 179.302 3.31443 2.19978 0
M  V30 1916 H 176.041 6.29068 1.84264 0
M  V30 1917 H 175.561 5.13233 3.10406 0
M  V30 1918 H 177.24 5.72099 3.02177 0
M  V30 1919 N 177.372 -0.689602 1.41712 0
M  V30 1920 C 178.302 -1.81577 1.46806 0
M  V30 1921 C 179.283 -1.66945 0.326105 0
M  V30 1922 O 180.468 -1.86588 0.538377 0
M  V30 1923 C 177.598 -3.19762 1.35535 0
M  V30 1924 C 176.552 -3.49107 2.47605 0
M  V30 1925 C 175.878 -4.86711 2.21397 0
M  V30 1926 C 177.178 -3.47483 3.89939 0
M  V30 1927 H 178.872 -1.7757 2.41058 0
M  V30 1928 H 176.418 -0.852887 1.16025 0
M  V30 1929 H 178.371 -3.98263 1.3771 0
M  V30 1930 H 177.095 -3.24409 0.377708 0
M  V30 1931 H 175.754 -2.72959 2.44722 0
M  V30 1932 H 175.402 -4.8799 1.21961 0
M  V30 1933 H 175.102 -5.0731 2.96497 0
M  V30 1934 H 176.626 -5.67515 2.25297 0
M  V30 1935 H 178.04 -4.1598 3.94505 0
M  V30 1936 H 176.437 -3.79615 4.64771 0
M  V30 1937 H 177.507 -2.46341 4.17665 0
M  V30 1938 N 178.85 -1.27639 -0.924453 0
M  V30 1939 C 180.266 -1.05113 -1.20097 0
M  V30 1940 C 180.466 0.213262 -2.00368 0
M  V30 1941 O 179.522 0.91787 -2.35226 0
M  V30 1942 C 180.835 -2.29244 -1.94596 0
M  V30 1943 C 182.383 -2.34315 -2.07522 0
M  V30 1944 C 182.858 -3.58183 -2.85427 0
M  V30 1945 N 184.349 -3.5876 -2.92994 0
M  V30 1946 C 185.084 -4.51277 -3.53746 0
M  V30 1947 N 184.58 -5.54102 -4.15863 0
M  V30 1948 N 186.373 -4.38894 -3.51181 0
M  V30 1949 H 178.524 -2.08821 -0.388264 0
M  V30 1950 H 180.787 -0.918568 -0.234385 0
M  V30 1951 H 180.493 -3.21301 -1.43034 0
M  V30 1952 H 180.367 -2.34816 -2.95197 0
M  V30 1953 H 182.754 -1.42762 -2.58269 0
M  V30 1954 H 182.835 -2.32744 -1.06131 0
M  V30 1955 H 182.479 -4.50074 -2.35363 0
M  V30 1956 H 182.409 -3.57006 -3.8711 0
M  V30 1957 H 184.9 -2.84398 -2.4885 0
M  V30 1958 H 185.213 -6.20859 -4.60168 0
M  V30 1959 H 183.558 -5.57941 -4.144 0
M  V30 1960 H 186.749 -3.57772 -3.01856 0
M  V30 1961 H 186.922 -5.11186 -3.98237 0
M  V30 1962 N 180.328 1.1314 -1.09713 0
M  V30 1963 C 181.258 2.20748 -0.761102 0
M  V30 1964 C 182.239 1.68061 0.262566 0
M  V30 1965 O 183.424 1.93765 0.129977 0
M  V30 1966 C 180.554 3.46812 -0.184054 0
M  V30 1967 C 179.508 4.12606 -1.13757 0
M  V30 1968 C 178.834 5.33031 -0.422083 0
M  V30 1969 C 180.134 4.59603 -2.48118 0
M  V30 1970 H 181.828 2.49113 -1.66082 0
M  V30 1971 H 179.374 1.19734 -0.799987 0
M  V30 1972 H 181.327 4.21353 0.0631215 0
M  V30 1973 H 180.051 3.17851 0.750868 0
M  V30 1974 H 178.71 3.40036 -1.37007 0
M  V30 1975 H 178.358 5.00335 0.517072 0
M  V30 1976 H 178.058 5.77999 -1.05788 0
M  V30 1977 H 179.582 6.10325 -0.183277 0
M  V30 1978 H 180.996 5.25552 -2.29059 0
M  V30 1979 H 179.393 5.15321 -3.07514 0
M  V30 1980 H 180.463 3.73971 -3.08665 0
M  V30 1981 N 181.806 0.884767 1.30421 0
M  V30 1982 C 182.736 0.367574 2.30589 0
M  V30 1983 C 183.717 -0.549464 1.60981 0
M  V30 1984 O 184.902 -0.46336 1.88591 0
M  V30 1985 C 182.032 -0.418944 3.44764 0
M  V30 1986 C 180.986 0.406316 4.26067 0
M  V30 1987 C 180.312 -0.506793 5.32293 0
M  V30 1988 C 181.612 1.64832 4.95608 0
M  V30 1989 H 183.306 1.20462 2.74097 0
M  V30 1990 H 180.852 0.580695 1.31772 0
M  V30 1991 H 182.805 -0.791395 4.13902 0
M  V30 1992 H 181.529 -1.28964 3.0006 0
M  V30 1993 H 180.188 0.760903 3.58617 0
M  V30 1994 H 179.836 -1.37519 4.83836 0
M  V30 1995 H 179.536 0.0415828 5.87585 0
M  V30 1996 H 181.06 -0.875764 6.04287 0
M  V30 1997 H 182.474 1.34646 5.57264 0
M  V30 1998 H 180.871 2.13688 5.60765 0
M  V30 1999 H 181.941 2.39284 4.21748 0
M  V30 2000 N 183.284 -1.43765 0.645699 0
M  V30 2001 C 184.531 -2.01898 0.15604 0
M  V30 2002 C 184.859 -1.50887 -1.22733 0
M  V30 2003 O 184.114 -0.689271 -1.8316 0
M  V30 2004 C 184.413 -3.57238 0.107679 0
M  V30 2005 C 184.079 -4.27564 1.43178 0
M  V30 2006 C 182.741 -4.46492 1.7944 0
M  V30 2007 C 185.093 -4.67454 2.30513 0
M  V30 2008 C 182.421 -5.02573 3.02716 0
M  V30 2009 C 184.773 -5.24901 3.53074 0
M  V30 2010 C 183.437 -5.42046 3.89541 0
M  V30 2011 H 182.707 -0.738797 0.057099 0
M  V30 2012 H 185.354 -1.72341 0.834912 0
M  V30 2013 H 183.659 -3.86293 -0.654618 0
M  V30 2014 H 185.356 -3.99965 -0.287938 0
M  V30 2015 H 181.946 -4.13171 1.13963 0
M  V30 2016 H 186.13 -4.5253 2.0379 0
M  V30 2017 H 181.386 -5.14033 3.31028 0
M  V30 2018 H 185.56 -5.54758 4.20971 0
M  V30 2019 H 183.187 -5.85268 4.85145 0
M  V30 2020 N 184.763 -0.387143 -1.52771 0
M  V30 2021 C 186.011 0.195349 -2.01154 0
M  V30 2022 C 186.332 1.475 -1.27549 0
M  V30 2023 O 185.602 1.91878 -0.394924 0
M  V30 2024 H 184.182 0.075178 -0.743207 0
M  V30 2025 H 186.844 -0.518337 -1.87881 0
M  V30 2026 H 185.94 0.407096 -3.09434 0
M  V30 2027 N 186.241 1.57166 -0.116904 0
M  V30 2028 C 187.466 1.999 0.55271 0
M  V30 2029 C 187.891 0.996039 1.59564 0
M  V30 2030 O 187.249 -0.032556 1.81271 0
M  V30 2031 C 187.297 3.4152 1.15742 0
M  V30 2032 O 186.401 3.44106 2.27299 0
M  V30 2033 H 185.742 0.649447 0.138258 0
M  V30 2034 H 188.272 2.03573 -0.204759 0
M  V30 2035 H 188.282 3.79684 1.49346 0
M  V30 2036 H 186.957 4.14034 0.393493 0
M  V30 2037 H 185.534 3.17759 1.9515 0
M  V30 2038 N 187.719 -0.156864 1.56817 0
M  V30 2039 C 188.652 -1.22316 1.9265 0
M  V30 2040 C 189.63 -1.42059 0.791076 0
M  V30 2041 O 190.814 -1.56831 1.04576 0
M  V30 2042 C 187.941 -2.58375 2.18998 0
M  V30 2043 C 186.987 -2.55284 3.41661 0
M  V30 2044 S 187.82 -2.02946 4.95553 0
M  V30 2045 C 188.976 -3.40753 5.25013 0
M  V30 2046 H 189.209 -0.917403 2.82791 0
M  V30 2047 H 186.742 -0.362059 1.50095 0
M  V30 2048 H 188.7 -3.36677 2.34859 0
M  V30 2049 H 187.361 -2.86145 1.29538 0
M  V30 2050 H 186.554 -3.55418 3.57343 0
M  V30 2051 H 186.156 -1.85086 3.24991 0
M  V30 2052 H 188.448 -4.36819 5.17876 0
M  V30 2053 H 189.391 -3.29933 6.26538 0
M  V30 2054 H 189.799 -3.37433 4.52548 0
M  V30 2055 N 189.197 -1.51736 -0.425897 0
M  V30 2056 C 190.425 -1.68794 -1.1965 0
M  V30 2057 C 190.84 -0.390164 -1.84725 0
M  V30 2058 O 190.197 0.632376 -1.71194 0
M  V30 2059 C 190.248 -2.81174 -2.27208 0
M  V30 2060 O 189.969 -4.05925 -1.64793 0
M  V30 2061 C 191.47 -3.09599 -3.17275 0
M  V30 2062 H 188.69 -0.566128 -0.360194 0
M  V30 2063 H 191.234 -1.98211 -0.503249 0
M  V30 2064 H 189.389 -2.54324 -2.9223 0
M  V30 2065 H 189.803 -4.68423 -2.35967 0
M  V30 2066 H 191.277 -3.91786 -3.88854 0
M  V30 2067 H 191.754 -2.22468 -3.78688 0
M  V30 2068 H 192.36 -3.38151 -2.57941 0
M  V30 2069 N 190.675 0.682077 -1.42076 0
M  V30 2070 C 191.903 1.47057 -1.4554 0
M  V30 2071 C 192.318 1.8869 -0.0645779 0
M  V30 2072 O 191.675 1.57666 0.919115 0
M  V30 2073 C 191.726 2.72442 -2.37609 0
M  V30 2074 O 191.447 2.32559 -3.71279 0
M  V30 2075 C 192.948 3.66069 -2.50017 0
M  V30 2076 H 190.168 0.452737 -0.495248 0
M  V30 2077 H 192.712 0.838695 -1.8651 0
M  V30 2078 H 190.867 3.31835 -1.9991 0
M  V30 2079 H 191.281 3.13475 -4.20516 0
M  V30 2080 H 192.755 4.50792 -3.18576 0
M  V30 2081 H 193.232 4.11476 -1.53572 0
M  V30 2082 H 193.838 3.12572 -2.88407 0
M  V30 2083 N 192.153 1.28127 0.917671 0
M  V30 2084 C 193.564 1.13622 1.48145 0
M  V30 2085 C 193.915 -0.275207 1.9426 0
M  V30 2086 O 193.04 -1.1691 1.82102 0
M  V30 2087 C 193.635 2.05648 2.69248 0
M  V30 2088 C 192.194 1.95219 3.21818 0
M  V30 2089 C 191.341 1.97618 1.94532 0
M  V30 2090 H 194.292 1.40874 0.730772 0
M  V30 2091 H 194.313 1.61818 3.44377 0
M  V30 2092 H 193.825 3.08365 2.35653 0
M  V30 2093 H 191.926 0.955244 3.60147 0
M  V30 2094 H 192.039 2.81976 3.87333 0
M  V30 2095 H 190.403 1.41973 2.11461 0
M  V30 2096 H 191.186 3.02007 1.63238 0
M  V30 2097 N 193.631 -1.12557 1.10312 0
M  V30 2098 C 194.594 -2.16434 0.75424 0
M  V30 2099 C 195.594 -1.59278 -0.220685 0
M  V30 2100 O 196.784 -1.742 0.00230591 0
M  V30 2101 C 193.916 -3.40699 0.116987 0
M  V30 2102 H 195.109 -2.48811 1.67431 0
M  V30 2103 H 192.662 -1.27542 0.903475 0
M  V30 2104 H 193.397 -3.13921 -0.813877 0
M  V30 2105 H 193.182 -3.83459 0.818613 0
M  V30 2106 H 194.672 -4.17451 -0.111387 0
M  V30 2107 N 195.109 -0.891671 -1.2995 0
M  V30 2108 C 196.057 -0.353066 -2.29905 0
M  V30 2109 C 197.051 0.543509 -1.60444 0
M  V30 2110 O 198.257 0.4272 -1.74857 0
M  V30 2111 H 194.632 -0.095531 -0.745907 0
M  V30 2112 H 196.603 -1.20961 -2.72784 0
M  V30 2113 C 195.352 0.411475 -3.45257 0
M  V30 2114 H 194.675 -0.269182 -3.98893 0
M  V30 2115 H 196.115 0.753328 -4.17254 0
M  V30 2116 C 194.574 1.6111 -2.9588 0
M  V30 2117 O 195.104 2.71045 -2.96475 0
M  V30 2118 N 193.31 1.45054 -2.51809 0
M  V30 2119 H 192.857 0.556175 -2.51524 0
M  V30 2120 H 192.815 2.25453 -2.1913 0
M  V30 2121 N 196.587 1.43421 -0.653314 0
M  V30 2122 C 197.833 2.02641 -0.175593 0
M  V30 2123 C 198.188 1.5062 1.19713 0
M  V30 2124 O 197.481 0.689697 1.78756 0
M  V30 2125 C 197.675 3.57176 -0.126623 0
M  V30 2126 C 197.504 4.24191 -1.49306 0
M  V30 2127 C 196.274 4.60257 -2.08547 0
M  V30 2128 C 198.472 4.53193 -2.43148 0
M  V30 2129 N 196.454 5.12345 -3.38194 0
M  V30 2130 C 197.825 5.06601 -3.57429 0
M  V30 2131 C 199.88 4.35161 -2.41949 0
M  V30 2132 C 198.583 5.43875 -4.70736 0
M  V30 2133 C 200.609 4.73498 -3.54336 0
M  V30 2134 C 199.971 5.27039 -4.67343 0
M  V30 2135 H 196.07 0.77441 -0.108686 0
M  V30 2136 H 198.654 1.74596 -0.861638 0
M  V30 2137 H 196.825 3.84784 0.528766 0
M  V30 2138 H 198.557 4.03078 0.36198 0
M  V30 2139 H 195.312 4.45302 -1.61255 0
M  V30 2140 H 195.736 5.42842 -4.04538 0
M  V30 2141 H 200.378 3.9304 -1.55818 0
M  V30 2142 H 198.096 5.8494 -5.57558 0
M  V30 2143 H 201.682 4.61241 -3.5461 0
M  V30 2144 H 200.562 5.56153 -5.52868 0
M  V30 2145 N 198.065 0.39524 1.52563 0
M  V30 2146 C 199.013 -0.451859 2.28169 0
M  V30 2147 C 200.007 -1.05792 1.32304 0
M  V30 2148 O 201.213 -0.997718 1.49818 0
M  V30 2149 H 197.588 -0.164481 0.733792 0
M  V30 2150 H 199.559 0.207199 2.9768 0
M  V30 2151 C 198.308 -1.56385 3.10546 0
M  V30 2152 H 197.631 -1.10682 3.84174 0
M  V30 2153 H 199.071 -2.13067 3.66577 0
M  V30 2154 C 197.53 -2.52328 2.23231 0
M  V30 2155 O 198.06 -3.5588 1.86312 0
M  V30 2156 N 196.266 -2.22209 1.87274 0
M  V30 2157 H 195.813 -1.38033 2.17496 0
M  V30 2158 H 195.771 -2.86652 1.29143 0
M  V30 2159 N 199.544 -1.57102 0.125237 0
M  V30 2160 C 200.769 -2.0019 -0.542101 0
M  V30 2161 C 201.194 -1.00449 -1.59034 0
M  V30 2162 O 200.552 0.0229423 -1.81285 0
M  V30 2163 C 200.6 -3.42129 -1.13929 0
M  V30 2164 O 199.704 -3.45307 -2.2547 0
M  V30 2165 H 199.045 -0.650171 -0.134812 0
M  V30 2166 H 201.575 -2.03461 0.215553 0
M  V30 2167 H 201.585 -3.80471 -1.4733 0
M  V30 2168 H 200.26 -4.14237 -0.371531 0
M  V30 2169 H 198.837 -3.1879 -1.93462 0
M  V30 2170 N 201.022 0.148545 -1.56898 0
M  V30 2171 C 202.433 0.708766 -1.72723 0
M  V30 2172 C 202.784 1.81734 -0.739395 0
M  V30 2173 O 201.909 2.16194 0.0943169 0
M  V30 2174 C 202.504 1.29245 -3.13179 0
M  V30 2175 C 201.063 1.79925 -3.30611 0
M  V30 2176 C 200.21 0.687111 -2.68652 0
M  V30 2177 H 203.161 -0.0771063 -1.58513 0
M  V30 2178 H 203.182 2.16224 -3.13093 0
M  V30 2179 H 202.694 0.485382 -3.85053 0
M  V30 2180 H 200.795 2.63203 -2.63732 0
M  V30 2181 H 200.908 1.92903 -4.38549 0
M  V30 2182 H 199.272 1.11335 -2.29078 0
M  V30 2183 H 200.055 -0.108483 -3.43129 0
M  V30 2184 N 202.5 1.5196 0.417844 0
M  V30 2185 C 203.43 1.77634 1.51554 0
M  V30 2186 C 204.411 0.626918 1.58126 0
M  V30 2187 O 205.596 0.871632 1.7354 0
M  V30 2188 C 202.726 1.91911 2.8946 0
M  V30 2189 C 201.68 3.07463 2.97743 0
M  V30 2190 C 201.006 3.06951 4.37819 0
M  V30 2191 C 202.306 4.47082 2.70027 0
M  V30 2192 H 204 2.6955 1.3032 0
M  V30 2193 H 201.546 1.29706 0.625492 0
M  V30 2194 H 203.499 2.08455 3.6623 0
M  V30 2195 H 202.223 0.966598 3.11969 0
M  V30 2196 H 200.882 2.90656 2.23416 0
M  V30 2197 H 200.53 2.09438 4.57323 0
M  V30 2198 H 200.23 3.84556 4.44286 0
M  V30 2199 H 201.754 3.25613 5.16535 0
M  V30 2200 H 203.168 4.6414 3.36522 0
M  V30 2201 H 201.565 5.2654 2.87881 0
M  V30 2202 H 202.635 4.55777 1.65514 0
M  V30 2203 N 203.978 -0.674533 1.42435 0
M  V30 2204 C 205.394 -0.98769 1.25367 0
M  V30 2205 C 205.594 -2.00879 0.158044 0
M  V30 2206 O 204.65 -2.48075 -0.470633 0
M  V30 2207 C 205.963 -1.49224 2.6106 0
M  V30 2208 C 207.511 -1.61 2.68417 0
M  V30 2209 C 207.986 -2.14852 4.04478 0
M  V30 2210 N 209.477 -2.22185 4.06434 0
M  V30 2211 C 210.212 -2.64928 5.08528 0
M  V30 2212 N 209.708 -3.07121 6.21006 0
M  V30 2213 N 211.501 -2.64679 4.95885 0
M  V30 2214 H 203.652 0.00152503 2.124 0
M  V30 2215 H 205.915 -0.0618434 0.945981 0
M  V30 2216 H 205.621 -0.816453 3.42092 0
M  V30 2217 H 205.495 -2.47094 2.84999 0
M  V30 2218 H 207.882 -2.27686 1.87732 0
M  V30 2219 H 207.963 -0.616195 2.48267 0
M  V30 2220 H 207.607 -1.48775 4.85622 0
M  V30 2221 H 207.537 -3.15024 4.2198 0
M  V30 2222 H 210.028 -1.92435 3.25234 0
M  V30 2223 H 210.341 -3.38423 6.94759 0
M  V30 2224 H 208.686 -3.04978 6.24511 0
M  V30 2225 H 211.877 -2.31078 4.07088 0
M  V30 2226 H 212.05 -2.9767 5.75584 0
M  V30 2227 N 205.456 -1.28612 -0.910864 0
M  V30 2228 C 206.867 -1.14406 -1.47541 0
M  V30 2229 C 207.218 0.264901 -1.94403 0
M  V30 2230 O 206.343 1.15942 -1.82719 0
M  V30 2231 C 206.938 -2.07073 -2.68153 0
M  V30 2232 C 205.497 -1.96923 -3.20778 0
M  V30 2233 C 204.644 -1.98646 -1.93481 0
M  V30 2234 H 207.595 -1.41259 -0.723291 0
M  V30 2235 H 207.616 -1.63642 -3.43514 0
M  V30 2236 H 207.128 -3.09611 -2.34015 0
M  V30 2237 H 205.229 -0.97433 -3.59635 0
M  V30 2238 H 205.342 -2.84026 -3.85832 0
M  V30 2239 H 203.706 -1.43093 -2.10705 0
M  V30 2240 H 204.489 -3.02868 -1.61634 0
M  V30 2241 N 206.934 1.1197 -1.10907 0
M  V30 2242 C 208.182 1.83225 -0.852819 0
M  V30 2243 C 208.503 1.84769 0.623341 0
M  V30 2244 O 207.773 1.3143 1.45269 0
M  V30 2245 H 206.353 0.67849 -0.312507 0
M  V30 2246 H 209.015 1.3556 -1.40033 0
M  V30 2247 H 208.111 2.87265 -1.22005 0
M  V30 2248 N 208.412 0.89855 1.29475 0
M  V30 2249 C 209.322 0.379974 2.31502 0
M  V30 2250 C 210.338 -0.524695 1.659 0
M  V30 2251 O 211.514 -0.414551 1.97087 0
M  V30 2252 C 208.579 -0.385138 3.44554 0
M  V30 2253 C 207.64 0.550914 4.2575 0
M  V30 2254 C 206.873 -0.177778 5.33404 0
M  V30 2255 O 207.096 -1.40189 5.52904 0
M  V30 2256 O 206.03 0.479106 5.9999 0
M  V30 2257 H 209.856 1.22639 2.77837 0
M  V30 2258 H 207.441 0.662834 1.33891 0
M  V30 2259 H 209.323 -0.817841 4.13388 0
M  V30 2260 H 207.998 -1.20763 3.0033 0
M  V30 2261 H 206.905 1.03271 3.59564 0
M  V30 2262 H 208.238 1.33979 4.73614 0
M  V30 2263 N 209.89 -1.43072 0.660911 0
M  V30 2264 C 210.837 -2.30785 -0.0259884 0
M  V30 2265 C 211.807 -1.45184 -0.806888 0
M  V30 2266 O 212.992 -1.74041 -0.781943 0
M  V30 2267 C 210.132 -3.30861 -0.981067 0
M  V30 2268 C 209.245 -4.31558 -0.195458 0
M  V30 2269 C 208.38 -5.18712 -1.14503 0
M  V30 2270 C 207.419 -6.11097 -0.350299 0
M  V30 2271 N 206.556 -6.90849 -1.25186 0
M  V30 2272 H 211.396 -2.88975 0.727846 0
M  V30 2273 H 208.933 -1.42353 0.370682 0
M  V30 2274 H 210.891 -3.87399 -1.54849 0
M  V30 2275 H 209.521 -2.74304 -1.70169 0
M  V30 2276 H 208.573 -3.77252 0.488374 0
M  V30 2277 H 209.885 -4.9701 0.422176 0
M  V30 2278 H 209.039 -5.79914 -1.78284 0
M  V30 2279 H 207.778 -4.53404 -1.79656 0
M  V30 2280 H 206.783 -5.48976 0.300808 0
M  V30 2281 H 208.008 -6.7845 0.296941 0
M  V30 2282 H 205.954 -6.28182 -1.89005 0
M  V30 2283 H 205.871 -7.52854 -0.688971 0
M  V30 2284 H 207.139 -7.5655 -1.87757 0
M  V30 2285 N 211.368 -0.403325 -1.52352 0
M  V30 2286 C 212.598 0.17376 -2.05868 0
M  V30 2287 C 213.006 1.39898 -1.27378 0
M  V30 2288 O 212.349 1.80939 -0.31729 0
M  V30 2289 C 212.411 0.594756 -3.54546 0
M  V30 2290 C 212.075 -0.518926 -4.54044 0
M  V30 2291 C 213.072 -1.3807 -5.01231 0
M  V30 2292 C 210.757 -0.689961 -4.97539 0
M  V30 2293 C 212.751 -2.39852 -5.90551 0
M  V30 2294 C 210.438 -1.71109 -5.86656 0
M  V30 2295 C 211.436 -2.56378 -6.33056 0
M  V30 2296 O 211.124 -3.56743 -7.20409 0
M  V30 2297 H 210.856 0.0264951 -0.675481 0
M  V30 2298 H 213.41 -0.571179 -1.97299 0
M  V30 2299 H 211.64 1.39189 -3.60782 0
M  V30 2300 H 213.329 1.0991 -3.90736 0
M  V30 2301 H 214.095 -1.25994 -4.68349 0
M  V30 2302 H 209.974 -0.035939 -4.60986 0
M  V30 2303 H 213.518 -3.06441 -6.26689 0
M  V30 2304 H 209.415 -1.83218 -6.18952 0
M  V30 2305 H 210.183 -3.52918 -7.38506 0
M  V30 2306 N 212.846 1.57033 -0.133567 0
M  V30 2307 C 214.257 1.82593 0.389464 0
M  V30 2308 C 214.608 1.05156 1.6564 0
M  V30 2309 O 213.733 0.292644 2.14412 0
M  V30 2310 C 214.328 3.31204 0.713377 0
M  V30 2311 C 212.887 3.57393 1.18098 0
M  V30 2312 C 212.034 2.76598 0.197126 0
M  V30 2313 H 214.985 1.54598 -0.358481 0
M  V30 2314 H 215.006 3.46627 1.56939 0
M  V30 2315 H 214.518 3.87537 -0.2089 0
M  V30 2316 H 212.619 3.06433 2.11966 0
M  V30 2317 H 212.732 4.65915 1.11624 0
M  V30 2318 H 211.096 2.45257 0.687088 0
M  V30 2319 H 211.879 3.35697 -0.718504 0
M  V30 2320 N 214.325 -0.140222 1.56975 0
M  V30 2321 C 215.255 -1.17456 2.01808 0
M  V30 2322 C 216.236 -1.44415 0.898794 0
M  V30 2323 O 217.421 -1.5522 1.16707 0
M  V30 2324 C 214.551 -2.50607 2.40444 0
M  V30 2325 C 213.505 -2.38155 3.55621 0
M  V30 2326 C 212.831 -3.76078 3.80091 0
M  V30 2327 C 214.131 -1.85991 4.88062 0
M  V30 2328 H 215.825 -0.801743 2.88466 0
M  V30 2329 H 213.371 -0.38422 1.38779 0
M  V30 2330 H 215.324 -3.23197 2.7041 0
M  V30 2331 H 214.048 -2.89737 1.50732 0
M  V30 2332 H 212.707 -1.68016 3.25832 0
M  V30 2333 H 212.355 -4.12656 2.87618 0
M  V30 2334 H 212.055 -3.68606 4.57606 0
M  V30 2335 H 213.579 -4.50206 4.12488 0
M  V30 2336 H 214.993 -2.4838 5.16701 0
M  V30 2337 H 213.39 -1.89393 5.6943 0
M  V30 2338 H 214.46 -0.816023 4.77984 0
M  V30 2339 N 215.803 -1.52179 -0.40978 0
M  V30 2340 C 217.049 -1.66453 -1.15851 0
M  V30 2341 C 217.382 -0.392972 -1.90182 0
M  V30 2342 O 216.657 0.608579 -1.84734 0
M  V30 2343 C 216.94 -2.88612 -2.15349 0
M  V30 2344 C 216.793 -4.25815 -1.44918 0
M  V30 2345 C 218.112 -3.06294 -3.16026 0
M  V30 2346 H 215.231 -0.60575 -0.419805 0
M  V30 2347 H 217.873 -1.84732 -0.444314 0
M  V30 2348 H 216.023 -2.73158 -2.76255 0
M  V30 2349 H 217.695 -4.52995 -0.871365 0
M  V30 2350 H 215.938 -4.27247 -0.751159 0
M  V30 2351 H 216.609 -5.07337 -2.17516 0
M  V30 2352 H 219.085 -3.20641 -2.65195 0
M  V30 2353 H 217.961 -3.93283 -3.8291 0
M  V30 2354 H 218.222 -2.19579 -3.83715 0
M  V30 2355 N 217.281 0.66697 -1.42791 0
M  V30 2356 C 218.527 1.4291 -1.43891 0
M  V30 2357 C 218.86 1.94114 -0.0578972 0
M  V30 2358 O 218.135 1.71414 0.91911 0
M  V30 2359 C 218.418 2.62049 -2.46987 0
M  V30 2360 C 218.271 2.16426 -3.94309 0
M  V30 2361 C 219.59 3.64266 -2.46978 0
M  V30 2362 H 216.709 0.518306 -0.523954 0
M  V30 2363 H 219.351 0.757321 -1.74255 0
M  V30 2364 H 217.501 3.19361 -2.21225 0
M  V30 2365 H 219.173 1.64221 -4.31079 0
M  V30 2366 H 217.416 1.47925 -4.078 0
M  V30 2367 H 218.087 3.02038 -4.62036 0
M  V30 2368 H 220.563 3.16686 -2.69906 0
M  V30 2369 H 219.439 4.45196 -3.21079 0
M  V30 2370 H 219.7 4.15927 -1.49857 0
M  V30 2371 N 218.759 1.29093 0.90403 0
M  V30 2372 C 220.006 1.16813 1.65411 0
M  V30 2373 C 220.334 -0.28128 1.92455 0
M  V30 2374 O 219.589 -1.22006 1.53013 0
M  V30 2375 C 219.888 1.92224 3.01305 0
M  V30 2376 C 219.554 3.41968 2.93885 0
M  V30 2377 C 218.216 3.82807 2.91569 0
M  V30 2378 C 220.568 4.37409 2.83413 0
M  V30 2379 C 217.896 5.1741 2.76594 0
M  V30 2380 C 220.248 5.72097 2.69977 0
M  V30 2381 C 218.912 6.12199 2.66024 0
M  V30 2382 H 218.182 0.42745 0.605283 0
M  V30 2383 H 220.829 1.59981 1.05254 0
M  V30 2384 H 219.134 1.41635 3.65304 0
M  V30 2385 H 220.831 1.80131 3.58265 0
M  V30 2386 H 217.421 3.09504 2.96488 0
M  V30 2387 H 221.605 4.06813 2.84283 0
M  V30 2388 H 216.861 5.47596 2.71935 0
M  V30 2389 H 221.035 6.45704 2.60844 0
M  V30 2390 H 218.662 7.16448 2.54178 0
M  V30 2391 N 220.237 -1.11381 1.11499 0
M  V30 2392 C 221.462 -1.87475 0.887019 0
M  V30 2393 C 221.887 -1.79639 -0.557796 0
M  V30 2394 O 221.245 -1.15924 -1.39396 0
M  V30 2395 C 221.293 -3.34213 1.35403 0
M  V30 2396 O 220.397 -4.0903 0.526146 0
M  V30 2397 H 219.738 -0.582099 0.319463 0
M  V30 2398 H 222.268 -1.40785 1.48461 0
M  V30 2399 H 222.278 -3.8506 1.34881 0
M  V30 2400 H 220.953 -3.39232 2.40612 0
M  V30 2401 H 219.53 -3.68082 0.597522 0
M  V30 2402 N 221.715 -0.905404 -1.28997 0
M  V30 2403 C 222.665 -0.358713 -2.25161 0
M  V30 2404 C 223.649 0.524449 -1.52113 0
M  V30 2405 O 224.841 0.365534 -1.73184 0
M  V30 2406 C 221.97 0.407609 -3.40872 0
M  V30 2407 C 221.056 -0.490797 -4.21251 0
M  V30 2408 N 221.447 -1.60061 -4.79806 0
M  V30 2409 C 219.745 -0.289636 -4.45059 0
M  V30 2410 C 220.446 -2.15757 -5.40207 0
M  V30 2411 N 219.422 -1.44988 -5.23908 0
M  V30 2412 H 223.224 -1.20642 -2.67998 0
M  V30 2413 H 220.738 -0.757103 -1.43672 0
M  V30 2414 H 222.735 0.816046 -4.08835 0
M  V30 2415 H 221.395 1.25251 -2.9957 0
M  V30 2416 H 222.406 -1.98329 -4.7842 0
M  V30 2417 H 219.083 0.51643 -4.14294 0
M  V30 2418 H 220.473 -3.09069 -5.96595 0
M  V30 2419 N 223.193 1.4272 -0.668489 0
M  V30 2420 C 224.441 2.01226 -0.187769 0
M  V30 2421 C 224.762 1.53092 1.2078 0
M  V30 2422 O 224.032 0.74993 1.80977 0
M  V30 2423 H 222.612 0.744041 -0.0664272 0
M  V30 2424 H 225.274 1.74723 -0.863583 0
M  V30 2425 H 224.37 3.11556 -0.184166 0
M  V30 2426 N 224.671 0.411399 1.52136 0
M  V30 2427 C 225.601 -0.404015 2.29978 0
M  V30 2428 C 226.582 -1.04412 1.34284 0
M  V30 2429 O 227.767 -1.0527 1.63192 0
M  V30 2430 C 224.897 -1.5197 3.12286 0
M  V30 2431 C 223.851 -1.00448 4.16046 0
M  V30 2432 C 223.177 -2.21393 4.86712 0
M  V30 2433 C 224.477 -0.0569336 5.22269 0
M  V30 2434 H 226.171 0.245529 2.98392 0
M  V30 2435 H 223.717 0.119525 1.43503 0
M  V30 2436 H 225.67 -2.09715 3.6551 0
M  V30 2437 H 224.394 -2.19716 2.41646 0
M  V30 2438 H 223.053 -0.449421 3.63835 0
M  V30 2439 H 222.701 -2.87699 4.12599 0
M  V30 2440 H 222.401 -1.87571 5.56858 0
M  V30 2441 H 223.925 -2.7974 5.4275 0
M  V30 2442 H 225.339 -0.54325 5.7072 0
M  V30 2443 H 223.736 0.192594 5.99791 0
M  V30 2444 H 224.806 0.887663 4.76706 0
M  V30 2445 N 226.149 -1.5696 0.141893 0
M  V30 2446 C 227.397 -1.95573 -0.509484 0
M  V30 2447 C 227.718 -1.02746 -1.65736 0
M  V30 2448 O 226.988 -0.0880311 -1.95702 0
M  V30 2449 H 225.568 -0.722115 -0.191205 0
M  V30 2450 H 228.23 -1.93697 0.216196 0
M  V30 2451 H 227.326 -2.99171 -0.889 0
M  V30 2452 N 227.627 0.131896 -1.57047 0
M  V30 2453 C 228.59 1.14638 -1.98471 0
M  V30 2454 C 229.59 1.35029 -0.873148 0
M  V30 2455 O 230.78 1.31764 -1.13946 0
M  V30 2456 C 227.912 2.50358 -2.31373 0
M  V30 2457 H 229.105 0.79064 -2.8929 0
M  V30 2458 H 226.658 0.375761 -1.51716 0
M  V30 2459 H 227.393 2.90876 -1.43393 0
M  V30 2460 H 227.178 2.36915 -3.12432 0
M  V30 2461 H 228.668 3.23395 -2.64207 0
M  V30 2462 N 229.106 1.52395 0.401703 0
M  V30 2463 C 230.353 1.66817 1.14796 0
M  V30 2464 C 230.681 0.401772 1.90305 0
M  V30 2465 O 229.936 -0.615487 1.85769 0
M  V30 2466 C 230.235 2.84578 2.16217 0
M  V30 2467 C 229.901 4.22513 1.5746 0
M  V30 2468 C 228.563 4.60029 1.41161 0
M  V30 2469 C 230.915 5.0844 1.14622 0
M  V30 2470 C 228.243 5.81144 0.80552 0
M  V30 2471 C 230.595 6.30167 0.55428 0
M  V30 2472 C 229.259 6.66426 0.378482 0
M  V30 2473 H 228.529 0.610428 0.420069 0
M  V30 2474 H 231.176 1.86512 0.434212 0
M  V30 2475 H 229.481 2.59248 2.93764 0
M  V30 2476 H 231.178 2.92933 2.73845 0
M  V30 2477 H 227.768 3.92953 1.71132 0
M  V30 2478 H 231.952 4.80034 1.26021 0
M  V30 2479 H 227.208 6.07855 0.657399 0
M  V30 2480 H 231.382 6.96071 0.213983 0
M  V30 2481 H 229.009 7.60143 -0.0932606 0
M  V30 2482 N 230.584 -0.659388 1.43143 0
M  V30 2483 C 232 -0.974337 1.26407 0
M  V30 2484 C 232.2 -2.007 0.179341 0
M  V30 2485 O 231.256 -2.4856 -0.444295 0
M  V30 2486 C 232.569 -1.46447 2.62628 0
M  V30 2487 C 234.117 -1.58144 2.7011 0
M  V30 2488 C 234.592 -2.1055 4.06734 0
M  V30 2489 N 236.083 -2.17861 4.08767 0
M  V30 2490 C 236.818 -2.59519 5.1131 0
M  V30 2491 N 236.314 -3.00518 6.24228 0
M  V30 2492 N 238.107 -2.59404 4.98664 0
M  V30 2493 H 230.258 0.0240528 2.12386 0
M  V30 2494 H 232.521 -0.0518065 0.946583 0
M  V30 2495 H 232.227 -0.780123 3.42939 0
M  V30 2496 H 232.101 -2.44058 2.87603 0
M  V30 2497 H 234.488 -2.25682 1.90136 0
M  V30 2498 H 234.569 -0.589828 2.48907 0
M  V30 2499 H 234.213 -1.43616 4.87172 0
M  V30 2500 H 234.143 -3.10531 4.25298 0
M  V30 2501 H 236.634 -1.88975 3.27257 0
M  V30 2502 H 236.947 -3.31036 6.98309 0
M  V30 2503 H 235.292 -2.98337 6.2771 0
M  V30 2504 H 238.483 -2.26747 4.09516 0
M  V30 2505 H 238.656 -2.91548 5.78709 0
M  V30 2506 N 232.062 -1.29571 -0.897171 0
M  V30 2507 C 233.29 -1.20583 -1.68129 0
M  V30 2508 C 233.705 0.233181 -1.87354 0
M  V30 2509 O 233.062 1.15579 -1.41236 0
M  V30 2510 C 233.113 -1.91772 -3.06441 0
M  V30 2511 O 232.834 -3.30053 -2.88091 0
M  V30 2512 C 234.335 -1.89291 -4.00854 0
M  V30 2513 H 231.555 -0.417826 -0.525036 0
M  V30 2514 H 234.099 -1.70987 -1.12177 0
M  V30 2515 H 232.254 -1.45196 -3.59161 0
M  V30 2516 H 232.668 -3.65942 -3.75748 0
M  V30 2517 H 234.142 -2.43662 -4.95311 0
M  V30 2518 H 234.619 -0.869014 -4.30517 0
M  V30 2519 H 235.225 -2.35622 -3.54066 0
M  V30 2520 N 233.54 1.10788 -1.12088 0
M  V30 2521 C 234.47 2.19083 -0.807755 0
M  V30 2522 C 235.451 1.6858 0.226859 0
M  V30 2523 O 236.636 1.93997 0.0888475 0
M  V30 2524 C 233.766 3.46344 -0.257576 0
M  V30 2525 C 232.72 4.101 -1.22483 0
M  V30 2526 C 232.046 5.32016 -0.535052 0
M  V30 2527 C 233.346 4.54236 -2.57811 0
M  V30 2528 H 235.04 2.45534 -1.71328 0
M  V30 2529 H 232.586 1.1801 -0.825205 0
M  V30 2530 H 234.539 4.21392 -0.0262679 0
M  V30 2531 H 233.263 3.19373 0.683278 0
M  V30 2532 H 231.922 3.37054 -1.44189 0
M  V30 2533 H 231.57 5.01319 0.410827 0
M  V30 2534 H 231.27 5.75625 -1.18024 0
M  V30 2535 H 232.794 6.09799 -0.312695 0
M  V30 2536 H 234.208 5.20575 -2.40155 0
M  V30 2537 H 232.605 5.08682 -3.18375 0
M  V30 2538 H 233.675 3.6734 -3.16528 0
M  V30 2539 N 235.018 0.912232 1.28515 0
M  V30 2540 C 236.248 0.559604 1.98877 0
M  V30 2541 C 236.656 -0.863113 1.68366 0
M  V30 2542 O 235.999 -1.58304 0.931969 0
M  V30 2543 C 236.061 0.68703 3.52874 0
M  V30 2544 C 235.725 2.07901 4.06972 0
M  V30 2545 C 236.722 3.05157 4.20922 0
M  V30 2546 C 234.407 2.39178 4.417 0
M  V30 2547 C 236.401 4.31806 4.68852 0
M  V30 2548 C 234.088 3.66068 4.89324 0
M  V30 2549 C 235.086 4.62195 5.02856 0
M  V30 2550 O 234.774 5.86829 5.49442 0
M  V30 2551 H 234.506 0.212191 0.641834 0
M  V30 2552 H 237.06 1.22712 1.64715 0
M  V30 2553 H 235.29 -0.0375486 3.86682 0
M  V30 2554 H 236.979 0.341727 4.04459 0
M  V30 2555 H 237.745 2.82311 3.94367 0
M  V30 2556 H 233.624 1.65109 4.30418 0
M  V30 2557 H 237.168 5.06842 4.79329 0
M  V30 2558 H 233.065 3.88739 5.15318 0
M  V30 2559 H 233.833 5.89597 5.6773 0
M  V30 2560 N 236.496 -1.42363 0.676048 0
M  V30 2561 C 237.721 -2.06377 0.205705 0
M  V30 2562 C 238.146 -1.50463 -1.12883 0
M  V30 2563 O 237.504 -0.623619 -1.70237 0
M  V30 2564 C 237.552 -3.60277 0.152655 0
M  V30 2565 O 236.656 -4.02935 -0.87845 0
M  V30 2566 H 235.997 -0.655588 0.105359 0
M  V30 2567 H 238.527 -1.82475 0.925412 0
M  V30 2568 H 238.537 -4.07993 -0.0230675 0
M  V30 2569 H 237.212 -4.00346 1.12675 0
M  V30 2570 H 235.789 -3.66764 -0.673668 0
M  V30 2571 N 237.974 -0.419461 -1.51915 0
M  V30 2572 C 238.937 0.389116 -2.25873 0
M  V30 2573 C 239.937 0.964924 -1.28631 0
M  V30 2574 O 241.127 0.842179 -1.52489 0
M  V30 2575 C 238.259 1.54874 -3.03689 0
M  V30 2576 H 239.452 -0.258799 -2.98781 0
M  V30 2577 H 237.005 -0.172209 -1.55348 0
M  V30 2578 H 237.74 2.23323 -2.35154 0
M  V30 2579 H 237.525 1.14223 -3.75094 0
M  V30 2580 H 239.015 2.12046 -3.59759 0
M  V30 2581 N 239.452 1.56882 -0.150215 0
M  V30 2582 C 240.701 1.95403 0.500071 0
M  V30 2583 C 241.014 1.03777 1.658 0
M  V30 2584 O 242.22 1.31889 2.37313 0
M  V30 2585 C 240.676 3.4738 0.941018 0
M  V30 2586 C 240.284 4.47596 -0.190158 0
M  V30 2587 C 242.028 3.9476 1.56091 0
M  V30 2588 C 239.935 5.90787 0.269237 0
M  V30 2589 H 238.865 0.729515 0.190588 0
M  V30 2590 H 241.516 1.81988 -0.235074 0
M  V30 2591 H 239.898 3.56138 1.73152 0
M  V30 2592 H 241.072 4.50536 -0.967157 0
M  V30 2593 H 239.387 4.10151 -0.718666 0
M  V30 2594 H 241.984 4.99181 1.9163 0
M  V30 2595 H 242.327 3.36494 2.45107 0
M  V30 2596 H 242.86 3.88932 0.835249 0
M  V30 2597 H 239.599 6.52879 -0.585621 0
M  V30 2598 H 239.119 5.912 1.01204 0
M  V30 2599 H 240.798 6.42979 0.720176 0
M  V30 2600 N 240.93 -0.123565 1.57115 0
M  V30 2601 C 242.178 -0.83051 1.84247 0
M  V30 2602 C 242.499 -1.80629 0.73471 0
M  V30 2603 O 241.769 -1.94403 -0.241688 0
M  V30 2604 H 240.349 -0.309694 0.679778 0
M  V30 2605 H 243.011 -0.111976 1.94578 0
M  V30 2606 H 242.107 -1.37852 2.80006 0
M  V30 2607 N 242.408 -1.52605 -0.393616 0
M  V30 2608 C 243.657 -1.66649 -1.13627 0
M  V30 2609 C 243.97 -0.410364 -1.91247 0
M  V30 2610 O 245.176 -0.430854 -2.68059 0
M  V30 2611 C 243.632 -2.9449 -2.06891 0
M  V30 2612 C 243.24 -4.27266 -1.34714 0
M  V30 2613 C 244.984 -3.17899 -2.81319 0
M  V30 2614 C 242.891 -5.46217 -2.26717 0
M  V30 2615 H 241.821 -0.62084 -0.427871 0
M  V30 2616 H 244.472 -1.791 -0.399428 0
M  V30 2617 H 242.854 -2.75774 -2.84191 0
M  V30 2618 H 244.028 -4.56518 -0.626714 0
M  V30 2619 H 242.343 -4.10081 -0.722643 0
M  V30 2620 H 244.94 -4.03949 -3.50328 0
M  V30 2621 H 245.283 -2.32777 -3.45139 0
M  V30 2622 H 245.816 -3.37159 -2.11113 0
M  V30 2623 H 242.555 -6.33733 -1.67521 0
M  V30 2624 H 242.075 -5.21283 -2.96689 0
M  V30 2625 H 243.754 -5.7991 -2.86903 0
M  V30 2626 N 243.887 0.651787 -1.4349 0
M  V30 2627 C 245.164 1.40909 -1.35661 0
M  V30 2628 C 245.544 2.11099 -0.00511733 0
M  V30 2629 O 244.892 2.04892 1.0115 0
M  V30 2630 C 245.102 2.3926 -2.54078 0
M  V30 2631 C 246.45 3.03217 -2.97228 0
M  V30 2632 O 247.474 2.49588 -2.54135 0
M  V30 2633 O 246.333 4.00455 -3.71885 0
M  V30 2634 H 243.427 0.629625 -0.536191 0
M  V30 2635 H 245.973 0.678575 -1.55542 0
M  V30 2636 H 244.745 1.86352 -3.44076 0
M  V30 2637 H 244.368 3.1976 -2.36303 0
M  V30 2638 N 245.365 1.30045 0.890287 0
M  V30 2639 C 246.295 1.18541 2.01172 0
M  V30 2640 C 247.276 0.0773356 1.69924 0
M  V30 2641 O 248.461 0.25845 1.92473 0
M  V30 2642 C 245.591 0.870941 3.36202 0
M  V30 2643 C 244.545 1.93637 3.81692 0
M  V30 2644 C 243.871 1.475 5.13953 0
M  V30 2645 C 245.171 3.34666 4.00994 0
M  V30 2646 H 246.865 2.12359 2.11054 0
M  V30 2647 H 244.411 1.02238 1.01407 0
M  V30 2648 H 246.364 0.777141 4.14172 0
M  V30 2649 H 245.088 -0.102926 3.26438 0
M  V30 2650 H 243.747 2.01972 3.05946 0
M  V30 2651 H 243.395 0.489551 5.00612 0
M  V30 2652 H 243.095 2.1876 5.4536 0
M  V30 2653 H 244.619 1.39489 5.94454 0
M  V30 2654 H 246.033 3.2912 4.69417 0
M  V30 2655 H 244.43 4.03966 4.43769 0
M  V30 2656 H 245.5 3.76949 3.05021 0
M  V30 2657 N 246.843 -1.10192 1.12674 0
M  V30 2658 C 247.806 -2.14786 0.799979 0
M  V30 2659 C 248.806 -1.59711 -0.18685 0
M  V30 2660 O 249.996 -1.74156 0.0392558 0
M  V30 2661 C 247.128 -3.40374 0.189228 0
M  V30 2662 H 248.321 -2.45203 1.72671 0
M  V30 2663 H 245.874 -1.25597 0.930326 0
M  V30 2664 H 246.609 -3.15577 -0.747107 0
M  V30 2665 H 246.394 -3.81637 0.899766 0
M  V30 2666 H 247.884 -4.17594 -0.0228143 0
M  V30 2667 N 248.321 -0.919034 -1.28029 0
M  V30 2668 C 249.546 -0.570357 -1.99403 0
M  V30 2669 C 249.971 0.842486 -1.68178 0
M  V30 2670 O 249.329 1.56391 -0.917141 0
M  V30 2671 C 249.377 -0.792541 -3.51783 0
M  V30 2672 O 248.481 0.145988 -4.12142 0
M  V30 2673 H 247.822 -0.220555 -0.6263 0
M  V30 2674 H 250.352 -1.23592 -1.63053 0
M  V30 2675 H 250.362 -0.704708 -4.01868 0
M  V30 2676 H 249.037 -1.82247 -3.73844 0
M  V30 2677 H 247.614 0.00897528 -3.72899 0
M  V30 2678 N 249.799 1.42003 -0.683588 0
M  V30 2679 C 250.749 2.27997 0.0121992 0
M  V30 2680 C 251.733 1.4156 0.764822 0
M  V30 2681 O 252.925 1.64935 0.642287 0
M  V30 2682 C 250.054 3.29706 0.956482 0
M  V30 2683 C 249.14 4.23625 0.200739 0
M  V30 2684 N 249.531 4.99448 -0.799087 0
M  V30 2685 C 247.829 4.43845 0.437937 0
M  V30 2686 C 248.53 5.68102 -1.25041 0
M  V30 2687 N 247.506 5.40511 -0.578648 0
M  V30 2688 H 251.308 2.84048 -0.754564 0
M  V30 2689 H 248.822 1.54071 -0.513398 0
M  V30 2690 H 250.819 3.90124 1.47 0
M  V30 2691 H 249.479 2.75216 1.72297 0
M  V30 2692 H 250.49 5.04303 -1.17893 0
M  V30 2693 H 247.167 4.00382 1.18325 0
M  V30 2694 H 248.557 6.38913 -2.07942 0
M  V30 2695 N 251.277 0.427512 1.51691 0
M  V30 2696 C 252.525 -0.141948 2.01601 0
M  V30 2697 C 252.846 -1.44067 1.31414 0
M  V30 2698 O 252.116 -1.90763 0.445658 0
M  V30 2699 H 250.696 -0.0554468 0.744939 0
M  V30 2700 H 253.358 0.567968 1.86441 0
M  V30 2701 H 252.454 -0.324913 3.10404 0
M  V30 2702 N 252.755 -1.56801 0.158532 0
M  V30 2703 C 254.002 -1.9649 -0.489679 0
M  V30 2704 C 254.33 -1.04394 -1.6411 0
M  V30 2705 O 253.585 -0.0754401 -1.95555 0
M  V30 2706 C 253.884 -3.4235 -1.02623 0
M  V30 2707 C 253.55 -4.50899 0.00794526 0
M  V30 2708 C 252.212 -4.80312 0.292207 0
M  V30 2709 C 254.564 -5.16333 0.710584 0
M  V30 2710 C 251.892 -5.72461 1.28472 0
M  V30 2711 C 254.244 -6.09553 1.69199 0
M  V30 2712 C 252.908 -6.37339 1.98383 0
M  V30 2713 H 252.178 -0.719009 -0.179186 0
M  V30 2714 H 254.825 -1.8989 0.247798 0
M  V30 2715 H 253.13 -3.45838 -1.84128 0
M  V30 2716 H 254.827 -3.70393 -1.53656 0
M  V30 2717 H 251.417 -4.28015 -0.22379 0
M  V30 2718 H 255.601 -4.93732 0.504174 0
M  V30 2719 H 250.857 -5.92278 1.51714 0
M  V30 2720 H 255.031 -6.59327 2.24189 0
M  V30 2721 H 252.658 -7.08546 2.7544 0
M  V30 2722 N 254.233 0.115231 -1.57178 0
M  V30 2723 C 255.482 0.820945 -1.84237 0
M  V30 2724 C 255.795 1.80866 -0.744761 0
M  V30 2725 O 257.001 2.56083 -0.901871 0
M  V30 2726 C 255.457 1.51072 -3.26658 0
M  V30 2727 C 255.065 0.563795 -4.44438 0
M  V30 2728 C 256.809 2.20134 -3.62962 0
M  V30 2729 C 254.716 1.25701 -5.77887 0
M  V30 2730 H 253.646 0.310328 -0.687177 0
M  V30 2731 H 256.297 0.0737134 -1.83352 0
M  V30 2732 H 254.679 2.30471 -3.22024 0
M  V30 2733 H 255.853 -0.197247 -4.60378 0
M  V30 2734 H 254.168 -0.0200638 -4.16395 0
M  V30 2735 H 256.765 2.72696 -4.59936 0
M  V30 2736 H 257.108 2.98107 -2.90582 0
M  V30 2737 H 257.641 1.47619 -3.69396 0
M  V30 2738 H 254.38 0.518493 -6.53446 0
M  V30 2739 H 253.9 1.98997 -5.65827 0
M  V30 2740 H 255.579 1.78915 -6.2177 0
M  V30 2741 N 255.711 1.52812 0.385517 0
M  V30 2742 C 256.957 1.68275 1.13188 0
M  V30 2743 C 257.29 0.423179 1.89533 0
M  V30 2744 O 256.565 -0.579113 1.85679 0
M  V30 2745 C 256.848 2.92001 2.1073 0
M  V30 2746 C 256.701 4.28067 1.38125 0
M  V30 2747 C 258.02 3.11283 3.11113 0
M  V30 2748 H 255.139 0.612352 0.410115 0
M  V30 2749 H 257.781 1.85415 0.414869 0
M  V30 2750 H 255.931 2.77519 2.71874 0
M  V30 2751 H 257.603 4.54324 0.799187 0
M  V30 2752 H 255.846 4.28388 0.683092 0
M  V30 2753 H 256.517 5.10733 2.09417 0
M  V30 2754 H 258.993 3.2482 2.6006 0
M  V30 2755 H 257.869 3.99325 3.76605 0
M  V30 2756 H 258.13 2.25656 3.80173 0
M  V30 2757 N 257.189 -0.644168 1.43834 0
M  V30 2758 C 258.152 -1.73857 1.49353 0
M  V30 2759 C 259.152 -1.56315 0.377112 0
M  V30 2760 O 260.342 -1.62048 0.639226 0
M  V30 2761 C 257.474 -3.12819 1.35488 0
M  V30 2762 H 258.667 -1.70342 2.46827 0
M  V30 2763 H 256.22 -0.856652 1.30733 0
M  V30 2764 H 256.955 -3.2194 0.390569 0
M  V30 2765 H 256.74 -3.26958 2.16428 0
M  V30 2766 H 258.23 -3.92606 1.42302 0
M  V30 2767 N 258.668 -1.30515 -0.883378 0
M  V30 2768 C 259.631 -1.1701 -1.97082 0
M  V30 2769 C 260.631 -0.10089 -1.60483 0
M  V30 2770 O 261.821 -0.349127 -1.70666 0
M  V30 2771 C 258.953 -0.793045 -3.31547 0
M  V30 2772 H 260.146 -2.13622 -2.10489 0
M  V30 2773 H 257.699 -1.13935 -1.06998 0
M  V30 2774 H 258.434 0.172499 -3.23841 0
M  V30 2775 H 258.219 -1.56576 -3.5948 0
M  V30 2776 H 259.709 -0.722073 -4.1131 0
M  V30 2777 N 260.146 1.09593 -1.13257 0
M  V30 2778 C 261.392 1.82003 -0.89458 0
M  V30 2779 C 261.725 1.85402 0.577906 0
M  V30 2780 O 261 1.32099 1.42759 0
M  V30 2781 C 261.283 3.28237 -1.48096 0
M  V30 2782 C 261.136 3.3312 -3.02244 0
M  V30 2783 C 262.455 4.24871 -1.14774 0
M  V30 2784 H 259.574 0.66077 -0.326424 0
M  V30 2785 H 262.216 1.28389 -1.40058 0
M  V30 2786 H 260.366 3.74024 -1.05062 0
M  V30 2787 H 262.038 2.95748 -3.54021 0
M  V30 2788 H 260.281 2.72756 -3.37323 0
M  V30 2789 H 260.952 4.3613 -3.38371 0
M  V30 2790 H 263.428 3.87361 -1.51957 0
M  V30 2791 H 262.304 5.25532 -1.58452 0
M  V30 2792 H 262.565 4.42058 -0.0611849 0
M  V30 2793 N 261.624 0.925811 1.2754 0
M  V30 2794 C 262.534 0.428993 2.30644 0
M  V30 2795 C 263.55 -0.489387 1.66976 0
M  V30 2796 O 264.726 -0.372653 1.97922 0
M  V30 2797 C 261.791 -0.311967 3.45294 0
M  V30 2798 C 260.852 0.641098 4.24486 0
M  V30 2799 C 260.085 -0.0645955 5.33661 0
M  V30 2800 O 260.308 -1.28429 5.55754 0
M  V30 2801 O 259.242 0.606265 5.98839 0
M  V30 2802 H 263.068 1.28504 2.75173 0
M  V30 2803 H 260.653 0.691086 1.32455 0
M  V30 2804 H 262.535 -0.729972 4.15029 0
M  V30 2805 H 261.21 -1.14365 3.02824 0
M  V30 2806 H 260.117 1.10874 3.57292 0
M  V30 2807 H 261.45 1.43995 4.70666 0
M  V30 2808 N 263.102 -1.41638 0.69111 0
M  V30 2809 C 264.052 -2.28 -0.000107832 0
M  V30 2810 C 265.036 -1.41964 -0.757304 0
M  V30 2811 O 266.228 -1.65274 -0.633532 0
M  V30 2812 C 263.357 -3.30209 -0.938983 0
M  V30 2813 C 262.443 -4.23725 -0.17827 0
M  V30 2814 N 262.834 -4.99017 0.825563 0
M  V30 2815 C 261.132 -4.44071 -0.414392 0
M  V30 2816 C 261.833 -5.67431 1.28052 0
M  V30 2817 N 260.809 -5.40197 0.607304 0
M  V30 2818 H 264.611 -2.83644 0.769617 0
M  V30 2819 H 262.125 -1.53797 0.521562 0
M  V30 2820 H 264.122 -3.90898 -1.44929 0
M  V30 2821 H 262.782 -2.76126 -1.70836 0
M  V30 2822 H 263.793 -5.03671 1.20566 0
M  V30 2823 H 260.47 -4.01004 -1.162 0
M  V30 2824 H 261.86 -6.37801 2.11327 0
M  V30 2825 N 264.58 -0.43555 -1.51462 0
M  V30 2826 C 265.996 -0.0877501 -1.59359 0
M  V30 2827 C 266.196 1.4027 -1.4466 0
M  V30 2828 O 265.252 2.17243 -1.28693 0
M  V30 2829 C 266.565 -0.606264 -2.94525 0
M  V30 2830 C 268.113 -0.566548 -3.0783 0
M  V30 2831 C 268.588 -1.06201 -4.45517 0
M  V30 2832 N 270.079 -1.01992 -4.51832 0
M  V30 2833 C 270.814 -1.37417 -5.5669 0
M  V30 2834 N 270.31 -1.80119 -6.68976 0
M  V30 2835 N 272.103 -1.29245 -5.47039 0
M  V30 2836 H 264.254 -1.40533 -1.59261 0
M  V30 2837 H 266.517 -0.578992 -0.750648 0
M  V30 2838 H 266.223 -1.64901 -3.10645 0
M  V30 2839 H 266.097 -0.0302097 -3.77188 0
M  V30 2840 H 268.484 0.467208 -2.91378 0
M  V30 2841 H 268.565 -1.17898 -2.2701 0
M  V30 2842 H 268.209 -2.09422 -4.62715 0
M  V30 2843 H 268.139 -0.426127 -5.24873 0
M  V30 2844 H 270.63 -0.706308 -3.71241 0
M  V30 2845 H 270.943 -2.05392 -7.45006 0
M  V30 2846 H 269.288 -1.84044 -6.70189 0
M  V30 2847 H 272.479 -0.957522 -4.58202 0
M  V30 2848 H 272.652 -1.57182 -6.28648 0
M  V30 2849 N 266.058 1.56714 -0.166846 0
M  V30 2850 C 267.335 1.88412 0.525373 0
M  V30 2851 C 267.715 1.07602 1.81618 0
M  V30 2852 O 267.063 0.168621 2.27877 0
M  V30 2853 C 267.273 3.40363 0.771613 0
M  V30 2854 C 268.621 4.10007 1.1036 0
M  V30 2855 O 269.645 3.45655 0.860304 0
M  V30 2856 O 268.504 5.2369 1.56239 0
M  V30 2857 H 265.598 0.781587 0.270278 0
M  V30 2858 H 268.144 1.68458 -0.204946 0
M  V30 2859 H 266.916 3.91046 -0.141093 0
M  V30 2860 H 266.539 3.65914 1.55541 0
M  V30 2861 N 267.536 -0.106894 1.57237 0
M  V30 2862 C 268.952 -0.46078 1.52804 0
M  V30 2863 C 269.152 -1.81184 0.881746 0
M  V30 2864 O 268.208 -2.48102 0.469224 0
M  V30 2865 C 269.521 -0.434127 2.9755 0
M  V30 2866 C 271.069 -0.516821 3.08704 0
M  V30 2867 C 271.544 -0.520436 4.55033 0
M  V30 2868 N 273.035 -0.58153 4.59535 0
M  V30 2869 C 273.77 -0.605973 5.70189 0
M  V30 2870 N 273.266 -0.587331 6.90306 0
M  V30 2871 N 275.059 -0.649895 5.5833 0
M  V30 2872 H 267.21 0.778203 1.9763 0
M  V30 2873 H 269.473 0.288403 0.903066 0
M  V30 2874 H 269.179 0.491197 3.48253 0
M  V30 2875 H 269.053 -1.25748 3.55622 0
M  V30 2876 H 271.44 -1.43256 2.57995 0
M  V30 2877 H 271.521 0.334449 2.53604 0
M  V30 2878 H 271.165 0.391313 5.0639 0
M  V30 2879 H 271.095 -1.38876 5.07958 0
M  V30 2880 H 273.586 -0.60161 3.73081 0
M  V30 2881 H 273.899 -0.60894 7.70397 0
M  V30 2882 H 272.244 -0.554564 6.92784 0
M  V30 2883 H 275.435 -0.661907 4.63397 0
M  V30 2884 H 275.608 -0.665476 6.44574 0
M  V30 2885 N 269.014 -1.53014 -0.377408 0
M  V30 2886 C 270.239 -1.72818 -1.14668 0
M  V30 2887 C 270.664 -0.450725 -1.8262 0
M  V30 2888 O 270.022 0.59439 -1.7128 0
M  V30 2889 C 270.07 -2.88627 -2.16164 0
M  V30 2890 O 269.174 -2.56409 -3.22998 0
M  V30 2891 H 268.515 -0.574301 -0.333278 0
M  V30 2892 H 271.045 -1.99853 -0.438152 0
M  V30 2893 H 271.055 -3.14455 -2.59966 0
M  V30 2894 H 269.73 -3.81294 -1.66095 0
M  V30 2895 H 268.307 -2.4136 -2.84253 0
M  V30 2896 N 270.492 0.636531 -1.44174 0
M  V30 2897 C 271.455 1.73063 -1.50273 0
M  V30 2898 C 272.455 1.56113 -0.385397 0
M  V30 2899 O 273.645 1.61707 -0.64781 0
M  V30 2900 C 270.777 3.12096 -1.37145 0
M  V30 2901 H 271.97 1.69031 -2.47727 0
M  V30 2902 H 269.523 0.849706 -1.31186 0
M  V30 2903 H 270.258 3.21728 -0.407636 0
M  V30 2904 H 270.043 3.25805 -2.18159 0
M  V30 2905 H 271.533 3.91846 -1.44382 0
M  V30 2906 N 271.97 1.30982 0.876444 0
M  V30 2907 C 273.195 1.23373 1.66715 0
M  V30 2908 C 273.62 -0.19885 1.87046 0
M  V30 2909 O 272.978 -1.1427 1.40756 0
M  V30 2910 C 273.026 1.97644 3.01611 0
M  V30 2911 O 272.13 1.30935 3.91062 0
M  V30 2912 H 271.471 0.426279 0.509099 0
M  V30 2913 H 274.001 1.72944 1.09323 0
M  V30 2914 H 274.011 2.06992 3.51594 0
M  V30 2915 H 272.686 3.01829 2.86133 0
M  V30 2916 H 271.263 1.29996 3.49507 0
M  V30 2917 N 273.449 -1.08991 1.13837 0
M  V30 2918 C 274.412 -2.13925 0.822715 0
M  V30 2919 C 275.412 -1.599 -0.1699 0
M  V30 2920 O 276.602 -1.74104 0.0577251 0
M  V30 2921 C 273.734 -3.40155 0.225318 0
M  V30 2922 H 274.927 -2.43358 1.75262 0
M  V30 2923 H 272.48 -1.24603 0.943594 0
M  V30 2924 H 273.215 -3.16352 -0.713594 0
M  V30 2925 H 273 -3.80661 0.940193 0
M  V30 2926 H 274.49 -4.17594 0.0214784 0
M  V30 2927 N 274.927 -0.932562 -1.27047 0
M  V30 2928 C 276.155 -0.592031 -1.98249 0
M  V30 2929 C 276.57 0.831062 -1.69525 0
M  V30 2930 O 275.927 1.55299 -0.958561 0
M  V30 2931 C 275.978 -0.814279 -3.5221 0
M  V30 2932 O 275.699 -2.18139 -3.7993 0
M  V30 2933 C 277.2 -0.483121 -4.4066 0
M  V30 2934 H 274.42 -0.223896 -0.632544 0
M  V30 2935 H 276.964 -1.25091 -1.61779 0
M  V30 2936 H 275.119 -0.20213 -3.86872 0
M  V30 2937 H 275.533 -2.235 -4.74498 0
M  V30 2938 H 277.007 -0.689298 -5.47679 0
M  V30 2939 H 277.484 0.581546 -4.35333 0
M  V30 2940 H 278.09 -1.07362 -4.11526 0
M  V30 2941 N 276.405 1.4127 -0.698611 0
M  V30 2942 C 277.635 2.05205 -0.239644 0
M  V30 2943 C 278.043 1.52684 1.11733 0
M  V30 2944 O 277.386 0.671222 1.70998 0
M  V30 2945 C 277.448 3.59289 -0.123126 0
M  V30 2946 C 277.112 4.34619 -1.41263 0
M  V30 2947 C 278.109 4.63701 -2.35111 0
M  V30 2948 C 275.794 4.73837 -1.66684 0
M  V30 2949 C 277.788 5.30966 -3.52639 0
M  V30 2950 C 275.475 5.40837 -2.84498 0
M  V30 2951 C 276.473 5.69329 -3.77298 0
M  V30 2952 O 276.161 6.34949 -4.93047 0
M  V30 2953 H 275.893 0.66723 -0.108537 0
M  V30 2954 H 278.447 1.81974 -0.952602 0
M  V30 2955 H 276.677 3.81272 0.645628 0
M  V30 2956 H 278.366 4.04797 0.299056 0
M  V30 2957 H 279.132 4.33882 -2.16729 0
M  V30 2958 H 275.011 4.51039 -0.953135 0
M  V30 2959 H 278.555 5.53121 -4.25091 0
M  V30 2960 H 274.452 5.70075 -3.02795 0
M  V30 2961 H 275.22 6.53445 -4.92902 0
M  V30 2962 N 277.883 0.443576 1.51229 0
M  V30 2963 C 279.113 -0.119117 2.06256 0
M  V30 2964 C 279.521 -1.36471 1.31043 0
M  V30 2965 O 278.864 -1.80034 0.365151 0
M  V30 2966 C 278.926 -0.500546 3.55998 0
M  V30 2967 C 278.59 0.639125 4.52509 0
M  V30 2968 C 279.587 1.51311 4.97394 0
M  V30 2969 C 277.272 0.821632 4.95535 0
M  V30 2970 C 279.266 2.55425 5.83984 0
M  V30 2971 C 276.953 1.86603 5.81913 0
M  V30 2972 C 277.951 2.73072 6.26036 0
M  V30 2973 O 277.639 3.75718 7.10698 0
M  V30 2974 H 277.371 -0.00857665 0.675946 0
M  V30 2975 H 279.925 0.623288 1.95715 0
M  V30 2976 H 278.155 -1.29575 3.64345 0
M  V30 2977 H 279.844 -0.995116 3.93513 0
M  V30 2978 H 280.61 1.38367 4.64844 0
M  V30 2979 H 276.489 0.158149 4.60729 0
M  V30 2980 H 280.033 3.22949 6.18344 0
M  V30 2981 H 275.93 1.99564 6.13876 0
M  V30 2982 H 276.698 3.72374 7.2889 0
M  V30 2983 N 279.361 -1.56624 0.175154 0
M  V30 2984 C 280.608 -1.96999 -0.468811 0
M  V30 2985 C 280.936 -1.06129 -1.62994 0
M  V30 2986 O 280.191 -0.0961771 -1.95464 0
M  V30 2987 C 280.49 -3.43419 -0.989864 0
M  V30 2988 C 280.156 -4.50866 0.0557687 0
M  V30 2989 C 278.818 -4.79975 0.343134 0
M  V30 2990 C 281.17 -5.15551 0.765308 0
M  V30 2991 C 278.498 -5.71066 1.34536 0
M  V30 2992 C 280.85 -6.07724 1.75654 0
M  V30 2993 C 279.514 -6.35199 2.05132 0
M  V30 2994 H 278.784 -0.720869 -0.17155 0
M  V30 2995 H 281.431 -1.89616 0.267924 0
M  V30 2996 H 279.736 -3.47772 -1.80449 0
M  V30 2997 H 281.433 -3.72002 -1.49719 0
M  V30 2998 H 278.023 -4.28229 -0.178381 0
M  V30 2999 H 282.207 -4.9317 0.556513 0
M  V30 3000 H 277.463 -5.90635 1.57988 0
M  V30 3001 H 281.637 -6.56912 2.31169 0
M  V30 3002 H 279.264 -7.05584 2.8294 0
M  V30 3003 N 280.839 0.0985539 -1.57292 0
M  V30 3004 C 281.786 1.11981 -2.01814 0
M  V30 3005 C 282.756 1.39999 -0.89384 0
M  V30 3006 O 283.941 1.5152 -1.15958 0
M  V30 3007 C 281.081 2.43577 -2.44467 0
M  V30 3008 C 280.194 2.2232 -3.70402 0
M  V30 3009 C 279.329 3.4729 -4.01949 0
M  V30 3010 C 278.368 3.2128 -5.21005 0
M  V30 3011 N 277.505 4.38507 -5.48321 0
M  V30 3012 H 282.345 0.733149 -2.88841 0
M  V30 3013 H 279.882 0.350482 -1.42864 0
M  V30 3014 H 281.84 3.20373 -2.6724 0
M  V30 3015 H 280.47 2.80097 -1.60455 0
M  V30 3016 H 279.522 1.36343 -3.55126 0
M  V30 3017 H 280.834 1.99089 -4.57345 0
M  V30 3018 H 279.988 4.32495 -4.25479 0
M  V30 3019 H 278.727 3.73572 -3.13521 0
M  V30 3020 H 277.732 2.34468 -4.97298 0
M  V30 3021 H 278.957 2.96348 -6.11028 0
M  V30 3022 H 276.903 4.64871 -4.62851 0
M  V30 3023 H 276.82 4.18455 -6.29628 0
M  V30 3024 H 278.088 5.24787 -5.76385 0
M  V30 3025 N 282.317 1.53212 0.369288 0
M  V30 3026 C 283.594 1.59815 1.12776 0
M  V30 3027 C 283.974 0.403402 2.0721 0
M  V30 3028 O 283.322 -0.606667 2.20299 0
M  V30 3029 C 283.532 2.94664 1.87013 0
M  V30 3030 C 284.88 3.49109 2.41677 0
M  V30 3031 O 285.904 2.96669 1.97144 0
M  V30 3032 O 284.763 4.40775 3.23079 0
M  V30 3033 H 281.857 0.645376 0.517125 0
M  V30 3034 H 284.403 1.65553 0.37285 0
M  V30 3035 H 283.175 3.73061 1.18071 0
M  V30 3036 H 282.798 2.92401 2.69421 0
M  V30 3037 N 283.795 -0.628877 1.44509 0
M  V30 3038 C 284.727 -1.754 1.47538 0
M  V30 3039 C 285.74 -1.58575 0.368506 0
M  V30 3040 O 286.929 -1.66847 0.634376 0
M  V30 3041 C 284.029 -3.1315 1.29577 0
M  V30 3042 C 283.202 -3.56413 2.53551 0
M  V30 3043 C 282.261 -4.7305 2.30457 0
M  V30 3044 O 281.287 -4.81247 3.03957 0
M  V30 3045 N 282.489 -5.64903 1.3366 0
M  V30 3046 H 285.254 -1.73272 2.44534 0
M  V30 3047 H 282.815 -0.813512 1.39977 0
M  V30 3048 H 284.807 -3.88902 1.11971 0
M  V30 3049 H 283.377 -3.09908 0.409371 0
M  V30 3050 H 282.597 -2.70847 2.86419 0
M  V30 3051 H 283.885 -3.82071 3.36005 0
M  V30 3052 H 283.283 -5.60975 0.729604 0
M  V30 3053 H 281.84 -6.40275 1.22032 0
M  V30 3054 N 285.273 -1.31445 -0.869486 0
M  V30 3055 C 286.498 -1.24256 -1.66058 0
M  V30 3056 C 286.923 0.188928 -1.87149 0
M  V30 3057 O 286.281 1.13522 -1.4136 0
M  V30 3058 C 286.329 -1.9924 -3.00559 0
M  V30 3059 O 285.433 -1.33007 -3.90362 0
M  V30 3060 H 284.774 -0.428973 -0.506831 0
M  V30 3061 H 287.304 -1.73521 -1.08404 0
M  V30 3062 H 287.314 -2.08854 -3.50491 0
M  V30 3063 H 285.989 -3.03342 -2.84528 0
M  V30 3064 H 284.566 -1.31848 -3.48813 0
M  V30 3065 N 286.751 1.08385 -1.14413 0
M  V30 3066 C 287.714 2.13486 -0.834048 0
M  V30 3067 C 288.714 1.59988 0.161418 0
M  V30 3068 O 289.904 1.74071 -0.0669575 0
M  V30 3069 C 287.036 3.4003 -0.243354 0
M  V30 3070 H 288.229 2.42425 -1.7655 0
M  V30 3071 H 285.782 1.24101 -0.950189 0
M  V30 3072 H 286.517 3.16726 0.696807 0
M  V30 3073 H 286.302 3.80157 -0.960367 0
M  V30 3074 H 287.792 4.17577 -0.0436242 0
M  V30 3075 N 288.23 0.939286 1.26551 0
M  V30 3076 C 289.193 0.451987 2.24699 0
M  V30 3077 C 290.193 -0.435869 1.5478 0
M  V30 3078 O 291.383 -0.235314 1.72603 0
M  V30 3079 C 288.515 -0.348801 3.39111 0
M  V30 3080 H 289.708 1.3193 2.69322 0
M  V30 3081 H 287.261 0.721072 1.38673 0
M  V30 3082 H 287.996 -1.23444 2.99887 0
M  V30 3083 H 287.781 0.287945 3.91041 0
M  V30 3084 H 289.271 -0.679726 4.12031 0
M  V30 3085 N 289.708 -1.40897 0.706093 0
M  V30 3086 C 290.618 -2.3455 0.0482286 0
M  V30 3087 C 291.634 -1.56796 -0.754396 0
M  V30 3088 O 292.81 -1.89228 -0.689538 0
M  V30 3089 C 289.875 -3.35625 -0.869303 0
M  V30 3090 C 288.936 -4.29261 -0.0576994 0
M  V30 3091 C 288.169 -5.25508 -0.931531 0
M  V30 3092 O 288.392 -5.27472 -2.17092 0
M  V30 3093 O 287.326 -6.00727 -0.375587 0
M  V30 3094 H 291.152 -2.92407 0.820476 0
M  V30 3095 H 288.737 -1.4193 0.4665 0
M  V30 3096 H 290.619 -3.97635 -1.39514 0
M  V30 3097 H 289.294 -2.80196 -1.62086 0
M  V30 3098 H 288.201 -3.70566 0.512988 0
M  V30 3099 H 289.534 -4.87817 0.655426 0
M  V30 3100 N 291.186 -0.45159 -1.50991 0
M  V30 3101 C 292.435 0.111653 -2.01391 0
M  V30 3102 C 292.748 1.42529 -1.33959 0
M  V30 3103 O 293.954 2.07232 -1.75405 0
M  V30 3104 C 292.41 0.249514 -3.59034 0
M  V30 3105 C 292.018 -1.05453 -4.35412 0
M  V30 3106 C 293.762 0.765762 -4.17536 0
M  V30 3107 C 291.669 -0.881529 -5.84793 0
M  V30 3108 H 290.599 0.0455022 -0.752626 0
M  V30 3109 H 293.25 -0.583524 -1.73975 0
M  V30 3110 H 291.632 1.00803 -3.82955 0
M  V30 3111 H 292.806 -1.82248 -4.23229 0
M  V30 3112 H 291.121 -1.50039 -3.88429 0
M  V30 3113 H 293.718 0.911913 -5.26866 0
M  V30 3114 H 294.061 1.75201 -3.77638 0
M  V30 3115 H 294.594 0.0651744 -3.97747 0
M  V30 3116 H 291.333 -1.84057 -6.29129 0
M  V30 3117 H 290.853 -0.153625 -5.99603 0
M  V30 3118 H 292.532 -0.540363 -6.4474 0
M  V30 3119 N 292.664 1.56529 -0.183458 0
M  V30 3120 C 293.912 1.96855 0.457452 0
M  V30 3121 C 294.233 1.07104 1.62953 0
M  V30 3122 O 293.503 0.139887 1.954 0
M  V30 3123 H 292.083 0.72693 0.171992 0
M  V30 3124 H 294.745 1.93056 -0.267476 0
M  V30 3125 H 293.841 3.01423 0.809368 0
M  V30 3126 N 294.142 -0.090211 1.57342 0
M  V30 3127 C 295.419 -0.824761 1.77361 0
M  V30 3128 C 295.799 -1.96698 0.76637 0
M  V30 3129 O 295.147 -2.27586 -0.204179 0
M  V30 3130 C 295.357 -1.31481 3.23286 0
M  V30 3131 C 296.705 -1.75563 3.86604 0
M  V30 3132 O 297.729 -1.41093 3.27065 0
M  V30 3133 O 296.588 -2.39317 4.91314 0
M  V30 3134 H 293.682 -0.393776 0.727234 0
M  V30 3135 H 296.228 -0.0717138 1.69548 0
M  V30 3136 H 295 -0.496671 3.88135 0
M  V30 3137 H 294.623 -2.12973 3.35751 0
M  V30 3138 N 295.62 -1.53406 -0.361157 0
M  V30 3139 C 296.567 -1.80156 -1.44265 0
M  V30 3140 C 297.537 -0.646183 -1.53015 0
M  V30 3141 O 298.722 -0.888818 -1.68833 0
M  V30 3142 C 295.862 -2.00116 -2.81154 0
M  V30 3143 C 294.975 -3.27833 -2.81335 0
M  V30 3144 C 294.11 -3.37957 -4.09828 0
M  V30 3145 C 293.149 -4.59689 -4.04168 0
M  V30 3146 N 292.286 -4.66942 -5.24318 0
M  V30 3147 H 297.126 -2.72438 -1.20754 0
M  V30 3148 H 294.663 -1.34954 -0.585296 0
M  V30 3149 H 296.621 -2.09677 -3.60682 0
M  V30 3150 H 295.251 -1.11167 -3.03054 0
M  V30 3151 H 294.303 -3.27204 -1.94014 0
M  V30 3152 H 295.615 -4.17442 -2.73027 0
M  V30 3153 H 294.769 -3.46853 -4.97773 0
M  V30 3154 H 293.508 -2.46372 -4.20894 0
M  V30 3155 H 292.513 -4.50889 -3.14609 0
M  V30 3156 H 293.738 -5.5262 -3.947 0
M  V30 3157 H 291.684 -3.7826 -5.35962 0
M  V30 3158 H 291.601 -5.50462 -5.18197 0
M  V30 3159 H 292.869 -4.80127 -6.14084 0
M  V30 3160 N 297.098 0.621204 -1.44841 0
M  V30 3161 C 298.323 1.41244 -1.51871 0
M  V30 3162 C 298.748 1.87519 -0.147764 0
M  V30 3163 O 298.106 1.59334 0.865 0
M  V30 3164 C 298.154 2.60221 -2.49634 0
M  V30 3165 O 297.258 3.60395 -2.00473 0
M  V30 3166 H 296.599 0.42223 -0.512463 0
M  V30 3167 H 299.129 0.757305 -1.90069 0
M  V30 3168 H 299.139 3.0764 -2.67996 0
M  V30 3169 H 297.814 2.25887 -3.4921 0
M  V30 3170 H 296.391 3.19717 -1.91925 0
M  V30 3171 N 298.576 1.31904 0.862503 0
M  V30 3172 C 299.822 1.23207 1.61838 0
M  V30 3173 C 300.177 -0.206062 1.91293 0
M  V30 3174 O 299.47 -1.14162 1.53875 0
M  V30 3175 C 299.664 2.01713 2.95037 0
M  V30 3176 C 299.493 3.53014 2.78588 0
M  V30 3177 C 298.263 4.22359 2.77382 0
M  V30 3178 C 300.461 4.47819 2.52909 0
M  V30 3179 N 298.443 5.59766 2.52062 0
M  V30 3180 C 299.814 5.72947 2.36922 0
M  V30 3181 C 301.869 4.37162 2.38314 0
M  V30 3182 C 300.572 6.88623 2.07823 0
M  V30 3183 C 302.598 5.5263 2.10604 0
M  V30 3184 C 301.96 6.76752 1.95411 0
M  V30 3185 H 298.059 0.505984 0.596242 0
M  V30 3186 H 300.643 1.66179 1.01452 0
M  V30 3187 H 298.814 1.61098 3.53415 0
M  V30 3188 H 300.546 1.84975 3.59953 0
M  V30 3189 H 297.301 3.74401 2.90036 0
M  V30 3190 H 297.725 6.32135 2.42352 0
M  V30 3191 H 302.367 3.41857 2.48784 0
M  V30 3192 H 300.085 7.83948 1.9609 0
M  V30 3193 H 303.671 5.46307 2.00101 0
M  V30 3194 H 302.551 7.6459 1.74274 0
M  V30 3195 N 300.054 -1.07777 1.14986 0
M  V30 3196 C 300.984 -2.16865 0.865557 0
M  V30 3197 C 301.965 -1.69123 -0.182083 0
M  V30 3198 O 303.15 -1.94164 -0.0373815 0
M  V30 3199 C 300.28 -3.45539 0.349313 0
M  V30 3200 C 299.234 -4.06708 1.33313 0
M  V30 3201 C 298.56 -5.30411 0.675918 0
M  V30 3202 C 299.86 -4.47241 2.69764 0
M  V30 3203 H 301.554 -2.40905 1.77778 0
M  V30 3204 H 299.1 -1.15781 0.856203 0
M  V30 3205 H 301.053 -4.21174 0.137983 0
M  V30 3206 H 299.777 -3.21072 -0.598362 0
M  V30 3207 H 298.436 -3.33112 1.53075 0
M  V30 3208 H 298.084 -5.02232 -0.277767 0
M  V30 3209 H 297.784 -5.72293 1.33244 0
M  V30 3210 H 299.308 -6.08755 0.474262 0
M  V30 3211 H 300.722 -5.14025 2.53873 0
M  V30 3212 H 299.119 -5.00062 3.3175 0
M  V30 3213 H 300.189 -3.58818 3.26156 0
M  V30 3214 N 301.532 -0.945985 -1.26051 0
M  V30 3215 C 302.762 -0.612136 -1.97323 0
M  V30 3216 C 303.17 0.818171 -1.70595 0
M  V30 3217 O 302.513 1.55777 -0.973613 0
M  V30 3218 C 302.575 -0.780347 -3.50929 0
M  V30 3219 C 302.239 -2.18619 -4.01317 0
M  V30 3220 C 303.236 -3.16209 -4.12683 0
M  V30 3221 C 300.921 -2.50805 -4.35203 0
M  V30 3222 C 302.915 -4.44085 -4.57238 0
M  V30 3223 C 300.602 -3.78912 -4.79446 0
M  V30 3224 C 301.6 -4.75365 -4.90425 0
M  V30 3225 O 301.288 -6.01191 -5.3369 0
M  V30 3226 H 301.02 -0.229134 -0.635982 0
M  V30 3227 H 303.574 -1.27036 -1.61404 0
M  V30 3228 H 301.804 -0.0649864 -3.86645 0
M  V30 3229 H 303.493 -0.448842 -4.03411 0
M  V30 3230 H 304.259 -2.92668 -3.86744 0
M  V30 3231 H 300.138 -1.76463 -4.2589 0
M  V30 3232 H 303.682 -5.19373 -4.65723 0
M  V30 3233 H 299.579 -4.02265 -5.0483 0
M  V30 3234 H 300.347 -6.04442 -5.51899 0
M  V30 3235 N 303.011 1.40521 -0.713556 0
M  V30 3236 C 303.941 2.33381 -0.0743864 0
M  V30 3237 C 304.922 1.52784 0.747735 0
M  V30 3238 O 306.107 1.81258 0.697071 0
M  V30 3239 C 303.237 3.36748 0.849598 0
M  V30 3240 C 302.191 4.27793 0.133247 0
M  V30 3241 C 301.517 5.21679 1.17281 0
M  V30 3242 C 302.817 5.12415 -1.01134 0
M  V30 3243 H 304.511 2.87081 -0.850007 0
M  V30 3244 H 302.057 1.38034 -0.410201 0
M  V30 3245 H 304.01 4.00648 1.30612 0
M  V30 3246 H 302.734 2.81439 1.65709 0
M  V30 3247 H 301.393 3.65342 -0.303426 0
M  V30 3248 H 301.041 4.62677 1.9733 0
M  V30 3249 H 300.741 5.83435 0.698397 0
M  V30 3250 H 302.265 5.88456 1.62947 0
M  V30 3251 H 303.679 5.69781 -0.634274 0
M  V30 3252 H 302.076 5.83203 -1.41399 0
M  V30 3253 H 303.146 4.48514 -1.84292 0
M  V30 3254 N 304.489 0.459591 1.5075 0
M  V30 3255 C 305.905 0.113092 1.59199 0
M  V30 3256 C 306.105 -1.37951 1.46874 0
M  V30 3257 O 305.161 -2.15168 1.32132 0
M  V30 3258 C 306.474 0.653043 2.93523 0
M  V30 3259 C 308.022 0.615449 3.0689 0
M  V30 3260 C 308.497 1.13275 4.43771 0
M  V30 3261 N 309.988 1.09167 4.50152 0
M  V30 3262 C 310.723 1.46256 5.54434 0
M  V30 3263 N 310.219 1.90739 6.66026 0
M  V30 3264 N 312.012 1.37932 5.44914 0
M  V30 3265 H 304.163 1.43049 1.57005 0
M  V30 3266 H 306.426 0.590861 0.741341 0
M  V30 3267 H 306.132 1.69822 3.07983 0
M  V30 3268 H 306.006 0.0902132 3.77092 0
M  V30 3269 H 308.393 -0.420793 2.92084 0
M  V30 3270 H 308.474 1.21495 2.25106 0
M  V30 3271 H 308.118 2.16757 4.59324 0
M  V30 3272 H 308.048 0.509576 5.24129 0
M  V30 3273 H 310.539 0.76528 3.7007 0
M  V30 3274 H 310.852 2.17218 7.41644 0
M  V30 3275 H 309.197 1.94683 6.67176 0
M  V30 3276 H 312.388 1.0303 4.56621 0
M  V30 3277 H 312.561 1.67164 6.26067 0
M  V30 3278 N 305.967 -1.56429 0.191757 0
M  V30 3279 C 307.195 -2.01867 -0.453586 0
M  V30 3280 C 307.61 -1.07191 -1.5542 0
M  V30 3281 O 306.967 -0.0762108 -1.82341 0
M  V30 3282 C 307.018 -3.47017 -1.013 0
M  V30 3283 O 306.739 -4.38078 0.0437005 0
M  V30 3284 C 308.24 -4.07956 -1.73456 0
M  V30 3285 H 305.46 -0.661211 -0.114199 0
M  V30 3286 H 308.004 -2.02295 0.299483 0
M  V30 3287 H 306.159 -3.47298 -1.71647 0
M  V30 3288 H 306.573 -5.23178 -0.372212 0
M  V30 3289 H 308.047 -5.1138 -2.07833 0
M  V30 3290 H 308.524 -3.51222 -2.63704 0
M  V30 3291 H 309.13 -4.11437 -1.07702 0
M  V30 3292 N 307.445 0.0818655 -1.57387 0
M  V30 3293 C 308.375 1.09885 -2.06028 0
M  V30 3294 C 309.356 1.4098 -0.951774 0
M  V30 3295 O 310.541 1.50781 -1.22387 0
M  V30 3296 C 307.671 2.4151 -2.4958 0
M  V30 3297 C 306.625 2.24792 -3.64215 0
M  V30 3298 C 305.951 3.61712 -3.93787 0
M  V30 3299 C 307.251 1.67749 -4.94629 0
M  V30 3300 H 308.945 0.694128 -2.91243 0
M  V30 3301 H 306.491 0.332448 -1.4011 0
M  V30 3302 H 308.444 3.12939 -2.82219 0
M  V30 3303 H 307.168 2.83943 -1.61381 0
M  V30 3304 H 305.827 1.55807 -3.31843 0
M  V30 3305 H 305.475 4.01697 -3.02735 0
M  V30 3306 H 305.175 3.51368 -4.70971 0
M  V30 3307 H 306.699 4.34587 -4.28913 0
M  V30 3308 H 308.113 2.29032 -5.25564 0
M  V30 3309 H 306.51 1.68128 -5.76067 0
M  V30 3310 H 307.58 0.638059 -4.80684 0
M  V30 3311 N 308.923 1.53595 0.353017 0
M  V30 3312 C 309.87 1.80919 1.43308 0
M  V30 3313 C 310.84 0.654288 1.5267 0
M  V30 3314 O 312.025 0.897759 1.6836 0
M  V30 3315 C 309.165 2.01605 2.80089 0
M  V30 3316 C 308.278 3.29321 2.79593 0
M  V30 3317 C 307.413 3.40125 4.0803 0
M  V30 3318 C 306.452 4.61826 4.01725 0
M  V30 3319 N 305.589 4.69716 5.21834 0
M  V30 3320 H 310.429 2.73074 1.19308 0
M  V30 3321 H 307.966 1.35263 0.578131 0
M  V30 3322 H 309.924 2.11586 3.59565 0
M  V30 3323 H 308.554 1.12772 3.0246 0
M  V30 3324 H 307.606 3.28229 1.92276 0
M  V30 3325 H 308.918 4.18884 2.70809 0
M  V30 3326 H 308.072 3.49488 4.95927 0
M  V30 3327 H 306.811 2.48601 4.19582 0
M  V30 3328 H 305.816 4.52552 3.12213 0
M  V30 3329 H 307.041 5.54705 3.91764 0
M  V30 3330 H 304.987 3.81097 5.33948 0
M  V30 3331 H 304.904 5.53202 5.1527 0
M  V30 3332 H 306.172 4.83376 6.11529 0
M  V30 3333 N 310.401 -0.613514 1.45168 0
M  V30 3334 C 311.333 -1.73825 1.4939 0
M  V30 3335 C 312.346 -1.58175 0.385304 0
M  V30 3336 O 313.535 -1.66165 0.652036 0
M  V30 3337 C 310.635 -3.11758 1.32891 0
M  V30 3338 C 309.808 -3.53704 2.57317 0
M  V30 3339 C 308.867 -4.70579 2.35462 0
M  V30 3340 O 307.893 -4.77996 3.09044 0
M  V30 3341 N 309.095 -5.63454 1.39644 0
M  V30 3342 H 311.86 -1.70669 2.46358 0
M  V30 3343 H 309.421 -0.79862 1.40832 0
M  V30 3344 H 311.413 -3.87692 1.1609 0
M  V30 3345 H 309.983 -3.09456 0.442218 0
M  V30 3346 H 309.203 -2.67794 2.89275 0
M  V30 3347 H 310.491 -3.78486 3.40038 0
M  V30 3348 H 309.889 -5.6017 0.789062 0
M  V30 3349 H 308.446 -6.38944 1.28816 0
M  V30 3350 N 311.879 -1.3236 -0.855495 0
M  V30 3351 C 312.789 -1.23221 -1.99634 0
M  V30 3352 C 313.805 -0.145983 -1.73387 0
M  V30 3353 O 314.981 -0.366502 -1.98037 0
M  V30 3354 C 312.046 -0.954782 -3.33294 0
M  V30 3355 C 311.107 -2.12937 -3.72769 0
M  V30 3356 C 310.34 -1.86508 -5.00051 0
M  V30 3357 O 310.563 -0.807231 -5.64659 0
M  V30 3358 O 309.497 -2.72591 -5.36636 0
M  V30 3359 H 313.323 -2.19126 -2.1028 0
M  V30 3360 H 310.908 -1.12241 -0.986018 0
M  V30 3361 H 312.79 -0.816519 -4.13414 0
M  V30 3362 H 311.465 -0.0258854 -3.2369 0
M  V30 3363 H 310.372 -2.3231 -2.93228 0
M  V30 3364 H 311.705 -3.04102 -3.87018 0
M  V30 3365 N 313.357 1.07166 -1.15556 0
M  V30 3366 C 314.267 2.17947 -0.868116 0
M  V30 3367 C 315.283 1.73297 0.156297 0
M  V30 3368 O 316.459 2.01392 -0.0182327 0
M  V30 3369 C 313.524 3.44789 -0.36355 0
M  V30 3370 C 312.585 4.03996 -1.45209 0
M  V30 3371 C 311.818 5.24783 -0.971508 0
M  V30 3372 O 312.041 5.70109 0.182194 0
M  V30 3373 O 310.975 5.75715 -1.75603 0
M  V30 3374 H 314.801 2.4503 -1.79427 0
M  V30 3375 H 312.386 1.16539 -0.934824 0
M  V30 3376 H 314.268 4.21307 -0.0887113 0
M  V30 3377 H 312.943 3.19253 0.534708 0
M  V30 3378 H 311.85 3.29009 -1.78056 0
M  V30 3379 H 313.183 4.33808 -2.32533 0
M  V30 3380 N 314.835 0.952656 1.25548 0
M  V30 3381 C 315.745 0.47782 2.29682 0
M  V30 3382 C 316.761 -0.453859 1.67977 0
M  V30 3383 O 317.937 -0.330587 1.98668 0
M  V30 3384 C 315.002 -0.238655 3.45878 0
M  V30 3385 C 314.063 0.730994 4.23031 0
M  V30 3386 C 313.296 0.0486165 5.33678 0
M  V30 3387 O 313.519 -1.16612 5.58353 0
M  V30 3388 O 312.453 0.733152 5.97418 0
M  V30 3389 H 316.279 1.34312 2.72386 0
M  V30 3390 H 313.864 0.719026 1.30959 0
M  V30 3391 H 315.746 -0.641774 4.16484 0
M  V30 3392 H 314.421 -1.07916 3.05181 0
M  V30 3393 H 313.328 1.18428 3.5486 0
M  V30 3394 H 314.661 1.53946 4.67506 0
M  V30 3395 N 316.313 -1.40141 0.720998 0
M  V30 3396 C 317.541 -2.05096 0.272656 0
M  V30 3397 C 317.956 -1.54334 -1.0875 0
M  V30 3398 O 317.313 -0.702211 -1.6845 0
M  V30 3399 C 317.364 -3.60636 0.249835 0
M  V30 3400 O 317.085 -4.09526 1.55629 0
M  V30 3401 C 318.586 -4.42772 -0.216396 0
M  V30 3402 H 315.806 -0.659897 0.121558 0
M  V30 3403 H 318.35 -1.79449 0.980723 0
M  V30 3404 H 316.505 -3.85232 -0.409237 0
M  V30 3405 H 316.919 -5.03758 1.4604 0
M  V30 3406 H 318.393 -5.51702 -0.181212 0
M  V30 3407 H 318.87 -4.20756 -1.25941 0
M  V30 3408 H 319.476 -4.23294 0.412596 0
M  V30 3409 N 317.792 -0.46758 -1.50504 0
M  V30 3410 C 318.742 0.34698 -2.25344 0
M  V30 3411 C 319.726 0.964469 -1.2879 0
M  V30 3412 O 320.918 0.8776 -1.53711 0
M  V30 3413 C 318.047 1.43042 -3.1208 0
M  V30 3414 C 317.133 0.82084 -4.16081 0
M  V30 3415 N 317.524 -0.0567602 -5.05768 0
M  V30 3416 C 315.822 1.08517 -4.32597 0
M  V30 3417 C 316.523 -0.402343 -5.80307 0
M  V30 3418 N 315.499 0.221607 -5.43148 0
M  V30 3419 H 319.301 -0.329129 -2.92051 0
M  V30 3420 H 316.815 -0.281508 -1.59942 0
M  V30 3421 H 318.812 2.02712 -3.64299 0
M  V30 3422 H 317.472 2.10856 -2.46921 0
M  V30 3423 H 318.483 -0.425349 -5.1615 0
M  V30 3424 H 315.16 1.75855 -3.78657 0
M  V30 3425 H 316.55 -1.11834 -6.62528 0
M  V30 3426 N 319.27 1.56325 -0.20005 0
M  V30 3427 C 320.519 1.96895 0.437652 0
M  V30 3428 C 320.832 1.08999 1.62415 0
M  V30 3429 O 322.038 1.39372 2.32997 0
M  V30 3430 C 320.494 3.50198 0.830025 0
M  V30 3431 C 320.102 4.46765 -0.332461 0
M  V30 3432 C 321.846 3.99526 1.43453 0
M  V30 3433 C 319.753 5.91344 0.0811468 0
M  V30 3434 H 318.683 0.735209 0.167282 0
M  V30 3435 H 321.334 1.81148 -0.292853 0
M  V30 3436 H 319.716 3.61467 1.61734 0
M  V30 3437 H 320.89 4.47231 -1.11 0
M  V30 3438 H 319.205 4.07657 -0.848789 0
M  V30 3439 H 321.802 5.05025 1.75652 0
M  V30 3440 H 322.145 3.44122 2.34277 0
M  V30 3441 H 322.678 3.91393 0.71109 0
M  V30 3442 H 319.417 6.50685 -0.793033 0
M  V30 3443 H 318.937 5.94121 0.823445 0
M  V30 3444 H 320.616 6.44945 0.515252 0
M  V30 3445 N 320.748 -0.0735177 1.57428 0
M  V30 3446 C 322.164 -0.428264 1.53747 0
M  V30 3447 C 322.364 -1.79272 0.91998 0
M  V30 3448 O 321.42 -2.47051 0.521745 0
M  V30 3449 C 322.733 -0.370914 2.98404 0
M  V30 3450 C 324.281 -0.451224 3.0973 0
M  V30 3451 C 324.756 -0.4238 4.56035 0
M  V30 3452 N 326.247 -0.483925 4.60665 0
M  V30 3453 C 326.982 -0.484891 5.71346 0
M  V30 3454 N 326.478 -0.440775 6.91396 0
M  V30 3455 N 328.271 -0.531319 5.59583 0
M  V30 3456 H 320.422 0.819949 1.95935 0
M  V30 3457 H 322.685 0.307493 0.896745 0
M  V30 3458 H 322.391 0.564956 3.47133 0
M  V30 3459 H 322.265 -1.18176 3.5821 0
M  V30 3460 H 324.652 -1.37752 2.60976 0
M  V30 3461 H 324.733 0.388167 2.52838 0
M  V30 3462 H 324.377 0.498638 5.05446 0
M  V30 3463 H 324.307 -1.2807 5.10789 0
M  V30 3464 H 326.798 -0.522338 3.74273 0
M  V30 3465 H 327.111 -0.44539 7.71515 0
M  V30 3466 H 325.456 -0.40749 6.93804 0
M  V30 3467 H 328.647 -0.563464 4.64696 0
M  V30 3468 H 328.82 -0.528603 6.4584 0
M  V30 3469 N 322.226 -1.5378 -0.344866 0
M  V30 3470 C 323.174 -1.82373 -1.4437 0
M  V30 3471 C 324.168 -0.694128 -1.54526 0
M  V30 3472 O 325.374 -0.877442 -1.57165 0
M  V30 3473 H 321.749 -0.577765 -0.481344 0
M  V30 3474 H 323.72 -2.74306 -1.17468 0
M  V30 3475 C 322.469 -2.04898 -2.80913 0
M  V30 3476 H 321.792 -2.9127 -2.73865 0
M  V30 3477 H 323.232 -2.28871 -3.56923 0
M  V30 3478 C 321.691 -0.834116 -3.26411 0
M  V30 3479 O 322.221 -0.0328885 -4.01687 0
M  V30 3480 N 320.427 -0.65171 -2.83198 0
M  V30 3481 H 319.974 -1.30489 -2.22104 0
M  V30 3482 H 319.932 0.159686 -3.13994 0
M  V30 3483 N 323.704 0.605807 -1.45491 0
M  V30 3484 C 324.614 1.74466 -1.56839 0
M  V30 3485 C 325.63 1.68006 -0.452772 0
M  V30 3486 O 326.806 1.8833 -0.713708 0
M  V30 3487 C 323.871 3.10931 -1.53371 0
M  V30 3488 C 322.932 3.28832 -2.75986 0
M  V30 3489 C 322.165 4.58787 -2.72673 0
M  V30 3490 O 322.388 5.4122 -1.80102 0
M  V30 3491 O 321.322 4.79438 -3.63899 0
M  V30 3492 H 325.148 1.67843 -2.53106 0
M  V30 3493 H 322.733 0.770108 -1.28022 0
M  V30 3494 H 324.615 3.92233 -1.54051 0
M  V30 3495 H 323.29 3.18042 -0.602572 0
M  V30 3496 H 322.197 2.47112 -2.80867 0
M  V30 3497 H 323.53 3.26599 -3.68231 0
M  V30 3498 N 325.182 1.32811 0.848464 0
M  V30 3499 C 326.114 1.18095 1.96433 0
M  V30 3500 C 327.127 0.114354 1.62398 0
M  V30 3501 O 328.316 0.363892 1.74751 0
M  V30 3502 C 325.416 0.786798 3.2964 0
M  V30 3503 C 324.589 1.943 3.91875 0
M  V30 3504 C 323.648 1.53138 5.03423 0
M  V30 3505 O 322.674 2.24432 5.23086 0
M  V30 3506 N 323.876 0.430915 5.78898 0
M  V30 3507 H 326.641 2.14218 2.09597 0
M  V30 3508 H 324.202 1.2543 1.02367 0
M  V30 3509 H 326.194 0.493715 4.01677 0
M  V30 3510 H 324.764 -0.0834541 3.12489 0
M  V30 3511 H 323.984 2.40224 3.12547 0
M  V30 3512 H 325.272 2.71689 4.30189 0
M  V30 3513 H 324.67 -0.162333 5.65467 0
M  V30 3514 H 323.227 0.197466 6.51501 0
M  V30 3515 N 326.66 -1.06551 1.16123 0
M  V30 3516 C 327.906 -1.79567 0.94252 0
M  V30 3517 C 328.239 -1.86869 -0.528547 0
M  V30 3518 O 327.514 -1.35838 -1.39206 0
M  V30 3519 C 327.797 -3.24195 1.56747 0
M  V30 3520 C 327.65 -3.24989 3.10969 0
M  V30 3521 C 328.969 -4.21678 1.25998 0
M  V30 3522 H 326.088 -0.651883 0.343828 0
M  V30 3523 H 328.73 -1.2463 1.43413 0
M  V30 3524 H 326.88 -3.71107 1.14942 0
M  V30 3525 H 328.552 -2.86258 3.61737 0
M  V30 3526 H 326.795 -2.63716 3.44436 0
M  V30 3527 H 327.466 -4.27005 3.49815 0
M  V30 3528 H 329.942 -3.83196 1.62174 0
M  V30 3529 H 328.818 -5.21146 1.7233 0
M  V30 3530 H 329.079 -4.4174 0.178367 0
M  V30 3531 N 328.138 -0.959301 -1.25041 0
M  V30 3532 C 329.554 -0.664474 -1.4511 0
M  V30 3533 C 329.754 0.776481 -1.85938 0
M  V30 3534 O 328.81 1.55128 -1.99227 0
M  V30 3535 C 330.123 -1.64139 -2.5195 0
M  V30 3536 C 331.671 -1.65309 -2.65786 0
M  V30 3537 C 332.146 -2.61777 -3.75815 0
M  V30 3538 N 333.637 -2.60169 -3.83231 0
M  V30 3539 C 334.372 -3.31489 -4.6787 0
M  V30 3540 N 333.868 -4.12298 -5.56761 0
M  V30 3541 N 335.661 -3.20354 -4.61876 0
M  V30 3542 H 327.812 -1.89043 -0.968332 0
M  V30 3543 H 330.075 -0.813408 -0.4869 0
M  V30 3544 H 329.781 -2.67086 -2.28819 0
M  V30 3545 H 329.655 -1.40756 -3.49954 0
M  V30 3546 H 332.042 -0.630778 -2.8828 0
M  V30 3547 H 332.123 -1.92753 -1.68167 0
M  V30 3548 H 331.767 -3.64137 -3.54071 0
M  V30 3549 H 331.697 -2.31616 -4.72929 0
M  V30 3550 H 334.188 -2.01507 -3.19692 0
M  V30 3551 H 334.501 -4.63625 -6.18281 0
M  V30 3552 H 332.846 -4.16395 -5.56454 0
M  V30 3553 H 336.037 -2.56692 -3.91442 0
M  V30 3554 H 336.21 -3.76201 -5.27614 0
M  V30 3555 N 329.616 1.39756 -0.72842 0
M  V30 3556 C 330.548 2.29157 -0.0446202 0
M  V30 3557 C 331.561 1.46484 0.710367 0
M  V30 3558 O 332.75 1.69632 0.55562 0
M  V30 3559 C 329.85 3.24987 0.961071 0
M  V30 3560 C 329.023 4.36572 0.268967 0
M  V30 3561 C 328.082 5.12756 1.18184 0
M  V30 3562 O 327.108 5.6534 0.661794 0
M  V30 3563 N 328.31 5.23331 2.51206 0
M  V30 3564 H 331.075 2.88482 -0.812295 0
M  V30 3565 H 328.636 1.51265 -0.577098 0
M  V30 3566 H 330.628 3.72827 1.57423 0
M  V30 3567 H 329.198 2.66739 1.63 0
M  V30 3568 H 328.418 3.90694 -0.524574 0
M  V30 3569 H 329.706 5.08363 -0.210934 0
M  V30 3570 H 329.104 4.82116 2.9594 0
M  V30 3571 H 327.661 5.74634 3.07634 0
M  V30 3572 N 331.094 0.475555 1.50254 0
M  V30 3573 C 332.51 0.12997 1.5907 0
M  V30 3574 C 332.71 -1.36385 1.48328 0
M  V30 3575 O 331.766 -2.13754 1.34407 0
M  V30 3576 C 333.079 0.684139 2.92814 0
M  V30 3577 C 334.627 0.647965 3.0622 0
M  V30 3578 C 335.102 1.17975 4.42545 0
M  V30 3579 N 336.593 1.13936 4.48969 0
M  V30 3580 C 337.328 1.52129 5.52851 0
M  V30 3581 N 336.824 1.97793 6.63965 0
M  V30 3582 N 338.617 1.43704 5.4342 0
M  V30 3583 H 330.768 1.44706 1.55479 0
M  V30 3584 H 333.031 0.598691 0.735033 0
M  V30 3585 H 332.737 1.73079 3.06164 0
M  V30 3586 H 332.611 0.130204 3.76975 0
M  V30 3587 H 334.998 -0.38979 2.92514 0
M  V30 3588 H 335.079 1.23876 2.23805 0
M  V30 3589 H 334.723 2.21616 4.57 0
M  V30 3590 H 334.653 0.565138 5.23559 0
M  V30 3591 H 337.144 0.804488 3.69238 0
M  V30 3592 H 337.457 2.25072 7.39299 0
M  V30 3593 H 335.802 2.01749 6.65073 0
M  V30 3594 H 338.993 1.07867 4.55502 0
M  V30 3595 H 339.166 1.73794 6.24259 0
M  V30 3596 N 332.573 -1.56217 0.208337 0
M  V30 3597 C 333.536 -2.18455 -0.693557 0
M  V30 3598 C 334.536 -1.14268 -1.13135 0
M  V30 3599 O 335.726 -1.39577 -1.0423 0
M  V30 3600 C 332.858 -2.79727 -1.94848 0
M  V30 3601 H 334.051 -2.99519 -0.15114 0
M  V30 3602 H 331.604 -1.56245 -0.041287 0
M  V30 3603 H 332.339 -2.02497 -2.53309 0
M  V30 3604 H 332.124 -3.56009 -1.64316 0
M  V30 3605 H 333.614 -3.27475 -2.59133 0
M  V30 3606 N 334.051 0.0651679 -1.57465 0
M  V30 3607 C 334.998 1.07675 -2.04144 0
M  V30 3608 C 335.968 1.38071 -0.923335 0
M  V30 3609 O 337.153 1.49026 -1.19146 0
M  V30 3610 C 334.293 2.38337 -2.49579 0
M  V30 3611 C 333.406 2.14413 -3.75035 0
M  V30 3612 C 332.541 3.38686 -4.09225 0
M  V30 3613 C 331.58 3.10156 -5.27702 0
M  V30 3614 N 330.717 4.26778 -5.57499 0
M  V30 3615 H 335.557 0.671716 -2.90331 0
M  V30 3616 H 333.094 0.3201 -1.43575 0
M  V30 3617 H 335.052 3.14632 -2.73975 0
M  V30 3618 H 333.682 2.7663 -1.6636 0
M  V30 3619 H 332.734 1.2878 -3.57939 0
M  V30 3620 H 334.046 1.89344 -4.61466 0
M  V30 3621 H 333.2 4.23373 -4.34558 0
M  V30 3622 H 331.939 3.66837 -3.21374 0
M  V30 3623 H 330.944 2.23866 -5.02159 0
M  V30 3624 H 332.169 2.8332 -6.17176 0
M  V30 3625 H 330.115 4.54948 -4.72608 0
M  V30 3626 H 330.032 4.05005 -6.38362 0
M  V30 3627 H 331.3 5.12443 -5.87386 0
M  V30 3628 N 335.529 1.53961 0.336706 0
M  V30 3629 C 336.439 1.85432 1.43708 0
M  V30 3630 C 337.455 0.745053 1.57242 0
M  V30 3631 O 338.631 1.03804 1.72588 0
M  V30 3632 C 335.696 2.06349 2.78605 0
M  V30 3633 C 334.757 3.30191 2.74358 0
M  V30 3634 C 333.99 3.50101 4.02822 0
M  V30 3635 O 334.213 2.7371 5.00439 0
M  V30 3636 O 333.147 4.43547 4.06878 0
M  V30 3637 H 336.973 2.78975 1.20028 0
M  V30 3638 H 334.558 1.39701 0.52952 0
M  V30 3639 H 336.44 2.21513 3.58483 0
M  V30 3640 H 335.115 1.15995 3.02203 0
M  V30 3641 H 334.022 3.20425 1.93078 0
M  V30 3642 H 335.355 4.2056 2.55715 0
M  V30 3643 N 337.007 -0.598083 1.45811 0
M  V30 3644 C 338.247 -1.36802 1.5187 0
M  V30 3645 C 338.611 -1.9133 0.160224 0
M  V30 3646 O 339.812 -2.6863 0.0955302 0
M  V30 3647 C 338.083 -2.47835 2.57513 0
M  V30 3648 S 339.642 -3.35458 2.82866 0
M  V30 3649 H 336.46 -0.466278 0.536755 0
M  V30 3650 H 339.062 -0.689152 1.82951 0
M  V30 3651 H 337.766 -2.06141 3.54872 0
M  V30 3652 H 337.297 -3.20512 2.28114 0
M  V30 3653 H 339.312 -4.46251 2.16967 0
M  V30 3654 N 338.485 -1.33259 -0.841409 0
M  V30 3655 C 339.71 -1.2775 -1.63385 0
M  V30 3656 C 340.135 0.149188 -1.87507 0
M  V30 3657 O 339.493 1.10498 -1.43736 0
M  V30 3658 C 339.541 -2.05571 -2.96265 0
M  V30 3659 O 338.645 -1.41257 -3.87453 0
M  V30 3660 H 337.986 -0.439627 -0.497618 0
M  V30 3661 H 340.516 -1.75782 -1.04699 0
M  V30 3662 H 340.526 -2.16241 -3.45982 0
M  V30 3663 H 339.201 -3.09309 -2.7803 0
M  V30 3664 H 337.778 -1.39217 -3.45938 0
M  V30 3665 N 339.963 1.05934 -1.16686 0
M  V30 3666 C 340.895 2.13468 -0.834503 0
M  V30 3667 C 341.908 1.62013 0.15984 0
M  V30 3668 O 343.097 1.7838 -0.0654228 0
M  V30 3669 C 340.197 3.3817 -0.222361 0
M  V30 3670 C 339.37 4.18928 -1.25771 0
M  V30 3671 C 338.429 5.21985 -0.664703 0
M  V30 3672 O 337.455 5.53334 -1.33453 0
M  V30 3673 N 338.657 5.77919 0.546834 0
M  V30 3674 H 341.422 2.42578 -1.75999 0
M  V30 3675 H 338.983 1.21967 -1.06469 0
M  V30 3676 H 340.975 4.04266 0.187472 0
M  V30 3677 H 339.545 3.06655 0.606758 0
M  V30 3678 H 338.765 3.48433 -1.84358 0
M  V30 3679 H 340.053 4.69687 -1.95631 0
M  V30 3680 H 339.451 5.54721 1.10912 0
M  V30 3681 H 338.008 6.45573 0.898829 0
M  V30 3682 N 341.441 0.965919 1.2453 0
M  V30 3683 C 342.404 0.499547 2.2369 0
M  V30 3684 C 343.404 -0.40294 1.5567 0
M  V30 3685 O 344.594 -0.19865 1.73064 0
M  V30 3686 C 341.726 -0.276792 3.39774 0
M  V30 3687 H 342.919 1.37613 2.66463 0
M  V30 3688 H 340.472 0.750324 1.37112 0
M  V30 3689 H 341.207 -1.17055 3.02438 0
M  V30 3690 H 340.992 0.370826 3.90343 0
M  V30 3691 H 342.482 -0.592175 4.1338 0
M  V30 3692 N 342.919 -1.39368 0.735821 0
M  V30 3693 C 343.849 -2.33234 0.111506 0
M  V30 3694 C 344.83 -1.53954 -0.723334 0
M  V30 3695 O 346.015 -1.82344 -0.668147 0
M  V30 3696 C 343.145 -3.38057 -0.795917 0
M  V30 3697 C 342.099 -4.2795 -0.065172 0
M  V30 3698 C 341.425 -5.23479 -1.08967 0
M  V30 3699 C 342.725 -5.10741 1.09273 0
M  V30 3700 H 344.419 -2.85692 0.895571 0
M  V30 3701 H 341.965 -1.37364 0.432109 0
M  V30 3702 H 343.918 -4.02675 -1.24221 0
M  V30 3703 H 342.642 -2.8404 -1.61211 0
M  V30 3704 H 341.301 -3.64813 0.361511 0
M  V30 3705 H 340.949 -4.65758 -1.89944 0
M  V30 3706 H 340.649 -5.84472 -0.605489 0
M  V30 3707 H 342.173 -5.90974 -1.53565 0
M  V30 3708 H 343.587 -5.68699 0.724841 0
M  V30 3709 H 341.984 -5.8088 1.50659 0
M  V30 3710 H 343.054 -4.45525 1.91404 0
M  V30 3711 N 344.397 -0.483516 -1.5 0
M  V30 3712 C 345.622 0.0667119 -2.07293 0
M  V30 3713 C 346.047 1.3164 -1.3436 0
M  V30 3714 O 345.405 1.76945 -0.394987 0
M  V30 3715 C 345.453 0.321126 -3.59167 0
M  V30 3716 O 344.557 1.39927 -3.87936 0
M  V30 3717 H 343.898 -0.0184758 -0.663743 0
M  V30 3718 H 346.428 -0.678125 -1.93035 0
M  V30 3719 H 346.438 0.557906 -4.04168 0
M  V30 3720 H 345.113 -0.592007 -4.11665 0
M  V30 3721 H 343.69 1.14882 -3.54763 0
M  V30 3722 N 345.875 1.56104 -0.216619 0
M  V30 3723 C 346.805 2.23063 0.690296 0
M  V30 3724 C 347.786 1.20072 1.20485 0
M  V30 3725 O 348.971 1.48643 1.24976 0
M  V30 3726 C 346.101 2.90672 1.90072 0
M  V30 3727 C 345.055 4.00092 1.5202 0
M  V30 3728 C 344.381 4.54972 2.80899 0
M  V30 3729 C 345.681 5.17398 0.71391 0
M  V30 3730 H 347.375 2.99109 0.132038 0
M  V30 3731 H 344.921 1.43866 0.0620664 0
M  V30 3732 H 346.874 3.36204 2.54057 0
M  V30 3733 H 345.598 2.12066 2.48386 0
M  V30 3734 H 344.257 3.55283 0.903839 0
M  V30 3735 H 343.905 3.73102 3.37348 0
M  V30 3736 H 343.605 5.28817 2.56176 0
M  V30 3737 H 345.129 5.0322 3.45836 0
M  V30 3738 H 346.543 5.59342 1.25735 0
M  V30 3739 H 344.94 5.97444 0.563951 0
M  V30 3740 H 346.01 4.84088 -0.280527 0
M  V30 3741 N 347.353 -0.0568162 1.57498 0
M  V30 3742 C 348.602 -0.752001 1.87157 0
M  V30 3743 C 348.915 -1.77978 0.811375 0
M  V30 3744 O 350.121 -2.52559 0.996293 0
M  V30 3745 C 348.577 -1.38844 3.3204 0
M  V30 3746 C 348.185 -0.398456 4.46225 0
M  V30 3747 C 349.929 -2.06512 3.70882 0
M  V30 3748 C 347.836 -1.04166 5.82154 0
M  V30 3749 H 346.766 -0.28461 0.698222 0
M  V30 3750 H 349.417 -0.00561272 1.83499 0
M  V30 3751 H 347.799 -2.1836 3.30356 0
M  V30 3752 H 348.973 0.367977 4.59328 0
M  V30 3753 H 347.288 0.174592 4.16034 0
M  V30 3754 H 349.885 -2.55437 4.6974 0
M  V30 3755 H 350.228 -2.87117 3.01445 0
M  V30 3756 H 350.761 -1.33808 3.7462 0
M  V30 3757 H 347.5 -0.275614 6.5492 0
M  V30 3758 H 347.02 -1.7786 5.72823 0
M  V30 3759 H 348.699 -1.55715 6.27982 0
M  V30 3760 N 348.832 -1.54138 -0.328536 0
M  V30 3761 C 349.762 -1.86167 -1.40939 0
M  V30 3762 C 350.743 -0.718044 -1.54202 0
M  V30 3763 O 351.928 -0.971328 -1.68163 0
M  V30 3764 C 349.058 -2.08461 -2.77779 0
M  V30 3765 C 348.012 -3.24299 -2.7931 0
M  V30 3766 C 347.338 -3.31955 -4.19178 0
M  V30 3767 C 348.638 -4.62065 -2.43502 0
M  V30 3768 H 350.332 -2.76689 -1.14383 0
M  V30 3769 H 347.878 -1.33132 -0.548806 0
M  V30 3770 H 349.831 -2.29453 -3.53454 0
M  V30 3771 H 348.555 -1.14684 -3.05802 0
M  V30 3772 H 347.214 -3.03187 -2.0609 0
M  V30 3773 H 346.862 -2.35745 -4.44335 0
M  V30 3774 H 346.562 -4.09805 -4.2111 0
M  V30 3775 H 348.086 -3.55175 -4.96672 0
M  V30 3776 H 349.5 -4.8297 -3.08889 0
M  V30 3777 H 347.897 -5.42429 -2.56693 0
M  V30 3778 H 348.967 -4.64652 -1.38659 0
M  V30 3779 N 350.31 0.590341 -1.46126 0
M  V30 3780 C 351.587 1.35029 -1.41515 0
M  V30 3781 C 351.967 2.10888 -0.0946472 0
M  V30 3782 O 351.315 2.08998 0.923693 0
M  V30 3783 C 351.525 2.28269 -2.63997 0
M  V30 3784 C 352.873 2.90338 -3.09821 0
M  V30 3785 O 353.897 2.38585 -2.64492 0
M  V30 3786 O 352.756 3.84321 -3.88535 0
M  V30 3787 H 349.85 0.606317 -0.562413 0
M  V30 3788 H 352.396 0.611994 -1.58281 0
M  V30 3789 H 351.168 1.71591 -3.51671 0
M  V30 3790 H 350.791 3.0945 -2.49652 0
M  V30 3791 N 351.788 1.33704 0.83433 0
M  V30 3792 C 353.037 1.24763 1.58484 0
M  V30 3793 C 353.35 -0.183775 1.94735 0
M  V30 3794 O 354.556 -0.395234 2.68608 0
M  V30 3795 C 353.012 2.18638 2.85876 0
M  V30 3796 C 352.62 3.66974 2.56971 0
M  V30 3797 C 354.364 2.18581 3.63899 0
M  V30 3798 C 352.271 4.5275 3.80488 0
M  V30 3799 H 351.201 0.463425 0.594772 0
M  V30 3800 H 353.852 1.58797 0.919551 0
M  V30 3801 H 352.234 1.77542 3.5397 0
M  V30 3802 H 353.408 4.16538 1.9706 0
M  V30 3803 H 351.723 3.69366 1.92244 0
M  V30 3804 H 354.32 2.79894 4.55591 0
M  V30 3805 H 354.663 1.18207 3.99165 0
M  V30 3806 H 355.196 2.58062 3.02735 0
M  V30 3807 H 351.935 5.54017 3.5035 0
M  V30 3808 H 351.455 4.07927 4.39722 0
M  V30 3809 H 353.134 4.66784 4.4802 0
M  V30 3810 N 353.266 -1.05314 1.17247 0
M  V30 3811 C 354.543 -1.75184 0.87005 0
M  V30 3812 C 354.923 -2.01481 -0.629965 0
M  V30 3813 O 354.271 -1.64988 -1.58086 0
M  V30 3814 C 354.481 -3.04594 1.70363 0
M  V30 3815 C 355.829 -3.78567 1.92281 0
M  V30 3816 O 356.853 -3.14461 1.67311 0
M  V30 3817 O 355.712 -4.93755 2.3424 0
M  V30 3818 H 352.806 -0.761729 0.322021 0
M  V30 3819 H 355.352 -1.11493 1.27935 0
M  V30 3820 H 354.124 -2.81201 2.72106 0
M  V30 3821 H 353.747 -3.76022 1.29202 0
M  V30 3822 N 354.744 -0.972509 -1.24016 0
M  V30 3823 C 355.694 -0.477561 -2.22942 0
M  V30 3824 C 356.678 0.44308 -1.54679 0
M  V30 3825 O 357.87 0.273219 -1.74879 0
M  V30 3826 C 354.999 0.226348 -3.42553 0
M  V30 3827 C 354.085 -0.713403 -4.18057 0
M  V30 3828 N 354.476 -1.8527 -4.70647 0
M  V30 3829 C 352.774 -0.525145 -4.42898 0
M  V30 3830 C 353.475 -2.44089 -5.28011 0
M  V30 3831 N 352.451 -1.72556 -5.15486 0
M  V30 3832 H 356.253 -1.34678 -2.61226 0
M  V30 3833 H 353.767 -0.832196 -1.39457 0
M  V30 3834 H 355.764 0.598184 -4.12586 0
M  V30 3835 H 354.424 1.09195 -3.05788 0
M  V30 3836 H 355.435 -2.2341 -4.67235 0
M  V30 3837 H 352.112 0.296096 -4.16449 0
M  V30 3838 H 353.502 -3.40259 -5.79374 0
M  V30 3839 N 356.222 1.38976 -0.743202 0
M  V30 3840 C 357.47 1.99948 -0.29417 0
M  V30 3841 C 357.791 1.59279 1.12495 0
M  V30 3842 O 357.061 0.844808 1.76748 0
M  V30 3843 H 355.641 0.739473 -0.105774 0
M  V30 3844 H 358.303 1.699 -0.954986 0
M  V30 3845 H 357.399 3.10142 -0.349056 0
M  V30 3846 N 357.7 0.491464 1.49741 0
M  V30 3847 C 358.647 -0.292027 2.28945 0
M  V30 3848 C 359.617 -0.968973 1.34908 0
M  V30 3849 O 360.802 -0.97748 1.6386 0
M  V30 3850 C 357.942 -1.35617 3.17336 0
M  V30 3851 C 357.055 -0.691957 4.26422 0
M  V30 3852 C 356.19 -1.73572 5.02042 0
M  V30 3853 C 355.229 -1.05286 6.02977 0
M  V30 3854 N 354.366 -2.0404 6.71798 0
M  V30 3855 H 359.206 0.389654 2.95442 0
M  V30 3856 H 356.743 0.204003 1.45679 0
M  V30 3857 H 358.701 -1.98502 3.66951 0
M  V30 3858 H 357.331 -2.00674 2.52844 0
M  V30 3859 H 356.383 0.0499523 3.80367 0
M  V30 3860 H 357.695 -0.153946 4.98562 0
M  V30 3861 H 356.849 -2.43987 5.55478 0
M  V30 3862 H 355.588 -2.30757 4.29654 0
M  V30 3863 H 354.593 -0.334446 5.48782 0
M  V30 3864 H 355.818 -0.487636 6.77347 0
M  V30 3865 H 353.764 -2.60205 6.02187 0
M  V30 3866 H 353.681 -1.55279 7.39881 0
M  V30 3867 H 354.949 -2.73772 7.29842 0
M  V30 3868 N 359.178 -1.55987 0.224894 0
M  V30 3869 C 360.589 -1.84553 -0.282345 0
M  V30 3870 C 360.94 -1.14634 -1.59227 0
M  V30 3871 O 360.065 -0.417155 -2.12341 0
M  V30 3872 C 360.66 -3.348 -0.519062 0
M  V30 3873 C 359.219 -3.63671 -0.970604 0
M  V30 3874 C 358.366 -2.77277 -0.0355261 0
M  V30 3875 H 361.317 -1.52245 0.448006 0
M  V30 3876 H 361.338 -3.55187 -1.36463 0
M  V30 3877 H 360.85 -3.8566 0.43449 0
M  V30 3878 H 358.951 -3.1827 -1.9374 0
M  V30 3879 H 359.064 -4.71631 -0.842698 0
M  V30 3880 H 357.428 -2.48846 -0.542927 0
M  V30 3881 H 358.211 -3.30937 0.913003 0
M  V30 3882 N 360.656 0.0484629 -1.57525 0
M  V30 3883 C 361.902 0.744226 -1.88651 0
M  V30 3884 C 362.235 1.76029 -0.820212 0
M  V30 3885 O 361.51 1.93782 0.166985 0
M  V30 3886 C 361.793 1.43128 -3.30434 0
M  V30 3887 C 361.646 0.43005 -4.47739 0
M  V30 3888 C 362.965 2.37031 -3.70816 0
M  V30 3889 H 360.084 0.269089 -0.68612 0
M  V30 3890 H 362.726 0.00713532 -1.89999 0
M  V30 3891 H 360.876 2.05956 -3.29415 0
M  V30 3892 H 362.548 -0.194816 -4.60888 0
M  V30 3893 H 360.791 -0.252522 -4.33064 0
M  V30 3894 H 361.462 0.948874 -5.43783 0
M  V30 3895 H 363.938 1.84263 -3.73077 0
M  V30 3896 H 362.814 2.82094 -4.70865 0
M  V30 3897 H 363.075 3.22864 -3.02012 0
M  V30 3898 N 362.134 1.5431 0.320358 0
M  V30 3899 C 363.081 1.83918 1.39438 0
M  V30 3900 C 364.051 0.686525 1.51248 0
M  V30 3901 O 365.236 0.933269 1.66417 0
M  V30 3902 C 362.376 2.075 2.75749 0
M  V30 3903 C 361.489 3.35177 2.72544 0
M  V30 3904 C 360.624 3.48704 4.00723 0
M  V30 3905 C 359.663 4.70244 3.91838 0
M  V30 3906 N 358.8 4.80679 5.11754 0
M  V30 3907 H 363.64 2.75544 1.13489 0
M  V30 3908 H 361.177 1.36459 0.549309 0
M  V30 3909 H 363.135 2.19166 3.54996 0
M  V30 3910 H 361.765 1.19163 3 0
M  V30 3911 H 360.817 3.32233 1.85271 0
M  V30 3912 H 362.129 4.24534 2.61863 0
M  V30 3913 H 361.283 3.59928 4.88402 0
M  V30 3914 H 360.022 2.57445 4.14214 0
M  V30 3915 H 359.027 4.59072 3.02544 0
M  V30 3916 H 360.252 5.6289 3.7991 0
M  V30 3917 H 358.198 3.92337 5.25745 0
M  V30 3918 H 358.115 5.64007 5.0342 0
M  V30 3919 H 359.383 4.96239 6.01138 0
M  V30 3920 N 363.613 -0.582584 1.46437 0
M  V30 3921 C 364.561 -1.71272 1.5738 0
M  V30 3922 C 365.555 -1.63524 0.44229 0
M  V30 3923 O 366.761 -1.69016 0.619166 0
M  V30 3924 H 363.136 -0.566273 0.494813 0
M  V30 3925 H 365.107 -1.59174 2.52401 0
M  V30 3926 C 363.856 -3.09658 1.58136 0
M  V30 3927 H 363.179 -3.16291 2.44541 0
M  V30 3928 H 364.619 -3.88494 1.69847 0
M  V30 3929 C 363.078 -3.3547 0.310026 0
M  V30 3930 O 363.608 -3.97199 -0.599683 0
M  V30 3931 N 361.814 -2.89925 0.197901 0
M  V30 3932 H 361.361 -2.39873 0.93909 0
M  V30 3933 H 361.319 -3.07568 -0.65185 0
M  V30 3934 N 365.091 -1.34144 -0.827227 0
M  V30 3935 C 366.054 -1.25264 -1.91942 0
M  V30 3936 C 367.054 -0.168866 -1.59911 0
M  V30 3937 O 368.244 -0.421198 -1.69031 0
M  V30 3938 C 365.376 -0.932952 -3.27885 0
M  V30 3939 H 366.569 -2.22357 -2.0124 0
M  V30 3940 H 364.122 -1.1837 -1.0207 0
M  V30 3941 H 364.857 0.0349917 -3.24281 0
M  V30 3942 H 364.642 -1.71682 -3.52516 0
M  V30 3943 H 366.132 -0.895874 -4.07877 0
M  V30 3944 N 366.569 1.04691 -1.17803 0
M  V30 3945 C 367.499 2.14494 -0.92275 0
M  V30 3946 C 368.48 1.69546 0.137179 0
M  V30 3947 O 369.665 1.94195 -0.0141108 0
M  V30 3948 C 366.795 3.44491 -0.440803 0
M  V30 3949 C 365.749 4.03031 -1.4405 0
M  V30 3950 C 365.075 5.28432 -0.81631 0
M  V30 3951 C 366.375 4.39932 -2.81527 0
M  V30 3952 H 368.069 2.36107 -1.84103 0
M  V30 3953 H 365.615 1.1347 -0.886599 0
M  V30 3954 H 367.568 4.2066 -0.249602 0
M  V30 3955 H 366.292 3.22546 0.513025 0
M  V30 3956 H 364.951 3.28937 -1.61853 0
M  V30 3957 H 364.599 5.02792 0.144511 0
M  V30 3958 H 364.299 5.68559 -1.48371 0
M  V30 3959 H 365.823 6.07284 -0.635496 0
M  V30 3960 H 367.237 5.07113 -2.67412 0
M  V30 3961 H 365.634 4.9109 -3.44892 0
M  V30 3962 H 366.704 3.50045 -3.35554 0
M  V30 3963 N 368.047 0.979072 1.23499 0
M  V30 3964 C 369.324 0.563674 1.87302 0
M  V30 3965 C 369.704 -0.959199 1.88049 0
M  V30 3966 O 369.052 -1.83535 1.36114 0
M  V30 3967 C 369.262 1.16822 3.28867 0
M  V30 3968 C 370.61 1.26014 4.0547 0
M  V30 3969 O 371.634 1.12158 3.38082 0
M  V30 3970 O 370.493 1.48044 5.26066 0
M  V30 3971 H 367.587 0.189602 0.804972 0
M  V30 3972 H 370.133 1.07407 1.31384 0
M  V30 3973 H 368.905 2.21049 3.22883 0
M  V30 3974 H 368.528 0.642564 3.92373 0
M  V30 3975 N 369.525 -1.3858 0.750561 0
M  V30 3976 C 370.455 -2.33102 0.136237 0
M  V30 3977 C 371.436 -1.54713 -0.706965 0
M  V30 3978 O 372.621 -1.83043 -0.648769 0
M  V30 3979 C 369.751 -3.38882 -0.760017 0
M  V30 3980 C 368.705 -4.27995 -0.0197785 0
M  V30 3981 C 368.031 -5.24605 -1.03408 0
M  V30 3982 C 369.331 -5.09554 1.14684 0
M  V30 3983 H 371.025 -2.84726 0.925822 0
M  V30 3984 H 368.571 -1.36898 0.446654 0
M  V30 3985 H 370.524 -4.0397 -1.19943 0
M  V30 3986 H 369.248 -2.85734 -1.58189 0
M  V30 3987 H 367.907 -3.64409 0.400184 0
M  V30 3988 H 367.555 -4.67746 -1.84994 0
M  V30 3989 H 367.255 -5.85081 -0.543464 0
M  V30 3990 H 368.779 -5.9257 -1.47288 0
M  V30 3991 H 370.193 -5.67899 0.785118 0
M  V30 3992 H 368.59 -5.7925 1.56812 0
M  V30 3993 H 369.66 -4.4347 1.96118 0
M  V30 3994 N 371.003 -0.499398 -1.49478 0
M  V30 3995 C 371.95 0.279881 -2.29097 0
M  V30 3996 C 372.92 0.961805 -1.3542 0
M  V30 3997 O 374.105 0.968777 -1.64376 0
M  V30 3998 C 371.245 1.33932 -3.18051 0
M  V30 3999 C 370.358 0.669333 -4.26783 0
M  V30 4000 C 369.493 1.70907 -5.02955 0
M  V30 4001 C 368.532 1.02087 -6.03527 0
M  V30 4002 N 367.669 2.00474 -6.7287 0
M  V30 4003 H 372.509 -0.405317 -2.95231 0
M  V30 4004 H 370.046 -0.211726 -1.45568 0
M  V30 4005 H 372.004 1.96553 -3.67998 0
M  V30 4006 H 370.634 1.9933 -2.53904 0
M  V30 4007 H 369.686 -0.0701234 -3.80335 0
M  V30 4008 H 370.998 0.127503 -4.98637 0
M  V30 4009 H 370.152 2.41037 -5.56764 0
M  V30 4010 H 368.891 2.28476 -4.30871 0
M  V30 4011 H 367.896 0.305338 -5.48951 0
M  V30 4012 H 369.121 0.451708 -6.77596 0
M  V30 4013 H 367.067 2.57007 -6.03559 0
M  V30 4014 H 366.984 1.51353 -7.40694 0
M  V30 4015 H 368.252 2.69897 -7.31284 0
M  V30 4016 N 372.481 1.55866 -0.233164 0
M  V30 4017 C 373.728 1.98603 0.395374 0
M  V30 4018 C 374.056 1.12105 1.58942 0
M  V30 4019 O 373.311 0.168656 1.94972 0
M  V30 4020 C 373.61 3.46856 0.861724 0
M  V30 4021 C 373.276 4.50348 -0.223066 0
M  V30 4022 C 371.938 4.78371 -0.521038 0
M  V30 4023 C 374.29 5.12355 -0.956124 0
M  V30 4024 C 371.618 5.6568 -1.55638 0
M  V30 4025 C 373.97 6.00786 -1.98089 0
M  V30 4026 C 372.634 6.27148 -2.28565 0
M  V30 4027 H 371.904 0.726739 0.144677 0
M  V30 4028 H 374.551 1.88491 -0.338114 0
M  V30 4029 H 372.856 3.5423 1.67418 0
M  V30 4030 H 374.553 3.77302 1.35809 0
M  V30 4031 H 371.143 4.28596 0.0193234 0
M  V30 4032 H 375.327 4.90765 -0.739166 0
M  V30 4033 H 370.583 5.84365 -1.798 0
M  V30 4034 H 374.757 6.4788 -2.55391 0
M  V30 4035 H 372.384 6.94597 -3.08932 0
M  V30 4036 N 373.959 -0.0401083 1.57549 0
M  V30 4037 C 375.236 -0.767917 1.79896 0
M  V30 4038 C 375.616 -1.9416 0.82856 0
M  V30 4039 O 374.964 -2.2812 -0.131671 0
M  V30 4040 C 375.174 -1.2113 3.27305 0
M  V30 4041 C 376.522 -1.63175 3.91994 0
M  V30 4042 O 377.546 -1.30616 3.31388 0
M  V30 4043 O 376.405 -2.23565 4.98679 0
M  V30 4044 H 373.499 -0.370441 0.739393 0
M  V30 4045 H 376.045 -0.017737 1.69691 0
M  V30 4046 H 374.817 -0.372937 3.89519 0
M  V30 4047 H 374.44 -2.02183 3.42356 0
M  V30 4048 N 375.437 -1.54477 -0.31217 0
M  V30 4049 C 376.37 -1.79519 -1.40884 0
M  V30 4050 C 377.348 -0.645753 -1.49227 0
M  V30 4051 O 378.532 -0.884468 -1.66461 0
M  V30 4052 C 375.659 -1.92194 -2.78889 0
M  V30 4053 C 374.705 -3.14555 -2.88023 0
M  V30 4054 S 375.538 -4.72893 -2.51262 0
M  V30 4055 C 376.694 -4.8849 -3.91317 0
M  V30 4056 H 376.927 -2.72256 -1.19432 0
M  V30 4057 H 374.46 -1.45746 -0.509654 0
M  V30 4058 H 376.418 -2.00182 -3.58382 0
M  V30 4059 H 375.079 -1.00414 -2.97617 0
M  V30 4060 H 374.272 -3.20193 -3.89221 0
M  V30 4061 H 373.874 -3.04955 -2.16514 0
M  V30 4062 H 376.166 -4.71826 -4.86196 0
M  V30 4063 H 377.109 -5.90588 -3.90656 0
M  V30 4064 H 377.517 -4.16715 -3.80801 0
M  V30 4065 N 376.915 0.57481 -1.46744 0
M  V30 4066 C 377.825 1.711 -1.60505 0
M  V30 4067 C 378.841 1.67008 -0.488307 0
M  V30 4068 O 380.017 1.86774 -0.753495 0
M  V30 4069 C 377.082 3.07608 -1.59932 0
M  V30 4070 C 376.143 3.22904 -2.82898 0
M  V30 4071 C 375.376 4.529 -2.82343 0
M  V30 4072 O 375.599 5.37278 -1.91542 0
M  V30 4073 O 374.533 4.71611 -3.73987 0
M  V30 4074 H 378.359 1.62436 -2.56609 0
M  V30 4075 H 375.944 0.742779 -1.29627 0
M  V30 4076 H 377.826 3.88877 -1.62336 0
M  V30 4077 H 376.501 3.16692 -0.669898 0
M  V30 4078 H 375.408 2.41099 -2.86046 0
M  V30 4079 H 376.741 3.18715 -3.75076 0
M  V30 4080 N 378.394 1.34581 0.820102 0
M  V30 4081 C 379.326 1.22236 1.93884 0
M  V30 4082 C 380.339 0.148776 1.62119 0
M  V30 4083 O 381.528 0.400877 1.7394 0
M  V30 4084 C 378.628 0.856542 3.27897 0
M  V30 4085 C 377.801 2.02569 3.87666 0
M  V30 4086 C 376.86 1.63782 5.00062 0
M  V30 4087 O 375.886 2.35477 5.18208 0
M  V30 4088 N 377.088 0.553611 5.77854 0
M  V30 4089 H 379.853 2.18615 2.05006 0
M  V30 4090 H 377.414 1.27573 0.99683 0
M  V30 4091 H 379.406 0.578806 4.0054 0
M  V30 4092 H 377.976 -0.0171518 3.12595 0
M  V30 4093 H 377.196 2.468 3.07382 0
M  V30 4094 H 378.484 2.80752 4.24329 0
M  V30 4095 H 377.882 -0.0423528 5.65684 0
M  V30 4096 H 376.439 0.335614 6.50935 0
M  V30 4097 N 379.872 -1.04064 1.18357 0
M  V30 4098 C 380.802 -2.14001 0.934113 0
M  V30 4099 C 381.783 -1.69616 -0.128186 0
M  V30 4100 O 382.968 -1.94185 0.0244093 0
M  V30 4101 C 380.098 -3.44253 0.459066 0
M  V30 4102 C 379.052 -4.02261 1.46185 0
M  V30 4103 C 378.378 -5.27992 0.844322 0
M  V30 4104 C 379.678 -4.38432 2.83856 0
M  V30 4105 H 381.372 -2.35127 1.85352 0
M  V30 4106 H 378.918 -1.12998 0.892604 0
M  V30 4107 H 380.871 -4.20522 0.271907 0
M  V30 4108 H 379.595 -3.22813 -0.495912 0
M  V30 4109 H 378.254 -3.28074 1.63595 0
M  V30 4110 H 377.902 -5.02862 -0.117845 0
M  V30 4111 H 377.602 -5.67765 1.51384 0
M  V30 4112 H 379.126 -6.06938 0.667693 0
M  V30 4113 H 380.54 -5.05688 2.70098 0
M  V30 4114 H 378.937 -4.89254 3.47491 0
M  V30 4115 H 380.007 -3.4826 3.37406 0
M  V30 4116 N 381.35 -0.985608 -1.22978 0
M  V30 4117 C 382.297 -0.529825 -2.24636 0
M  V30 4118 C 383.267 0.434028 -1.60329 0
M  V30 4119 O 384.452 0.340414 -1.87739 0
M  V30 4120 C 381.592 0.156533 -3.44745 0
M  V30 4121 C 380.705 -0.848197 -4.23591 0
M  V30 4122 C 379.84 -0.136109 -5.31026 0
M  V30 4123 C 378.879 -1.1297 -6.01585 0
M  V30 4124 N 378.016 -0.446415 -7.00679 0
M  V30 4125 H 382.856 -1.40148 -2.62988 0
M  V30 4126 H 380.393 -0.702168 -1.29259 0
M  V30 4127 H 382.351 0.571324 -4.1327 0
M  V30 4128 H 380.981 0.992025 -3.07179 0
M  V30 4129 H 380.033 -1.38135 -3.54433 0
M  V30 4130 H 381.345 -1.60512 -4.72268 0
M  V30 4131 H 380.499 0.335784 -6.0577 0
M  V30 4132 H 379.238 0.653373 -4.83304 0
M  V30 4133 H 378.243 -1.6123 -5.25628 0
M  V30 4134 H 379.468 -1.91993 -6.51395 0
M  V30 4135 H 377.414 0.323763 -6.55201 0
M  V30 4136 H 377.331 -1.1419 -7.47326 0
M  V30 4137 H 378.599 0.00291697 -7.795 0
M  V30 4138 N 382.828 1.3818 -0.7579 0
M  V30 4139 C 384.105 1.94106 -0.241306 0
M  V30 4140 C 384.485 1.69282 1.26122 0
M  V30 4141 O 383.833 1.03378 2.03777 0
M  V30 4142 C 384.043 3.43809 -0.59967 0
M  V30 4143 C 385.391 4.20868 -0.561717 0
M  V30 4144 O 386.415 3.5211 -0.538222 0
M  V30 4145 O 385.274 5.43451 -0.576478 0
M  V30 4146 H 382.368 0.825376 -0.0518042 0
M  V30 4147 H 384.914 1.47548 -0.838315 0
M  V30 4148 H 383.686 3.55403 -1.6372 0
M  V30 4149 H 383.309 3.97592 0.0251197 0
M  V30 4150 N 384.306 0.507319 1.49211 0
M  V30 4151 C 385.531 -0.033725 2.07373 0
M  V30 4152 C 385.956 -1.29485 1.36437 0
M  V30 4153 O 385.314 -1.76294 0.423087 0
M  V30 4154 C 385.362 -0.263945 3.59633 0
M  V30 4155 O 384.466 -1.33737 3.90113 0
M  V30 4156 H 383.807 0.0290331 0.663365 0
M  V30 4157 H 386.337 0.708749 1.91932 0
M  V30 4158 H 386.347 -0.493536 4.05004 0
M  V30 4159 H 385.022 0.657424 4.10671 0
M  V30 4160 H 383.599 -1.09224 3.56545 0
M  V30 4161 N 385.784 -1.5574 0.241426 0
M  V30 4162 C 387.033 -1.97986 -0.385295 0
M  V30 4163 C 387.346 -1.13267 -1.59468 0
M  V30 4164 O 388.552 -1.45501 -2.2922 0
M  V30 4165 C 387.008 -3.52275 -0.736884 0
M  V30 4166 C 386.616 -4.45726 0.450796 0
M  V30 4167 C 388.36 -4.03189 -1.3281 0
M  V30 4168 C 386.267 -5.91352 0.0756662 0
M  V30 4169 H 385.197 -0.739386 -0.147731 0
M  V30 4170 H 387.848 -1.80308 0.340779 0
M  V30 4171 H 386.23 -3.65628 -1.52094 0
M  V30 4172 H 387.404 -4.44131 1.22819 0
M  V30 4173 H 385.719 -4.05264 0.956573 0
M  V30 4174 H 388.316 -5.09505 -1.62201 0
M  V30 4175 H 388.659 -3.50212 -2.25071 0
M  V30 4176 H 389.192 -3.93141 -0.607069 0
M  V30 4177 H 385.931 -6.48354 0.965272 0
M  V30 4178 H 385.451 -5.96095 -0.665635 0
M  V30 4179 H 387.13 -6.46084 -0.344075 0
M  V30 4180 N 387.262 0.0317525 -1.57568 0
M  V30 4181 C 388.539 0.758366 -1.803 0
M  V30 4182 C 388.919 1.93718 -0.838845 0
M  V30 4183 O 388.267 2.28187 0.119571 0
M  V30 4184 C 388.477 1.19392 -3.27943 0
M  V30 4185 C 389.825 1.61094 -3.92854 0
M  V30 4186 O 390.849 1.28857 -3.32076 0
M  V30 4187 O 389.708 2.20918 -4.99858 0
M  V30 4188 H 386.802 0.366514 -0.741348 0
M  V30 4189 H 389.348 0.00873765 -1.69698 0
M  V30 4190 H 388.12 0.352275 -3.89711 0
M  V30 4191 H 387.743 2.00365 -3.43424 0
M  V30 4192 N 388.74 1.54641 0.303973 0
M  V30 4193 C 390.156 1.45788 0.649463 0
M  V30 4194 C 390.356 0.64666 1.90842 0
M  V30 4195 O 389.412 0.153183 2.52035 0
M  V30 4196 C 390.725 2.89718 0.805227 0
M  V30 4197 C 392.273 2.99742 0.901305 0
M  V30 4198 C 392.748 4.44863 1.08909 0
M  V30 4199 N 394.239 4.48559 1.15536 0
M  V30 4200 C 394.974 5.58026 1.3189 0
M  V30 4201 N 394.47 6.77422 1.45161 0
M  V30 4202 N 396.263 5.45708 1.34755 0
M  V30 4203 H 388.414 2.05854 -0.523237 0
M  V30 4204 H 390.677 0.932186 -0.172431 0
M  V30 4205 H 390.383 3.51666 -0.0489108 0
M  V30 4206 H 390.257 3.36964 1.69513 0
M  V30 4207 H 392.644 2.3791 1.74593 0
M  V30 4208 H 392.725 2.55797 -0.0125531 0
M  V30 4209 H 392.369 5.07288 0.249241 0
M  V30 4210 H 392.299 4.86436 2.01713 0
M  V30 4211 H 394.79 3.6254 1.06646 0
M  V30 4212 H 395.103 7.56604 1.57387 0
M  V30 4213 H 393.448 6.80292 1.42223 0
M  V30 4214 H 396.639 4.51378 1.23996 0
M  V30 4215 H 396.812 6.3107 1.47157 0
M  V30 4216 N 390.218 -0.567019 1.47046 0
M  V30 4217 C 391.128 -1.70247 1.6141 0
M  V30 4218 C 392.144 -1.66746 0.497157 0
M  V30 4219 O 393.32 -1.86371 0.763389 0
M  V30 4220 C 390.385 -3.06756 1.61561 0
M  V30 4221 C 389.446 -3.21399 2.84607 0
M  V30 4222 C 388.679 -4.51396 2.84741 0
M  V30 4223 O 388.902 -5.36255 1.94388 0
M  V30 4224 O 387.836 -4.69621 3.76483 0
M  V30 4225 H 391.662 -1.61073 2.57467 0
M  V30 4226 H 389.247 -0.735894 1.30019 0
M  V30 4227 H 391.129 -3.8801 1.64396 0
M  V30 4228 H 389.804 -3.16333 0.686684 0
M  V30 4229 H 388.711 -2.39579 2.8732 0
M  V30 4230 H 390.044 -3.16721 3.76761 0
M  V30 4231 N 391.696 -1.35014 -0.812953 0
M  V30 4232 C 392.643 -1.27412 -1.92444 0
M  V30 4233 C 393.613 -0.14733 -1.65445 0
M  V30 4234 O 394.798 -0.329974 -1.87925 0
M  V30 4235 C 391.938 -1.04558 -3.28879 0
M  V30 4236 C 391.051 -2.26101 -3.68106 0
M  V30 4237 C 390.186 -1.96449 -4.9354 0
M  V30 4238 C 389.225 -3.14081 -5.25376 0
M  V30 4239 N 388.362 -2.84246 -6.41988 0
M  V30 4240 H 393.202 -2.22463 -1.98278 0
M  V30 4241 H 390.739 -1.10593 -0.969933 0
M  V30 4242 H 392.697 -0.893413 -4.07522 0
M  V30 4243 H 391.327 -0.131719 -3.22531 0
M  V30 4244 H 390.379 -2.52204 -2.84775 0
M  V30 4245 H 391.691 -3.13959 -3.87597 0
M  V30 4246 H 390.845 -1.78026 -5.79993 0
M  V30 4247 H 389.584 -1.05867 -4.76071 0
M  V30 4248 H 388.589 -3.33089 -4.37415 0
M  V30 4249 H 389.814 -4.05455 -5.44778 0
M  V30 4250 H 387.76 -1.96252 -6.25956 0
M  V30 4251 H 387.677 -3.65637 -6.61699 0
M  V30 4252 H 388.945 -2.6935 -7.31485 0
M  V30 4253 N 393.175 1.03435 -1.18907 0
M  V30 4254 C 394.424 1.76143 -0.982669 0
M  V30 4255 C 394.737 1.89416 0.487953 0
M  V30 4256 O 395.943 2.59041 0.813036 0
M  V30 4257 C 394.399 3.16722 -1.70924 0
M  V30 4258 C 394.007 3.11522 -3.21959 0
M  V30 4259 C 395.751 3.93764 -1.58588 0
M  V30 4260 C 393.658 4.46999 -3.87228 0
M  V30 4261 H 392.588 0.660292 -0.364047 0
M  V30 4262 H 395.239 1.158 -1.42347 0
M  V30 4263 H 393.621 3.775 -1.19623 0
M  V30 4264 H 394.795 2.60158 -3.80335 0
M  V30 4265 H 393.11 2.47978 -3.34508 0
M  V30 4266 H 395.707 4.93963 -2.04707 0
M  V30 4267 H 396.05 4.12794 -0.539142 0
M  V30 4268 H 396.583 3.39576 -2.07203 0
M  V30 4269 H 393.322 4.33174 -4.91976 0
M  V30 4270 H 392.842 4.98441 -3.33642 0
M  V30 4271 H 394.521 5.15898 -3.90459 0
M  V30 4272 N 394.653 0.992116 1.22453 0
M  V30 4273 C 395.616 0.546883 2.2258 0
M  V30 4274 C 396.616 -0.369829 1.56489 0
M  V30 4275 O 397.806 -0.161896 1.73446 0
M  V30 4276 C 394.938 -0.204659 3.40285 0
M  V30 4277 H 396.131 1.43234 2.63484 0
M  V30 4278 H 393.684 0.779239 1.3549 0
M  V30 4279 H 394.419 -1.10614 3.04853 0
M  V30 4280 H 394.204 0.45354 3.89468 0
M  V30 4281 H 395.694 -0.504358 4.14543 0
M  V30 4282 N 396.131 -1.37776 0.765217 0
M  V30 4283 C 397.377 -2.00145 0.327072 0
M  V30 4284 C 397.71 -1.60607 -1.09175 0
M  V30 4285 O 396.985 -0.849127 -1.74986 0
M  V30 4286 C 397.268 -3.57109 0.46319 0
M  V30 4287 C 397.121 -4.06576 1.92395 0
M  V30 4288 C 398.44 -4.39888 -0.136473 0
M  V30 4289 H 395.559 -0.727113 0.120316 0
M  V30 4290 H 398.201 -1.63549 0.967039 0
M  V30 4291 H 396.351 -3.88414 -0.0816358 0
M  V30 4292 H 398.023 -3.85864 2.52798 0
M  V30 4293 H 396.266 -3.59011 2.43503 0
M  V30 4294 H 396.937 -5.15639 1.97028 0
M  V30 4295 H 399.413 -4.14803 0.328317 0
M  V30 4296 H 398.289 -5.48899 -0.0110582 0
M  V30 4297 H 398.55 -4.24758 -1.22608 0
M  V30 4298 N 397.609 -0.515225 -1.4894 0
M  V30 4299 C 398.858 0.0261361 -2.01683 0
M  V30 4300 C 399.171 1.36719 -1.39883 0
M  V30 4301 O 400.377 1.99606 -1.84037 0
M  V30 4302 C 398.833 0.0970111 -3.59769 0
M  V30 4303 C 398.441 -1.23825 -4.30548 0
M  V30 4304 C 400.185 0.587981 -4.20408 0
M  V30 4305 C 398.092 -1.12877 -5.80528 0
M  V30 4306 H 397.022 0.0135398 -0.753878 0
M  V30 4307 H 399.673 -0.656787 -1.71343 0
M  V30 4308 H 398.055 0.844694 -3.86886 0
M  V30 4309 H 399.229 -2.00034 -4.15118 0
M  V30 4310 H 397.544 -1.66379 -3.81716 0
M  V30 4311 H 400.141 0.68763 -5.3026 0
M  V30 4312 H 400.484 1.59026 -3.84729 0
M  V30 4313 H 401.017 -0.103582 -3.97665 0
M  V30 4314 H 397.756 -2.10575 -6.20756 0
M  V30 4315 H 397.276 -0.407799 -5.98412 0
M  V30 4316 H 398.955 -0.813332 -6.41868 0
M  V30 4317 N 399.087 1.5561 -0.249682 0
M  V30 4318 C 400.335 1.98618 0.373548 0
M  V30 4319 C 400.656 1.13919 1.58264 0
M  V30 4320 O 399.926 0.222637 1.94631 0
M  V30 4321 H 398.506 0.733571 0.141006 0
M  V30 4322 H 401.168 1.91748 -0.349117 0
M  V30 4323 H 400.264 3.04584 0.680796 0
M  V30 4324 N 400.565 -0.0233959 1.57583 0
M  V30 4325 C 401.515 -1.03023 2.03397 0
M  V30 4326 C 402.499 -1.31701 0.924315 0
M  V30 4327 O 403.691 -1.31191 1.18819 0
M  V30 4328 C 400.82 -2.32961 2.52159 0
M  V30 4329 C 399.906 -2.07349 3.69956 0
M  V30 4330 N 400.297 -1.51814 4.82479 0
M  V30 4331 C 398.595 -2.37606 3.77438 0
M  V30 4332 C 399.296 -1.42136 5.64068 0
M  V30 4333 N 398.272 -1.89891 5.09355 0
M  V30 4334 H 402.074 -0.594962 2.87815 0
M  V30 4335 H 399.588 -0.229586 1.60769 0
M  V30 4336 H 401.585 -3.05906 2.83244 0
M  V30 4337 H 400.245 -2.77162 1.69149 0
M  V30 4338 H 401.256 -1.20008 5.03804 0
M  V30 4339 H 397.933 -2.84842 3.05239 0
M  V30 4340 H 399.323 -0.996405 6.64471 0
M  V30 4341 N 402.043 -1.548 -0.295768 0
M  V30 4342 C 403.268 -1.78653 -1.05346 0
M  V30 4343 C 403.693 -0.546894 -1.79974 0
M  V30 4344 O 403.051 0.502763 -1.7419 0
M  V30 4345 C 403.099 -2.99679 -2.00561 0
M  V30 4346 O 402.203 -2.7317 -3.08953 0
M  V30 4347 H 401.544 -0.59116 -0.302367 0
M  V30 4348 H 404.074 -2.01895 -0.331598 0
M  V30 4349 H 404.084 -3.27793 -2.42932 0
M  V30 4350 H 402.759 -3.89562 -1.4565 0
M  V30 4351 H 401.336 -2.56089 -2.71059 0
M  V30 4352 N 403.521 0.559213 -1.47345 0
M  V30 4353 C 404.768 1.31648 -1.53867 0
M  V30 4354 C 405.096 1.93468 -0.200104 0
M  V30 4355 O 404.351 1.78295 0.806799 0
M  V30 4356 C 404.65 2.44853 -2.6035 0
M  V30 4357 C 404.316 2.00876 -4.03683 0
M  V30 4358 C 402.978 1.88599 -4.42701 0
M  V30 4359 C 405.33 1.67279 -4.93626 0
M  V30 4360 C 402.658 1.41017 -5.69501 0
M  V30 4361 C 405.01 1.21169 -6.20887 0
M  V30 4362 C 403.674 1.07487 -6.58789 0
M  V30 4363 H 402.944 0.481734 -0.56304 0
M  V30 4364 H 405.591 0.627301 -1.80934 0
M  V30 4365 H 403.896 3.19318 -2.27032 0
M  V30 4366 H 405.593 3.03039 -2.62619 0
M  V30 4367 H 402.183 2.11374 -3.72853 0
M  V30 4368 H 406.367 1.75638 -4.64182 0
M  V30 4369 H 401.623 1.29086 -5.97618 0
M  V30 4370 H 405.797 0.942345 -6.89995 0
M  V30 4371 H 403.424 0.703946 -7.56934 0
M  V30 4372 N 404.999 1.35443 0.805782 0
M  V30 4373 C 406.247 1.28507 1.55982 0
M  V30 4374 C 406.568 -0.140046 1.94496 0
M  V30 4375 O 405.838 -1.07666 1.63661 0
M  V30 4376 H 404.418 0.472676 0.578434 0
M  V30 4377 H 407.08 1.69555 0.961098 0
M  V30 4378 H 406.176 1.90148 2.47488 0
M  V30 4379 N 406.477 -1.02803 1.19454 0
M  V30 4380 C 407.725 -1.75869 0.995722 0
M  V30 4381 C 408.046 -1.89138 -0.474543 0
M  V30 4382 O 407.316 -1.42558 -1.34366 0
M  V30 4383 H 405.896 -0.651511 0.365435 0
M  V30 4384 H 408.558 -1.24004 1.50363 0
M  V30 4385 H 407.654 -2.76661 1.44447 0
M  V30 4386 N 407.956 -0.998596 -1.21925 0
M  V30 4387 C 408.919 -0.558679 -2.22287 0
M  V30 4388 C 409.919 0.361525 -1.56683 0
M  V30 4389 O 411.109 0.152695 -1.73529 0
M  V30 4390 C 408.241 0.18661 -3.40389 0
M  V30 4391 H 409.434 -1.4463 -2.62721 0
M  V30 4392 H 406.987 -0.786413 -1.35075 0
M  V30 4393 H 407.722 1.08996 -3.05435 0
M  V30 4394 H 407.507 -0.474188 -3.89222 0
M  V30 4395 H 408.997 0.482367 -4.14805 0
M  V30 4396 N 409.434 1.37368 -0.772513 0
M  V30 4397 C 410.662 2.03942 -0.348588 0
M  V30 4398 C 411.077 1.58264 1.02947 0
M  V30 4399 O 410.434 0.764246 1.65727 0
M  V30 4400 C 410.485 3.5946 -0.38351 0
M  V30 4401 O 410.206 4.03468 -1.70721 0
M  V30 4402 C 411.707 4.4327 0.0519152 0
M  V30 4403 H 408.927 0.654931 -0.145966 0
M  V30 4404 H 411.471 1.75686 -1.04665 0
M  V30 4405 H 409.626 3.86486 0.265978 0
M  V30 4406 H 410.04 4.97991 -1.64636 0
M  V30 4407 H 411.514 5.51995 -0.0236733 0
M  V30 4408 H 411.991 4.2514 1.10238 0
M  V30 4409 H 412.597 4.21471 -0.569415 0
M  V30 4410 N 410.912 0.523116 1.48665 0
M  V30 4411 C 412.158 -0.0134963 2.02796 0
M  V30 4412 C 412.491 -1.34582 1.40004 0
M  V30 4413 O 411.766 -1.86756 0.543381 0
M  V30 4414 C 412.049 -0.14276 3.59817 0
M  V30 4415 C 411.902 1.21425 4.331 0
M  V30 4416 C 413.221 -0.872856 4.31357 0
M  V30 4417 H 410.34 -0.00343074 0.736992 0
M  V30 4418 H 412.982 0.678816 1.7746 0
M  V30 4419 H 411.132 -0.732401 3.81534 0
M  V30 4420 H 412.804 1.84447 4.2282 0
M  V30 4421 H 411.047 1.79791 3.94788 0
M  V30 4422 H 411.718 1.07687 5.41394 0
M  V30 4423 H 414.194 -0.372555 4.14429 0
M  V30 4424 H 413.07 -0.932185 5.40927 0
M  V30 4425 H 413.331 -1.92161 3.98154 0
M  V30 4426 N 412.39 -1.55475 0.257931 0
M  V30 4427 C 413.639 -1.98383 -0.364275 0
M  V30 4428 C 413.952 -1.14952 -1.58258 0
M  V30 4429 O 415.158 -1.47924 -2.27664 0
M  V30 4430 C 413.614 -3.53037 -0.699479 0
M  V30 4431 C 413.222 -4.45223 0.498046 0
M  V30 4432 C 414.966 -4.04575 -1.28526 0
M  V30 4433 C 412.873 -5.91238 0.138383 0
M  V30 4434 H 411.803 -0.740911 -0.13988 0
M  V30 4435 H 414.454 -1.79936 0.359883 0
M  V30 4436 H 412.836 -3.6722 -1.48207 0
M  V30 4437 H 414.01 -4.42803 1.27522 0
M  V30 4438 H 412.325 -4.04226 0.999503 0
M  V30 4439 H 414.922 -5.11196 -1.56788 0
M  V30 4440 H 415.265 -3.5258 -2.21344 0
M  V30 4441 H 415.798 -3.93762 -0.565337 0
M  V30 4442 H 412.537 -6.47294 1.03398 0
M  V30 4443 H 412.057 -5.96768 -0.602374 0
M  V30 4444 H 413.736 -6.46413 -0.27553 0
M  V30 4445 N 413.868 0.0150385 -1.57593 0
M  V30 4446 C 414.8 1.03912 -2.04291 0
M  V30 4447 C 415.813 1.31618 -0.958146 0
M  V30 4448 O 417.002 1.28859 -1.23522 0
M  V30 4449 C 414.102 2.37749 -2.41514 0
M  V30 4450 C 413.275 2.29198 -3.72541 0
M  V30 4451 C 412.334 3.45598 -3.96797 0
M  V30 4452 O 411.36 3.24461 -4.67668 0
M  V30 4453 N 412.562 4.67945 -3.43523 0
M  V30 4454 H 415.327 0.64099 -2.92765 0
M  V30 4455 H 412.888 0.20272 -1.60626 0
M  V30 4456 H 414.88 3.14364 -2.54867 0
M  V30 4457 H 413.45 2.69357 -1.58637 0
M  V30 4458 H 412.67 1.3759 -3.69408 0
M  V30 4459 H 413.958 2.20642 -4.5847 0
M  V30 4460 H 413.356 4.88017 -2.86104 0
M  V30 4461 H 411.913 5.41878 -3.62232 0
M  V30 4462 N 415.346 1.54954 0.287554 0
M  V30 4463 C 416.574 1.78881 1.03967 0
M  V30 4464 C 416.989 0.554894 1.80462 0
M  V30 4465 O 416.346 -0.475676 1.76192 0
M  V30 4466 C 416.397 3.00488 2.0097 0
M  V30 4467 O 416.118 4.19113 1.27577 0
M  V30 4468 C 417.619 3.36907 2.88112 0
M  V30 4469 H 414.839 0.596259 0.307761 0
M  V30 4470 H 417.383 2.01937 0.322749 0
M  V30 4471 H 415.538 2.79601 2.68145 0
M  V30 4472 H 415.952 4.87765 1.92835 0
M  V30 4473 H 417.426 4.25205 3.52001 0
M  V30 4474 H 417.903 2.55659 3.57121 0
M  V30 4475 H 418.509 3.60001 2.26449 0
M  V30 4476 N 416.824 -0.551391 1.4764 0
M  V30 4477 C 417.754 -1.66757 1.63445 0
M  V30 4478 C 418.735 -1.63077 0.483742 0
M  V30 4479 O 419.92 -1.80607 0.71377 0
M  V30 4480 C 417.05 -3.05387 1.65396 0
M  V30 4481 C 416.004 -3.23918 2.79752 0
M  V30 4482 C 415.33 -4.63393 2.66779 0
M  V30 4483 C 416.63 -3.08735 4.21284 0
M  V30 4484 H 418.324 -1.53786 2.56886 0
M  V30 4485 H 415.87 -0.738415 1.23626 0
M  V30 4486 H 417.823 -3.83325 1.75043 0
M  V30 4487 H 416.547 -3.19332 0.685195 0
M  V30 4488 H 415.206 -2.48391 2.69625 0
M  V30 4489 H 414.854 -4.74144 1.67918 0
M  V30 4490 H 414.554 -4.7674 3.43501 0
M  V30 4491 H 416.078 -5.43458 2.78364 0
M  V30 4492 H 417.492 -3.76484 4.32357 0
M  V30 4493 H 415.889 -3.33588 4.98838 0
M  V30 4494 H 416.959 -2.0541 4.39243 0
M  V30 4495 N 418.302 -1.35869 -0.798587 0
M  V30 4496 C 419.527 -1.32883 -1.59238 0
M  V30 4497 C 419.952 0.0894587 -1.87887 0
M  V30 4498 O 419.31 1.05869 -1.47178 0
M  V30 4499 C 419.358 -2.14892 -2.89575 0
M  V30 4500 O 418.462 -1.53512 -3.82763 0
M  V30 4501 H 417.803 -0.455236 -0.48338 0
M  V30 4502 H 420.333 -1.79024 -0.990539 0
M  V30 4503 H 420.343 -2.27139 -3.38928 0
M  V30 4504 H 419.018 -3.17998 -2.68049 0
M  V30 4505 H 417.595 -1.50153 -3.41334 0
M  V30 4506 N 419.78 1.02168 -1.19998 0
M  V30 4507 C 420.69 2.14069 -0.959774 0
M  V30 4508 C 421.706 1.73804 0.082655 0
M  V30 4509 O 422.882 2.01133 -0.103633 0
M  V30 4510 C 419.947 3.42936 -0.509459 0
M  V30 4511 C 419.008 3.97474 -1.62213 0
M  V30 4512 C 418.241 5.2019 -1.19321 0
M  V30 4513 O 418.464 5.70369 -0.0597726 0
M  V30 4514 O 417.398 5.67749 -1.99863 0
M  V30 4515 H 421.224 2.37199 -1.89658 0
M  V30 4516 H 418.809 1.12469 -0.983411 0
M  V30 4517 H 420.691 4.20551 -0.267322 0
M  V30 4518 H 419.366 3.21234 0.398821 0
M  V30 4519 H 418.273 3.21161 -1.9185 0
M  V30 4520 H 419.606 4.23555 -2.50723 0
M  V30 4521 N 421.258 1.00505 1.21394 0
M  V30 4522 C 422.535 0.603277 1.86064 0
M  V30 4523 C 422.915 -0.919095 1.90042 0
M  V30 4524 O 422.263 -1.80607 1.39977 0
M  V30 4525 C 422.473 1.23772 3.26315 0
M  V30 4526 C 423.821 1.34586 4.02705 0
M  V30 4527 O 424.845 1.19304 3.35626 0
M  V30 4528 O 423.704 1.59169 5.22807 0
M  V30 4529 H 420.798 0.206634 0.800769 0
M  V30 4530 H 423.344 1.1017 1.29076 0
M  V30 4531 H 422.116 2.27848 3.18121 0
M  V30 4532 H 421.739 0.725648 3.90922 0
M  V30 4533 N 422.737 -1.36956 0.779787 0
M  V30 4534 C 423.669 -2.28833 0.129639 0
M  V30 4535 C 424.682 -1.4902 -0.655511 0
M  V30 4536 O 425.871 -1.71578 -0.492279 0
M  V30 4537 C 422.971 -3.2833 -0.839792 0
M  V30 4538 C 422.144 -4.3727 -0.10675 0
M  V30 4539 C 421.203 -5.16789 -0.990717 0
M  V30 4540 O 420.229 -5.67406 -0.451516 0
M  V30 4541 N 421.431 -5.32294 -2.3161 0
M  V30 4542 H 424.196 -2.85268 0.918803 0
M  V30 4543 H 421.757 -1.49019 0.632841 0
M  V30 4544 H 423.749 -3.78413 -1.43477 0
M  V30 4545 H 422.319 -2.72605 -1.52988 0
M  V30 4546 H 421.539 -3.88478 0.669216 0
M  V30 4547 H 422.827 -5.07229 0.399464 0
M  V30 4548 H 422.225 -4.92768 -2.77843 0
M  V30 4549 H 420.782 -5.85656 -2.86095 0
M  V30 4550 N 424.215 -0.530993 -1.48385 0
M  V30 4551 C 425.631 -0.188919 -1.58478 0
M  V30 4552 C 425.831 1.30786 -1.53288 0
M  V30 4553 O 424.887 2.08619 -1.42248 0
M  V30 4554 C 426.2 -0.792343 -2.90073 0
M  V30 4555 C 427.748 -0.76117 -3.03604 0
M  V30 4556 C 428.223 -1.34319 -4.37861 0
M  V30 4557 N 429.714 -1.3052 -4.44431 0
M  V30 4558 C 430.449 -1.72543 -5.46824 0
M  V30 4559 N 429.945 -2.22299 -6.56167 0
M  V30 4560 N 431.738 -1.63773 -5.37712 0
M  V30 4561 H 423.889 -1.50377 -1.50002 0
M  V30 4562 H 426.152 -0.625559 -0.712306 0
M  V30 4563 H 425.858 -1.84323 -2.99529 0
M  V30 4564 H 425.732 -0.270026 -3.76232 0
M  V30 4565 H 428.119 0.280957 -2.93759 0
M  V30 4566 H 428.2 -1.32097 -2.19053 0
M  V30 4567 H 427.844 -2.38425 -4.4846 0
M  V30 4568 H 427.774 -0.759064 -5.21101 0
M  V30 4569 H 430.265 -0.940973 -3.65997 0
M  V30 4570 H 430.578 -2.52356 -7.30436 0
M  V30 4571 H 428.923 -2.26293 -6.57127 0
M  V30 4572 H 432.114 -1.24698 -4.51185 0
M  V30 4573 H 432.287 -1.96844 -6.17379 0
M  V30 4574 N 425.693 1.55336 -0.266172 0
M  V30 4575 C 426.94 1.99397 0.353158 0
M  V30 4576 C 427.268 1.15451 1.56529 0
M  V30 4577 O 426.523 0.209974 1.9457 0
M  V30 4578 C 426.822 3.48606 0.787957 0
M  V30 4579 C 426.488 4.49773 -0.318541 0
M  V30 4580 C 425.15 4.77158 -0.62239 0
M  V30 4581 C 427.502 5.10212 -1.06459 0
M  V30 4582 C 424.83 5.62251 -1.67602 0
M  V30 4583 C 427.182 5.96449 -2.10788 0
M  V30 4584 C 425.846 6.22158 -2.41817 0
M  V30 4585 H 425.116 0.729644 0.12923 0
M  V30 4586 H 427.763 1.87732 -0.37802 0
M  V30 4587 H 426.068 3.57701 1.59866 0
M  V30 4588 H 427.765 3.80098 1.27775 0
M  V30 4589 H 424.355 4.2854 -0.0715925 0
M  V30 4590 H 428.539 4.89086 -0.843098 0
M  V30 4591 H 423.795 5.80419 -1.92155 0
M  V30 4592 H 427.969 6.42317 -2.69076 0
M  V30 4593 H 425.596 6.87888 -3.23596 0
M  V30 4594 N 427.171 -0.0066808 1.57599 0
M  V30 4595 C 428.587 -0.36267 1.55425 0
M  V30 4596 C 428.787 -1.75209 0.995187 0
M  V30 4597 O 427.843 -2.44616 0.626058 0
M  V30 4598 C 429.156 -0.244017 2.99708 0
M  V30 4599 C 430.704 -0.319451 3.11366 0
M  V30 4600 C 431.179 -0.229998 4.57422 0
M  V30 4601 N 432.67 -0.288105 4.62303 0
M  V30 4602 C 433.405 -0.242127 5.72889 0
M  V30 4603 N 432.901 -0.147133 6.92644 0
M  V30 4604 N 434.694 -0.293502 5.61333 0
M  V30 4605 H 426.845 0.902314 1.92281 0
M  V30 4606 H 429.108 0.34525 0.882896 0
M  V30 4607 H 428.814 0.711678 3.44424 0
M  V30 4608 H 428.688 -1.02877 3.629 0
M  V30 4609 H 431.075 -1.26559 2.66584 0
M  V30 4610 H 431.156 0.495055 2.50964 0
M  V30 4611 H 430.8 0.712566 5.02877 0
M  V30 4612 H 430.73 -1.0629 5.15761 0
M  V30 4613 H 433.221 -0.363126 3.76151 0
M  V30 4614 H 433.534 -0.117763 7.7271 0
M  V30 4615 H 431.879 -0.112857 6.94908 0
M  V30 4616 H 435.07 -0.365864 4.66668 0
M  V30 4617 H 435.243 -0.254204 6.47501 0
M  V30 4618 N 428.649 -1.55105 -0.279332 0
M  V30 4619 C 429.889 -1.7716 -1.01949 0
M  V30 4620 C 430.253 -0.557511 -1.83728 0
M  V30 4621 O 431.454 -0.656198 -2.60667 0
M  V30 4622 C 429.725 -3.0372 -1.88385 0
M  V30 4623 S 431.284 -3.46868 -2.68752 0
M  V30 4624 H 428.102 -0.62253 -0.343478 0
M  V30 4625 H 430.704 -1.93329 -0.290572 0
M  V30 4626 H 429.408 -3.90184 -1.2722 0
M  V30 4627 H 428.939 -2.902 -2.65608 0
M  V30 4628 H 430.954 -3.05643 -3.90892 0
M  V30 4629 N 430.127 0.543554 -1.4793 0
M  V30 4630 C 431.375 1.29752 -1.54948 0
M  V30 4631 C 431.696 1.93764 -0.219242 0
M  V30 4632 O 430.966 1.80639 0.75805 0
M  V30 4633 H 429.546 0.481874 -0.570795 0
M  V30 4634 H 432.208 0.633636 -1.84312 0
M  V30 4635 H 431.304 2.08392 -2.32334 0
M  V30 4636 N 431.605 1.3629 0.791371 0
M  V30 4637 C 432.854 1.29742 1.54434 0
M  V30 4638 C 433.167 -0.121729 1.95221 0
M  V30 4639 O 434.373 -0.309579 2.69729 0
M  V30 4640 C 432.829 2.27623 2.78776 0
M  V30 4641 C 432.437 3.74963 2.45166 0
M  V30 4642 C 434.181 2.30047 3.56761 0
M  V30 4643 C 432.088 4.64626 3.65891 0
M  V30 4644 H 431.018 0.482113 0.579727 0
M  V30 4645 H 433.669 1.61642 0.868565 0
M  V30 4646 H 432.051 1.88714 3.48142 0
M  V30 4647 H 433.225 4.22596 1.83709 0
M  V30 4648 H 431.54 3.75295 1.80396 0
M  V30 4649 H 434.137 2.94247 4.46456 0
M  V30 4650 H 434.48 1.30846 3.95203 0
M  V30 4651 H 435.013 2.67563 2.94372 0
M  V30 4652 H 431.752 5.64883 3.32547 0
M  V30 4653 H 431.272 4.2171 4.26521 0
M  V30 4654 H 432.951 4.80801 4.32943 0
M  V30 4655 N 433.083 -1.0153 1.20538 0
M  V30 4656 C 434.046 -2.0826 0.957098 0
M  V30 4657 C 435.046 -1.60657 -0.0678655 0
M  V30 4658 O 436.236 -1.73385 0.168332 0
M  V30 4659 C 433.368 -3.38033 0.441188 0
M  V30 4660 H 434.561 -2.31719 1.90384 0
M  V30 4661 H 432.114 -1.1835 1.02093 0
M  V30 4662 H 432.849 -3.20249 -0.510961 0
M  V30 4663 H 432.634 -3.73911 1.18038 0
M  V30 4664 H 434.124 -4.16613 0.287009 0
M  V30 4665 N 434.561 -1.01147 -1.20859 0
M  V30 4666 C 435.491 -0.597663 -2.25722 0
M  V30 4667 C 436.472 0.384744 -1.65692 0
M  V30 4668 O 437.657 0.271303 -1.92296 0
M  V30 4669 C 434.787 0.0700149 -3.47229 0
M  V30 4670 C 433.741 -0.832843 -4.19819 0
M  V30 4671 C 433.067 -0.0312202 -5.34691 0
M  V30 4672 C 434.367 -2.1385 -4.76514 0
M  V30 4673 H 436.061 -1.47423 -2.60589 0
M  V30 4674 H 433.607 -0.710301 -1.25263 0
M  V30 4675 H 435.56 0.37103 -4.19763 0
M  V30 4676 H 434.284 0.981259 -3.11511 0
M  V30 4677 H 432.943 -1.11778 -3.49144 0
M  V30 4678 H 432.591 0.881515 -4.95215 0
M  V30 4679 H 432.291 -0.632434 -5.84187 0
M  V30 4680 H 433.815 0.26346 -6.10031 0
M  V30 4681 H 435.229 -1.9002 -5.40893 0
M  V30 4682 H 433.626 -2.69012 -5.36426 0
M  V30 4683 H 434.696 -2.80495 -3.95538 0
M  V30 4684 N 436.039 1.36541 -0.78704 0
M  V30 4685 C 437.316 1.9355 -0.282424 0
M  V30 4686 C 437.696 1.71919 1.22503 0
M  V30 4687 O 437.044 1.07677 2.01539 0
M  V30 4688 C 437.254 3.4246 -0.672462 0
M  V30 4689 C 438.602 4.19582 -0.650863 0
M  V30 4690 O 439.626 3.50889 -0.612789 0
M  V30 4691 O 438.485 5.42106 -0.691623 0
M  V30 4692 H 435.579 0.824091 -0.0693 0
M  V30 4693 H 438.125 1.45736 -0.869423 0
M  V30 4694 H 436.897 3.51851 -1.71221 0
M  V30 4695 H 436.52 3.97556 -0.0592211 0
M  V30 4696 N 437.518 0.538854 1.48102 0
M  V30 4697 C 438.481 -0.208395 2.28251 0
M  V30 4698 C 439.481 -0.859656 1.35892 0
M  V30 4699 O 440.671 -0.71834 1.58699 0
M  V30 4700 C 437.803 -1.30252 3.15035 0
M  V30 4701 H 438.996 0.495407 2.9578 0
M  V30 4702 H 436.549 0.295112 1.53489 0
M  V30 4703 H 437.284 -2.0393 2.52157 0
M  V30 4704 H 437.069 -0.840551 3.82985 0
M  V30 4705 H 438.559 -1.82787 3.75471 0
M  V30 4706 N 438.996 -1.55193 0.274407 0
M  V30 4707 C 440.242 -2.00604 -0.33608 0
M  V30 4708 C 440.597 -1.15948 -1.53538 0
M  V30 4709 O 439.89 -0.221385 -1.90317 0
M  V30 4710 C 440.084 -3.49019 -0.769458 0
M  V30 4711 C 439.913 -4.48038 0.386301 0
M  V30 4712 C 438.683 -4.97757 0.869854 0
M  V30 4713 C 440.881 -4.99558 1.22254 0
M  V30 4714 N 438.863 -5.80575 1.99515 0
M  V30 4715 C 440.234 -5.79816 2.19575 0
M  V30 4716 C 442.289 -4.81799 1.25597 0
M  V30 4717 C 440.992 -6.44208 3.19981 0
M  V30 4718 C 443.018 -5.46989 2.24848 0
M  V30 4719 C 442.38 -6.27058 3.20901 0
M  V30 4720 H 438.479 -0.777013 -0.088172 0
M  V30 4721 H 441.063 -1.90583 0.398266 0
M  V30 4722 H 439.234 -3.59383 -1.47303 0
M  V30 4723 H 440.966 -3.81263 -1.35722 0
M  V30 4724 H 437.721 -4.71464 0.449281 0
M  V30 4725 H 438.145 -6.26675 2.5614 0
M  V30 4726 H 442.787 -4.19501 0.527158 0
M  V30 4727 H 440.505 -7.05656 3.93796 0
M  V30 4728 H 444.091 -5.35189 2.28174 0
M  V30 4729 H 442.971 -6.7661 3.96445 0
M  V30 4730 N 440.474 -0.00167713 -1.576 0
M  V30 4731 C 441.407 1.02317 -2.03977 0
M  V30 4732 C 442.385 1.33381 -0.929963 0
M  V30 4733 O 443.569 1.45517 -1.19822 0
M  V30 4734 C 440.696 2.35035 -2.43878 0
M  V30 4735 C 439.742 2.19621 -3.65607 0
M  V30 4736 S 440.575 1.52068 -5.13455 0
M  V30 4737 C 441.731 2.86212 -5.56627 0
M  V30 4738 H 441.964 0.628285 -2.90585 0
M  V30 4739 H 439.497 0.209239 -1.52976 0
M  V30 4740 H 441.455 3.11345 -2.67534 0
M  V30 4741 H 440.116 2.71663 -1.57665 0
M  V30 4742 H 439.309 3.1767 -3.91282 0
M  V30 4743 H 438.911 1.51455 -3.41961 0
M  V30 4744 H 441.203 3.82509 -5.59189 0
M  V30 4745 H 442.146 2.65235 -6.56549 0
M  V30 4746 H 442.554 2.90199 -4.84195 0
M  V30 4747 N 441.952 1.55251 0.271103 0
M  V30 4748 C 443.199 1.75946 1.00245 0
M  V30 4749 C 443.527 0.561611 1.86215 0
M  V30 4750 O 442.782 -0.455832 1.90317 0
M  V30 4751 C 443.081 3.01879 1.91321 0
M  V30 4752 C 442.747 4.34337 1.21086 0
M  V30 4753 C 441.409 4.70338 1.01666 0
M  V30 4754 C 443.761 5.16325 0.71119 0
M  V30 4755 C 441.089 5.8588 0.310099 0
M  V30 4756 C 443.441 6.32597 0.0182157 0
M  V30 4757 C 442.105 6.67236 -0.18768 0
M  V30 4758 H 441.375 0.643833 0.366824 0
M  V30 4759 H 444.022 1.89521 0.27458 0
M  V30 4760 H 442.327 2.83212 2.70736 0
M  V30 4761 H 444.024 3.15088 2.48033 0
M  V30 4762 H 440.614 4.06043 1.37213 0
M  V30 4763 H 444.798 4.88987 0.848844 0
M  V30 4764 H 440.054 6.1124 0.139873 0
M  V30 4765 H 444.228 6.9538 -0.376711 0
M  V30 4766 H 441.855 7.56618 -0.73715 0
M  V30 4767 N 443.43 -0.535701 1.48216 0
M  V30 4768 C 444.841 -1.11769 1.49548 0
M  V30 4769 C 445.192 -1.94442 0.26207 0
M  V30 4770 O 444.317 -2.06987 -0.631287 0
M  V30 4771 C 444.912 -2.03367 2.70975 0
M  V30 4772 C 443.471 -2.56795 2.75196 0
M  V30 4773 C 442.618 -1.33631 2.42977 0
M  V30 4774 H 445.569 -0.321232 1.55415 0
M  V30 4775 H 445.59 -2.87569 2.49167 0
M  V30 4776 H 445.102 -1.43169 3.60727 0
M  V30 4777 H 443.203 -3.20731 1.89638 0
M  V30 4778 H 443.316 -2.9632 3.76472 0
M  V30 4779 H 441.68 -1.6502 1.94012 0
M  V30 4780 H 442.463 -0.75194 3.34964 0
M  V30 4781 N 444.908 -1.36708 -0.784132 0
M  V30 4782 C 445.838 -1.34153 -1.91116 0
M  V30 4783 C 446.819 -0.212121 -1.68772 0
M  V30 4784 O 448.004 -0.410581 -1.8981 0
M  V30 4785 C 445.134 -1.13535 -3.28218 0
M  V30 4786 C 444.088 -2.23356 -3.65097 0
M  V30 4787 C 443.414 -1.87875 -5.00607 0
M  V30 4788 C 444.714 -3.65473 -3.73131 0
M  V30 4789 H 446.408 -2.28459 -1.93512 0
M  V30 4790 H 443.954 -1.09973 -0.929618 0
M  V30 4791 H 445.907 -1.10381 -4.06687 0
M  V30 4792 H 444.631 -0.156804 -3.26223 0
M  V30 4793 H 443.29 -2.25645 -2.88929 0
M  V30 4794 H 442.938 -0.885814 -4.95139 0
M  V30 4795 H 442.638 -2.61406 -5.26252 0
M  V30 4796 H 444.162 -1.86286 -5.81489 0
M  V30 4797 H 445.576 -3.65382 -4.41779 0
M  V30 4798 H 443.973 -4.37953 -4.10265 0
M  V30 4799 H 445.043 -3.99995 -2.74102 0
M  V30 4800 N 446.386 1.0089 -1.21074 0
M  V30 4801 C 447.634 1.74262 -1.02358 0
M  V30 4802 C 447.955 1.89869 0.444393 0
M  V30 4803 O 447.225 1.44677 1.32081 0
M  V30 4804 H 445.805 0.645615 -0.375754 0
M  V30 4805 H 448.467 1.21596 -1.52317 0
M  V30 4806 H 447.563 2.74328 -1.4883 0
M  V30 4807 N 447.864 1.01787 1.20321 0
M  V30 4808 C 449.141 0.622978 1.85414 0
M  V30 4809 C 449.521 -0.898887 1.91006 0
M  V30 4810 O 448.869 -1.79112 1.41884 0
M  V30 4811 C 449.079 1.27226 3.24984 0
M  V30 4812 C 450.427 1.3885 4.01255 0
M  V30 4813 O 451.451 1.22857 3.34342 0
M  V30 4814 O 450.31 1.64705 5.2109 0
M  V30 4815 H 447.404 0.215116 0.798533 0
M  V30 4816 H 449.95 1.11533 1.27901 0
M  V30 4817 H 448.722 2.31209 3.15687 0
M  V30 4818 H 448.345 0.767069 3.90131 0
M  V30 4819 N 449.342 -1.36122 0.79427 0
M  V30 4820 C 450.252 -2.33769 0.197296 0
M  V30 4821 C 451.268 -1.61276 -0.653153 0
M  V30 4822 O 452.444 -1.9323 -0.5678 0
M  V30 4823 C 449.509 -3.40474 -0.654098 0
M  V30 4824 C 448.57 -4.28759 0.215411 0
M  V30 4825 C 447.803 -5.30368 -0.595443 0
M  V30 4826 O 448.026 -5.40211 -1.83107 0
M  V30 4827 O 446.96 -6.019 0.00721351 0
M  V30 4828 H 450.786 -2.86597 1.00478 0
M  V30 4829 H 448.371 -1.38676 0.555818 0
M  V30 4830 H 450.253 -4.05703 -1.13944 0
M  V30 4831 H 448.928 -2.89937 -1.43938 0
M  V30 4832 H 447.835 -3.66554 0.747615 0
M  V30 4833 H 449.168 -4.82661 0.964332 0
M  V30 4834 N 450.82 -0.546701 -1.47814 0
M  V30 4835 C 452.066 -0.0187684 -2.02791 0
M  V30 4836 C 452.399 1.32338 -1.42128 0
M  V30 4837 O 451.674 1.85867 -0.573023 0
M  V30 4838 C 451.957 0.0854985 -3.59998 0
M  V30 4839 C 451.81 -1.283 -4.31114 0
M  V30 4840 C 453.129 0.80412 -4.32691 0
M  V30 4841 H 450.248 -0.0082946 -0.736953 0
M  V30 4842 H 452.89 -0.706962 -1.76358 0
M  V30 4843 H 451.04 0.671609 -3.82651 0
M  V30 4844 H 452.712 -1.91151 -4.19832 0
M  V30 4845 H 450.955 -1.86049 -3.91878 0
M  V30 4846 H 451.626 -1.16287 -5.39612 0
M  V30 4847 H 454.102 0.306576 -4.14969 0
M  V30 4848 H 452.978 0.846011 -5.42341 0
M  V30 4849 H 453.239 1.85802 -4.01161 0
M  V30 4850 N 452.299 1.55045 -0.282633 0
M  V30 4851 C 453.529 2.03872 0.334635 0
M  V30 4852 C 453.937 1.16018 1.49454 0
M  V30 4853 O 453.28 0.174449 1.8287 0
M  V30 4854 C 453.342 3.48791 0.870905 0
M  V30 4855 C 453.006 4.56715 -0.161338 0
M  V30 4856 C 454.003 5.10513 -0.983466 0
M  V30 4857 C 451.688 5.01417 -0.297745 0
M  V30 4858 C 453.682 6.07538 -1.92811 0
M  V30 4859 C 451.369 5.98265 -1.24586 0
M  V30 4860 C 452.367 6.51208 -2.05954 0
M  V30 4861 O 452.055 7.46162 -2.99162 0
M  V30 4862 H 451.787 0.671324 0.0793742 0
M  V30 4863 H 454.341 2.01169 -0.41473 0
M  V30 4864 H 452.571 3.48758 1.67047 0
M  V30 4865 H 454.26 3.80916 1.40207 0
M  V30 4866 H 455.026 4.76785 -0.888856 0
M  V30 4867 H 450.905 4.59849 0.325604 0
M  V30 4868 H 454.449 6.48787 -2.56363 0
M  V30 4869 H 450.346 6.31412 -1.34126 0
M  V30 4870 H 451.114 7.63903 -2.93929 0
M  V30 4871 N 453.777 0.010035 1.57597 0
M  V30 4872 C 455.002 -0.687021 1.95691 0
M  V30 4873 C 455.427 -1.65952 0.885519 0
M  V30 4874 O 454.785 -1.80633 -0.15543 0
M  V30 4875 C 454.833 -1.3864 3.32884 0
M  V30 4876 O 453.937 -2.50115 3.27897 0
M  V30 4877 H 453.278 -0.181989 0.638573 0
M  V30 4878 H 455.808 0.0662122 2.04493 0
M  V30 4879 H 455.818 -1.74754 3.6868 0
M  V30 4880 H 454.493 -0.673411 4.10412 0
M  V30 4881 H 453.07 -2.16253 3.03791 0
M  V30 4882 N 455.255 -1.55392 -0.262866 0
M  V30 4883 C 456.671 -1.47459 -0.610582 0
M  V30 4884 C 456.871 -0.697031 -1.8906 0
M  V30 4885 O 455.927 -0.219952 -2.5154 0
M  V30 4886 C 457.24 -2.91751 -0.728131 0
M  V30 4887 C 458.788 -3.02027 -0.821517 0
M  V30 4888 C 459.263 -4.47594 -0.97076 0
M  V30 4889 N 460.754 -4.51465 -1.03603 0
M  V30 4890 C 461.489 -5.61326 -1.17049 0
M  V30 4891 N 460.985 -6.81032 -1.2715 0
M  V30 4892 N 462.778 -5.49089 -1.20239 0
M  V30 4893 H 454.929 -2.04395 0.577632 0
M  V30 4894 H 457.192 -0.927287 0.197086 0
M  V30 4895 H 456.898 -3.51413 0.142132 0
M  V30 4896 H 456.772 -3.4134 -1.6052 0
M  V30 4897 H 459.159 -2.42456 -1.68224 0
M  V30 4898 H 459.24 -2.55674 0.0803688 0
M  V30 4899 H 458.884 -5.07771 -0.114655 0
M  V30 4900 H 458.814 -4.91613 -1.88745 0
M  V30 4901 H 461.305 -3.6524 -0.96996 0
M  V30 4902 H 461.618 -7.60511 -1.37271 0
M  V30 4903 H 459.963 -6.83824 -1.24136 0
M  V30 4904 H 463.154 -4.54507 -1.11985 0
M  V30 4905 H 463.327 -6.34749 -1.30373 0
M  V30 4906 N 456.733 0.527833 -1.48498 0
M  V30 4907 C 457.982 1.28003 -1.55878 0
M  V30 4908 C 458.295 1.9414 -0.238577 0
M  V30 4909 O 459.501 2.7083 -0.190643 0
M  V30 4910 C 457.957 2.32272 -2.74914 0
M  V30 4911 C 457.565 1.72196 -4.13585 0
M  V30 4912 C 459.309 3.08488 -2.91608 0
M  V30 4913 C 457.216 2.74417 -5.23879 0
M  V30 4914 H 456.146 0.481413 -0.580308 0
M  V30 4915 H 458.797 0.557195 -1.74836 0
M  V30 4916 H 457.179 3.07601 -2.49395 0
M  V30 4917 H 458.353 1.03041 -4.49132 0
M  V30 4918 H 456.668 1.08464 -4.02025 0
M  V30 4919 H 459.265 3.84879 -3.71177 0
M  V30 4920 H 459.608 3.64481 -2.01145 0
M  V30 4921 H 460.141 2.40274 -3.17038 0
M  V30 4922 H 456.88 2.23242 -6.16314 0
M  V30 4923 H 456.4 3.41893 -4.92818 0
M  V30 4924 H 458.079 3.37362 -5.52083 0
M  V30 4925 N 458.211 1.37122 0.776871 0
M  V30 4926 C 459.622 1.28667 1.35284 0
M  V30 4927 C 459.973 -0.0680035 1.96082 0
M  V30 4928 O 459.098 -0.969743 1.93455 0
M  V30 4929 C 459.693 2.32997 2.45963 0
M  V30 4930 C 458.252 2.28191 2.99342 0
M  V30 4931 C 457.399 2.17101 1.72517 0
M  V30 4932 H 460.35 1.47819 0.577527 0
M  V30 4933 H 460.371 1.97366 3.2531 0
M  V30 4934 H 459.883 3.3158 2.01684 0
M  V30 4935 H 457.984 1.33115 3.4801 0
M  V30 4936 H 458.097 3.21397 3.55304 0
M  V30 4937 H 456.461 1.63562 1.95242 0
M  V30 4938 H 457.244 3.17591 1.30348 0
M  V30 4939 N 459.689 -1.00246 1.21608 0
M  V30 4940 C 460.621 -2.09244 0.935401 0
M  V30 4941 C 461.634 -1.62592 -0.0823594 0
M  V30 4942 O 462.823 -1.77865 0.150456 0
M  V30 4943 C 459.923 -3.36724 0.383453 0
M  V30 4944 C 459.096 -4.1245 1.45615 0
M  V30 4945 C 458.155 -5.18219 0.912991 0
M  V30 4946 O 457.181 -5.46337 1.59701 0
M  V30 4947 N 458.383 -5.7987 -0.270478 0
M  V30 4948 H 461.148 -2.33905 1.87373 0
M  V30 4949 H 458.709 -1.16748 1.12167 0
M  V30 4950 H 460.701 -4.047 0.00562157 0
M  V30 4951 H 459.271 -3.09201 -0.459758 0
M  V30 4952 H 458.491 -3.39241 2.00772 0
M  V30 4953 H 459.779 -4.59819 2.17817 0
M  V30 4954 H 459.177 -5.59381 -0.843195 0
M  V30 4955 H 457.734 -6.49126 -0.589794 0
M  V30 4956 N 461.167 -1.02423 -1.1978 0
M  V30 4957 C 462.578 -0.748389 -1.71044 0
M  V30 4958 C 462.929 0.732398 -1.82017 0
M  V30 4959 O 462.054 1.57116 -1.48807 0
M  V30 4960 C 462.649 -1.35187 -3.1066 0
M  V30 4961 C 461.208 -1.12472 -3.59203 0
M  V30 4962 C 460.355 -1.45283 -2.36195 0
M  V30 4963 H 463.306 -1.19275 -1.04686 0
M  V30 4964 H 463.327 -0.746408 -3.73107 0
M  V30 4965 H 462.839 -2.4296 -3.02642 0
M  V30 4966 H 460.94 -0.0649983 -3.72543 0
M  V30 4967 H 461.053 -1.81016 -4.43588 0
M  V30 4968 H 459.417 -0.872034 -2.39307 0
M  V30 4969 H 460.2 -2.54129 -2.30811 0
M  V30 4970 N 462.645 1.35699 -0.801477 0
M  V30 4971 C 463.575 2.32436 -0.222658 0
M  V30 4972 C 464.556 1.5723 0.649057 0
M  V30 4973 O 465.741 1.85324 0.580387 0
M  V30 4974 C 462.871 3.41469 0.633719 0
M  V30 4975 C 461.825 4.27774 -0.139083 0
M  V30 4976 C 461.151 5.28082 0.838666 0
M  V30 4977 C 462.451 5.04946 -1.33517 0
M  V30 4978 H 464.145 2.81094 -1.03086 0
M  V30 4979 H 461.691 1.35146 -0.497155 0
M  V30 4980 H 463.644 4.08143 1.04868 0
M  V30 4981 H 462.368 2.91408 1.47475 0
M  V30 4982 H 461.027 3.62673 -0.535156 0
M  V30 4983 H 460.675 4.7429 1.67506 0
M  V30 4984 H 460.375 5.86695 0.32594 0
M  V30 4985 H 461.899 5.97628 1.25194 0
M  V30 4986 H 463.313 5.64593 -0.995349 0
M  V30 4987 H 461.71 5.7303 -1.78202 0
M  V30 4988 H 462.78 4.35886 -2.12442 0
M  V30 4989 N 464.123 0.554532 1.47522 0
M  V30 4990 C 465.37 0.029479 2.02479 0
M  V30 4991 C 465.698 -1.31929 1.42916 0
M  V30 4992 O 464.953 -1.87112 0.573385 0
M  V30 4993 C 465.252 -0.115927 3.57212 0
M  V30 4994 C 464.918 1.16161 4.3568 0
M  V30 4995 C 463.58 1.51168 4.56839 0
M  V30 4996 C 465.932 2.0083 4.80954 0
M  V30 4997 C 463.26 2.70696 5.2052 0
M  V30 4998 C 465.612 3.19559 5.45953 0
M  V30 4999 C 464.276 3.54882 5.65345 0
M  V30 5000 H 463.546 0.0107871 0.740921 0
M  V30 5001 H 466.193 0.725506 1.77225 0
M  V30 5002 H 464.498 -0.894902 3.81443 0
M  V30 5003 H 466.195 -0.53749 3.97381 0
M  V30 5004 H 462.785 0.879026 4.19489 0
M  V30 5005 H 466.969 1.75093 4.64388 0
M  V30 5006 H 462.225 2.98236 5.33728 0
M  V30 5007 H 466.399 3.85456 5.79997 0
M  V30 5008 H 464.026 4.47596 6.1446 0
M  V30 5009 N 465.601 -1.54893 0.290851 0
M  V30 5010 C 466.848 -1.99933 -0.321391 0
M  V30 5011 C 467.176 -1.17927 -1.54672 0
M  V30 5012 O 466.431 -0.240902 -1.94212 0
M  V30 5013 C 466.73 -3.49815 -0.732397 0
M  V30 5014 C 466.396 -4.4921 0.390056 0
M  V30 5015 C 465.058 -4.76107 0.698223 0
M  V30 5016 C 467.41 -5.08453 1.14562 0
M  V30 5017 C 464.738 -5.59514 1.76526 0
M  V30 5018 C 467.09 -5.9302 2.2025 0
M  V30 5019 C 465.754 -6.18232 2.51684 0
M  V30 5020 H 465.024 -0.731608 -0.117605 0
M  V30 5021 H 467.671 -1.87107 0.407839 0
M  V30 5022 H 465.976 -3.60199 -1.54155 0
M  V30 5023 H 467.673 -3.82083 -1.21712 0
M  V30 5024 H 464.263 -4.28372 0.13976 0
M  V30 5025 H 468.447 -4.87683 0.920801 0
M  V30 5026 H 463.703 -5.77289 2.01364 0
M  V30 5027 H 467.877 -6.37955 2.7926 0
M  V30 5028 H 465.504 -6.82653 3.34499 0
M  V30 5029 N 467.08 -0.0183926 -1.57589 0
M  V30 5030 C 468.329 0.66185 -1.90532 0
M  V30 5031 C 468.642 1.73904 -0.895366 0
M  V30 5032 O 469.848 2.47518 -1.11566 0
M  V30 5033 C 468.304 1.22844 -3.38286 0
M  V30 5034 C 467.912 0.185103 -4.47617 0
M  V30 5035 C 469.656 1.88581 -3.80312 0
M  V30 5036 C 467.563 0.762723 -5.86461 0
M  V30 5037 H 466.493 0.250972 -0.711006 0
M  V30 5038 H 469.144 -0.0819435 -1.83317 0
M  V30 5039 H 467.526 2.0235 -3.40398 0
M  V30 5040 H 468.7 -0.58671 -4.5705 0
M  V30 5041 H 467.015 -0.372889 -4.14727 0
M  V30 5042 H 469.612 2.32735 -4.81392 0
M  V30 5043 H 469.955 2.72408 -3.14801 0
M  V30 5044 H 470.488 1.15782 -3.80578 0
M  V30 5045 H 467.227 -0.0371713 -6.55489 0
M  V30 5046 H 466.747 1.50327 -5.80656 0
M  V30 5047 H 468.426 1.25576 -6.34697 0
M  V30 5048 N 468.558 1.5553 0.254621 0
M  V30 5049 C 469.506 1.9048 1.33492 0
M  V30 5050 C 470.5 0.78304 1.50216 0
M  V30 5051 O 471.706 0.967582 1.51782 0
M  V30 5052 H 468.081 0.604846 0.44684 0
M  V30 5053 H 470.052 2.80688 1.01275 0
M  V30 5054 C 468.801 2.20928 2.68489 0
M  V30 5055 H 468.124 3.06742 2.56417 0
M  V30 5056 H 469.564 2.49291 3.42972 0
M  V30 5057 C 468.023 1.023 3.20993 0
M  V30 5058 O 468.553 0.267027 4.00811 0
M  V30 5059 N 466.759 0.815714 2.78917 0
M  V30 5060 H 466.306 1.43217 2.14119 0
M  V30 5061 H 466.264 0.0236532 3.14391 0
M  V30 5062 N 470.036 -0.519951 1.48776 0
M  V30 5063 C 471.261 -1.30447 1.6124 0
M  V30 5064 C 471.686 -1.86055 0.276591 0
M  V30 5065 O 471.044 -1.64915 -0.753183 0
M  V30 5066 C 471.092 -2.42406 2.66967 0
M  V30 5067 O 470.196 -3.45728 2.24824 0
M  V30 5068 H 469.537 -0.385924 0.540332 0
M  V30 5069 H 472.067 -0.624572 1.94834 0
M  V30 5070 H 472.077 -2.88447 2.88552 0
M  V30 5071 H 470.752 -2.01294 3.63941 0
M  V30 5072 H 469.329 -3.05737 2.13494 0
M  V30 5073 N 471.514 -1.37532 -0.769588 0
M  V30 5074 C 472.424 -1.35668 -1.91393 0
M  V30 5075 C 473.44 -0.255954 -1.72107 0
M  V30 5076 O 474.616 -0.491704 -1.95305 0
M  V30 5077 C 471.681 -1.16481 -3.26547 0
M  V30 5078 C 470.742 -2.36212 -3.58472 0
M  V30 5079 C 469.975 -2.17932 -4.87177 0
M  V30 5080 O 470.198 -1.1647 -5.58382 0
M  V30 5081 O 469.132 -3.06167 -5.18214 0
M  V30 5082 H 472.958 -2.32055 -1.95918 0
M  V30 5083 H 470.543 -1.18284 -0.912641 0
M  V30 5084 H 472.425 -1.07778 -4.07384 0
M  V30 5085 H 471.1 -0.231687 -3.2287 0
M  V30 5086 H 470.007 -2.50488 -2.77861 0
M  V30 5087 H 471.34 -3.281 -3.66894 0
M  V30 5088 N 472.992 0.995999 -1.22138 0
M  V30 5089 C 474.222 1.76809 -1.06874 0
M  V30 5090 C 474.63 1.85265 0.383866 0
M  V30 5091 O 473.973 1.31969 1.27789 0
M  V30 5092 C 474.035 3.2186 -1.60144 0
M  V30 5093 C 473.699 3.36958 -3.0872 0
M  V30 5094 C 474.696 3.2452 -4.0618 0
M  V30 5095 C 472.381 3.62109 -3.48112 0
M  V30 5096 C 474.375 3.37013 -5.41019 0
M  V30 5097 C 472.062 3.74243 -4.831 0
M  V30 5098 C 473.06 3.61702 -5.79362 0
M  V30 5099 O 472.748 3.73436 -7.119 0
M  V30 5100 H 472.48 0.562207 -0.375365 0
M  V30 5101 H 475.034 1.26113 -1.62125 0
M  V30 5102 H 473.264 3.73734 -0.992981 0
M  V30 5103 H 474.953 3.80775 -1.40589 0
M  V30 5104 H 475.719 3.05004 -3.77091 0
M  V30 5105 H 471.598 3.70949 -2.73712 0
M  V30 5106 H 475.142 3.27141 -6.16137 0
M  V30 5107 H 471.039 3.93266 -5.11872 0
M  V30 5108 H 471.807 3.90328 -7.19435 0
M  V30 5109 N 474.47 1.03057 1.19235 0
M  V30 5110 C 475.717 0.728019 1.88961 0
M  V30 5111 C 476.045 -0.743515 1.79728 0
M  V30 5112 O 475.3 -1.55729 1.1852 0
M  V30 5113 C 475.599 1.1268 3.39172 0
M  V30 5114 C 475.265 2.5969 3.68608 0
M  V30 5115 C 473.927 2.99854 3.76352 0
M  V30 5116 C 476.279 3.54793 3.81801 0
M  V30 5117 C 473.607 4.34031 3.94758 0
M  V30 5118 C 475.959 4.88675 4.0172 0
M  V30 5119 C 474.623 5.28526 4.07697 0
M  V30 5120 H 473.893 0.266401 0.691456 0
M  V30 5121 H 476.54 1.29373 1.41191 0
M  V30 5122 H 474.845 0.479722 3.88852 0
M  V30 5123 H 476.542 0.870203 3.91444 0
M  V30 5124 H 473.132 2.27575 3.63191 0
M  V30 5125 H 477.316 3.24914 3.7516 0
M  V30 5126 H 472.572 4.6444 3.97625 0
M  V30 5127 H 476.746 5.6228 4.1087 0
M  V30 5128 H 474.373 6.32506 4.21712 0
M  V30 5129 N 475.948 -1.35272 0.808662 0
M  V30 5130 C 476.88 -2.28507 0.178149 0
M  V30 5131 C 477.893 -1.50377 -0.623754 0
M  V30 5132 O 479.082 -1.72583 -0.455774 0
M  V30 5133 C 476.182 -3.30038 -0.769959 0
M  V30 5134 C 475.355 -4.37398 -0.0139749 0
M  V30 5135 C 474.414 -5.18775 -0.880875 0
M  V30 5136 O 473.44 -5.68236 -0.331059 0
M  V30 5137 N 474.642 -5.37087 -2.20267 0
M  V30 5138 H 477.407 -2.83255 0.979106 0
M  V30 5139 H 474.968 -1.47643 0.664308 0
M  V30 5140 H 476.96 -3.81371 -1.35418 0
M  V30 5141 H 475.53 -2.75789 -1.47171 0
M  V30 5142 H 474.75 -3.86971 0.751468 0
M  V30 5143 H 476.038 -5.06268 0.506965 0
M  V30 5144 H 475.436 -4.9855 -2.67328 0
M  V30 5145 H 473.993 -5.91593 -2.73608 0
M  V30 5146 N 477.426 -0.562348 -1.47226 0
M  V30 5147 C 478.656 -0.0451619 -2.06551 0
M  V30 5148 C 479.064 1.25626 -1.41473 0
M  V30 5149 O 478.407 1.76563 -0.507061 0
M  V30 5150 C 478.469 0.216068 -3.5885 0
M  V30 5151 C 478.133 -0.996691 -4.45999 0
M  V30 5152 C 479.13 -1.90358 -4.83797 0
M  V30 5153 C 476.815 -1.21281 -4.87438 0
M  V30 5154 C 478.809 -3.01023 -5.6184 0
M  V30 5155 C 476.496 -2.32255 -5.65244 0
M  V30 5156 C 477.494 -3.21956 -6.02356 0
M  V30 5157 O 477.182 -4.31005 -6.78594 0
M  V30 5158 H 476.914 -0.0451646 -0.67449 0
M  V30 5159 H 479.468 -0.776842 -1.90143 0
M  V30 5160 H 477.698 1.00212 -3.7349 0
M  V30 5161 H 479.387 0.679264 -4.00176 0
M  V30 5162 H 480.153 -1.74868 -4.52378 0
M  V30 5163 H 476.032 -0.523767 -4.58015 0
M  V30 5164 H 479.576 -3.71064 -5.90726 0
M  V30 5165 H 475.473 -2.47715 -5.96077 0
M  V30 5166 H 476.241 -4.29118 -6.96994 0
M  V30 5167 N 478.904 1.54736 -0.299062 0
M  V30 5168 C 480.315 1.8569 0.193971 0
M  V30 5169 C 480.666 1.22101 1.53577 0
M  V30 5170 O 479.791 0.51799 2.10109 0
M  V30 5171 C 480.386 3.36895 0.358733 0
M  V30 5172 C 478.945 3.67887 0.795986 0
M  V30 5173 C 478.092 2.77131 -0.096807 0
M  V30 5174 H 481.043 1.49934 -0.520134 0
M  V30 5175 H 481.064 3.61294 1.19361 0
M  V30 5176 H 480.576 3.83148 -0.617998 0
M  V30 5177 H 478.677 3.27151 1.78334 0
M  V30 5178 H 478.79 4.75114 0.616718 0
M  V30 5179 H 477.154 2.51153 0.423581 0
M  V30 5180 H 477.937 3.26204 -1.06986 0
M  V30 5181 N 480.382 0.0267497 1.57577 0
M  V30 5182 C 481.345 -0.940916 2.08996 0
M  V30 5183 C 482.345 -1.25561 1.00455 0
M  V30 5184 O 483.535 -1.19634 1.26623 0
M  V30 5185 C 480.667 -2.25814 2.55384 0
M  V30 5186 H 481.86 -0.495628 2.95776 0
M  V30 5187 H 479.413 -0.221241 1.54726 0
M  V30 5188 H 480.148 -2.74976 1.71926 0
M  V30 5189 H 479.933 -2.04285 3.34679 0
M  V30 5190 H 481.423 -2.95178 2.95398 0
M  V30 5191 N 481.861 -1.55662 -0.24637 0
M  V30 5192 C 482.809 -1.91186 -1.3248 0
M  V30 5193 C 483.803 -0.790996 -1.49799 0
M  V30 5194 O 485.009 -0.975617 -1.51267 0
M  V30 5195 H 481.384 -0.607207 -0.443626 0
M  V30 5196 H 483.355 -2.81221 -0.997853 0
M  V30 5197 C 482.104 -2.22349 -2.67313 0
M  V30 5198 H 481.427 -3.08097 -2.54786 0
M  V30 5199 H 482.867 -2.51107 -3.41645 0
M  V30 5200 C 481.326 -1.04001 -3.20446 0
M  V30 5201 O 481.856 -0.28828 -4.00664 0
M  V30 5202 N 480.062 -0.830494 -2.7848 0
M  V30 5203 H 479.609 -1.4435 -2.13356 0
M  V30 5204 H 479.567 -0.0403258 -3.14374 0
M  V30 5205 N 483.339 0.512053 -1.4905 0
M  V30 5206 C 484.588 1.26343 -1.57227 0
M  V30 5207 C 484.901 1.93876 -0.259155 0
M  V30 5208 O 486.107 2.70612 -0.219358 0
M  V30 5209 C 484.563 2.29343 -2.77362 0
M  V30 5210 C 484.171 1.67799 -4.15388 0
M  V30 5211 C 485.915 3.05378 -2.94864 0
M  V30 5212 C 483.822 2.68845 -5.2676 0
M  V30 5213 H 482.752 0.475231 -0.585382 0
M  V30 5214 H 485.403 0.53862 -1.75417 0
M  V30 5215 H 483.785 3.04938 -2.52643 0
M  V30 5216 H 484.959 0.982715 -4.50199 0
M  V30 5217 H 483.274 1.04194 -4.03153 0
M  V30 5218 H 485.871 3.80921 -3.75238 0
M  V30 5219 H 486.214 3.62327 -2.05 0
M  V30 5220 H 486.747 2.36898 -3.19569 0
M  V30 5221 H 483.486 2.16692 -6.18647 0
M  V30 5222 H 483.006 3.36647 -4.96416 0
M  V30 5223 H 484.685 3.31487 -5.5563 0
M  V30 5224 N 484.817 1.37938 0.762283 0
M  V30 5225 C 486.066 1.32989 1.51647 0
M  V30 5226 C 486.379 -0.0802922 1.95435 0
M  V30 5227 O 487.585 -0.252295 2.70325 0
M  V30 5228 C 486.041 2.33485 2.73885 0
M  V30 5229 C 485.649 3.80079 2.37157 0
M  V30 5230 C 487.393 2.37563 3.51801 0
M  V30 5231 C 485.3 4.72283 3.55954 0
M  V30 5232 H 484.23 0.494301 0.56937 0
M  V30 5233 H 486.881 1.63448 0.834083 0
M  V30 5234 H 485.263 1.96056 3.44061 0
M  V30 5235 H 486.437 4.26398 1.74704 0
M  V30 5236 H 484.752 3.79037 1.72395 0
M  V30 5237 H 487.349 3.0365 4.40114 0
M  V30 5238 H 487.692 1.39199 3.92338 0
M  V30 5239 H 488.225 2.73747 2.8863 0
M  V30 5240 H 484.964 5.7181 3.2049 0
M  V30 5241 H 484.484 4.30663 4.1748 0
M  V30 5242 H 486.163 4.89876 4.22647 0
M  V30 5243 N 486.295 -0.989507 1.22664 0
M  V30 5244 C 487.242 -2.08024 0.999733 0
M  V30 5245 C 488.212 -1.65909 -0.0797047 0
M  V30 5246 O 489.397 -1.90669 0.0705715 0
M  V30 5247 C 486.537 -3.40067 0.587234 0
M  V30 5248 C 485.65 -3.95505 1.73781 0
M  V30 5249 C 484.785 -5.15722 1.27297 0
M  V30 5250 C 483.824 -5.63305 2.39488 0
M  V30 5251 N 482.961 -6.74758 1.94026 0
M  V30 5252 H 487.801 -2.26768 1.9334 0
M  V30 5253 H 485.338 -1.11171 0.963297 0
M  V30 5254 H 487.296 -4.15899 0.329227 0
M  V30 5255 H 485.926 -3.21314 -0.309426 0
M  V30 5256 H 484.978 -3.16513 2.11006 0
M  V30 5257 H 486.29 -4.26797 2.58158 0
M  V30 5258 H 485.444 -5.98854 0.972546 0
M  V30 5259 H 484.183 -4.86061 0.399445 0
M  V30 5260 H 483.188 -4.78759 2.70315 0
M  V30 5261 H 484.413 -5.94988 3.27362 0
M  V30 5262 H 482.359 -6.46874 1.09041 0
M  V30 5263 H 482.276 -7.05386 2.71968 0
M  V30 5264 H 483.544 -7.61387 1.67062 0
M  V30 5265 N 487.773 -1.03688 -1.18687 0
M  V30 5266 C 488.706 -0.569112 -2.2099 0
M  V30 5267 C 489.684 0.394315 -1.57746 0
M  V30 5268 O 490.868 0.309519 -1.85941 0
M  V30 5269 C 487.995 0.169104 -3.38278 0
M  V30 5270 C 487.041 -0.746989 -4.19908 0
M  V30 5271 S 487.874 -2.22773 -4.86963 0
M  V30 5272 C 489.03 -1.50025 -6.07654 0
M  V30 5273 H 489.263 -1.43589 -2.60326 0
M  V30 5274 H 486.796 -0.847507 -1.29061 0
M  V30 5275 H 488.754 0.588868 -4.06254 0
M  V30 5276 H 487.415 1.01172 -2.9736 0
M  V30 5277 H 486.608 -0.176626 -5.0369 0
M  V30 5278 H 486.21 -1.10543 -3.5729 0
M  V30 5279 H 488.502 -0.791217 -6.72864 0
M  V30 5280 H 489.445 -2.31498 -6.69189 0
M  V30 5281 H 489.853 -0.994245 -5.55675 0
M  V30 5282 N 489.251 1.34841 -0.815825 0
M  V30 5283 C 490.198 2.29644 -0.230664 0
M  V30 5284 C 491.168 1.53253 0.640533 0
M  V30 5285 O 492.353 1.81653 0.583672 0
M  V30 5286 C 489.493 3.39715 0.607275 0
M  V30 5287 C 488.606 4.31056 -0.28538 0
M  V30 5288 C 487.741 5.28225 0.561446 0
M  V30 5289 C 486.78 6.11204 -0.331035 0
M  V30 5290 N 485.917 7.00483 0.476302 0
M  V30 5291 H 490.757 2.79095 -1.0445 0
M  V30 5292 H 488.294 1.37351 -0.526595 0
M  V30 5293 H 490.252 4.02208 1.10835 0
M  V30 5294 H 488.882 2.91517 1.38629 0
M  V30 5295 H 487.934 3.69487 -0.904621 0
M  V30 5296 H 489.246 4.89239 -0.97193 0
M  V30 5297 H 488.4 5.96135 1.12728 0
M  V30 5298 H 487.139 4.70562 1.28153 0
M  V30 5299 H 486.144 5.42232 -0.909069 0
M  V30 5300 H 487.369 6.70947 -1.04912 0
M  V30 5301 H 485.315 6.45296 1.18019 0
M  V30 5302 H 485.232 7.55847 -0.152008 0
M  V30 5303 H 486.5 7.7273 1.02512 0
M  V30 5304 N 490.729 0.570148 1.46925 0
M  V30 5305 C 491.676 -0.170257 2.30171 0
M  V30 5306 C 492.646 -0.896099 1.39855 0
M  V30 5307 O 493.831 -0.889248 1.68811 0
M  V30 5308 C 490.971 -1.18605 3.24079 0
M  V30 5309 C 490.084 -0.464947 4.29491 0
M  V30 5310 C 489.219 -1.46716 5.10537 0
M  V30 5311 C 488.258 -0.731758 6.0771 0
M  V30 5312 N 487.395 -1.68142 6.81669 0
M  V30 5313 H 492.235 0.545713 2.92961 0
M  V30 5314 H 489.772 0.280938 1.44392 0
M  V30 5315 H 491.73 -1.78771 3.76957 0
M  V30 5316 H 490.36 -1.86989 2.63125 0
M  V30 5317 H 489.412 0.251506 3.79568 0
M  V30 5318 H 490.724 0.110548 4.98677 0
M  V30 5319 H 489.878 -2.14199 5.6763 0
M  V30 5320 H 488.617 -2.07658 4.41282 0
M  V30 5321 H 487.622 -0.0430787 5.49783 0
M  V30 5322 H 488.847 -0.127904 6.7898 0
M  V30 5323 H 486.793 -2.27918 6.15134 0
M  V30 5324 H 486.71 -1.15841 7.47072 0
M  V30 5325 H 487.978 -2.347 7.43328 0
M  V30 5326 N 492.207 -1.54576 0.307264 0
M  V30 5327 C 493.447 -2.02172 -0.300962 0
M  V30 5328 C 493.811 -1.19081 -1.50611 0
M  V30 5329 O 495.012 -1.56405 -2.18612 0
M  V30 5330 C 493.283 -3.51576 -0.642591 0
M  V30 5331 S 494.842 -4.21127 -1.23279 0
M  V30 5332 H 491.66 -0.705021 -0.0920141 0
M  V30 5333 H 494.262 -1.90563 0.436594 0
M  V30 5334 H 492.966 -4.09681 0.242901 0
M  V30 5335 H 492.497 -3.67234 -1.41077 0
M  V30 5336 H 494.512 -4.27426 -2.52034 0
M  V30 5337 N 493.685 -0.035106 -1.57561 0
M  V30 5338 C 494.915 0.651312 -1.96065 0
M  V30 5339 C 495.323 1.6585 -0.910514 0
M  V30 5340 O 494.666 1.83336 0.11552 0
M  V30 5341 C 494.728 1.40897 -3.30739 0
M  V30 5342 C 494.392 0.559436 -4.53563 0
M  V30 5343 C 495.389 -0.16778 -5.19629 0
M  V30 5344 C 493.074 0.495079 -4.99854 0
M  V30 5345 C 495.068 -0.947963 -6.30311 0
M  V30 5346 C 492.755 -0.288804 -6.10417 0
M  V30 5347 C 493.753 -1.00903 -6.75505 0
M  V30 5348 O 493.441 -1.78005 -7.83945 0
M  V30 5349 H 493.173 0.184036 -0.650467 0
M  V30 5350 H 495.727 -0.0929677 -2.05189 0
M  V30 5351 H 493.957 2.19852 -3.18123 0
M  V30 5352 H 495.646 1.98407 -3.54104 0
M  V30 5353 H 496.412 -0.12743 -4.84833 0
M  V30 5354 H 492.291 1.04524 -4.48994 0
M  V30 5355 H 495.835 -1.51064 -6.81047 0
M  V30 5356 H 491.732 -0.33085 -6.44652 0
M  V30 5357 H 492.5 -1.70046 -8.00641 0
M  V30 5358 N 495.163 1.55791 0.238111 0
M  V30 5359 C 496.388 1.8244 0.986432 0
M  V30 5360 C 496.813 0.613314 1.7782 0
M  V30 5361 O 496.171 -0.437767 1.75935 0
M  V30 5362 C 496.219 3.06917 1.893 0
M  V30 5363 O 495.323 2.84449 2.98601 0
M  V30 5364 H 494.664 0.601975 0.280218 0
M  V30 5365 H 497.194 2.02987 0.256437 0
M  V30 5366 H 497.204 3.36583 2.30598 0
M  V30 5367 H 495.879 3.947 1.31091 0
M  V30 5368 H 494.456 2.65972 2.61368 0
M  V30 5369 N 496.642 -0.504142 1.49319 0
M  V30 5370 C 498.053 -1.08572 1.51885 0
M  V30 5371 C 498.404 -1.93842 0.303255 0
M  V30 5372 O 497.529 -2.0828 -0.58724 0
M  V30 5373 C 498.124 -1.97574 2.75227 0
M  V30 5374 C 496.683 -2.509 2.80581 0
M  V30 5375 C 495.83 -1.28447 2.45757 0
M  V30 5376 H 498.781 -0.288194 1.56061 0
M  V30 5377 H 498.802 -2.82219 2.55211 0
M  V30 5378 H 498.314 -1.35486 3.63683 0
M  V30 5379 H 496.415 -3.16636 1.96398 0
M  V30 5380 H 496.528 -2.88268 3.82673 0
M  V30 5381 H 494.892 -1.60868 1.97468 0
M  V30 5382 H 495.675 -0.68072 3.36483 0
M  V30 5383 N 498.12 -1.38341 -0.754957 0
M  V30 5384 C 499.397 -1.24995 -1.50451 0
M  V30 5385 C 499.777 0.149244 -2.10572 0
M  V30 5386 O 499.125 1.15861 -1.96948 0
M  V30 5387 C 499.335 -2.35904 -2.57197 0
M  V30 5388 C 500.683 -2.74262 -3.24138 0
M  V30 5389 O 501.707 -2.35205 -2.67501 0
M  V30 5390 O 500.566 -3.4161 -4.26574 0
M  V30 5391 H 497.66 -0.48872 -0.667144 0
M  V30 5392 H 500.206 -1.50165 -0.790486 0
M  V30 5393 H 498.978 -3.2953 -2.11011 0
M  V30 5394 H 498.601 -2.12291 -3.36182 0
M  V30 5395 N 499.598 0.982988 -1.23187 0
M  V30 5396 C 500.545 2.07491 -1.01075 0
M  V30 5397 C 501.515 1.65949 0.070905 0
M  V30 5398 O 502.7 1.90629 -0.0806822 0
M  V30 5399 C 499.84 3.39751 -0.605261 0
M  V30 5400 C 498.953 3.94578 -1.75876 0
M  V30 5401 C 498.088 5.15039 -1.3003 0
M  V30 5402 C 497.127 5.62027 -2.42472 0
M  V30 5403 N 496.264 6.73719 -1.97602 0
M  V30 5404 H 501.104 2.25739 -1.9454 0
M  V30 5405 H 498.641 1.10659 -0.969179 0
M  V30 5406 H 500.599 4.15719 -0.351279 0
M  V30 5407 H 499.229 3.21473 0.292382 0
M  V30 5408 H 498.281 3.1539 -2.12681 0
M  V30 5409 H 499.593 4.25422 -2.60418 0
M  V30 5410 H 498.747 5.9833 -1.00429 0
M  V30 5411 H 497.486 4.85843 -0.425216 0
M  V30 5412 H 496.491 4.77318 -2.7285 0
M  V30 5413 H 497.716 5.93244 -3.30512 0
M  V30 5414 H 495.662 6.46287 -1.1247 0
M  V30 5415 H 495.579 7.03934 -2.75705 0
M  V30 5416 H 496.847 7.6049 -1.71098 0
M  V30 5417 N 501.076 1.04316 1.18135 0
M  V30 5418 C 501.986 0.646876 2.25505 0
M  V30 5419 C 503.002 -0.328008 1.7088 0
M  V30 5420 O 504.178 -0.182309 2.00573 0
M  V30 5421 C 501.243 0.0185664 3.46695 0
M  V30 5422 C 500.304 1.04277 4.16443 0
M  V30 5423 C 499.537 0.444352 5.31847 0
M  V30 5424 O 499.76 -0.748735 5.65465 0
M  V30 5425 O 498.694 1.17428 5.90334 0
M  V30 5426 H 502.52 1.54147 2.61672 0
M  V30 5427 H 500.105 0.814188 1.25265 0
M  V30 5428 H 501.987 -0.331068 4.20097 0
M  V30 5429 H 500.662 -0.849814 3.12346 0
M  V30 5430 H 499.569 1.44425 3.45098 0
M  V30 5431 H 500.902 1.882 4.54798 0
M  V30 5432 N 502.554 -1.34406 0.822964 0
M  V30 5433 C 503.97 -1.51275 0.508727 0
M  V30 5434 C 504.17 -1.76776 -0.967083 0
M  V30 5435 O 503.226 -1.81871 -1.75155 0
M  V30 5436 C 504.539 -2.67765 1.36829 0
M  V30 5437 C 506.087 -2.81647 1.36542 0
M  V30 5438 C 506.562 -4.01181 2.20947 0
M  V30 5439 N 508.053 -4.08388 2.18571 0
M  V30 5440 C 508.788 -5.00036 2.80627 0
M  V30 5441 N 508.284 -5.96906 3.51674 0
M  V30 5442 N 510.077 -4.92908 2.70181 0
M  V30 5443 H 502.228 -1.16113 1.77852 0
M  V30 5444 H 504.491 -0.56947 0.757897 0
M  V30 5445 H 504.197 -2.55551 2.41633 0
M  V30 5446 H 504.071 -3.62779 1.03303 0
M  V30 5447 H 506.458 -2.93303 0.325163 0
M  V30 5448 H 506.539 -1.87443 1.74066 0
M  V30 5449 H 506.183 -3.90286 3.25022 0
M  V30 5450 H 506.113 -4.94599 1.80774 0
M  V30 5451 H 508.604 -3.39051 1.66891 0
M  V30 5452 H 508.917 -6.63468 3.96271 0
M  V30 5453 H 507.262 -5.9703 3.5578 0
M  V30 5454 H 510.453 -4.1619 2.14251 0
M  V30 5455 H 510.626 -5.64137 3.18831 0
M  V30 5456 N 504.032 -0.577932 -1.46621 0
M  V30 5457 C 504.979 0.158048 -2.30258 0
M  V30 5458 C 505.949 0.888669 -1.40328 0
M  V30 5459 O 507.134 0.880283 -1.6928 0
M  V30 5460 C 504.274 1.16884 -3.24703 0
M  V30 5461 C 503.387 0.442163 -4.29731 0
M  V30 5462 C 502.522 1.44007 -5.11308 0
M  V30 5463 C 501.561 0.69952 -6.0809 0
M  V30 5464 N 500.698 1.64525 -6.82551 0
M  V30 5465 H 505.538 -0.561242 -2.92667 0
M  V30 5466 H 503.075 -0.288591 -1.44241 0
M  V30 5467 H 505.033 1.7677 -3.779 0
M  V30 5468 H 503.663 1.85591 -2.64113 0
M  V30 5469 H 502.715 -0.271632 -3.79429 0
M  V30 5470 H 504.027 -0.136992 -4.98612 0
M  V30 5471 H 503.181 2.11186 -5.68758 0
M  V30 5472 H 501.92 2.05315 -4.42377 0
M  V30 5473 H 500.925 0.0139217 -5.49798 0
M  V30 5474 H 502.15 0.091894 -6.79038 0
M  V30 5475 H 500.096 2.24653 -6.16334 0
M  V30 5476 H 500.013 1.11878 -7.47676 0
M  V30 5477 H 501.281 2.30754 -7.44562 0
M  V30 5478 N 505.51 1.54411 -0.315457 0
M  V30 5479 C 506.443 2.20265 0.596522 0
M  V30 5480 C 507.421 1.17693 1.12192 0
M  V30 5481 O 508.605 1.46397 1.18744 0
M  V30 5482 C 505.732 2.85794 1.81767 0
M  V30 5483 C 504.778 4.02017 1.42424 0
M  V30 5484 S 505.611 5.33452 0.467836 0
M  V30 5485 C 506.767 6.02471 1.69645 0
M  V30 5486 H 507 2.97277 0.0370896 0
M  V30 5487 H 504.533 1.54079 -0.0995562 0
M  V30 5488 H 506.491 3.24172 2.51839 0
M  V30 5489 H 505.152 2.08601 2.34828 0
M  V30 5490 H 504.345 4.46701 2.33396 0
M  V30 5491 H 503.947 3.65271 0.803311 0
M  V30 5492 H 506.239 6.24157 2.63504 0
M  V30 5493 H 507.182 6.96215 1.29192 0
M  V30 5494 H 507.59 5.32284 1.87974 0
M  V30 5495 N 506.988 0.0434614 1.5754 0
M  V30 5496 C 508.237 -0.631454 1.91561 0
M  V30 5497 C 508.55 -1.72457 0.92292 0
M  V30 5498 O 509.756 -2.45712 1.15489 0
M  V30 5499 C 508.212 -1.17447 3.40197 0
M  V30 5500 C 507.82 -0.113867 4.47855 0
M  V30 5501 C 509.564 -1.82507 3.83264 0
M  V30 5502 C 507.471 -0.669326 5.876 0
M  V30 5503 H 506.401 -0.239629 0.714908 0
M  V30 5504 H 509.052 0.111097 1.83163 0
M  V30 5505 H 507.434 -1.96909 3.43574 0
M  V30 5506 H 508.608 0.659348 4.56058 0
M  V30 5507 H 506.923 0.438821 4.14081 0
M  V30 5508 H 509.52 -2.25047 4.85034 0
M  V30 5509 H 509.863 -2.67365 3.19095 0
M  V30 5510 H 510.396 -1.09712 3.82372 0
M  V30 5511 H 507.135 0.141449 6.55347 0
M  V30 5512 H 506.655 -1.4107 5.82974 0
M  V30 5513 H 508.334 -1.15463 6.36614 0
M  V30 5514 N 508.466 -1.55915 -0.229846 0
M  V30 5515 C 509.694 -1.82617 -0.972562 0
M  V30 5516 C 510.109 -0.621488 -1.78278 0
M  V30 5517 O 509.466 0.409956 -1.77836 0
M  V30 5518 C 509.517 -3.0774 -1.89679 0
M  V30 5519 O 509.238 -4.23559 -1.11934 0
M  V30 5520 C 510.739 -3.47368 -2.75409 0
M  V30 5521 H 507.959 -0.60727 -0.285419 0
M  V30 5522 H 510.503 -2.02996 -0.247579 0
M  V30 5523 H 508.658 -2.89361 -2.57583 0
M  V30 5524 H 509.072 -4.94586 -1.74599 0
M  V30 5525 H 510.546 -4.37977 -3.35977 0
M  V30 5526 H 511.023 -2.68737 -3.47386 0
M  V30 5527 H 511.629 -3.68158 -2.12931 0
M  V30 5528 N 509.944 0.496216 -1.49584 0
M  V30 5529 C 511.193 1.24668 -1.58558 0
M  V30 5530 C 511.506 1.9359 -0.279703 0
M  V30 5531 O 512.712 2.70365 -0.248048 0
M  V30 5532 C 511.168 2.26388 -2.79779 0
M  V30 5533 C 510.776 1.63384 -4.17145 0
M  V30 5534 C 512.52 3.02233 -2.98086 0
M  V30 5535 C 510.427 2.63243 -5.29582 0
M  V30 5536 H 509.357 0.468995 -0.590389 0
M  V30 5537 H 512.008 0.519985 -1.75978 0
M  V30 5538 H 510.39 3.02241 -2.55863 0
M  V30 5539 H 511.564 0.93491 -4.51216 0
M  V30 5540 H 509.879 0.999121 -4.04236 0
M  V30 5541 H 512.476 3.76919 -3.79257 0
M  V30 5542 H 512.819 3.60132 -2.08831 0
M  V30 5543 H 513.352 2.33495 -3.22063 0
M  V30 5544 H 510.091 2.10119 -6.20911 0
M  V30 5545 H 509.611 3.31363 -4.99959 0
M  V30 5546 H 511.29 3.25575 -5.59115 0
M  V30 5547 N 511.423 1.38739 0.74761 0
M  V30 5548 C 512.839 1.20067 1.05148 0
M  V30 5549 C 513.039 0.0534835 2.01429 0
M  V30 5550 O 512.095 -0.59886 2.45296 0
M  V30 5551 C 513.408 2.52957 1.62584 0
M  V30 5552 C 514.956 2.59692 1.74726 0
M  V30 5553 C 515.431 3.92772 2.35573 0
M  V30 5554 N 516.922 3.94343 2.42997 0
M  V30 5555 C 517.657 4.9408 2.90985 0
M  V30 5556 N 517.153 6.04214 3.38965 0
M  V30 5557 N 518.946 4.81466 2.9008 0
M  V30 5558 H 511.097 2.12121 0.108808 0
M  V30 5559 H 513.36 0.941491 0.110899 0
M  V30 5560 H 513.066 3.37389 0.993051 0
M  V30 5561 H 512.94 2.71779 2.61565 0
M  V30 5562 H 515.327 1.75651 2.3713 0
M  V30 5563 H 515.408 2.44731 0.744326 0
M  V30 5564 H 515.052 4.77238 1.738 0
M  V30 5565 H 514.982 4.05046 3.36519 0
M  V30 5566 H 517.473 3.14799 2.0907 0
M  V30 5567 H 517.786 6.76241 3.74056 0
M  V30 5568 H 516.131 6.07825 3.37007 0
M  V30 5569 H 519.322 3.94535 2.51912 0
M  V30 5570 H 519.495 5.59344 3.27166 0
M  V30 5571 N 512.901 -0.976442 1.23707 0
M  V30 5572 C 514.149 -1.71487 1.06942 0
M  V30 5573 C 514.47 -1.9098 -0.393897 0
M  V30 5574 O 513.74 -1.48128 -1.28198 0
M  V30 5575 H 512.32 -0.635425 0.392739 0
M  V30 5576 H 514.982 -1.17515 1.55487 0
M  V30 5577 H 514.078 -2.70286 1.56051 0
M  V30 5578 N 514.379 -1.04941 -1.1758 0
M  V30 5579 C 515.604 -0.778253 -1.92245 0
M  V30 5580 C 516.029 0.659707 -1.76152 0
M  V30 5581 O 515.387 1.45803 -1.07755 0
M  V30 5582 C 515.435 -1.16051 -3.41416 0
M  V30 5583 O 514.539 -0.291153 -4.11371 0
M  V30 5584 H 513.88 -0.285619 -0.599431 0
M  V30 5585 H 516.41 -1.40159 -1.49052 0
M  V30 5586 H 516.42 -1.12619 -3.92149 0
M  V30 5587 H 515.095 -2.208 -3.52449 0
M  V30 5588 H 513.672 -0.385851 -3.70898 0
M  V30 5589 N 515.857 1.33968 -0.830081 0
M  V30 5590 C 517.103 1.98357 -0.422191 0
M  V30 5591 C 517.436 1.65633 1.01387 0
M  V30 5592 O 516.711 0.931648 1.70735 0
M  V30 5593 C 516.994 3.54492 -0.633043 0
M  V30 5594 C 516.847 3.96934 -2.11574 0
M  V30 5595 C 518.166 4.40039 -0.0735584 0
M  V30 5596 H 515.285 0.720544 -0.154871 0
M  V30 5597 H 517.927 1.58749 -1.04397 0
M  V30 5598 H 516.077 3.88361 -0.103775 0
M  V30 5599 H 517.749 3.73363 -2.7092 0
M  V30 5600 H 515.992 3.46984 -2.60354 0
M  V30 5601 H 516.663 5.05651 -2.21406 0
M  V30 5602 H 519.139 4.12764 -0.52585 0
M  V30 5603 H 518.015 5.48327 -0.250841 0
M  V30 5604 H 518.276 4.30124 1.02202 0
M  V30 5605 N 517.335 0.585699 1.46312 0
M  V30 5606 C 518.285 -0.166813 2.27389 0
M  V30 5607 C 519.269 -0.859076 1.36047 0
M  V30 5608 O 520.461 -0.752678 1.60199 0
M  V30 5609 C 517.59 -1.17791 3.2246 0
M  V30 5610 C 516.676 -0.487605 4.21288 0
M  V30 5611 N 517.067 0.45849 5.03718 0
M  V30 5612 C 515.365 -0.737971 4.39852 0
M  V30 5613 C 516.066 0.862213 5.75275 0
M  V30 5614 N 515.042 0.210707 5.43191 0
M  V30 5615 H 518.844 0.560167 2.88512 0
M  V30 5616 H 516.358 0.407715 1.57199 0
M  V30 5617 H 518.355 -1.73122 3.79255 0
M  V30 5618 H 517.015 -1.90568 2.62896 0
M  V30 5619 H 518.026 0.834163 5.11138 0
M  V30 5620 H 514.703 -1.45209 3.91434 0
M  V30 5621 H 516.093 1.64128 6.51546 0
M  V30 5622 N 518.813 -1.54241 0.323641 0
M  V30 5623 C 519.745 -2.21836 -0.576311 0
M  V30 5624 C 520.758 -1.21837 -1.07979 0
M  V30 5625 O 521.947 -1.48306 -0.99336 0
M  V30 5626 C 519.047 -2.86923 -1.80356 0
M  V30 5627 C 518.22 -4.1306 -1.43875 0
M  V30 5628 C 517.279 -4.6174 -2.52353 0
M  V30 5629 O 516.305 -5.26421 -2.16494 0
M  V30 5630 N 517.507 -4.35974 -3.83284 0
M  V30 5631 H 520.272 -2.997 0.00247987 0
M  V30 5632 H 517.833 -1.61233 0.146848 0
M  V30 5633 H 519.825 -3.16414 -2.52318 0
M  V30 5634 H 518.395 -2.12765 -2.29019 0
M  V30 5635 H 517.615 -3.90334 -0.550752 0
M  V30 5636 H 518.903 -4.95148 -1.17071 0
M  V30 5637 H 518.301 -3.84203 -4.15216 0
M  V30 5638 H 516.858 -4.70119 -4.51477 0
M  V30 5639 N 520.291 -0.0518155 -1.57515 0
M  V30 5640 C 521.239 0.940195 -2.12751 0
M  V30 5641 C 522.233 1.3218 -1.05948 0
M  V30 5642 O 523.439 1.30138 -1.24355 0
M  V30 5643 H 519.814 0.321066 -0.680015 0
M  V30 5644 H 521.785 0.449217 -2.94999 0
M  V30 5645 C 520.534 2.2055 -2.68799 0
M  V30 5646 H 519.857 1.92066 -3.50643 0
M  V30 5647 H 521.297 2.88119 -3.11068 0
M  V30 5648 C 519.756 2.95061 -1.62605 0
M  V30 5649 O 520.286 3.88025 -1.03921 0
M  V30 5650 N 518.492 2.57804 -1.34111 0
M  V30 5651 H 518.039 1.82281 -1.8202 0
M  V30 5652 H 517.997 3.07964 -0.632872 0
M  V30 5653 N 521.769 1.56035 0.221574 0
M  V30 5654 C 523.016 1.79047 0.94597 0
M  V30 5655 C 523.344 0.62057 1.84334 0
M  V30 5656 O 522.599 -0.395053 1.91671 0
M  V30 5657 C 522.898 3.07813 1.8162 0
M  V30 5658 C 522.564 4.3797 1.07206 0
M  V30 5659 C 521.226 4.73334 0.866508 0
M  V30 5660 C 523.578 5.18326 0.546565 0
M  V30 5661 C 520.906 5.8657 0.123549 0
M  V30 5662 C 523.258 6.32335 -0.18305 0
M  V30 5663 C 521.922 6.66301 -0.399861 0
M  V30 5664 H 521.192 0.655178 0.346155 0
M  V30 5665 H 523.839 1.90299 0.214146 0
M  V30 5666 H 522.144 2.91682 2.61589 0
M  V30 5667 H 523.841 3.2282 2.37884 0
M  V30 5668 H 520.431 4.10202 1.24226 0
M  V30 5669 H 524.615 4.9144 0.692847 0
M  V30 5670 H 519.871 6.11376 -0.0546591 0
M  V30 5671 H 524.045 6.9383 -0.59775 0
M  V30 5672 H 521.672 7.53889 -0.977489 0
M  V30 5673 N 523.247 -0.488276 1.49845 0
M  V30 5674 C 524.21 -1.57069 1.66919 0
M  V30 5675 C 525.21 -1.51445 0.540479 0
M  V30 5676 O 526.4 -1.5437 0.807188 0
M  V30 5677 C 523.532 -2.96718 1.67844 0
M  V30 5678 H 524.725 -1.43254 2.63474 0
M  V30 5679 H 522.278 -0.713435 1.39068 0
M  V30 5680 H 523.013 -3.15996 0.7292 0
M  V30 5681 H 522.798 -3.02208 2.49826 0
M  V30 5682 H 524.288 -3.75335 1.83066 0
M  V30 5683 N 524.725 -1.39134 -0.740242 0
M  V30 5684 C 526.002 -1.26584 -1.49117 0
M  V30 5685 C 526.382 0.126902 -2.10718 0
M  V30 5686 O 525.73 1.13765 -1.98166 0
M  V30 5687 C 525.94 -2.38619 -2.54681 0
M  V30 5688 C 527.288 -2.77685 -3.21211 0
M  V30 5689 O 528.312 -2.38029 -2.64991 0
M  V30 5690 O 527.171 -3.46115 -4.22926 0
M  V30 5691 H 524.265 -0.495769 -0.661923 0
M  V30 5692 H 526.811 -1.50995 -0.774514 0
M  V30 5693 H 525.583 -3.3175 -2.07504 0
M  V30 5694 H 525.206 -2.15845 -3.33911 0
M  V30 5695 N 526.204 0.969867 -1.24223 0
M  V30 5696 C 527.451 1.71256 -1.08063 0
M  V30 5697 C 527.779 1.90734 0.380872 0
M  V30 5698 O 527.034 1.46469 1.29789 0
M  V30 5699 C 527.333 3.10883 -1.76314 0
M  V30 5700 C 526.999 3.11252 -3.26241 0
M  V30 5701 C 525.661 3.1106 -3.67144 0
M  V30 5702 C 528.013 3.05751 -4.22097 0
M  V30 5703 C 525.341 3.03097 -5.02344 0
M  V30 5704 C 527.693 2.9933 -5.57301 0
M  V30 5705 C 526.357 2.97466 -5.97554 0
M  V30 5706 H 525.627 0.62667 -0.395431 0
M  V30 5707 H 528.274 1.13422 -1.54297 0
M  V30 5708 H 526.579 3.72168 -1.22468 0
M  V30 5709 H 528.276 3.67138 -1.61277 0
M  V30 5710 H 524.866 3.12165 -2.93685 0
M  V30 5711 H 529.05 3.05031 -3.91497 0
M  V30 5712 H 524.306 3.00013 -5.32731 0
M  V30 5713 H 528.48 2.94033 -6.31283 0
M  V30 5714 H 526.107 2.91051 -7.02277 0
M  V30 5715 N 527.682 1.05563 1.17022 0
M  V30 5716 C 528.91 0.78845 1.91288 0
M  V30 5717 C 529.325 -0.656318 1.77025 0
M  V30 5718 O 528.682 -1.44869 1.10992 0
M  V30 5719 C 528.733 1.16444 3.42232 0
M  V30 5720 O 528.454 2.5525 3.5606 0
M  V30 5721 C 529.955 0.923937 4.33565 0
M  V30 5722 H 527.175 0.286389 0.606813 0
M  V30 5723 H 529.719 1.4073 1.48375 0
M  V30 5724 H 527.874 0.590266 3.82877 0
M  V30 5725 H 528.288 2.70097 4.49609 0
M  V30 5726 H 529.762 1.23672 5.37968 0
M  V30 5727 H 530.239 -0.140688 4.38975 0
M  V30 5728 H 530.845 1.48214 3.98639 0
M  V30 5729 N 529.16 -1.33526 0.837174 0
M  V30 5730 C 530.407 -1.97837 0.432064 0
M  V30 5731 C 530.735 -1.66324 -1.00829 0
M  V30 5732 O 529.99 -0.93448 -1.71948 0
M  V30 5733 C 530.289 -3.52367 0.597675 0
M  V30 5734 C 529.955 -4.03826 2.00587 0
M  V30 5735 C 528.617 -4.1759 2.39106 0
M  V30 5736 C 530.969 -4.31333 2.92576 0
M  V30 5737 C 528.297 -4.56195 3.68921 0
M  V30 5738 C 530.649 -4.7139 4.2187 0
M  V30 5739 C 529.313 -4.8336 4.60347 0
M  V30 5740 H 528.583 -0.723937 0.158104 0
M  V30 5741 H 531.23 -1.5923 1.06387 0
M  V30 5742 H 529.535 -3.91624 -0.117452 0
M  V30 5743 H 531.232 -4.00126 0.26454 0
M  V30 5744 H 527.822 -3.93586 1.69671 0
M  V30 5745 H 532.006 -4.20224 2.64056 0
M  V30 5746 H 527.262 -4.63655 3.9854 0
M  V30 5747 H 531.436 -4.91631 4.93226 0
M  V30 5748 H 529.063 -5.1303 5.60985 0
M  V30 5749 N 530.638 -0.59345 -1.46 0
M  V30 5750 C 531.601 0.123538 -2.28867 0
M  V30 5751 C 532.601 0.808628 -1.38989 0
M  V30 5752 O 533.791 0.658945 -1.61256 0
M  V30 5753 C 530.923 1.1847 -3.19653 0
M  V30 5754 H 532.116 -0.604843 -2.93737 0
M  V30 5755 H 529.669 -0.351875 -1.52288 0
M  V30 5756 H 530.404 1.94431 -2.59552 0
M  V30 5757 H 530.189 0.69783 -3.8584 0
M  V30 5758 H 531.679 1.68726 -3.81997 0
M  V30 5759 N 532.116 1.54067 -0.331816 0
M  V30 5760 C 533.344 2.05131 0.269996 0
M  V30 5761 C 533.759 1.20749 1.45138 0
M  V30 5762 O 533.116 0.240069 1.80914 0
M  V30 5763 C 533.167 3.54728 0.696456 0
M  V30 5764 O 532.888 4.35906 -0.43794 0
M  V30 5765 C 534.389 4.21916 1.36021 0
M  V30 5766 H 531.609 0.668807 0.0542042 0
M  V30 5767 H 534.153 1.98777 -0.4804 0
M  V30 5768 H 532.308 3.61342 1.39681 0
M  V30 5769 H 532.722 5.24404 -0.100334 0
M  V30 5770 H 534.196 5.28015 1.60947 0
M  V30 5771 H 534.673 3.73538 2.31011 0
M  V30 5772 H 535.279 4.19463 0.702212 0
M  V30 5773 N 533.594 0.0601682 1.57485 0
M  V30 5774 C 534.842 -0.610386 1.92662 0
M  V30 5775 C 535.163 -1.70849 0.939981 0
M  V30 5776 O 534.433 -1.95895 -0.0137455 0
M  V30 5777 H 533.013 -0.228457 0.711208 0
M  V30 5778 H 535.675 0.115288 1.94559 0
M  V30 5779 H 534.771 -1.0432 2.94149 0
M  V30 5780 N 535.072 -1.5615 -0.213296 0
M  V30 5781 C 536.019 -1.93086 -1.26437 0
M  V30 5782 C 536.989 -0.789086 -1.4616 0
M  V30 5783 O 538.174 -1.04569 -1.59593 0
M  V30 5784 C 535.314 -2.26003 -2.608 0
M  V30 5785 C 534.427 -3.53156 -2.48807 0
M  V30 5786 C 533.562 -3.7548 -3.7575 0
M  V30 5787 C 532.601 -4.96119 -3.58514 0
M  V30 5788 N 531.738 -5.14791 -4.77425 0
M  V30 5789 H 536.578 -2.82707 -0.942376 0
M  V30 5790 H 534.115 -1.39919 -0.454001 0
M  V30 5791 H 536.073 -2.431 -3.39055 0
M  V30 5792 H 534.703 -1.39546 -2.91079 0
M  V30 5793 H 533.755 -3.44207 -1.61944 0
M  V30 5794 H 535.067 -4.41565 -2.31996 0
M  V30 5795 H 534.221 -3.92718 -4.62447 0
M  V30 5796 H 532.96 -2.85368 -3.95495 0
M  V30 5797 H 531.965 -4.78823 -2.70201 0
M  V30 5798 H 533.19 -5.87724 -3.40231 0
M  V30 5799 H 531.136 -4.27623 -4.97468 0
M  V30 5800 H 531.053 -5.97347 -4.63371 0
M  V30 5801 H 532.321 -5.36471 -5.65525 0
M  V30 5802 N 536.55 0.480323 -1.50102 0
M  V30 5803 C 537.799 1.22979 -1.59872 0
M  V30 5804 C 538.112 1.93282 -0.30022 0
M  V30 5805 O 539.318 2.70086 -0.276709 0
M  V30 5806 C 537.774 2.23408 -2.82164 0
M  V30 5807 C 537.382 1.5895 -4.18854 0
M  V30 5808 C 539.126 2.99055 -3.01275 0
M  V30 5809 C 537.033 2.57611 -5.32344 0
M  V30 5810 H 535.963 0.462707 -0.59533 0
M  V30 5811 H 538.614 0.501291 -1.7652 0
M  V30 5812 H 536.996 2.99511 -2.59055 0
M  V30 5813 H 538.17 0.887 -4.52182 0
M  V30 5814 H 536.485 0.956191 -4.05273 0
M  V30 5815 H 539.082 3.72876 -3.83233 0
M  V30 5816 H 539.425 3.57897 -2.12639 0
M  V30 5817 H 539.958 2.30066 -3.24522 0
M  V30 5818 H 536.697 2.03521 -6.23105 0
M  V30 5819 H 536.217 3.26041 -5.03445 0
M  V30 5820 H 537.896 3.19627 -5.62537 0
M  V30 5821 N 538.028 1.39524 0.732853 0
M  V30 5822 C 539.277 1.36175 1.48792 0
M  V30 5823 C 539.59 -0.0388195 1.95561 0
M  V30 5824 O 540.796 -0.194899 2.708 0
M  V30 5825 C 539.252 2.39242 2.68871 0
M  V30 5826 C 538.86 3.85024 2.29042 0
M  V30 5827 C 540.604 2.44972 3.46683 0
M  V30 5828 C 538.511 4.79727 3.45856 0
M  V30 5829 H 537.441 0.506267 0.558757 0
M  V30 5830 H 540.092 1.65181 0.799226 0
M  V30 5831 H 538.474 2.0331 3.39825 0
M  V30 5832 H 539.648 4.30008 1.6562 0
M  V30 5833 H 537.963 3.82609 1.64316 0
M  V30 5834 H 540.56 3.12918 4.33574 0
M  V30 5835 H 540.903 1.4749 3.89297 0
M  V30 5836 H 541.436 2.79808 2.82759 0
M  V30 5837 H 538.175 5.78479 3.08289 0
M  V30 5838 H 537.695 4.39421 4.08251 0
M  V30 5839 H 539.374 4.98731 4.12161 0
M  V30 5840 N 539.506 -0.963266 1.24736 0
M  V30 5841 C 540.754 -1.70343 1.08755 0
M  V30 5842 C 541.075 -1.91387 -0.373619 0
M  V30 5843 O 540.345 -1.4948 -1.2662 0
M  V30 5844 H 538.925 -0.631224 0.399456 0
M  V30 5845 H 541.587 -1.15859 1.56725 0
M  V30 5846 H 540.683 -2.68616 1.58909 0
M  V30 5847 N 540.985 -1.06182 -1.16461 0
M  V30 5848 C 541.935 -0.641619 -2.18786 0
M  V30 5849 C 542.919 0.327122 -1.5754 0
M  V30 5850 O 544.111 0.142746 -1.76423 0
M  V30 5851 C 541.24 -0.0283734 -3.43288 0
M  V30 5852 C 540.326 -1.02154 -4.11613 0
M  V30 5853 N 540.717 -2.19671 -4.55608 0
M  V30 5854 C 539.015 -0.852229 -4.37782 0
M  V30 5855 C 539.716 -2.82583 -5.0845 0
M  V30 5856 N 538.692 -2.10318 -5.01266 0
M  V30 5857 H 542.494 -1.53684 -2.50516 0
M  V30 5858 H 540.008 -0.933349 -1.329 0
M  V30 5859 H 542.005 0.29049 -4.15887 0
M  V30 5860 H 540.665 0.862118 -3.13046 0
M  V30 5861 H 541.676 -2.57453 -4.49375 0
M  V30 5862 H 538.353 -0.0136314 -4.17498 0
M  V30 5863 H 539.743 -3.82298 -5.52538 0
M  V30 5864 N 542.463 1.3308 -0.844243 0
M  V30 5865 C 543.396 2.27075 -0.226279 0
M  V30 5866 C 544.374 1.49911 0.629716 0
M  V30 5867 O 545.558 1.79068 0.588803 0
M  V30 5868 C 542.685 3.31767 0.681782 0
M  V30 5869 C 541.731 4.26384 -0.0994565 0
M  V30 5870 S 542.564 5.15186 -1.46094 0
M  V30 5871 C 543.72 6.23405 -0.558319 0
M  V30 5872 H 543.953 2.79141 -1.02312 0
M  V30 5873 H 541.486 1.40452 -0.641292 0
M  V30 5874 H 543.444 3.92566 1.20008 0
M  V30 5875 H 542.105 2.78507 1.45234 0
M  V30 5876 H 541.298 5.00514 0.591733 0
M  V30 5877 H 540.9 3.69949 -0.548991 0
M  V30 5878 H 543.192 6.77069 0.241672 0
M  V30 5879 H 544.135 6.96619 -1.26995 0
M  V30 5880 H 544.543 5.64333 -0.13728 0
M  V30 5881 N 543.941 0.601185 1.45683 0
M  V30 5882 C 544.871 -0.108824 2.33246 0
M  V30 5883 C 545.852 -0.865223 1.46451 0
M  V30 5884 O 547.037 -0.83704 1.75235 0
M  V30 5885 C 544.167 -1.11101 3.2905 0
M  V30 5886 C 543.121 -0.468244 4.25431 0
M  V30 5887 C 542.447 -1.57822 5.10878 0
M  V30 5888 C 543.747 0.606469 5.18767 0
M  V30 5889 H 545.441 0.622306 2.92861 0
M  V30 5890 H 542.987 0.300714 1.40825 0
M  V30 5891 H 544.94 -1.61622 3.89174 0
M  V30 5892 H 543.664 -1.87265 2.67581 0
M  V30 5893 H 542.323 0.0160484 3.66596 0
M  V30 5894 H 541.971 -2.32998 4.45781 0
M  V30 5895 H 541.671 -1.15369 5.76163 0
M  V30 5896 H 543.195 -2.08583 5.73869 0
M  V30 5897 H 544.609 0.185589 5.73 0
M  V30 5898 H 543.006 0.952381 5.92494 0
M  V30 5899 H 544.076 1.48559 4.61582 0
M  V30 5900 N 545.419 -1.53889 0.339982 0
M  V30 5901 C 546.366 -2.24902 -0.518452 0
M  V30 5902 C 547.336 -1.24593 -1.09844 0
M  V30 5903 O 548.521 -1.53317 -1.13572 0
M  V30 5904 C 545.661 -3.02262 -1.66529 0
M  V30 5905 C 544.774 -4.17418 -1.11295 0
M  V30 5906 C 543.909 -4.82273 -2.2268 0
M  V30 5907 C 542.948 -5.89503 -1.6478 0
M  V30 5908 N 542.085 -6.48153 -2.69893 0
M  V30 5909 H 546.925 -2.97853 0.0936579 0
M  V30 5910 H 544.462 -1.46986 0.0579924 0
M  V30 5911 H 546.42 -3.45371 -2.3404 0
M  V30 5912 H 545.05 -2.31614 -2.24844 0
M  V30 5913 H 544.102 -3.78976 -0.328886 0
M  V30 5914 H 545.414 -4.94554 -0.649414 0
M  V30 5915 H 544.568 -5.28435 -2.98063 0
M  V30 5916 H 543.307 -4.04552 -2.72376 0
M  V30 5917 H 542.312 -5.42728 -0.879004 0
M  V30 5918 H 543.537 -6.6913 -1.1594 0
M  V30 5919 H 541.483 -5.73298 -3.1885 0
M  V30 5920 H 541.4 -7.20752 -2.28151 0
M  V30 5921 H 542.668 -6.98968 -3.45056 0
M  V30 5922 N 546.897 -0.0685191 -1.57451 0
M  V30 5923 C 547.827 0.89747 -2.15564 0
M  V30 5924 C 548.808 1.31266 -1.08181 0
M  V30 5925 O 549.993 1.38429 -1.36202 0
M  V30 5926 C 547.123 2.16623 -2.71463 0
M  V30 5927 C 546.077 1.89054 -3.83982 0
M  V30 5928 C 545.403 3.22532 -4.26471 0
M  V30 5929 C 546.703 1.1984 -5.08366 0
M  V30 5930 H 548.397 0.413373 -2.96533 0
M  V30 5931 H 545.943 0.197391 -1.42641 0
M  V30 5932 H 547.896 2.84614 -3.10761 0
M  V30 5933 H 546.62 2.67269 -1.8771 0
M  V30 5934 H 545.279 1.23469 -3.45183 0
M  V30 5935 H 544.927 3.71013 -3.39644 0
M  V30 5936 H 544.627 3.04879 -5.02317 0
M  V30 5937 H 546.151 3.91727 -4.68383 0
M  V30 5938 H 547.565 1.77896 -5.45001 0
M  V30 5939 H 545.962 1.12456 -5.89469 0
M  V30 5940 H 547.032 0.176996 -4.84577 0
M  V30 5941 N 548.375 1.56261 0.205012 0
M  V30 5942 C 549.322 1.93754 1.25411 0
M  V30 5943 C 550.292 0.796826 1.45739 0
M  V30 5944 O 551.477 1.05414 1.59036 0
M  V30 5945 C 548.617 2.27383 2.59598 0
M  V30 5946 C 547.73 3.5447 2.46931 0
M  V30 5947 C 546.865 3.77468 3.73753 0
M  V30 5948 C 545.904 4.98014 3.55877 0
M  V30 5949 N 545.041 5.17316 4.74688 0
M  V30 5950 H 549.881 2.83203 0.92737 0
M  V30 5951 H 547.418 1.40158 0.446574 0
M  V30 5952 H 549.376 2.44895 3.37761 0
M  V30 5953 H 548.006 1.41088 2.90335 0
M  V30 5954 H 547.058 3.45061 1.60116 0
M  V30 5955 H 548.37 4.42789 2.29651 0
M  V30 5956 H 547.524 3.95165 4.60358 0
M  V30 5957 H 546.263 2.87461 3.93976 0
M  V30 5958 H 545.268 4.80249 2.67657 0
M  V30 5959 H 546.493 5.8952 3.37109 0
M  V30 5960 H 544.439 4.30255 4.95194 0
M  V30 5961 H 544.356 5.99796 4.60197 0
M  V30 5962 H 545.624 5.39463 5.62672 0
M  V30 5963 N 549.853 -0.472356 1.50355 0
M  V30 5964 C 551.101 -1.22211 1.60962 0
M  V30 5965 C 551.422 -1.92497 0.311439 0
M  V30 5966 O 550.692 -1.8405 -0.671002 0
M  V30 5967 H 549.272 -0.454092 0.593135 0
M  V30 5968 H 551.934 -0.544977 1.87126 0
M  V30 5969 H 551.03 -1.9707 2.42012 0
M  V30 5970 N 551.331 -1.39911 -0.725443 0
M  V30 5971 C 552.608 -1.28158 -1.47766 0
M  V30 5972 C 552.988 0.104545 -2.10841 0
M  V30 5973 O 552.336 1.11657 -1.99361 0
M  V30 5974 C 552.546 -2.41306 -2.52135 0
M  V30 5975 C 553.894 -2.81076 -3.18247 0
M  V30 5976 O 554.918 -2.40827 -2.62452 0
M  V30 5977 O 553.777 -3.50581 -4.19231 0
M  V30 5978 H 550.871 -0.502761 -0.656628 0
M  V30 5979 H 553.417 -1.51808 -0.758456 0
M  V30 5980 H 552.189 -3.33932 -2.03974 0
M  V30 5981 H 551.812 -2.19374 -3.31603 0
M  V30 5982 N 552.809 0.956637 -1.25245 0
M  V30 5983 C 554.058 1.69537 -1.0927 0
M  V30 5984 C 554.371 1.92136 0.366503 0
M  V30 5985 O 555.577 2.63687 0.64665 0
M  V30 5986 C 554.033 3.05211 -1.9072 0
M  V30 5987 C 553.641 2.90416 -3.41119 0
M  V30 5988 C 555.385 3.82882 -1.83308 0
M  V30 5989 C 553.292 4.21468 -4.14872 0
M  V30 5990 H 552.222 0.635804 -0.405302 0
M  V30 5991 H 554.873 1.06513 -1.49423 0
M  V30 5992 H 553.255 3.69128 -1.43389 0
M  V30 5993 H 554.429 2.35444 -3.9611 0
M  V30 5994 H 552.744 2.26203 -3.49602 0
M  V30 5995 H 555.341 4.79944 -2.35706 0
M  V30 5996 H 555.684 4.0853 -0.800572 0
M  V30 5997 H 556.217 3.25711 -2.28379 0
M  V30 5998 H 552.956 4.01009 -5.18529 0
M  V30 5999 H 552.476 4.76213 -3.64665 0
M  V30 6000 H 554.155 4.90022 -4.22478 0
M  V30 6001 N 554.287 1.06798 1.15896 0
M  V30 6002 C 555.564 0.701057 1.82605 0
M  V30 6003 C 555.944 -0.817066 1.94646 0
M  V30 6004 O 555.292 -1.72933 1.49353 0
M  V30 6005 C 555.502 1.40895 3.19296 0
M  V30 6006 C 556.85 1.55744 3.95005 0
M  V30 6007 O 557.874 1.36927 3.28831 0
M  V30 6008 O 556.733 1.86658 5.13635 0
M  V30 6009 H 553.827 0.248791 0.78869 0
M  V30 6010 H 556.373 1.16857 1.23055 0
M  V30 6011 H 555.145 2.4439 3.05596 0
M  V30 6012 H 554.768 0.931847 3.86526 0
M  V30 6013 N 555.766 -1.3263 0.851289 0
M  V30 6014 C 556.991 -2.02097 0.466006 0
M  V30 6015 C 557.416 -1.63574 -0.928709 0
M  V30 6016 O 556.774 -0.834665 -1.60944 0
M  V30 6017 C 556.822 -3.55425 0.608737 0
M  V30 6018 O 555.926 -4.10827 -0.359878 0
M  V30 6019 H 555.267 -0.636911 0.187724 0
M  V30 6020 H 557.797 -1.69253 1.14955 0
M  V30 6021 H 557.807 -4.04986 0.495006 0
M  V30 6022 H 556.482 -3.82806 1.62581 0
M  V30 6023 H 555.059 -3.72349 -0.202666 0
M  V30 6024 N 557.244 -0.608902 -1.45362 0
M  V30 6025 C 558.192 0.121639 -2.32282 0
M  V30 6026 C 559.186 0.858301 -1.46046 0
M  V30 6027 O 560.392 0.773718 -1.62523 0
M  V30 6028 H 556.767 0.058086 -0.749753 0
M  V30 6029 H 558.738 -0.629866 -2.91677 0
M  V30 6030 C 557.487 1.1047 -3.29684 0
M  V30 6031 H 556.81 0.547278 -3.96036 0
M  V30 6032 H 558.25 1.58576 -3.9323 0
M  V30 6033 C 556.709 2.17891 -2.56954 0
M  V30 6034 O 557.239 3.25652 -2.35189 0
M  V30 6035 N 555.445 1.93211 -2.17066 0
M  V30 6036 H 554.992 1.05584 -2.34967 0
M  V30 6037 H 554.95 2.6529 -1.68727 0
M  V30 6038 N 558.722 1.53707 -0.348139 0
M  V30 6039 C 559.968 2.01286 0.247332 0
M  V30 6040 C 560.301 1.23546 1.49834 0
M  V30 6041 O 559.576 0.324331 1.91777 0
M  V30 6042 C 559.859 3.55768 0.556858 0
M  V30 6043 C 559.712 4.44216 -0.706564 0
M  V30 6044 C 561.031 4.1841 1.3646 0
M  V30 6045 H 558.15 0.731677 0.0884201 0
M  V30 6046 H 560.792 1.84106 -0.469584 0
M  V30 6047 H 558.942 3.70539 1.16761 0
M  V30 6048 H 560.614 4.41274 -1.34444 0
M  V30 6049 H 558.857 4.12892 -1.33052 0
M  V30 6050 H 559.528 5.50202 -0.445186 0
M  V30 6051 H 562.004 4.07365 0.848113 0
M  V30 6052 H 560.88 5.26563 1.54992 0
M  V30 6053 H 561.141 3.7333 2.36805 0
M  V30 6054 N 560.2 0.0768682 1.57412 0
M  V30 6055 C 561.163 -0.873949 2.11884 0
M  V30 6056 C 562.163 -1.22301 1.04398 0
M  V30 6057 O 563.353 -1.15545 1.30365 0
M  V30 6058 C 560.485 -2.17575 2.62438 0
M  V30 6059 H 561.678 -0.401278 2.97203 0
M  V30 6060 H 559.231 -0.171904 1.55352 0
M  V30 6061 H 559.966 -2.69368 1.80587 0
M  V30 6062 H 559.751 -1.93534 3.41009 0
M  V30 6063 H 561.241 -2.85631 3.04639 0
M  V30 6064 N 561.678 -1.56367 -0.196722 0
M  V30 6065 C 562.927 -1.79724 -0.915539 0
M  V30 6066 C 563.24 -0.649804 -1.84491 0
M  V30 6067 O 564.446 -0.767631 -2.60422 0
M  V30 6068 C 562.902 -3.18369 -1.67836 0
M  V30 6069 C 562.51 -4.4091 -0.793897 0
M  V30 6070 C 564.254 -3.51037 -2.38691 0
M  V30 6071 C 562.161 -5.70577 -1.55549 0
M  V30 6072 H 561.091 -0.67013 -0.345604 0
M  V30 6073 H 563.742 -1.82721 -0.168856 0
M  V30 6074 H 562.124 -3.09617 -2.46887 0
M  V30 6075 H 563.298 -4.60781 -0.042163 0
M  V30 6076 H 561.613 -4.15937 -0.19626 0
M  V30 6077 H 564.21 -4.4515 -2.96219 0
M  V30 6078 H 564.553 -2.74704 -3.12799 0
M  V30 6079 H 565.086 -3.61229 -1.66608 0
M  V30 6080 H 561.825 -6.49871 -0.857226 0
M  V30 6081 H 561.345 -5.54726 -2.2812 0
M  V30 6082 H 563.024 -6.11637 -2.10971 0
M  V30 6083 N 563.156 0.464375 -1.50603 0
M  V30 6084 C 564.433 1.22549 -1.5245 0
M  V30 6085 C 564.813 2.09327 -0.273035 0
M  V30 6086 O 564.161 2.16074 0.743242 0
M  V30 6087 C 564.371 2.05074 -2.82393 0
M  V30 6088 C 565.719 2.63036 -3.33313 0
M  V30 6089 O 566.743 2.1531 -2.8376 0
M  V30 6090 O 565.602 3.5001 -4.19709 0
M  V30 6091 H 562.696 0.556471 -0.611775 0
M  V30 6092 H 565.242 0.475648 -1.62898 0
M  V30 6093 H 564.014 1.41169 -3.64948 0
M  V30 6094 H 563.637 2.87179 -2.7498 0
M  V30 6095 N 564.634 1.40294 0.718013 0
M  V30 6096 C 565.564 1.43118 1.84498 0
M  V30 6097 C 566.545 0.292403 1.67568 0
M  V30 6098 O 567.73 0.500675 1.87635 0
M  V30 6099 C 564.86 1.29065 3.22427 0
M  V30 6100 C 563.814 2.40521 3.54025 0
M  V30 6101 C 563.14 2.11546 4.91073 0
M  V30 6102 C 564.44 3.82859 3.55269 0
M  V30 6103 H 566.134 2.37432 1.82391 0
M  V30 6104 H 563.68 1.14283 0.87609 0
M  V30 6105 H 565.633 1.29658 4.00957 0
M  V30 6106 H 564.357 0.312271 3.25104 0
M  V30 6107 H 563.016 2.39173 2.77834 0
M  V30 6108 H 562.664 1.12104 4.90348 0
M  V30 6109 H 562.364 2.86216 5.1318 0
M  V30 6110 H 563.888 2.13817 5.71939 0
M  V30 6111 H 565.302 3.86044 4.23843 0
M  V30 6112 H 563.699 4.57029 3.88902 0
M  V30 6113 H 564.769 4.12617 2.54706 0
M  V30 6114 N 566.112 -0.949982 1.2575 0
M  V30 6115 C 567.337 -1.73503 1.13628 0
M  V30 6116 C 567.762 -1.85601 -0.30559 0
M  V30 6117 O 567.12 -1.33984 -1.22139 0
M  V30 6118 C 567.168 -3.1243 1.80055 0
M  V30 6119 O 566.272 -3.97916 1.08336 0
M  V30 6120 H 565.613 -0.532665 0.396439 0
M  V30 6121 H 568.143 -1.19043 1.66403 0
M  V30 6122 H 568.153 -3.62866 1.86527 0
M  V30 6123 H 566.828 -3.02941 2.84956 0
M  V30 6124 H 565.405 -3.56375 1.09777 0
M  V30 6125 N 567.59 -1.07411 -1.15328 0
M  V30 6126 C 568.538 -0.689316 -2.22151 0
M  V30 6127 C 569.532 0.300156 -1.6672 0
M  V30 6128 O 570.738 0.163804 -1.79253 0
M  V30 6129 H 567.113 -0.204834 -0.723566 0
M  V30 6130 H 569.084 -1.59988 -2.51886 0
M  V30 6131 C 567.833 -0.103848 -3.47545 0
M  V30 6132 H 567.156 -0.856367 -3.90521 0
M  V30 6133 H 568.596 0.127725 -4.23808 0
M  V30 6134 C 567.055 1.15563 -3.1646 0
M  V30 6135 O 567.585 2.242 -3.33312 0
M  V30 6136 N 565.791 1.06203 -2.70498 0
M  V30 6137 H 565.338 0.177933 -2.56985 0
M  V30 6138 H 565.296 1.90553 -2.50074 0
M  V30 6139 N 569.068 1.32177 -0.85831 0
M  V30 6140 C 570.015 2.28794 -0.303607 0
M  V30 6141 C 570.985 1.55213 0.591453 0
M  V30 6142 O 572.17 1.83418 0.525585 0
M  V30 6143 C 569.31 3.41475 0.49889 0
M  V30 6144 C 568.423 4.2993 -0.422373 0
M  V30 6145 C 567.558 5.29743 0.393111 0
M  V30 6146 C 566.597 6.09842 -0.525317 0
M  V30 6147 N 565.734 7.01643 0.253208 0
M  V30 6148 H 570.574 2.75631 -1.13276 0
M  V30 6149 H 568.111 1.35606 -0.570026 0
M  V30 6150 H 570.069 4.05531 0.979826 0
M  V30 6151 H 568.699 2.95779 1.29284 0
M  V30 6152 H 567.751 3.66422 -1.02171 0
M  V30 6153 H 569.063 4.85899 -1.12709 0
M  V30 6154 H 568.217 5.9942 0.937056 0
M  V30 6155 H 566.956 4.744 1.13117 0
M  V30 6156 H 565.961 5.39066 -1.08112 0
M  V30 6157 H 567.186 6.6727 -1.26205 0
M  V30 6158 H 565.132 6.48725 0.974295 0
M  V30 6159 H 565.049 7.54981 -0.392398 0
M  V30 6160 H 566.317 7.756 0.778761 0
M  V30 6161 N 570.547 0.616602 1.45037 0
M  V30 6162 C 571.51 -0.0871112 2.29034 0
M  V30 6163 C 572.51 -0.786414 1.40258 0
M  V30 6164 O 573.7 -0.633207 1.62284 0
M  V30 6165 C 570.832 -1.13369 3.21497 0
M  V30 6166 H 572.025 0.651497 2.92738 0
M  V30 6167 H 569.578 0.376058 1.51709 0
M  V30 6168 H 570.313 -1.90277 2.62612 0
M  V30 6169 H 570.098 -0.636358 3.86902 0
M  V30 6170 H 571.588 -1.62627 3.84633 0
M  V30 6171 N 572.025 -1.5352 0.356285 0
M  V30 6172 C 573.25 -2.06007 -0.239961 0
M  V30 6173 C 573.675 -1.22872 -1.42422 0
M  V30 6174 O 573.033 -0.245516 -1.7963 0
M  V30 6175 C 573.081 -3.5522 -0.620587 0
M  V30 6176 O 572.185 -3.74864 -1.71902 0
M  V30 6177 H 571.526 -0.662961 -0.0371377 0
M  V30 6178 H 574.056 -1.98033 0.514194 0
M  V30 6179 H 574.066 -3.98081 -0.894197 0
M  V30 6180 H 572.741 -4.15175 0.245407 0
M  V30 6181 H 571.318 -3.43904 -1.44169 0
M  V30 6182 N 573.503 -0.0852151 -1.57369 0
M  V30 6183 C 574.433 0.874556 -2.16503 0
M  V30 6184 C 575.414 1.30111 -1.09568 0
M  V30 6185 O 576.599 1.36977 -1.37662 0
M  V30 6186 C 573.729 2.13731 -2.73745 0
M  V30 6187 C 572.683 1.84971 -3.85966 0
M  V30 6188 C 572.009 3.17991 -4.29867 0
M  V30 6189 C 573.309 1.14442 -5.09608 0
M  V30 6190 H 575.003 0.381899 -2.96954 0
M  V30 6191 H 572.549 0.18225 -1.42842 0
M  V30 6192 H 574.502 2.81302 -3.13763 0
M  V30 6193 H 573.226 2.65263 -1.90534 0
M  V30 6194 H 571.885 1.19801 -3.46473 0
M  V30 6195 H 571.533 3.6739 -3.4356 0
M  V30 6196 H 571.233 2.99534 -5.05523 0
M  V30 6197 H 572.757 3.86737 -4.72511 0
M  V30 6198 H 574.171 1.72105 -5.46857 0
M  V30 6199 H 572.568 1.06197 -5.90629 0
M  V30 6200 H 573.638 0.12559 -4.84737 0
M  V30 6201 N 574.981 1.5647 0.188427 0
M  V30 6202 C 575.944 1.9421 1.21718 0
M  V30 6203 C 576.944 0.823901 1.38089 0
M  V30 6204 O 578.134 1.09122 1.35787 0
M  V30 6205 C 575.266 2.22197 2.58537 0
M  V30 6206 H 576.459 2.86252 0.894418 0
M  V30 6207 H 574.012 1.50263 0.430211 0
M  V30 6208 H 574.747 1.32814 2.95856 0
M  V30 6209 H 574.532 3.03688 2.48025 0
M  V30 6210 H 576.022 2.52376 3.3271 0
M  V30 6211 N 576.459 -0.456382 1.50847 0
M  V30 6212 C 577.706 -1.20736 1.62571 0
M  V30 6213 C 578.034 -1.9163 0.332904 0
M  V30 6214 O 577.289 -1.8343 -0.682058 0
M  V30 6215 C 577.588 -2.26336 2.76599 0
M  V30 6216 C 577.254 -1.7259 4.16562 0
M  V30 6217 C 575.916 -1.57654 4.54641 0
M  V30 6218 C 578.268 -1.32877 5.03977 0
M  V30 6219 C 575.596 -1.0145 5.77862 0
M  V30 6220 C 577.948 -0.7811 6.27759 0
M  V30 6221 C 576.612 -0.618488 6.64628 0
M  V30 6222 H 575.882 -0.441803 0.594888 0
M  V30 6223 H 578.529 -0.501169 1.84826 0
M  V30 6224 H 576.834 -3.0292 2.48489 0
M  V30 6225 H 578.531 -2.84227 2.82871 0
M  V30 6226 H 575.121 -1.85187 3.86528 0
M  V30 6227 H 579.305 -1.43245 4.75179 0
M  V30 6228 H 574.561 -0.876109 6.0509 0
M  V30 6229 H 578.735 -0.464783 6.94847 0
M  V30 6230 H 576.362 -0.180838 7.59985 0
M  V30 6231 N 577.937 -1.40673 -0.710563 0
M  V30 6232 C 578.867 -1.44095 -1.83736 0
M  V30 6233 C 579.848 -0.301286 -1.67411 0
M  V30 6234 O 581.033 -0.510618 -1.87367 0
M  V30 6235 C 578.163 -1.30773 -3.21738 0
M  V30 6236 C 577.117 -2.42395 -3.52745 0
M  V30 6237 C 576.443 -2.14147 -4.89944 0
M  V30 6238 C 577.743 -3.84738 -3.53234 0
M  V30 6239 H 579.437 -2.38396 -1.81129 0
M  V30 6240 H 576.983 -1.14746 -0.870017 0
M  V30 6241 H 578.936 -1.31783 -4.00264 0
M  V30 6242 H 577.66 -0.329507 -3.24934 0
M  V30 6243 H 576.319 -2.40643 -2.76562 0
M  V30 6244 H 575.967 -1.14703 -4.89747 0
M  V30 6245 H 575.667 -2.88934 -5.11655 0
M  V30 6246 H 577.191 -2.16848 -5.70797 0
M  V30 6247 H 578.605 -3.88286 -4.2179 0
M  V30 6248 H 577.002 -4.59085 -3.86473 0
M  V30 6249 H 578.072 -4.13962 -2.52514 0
M  V30 6250 N 579.415 0.9433 -1.26252 0
M  V30 6251 C 580.347 2.04542 -1.03417 0
M  V30 6252 C 581.36 1.62799 0.0046911 0
M  V30 6253 O 582.549 1.76944 -0.235146 0
M  V30 6254 C 579.649 3.34511 -0.543671 0
M  V30 6255 C 578.822 4.05033 -1.65128 0
M  V30 6256 C 577.881 5.13273 -1.1592 0
M  V30 6257 O 576.907 5.38095 -1.85586 0
M  V30 6258 N 578.109 5.805 -0.00649279 0
M  V30 6259 H 580.874 2.24699 -1.98319 0
M  V30 6260 H 578.435 1.11264 -1.1761 0
M  V30 6261 H 580.427 4.04212 -0.198703 0
M  V30 6262 H 578.997 3.11042 0.311711 0
M  V30 6263 H 578.217 3.29275 -2.16729 0
M  V30 6264 H 579.505 4.48903 -2.39508 0
M  V30 6265 H 578.903 5.62767 0.575347 0
M  V30 6266 H 577.46 6.51201 0.279416 0
M  V30 6267 N 580.893 1.08022 1.14757 0
M  V30 6268 C 581.84 0.706657 2.19716 0
M  V30 6269 C 582.81 -0.30525 1.63271 0
M  V30 6270 O 583.995 -0.19015 1.8985 0
M  V30 6271 C 581.135 0.117914 3.44898 0
M  V30 6272 C 580.248 1.18212 4.15512 0
M  V30 6273 C 579.383 0.557659 5.28265 0
M  V30 6274 C 578.422 1.60418 5.90705 0
M  V30 6275 N 577.559 1.0018 6.94916 0
M  V30 6276 H 582.399 1.60603 2.51019 0
M  V30 6277 H 579.936 0.802664 1.23271 0
M  V30 6278 H 581.894 -0.241112 4.16503 0
M  V30 6279 H 580.524 -0.744788 3.1409 0
M  V30 6280 H 579.576 1.65863 3.42335 0
M  V30 6281 H 580.888 1.97533 4.5802 0
M  V30 6282 H 580.042 0.146654 6.06523 0
M  V30 6283 H 578.781 -0.267249 4.86967 0
M  V30 6284 H 577.786 2.02489 5.11154 0
M  V30 6285 H 579.011 2.43149 6.34078 0
M  V30 6286 H 576.957 0.197917 6.55701 0
M  V30 6287 H 576.874 1.73216 7.35889 0
M  V30 6288 H 578.142 0.616523 7.77058 0
M  V30 6289 N 582.371 -1.3172 0.865308 0
M  V30 6290 C 583.321 -2.26157 0.289305 0
M  V30 6291 C 584.305 -1.50428 -0.570977 0
M  V30 6292 O 585.497 -1.71978 -0.418617 0
M  V30 6293 C 582.626 -3.39457 -0.512237 0
M  V30 6294 C 581.712 -4.22561 0.361028 0
M  V30 6295 N 582.103 -4.84501 1.45231 0
M  V30 6296 C 580.401 -4.45739 0.152641 0
M  V30 6297 C 581.102 -5.46586 1.99043 0
M  V30 6298 N 580.078 -5.28119 1.28809 0
M  V30 6299 H 583.88 -2.71581 1.12344 0
M  V30 6300 H 581.394 -1.45932 0.712565 0
M  V30 6301 H 583.391 -4.06133 -0.941379 0
M  V30 6302 H 582.051 -2.95577 -1.34404 0
M  V30 6303 H 583.062 -4.84293 1.83524 0
M  V30 6304 H 579.739 -4.1251 -0.643583 0
M  V30 6305 H 581.129 -6.05817 2.90577 0
M  V30 6306 N 583.85 -0.624285 -1.44708 0
M  V30 6307 C 584.779 0.0717025 -2.3339 0
M  V30 6308 C 585.76 0.841814 -1.47809 0
M  V30 6309 O 586.946 0.809056 -1.76544 0
M  V30 6310 C 584.076 1.05852 -3.30776 0
M  V30 6311 C 583.029 0.400503 -4.26122 0
M  V30 6312 C 582.356 1.49674 -5.13324 0
M  V30 6313 C 583.656 -0.688924 -5.17737 0
M  V30 6314 H 585.35 -0.668819 -2.91834 0
M  V30 6315 H 582.896 -0.32308 -1.40329 0
M  V30 6316 H 584.849 1.5541 -3.91696 0
M  V30 6317 H 583.572 1.82984 -2.70526 0
M  V30 6318 H 582.231 -0.0743687 -3.66525 0
M  V30 6319 H 581.88 2.25877 -4.49431 0
M  V30 6320 H 581.58 1.06188 -5.77926 0
M  V30 6321 H 583.104 1.99427 -5.77115 0
M  V30 6322 H 584.518 -0.276724 -5.72632 0
M  V30 6323 H 582.915 -1.04652 -5.90904 0
M  V30 6324 H 583.985 -1.55884 -4.5916 0
M  V30 6325 N 585.328 1.53329 -0.364422 0
M  V30 6326 C 586.576 2.00842 0.225189 0
M  V30 6327 C 586.897 1.25345 1.49378 0
M  V30 6328 O 586.167 0.366396 1.92443 0
M  V30 6329 H 584.747 0.742009 0.0862027 0
M  V30 6330 H 587.409 1.8863 -0.490389 0
M  V30 6331 H 586.505 3.08795 0.452987 0
M  V30 6332 N 586.806 0.0935595 1.57322 0
M  V30 6333 C 587.736 -0.863062 2.16964 0
M  V30 6334 C 588.717 -1.29528 1.10256 0
M  V30 6335 O 589.902 -1.36245 1.38387 0
M  V30 6336 C 587.032 -2.12276 2.74875 0
M  V30 6337 C 585.986 -1.82921 3.86942 0
M  V30 6338 C 585.312 -3.15707 4.31548 0
M  V30 6339 C 586.612 -1.11737 5.10208 0
M  V30 6340 H 588.306 -0.366145 2.97153 0
M  V30 6341 H 585.852 -0.174673 1.42937 0
M  V30 6342 H 587.805 -2.79634 3.1525 0
M  V30 6343 H 586.529 -2.64248 1.91938 0
M  V30 6344 H 585.188 -1.17961 3.47103 0
M  V30 6345 H 584.836 -3.65563 3.45504 0
M  V30 6346 H 584.536 -2.96849 5.07104 0
M  V30 6347 H 586.06 -3.84226 4.74555 0
M  V30 6348 H 587.474 -1.69203 5.47762 0
M  V30 6349 H 585.871 -1.03064 5.91183 0
M  V30 6350 H 586.941 -0.0998818 4.84797 0
M  V30 6351 N 588.284 -1.56567 -0.180126 0
M  V30 6352 C 589.234 -1.92132 -1.22756 0
M  V30 6353 C 590.218 -0.788639 -1.40247 0
M  V30 6354 O 591.41 -1.05171 -1.42366 0
M  V30 6355 C 588.539 -2.27719 -2.56902 0
M  V30 6356 C 587.625 -3.47481 -2.43142 0
M  V30 6357 N 588.016 -4.64973 -1.99082 0
M  V30 6358 C 586.314 -3.51914 -2.73994 0
M  V30 6359 C 587.015 -5.47119 -1.97574 0
M  V30 6360 N 585.991 -4.87925 -2.39645 0
M  V30 6361 H 589.793 -2.80464 -0.878478 0
M  V30 6362 H 587.307 -1.57686 -0.388463 0
M  V30 6363 H 589.304 -2.51389 -3.32579 0
M  V30 6364 H 587.964 -1.40722 -2.92621 0
M  V30 6365 H 588.975 -4.89358 -1.69557 0
M  V30 6366 H 585.652 -2.75372 -3.13809 0
M  V30 6367 H 587.042 -6.51254 -1.65282 0
M  V30 6368 N 589.762 0.448376 -1.51087 0
M  V30 6369 C 590.709 1.54341 -1.71603 0
M  V30 6370 C 591.679 1.56463 -0.557536 0
M  V30 6371 O 592.864 1.73644 -0.79072 0
M  V30 6372 C 590.004 2.92148 -1.83695 0
M  V30 6373 C 589.117 2.99639 -3.11192 0
M  V30 6374 C 588.252 4.285 -3.13944 0
M  V30 6375 C 587.291 4.29819 -4.35801 0
M  V30 6376 N 586.428 5.50186 -4.36164 0
M  V30 6377 H 591.268 1.36151 -2.65079 0
M  V30 6378 H 588.805 0.661585 -1.31383 0
M  V30 6379 H 590.763 3.72093 -1.88687 0
M  V30 6380 H 589.393 3.0892 -0.936374 0
M  V30 6381 H 588.445 2.12425 -3.15562 0
M  V30 6382 H 589.757 2.96474 -4.01129 0
M  V30 6383 H 588.911 5.16811 -3.17791 0
M  V30 6384 H 587.65 4.34307 -2.21876 0
M  V30 6385 H 586.655 3.39902 -4.32142 0
M  V30 6386 H 587.88 4.25685 -5.29121 0
M  V30 6387 H 585.826 5.56735 -3.46961 0
M  V30 6388 H 585.743 5.48856 -5.19897 0
M  V30 6389 H 587.011 6.40559 -4.44189 0
M  V30 6390 N 591.24 1.41047 0.703093 0
M  V30 6391 C 592.517 1.30493 1.45708 0
M  V30 6392 C 592.897 -0.0709892 2.10981 0
M  V30 6393 O 592.245 -1.08471 2.01113 0
M  V30 6394 C 592.455 2.45287 2.48265 0
M  V30 6395 C 593.803 2.86104 3.13735 0
M  V30 6396 O 594.827 2.44971 2.58587 0
M  V30 6397 O 593.686 3.57206 4.13601 0
M  V30 6398 H 590.78 0.513144 0.648546 0
M  V30 6399 H 593.326 1.52995 0.734208 0
M  V30 6400 H 592.098 3.37135 1.98635 0
M  V30 6401 H 591.721 2.24622 3.28071 0
M  V30 6402 N 592.718 -0.936591 1.26751 0
M  V30 6403 C 593.965 -1.68331 1.12566 0
M  V30 6404 C 594.293 -1.91677 -0.330168 0
M  V30 6405 O 593.548 -1.49859 -1.2586 0
M  V30 6406 C 593.847 -3.06099 1.84494 0
M  V30 6407 C 593.513 -3.02493 3.34378 0
M  V30 6408 C 592.175 -3.01217 3.75262 0
M  V30 6409 C 594.527 -2.94453 4.30055 0
M  V30 6410 C 591.855 -2.89672 5.10203 0
M  V30 6411 C 594.207 -2.84449 5.65041 0
M  V30 6412 C 592.871 -2.81518 6.0523 0
M  V30 6413 H 592.141 -0.615965 0.411907 0
M  V30 6414 H 594.788 -1.09292 1.5725 0
M  V30 6415 H 593.093 -3.6879 1.32292 0
M  V30 6416 H 594.79 -3.62733 1.70955 0
M  V30 6417 H 591.38 -3.04269 3.01858 0
M  V30 6418 H 595.564 -2.94544 3.99447 0
M  V30 6419 H 590.82 -2.85783 5.40498 0
M  V30 6420 H 594.994 -2.77192 6.38856 0
M  V30 6421 H 592.621 -2.72329 7.09747 0
M  V30 6422 N 594.196 -1.08629 -1.14182 0
M  V30 6423 C 595.473 -0.73002 -1.81466 0
M  V30 6424 C 595.853 0.785996 -1.95922 0
M  V30 6425 O 595.201 1.70535 -1.52086 0
M  V30 6426 C 595.411 -1.45957 -3.17014 0
M  V30 6427 C 596.759 -1.62008 -3.92477 0
M  V30 6428 O 597.783 -1.42141 -3.26611 0
M  V30 6429 O 596.642 -1.94806 -5.106 0
M  V30 6430 H 593.736 -0.261307 -0.784632 0
M  V30 6431 H 596.282 -1.188 -1.2118 0
M  V30 6432 H 595.054 -2.49221 -3.01669 0
M  V30 6433 H 594.677 -0.993222 -3.84995 0
M  V30 6434 N 595.674 1.31259 -0.872281 0
M  V30 6435 C 596.606 2.27396 -0.28697 0
M  V30 6436 C 597.619 1.53181 0.551297 0
M  V30 6437 O 598.808 1.74561 0.372914 0
M  V30 6438 C 595.908 3.33335 0.611617 0
M  V30 6439 C 595.081 4.36966 -0.194729 0
M  V30 6440 C 594.14 5.22387 0.632358 0
M  V30 6441 O 593.166 5.69169 0.0595691 0
M  V30 6442 N 594.368 5.46985 1.94391 0
M  V30 6443 H 597.133 2.78261 -1.11314 0
M  V30 6444 H 594.694 1.44306 -0.733994 0
M  V30 6445 H 596.686 3.87398 1.17068 0
M  V30 6446 H 595.256 2.82496 1.33846 0
M  V30 6447 H 594.476 3.82945 -0.935241 0
M  V30 6448 H 595.764 5.03273 -0.747935 0
M  V30 6449 H 595.162 5.10737 2.43237 0
M  V30 6450 H 593.719 6.03973 2.45071 0
M  V30 6451 N 597.152 0.631951 1.44375 0
M  V30 6452 C 598.398 0.145491 2.02879 0
M  V30 6453 C 598.753 -1.21936 1.48827 0
M  V30 6454 O 598.046 -1.7976 0.663085 0
M  V30 6455 C 598.24 0.0735861 3.57324 0
M  V30 6456 C 598.069 1.42992 4.2636 0
M  V30 6457 C 596.839 2.01691 4.63302 0
M  V30 6458 C 599.037 2.36393 4.56752 0
M  V30 6459 N 597.019 3.30551 5.17309 0
M  V30 6460 C 598.39 3.49869 5.11851 0
M  V30 6461 C 600.445 2.35462 4.38705 0
M  V30 6462 C 599.148 4.6261 5.50803 0
M  V30 6463 C 601.174 3.47268 4.78706 0
M  V30 6464 C 600.536 4.59467 5.33919 0
M  V30 6465 H 596.635 0.0971781 0.775938 0
M  V30 6466 H 599.219 0.835624 1.75856 0
M  V30 6467 H 597.39 -0.585829 3.83957 0
M  V30 6468 H 599.122 -0.421777 4.02496 0
M  V30 6469 H 595.877 1.54627 4.47647 0
M  V30 6470 H 596.301 3.96435 5.48788 0
M  V30 6471 H 600.943 1.49966 3.9531 0
M  V30 6472 H 598.661 5.48813 5.93152 0
M  V30 6473 H 602.247 3.47724 4.66454 0
M  V30 6474 H 601.127 5.44551 5.64299 0
M  V30 6475 N 598.631 -1.53133 0.372548 0
M  V30 6476 C 599.908 -1.93704 -0.271693 0
M  V30 6477 C 600.288 -1.30667 -1.65799 0
M  V30 6478 O 599.636 -0.46838 -2.23648 0
M  V30 6479 C 599.846 -3.47576 -0.314903 0
M  V30 6480 C 601.194 -4.20998 -0.551912 0
M  V30 6481 O 602.218 -3.53994 -0.39582 0
M  V30 6482 O 601.077 -5.39748 -0.85639 0
M  V30 6483 H 598.171 -0.810457 -0.164586 0
M  V30 6484 H 600.717 -1.6427 0.425838 0
M  V30 6485 H 599.489 -3.85749 0.656792 0
M  V30 6486 H 599.112 -3.83264 -1.05804 0
M  V30 6487 N 600.109 -0.101901 -1.5727 0
M  V30 6488 C 601.349 0.563489 -1.96479 0
M  V30 6489 C 601.713 1.64926 -0.983021 0
M  V30 6490 O 602.914 2.37234 -1.26386 0
M  V30 6491 C 601.185 1.09809 -3.40113 0
M  V30 6492 S 602.744 1.7744 -4.01323 0
M  V30 6493 H 599.562 0.183675 -0.686866 0
M  V30 6494 H 602.164 -0.182922 -1.94642 0
M  V30 6495 H 600.868 0.296447 -4.09328 0
M  V30 6496 H 600.399 1.88018 -3.45562 0
M  V30 6497 H 602.414 3.0591 -3.90683 0
M  V30 6498 N 601.587 1.56661 0.17182 0
M  V30 6499 C 602.517 1.99401 1.21498 0
M  V30 6500 C 603.498 0.869516 1.46197 0
M  V30 6501 O 604.683 1.13556 1.57539 0
M  V30 6502 C 601.813 2.35346 2.55401 0
M  V30 6503 C 600.767 3.5075 2.45272 0
M  V30 6504 C 600.093 3.72437 3.8366 0
M  V30 6505 C 601.393 4.84216 1.95787 0
M  V30 6506 H 603.087 2.86792 0.859699 0
M  V30 6507 H 600.633 1.37977 0.412103 0
M  V30 6508 H 602.586 2.63843 3.2858 0
M  V30 6509 H 601.31 1.44864 2.92715 0
M  V30 6510 H 599.969 3.2238 1.74547 0
M  V30 6511 H 599.617 2.79246 4.18367 0
M  V30 6512 H 599.317 4.50087 3.77751 0
M  V30 6513 H 600.841 4.03334 4.58426 0
M  V30 6514 H 602.255 5.11592 2.5874 0
M  V30 6515 H 600.652 5.65498 2.00827 0
M  V30 6516 H 601.722 4.76243 0.912159 0
M  V30 6517 N 603.065 -0.440357 1.51323 0
M  V30 6518 C 604.314 -1.18697 1.63076 0
M  V30 6519 C 604.627 -1.92418 0.35136 0
M  V30 6520 O 605.833 -2.69258 0.348221 0
M  V30 6521 C 604.289 -2.15849 2.87988 0
M  V30 6522 C 603.897 -1.47789 4.22921 0
M  V30 6523 C 605.641 -2.90962 3.09098 0
M  V30 6524 C 603.548 -2.43407 5.38987 0
M  V30 6525 H 602.478 -0.44676 0.607389 0
M  V30 6526 H 605.129 -0.454313 1.77787 0
M  V30 6527 H 603.511 -2.92537 2.66905 0
M  V30 6528 H 604.685 -0.7668 4.54375 0
M  V30 6529 H 603 -0.848404 4.07665 0
M  V30 6530 H 605.597 -3.62584 3.92985 0
M  V30 6531 H 605.94 -3.52133 2.22053 0
M  V30 6532 H 606.473 -2.21381 3.30507 0
M  V30 6533 H 603.212 -1.86929 6.28282 0
M  V30 6534 H 602.732 -3.12579 5.11913 0
M  V30 6535 H 604.411 -3.046 5.70813 0
M  V30 6536 N 604.543 -1.41418 -0.695603 0
M  V30 6537 C 605.453 -1.45622 -1.83933 0
M  V30 6538 C 606.469 -0.346825 -1.70508 0
M  V30 6539 O 607.645 -0.59454 -1.92424 0
M  V30 6540 C 604.71 -1.33627 -3.19914 0
M  V30 6541 C 603.771 -2.54882 -3.45447 0
M  V30 6542 C 603.004 -2.43449 -4.7494 0
M  V30 6543 O 603.227 -1.45905 -5.51424 0
M  V30 6544 O 602.161 -3.33206 -5.01256 0
M  V30 6545 H 605.987 -2.42114 -1.83342 0
M  V30 6546 H 603.572 -1.22956 -0.848658 0
M  V30 6547 H 605.454 -1.29221 -4.01098 0
M  V30 6548 H 604.129 -0.402508 -3.21188 0
M  V30 6549 H 603.036 -2.64865 -2.64192 0
M  V30 6550 H 604.369 -3.47087 -3.48987 0
M  V30 6551 N 606.021 0.929856 -1.27246 0
M  V30 6552 C 607.269 1.674 -1.13233 0
M  V30 6553 C 607.59 1.92311 0.322744 0
M  V30 6554 O 606.86 1.52784 1.22612 0
M  V30 6555 H 605.44 0.620411 -0.416052 0
M  V30 6556 H 608.102 1.11663 -1.59741 0
M  V30 6557 H 607.198 2.64308 -1.65975 0
M  V30 6558 N 607.499 1.09233 1.13605 0
M  V30 6559 C 608.776 0.739633 1.81077 0
M  V30 6560 C 609.156 -0.775595 1.96336 0
M  V30 6561 O 608.504 -1.69726 1.52988 0
M  V30 6562 C 608.714 1.47636 3.16235 0
M  V30 6563 C 610.062 1.64087 3.91613 0
M  V30 6564 O 611.086 1.43871 3.25852 0
M  V30 6565 O 609.945 1.97511 5.0956 0
M  V30 6566 H 607.039 0.265464 0.783236 0
M  V30 6567 H 609.585 1.19441 1.20549 0
M  V30 6568 H 608.357 2.50818 3.00344 0
M  V30 6569 H 607.98 1.01362 3.84462 0
M  V30 6570 N 608.977 -1.30795 0.87923 0
M  V30 6571 C 610.254 -1.91145 0.415086 0
M  V30 6572 C 610.634 -1.7995 -1.10368 0
M  V30 6573 O 609.982 -1.21305 -1.93642 0
M  V30 6574 C 610.192 -3.37014 0.906778 0
M  V30 6575 C 611.54 -4.14101 0.938358 0
M  V30 6576 O 612.564 -3.45834 0.853053 0
M  V30 6577 O 611.423 -5.36054 1.06342 0
M  V30 6578 H 608.517 -0.81736 0.125905 0
M  V30 6579 H 611.063 -1.39401 0.967753 0
M  V30 6580 H 609.835 -3.3922 1.95053 0
M  V30 6581 H 609.458 -3.96204 0.332948 0
M  V30 6582 N 610.455 -0.639598 -1.44038 0
M  V30 6583 C 611.365 0.0612377 -2.3452 0
M  V30 6584 C 612.381 0.826717 -1.53106 0
M  V30 6585 O 613.557 0.777059 -1.85806 0
M  V30 6586 C 610.622 1.02492 -3.31204 0
M  V30 6587 C 609.683 0.25788 -4.28525 0
M  V30 6588 C 608.916 1.17566 -5.2059 0
M  V30 6589 O 609.139 2.41461 -5.16771 0
M  V30 6590 O 608.073 0.655407 -5.98321 0
M  V30 6591 H 611.899 -0.68318 -2.95916 0
M  V30 6592 H 609.484 -0.399784 -1.43952 0
M  V30 6593 H 611.366 1.57911 -3.90694 0
M  V30 6594 H 610.041 1.7498 -2.7233 0
M  V30 6595 H 608.948 -0.339566 -3.72556 0
M  V30 6596 H 610.281 -0.427154 -4.90343 0
M  V30 6597 N 611.933 1.52934 -0.380664 0
M  V30 6598 C 612.881 2.27727 0.47361 0
M  V30 6599 C 613.875 1.31288 1.0705 0
M  V30 6600 O 615.081 1.4886 1.01197 0
M  V30 6601 H 611.456 0.732189 0.171475 0
M  V30 6602 H 613.427 2.97864 -0.178785 0
M  V30 6603 C 612.176 3.0904 1.59341 0
M  V30 6604 H 611.499 3.831 1.14343 0
M  V30 6605 H 612.939 3.64527 2.16555 0
M  V30 6606 C 611.398 2.20813 2.54447 0
M  V30 6607 O 611.928 1.82907 3.57642 0
M  V30 6608 N 610.134 1.85145 2.23986 0
M  V30 6609 H 609.681 2.16169 1.40103 0
M  V30 6610 H 609.639 1.26402 2.87871 0
M  V30 6611 N 613.412 0.11024 1.57214 0
M  V30 6612 C 614.342 -0.840002 2.17867 0
M  V30 6613 C 615.323 -1.28352 1.11624 0
M  V30 6614 O 616.508 -1.3477 1.39824 0
M  V30 6615 C 613.638 -2.09349 2.77111 0
M  V30 6616 C 612.592 -1.78807 3.8886 0
M  V30 6617 C 611.918 -3.11112 4.34872 0
M  V30 6618 C 613.218 -1.0632 5.11364 0
M  V30 6619 H 614.912 -0.334608 2.97524 0
M  V30 6620 H 612.458 -0.159502 1.43114 0
M  V30 6621 H 614.411 -2.76275 3.18198 0
M  V30 6622 H 613.135 -2.62198 1.9473 0
M  V30 6623 H 611.794 -1.14273 3.48335 0
M  V30 6624 H 611.442 -3.61877 3.49362 0
M  V30 6625 H 611.142 -2.91453 5.10224 0
M  V30 6626 H 612.666 -3.79171 4.78604 0
M  V30 6627 H 614.08 -1.63383 5.49526 0
M  V30 6628 H 612.477 -0.967876 5.92243 0
M  V30 6629 H 613.547 -0.0484569 4.84876 0
M  V30 6630 N 614.89 -1.56749 -0.16351 0
M  V30 6631 C 616.139 -1.81626 -0.877211 0
M  V30 6632 C 616.452 -0.688791 -1.83071 0
M  V30 6633 O 617.658 -0.822697 -2.58735 0
M  V30 6634 C 616.114 -3.21858 -1.61045 0
M  V30 6635 C 615.722 -4.42494 -0.700195 0
M  V30 6636 C 617.466 -3.56021 -2.31192 0
M  V30 6637 C 615.373 -5.73748 -1.43412 0
M  V30 6638 H 614.303 -0.67731 -0.331312 0
M  V30 6639 H 616.954 -1.83039 -0.13006 0
M  V30 6640 H 615.336 -3.14784 -2.40264 0
M  V30 6641 H 616.51 -4.60766 0.0555849 0
M  V30 6642 H 614.825 -4.1626 -0.10799 0
M  V30 6643 H 617.422 -4.51333 -2.8671 0
M  V30 6644 H 617.765 -2.81277 -3.06902 0
M  V30 6645 H 618.298 -3.64682 -1.58909 0
M  V30 6646 H 615.037 -6.51543 -0.719186 0
M  V30 6647 H 614.557 -5.5944 -2.16302 0
M  V30 6648 H 616.236 -6.15975 -1.9795 0
M  V30 6649 N 616.368 0.432326 -1.51554 0
M  V30 6650 C 617.779 1.01202 -1.56892 0
M  V30 6651 C 618.13 1.92175 -0.395394 0
M  V30 6652 O 617.255 2.10844 0.487198 0
M  V30 6653 C 617.85 1.84217 -2.8434 0
M  V30 6654 C 616.409 2.37228 -2.92233 0
M  V30 6655 C 615.556 1.16576 -2.51606 0
M  V30 6656 H 618.507 0.213407 -1.57259 0
M  V30 6657 H 618.528 2.69721 -2.68385 0
M  V30 6658 H 618.04 1.17979 -3.69733 0
M  V30 6659 H 616.141 3.06905 -2.11282 0
M  V30 6660 H 616.254 2.69682 -3.95991 0
M  V30 6661 H 614.618 1.51263 -2.04919 0
M  V30 6662 H 615.401 0.519404 -3.39348 0
M  V30 6663 N 617.846 1.41785 0.688094 0
M  V30 6664 C 619.094 1.41264 1.4453 0
M  V30 6665 C 619.415 0.0252946 1.94984 0
M  V30 6666 O 618.685 -0.934081 1.72197 0
M  V30 6667 H 617.265 0.519998 0.536294 0
M  V30 6668 H 619.927 1.7709 0.813941 0
M  V30 6669 H 619.023 2.10439 2.30482 0
M  V30 6670 N 619.324 -0.923095 1.27737 0
M  V30 6671 C 620.552 -1.70525 1.17171 0
M  V30 6672 C 620.967 -1.86847 -0.270881 0
M  V30 6673 O 620.324 -1.38879 -1.18401 0
M  V30 6674 C 620.375 -3.10242 1.85559 0
M  V30 6675 O 620.096 -2.94683 3.24182 0
M  V30 6676 C 621.597 -4.04586 1.81176 0
M  V30 6677 H 618.817 -0.533347 0.407163 0
M  V30 6678 H 621.361 -1.15599 1.68692 0
M  V30 6679 H 619.516 -3.62014 1.3793 0
M  V30 6680 H 619.93 -3.83045 3.58297 0
M  V30 6681 H 621.404 -5.00119 2.33633 0
M  V30 6682 H 621.881 -4.3218 0.782099 0
M  V30 6683 H 622.487 -3.58741 2.2844 0
M  V30 6684 N 620.802 -1.09834 -1.13024 0
M  V30 6685 C 621.75 -0.736283 -2.20639 0
M  V30 6686 C 622.744 0.264725 -1.67319 0
M  V30 6687 O 623.95 0.125745 -1.7956 0
M  V30 6688 H 620.325 -0.220136 -0.719058 0
M  V30 6689 H 622.296 -1.65295 -2.48436 0
M  V30 6690 C 621.045 -0.177544 -3.47246 0
M  V30 6691 H 620.368 -0.939009 -3.88616 0
M  V30 6692 H 621.808 0.0378007 -4.23983 0
M  V30 6693 C 620.267 1.08824 -3.1884 0
M  V30 6694 O 620.797 2.1708 -3.37993 0
M  V30 6695 N 619.003 1.00442 -2.7269 0
M  V30 6696 H 618.55 0.123383 -2.57304 0
M  V30 6697 H 618.508 1.85206 -2.5406 0
M  V30 6698 N 622.28 1.30327 -0.886154 0
M  V30 6699 C 623.529 1.95373 -0.501243 0
M  V30 6700 C 623.842 1.70722 0.954634 0
M  V30 6701 O 625.048 2.29761 1.44644 0
M  V30 6702 C 623.504 3.49828 -0.845493 0
M  V30 6703 C 623.112 3.83296 -2.31922 0
M  V30 6704 C 624.856 4.2118 -0.529838 0
M  V30 6705 C 622.763 5.30935 -2.60504 0
M  V30 6706 H 621.693 0.731274 -0.183722 0
M  V30 6707 H 624.344 1.48258 -1.08129 0
M  V30 6708 H 622.726 3.95522 -0.19452 0
M  V30 6709 H 623.9 3.48508 -3.01461 0
M  V30 6710 H 622.215 3.2505 -2.60253 0
M  V30 6711 H 624.812 5.29825 -0.720401 0
M  V30 6712 H 625.155 4.12902 0.530828 0
M  V30 6713 H 625.688 3.81173 -1.13806 0
M  V30 6714 H 622.427 5.44265 -3.65316 0
M  V30 6715 H 621.947 5.67019 -1.95575 0
M  V30 6716 H 623.626 5.98381 -2.46066 0
M  V30 6717 N 623.758 0.647228 1.43697 0
M  V30 6718 C 624.706 -0.0600105 2.32523 0
M  V30 6719 C 625.7 -0.819277 1.48271 0
M  V30 6720 O 626.906 -0.730356 1.64517 0
M  V30 6721 H 623.281 -0.0381872 0.75103 0
M  V30 6722 H 625.252 0.706978 2.89904 0
M  V30 6723 C 624.001 -1.0169 3.32497 0
M  V30 6724 H 623.324 -0.442083 3.97348 0
M  V30 6725 H 624.764 -1.48095 3.97296 0
M  V30 6726 C 623.223 -2.11002 2.6264 0
M  V30 6727 O 623.753 -3.19302 2.4374 0
M  V30 6728 N 621.959 -1.87388 2.22113 0
M  V30 6729 H 621.506 -0.993174 2.37684 0
M  V30 6730 H 621.464 -2.60723 1.75701 0
M  V30 6731 N 625.236 -1.5273 0.388769 0
M  V30 6732 C 626.464 -2.05992 -0.193677 0
M  V30 6733 C 626.879 -1.26053 -1.40557 0
M  V30 6734 O 626.236 -0.307049 -1.79898 0
M  V30 6735 C 626.287 -3.57068 -0.564321 0
M  V30 6736 O 626.008 -4.3398 0.599422 0
M  V30 6737 C 627.509 -4.26674 -1.20269 0
M  V30 6738 H 624.729 -0.670358 -0.0293445 0
M  V30 6739 H 627.273 -1.96857 0.553844 0
M  V30 6740 H 625.428 -3.66277 -1.26174 0
M  V30 6741 H 625.842 -5.2367 0.294895 0
M  V30 6742 H 627.316 -5.33625 -1.4124 0
M  V30 6743 H 627.793 -3.81854 -2.16989 0
M  V30 6744 H 628.399 -4.2178 -0.546047 0
M  V30 6745 N 626.714 -0.118576 -1.57153 0
M  V30 6746 C 627.942 0.54726 -1.99531 0
M  V30 6747 C 628.357 1.60251 -0.998246 0
M  V30 6748 O 627.714 1.82498 0.00893106 0
M  V30 6749 C 627.765 1.17378 -3.41913 0
M  V30 6750 O 627.486 0.160703 -4.37805 0
M  V30 6751 C 628.987 1.92297 -3.9942 0
M  V30 6752 H 626.207 0.144919 -0.655164 0
M  V30 6753 H 628.751 -0.20479 -2.03472 0
M  V30 6754 H 626.906 1.87661 -3.38913 0
M  V30 6755 H 627.32 0.61586 -5.20872 0
M  V30 6756 H 628.794 2.31462 -5.01128 0
M  V30 6757 H 629.271 2.79801 -3.38538 0
M  V30 6758 H 629.877 1.26777 -4.05965 0
M  V30 6759 N 628.193 1.56834 0.155195 0
M  V30 6760 C 629.141 1.98584 1.21107 0
M  V30 6761 C 630.135 0.876987 1.44932 0
M  V30 6762 O 631.341 1.06215 1.45322 0
M  V30 6763 H 627.716 0.632039 0.407469 0
M  V30 6764 H 629.687 2.86561 0.832195 0
M  V30 6765 C 628.436 2.37555 2.53895 0
M  V30 6766 H 627.759 3.22428 2.3639 0
M  V30 6767 H 629.199 2.70598 3.26424 0
M  V30 6768 C 627.658 1.22507 3.13837 0
M  V30 6769 O 628.188 0.521388 3.98302 0
M  V30 6770 N 626.394 0.991444 2.73164 0
M  V30 6771 H 625.941 1.56544 2.04577 0
M  V30 6772 H 625.899 0.223546 3.13604 0
M  V30 6773 N 629.671 -0.424282 1.51781 0
M  V30 6774 C 630.603 -1.53457 1.70246 0
M  V30 6775 C 631.616 -1.52004 0.582967 0
M  V30 6776 O 632.805 -1.56544 0.857683 0
M  V30 6777 C 629.905 -2.92368 1.71389 0
M  V30 6778 C 629.078 -3.1818 3.00133 0
M  V30 6779 C 628.137 -4.36884 2.9329 0
M  V30 6780 O 627.163 -4.34901 3.67219 0
M  V30 6781 N 628.365 -5.4117 2.10036 0
M  V30 6782 H 631.13 -1.38017 2.66029 0
M  V30 6783 H 628.691 -0.613394 1.4983 0
M  V30 6784 H 630.683 -3.6982 1.64362 0
M  V30 6785 H 629.253 -3.0134 0.831449 0
M  V30 6786 H 628.473 -2.28908 3.20928 0
M  V30 6787 H 629.761 -3.32261 3.85331 0
M  V30 6788 H 629.159 -5.45623 1.49373 0
M  V30 6789 H 627.716 -6.17425 2.08878 0
M  V30 6790 N 631.149 -1.42148 -0.680565 0
M  V30 6791 C 632.099 -1.41634 -1.78672 0
M  V30 6792 C 633.083 -0.288494 -1.58293 0
M  V30 6793 O 634.275 -0.530295 -1.68869 0
M  V30 6794 C 631.404 -1.31558 -3.17092 0
M  V30 6795 C 630.49 -2.49265 -3.43115 0
M  V30 6796 N 630.881 -3.74702 -3.39753 0
M  V30 6797 C 629.179 -2.43401 -3.73727 0
M  V30 6798 C 629.88 -4.52854 -3.651 0
M  V30 6799 N 628.856 -3.83181 -3.85582 0
M  V30 6800 H 632.658 -2.3652 -1.74458 0
M  V30 6801 H 630.172 -1.36415 -0.881171 0
M  V30 6802 H 632.169 -1.29272 -3.96351 0
M  V30 6803 H 630.829 -0.376696 -3.22508 0
M  V30 6804 H 631.84 -4.07378 -3.19787 0
M  V30 6805 H 628.517 -1.58062 -3.86423 0
M  V30 6806 H 629.907 -5.61827 -3.6851 0
M  V30 6807 N 632.627 0.916307 -1.28225 0
M  V30 6808 C 633.876 1.65975 -1.14608 0
M  V30 6809 C 634.189 1.93204 0.305191 0
M  V30 6810 O 635.395 2.65611 0.562432 0
M  V30 6811 C 633.851 2.98989 -2.00333 0
M  V30 6812 C 633.459 2.79417 -3.50186 0
M  V30 6813 C 635.203 3.76856 -1.95397 0
M  V30 6814 C 633.11 4.08056 -4.28071 0
M  V30 6815 H 632.04 0.622587 -0.425324 0
M  V30 6816 H 634.691 1.01705 -1.52736 0
M  V30 6817 H 633.073 3.6438 -1.5506 0
M  V30 6818 H 634.247 2.22723 -4.034 0
M  V30 6819 H 632.562 2.14966 -3.56621 0
M  V30 6820 H 635.159 4.72203 -2.50856 0
M  V30 6821 H 635.502 4.05776 -0.930137 0
M  V30 6822 H 636.035 3.1828 -2.38626 0
M  V30 6823 H 632.774 3.8431 -5.31024 0
M  V30 6824 H 632.294 4.64371 -3.79631 0
M  V30 6825 H 633.973 4.76333 -4.37854 0
M  V30 6826 N 634.105 1.10431 1.1244 0
M  V30 6827 C 635.038 0.696987 2.17296 0
M  V30 6828 C 636.016 -0.301673 1.59777 0
M  V30 6829 O 637.2 -0.200583 1.8743 0
M  V30 6830 C 634.327 0.0284094 3.38688 0
M  V30 6831 C 633.373 0.990536 4.14838 0
M  V30 6832 S 634.206 2.50785 4.73146 0
M  V30 6833 C 635.362 1.85198 5.97873 0
M  V30 6834 H 635.595 1.58523 2.51511 0
M  V30 6835 H 633.128 0.921312 1.239 0
M  V30 6836 H 635.086 -0.351009 4.08997 0
M  V30 6837 H 633.747 -0.836629 3.02753 0
M  V30 6838 H 632.94 0.469991 5.01804 0
M  V30 6839 H 632.542 1.31186 3.50237 0
M  V30 6840 H 634.834 1.18217 6.67106 0
M  V30 6841 H 635.777 2.7012 6.54554 0
M  V30 6842 H 636.185 1.31653 5.48933 0
M  V30 6843 N 635.583 -1.29855 0.893053 0
M  V30 6844 C 636.513 -2.3035 0.382249 0
M  V30 6845 C 637.494 -1.61328 -0.539203 0
M  V30 6846 O 638.679 -1.88882 -0.451342 0
M  V30 6847 C 635.809 -3.45024 -0.396983 0
M  V30 6848 C 634.763 -4.258 0.433437 0
M  V30 6849 C 634.089 -5.32605 -0.472889 0
M  V30 6850 C 635.389 -4.94549 1.67984 0
M  V30 6851 H 637.083 -2.73325 1.22205 0
M  V30 6852 H 634.629 -1.314 0.589073 0
M  V30 6853 H 636.582 -4.14398 -0.765024 0
M  V30 6854 H 635.306 -3.00875 -1.2705 0
M  V30 6855 H 633.965 -3.58125 0.783723 0
M  V30 6856 H 633.613 -4.84702 -1.34435 0
M  V30 6857 H 633.313 -5.87547 0.0789958 0
M  V30 6858 H 634.837 -6.04832 -0.837269 0
M  V30 6859 H 636.251 -5.56395 1.38192 0
M  V30 6860 H 634.648 -5.59393 2.17254 0
M  V30 6861 H 635.718 -4.20215 2.41965 0
M  V30 6862 N 637.061 -0.65484 -1.43351 0
M  V30 6863 C 637.993 0.0744757 -2.29079 0
M  V30 6864 C 639.006 0.7855 -1.42596 0
M  V30 6865 O 640.195 0.642986 -1.66517 0
M  V30 6866 C 637.295 1.12859 -3.19556 0
M  V30 6867 C 636.468 0.495381 -4.34586 0
M  V30 6868 C 635.527 1.44659 -5.05925 0
M  V30 6869 O 634.553 0.954567 -5.61139 0
M  V30 6870 N 635.755 2.78051 -5.09576 0
M  V30 6871 H 638.52 -0.661346 -2.92312 0
M  V30 6872 H 636.081 -0.497744 -1.54059 0
M  V30 6873 H 638.073 1.76577 -3.64147 0
M  V30 6874 H 636.643 1.76636 -2.57912 0
M  V30 6875 H 635.863 -0.32092 -3.92892 0
M  V30 6876 H 637.151 0.0534203 -5.08772 0
M  V30 6877 H 636.549 3.20584 -4.66093 0
M  V30 6878 H 635.106 3.37068 -5.57878 0
M  V30 6879 N 638.539 1.52521 -0.396863 0
M  V30 6880 C 639.487 2.28217 0.44943 0
M  V30 6881 C 640.481 1.32416 1.05652 0
M  V30 6882 O 641.687 1.49925 0.996124 0
M  V30 6883 H 638.062 0.733966 0.1637 0
M  V30 6884 H 640.033 2.97658 -0.210367 0
M  V30 6885 C 638.782 3.10713 1.56054 0
M  V30 6886 H 638.105 3.84291 1.10273 0
M  V30 6887 H 639.545 3.66803 2.12677 0
M  V30 6888 C 638.004 2.23499 2.52091 0
M  V30 6889 O 638.534 1.8669 3.55682 0
M  V30 6890 N 636.74 1.8751 2.2201 0
M  V30 6891 H 636.287 2.17643 1.37802 0
M  V30 6892 H 636.245 1.29448 2.86514 0
M  V30 6893 N 640.017 0.126909 1.57088 0
M  V30 6894 C 641.242 -0.53997 2.00248 0
M  V30 6895 C 641.667 -1.58927 1.00618 0
M  V30 6896 O 641.025 -1.81288 -0.0210131 0
M  V30 6897 C 641.073 -1.13565 3.4225 0
M  V30 6898 O 640.177 -2.25103 3.45547 0
M  V30 6899 H 639.518 -0.13412 0.650314 0
M  V30 6900 H 642.048 0.217718 2.03438 0
M  V30 6901 H 642.058 -1.46925 3.80627 0
M  V30 6902 H 640.733 -0.367122 4.14277 0
M  V30 6903 H 639.31 -1.93123 3.18995 0
M  V30 6904 N 641.495 -1.56914 -0.146875 0
M  V30 6905 C 642.72 -1.87881 -0.878386 0
M  V30 6906 C 643.145 -0.715945 -1.73942 0
M  V30 6907 O 642.503 0.334447 -1.78189 0
M  V30 6908 C 642.551 -3.17431 -1.71084 0
M  V30 6909 O 641.655 -3.01374 -2.81509 0
M  V30 6910 H 640.996 -0.617289 -0.244644 0
M  V30 6911 H 643.526 -2.04136 -0.137654 0
M  V30 6912 H 643.536 -3.49455 -2.10582 0
M  V30 6913 H 642.211 -4.01671 -1.07856 0
M  V30 6914 H 640.788 -2.80758 -2.45416 0
M  V30 6915 N 642.974 0.416227 -1.52004 0
M  V30 6916 C 644.222 1.16153 -1.65387 0
M  V30 6917 C 644.543 1.91208 -0.382669 0
M  V30 6918 O 643.813 1.86413 0.602231 0
M  V30 6919 H 642.393 0.431765 -0.60958 0
M  V30 6920 H 645.055 0.475151 -1.89019 0
M  V30 6921 H 644.151 1.87952 -2.4916 0
M  V30 6922 N 644.452 1.42507 0.673017 0
M  V30 6923 C 645.701 1.42364 1.42883 0
M  V30 6924 C 646.014 0.0441598 1.9555 0
M  V30 6925 O 647.22 -0.0798679 2.71382 0
M  V30 6926 C 645.676 2.5043 2.58482 0
M  V30 6927 C 645.284 3.94392 2.12506 0
M  V30 6928 C 647.028 2.59455 3.35981 0
M  V30 6929 C 644.935 4.93964 3.25198 0
M  V30 6930 H 643.865 0.52951 0.536782 0
M  V30 6931 H 646.516 1.68422 0.728448 0
M  V30 6932 H 644.898 2.1754 3.30896 0
M  V30 6933 H 646.072 4.36645 1.47233 0
M  V30 6934 H 644.387 3.89233 1.4794 0
M  V30 6935 H 646.984 3.31025 4.19912 0
M  V30 6936 H 647.327 1.63869 3.82691 0
M  V30 6937 H 647.86 2.91549 2.70637 0
M  V30 6938 H 644.599 5.91034 2.83477 0
M  V30 6939 H 644.119 4.56341 3.89247 0
M  V30 6940 H 645.798 5.15763 3.90637 0
M  V30 6941 N 645.93 -0.909495 1.28709 0
M  V30 6942 C 646.84 -2.04558 1.14861 0
M  V30 6943 C 647.856 -1.73842 0.0741621 0
M  V30 6944 O 649.032 -1.99383 0.2843 0
M  V30 6945 C 646.097 -3.36957 0.816148 0
M  V30 6946 C 645.158 -3.81255 1.97341 0
M  V30 6947 C 644.391 -5.07335 1.65671 0
M  V30 6948 O 644.614 -5.67514 0.573053 0
M  V30 6949 O 643.548 -5.47449 2.50167 0
M  V30 6950 H 647.374 -2.19161 2.10243 0
M  V30 6951 H 644.959 -1.03159 1.08068 0
M  V30 6952 H 646.841 -4.16436 0.644873 0
M  V30 6953 H 645.516 -3.2352 -0.107983 0
M  V30 6954 H 644.423 -3.02584 2.19986 0
M  V30 6955 H 645.756 -3.99261 2.87839 0
M  V30 6956 N 647.408 -1.11026 -1.11852 0
M  V30 6957 C 648.355 -0.764662 -2.17765 0
M  V30 6958 C 649.325 0.261854 -1.64023 0
M  V30 6959 O 650.51 0.139748 -1.90288 0
M  V30 6960 C 647.65 -0.209317 -3.44465 0
M  V30 6961 C 646.763 -1.29187 -4.12231 0
M  V30 6962 C 645.898 -0.697523 -5.266 0
M  V30 6963 C 644.937 -1.76023 -5.86244 0
M  V30 6964 N 644.074 -1.18569 -6.92016 0
M  V30 6965 H 648.914 -1.67202 -2.46673 0
M  V30 6966 H 646.451 -0.835065 -1.21099 0
M  V30 6967 H 648.409 0.130599 -4.16996 0
M  V30 6968 H 647.039 0.661251 -3.15955 0
M  V30 6969 H 646.091 -1.74881 -3.37818 0
M  V30 6970 H 647.403 -2.09607 -4.52622 0
M  V30 6971 H 646.557 -0.307412 -6.05921 0
M  V30 6972 H 645.296 0.138044 -4.87505 0
M  V30 6973 H 644.301 -2.1597 -5.05606 0
M  V30 6974 H 645.526 -2.59875 -6.27409 0
M  V30 6975 H 643.472 -0.371695 -6.54946 0
M  V30 6976 H 643.389 -1.92666 -7.31038 0
M  V30 6977 H 644.657 -0.82233 -7.7515 0
M  V30 6978 N 648.886 1.2938 -0.899927 0
M  V30 6979 C 650.116 1.99402 -0.540601 0
M  V30 6980 C 650.524 1.67534 0.87914 0
M  V30 6981 O 649.867 0.916821 1.59186 0
M  V30 6982 C 649.929 3.53514 -0.653326 0
M  V30 6983 C 649.593 4.08937 -2.04009 0
M  V30 6984 C 650.59 4.23815 -3.01126 0
M  V30 6985 C 648.275 4.43962 -2.34953 0
M  V30 6986 C 650.269 4.72951 -4.27313 0
M  V30 6987 C 647.956 4.92795 -3.61382 0
M  V30 6988 C 648.954 5.07244 -4.57376 0
M  V30 6989 O 648.642 5.55017 -5.8156 0
M  V30 6990 H 648.374 0.64383 -0.206057 0
M  V30 6991 H 650.928 1.65878 -1.21134 0
M  V30 6992 H 649.158 3.86628 0.0744449 0
M  V30 6993 H 650.847 4.04767 -0.303118 0
M  V30 6994 H 651.613 3.97043 -2.78535 0
M  V30 6995 H 647.492 4.31974 -1.60994 0
M  V30 6996 H 651.036 4.84144 -5.02245 0
M  V30 6997 H 646.933 5.19004 -3.83804 0
M  V30 6998 H 647.701 5.73331 -5.84153 0
M  V30 6999 N 650.364 0.662433 1.43002 0
M  V30 7000 C 651.312 -0.035345 2.32573 0
M  V30 7001 C 652.306 -0.803505 1.49131 0
M  V30 7002 O 653.512 -0.712865 1.65282 0
M  V30 7003 H 649.887 -0.0302194 0.751393 0
M  V30 7004 H 651.858 0.737686 2.89138 0
M  V30 7005 C 650.607 -0.981575 3.33557 0
M  V30 7006 H 649.93 -0.399914 3.97795 0
M  V30 7007 H 651.37 -1.43873 3.98844 0
M  V30 7008 C 649.829 -2.08204 2.64863 0
M  V30 7009 O 650.359 -3.16698 2.47113 0
M  V30 7010 N 648.565 -1.85022 2.24088 0
M  V30 7011 H 648.112 -0.967909 2.38724 0
M  V30 7012 H 648.07 -2.58845 1.78457 0
M  V30 7013 O 651.881 -1.51951 0.5471 0
M  V30 7014 H 652.572 -1.93655 0.0418362 0
M  V30 END ATOM
M  V30 BEGIN BOND
M  V30 END BOND
M  V30 END CTAB
M  END
$$$$
